
#######################################################################
#
#                 Cambridge Crystallographic Data Centre
#                                CCDC 
#
#######################################################################
#
# If this CIF has been generated from an entry in the Cambridge 
# Structural Database, then it will include bibliographic, chemical, 
# crystal, experimental, refinement or atomic coordinate data resulting 
# from the CCDC's data processing and validation procedures.
#
#######################################################################

data_PACZUP
_chemical_formula_moiety         
'C30 H54 N8 O3 6+,O4 S1 2-,4(Cl1 O4 1-),7(H2 O1)'
_chemical_name_systematic        
'39,40,41-Trioxa-1,14-diaza-4,11,17,24,29,36-hexaazoniapentacyclo(12.12.12.1^6,9^.1^19,22^.1^31,34^)hentetraconta-6,8,19,21,31,33-hexaene sulfate tetraperchlorate heptahydrate'
_symmetry_cell_setting           monoclinic
_symmetry_space_group_name_H-M   'P 21/c'
_symmetry_Int_Tables_number      14
_space_group_name_Hall           '-P 2ybc'
loop_
_symmetry_equiv_pos_site_id
_symmetry_equiv_pos_as_xyz
1 x,y,z
2 x,1/2-y,1/2+z
3 -x,-y,-z
4 -x,1/2+y,1/2-z
_cell_length_a                   22.670(6)
_cell_length_b                   19.221(6)
_cell_length_c                   25.602(7)
_cell_angle_alpha                90
_cell_angle_beta                 116.113(5)
_cell_angle_gamma                90
_cell_volume                     10017.1
_exptl_crystal_description       block
_cell_formula_units_Z            8
loop_
_atom_site_label
_atom_site_type_symbol
_atom_site_fract_x
_atom_site_fract_y
_atom_site_fract_z
N1 N -0.0325(4) 0.3534(4) 0.5659(3)
C1 C -0.0033(5) 0.2987(6) 0.5444(4)
H1 H -0.0068 0.3126 0.5059
H2 H -0.0284 0.2550 0.5393
C2 C 0.0672(5) 0.2860(5) 0.5851(4)
H3 H 0.0871 0.2577 0.5646
H4 H 0.0904 0.3312 0.5948
N2 N 0.0785(4) 0.2501(4) 0.6400(3)
H5 H 0.1223 0.2533 0.6655
H6 H 0.0550 0.2727 0.6565
C3 C 0.0592(5) 0.1760(5) 0.6321(4)
H7 H 0.0735 0.1545 0.6044
H8 H 0.0108 0.1724 0.6152
C4 C 0.0889(5) 0.1373(5) 0.6881(4)
C5 C 0.1353(5) 0.0893(5) 0.7098(5)
H9 H 0.1584 0.0682 0.6907
C6 C 0.1440(5) 0.0755(5) 0.7676(5)
H10 H 0.1740 0.0434 0.7944
C7 C 0.1021(5) 0.1163(5) 0.7769(4)
O1 O 0.0662(3) 0.1548(3) 0.7281(3)
C8 C 0.0848(5) 0.1256(5) 0.8255(4)
H11 H 0.0883 0.0804 0.8452
H12 H 0.0387 0.1417 0.8103
N3 N 0.1293(4) 0.1777(4) 0.8687(3)
H13 H 0.1719 0.1618 0.8836
H14 H 0.1273 0.2190 0.8498
C9 C 0.1116(5) 0.1907(5) 0.9179(4)
H15 H 0.0665 0.2097 0.9020
H16 H 0.1120 0.1459 0.9372
C10 C 0.1576(5) 0.2404(5) 0.9622(4)
H17 H 0.1571 0.2316 1.0001
H18 H 0.2028 0.2320 0.9670
C11 C -0.1040(5) 0.3430(6) 0.5424(4)
H19 H -0.1214 0.3260 0.5018
H20 H -0.1254 0.3881 0.5419
C12 C -0.1205(5) 0.2918(6) 0.5780(5)
H21 H -0.1680 0.2809 0.5576
H22 H -0.0961 0.2481 0.5810
N4 N -0.1050(4) 0.3167(4) 0.6374(3)
H23 H -0.0615 0.3300 0.6553
H24 H -0.1101 0.2803 0.6584
C13 C -0.1468(5) 0.3770(6) 0.6394(5)
H25 H -0.1303 0.4208 0.6302
H26 H -0.1927 0.3701 0.6098
C14 C -0.1449(5) 0.3825(5) 0.6987(4)
C15 C -0.1884(5) 0.3657(5) 0.7188(5)
H27 H -0.2306 0.3456 0.6971
C16 C -0.1596(5) 0.3833(5) 0.7780(5)
H28 H -0.1783 0.3770 0.8044
C17 C -0.1007(5) 0.4105(5) 0.7902(4)
O2 O -0.0901(3) 0.4111(3) 0.7413(3)
C18 C -0.0463(5) 0.4362(5) 0.8445(4)
H29 H -0.0644 0.4565 0.8699
H30 H -0.0221 0.4732 0.8351
N5 N 0.0002(4) 0.3775(4) 0.8761(3)
H31 H -0.0237 0.3405 0.8794
H32 H 0.0212 0.3631 0.8543
C19 C 0.0501(5) 0.3973(6) 0.9346(4)
H33 H 0.0280 0.4174 0.9570
H34 H 0.0794 0.4333 0.9312
C20 C 0.0901(5) 0.3356(6) 0.9666(4)
H35 H 0.0604 0.2960 0.9621
H36 H 0.1136 0.3469 1.0086
C21 C -0.0183(5) 0.4231(5) 0.5500(4)
H37 H -0.0528 0.4358 0.5110
H38 H 0.0243 0.4221 0.5481
C22 C -0.0159(5) 0.4773(5) 0.5936(4)
H39 H -0.0120 0.5240 0.5791
H40 H -0.0573 0.4758 0.5977
N6 N 0.0405(3) 0.4657(4) 0.6515(3)
H41 H 0.0402 0.4200 0.6621
H42 H 0.0350 0.4931 0.6785
C23 C 0.1069(4) 0.4819(5) 0.6532(4)
H43 H 0.1200 0.4434 0.6348
H44 H 0.1038 0.5250 0.6309
C24 C 0.1569(4) 0.4908(5) 0.7136(4)
C25 C 0.1932(5) 0.5448(5) 0.7439(4)
H45 H 0.1918 0.5909 0.7298
C26 C 0.2335(5) 0.5208(5) 0.7998(4)
H46 H 0.2649 0.5476 0.8307
C27 C 0.2200(4) 0.4533(5) 0.8023(4)
O3 O 0.1722(3) 0.4323(3) 0.7484(2)
C28 C 0.2443(4) 0.4002(5) 0.8491(4)
H47 H 0.2914 0.4085 0.8747
H48 H 0.2400 0.3534 0.8316
N7 N 0.2066(4) 0.4026(4) 0.8842(3)
H49 H 0.2055 0.4477 0.8959
H50 H 0.1641 0.3886 0.8616
C29 C 0.2366(5) 0.3572(5) 0.9359(4)
H51 H 0.2820 0.3732 0.9608
H52 H 0.2391 0.3090 0.9233
C30 C 0.1973(4) 0.3578(5) 0.9711(4)
H53 H 0.2255 0.3411 1.0110
H54 H 0.1839 0.4061 0.9739
N8 N 0.1394(4) 0.3142(4) 0.9451(3)
N9 N 0.3480(4) 0.6834(4) 0.0715(3)
C31 C 0.2986(5) 0.7388(6) 0.0562(4)
H55 H 0.2616 0.7279 0.0181
H56 H 0.3183 0.7832 0.0522
C32 C 0.2725(5) 0.7480(6) 0.1003(4)
H57 H 0.2575 0.7023 0.1077
H58 H 0.2339 0.7793 0.0840
N10 N 0.3218(4) 0.7776(4) 0.1573(3)
H59 H 0.3066 0.7715 0.1849
H60 H 0.3606 0.7535 0.1693
C33 C 0.3347(7) 0.8535(5) 0.1534(5)
H61 H 0.3620 0.8590 0.1323
H62 H 0.2925 0.8777 0.1308
C34 C 0.3684(6) 0.8856(5) 0.2109(4)
C35 C 0.3450(6) 0.9256(5) 0.2408(5)
H63 H 0.3016 0.9430 0.2275
C36 C 0.3981(5) 0.9362(5) 0.2960(5)
H64 H 0.3968 0.9618 0.3273
C37 C 0.4509(6) 0.9037(5) 0.2966(5)
O4 O 0.4336(3) 0.8708(3) 0.2441(3)
C38 C 0.5180(5) 0.8921(5) 0.3401(5)
H65 H 0.5343 0.9345 0.3642
H66 H 0.5463 0.8833 0.3205
N11 N 0.5224(4) 0.8315(4) 0.3787(3)
H67 H 0.4956 0.8400 0.3964
H68 H 0.5067 0.7925 0.3559
C39 C 0.5888(5) 0.8167(5) 0.4238(4)
H69 H 0.6097 0.8604 0.4440
H70 H 0.6158 0.7974 0.4056
C40 C 0.5861(5) 0.7659(5) 0.4666(4)
H71 H 0.5503 0.7796 0.4768
H72 H 0.6279 0.7681 0.5026
C41 C 0.3154(5) 0.6147(6) 0.0534(4)
H73 H 0.3090 0.6044 0.0134
H74 H 0.2716 0.6168 0.0530
C42 C 0.3549(5) 0.5563(5) 0.0936(4)
H75 H 0.3346 0.5112 0.0762
H76 H 0.4000 0.5570 0.0966
N12 N 0.3587(4) 0.5616(4) 0.1522(3)
H77 H 0.3704 0.6063 0.1657
H78 H 0.3911 0.5323 0.1767
C43 C 0.2952(5) 0.5436(5) 0.1547(4)
H79 H 0.2629 0.5813 0.1362
H80 H 0.2771 0.5003 0.1324
C44 C 0.3047(4) 0.5339(5) 0.2146(4)
C45 C 0.3002(5) 0.4789(5) 0.2457(4)
H81 H 0.2877 0.4327 0.2321
C46 C 0.3177(5) 0.5042(5) 0.3021(4)
H82 H 0.3170 0.4784 0.3335
C47 C 0.3355(5) 0.5711(5) 0.3040(4)
O5 O 0.3272(3) 0.5912(3) 0.2497(2)
C48 C 0.3624(4) 0.6244(5) 0.3501(4)
H83 H 0.3512 0.6713 0.3324
H84 H 0.3420 0.6192 0.3771
N13 N 0.4344(4) 0.6179(4) 0.3828(3)
H85 H 0.4531 0.6271 0.3582
H86 H 0.4445 0.5727 0.3954
C49 C 0.4637(5) 0.6647(5) 0.4336(4)
H87 H 0.4418 0.6566 0.4591
H88 H 0.4550 0.7135 0.4199
C50 C 0.5360(4) 0.6552(5) 0.4685(4)
H89 H 0.5487 0.6713 0.5088
H90 H 0.5464 0.6050 0.4702
C51 C 0.3921(5) 0.6938(6) 0.0441(4)
H91 H 0.3667 0.7127 0.0044
H92 H 0.4106 0.6484 0.0405
C52 C 0.4483(5) 0.7436(6) 0.0788(4)
H93 H 0.4717 0.7564 0.0554
H94 H 0.4304 0.7866 0.0875
N14 N 0.4957(4) 0.7097(4) 0.1348(3)
H95 H 0.5250 0.7429 0.1575
H96 H 0.4724 0.6948 0.1545
C53 C 0.5338(4) 0.6496(5) 0.1285(4)
H97 H 0.5048 0.6083 0.1151
H98 H 0.5491 0.6607 0.0988
C54 C 0.5902(5) 0.6336(5) 0.1834(4)
C55 C 0.6547(5) 0.6490(5) 0.2051(4)
H99 H 0.6762 0.6722 0.1855
C56 C 0.6842(5) 0.6232(5) 0.2638(4)
H100 H 0.7295 0.6252 0.2902
C57 C 0.6368(4) 0.5963(5) 0.2742(4)
O6 O 0.5773(3) 0.6013(3) 0.2253(2)
C58 C 0.6346(5) 0.5674(5) 0.3255(4)
H101 H 0.6741 0.5385 0.3471
H102 H 0.5954 0.5373 0.3139
C59 C 0.6322(5) 0.5994(5) 0.4193(4)
H103 H 0.6697 0.5674 0.4391
H104 H 0.5912 0.5732 0.4104
N15 N 0.6318(4) 0.6249(4) 0.3640(3)
H105 H 0.6672 0.6539 0.3729
H106 H 0.5943 0.6506 0.3439
C60 C 0.6375(4) 0.6594(5) 0.4593(4)
H107 H 0.6557 0.6422 0.4998
H108 H 0.6686 0.6942 0.4571
N16 N 0.5748(4) 0.6929(4) 0.4447(3)
S1 S 0.06269(11) 0.32481(12) 0.77557(9)
O7 O 0.0188(3) 0.2829(4) 0.7909(3)
O8 O 0.1273(3) 0.2905(3) 0.7968(2)
O9 O 0.0343(3) 0.3331(3) 0.7119(2)
O10 O 0.0713(3) 0.3933(3) 0.8037(2)
S2 S 0.47100(11) 0.69362(11) 0.27424(9)
O11 O 0.5333(3) 0.7293(3) 0.2890(3)
O12 O 0.4327(3) 0.7314(3) 0.2981(3)
O13 O 0.4857(3) 0.6236(3) 0.2995(2)
O14 O 0.4338(3) 0.6881(3) 0.2100(2)
Cl1 Cl 0.40016(11) 0.47952(11) 0.97618(9)
O15 O 0.4225(6) 0.4104(4) 0.9809(6)
O16 O 0.3947(5) 0.5062(5) 0.9226(4)
O17 O 0.3369(3) 0.4812(4) 0.9764(3)
O18 O 0.4435(4) 0.5203(7) 1.0219(4)
Cl2 Cl 0.26619(11) 0.69688(11) 0.87484(9)
O19 O 0.2294(6) 0.7382(6) 0.8958(5)
O20 O 0.2257(6) 0.6798(6) 0.8150(4)
O21 O 0.3231(6) 0.7326(7) 0.8801(6)
O26 O 0.2842(4) 0.6369(4) 0.9104(3)
Cl4 Cl 0.08870(12) 0.80867(13) 0.13265(10)
O27 O 0.0464(4) 0.8623(5) 0.1362(5)
O28 O 0.0501(4) 0.7515(4) 0.0988(3)
O29 O 0.1281(5) 0.8358(5) 0.1080(4)
O30 O 0.1286(4) 0.7849(4) 0.1903(3)
Cl5 Cl 0.66914(12) 0.81768(12) 0.12978(9)
O31 O 0.6095(4) 0.7788(4) 0.1081(3)
O32 O 0.7173(4) 0.7791(4) 0.1208(4)
O33 O 0.6918(4) 0.8307(4) 0.1903(3)
O34 O 0.6584(3) 0.8830(3) 0.0986(3)
Cl6 Cl 0.17719(12) 0.45081(14) 0.54087(11)
O35 O 0.1997(5) 0.5009(5) 0.5863(4)
O36 O 0.1686(4) 0.4840(5) 0.4873(4)
O37 O 0.2227(4) 0.3961(5) 0.5524(4)
O38 O 0.1148(4) 0.4228(5) 0.5313(4)
Cl7 Cl 0.11736(13) 0.60054(16) 0.02121(11)
O39 O 0.0503(7) 0.5928(7) -0.0080(6)
O40 O 0.1391(5) 0.6615(5) 0.0030(4)
O41 O 0.1498(4) 0.5423(5) 0.0099(4)
O42 O 0.1373(5) 0.6044(6) 0.0810(5)
Cl8 Cl 0.26851(12) 0.31021(12) 0.13699(9)
O43 O 0.1999(4) 0.3185(5) 0.1141(3)
O44 O 0.2833(4) 0.2540(4) 0.1080(3)
O45 O 0.2975(5) 0.3714(4) 0.1276(4)
O46 O 0.2946(4) 0.2969(4) 0.1978(3)
Cl9 Cl 0.34119(14) 0.57230(14) 0.50095(13)
O47 O 0.3919(9) 0.6198(9) 0.5183(9)
O48 O 0.3700(10) 0.5086(8) 0.4910(9)
O49 O 0.2939(11) 0.5903(15) 0.4430(8)
O50 O 0.3120(9) 0.5613(10) 0.5364(8)
O55 O 0.5090(6) 0.9234(6) 0.1555(6)
O56 O 0.4592(4) 0.4842(5) 0.4341(4)
O57 O 0.1979(3) 0.2677(3) 0.7318(3)
O58 O 0.1886(3) 0.5400(4) 0.9183(3)
O59 O 0.0668(4) 0.5938(5) 0.8371(4)
O60 O 0.2243(4) 0.0745(5) 0.9160(4)
O61 O -0.0836(4) 0.2119(4) 0.7153(4)
O62 O 0.2679(4) 0.7587(4) 0.2328(3)
O63 O 0.4450(3) 0.8475(4) 0.4381(3)
O64 O 0.0205(4) 0.5125(4) 0.7400(3)
O65 O 0.5684(4) 0.8076(4) 0.2177(3)
O66 O 0.4619(3) 0.5013(3) 0.2412(3)
O22? O 0.2842(4) 0.6369(4) 0.9104(3)
Cl3? Cl 0.26619(11) 0.69688(11) 0.87484(9)
O23? O 0.2688(12) 0.7588(9) 0.9042(9)
O24? O 0.2059(7) 0.6898(11) 0.8244(7)
O25? O 0.3169(7) 0.7028(10) 0.8548(8)
Cl10? Cl 0.34119(14) 0.57230(14) 0.50095(13)
O51? O 0.3491(12) 0.5136(9) 0.4746(10)
O52? O 0.3528(9) 0.6373(7) 0.4826(8)
O53? O 0.3803(9) 0.5717(10) 0.5652(5)
O54? O 0.2783(7) 0.5726(10) 0.5004(9)
loop_
_geom_bond_atom_site_label_1
_geom_bond_atom_site_label_2
_geom_bond_site_symmetry_1
_geom_bond_site_symmetry_2
N1 C1 1_555 1_555
C1 H1 1_555 1_555
H2 C1 1_555 1_555
C2 C1 1_555 1_555
H3 C2 1_555 1_555
H4 C2 1_555 1_555
N2 C2 1_555 1_555
H5 N2 1_555 1_555
H6 N2 1_555 1_555
C3 N2 1_555 1_555
H7 C3 1_555 1_555
H8 C3 1_555 1_555
C4 C3 1_555 1_555
C5 C4 1_555 1_555
H9 C5 1_555 1_555
C6 C5 1_555 1_555
H10 C6 1_555 1_555
C7 C6 1_555 1_555
O1 C4 1_555 1_555
C8 C7 1_555 1_555
H11 C8 1_555 1_555
H12 C8 1_555 1_555
N3 C8 1_555 1_555
H13 N3 1_555 1_555
H14 N3 1_555 1_555
C9 N3 1_555 1_555
H15 C9 1_555 1_555
H16 C9 1_555 1_555
C10 C9 1_555 1_555
H17 C10 1_555 1_555
H18 C10 1_555 1_555
C11 N1 1_555 1_555
H19 C11 1_555 1_555
H20 C11 1_555 1_555
C12 C11 1_555 1_555
H21 C12 1_555 1_555
H22 C12 1_555 1_555
N4 C12 1_555 1_555
H23 N4 1_555 1_555
H24 N4 1_555 1_555
C13 N4 1_555 1_555
H25 C13 1_555 1_555
H26 C13 1_555 1_555
C14 C13 1_555 1_555
C15 C14 1_555 1_555
H27 C15 1_555 1_555
C16 C15 1_555 1_555
H28 C16 1_555 1_555
C17 C16 1_555 1_555
O2 C14 1_555 1_555
C18 C17 1_555 1_555
H29 C18 1_555 1_555
H30 C18 1_555 1_555
N5 C18 1_555 1_555
H31 N5 1_555 1_555
H32 N5 1_555 1_555
C19 N5 1_555 1_555
H33 C19 1_555 1_555
H34 C19 1_555 1_555
C20 C19 1_555 1_555
H35 C20 1_555 1_555
H36 C20 1_555 1_555
C21 N1 1_555 1_555
H37 C21 1_555 1_555
H38 C21 1_555 1_555
C22 C21 1_555 1_555
H39 C22 1_555 1_555
H40 C22 1_555 1_555
N6 C22 1_555 1_555
H41 N6 1_555 1_555
H42 N6 1_555 1_555
C23 N6 1_555 1_555
H43 C23 1_555 1_555
H44 C23 1_555 1_555
C24 C23 1_555 1_555
C25 C24 1_555 1_555
H45 C25 1_555 1_555
C26 C25 1_555 1_555
H46 C26 1_555 1_555
C27 C26 1_555 1_555
O3 C24 1_555 1_555
C28 C27 1_555 1_555
H47 C28 1_555 1_555
H48 C28 1_555 1_555
N7 C28 1_555 1_555
H49 N7 1_555 1_555
H50 N7 1_555 1_555
C29 N7 1_555 1_555
H51 C29 1_555 1_555
H52 C29 1_555 1_555
C30 C29 1_555 1_555
H53 C30 1_555 1_555
H54 C30 1_555 1_555
N8 C10 1_555 1_555
N9 C31 1_555 1_555
C31 H55 1_555 1_555
H56 C31 1_555 1_555
C32 C31 1_555 1_555
H57 C32 1_555 1_555
H58 C32 1_555 1_555
N10 C32 1_555 1_555
H59 N10 1_555 1_555
H60 N10 1_555 1_555
C33 N10 1_555 1_555
H61 C33 1_555 1_555
H62 C33 1_555 1_555
C34 C33 1_555 1_555
C35 C34 1_555 1_555
H63 C35 1_555 1_555
C36 C35 1_555 1_555
H64 C36 1_555 1_555
C37 C36 1_555 1_555
O4 C34 1_555 1_555
C38 C37 1_555 1_555
H65 C38 1_555 1_555
H66 C38 1_555 1_555
N11 C38 1_555 1_555
H67 N11 1_555 1_555
H68 N11 1_555 1_555
C39 N11 1_555 1_555
H69 C39 1_555 1_555
H70 C39 1_555 1_555
C40 C39 1_555 1_555
H71 C40 1_555 1_555
H72 C40 1_555 1_555
C41 N9 1_555 1_555
H73 C41 1_555 1_555
H74 C41 1_555 1_555
C42 C41 1_555 1_555
H75 C42 1_555 1_555
H76 C42 1_555 1_555
N12 C42 1_555 1_555
H77 N12 1_555 1_555
H78 N12 1_555 1_555
C43 N12 1_555 1_555
H79 C43 1_555 1_555
H80 C43 1_555 1_555
C44 C43 1_555 1_555
C45 C44 1_555 1_555
H81 C45 1_555 1_555
C46 C45 1_555 1_555
H82 C46 1_555 1_555
C47 C46 1_555 1_555
O5 C44 1_555 1_555
C48 C47 1_555 1_555
H83 C48 1_555 1_555
H84 C48 1_555 1_555
N13 C48 1_555 1_555
H85 N13 1_555 1_555
H86 N13 1_555 1_555
C49 N13 1_555 1_555
H87 C49 1_555 1_555
H88 C49 1_555 1_555
C50 C49 1_555 1_555
H89 C50 1_555 1_555
H90 C50 1_555 1_555
C51 N9 1_555 1_555
H91 C51 1_555 1_555
H92 C51 1_555 1_555
C52 C51 1_555 1_555
H93 C52 1_555 1_555
H94 C52 1_555 1_555
N14 C52 1_555 1_555
H95 N14 1_555 1_555
H96 N14 1_555 1_555
C53 N14 1_555 1_555
H97 C53 1_555 1_555
H98 C53 1_555 1_555
C54 C53 1_555 1_555
C55 C54 1_555 1_555
H99 C55 1_555 1_555
C56 C55 1_555 1_555
H100 C56 1_555 1_555
C57 C56 1_555 1_555
O6 C54 1_555 1_555
C58 C57 1_555 1_555
H101 C58 1_555 1_555
H102 C58 1_555 1_555
C59 H103 1_555 1_555
H104 C59 1_555 1_555
N15 C58 1_555 1_555
H105 N15 1_555 1_555
H106 N15 1_555 1_555
C60 C59 1_555 1_555
H107 C60 1_555 1_555
H108 C60 1_555 1_555
N16 C40 1_555 1_555
S1 O7 1_555 1_555
O8 S1 1_555 1_555
O9 S1 1_555 1_555
O10 S1 1_555 1_555
S2 O11 1_555 1_555
O12 S2 1_555 1_555
O13 S2 1_555 1_555
O14 S2 1_555 1_555
Cl1 O15 1_555 1_555
O16 Cl1 1_555 1_555
O17 Cl1 1_555 1_555
O18 Cl1 1_555 1_555
Cl2 O19 1_555 1_555
O20 Cl2 1_555 1_555
O21 Cl2 1_555 1_555
O26 Cl2 1_555 1_555
Cl4 O27 1_555 1_555
O28 Cl4 1_555 1_555
O29 Cl4 1_555 1_555
O30 Cl4 1_555 1_555
Cl5 O31 1_555 1_555
O32 Cl5 1_555 1_555
O33 Cl5 1_555 1_555
O34 Cl5 1_555 1_555
Cl6 O35 1_555 1_555
O36 Cl6 1_555 1_555
O37 Cl6 1_555 1_555
O38 Cl6 1_555 1_555
Cl7 O39 1_555 1_555
O40 Cl7 1_555 1_555
O41 Cl7 1_555 1_555
O42 Cl7 1_555 1_555
Cl8 O43 1_555 1_555
O44 Cl8 1_555 1_555
O45 Cl8 1_555 1_555
O46 Cl8 1_555 1_555
Cl9 O47 1_555 1_555
O48 Cl9 1_555 1_555
O49 Cl9 1_555 1_555
O50 Cl9 1_555 1_555
C7 O1 1_555 1_555
C17 O2 1_555 1_555
C20 N8 1_555 1_555
C27 O3 1_555 1_555
C30 N8 1_555 1_555
C37 O4 1_555 1_555
C47 O5 1_555 1_555
C50 N16 1_555 1_555
C57 O6 1_555 1_555
C59 N15 1_555 1_555
C60 N16 1_555 1_555

#END
