
#######################################################################
#
#                 Cambridge Crystallographic Data Centre
#                                CCDC 
#
#######################################################################
#
# If this CIF has been generated from an entry in the Cambridge 
# Structural Database, then it will include bibliographic, chemical, 
# crystal, experimental, refinement or atomic coordinate data resulting 
# from the CCDC's data processing and validation procedures.
#
#######################################################################

data_PACZUR
_chemical_formula_moiety         'C20 H15 N1 O1'
_chemical_name_systematic        4-(2-phenyl-1H-indol-3-yl)phenol
_symmetry_cell_setting           monoclinic
_symmetry_space_group_name_H-M   'P 21/n'
_symmetry_Int_Tables_number      14
_space_group_name_Hall           '-P 2yn'
loop_
_symmetry_equiv_pos_site_id
_symmetry_equiv_pos_as_xyz
1 x,y,z
2 1/2-x,1/2+y,1/2-z
3 -x,-y,-z
4 1/2+x,1/2-y,1/2+z
_cell_length_a                   10.3854(5)
_cell_length_b                   8.1923(5)
_cell_length_c                   17.6621(9)
_cell_angle_alpha                90
_cell_angle_beta                 91.7560(14)
_cell_angle_gamma                90
_cell_volume                     1501.99
_exptl_crystal_colour            orange
_exptl_crystal_description       Tabular
_cell_formula_units_Z            4
loop_
_atom_site_label
_atom_site_type_symbol
_atom_site_fract_x
_atom_site_fract_y
_atom_site_fract_z
C1 C 0.45609(15) 0.2968(2) 0.48277(9)
C2 C 0.40663(19) 0.2705(3) 0.55375(10)
H1 H 0.4612 0.2410 0.5957
C3 C 0.27654(19) 0.2883(3) 0.56143(11)
H2 H 0.2401 0.2709 0.6095
C4 C 0.19673(17) 0.3317(3) 0.49964(11)
H3 H 0.1068 0.3435 0.5065
C5 C 0.24509(15) 0.3578(2) 0.42913(10)
H4 H 0.1893 0.3869 0.3877
C6 C 0.37810(14) 0.3409(2) 0.41920(9)
C7 C 0.46063(13) 0.35220(19) 0.35529(8)
C8 C 0.58459(13) 0.31837(19) 0.38245(9)
C9 C 0.41289(12) 0.37869(19) 0.27654(8)
C10 C 0.31700(13) 0.4940(2) 0.26043(9)
H5 H 0.2885 0.5629 0.2998
C11 C 0.26256(14) 0.5104(2) 0.18847(9)
H6 H 0.1958 0.5878 0.1792
C12 C 0.30469(14) 0.4150(2) 0.13026(9)
C13 C 0.40042(15) 0.30085(19) 0.14403(9)
H7 H 0.4300 0.2349 0.1039
C14 C 0.45293(13) 0.28281(19) 0.21624(9)
H8 H 0.5180 0.2031 0.2252
C15 C 0.70972(13) 0.31710(19) 0.34564(9)
C16 C 0.73190(14) 0.41335(19) 0.28232(10)
H9 H 0.6649 0.4808 0.2620
C17 C 0.85030(14) 0.4117(2) 0.24882(10)
H10 H 0.8635 0.4763 0.2051
C18 C 0.94958(15) 0.3169(2) 0.27839(12)
H11 H 1.0313 0.3172 0.2556
C19 C 0.92927(15) 0.2221(2) 0.34106(12)
H12 H 0.9974 0.1568 0.3616
C20 C 0.81077(15) 0.2206(2) 0.37465(10)
H13 H 0.7979 0.1537 0.4177
N1 N 0.58004(12) 0.28394(18) 0.45863(8)
H14 H 0.6471 0.2575 0.4877
O1 O 0.25355(13) 0.42805(17) 0.05740(7)
H15 H 0.2236 0.5224 0.0506
loop_
_geom_bond_atom_site_label_1
_geom_bond_atom_site_label_2
_geom_bond_site_symmetry_1
_geom_bond_site_symmetry_2
C1 C2 1_555 1_555
C2 H1 1_555 1_555
C3 C2 1_555 1_555
H2 C3 1_555 1_555
C4 C3 1_555 1_555
H3 C4 1_555 1_555
C5 C4 1_555 1_555
H4 C5 1_555 1_555
C6 C1 1_555 1_555
C7 C6 1_555 1_555
C8 C7 1_555 1_555
C9 C7 1_555 1_555
C10 C9 1_555 1_555
H5 C10 1_555 1_555
C11 C10 1_555 1_555
H6 C11 1_555 1_555
C12 C11 1_555 1_555
C13 C12 1_555 1_555
H7 C13 1_555 1_555
C14 C9 1_555 1_555
H8 C14 1_555 1_555
C15 C8 1_555 1_555
C16 C15 1_555 1_555
H9 C16 1_555 1_555
C17 C16 1_555 1_555
H10 C17 1_555 1_555
C18 C17 1_555 1_555
H11 C18 1_555 1_555
C19 C18 1_555 1_555
H12 C19 1_555 1_555
C20 C15 1_555 1_555
H13 C20 1_555 1_555
N1 C1 1_555 1_555
H14 N1 1_555 1_555
O1 C12 1_555 1_555
H15 O1 1_555 1_555
C5 C6 1_555 1_555
C8 N1 1_555 1_555
C13 C14 1_555 1_555
C19 C20 1_555 1_555

#END
