
#######################################################################
#
#                 Cambridge Crystallographic Data Centre
#                                CCDC 
#
#######################################################################
#
# If this CIF has been generated from an entry in the Cambridge 
# Structural Database, then it will include bibliographic, chemical, 
# crystal, experimental, refinement or atomic coordinate data resulting 
# from the CCDC's data processing and validation procedures.
#
#######################################################################

data_PACZEY
_chemical_formula_moiety         'C23 H22 O4'
_chemical_name_systematic        
8,8a,9,10-Tetrahydro-9,9-dimethoxy-1-benzyloxy-anthracen-10-one
_symmetry_cell_setting           triclinic
_symmetry_space_group_name_H-M   'P -1'
_symmetry_Int_Tables_number      2
_space_group_name_Hall           '-P 1'
loop_
_symmetry_equiv_pos_site_id
_symmetry_equiv_pos_as_xyz
1 x,y,z
2 -x,-y,-z
_cell_length_a                   9.120(2)
_cell_length_b                   9.240(2)
_cell_length_c                   11.615(1)
_cell_angle_alpha                108.70(1)
_cell_angle_beta                 95.06(1)
_cell_angle_gamma                90.92(1)
_cell_volume                     922.479
_exptl_crystal_colour            yellow
_chemical_melting_point          '178-178.5 deg.C'
_cell_formula_units_Z            2
loop_
_atom_site_label
_atom_site_type_symbol
_atom_site_fract_x
_atom_site_fract_y
_atom_site_fract_z
O1 O -0.3218(2) 0.4689(2) 0.7658(1)
O2 O 0.2457(2) 0.1677(2) 0.7050(2)
O3 O -0.1080(1) 0.0638(1) 0.7619(1)
O4 O 0.1085(1) 0.1172(1) 0.8787(1)
C1 C 0.1561(2) 0.2849(2) 0.7052(2)
C2 C 0.1878(3) 0.3917(3) 0.6482(2)
C3 C 0.0880(3) 0.5015(3) 0.6438(2)
C4 C -0.0437(2) 0.5043(2) 0.6932(2)
C5 C -0.0737(2) 0.4014(2) 0.7544(2)
C6 C -0.2193(2) 0.4070(2) 0.8042(2)
C7 C -0.2328(2) 0.3409(2) 0.9018(2)
C8 C -0.3553(2) 0.3554(2) 0.9592(2)
C9 C -0.3677(3) 0.3022(3) 1.0623(2)
C10 C -0.2671(3) 0.2148(3) 1.0902(2)
C11 C -0.1408(2) 0.1645(3) 1.0164(2)
C12 C -0.0995(2) 0.2704(2) 0.9447(2)
C13 C -0.0125(2) 0.1853(2) 0.8368(2)
C14 C 0.0281(2) 0.2929(2) 0.7656(2)
C15 C 0.3696(2) 0.1416(2) 0.6347(2)
C16 C 0.4185(2) -0.0135(2) 0.6308(2)
C17 C 0.3477(2) -0.1440(3) 0.5481(2)
C18 C 0.3875(3) -0.2872(3) 0.5465(2)
C19 C 0.5005(3) -0.3030(3) 0.6277(2)
C20 C 0.5729(3) -0.1749(3) 0.7091(2)
C21 C 0.5332(2) -0.0306(3) 0.7115(2)
C22 C -0.0475(2) -0.0415(3) 0.6611(2)
C23 C 0.2180(2) 0.2170(3) 0.9634(2)
H1 H 0.2788 0.3891 0.6120
H2 H 0.1109 0.5762 0.6058
H3 H -0.1149 0.5769 0.6857
H4 H -0.4377 0.4027 0.9310
H5 H -0.4492 0.3307 1.1106
H6 H -0.2757 0.1826 1.1602
H7 H -0.0565 0.1599 1.0706
H8 H -0.1658 0.0642 0.9591
H9 H -0.0370 0.3527 0.9997
H10 H 0.3414 0.1435 0.5536
H11 H 0.4471 0.2178 0.6732
H12 H 0.2693 -0.1342 0.4907
H13 H 0.3366 -0.3764 0.4888
H14 H 0.5283 -0.4029 0.6273
H15 H 0.6523 -0.1857 0.7653
H16 H 0.5850 0.0581 0.7691
H17 H -0.1212 -0.1193 0.6163
H18 H 0.0347 -0.0880 0.6903
H19 H -0.0151 0.0117 0.6085
H20 H 0.2945 0.1578 0.9852
H21 H 0.1741 0.2747 1.0353
H22 H 0.2591 0.2858 0.9267
loop_
_geom_bond_atom_site_label_1
_geom_bond_atom_site_label_2
_geom_bond_site_symmetry_1
_geom_bond_site_symmetry_2
O1 C6 1_555 1_555
O2 C1 1_555 1_555
O3 C13 1_555 1_555
O4 C13 1_555 1_555
C1 C2 1_555 1_555
C2 C3 1_555 1_555
C3 C4 1_555 1_555
C4 C5 1_555 1_555
C5 C6 1_555 1_555
C6 C7 1_555 1_555
C7 C8 1_555 1_555
C8 C9 1_555 1_555
C9 C10 1_555 1_555
C10 C11 1_555 1_555
C11 C12 1_555 1_555
C12 C7 1_555 1_555
C13 C12 1_555 1_555
C14 C1 1_555 1_555
C15 O2 1_555 1_555
C16 C15 1_555 1_555
C17 C16 1_555 1_555
C18 C17 1_555 1_555
C19 C18 1_555 1_555
C20 C19 1_555 1_555
C21 C16 1_555 1_555
C22 O3 1_555 1_555
C23 O4 1_555 1_555
H1 C2 1_555 1_555
H2 C3 1_555 1_555
H3 C4 1_555 1_555
H4 C8 1_555 1_555
H5 C9 1_555 1_555
H6 C10 1_555 1_555
H7 C11 1_555 1_555
H8 C11 1_555 1_555
H9 C12 1_555 1_555
H10 C15 1_555 1_555
H11 C15 1_555 1_555
H12 C17 1_555 1_555
H13 C18 1_555 1_555
H14 C19 1_555 1_555
H15 C20 1_555 1_555
H16 C21 1_555 1_555
H17 C22 1_555 1_555
H18 C22 1_555 1_555
H19 C22 1_555 1_555
H20 C23 1_555 1_555
H21 C23 1_555 1_555
H22 C23 1_555 1_555
C5 C14 1_555 1_555
C13 C14 1_555 1_555
C20 C21 1_555 1_555

#END
