
#######################################################################
#
#                 Cambridge Crystallographic Data Centre
#                                CCDC 
#
#######################################################################
#
# If this CIF has been generated from an entry in the Cambridge 
# Structural Database, then it will include bibliographic, chemical, 
# crystal, experimental, refinement or atomic coordinate data resulting 
# from the CCDC's data processing and validation procedures.
#
#######################################################################

data_PADBEE
_chemical_formula_moiety         'C28 H19 N1 O1'
_chemical_name_systematic        
4-(2-phenyl-3H-naphtho[2,3-e]indol-1-yl)phenol
_symmetry_cell_setting           monoclinic
_symmetry_space_group_name_H-M   'C 2/c'
_symmetry_Int_Tables_number      15
_space_group_name_Hall           '-C 2yn'
loop_
_symmetry_equiv_pos_site_id
_symmetry_equiv_pos_as_xyz
1 x,y,z
2 -x,y,1/2-z
3 1/2+x,1/2+y,z
4 1/2-x,1/2+y,1/2-z
5 -x,-y,-z
6 x,-y,1/2+z
7 1/2-x,1/2-y,-z
8 1/2+x,1/2-y,1/2+z
_cell_length_a                   38.282(2)
_cell_length_b                   10.5963(6)
_cell_length_c                   9.8448(5)
_cell_angle_alpha                90
_cell_angle_beta                 101.9240(14)
_cell_angle_gamma                90
_cell_volume                     3907.35
_exptl_crystal_colour            brown
_exptl_crystal_description       Blade
_cell_formula_units_Z            8
loop_
_atom_site_label
_atom_site_type_symbol
_atom_site_fract_x
_atom_site_fract_y
_atom_site_fract_z
C1 C 0.03688(6) 0.18439(18) 0.49535(19)
C2 C 0.02931(5) 0.09774(18) 0.5889(2)
H1 H 0.0057 0.0908 0.6049
C3 C 0.05614(5) 0.02063(17) 0.65981(18)
H2 H 0.0507 -0.0391 0.7243
C4 C 0.09078(5) 0.02858(16) 0.63877(17)
C5 C 0.09800(6) 0.11914(18) 0.54649(19)
H3 H 0.1217 0.1281 0.5320
C6 C 0.07143(6) 0.19632(19) 0.4755(2)
H4 H 0.0769 0.2578 0.4128
C7 C 0.11863(5) -0.06180(17) 0.70629(17)
C8 C 0.11644(5) -0.19084(17) 0.68514(18)
C9 C 0.16763(5) -0.1550(2) 0.8369(2)
C10 C 0.20064(6) -0.1707(2) 0.9317(2)
H5 H 0.2114 -0.2516 0.9484
C11 C 0.21628(6) -0.0676(2) 0.9975(2)
H6 H 0.2387 -0.0766 1.0597
C12 C 0.20033(5) 0.0558(2) 0.9770(2)
C13 C 0.21573(6) 0.1586(3) 1.0541(2)
H7 H 0.2379 0.1473 1.1172
C14 C 0.20002(5) 0.2775(2) 1.0427(2)
C15 C 0.21468(7) 0.3817(3) 1.1284(2)
H8 H 0.2369 0.3723 1.1915
C16 C 0.19735(8) 0.4931(3) 1.1208(3)
H9 H 0.2072 0.5606 1.1800
C17 C 0.16460(7) 0.5102(2) 1.0254(3)
H10 H 0.1524 0.5887 1.0215
C18 C 0.15053(6) 0.4148(2) 0.9395(2)
H11 H 0.1289 0.4283 0.8742
C19 C 0.16742(5) 0.2952(2) 0.9450(2)
C20 C 0.15231(5) 0.19265(19) 0.86373(19)
H12 H 0.1309 0.2057 0.7965
C21 C 0.16724(5) 0.07293(19) 0.87738(19)
C22 C 0.15139(5) -0.03801(18) 0.80461(19)
C23 C 0.08969(5) -0.27052(17) 0.59660(18)
C24 C 0.07245(5) -0.23321(18) 0.46338(19)
H13 H 0.0766 -0.1513 0.4308
C25 C 0.04949(6) -0.31382(19) 0.3791(2)
H14 H 0.0382 -0.2872 0.2885
C26 C 0.04256(6) -0.4329(2) 0.4239(2)
H15 H 0.0269 -0.4884 0.3646
C27 C 0.05877(6) -0.4701(2) 0.5563(2)
H16 H 0.0540 -0.5513 0.5891
C28 C 0.08182(6) -0.39011(18) 0.6409(2)
H17 H 0.0927 -0.4170 0.7318
N1 N 0.14623(4) -0.24732(16) 0.76690(16)
O1 O 0.01073(5) 0.26052(16) 0.42022(17)
H18 H 0.0194 0.3044 0.3644
loop_
_geom_bond_atom_site_label_1
_geom_bond_atom_site_label_2
_geom_bond_site_symmetry_1
_geom_bond_site_symmetry_2
C1 C2 1_555 1_555
C2 H1 1_555 1_555
C3 C2 1_555 1_555
H2 C3 1_555 1_555
C4 C3 1_555 1_555
C5 C4 1_555 1_555
H3 C5 1_555 1_555
C6 C1 1_555 1_555
H4 C6 1_555 1_555
C7 C4 1_555 1_555
C8 C7 1_555 1_555
C9 C10 1_555 1_555
C10 H5 1_555 1_555
C11 C10 1_555 1_555
H6 C11 1_555 1_555
C12 C11 1_555 1_555
C13 C12 1_555 1_555
H7 C13 1_555 1_555
C14 C13 1_555 1_555
C15 C14 1_555 1_555
H8 C15 1_555 1_555
C16 C15 1_555 1_555
H9 C16 1_555 1_555
C17 C16 1_555 1_555
H10 C17 1_555 1_555
C18 C17 1_555 1_555
H11 C18 1_555 1_555
C19 C14 1_555 1_555
C20 C19 1_555 1_555
H12 C20 1_555 1_555
C21 C12 1_555 1_555
C22 C7 1_555 1_555
C23 C8 1_555 1_555
C24 C23 1_555 1_555
H13 C24 1_555 1_555
C25 C24 1_555 1_555
H14 C25 1_555 1_555
C26 C25 1_555 1_555
H15 C26 1_555 1_555
C27 C26 1_555 1_555
H16 C27 1_555 1_555
C28 C23 1_555 1_555
H17 C28 1_555 1_555
N1 C8 1_555 1_555
O1 C1 1_555 1_555
H18 O1 1_555 1_555
C5 C6 1_555 1_555
C9 C22 1_555 1_555
C9 N1 1_555 1_555
C18 C19 1_555 1_555
C20 C21 1_555 1_555
C21 C22 1_555 1_555
C27 C28 1_555 1_555

#END
