
#######################################################################
#
#                 Cambridge Crystallographic Data Centre
#                                CCDC 
#
#######################################################################
#
# If this CIF has been generated from an entry in the Cambridge 
# Structural Database, then it will include bibliographic, chemical, 
# crystal, experimental, refinement or atomic coordinate data resulting 
# from the CCDC's data processing and validation procedures.
#
#######################################################################

data_PADBUU
_chemical_compound_source        'Pseudolagarobasidium acaciicola'
_chemical_formula_moiety         'C15 H24 O4'
_chemical_name_systematic        
'7,8-dihydroxy-7,11,11-trimethylspiro[5.5]undec-2-ene-3-carboxylic acid'
_chemical_properties_biological  'cytotoxic activity'
_symmetry_cell_setting           orthorhombic
_symmetry_space_group_name_H-M   'P 21 21 21'
_symmetry_Int_Tables_number      19
_space_group_name_Hall           'P 2ac 2ab'
loop_
_symmetry_equiv_pos_site_id
_symmetry_equiv_pos_as_xyz
1 x,y,z
2 1/2+x,1/2-y,-z
3 -x,1/2+y,1/2-z
4 1/2-x,-y,1/2+z
_cell_length_a                   11.3074(4)
_cell_length_b                   11.8627(4)
_cell_length_c                   20.5281(7)
_cell_angle_alpha                90
_cell_angle_beta                 90
_cell_angle_gamma                90
_cell_volume                     2753.56
_exptl_crystal_colour            colorless
_exptl_crystal_description       rod
_cell_formula_units_Z            8
loop_
_atom_site_label
_atom_site_type_symbol
_atom_site_fract_x
_atom_site_fract_y
_atom_site_fract_z
C1 C 0.5714(3) 0.1776(4) -0.17346(17)
H1 H 0.6237 0.2177 -0.1441
H2 H 0.5954 0.0991 -0.1733
C2 C 0.5903(3) 0.2237(4) -0.24160(18)
H3 H 0.5914 0.3054 -0.2398
H4 H 0.6666 0.1987 -0.2576
C3 C 0.4962(3) 0.1867(3) -0.28805(17)
C4 C 0.3926(3) 0.1491(3) -0.26756(17)
H5 H 0.3378 0.1277 -0.2990
C5 C 0.3568(3) 0.1383(3) -0.19802(16)
H6 H 0.3435 0.0590 -0.1890
H7 H 0.2816 0.1765 -0.1926
C6 C 0.4437(3) 0.1847(3) -0.14556(16)
C7 C 0.4390(3) 0.1027(3) -0.08472(16)
C8 C 0.3205(3) 0.1121(3) -0.04921(16)
H8 H 0.2575 0.0892 -0.0792
C9 C 0.2958(4) 0.2308(3) -0.02653(19)
H9 H 0.3572 0.2553 0.0033
H10 H 0.2206 0.2336 -0.0039
C10 C 0.2926(4) 0.3073(4) -0.08534(19)
H11 H 0.2760 0.3834 -0.0707
H12 H 0.2275 0.2840 -0.1130
C11 C 0.4068(3) 0.3096(3) -0.12686(18)
C12 C 0.3779(4) 0.3838(4) -0.1867(2)
H13 H 0.3158 0.3492 -0.2116
H14 H 0.4472 0.3912 -0.2134
H15 H 0.3528 0.4570 -0.1724
C13 C 0.5040(4) 0.3721(4) -0.0888(2)
H16 H 0.5723 0.3813 -0.1160
H17 H 0.5251 0.3292 -0.0509
H18 H 0.4753 0.4448 -0.0757
C14 C 0.4586(4) -0.0219(3) -0.1030(2)
H19 H 0.5177 -0.0270 -0.1364
H20 H 0.3858 -0.0536 -0.1186
H21 H 0.4845 -0.0629 -0.0653
C15 C 0.5240(4) 0.1923(3) -0.35843(18)
O1 O 0.5337(2) 0.1355(3) -0.04182(13)
H22 H 0.5122 0.1286 -0.0039
O2 O 0.3166(3) 0.0402(2) 0.00719(11)
H23 H 0.3233 -0.0258 -0.0042
O3 O 0.6233(3) 0.2079(3) -0.37900(13)
O4 O 0.4322(3) 0.1789(3) -0.39736(13)
H24 H 0.4536 0.1845 -0.4354
C16 C 0.5889(3) 0.2154(3) 0.30111(16)
H25 H 0.5835 0.2955 0.3101
H26 H 0.6720 0.1952 0.3021
C17 C 0.5433(4) 0.1948(3) 0.23417(17)
H27 H 0.5878 0.2238 0.1999
C18 C 0.4467(4) 0.1399(3) 0.21854(18)
C19 C 0.3668(3) 0.0920(3) 0.2690(2)
H28 H 0.3768 0.0108 0.2706
H29 H 0.2853 0.1076 0.2573
C20 C 0.3927(3) 0.1419(3) 0.33672(18)
H30 H 0.3524 0.0961 0.3690
H31 H 0.3583 0.2168 0.3386
C21 C 0.5249(3) 0.1511(3) 0.35656(15)
C22 C 0.5320(3) 0.2263(3) 0.42116(17)
C23 C 0.6596(3) 0.2294(3) 0.44673(17)
H32 H 0.7089 0.2603 0.4118
C24 C 0.7054(4) 0.1126(4) 0.4613(2)
H33 H 0.7850 0.1174 0.4787
H34 H 0.6555 0.0767 0.4936
C25 C 0.7060(4) 0.0435(4) 0.39978(19)
H35 H 0.7357 -0.0311 0.4100
H36 H 0.7608 0.0777 0.3693
C26 C 0.5851(3) 0.0307(3) 0.36576(16)
C27 C 0.6141(4) -0.0302(3) 0.30149(19)
H37 H 0.6638 0.0169 0.2751
H38 H 0.5421 -0.0461 0.2785
H39 H 0.6545 -0.0996 0.3108
C28 C 0.5074(4) -0.0508(3) 0.4051(2)
H40 H 0.4359 -0.0659 0.3815
H41 H 0.4883 -0.0174 0.4464
H42 H 0.5495 -0.1200 0.4121
C29 C 0.4845(4) 0.3458(3) 0.4131(2)
H43 H 0.4067 0.3430 0.3946
H44 H 0.5359 0.3877 0.3849
H45 H 0.4810 0.3820 0.4549
C30 C 0.4228(4) 0.1256(3) 0.1453(2)
O5 O 0.4615(2) 0.1739(2) 0.47231(12)
H46 H 0.3911 0.1847 0.4651
O6 O 0.6735(3) 0.3018(2) 0.50219(12)
H47 H 0.6567 0.2671 0.5354
O7 O 0.4918(3) 0.1510(3) 0.10359(15)
O8 O 0.3209(3) 0.0772(3) 0.13579(16)
H48 H 0.3130 0.0630 0.0969
loop_
_geom_bond_atom_site_label_1
_geom_bond_atom_site_label_2
_geom_bond_site_symmetry_1
_geom_bond_site_symmetry_2
C1 H1 1_555 1_555
H2 C1 1_555 1_555
C2 C1 1_555 1_555
H3 C2 1_555 1_555
H4 C2 1_555 1_555
C3 C2 1_555 1_555
C4 C3 1_555 1_555
H5 C4 1_555 1_555
C5 C4 1_555 1_555
H6 C5 1_555 1_555
H7 C5 1_555 1_555
C6 C1 1_555 1_555
C7 C6 1_555 1_555
C8 C7 1_555 1_555
H8 C8 1_555 1_555
C9 C8 1_555 1_555
H9 C9 1_555 1_555
H10 C9 1_555 1_555
C10 C9 1_555 1_555
H11 C10 1_555 1_555
H12 C10 1_555 1_555
C11 C6 1_555 1_555
C12 C11 1_555 1_555
H13 C12 1_555 1_555
H14 C12 1_555 1_555
H15 C12 1_555 1_555
C13 C11 1_555 1_555
H16 C13 1_555 1_555
H17 C13 1_555 1_555
H18 C13 1_555 1_555
C14 C7 1_555 1_555
H19 C14 1_555 1_555
H20 C14 1_555 1_555
H21 C14 1_555 1_555
C15 C3 1_555 1_555
O1 C7 1_555 1_555
H22 O1 1_555 1_555
O2 C8 1_555 1_555
H23 O2 1_555 1_555
O3 C15 1_555 1_555
O4 C15 1_555 1_555
H24 O4 1_555 1_555
C16 H25 1_555 1_555
H26 C16 1_555 1_555
C17 C16 1_555 1_555
H27 C17 1_555 1_555
C18 C17 1_555 1_555
C19 C18 1_555 1_555
H28 C19 1_555 1_555
H29 C19 1_555 1_555
C20 C19 1_555 1_555
H30 C20 1_555 1_555
H31 C20 1_555 1_555
C21 C16 1_555 1_555
C22 C21 1_555 1_555
C23 C22 1_555 1_555
H32 C23 1_555 1_555
C24 C23 1_555 1_555
H33 C24 1_555 1_555
H34 C24 1_555 1_555
C25 C24 1_555 1_555
H35 C25 1_555 1_555
H36 C25 1_555 1_555
C26 C21 1_555 1_555
C27 C26 1_555 1_555
H37 C27 1_555 1_555
H38 C27 1_555 1_555
H39 C27 1_555 1_555
C28 C26 1_555 1_555
H40 C28 1_555 1_555
H41 C28 1_555 1_555
H42 C28 1_555 1_555
C29 C22 1_555 1_555
H43 C29 1_555 1_555
H44 C29 1_555 1_555
H45 C29 1_555 1_555
C30 C18 1_555 1_555
O5 C22 1_555 1_555
H46 O5 1_555 1_555
O6 C23 1_555 1_555
H47 O6 1_555 1_555
O7 C30 1_555 1_555
O8 C30 1_555 1_555
H48 O8 1_555 1_555
C5 C6 1_555 1_555
C10 C11 1_555 1_555
C20 C21 1_555 1_555
C25 C26 1_555 1_555

#END
