
#######################################################################
#
#                 Cambridge Crystallographic Data Centre
#                                CCDC 
#
#######################################################################
#
# If this CIF has been generated from an entry in the Cambridge 
# Structural Database, then it will include bibliographic, chemical, 
# crystal, experimental, refinement or atomic coordinate data resulting 
# from the CCDC's data processing and validation procedures.
#
#######################################################################

data_PADBII
_chemical_compound_source        'Pseudolagarobasidium acaciicola'
_chemical_formula_moiety         'C15 H22 O3'
_chemical_name_systematic        
7-hydroxy-7,11,11-trimethyl-8-oxospiro[5.5]undec-2-ene-3-carbaldehyde
_chemical_properties_biological  'cytotoxic activity'
_symmetry_cell_setting           orthorhombic
_symmetry_space_group_name_H-M   'P 21 21 21'
_symmetry_Int_Tables_number      19
_space_group_name_Hall           'P 2ac 2ab'
loop_
_symmetry_equiv_pos_site_id
_symmetry_equiv_pos_as_xyz
1 x,y,z
2 1/2+x,1/2-y,-z
3 -x,1/2+y,1/2-z
4 1/2-x,-y,1/2+z
_cell_length_a                   6.8164(3)
_cell_length_b                   12.1673(5)
_cell_length_c                   16.3126(7)
_cell_angle_alpha                90
_cell_angle_beta                 90
_cell_angle_gamma                90
_cell_volume                     1352.92
_exptl_crystal_colour            colorless
_exptl_crystal_description       rod
_cell_formula_units_Z            4
loop_
_atom_site_label
_atom_site_type_symbol
_atom_site_fract_x
_atom_site_fract_y
_atom_site_fract_z
C1 C 0.9210(3) 0.34999(19) 0.58995(15)
H1 H 0.8905 0.2986 0.5463
H2 H 1.0628 0.3564 0.5922
C2 C 0.8531(4) 0.2987(2) 0.67055(15)
H3 H 0.8733 0.2198 0.6680
H4 H 0.9332 0.3272 0.7149
C3 C 0.6427(3) 0.32097(19) 0.68913(14)
C4 C 0.5403(3) 0.3989(2) 0.65106(15)
H5 H 0.4104 0.4084 0.6671
C5 C 0.6153(3) 0.47203(19) 0.58531(15)
H6 H 0.5874 0.5474 0.6008
H7 H 0.5418 0.4568 0.5357
C6 C 0.8381(3) 0.46340(17) 0.56477(12)
C7 C 0.9416(3) 0.55857(19) 0.61278(14)
C8 C 0.8908(3) 0.67215(19) 0.57559(16)
C9 C 0.9081(4) 0.6836(2) 0.48489(17)
H8 H 1.0453 0.6815 0.4693
H9 H 0.8548 0.7540 0.4681
C10 C 0.7980(4) 0.5916(2) 0.44168(16)
H10 H 0.8165 0.5991 0.3830
H11 H 0.6589 0.5992 0.4529
C11 C 0.8647(4) 0.47636(19) 0.46803(14)
C12 C 0.7379(5) 0.3934(3) 0.42012(18)
H12 H 0.6021 0.4047 0.4333
H13 H 0.7753 0.3199 0.4349
H14 H 0.7573 0.4039 0.3624
C13 C 1.0776(5) 0.4574(3) 0.43915(18)
H15 H 1.1172 0.3839 0.4526
H16 H 1.1630 0.5088 0.4660
H17 H 1.0853 0.4678 0.3809
C14 C 0.8987(4) 0.5596(2) 0.70419(15)
H18 H 0.9529 0.4949 0.7291
H19 H 0.7593 0.5609 0.7127
H20 H 0.9566 0.6237 0.7285
C15 C 0.5430(4) 0.2549(2) 0.75095(17)
H21 H 0.4124 0.2713 0.7620
O1 O 1.1506(2) 0.54877(15) 0.60128(11)
H22 H 1.2074 0.5892 0.6337
O2 O 0.8453(4) 0.74911(15) 0.61886(13)
O3 O 0.6175(3) 0.18019(17) 0.78911(12)
loop_
_geom_bond_atom_site_label_1
_geom_bond_atom_site_label_2
_geom_bond_site_symmetry_1
_geom_bond_site_symmetry_2
C1 H1 1_555 1_555
H2 C1 1_555 1_555
C2 C1 1_555 1_555
H3 C2 1_555 1_555
H4 C2 1_555 1_555
C3 C2 1_555 1_555
C4 C3 1_555 1_555
H5 C4 1_555 1_555
C5 C4 1_555 1_555
H6 C5 1_555 1_555
H7 C5 1_555 1_555
C6 C1 1_555 1_555
C7 C6 1_555 1_555
C8 C7 1_555 1_555
C9 C8 1_555 1_555
H8 C9 1_555 1_555
H9 C9 1_555 1_555
C10 C9 1_555 1_555
H10 C10 1_555 1_555
H11 C10 1_555 1_555
C11 C6 1_555 1_555
C12 C11 1_555 1_555
H12 C12 1_555 1_555
H13 C12 1_555 1_555
H14 C12 1_555 1_555
C13 C11 1_555 1_555
H15 C13 1_555 1_555
H16 C13 1_555 1_555
H17 C13 1_555 1_555
C14 C7 1_555 1_555
H18 C14 1_555 1_555
H19 C14 1_555 1_555
H20 C14 1_555 1_555
C15 C3 1_555 1_555
H21 C15 1_555 1_555
O1 C7 1_555 1_555
H22 O1 1_555 1_555
O2 C8 1_555 1_555
O3 C15 1_555 1_555
C5 C6 1_555 1_555
C10 C11 1_555 1_555

#END
