
#######################################################################
#
#                 Cambridge Crystallographic Data Centre
#                                CCDC 
#
#######################################################################
#
# If this CIF has been generated from an entry in the Cambridge 
# Structural Database, then it will include bibliographic, chemical, 
# crystal, experimental, refinement or atomic coordinate data resulting 
# from the CCDC's data processing and validation procedures.
#
#######################################################################

data_PADCEF
_chemical_compound_source        'Pseudolagarobasidium acaciicola'
_chemical_formula_moiety         'C22 H26 N2 O8'
_chemical_name_systematic        
'(1-acetyl-1-hydroxy-4,4-dimethylspiro[4.5]dec-7-en-8-yl)methyl 3,5-dinitrobenzoate'
_chemical_properties_biological  'cytotoxic activity'
_symmetry_cell_setting           triclinic
_symmetry_space_group_name_H-M   'P 1'
_symmetry_Int_Tables_number      1
_space_group_name_Hall           'P 1'
loop_
_symmetry_equiv_pos_site_id
_symmetry_equiv_pos_as_xyz
1 x,y,z
_cell_length_a                   6.8446(2)
_cell_length_b                   13.4597(5)
_cell_length_c                   13.8980(5)
_cell_angle_alpha                116.653(1)
_cell_angle_beta                 96.036(1)
_cell_angle_gamma                102.417(1)
_cell_volume                     1087.33
_exptl_crystal_colour            colorless
_exptl_crystal_description       needle
_cell_formula_units_Z            2
loop_
_atom_site_label
_atom_site_type_symbol
_atom_site_fract_x
_atom_site_fract_y
_atom_site_fract_z
C1 C -0.1187(8) -0.0573(5) 0.5235(5)
C2 C -0.3003(9) -0.1551(7) 0.4352(6)
H1 H -0.3449 -0.2147 0.4559
H2 H -0.4144 -0.1253 0.4269
C3 C -0.2329(13) -0.2040(10) 0.3306(7)
H3 H -0.3117 -0.1919 0.2767
H4 H -0.2578 -0.2871 0.3014
C4 C -0.0076(9) -0.1470(5) 0.3491(5)
C5 C 0.0760(7) -0.0875(4) 0.4797(4)
C6 C 0.1370(8) -0.1731(4) 0.5118(4)
H5 H 0.0143 -0.2345 0.4966
H6 H 0.2263 -0.2084 0.4660
C7 C 0.2448(9) -0.1180(5) 0.6312(4)
H7 H 0.2417 -0.1658 0.6631
C8 C 0.3438(8) -0.0064(5) 0.6938(4)
C9 C 0.3480(8) 0.0774(5) 0.6506(4)
H8 H 0.4889 0.1248 0.6684
H9 H 0.2689 0.1288 0.6880
C10 C 0.2627(8) 0.0193(4) 0.5261(4)
H10 H 0.3708 -0.0032 0.4890
H11 H 0.2256 0.0760 0.5087
C11 C 0.0936(18) -0.2356(9) 0.2831(5)
H12 H 0.0631 -0.2992 0.2987
H13 H 0.2397 -0.2004 0.3029
H14 H 0.0429 -0.2639 0.2056
C12 C 0.013(2) -0.0622(8) 0.3063(7)
H15 H 0.1546 -0.0325 0.3082
H16 H -0.0367 0.0010 0.3516
H17 H -0.0667 -0.1005 0.2315
C13 C -0.1310(9) -0.0397(7) 0.6392(6)
C14 C -0.2009(12) -0.1409(9) 0.6600(7)
H18 H -0.1346 -0.1199 0.7336
H19 H -0.1655 -0.2065 0.6075
H20 H -0.3472 -0.1607 0.6519
C15 C 0.4471(9) 0.0411(6) 0.8114(4)
H21 H 0.4312 -0.0207 0.8307
H22 H 0.5927 0.0778 0.8243
O1 O -0.1362(9) 0.0450(4) 0.5213(5)
H23 H -0.1023 0.0997 0.5845
C16 C 0.4391(8) 0.1923(5) 0.9849(4)
C17 C 0.3337(7) 0.2796(4) 1.0444(4)
C18 C 0.4255(8) 0.3610(4) 1.1539(4)
H24 H 0.5478 0.3594 1.1885
C19 C 0.3336(8) 0.4439(4) 1.2105(4)
C20 C 0.1532(8) 0.4499(4) 1.1627(4)
H25 H 0.0932 0.5070 1.2024
C21 C 0.0655(7) 0.3685(4) 1.0542(4)
C22 C 0.1496(7) 0.2828(4) 0.9928(4)
H26 H 0.0863 0.2287 0.9193
O2 O -0.1063(8) 0.0590(5) 0.7141(4)
O3 O 0.3484(6) 0.1269(3) 0.8781(3)
O4 O 0.5903(7) 0.1833(4) 1.0285(3)
N1 N 0.4285(9) 0.5303(4) 1.3274(4)
O5 O 0.5903(10) 0.5289(5) 1.3691(4)
O6 O 0.3405(7) 0.6006(4) 1.3761(3)
N2 N -0.1226(7) 0.3757(4) 1.0008(4)
O7 O -0.2014(7) 0.4481(4) 1.0576(4)
O8 O -0.1919(7) 0.3095(5) 0.9022(4)
C23 C 0.3639(9) 0.4762(5) 0.7800(5)
C24 C 0.3592(12) 0.4583(6) 0.8820(6)
H27 H 0.2307 0.4023 0.8700
H28 H 0.4714 0.4291 0.8948
C25 C 0.3799(14) 0.5742(7) 0.9804(6)
H29 H 0.4730 0.5855 1.0446
H30 H 0.2471 0.5777 0.9978
C26 C 0.4650(10) 0.6682(6) 0.9492(5)
C27 C 0.3559(8) 0.6077(4) 0.8232(4)
C28 C 0.1385(9) 0.6160(5) 0.8090(5)
H31 H 0.0595 0.5734 0.8399
H32 H 0.1429 0.6969 0.8514
C29 C 0.0294(9) 0.5704(5) 0.6923(5)
H33 H -0.1136 0.5479 0.6743
C30 C 0.1289(9) 0.5607(5) 0.6131(5)
C31 C 0.3567(9) 0.5978(5) 0.6354(5)
H34 H 0.3992 0.6487 0.6046
H35 H 0.4026 0.5297 0.5977
C32 C 0.4623(9) 0.6609(5) 0.7579(4)
H36 H 0.4644 0.7418 0.7897
H37 H 0.6037 0.6589 0.7654
C33 C 0.4268(14) 0.7817(7) 1.0208(6)
H38 H 0.4731 0.8355 0.9945
H39 H 0.5004 0.8130 1.0958
H40 H 0.2823 0.7691 1.0178
C34 C 0.7002(12) 0.6877(8) 0.9647(6)
H41 H 0.7610 0.7509 0.9523
H42 H 0.7265 0.6183 0.9128
H43 H 0.7588 0.7061 1.0387
C35 C 0.1902(11) 0.3771(5) 0.6829(5)
C36 C -0.0253(12) 0.3384(6) 0.6916(7)
H44 H -0.1188 0.3166 0.6241
H45 H -0.0535 0.4008 0.7521
H46 H -0.0424 0.2727 0.7041
C37 C 0.0103(10) 0.5070(5) 0.4951(5)
H47 H -0.1360 0.4802 0.4893
H48 H 0.0347 0.5628 0.4684
O9 O 0.5483(7) 0.4666(4) 0.7468(4)
H49 H 0.5231 0.4214 0.6802
C38 C -0.0210(9) 0.3328(5) 0.3318(5)
C39 C 0.0795(8) 0.2400(4) 0.2756(4)
C40 C -0.0097(8) 0.1565(4) 0.1657(4)
H50 H -0.1331 0.1551 0.1292
C41 C 0.0913(8) 0.0757(5) 0.1127(4)
C42 C 0.2722(9) 0.0733(5) 0.1639(5)
H51 H 0.3381 0.0187 0.1262
C43 C 0.3507(8) 0.1551(5) 0.2730(5)
C44 C 0.2589(8) 0.2383(5) 0.3309(4)
H52 H 0.3155 0.2920 0.4052
O10 O 0.2402(10) 0.3199(4) 0.5968(4)
O11 O 0.0872(6) 0.4090(3) 0.4319(3)
O12 O -0.1762(8) 0.3358(4) 0.2888(3)
N3 N 0.0011(9) -0.0106(4) -0.0039(4)
O13 O -0.1687(10) -0.0163(5) -0.0466(4)
O14 O 0.0998(10) -0.0740(5) -0.0545(4)
N4 N 0.5405(9) 0.1519(6) 0.3313(6)
O15 O 0.6184(9) 0.0777(5) 0.2786(5)
O16 O 0.6098(9) 0.2258(6) 0.4288(5)
loop_
_geom_bond_atom_site_label_1
_geom_bond_atom_site_label_2
_geom_bond_site_symmetry_1
_geom_bond_site_symmetry_2
C1 C2 1_555 1_555
C2 H1 1_555 1_555
H2 C2 1_555 1_555
C3 C2 1_555 1_555
H3 C3 1_555 1_555
H4 C3 1_555 1_555
C4 C3 1_555 1_555
C5 C1 1_555 1_555
C6 C5 1_555 1_555
H5 C6 1_555 1_555
H6 C6 1_555 1_555
C7 C6 1_555 1_555
H7 C7 1_555 1_555
C8 C7 1_555 1_555
C9 C8 1_555 1_555
H8 C9 1_555 1_555
H9 C9 1_555 1_555
C10 C5 1_555 1_555
H10 C10 1_555 1_555
H11 C10 1_555 1_555
C11 C4 1_555 1_555
H12 C11 1_555 1_555
H13 C11 1_555 1_555
H14 C11 1_555 1_555
C12 C4 1_555 1_555
H15 C12 1_555 1_555
H16 C12 1_555 1_555
H17 C12 1_555 1_555
C13 C1 1_555 1_555
C14 C13 1_555 1_555
H18 C14 1_555 1_555
H19 C14 1_555 1_555
H20 C14 1_555 1_555
C15 C8 1_555 1_555
H21 C15 1_555 1_555
H22 C15 1_555 1_555
O1 C1 1_555 1_555
H23 O1 1_555 1_555
C16 C17 1_555 1_555
C17 C18 1_555 1_555
C18 H24 1_555 1_555
C19 C18 1_555 1_555
C20 C19 1_555 1_555
H25 C20 1_555 1_555
C21 C20 1_555 1_555
C22 C17 1_555 1_555
H26 C22 1_555 1_555
O2 C13 1_555 1_555
O3 C15 1_555 1_555
O4 C16 1_555 1_555
N1 C19 1_555 1_555
O5 N1 1_555 1_555
O6 N1 1_555 1_555
N2 C21 1_555 1_555
O7 N2 1_555 1_555
O8 N2 1_555 1_555
C23 C24 1_555 1_555
C24 H27 1_555 1_555
H28 C24 1_555 1_555
C25 C24 1_555 1_555
H29 C25 1_555 1_555
H30 C25 1_555 1_555
C26 C25 1_555 1_555
C27 C23 1_555 1_555
C28 C27 1_555 1_555
H31 C28 1_555 1_555
H32 C28 1_555 1_555
C29 C28 1_555 1_555
H33 C29 1_555 1_555
C30 C29 1_555 1_555
C31 C30 1_555 1_555
H34 C31 1_555 1_555
H35 C31 1_555 1_555
C32 C27 1_555 1_555
H36 C32 1_555 1_555
H37 C32 1_555 1_555
C33 C26 1_555 1_555
H38 C33 1_555 1_555
H39 C33 1_555 1_555
H40 C33 1_555 1_555
C34 C26 1_555 1_555
H41 C34 1_555 1_555
H42 C34 1_555 1_555
H43 C34 1_555 1_555
C35 C23 1_555 1_555
C36 C35 1_555 1_555
H44 C36 1_555 1_555
H45 C36 1_555 1_555
H46 C36 1_555 1_555
C37 C30 1_555 1_555
H47 C37 1_555 1_555
H48 C37 1_555 1_555
O9 C23 1_555 1_555
H49 O9 1_555 1_555
C38 C39 1_555 1_555
C39 C40 1_555 1_555
C40 H50 1_555 1_555
C41 C40 1_555 1_555
C42 C41 1_555 1_555
H51 C42 1_555 1_555
C43 C42 1_555 1_555
C44 C39 1_555 1_555
H52 C44 1_555 1_555
O10 C35 1_555 1_555
O11 C37 1_555 1_555
O12 C38 1_555 1_555
N3 C41 1_555 1_555
O13 N3 1_555 1_555
O14 N3 1_555 1_555
N4 C43 1_555 1_555
O15 N4 1_555 1_555
O16 N4 1_555 1_555
C4 C5 1_555 1_555
C9 C10 1_555 1_555
C16 O3 1_555 1_555
C21 C22 1_555 1_555
C26 C27 1_555 1_555
C31 C32 1_555 1_555
C38 O11 1_555 1_555
C43 C44 1_555 1_555

#END
