
#######################################################################
#
#                 Cambridge Crystallographic Data Centre
#                                CCDC 
#
#######################################################################
#
# If this CIF has been generated from an entry in the Cambridge 
# Structural Database, then it will include bibliographic, chemical, 
# crystal, experimental, refinement or atomic coordinate data resulting 
# from the CCDC's data processing and validation procedures.
#
#######################################################################

data_PADCAB
_chemical_compound_source        'Pseudolagarobasidium acaciicola'
_chemical_formula_moiety         'C15 H24 O3'
_chemical_name_systematic        
9-(hydroxymethyl)-1,1-dimethyl-5-methylenespiro[5.5]undec-8-ene-2,4-diol
_chemical_properties_biological  'cytotoxic activity'
_symmetry_cell_setting           orthorhombic
_symmetry_space_group_name_H-M   'P 21 21 21'
_symmetry_Int_Tables_number      19
_space_group_name_Hall           'P 2ac 2ab'
loop_
_symmetry_equiv_pos_site_id
_symmetry_equiv_pos_as_xyz
1 x,y,z
2 1/2+x,1/2-y,-z
3 -x,1/2+y,1/2-z
4 1/2-x,-y,1/2+z
_cell_length_a                   8.1922(3)
_cell_length_b                   12.5513(4)
_cell_length_c                   13.7994(5)
_cell_angle_alpha                90
_cell_angle_beta                 90
_cell_angle_gamma                90
_cell_volume                     1418.89
_exptl_crystal_colour            colorless
_exptl_crystal_description       block
_cell_formula_units_Z            4
loop_
_atom_site_label
_atom_site_type_symbol
_atom_site_fract_x
_atom_site_fract_y
_atom_site_fract_z
C1 C 0.2713(3) 0.35951(15) 0.90876(16)
H1 H 0.2375 0.3124 0.9608
H2 H 0.1799 0.3667 0.8646
C2 C 0.4111(3) 0.30843(16) 0.85537(15)
H3 H 0.4012 0.2369 0.8390
C3 C 0.5470(3) 0.35785(17) 0.83010(14)
C4 C 0.5722(3) 0.47384(17) 0.85204(16)
H4 H 0.6239 0.5080 0.7970
H5 H 0.6446 0.4809 0.9073
C5 C 0.4116(2) 0.52961(15) 0.87399(13)
H6 H 0.3479 0.5347 0.8149
H7 H 0.4338 0.6014 0.8963
C6 C 0.3104(2) 0.47006(13) 0.95211(13)
C7 C 0.4104(2) 0.45941(14) 1.04535(14)
C8 C 0.4392(3) 0.55909(16) 1.10436(15)
H8 H 0.4848 0.5382 1.1672
C9 C 0.2814(3) 0.61925(17) 1.12219(14)
H9 H 0.2145 0.5795 1.1676
H10 H 0.3062 0.6877 1.1512
C10 C 0.1867(2) 0.63654(15) 1.02976(14)
H11 H 0.2527 0.6813 0.9867
C11 C 0.1462(2) 0.53195(15) 0.97535(14)
C12 C 0.0339(3) 0.46211(17) 1.03789(19)
H12 H 0.0945 0.4343 1.0918
H13 H -0.0073 0.4042 0.9996
H14 H -0.0556 0.5042 1.0614
C13 C 0.0517(3) 0.5631(2) 0.88345(18)
H15 H -0.0522 0.5924 0.9012
H16 H 0.0355 0.5011 0.8439
H17 H 0.1130 0.6152 0.8478
C14 C 0.4687(3) 0.36858(19) 1.07986(18)
H18 H 0.5249 0.3678 1.1384
H19 H 0.4534 0.3056 1.0455
C15 C 0.6807(3) 0.3016(2) 0.77694(16)
H20 H 0.7823 0.3105 0.8120
H21 H 0.6563 0.2260 0.7744
O1 O 0.5546(2) 0.62818(13) 1.05668(11)
H22 H 0.6280 0.6437 1.0945
O2 O 0.0408(2) 0.69362(12) 1.05308(13)
H23 H 0.0372 0.7488 1.0214
O3 O 0.69994(19) 0.34108(15) 0.68099(11)
H24 H 0.6136 0.3349 0.6515
loop_
_geom_bond_atom_site_label_1
_geom_bond_atom_site_label_2
_geom_bond_site_symmetry_1
_geom_bond_site_symmetry_2
C1 H1 1_555 1_555
H2 C1 1_555 1_555
C2 C1 1_555 1_555
H3 C2 1_555 1_555
C3 C2 1_555 1_555
C4 C3 1_555 1_555
H4 C4 1_555 1_555
H5 C4 1_555 1_555
C5 C4 1_555 1_555
H6 C5 1_555 1_555
H7 C5 1_555 1_555
C6 C1 1_555 1_555
C7 C6 1_555 1_555
C8 C7 1_555 1_555
H8 C8 1_555 1_555
C9 C8 1_555 1_555
H9 C9 1_555 1_555
H10 C9 1_555 1_555
C10 C9 1_555 1_555
H11 C10 1_555 1_555
C11 C6 1_555 1_555
C12 C11 1_555 1_555
H12 C12 1_555 1_555
H13 C12 1_555 1_555
H14 C12 1_555 1_555
C13 C11 1_555 1_555
H15 C13 1_555 1_555
H16 C13 1_555 1_555
H17 C13 1_555 1_555
C14 C7 1_555 1_555
H18 C14 1_555 1_555
H19 C14 1_555 1_555
C15 C3 1_555 1_555
H20 C15 1_555 1_555
H21 C15 1_555 1_555
O1 C8 1_555 1_555
H22 O1 1_555 1_555
O2 C10 1_555 1_555
H23 O2 1_555 1_555
O3 C15 1_555 1_555
H24 O3 1_555 1_555
C5 C6 1_555 1_555
C10 C11 1_555 1_555

#END
