
#######################################################################
#
#                 Cambridge Crystallographic Data Centre
#                                CCDC 
#
#######################################################################
#
# If this CIF has been generated from an entry in the Cambridge 
# Structural Database, then it will include bibliographic, chemical, 
# crystal, experimental, refinement or atomic coordinate data resulting 
# from the CCDC's data processing and validation procedures.
#
#######################################################################

data_PADDEG
_chemical_name_common            
2,2'-(5,6-bis(1-methyl-1H-imidazol-2-yl)piperazine-2,3-diyl)dipyrazine
_chemical_formula_moiety         'C20 H22 N10'
_chemical_name_systematic        
(2S*,3S*,5R*,6R*)-2,3-bis(1-methyl-1H-imidazol-2-yl)-5,6-bis(pyrazin-2-yl)piperazine
_symmetry_cell_setting           monoclinic
_symmetry_space_group_name_H-M   'C 2/c'
_symmetry_Int_Tables_number      15
_space_group_name_Hall           '-C 2yn'
loop_
_symmetry_equiv_pos_site_id
_symmetry_equiv_pos_as_xyz
1 x,y,z
2 -x,y,1/2-z
3 1/2+x,1/2+y,z
4 1/2-x,1/2+y,1/2-z
5 -x,-y,-z
6 x,-y,1/2+z
7 1/2-x,1/2-y,-z
8 1/2+x,1/2-y,1/2+z
_cell_length_a                   14.7807(6)
_cell_length_b                   12.6498(6)
_cell_length_c                   10.9420(4)
_cell_angle_alpha                90
_cell_angle_beta                 91.903(2)
_cell_angle_gamma                90
_cell_volume                     2044.73
_exptl_crystal_colour            colorless
_exptl_crystal_description       block
_cell_formula_units_Z            4
_exptl_crystal_recrystallization_method 'dichloromethane/diethyl ether'
loop_
_atom_site_label
_atom_site_type_symbol
_atom_site_fract_x
_atom_site_fract_y
_atom_site_fract_z
N1 N 0.59895(11) 0.36327(12) 0.25679(15)
N2 N 0.61649(12) 0.64499(12) 0.23842(14)
N3 N 0.62502(11) 0.54980(13) 0.40736(14)
N4 N 0.63441(13) 0.17125(13) 0.37588(16)
C1 C 0.54780(12) 0.26835(14) 0.22282(16)
H1 H 0.5403 0.2669 0.1335
C2 C 0.59904(12) 0.55093(14) 0.29097(16)
C3 C 0.55004(12) 0.46121(13) 0.22939(16)
H2 H 0.5500 0.4729 0.1409
C4 C 0.60089(13) 0.17227(14) 0.26179(17)
N5 N 0.66043(16) 0.00209(16) 0.2190(2)
C5 C 0.61344(15) 0.08716(18) 0.1859(2)
H3 H 0.5876 0.0895 0.1073
C6 C 0.65664(16) 0.70684(17) 0.3268(2)
H4 H 0.6768 0.7760 0.3181
C7 C 0.66126(16) 0.64794(17) 0.4292(2)
H5 H 0.6856 0.6706 0.5042
C8 C 0.68142(17) 0.08556(19) 0.4097(2)
H6 H 0.7055 0.0814 0.4892
C9 C 0.59607(18) 0.67855(18) 0.1132(2)
H7 H 0.6003 0.6190 0.0593
H8 H 0.6386 0.7318 0.0903
H9 H 0.5359 0.7070 0.1075
C10 C 0.69523(18) 0.00397(19) 0.3315(3)
H10 H 0.7306 -0.0527 0.3585
H11 H 0.6148(14) 0.3608(16) 0.336(2)
N1A N 0.40105(11) 0.36327(12) 0.24321(15)
N2A N 0.38351(12) 0.64499(12) 0.26158(14)
N3A N 0.37498(11) 0.54980(13) 0.09264(14)
N4A N 0.36559(13) 0.17125(13) 0.12412(16)
C1A C 0.45220(12) 0.26835(14) 0.27718(16)
H1A H 0.4597 0.2669 0.3665
C2A C 0.40096(12) 0.55093(14) 0.20903(16)
C3A C 0.44996(12) 0.46121(13) 0.27061(16)
H2A H 0.4500 0.4729 0.3591
C4A C 0.39911(13) 0.17227(14) 0.23821(17)
N5A N 0.33957(16) 0.00209(16) 0.2810(2)
C5A C 0.38656(15) 0.08716(18) 0.3141(2)
H3A H 0.4124 0.0895 0.3927
C6A C 0.34336(16) 0.70684(17) 0.1732(2)
H4A H 0.3232 0.7760 0.1819
C7A C 0.33874(16) 0.64794(17) 0.0708(2)
H5A H 0.3144 0.6706 -0.0042
C8A C 0.31858(17) 0.08556(19) 0.0903(2)
H6A H 0.2945 0.0814 0.0108
C9A C 0.40393(18) 0.67855(18) 0.3868(2)
H7A H 0.3997 0.6190 0.4407
H8A H 0.3614 0.7318 0.4097
H9A H 0.4641 0.7070 0.3925
C10A C 0.30477(18) 0.00397(19) 0.1685(3)
H10A H 0.2694 -0.0527 0.1415
H11A H 0.3852(14) 0.3608(16) 0.164(2)
loop_
_geom_bond_atom_site_label_1
_geom_bond_atom_site_label_2
_geom_bond_site_symmetry_1
_geom_bond_site_symmetry_2
N1 C1 1_555 1_555
N2 C2 1_555 1_555
N3 C2 1_555 1_555
N4 C4 1_555 1_555
C1 H1 1_555 1_555
C2 C3 1_555 1_555
C3 N1 1_555 1_555
H2 C3 1_555 1_555
C4 C1 1_555 1_555
N5 C5 1_555 1_555
C5 C4 1_555 1_555
H3 C5 1_555 1_555
C6 N2 1_555 1_555
H4 C6 1_555 1_555
C7 N3 1_555 1_555
H5 C7 1_555 1_555
C8 N4 1_555 1_555
H6 C8 1_555 1_555
C9 N2 1_555 1_555
H7 C9 1_555 1_555
H8 C9 1_555 1_555
H9 C9 1_555 1_555
C10 N5 1_555 1_555
H10 C10 1_555 1_555
H11 N1 1_555 1_555
N1A C1A 1_555 1_555
N2A C2A 1_555 1_555
N3A C2A 1_555 1_555
N4A C4A 1_555 1_555
C1A C1 1_555 1_555
H1A C1A 1_555 1_555
C2A C3A 1_555 1_555
C3A C3 1_555 1_555
H2A C3A 1_555 1_555
C4A C1A 1_555 1_555
N5A C5A 1_555 1_555
C5A C4A 1_555 1_555
H3A C5A 1_555 1_555
C6A N2A 1_555 1_555
H4A C6A 1_555 1_555
C7A N3A 1_555 1_555
H5A C7A 1_555 1_555
C8A N4A 1_555 1_555
H6A C8A 1_555 1_555
C9A N2A 1_555 1_555
H7A C9A 1_555 1_555
H8A C9A 1_555 1_555
H9A C9A 1_555 1_555
C10A N5A 1_555 1_555
H10A C10A 1_555 1_555
H11A N1A 1_555 1_555
C6 C7 1_555 1_555
C8 C10 1_555 1_555
N1A C3A 1_555 1_555
C6A C7A 1_555 1_555
C8A C10A 1_555 1_555

#END
