
#######################################################################
#
#                 Cambridge Crystallographic Data Centre
#                                CCDC 
#
#######################################################################
#
# If this CIF has been generated from an entry in the Cambridge 
# Structural Database, then it will include bibliographic, chemical, 
# crystal, experimental, refinement or atomic coordinate data resulting 
# from the CCDC's data processing and validation procedures.
#
#######################################################################

data_PADDAC
_chemical_formula_moiety         'C24 H18 Br4 N6'
_chemical_name_systematic        
'2,3,5,6-tetrakis(5-bromopyridin-2-yl)piperazine unknown solvate'
_symmetry_cell_setting           triclinic
_symmetry_space_group_name_H-M   'P -1'
_symmetry_Int_Tables_number      2
_space_group_name_Hall           '-P 1'
loop_
_symmetry_equiv_pos_site_id
_symmetry_equiv_pos_as_xyz
1 x,y,z
2 -x,-y,-z
_cell_length_a                   6.4370(3)
_cell_length_b                   11.5474(5)
_cell_length_c                   19.1937(7)
_cell_angle_alpha                101.3451(17)
_cell_angle_beta                 90.2289(17)
_cell_angle_gamma                95.6878(18)
_cell_volume                     1391.51
_exptl_crystal_colour            colorless
_exptl_crystal_description       block
_cell_formula_units_Z            2
_exptl_crystal_recrystallization_method ethanol
loop_
_atom_site_label
_atom_site_type_symbol
_atom_site_fract_x
_atom_site_fract_y
_atom_site_fract_z
Br1 Br 0.71938(10) 0.86318(7) 0.26492(3)
Br2 Br -0.33591(17) 1.59937(7) 0.10713(8)
N1 N -0.0022(7) 1.0542(4) 0.0751(2)
N2 N 0.4020(7) 0.9804(5) 0.1103(3)
C1 C 0.0626(8) 0.9357(5) 0.0520(3)
H1 H -0.0607 0.8788 0.0523
C2 C 0.5116(8) 0.8805(5) 0.1979(3)
C3 C -0.1990(8) 1.2099(5) 0.0477(3)
N3 N -0.0408(8) 1.2952(5) 0.0603(3)
C4 C 0.2197(8) 0.9128(5) 0.1046(3)
C5 C -0.4492(10) 1.3519(6) 0.0716(4)
H2 H -0.5860 1.3714 0.0758
C6 C -0.1469(8) 1.0852(5) 0.0243(3)
H3 H -0.2767 1.0328 0.0236
C7 C -0.2841(11) 1.4371(6) 0.0833(4)
C8 C 0.5464(9) 0.9632(6) 0.1564(3)
H4 H 0.6746 1.0091 0.1602
C9 C 0.3276(10) 0.8105(6) 0.1927(3)
H5 H 0.3027 0.7537 0.2207
C10 C -0.0857(11) 1.4069(6) 0.0775(4)
H6 H 0.0238 1.4672 0.0859
C11 C -0.4054(9) 1.2354(5) 0.0535(4)
H7 H -0.5135 1.1743 0.0451
C12 C 0.1773(9) 0.8268(6) 0.1439(3)
H8 H 0.0500 0.7799 0.1382
H9 H 0.110(9) 1.106(5) 0.078(3)
Br1A Br -0.71938(10) 1.13682(7) -0.26492(3)
Br2A Br 0.33591(17) 0.40063(7) -0.10713(8)
N1A N 0.0022(7) 0.9458(4) -0.0751(2)
N2A N -0.4020(7) 1.0196(5) -0.1103(3)
C1A C -0.0626(8) 1.0643(5) -0.0520(3)
H1A H 0.0607 1.1212 -0.0523
C2A C -0.5116(8) 1.1195(5) -0.1979(3)
C3A C 0.1990(8) 0.7901(5) -0.0477(3)
N3A N 0.0408(8) 0.7048(5) -0.0603(3)
C4A C -0.2197(8) 1.0872(5) -0.1046(3)
C5A C 0.4492(10) 0.6481(6) -0.0716(4)
H2A H 0.5860 0.6286 -0.0758
C6A C 0.1469(8) 0.9148(5) -0.0243(3)
H3A H 0.2767 0.9672 -0.0236
C7A C 0.2841(11) 0.5629(6) -0.0833(4)
C8A C -0.5464(9) 1.0368(6) -0.1564(3)
H4A H -0.6746 0.9909 -0.1602
C9A C -0.3276(10) 1.1895(6) -0.1927(3)
H5A H -0.3027 1.2463 -0.2207
C10A C 0.0857(11) 0.5931(6) -0.0775(4)
H6A H -0.0238 0.5328 -0.0859
C11A C 0.4054(9) 0.7646(5) -0.0535(4)
H7A H 0.5135 0.8257 -0.0451
C12A C -0.1773(9) 1.1732(6) -0.1439(3)
H8A H -0.0500 1.2201 -0.1382
H9A H -0.110(9) 0.894(5) -0.078(3)
Br3 Br 0.74292(13) 0.27129(9) 0.27411(5)
Br4 Br -0.24482(18) 0.53619(8) 0.74934(6)
N4 N 0.0096(8) 0.1179(5) 0.4855(3)
C13 C -0.1836(9) 0.1891(5) 0.5892(3)
N5 N 0.4264(8) 0.1062(6) 0.4185(3)
C14 C 0.2351(9) 0.0747(5) 0.3875(3)
C15 C 0.0720(9) 0.0210(5) 0.4315(3)
H10 H -0.0499 -0.0115 0.4005
C16 C -0.3729(10) 0.2361(7) 0.5946(4)
H11 H -0.4858 0.1970 0.5661
C17 C 0.1883(10) 0.0974(6) 0.3220(3)
H12 H 0.0563 0.0729 0.3014
C18 C 0.5302(10) 0.1890(6) 0.3188(4)
C19 C -0.1444(9) 0.0803(5) 0.5353(3)
H13 H -0.2751 0.0503 0.5085
C20 C -0.2282(12) 0.3937(6) 0.6817(4)
N6 N -0.0187(8) 0.2424(5) 0.6303(3)
C21 C -0.0425(12) 0.3431(7) 0.6759(4)
H14 H 0.0705 0.3805 0.7048
C22 C 0.5706(11) 0.1616(7) 0.3835(4)
H15 H 0.7038 0.1825 0.4039
C23 C 0.3364(11) 0.1560(6) 0.2873(3)
H16 H 0.3064 0.1731 0.2432
C24 C -0.3961(12) 0.3389(8) 0.6410(4)
H17 H -0.5236 0.3709 0.6448
H18 H 0.135(11) 0.149(7) 0.510(4)
Br3A Br -0.74292(13) -0.27129(9) 0.72589(5)
Br4A Br 0.24482(18) -0.53619(8) 0.25066(6)
N4A N -0.0096(8) -0.1179(5) 0.5145(3)
C13A C 0.1836(9) -0.1891(5) 0.4108(3)
N5A N -0.4264(8) -0.1062(6) 0.5815(3)
C14A C -0.2351(9) -0.0747(5) 0.6125(3)
C15A C -0.0720(9) -0.0210(5) 0.5685(3)
H10A H 0.0499 0.0115 0.5995
C16A C 0.3729(10) -0.2361(7) 0.4054(4)
H11A H 0.4858 -0.1970 0.4339
C17A C -0.1883(10) -0.0974(6) 0.6780(3)
H12A H -0.0563 -0.0729 0.6986
C18A C -0.5302(10) -0.1890(6) 0.6812(4)
C19A C 0.1444(9) -0.0803(5) 0.4647(3)
H13A H 0.2751 -0.0503 0.4915
C20A C 0.2282(12) -0.3937(6) 0.3183(4)
N6A N 0.0187(8) -0.2424(5) 0.3697(3)
C21A C 0.0425(12) -0.3431(7) 0.3241(4)
H14A H -0.0705 -0.3805 0.2952
C22A C -0.5706(11) -0.1616(7) 0.6165(4)
H15A H -0.7038 -0.1825 0.5961
C23A C -0.3364(11) -0.1560(6) 0.7127(3)
H16A H -0.3064 -0.1731 0.7568
C24A C 0.3961(12) -0.3389(8) 0.3590(4)
H17A H 0.5236 -0.3709 0.3552
H18A H -0.135(11) -0.149(7) 0.490(4)
loop_
_geom_bond_atom_site_label_1
_geom_bond_atom_site_label_2
_geom_bond_site_symmetry_1
_geom_bond_site_symmetry_2
Br1 C2 1_555 1_555
Br2 C7 1_555 1_555
N1 C1 1_555 1_555
N2 C4 1_555 1_555
C1 H1 1_555 1_555
C2 C8 1_555 1_555
C3 N3 1_555 1_555
N3 C10 1_555 1_555
C4 C1 1_555 1_555
C5 H2 1_555 1_555
C6 N1 1_555 1_555
H3 C6 1_555 1_555
C7 C5 1_555 1_555
C8 N2 1_555 1_555
H4 C8 1_555 1_555
C9 C2 1_555 1_555
H5 C9 1_555 1_555
C10 C7 1_555 1_555
H6 C10 1_555 1_555
C11 C3 1_555 1_555
H7 C11 1_555 1_555
C12 C4 1_555 1_555
H8 C12 1_555 1_555
H9 N1 1_555 1_555
Br3 C18 1_555 1_555
Br4 C20 1_555 1_555
N4 C15 1_555 1_555
C13 C16 1_555 1_555
N5 C14 1_555 1_555
C14 C15 1_555 1_555
C15 H10 1_555 1_555
C16 H11 1_555 1_555
C17 C14 1_555 1_555
H12 C17 1_555 1_555
C18 C22 1_555 1_555
C19 N4 1_555 1_555
H13 C19 1_555 1_555
C20 C21 1_555 1_555
N6 C13 1_555 1_555
C21 N6 1_555 1_555
H14 C21 1_555 1_555
C22 N5 1_555 1_555
H15 C22 1_555 1_555
C23 C17 1_555 1_555
H16 C23 1_555 1_555
C24 C16 1_555 1_555
H17 C24 1_555 1_555
H18 N4 1_555 1_555
Br1A C2A 1_555 1_555
Br2A C7A 1_555 1_555
N1A C1A 1_555 1_555
N2A C4A 1_555 1_555
C1A C6 1_555 1_555
H1A C1A 1_555 1_555
C2A C8A 1_555 1_555
C3A N3A 1_555 1_555
N3A C10A 1_555 1_555
C4A C1A 1_555 1_555
C5A H2A 1_555 1_555
C6A C1 1_555 1_555
H3A C6A 1_555 1_555
C7A C5A 1_555 1_555
C8A N2A 1_555 1_555
H4A C8A 1_555 1_555
C9A C2A 1_555 1_555
H5A C9A 1_555 1_555
C10A C7A 1_555 1_555
H6A C10A 1_555 1_555
C11A C3A 1_555 1_555
H7A C11A 1_555 1_555
C12A C4A 1_555 1_555
H8A C12A 1_555 1_555
H9A N1A 1_555 1_555
Br3A C18A 1_555 1_555
Br4A C20A 1_555 1_555
N4A C15A 1_555 1_555
C13A C16A 1_555 1_555
N5A C14A 1_555 1_555
C14A C15A 1_555 1_555
C15A C19 1_555 1_555
H10A C15A 1_555 1_555
C16A H11A 1_555 1_555
C17A C14A 1_555 1_555
H12A C17A 1_555 1_555
C18A C22A 1_555 1_555
C19A C15 1_555 1_555
H13A C19A 1_555 1_555
C20A C21A 1_555 1_555
N6A C13A 1_555 1_555
C21A N6A 1_555 1_555
H14A C21A 1_555 1_555
C22A N5A 1_555 1_555
H15A C22A 1_555 1_555
C23A C17A 1_555 1_555
H16A C23A 1_555 1_555
C24A C16A 1_555 1_555
H17A C24A 1_555 1_555
H18A N4A 1_555 1_555
C3 C6 1_555 1_555
C5 C11 1_555 1_555
C9 C12 1_555 1_555
C13 C19 1_555 1_555
C18 C23 1_555 1_555
C20 C24 1_555 1_555
N1A C6A 1_555 1_555
C3A C6A 1_555 1_555
C5A C11A 1_555 1_555
C9A C12A 1_555 1_555
N4A C19A 1_555 1_555
C13A C19A 1_555 1_555
C18A C23A 1_555 1_555
C20A C24A 1_555 1_555

#END
