
#######################################################################
#
#                 Cambridge Crystallographic Data Centre
#                                CCDC 
#
#######################################################################
#
# If this CIF has been generated from an entry in the Cambridge 
# Structural Database, then it will include bibliographic, chemical, 
# crystal, experimental, refinement or atomic coordinate data resulting 
# from the CCDC's data processing and validation procedures.
#
#######################################################################

data_PADFEI
_chemical_formula_moiety         'C21 H13 Cl1 N2 O1'
_chemical_name_systematic        
3-(3-chloro-4-hydroxyphenyl)-2-phenyl-1H-indole-4-carbonitrile
_symmetry_cell_setting           monoclinic
_symmetry_space_group_name_H-M   'P 21/c'
_symmetry_Int_Tables_number      14
_space_group_name_Hall           '-P 2ybc'
loop_
_symmetry_equiv_pos_site_id
_symmetry_equiv_pos_as_xyz
1 x,y,z
2 -x,1/2+y,1/2-z
3 -x,-y,-z
4 x,1/2-y,1/2+z
_cell_length_a                   11.0763(4)
_cell_length_b                   9.5942(3)
_cell_length_c                   16.8817(7)
_cell_angle_alpha                90
_cell_angle_beta                 108.491(3)
_cell_angle_gamma                90
_cell_volume                     1701.37
_exptl_crystal_colour            yellow
_exptl_crystal_description       Lamellar
_cell_formula_units_Z            4
_exptl_crystal_recrystallization_method 
'Re-crystallisation from solvent: ethanol'
loop_
_atom_site_label
_atom_site_type_symbol
_atom_site_fract_x
_atom_site_fract_y
_atom_site_fract_z
C1 C 0.4650(4) 0.1730(4) 0.3691(2)
C2 C 0.4337(4) 0.1607(4) 0.4442(2)
C3 C 0.3288(4) 0.0819(4) 0.4439(3)
H1 H 0.2802 0.0387 0.3948
C4 C 0.2954(4) 0.0666(4) 0.5162(3)
H2 H 0.2238 0.0143 0.5143
C5 C 0.3654(4) 0.1267(4) 0.5902(3)
H3 H 0.3430 0.1151 0.6385
C6 C 0.4701(4) 0.2049(4) 0.5907(2)
C7 C 0.6440(4) 0.3407(4) 0.6266(2)
C8 C 0.6169(3) 0.3135(3) 0.5425(2)
C9 C 0.5067(3) 0.2267(3) 0.5183(2)
C10 C 0.7395(4) 0.4316(4) 0.6827(2)
C11 C 0.7985(5) 0.3959(6) 0.7660(3)
H4 H 0.7814 0.3103 0.7860
C12 C 0.8819(6) 0.4868(8) 0.8187(3)
H5 H 0.9221 0.4611 0.8739
C13 C 0.9071(5) 0.6153(8) 0.7914(4)
H6 H 0.9616 0.6770 0.8284
C14 C 0.8513(5) 0.6520(6) 0.7092(3)
H7 H 0.8691 0.7379 0.6900
C15 C 0.7684(4) 0.5604(5) 0.6553(3)
H8 H 0.7312 0.5854 0.5996
C16 C 0.6944(3) 0.3583(3) 0.4897(2)
C17 C 0.8173(4) 0.3121(4) 0.5061(2)
H9 H 0.8533 0.2538 0.5514
C18 C 0.8885(4) 0.3524(4) 0.4548(3)
C19 C 0.8368(4) 0.4399(4) 0.3874(3)
C20 C 0.7158(4) 0.4857(5) 0.3708(3)
H10 H 0.6806 0.5446 0.3256
C21 C 0.6444(4) 0.4452(4) 0.4206(2)
H11 H 0.5610 0.4766 0.4078
Cl1 Cl 1.04219(11) 0.29069(14) 0.47587(9)
N1 N 0.4874(4) 0.1817(5) 0.3080(2)
N2 N 0.5571(3) 0.2729(3) 0.65590(19)
O1 O 0.9035(4) 0.4832(5) 0.3360(3)
H12 H 0.9781 0.4591 0.3557
loop_
_geom_bond_atom_site_label_1
_geom_bond_atom_site_label_2
_geom_bond_site_symmetry_1
_geom_bond_site_symmetry_2
C1 C2 1_555 1_555
C2 C3 1_555 1_555
C3 H1 1_555 1_555
C4 C3 1_555 1_555
H2 C4 1_555 1_555
C5 C4 1_555 1_555
H3 C5 1_555 1_555
C6 C5 1_555 1_555
C7 C8 1_555 1_555
C8 C9 1_555 1_555
C9 C2 1_555 1_555
C10 C7 1_555 1_555
C11 C10 1_555 1_555
H4 C11 1_555 1_555
C12 C11 1_555 1_555
H5 C12 1_555 1_555
C13 C12 1_555 1_555
H6 C13 1_555 1_555
C14 C13 1_555 1_555
H7 C14 1_555 1_555
C15 C10 1_555 1_555
H8 C15 1_555 1_555
C16 C8 1_555 1_555
C17 C16 1_555 1_555
H9 C17 1_555 1_555
C18 C17 1_555 1_555
C19 C18 1_555 1_555
C20 C19 1_555 1_555
H10 C20 1_555 1_555
C21 C16 1_555 1_555
H11 C21 1_555 1_555
Cl1 C18 1_555 1_555
N1 C1 1_555 1_555
N2 C6 1_555 1_555
O1 C19 1_555 1_555
H12 O1 1_555 1_555
C6 C9 1_555 1_555
C7 N2 1_555 1_555
C14 C15 1_555 1_555
C20 C21 1_555 1_555

#END
