
#######################################################################
#
#                 Cambridge Crystallographic Data Centre
#                                CCDC 
#
#######################################################################
#
# If this CIF has been generated from an entry in the Cambridge 
# Structural Database, then it will include bibliographic, chemical, 
# crystal, experimental, refinement or atomic coordinate data resulting 
# from the CCDC's data processing and validation procedures.
#
#######################################################################

data_PADHEJ
_chemical_formula_moiety         'C32 H25 N1 O4'
_chemical_name_systematic        
2-(4,5-bis(4-Methoxyphenyl)-5H-chromeno[4,3-b]pyridin-2-yl)phenol
_symmetry_cell_setting           monoclinic
_symmetry_space_group_name_H-M   'P 21/c'
_symmetry_Int_Tables_number      14
_space_group_name_Hall           '-P 2ybc'
loop_
_symmetry_equiv_pos_site_id
_symmetry_equiv_pos_as_xyz
1 x,y,z
2 -x,1/2+y,1/2-z
3 -x,-y,-z
4 x,1/2-y,1/2+z
_cell_length_a                   12.4170(11)
_cell_length_b                   18.313(2)
_cell_length_c                   11.7103(10)
_cell_angle_alpha                90
_cell_angle_beta                 111.569(2)
_cell_angle_gamma                90
_cell_volume                     2476.37
_exptl_crystal_colour            brown
_exptl_crystal_description       block
_chemical_melting_point          '191.2-192.4 deg.C'
_cell_formula_units_Z            4
_exptl_crystal_recrystallization_method dimethylformamide
loop_
_atom_site_label
_atom_site_type_symbol
_atom_site_fract_x
_atom_site_fract_y
_atom_site_fract_z
N1 N 0.1865(3) 0.3634(2) 0.7862(3)
O1 O 0.1705(3) 0.55592(16) 0.9569(3)
O2 O 0.2740(3) 0.23552(17) 0.8167(3)
H1 H 0.2673 0.2789 0.8302
O3 O 0.3454(4) 0.76075(19) 0.6422(3)
O4 O -0.4228(3) 0.60474(19) 0.4529(3)
C1 C 0.1863(3) 0.4319(3) 0.8264(4)
C2 C 0.0943(3) 0.4788(2) 0.7762(4)
C3 C -0.0058(3) 0.4531(2) 0.6870(4)
C4 C -0.0060(3) 0.3819(2) 0.6480(4)
H2 H -0.0732 0.3627 0.5899
C5 C 0.0924(4) 0.3383(2) 0.6941(4)
C6 C 0.2840(4) 0.4545(3) 0.9333(4)
C7 C 0.2711(4) 0.5159(3) 0.9970(4)
C8 C 0.3539(4) 0.5360(3) 1.1085(4)
H3 H 0.3435 0.5769 1.1505
C9 C 0.4523(5) 0.4937(3) 1.1559(5)
H4 H 0.5085 0.5060 1.2313
C10 C 0.4686(4) 0.4345(3) 1.0943(5)
H5 H 0.5363 0.4073 1.1268
C11 C 0.3854(4) 0.4148(3) 0.9847(4)
H6 H 0.3971 0.3738 0.9437
C12 C 0.1087(4) 0.5551(2) 0.8238(4)
H7 H 0.0311 0.5750 0.8073
C13 C 0.1710(3) 0.6072(3) 0.7673(4)
C14 C 0.2273(4) 0.5864(2) 0.6933(4)
H8 H 0.2255 0.5375 0.6711
C15 C 0.2872(4) 0.6354(3) 0.6501(4)
H9 H 0.3262 0.6192 0.6006
C16 C 0.2897(4) 0.7073(3) 0.6794(5)
C17 C 0.2316(5) 0.7305(3) 0.7508(5)
H10 H 0.2312 0.7798 0.7696
C18 C 0.1736(4) 0.6814(3) 0.7949(4)
H11 H 0.1350 0.6978 0.8446
C19 C 0.4172(6) 0.7396(3) 0.5794(6)
H12 H 0.4753 0.7065 0.6295
H13 H 0.4538 0.7819 0.5616
H14 H 0.3716 0.7158 0.5040
C20 C -0.1127(4) 0.4971(2) 0.6309(4)
C21 C -0.2182(4) 0.4702(2) 0.6264(4)
H15 H -0.2206 0.4258 0.6638
C22 C -0.3189(4) 0.5073(3) 0.5685(4)
H16 H -0.3885 0.4884 0.5683
C23 C -0.3180(4) 0.5719(3) 0.5107(4)
C24 C -0.2147(4) 0.6009(3) 0.5136(4)
H17 H -0.2127 0.6453 0.4756
C25 C -0.1139(4) 0.5624(2) 0.5747(4)
H18 H -0.0438 0.5820 0.5774
C26 C -0.4256(4) 0.6697(3) 0.3866(5)
H19 H -0.3858 0.7078 0.4426
H20 H -0.5045 0.6839 0.3431
H21 H -0.3881 0.6615 0.3291
C27 C 0.0990(4) 0.2644(2) 0.6487(4)
C28 C 0.1875(4) 0.2157(3) 0.7108(4)
C29 C 0.1901(5) 0.1450(3) 0.6691(5)
H22 H 0.2488 0.1128 0.7123
C30 C 0.1042(5) 0.1243(3) 0.5634(5)
H23 H 0.1044 0.0764 0.5373
C31 C 0.0174(5) 0.1694(3) 0.4928(5)
H24 H -0.0383 0.1540 0.4191
C32 C 0.0176(4) 0.2394(3) 0.5379(4)
H25 H -0.0398 0.2716 0.4917
loop_
_geom_bond_atom_site_label_1
_geom_bond_atom_site_label_2
_geom_bond_site_symmetry_1
_geom_bond_site_symmetry_2
N1 C1 1_555 1_555
O1 C7 1_555 1_555
O2 H1 1_555 1_555
O3 C16 1_555 1_555
O4 C23 1_555 1_555
C1 C2 1_555 1_555
C2 C3 1_555 1_555
C3 C4 1_555 1_555
C4 H2 1_555 1_555
C5 N1 1_555 1_555
C6 C1 1_555 1_555
C7 C6 1_555 1_555
C8 C7 1_555 1_555
H3 C8 1_555 1_555
C9 C8 1_555 1_555
H4 C9 1_555 1_555
C10 C9 1_555 1_555
H5 C10 1_555 1_555
C11 C6 1_555 1_555
H6 C11 1_555 1_555
C12 O1 1_555 1_555
H7 C12 1_555 1_555
C13 C12 1_555 1_555
C14 C13 1_555 1_555
H8 C14 1_555 1_555
C15 C14 1_555 1_555
H9 C15 1_555 1_555
C16 C15 1_555 1_555
C17 C16 1_555 1_555
H10 C17 1_555 1_555
C18 C13 1_555 1_555
H11 C18 1_555 1_555
C19 O3 1_555 1_555
H12 C19 1_555 1_555
H13 C19 1_555 1_555
H14 C19 1_555 1_555
C20 C3 1_555 1_555
C21 C20 1_555 1_555
H15 C21 1_555 1_555
C22 C21 1_555 1_555
H16 C22 1_555 1_555
C23 C22 1_555 1_555
C24 C23 1_555 1_555
H17 C24 1_555 1_555
C25 C20 1_555 1_555
H18 C25 1_555 1_555
C26 O4 1_555 1_555
H19 C26 1_555 1_555
H20 C26 1_555 1_555
H21 C26 1_555 1_555
C27 C5 1_555 1_555
C28 O2 1_555 1_555
C29 C28 1_555 1_555
H22 C29 1_555 1_555
C30 C29 1_555 1_555
H23 C30 1_555 1_555
C31 C30 1_555 1_555
H24 C31 1_555 1_555
C32 C27 1_555 1_555
H25 C32 1_555 1_555
C2 C12 1_555 1_555
C4 C5 1_555 1_555
C10 C11 1_555 1_555
C17 C18 1_555 1_555
C24 C25 1_555 1_555
C27 C28 1_555 1_555
C31 C32 1_555 1_555

#END
