
#######################################################################
#
#                 Cambridge Crystallographic Data Centre
#                                CCDC 
#
#######################################################################
#
# If this CIF has been generated from an entry in the Cambridge 
# Structural Database, then it will include bibliographic, chemical, 
# crystal, experimental, refinement or atomic coordinate data resulting 
# from the CCDC's data processing and validation procedures.
#
#######################################################################

data_PADLUE
_chemical_formula_moiety         'C26 H27 N2 O7 1+,H2 O1,I1 1-'
_chemical_name_systematic        
"3-methyl-1-(8-oxo-9-(3,4,5-trimethoxyphenyl)-5,5a,6,8,8a,9-hexahydrofuro[3',4':6,7]naphtho[2,3-d][1,3]dioxol-5-yl)-1H-imidazol-3-ium iodide monohydrate"
_symmetry_cell_setting           triclinic
_symmetry_space_group_name_H-M   'P 1'
_symmetry_Int_Tables_number      1
_space_group_name_Hall           'P 1'
loop_
_symmetry_equiv_pos_site_id
_symmetry_equiv_pos_as_xyz
1 x,y,z
_cell_length_a                   7.4211(8)
_cell_length_b                   8.8762(10)
_cell_length_c                   10.8211(12)
_cell_angle_alpha                76.4160(10)
_cell_angle_beta                 80.3300(10)
_cell_angle_gamma                73.7740(10)
_cell_volume                     661.249
_exptl_crystal_colour            colorless
_exptl_crystal_description       block
_cell_formula_units_Z            1
loop_
_atom_site_label
_atom_site_type_symbol
_atom_site_fract_x
_atom_site_fract_y
_atom_site_fract_z
I1 I 0.133810(11) 0.226510(11) 0.164810(11)
O1 O 0.1509(4) 0.7952(4) -0.0963(3)
O2 O 0.3416(4) 0.9560(3) -0.1775(3)
O3 O 0.9904(4) 0.3351(4) -0.2159(3)
O4 O 0.7543(4) 0.2113(3) -0.1187(3)
O5 O 0.4052(5) 0.8267(4) 0.5155(3)
O6 O 0.5273(4) 0.5177(4) 0.6320(3)
O7 O 0.6067(5) 0.2828(4) 0.5028(3)
N1 N 0.9257(5) 0.6688(4) 0.2926(4)
N2 N 0.7992(5) 0.7812(4) 0.1161(3)
C1 C 0.8641(5) 0.6420(4) 0.1937(4)
H1 H 0.8658 0.5418 0.1805
C2 C 0.9041(6) 0.8319(5) 0.2758(5)
H2 H 0.9379 0.8841 0.3301
C3 C 0.8254(6) 0.9009(5) 0.1666(4)
H3 H 0.7944 1.0098 0.1315
C4 C 1.0016(7) 0.5469(6) 0.4010(6)
H4 H 1.0300 0.4428 0.3803
H5 H 0.9097 0.5519 0.4749
H6 H 1.1146 0.5662 0.4189
C5 C 0.5190(5) 0.9205(4) -0.0019(4)
H7 H 0.5108 0.9936 0.0552
C6 C 0.4739(6) 1.0180(5) -0.1350(4)
H8 H 0.4205 1.1300 -0.1312
H9 H 0.5884 1.0093 -0.1942
C7 C 0.2717(6) 0.8543(5) -0.0822(5)
C8 C 0.3573(6) 0.8357(5) 0.0409(4)
H10 H 0.2625 0.8944 0.0989
C9 C 0.4100(5) 0.6584(4) 0.1055(4)
H11 H 0.3024 0.6156 0.1038
C10 C 0.5741(4) 0.5722(4) 0.0233(3)
C11 C 0.5753(5) 0.4227(4) -0.0005(4)
H12 H 0.4799 0.3720 0.0370
C12 C 0.7222(5) 0.3553(4) -0.0808(4)
C13 C 0.8643(5) 0.4284(4) -0.1387(4)
C14 C 0.8694(5) 0.5720(5) -0.1158(4)
H13 H 0.9676 0.6196 -0.1528
C15 C 0.7193(5) 0.6446(4) -0.0335(3)
C16 C 0.7176(5) 0.8041(4) -0.0056(3)
H14 H 0.7987 0.8541 -0.0747
C17 C 0.9000(6) 0.2161(5) -0.2241(5)
H15 H 0.9904 0.1126 -0.2192
H16 H 0.8460 0.2432 -0.3045
C18 C 0.4432(6) 0.6286(5) 0.2463(4)
C19 C 0.4044(5) 0.7499(4) 0.3145(4)
H17 H 0.3595 0.8558 0.2744
C20 C 0.4329(5) 0.7131(5) 0.4434(4)
C21 C 0.4998(5) 0.5550(5) 0.5043(4)
C22 C 0.5401(5) 0.4341(4) 0.4343(4)
C23 C 0.5116(5) 0.4698(4) 0.3075(4)
H18 H 0.5379 0.3880 0.2619
C24 C 0.2325(10) 0.9456(7) 0.5131(7)
H19 H 0.2329 1.0207 0.4332
H20 H 0.2175 1.0005 0.5821
H21 H 0.1299 0.8963 0.5222
C25 C 0.3591(7) 0.5014(9) 0.7134(5)
H22 H 0.2691 0.6037 0.7067
H23 H 0.3877 0.4625 0.8003
H24 H 0.3070 0.4271 0.6881
C26 C 0.6540(12) 0.1560(6) 0.4347(6)
H25 H 0.5485 0.1606 0.3921
H26 H 0.6846 0.0553 0.4933
H27 H 0.7608 0.1664 0.3725
O8 O 0.7523(8) 0.7881(6) 0.6174(6)
H28 H 0.6541 0.8450 0.5829
H29 H 0.7334 0.6963 0.6509
loop_
_geom_bond_atom_site_label_1
_geom_bond_atom_site_label_2
_geom_bond_site_symmetry_1
_geom_bond_site_symmetry_2
O1 C7 1_555 1_555
O2 C6 1_555 1_555
O3 C13 1_555 1_555
O4 C12 1_555 1_555
O5 C20 1_555 1_555
O6 C21 1_555 1_555
O7 C22 1_555 1_555
N1 C1 1_555 1_555
N2 C1 1_555 1_555
C1 H1 1_555 1_555
C2 N1 1_555 1_555
H2 C2 1_555 1_555
C3 N2 1_555 1_555
H3 C3 1_555 1_555
C4 N1 1_555 1_555
H4 C4 1_555 1_555
H5 C4 1_555 1_555
H6 C4 1_555 1_555
C5 H7 1_555 1_555
C6 C5 1_555 1_555
H8 C6 1_555 1_555
H9 C6 1_555 1_555
C7 O2 1_555 1_555
C8 C5 1_555 1_555
H10 C8 1_555 1_555
C9 C8 1_555 1_555
H11 C9 1_555 1_555
C10 C9 1_555 1_555
C11 C10 1_555 1_555
H12 C11 1_555 1_555
C12 C11 1_555 1_555
C13 C12 1_555 1_555
C14 C13 1_555 1_555
H13 C14 1_555 1_555
C15 C10 1_555 1_555
C16 N2 1_555 1_555
H14 C16 1_555 1_555
C17 O3 1_555 1_555
H15 C17 1_555 1_555
H16 C17 1_555 1_555
C18 C9 1_555 1_555
C19 C18 1_555 1_555
H17 C19 1_555 1_555
C20 C19 1_555 1_555
C21 C20 1_555 1_555
C22 C21 1_555 1_555
C23 C18 1_555 1_555
H18 C23 1_555 1_555
C24 O5 1_555 1_555
H19 C24 1_555 1_555
H20 C24 1_555 1_555
H21 C24 1_555 1_555
C25 O6 1_555 1_555
H22 C25 1_555 1_555
H23 C25 1_555 1_555
H24 C25 1_555 1_555
C26 O7 1_555 1_555
H25 C26 1_555 1_555
H26 C26 1_555 1_555
H27 C26 1_555 1_555
O8 H28 1_555 1_555
H29 O8 1_555 1_555
O4 C17 1_555 1_555
C2 C3 1_555 1_555
C5 C16 1_555 1_555
C7 C8 1_555 1_555
C14 C15 1_555 1_555
C15 C16 1_555 1_555
C22 C23 1_555 1_555

#END
