
#######################################################################
#
#                 Cambridge Crystallographic Data Centre
#                                CCDC 
#
#######################################################################
#
# If this CIF has been generated from an entry in the Cambridge 
# Structural Database, then it will include bibliographic, chemical, 
# crystal, experimental, refinement or atomic coordinate data resulting 
# from the CCDC's data processing and validation procedures.
#
#######################################################################

data_PADMAL
_chemical_formula_moiety         'C24 H23 N3 O7,C3 H6 O1'
_chemical_name_systematic        
"9-(1H-1,2,3-triazol-1-yl)-5-(3,4,5-trimethoxyphenyl)-5,8,8a,9-tetrahydrofuro[3',4':6,7]naphtho[2,3-d][1,3]dioxol-6(5aH)-one acetone solvate"
_symmetry_cell_setting           orthorhombic
_symmetry_space_group_name_H-M   'P 21 21 21'
_symmetry_Int_Tables_number      19
_space_group_name_Hall           'P 2ac 2ab'
loop_
_symmetry_equiv_pos_site_id
_symmetry_equiv_pos_as_xyz
1 x,y,z
2 1/2+x,1/2-y,-z
3 -x,1/2+y,1/2-z
4 1/2-x,-y,1/2+z
_cell_length_a                   9.6249(8)
_cell_length_b                   11.9702(10)
_cell_length_c                   22.996(2)
_cell_angle_alpha                90
_cell_angle_beta                 90
_cell_angle_gamma                90
_cell_volume                     2649.41
_exptl_crystal_colour            colorless
_exptl_crystal_description       block
_cell_formula_units_Z            4
loop_
_atom_site_label
_atom_site_type_symbol
_atom_site_fract_x
_atom_site_fract_y
_atom_site_fract_z
O1 O 0.62291(15) 0.52021(11) 0.74484(6)
O2 O 0.62195(17) 0.46694(11) 0.63109(6)
O3 O 0.26075(14) 0.82926(12) 0.54148(7)
O4 O 0.42418(16) 0.72393(13) 0.49901(7)
O5 O 1.03156(14) 1.09143(12) 0.64633(7)
O6 O 0.89404(14) 1.23235(12) 0.68444(7)
O7 O 0.63744(14) 0.73359(10) 0.77968(5)
C1 C 0.7483(3) 0.45567(17) 0.74941(9)
H1 H 0.7817 0.4366 0.7104
H2 H 0.7295 0.3870 0.7712
H3 H 0.8193 0.4994 0.7697
N1 N 0.41481(14) 1.14825(12) 0.56988(6)
N2 N 0.29624(17) 1.20660(14) 0.57628(8)
C2 C 0.62847(18) 0.60363(13) 0.70360(7)
C3 C 0.62739(18) 0.57838(13) 0.64422(7)
C4 C 0.63071(18) 0.66353(14) 0.60254(7)
H4 H 0.6319 0.6456 0.5623
C5 C 0.63234(16) 0.77492(13) 0.62038(7)
C6 C 0.63336(17) 0.86729(13) 0.57479(7)
H5 H 0.6931 0.8430 0.5415
C7 C 0.69338(16) 0.97478(13) 0.60012(7)
C8 C 0.61031(16) 1.06209(13) 0.62135(6)
C9 C 0.45239(16) 1.06441(13) 0.61425(7)
H6 H 0.4101 1.0872 0.6521
N3 N 0.2854(2) 1.27396(15) 0.53138(8)
C10 C 0.6439(3) 0.43657(16) 0.57175(8)
H7 H 0.5714 0.4703 0.5475
H8 H 0.6402 0.3551 0.5679
H9 H 0.7352 0.4635 0.5591
C11 C 0.3975(2) 1.25815(17) 0.49636(9)
H10 H 0.4149 1.2967 0.4610
C12 C 0.4814(2) 1.17754(16) 0.52024(8)
H11 H 0.5664 1.1490 0.5054
C13 C 0.39904(16) 0.94825(13) 0.59865(7)
H12 H 0.4068 0.9004 0.6342
C14 C 0.25270(18) 0.93358(15) 0.57419(8)
H13 H 0.1834 0.9281 0.6059
H14 H 0.2275 0.9967 0.5485
C15 C 0.39546(19) 0.80507(16) 0.52758(8)
C16 C 0.48808(17) 0.89563(14) 0.55138(7)
H15 H 0.5001 0.9527 0.5200
C17 C 0.67007(17) 1.15446(14) 0.65044(7)
H16 H 0.6143 1.2135 0.6652
C18 C 0.81174(18) 1.15535(14) 0.65646(8)
C19 C 0.89435(17) 1.06995(15) 0.63448(8)
C20 C 1.0336(2) 1.20387(18) 0.66916(11)
H17 H 1.0944 1.2079 0.7038
H18 H 1.0695 1.2564 0.6395
C21 C 0.83897(17) 0.97925(14) 0.60641(7)
H19 H 0.8967 0.9214 0.5917
C22 C 0.63294(16) 0.80049(13) 0.67973(7)
H20 H 0.6336 0.8763 0.6919
C23 C 0.63255(16) 0.71531(13) 0.72101(7)
C24 C 0.6499(2) 0.84755(15) 0.79829(7)
H21 H 0.7345 0.8802 0.7818
H22 H 0.6546 0.8503 0.8408
H23 H 0.5689 0.8900 0.7849
C25 C 0.2806(4) 0.4444(3) 0.09799(19)
H24 H 0.2199 0.4246 0.1306
H25 H 0.2617 0.3945 0.0651
H26 H 0.2630 0.5218 0.0864
C26 C 0.4284(4) 0.4323(3) 0.11601(16)
C27 C 0.4742(4) 0.3265(3) 0.14955(17)
H27 H 0.5750 0.3282 0.1553
H28 H 0.4489 0.2599 0.1272
H29 H 0.4276 0.3245 0.1874
O8 O 0.5059(9) 0.5194(9) 0.1172(6)
O9? O 0.5168(6) 0.4915(6) 0.0937(4)
loop_
_geom_bond_atom_site_label_1
_geom_bond_atom_site_label_2
_geom_bond_site_symmetry_1
_geom_bond_site_symmetry_2
O1 C1 1_555 1_555
O2 C3 1_555 1_555
O3 C14 1_555 1_555
O4 C15 1_555 1_555
O5 C19 1_555 1_555
O6 C18 1_555 1_555
O7 C23 1_555 1_555
C1 H1 1_555 1_555
H2 C1 1_555 1_555
H3 C1 1_555 1_555
N1 N2 1_555 1_555
N2 N3 1_555 1_555
C2 O1 1_555 1_555
C3 C2 1_555 1_555
C4 C3 1_555 1_555
H4 C4 1_555 1_555
C5 C4 1_555 1_555
C6 C5 1_555 1_555
H5 C6 1_555 1_555
C7 C6 1_555 1_555
C8 C7 1_555 1_555
C9 N1 1_555 1_555
H6 C9 1_555 1_555
N3 C11 1_555 1_555
C10 O2 1_555 1_555
H7 C10 1_555 1_555
H8 C10 1_555 1_555
H9 C10 1_555 1_555
C11 H10 1_555 1_555
C12 N1 1_555 1_555
H11 C12 1_555 1_555
C13 C9 1_555 1_555
H12 C13 1_555 1_555
C14 C13 1_555 1_555
H13 C14 1_555 1_555
H14 C14 1_555 1_555
C15 O3 1_555 1_555
C16 C6 1_555 1_555
H15 C16 1_555 1_555
C17 C8 1_555 1_555
H16 C17 1_555 1_555
C18 C17 1_555 1_555
C19 C18 1_555 1_555
C20 O5 1_555 1_555
H17 C20 1_555 1_555
H18 C20 1_555 1_555
C21 C7 1_555 1_555
H19 C21 1_555 1_555
C22 C5 1_555 1_555
H20 C22 1_555 1_555
C23 C2 1_555 1_555
C24 O7 1_555 1_555
H21 C24 1_555 1_555
H22 C24 1_555 1_555
H23 C24 1_555 1_555
C25 H24 1_555 1_555
H25 C25 1_555 1_555
H26 C25 1_555 1_555
C26 C25 1_555 1_555
C27 C26 1_555 1_555
H27 C27 1_555 1_555
H28 C27 1_555 1_555
H29 C27 1_555 1_555
O8 C26 1_555 1_555
O6 C20 1_555 1_555
C8 C9 1_555 1_555
C11 C12 1_555 1_555
C13 C16 1_555 1_555
C15 C16 1_555 1_555
C19 C21 1_555 1_555
C22 C23 1_555 1_555

#END
