
#######################################################################
#
#                 Cambridge Crystallographic Data Centre
#                                CCDC 
#
#######################################################################
#
# If this CIF has been generated from an entry in the Cambridge 
# Structural Database, then it will include bibliographic, chemical, 
# crystal, experimental, refinement or atomic coordinate data resulting 
# from the CCDC's data processing and validation procedures.
#
#######################################################################

data_PADROC
_chemical_compound_source        'aerial parts of Gynostemma pentaphyllum'
_chemical_name_common            
'(20S,24S)-20,24-epoxy-12,25-dihydroxydammaran-3-yl O-beta-D-glucopyranosyl-(1-2)-beta-D-xylopyranoside methanol solvate trihydrate'
_chemical_formula_moiety         'C41 H70 O13,C1 H4 O1,3(H2 O1)'
_chemical_name_systematic        'Gynoside A methanol solvate trihydrate'
_chemical_properties_biological  
'used in Chinese folk medicine for lowering cholesterol, regulating blood pressure, strengthening the immune system, treating chronic bronchitis and gastritis and reducing inflammation'
_symmetry_cell_setting           monoclinic
_symmetry_space_group_name_H-M   'P 21'
_symmetry_Int_Tables_number      4
_space_group_name_Hall           'P 2yb'
loop_
_symmetry_equiv_pos_site_id
_symmetry_equiv_pos_as_xyz
1 x,y,z
2 -x,1/2+y,-z
_cell_length_a                   11.6591(7)
_cell_length_b                   8.0596(5)
_cell_length_c                   23.5397(14)
_cell_angle_alpha                90
_cell_angle_beta                 95.4900(10)
_cell_angle_gamma                90
_cell_volume                     2201.82
_exptl_crystal_colour            colorless
_exptl_crystal_description       plates
_chemical_melting_point          '203-205 deg.C'
_cell_formula_units_Z            2
loop_
_atom_site_label
_atom_site_type_symbol
_atom_site_fract_x
_atom_site_fract_y
_atom_site_fract_z
H2 H 1.329(3) 0.349(6) 0.966(2)
H3 H 1.211(4) -0.032(5) 0.966(2)
H4 H 1.048(7) -0.040(16) 0.984(2)
H6 H 0.612(6) 0.177(4) 0.204(3)
H7 H 0.626(5) 0.313(8) 0.3795(14)
H8 H 1.066(3) 0.477(5) 0.9512(18)
H9 H 1.218(3) 0.293(4) 0.8905(11)
H10 H 1.133(4) 0.208(6) 0.988(2)
H11 H 1.064(3) 0.072(4) 0.8864(10)
H12 H 0.942(3) 0.268(4) 0.9587(10)
H13 H 0.597(3) 0.453(5) 0.9452(14)
H14 H 0.650(3) 0.112(3) 0.9307(15)
H15 H 0.773(3) 0.387(3) 0.8929(17)
H16 H 0.654(4) 0.151(3) 0.8266(18)
H17 H 0.747(3) 0.383(5) 0.3214(13)
H18 H 0.595(4) -0.050(6) 0.3751(18)
H19 H 0.778(2) 0.120(5) 0.4239(16)
H20 H 0.561(3) 0.143(7) 0.461(3)
H21 H 0.667(2) 0.093(4) 0.5611(16)
H22 H 0.724(2) 0.049(5) 0.6498(16)
H23 H 0.649(2) 0.201(5) 0.7319(16)
C3 C 1.1134(5) 0.5842(7) 0.8773(2)
H24 H 1.1868 0.6330 0.8914
H25 H 1.1214 0.5394 0.8396
C4 C 1.0862(4) 0.4451(6) 0.9163(2)
C5 C 1.1868(4) 0.3240(6) 0.9266(2)
C6 C 1.1516(4) 0.1651(7) 0.9537(2)
C7 C 1.0426(4) 0.0926(6) 0.9228(2)
C8 C 0.9509(4) 0.2259(6) 0.92078(19)
C9 C 0.5082(4) 0.3233(8) 0.87604(19)
H26 H 0.4794 0.2121 0.8680
H27 H 0.4429 0.3985 0.8737
C10 C 0.5702(4) 0.3291(7) 0.9357(2)
C11 C 0.6753(4) 0.2214(7) 0.9390(2)
C12 C 0.7522(4) 0.2725(6) 0.89352(19)
C13 C 0.6842(4) 0.2629(7) 0.8360(2)
C14 C 0.6262(4) -0.1503(8) 0.4974(2)
H28 H 0.5860 -0.0773 0.5210
H29 H 0.6469 -0.2502 0.5182
H30 H 0.5772 -0.1771 0.4636
C15 C 0.9443(4) 0.2404(9) 0.7345(2)
H31 H 0.9393 0.3513 0.7196
H32 H 1.0037 0.1810 0.7175
H33 H 0.9625 0.2444 0.7751
C16 C 0.8290(5) -0.0090(8) 0.7578(3)
H34 H 0.8360 0.0217 0.7973
H35 H 0.8937 -0.0763 0.7501
H36 H 0.7591 -0.0707 0.7490
C17 C 0.7462(5) 0.5096(8) 0.2108(3)
H37 H 0.7990 0.4439 0.1914
H38 H 0.7882 0.5744 0.2400
H39 H 0.7043 0.5822 0.1839
C18 C 0.5609(5) 0.4846(8) 0.2566(3)
H40 H 0.5196 0.5393 0.2246
H41 H 0.5858 0.5652 0.2851
H42 H 0.5114 0.4052 0.2724
C19 C 0.6634(5) 0.3976(8) 0.2373(2)
C20 C 0.7305(5) 0.3086(8) 0.2883(2)
C21 C 0.8329(4) 0.2076(8) 0.2752(2)
H43 H 0.9038 0.2704 0.2825
H44 H 0.8254 0.1702 0.2359
C22 C 0.8297(5) 0.0615(8) 0.3165(2)
H45 H 0.8656 -0.0358 0.3016
H46 H 0.8693 0.0890 0.3534
C23 C 0.6508(6) -0.0766(8) 0.2719(2)
H47 H 0.5683 -0.0727 0.2707
H48 H 0.6765 -0.1891 0.2776
H49 H 0.6744 -0.0358 0.2365
C24 C 0.7038(5) 0.0316(7) 0.3212(2)
C25 C 0.8758(5) 0.3634(8) 0.6069(2)
H50 H 0.8644 0.4191 0.5708
H51 H 0.9468 0.3024 0.6091
H52 H 0.8789 0.4438 0.6371
H53 H 0.969(5) 0.001(8) 0.493(3)
H54 H 0.915(5) 0.200(9) 0.494(3)
H55 H 0.981(5) 0.136(7) 0.553(2)
C26 C 0.9240(5) 0.0868(9) 0.5148(3)
C27 C 0.6724(5) -0.0403(8) 0.3786(2)
C28 C 0.7286(5) -0.2120(7) 0.3898(2)
H56 H 0.6702 -0.2971 0.3914
H57 H 0.7770 -0.2401 0.3600
C29 C 0.8002(5) -0.1963(7) 0.4470(2)
H58 H 0.8781 -0.1614 0.4418
H59 H 0.8034 -0.3014 0.4672
C30 C 0.7376(4) -0.0627(7) 0.4806(2)
C31 C 0.7092(4) 0.0660(7) 0.4323(2)
C32 C 0.6307(5) 0.1990(8) 0.4530(2)
C33 C 0.6905(5) 0.2792(7) 0.5065(2)
H60 H 0.6379 0.3587 0.5210
H61 H 0.7568 0.3405 0.4959
C34 C 0.7751(4) 0.2431(7) 0.6128(2)
C35 C 0.7309(4) 0.1599(7) 0.5549(2)
C36 C 0.8075(4) 0.0222(7) 0.5333(2)
C37 C 0.8402(5) -0.1042(8) 0.5810(2)
H62 H 0.7726 -0.1690 0.5874
H63 H 0.8974 -0.1796 0.5684
C38 C 0.8870(5) -0.0269(8) 0.6362(2)
H64 H 0.9594 0.0282 0.6312
H65 H 0.9019 -0.1126 0.6649
C39 C 0.8012(4) 0.0994(7) 0.6564(2)
C40 C 0.8262(4) 0.1500(7) 0.7203(2)
C41 C 0.7250(5) 0.2601(8) 0.7354(2)
C42 C 0.6979(5) 0.4021(7) 0.6954(2)
H66 H 0.7619 0.4795 0.6986
H67 H 0.6305 0.4601 0.7064
C43 C 0.6756(4) 0.3465(7) 0.6347(2)
H68 H 0.6624 0.4436 0.6106
H69 H 0.6058 0.2804 0.6308
O5 O 1.0285(4) 0.7098(5) 0.87270(19)
O6 O 1.2728(3) 0.4102(5) 0.96235(17)
O7 O 1.2442(3) 0.0532(5) 0.95447(18)
O8 O 1.0101(3) -0.0518(4) 0.95165(16)
O9 O 0.9880(3) 0.3609(4) 0.88829(12)
O10 O 0.8488(2) 0.1634(4) 0.89280(13)
O11 O 0.4888(3) 0.2730(5) 0.97379(15)
O12 O 0.7373(3) 0.2311(4) 0.99466(12)
O13 O 0.5846(3) 0.3697(5) 0.83478(13)
O14 O 0.7500(3) 0.3217(4) 0.79354(13)
O15 O 0.6262(4) 0.2784(6) 0.19404(18)
O16 O 0.6530(3) 0.1960(5) 0.31318(13)
O17 O 0.6050(4) 0.3306(6) 0.41326(17)
H70 H 0.997(9) 0.643(11) 0.896(3)
C1 C 0.5015(13) 0.2674(18) 1.0510(7)
O3 O 0.5518(4) 0.3998(6) 1.08150(17)
C2 C 0.2076(11) 0.1689(16) 0.1615(6)
O4 O 0.1286(9) 0.1153(11) 0.2044(5)
O1 O 0.3849(9) 0.2027(13) 0.1869(5)
O2 O 0.2628(9) 0.2973(14) 0.1034(5)
H1? H 0.884(19) 0.22(3) 0.984(13)
H5? H 0.529(3) 0.304(5) 1.0041(13)
loop_
_geom_bond_atom_site_label_1
_geom_bond_atom_site_label_2
_geom_bond_site_symmetry_1
_geom_bond_site_symmetry_2
H2 O6 1_555 1_555
H3 O7 1_555 1_555
H4 O8 1_555 1_555
H6 O15 1_555 1_555
H7 O17 1_555 1_555
H8 C4 1_555 1_555
H9 C5 1_555 1_555
H10 C6 1_555 1_555
H11 C7 1_555 1_555
H12 C8 1_555 1_555
H13 C10 1_555 1_555
H14 C11 1_555 1_555
H15 C12 1_555 1_555
H16 C13 1_555 1_555
H17 C20 1_555 1_555
H18 C27 1_555 1_555
H19 C31 1_555 1_555
H20 C32 1_555 1_555
H21 C35 1_555 1_555
H22 C39 1_555 1_555
H23 C41 1_555 1_555
C1 O3 1_555 1_555
C2 O4 1_555 1_555
C3 H24 1_555 1_555
H25 C3 1_555 1_555
C4 C3 1_555 1_555
C5 C4 1_555 1_555
C6 C5 1_555 1_555
C7 C6 1_555 1_555
C8 C7 1_555 1_555
C9 H26 1_555 1_555
H27 C9 1_555 1_555
C10 C9 1_555 1_555
C11 C10 1_555 1_555
C12 C11 1_555 1_555
C13 C12 1_555 1_555
C14 H28 1_555 1_555
H29 C14 1_555 1_555
H30 C14 1_555 1_555
C15 H31 1_555 1_555
H32 C15 1_555 1_555
H33 C15 1_555 1_555
C16 H34 1_555 1_555
H35 C16 1_555 1_555
H36 C16 1_555 1_555
C17 H37 1_555 1_555
H38 C17 1_555 1_555
H39 C17 1_555 1_555
C18 H40 1_555 1_555
H41 C18 1_555 1_555
H42 C18 1_555 1_555
C19 C17 1_555 1_555
C20 C19 1_555 1_555
C21 C20 1_555 1_555
H43 C21 1_555 1_555
H44 C21 1_555 1_555
C22 C21 1_555 1_555
H45 C22 1_555 1_555
H46 C22 1_555 1_555
C23 H47 1_555 1_555
H48 C23 1_555 1_555
H49 C23 1_555 1_555
C24 C22 1_555 1_555
C25 H50 1_555 1_555
H51 C25 1_555 1_555
H52 C25 1_555 1_555
H53 C26 1_555 1_555
H54 C26 1_555 1_555
H55 C26 1_555 1_555
C26 C36 1_555 1_555
C27 C24 1_555 1_555
C28 C27 1_555 1_555
H56 C28 1_555 1_555
H57 C28 1_555 1_555
C29 C28 1_555 1_555
H58 C29 1_555 1_555
H59 C29 1_555 1_555
C30 C14 1_555 1_555
C31 C27 1_555 1_555
C32 C31 1_555 1_555
C33 C32 1_555 1_555
H60 C33 1_555 1_555
H61 C33 1_555 1_555
C34 C25 1_555 1_555
C35 C33 1_555 1_555
C36 C30 1_555 1_555
C37 C36 1_555 1_555
H62 C37 1_555 1_555
H63 C37 1_555 1_555
C38 C37 1_555 1_555
H64 C38 1_555 1_555
H65 C38 1_555 1_555
C39 C34 1_555 1_555
C40 C15 1_555 1_555
C41 C40 1_555 1_555
C42 C41 1_555 1_555
H66 C42 1_555 1_555
H67 C42 1_555 1_555
C43 C34 1_555 1_555
H68 C43 1_555 1_555
H69 C43 1_555 1_555
O5 C3 1_555 1_555
O6 C5 1_555 1_555
O7 C6 1_555 1_555
O8 C7 1_555 1_555
O9 C4 1_555 1_555
O10 C8 1_555 1_555
O11 C10 1_555 1_555
O12 C11 1_555 1_555
O13 C9 1_555 1_555
O14 C13 1_555 1_555
O15 C19 1_555 1_555
O16 C20 1_555 1_555
O17 C32 1_555 1_555
H70 O5 1_555 1_555
C8 O9 1_555 1_555
C12 O10 1_555 1_555
C13 O13 1_555 1_555
C16 C40 1_555 1_555
C18 C19 1_555 1_555
C23 C24 1_555 1_555
C24 O16 1_555 1_555
C29 C30 1_555 1_555
C30 C31 1_555 1_555
C34 C35 1_555 1_555
C35 C36 1_555 1_555
C38 C39 1_555 1_555
C39 C40 1_555 1_555
C41 O14 1_555 1_555
C42 C43 1_555 1_555

#END
