
#######################################################################
#
#                 Cambridge Crystallographic Data Centre
#                                CCDC 
#
#######################################################################
#
# If this CIF has been generated from an entry in the Cambridge 
# Structural Database, then it will include bibliographic, chemical, 
# crystal, experimental, refinement or atomic coordinate data resulting 
# from the CCDC's data processing and validation procedures.
#
#######################################################################

data_PADWEZ
_chemical_formula_moiety         'C31 H23 Br1 Cl2 I1 N1 O5 S2'
_chemical_name_systematic        
3-(((4-bromophenyl)sulfonyl)methyl)-6-chloro-1-((4-chlorophenyl)sulfonyl)-4-(iodo(4-methylphenyl)methylene)-3-methyl-3,4-dihydroquinolin-2(1H)-one
_symmetry_cell_setting           monoclinic
_symmetry_space_group_name_H-M   'P 21/c'
_symmetry_Int_Tables_number      14
_space_group_name_Hall           '-P 2ybc'
loop_
_symmetry_equiv_pos_site_id
_symmetry_equiv_pos_as_xyz
1 x,y,z
2 -x,1/2+y,1/2-z
3 -x,-y,-z
4 x,1/2-y,1/2+z
_cell_length_a                   11.1901(9)
_cell_length_b                   36.490(3)
_cell_length_c                   8.1940(7)
_cell_angle_alpha                90
_cell_angle_beta                 96.076(2)
_cell_angle_gamma                90
_cell_volume                     3327.03
_exptl_crystal_colour            white
_exptl_crystal_description       block
_cell_formula_units_Z            4
loop_
_atom_site_label
_atom_site_type_symbol
_atom_site_fract_x
_atom_site_fract_y
_atom_site_fract_z
I1 I 0.56895(11) 0.09618(3) 0.27464(12)
Br1 Br 0.9411(3) 0.18586(9) 1.4806(4)
Cl1 Cl 0.9394(4) 0.09821(14) 0.7612(7)
Cl2 Cl 0.0354(7) 0.0447(3) 0.1250(8)
N1 N 0.4206(11) 0.0710(3) 0.7957(13)
O1 O 0.2383(10) 0.0985(3) 0.7965(13)
O2 O 0.4529(9) 0.0030(3) 0.7651(13)
O3 O 0.2870(10) 0.0237(3) 0.9187(12)
O4 O 0.6163(11) 0.1911(3) 0.6970(13)
O5 O 0.4807(11) 0.2259(3) 0.8588(13)
S1 S 0.3566(4) 0.02798(9) 0.7844(4)
S2 S 0.5574(4) 0.19469(9) 0.8437(5)
C1 C 0.3444(14) 0.1015(4) 0.7772(17)
C2 C 0.4004(13) 0.1371(3) 0.7198(15)
C3 C 0.4841(13) 0.1239(4) 0.5877(16)
C4 C 0.5796(13) 0.1008(3) 0.6727(15)
C5 C 0.5454(13) 0.0747(4) 0.7751(16)
C6 C 0.6331(14) 0.0545(4) 0.8768(17)
H1 H 0.6091 0.0369 0.9485
C7 C 0.7540(15) 0.0612(4) 0.8687(18)
H2 H 0.8121 0.0475 0.9309
C8 C 0.7865(14) 0.0885(4) 0.7675(19)
C9 C 0.7026(14) 0.1085(4) 0.6662(17)
H3 H 0.7269 0.1265 0.5964
C10 C 0.2612(14) 0.0301(4) 0.6004(18)
C11 C 0.3134(16) 0.0270(4) 0.4554(18)
H4 H 0.3956 0.0227 0.4583
C12 C 0.2442(17) 0.0303(5) 0.306(2)
H5 H 0.2777 0.0279 0.2077
C13 C 0.1228(18) 0.0374(5) 0.309(2)
C14 C 0.0671(18) 0.0395(5) 0.455(2)
H6 H -0.0153 0.0431 0.4528
C15 C 0.1397(15) 0.0361(4) 0.605(2)
H7 H 0.1070 0.0378 0.7046
C16 C 0.4745(13) 0.1530(3) 0.8771(16)
H8 H 0.5309 0.1344 0.9216
H9 H 0.4198 0.1579 0.9589
C17 C 0.6668(15) 0.1939(4) 1.0153(19)
C18 C 0.6451(17) 0.2120(5) 1.156(2)
H10 H 0.5753 0.2257 1.1584
C19 C 0.729(2) 0.2097(5) 1.297(2)
H11 H 0.7149 0.2218 1.3934
C20 C 0.8301(19) 0.1899(5) 1.292(2)
C21 C 0.8476(18) 0.1700(5) 1.151(2)
H12 H 0.9138 0.1546 1.1518
C22 C 0.7698(17) 0.1726(5) 1.011(2)
H13 H 0.7851 0.1605 0.9154
C23 C 0.2966(13) 0.1637(4) 0.6608(17)
H14 H 0.2487 0.1531 0.5686
H15 H 0.3294 0.1866 0.6290
H16 H 0.2475 0.1677 0.7483
C24 C 0.4607(13) 0.1282(4) 0.4251(16)
C25 C 0.3734(13) 0.1499(4) 0.3224(15)
C26 C 0.3869(14) 0.1881(4) 0.3173(17)
H17 H 0.4500 0.1995 0.3809
C27 C 0.3043(14) 0.2089(4) 0.2151(17)
H18 H 0.3130 0.2342 0.2149
C28 C 0.2104(14) 0.1934(4) 0.1144(18)
C29 C 0.1997(14) 0.1549(4) 0.1212(18)
H19 H 0.1370 0.1435 0.0569
C30 C 0.2798(14) 0.1336(4) 0.2209(17)
H20 H 0.2713 0.1082 0.2203
C31 C 0.1227(18) 0.2162(5) 0.005(2)
H21 H 0.0811 0.2326 0.0716
H22 H 0.0658 0.2004 -0.0557
H23 H 0.1654 0.2301 -0.0692
loop_
_geom_bond_atom_site_label_1
_geom_bond_atom_site_label_2
_geom_bond_site_symmetry_1
_geom_bond_site_symmetry_2
I1 C24 1_555 1_555
Br1 C20 1_555 1_555
Cl1 C8 1_555 1_555
Cl2 C13 1_555 1_555
N1 S1 1_555 1_555
O1 C1 1_555 1_555
O2 S1 1_555 1_555
O3 S1 1_555 1_555
O4 S2 1_555 1_555
O5 S2 1_555 1_555
S1 C10 1_555 1_555
S2 C16 1_555 1_555
C1 N1 1_555 1_555
C2 C1 1_555 1_555
C3 C2 1_555 1_555
C4 C3 1_555 1_555
C5 N1 1_555 1_555
C6 C5 1_555 1_555
H1 C6 1_555 1_555
C7 C6 1_555 1_555
H2 C7 1_555 1_555
C8 C7 1_555 1_555
C9 C4 1_555 1_555
H3 C9 1_555 1_555
C10 C11 1_555 1_555
C11 H4 1_555 1_555
C12 C11 1_555 1_555
H5 C12 1_555 1_555
C13 C12 1_555 1_555
C14 C13 1_555 1_555
H6 C14 1_555 1_555
C15 C10 1_555 1_555
H7 C15 1_555 1_555
C16 C2 1_555 1_555
H8 C16 1_555 1_555
H9 C16 1_555 1_555
C17 S2 1_555 1_555
C18 C17 1_555 1_555
H10 C18 1_555 1_555
C19 C18 1_555 1_555
H11 C19 1_555 1_555
C20 C19 1_555 1_555
C21 C20 1_555 1_555
H12 C21 1_555 1_555
C22 C17 1_555 1_555
H13 C22 1_555 1_555
C23 C2 1_555 1_555
H14 C23 1_555 1_555
H15 C23 1_555 1_555
H16 C23 1_555 1_555
C24 C3 1_555 1_555
C25 C24 1_555 1_555
C26 C25 1_555 1_555
H17 C26 1_555 1_555
C27 C26 1_555 1_555
H18 C27 1_555 1_555
C28 C27 1_555 1_555
C29 C28 1_555 1_555
H19 C29 1_555 1_555
C30 C25 1_555 1_555
H20 C30 1_555 1_555
C31 C28 1_555 1_555
H21 C31 1_555 1_555
H22 C31 1_555 1_555
H23 C31 1_555 1_555
C4 C5 1_555 1_555
C8 C9 1_555 1_555
C14 C15 1_555 1_555
C21 C22 1_555 1_555
C29 C30 1_555 1_555

#END
