
#######################################################################
#
#                 Cambridge Crystallographic Data Centre
#                                CCDC 
#
#######################################################################
#
# If this CIF has been generated from an entry in the Cambridge 
# Structural Database, then it will include bibliographic, chemical, 
# crystal, experimental, refinement or atomic coordinate data resulting 
# from the CCDC's data processing and validation procedures.
#
#######################################################################

data_PAFHUC
_chemical_formula_moiety         'C17 H14 N4 O5 S1'
_chemical_name_systematic        
3-azido-3'-((4-methylphenyl)sulfonyl)-2'H,3H-spiro[1-benzofuran-2,4'-[1,3]oxazolidin]-2'-one
_symmetry_cell_setting           monoclinic
_symmetry_space_group_name_H-M   'P 21'
_symmetry_Int_Tables_number      4
_space_group_name_Hall           'P 2yb'
loop_
_symmetry_equiv_pos_site_id
_symmetry_equiv_pos_as_xyz
1 x,y,z
2 -x,1/2+y,-z
_cell_length_a                   8.3457(17)
_cell_length_b                   10.924(2)
_cell_length_c                   9.879(2)
_cell_angle_alpha                90
_cell_angle_beta                 109.46(3)
_cell_angle_gamma                90
_cell_volume                     849.202
_exptl_crystal_colour            colorless
_exptl_crystal_description       block
_cell_formula_units_Z            2
loop_
_atom_site_label
_atom_site_type_symbol
_atom_site_fract_x
_atom_site_fract_y
_atom_site_fract_z
S1 S 0.09322(8) 0.30563(7) 0.34119(7)
O1 O -0.3031(3) 0.3622(2) 0.1885(2)
O2 O -0.1487(3) 0.60285(19) 0.3367(2)
O3 O 0.1245(3) 0.5815(2) 0.3540(2)
O4 O 0.2529(3) 0.3287(3) 0.4479(2)
O5 O 0.0050(3) 0.1938(2) 0.3392(3)
N1 N -0.0416(3) 0.4132(2) 0.3651(2)
N2 N -0.3506(3) 0.3522(2) 0.5240(3)
N3 N -0.3877(3) 0.2829(2) 0.6077(2)
N4 N -0.4271(4) 0.2315(3) 0.6900(3)
C1 C -0.4010(4) 0.2589(3) 0.1818(3)
C2 C -0.5035(4) 0.2076(3) 0.0547(3)
H1 H -0.5086 0.2393 -0.0340
C3 C -0.5989(5) 0.1059(3) 0.0663(4)
H2 H -0.6713 0.0695 -0.0167
C4 C -0.5883(5) 0.0580(3) 0.1980(4)
H3 H -0.6537 -0.0099 0.2024
C5 C -0.4809(4) 0.1098(3) 0.3252(4)
H4 H -0.4716 0.0764 0.4141
C6 C -0.3882(4) 0.2130(3) 0.3145(3)
C7 C -0.2700(3) 0.2920(3) 0.4275(3)
H5 H -0.1688 0.2459 0.4834
C8 C -0.2224(3) 0.3947(3) 0.3378(3)
C9 C -0.2733(4) 0.5249(3) 0.3634(4)
H6 H -0.3862 0.5441 0.2984
H7 H -0.2722 0.5344 0.4614
C10 C -0.0075(4) 0.5377(3) 0.3527(3)
C11 C 0.1059(3) 0.3354(2) 0.1710(3)
C12 C 0.2253(4) 0.4181(3) 0.1567(3)
H8 H 0.3003 0.4562 0.2371
C13 C 0.2313(4) 0.4430(3) 0.0216(3)
H9 H 0.3098 0.4994 0.0113
C14 C 0.1220(4) 0.3852(3) -0.0996(3)
C15 C 0.0052(4) 0.3010(4) -0.0819(3)
H10 H -0.0671 0.2607 -0.1619
C16 C -0.0056(4) 0.2761(3) 0.0520(3)
H11 H -0.0856 0.2209 0.0624
C17 C 0.1333(6) 0.4098(4) -0.2466(4)
H12 H 0.2152 0.4732 -0.2400
H13 H 0.0242 0.4353 -0.3104
H14 H 0.1676 0.3364 -0.2830
loop_
_geom_bond_atom_site_label_1
_geom_bond_atom_site_label_2
_geom_bond_site_symmetry_1
_geom_bond_site_symmetry_2
S1 O4 1_555 1_555
O1 C1 1_555 1_555
O2 C9 1_555 1_555
O3 C10 1_555 1_555
O5 S1 1_555 1_555
N1 S1 1_555 1_555
N2 N3 1_555 1_555
N3 N4 1_555 1_555
C1 C2 1_555 1_555
C2 H1 1_555 1_555
C3 C2 1_555 1_555
H2 C3 1_555 1_555
C4 C3 1_555 1_555
H3 C4 1_555 1_555
C5 C4 1_555 1_555
H4 C5 1_555 1_555
C6 C1 1_555 1_555
C7 N2 1_555 1_555
H5 C7 1_555 1_555
C8 O1 1_555 1_555
C9 C8 1_555 1_555
H6 C9 1_555 1_555
H7 C9 1_555 1_555
C10 O2 1_555 1_555
C11 S1 1_555 1_555
C12 C11 1_555 1_555
H8 C12 1_555 1_555
C13 C12 1_555 1_555
H9 C13 1_555 1_555
C14 C13 1_555 1_555
C15 C14 1_555 1_555
H10 C15 1_555 1_555
C16 C11 1_555 1_555
H11 C16 1_555 1_555
C17 C14 1_555 1_555
H12 C17 1_555 1_555
H13 C17 1_555 1_555
H14 C17 1_555 1_555
N1 C8 1_555 1_555
N1 C10 1_555 1_555
C5 C6 1_555 1_555
C6 C7 1_555 1_555
C7 C8 1_555 1_555
C15 C16 1_555 1_555

#END
