
#######################################################################
#
#                 Cambridge Crystallographic Data Centre
#                                CCDC 
#
#######################################################################
#
# If this CIF has been generated from an entry in the Cambridge 
# Structural Database, then it will include bibliographic, chemical, 
# crystal, experimental, refinement or atomic coordinate data resulting 
# from the CCDC's data processing and validation procedures.
#
#######################################################################

data_PAFJIS
_chemical_formula_moiety         'C24 H21 N1 O6 S1'
_chemical_name_systematic        
3-(4-methoxyphenyl)-3'-((4-methylphenyl)sulfonyl)-2'H,3H-spiro[1-benzofuran-2,4'-[1,3]oxazolidin]-2'-one
_symmetry_cell_setting           orthorhombic
_symmetry_space_group_name_H-M   'P 21 21 21'
_symmetry_Int_Tables_number      19
_space_group_name_Hall           'P 2ac 2ab'
loop_
_symmetry_equiv_pos_site_id
_symmetry_equiv_pos_as_xyz
1 x,y,z
2 1/2-x,-y,1/2+z
3 -x,1/2+y,1/2-z
4 1/2+x,1/2-y,-z
_cell_length_a                   7.7963(6)
_cell_length_b                   11.5859(7)
_cell_length_c                   23.0860(17)
_cell_angle_alpha                90
_cell_angle_beta                 90
_cell_angle_gamma                90
_cell_volume                     2085.29
_exptl_crystal_colour            colorless
_exptl_crystal_description       plate
_cell_formula_units_Z            4
loop_
_atom_site_label
_atom_site_type_symbol
_atom_site_fract_x
_atom_site_fract_y
_atom_site_fract_z
S1 S 0.30935(10) 0.60139(6) 0.51886(3)
O1 O 0.2009(3) 0.63143(16) 0.65905(8)
O2 O -0.1301(3) 0.62124(17) 0.59162(10)
O3 O -0.0498(3) 0.50330(19) 0.51993(10)
O4 O 0.2473(3) 0.58569(18) 0.46142(9)
O5 O 0.4364(3) 0.68625(18) 0.53106(10)
O6 O -0.0449(3) 1.24373(17) 0.68827(9)
N1 N 0.1380(3) 0.64015(19) 0.55884(10)
C1 C 0.1368(4) 0.7058(2) 0.61341(11)
C2 C 0.2456(4) 0.8188(2) 0.61491(11)
H1 H 0.2979 0.8311 0.5768
C3 C 0.3842(4) 0.7872(2) 0.65789(12)
C4 C 0.5281(4) 0.8467(3) 0.67615(13)
H2 H 0.5555 0.9179 0.6600
C5 C 0.6310(4) 0.7988(3) 0.71887(14)
H3 H 0.7273 0.8384 0.7318
C6 C 0.5909(4) 0.6922(4) 0.74231(14)
H4 H 0.6613 0.6611 0.7708
C7 C 0.4473(4) 0.6304(3) 0.72407(13)
H5 H 0.4203 0.5586 0.7396
C8 C 0.3472(4) 0.6812(3) 0.68174(12)
C9 C 0.1507(4) 0.9274(2) 0.63280(11)
C10 C 0.0870(4) 0.9440(2) 0.68907(12)
H6 H 0.0918 0.8836 0.7156
C11 C 0.0173(4) 1.0485(2) 0.70577(12)
H7 H -0.0272 1.0575 0.7429
C12 C 0.0138(4) 1.1404(2) 0.66698(12)
C13 C 0.0698(4) 1.1243(2) 0.61053(12)
H8 H 0.0629 1.1843 0.5839
C14 C 0.1364(4) 1.0177(2) 0.59402(12)
H9 H 0.1722 1.0070 0.5560
C15 C -0.0116(5) 1.3435(3) 0.65333(16)
H10 H -0.0739 1.3374 0.6176
H11 H 0.1090 1.3483 0.6453
H12 H -0.0477 1.4115 0.6737
C16 C -0.0555(4) 0.7188(3) 0.62134(13)
H13 H -0.0854 0.7177 0.6621
H14 H -0.0954 0.7907 0.6046
C17 C -0.0183(4) 0.5803(2) 0.55290(13)
C18 C 0.3787(4) 0.4682(2) 0.54604(13)
C19 C 0.4857(4) 0.4652(3) 0.59417(15)
H15 H 0.5211 0.5334 0.6118
C20 C 0.5390(4) 0.3592(3) 0.61547(14)
H16 H 0.6070 0.3565 0.6485
C21 C 0.4923(4) 0.2571(3) 0.58815(13)
C22 C 0.3897(4) 0.2625(3) 0.53943(13)
H17 H 0.3602 0.1947 0.5203
C23 C 0.3298(4) 0.3672(2) 0.51848(12)
H18 H 0.2579 0.3696 0.4864
C24 C 0.5496(5) 0.1419(3) 0.61209(14)
H19 H 0.6610 0.1499 0.6293
H20 H 0.5549 0.0864 0.5813
H21 H 0.4693 0.1162 0.6409
loop_
_geom_bond_atom_site_label_1
_geom_bond_atom_site_label_2
_geom_bond_site_symmetry_1
_geom_bond_site_symmetry_2
S1 O4 1_555 1_555
O1 C1 1_555 1_555
O2 C16 1_555 1_555
O3 C17 1_555 1_555
O5 S1 1_555 1_555
O6 C12 1_555 1_555
N1 S1 1_555 1_555
C1 N1 1_555 1_555
C2 C1 1_555 1_555
H1 C2 1_555 1_555
C3 C2 1_555 1_555
C4 C3 1_555 1_555
H2 C4 1_555 1_555
C5 C4 1_555 1_555
H3 C5 1_555 1_555
C6 C5 1_555 1_555
H4 C6 1_555 1_555
C7 C6 1_555 1_555
H5 C7 1_555 1_555
C8 O1 1_555 1_555
C9 C2 1_555 1_555
C10 C9 1_555 1_555
H6 C10 1_555 1_555
C11 C10 1_555 1_555
H7 C11 1_555 1_555
C12 C11 1_555 1_555
C13 C12 1_555 1_555
H8 C13 1_555 1_555
C14 C9 1_555 1_555
H9 C14 1_555 1_555
C15 O6 1_555 1_555
H10 C15 1_555 1_555
H11 C15 1_555 1_555
H12 C15 1_555 1_555
C16 C1 1_555 1_555
H13 C16 1_555 1_555
H14 C16 1_555 1_555
C17 O2 1_555 1_555
C18 S1 1_555 1_555
C19 C18 1_555 1_555
H15 C19 1_555 1_555
C20 C19 1_555 1_555
H16 C20 1_555 1_555
C21 C20 1_555 1_555
C22 C21 1_555 1_555
H17 C22 1_555 1_555
C23 C18 1_555 1_555
H18 C23 1_555 1_555
C24 C21 1_555 1_555
H19 C24 1_555 1_555
H20 C24 1_555 1_555
H21 C24 1_555 1_555
N1 C17 1_555 1_555
C3 C8 1_555 1_555
C7 C8 1_555 1_555
C13 C14 1_555 1_555
C22 C23 1_555 1_555

#END
