
#######################################################################
#
#                 Cambridge Crystallographic Data Centre
#                                CCDC 
#
#######################################################################
#
# If this CIF has been generated from an entry in the Cambridge 
# Structural Database, then it will include bibliographic, chemical, 
# crystal, experimental, refinement or atomic coordinate data resulting 
# from the CCDC's data processing and validation procedures.
#
#######################################################################

data_PAFJAI
_chemical_formula_moiety         'C23 H30 O3 Si1'
_chemical_name_systematic        
'2-(Diphenyl(t-butyl)siloxymethyl)cyclopentanecarboxylic acid'
_symmetry_cell_setting           monoclinic
_symmetry_space_group_name_H-M   'P 21'
_symmetry_Int_Tables_number      4
_space_group_name_Hall           'P 2yb'
loop_
_symmetry_equiv_pos_site_id
_symmetry_equiv_pos_as_xyz
1 x,y,z
2 -x,1/2+y,-z
_cell_length_a                   10.9922(9)
_cell_length_b                   33.634(3)
_cell_length_c                   11.5917(10)
_cell_angle_alpha                90.00
_cell_angle_beta                 90.000(2)
_cell_angle_gamma                90.00
_cell_volume                     4285.59
_exptl_crystal_colour            colorless
_cell_formula_units_Z            8
loop_
_atom_site_label
_atom_site_type_symbol
_atom_site_fract_x
_atom_site_fract_y
_atom_site_fract_z
Si1 Si 0.63895(18) 0.88644(6) 0.36143(16)
O1 O 0.7506(5) 0.85415(15) 0.3548(4)
O2 O 0.7605(6) 0.78676(19) 0.1315(5)
O3 O 0.7579(5) 0.74848(19) 0.2880(5)
C1 C 0.8761(7) 0.8636(3) 0.3422(7)
H1 H 0.9191 0.8586 0.4159
H2 H 0.8852 0.8921 0.3229
C2 C 0.9317(6) 0.8385(2) 0.2481(7)
H3 H 0.8946 0.8456 0.1721
C3 C 1.0731(7) 0.8439(3) 0.2425(9)
H4 H 1.0942 0.8690 0.2025
H5 H 1.1083 0.8445 0.3210
C4 C 1.1191(9) 0.8094(4) 0.1775(12)
H6 H 1.1996 0.8010 0.2071
H7 H 1.1268 0.8157 0.0944
C5 C 1.0258(9) 0.7775(4) 0.1965(12)
H8 H 1.0635 0.7547 0.2370
H9 H 0.9947 0.7680 0.1212
C6 C 0.9191(7) 0.7942(2) 0.2696(7)
H10 H 0.9321 0.7881 0.3531
C7 C 0.8034(8) 0.7753(3) 0.2278(7)
C8 C 0.4972(7) 0.8557(2) 0.3756(6)
C9 C 0.3841(8) 0.8827(4) 0.3704(16)
H11 H 0.3105 0.8664 0.3753
H12 H 0.3841 0.8975 0.2975
H13 H 0.3859 0.9015 0.4351
C10 C 0.4904(10) 0.8239(4) 0.2805(8)
H14 H 0.4167 0.8079 0.2909
H15 H 0.5621 0.8066 0.2852
H16 H 0.4882 0.8368 0.2048
C11 C 0.5031(11) 0.8340(4) 0.4900(8)
H17 H 0.4315 0.8168 0.4980
H18 H 0.5044 0.8534 0.5531
H19 H 0.5770 0.8177 0.4928
C45 C 0.6388(5) 0.91617(14) 0.2218(3)
C46 C 0.6688(5) 0.89644(13) 0.1199(4)
H76 H 0.6954 0.8693 0.1223
C47 C 0.6602(5) 0.91619(18) 0.0144(3)
H77 H 0.6809 0.9026 -0.0558
C48 C 0.6216(6) 0.95569(18) 0.0108(3)
H78 H 0.6156 0.9693 -0.0618
C49 C 0.5915(6) 0.97541(13) 0.1128(5)
H79 H 0.5649 1.0026 0.1103
C50 C 0.6001(6) 0.95566(15) 0.2183(3)
H80 H 0.5794 0.9692 0.2884
C51 C 0.6631(5) 0.91975(15) 0.4929(4)
C52 C 0.5852(5) 0.95156(17) 0.5154(5)
H81 H 0.5169 0.9564 0.4659
C53 C 0.6066(6) 0.97626(17) 0.6099(5)
H82 H 0.5530 0.9982 0.6254
C54 C 0.7060(6) 0.96916(18) 0.6819(4)
H83 H 0.7207 0.9862 0.7469
C55 C 0.7839(5) 0.9374(2) 0.6594(4)
H84 H 0.8523 0.9325 0.7090
C56 C 0.7624(4) 0.91265(16) 0.5649(4)
H85 H 0.8160 0.8907 0.5494
Si2 Si 0.17371(18) 0.88130(6) -0.14470(17)
O4 O 0.0802(5) 0.84309(17) -0.1423(4)
O5 O 0.0743(6) 0.79215(18) -0.4472(5)
O6 O 0.0699(5) 0.75160(19) -0.2951(5)
C12 C -0.0477(8) 0.8433(3) -0.1318(7)
H20 H -0.0817 0.8664 -0.1737
H21 H -0.0706 0.8457 -0.0495
C13 C -0.1007(7) 0.8047(3) -0.1818(7)
H22 H -0.0626 0.7812 -0.1434
C14 C -0.2389(9) 0.8038(4) -0.1645(9)
H23 H -0.2598 0.7857 -0.1001
H24 H -0.2686 0.8308 -0.1448
C15 C -0.2928(10) 0.7911(6) -0.2629(10)
H25 H -0.3477 0.8121 -0.2924
H26 H -0.3426 0.7672 -0.2460
C16 C -0.2007(9) 0.7811(4) -0.3532(9)
H27 H -0.2255 0.7914 -0.4296
H28 H -0.1885 0.7520 -0.3589
C17 C -0.0835(7) 0.8021(2) -0.3094(7)
H29 H -0.0831 0.8298 -0.3409
C18 C 0.0258(7) 0.7818(2) -0.3513(7)
C19 C 0.3307(7) 0.8576(3) -0.1561(7)
C20 C 0.4248(9) 0.8889(3) -0.1927(8)
H30 H 0.5053 0.8765 -0.1978
H31 H 0.4269 0.9104 -0.1355
H32 H 0.4023 0.8999 -0.2681
C21 C 0.3259(9) 0.8252(3) -0.2456(8)
H33 H 0.4059 0.8126 -0.2516
H34 H 0.3035 0.8367 -0.3203
H35 H 0.2652 0.8054 -0.2230
C22 C 0.3682(10) 0.8395(3) -0.0385(8)
H36 H 0.4486 0.8272 -0.0456
H37 H 0.3086 0.8193 -0.0156
H38 H 0.3710 0.8605 0.0200
C69 C 0.1415(5) 0.91335(13) -0.2762(3)
C70 C 0.1232(5) 0.89532(11) -0.3832(4)
H96 H 0.1193 0.8669 -0.3888
C71 C 0.1104(5) 0.91863(15) -0.4820(3)
H97 H 0.0978 0.9062 -0.5556
C72 C 0.1160(6) 0.95997(14) -0.4738(4)
H98 H 0.1072 0.9760 -0.5418
C73 C 0.1344(6) 0.97800(11) -0.3668(4)
H99 H 0.1382 1.0065 -0.3612
C74 C 0.1471(6) 0.95469(14) -0.2680(3)
H100 H 0.1597 0.9671 -0.1944
C75 C 0.1462(4) 0.91481(15) -0.0125(4)
C76 C 0.2422(4) 0.92919(18) 0.0542(4)
H101 H 0.3243 0.9217 0.0361
C77 C 0.2190(5) 0.95439(18) 0.1472(4)
H102 H 0.2851 0.9643 0.1931
C78 C 0.0996(6) 0.96523(17) 0.1735(4)
H103 H 0.0837 0.9826 0.2375
C79 C 0.0036(4) 0.95085(18) 0.1068(5)
H104 H -0.0785 0.9583 0.1249
C80 C 0.0268(4) 0.92565(16) 0.0138(4)
H105 H -0.0393 0.9158 -0.0321
Si3 Si 0.13909(18) 0.61582(6) -0.61527(15)
O7 O 0.2519(5) 0.64870(17) -0.6126(4)
O8 O 0.2586(5) 0.75345(18) -0.5373(5)
O9 O 0.2659(6) 0.71598(19) -0.3802(5)
C23 C 0.3744(7) 0.6386(3) -0.6007(7)
H39 H 0.4181 0.6443 -0.6735
H40 H 0.3817 0.6098 -0.5845
C24 C 0.4325(7) 0.6627(2) -0.5006(7)
H41 H 0.3950 0.6553 -0.4250
C25 C 0.5703(8) 0.6553(3) -0.4989(10)
H42 H 0.5905 0.6306 -0.4562
H43 H 0.6038 0.6535 -0.5780
C26 C 0.6163(10) 0.6913(3) -0.4373(13)
H44 H 0.6257 0.6851 -0.3543
H45 H 0.6974 0.6984 -0.4681
C27 C 0.5346(7) 0.7251(3) -0.4502(12)
H46 H 0.5743 0.7469 -0.4934
H47 H 0.5079 0.7352 -0.3741
C28 C 0.4225(7) 0.7071(2) -0.5212(8)
H48 H 0.4320 0.7131 -0.6052
C29 C 0.3064(6) 0.7253(2) -0.4762(7)
C30 C -0.0043(7) 0.6468(3) -0.6182(6)
C31 C -0.1151(10) 0.6227(4) -0.5999(19)
H49 H -0.1868 0.6399 -0.6028
H50 H -0.1108 0.6096 -0.5244
H51 H -0.1210 0.6024 -0.6605
C32 C -0.0007(10) 0.6788(3) -0.5242(9)
H52 H -0.0754 0.6947 -0.5275
H53 H 0.0698 0.6962 -0.5367
H54 H 0.0058 0.6662 -0.4483
C33 C -0.0136(15) 0.6673(4) -0.7322(9)
H55 H -0.0880 0.6834 -0.7342
H56 H -0.0163 0.6475 -0.7941
H57 H 0.0572 0.6846 -0.7431
C81 C 0.1520(5) 0.58329(16) -0.7480(4)
C82 C 0.0598(4) 0.55647(18) -0.7762(5)
H106 H -0.0103 0.5541 -0.7273
C83 C 0.0696(5) 0.53315(16) -0.8752(5)
H107 H 0.0062 0.5147 -0.8946
C84 C 0.1716(6) 0.53665(18) -0.9462(4)
H108 H 0.1783 0.5206 -1.0143
C85 C 0.2637(5) 0.5635(2) -0.9180(4)
H109 H 0.3339 0.5659 -0.9669
C86 C 0.2539(5) 0.58679(17) -0.8190(5)
H110 H 0.3173 0.6053 -0.7996
C87 C 0.1520(5) 0.58340(13) -0.4817(3)
C88 C 0.1678(6) 0.60152(12) -0.3745(4)
H111 H 0.1723 0.6300 -0.3691
C89 C 0.1770(6) 0.57831(18) -0.2751(3)
H112 H 0.1879 0.5908 -0.2014
C90 C 0.1705(7) 0.53697(17) -0.2830(4)
H113 H 0.1768 0.5210 -0.2146
C91 C 0.1547(7) 0.51886(12) -0.3902(5)
H114 H 0.1501 0.4904 -0.3956
C92 C 0.1454(6) 0.54208(14) -0.4896(4)
H115 H 0.1345 0.5296 -0.5634
Si4 Si 0.6773(2) 0.62132(7) -0.10310(17)
O10 O 0.5816(5) 0.65856(18) -0.1035(5)
O11 O 0.5728(5) 0.70914(19) 0.1983(5)
O12 O 0.5631(6) 0.75044(19) 0.0476(5)
C34 C 0.4528(9) 0.6581(3) -0.1158(8)
H58 H 0.4191 0.6346 -0.0756
H59 H 0.4314 0.6560 -0.1985
C35 C 0.3986(7) 0.6951(3) -0.0663(8)
H60 H 0.4332 0.7189 -0.1060
C36 C 0.2577(8) 0.6940(4) -0.0830(9)
H61 H 0.2345 0.7088 -0.1535
H62 H 0.2294 0.6662 -0.0909
C37 C 0.2055(9) 0.7114(7) 0.0133(12)
H63 H 0.1212 0.7169 0.0211
C38 C 0.2986(8) 0.7205(4) 0.1029(9)
H64 H 0.2729 0.7103 0.1792
H65 H 0.3124 0.7495 0.1088
C39 C 0.4147(7) 0.6990(3) 0.0604(7)
H66 H 0.4153 0.6716 0.0944
C40 C 0.5262(7) 0.7207(3) 0.1034(7)
C41 C 0.8304(9) 0.6467(3) -0.0920(7)
C42 C 0.8229(9) 0.6791(3) 0.0020(8)
H67 H 0.9027 0.6917 0.0111
H68 H 0.7983 0.6670 0.0753
H69 H 0.7628 0.6992 -0.0207
C43 C 0.9294(8) 0.6165(3) -0.0532(9)
H70 H 1.0081 0.6301 -0.0478
H71 H 0.9349 0.5949 -0.1097
H72 H 0.9077 0.6056 0.0224
C44 C 0.8697(11) 0.6682(4) -0.2035(8)
H73 H 0.9509 0.6796 -0.1928
H74 H 0.8116 0.6895 -0.2210
H75 H 0.8715 0.6492 -0.2675
C57 C 0.6512(6) 0.58801(13) 0.0248(3)
C58 C 0.6244(6) 0.60350(12) 0.1336(4)
H86 H 0.6150 0.6316 0.1436
C59 C 0.6113(6) 0.57804(18) 0.2278(3)
H87 H 0.5929 0.5887 0.3026
C60 C 0.6250(7) 0.53710(16) 0.2132(4)
H88 H 0.6160 0.5196 0.2781
C61 C 0.6518(8) 0.52164(12) 0.1045(5)
H89 H 0.6612 0.4935 0.0945
C62 C 0.6649(7) 0.54708(14) 0.0103(4)
H90 H 0.6833 0.5364 -0.0645
C63 C 0.6579(5) 0.58844(16) -0.2358(4)
C64 C 0.7579(5) 0.5757(2) -0.3000(5)
H91 H 0.8383 0.5843 -0.2794
C65 C 0.7411(7) 0.5504(2) -0.3940(5)
H92 H 0.8099 0.5416 -0.4382
C66 C 0.6242(8) 0.53787(19) -0.4239(5)
H93 H 0.6127 0.5205 -0.4886
C67 C 0.5243(6) 0.5506(2) -0.3597(6)
H94 H 0.4439 0.5420 -0.3802
C68 C 0.5411(5) 0.57592(19) -0.2656(5)
H95 H 0.4723 0.5847 -0.2214
loop_
_geom_bond_atom_site_label_1
_geom_bond_atom_site_label_2
_geom_bond_site_symmetry_1
_geom_bond_site_symmetry_2
Si1 O1 1_555 1_555
O1 C1 1_555 1_555
O2 C7 1_555 1_555
O3 C7 1_555 1_555
C1 H1 1_555 1_555
H2 C1 1_555 1_555
C2 C1 1_555 1_555
H3 C2 1_555 1_555
C3 C2 1_555 1_555
H4 C3 1_555 1_555
H5 C3 1_555 1_555
C4 C3 1_555 1_555
H6 C4 1_555 1_555
H7 C4 1_555 1_555
C5 C4 1_555 1_555
H8 C5 1_555 1_555
H9 C5 1_555 1_555
C6 C2 1_555 1_555
H10 C6 1_555 1_555
C7 C6 1_555 1_555
C8 Si1 1_555 1_555
C9 C8 1_555 1_555
H11 C9 1_555 1_555
H12 C9 1_555 1_555
H13 C9 1_555 1_555
C10 C8 1_555 1_555
H14 C10 1_555 1_555
H15 C10 1_555 1_555
H16 C10 1_555 1_555
C11 C8 1_555 1_555
H17 C11 1_555 1_555
H18 C11 1_555 1_555
H19 C11 1_555 1_555
Si2 O4 1_555 1_555
O4 C12 1_555 1_555
O5 C18 1_555 1_555
O6 C18 1_555 1_555
C12 H20 1_555 1_555
H21 C12 1_555 1_555
C13 C12 1_555 1_555
H22 C13 1_555 1_555
C14 C13 1_555 1_555
H23 C14 1_555 1_555
H24 C14 1_555 1_555
C15 C14 1_555 1_555
H25 C15 1_555 1_555
H26 C15 1_555 1_555
C16 C15 1_555 1_555
H27 C16 1_555 1_555
H28 C16 1_555 1_555
C17 C13 1_555 1_555
H29 C17 1_555 1_555
C18 C17 1_555 1_555
C19 Si2 1_555 1_555
C20 C19 1_555 1_555
H30 C20 1_555 1_555
H31 C20 1_555 1_555
H32 C20 1_555 1_555
C21 C19 1_555 1_555
H33 C21 1_555 1_555
H34 C21 1_555 1_555
H35 C21 1_555 1_555
C22 C19 1_555 1_555
H36 C22 1_555 1_555
H37 C22 1_555 1_555
H38 C22 1_555 1_555
Si3 O7 1_555 1_555
O7 C23 1_555 1_555
O8 C29 1_555 1_555
O9 C29 1_555 1_555
C23 H39 1_555 1_555
H40 C23 1_555 1_555
C24 C23 1_555 1_555
H41 C24 1_555 1_555
C25 C24 1_555 1_555
H42 C25 1_555 1_555
H43 C25 1_555 1_555
C26 C25 1_555 1_555
H44 C26 1_555 1_555
H45 C26 1_555 1_555
C27 C26 1_555 1_555
H46 C27 1_555 1_555
H47 C27 1_555 1_555
C28 C24 1_555 1_555
H48 C28 1_555 1_555
C29 C28 1_555 1_555
C30 Si3 1_555 1_555
C31 C30 1_555 1_555
H49 C31 1_555 1_555
H50 C31 1_555 1_555
H51 C31 1_555 1_555
C32 C30 1_555 1_555
H52 C32 1_555 1_555
H53 C32 1_555 1_555
H54 C32 1_555 1_555
C33 C30 1_555 1_555
H55 C33 1_555 1_555
H56 C33 1_555 1_555
H57 C33 1_555 1_555
Si4 O10 1_555 1_555
O10 C34 1_555 1_555
O11 C40 1_555 1_555
O12 C40 1_555 1_555
C34 H58 1_555 1_555
H59 C34 1_555 1_555
C35 C34 1_555 1_555
H60 C35 1_555 1_555
C36 C35 1_555 1_555
H61 C36 1_555 1_555
H62 C36 1_555 1_555
C37 C36 1_555 1_555
H63 C37 1_555 1_555
C38 C37 1_555 1_555
H64 C38 1_555 1_555
H65 C38 1_555 1_555
C39 C35 1_555 1_555
H66 C39 1_555 1_555
C40 C39 1_555 1_555
C41 Si4 1_555 1_555
C42 C41 1_555 1_555
H67 C42 1_555 1_555
H68 C42 1_555 1_555
H69 C42 1_555 1_555
C43 C41 1_555 1_555
H70 C43 1_555 1_555
H71 C43 1_555 1_555
H72 C43 1_555 1_555
C44 C41 1_555 1_555
H73 C44 1_555 1_555
H74 C44 1_555 1_555
H75 C44 1_555 1_555
C45 Si1 1_555 1_555
C46 C45 1_555 1_555
H76 C46 1_555 1_555
C47 C46 1_555 1_555
H77 C47 1_555 1_555
C48 C47 1_555 1_555
H78 C48 1_555 1_555
C49 C48 1_555 1_555
H79 C49 1_555 1_555
C50 C45 1_555 1_555
H80 C50 1_555 1_555
C51 Si1 1_555 1_555
C52 C51 1_555 1_555
H81 C52 1_555 1_555
C53 C52 1_555 1_555
H82 C53 1_555 1_555
C54 C53 1_555 1_555
H83 C54 1_555 1_555
C55 C54 1_555 1_555
H84 C55 1_555 1_555
C56 C51 1_555 1_555
H85 C56 1_555 1_555
C57 Si4 1_555 1_555
C58 C57 1_555 1_555
H86 C58 1_555 1_555
C59 C58 1_555 1_555
H87 C59 1_555 1_555
C60 C59 1_555 1_555
H88 C60 1_555 1_555
C61 C60 1_555 1_555
H89 C61 1_555 1_555
C62 C57 1_555 1_555
H90 C62 1_555 1_555
C63 Si4 1_555 1_555
C64 C63 1_555 1_555
H91 C64 1_555 1_555
C65 C64 1_555 1_555
H92 C65 1_555 1_555
C66 C65 1_555 1_555
H93 C66 1_555 1_555
C67 C66 1_555 1_555
H94 C67 1_555 1_555
C68 C63 1_555 1_555
H95 C68 1_555 1_555
C69 Si2 1_555 1_555
C70 C69 1_555 1_555
H96 C70 1_555 1_555
C71 C70 1_555 1_555
H97 C71 1_555 1_555
C72 C71 1_555 1_555
H98 C72 1_555 1_555
C73 C72 1_555 1_555
H99 C73 1_555 1_555
C74 C69 1_555 1_555
H100 C74 1_555 1_555
C75 Si2 1_555 1_555
C76 C75 1_555 1_555
H101 C76 1_555 1_555
C77 C76 1_555 1_555
H102 C77 1_555 1_555
C78 C77 1_555 1_555
H103 C78 1_555 1_555
C79 C78 1_555 1_555
H104 C79 1_555 1_555
C80 C75 1_555 1_555
H105 C80 1_555 1_555
C81 Si3 1_555 1_555
C82 C81 1_555 1_555
H106 C82 1_555 1_555
C83 C82 1_555 1_555
H107 C83 1_555 1_555
C84 C83 1_555 1_555
H108 C84 1_555 1_555
C85 C84 1_555 1_555
H109 C85 1_555 1_555
C86 C81 1_555 1_555
H110 C86 1_555 1_555
C87 Si3 1_555 1_555
C88 C87 1_555 1_555
H111 C88 1_555 1_555
C89 C88 1_555 1_555
H112 C89 1_555 1_555
C90 C89 1_555 1_555
H113 C90 1_555 1_555
C91 C90 1_555 1_555
H114 C91 1_555 1_555
C92 C87 1_555 1_555
H115 C92 1_555 1_555
C5 C6 1_555 1_555
C16 C17 1_555 1_555
C27 C28 1_555 1_555
C38 C39 1_555 1_555
C49 C50 1_555 1_555
C55 C56 1_555 1_555
C61 C62 1_555 1_555
C67 C68 1_555 1_555
C73 C74 1_555 1_555
C79 C80 1_555 1_555
C85 C86 1_555 1_555
C91 C92 1_555 1_555

#END
