
#######################################################################
#
#                 Cambridge Crystallographic Data Centre
#                                CCDC 
#
#######################################################################
#
# If this CIF has been generated from an entry in the Cambridge 
# Structural Database, then it will include bibliographic, chemical, 
# crystal, experimental, refinement or atomic coordinate data resulting 
# from the CCDC's data processing and validation procedures.
#
#######################################################################

data_PAFJAK
_chemical_formula_moiety         'C17 H15 N1 O6 S1'
_chemical_name_systematic        
3-hydroxy-3'-((4-methylphenyl)sulfonyl)-2'H,3H-spiro[1-benzofuran-2,4'-[1,3]oxazolidin]-2'-one
_symmetry_cell_setting           monoclinic
_symmetry_space_group_name_H-M   'P 21'
_symmetry_Int_Tables_number      4
_space_group_name_Hall           'P 2yb'
loop_
_symmetry_equiv_pos_site_id
_symmetry_equiv_pos_as_xyz
1 x,y,z
2 -x,1/2+y,-z
_cell_length_a                   7.5529(15)
_cell_length_b                   11.091(2)
_cell_length_c                   10.123(2)
_cell_angle_alpha                90
_cell_angle_beta                 104.11(3)
_cell_angle_gamma                90
_cell_volume                     822.411
_exptl_crystal_colour            colorless
_exptl_crystal_description       block
_cell_formula_units_Z            2
loop_
_atom_site_label
_atom_site_type_symbol
_atom_site_fract_x
_atom_site_fract_y
_atom_site_fract_z
S1 S 0.42905(10) 0.36072(7) 0.69308(8)
O1 O 0.4944(3) 0.2423(2) 0.6787(3)
O2 O 0.2558(3) 0.3993(3) 0.6125(2)
O3 O 0.4318(4) 0.6307(3) 0.6680(3)
O4 O 0.7151(4) 0.6292(2) 0.6352(3)
O5 O 0.8702(3) 0.4017(2) 0.7935(2)
O6 O 0.9008(3) 0.3312(3) 0.4718(2)
H1 H 1.0101 0.3362 0.5085
N1 N 0.5827(4) 0.4511(3) 0.6491(3)
C1 C 0.5621(5) 0.5769(4) 0.6523(4)
C2 C 0.8333(5) 0.5383(3) 0.6013(4)
H2 H 0.9598 0.5552 0.6456
H3 H 0.8201 0.5351 0.5037
C3 C 0.7726(4) 0.4194(3) 0.6530(3)
C4 C 0.8027(4) 0.3055(4) 0.5718(3)
H4 H 0.6844 0.2698 0.5278
C5 C 0.9022(5) 0.2242(3) 0.6827(4)
C6 C 0.9412(4) 0.2857(3) 0.8052(4)
C7 C 1.0411(5) 0.2371(4) 0.9257(4)
H5 H 1.0657 0.2797 1.0073
C8 C 1.1033(6) 0.1184(5) 0.9164(6)
H6 H 1.1745 0.0818 0.9940
C9 C 1.0619(6) 0.0550(5) 0.7961(6)
H7 H 1.1026 -0.0239 0.7942
C10 C 0.9607(6) 0.1075(4) 0.6785(5)
H8 H 0.9324 0.0643 0.5973
C11 C 0.4394(4) 0.3890(3) 0.8647(3)
C12 C 0.3300(4) 0.4776(3) 0.9009(3)
H9 H 0.2551 0.5254 0.8348
C13 C 0.3347(4) 0.4933(3) 1.0371(3)
H10 H 0.2614 0.5519 1.0624
C14 C 0.4473(5) 0.4228(3) 1.1372(3)
C15 C 0.5559(5) 0.3365(3) 1.0979(3)
H11 H 0.6323 0.2892 1.1638
C16 C 0.5530(5) 0.3191(3) 0.9619(3)
H12 H 0.6269 0.2608 0.9365
C17 C 0.4489(6) 0.4401(4) 1.2850(4)
H13 H 0.4368 0.5243 1.3029
H14 H 0.5620 0.4105 1.3409
H15 H 0.3490 0.3965 1.3054
loop_
_geom_bond_atom_site_label_1
_geom_bond_atom_site_label_2
_geom_bond_site_symmetry_1
_geom_bond_site_symmetry_2
S1 O1 1_555 1_555
O2 S1 1_555 1_555
O3 C1 1_555 1_555
O4 C1 1_555 1_555
O5 C3 1_555 1_555
O6 H1 1_555 1_555
N1 S1 1_555 1_555
C1 N1 1_555 1_555
C2 O4 1_555 1_555
H2 C2 1_555 1_555
H3 C2 1_555 1_555
C3 N1 1_555 1_555
C4 O6 1_555 1_555
H4 C4 1_555 1_555
C5 C4 1_555 1_555
C6 O5 1_555 1_555
C7 C6 1_555 1_555
H5 C7 1_555 1_555
C8 C7 1_555 1_555
H6 C8 1_555 1_555
C9 C8 1_555 1_555
H7 C9 1_555 1_555
C10 C5 1_555 1_555
H8 C10 1_555 1_555
C11 S1 1_555 1_555
C12 C11 1_555 1_555
H9 C12 1_555 1_555
C13 C12 1_555 1_555
H10 C13 1_555 1_555
C14 C13 1_555 1_555
C15 C14 1_555 1_555
H11 C15 1_555 1_555
C16 C11 1_555 1_555
H12 C16 1_555 1_555
C17 C14 1_555 1_555
H13 C17 1_555 1_555
H14 C17 1_555 1_555
H15 C17 1_555 1_555
C2 C3 1_555 1_555
C3 C4 1_555 1_555
C5 C6 1_555 1_555
C9 C10 1_555 1_555
C15 C16 1_555 1_555

#END
