
#######################################################################
#
#                 Cambridge Crystallographic Data Centre
#                                CCDC 
#
#######################################################################
#
# If this CIF has been generated from an entry in the Cambridge 
# Structural Database, then it will include bibliographic, chemical, 
# crystal, experimental, refinement or atomic coordinate data resulting 
# from the CCDC's data processing and validation procedures.
#
#######################################################################

data_PAFKAK
_chemical_formula_moiety         'C15 H16 O6'
_chemical_name_systematic        
3,7,10a-Trimethoxy-4a,10a-dihydrooxanthren-1(4H)-one
_symmetry_cell_setting           orthorhombic
_symmetry_space_group_name_H-M   'P 21 21 21'
_symmetry_Int_Tables_number      19
_space_group_name_Hall           'P 2ac 2ab'
loop_
_symmetry_equiv_pos_site_id
_symmetry_equiv_pos_as_xyz
1 x,y,z
2 1/2-x,-y,1/2+z
3 -x,1/2+y,1/2-z
4 1/2+x,1/2-y,-z
_cell_length_a                   9.0063(13)
_cell_length_b                   11.2861(17)
_cell_length_c                   13.832(2)
_cell_angle_alpha                90
_cell_angle_beta                 90
_cell_angle_gamma                90
_cell_volume                     1405.97
_exptl_crystal_colour            colorless
_exptl_crystal_description       block
_cell_formula_units_Z            4
loop_
_atom_site_label
_atom_site_type_symbol
_atom_site_fract_x
_atom_site_fract_y
_atom_site_fract_z
C1 C -0.1442(3) 0.3258(2) 0.8618(2)
H1 H -0.2141 0.3614 0.9066
H2 H -0.1524 0.3669 0.8005
C2 C -0.1814(3) 0.1976(2) 0.84823(18)
C3 C -0.0816(3) 0.1111(2) 0.84098(19)
H3 H -0.1141 0.0336 0.8322
C4 C 0.0752(3) 0.1343(2) 0.8464(2)
C5 C 0.4516(3) 0.4223(2) 0.9078(2)
H4 H 0.5222 0.3624 0.9030
C6 C 0.4966(3) 0.5373(2) 0.9231(2)
H5 H 0.5968 0.5549 0.9304
C7 C 0.3912(3) 0.6268(2) 0.92773(19)
C8 C 0.2422(3) 0.6010(2) 0.91916(19)
H6 H 0.1716 0.6609 0.9226
C9 C -0.3910(3) 0.0675(2) 0.8343(2)
H7 H -0.3555 0.0340 0.7749
H8 H -0.4974 0.0718 0.8327
H9 H -0.3604 0.0185 0.8875
C10 C 0.2140(4) 0.2482(3) 0.6816(2)
H10 H 0.3125 0.2443 0.7080
H11 H 0.2161 0.2904 0.6214
H12 H 0.1775 0.1694 0.6709
C11 C 0.3517(3) 0.8362(2) 0.9225(2)
H13 H 0.3275 0.8360 0.8549
H14 H 0.4011 0.9089 0.9386
H15 H 0.2622 0.8293 0.9598
C12 C 0.1206(3) 0.2652(2) 0.84345(18)
C13 C 0.1992(3) 0.4843(2) 0.90539(18)
C14 C 0.3034(3) 0.3948(2) 0.89945(18)
C15 C 0.0111(3) 0.3391(2) 0.9006(2)
H16 H 0.0128 0.3132 0.9682
O1 O 0.04882(19) 0.46271(15) 0.89643(15)
O2 O 0.26417(19) 0.27658(14) 0.88434(12)
O3 O 0.4463(2) 0.73942(16) 0.94337(15)
O4 O -0.3307(2) 0.18427(15) 0.84616(14)
O5 O 0.11792(19) 0.30880(14) 0.74854(13)
O6 O 0.1707(2) 0.05719(16) 0.84915(17)
loop_
_geom_bond_atom_site_label_1
_geom_bond_atom_site_label_2
_geom_bond_site_symmetry_1
_geom_bond_site_symmetry_2
C1 H1 1_555 1_555
H2 C1 1_555 1_555
C2 C1 1_555 1_555
C3 C2 1_555 1_555
H3 C3 1_555 1_555
C4 C3 1_555 1_555
C5 H4 1_555 1_555
C6 C5 1_555 1_555
H5 C6 1_555 1_555
C7 C6 1_555 1_555
C8 C7 1_555 1_555
H6 C8 1_555 1_555
C9 H7 1_555 1_555
H8 C9 1_555 1_555
H9 C9 1_555 1_555
C10 H10 1_555 1_555
H11 C10 1_555 1_555
H12 C10 1_555 1_555
C11 H13 1_555 1_555
H14 C11 1_555 1_555
H15 C11 1_555 1_555
C12 C4 1_555 1_555
C13 C8 1_555 1_555
C14 C5 1_555 1_555
C15 C1 1_555 1_555
H16 C15 1_555 1_555
O1 C13 1_555 1_555
O2 C12 1_555 1_555
O3 C7 1_555 1_555
O4 C2 1_555 1_555
O5 C10 1_555 1_555
O6 C4 1_555 1_555
C9 O4 1_555 1_555
C11 O3 1_555 1_555
C12 C15 1_555 1_555
C12 O5 1_555 1_555
C13 C14 1_555 1_555
C14 O2 1_555 1_555
C15 O1 1_555 1_555

#END
