
#######################################################################
#
#                 Cambridge Crystallographic Data Centre
#                                CCDC 
#
#######################################################################
#
# If this CIF has been generated from an entry in the Cambridge 
# Structural Database, then it will include bibliographic, chemical, 
# crystal, experimental, refinement or atomic coordinate data resulting 
# from the CCDC's data processing and validation procedures.
#
#######################################################################

data_PAFLUG
_chemical_formula_moiety         'C18 H22 Cl4 N2 O2'
_chemical_name_systematic        
N,N-bis((2,2-dichloro-3,3-dimethylcyclopropyl)methyl)-3-nitroaniline
_symmetry_cell_setting           monoclinic
_symmetry_space_group_name_H-M   'P 21/n'
_symmetry_Int_Tables_number      14
_space_group_name_Hall           '-P 2yn'
loop_
_symmetry_equiv_pos_site_id
_symmetry_equiv_pos_as_xyz
1 x,y,z
2 1/2-x,1/2+y,1/2-z
3 -x,-y,-z
4 1/2+x,1/2-y,1/2+z
_cell_length_a                   7.2575(13)
_cell_length_b                   16.496(3)
_cell_length_c                   17.113(3)
_cell_angle_alpha                90
_cell_angle_beta                 92.740(3)
_cell_angle_gamma                90
_cell_volume                     2046.42
_cell_formula_units_Z            4
loop_
_atom_site_label
_atom_site_type_symbol
_atom_site_fract_x
_atom_site_fract_y
_atom_site_fract_z
Cl1 Cl 0.9733(6) 0.7161(3) 0.1257(2)
Cl2 Cl 1.2923(6) 0.7659(2) 0.2136(3)
Cl3 Cl 0.9220(4) 0.90190(14) 0.32014(14)
Cl4 Cl 1.2183(3) 0.85438(15) 0.42714(16)
N1 N 0.8442(11) 0.3881(4) 0.3956(7)
N2 N 0.7358(7) 0.6785(3) 0.3643(3)
O1 O 0.8737(14) 0.3842(4) 0.3297(7)
O2 O 0.8523(12) 0.3308(4) 0.4407(6)
C1 C 1.0274(8) 0.5428(3) 0.1929(3)
H1 H 0.9071 0.5600 0.1738
H2 H 1.0158 0.4967 0.2266
H3 H 1.0996 0.5282 0.1495
C2 C 1.3329(6) 0.5869(4) 0.2863(3)
H4 H 1.4217 0.5780 0.2474
H5 H 1.3143 0.5375 0.3145
H6 H 1.3774 0.6282 0.3220
C3 C 1.1296(9) 0.6173(4) 0.2421(4)
C4 C 1.1101(11) 0.7034(5) 0.2105(5)
C5 C 1.0113(8) 0.6794(4) 0.2840(4)
H7 H 1.0715 0.7005 0.3323
C6 C 0.8026(8) 0.6779(4) 0.2859(4)
H8 H 0.7530 0.7246 0.2577
H9 H 0.7568 0.6296 0.2590
C7 C 0.6802(7) 0.9332(3) 0.4637(4)
H10 H 0.6955 0.9838 0.4911
H11 H 0.5753 0.9050 0.4824
H12 H 0.6614 0.9435 0.4087
C8 C 0.9598(9) 0.8918(4) 0.5653(3)
H13 H 1.0501 0.8502 0.5759
H14 H 0.8675 0.8893 0.6036
H15 H 1.0186 0.9439 0.5676
C9 C 0.8638(8) 0.8781(4) 0.4790(4)
C10 C 0.9802(9) 0.8609(4) 0.4111(4)
C11 C 0.8661(8) 0.7938(4) 0.4438(4)
H16 H 0.9372 0.7540 0.4752
C12 C 0.7011(8) 0.7585(4) 0.3977(4)
H17 H 0.5986 0.7544 0.4318
H18 H 0.6651 0.7955 0.3556
C13 C 0.7468(8) 0.6108(4) 0.4128(4)
C14 C 0.7116(11) 0.6144(5) 0.4919(5)
H19 H 0.6837 0.6644 0.5134
C15 C 0.7160(12) 0.5479(6) 0.5394(5)
H20 H 0.6917 0.5536 0.5920
C16 C 0.7562(12) 0.4724(5) 0.5100(6)
H21 H 0.7582 0.4262 0.5413
C17 C 0.7934(10) 0.4689(4) 0.4313(5)
C18 C 0.7925(9) 0.5353(4) 0.3818(4)
H22 H 0.8213 0.5299 0.3297
loop_
_geom_bond_atom_site_label_1
_geom_bond_atom_site_label_2
_geom_bond_site_symmetry_1
_geom_bond_site_symmetry_2
Cl1 C4 1_555 1_555
Cl2 C4 1_555 1_555
Cl3 C10 1_555 1_555
Cl4 C10 1_555 1_555
N1 O1 1_555 1_555
N2 C6 1_555 1_555
O2 N1 1_555 1_555
C1 H1 1_555 1_555
H2 C1 1_555 1_555
H3 C1 1_555 1_555
C2 H4 1_555 1_555
H5 C2 1_555 1_555
H6 C2 1_555 1_555
C3 C1 1_555 1_555
C4 C3 1_555 1_555
C5 C3 1_555 1_555
H7 C5 1_555 1_555
C6 C5 1_555 1_555
H8 C6 1_555 1_555
H9 C6 1_555 1_555
C7 H10 1_555 1_555
H11 C7 1_555 1_555
H12 C7 1_555 1_555
C8 H13 1_555 1_555
H14 C8 1_555 1_555
H15 C8 1_555 1_555
C9 C7 1_555 1_555
C10 C9 1_555 1_555
C11 C9 1_555 1_555
H16 C11 1_555 1_555
C12 N2 1_555 1_555
H17 C12 1_555 1_555
H18 C12 1_555 1_555
C13 N2 1_555 1_555
C14 C13 1_555 1_555
H19 C14 1_555 1_555
C15 C14 1_555 1_555
H20 C15 1_555 1_555
C16 C15 1_555 1_555
H21 C16 1_555 1_555
C17 N1 1_555 1_555
C18 C13 1_555 1_555
H22 C18 1_555 1_555
C2 C3 1_555 1_555
C4 C5 1_555 1_555
C8 C9 1_555 1_555
C10 C11 1_555 1_555
C11 C12 1_555 1_555
C16 C17 1_555 1_555
C17 C18 1_555 1_555

#END
