
#######################################################################
#
#                 Cambridge Crystallographic Data Centre
#                                CCDC 
#
#######################################################################
#
# If this CIF has been generated from an entry in the Cambridge 
# Structural Database, then it will include bibliographic, chemical, 
# crystal, experimental, refinement or atomic coordinate data resulting 
# from the CCDC's data processing and validation procedures.
#
#######################################################################

data_PAFMAN
_chemical_formula_moiety         'C13 H16 Cl2 N2 O2'
_chemical_name_systematic        
N-((2,2-dichloro-3,3-dimethylcyclopropyl)methyl)-N-methyl-3-nitroaniline
_symmetry_cell_setting           monoclinic
_symmetry_space_group_name_H-M   'P 21/c'
_symmetry_Int_Tables_number      14
_space_group_name_Hall           '-P 2ybc'
loop_
_symmetry_equiv_pos_site_id
_symmetry_equiv_pos_as_xyz
1 x,y,z
2 -x,1/2+y,1/2-z
3 -x,-y,-z
4 x,1/2-y,1/2+z
_cell_length_a                   8.7034(16)
_cell_length_b                   12.863(3)
_cell_length_c                   26.555(5)
_cell_angle_alpha                90
_cell_angle_beta                 99.374(4)
_cell_angle_gamma                90
_cell_volume                     2933.18
_cell_formula_units_Z            8
loop_
_atom_site_label
_atom_site_type_symbol
_atom_site_fract_x
_atom_site_fract_y
_atom_site_fract_z
Cl1 Cl 0.63514(17) 0.98027(13) 0.26132(5)
Cl2 Cl 0.37564(15) 1.05585(11) 0.30399(5)
N1 N 0.8722(4) 1.0427(3) 0.39174(13)
N2 N 1.0580(5) 1.3099(3) 0.5166(2)
O1 O 1.0732(5) 1.3397(3) 0.56068(17)
O2 O 1.1169(5) 1.3545(3) 0.48347(16)
C1 C 0.3657(5) 0.8374(4) 0.35626(17)
H1 H 0.3198 0.8990 0.3679
H2 H 0.3859 0.7882 0.3837
H3 H 0.2954 0.8073 0.3285
C2 C 0.6021(6) 0.7716(4) 0.31880(19)
H4 H 0.5296 0.7344 0.2941
H5 H 0.6394 0.7267 0.3470
H6 H 0.6883 0.7947 0.3033
C3 C 0.5207(5) 0.8660(4) 0.33799(16)
C4 C 0.5342(5) 0.9694(4) 0.31281(15)
C5 C 0.6199(5) 0.9529(3) 0.36582(15)
H7 H 0.5717 0.9874 0.3922
C6 C 0.7938(5) 0.9438(4) 0.37886(17)
H8 H 0.8193 0.8967 0.4075
H9 H 0.8333 0.9136 0.3500
C7 C 0.8776(4) 1.0846(3) 0.43971(16)
C8 C 0.7978(5) 1.0410(3) 0.47595(16)
H10 H 0.7395 0.9810 0.4676
C9 C 0.8024(5) 1.0837(4) 0.52375(17)
H11 H 0.7480 1.0518 0.5469
C10 C 0.8858(5) 1.1727(4) 0.53796(18)
H12 H 0.8880 1.2026 0.5700
C11 C 0.9656(5) 1.2151(3) 0.50248(18)
C12 C 0.9643(4) 1.1748(3) 0.45416(16)
H13 H 1.0201 1.2071 0.4315
C13 C 0.9762(6) 1.0817(5) 0.35839(19)
H14 H 0.9496 1.1523 0.3492
H15 H 0.9660 1.0397 0.3281
H16 H 1.0818 1.0787 0.3759
Cl3 Cl 0.02530(15) 0.87483(12) 0.24890(5)
Cl4 Cl -0.20563(16) 0.80493(13) 0.16622(7)
N3 N 0.2993(4) 0.8656(3) 0.14649(14)
N4 N 0.5677(4) 0.6908(3) 0.02359(18)
O3 O 0.6127(4) 0.6271(3) 0.05697(16)
O4 O 0.5979(4) 0.6862(3) -0.01983(15)
C14 C -0.0220(5) 1.0980(3) 0.20372(18)
H17 H -0.1034 1.1193 0.2219
H18 H 0.0083 1.1557 0.1846
H19 H 0.0661 1.0745 0.2276
C15 C -0.2318(5) 1.0376(5) 0.12910(17)
H20 H -0.2604 0.9810 0.1059
H21 H -0.2128 1.0986 0.1102
H22 H -0.3149 1.0511 0.1480
C16 C -0.0813(5) 1.0086(4) 0.16681(15)
C17 C -0.0619(5) 0.8988(4) 0.18547(16)
C18 C 0.0367(5) 0.9361(3) 0.14791(15)
H23 H 0.0033 0.9101 0.1132
C19 C 0.2109(5) 0.9524(4) 0.16152(17)
H24 H 0.2395 1.0150 0.1449
H25 H 0.2379 0.9626 0.1981
C20 C 0.3387(4) 0.8606(3) 0.09831(16)
C21 C 0.2888(5) 0.9350(4) 0.06035(17)
H26 H 0.2239 0.9886 0.0675
C22 C 0.3329(6) 0.9309(4) 0.01322(18)
H27 H 0.2996 0.9826 -0.0105
C23 C 0.4258(5) 0.8517(4) 0.00021(17)
H28 H 0.4564 0.8485 -0.0317
C24 C 0.4703(4) 0.7782(3) 0.03668(17)
C25 C 0.4314(4) 0.7795(3) 0.08490(16)
H29 H 0.4661 0.7273 0.1082
C26 C 0.3487(6) 0.7853(4) 0.18353(18)
H30 H 0.3144 0.7189 0.1695
H31 H 0.3044 0.7980 0.2138
H32 H 0.4603 0.7857 0.1919
loop_
_geom_bond_atom_site_label_1
_geom_bond_atom_site_label_2
_geom_bond_site_symmetry_1
_geom_bond_site_symmetry_2
Cl1 C4 1_555 1_555
Cl2 C4 1_555 1_555
N1 C6 1_555 1_555
N2 O1 1_555 1_555
O2 N2 1_555 1_555
C1 H1 1_555 1_555
H2 C1 1_555 1_555
H3 C1 1_555 1_555
C2 H4 1_555 1_555
H5 C2 1_555 1_555
H6 C2 1_555 1_555
C3 C1 1_555 1_555
C4 C3 1_555 1_555
C5 C3 1_555 1_555
H7 C5 1_555 1_555
C6 C5 1_555 1_555
H8 C6 1_555 1_555
H9 C6 1_555 1_555
C7 N1 1_555 1_555
C8 C7 1_555 1_555
H10 C8 1_555 1_555
C9 C8 1_555 1_555
H11 C9 1_555 1_555
C10 C9 1_555 1_555
H12 C10 1_555 1_555
C11 N2 1_555 1_555
C12 C7 1_555 1_555
H13 C12 1_555 1_555
C13 N1 1_555 1_555
H14 C13 1_555 1_555
H15 C13 1_555 1_555
H16 C13 1_555 1_555
Cl3 C17 1_555 1_555
Cl4 C17 1_555 1_555
N3 C19 1_555 1_555
N4 O3 1_555 1_555
O4 N4 1_555 1_555
C14 H17 1_555 1_555
H18 C14 1_555 1_555
H19 C14 1_555 1_555
C15 H20 1_555 1_555
H21 C15 1_555 1_555
H22 C15 1_555 1_555
C16 C14 1_555 1_555
C17 C16 1_555 1_555
C18 C16 1_555 1_555
H23 C18 1_555 1_555
C19 C18 1_555 1_555
H24 C19 1_555 1_555
H25 C19 1_555 1_555
C20 N3 1_555 1_555
C21 C20 1_555 1_555
H26 C21 1_555 1_555
C22 C21 1_555 1_555
H27 C22 1_555 1_555
C23 C22 1_555 1_555
H28 C23 1_555 1_555
C24 N4 1_555 1_555
C25 C20 1_555 1_555
H29 C25 1_555 1_555
C26 N3 1_555 1_555
H30 C26 1_555 1_555
H31 C26 1_555 1_555
H32 C26 1_555 1_555
C2 C3 1_555 1_555
C4 C5 1_555 1_555
C10 C11 1_555 1_555
C11 C12 1_555 1_555
C15 C16 1_555 1_555
C17 C18 1_555 1_555
C23 C24 1_555 1_555
C24 C25 1_555 1_555

#END
