
#######################################################################
#
#                 Cambridge Crystallographic Data Centre
#                                CCDC 
#
#######################################################################
#
# If this CIF has been generated from an entry in the Cambridge 
# Structural Database, then it will include bibliographic, chemical, 
# crystal, experimental, refinement or atomic coordinate data resulting 
# from the CCDC's data processing and validation procedures.
#
#######################################################################

data_PAFPOE
_chemical_formula_moiety         'C53 H68 O2 P1 S2 1+,Br1 1-'
_chemical_name_systematic        
"11-((3,5-bis(dodecyloxy)phenyl)methyl)-11-phenyl-11H-dibenzo[d,d']phospholo[3,2-b:4,5-b']bisthiophen-11-ium bromide unknown solvate"
_symmetry_cell_setting           triclinic
_symmetry_space_group_name_H-M   'P -1'
_symmetry_Int_Tables_number      2
_space_group_name_Hall           '-P 1'
loop_
_symmetry_equiv_pos_site_id
_symmetry_equiv_pos_as_xyz
1 x,y,z
2 -x,-y,-z
_cell_length_a                   9.5341(3)
_cell_length_b                   14.4282(4)
_cell_length_c                   18.4781(4)
_cell_angle_alpha                85.0625(17)
_cell_angle_beta                 77.5714(16)
_cell_angle_gamma                80.3446(13)
_cell_volume                     2443.82
_exptl_crystal_colour            yellow
_exptl_crystal_description       block
_cell_formula_units_Z            2
_exptl_crystal_recrystallization_method 'Re-crystallisation from solvent:'
loop_
_atom_site_label
_atom_site_type_symbol
_atom_site_fract_x
_atom_site_fract_y
_atom_site_fract_z
Br1 Br 0.54048(4) 1.04706(3) 0.14976(2)
P1 P 0.35863(10) 0.80213(6) 0.07897(5)
S1 S 0.31320(11) 0.52372(7) 0.05251(6)
S2 S 0.40272(11) 0.57125(7) 0.23168(6)
O1 O 0.9348(3) 0.64168(18) 0.09806(14)
O2 O 0.8561(3) 0.64933(18) -0.14348(14)
C1 C 0.6475(4) 0.7847(2) 0.01465(19)
C2 C 0.3368(4) 0.7007(2) 0.0355(2)
C3 C 0.3425(4) 0.6247(2) 0.0855(2)
C4 C 0.5130(4) 0.8569(2) 0.03440(19)
H1 H 0.4928 0.8920 -0.0103
H2 H 0.5300 0.9008 0.0673
C5 C 0.3862(4) 0.7356(2) 0.1633(2)
C6 C 0.7276(4) 0.7492(2) 0.0683(2)
H3 H 0.6996 0.7699 0.1163
C7 C 0.6875(4) 0.7549(2) -0.05705(19)
H4 H 0.6332 0.7797 -0.0924
C8 C 0.3100(4) 0.6790(2) -0.0336(2)
C9 C 0.2962(4) 0.5827(3) -0.0322(2)
C10 C 0.4271(4) 0.7502(3) 0.2306(2)
C11 C 0.8101(4) 0.6873(2) -0.0756(2)
C12 C 0.1983(4) 0.8875(2) 0.08808(19)
C13 C 0.3005(4) 0.7356(3) -0.0986(2)
H5 H 0.3115 0.7987 -0.1009
C14 C 0.8502(4) 0.6821(2) 0.0489(2)
C15 C 0.8912(4) 0.6514(3) -0.0225(2)
H6 H 0.9734 0.6065 -0.0351
C16 C 0.2071(4) 0.9815(3) 0.0947(2)
H7 H 0.2955 0.9998 0.0959
C17 C 0.3706(4) 0.6441(3) 0.1566(2)
C18 C 0.0656(4) 0.8600(3) 0.0873(2)
H8 H 0.0599 0.7972 0.0825
C19 C 0.4409(4) 0.6650(3) 0.2741(2)
C20 C 0.4842(4) 0.6606(3) 0.3421(2)
H9 H 0.4908 0.6047 0.3711
C21 C -0.0577(4) 0.9271(3) 0.0936(2)
H10 H -0.1471 0.9090 0.0940
C22 C 0.8848(4) 0.5613(3) 0.2987(2)
H11 H 0.8789 0.6183 0.3241
H12 H 0.7864 0.5503 0.3006
C23 C 0.8709(4) 0.6473(3) 0.1753(2)
H13 H 0.7716 0.6347 0.1845
H14 H 0.8695 0.7099 0.1911
C24 C 0.7745(4) 0.6814(3) -0.1999(2)
H15 H 0.6720 0.6935 -0.1772
H16 H 0.7882 0.6323 -0.2345
C25 C 0.2747(5) 0.6962(3) -0.1585(2)
H17 H 0.2663 0.7334 -0.2015
C26 C 0.4594(4) 0.8315(3) 0.2562(2)
H18 H 0.4501 0.8886 0.2288
C27 C 0.7071(5) 0.9272(3) -0.4080(2)
H19 H 0.7162 0.8785 -0.4425
H20 H 0.6048 0.9431 -0.3857
C28 C 0.8193(4) 0.7698(3) -0.2417(2)
H21 H 0.9230 0.7587 -0.2619
H22 H 0.8007 0.8198 -0.2074
C29 C 0.2610(5) 0.6010(3) -0.1559(2)
H23 H 0.2443 0.5758 -0.1974
C30 C 0.8929(4) 0.4610(3) 0.4197(2)
H24 H 0.8944 0.5146 0.4477
H25 H 0.7921 0.4542 0.4232
C31 C 0.2718(4) 0.5443(3) -0.0938(2)
H26 H 0.2628 0.4810 -0.0927
C32 C 0.0823(4) 1.0478(3) 0.0995(2)
H27 H 0.0873 1.1110 0.1028
C33 C 0.9630(4) 0.4798(3) 0.3386(2)
H28 H 1.0613 0.4914 0.3362
H29 H 0.9699 0.4234 0.3122
C34 C 0.7396(5) 0.8016(3) -0.3043(2)
H30 H 0.6362 0.8151 -0.2839
H31 H 0.7554 0.7509 -0.3377
C35 C 0.9603(4) 0.5754(3) 0.2177(2)
H32 H 1.0531 0.5956 0.2159
H33 H 0.9790 0.5158 0.1941
C36 C -0.0492(4) 1.0200(3) 0.0994(2)
H34 H -0.1327 1.0646 0.1032
C37 C 0.5048(5) 0.8254(3) 0.3224(2)
H35 H 0.5282 0.8787 0.3392
C38 C 0.6656(5) 1.0624(3) -0.5034(2)
H36 H 0.6668 1.0196 -0.5413
H37 H 0.5662 1.0767 -0.4762
C39 C 0.7898(5) 0.8886(3) -0.3476(2)
H38 H 0.7802 0.9374 -0.3131
H39 H 0.8920 0.8734 -0.3700
C40 C 0.9705(5) 0.3727(3) 0.4539(2)
H40 H 0.9710 0.3201 0.4245
H41 H 1.0708 0.3806 0.4504
C41 C 0.9061(4) 0.3479(3) 0.5339(2)
H42 H 0.8076 0.3360 0.5375
H43 H 0.9014 0.4012 0.5635
C42 C 0.7602(5) 1.0135(3) -0.4503(2)
H44 H 0.8580 0.9951 -0.4784
H45 H 0.7653 1.0581 -0.4150
C43 C 0.5165(5) 0.7408(3) 0.3649(2)
H46 H 0.5469 0.7389 0.4096
C44 C 0.5302(5) 1.3683(3) -0.6437(3)
H47 H 0.4980 1.3351 -0.6791
H48 H 0.5745 1.4203 -0.6707
C45 C 0.6433(6) 1.3028(4) -0.6120(3)
H49 H 0.7310 1.2929 -0.6502
H50 H 0.6661 1.3332 -0.5721
C46 C 0.7141(6) 1.1521(3) -0.5404(3)
H51 H 0.8063 1.1365 -0.5745
H52 H 0.7297 1.1901 -0.5029
C47 C 0.9939(5) 0.2619(3) 0.5654(3)
H53 H 1.0053 0.2104 0.5332
H54 H 1.0901 0.2759 0.5650
C48 C 0.6042(6) 1.2109(4) -0.5834(3)
H55 H 0.5972 1.1758 -0.6246
H56 H 0.5091 1.2202 -0.5508
C49 C 0.3989(6) 1.4077(4) -0.5874(3)
H57 H 0.3356 1.4524 -0.6119
H58 H 0.4295 1.4384 -0.5507
H59 H 0.3481 1.3575 -0.5639
C50 C 0.9276(6) 0.2301(4) 0.6431(3)
H60 H 0.8510 0.1950 0.6401
H61 H 0.8819 0.2859 0.6700
C51 C 1.1752(9) 0.0120(5) 0.7049(3)
H62 H 1.2085 0.0487 0.7369
H63 H 1.2572 -0.0196 0.6715
H64 H 1.1217 -0.0337 0.7343
C52 C 1.0289(16) 0.1686(9) 0.6904(6)
H65 H 1.1137 0.1978 0.6900
H66 H 0.9777 0.1607 0.7414
C53 C 1.070(2) 0.0813(11) 0.6574(10)
H67 H 1.1214 0.0900 0.6065
H68 H 0.9844 0.0535 0.6569
H69? H 1.0992 -0.0063 0.7440
H70? H 1.2643 0.0042 0.7226
H71? H 1.1877 -0.0266 0.6635
C54? C 0.9867(13) 0.1243(10) 0.6672(7)
H72? H 0.9234 0.1042 0.7122
H73? H 0.9867 0.0829 0.6285
C55? C 1.1333(14) 0.1180(11) 0.6799(9)
H74? H 1.1355 0.1592 0.7183
H75? H 1.1993 0.1350 0.6348
H76? H 0.8232 0.2365 0.6478
H77? H 0.9458 0.2718 0.6774
loop_
_geom_bond_atom_site_label_1
_geom_bond_atom_site_label_2
_geom_bond_site_symmetry_1
_geom_bond_site_symmetry_2
P1 C2 1_555 1_555
S1 C3 1_555 1_555
S2 C17 1_555 1_555
O1 C14 1_555 1_555
O2 C11 1_555 1_555
C1 C4 1_555 1_555
C2 C3 1_555 1_555
C3 C17 1_555 1_555
C4 P1 1_555 1_555
H1 C4 1_555 1_555
H2 C4 1_555 1_555
C5 P1 1_555 1_555
C6 C1 1_555 1_555
H3 C6 1_555 1_555
C7 C1 1_555 1_555
H4 C7 1_555 1_555
C8 C2 1_555 1_555
C9 S1 1_555 1_555
C10 C5 1_555 1_555
C11 C7 1_555 1_555
C12 P1 1_555 1_555
C13 C8 1_555 1_555
H5 C13 1_555 1_555
C14 C6 1_555 1_555
C15 C11 1_555 1_555
H6 C15 1_555 1_555
C16 C12 1_555 1_555
H7 C16 1_555 1_555
C17 C5 1_555 1_555
C18 C12 1_555 1_555
H8 C18 1_555 1_555
C19 S2 1_555 1_555
C20 C19 1_555 1_555
H9 C20 1_555 1_555
C21 C18 1_555 1_555
H10 C21 1_555 1_555
C22 H11 1_555 1_555
H12 C22 1_555 1_555
C23 O1 1_555 1_555
H13 C23 1_555 1_555
H14 C23 1_555 1_555
C24 O2 1_555 1_555
H15 C24 1_555 1_555
H16 C24 1_555 1_555
C25 C13 1_555 1_555
H17 C25 1_555 1_555
C26 C10 1_555 1_555
H18 C26 1_555 1_555
C27 H19 1_555 1_555
H20 C27 1_555 1_555
C28 C24 1_555 1_555
H21 C28 1_555 1_555
H22 C28 1_555 1_555
C29 C25 1_555 1_555
H23 C29 1_555 1_555
C30 H24 1_555 1_555
H25 C30 1_555 1_555
C31 C9 1_555 1_555
H26 C31 1_555 1_555
C32 C16 1_555 1_555
H27 C32 1_555 1_555
C33 C22 1_555 1_555
H28 C33 1_555 1_555
H29 C33 1_555 1_555
C34 C28 1_555 1_555
H30 C34 1_555 1_555
H31 C34 1_555 1_555
C35 C22 1_555 1_555
H32 C35 1_555 1_555
H33 C35 1_555 1_555
C36 C21 1_555 1_555
H34 C36 1_555 1_555
C37 C26 1_555 1_555
H35 C37 1_555 1_555
C38 H36 1_555 1_555
H37 C38 1_555 1_555
C39 C27 1_555 1_555
H38 C39 1_555 1_555
H39 C39 1_555 1_555
C40 C30 1_555 1_555
H40 C40 1_555 1_555
H41 C40 1_555 1_555
C41 C40 1_555 1_555
H42 C41 1_555 1_555
H43 C41 1_555 1_555
C42 C27 1_555 1_555
H44 C42 1_555 1_555
H45 C42 1_555 1_555
C43 C20 1_555 1_555
H46 C43 1_555 1_555
C44 H47 1_555 1_555
H48 C44 1_555 1_555
C45 C44 1_555 1_555
H49 C45 1_555 1_555
H50 C45 1_555 1_555
C46 C38 1_555 1_555
H51 C46 1_555 1_555
H52 C46 1_555 1_555
C47 C41 1_555 1_555
H53 C47 1_555 1_555
H54 C47 1_555 1_555
C48 C45 1_555 1_555
H55 C48 1_555 1_555
H56 C48 1_555 1_555
C49 C44 1_555 1_555
H57 C49 1_555 1_555
H58 C49 1_555 1_555
H59 C49 1_555 1_555
C50 C47 1_555 1_555
H60 C50 1_555 1_555
H61 C50 1_555 1_555
C51 H62 1_555 1_555
H63 C51 1_555 1_555
H64 C51 1_555 1_555
C52 C50 1_555 1_555
H65 C52 1_555 1_555
H66 C52 1_555 1_555
C53 C51 1_555 1_555
H67 C53 1_555 1_555
H68 C53 1_555 1_555
C8 C9 1_555 1_555
C10 C19 1_555 1_555
C14 C15 1_555 1_555
C23 C35 1_555 1_555
C29 C31 1_555 1_555
C30 C33 1_555 1_555
C32 C36 1_555 1_555
C34 C39 1_555 1_555
C37 C43 1_555 1_555
C38 C42 1_555 1_555
C46 C48 1_555 1_555
C52 C53 1_555 1_555

#END
