
#######################################################################
#
#                 Cambridge Crystallographic Data Centre
#                                CCDC 
#
#######################################################################
#
# If this CIF has been generated from an entry in the Cambridge 
# Structural Database, then it will include bibliographic, chemical, 
# crystal, experimental, refinement or atomic coordinate data resulting 
# from the CCDC's data processing and validation procedures.
#
#######################################################################

data_PAFXOL
_chemical_formula_moiety         'C92 H80 O16,2.5(C3 H6 O1)'
_chemical_name_systematic        
'2,8,14,20-tetrahexyl-(4,24:6,10:12,16:18,22)-tetrakis(benzoquinone-1,4-diolato)resorcin(4)arene acetone clathrate'
_symmetry_cell_setting           orthorhombic
_symmetry_space_group_name_H-M   'P m c 21'
_symmetry_Int_Tables_number      26
_space_group_name_Hall           'P 2c -2'
loop_
_symmetry_equiv_pos_site_id
_symmetry_equiv_pos_as_xyz
1 x,y,z
2 -x,-y,1/2+z
3 -x,y,z
4 x,-y,1/2+z
_cell_length_a                   25.9998(5)
_cell_length_b                   12.0919(3)
_cell_length_c                   26.2051(7)
_cell_angle_alpha                90
_cell_angle_beta                 90
_cell_angle_gamma                90
_cell_volume                     8238.54
_exptl_crystal_colour            'pale yellow'
_exptl_crystal_description       plate
_cell_formula_units_Z            4
loop_
_atom_site_label
_atom_site_type_symbol
_atom_site_fract_x
_atom_site_fract_y
_atom_site_fract_z
O1 O 0.6841(2) 0.3460(5) 0.3379(3)
O2 O 0.6691(2) -0.0001(7) 0.4612(3)
O3 O 0.5899(2) 0.1285(4) 0.4586(3)
O4 O 0.5956(2) 0.3154(5) 0.3879(2)
O5 O 0.5918(2) 0.9303(5) 0.3595(2)
O6 O 0.66548(18) 1.0337(5) 0.3138(2)
O7 O 0.6411(3) 0.6071(5) 0.2669(2)
O8 O 0.5801(2) 0.6967(4) 0.3400(2)
C1 C 0.6365(3) 0.2447(7) 0.3988(3)
C2 C 0.6842(4) 0.2676(9) 0.3686(4)
C3 C 0.7294(3) 0.1964(7) 0.3797(4)
C4 C 0.7742(4) 0.2170(10) 0.3538(4)
C5 C 0.8180(4) 0.1512(9) 0.3649(5)
C6 C 0.8157(4) 0.0658(9) 0.3987(4)
C7 C 0.7683(4) 0.0378(8) 0.4217(4)
C8 C 0.7247(3) 0.1092(6) 0.4117(4)
C9 C 0.6755(3) 0.0828(6) 0.4360(4)
C10 C 0.6334(3) 0.1578(7) 0.4312(3)
C11 C 0.5458(3) 0.1957(6) 0.4647(4)
C12 C 0.5471(3) 0.2988(8) 0.4842(4)
C13 C 0.5000 0.3512(11) 0.4927(4)
C14 C 0.5000 0.1439(11) 0.4559(4)
C15 C 0.5978(3) 0.3681(6) 0.4950(3)
C16 C 0.5993(3) 0.4052(7) 0.5496(4)
C17 C 0.5903(3) 0.3251(7) 0.5904(3)
C18 C 0.6334(2) 0.2356(6) 0.5910(3)
C19 C 0.6219(5) 0.1495(9) 0.6363(4)
C20 C 0.5786(4) -0.0027(13) 0.6792(9)
C21 C 0.6018(3) 0.4559(5) 0.4538(3)
C22 C 0.6023(3) 0.5688(7) 0.4653(3)
C23 C 0.5992(3) 0.6518(7) 0.4304(3)
C24 C 0.5928(3) 0.6119(7) 0.3784(3)
C25 C 0.5924(3) 0.5091(6) 0.3641(4)
C26 C 0.5991(3) 0.4290(8) 0.4034(4)
C27 C 0.5973(3) 0.7682(7) 0.4417(4)
C28 C 0.5460(3) 0.8216(7) 0.4227(3)
C29 C 0.5460(3) 0.8887(7) 0.3802(4)
C30 C 0.5000 0.9236(8) 0.3590(5)
C31 C 0.5000 0.7871(7) 0.4433(4)
C32 C 0.6037(3) 0.8022(7) 0.5008(4)
C33 C 0.6559(3) 0.7850(7) 0.5217(4)
C34 C 0.6639(5) 0.8538(9) 0.5708(6)
C35 C 0.7280(9) 0.8466(11) 0.5806(9)
C36 C 0.7560(3) 0.9159(12) 0.5961(6)
C37 C 0.7548(4) 1.0305(11) 0.5700(5)
C38 C 0.6219(3) 0.8678(7) 0.3273(3)
C39 C 0.6617(3) 0.9343(7) 0.3030(3)
C40 C 0.6976(3) 0.8749(8) 0.2662(3)
C41 C 0.7370(3) 0.9402(8) 0.2431(4)
C42 C 0.7687(4) 0.8867(10) 0.2084(4)
C43 C 0.7622(4) 0.7775(9) 0.1965(4)
C44 C 0.7226(4) 0.7169(9) 0.2189(4)
C45 C 0.6903(3) 0.7672(7) 0.2553(3)
C46 C 0.6489(3) 0.6971(8) 0.2786(3)
C47 C 0.6168(3) 0.7617(8) 0.3189(3)
C48 C 0.5801(4) 0.0738(11) 0.6333(6)
H1 H 0.7758 0.2729 0.3295
H2 H 0.8489 0.1668 0.3487
H3 H 0.8453 0.0260 0.4066
H4 H 0.7652 -0.0242 0.4425
H5 H 0.5000 0.4238 0.5044
H6 H 0.5000 0.0718 0.4436
H7 H 0.6269 0.3177 0.4901
H8 H 0.5741 0.4637 0.5535
H9 H 0.6328 0.4381 0.5556
H10 H 0.5895 0.3630 0.6230
H11 H 0.5571 0.2898 0.5853
H12 H 0.6342 0.1971 0.5585
H13 H 0.6666 0.2704 0.5963
H14 H 0.6171 0.1925 0.6671
H15 H 0.6528 0.1060 0.6411
H16 H 0.5525 -0.0578 0.6742
H17 H 0.6114 -0.0380 0.6831
H18 H 0.5709 0.0395 0.7093
H19 H 0.6050 0.5887 0.4995
H20 H 0.5881 0.4889 0.3301
H21 H 0.6255 0.8034 0.4229
H22 H 0.5000 0.9701 0.3307
H23 H 0.5000 0.7401 0.4714
H24 H 0.5795 0.7595 0.5209
H25 H 0.5947 0.8796 0.5046
H26 H 0.6608 0.7072 0.5293
H27 H 0.6812 0.8064 0.4964
H28 H 0.6529 0.9297 0.5660
H29 H 0.6452 0.8221 0.5993
H30 H 0.7424 0.8245 0.5480
H31 H 0.7329 0.7840 0.6032
H32 H 0.7485 0.9266 0.6321
H33 H 0.7909 0.8878 0.5938
H34 H 0.7799 1.0326 0.5431
H35 H 0.7212 1.0433 0.5559
H36 H 0.7625 1.0869 0.5946
H37 H 0.7413 1.0146 0.2510
H38 H 0.7950 0.9262 0.1927
H39 H 0.7842 0.7435 0.1734
H40 H 0.7175 0.6434 0.2098
H41 H 0.5480 0.1147 0.6314
H42 H 0.5833 0.0300 0.6025
O1B O 0.3159(2) 0.3460(5) 0.3379(3)
O2B O 0.3309(2) -0.0001(7) 0.4612(3)
O3B O 0.4101(2) 0.1285(4) 0.4586(3)
O4B O 0.4044(2) 0.3154(5) 0.3879(2)
O5B O 0.4082(2) 0.9303(5) 0.3595(2)
O6B O 0.33452(18) 1.0337(5) 0.3138(2)
O7B O 0.3589(3) 0.6071(5) 0.2669(2)
O8B O 0.4199(2) 0.6967(4) 0.3400(2)
C1B C 0.3635(3) 0.2447(7) 0.3988(3)
C2B C 0.3158(4) 0.2676(9) 0.3686(4)
C3B C 0.2706(3) 0.1964(7) 0.3797(4)
C4B C 0.2258(4) 0.2170(10) 0.3538(4)
C5B C 0.1820(4) 0.1512(9) 0.3649(5)
C6B C 0.1843(4) 0.0658(9) 0.3987(4)
C7B C 0.2317(4) 0.0378(8) 0.4217(4)
C8B C 0.2753(3) 0.1092(6) 0.4117(4)
C9B C 0.3245(3) 0.0828(6) 0.4360(4)
C10B C 0.3666(3) 0.1578(7) 0.4312(3)
C11B C 0.4542(3) 0.1957(6) 0.4647(4)
C12B C 0.4529(3) 0.2988(8) 0.4842(4)
C15B C 0.4022(3) 0.3681(6) 0.4950(3)
C16B C 0.4007(3) 0.4052(7) 0.5496(4)
C17B C 0.4097(3) 0.3251(7) 0.5904(3)
C18B C 0.3666(2) 0.2356(6) 0.5910(3)
C19B C 0.3781(5) 0.1495(9) 0.6363(4)
C20B C 0.4214(4) -0.0027(13) 0.6792(9)
C21B C 0.3982(3) 0.4559(5) 0.4538(3)
C22B C 0.3977(3) 0.5688(7) 0.4653(3)
C23B C 0.4008(3) 0.6518(7) 0.4304(3)
C24B C 0.4072(3) 0.6119(7) 0.3784(3)
C25B C 0.4076(3) 0.5091(6) 0.3641(4)
C26B C 0.4009(3) 0.4290(8) 0.4034(4)
C27B C 0.4027(3) 0.7682(7) 0.4417(4)
C28B C 0.4540(3) 0.8216(7) 0.4227(3)
C29B C 0.4540(3) 0.8887(7) 0.3802(4)
C32B C 0.3963(3) 0.8022(7) 0.5008(4)
C33B C 0.3441(3) 0.7850(7) 0.5217(4)
C34B C 0.3361(5) 0.8538(9) 0.5708(6)
C35B C 0.2720(9) 0.8466(11) 0.5806(9)
C36B C 0.2440(3) 0.9159(12) 0.5961(6)
C37B C 0.2452(4) 1.0305(11) 0.5700(5)
C38B C 0.3781(3) 0.8678(7) 0.3273(3)
C39B C 0.3383(3) 0.9343(7) 0.3030(3)
C40B C 0.3024(3) 0.8749(8) 0.2662(3)
C41B C 0.2630(3) 0.9402(8) 0.2431(4)
C42B C 0.2313(4) 0.8867(10) 0.2084(4)
C43B C 0.2378(4) 0.7775(9) 0.1965(4)
C44B C 0.2774(4) 0.7169(9) 0.2189(4)
C45B C 0.3097(3) 0.7672(7) 0.2553(3)
C46B C 0.3511(3) 0.6971(8) 0.2786(3)
C47B C 0.3832(3) 0.7617(8) 0.3189(3)
C48B C 0.4199(4) 0.0738(11) 0.6333(6)
H1B H 0.2242 0.2729 0.3295
H2B H 0.1511 0.1668 0.3487
H3B H 0.1547 0.0260 0.4066
H4B H 0.2348 -0.0242 0.4425
H7B H 0.3731 0.3177 0.4901
H8B H 0.4259 0.4637 0.5535
H9B H 0.3672 0.4381 0.5556
H10B H 0.4105 0.3630 0.6230
H11B H 0.4429 0.2898 0.5853
H12B H 0.3658 0.1971 0.5585
H13B H 0.3334 0.2704 0.5963
H14B H 0.3829 0.1925 0.6671
H15B H 0.3472 0.1060 0.6411
H16B H 0.4475 -0.0578 0.6742
H17B H 0.3886 -0.0380 0.6831
H18B H 0.4291 0.0395 0.7093
H19B H 0.3950 0.5887 0.4995
H20B H 0.4119 0.4889 0.3301
H21B H 0.3745 0.8034 0.4229
H24B H 0.4205 0.7595 0.5209
H25B H 0.4053 0.8796 0.5046
H26B H 0.3392 0.7072 0.5293
H27B H 0.3188 0.8064 0.4964
H28B H 0.3471 0.9297 0.5660
H29B H 0.3548 0.8221 0.5993
H30B H 0.2576 0.8245 0.5480
H31B H 0.2671 0.7840 0.6032
H32B H 0.2515 0.9266 0.6321
H33B H 0.2091 0.8878 0.5938
H34B H 0.2201 1.0326 0.5431
H35B H 0.2788 1.0433 0.5559
H36B H 0.2375 1.0869 0.5946
H37B H 0.2587 1.0146 0.2510
H38B H 0.2050 0.9262 0.1927
H39B H 0.2158 0.7435 0.1734
H40B H 0.2825 0.6434 0.2098
H41B H 0.4520 0.1147 0.6314
H42B H 0.4167 0.0300 0.6025
O9 O -0.1649(2) -0.5441(6) 0.2666(3)
O10 O -0.1405(3) -0.1162(5) 0.3119(3)
O11 O -0.08071(19) -0.1974(5) 0.2372(2)
O12 O -0.09136(18) -0.4381(4) 0.2200(2)
O13 O -0.09390(19) 0.1774(4) 0.1903(2)
O14 O -0.1856(2) 0.1513(6) 0.2400(3)
O15 O -0.1698(2) 0.4976(5) 0.1152(3)
O16 O -0.0908(2) 0.3639(5) 0.1199(2)
C49 C -0.1210(3) -0.3741(7) 0.2499(3)
C50 C -0.1628(3) -0.4453(6) 0.2750(3)
C51 C -0.1974(3) -0.3928(7) 0.3105(4)
C52 C -0.2374(3) -0.4513(9) 0.3330(3)
C53 C -0.2702(3) -0.3989(8) 0.3686(3)
C54 C -0.2634(3) -0.2899(9) 0.3812(4)
C55 C -0.2249(3) -0.2272(8) 0.3581(3)
C56 C -0.1929(4) -0.2791(8) 0.3241(3)
C57 C -0.1519(3) -0.2148(6) 0.2989(3)
C58 C -0.1194(3) -0.2628(7) 0.2580(3)
C59 C -0.0937(2) -0.1255(6) 0.1992(3)
C60 C -0.0954(3) -0.0104(8) 0.2119(3)
C61 C -0.0976(3) 0.0677(6) 0.1756(3)
C62 C -0.1004(3) 0.0374(9) 0.1215(4)
C63 C -0.1018(3) -0.0734(7) 0.1111(4)
C64 C -0.0982(3) -0.1571(7) 0.1490(4)
C65 C -0.0965(2) -0.2831(5) 0.1340(3)
C66 C -0.0475(3) -0.3258(7) 0.1562(3)
C67 C -0.0451(3) -0.3967(7) 0.1979(3)
C68 C 0.0000 -0.4356(9) 0.2198(5)
C69 C 0.0000 -0.2962(11) 0.1371(5)
C70 C -0.1018(3) -0.3066(8) 0.0774(3)
C71 C -0.1561(3) -0.2904(8) 0.0535(3)
C72 C -0.1360(3) 0.2427(7) 0.1796(3)
C73 C -0.1835(3) 0.2243(6) 0.2087(3)
C74 C -0.2285(3) 0.2933(7) 0.2002(3)
C75 C -0.2771(3) 0.2739(8) 0.2225(4)
C76 C -0.3188(3) 0.3406(9) 0.2130(4)
C77 C -0.3125(4) 0.4306(8) 0.1799(4)
C78 C -0.2674(3) 0.4494(7) 0.1552(3)
C79 C -0.2254(3) 0.3873(8) 0.1663(3)
C80 C -0.1743(3) 0.4139(8) 0.1412(3)
C81 C -0.1301(3) 0.3294(7) 0.1501(4)
C82 C -0.0461(3) 0.3001(8) 0.1117(3)
C83 C -0.0474(3) 0.1913(6) 0.0919(3)
C84 C 0.0000 0.1376(10) 0.0823(5)
C85 C 0.0000 0.3579(8) 0.1216(5)
C86 C -0.0962(3) 0.1313(8) 0.0816(4)
C87 C -0.0995(4) 0.0854(7) 0.0268(3)
C88 C -0.0987(5) 0.1802(12) -0.0128(6)
C89 C -0.1235(14) 0.2642(18) -0.0129(7)
C90 C -0.0817(6) 0.4172(11) -0.0581(6)
C91 C -0.1642(6) -0.3558(10) 0.0071(5)
C92 C -0.2467(5) -0.3761(18) 0.0029(4)
C93 C -0.1274(3) 0.3442(8) -0.0573(4)
C94 C -0.2067(3) -0.3454(10) -0.0269(4)
C95 C -0.2529(4) -0.5186(13) 0.0057(5)
C96 C -0.0820(5) 0.5006(11) -0.1026(5)
H43 H -0.2426 -0.5252 0.3247
H44 H -0.2967 -0.4389 0.3837
H45 H -0.2848 -0.2574 0.4054
H46 H -0.2210 -0.1524 0.3656
H47 H -0.0948 0.0107 0.2461
H48 H -0.1053 -0.0952 0.0773
H49 H -0.1250 -0.3201 0.1516
H50 H 0.0000 -0.4843 0.2473
H51 H 0.0000 -0.2514 0.1083
H52 H -0.0779 -0.2592 0.0592
H53 H -0.0913 -0.3824 0.0714
H54 H -0.1608 -0.2127 0.0455
H55 H -0.1819 -0.3108 0.0786
H56 H -0.2810 0.2139 0.2444
H57 H -0.3505 0.3263 0.2282
H58 H -0.3399 0.4788 0.1747
H59 H -0.2653 0.5048 0.1307
H60 H 0.0000 0.0658 0.0695
H61 H 0.0000 0.4299 0.1341
H62 H -0.1249 0.1826 0.0869
H63 H -0.1309 0.0431 0.0229
H64 H -0.0707 0.0362 0.0206
H65 H -0.1060 0.1452 -0.0453
H66 H -0.0631 0.2039 -0.0145
H67 H -0.1585 0.2426 -0.0048
H68 H -0.1113 0.3072 0.0159
H69 H -0.0800 0.4576 -0.0262
H70 H -0.0510 0.3718 -0.0606
H71 H -0.1638 -0.4325 0.0179
H72 H -0.1337 -0.3452 -0.0135
H73 H -0.2416 -0.3473 0.0371
H74 H -0.2781 -0.3444 -0.0105
H75 H -0.1583 0.3885 -0.0539
H76 H -0.1295 0.3033 -0.0891
H77 H -0.2030 -0.3941 -0.0561
H78 H -0.2106 -0.2698 -0.0387
H79 H -0.2524 -0.5485 -0.0282
H80 H -0.2248 -0.5491 0.0250
H81 H -0.2848 -0.5373 0.0220
H82 H -0.0844 0.4614 -0.1344
H83 H -0.1110 0.5492 -0.0992
H84 H -0.0508 0.5431 -0.1021
O9B O 0.1649(2) -0.5441(6) 0.2666(3)
O10B O 0.1405(3) -0.1162(5) 0.3119(3)
O11B O 0.08071(19) -0.1974(5) 0.2372(2)
O12B O 0.09136(18) -0.4381(4) 0.2200(2)
O13B O 0.09390(19) 0.1774(4) 0.1903(2)
O14B O 0.1856(2) 0.1513(6) 0.2400(3)
O15B O 0.1698(2) 0.4976(5) 0.1152(3)
O16B O 0.0908(2) 0.3639(5) 0.1199(2)
C49B C 0.1210(3) -0.3741(7) 0.2499(3)
C50B C 0.1628(3) -0.4453(6) 0.2750(3)
C51B C 0.1974(3) -0.3928(7) 0.3105(4)
C52B C 0.2374(3) -0.4513(9) 0.3330(3)
C53B C 0.2702(3) -0.3989(8) 0.3686(3)
C54B C 0.2634(3) -0.2899(9) 0.3812(4)
C55B C 0.2249(3) -0.2272(8) 0.3581(3)
C56B C 0.1929(4) -0.2791(8) 0.3241(3)
C57B C 0.1519(3) -0.2148(6) 0.2989(3)
C58B C 0.1194(3) -0.2628(7) 0.2580(3)
C59B C 0.0937(2) -0.1255(6) 0.1992(3)
C60B C 0.0954(3) -0.0104(8) 0.2119(3)
C61B C 0.0976(3) 0.0677(6) 0.1756(3)
C62B C 0.1004(3) 0.0374(9) 0.1215(4)
C63B C 0.1018(3) -0.0734(7) 0.1111(4)
C64B C 0.0982(3) -0.1571(7) 0.1490(4)
C65B C 0.0965(2) -0.2831(5) 0.1340(3)
C66B C 0.0475(3) -0.3258(7) 0.1562(3)
C67B C 0.0451(3) -0.3967(7) 0.1979(3)
C70B C 0.1018(3) -0.3066(8) 0.0774(3)
C71B C 0.1561(3) -0.2904(8) 0.0535(3)
C72B C 0.1360(3) 0.2427(7) 0.1796(3)
C73B C 0.1835(3) 0.2243(6) 0.2087(3)
C74B C 0.2285(3) 0.2933(7) 0.2002(3)
C75B C 0.2771(3) 0.2739(8) 0.2225(4)
C76B C 0.3188(3) 0.3406(9) 0.2130(4)
C77B C 0.3125(4) 0.4306(8) 0.1799(4)
C78B C 0.2674(3) 0.4494(7) 0.1552(3)
C79B C 0.2254(3) 0.3873(8) 0.1663(3)
C80B C 0.1743(3) 0.4139(8) 0.1412(3)
C81B C 0.1301(3) 0.3294(7) 0.1501(4)
C82B C 0.0461(3) 0.3001(8) 0.1117(3)
C83B C 0.0474(3) 0.1913(6) 0.0919(3)
C86B C 0.0962(3) 0.1313(8) 0.0816(4)
C87B C 0.0995(4) 0.0854(7) 0.0268(3)
C88B C 0.0987(5) 0.1802(12) -0.0128(6)
C89B C 0.1235(14) 0.2642(18) -0.0129(7)
C90B C 0.0817(6) 0.4172(11) -0.0581(6)
C91B C 0.1642(6) -0.3558(10) 0.0071(5)
C92B C 0.2467(5) -0.3761(18) 0.0029(4)
C93B C 0.1274(3) 0.3442(8) -0.0573(4)
C94B C 0.2067(3) -0.3454(10) -0.0269(4)
C95B C 0.2529(4) -0.5186(13) 0.0057(5)
C96B C 0.0820(5) 0.5006(11) -0.1026(5)
H43B H 0.2426 -0.5252 0.3247
H44B H 0.2967 -0.4389 0.3837
H45B H 0.2848 -0.2574 0.4054
H46B H 0.2210 -0.1524 0.3656
H47B H 0.0948 0.0107 0.2461
H48B H 0.1053 -0.0952 0.0773
H49B H 0.1250 -0.3201 0.1516
H52B H 0.0779 -0.2592 0.0592
H53B H 0.0913 -0.3824 0.0714
H54B H 0.1608 -0.2127 0.0455
H55B H 0.1819 -0.3108 0.0786
H56B H 0.2810 0.2139 0.2444
H57B H 0.3505 0.3263 0.2282
H58B H 0.3399 0.4788 0.1747
H59B H 0.2653 0.5048 0.1307
H62B H 0.1249 0.1826 0.0869
H63B H 0.1309 0.0431 0.0229
H64B H 0.0707 0.0362 0.0206
H65B H 0.1060 0.1452 -0.0453
H66B H 0.0631 0.2039 -0.0145
H67B H 0.1585 0.2426 -0.0048
H68B H 0.1113 0.3072 0.0159
H69B H 0.0800 0.4576 -0.0262
H70B H 0.0510 0.3718 -0.0606
H71B H 0.1638 -0.4325 0.0179
H72B H 0.1337 -0.3452 -0.0135
H73B H 0.2416 -0.3473 0.0371
H74B H 0.2781 -0.3444 -0.0105
H75B H 0.1583 0.3885 -0.0539
H76B H 0.1295 0.3033 -0.0891
H77B H 0.2030 -0.3941 -0.0561
H78B H 0.2106 -0.2698 -0.0387
H79B H 0.2524 -0.5485 -0.0282
H80B H 0.2248 -0.5491 0.0250
H81B H 0.2848 -0.5373 0.0220
H82B H 0.0844 0.4614 -0.1344
H83B H 0.1110 0.5492 -0.0992
H84B H 0.0508 0.5431 -0.1021
O17 O 0.0000 0.8718(8) 0.0195(5)
C97 C 0.0000 0.8505(11) -0.0278(5)
C98 C 0.0498(3) 0.8492(8) -0.0551(4)
H85 H 0.0772 0.8610 -0.0312
H86 H 0.0543 0.7790 -0.0715
H87 H 0.0502 0.9069 -0.0803
C98B C -0.0498(3) 0.8492(8) -0.0551(4)
H85B H -0.0772 0.8610 -0.0312
H86B H -0.0543 0.7790 -0.0715
H87B H -0.0502 0.9069 -0.0803
O18 O 0.5000 0.3731(9) 0.0572(3)
C99 C 0.5000 0.3576(10) 0.0990(6)
C100 C 0.5490(5) 0.3409(18) 0.1296(5)
H88 H 0.5595 0.4101 0.1442
H89 H 0.5429 0.2883 0.1563
H90 H 0.5756 0.3137 0.1075
C100B C 0.4510(5) 0.3409(18) 0.1296(5)
H88B H 0.4405 0.4101 0.1442
H89B H 0.4571 0.2883 0.1563
H90B H 0.4244 0.3137 0.1075
O19? O 0.0000 0.7522(11) 0.3449(6)
O20? O 0.5000 0.7563(9) 0.2359(5)
O21? O 0.0000 0.2897(6) 0.3496(2)
C101? C 0.0000 0.930(2) 0.3020(11)
C102? C 0.5000 0.5381(10) 0.2560(5)
C103? C 0.0000 0.8561(18) 0.3487(11)
C104? C 0.5000 0.6256(10) 0.2234(5)
C105? C 0.0657(4) 0.3143(8) 0.2953(4)
C106? C 0.0144(3) 0.2860(9) 0.3071(4)
C107? C -0.0151(4) 0.2550(15) 0.2626(5)
C108? C 0.0317(7) 0.9214(14) 0.3868(7)
C109? C 0.4823(6) 0.5976(14) 0.1755(6)
H91? H 0.0341 0.9335 0.2880
H92? H -0.0232 0.9007 0.2769
H93? H -0.0109 1.0031 0.3115
H94? H 0.5297 0.4929 0.2496
H95? H 0.5000 0.5642 0.2906
H96? H 0.0819 0.2523 0.2703
H97? H 0.0882 0.3190 0.3299
H98? H 0.0662 0.3936 0.2763
H99? H -0.0128 0.1666 0.2570
H100? H 0.0001 0.2967 0.2295
H101? H -0.0548 0.2788 0.2678
H102? H 0.0128 0.9286 0.4181
H103? H 0.0387 0.9936 0.3732
H104? H 0.0635 0.8835 0.3931
H105? H 0.5108 0.5940 0.1522
H106? H 0.4583 0.6525 0.1640
H107? H 0.4656 0.5269 0.1770
loop_
_geom_bond_atom_site_label_1
_geom_bond_atom_site_label_2
_geom_bond_site_symmetry_1
_geom_bond_site_symmetry_2
O1 C2 1_555 1_555
O2 C9 1_555 1_555
O3 C10 1_555 1_555
O4 C1 1_555 1_555
O5 C29 1_555 1_555
O6 C39 1_555 1_555
O7 C46 1_555 1_555
O8 C24 1_555 1_555
C1 C2 1_555 1_555
C2 C3 1_555 1_555
C3 C4 1_555 1_555
C4 C5 1_555 1_555
C5 C6 1_555 1_555
C6 C7 1_555 1_555
C7 C8 1_555 1_555
C8 C3 1_555 1_555
C9 C8 1_555 1_555
C10 C1 1_555 1_555
C11 O3 1_555 1_555
C12 C11 1_555 1_555
C13 C12 1_555 1_555
C14 C11 1_555 1_555
C15 C12 1_555 1_555
C16 C15 1_555 1_555
C17 C16 1_555 1_555
C18 C17 1_555 1_555
C19 C18 1_555 1_555
C20 C48 1_555 1_555
C21 C15 1_555 1_555
C22 C21 1_555 1_555
C23 C22 1_555 1_555
C24 C23 1_555 1_555
C25 C24 1_555 1_555
C26 O4 1_555 1_555
C27 C23 1_555 1_555
C28 C27 1_555 1_555
C29 C28 1_555 1_555
C30 C29 1_555 1_555
C31 C28 1_555 1_555
C32 C27 1_555 1_555
C33 C32 1_555 1_555
C34 C33 1_555 1_555
C35 C34 1_555 1_555
C36 C35 1_555 1_555
C37 C36 1_555 1_555
C38 O5 1_555 1_555
C39 C38 1_555 1_555
C40 C39 1_555 1_555
C41 C40 1_555 1_555
C42 C41 1_555 1_555
C43 C42 1_555 1_555
C44 C43 1_555 1_555
C45 C40 1_555 1_555
C46 C45 1_555 1_555
C47 O8 1_555 1_555
C48 C19 1_555 1_555
H1 C4 1_555 1_555
H2 C5 1_555 1_555
H3 C6 1_555 1_555
H4 C7 1_555 1_555
H5 C13 1_555 1_555
H6 C14 1_555 1_555
H7 C15 1_555 1_555
H8 C16 1_555 1_555
H9 C16 1_555 1_555
H10 C17 1_555 1_555
H11 C17 1_555 1_555
H12 C18 1_555 1_555
H13 C18 1_555 1_555
H14 C19 1_555 1_555
H15 C19 1_555 1_555
H16 C20 1_555 1_555
H17 C20 1_555 1_555
H18 C20 1_555 1_555
H19 C22 1_555 1_555
H20 C25 1_555 1_555
H21 C27 1_555 1_555
H22 C30 1_555 1_555
H23 C31 1_555 1_555
H24 C32 1_555 1_555
H25 C32 1_555 1_555
H26 C33 1_555 1_555
H27 C33 1_555 1_555
H28 C34 1_555 1_555
H29 C34 1_555 1_555
H30 C35 1_555 1_555
H31 C35 1_555 1_555
H32 C36 1_555 1_555
H33 C36 1_555 1_555
H34 C37 1_555 1_555
H35 C37 1_555 1_555
H36 C37 1_555 1_555
H37 C41 1_555 1_555
H38 C42 1_555 1_555
H39 C43 1_555 1_555
H40 C44 1_555 1_555
H41 C48 1_555 1_555
H42 C48 1_555 1_555
O9 C50 1_555 1_555
O10 C57 1_555 1_555
O11 C58 1_555 1_555
O12 C49 1_555 1_555
O13 C61 1_555 1_555
O14 C73 1_555 1_555
O15 C80 1_555 1_555
O16 C81 1_555 1_555
C49 C50 1_555 1_555
C50 C51 1_555 1_555
C51 C52 1_555 1_555
C52 C53 1_555 1_555
C53 C54 1_555 1_555
C54 C55 1_555 1_555
C55 C56 1_555 1_555
C56 C51 1_555 1_555
C57 C56 1_555 1_555
C58 C49 1_555 1_555
C59 O11 1_555 1_555
C60 C59 1_555 1_555
C61 C60 1_555 1_555
C62 C61 1_555 1_555
C63 C62 1_555 1_555
C64 C59 1_555 1_555
C65 C64 1_555 1_555
C66 C65 1_555 1_555
C67 O12 1_555 1_555
C68 C67 1_555 1_555
C69 C66 1_555 1_555
C70 C65 1_555 1_555
C71 C70 1_555 1_555
C72 O13 1_555 1_555
C73 C72 1_555 1_555
C74 C73 1_555 1_555
C75 C74 1_555 1_555
C76 C75 1_555 1_555
C77 C76 1_555 1_555
C78 C77 1_555 1_555
C79 C74 1_555 1_555
C80 C79 1_555 1_555
C81 C72 1_555 1_555
C82 O16 1_555 1_555
C83 C82 1_555 1_555
C84 C83 1_555 1_555
C85 C82 1_555 1_555
C86 C62 1_555 1_555
C87 C86 1_555 1_555
C88 C87 1_555 1_555
C89 C88 1_555 1_555
C90 C93 1_555 1_555
C91 C71 1_555 1_555
C92 C94 1_555 1_555
C93 C89 1_555 1_555
C94 C91 1_555 1_555
C95 C92 1_555 1_555
C96 C90 1_555 1_555
H43 C52 1_555 1_555
H44 C53 1_555 1_555
H45 C54 1_555 1_555
H46 C55 1_555 1_555
H47 C60 1_555 1_555
H48 C63 1_555 1_555
H49 C65 1_555 1_555
H50 C68 1_555 1_555
H51 C69 1_555 1_555
H52 C70 1_555 1_555
H53 C70 1_555 1_555
H54 C71 1_555 1_555
H55 C71 1_555 1_555
H56 C75 1_555 1_555
H57 C76 1_555 1_555
H58 C77 1_555 1_555
H59 C78 1_555 1_555
H60 C84 1_555 1_555
H61 C85 1_555 1_555
H62 C86 1_555 1_555
H63 C87 1_555 1_555
H64 C87 1_555 1_555
H65 C88 1_555 1_555
H66 C88 1_555 1_555
H67 C89 1_555 1_555
H68 C89 1_555 1_555
H69 C90 1_555 1_555
H70 C90 1_555 1_555
H71 C91 1_555 1_555
H72 C91 1_555 1_555
H73 C92 1_555 1_555
H74 C92 1_555 1_555
H75 C93 1_555 1_555
H76 C93 1_555 1_555
H77 C94 1_555 1_555
H78 C94 1_555 1_555
H79 C95 1_555 1_555
H80 C95 1_555 1_555
H81 C95 1_555 1_555
H82 C96 1_555 1_555
H83 C96 1_555 1_555
H84 C96 1_555 1_555
O17 C97 1_555 1_555
C97 C98 1_555 1_555
C98 H85 1_555 1_555
H86 C98 1_555 1_555
H87 C98 1_555 1_555
O18 C99 1_555 1_555
C99 C100 1_555 1_555
C100 H88 1_555 1_555
H89 C100 1_555 1_555
H90 C100 1_555 1_555
O1B C2B 1_555 1_555
O2B C9B 1_555 1_555
O3B C10B 1_555 1_555
O4B C1B 1_555 1_555
O5B C29B 1_555 1_555
O6B C39B 1_555 1_555
O7B C46B 1_555 1_555
O8B C24B 1_555 1_555
C1B C2B 1_555 1_555
C2B C3B 1_555 1_555
C3B C4B 1_555 1_555
C4B C5B 1_555 1_555
C5B C6B 1_555 1_555
C6B C7B 1_555 1_555
C7B C8B 1_555 1_555
C8B C3B 1_555 1_555
C9B C8B 1_555 1_555
C10B C1B 1_555 1_555
C11B C14 1_555 1_555
C12B C13 1_555 1_555
C15B C12B 1_555 1_555
C16B C15B 1_555 1_555
C17B C16B 1_555 1_555
C18B C17B 1_555 1_555
C19B C18B 1_555 1_555
C20B C48B 1_555 1_555
C21B C15B 1_555 1_555
C22B C21B 1_555 1_555
C23B C22B 1_555 1_555
C24B C23B 1_555 1_555
C25B C24B 1_555 1_555
C26B O4B 1_555 1_555
C27B C23B 1_555 1_555
C28B C31 1_555 1_555
C29B C30 1_555 1_555
C32B C27B 1_555 1_555
C33B C32B 1_555 1_555
C34B C33B 1_555 1_555
C35B C34B 1_555 1_555
C36B C35B 1_555 1_555
C37B C36B 1_555 1_555
C38B O5B 1_555 1_555
C39B C38B 1_555 1_555
C40B C39B 1_555 1_555
C41B C40B 1_555 1_555
C42B C41B 1_555 1_555
C43B C42B 1_555 1_555
C44B C43B 1_555 1_555
C45B C40B 1_555 1_555
C46B C45B 1_555 1_555
C47B O8B 1_555 1_555
C48B C19B 1_555 1_555
H1B C4B 1_555 1_555
H2B C5B 1_555 1_555
H3B C6B 1_555 1_555
H4B C7B 1_555 1_555
H7B C15B 1_555 1_555
H8B C16B 1_555 1_555
H9B C16B 1_555 1_555
H10B C17B 1_555 1_555
H11B C17B 1_555 1_555
H12B C18B 1_555 1_555
H13B C18B 1_555 1_555
H14B C19B 1_555 1_555
H15B C19B 1_555 1_555
H16B C20B 1_555 1_555
H17B C20B 1_555 1_555
H18B C20B 1_555 1_555
H19B C22B 1_555 1_555
H20B C25B 1_555 1_555
H21B C27B 1_555 1_555
H24B C32B 1_555 1_555
H25B C32B 1_555 1_555
H26B C33B 1_555 1_555
H27B C33B 1_555 1_555
H28B C34B 1_555 1_555
H29B C34B 1_555 1_555
H30B C35B 1_555 1_555
H31B C35B 1_555 1_555
H32B C36B 1_555 1_555
H33B C36B 1_555 1_555
H34B C37B 1_555 1_555
H35B C37B 1_555 1_555
H36B C37B 1_555 1_555
H37B C41B 1_555 1_555
H38B C42B 1_555 1_555
H39B C43B 1_555 1_555
H40B C44B 1_555 1_555
H41B C48B 1_555 1_555
H42B C48B 1_555 1_555
O9B C50B 1_555 1_555
O10B C57B 1_555 1_555
O11B C58B 1_555 1_555
O12B C49B 1_555 1_555
O13B C61B 1_555 1_555
O14B C73B 1_555 1_555
O15B C80B 1_555 1_555
O16B C81B 1_555 1_555
C49B C50B 1_555 1_555
C50B C51B 1_555 1_555
C51B C52B 1_555 1_555
C52B C53B 1_555 1_555
C53B C54B 1_555 1_555
C54B C55B 1_555 1_555
C55B C56B 1_555 1_555
C56B C51B 1_555 1_555
C57B C56B 1_555 1_555
C58B C49B 1_555 1_555
C59B O11B 1_555 1_555
C60B C59B 1_555 1_555
C61B C60B 1_555 1_555
C62B C61B 1_555 1_555
C63B C62B 1_555 1_555
C64B C59B 1_555 1_555
C65B C64B 1_555 1_555
C66B C69 1_555 1_555
C67B C68 1_555 1_555
C70B C65B 1_555 1_555
C71B C70B 1_555 1_555
C72B O13B 1_555 1_555
C73B C72B 1_555 1_555
C74B C73B 1_555 1_555
C75B C74B 1_555 1_555
C76B C75B 1_555 1_555
C77B C76B 1_555 1_555
C78B C77B 1_555 1_555
C79B C74B 1_555 1_555
C80B C79B 1_555 1_555
C81B C72B 1_555 1_555
C82B C85 1_555 1_555
C83B C84 1_555 1_555
C86B C62B 1_555 1_555
C87B C86B 1_555 1_555
C88B C87B 1_555 1_555
C89B C88B 1_555 1_555
C90B C93B 1_555 1_555
C91B C71B 1_555 1_555
C92B C94B 1_555 1_555
C93B C89B 1_555 1_555
C94B C91B 1_555 1_555
C95B C92B 1_555 1_555
C96B C90B 1_555 1_555
H43B C52B 1_555 1_555
H44B C53B 1_555 1_555
H45B C54B 1_555 1_555
H46B C55B 1_555 1_555
H47B C60B 1_555 1_555
H48B C63B 1_555 1_555
H49B C65B 1_555 1_555
H52B C70B 1_555 1_555
H53B C70B 1_555 1_555
H54B C71B 1_555 1_555
H55B C71B 1_555 1_555
H56B C75B 1_555 1_555
H57B C76B 1_555 1_555
H58B C77B 1_555 1_555
H59B C78B 1_555 1_555
H62B C86B 1_555 1_555
H63B C87B 1_555 1_555
H64B C87B 1_555 1_555
H65B C88B 1_555 1_555
H66B C88B 1_555 1_555
H67B C89B 1_555 1_555
H68B C89B 1_555 1_555
H69B C90B 1_555 1_555
H70B C90B 1_555 1_555
H71B C91B 1_555 1_555
H72B C91B 1_555 1_555
H73B C92B 1_555 1_555
H74B C92B 1_555 1_555
H75B C93B 1_555 1_555
H76B C93B 1_555 1_555
H77B C94B 1_555 1_555
H78B C94B 1_555 1_555
H79B C95B 1_555 1_555
H80B C95B 1_555 1_555
H81B C95B 1_555 1_555
H82B C96B 1_555 1_555
H83B C96B 1_555 1_555
H84B C96B 1_555 1_555
C98B C97 1_555 1_555
H85B C98B 1_555 1_555
H86B C98B 1_555 1_555
H87B C98B 1_555 1_555
C100B C99 1_555 1_555
H88B C100B 1_555 1_555
H89B C100B 1_555 1_555
H90B C100B 1_555 1_555
C9 C10 1_555 1_555
C21 C26 1_555 1_555
C25 C26 1_555 1_555
C38 C47 1_555 1_555
C44 C45 1_555 1_555
C46 C47 1_555 1_555
C57 C58 1_555 1_555
C63 C64 1_555 1_555
C66 C67 1_555 1_555
C78 C79 1_555 1_555
C80 C81 1_555 1_555
C83 C86 1_555 1_555
O3B C11B 1_555 1_555
C9B C10B 1_555 1_555
C11B C12B 1_555 1_555
C21B C26B 1_555 1_555
C25B C26B 1_555 1_555
C27B C28B 1_555 1_555
C28B C29B 1_555 1_555
C38B C47B 1_555 1_555
C44B C45B 1_555 1_555
C46B C47B 1_555 1_555
O12B C67B 1_555 1_555
O16B C82B 1_555 1_555
C57B C58B 1_555 1_555
C63B C64B 1_555 1_555
C65B C66B 1_555 1_555
C66B C67B 1_555 1_555
C78B C79B 1_555 1_555
C80B C81B 1_555 1_555
C82B C83B 1_555 1_555
C83B C86B 1_555 1_555

#END
