
#######################################################################
#
#                 Cambridge Crystallographic Data Centre
#                                CCDC 
#
#######################################################################
#
# If this CIF has been generated from an entry in the Cambridge 
# Structural Database, then it will include bibliographic, chemical, 
# crystal, experimental, refinement or atomic coordinate data resulting 
# from the CCDC's data processing and validation procedures.
#
#######################################################################

data_PAFYAY
_chemical_formula_moiety         'C108 H92 N4 O12,8(C9 H12)'
_chemical_name_systematic        
'2,8,14,20-tetrahexyl-(4,24:12,16)-bis(pentacyclo[6.6.4.2^15,18^.0^2,7^.0^9,14^]icosa-2(7),4,9,11,13,15,17,19-octaene-3,6-dione-4,5-diolato)-(6,10:18,22)-bis(quinoxaline-1,4-diolato)resorcin(4)arene octamesitylene clathrate'
_symmetry_cell_setting           orthorhombic
_symmetry_space_group_name_H-M   'F d d 2'
_symmetry_Int_Tables_number      43
_space_group_name_Hall           'F 2 -2d'
loop_
_symmetry_equiv_pos_site_id
_symmetry_equiv_pos_as_xyz
1 x,y,z
2 -x,-y,z
3 1/4-x,1/4+y,1/4+z
4 1/4+x,1/4-y,1/4+z
5 x,1/2+y,1/2+z
6 -x,1/2-y,1/2+z
7 1/4-x,3/4+y,3/4+z
8 1/4+x,3/4-y,3/4+z
9 1/2+x,y,1/2+z
10 1/2-x,-y,1/2+z
11 3/4-x,1/4+y,3/4+z
12 3/4+x,1/4-y,3/4+z
13 1/2+x,1/2+y,z
14 1/2-x,1/2-y,z
15 3/4-x,3/4+y,1/4+z
16 3/4+x,3/4-y,1/4+z
_cell_length_a                   56.5840(15)
_cell_length_b                   57.3625(17)
_cell_length_c                   19.5367(5)
_cell_angle_alpha                90
_cell_angle_beta                 90
_cell_angle_gamma                90
_cell_volume                     63412.2
_exptl_crystal_colour            yellow
_exptl_crystal_description       plate
_cell_formula_units_Z            16
loop_
_atom_site_label
_atom_site_type_symbol
_atom_site_fract_x
_atom_site_fract_y
_atom_site_fract_z
C119 C 0.395389(17) 0.570112(17) 0.31064(5)
C120 C 0.378919(17) 0.559862(17) 0.35301(5)
H120 H 0.3839 0.5555 0.4037
C121 C 0.356259(17) 0.555152(17) 0.33178(5)
C122 C 0.349819(17) 0.560802(17) 0.26609(5)
H121 H 0.3323 0.5575 0.2498
C123 C 0.365789(17) 0.570712(17) 0.22032(5)
C124 C 0.388169(17) 0.575002(17) 0.24263(5)
H122 H 0.4006 0.5822 0.2080
C125 C 0.420179(17) 0.575282(17) 0.33538(5)
H123 H 0.4193 0.5860 0.3808
H124 H 0.4298 0.5844 0.2959
H125 H 0.4291 0.5591 0.3471
C126 C 0.338429(17) 0.543962(17) 0.38104(5)
H126 H 0.3370 0.5256 0.3700
H127 H 0.3214 0.5522 0.3747
H128 H 0.3444 0.5463 0.4331
C127 C 0.357069(17) 0.576942(17) 0.14875(5)
H129 H 0.3489 0.5619 0.1257
H130 H 0.3718 0.5825 0.1177
H131 H 0.3443 0.5909 0.1522
C128 C 0.477009(17) 0.413642(17) 0.68347(5)
C129 C 0.468739(17) 0.436052(17) 0.67079(5)
H132 H 0.4505 0.4388 0.6622
C130 C 0.484059(17) 0.454572(17) 0.66925(5)
C131 C 0.507959(17) 0.450852(17) 0.67890(5)
H133 H 0.5197 0.4652 0.6776
C132 C 0.516629(17) 0.429202(17) 0.69003(5)
C133 C 0.500889(17) 0.410612(17) 0.69154(5)
H134 H 0.5076 0.3935 0.6992
C134 C 0.460179(17) 0.393242(17) 0.68527(5)
H135 H 0.4423 0.3996 0.6895
H136 H 0.4642 0.3824 0.7288
H137 H 0.4620 0.3832 0.6388
C135 C 0.474669(17) 0.478702(17) 0.64893(5)
H138 H 0.4571 0.4769 0.6277
H139 H 0.4863 0.4864 0.6112
H140 H 0.4740 0.4898 0.6936
C136 C 0.542779(17) 0.425432(17) 0.69954(5)
H141 H 0.5524 0.4372 0.6667
H142 H 0.5472 0.4077 0.6865
H143 H 0.5475 0.4287 0.7522
C137 C 0.313599(17) 0.548013(17) 0.89517(5)
H144 H 0.2985 0.5566 0.9179
H145 H 0.3089 0.5415 0.8451
H146 H 0.3280 0.5603 0.8903
C138 C 0.304719(17) 0.464352(17) 0.96228(5)
H147 H 0.3123 0.4545 0.9206
H148 H 0.2862 0.4674 0.9521
H149 H 0.3065 0.4546 1.0093
C139 C 0.364169(17) 0.514472(17) 1.08248(5)
H150 H 0.3814 0.5093 1.0643
H151 H 0.3596 0.5044 1.1273
H152 H 0.3644 0.5328 1.0954
C185 C 0.33932(15) 0.52955(12) 0.9894(5)
H229 H 0.3478 0.5458 0.9971
C186 C 0.34615(15) 0.51022(17) 1.0275(4)
C187 C 0.33505(18) 0.48889(13) 1.0173(5)
H230 H 0.3403 0.4741 1.0463
C188 C 0.31713(17) 0.48687(12) 0.9690(5)
C189 C 0.31030(14) 0.50620(16) 0.9309(4)
H231 H 0.2966 0.5047 0.8941
C190 C 0.32139(15) 0.52754(13) 0.9411(4)
C140 C 0.710029(17) 0.560612(17) 0.50724(5)
C141 C 0.688339(17) 0.566052(17) 0.47082(5)
H153 H 0.6742 0.5743 0.4968
C142 C 0.686069(17) 0.560472(17) 0.40260(5)
C143 C 0.705389(17) 0.549662(17) 0.37061(5)
H154 H 0.7035 0.5453 0.3182
C144 C 0.725719(17) 0.544513(17) 0.40023(5)
C145 C 0.728059(17) 0.549622(17) 0.46629(5)
H155 H 0.7443 0.5453 0.4904
C146 C 0.710129(17) 0.566302(17) 0.58116(5)
H156 H 0.7235 0.5793 0.5913
H157 H 0.7140 0.5508 0.6103
H158 H 0.6930 0.5730 0.5958
C147 C 0.664489(17) 0.565482(17) 0.36570(5)
H159 H 0.6497 0.5650 0.4007
H160 H 0.6620 0.5526 0.3261
H161 H 0.6657 0.5826 0.3428
C148 C 0.746179(17) 0.532982(17) 0.36442(5)
H162 H 0.7414 0.5153 0.3508
H163 H 0.7613 0.5327 0.3981
H164 H 0.7505 0.5426 0.3186
C149 C 0.465459(17) 0.299552(17) 0.42671(5)
C150 C 0.479569(17) 0.301652(17) 0.48223(5)
H165 H 0.4926 0.3149 0.4825
C151 C 0.477749(17) 0.287702(17) 0.53695(5)
C152 C 0.460329(17) 0.271112(17) 0.53825(5)
H166 H 0.4585 0.2607 0.5827
C153 C 0.445329(17) 0.267452(17) 0.48551(5)
C154 C 0.447859(17) 0.280522(17) 0.43043(5)
H167 H 0.4369 0.2773 0.3874
C155 C 0.468379(17) 0.317532(17) 0.37181(5)
H168 H 0.4584 0.3329 0.3851
H169 H 0.4620 0.3106 0.3238
H170 H 0.4868 0.3220 0.3670
C156 C 0.494059(17) 0.292172(17) 0.59847(5)
H171 H 0.4970 0.2760 0.6256
H172 H 0.4859 0.3047 0.6324
H173 H 0.5108 0.2990 0.5806
C157 C 0.425899(17) 0.250442(17) 0.49958(5)
H174 H 0.4331 0.2352 0.5242
H175 H 0.4176 0.2455 0.4520
H176 H 0.4129 0.2584 0.5328
C158 C 0.261649(17) 0.495312(17) 0.66788(5)
H177 H 0.2585 0.4830 0.6271
H178 H 0.2450 0.5001 0.6911
H179 H 0.2730 0.4875 0.7059
C159 C 0.307649(17) 0.570082(17) 0.67461(5)
H180 H 0.2994 0.5766 0.7205
H181 H 0.3092 0.5840 0.6376
H182 H 0.3250 0.5635 0.6868
C160 C 0.272319(17) 0.545092(17) 0.46457(5)
H183 H 0.2776 0.5629 0.4553
H184 H 0.2539 0.5430 0.4514
H185 H 0.2829 0.5335 0.4336
C191 C 0.27260(17) 0.51521(13) 0.6413(5)
C192 C 0.28550(17) 0.53152(16) 0.6783(4)
H232 H 0.2892 0.5286 0.7309
C193 C 0.29361(15) 0.55167(14) 0.6465(5)
C194 C 0.28880(19) 0.55550(15) 0.5777(5)
H233 H 0.2950 0.5709 0.5534
C195 C 0.2759(2) 0.5392(2) 0.5406(4)
C196 C 0.26780(18) 0.51905(17) 0.5724(5)
H234 H 0.2580 0.5066 0.5442
C161 C 0.601499(17) 0.573972(17) 0.05931(5)
C162 C 0.627379(17) 0.581272(17) 0.06124(5)
H186 H 0.6312 0.5893 0.1100
H187 H 0.6308 0.5936 0.0206
H188 H 0.6385 0.5661 0.0545
C163 C 0.594809(17) 0.551362(17) 0.05000(5)
H189 H 0.6081 0.5384 0.0458
C164 C 0.571219(17) 0.544472(17) 0.04576(5)
C165 C 0.554409(17) 0.561902(17) 0.05063(5)
H190 H 0.5363 0.5572 0.0479
C166 C 0.559949(17) 0.585072(17) 0.05884(5)
C167 C 0.583999(17) 0.590622(17) 0.06509(5)
H191 H 0.5889 0.6082 0.0746
C168 C 0.564999(17) 0.519572(17) 0.03647(5)
H192 H 0.5730 0.5131 -0.0100
H193 H 0.5460 0.5178 0.0330
H194 H 0.5714 0.5096 0.0796
C169 C 0.541489(17) 0.603593(17) 0.06094(5)
H195 H 0.5362 0.6079 0.0094
H196 H 0.5486 0.6189 0.0857
H197 H 0.5264 0.5974 0.0893
C173 C 0.550899(17) 0.552462(17) 0.85131(5)
H207 H 0.5418 0.5376 0.8726
H208 H 0.5381 0.5646 0.8310
H209 H 0.5611 0.5609 0.8909
C174 C 0.578859(17) 0.489772(17) 0.69108(5)
H210 H 0.5949 0.4803 0.7027
H211 H 0.5765 0.4906 0.6363
H212 H 0.5640 0.4810 0.7139
C175 C 0.615819(17) 0.569482(17) 0.68601(5)
H213 H 0.6270 0.5757 0.7269
H214 H 0.6065 0.5840 0.6633
H215 H 0.6266 0.5611 0.6476
C203 C 0.56570(12) 0.52172(11) 0.7715(4)
H238 H 0.5533 0.5101 0.7934
C204 C 0.58059(13) 0.51417(8) 0.7195(3)
C205 C 0.59686(12) 0.52947(11) 0.6908(3)
H239 H 0.6082 0.5237 0.6511
C206 C 0.59825(13) 0.55231(10) 0.7141(3)
C207 C 0.58336(14) 0.55986(8) 0.7662(3)
H240 H 0.5844 0.5773 0.7840
C208 C 0.56708(12) 0.54457(12) 0.7949(3)
O1 O 0.50032(4) 0.36278(4) 0.49101(13)
O2 O 0.41668(5) 0.36518(4) 0.50851(13)
O3 O 0.43120(5) 0.34750(5) 0.63137(15)
O4 O 0.34661(5) 0.38845(5) 0.62348(14)
O5 O 0.48096(5) 0.33912(5) 0.11877(15)
O6 O 0.56534(5) 0.38019(6) 0.12321(15)
O7 O 0.37012(4) 0.38717(5) 0.50864(13)
O8 O 0.36477(5) 0.38002(6) 0.27091(14)
O9 O 0.41171(4) 0.36067(5) 0.25809(14)
O10 O 0.49577(4) 0.35797(5) 0.24079(13)
O11 O 0.54290(5) 0.37823(6) 0.23869(14)
O12 O 0.54790(4) 0.37931(5) 0.47756(13)
N1 N 0.35643(6) 0.36660(7) 0.16674(17)
N2 N 0.40347(6) 0.35171(7) 0.14647(18)
N3 N 0.55513(6) 0.36741(6) 0.58379(16)
N4 N 0.50795(6) 0.35374(6) 0.60367(16)
C2 C 0.47954(6) 0.37585(6) 0.50045(17)
C3 C 0.45841(6) 0.36428(7) 0.50500(18)
H3 H 0.4578 0.3458 0.5057
C4 C 0.43804(6) 0.37724(6) 0.50858(17)
C5 C 0.40264(6) 0.36705(7) 0.56560(18)
C6 C 0.41186(7) 0.35650(7) 0.6294(2)
C7 C 0.39600(7) 0.35778(8) 0.6902(2)
C8 C 0.40316(7) 0.34850(8) 0.7593(2)
H4 H 0.4205 0.3406 0.7593
C9 C 0.40122(8) 0.36899(9) 0.8075(2)
C10 C 0.41842(10) 0.37791(12) 0.8507(3)
H5 H 0.4355 0.3703 0.8520
C11 C 0.41321(16) 0.39655(16) 0.8916(3)
H6 H 0.4264 0.4033 0.9247
C12 C 0.39107(16) 0.40669(14) 0.8906(3)
H7 H 0.3875 0.4211 0.9229
C13 C 0.37298(11) 0.39809(10) 0.8471(2)
H8 H 0.3560 0.4058 0.8459
C14 C 0.37855(8) 0.37926(8) 0.8064(2)
C15 C 0.36176(7) 0.36719(7) 0.7558(2)
H9 H 0.3445 0.3751 0.7534
C16 C 0.38105(6) 0.37704(7) 0.56261(19)
C17 C 0.36133(7) 0.34176(7) 0.77875(19)
C18 C 0.34138(7) 0.32940(7) 0.7975(2)
H10 H 0.3244 0.3373 0.7961
C19 C 0.34411(8) 0.30630(8) 0.8185(2)
H11 H 0.3290 0.2964 0.8320
C20 C 0.36609(8) 0.29633(8) 0.8218(2)
H12 H 0.3678 0.2789 0.8391
C21 C 0.38643(8) 0.30894(9) 0.8025(2)
H13 H 0.4034 0.3012 0.8044
C22 C 0.38351(7) 0.33162(8) 0.7813(2)
C23 C 0.37479(7) 0.36741(7) 0.6883(2)
C24 C 0.36557(7) 0.37830(7) 0.62508(19)
C25 C 0.38140(7) 0.39168(7) 0.44648(19)
C26 C 0.37006(7) 0.38287(7) 0.38954(19)
H14 H 0.3549 0.3721 0.3949
C27 C 0.37883(6) 0.38837(7) 0.32486(19)
C28 C 0.37277(7) 0.36898(8) 0.21412(19)
C29 C 0.36338(7) 0.35653(8) 0.1057(2)
C30 C 0.34644(9) 0.35376(10) 0.0521(2)
H15 H 0.3284 0.3581 0.0602
C31 C 0.35384(10) 0.34535(12) -0.0098(3)
H16 H 0.3413 0.3432 -0.0496
C32 C 0.37708(10) 0.33962(12) -0.0218(3)
H17 H 0.3822 0.3336 -0.0709
C33 C 0.39395(9) 0.34156(10) 0.0295(3)
H18 H 0.4117 0.3367 0.0203
C34 C 0.38689(8) 0.35018(9) 0.0943(2)
C35 C 0.39635(7) 0.36025(7) 0.2037(2)
C36 C 0.43334(6) 0.37228(7) 0.24644(18)
C37 C 0.45363(7) 0.35944(7) 0.24438(19)
H19 H 0.4532 0.3410 0.2473
C38 C 0.47491(6) 0.37129(7) 0.23830(19)
C39 C 0.50976(7) 0.35910(8) 0.1832(2)
C40 C 0.50032(7) 0.34859(7) 0.1200(2)
C41 C 0.51512(7) 0.35037(7) 0.0579(2)
C42 C 0.50724(7) 0.34212(7) -0.0129(2)
H20 H 0.4902 0.3336 -0.0130
C43 C 0.52732(7) 0.32680(7) -0.0382(2)
C44 C 0.52528(9) 0.30432(8) -0.0651(2)
H21 H 0.5087 0.2958 -0.0667
C45 C 0.54546(10) 0.29328(9) -0.0897(3)
H22 H 0.5442 0.2762 -0.1099
C46 C 0.56743(9) 0.30445(9) -0.0882(3)
H23 H 0.5827 0.2957 -0.1067
C47 C 0.56934(8) 0.32704(8) -0.0624(2)
H24 H 0.5859 0.3357 -0.0616
C48 C 0.54934(7) 0.33800(8) -0.0380(2)
C49 C 0.53008(8) 0.37506(7) -0.0563(2)
C50 C 0.50807(7) 0.36396(7) -0.0568(2)
C51 C 0.48984(9) 0.37257(9) -0.0958(2)
H25 H 0.4732 0.3641 -0.0962
C52 C 0.49367(11) 0.39267(10) -0.1352(3)
H26 H 0.4798 0.3994 -0.1659
C53 C 0.51517(11) 0.40371(9) -0.1342(2)
H27 H 0.5177 0.4191 -0.1631
C54 C 0.53382(9) 0.39464(8) -0.0950(2)
H28 H 0.5506 0.4028 -0.0953
C55 C 0.54826(7) 0.36246(8) -0.01094(19)
H29 H 0.5653 0.3710 -0.0094
C56 C 0.53637(6) 0.36062(7) 0.05899(19)
C57 C 0.54646(7) 0.37021(8) 0.1226(2)
C58 C 0.53161(7) 0.38550(8) 0.2992(2)
C59 C 0.54259(7) 0.37821(7) 0.35872(19)
H30 H 0.5570 0.3664 0.3566
C60 C 0.53450(6) 0.38644(7) 0.42083(18)
C61 C 0.53938(6) 0.36934(7) 0.53633(19)
C62 C 0.53153(7) 0.36844(8) 0.1856(2)
C63 C 0.54782(8) 0.35832(7) 0.6448(2)
C64 C 0.56423(8) 0.35609(9) 0.6991(2)
H31 H 0.5822 0.3608 0.6919
C65 C 0.55663(9) 0.34778(9) 0.7616(2)
H32 H 0.5689 0.3458 0.8021
C66 C 0.53280(9) 0.34187(9) 0.7722(2)
H33 H 0.5272 0.3360 0.8210
C67 C 0.51693(8) 0.34364(8) 0.7206(2)
H34 H 0.4991 0.3386 0.7286
C68 C 0.52414(7) 0.35220(7) 0.6559(2)
C69 C 0.51553(6) 0.36182(6) 0.54579(18)
C70 C 0.48105(6) 0.40014(6) 0.50001(17)
C71 C 0.46027(6) 0.41257(7) 0.50377(18)
H35 H 0.4611 0.4310 0.5044
C72 C 0.43819(6) 0.40192(6) 0.50680(17)
C73 C 0.41474(7) 0.41514(7) 0.50299(19)
H36 H 0.4048 0.4108 0.5485
C74 C 0.41672(7) 0.44173(7) 0.4999(2)
H37 H 0.4261 0.4479 0.5445
H38 H 0.4267 0.4467 0.4551
C75 C 0.39229(8) 0.45307(8) 0.4969(3)
H39 H 0.3827 0.4482 0.5425
H40 H 0.3829 0.4459 0.4536
C76 C 0.39203(8) 0.47979(8) 0.4911(3)
H41 H 0.3993 0.4871 0.5374
H42 H 0.4033 0.4849 0.4492
C77 C 0.36774(9) 0.48984(8) 0.4797(3)
H43 H 0.3607 0.4826 0.4330
H44 H 0.3695 0.5084 0.4721
C78 C 0.35016(10) 0.48572(10) 0.5364(3)
H45 H 0.3566 0.4937 0.5828
H46 H 0.3487 0.4672 0.5456
C79 C 0.32510(9) 0.49566(11) 0.5200(4)
H47 H 0.3175 0.4860 0.4779
H48 H 0.3266 0.5138 0.5062
H49 H 0.3139 0.4940 0.5645
C80 C 0.40115(6) 0.40556(6) 0.44201(18)
C81 C 0.40939(6) 0.41041(6) 0.37641(19)
H50 H 0.4249 0.4206 0.3715
C82 C 0.39836(6) 0.40258(7) 0.31660(19)
C83 C 0.40921(7) 0.40950(8) 0.24819(19)
H51 H 0.3976 0.4032 0.2083
C84 C 0.41132(8) 0.43565(8) 0.2399(2)
H52 H 0.4196 0.4395 0.1913
H53 H 0.4225 0.4425 0.2799
C85 C 0.38708(10) 0.44791(10) 0.2430(3)
H56 H 0.3764 0.4403 0.2830
H57 H 0.3779 0.4458 0.1950
C87 C 0.4044(2) 0.4886(2) 0.2084(7)
H60 H 0.3963 0.4858 0.1590
H61 H 0.4222 0.4817 0.2058
C88 C 0.4061(3) 0.5146(2) 0.2205(8)
H62 H 0.4142 0.5177 0.2697
H63 H 0.3885 0.5219 0.2219
C90 C 0.43258(7) 0.39658(7) 0.24146(18)
C91 C 0.45433(6) 0.40777(7) 0.23626(18)
H67 H 0.4546 0.4262 0.2329
C92 C 0.47578(6) 0.39588(7) 0.23523(18)
C93 C 0.49950(7) 0.40843(8) 0.2359(2)
H68 H 0.5094 0.4022 0.1923
C94 C 0.49780(8) 0.43496(9) 0.2292(2)
H69 H 0.4904 0.4387 0.1794
H70 H 0.4851 0.4409 0.2667
C95 C 0.51988(18) 0.45000(16) 0.2371(6)
C96 C 0.5171(4) 0.4750(2) 0.2190(8)
C97 C 0.5107(7) 0.4770(6) 0.1437(13)
C100 C 0.51286(6) 0.40093(8) 0.29947(19)
C101 C 0.50518(6) 0.40855(7) 0.3642(2)
H83 H 0.4903 0.4198 0.3664
C102 C 0.51582(6) 0.40225(6) 0.42483(18)
C103 C 0.50549(6) 0.41134(6) 0.49163(18)
H84 H 0.5165 0.4048 0.5326
C104 C 0.50612(7) 0.43791(7) 0.4955(2)
H85 H 0.4959 0.4437 0.5389
H86 H 0.4983 0.4452 0.4498
C105 C 0.53177(7) 0.44655(7) 0.5025(3)
H87 H 0.5391 0.4398 0.5496
H88 H 0.5421 0.4395 0.4608
C106 C 0.53443(8) 0.47323(7) 0.5025(2)
H89 H 0.5206 0.4806 0.5339
H90 H 0.5511 0.4776 0.5261
C107 C 0.53344(8) 0.48456(8) 0.4327(3)
H91 H 0.5167 0.4805 0.4089
H92 H 0.5473 0.4774 0.4009
C108 C 0.53630(9) 0.51077(8) 0.4367(3)
H93 H 0.5221 0.5178 0.4672
H94 H 0.5527 0.5147 0.4627
C109 C 0.53635(11) 0.52280(10) 0.3678(4)
H95 H 0.5494 0.5148 0.3350
H96 H 0.5406 0.5410 0.3745
H97 H 0.5191 0.5212 0.3446
C110 C 0.3914(2) 0.47519(18) 0.2584(7)
H98 H 0.3744 0.4833 0.2651
H99 H 0.4006 0.4765 0.3067
C112 C 0.4205(3) 0.5269(4) 0.1645(10)
H102 H 0.4091 0.5311 0.1219
H103 H 0.4345 0.5155 0.1474
H104 H 0.4281 0.5427 0.1850
C114 C 0.4864(7) 0.4831(6) 0.146(2)
H108 H 0.4900 0.4668 0.1352
H109 H 0.4705 0.4869 0.1299
C1? C 0.3965(3) 0.4826(2) 0.2907(8)
H1? H 0.4141 0.4759 0.2983
H2? H 0.3859 0.4771 0.3338
H54? H 0.3753 0.4391 0.2080
H55? H 0.3800 0.4456 0.2939
C86? C 0.3865(2) 0.47208(19) 0.2276(7)
H58? H 0.3687 0.4780 0.2184
H59? H 0.3973 0.4760 0.1835
C89? C 0.4172(4) 0.5163(4) 0.2432(12)
H64? H 0.4157 0.5073 0.1949
H65? H 0.4340 0.5122 0.2666
H66? H 0.4160 0.5349 0.2347
H71? H 0.4916 0.4426 0.2764
H72? H 0.4857 0.4397 0.1886
H73? H 0.5257 0.4489 0.2896
H74? H 0.5337 0.4427 0.2055
H75? H 0.5335 0.4842 0.2287
H76? H 0.5035 0.4828 0.2500
H77? H 0.5268 0.4741 0.1153
H78? H 0.4993 0.4624 0.1325
C98? C 0.4992(10) 0.4979(7) 0.113(2)
H79? H 0.4807 0.4990 0.1260
H80? H 0.5011 0.4981 0.0576
C99? C 0.5352(3) 0.4371(3) 0.1498(11)
H81? H 0.5214 0.4378 0.1116
H82? H 0.5389 0.4188 0.1568
C111? C 0.5231(2) 0.4435(2) 0.2126(7)
H100? H 0.5226 0.4623 0.2141
H101? H 0.5342 0.4380 0.2545
C113? C 0.3975(3) 0.5087(2) 0.2898(8)
H105? H 0.4005 0.5152 0.3410
H106? H 0.3809 0.5156 0.2718
H107? H 0.5130 0.5148 0.1961
C115? C 0.5562(4) 0.4455(5) 0.1125(8)
H110? H 0.5715 0.4430 0.1447
H111? H 0.5543 0.4641 0.1046
C116? C 0.561199(17) 0.434272(17) 0.04347(5)
H112? H 0.5634 0.4174 0.0494
H113? H 0.5478 0.4371 0.0129
C117? C 0.582299(17) 0.440852(17) 0.00646(5)
H114? H 0.5916 0.4542 0.0347
H115? H 0.5775 0.4475 -0.0433
H116? H 0.5936 0.4258 0.0003
C118? C 0.53956(2) 0.43814(2) -0.00044(5)
H117? H 0.5239 0.4364 0.0306
H118? H 0.5392 0.4254 -0.0410
H119? H 0.5402 0.4554 -0.0223
C170? C 0.649229(17) 0.484792(17) 0.73765(5)
H198? H 0.6597 0.4784 0.6955
H199? H 0.6317 0.4775 0.7346
H200? H 0.6573 0.4797 0.7854
C171? C 0.690079(17) 0.560982(17) 0.75675(5)
H201? H 0.7023 0.5510 0.7876
H202? H 0.6846 0.5763 0.7845
H203? H 0.6986 0.5661 0.7097
C172? C 0.606959(17) 0.562362(17) 0.69991(5)
H204? H 0.6057 0.5758 0.7386
H205? H 0.5912 0.5517 0.7009
H206? H 0.6087 0.5704 0.6502
C176? C 0.333719(17) 0.485002(17) 0.73023(5)
H216? H 0.3360 0.5019 0.7069
H217? H 0.3157 0.4832 0.7475
H218? H 0.3376 0.4716 0.6932
C177? C 0.368279(17) 0.439942(17) 0.92649(5)
H219? H 0.3747 0.4254 0.8966
H220? H 0.3508 0.4360 0.9454
H221? H 0.3800 0.4430 0.9691
C178? C 0.388089(17) 0.522342(17) 0.89634(5)
H222? H 0.3766 0.5259 0.9392
H223? H 0.3877 0.5369 0.8613
H224? H 0.4059 0.5198 0.9146
H225? H 0.5755 0.4411 0.0236
C179? C 0.3673(5) 0.4612(3) 0.8827(12)
C180? C 0.3814(5) 0.4803(3) 0.8986(11)
H226? H 0.3934 0.4794 0.9402
C181? C 0.3798(5) 0.5006(3) 0.8599(12)
C182? C 0.3641(5) 0.5018(3) 0.8053(12)
H227? H 0.3629 0.5173 0.7758
C183? C 0.3500(5) 0.4827(4) 0.7895(12)
C184? C 0.3516(5) 0.4624(3) 0.8282(13)
H228? H 0.3408 0.4479 0.8161
C197? C 0.64775(19) 0.51088(13) 0.7341(7)
C198? C 0.66885(16) 0.52266(17) 0.7456(7)
H235? H 0.6844 0.5132 0.7576
C199? C 0.66957(16) 0.54683(17) 0.7412(7)
C200? C 0.64918(19) 0.55924(13) 0.7254(7)
H236? H 0.6497 0.5777 0.7221
C201? C 0.62808(16) 0.54746(17) 0.7139(7)
C202? C 0.62736(15) 0.52329(17) 0.7183(7)
H237? H 0.6113 0.5143 0.7095
loop_
_geom_bond_atom_site_label_1
_geom_bond_atom_site_label_2
_geom_bond_site_symmetry_1
_geom_bond_site_symmetry_2
O1 C2 1_555 1_555
O2 C4 1_555 1_555
O3 C6 1_555 1_555
O4 C24 1_555 1_555
O5 C40 1_555 1_555
O6 C57 1_555 1_555
O7 C16 1_555 1_555
O8 C27 1_555 1_555
O9 C35 1_555 1_555
O10 C38 1_555 1_555
O11 C58 1_555 1_555
O12 C60 1_555 1_555
N1 C28 1_555 1_555
N2 C34 1_555 1_555
N3 C61 1_555 1_555
N4 C68 1_555 1_555
C2 C3 1_555 1_555
C3 H3 1_555 1_555
C4 C3 1_555 1_555
C5 O2 1_555 1_555
C6 C5 1_555 1_555
C7 C6 1_555 1_555
C8 C7 1_555 1_555
H4 C8 1_555 1_555
C9 C8 1_555 1_555
C10 C9 1_555 1_555
H5 C10 1_555 1_555
C11 C10 1_555 1_555
H6 C11 1_555 1_555
C12 C11 1_555 1_555
H7 C12 1_555 1_555
C13 C12 1_555 1_555
H8 C13 1_555 1_555
C14 C9 1_555 1_555
C15 C14 1_555 1_555
H9 C15 1_555 1_555
C16 C5 1_555 1_555
C17 C15 1_555 1_555
C18 C17 1_555 1_555
H10 C18 1_555 1_555
C19 C18 1_555 1_555
H11 C19 1_555 1_555
C20 C19 1_555 1_555
H12 C20 1_555 1_555
C21 C20 1_555 1_555
H13 C21 1_555 1_555
C22 C8 1_555 1_555
C23 C7 1_555 1_555
C24 C16 1_555 1_555
C25 O7 1_555 1_555
C26 C25 1_555 1_555
H14 C26 1_555 1_555
C27 C26 1_555 1_555
C28 O8 1_555 1_555
C29 N1 1_555 1_555
C30 C29 1_555 1_555
H15 C30 1_555 1_555
C31 C30 1_555 1_555
H16 C31 1_555 1_555
C32 C31 1_555 1_555
H17 C32 1_555 1_555
C33 C32 1_555 1_555
H18 C33 1_555 1_555
C34 C29 1_555 1_555
C35 N2 1_555 1_555
C36 O9 1_555 1_555
C37 C36 1_555 1_555
H19 C37 1_555 1_555
C38 C37 1_555 1_555
C39 O10 1_555 1_555
C40 C39 1_555 1_555
C41 C40 1_555 1_555
C42 C41 1_555 1_555
H20 C42 1_555 1_555
C43 C42 1_555 1_555
C44 C43 1_555 1_555
H21 C44 1_555 1_555
C45 C44 1_555 1_555
H22 C45 1_555 1_555
C46 C45 1_555 1_555
H23 C46 1_555 1_555
C47 C46 1_555 1_555
H24 C47 1_555 1_555
C48 C43 1_555 1_555
C49 C50 1_555 1_555
C50 C42 1_555 1_555
C51 C50 1_555 1_555
H25 C51 1_555 1_555
C52 C51 1_555 1_555
H26 C52 1_555 1_555
C53 C52 1_555 1_555
H27 C53 1_555 1_555
C54 C49 1_555 1_555
H28 C54 1_555 1_555
C55 C48 1_555 1_555
H29 C55 1_555 1_555
C56 C41 1_555 1_555
C57 C56 1_555 1_555
C58 C59 1_555 1_555
C59 H30 1_555 1_555
C60 C59 1_555 1_555
C61 O12 1_555 1_555
C62 O11 1_555 1_555
C63 N3 1_555 1_555
C64 C63 1_555 1_555
H31 C64 1_555 1_555
C65 C64 1_555 1_555
H32 C65 1_555 1_555
C66 C65 1_555 1_555
H33 C66 1_555 1_555
C67 C66 1_555 1_555
H34 C67 1_555 1_555
C68 C63 1_555 1_555
C69 O1 1_555 1_555
C70 C2 1_555 1_555
C71 C70 1_555 1_555
H35 C71 1_555 1_555
C72 C4 1_555 1_555
C73 C72 1_555 1_555
H36 C73 1_555 1_555
C74 C73 1_555 1_555
H37 C74 1_555 1_555
H38 C74 1_555 1_555
C75 C74 1_555 1_555
H39 C75 1_555 1_555
H40 C75 1_555 1_555
C76 C75 1_555 1_555
H41 C76 1_555 1_555
H42 C76 1_555 1_555
C77 C76 1_555 1_555
H43 C77 1_555 1_555
H44 C77 1_555 1_555
C78 C77 1_555 1_555
H45 C78 1_555 1_555
H46 C78 1_555 1_555
C79 C78 1_555 1_555
H47 C79 1_555 1_555
H48 C79 1_555 1_555
H49 C79 1_555 1_555
C80 C25 1_555 1_555
C81 C80 1_555 1_555
H50 C81 1_555 1_555
C82 C27 1_555 1_555
C83 C82 1_555 1_555
H51 C83 1_555 1_555
C84 C83 1_555 1_555
H52 C84 1_555 1_555
H53 C84 1_555 1_555
C85 C84 1_555 1_555
H56 C85 1_555 1_555
H57 C85 1_555 1_555
C87 H60 1_555 1_555
H61 C87 1_555 1_555
C88 C87 1_555 1_555
H62 C88 1_555 1_555
H63 C88 1_555 1_555
C90 C36 1_555 1_555
C91 C90 1_555 1_555
H67 C91 1_555 1_555
C92 C38 1_555 1_555
C93 C92 1_555 1_555
H68 C93 1_555 1_555
C94 C93 1_555 1_555
H69 C94 1_555 1_555
H70 C94 1_555 1_555
C95 C94 1_555 1_555
C96 C95 1_555 1_555
C97 C96 1_555 1_555
C100 C58 1_555 1_555
C101 C100 1_555 1_555
H83 C101 1_555 1_555
C102 C60 1_555 1_555
C103 C70 1_555 1_555
H84 C103 1_555 1_555
C104 C103 1_555 1_555
H85 C104 1_555 1_555
H86 C104 1_555 1_555
C105 C104 1_555 1_555
H87 C105 1_555 1_555
H88 C105 1_555 1_555
C106 C105 1_555 1_555
H89 C106 1_555 1_555
H90 C106 1_555 1_555
C107 C106 1_555 1_555
H91 C107 1_555 1_555
H92 C107 1_555 1_555
C108 C107 1_555 1_555
H93 C108 1_555 1_555
H94 C108 1_555 1_555
C109 C108 1_555 1_555
H95 C109 1_555 1_555
H96 C109 1_555 1_555
H97 C109 1_555 1_555
C110 C85 1_555 1_555
H98 C110 1_555 1_555
H99 C110 1_555 1_555
C112 C88 1_555 1_555
H102 C112 1_555 1_555
H103 C112 1_555 1_555
H104 C112 1_555 1_555
C114 C97 1_555 1_555
H108 C114 1_555 1_555
H109 C114 1_555 1_555
C119 C120 1_555 1_555
C120 H120 1_555 1_555
C121 C120 1_555 1_555
C122 C121 1_555 1_555
H121 C122 1_555 1_555
C123 C122 1_555 1_555
C124 C119 1_555 1_555
H122 C124 1_555 1_555
C125 C119 1_555 1_555
H123 C125 1_555 1_555
H124 C125 1_555 1_555
H125 C125 1_555 1_555
C126 C121 1_555 1_555
H126 C126 1_555 1_555
H127 C126 1_555 1_555
H128 C126 1_555 1_555
C127 C123 1_555 1_555
H129 C127 1_555 1_555
H130 C127 1_555 1_555
H131 C127 1_555 1_555
C128 C129 1_555 1_555
C129 H132 1_555 1_555
C130 C129 1_555 1_555
C131 C130 1_555 1_555
H133 C131 1_555 1_555
C132 C131 1_555 1_555
C133 C128 1_555 1_555
H134 C133 1_555 1_555
C134 C128 1_555 1_555
H135 C134 1_555 1_555
H136 C134 1_555 1_555
H137 C134 1_555 1_555
C135 C130 1_555 1_555
H138 C135 1_555 1_555
H139 C135 1_555 1_555
H140 C135 1_555 1_555
C136 C132 1_555 1_555
H141 C136 1_555 1_555
H142 C136 1_555 1_555
H143 C136 1_555 1_555
C137 H144 1_555 1_555
H145 C137 1_555 1_555
H146 C137 1_555 1_555
C138 H147 1_555 1_555
H148 C138 1_555 1_555
H149 C138 1_555 1_555
C139 H150 1_555 1_555
H151 C139 1_555 1_555
H152 C139 1_555 1_555
C140 C141 1_555 1_555
C141 H153 1_555 1_555
C142 C141 1_555 1_555
C143 C142 1_555 1_555
H154 C143 1_555 1_555
C144 C143 1_555 1_555
C145 C140 1_555 1_555
H155 C145 1_555 1_555
C146 C140 1_555 1_555
H156 C146 1_555 1_555
H157 C146 1_555 1_555
H158 C146 1_555 1_555
C147 C142 1_555 1_555
H159 C147 1_555 1_555
H160 C147 1_555 1_555
H161 C147 1_555 1_555
C148 C144 1_555 1_555
H162 C148 1_555 1_555
H163 C148 1_555 1_555
H164 C148 1_555 1_555
C149 C150 1_555 1_555
C150 H165 1_555 1_555
C151 C150 1_555 1_555
C152 C151 1_555 1_555
H166 C152 1_555 1_555
C153 C152 1_555 1_555
C154 C149 1_555 1_555
H167 C154 1_555 1_555
C155 C149 1_555 1_555
H168 C155 1_555 1_555
H169 C155 1_555 1_555
H170 C155 1_555 1_555
C156 C151 1_555 1_555
H171 C156 1_555 1_555
H172 C156 1_555 1_555
H173 C156 1_555 1_555
C157 C153 1_555 1_555
H174 C157 1_555 1_555
H175 C157 1_555 1_555
H176 C157 1_555 1_555
C158 H177 1_555 1_555
H178 C158 1_555 1_555
H179 C158 1_555 1_555
C159 H180 1_555 1_555
H181 C159 1_555 1_555
H182 C159 1_555 1_555
C160 H183 1_555 1_555
H184 C160 1_555 1_555
H185 C160 1_555 1_555
C161 C162 1_555 1_555
C162 H186 1_555 1_555
H187 C162 1_555 1_555
H188 C162 1_555 1_555
C163 C161 1_555 1_555
H189 C163 1_555 1_555
C164 C163 1_555 1_555
C165 C164 1_555 1_555
H190 C165 1_555 1_555
C166 C165 1_555 1_555
C167 C161 1_555 1_555
H191 C167 1_555 1_555
C168 C164 1_555 1_555
H192 C168 1_555 1_555
H193 C168 1_555 1_555
H194 C168 1_555 1_555
C169 C166 1_555 1_555
H195 C169 1_555 1_555
H196 C169 1_555 1_555
H197 C169 1_555 1_555
C173 H207 1_555 1_555
H208 C173 1_555 1_555
H209 C173 1_555 1_555
C174 H210 1_555 1_555
H211 C174 1_555 1_555
H212 C174 1_555 1_555
C175 H213 1_555 1_555
H214 C175 1_555 1_555
H215 C175 1_555 1_555
C185 H229 1_555 1_555
C186 C139 1_555 1_555
C187 C186 1_555 1_555
H230 C187 1_555 1_555
C188 C138 1_555 1_555
C189 C188 1_555 1_555
H231 C189 1_555 1_555
C190 C137 1_555 1_555
C191 C158 1_555 1_555
C192 C191 1_555 1_555
H232 C192 1_555 1_555
C193 C159 1_555 1_555
C194 C193 1_555 1_555
H233 C194 1_555 1_555
C195 C160 1_555 1_555
C196 C191 1_555 1_555
H234 C196 1_555 1_555
C203 H238 1_555 1_555
C204 C174 1_555 1_555
C205 C204 1_555 1_555
H239 C205 1_555 1_555
C206 C175 1_555 1_555
C207 C206 1_555 1_555
H240 C207 1_555 1_555
C208 C173 1_555 1_555
N4 C69 1_555 1_555
C13 C14 1_555 1_555
C15 C23 1_555 1_555
C17 C22 1_555 1_555
C21 C22 1_555 1_555
C23 C24 1_555 1_555
C28 C35 1_555 1_555
C33 C34 1_555 1_555
C39 C62 1_555 1_555
C47 C48 1_555 1_555
C49 C55 1_555 1_555
C53 C54 1_555 1_555
C55 C56 1_555 1_555
C57 C62 1_555 1_555
C61 C69 1_555 1_555
C67 C68 1_555 1_555
C71 C72 1_555 1_555
C73 C80 1_555 1_555
C81 C82 1_555 1_555
C83 C90 1_555 1_555
C87 C110 1_555 1_555
C91 C92 1_555 1_555
C93 C100 1_555 1_555
C101 C102 1_555 1_555
C102 C103 1_555 1_555
C123 C124 1_555 1_555
C132 C133 1_555 1_555
C144 C145 1_555 1_555
C153 C154 1_555 1_555
C166 C167 1_555 1_555
C185 C186 1_555 1_555
C185 C190 1_555 1_555
C187 C188 1_555 1_555
C189 C190 1_555 1_555
C192 C193 1_555 1_555
C194 C195 1_555 1_555
C195 C196 1_555 1_555
C203 C204 1_555 1_555
C203 C208 1_555 1_555
C205 C206 1_555 1_555
C207 C208 1_555 1_555

#END
