
#######################################################################
#
#                 Cambridge Crystallographic Data Centre
#                                CCDC 
#
#######################################################################
#
# If this CIF has been generated from an entry in the Cambridge 
# Structural Database, then it will include bibliographic, chemical, 
# crystal, experimental, refinement or atomic coordinate data resulting 
# from the CCDC's data processing and validation procedures.
#
#######################################################################

data_PAGQOG
_chemical_formula_moiety         'C13 H6 F6 N2 O2'
_chemical_name_systematic        
2-(3,5-bis(trifluoromethyl)phenyl)-5-nitropyridine
_symmetry_cell_setting           monoclinic
_symmetry_space_group_name_H-M   'P 21/c'
_symmetry_Int_Tables_number      14
_space_group_name_Hall           '-P 2ybc'
loop_
_symmetry_equiv_pos_site_id
_symmetry_equiv_pos_as_xyz
1 x,y,z
2 -x,1/2+y,1/2-z
3 -x,-y,-z
4 x,1/2-y,1/2+z
_cell_length_a                   8.105(4)
_cell_length_b                   19.783(10)
_cell_length_c                   17.307(9)
_cell_angle_alpha                90
_cell_angle_beta                 91.125(7)
_cell_angle_gamma                90
_cell_volume                     2774.49
_exptl_crystal_colour            colorless
_exptl_crystal_description       Bulk
_cell_formula_units_Z            8
loop_
_atom_site_label
_atom_site_type_symbol
_atom_site_fract_x
_atom_site_fract_y
_atom_site_fract_z
C1 C 0.2312(3) 0.16531(11) 0.48902(14)
H1 H 0.2254 0.1186 0.4838
C2 C 0.3055(3) 0.20186(11) 0.43260(12)
C3 C 0.3136(3) 0.27084(11) 0.43829(12)
H2 H 0.3631 0.2967 0.4003
C4 C 0.2469(3) 0.30026(10) 0.50142(12)
H3 H 0.2493 0.3470 0.5067
C5 C 0.1752(2) 0.26095(9) 0.55795(11)
C6 C 0.1043(2) 0.29029(10) 0.62912(11)
C7 C 0.0335(3) 0.24838(12) 0.68429(12)
H4 H 0.0294 0.2019 0.6761
C8 C -0.0302(3) 0.27536(14) 0.75077(13)
C9 C -0.0243(3) 0.34448(14) 0.76511(14)
H5 H -0.0682 0.3623 0.8100
C10 C 0.0472(3) 0.38588(13) 0.71199(14)
C11 C 0.1121(3) 0.35942(11) 0.64463(12)
H6 H 0.1614 0.3882 0.6094
C12 C -0.1069(3) 0.22924(18) 0.80790(15)
C13 C 0.0599(4) 0.46023(16) 0.72631(18)
N1 N 0.1665(2) 0.19394(8) 0.55143(11)
N2 N 0.3707(3) 0.16753(11) 0.36460(12)
O1 O 0.4061(3) 0.20068(11) 0.30962(11)
O2 O 0.3781(4) 0.10678(11) 0.36573(15)
F1 F -0.1386(4) 0.16383(17) 0.77859(18)
F2 F -0.2628(3) 0.25114(18) 0.82235(18)
F3 F -0.0296(5) 0.2191(2) 0.8677(2)
F4 F 0.2080(3) 0.48511(10) 0.71162(16)
F5 F -0.0440(4) 0.49598(11) 0.67949(18)
F6 F 0.0273(4) 0.47894(14) 0.79705(14)
C14 C 0.2594(4) 0.61668(11) 0.49396(14)
H7 H 0.2059 0.6034 0.5385
C15 C 0.3157(3) 0.56835(10) 0.44537(12)
C16 C 0.3954(3) 0.58567(10) 0.37922(12)
H8 H 0.4360 0.5530 0.3459
C17 C 0.4127(3) 0.65344(10) 0.36436(11)
H9 H 0.4633 0.6675 0.3193
C18 C 0.3559(2) 0.70053(9) 0.41550(10)
C19 C 0.3741(2) 0.77503(9) 0.40469(10)
C20 C 0.4666(2) 0.80217(9) 0.34556(11)
H10 H 0.5197 0.7735 0.3115
C21 C 0.4807(3) 0.87179(10) 0.33671(13)
C22 C 0.4051(3) 0.91470(10) 0.38676(13)
H11 H 0.4150 0.9612 0.3809
C23 C 0.3128(3) 0.88797(10) 0.44680(14)
C24 C 0.2977(2) 0.81866(9) 0.45511(12)
H12 H 0.2354 0.8013 0.4950
C25 C 0.5779(4) 0.90020(12) 0.27190(16)
C26 C 0.2285(3) 0.93471(13) 0.50002(17)
N3 N 0.2782(3) 0.68224(8) 0.47999(10)
N4 N 0.2955(3) 0.49663(9) 0.46505(12)
O3 O 0.3641(3) 0.45451(8) 0.42863(12)
O4 O 0.2130(4) 0.48339(10) 0.52007(14)
F13 F 0.6008(4) 0.96398(12) 0.27380(17)
F14 F 0.4837(4) 0.89097(17) 0.20073(15)
F15 F 0.7124(4) 0.86894(17) 0.25785(19)
F16 F 0.3239(4) 0.98500(15) 0.52666(19)
F17 F 0.0897(4) 0.96222(17) 0.4541(2)
F18 F 0.1525(4) 0.90795(12) 0.55280(14)
F7? F -0.0832(5) 0.2592(2) 0.88297(16)
F8? F -0.0136(6) 0.1740(2) 0.8260(2)
F9? F -0.2479(6) 0.2137(3) 0.7988(3)
F10? F 0.0637(17) 0.4892(5) 0.6720(7)
F11? F -0.0909(14) 0.4724(5) 0.7589(7)
F12? F 0.1426(19) 0.4769(8) 0.7742(10)
F19? F 0.6407(6) 0.8597(2) 0.2291(2)
F20? F 0.7366(6) 0.9226(3) 0.3123(3)
F21? F 0.5295(7) 0.9518(2) 0.2450(3)
F22? F 0.0840(5) 0.9209(2) 0.5193(3)
F23? F 0.2973(7) 0.9175(2) 0.5852(3)
F24? F 0.2522(5) 0.99374(15) 0.4949(3)
loop_
_geom_bond_atom_site_label_1
_geom_bond_atom_site_label_2
_geom_bond_site_symmetry_1
_geom_bond_site_symmetry_2
C1 H1 1_555 1_555
C2 C1 1_555 1_555
C3 C2 1_555 1_555
H2 C3 1_555 1_555
C4 C3 1_555 1_555
H3 C4 1_555 1_555
C5 C4 1_555 1_555
C6 C5 1_555 1_555
C7 C6 1_555 1_555
H4 C7 1_555 1_555
C8 C7 1_555 1_555
C9 C8 1_555 1_555
H5 C9 1_555 1_555
C10 C9 1_555 1_555
C11 C6 1_555 1_555
H6 C11 1_555 1_555
C12 C8 1_555 1_555
C13 C10 1_555 1_555
N1 C1 1_555 1_555
N2 C2 1_555 1_555
O1 N2 1_555 1_555
O2 N2 1_555 1_555
F1 C12 1_555 1_555
F2 C12 1_555 1_555
F3 C12 1_555 1_555
F4 C13 1_555 1_555
F5 C13 1_555 1_555
F6 C13 1_555 1_555
C14 H7 1_555 1_555
C15 C14 1_555 1_555
C16 C15 1_555 1_555
H8 C16 1_555 1_555
C17 C16 1_555 1_555
H9 C17 1_555 1_555
C18 C17 1_555 1_555
C19 C18 1_555 1_555
C20 C19 1_555 1_555
H10 C20 1_555 1_555
C21 C20 1_555 1_555
C22 C21 1_555 1_555
H11 C22 1_555 1_555
C23 C22 1_555 1_555
C24 C19 1_555 1_555
H12 C24 1_555 1_555
C25 C21 1_555 1_555
C26 C23 1_555 1_555
N3 C14 1_555 1_555
N4 C15 1_555 1_555
O3 N4 1_555 1_555
O4 N4 1_555 1_555
F13 C25 1_555 1_555
F14 C25 1_555 1_555
F15 C25 1_555 1_555
F16 C26 1_555 1_555
F17 C26 1_555 1_555
F18 C26 1_555 1_555
C5 N1 1_555 1_555
C10 C11 1_555 1_555
C18 N3 1_555 1_555
C23 C24 1_555 1_555

#END
