
#######################################################################
#
#                 Cambridge Crystallographic Data Centre
#                                CCDC 
#
#######################################################################
#
# If this CIF has been generated from an entry in the Cambridge 
# Structural Database, then it will include bibliographic, chemical, 
# crystal, experimental, refinement or atomic coordinate data resulting 
# from the CCDC's data processing and validation procedures.
#
#######################################################################

data_PAGQIX
_chemical_formula_moiety         'C34 H52 N2 O2'
_chemical_name_systematic        
Glyoxal-bis(2-(methoxymethyl)-4,6-di-t-butylphenyl)-di-imine
_symmetry_cell_setting           triclinic
_symmetry_space_group_name_H-M   'P -1'
_symmetry_Int_Tables_number      2
_space_group_name_Hall           '-P 1'
loop_
_symmetry_equiv_pos_site_id
_symmetry_equiv_pos_as_xyz
1 x,y,z
2 -x,-y,-z
_cell_length_a                   5.7600(13)
_cell_length_b                   9.383(2)
_cell_length_c                   14.954(3)
_cell_angle_alpha                89.38(2)
_cell_angle_beta                 79.67(2)
_cell_angle_gamma                88.14(2)
_cell_volume                     794.676
_exptl_crystal_colour            yellow
_cell_formula_units_Z            1
loop_
_atom_site_label
_atom_site_type_symbol
_atom_site_fract_x
_atom_site_fract_y
_atom_site_fract_z
O1 O 0.2503(3) 0.8483(2) 0.4772(1)
N1 N 0.2435(3) 0.4863(2) 0.4114(1)
C1 C 0.3815(4) 0.5716(2) 0.3437(2)
C2 C 0.4837(4) 0.6946(2) 0.3688(2)
C3 C 0.6315(4) 0.7722(3) 0.3030(2)
C4 C 0.6748(4) 0.7345(2) 0.2124(2)
C5 C 0.5709(4) 0.6120(2) 0.1896(2)
C6 C 0.4304(4) 0.5241(2) 0.2520(2)
C7 C 0.8237(4) 0.8260(2) 0.1390(2)
C8 C 1.0011(5) 0.7336(3) 0.0740(2)
C9 C 0.6558(5) 0.9037(3) 0.0849(2)
C10 C 0.9606(5) 0.9377(3) 0.1804(2)
C11 C 0.3350(4) 0.3847(2) 0.2219(2)
C12 C 0.0640(4) 0.3929(3) 0.2362(2)
C13 C 0.4157(5) 0.2566(3) 0.2743(2)
C14 C 0.4215(5) 0.3555(3) 0.1202(2)
C15 C 0.4451(4) 0.7488(3) 0.4653(2)
C16 C 0.1950(5) 0.8970(3) 0.5686(2)
C17 C 0.0656(4) 0.5430(3) 0.4631(2)
H1 H 0.7049(4) 0.8536(3) 0.3212(2)
H2 H 0.5968(4) 0.5858(2) 0.1273(2)
H3 H 0.9168(5) 0.6613(3) 0.0468(2)
H4 H 1.1134(5) 0.6866(3) 0.1077(2)
H5 H 1.0866(5) 0.7938(3) 0.0260(2)
H6 H 0.5666(5) 0.8337(3) 0.0579(2)
H7 H 0.7473(5) 0.9608(3) 0.0366(2)
H8 H 0.5461(5) 0.9664(3) 0.1256(2)
H9 H 1.0691(5) 0.8897(3) 0.2153(2)
H10 H 0.8496(5) 1.0002(3) 0.2206(2)
H11 H 1.0508(5) 0.9946(3) 0.1316(2)
H12 H 0.0130(4) 0.4749(3) 0.2026(2)
H13 H -0.0003(4) 0.4038(3) 0.3011(2)
H14 H 0.0064(4) 0.3052(3) 0.2140(2)
H15 H 0.5886(5) 0.2517(3) 0.2650(2)
H16 H 0.3585(5) 0.1688(3) 0.2521(2)
H17 H 0.3517(5) 0.2674(3) 0.3392(2)
H18 H 0.3729(5) 0.4355(3) 0.0844(2)
H19 H 0.3525(5) 0.2677(3) 0.1033(2)
H20 H 0.5940(5) 0.3445(3) 0.1081(2)
H21 H 0.4116(4) 0.6685(3) 0.5087(2)
H22 H 0.5884(4) 0.7956(3) 0.4768(2)
H23 H 0.0607(5) 0.9652(3) 0.5749(2)
H24 H 0.3320(5) 0.9436(3) 0.5844(2)
H25 H 0.1543(5) 0.8157(3) 0.6094(2)
H26 H 0.0183(4) 0.6392(3) 0.4541(2)
C17A C -0.0656(4) 0.4570(3) 0.5369(2)
N1A N -0.2435(3) 0.5137(2) 0.5886(1)
C1A C -0.3815(4) 0.4284(2) 0.6563(2)
C2A C -0.4837(4) 0.3054(2) 0.6312(2)
C3A C -0.6315(4) 0.2278(3) 0.6970(2)
C4A C -0.6748(4) 0.2655(2) 0.7876(2)
C5A C -0.5709(4) 0.3880(2) 0.8104(2)
C6A C -0.4304(4) 0.4759(2) 0.7480(2)
C11A C -0.3350(4) 0.6153(2) 0.7781(2)
C12A C -0.0640(4) 0.6071(3) 0.7638(2)
H12A H -0.0130(4) 0.5251(3) 0.7974(2)
H13A H 0.0003(4) 0.5962(3) 0.6989(2)
H14A H -0.0064(4) 0.6948(3) 0.7860(2)
C13A C -0.4157(5) 0.7434(3) 0.7257(2)
H15A H -0.5886(5) 0.7483(3) 0.7350(2)
H16A H -0.3585(5) 0.8312(3) 0.7479(2)
H17A H -0.3517(5) 0.7326(3) 0.6608(2)
C14A C -0.4215(5) 0.6445(3) 0.8798(2)
H18A H -0.3729(5) 0.5645(3) 0.9156(2)
H19A H -0.3525(5) 0.7323(3) 0.8967(2)
H20A H -0.5940(5) 0.6555(3) 0.8919(2)
H2A H -0.5968(4) 0.4142(2) 0.8727(2)
C7A C -0.8237(4) 0.1740(2) 0.8610(2)
C8A C -1.0011(5) 0.2664(3) 0.9260(2)
H3A H -0.9168(5) 0.3387(3) 0.9532(2)
H4A H -1.1134(5) 0.3134(3) 0.8923(2)
H5A H -1.0866(5) 0.2062(3) 0.9740(2)
C9A C -0.6558(5) 0.0963(3) 0.9151(2)
H6A H -0.5666(5) 0.1663(3) 0.9421(2)
H7A H -0.7473(5) 0.0392(3) 0.9634(2)
H8A H -0.5461(5) 0.0336(3) 0.8744(2)
C10A C -0.9606(5) 0.0623(3) 0.8196(2)
H9A H -1.0691(5) 0.1103(3) 0.7847(2)
H10A H -0.8496(5) -0.0002(3) 0.7794(2)
H11A H -1.0508(5) 0.0054(3) 0.8684(2)
H1A H -0.7049(4) 0.1464(3) 0.6788(2)
C15A C -0.4451(4) 0.2512(3) 0.5347(2)
O1A O -0.2503(3) 0.1517(2) 0.5228(1)
C16A C -0.1950(5) 0.1030(3) 0.4314(2)
H23A H -0.0607(5) 0.0348(3) 0.4251(2)
H24A H -0.3320(5) 0.0564(3) 0.4156(2)
H25A H -0.1543(5) 0.1843(3) 0.3906(2)
H21A H -0.4116(4) 0.3315(3) 0.4913(2)
H22A H -0.5884(4) 0.2044(3) 0.5232(2)
H26A H -0.0183(4) 0.3608(3) 0.5459(2)
loop_
_geom_bond_atom_site_label_1
_geom_bond_atom_site_label_2
_geom_bond_site_symmetry_1
_geom_bond_site_symmetry_2
O1 C15 1_555 1_555
N1 C1 1_555 1_555
C1 C2 1_555 1_555
C2 C3 1_555 1_555
C3 C4 1_555 1_555
C4 C5 1_555 1_555
C5 C6 1_555 1_555
C6 C1 1_555 1_555
C7 C4 1_555 1_555
C8 C7 1_555 1_555
C9 C7 1_555 1_555
C10 C7 1_555 1_555
C11 C6 1_555 1_555
C12 C11 1_555 1_555
C13 C11 1_555 1_555
C14 C11 1_555 1_555
C15 C2 1_555 1_555
C16 O1 1_555 1_555
C17 N1 1_555 1_555
H1 C3 1_555 1_555
H2 C5 1_555 1_555
H3 C8 1_555 1_555
H4 C8 1_555 1_555
H5 C8 1_555 1_555
H6 C9 1_555 1_555
H7 C9 1_555 1_555
H8 C9 1_555 1_555
H9 C10 1_555 1_555
H10 C10 1_555 1_555
H11 C10 1_555 1_555
H12 C12 1_555 1_555
H13 C12 1_555 1_555
H14 C12 1_555 1_555
H15 C13 1_555 1_555
H16 C13 1_555 1_555
H17 C13 1_555 1_555
H18 C14 1_555 1_555
H19 C14 1_555 1_555
H20 C14 1_555 1_555
H21 C15 1_555 1_555
H22 C15 1_555 1_555
H23 C16 1_555 1_555
H24 C16 1_555 1_555
H25 C16 1_555 1_555
H26 C17 1_555 1_555
C17A C17 1_555 1_555
N1A C17A 1_555 1_555
C1A N1A 1_555 1_555
C2A C1A 1_555 1_555
C3A C2A 1_555 1_555
C4A C3A 1_555 1_555
C5A C4A 1_555 1_555
C6A C1A 1_555 1_555
C11A C6A 1_555 1_555
C12A C11A 1_555 1_555
H12A C12A 1_555 1_555
H13A C12A 1_555 1_555
H14A C12A 1_555 1_555
C13A C11A 1_555 1_555
H15A C13A 1_555 1_555
H16A C13A 1_555 1_555
H17A C13A 1_555 1_555
C14A C11A 1_555 1_555
H18A C14A 1_555 1_555
H19A C14A 1_555 1_555
H20A C14A 1_555 1_555
H2A C5A 1_555 1_555
C7A C4A 1_555 1_555
C8A C7A 1_555 1_555
H3A C8A 1_555 1_555
H4A C8A 1_555 1_555
H5A C8A 1_555 1_555
C9A C7A 1_555 1_555
H6A C9A 1_555 1_555
H7A C9A 1_555 1_555
H8A C9A 1_555 1_555
C10A C7A 1_555 1_555
H9A C10A 1_555 1_555
H10A C10A 1_555 1_555
H11A C10A 1_555 1_555
H1A C3A 1_555 1_555
C15A C2A 1_555 1_555
O1A C15A 1_555 1_555
C16A O1A 1_555 1_555
H23A C16A 1_555 1_555
H24A C16A 1_555 1_555
H25A C16A 1_555 1_555
H21A C15A 1_555 1_555
H22A C15A 1_555 1_555
H26A C17A 1_555 1_555
C5A C6A 1_555 1_555

#END
