
#######################################################################
#
#                 Cambridge Crystallographic Data Centre
#                                CCDC 
#
#######################################################################
#
# If this CIF has been generated from an entry in the Cambridge 
# Structural Database, then it will include bibliographic, chemical, 
# crystal, experimental, refinement or atomic coordinate data resulting 
# from the CCDC's data processing and validation procedures.
#
#######################################################################

data_PAHBOQ
_chemical_name_common            'Validamine chloride'
_chemical_formula_moiety         'C7 H16 N1 O4 1+,Cl1 1-'
_chemical_name_systematic        
'(+)-(1S,2S,3S,4R,5R)-1-Ammonio-5-hydroxymethylcyclohexane-2,3,4-triol chloride'
_chemical_properties_biological  'antibiotic activity'
_symmetry_cell_setting           orthorhombic
_symmetry_space_group_name_H-M   'P 21 21 21'
_symmetry_Int_Tables_number      19
_space_group_name_Hall           'P 2ac 2ab'
loop_
_symmetry_equiv_pos_site_id
_symmetry_equiv_pos_as_xyz
1 x,y,z
2 1/2-x,-y,1/2+z
3 -x,1/2+y,1/2-z
4 1/2+x,1/2-y,-z
_cell_length_a                   6.6151(8)
_cell_length_b                   10.3964(12)
_cell_length_c                   13.9546(17)
_cell_angle_alpha                90
_cell_angle_beta                 90
_cell_angle_gamma                90
_cell_volume                     959.703
_exptl_crystal_colour            colorless
_exptl_crystal_description       block
_chemical_melting_point          '509-510 K'
_cell_formula_units_Z            4
loop_
_atom_site_label
_atom_site_type_symbol
_atom_site_fract_x
_atom_site_fract_y
_atom_site_fract_z
Cl1 Cl 0.97284(19) 0.02584(10) 0.86309(8)
C1 C 0.5445(5) 0.4671(3) 0.8234(2)
H1 H 0.4126 0.4263 0.8335
C2 C 0.5276(5) 0.6066(3) 0.8574(2)
H2 H 0.4715 0.6066 0.9224
C3 C 0.7321(5) 0.6731(3) 0.8599(3)
H3 H 0.7859 0.6800 0.7946
C4 C 0.8803(5) 0.5993(3) 0.9224(2)
H4 H 0.8317 0.6002 0.9887
C5 C 0.9047(5) 0.4600(3) 0.8897(2)
H5 H 0.9655 0.4609 0.8257
C6 C 0.6984(5) 0.3934(3) 0.8822(2)
H6 H 0.7173 0.3091 0.8537
H7 H 0.6449 0.3808 0.9462
N1 N 0.5890(5) 0.4620(3) 0.7183(2)
H8 H 0.7140 0.4904 0.7077
H9 H 0.5013 0.5113 0.6869
H10 H 0.5783 0.3812 0.6977
O1 O 0.3960(4) 0.6787(3) 0.7971(2)
H11 H 0.2783 0.6612 0.8100
O2 O 0.6958(4) 0.7988(2) 0.89747(19)
H12 H 0.7865 0.8474 0.8803
O3 O 1.0688(4) 0.6658(2) 0.91766(18)
H13 H 1.1118 0.6776 0.9721
C7 C 1.0459(6) 0.3856(3) 0.9560(3)
H14 H 1.0661 0.2997 0.9306
H15 H 1.1763 0.4282 0.9579
O4 O 0.9642(8) 0.3764(5) 1.0541(3)
H16 H 0.8483 0.4043 1.0550
C8? C 1.0459(6) 0.3856(3) 0.9560(3)
H17? H 1.1438 0.4441 0.9838
H18? H 0.9683 0.3477 1.0078
O5? O 1.1504(9) 0.2854(5) 0.9042(5)
H19? H 1.0778 0.2217 0.9006
loop_
_geom_bond_atom_site_label_1
_geom_bond_atom_site_label_2
_geom_bond_site_symmetry_1
_geom_bond_site_symmetry_2
C1 H1 1_555 1_555
C2 C1 1_555 1_555
H2 C2 1_555 1_555
C3 C2 1_555 1_555
H3 C3 1_555 1_555
C4 C3 1_555 1_555
H4 C4 1_555 1_555
C5 C4 1_555 1_555
H5 C5 1_555 1_555
C6 C1 1_555 1_555
H6 C6 1_555 1_555
H7 C6 1_555 1_555
N1 C1 1_555 1_555
H8 N1 1_555 1_555
H9 N1 1_555 1_555
H10 N1 1_555 1_555
O1 C2 1_555 1_555
H11 O1 1_555 1_555
O2 C3 1_555 1_555
H12 O2 1_555 1_555
O3 C4 1_555 1_555
H13 O3 1_555 1_555
C7 C5 1_555 1_555
H14 C7 1_555 1_555
H15 C7 1_555 1_555
O4 C7 1_555 1_555
H16 O4 1_555 1_555
C5 C6 1_555 1_555

#END
