
#######################################################################
#
#                 Cambridge Crystallographic Data Centre
#                                CCDC 
#
#######################################################################
#
# If this CIF has been generated from an entry in the Cambridge 
# Structural Database, then it will include bibliographic, chemical, 
# crystal, experimental, refinement or atomic coordinate data resulting 
# from the CCDC's data processing and validation procedures.
#
#######################################################################

data_PAHDIM
_chemical_formula_moiety         'C14 H16 N4 O1 S1,2(H2 O1)'
_chemical_name_systematic        
'3-(3-Hydroxypropyl)-6-(4-methylphenyl)-7H-1,2,4-triazolo-(3,4-b)(1,3,4)thiadiazine dihydrate'
_symmetry_cell_setting           monoclinic
_symmetry_space_group_name_H-M   'P 21/n'
_symmetry_Int_Tables_number      14
_space_group_name_Hall           '-P 2yn'
loop_
_symmetry_equiv_pos_site_id
_symmetry_equiv_pos_as_xyz
1 x,y,z
2 1/2+x,1/2-y,1/2+z
3 -x,-y,-z
4 1/2-x,1/2+y,1/2-z
_cell_length_a                   12.7018(12)
_cell_length_b                   7.3602(7)
_cell_length_c                   17.3967(17)
_cell_angle_alpha                90
_cell_angle_beta                 92.612(2)
_cell_angle_gamma                90
_cell_volume                     1624.69
_exptl_crystal_colour            colorless
_exptl_crystal_description       rod
_chemical_melting_point          '341-343 K'
_cell_formula_units_Z            4
_exptl_crystal_recrystallization_method ethanol
loop_
_atom_site_label
_atom_site_type_symbol
_atom_site_fract_x
_atom_site_fract_y
_atom_site_fract_z
S1 S 0.75729(8) 0.01928(14) 0.42808(5)
O1 O 1.1519(2) 0.0288(3) 0.80555(16)
H1 H 1.2048 -0.0137 0.7870
N1 N 0.80952(19) 0.1861(3) 0.59227(14)
N2 N 0.86106(18) 0.0329(3) 0.56629(14)
N3 N 0.9003(2) -0.2096(4) 0.50056(15)
N4 N 0.9549(2) -0.2141(4) 0.57239(15)
C1 C 0.5761(3) 0.9549(5) 0.6463(3)
H2 H 0.5401 1.0151 0.6038
H3 H 0.6302 1.0331 0.6679
H4 H 0.5268 0.9268 0.6848
C2 C 0.6258(3) 0.7798(5) 0.6183(2)
C3 C 0.5969(3) 0.7070(5) 0.5481(2)
H5 H 0.5457 0.7658 0.5173
C4 C 0.6413(3) 0.5491(5) 0.5217(2)
H6 H 0.6197 0.5035 0.4737
C5 C 0.7176(2) 0.4580(4) 0.56588(19)
C6 C 0.7479(3) 0.5322(5) 0.6368(2)
H7 H 0.7993 0.4742 0.6676
C7 C 0.7033(3) 0.6892(5) 0.6621(2)
H8 H 0.7255 0.7363 0.7098
C8 C 0.7684(2) 0.2896(4) 0.53914(18)
C9 C 0.7778(3) 0.2549(5) 0.45486(19)
H9 H 0.8473 0.2920 0.4402
H10 H 0.7265 0.3293 0.4263
C10 C 0.8447(2) -0.0617(4) 0.49931(18)
C11 C 0.9306(2) -0.0698(4) 0.61050(17)
C12 C 0.9717(3) -0.0149(4) 0.68842(18)
H11 H 0.9132 0.0233 0.7185
H12 H 1.0184 0.0884 0.6836
C13 C 1.0306(3) -0.1652(5) 0.73052(19)
H13 H 0.9836 -0.2678 0.7361
H14 H 1.0884 -0.2048 0.7000
C14 C 1.0737(3) -0.1081(5) 0.8090(2)
H15 H 1.0163 -0.0635 0.8387
H16 H 1.1037 -0.2133 0.8354
O2 O 0.0290(2) 0.4303(3) 0.62199(14)
H17 H 0.007(3) 0.532(3) 0.6094(19)
H18 H 0.047(3) 0.368(4) 0.5850(16)
O3 O 0.3352(2) 0.8878(4) 0.75313(19)
H19 H 0.335(3) 0.780(3) 0.7371(18)
H20 H 0.363(3) 0.897(4) 0.7972(13)
loop_
_geom_bond_atom_site_label_1
_geom_bond_atom_site_label_2
_geom_bond_site_symmetry_1
_geom_bond_site_symmetry_2
S1 C9 1_555 1_555
O1 H1 1_555 1_555
O2 H17 1_555 1_555
O3 H19 1_555 1_555
N1 N2 1_555 1_555
N2 C10 1_555 1_555
N3 N4 1_555 1_555
N4 C11 1_555 1_555
C1 H2 1_555 1_555
H3 C1 1_555 1_555
H4 C1 1_555 1_555
C2 C1 1_555 1_555
C3 C2 1_555 1_555
H5 C3 1_555 1_555
C4 C3 1_555 1_555
H6 C4 1_555 1_555
C5 C4 1_555 1_555
C6 C5 1_555 1_555
H7 C6 1_555 1_555
C7 C2 1_555 1_555
H8 C7 1_555 1_555
C8 N1 1_555 1_555
C9 C8 1_555 1_555
H9 C9 1_555 1_555
H10 C9 1_555 1_555
C10 S1 1_555 1_555
C11 N2 1_555 1_555
C12 C11 1_555 1_555
H11 C12 1_555 1_555
H12 C12 1_555 1_555
C13 C12 1_555 1_555
H13 C13 1_555 1_555
H14 C13 1_555 1_555
C14 O1 1_555 1_555
H15 C14 1_555 1_555
H16 C14 1_555 1_555
H18 O2 1_555 1_555
H20 O3 1_555 1_555
N3 C10 1_555 1_555
C5 C8 1_555 1_555
C6 C7 1_555 1_555
C13 C14 1_555 1_555

#END
