
#######################################################################
#
#                 Cambridge Crystallographic Data Centre
#                                CCDC 
#
#######################################################################
#
# If this CIF has been generated from an entry in the Cambridge 
# Structural Database, then it will include bibliographic, chemical, 
# crystal, experimental, refinement or atomic coordinate data resulting 
# from the CCDC's data processing and validation procedures.
#
#######################################################################

data_PAHFAG
_chemical_formula_moiety         'C20 H15 N3 O6,C3 H7 N1 O1'
_chemical_name_systematic        
'Methyl 2-amino-4-(4-nitrophenyl)-5-oxo-5,6-dihydro-4H-pyrano(3,2-c)quinoline-3-carboxylate dimethylformamide solvate'
_symmetry_cell_setting           triclinic
_symmetry_space_group_name_H-M   'P -1'
_symmetry_Int_Tables_number      2
_space_group_name_Hall           '-P 1'
loop_
_symmetry_equiv_pos_site_id
_symmetry_equiv_pos_as_xyz
1 x,y,z
2 -x,-y,-z
_cell_length_a                   8.3120(10)
_cell_length_b                   11.696(2)
_cell_length_c                   11.7050(10)
_cell_angle_alpha                97.420(10)
_cell_angle_beta                 101.634(9)
_cell_angle_gamma                93.010(10)
_cell_volume                     1101.6
_exptl_crystal_colour            colorless
_exptl_crystal_description       block
_chemical_melting_point          '548-550 K'
_cell_formula_units_Z            2
loop_
_atom_site_label
_atom_site_type_symbol
_atom_site_fract_x
_atom_site_fract_y
_atom_site_fract_z
O1 O 0.6462(2) 0.21041(17) 0.56822(17)
O2 O 0.1562(2) 0.03109(18) 0.63596(17)
O3 O 0.6733(3) 0.10630(18) 0.94637(17)
O4 O 0.9157(2) 0.14923(19) 0.8980(2)
O5 O 0.2561(4) 0.6361(3) 0.9357(3)
O6 O 0.1711(4) 0.5338(3) 1.0541(3)
N1 N 0.1719(3) 0.0704(2) 0.4533(2)
N2 N 0.8953(3) 0.2166(2) 0.6806(3)
H1 H 0.9672 0.2102 0.7431
H2 H 0.9265 0.2385 0.6206
N3 N 0.2314(4) 0.5454(3) 0.9712(3)
C1 C 0.4859(3) 0.1628(2) 0.5346(2)
C2 C 0.4151(4) 0.1600(2) 0.4116(2)
C3 C 0.4977(4) 0.2017(3) 0.3298(3)
H3 H 0.6080 0.2293 0.3530
C4 C 0.4152(5) 0.2014(3) 0.2155(3)
H4 H 0.4689 0.2301 0.1614
C5 C 0.2495(5) 0.1578(3) 0.1807(3)
H5 H 0.1935 0.1591 0.1037
C6 C 0.1691(4) 0.1134(3) 0.2580(3)
H6 H 0.0603 0.0826 0.2331
C7 C 0.2513(4) 0.1144(2) 0.3746(2)
C8 C 0.2370(3) 0.0729(2) 0.5710(2)
C9 C 0.4033(3) 0.1267(2) 0.6126(2)
C10 C 0.4773(3) 0.1448(2) 0.7426(2)
H7 H 0.4454 0.0765 0.7760
C11 C 0.6633(3) 0.1577(2) 0.7612(2)
C12 C 0.7367(3) 0.1930(2) 0.6770(3)
C13 C 0.4097(3) 0.2501(2) 0.8020(2)
C14 C 0.4602(4) 0.3610(2) 0.7861(3)
H8 H 0.5361 0.3702 0.7388
C15 C 0.4011(4) 0.4573(3) 0.8384(3)
H9 H 0.4348 0.5309 0.8256
C16 C 0.2915(4) 0.4430(3) 0.9096(3)
C17 C 0.2369(4) 0.3354(3) 0.9271(3)
H10 H 0.1619 0.3270 0.9751
C18 C 0.2952(4) 0.2398(3) 0.8720(3)
H11 H 0.2568 0.1665 0.8821
C19 C 0.7649(4) 0.1390(2) 0.8718(3)
C20 C 0.7638(5) 0.0869(3) 1.0602(3)
H12 H 0.8269 0.1570 1.0999
H13 H 0.8366 0.0271 1.0500
H14 H 0.6879 0.0637 1.1065
H29 H 0.079(5) 0.039(3) 0.428(3)
O8 O -0.028(9) 0.303(14) 0.472(6)
N5 N 0.1264(15) 0.4172(15) 0.3969(10)
C24 C -0.0029(12) 0.3463(7) 0.3889(11)
H22 H -0.0775 0.3287 0.3171
C25 C 0.234(2) 0.4330(15) 0.5084(11)
H23 H 0.2731 0.5132 0.5302
H24 H 0.3267 0.3875 0.5050
H25 H 0.1773 0.4090 0.5659
C26 C 0.169(2) 0.4589(12) 0.2983(14)
H26 H 0.2740 0.4333 0.2886
H27 H 0.1756 0.5419 0.3102
H28 H 0.0868 0.4299 0.2290
O7? O -0.042(9) 0.304(15) 0.471(6)
N4? N 0.1363(15) 0.4140(15) 0.4024(9)
C21? C 0.0896(15) 0.3570(8) 0.4803(11)
H15? H 0.1660 0.3570 0.5503
C22? C 0.036(2) 0.4194(15) 0.2910(10)
H16? H 0.0741 0.3705 0.2315
H17? H 0.0400 0.4977 0.2745
H18? H -0.0761 0.3939 0.2911
C23? C 0.2917(14) 0.4775(11) 0.4329(19)
H19? H 0.2785 0.5565 0.4612
H20? H 0.3400 0.4745 0.3648
H21? H 0.3623 0.4446 0.4935
loop_
_geom_bond_atom_site_label_1
_geom_bond_atom_site_label_2
_geom_bond_site_symmetry_1
_geom_bond_site_symmetry_2
O1 C1 1_555 1_555
O2 C8 1_555 1_555
O3 C19 1_555 1_555
O4 C19 1_555 1_555
O5 N3 1_555 1_555
O6 N3 1_555 1_555
N1 C7 1_555 1_555
N2 H1 1_555 1_555
H2 N2 1_555 1_555
N3 C16 1_555 1_555
C1 C2 1_555 1_555
C2 C3 1_555 1_555
C3 H3 1_555 1_555
C4 C3 1_555 1_555
H4 C4 1_555 1_555
C5 C4 1_555 1_555
H5 C5 1_555 1_555
C6 C5 1_555 1_555
H6 C6 1_555 1_555
C7 C2 1_555 1_555
C8 N1 1_555 1_555
C9 C1 1_555 1_555
C10 C9 1_555 1_555
H7 C10 1_555 1_555
C11 C10 1_555 1_555
C12 O1 1_555 1_555
C13 C10 1_555 1_555
C14 C13 1_555 1_555
H8 C14 1_555 1_555
C15 C14 1_555 1_555
H9 C15 1_555 1_555
C16 C15 1_555 1_555
C17 C16 1_555 1_555
H10 C17 1_555 1_555
C18 C13 1_555 1_555
H11 C18 1_555 1_555
C19 C11 1_555 1_555
C20 O3 1_555 1_555
H12 C20 1_555 1_555
H13 C20 1_555 1_555
H14 C20 1_555 1_555
O8 C24 1_555 1_555
N5 C24 1_555 1_555
C24 H22 1_555 1_555
C25 N5 1_555 1_555
H23 C25 1_555 1_555
H24 C25 1_555 1_555
H25 C25 1_555 1_555
C26 N5 1_555 1_555
H26 C26 1_555 1_555
H27 C26 1_555 1_555
H28 C26 1_555 1_555
H29 N1 1_555 1_555
N2 C12 1_555 1_555
C6 C7 1_555 1_555
C8 C9 1_555 1_555
C11 C12 1_555 1_555
C17 C18 1_555 1_555

#END
