
#######################################################################
#
#                 Cambridge Crystallographic Data Centre
#                                CCDC 
#
#######################################################################
#
# If this CIF has been generated from an entry in the Cambridge 
# Structural Database, then it will include bibliographic, chemical, 
# crystal, experimental, refinement or atomic coordinate data resulting 
# from the CCDC's data processing and validation procedures.
#
#######################################################################

data_PAHKUG
_chemical_formula_moiety         'C10 H12 N3 1+,C7 H5 O6 S1 1-,2(H2 O1)'
_chemical_name_systematic        
'7-Amino-2,4-dimethyl-1,8-naphthyridin-1-ium 3-carboxy-4-methylbenzenesulfonate dihydrate'
_symmetry_cell_setting           monoclinic
_symmetry_space_group_name_H-M   'C m'
_symmetry_Int_Tables_number      8
_space_group_name_Hall           'C -2y'
loop_
_symmetry_equiv_pos_site_id
_symmetry_equiv_pos_as_xyz
1 x,y,z
2 x,-y,z
3 1/2+x,1/2+y,z
4 1/2+x,1/2-y,z
_cell_length_a                   16.3779(16)
_cell_length_b                   6.7060(5)
_cell_length_c                   10.3901(11)
_cell_angle_alpha                90
_cell_angle_beta                 120.540(2)
_cell_angle_gamma                90
_cell_volume                     982.841
_exptl_crystal_colour            colorless
_exptl_crystal_description       block
_cell_formula_units_Z            2
loop_
_atom_site_label
_atom_site_type_symbol
_atom_site_fract_x
_atom_site_fract_y
_atom_site_fract_z
O1 O 0.55388(17) 0.5000 1.1039(3)
H4 H 0.5979 0.5000 1.1907
O2 O 0.4673(2) 0.5000 1.2146(3)
O3 O 0.2835(2) 0.5000 1.0488(3)
H5 H 0.3349 0.5000 1.1268
O4 O 0.3316(3) 0.3054(5) 0.4812(4)
O5 O 0.4211(2) 0.6087(5) 0.5678(4)
O6 O 0.2501(3) 0.6192(6) 0.4099(4)
S1 S 0.33054(6) 0.5000 0.52183(10)
C1 C 0.4729(2) 0.5000 1.1019(4)
C2 C 0.3879(2) 0.5000 0.9502(4)
C3 C 0.2972(3) 0.5000 0.9327(5)
C4 C 0.2178(3) 0.5000 0.7890(5)
H8 H 0.1575 0.5000 0.7767
C5 C 0.2276(2) 0.5000 0.6661(5)
H9 H 0.1741 0.5000 0.5710
C6 C 0.3181(2) 0.5000 0.6824(4)
C7 C 0.3964(2) 0.5000 0.8228(4)
H10 H 0.4565 0.5000 0.8338
O4A O 0.3316(3) 0.6946(5) 0.4812(4)
O5A O 0.4211(2) 0.3913(5) 0.5678(4)
O6A O 0.2501(3) 0.3808(6) 0.4099(4)
O7 O 0.4625(2) 0.0000 0.6680(3)
H6 H 0.4400 0.1031 0.6135
H6A H 0.4400 -0.1031 0.6135
O8 O 0.19469(19) 1.0000 0.3681(3)
H7 H 0.2301 0.8974 0.3974
H7A H 0.2301 1.1026 0.3974
N1 N 0.2636(2) 0.0000 -0.2651(4)
N2 N 0.42318(19) 0.0000 -0.1009(3)
H1 H 0.4293 0.0000 -0.1783
N3 N 0.1035(2) 0.0000 -0.4301(4)
H2 H 0.1149 0.0000 -0.5023
H3 H 0.0460 0.0000 -0.4489
C8 C 0.1752(2) 0.0000 -0.2888(5)
C9 C 0.1569(3) 0.0000 -0.1667(6)
H11 H 0.0948 0.0000 -0.1865
C10 C 0.2285(3) 0.0000 -0.0260(5)
H12 H 0.2164 0.0000 0.0524
C11 C 0.3242(3) 0.0000 0.0043(5)
C12 C 0.3329(2) 0.0000 -0.1229(4)
C13 C 0.5017(2) 0.0000 0.0337(4)
C14 C 0.4925(3) 0.0000 0.1589(5)
H13 H 0.5470 0.0000 0.2529
C15 C 0.4056(3) 0.0000 0.1487(4)
C16 C 0.5948(3) 0.0000 0.0388(5)
C17 C 0.3991(4) 0.0000 0.2880(5)
H14? H 0.5901 -0.0817 -0.0406
H15? H 0.6432 -0.0522 0.1331
H16? H 0.6108 0.1339 0.0271
H17? H 0.3532 -0.0970 0.2783
H18? H 0.3801 0.1298 0.3020
H19? H 0.4598 -0.0327 0.3725
loop_
_geom_bond_atom_site_label_1
_geom_bond_atom_site_label_2
_geom_bond_site_symmetry_1
_geom_bond_site_symmetry_2
N1 C8 1_555 1_555
N2 H1 1_555 1_555
N3 H2 1_555 1_555
H3 N3 1_555 1_555
O1 H4 1_555 1_555
O2 C1 1_555 1_555
O3 H5 1_555 1_555
O4 S1 1_555 1_555
O5 S1 1_555 1_555
O6 S1 1_555 1_555
O7 H6 1_555 1_555
O8 H7 1_555 1_555
S1 C6 1_555 1_555
C1 O1 1_555 1_555
C2 C1 1_555 1_555
C3 O3 1_555 1_555
C4 C3 1_555 1_555
H8 C4 1_555 1_555
C5 C4 1_555 1_555
H9 C5 1_555 1_555
C6 C5 1_555 1_555
C7 C2 1_555 1_555
H10 C7 1_555 1_555
C8 N3 1_555 1_555
C9 C8 1_555 1_555
H11 C9 1_555 1_555
C10 C9 1_555 1_555
H12 C10 1_555 1_555
C11 C10 1_555 1_555
C12 N1 1_555 1_555
C13 N2 1_555 1_555
C14 C13 1_555 1_555
H13 C14 1_555 1_555
C15 C11 1_555 1_555
C16 C13 1_555 1_555
C17 C15 1_555 1_555
O4A S1 1_555 1_555
O5A S1 1_555 1_555
O6A S1 1_555 1_555
H6A O7 1_555 1_555
H7A O8 1_555 1_555
N2 C12 1_555 1_555
C2 C3 1_555 1_555
C6 C7 1_555 1_555
C11 C12 1_555 1_555
C14 C15 1_555 1_555

#END
