
#######################################################################
#
#                 Cambridge Crystallographic Data Centre
#                                CCDC 
#
#######################################################################
#
# If this CIF has been generated from an entry in the Cambridge 
# Structural Database, then it will include bibliographic, chemical, 
# crystal, experimental, refinement or atomic coordinate data resulting 
# from the CCDC's data processing and validation procedures.
#
#######################################################################

data_PAHKOA
_chemical_name_common            
'7-Amino-2,4-dimethyl-1,8-naphthyridin-1-ium dihydrogen citrate'
_chemical_formula_moiety         'C10 H12 N3 1+,C6 H7 O7 1-'
_chemical_name_systematic        
'7-Amino-2,4-dimethyl-1,8-naphthyridin-1-ium 3,4-dicarboxy-3-hydroxybutanoate'
_symmetry_cell_setting           monoclinic
_symmetry_space_group_name_H-M   'C 2/c'
_symmetry_Int_Tables_number      15
_space_group_name_Hall           '-C 2yn'
loop_
_symmetry_equiv_pos_site_id
_symmetry_equiv_pos_as_xyz
1 x,y,z
2 -x,y,1/2-z
3 1/2+x,1/2+y,z
4 1/2-x,1/2+y,1/2-z
5 -x,-y,-z
6 x,-y,1/2+z
7 1/2-x,1/2-y,-z
8 1/2+x,1/2-y,1/2+z
_cell_length_a                   13.7942(12)
_cell_length_b                   24.542(3)
_cell_length_c                   9.6817(11)
_cell_angle_alpha                90
_cell_angle_beta                 96.794(1)
_cell_angle_gamma                90
_cell_volume                     3254.6
_exptl_crystal_colour            colorless
_exptl_crystal_description       block
_cell_formula_units_Z            8
loop_
_atom_site_label
_atom_site_type_symbol
_atom_site_fract_x
_atom_site_fract_y
_atom_site_fract_z
N1 N 0.37713(12) 0.19296(7) 0.12917(16)
N2 N 0.37488(12) 0.25096(7) 0.31466(17)
H1 H 0.3770 0.2224 0.3663
N3 N 0.37548(14) 0.13538(7) -0.05750(18)
H2 H 0.3744 0.1082 -0.0018
H3 H 0.3755 0.1299 -0.1452
C1 C 0.37717(15) 0.18552(9) -0.0084(2)
C2 C 0.37721(17) 0.23060(10) -0.1032(2)
H7 H 0.3792 0.2244 -0.1976
C3 C 0.37434(16) 0.28153(9) -0.0550(2)
H8 H 0.3728 0.3107 -0.1165
C4 C 0.37367(15) 0.29150(9) 0.0904(2)
C5 C 0.37561(15) 0.24446(9) 0.1746(2)
C6 C 0.37103(16) 0.29985(9) 0.3752(2)
C7 C 0.36986(16) 0.34575(9) 0.2945(2)
H9 H 0.3678 0.3797 0.3367
C8 C 0.37157(16) 0.34319(9) 0.1524(2)
C9 C 0.36929(19) 0.30168(10) 0.5295(2)
H10 H 0.3031 0.3054 0.5497
H11 H 0.4070 0.3322 0.5675
H12 H 0.3966 0.2686 0.5703
C10 C 0.37253(19) 0.39451(9) 0.0691(3)
H13 H 0.3475 0.4240 0.1196
H14 H 0.3325 0.3899 -0.0181
H15 H 0.4382 0.4026 0.0525
O1 O 0.37293(12) 0.10689(6) 0.65923(14)
O2 O 0.38626(12) 0.17551(6) 0.51688(14)
O3 O 0.05888(12) 0.04373(8) 0.41778(16)
H4 H 0.0074 0.0381 0.3683
O4 O 0.11983(11) 0.02656(7) 0.21953(15)
O5 O 0.33534(14) -0.02040(6) 0.28003(15)
H5 H 0.3511 -0.0414 0.2208
O6 O 0.35752(12) 0.04183(6) 0.11980(15)
O7 O 0.26389(10) 0.11821(6) 0.26765(14)
H6 H 0.3030 0.1312 0.2192
C11 C 0.38627(16) 0.12584(9) 0.5420(2)
C12 C 0.40090(16) 0.08521(9) 0.4284(2)
H16 H 0.4287 0.0520 0.4705
H17 H 0.4471 0.1001 0.3702
C13 C 0.30479(15) 0.07136(8) 0.33664(19)
C14 C 0.22862(15) 0.04954(8) 0.4229(2)
H18 H 0.2523 0.0156 0.4657
H19 H 0.2213 0.0752 0.4971
C15 C 0.13083(17) 0.03964(9) 0.3442(2)
C16 C 0.33373(16) 0.02919(9) 0.2320(2)
loop_
_geom_bond_atom_site_label_1
_geom_bond_atom_site_label_2
_geom_bond_site_symmetry_1
_geom_bond_site_symmetry_2
N1 C1 1_555 1_555
N2 H1 1_555 1_555
N3 H2 1_555 1_555
H3 N3 1_555 1_555
O1 C11 1_555 1_555
O2 C11 1_555 1_555
O3 H4 1_555 1_555
O4 C15 1_555 1_555
O5 H5 1_555 1_555
O6 C16 1_555 1_555
O7 H6 1_555 1_555
C1 N3 1_555 1_555
C2 C1 1_555 1_555
H7 C2 1_555 1_555
C3 C2 1_555 1_555
H8 C3 1_555 1_555
C4 C3 1_555 1_555
C5 N1 1_555 1_555
C6 N2 1_555 1_555
C7 C6 1_555 1_555
H9 C7 1_555 1_555
C8 C4 1_555 1_555
C9 C6 1_555 1_555
H10 C9 1_555 1_555
H11 C9 1_555 1_555
H12 C9 1_555 1_555
C10 C8 1_555 1_555
H13 C10 1_555 1_555
H14 C10 1_555 1_555
H15 C10 1_555 1_555
C11 C12 1_555 1_555
C12 H16 1_555 1_555
H17 C12 1_555 1_555
C13 O7 1_555 1_555
C14 C13 1_555 1_555
H18 C14 1_555 1_555
H19 C14 1_555 1_555
C15 O3 1_555 1_555
C16 O5 1_555 1_555
N2 C5 1_555 1_555
C4 C5 1_555 1_555
C7 C8 1_555 1_555
C12 C13 1_555 1_555
C13 C16 1_555 1_555
C14 C15 1_555 1_555

#END
