
#######################################################################
#
#                 Cambridge Crystallographic Data Centre
#                                CCDC 
#
#######################################################################
#
# If this CIF has been generated from an entry in the Cambridge 
# Structural Database, then it will include bibliographic, chemical, 
# crystal, experimental, refinement or atomic coordinate data resulting 
# from the CCDC's data processing and validation procedures.
#
#######################################################################

data_PAHMAO
_chemical_formula_moiety         'C34 H36 Br1 N3 O3,H2 O1'
_chemical_name_systematic        
'N^2^-Adamantan-1-yl-N-((7-bromo-3-methoxyquinolin-2-yl)(phenyl)methyl)-N-(2-furylmethyl)glycinamide monohydrate'
_chemical_properties_biological  'Anti-tubercular activity'
_symmetry_cell_setting           rhombohedral
_symmetry_space_group_name_H-M   'R -3'
_symmetry_Int_Tables_number      148
_space_group_name_Hall           '-R 3'
loop_
_symmetry_equiv_pos_site_id
_symmetry_equiv_pos_as_xyz
1 x,y,z
2 -y,x-y,z
3 -x+y,-x,z
4 2/3+x,1/3+y,1/3+z
5 2/3-y,1/3+x-y,1/3+z
6 2/3-x+y,1/3-x,1/3+z
7 1/3+x,2/3+y,2/3+z
8 1/3-y,2/3+x-y,2/3+z
9 1/3-x+y,2/3-x,2/3+z
10 -x,-y,-z
11 y,-x+y,-z
12 x-y,x,-z
13 1/3-x,2/3-y,2/3-z
14 1/3+y,2/3-x+y,2/3-z
15 1/3+x-y,2/3+x,2/3-z
16 2/3-x,1/3-y,1/3-z
17 2/3+y,1/3-x+y,1/3-z
18 2/3+x-y,1/3+x,1/3-z
_cell_length_a                   34.5748(12)
_cell_length_b                   34.5748(12)
_cell_length_c                   13.4496(4)
_cell_angle_alpha                90
_cell_angle_beta                 90
_cell_angle_gamma                120
_cell_volume                     13923.9
_exptl_crystal_colour            colorless
_exptl_crystal_description       block
_chemical_melting_point          '252-255 deg.C'
_cell_formula_units_Z            18
_exptl_crystal_recrystallization_method ethanol/water
loop_
_atom_site_label
_atom_site_type_symbol
_atom_site_fract_x
_atom_site_fract_y
_atom_site_fract_z
Br1 Br 0.02118(3) 0.68913(3) 0.91527(7)
C1 C 0.07087(18) 0.7321(2) 0.8440(4)
C2 C 0.06942(19) 0.7686(2) 0.8022(4)
H1 H 0.0443 0.7715 0.8107
C3 C 0.1047(2) 0.7995(2) 0.7496(4)
H2 H 0.1036 0.8236 0.7223
C4 C 0.14368(16) 0.79584(15) 0.7350(3)
C5 C 0.14522(16) 0.75999(16) 0.7808(3)
C6 C 0.10837(16) 0.72833(18) 0.8347(3)
H3 H 0.1093 0.7045 0.8644
C7 C 0.17756(15) 0.82643(15) 0.6780(3)
H4 H 0.1759 0.8500 0.6491
C8 C 0.21227(15) 0.82214(15) 0.6646(3)
C9 C 0.21820(15) 0.78736(16) 0.7079(3)
N1 N 0.18484(13) 0.75686(13) 0.7671(3)
O1 O 0.24620(13) 0.85079(11) 0.6062(3)
C10 C 0.2399(3) 0.8840(2) 0.5552(5)
H5 H 0.2657 0.9025 0.5156
H6 H 0.2356 0.9021 0.6032
H7 H 0.2141 0.8694 0.5131
C11 C 0.30293(18) 0.72156(19) 0.8961(4)
H8 H 0.3131 0.7086 0.9419
C12 C 0.29284(18) 0.75357(19) 0.9261(4)
H9 H 0.2956 0.7618 0.9927
C13 C 0.27848(16) 0.77374(17) 0.8568(3)
H10 H 0.2722 0.7957 0.8774
C14 C 0.27353(14) 0.76150(14) 0.7577(3)
C15 C 0.28305(15) 0.72879(16) 0.7295(4)
H11 H 0.2796 0.7197 0.6634
C16 C 0.29790(17) 0.70921(17) 0.7998(4)
H12 H 0.3044 0.6873 0.7797
C17 C 0.25988(15) 0.78548(14) 0.6826(3)
H13 H 0.2845 0.8164 0.6796
O2 O 0.18659(12) 0.75614(13) 0.4350(3)
C18 C 0.1471(2) 0.7546(2) 0.4095(5)
H14 H 0.1440 0.7704 0.3571
C19 C 0.1143(2) 0.7276(2) 0.4701(5)
H15 H 0.0846 0.7206 0.4674
C20 C 0.13377(17) 0.71184(18) 0.5393(4)
H16 H 0.1190 0.6925 0.5918
C21 C 0.17712(16) 0.72938(15) 0.5172(4)
C22 C 0.21380(15) 0.72442(14) 0.5587(3)
H17 H 0.2209 0.7075 0.5119
H18 H 0.2034 0.7071 0.6194
N2 N 0.25498(11) 0.76664(11) 0.5808(2)
C23 C 0.29002(15) 0.78664(15) 0.5180(3)
O3 O 0.32495(10) 0.82020(11) 0.5415(2)
C24 C 0.28573(16) 0.76504(16) 0.4161(3)
H19 H 0.2866 0.7377 0.4249
H20 H 0.2570 0.7572 0.3876
N3 N 0.32076(12) 0.79391(13) 0.3470(2)
H21 H 0.3456 0.7938 0.3440
C25 C 0.31221(16) 0.82334(16) 0.2823(3)
C26 C 0.29379(18) 0.84970(17) 0.3393(4)
H22 H 0.2655 0.8291 0.3704
H23 H 0.3146 0.8677 0.3909
C27 C 0.35598(19) 0.8563(2) 0.2346(4)
H24 H 0.3680 0.8403 0.1990
H25 H 0.3772 0.8742 0.2858
C28 C 0.2872(2) 0.8801(2) 0.2649(4)
H26 H 0.2757 0.8970 0.3005
C29 C 0.3314(3) 0.9123(2) 0.2176(5)
H27 H 0.3274 0.9317 0.1716
H28 H 0.3524 0.9309 0.2686
C30 C 0.3499(2) 0.8870(2) 0.1628(5)
H29 H 0.3787 0.9081 0.1329
C31 C 0.27859(18) 0.79588(17) 0.1999(3)
H30 H 0.2892 0.7786 0.1642
H31 H 0.2500 0.7752 0.2296
C32 C 0.2541(3) 0.8520(2) 0.1847(5)
H32 H 0.2495 0.8710 0.1391
H33 H 0.2256 0.8312 0.2146
C33 C 0.2728(2) 0.8262(2) 0.1283(4)
H34 H 0.2516 0.8080 0.0765
C34 C 0.3166(3) 0.8583(2) 0.0803(4)
H35 H 0.3125 0.8773 0.0337
H36 H 0.3282 0.8419 0.0441
O4 O 0.34074(17) 0.7418(2) 0.2081(4)
H37 H 0.3263 0.7191 0.2396
H38 H 0.3201 0.7259 0.1751
loop_
_geom_bond_atom_site_label_1
_geom_bond_atom_site_label_2
_geom_bond_site_symmetry_1
_geom_bond_site_symmetry_2
Br1 C1 1_555 1_555
C1 C2 1_555 1_555
C2 H1 1_555 1_555
C3 C2 1_555 1_555
H2 C3 1_555 1_555
C4 C3 1_555 1_555
C5 C4 1_555 1_555
C6 C1 1_555 1_555
H3 C6 1_555 1_555
C7 C4 1_555 1_555
H4 C7 1_555 1_555
C8 C7 1_555 1_555
C9 C8 1_555 1_555
N1 C5 1_555 1_555
O1 C8 1_555 1_555
C10 O1 1_555 1_555
H5 C10 1_555 1_555
H6 C10 1_555 1_555
H7 C10 1_555 1_555
C11 H8 1_555 1_555
C12 C11 1_555 1_555
H9 C12 1_555 1_555
C13 C12 1_555 1_555
H10 C13 1_555 1_555
C14 C13 1_555 1_555
C15 C14 1_555 1_555
H11 C15 1_555 1_555
C16 C11 1_555 1_555
H12 C16 1_555 1_555
C17 C9 1_555 1_555
H13 C17 1_555 1_555
O2 C18 1_555 1_555
C18 H14 1_555 1_555
C19 C18 1_555 1_555
H15 C19 1_555 1_555
C20 C19 1_555 1_555
H16 C20 1_555 1_555
C21 O2 1_555 1_555
C22 C21 1_555 1_555
H17 C22 1_555 1_555
H18 C22 1_555 1_555
N2 C17 1_555 1_555
C23 N2 1_555 1_555
O3 C23 1_555 1_555
C24 C23 1_555 1_555
H19 C24 1_555 1_555
H20 C24 1_555 1_555
N3 C24 1_555 1_555
H21 N3 1_555 1_555
C25 N3 1_555 1_555
C26 C25 1_555 1_555
H22 C26 1_555 1_555
H23 C26 1_555 1_555
C27 C25 1_555 1_555
H24 C27 1_555 1_555
H25 C27 1_555 1_555
C28 C26 1_555 1_555
H26 C28 1_555 1_555
C29 C28 1_555 1_555
H27 C29 1_555 1_555
H28 C29 1_555 1_555
C30 C27 1_555 1_555
H29 C30 1_555 1_555
C31 C25 1_555 1_555
H30 C31 1_555 1_555
H31 C31 1_555 1_555
C32 C28 1_555 1_555
H32 C32 1_555 1_555
H33 C32 1_555 1_555
C33 C31 1_555 1_555
H34 C33 1_555 1_555
C34 C30 1_555 1_555
H35 C34 1_555 1_555
H36 C34 1_555 1_555
O4 H37 1_555 1_555
H38 O4 1_555 1_555
C5 C6 1_555 1_555
C9 N1 1_555 1_555
C14 C17 1_555 1_555
C15 C16 1_555 1_555
C20 C21 1_555 1_555
C22 N2 1_555 1_555
C29 C30 1_555 1_555
C32 C33 1_555 1_555
C33 C34 1_555 1_555

#END
