
#######################################################################
#
#                 Cambridge Crystallographic Data Centre
#                                CCDC 
#
#######################################################################
#
# If this CIF has been generated from an entry in the Cambridge 
# Structural Database, then it will include bibliographic, chemical, 
# crystal, experimental, refinement or atomic coordinate data resulting 
# from the CCDC's data processing and validation procedures.
#
#######################################################################

data_PAHNOE
_chemical_formula_moiety         'C31 H19 N3 O2'
_chemical_name_systematic        
5,5'-pyridine-2,6-diylbis(2-phenylfuro[2,3-c]pyridine)
_symmetry_cell_setting           monoclinic
_symmetry_space_group_name_H-M   'P 21/c'
_symmetry_Int_Tables_number      14
_space_group_name_Hall           '-P 2ybc'
loop_
_symmetry_equiv_pos_site_id
_symmetry_equiv_pos_as_xyz
1 x,y,z
2 -x,1/2+y,1/2-z
3 -x,-y,-z
4 x,1/2-y,1/2+z
_cell_length_a                   30.3556(6)
_cell_length_b                   5.6110(1)
_cell_length_c                   13.1495(2)
_cell_angle_alpha                90
_cell_angle_beta                 92.9605(12)
_cell_angle_gamma                90
_cell_volume                     2236.7
_exptl_crystal_colour            colorless
_exptl_crystal_description       plate
_cell_formula_units_Z            4
loop_
_atom_site_label
_atom_site_type_symbol
_atom_site_fract_x
_atom_site_fract_y
_atom_site_fract_z
O1 O 0.11016(4) 0.65528(19) 0.42692(8)
O2 O 0.38988(4) -0.50416(19) 0.82561(8)
N1 N 0.17250(5) 0.7572(2) 0.66804(10)
N2 N 0.25065(4) 0.3140(2) 0.76153(9)
N3 N 0.33096(5) 0.0049(3) 0.92443(9)
C1 C 0.11531(5) 0.4437(3) 0.37297(12)
C2 C 0.14650(5) 0.3036(3) 0.41941(11)
H1 H 0.1560 0.1522 0.3967
C3 C 0.16268(5) 0.4269(3) 0.50966(12)
C4 C 0.19232(5) 0.3820(3) 0.59187(11)
H2 H 0.2096 0.2408 0.5949
C5 C 0.19572(5) 0.5509(3) 0.66928(12)
C6 C 0.22434(5) 0.5062(3) 0.76293(11)
C7 C 0.22246(5) 0.6543(3) 0.84773(12)
H3 H 0.2042 0.7919 0.8458
C8 C 0.24777(6) 0.5964(3) 0.93462(12)
H4 H 0.2466 0.6919 0.9941
C9 C 0.27477(6) 0.3979(3) 0.93414(12)
H5 H 0.2922 0.3545 0.9933
C10 C 0.27594(5) 0.2627(3) 0.84557(11)
C11 C 0.30592(5) 0.0544(3) 0.83879(11)
C12 C 0.30734(5) -0.0800(3) 0.74982(12)
H6 H 0.2890 -0.0419 0.6914
C13 C 0.33653(5) -0.2721(3) 0.74902(11)
C14 C 0.34955(5) -0.4487(3) 0.67769(12)
H7 H 0.3378 -0.4696 0.6099
C15 C 0.38185(5) -0.5798(3) 0.72548(11)
C16 C 0.41008(5) -0.7735(3) 0.69376(12)
C17 C 0.43366(5) -0.9138(3) 0.76472(12)
H8 H 0.4310 -0.8851 0.8353
C18 C 0.46084(6) -1.0944(3) 0.73382(13)
H9 H 0.4763 -1.1910 0.7831
C19 C 0.46560(6) -1.1347(3) 0.63134(13)
H10 H 0.4846 -1.2576 0.6101
C20 C 0.44267(6) -0.9958(3) 0.55999(13)
H11 H 0.4462 -1.0225 0.4895
C21 C 0.41454(6) -0.8180(3) 0.59006(12)
H12 H 0.3983 -0.7263 0.5404
C22 C 0.36186(5) -0.3155(3) 0.83772(11)
C23 C 0.35876(6) -0.1797(3) 0.92368(12)
H13 H 0.3765 -0.2171 0.9832
C24 C 0.14450(6) 0.8025(3) 0.58864(12)
H14 H 0.1281 0.9469 0.5860
C25 C 0.13938(5) 0.6397(3) 0.51056(12)
C26 C 0.08605(5) 0.4137(3) 0.28273(12)
C27 C 0.05470(6) 0.5854(3) 0.25408(12)
H15 H 0.0525 0.7265 0.2934
C28 C 0.02680(6) 0.5525(3) 0.16913(13)
H16 H 0.0054 0.6704 0.1507
C29 C 0.02978(6) 0.3482(3) 0.11051(13)
H17 H 0.0106 0.3262 0.0519
C30 C 0.06087(6) 0.1771(3) 0.13796(12)
H18 H 0.0631 0.0372 0.0979
C31 C 0.08881(6) 0.2080(3) 0.22329(12)
H19 H 0.1100 0.0889 0.2417
loop_
_geom_bond_atom_site_label_1
_geom_bond_atom_site_label_2
_geom_bond_site_symmetry_1
_geom_bond_site_symmetry_2
O1 C1 1_555 1_555
O2 C15 1_555 1_555
N1 C5 1_555 1_555
N2 C6 1_555 1_555
N3 C11 1_555 1_555
C1 C2 1_555 1_555
C2 H1 1_555 1_555
C3 C2 1_555 1_555
C4 C3 1_555 1_555
H2 C4 1_555 1_555
C5 C4 1_555 1_555
C6 C5 1_555 1_555
C7 C6 1_555 1_555
H3 C7 1_555 1_555
C8 C7 1_555 1_555
H4 C8 1_555 1_555
C9 C8 1_555 1_555
H5 C9 1_555 1_555
C10 N2 1_555 1_555
C11 C10 1_555 1_555
C12 C11 1_555 1_555
H6 C12 1_555 1_555
C13 C12 1_555 1_555
C14 C13 1_555 1_555
H7 C14 1_555 1_555
C15 C14 1_555 1_555
C16 C15 1_555 1_555
C17 C16 1_555 1_555
H8 C17 1_555 1_555
C18 C17 1_555 1_555
H9 C18 1_555 1_555
C19 C18 1_555 1_555
H10 C19 1_555 1_555
C20 C19 1_555 1_555
H11 C20 1_555 1_555
C21 C16 1_555 1_555
H12 C21 1_555 1_555
C22 O2 1_555 1_555
C23 N3 1_555 1_555
H13 C23 1_555 1_555
C24 N1 1_555 1_555
H14 C24 1_555 1_555
C25 O1 1_555 1_555
C26 C1 1_555 1_555
C27 C26 1_555 1_555
H15 C27 1_555 1_555
C28 C27 1_555 1_555
H16 C28 1_555 1_555
C29 C28 1_555 1_555
H17 C29 1_555 1_555
C30 C29 1_555 1_555
H18 C30 1_555 1_555
C31 C26 1_555 1_555
H19 C31 1_555 1_555
C3 C25 1_555 1_555
C9 C10 1_555 1_555
C13 C22 1_555 1_555
C20 C21 1_555 1_555
C22 C23 1_555 1_555
C24 C25 1_555 1_555
C30 C31 1_555 1_555

#END
