
#######################################################################
#
#                 Cambridge Crystallographic Data Centre
#                                CCDC 
#
#######################################################################
#
# If this CIF has been generated from an entry in the Cambridge 
# Structural Database, then it will include bibliographic, chemical, 
# crystal, experimental, refinement or atomic coordinate data resulting 
# from the CCDC's data processing and validation procedures.
#
#######################################################################

data_PAHNIY
_chemical_formula_moiety         'C51 H45 N5 O6'
_chemical_name_systematic        
4-((5'-(4-methoxy-2,6-dimethylphenyl)-2,2'-bipyridin-5-yl)ethynyl)-4''-((4-methoxy-2,6-dimethylphenyl)ethynyl)-5,5''-bis(methoxymethoxy)-2,2':6',2''-terpyridine
_symmetry_cell_setting           monoclinic
_symmetry_space_group_name_H-M   'P 21/n'
_symmetry_Int_Tables_number      14
_space_group_name_Hall           '-P 2yn'
loop_
_symmetry_equiv_pos_site_id
_symmetry_equiv_pos_as_xyz
1 x,y,z
2 1/2-x,1/2+y,1/2-z
3 -x,-y,-z
4 1/2+x,1/2-y,1/2+z
_cell_length_a                   11.64397(5)
_cell_length_b                   24.31232(11)
_cell_length_c                   15.41180(6)
_cell_angle_alpha                90
_cell_angle_beta                 104.5261(4)
_cell_angle_gamma                90
_cell_volume                     4223.49
_exptl_crystal_colour            yellow
_exptl_crystal_description       prism
_cell_formula_units_Z            4
loop_
_atom_site_label
_atom_site_type_symbol
_atom_site_fract_x
_atom_site_fract_y
_atom_site_fract_z
O1 O 0.22514(10) 0.24033(4) -0.03436(7)
O2 O 0.64676(8) -0.29211(4) 0.73848(7)
O3 O 0.68292(11) -0.38627(4) 0.76274(9)
O4 O 0.81037(11) 0.15499(5) 0.34120(7)
O5 O 1.30444(8) 0.09098(4) 0.84278(6)
O6 O 1.43016(10) 0.16386(4) 0.85507(7)
N1 N 0.93965(10) -0.27150(5) 0.89117(7)
N2 N 1.10319(9) -0.14586(4) 0.88995(7)
N3 N 1.32116(10) -0.03994(5) 0.96271(8)
N4 N 0.61466(11) -0.07047(5) 0.42561(8)
N5 N 0.35288(10) 0.00743(4) 0.32442(7)
C1 C 0.83697(12) -0.29465(5) 0.85033(9)
H1 H 0.8195 -0.3301 0.8697
C2 C 0.75342(11) -0.26972(5) 0.78058(8)
C3 C 0.77991(11) -0.21768(5) 0.75101(8)
C4 C 0.88797(11) -0.19387(5) 0.79405(8)
H2 H 0.9090 -0.1588 0.7758
C5 C 0.96495(11) -0.22158(5) 0.86379(8)
C6 C 1.08088(11) -0.19755(5) 0.91174(8)
C7 C 1.16069(13) -0.22843(6) 0.97597(10)
H3 H 1.1418 -0.2648 0.9899
C8 C 1.26764(14) -0.20492(7) 1.01877(11)
H4 H 1.3238 -0.2249 1.0628
C9 C 1.29206(13) -0.15196(7) 0.99684(11)
H5 H 1.3655 -0.1351 1.0252
C10 C 1.20725(12) -0.12343(6) 0.93220(9)
C11 C 1.23006(11) -0.06611(6) 0.90749(9)
C12 C 1.16026(12) -0.04155(6) 0.83033(9)
H6 H 1.0961 -0.0613 0.7931
C13 C 1.18490(11) 0.01196(6) 0.80807(9)
C14 C 1.28054(11) 0.03920(5) 0.86614(9)
C15 C 1.34440(12) 0.01168(6) 0.94236(9)
H7 H 1.4078 0.0306 0.9820
C16 C 0.70047(11) -0.18882(5) 0.67968(8)
C17 C 0.64223(12) -0.16062(5) 0.62122(8)
C18 C 0.58628(12) -0.12522(5) 0.54859(8)
C19 C 0.46762(12) -0.10948(6) 0.52917(9)
H8 H 0.4168 -0.1230 0.5638
C20 C 0.42495(12) -0.07376(6) 0.45854(9)
H9 H 0.3445 -0.0622 0.4446
C21 C 0.50040(11) -0.05499(5) 0.40835(8)
C22 C 0.65498(13) -0.10430(6) 0.49440(10)
H10 H 0.7361 -0.1148 0.5073
C23 C 0.46008(12) -0.01559(5) 0.33314(8)
C24 C 0.53177(13) -0.00253(6) 0.27618(9)
H11 H 0.6066 -0.0199 0.2829
C25 C 0.49245(13) 0.03618(6) 0.20953(9)
H12 H 0.5403 0.0453 0.1700
C26 C 0.38286(12) 0.06180(5) 0.20019(8)
C27 C 0.31727(12) 0.04503(5) 0.25998(8)
H13 H 0.2418 0.0615 0.2544
C28 C 0.34011(12) 0.10681(5) 0.13418(8)
C29 C 0.22883(12) 0.10382(5) 0.07219(8)
C30 C 0.18876(12) 0.14769(6) 0.01388(9)
H14 H 0.1141 0.1453 -0.0286
C31 C 0.25739(13) 0.19473(6) 0.01758(8)
C32 C 0.36795(12) 0.19748(5) 0.07799(9)
H15 H 0.4152 0.2295 0.0797
C33 C 0.41079(12) 0.15423(5) 0.13594(8)
C34 C 0.14824(13) 0.05434(6) 0.06482(10)
H16 H 0.1962 0.0213 0.0835
H17 H 0.1022 0.0501 0.0026
H18 H 0.0941 0.0596 0.1036
C35 C 0.11327(15) 0.23887(7) -0.09874(11)
H19 H 0.1134 0.2092 -0.1418
H20 H 0.0993 0.2741 -0.1305
H21 H 0.0502 0.2322 -0.0682
C36 C 0.53158(13) 0.16112(6) 0.20002(9)
H22 H 0.5304 0.1456 0.2585
H23 H 0.5515 0.2003 0.2067
H24 H 0.5912 0.1419 0.1763
C37 C 0.61539(14) -0.34215(6) 0.77592(12)
H25 H 0.6250 -0.3370 0.8411
H26 H 0.5308 -0.3503 0.7485
C38 C 0.6507(2) -0.40696(9) 0.67389(17)
H27 H 0.6524 -0.3770 0.6317
H28 H 0.5705 -0.4225 0.6615
H29 H 0.7069 -0.4357 0.6671
C39 C 1.11639(13) 0.03914(5) 0.72616(11)
C40 C 1.06712(11) 0.05983(6) 0.66402(10)
C41 C 1.00157(12) 0.08694(6) 0.58071(9)
C42 C 1.03522(12) 0.13922(6) 0.55620(9)
C43 C 0.97277(13) 0.16298(6) 0.47631(10)
H30 H 0.9955 0.1981 0.4592
C44 C 0.87693(13) 0.13545(6) 0.42122(9)
C45 C 0.84292(12) 0.08409(6) 0.44589(10)
H31 H 0.7769 0.0659 0.4080
C46 C 0.90391(12) 0.05908(6) 0.52494(9)
C47 C 1.13684(15) 0.16974(7) 0.61713(11)
H32 H 1.1613 0.2002 0.5842
H33 H 1.2038 0.1446 0.6382
H34 H 1.1115 0.1843 0.6687
C48 C 0.84651(16) 0.20529(7) 0.30928(11)
H35 H 0.7938 0.2139 0.2506
H36 H 0.9282 0.2017 0.3036
H37 H 0.8425 0.2349 0.3516
C49 C 0.86724(13) 0.00354(6) 0.55119(11)
H38 H 0.8354 0.0073 0.6040
H39 H 0.9363 -0.0210 0.5652
H40 H 0.8062 -0.0119 0.5015
C50 C 1.41406(12) 0.11457(6) 0.89364(9)
H41 H 1.4108 0.1204 0.9566
H42 H 1.4809 0.0895 0.8934
C51 C 1.46785(17) 0.15780(8) 0.77423(12)
H43 H 1.4081 0.1369 0.7305
H44 H 1.5437 0.1381 0.7870
H45 H 1.4776 0.1942 0.7497
loop_
_geom_bond_atom_site_label_1
_geom_bond_atom_site_label_2
_geom_bond_site_symmetry_1
_geom_bond_site_symmetry_2
O1 C31 1_555 1_555
O2 C2 1_555 1_555
O3 C37 1_555 1_555
O4 C44 1_555 1_555
O5 C14 1_555 1_555
O6 C50 1_555 1_555
N1 C1 1_555 1_555
N2 C6 1_555 1_555
N3 C11 1_555 1_555
N4 C21 1_555 1_555
N5 C23 1_555 1_555
C1 H1 1_555 1_555
C2 C1 1_555 1_555
C3 C2 1_555 1_555
C4 C3 1_555 1_555
H2 C4 1_555 1_555
C5 N1 1_555 1_555
C6 C5 1_555 1_555
C7 C6 1_555 1_555
H3 C7 1_555 1_555
C8 C7 1_555 1_555
H4 C8 1_555 1_555
C9 C8 1_555 1_555
H5 C9 1_555 1_555
C10 N2 1_555 1_555
C11 C10 1_555 1_555
C12 C11 1_555 1_555
H6 C12 1_555 1_555
C13 C12 1_555 1_555
C14 C13 1_555 1_555
C15 N3 1_555 1_555
H7 C15 1_555 1_555
C16 C3 1_555 1_555
C17 C16 1_555 1_555
C18 C17 1_555 1_555
C19 C18 1_555 1_555
H8 C19 1_555 1_555
C20 C19 1_555 1_555
H9 C20 1_555 1_555
C21 C20 1_555 1_555
C22 N4 1_555 1_555
H10 C22 1_555 1_555
C23 C21 1_555 1_555
C24 C23 1_555 1_555
H11 C24 1_555 1_555
C25 C24 1_555 1_555
H12 C25 1_555 1_555
C26 C25 1_555 1_555
C27 N5 1_555 1_555
H13 C27 1_555 1_555
C28 C26 1_555 1_555
C29 C28 1_555 1_555
C30 C29 1_555 1_555
H14 C30 1_555 1_555
C31 C30 1_555 1_555
C32 C31 1_555 1_555
H15 C32 1_555 1_555
C33 C28 1_555 1_555
C34 C29 1_555 1_555
H16 C34 1_555 1_555
H17 C34 1_555 1_555
H18 C34 1_555 1_555
C35 O1 1_555 1_555
H19 C35 1_555 1_555
H20 C35 1_555 1_555
H21 C35 1_555 1_555
C36 C33 1_555 1_555
H22 C36 1_555 1_555
H23 C36 1_555 1_555
H24 C36 1_555 1_555
C37 O2 1_555 1_555
H25 C37 1_555 1_555
H26 C37 1_555 1_555
C38 O3 1_555 1_555
H27 C38 1_555 1_555
H28 C38 1_555 1_555
H29 C38 1_555 1_555
C39 C13 1_555 1_555
C40 C39 1_555 1_555
C41 C40 1_555 1_555
C42 C41 1_555 1_555
C43 C42 1_555 1_555
H30 C43 1_555 1_555
C44 C43 1_555 1_555
C45 C44 1_555 1_555
H31 C45 1_555 1_555
C46 C41 1_555 1_555
C47 C42 1_555 1_555
H32 C47 1_555 1_555
H33 C47 1_555 1_555
H34 C47 1_555 1_555
C48 O4 1_555 1_555
H35 C48 1_555 1_555
H36 C48 1_555 1_555
H37 C48 1_555 1_555
C49 C46 1_555 1_555
H38 C49 1_555 1_555
H39 C49 1_555 1_555
H40 C49 1_555 1_555
C50 O5 1_555 1_555
H41 C50 1_555 1_555
H42 C50 1_555 1_555
C51 O6 1_555 1_555
H43 C51 1_555 1_555
H44 C51 1_555 1_555
H45 C51 1_555 1_555
C4 C5 1_555 1_555
C9 C10 1_555 1_555
C14 C15 1_555 1_555
C18 C22 1_555 1_555
C26 C27 1_555 1_555
C32 C33 1_555 1_555
C45 C46 1_555 1_555

#END
