
#######################################################################
#
#                 Cambridge Crystallographic Data Centre
#                                CCDC 
#
#######################################################################
#
# If this CIF has been generated from an entry in the Cambridge 
# Structural Database, then it will include bibliographic, chemical, 
# crystal, experimental, refinement or atomic coordinate data resulting 
# from the CCDC's data processing and validation procedures.
#
#######################################################################

data_PAHVOL
_chemical_compound_source        
'cultured broth of marine actinomycete Streptomyces antibioticus H74-18'
_chemical_name_common            'Antimycin A!19$'
_chemical_formula_moiety         'C28 H40 N2 O9'
_chemical_name_systematic        
'(2S,3R,6R,7S,8S)-3-((3-Formamido-2-hydroxybenzoyl)amino)-2,6-dimethyl-4,9-dioxo-8-pentyl-1,5-dioxonan-7-yl (R)-2,3-dimethylbutanoate'
_chemical_properties_biological  'antifungal activity'
_symmetry_cell_setting           monoclinic
_symmetry_space_group_name_H-M   'P 21'
_symmetry_Int_Tables_number      4
_space_group_name_Hall           'P 2yb'
loop_
_symmetry_equiv_pos_site_id
_symmetry_equiv_pos_as_xyz
1 x,y,z
2 -x,1/2+y,-z
_cell_length_a                   12.5530(3)
_cell_length_b                   8.0264(2)
_cell_length_c                   15.7083(3)
_cell_angle_alpha                90
_cell_angle_beta                 92.064(2)
_cell_angle_gamma                90
_cell_volume                     1581.67
_exptl_crystal_colour            colorless
_exptl_crystal_description       block
_cell_formula_units_Z            2
loop_
_atom_site_label
_atom_site_type_symbol
_atom_site_fract_x
_atom_site_fract_y
_atom_site_fract_z
O1 O 0.4398(5) 1.6671(6) 0.0187(3)
O2 O 0.4284(3) 1.1351(4) 0.16339(19)
H1 H 0.4176 1.0562 0.1951
O3 O 0.3664(2) 0.9860(4) 0.29488(19)
O4 O 0.1805(2) 1.1499(4) 0.5427(2)
O5 O 0.12652(17) 0.8853(3) 0.52860(14)
O6 O 0.2652(2) 0.5803(4) 0.5096(2)
O7 O 0.32781(19) 0.8150(3) 0.57140(15)
O8 O 0.0522(2) 0.6919(4) 0.72382(16)
O9 O -0.0720(3) 0.5142(7) 0.6782(3)
N1 N 0.4483(4) 1.4061(5) 0.0724(2)
H2 H 0.4695 1.3076 0.0598
N2 N 0.2967(2) 1.1227(4) 0.40250(19)
H3 H 0.2862 1.2168 0.4271
C1 C 0.3273(4) 1.5738(5) 0.2660(3)
H4 H 0.3061 1.6748 0.2890
C2 C 0.3685(4) 1.5707(5) 0.1857(3)
H5 H 0.3731 1.6684 0.1541
C3 C 0.4023(4) 1.4231(5) 0.1528(3)
C4 C 0.3935(3) 1.2773(5) 0.1995(3)
C5 C 0.3499(3) 1.2809(5) 0.2803(3)
C6 C 0.3173(3) 1.4325(5) 0.3118(3)
H6 H 0.2880 1.4374 0.3653
C7 C 0.3391(3) 1.1213(5) 0.3261(3)
C8 C 0.2675(3) 0.9710(5) 0.4456(2)
H7 H 0.2343 0.8945 0.4039
C9 C 0.1867(3) 1.0175(6) 0.5098(3)
C10 C 0.0799(3) 0.8818(6) 0.6118(2)
H8 H 0.1195 0.9568 0.6507
C11 C 0.0964(3) 0.7038(6) 0.6400(2)
H9 H 0.0584 0.6282 0.6005
C12 C 0.2136(3) 0.6494(6) 0.6519(2)
H10 H 0.2478 0.7229 0.6945
C13 C 0.2712(3) 0.6720(6) 0.5688(3)
C14 C 0.3639(3) 0.8810(6) 0.4916(2)
H11 H 0.3887 0.7897 0.4559
C15 C -0.0313(4) 0.5886(8) 0.7345(4)
C16 C 0.2250(4) 0.4734(6) 0.6835(3)
H12 H 0.1791 0.4588 0.7313
H13 H 0.1999 0.3985 0.6387
C17 C 0.3366(5) 0.4232(10) 0.7111(5)
H14 H 0.3629 0.4991 0.7551
H15 H 0.3825 0.4332 0.6630
C18 C 0.3427(8) 0.2429(16) 0.7455(8)
H16 H 0.3191 0.1694 0.6996
H17 H 0.4173 0.2180 0.7580
C19 C 0.2853(9) 0.1988(14) 0.8186(9)
H18 H 0.2126 0.2358 0.8077
H19 H 0.3141 0.2666 0.8651
C20 C 0.2781(16) 0.0102(19) 0.8548(13)
H20 H 0.2331 0.0083 0.9030
H21 H 0.3482 -0.0279 0.8719
H22 H 0.2488 -0.0616 0.8111
C21 C 0.4630(6) 1.5233(9) 0.0136(4)
H23 H 0.4945 1.4895 -0.0363
C22 C 0.4556(3) 0.9950(8) 0.5151(3)
H24 H 0.5117 0.9320 0.5430
H25 H 0.4319 1.0804 0.5527
H26 H 0.4817 1.0453 0.4644
C23 C -0.0357(3) 0.9376(7) 0.6029(3)
H27 H -0.0384 1.0524 0.5858
H28 H -0.0690 0.9252 0.6566
H29 H -0.0725 0.8706 0.5607
C24 C -0.0630(7) 0.5909(13) 0.8251(5)
H30 H 0.0079 0.5750 0.8521
C25 C -0.1123(11) 0.409(2) 0.8462(7)
H31 H -0.1678 0.3771 0.8039
C26 C -0.0850(17) 0.750(4) 0.8590(10)
H32 H -0.0390 0.8311 0.8346
H33 H -0.0730 0.7478 0.9197
H34 H -0.1580 0.7785 0.8458
C27 C -0.011(2) 0.294(3) 0.8410(19)
H35 H -0.0303 0.1814 0.8550
H36 H 0.0433 0.3324 0.8806
H37 H 0.0148 0.2969 0.7843
C28 C -0.155(3) 0.424(6) 0.9325(16)
H38 H -0.2095 0.5085 0.9322
H39 H -0.0990 0.4536 0.9725
H40 H -0.1857 0.3193 0.9487
loop_
_geom_bond_atom_site_label_1
_geom_bond_atom_site_label_2
_geom_bond_site_symmetry_1
_geom_bond_site_symmetry_2
O1 C21 1_555 1_555
O2 H1 1_555 1_555
O3 C7 1_555 1_555
O4 C9 1_555 1_555
O5 C9 1_555 1_555
O6 C13 1_555 1_555
O7 C13 1_555 1_555
O8 C11 1_555 1_555
O9 C15 1_555 1_555
N1 H2 1_555 1_555
N2 H3 1_555 1_555
C1 H4 1_555 1_555
C2 C1 1_555 1_555
H5 C2 1_555 1_555
C3 N1 1_555 1_555
C4 O2 1_555 1_555
C5 C4 1_555 1_555
C6 C1 1_555 1_555
H6 C6 1_555 1_555
C7 N2 1_555 1_555
C8 N2 1_555 1_555
H7 C8 1_555 1_555
C9 C8 1_555 1_555
C10 O5 1_555 1_555
H8 C10 1_555 1_555
C11 C10 1_555 1_555
H9 C11 1_555 1_555
C12 C11 1_555 1_555
H10 C12 1_555 1_555
C13 C12 1_555 1_555
C14 O7 1_555 1_555
H11 C14 1_555 1_555
C15 O8 1_555 1_555
C16 C12 1_555 1_555
H12 C16 1_555 1_555
H13 C16 1_555 1_555
C17 C16 1_555 1_555
H14 C17 1_555 1_555
H15 C17 1_555 1_555
C18 C17 1_555 1_555
H16 C18 1_555 1_555
H17 C18 1_555 1_555
C19 C18 1_555 1_555
H18 C19 1_555 1_555
H19 C19 1_555 1_555
C20 C19 1_555 1_555
H20 C20 1_555 1_555
H21 C20 1_555 1_555
H22 C20 1_555 1_555
C21 N1 1_555 1_555
H23 C21 1_555 1_555
C22 C14 1_555 1_555
H24 C22 1_555 1_555
H25 C22 1_555 1_555
H26 C22 1_555 1_555
C23 C10 1_555 1_555
H27 C23 1_555 1_555
H28 C23 1_555 1_555
H29 C23 1_555 1_555
C24 C15 1_555 1_555
H30 C24 1_555 1_555
C25 C24 1_555 1_555
H31 C25 1_555 1_555
C26 C24 1_555 1_555
H32 C26 1_555 1_555
H33 C26 1_555 1_555
H34 C26 1_555 1_555
C27 C25 1_555 1_555
H35 C27 1_555 1_555
H36 C27 1_555 1_555
H37 C27 1_555 1_555
C28 C25 1_555 1_555
H38 C28 1_555 1_555
H39 C28 1_555 1_555
H40 C28 1_555 1_555
C2 C3 1_555 1_555
C3 C4 1_555 1_555
C5 C6 1_555 1_555
C5 C7 1_555 1_555
C8 C14 1_555 1_555

#END
