
#######################################################################
#
#                 Cambridge Crystallographic Data Centre
#                                CCDC 
#
#######################################################################
#
# If this CIF has been generated from an entry in the Cambridge 
# Structural Database, then it will include bibliographic, chemical, 
# crystal, experimental, refinement or atomic coordinate data resulting 
# from the CCDC's data processing and validation procedures.
#
#######################################################################

data_PAHVUR
_chemical_formula_moiety         'C26 H18 F2 N2 O3'
_chemical_name_systematic        
'(E)-Methyl 3-(5-(3-(3,5-difluorophenyl)-1-phenyl-1H-pyrazol-5-yl)-2-formylphenyl)acrylate'
_symmetry_cell_setting           triclinic
_symmetry_space_group_name_H-M   'P -1'
_symmetry_Int_Tables_number      2
_space_group_name_Hall           '-P 1'
loop_
_symmetry_equiv_pos_site_id
_symmetry_equiv_pos_as_xyz
1 x,y,z
2 -x,-y,-z
_cell_length_a                   8.781(2)
_cell_length_b                   11.624(3)
_cell_length_c                   11.964(3)
_cell_angle_alpha                62.420(4)
_cell_angle_beta                 89.149(4)
_cell_angle_gamma                75.148(4)
_cell_volume                     1038.53
_cell_formula_units_Z            2
loop_
_atom_site_label
_atom_site_type_symbol
_atom_site_fract_x
_atom_site_fract_y
_atom_site_fract_z
C1 C 0.43494(13) 0.36502(12) 0.40955(11)
C2 C 0.44950(15) 0.23948(12) 0.41758(12)
H1 H 0.4021 0.1772 0.4803
C3 C 0.53406(16) 0.20622(13) 0.33289(13)
H2 H 0.5453 0.1203 0.3381
C4 C 0.60222(16) 0.29675(14) 0.24095(13)
H3 H 0.6611 0.2727 0.1839
C5 C 0.58464(15) 0.42256(14) 0.23201(12)
H4 H 0.6295 0.4856 0.1676
C6 C 0.50164(14) 0.45683(12) 0.31690(12)
H5 H 0.4906 0.5428 0.3115
C7 C 0.32985(14) 0.32551(11) 0.61883(11)
C8 C 0.21685(14) 0.40699(12) 0.65113(11)
H6 H 0.1765 0.3827 0.7306
C9 C 0.17323(13) 0.53403(12) 0.54203(11)
C10 C 0.06853(13) 0.66143(12) 0.52868(11)
C11 C 0.01850(15) 0.66871(12) 0.63665(12)
H7 H 0.0476 0.5910 0.7179
C12 C -0.07354(15) 0.78985(14) 0.62385(13)
C13 C -0.11711(15) 0.90672(13) 0.50970(13)
H8 H -0.1803 0.9897 0.5032
C14 C -0.06330(14) 0.89584(12) 0.40540(12)
C15 C 0.02594(14) 0.77745(12) 0.41029(12)
H9 H 0.0579 0.7745 0.3352
C16 C 0.43303(14) 0.18932(11) 0.70233(11)
C17 C 0.59756(14) 0.15815(12) 0.69915(11)
H10 H 0.6439 0.2240 0.6399
C18 C 0.69135(14) 0.03090(12) 0.78293(11)
H11 H 0.8030 0.0101 0.7813
C19 C 0.62658(14) -0.06824(12) 0.87012(11)
C20 C 0.46066(14) -0.03792(11) 0.87479(11)
C21 C 0.36804(14) 0.09214(12) 0.79064(11)
H12 H 0.2567 0.1150 0.7939
C22 C 0.74206(15) -0.19904(12) 0.95382(11)
H13 H 0.8502 -0.2055 0.9407
C23 C 0.38383(14) -0.14050(12) 0.95815(11)
H14 H 0.4419 -0.2329 0.9910
C24 C 0.23852(14) -0.11290(12) 0.99079(11)
H15 H 0.1838 -0.0211 0.9654
C25 C 0.15852(14) -0.21673(12) 1.06395(11)
C26 C 0.15444(16) -0.44170(13) 1.13781(14)
H16 H 0.1461 -0.4535 1.2240
H17 H 0.2189 -0.5264 1.1421
H18 H 0.0482 -0.4174 1.0947
F1 F -0.12245(11) 0.79464(9) 0.72989(8)
F2 F -0.10076(9) 1.00966(7) 0.29131(7)
N1 N 0.34646(11) 0.40321(9) 0.49379(9)
N2 N 0.25023(11) 0.53181(10) 0.44553(10)
O1 O 0.03953(11) -0.19677(9) 1.11285(8)
O2 O 0.22825(11) -0.33565(9) 1.06805(9)
O3 O 0.71531(11) -0.29917(9) 1.03724(9)
loop_
_geom_bond_atom_site_label_1
_geom_bond_atom_site_label_2
_geom_bond_site_symmetry_1
_geom_bond_site_symmetry_2
C1 C2 1_555 1_555
C2 H1 1_555 1_555
C3 C2 1_555 1_555
H2 C3 1_555 1_555
C4 C3 1_555 1_555
H3 C4 1_555 1_555
C5 C4 1_555 1_555
H4 C5 1_555 1_555
C6 C1 1_555 1_555
H5 C6 1_555 1_555
C7 C8 1_555 1_555
C8 H6 1_555 1_555
C9 C8 1_555 1_555
C10 C9 1_555 1_555
C11 C10 1_555 1_555
H7 C11 1_555 1_555
C12 C11 1_555 1_555
C13 C12 1_555 1_555
H8 C13 1_555 1_555
C14 C13 1_555 1_555
C15 C10 1_555 1_555
H9 C15 1_555 1_555
C16 C7 1_555 1_555
C17 C16 1_555 1_555
H10 C17 1_555 1_555
C18 C17 1_555 1_555
H11 C18 1_555 1_555
C19 C18 1_555 1_555
C20 C19 1_555 1_555
C21 C16 1_555 1_555
H12 C21 1_555 1_555
C22 C19 1_555 1_555
H13 C22 1_555 1_555
C23 C20 1_555 1_555
H14 C23 1_555 1_555
C24 C23 1_555 1_555
H15 C24 1_555 1_555
C25 C24 1_555 1_555
C26 H16 1_555 1_555
H17 C26 1_555 1_555
H18 C26 1_555 1_555
F1 C12 1_555 1_555
F2 C14 1_555 1_555
N1 C1 1_555 1_555
N2 C9 1_555 1_555
O1 C25 1_555 1_555
O2 C25 1_555 1_555
O3 C22 1_555 1_555
C5 C6 1_555 1_555
C7 N1 1_555 1_555
C14 C15 1_555 1_555
C20 C21 1_555 1_555
C26 O2 1_555 1_555
N1 N2 1_555 1_555

#END
