
#######################################################################
#
#                 Cambridge Crystallographic Data Centre
#                                CCDC 
#
#######################################################################
#
# If this CIF has been generated from an entry in the Cambridge 
# Structural Database, then it will include bibliographic, chemical, 
# crystal, experimental, refinement or atomic coordinate data resulting 
# from the CCDC's data processing and validation procedures.
#
#######################################################################

data_PAHWUS
_chemical_formula_moiety         'C60 H44 N4 S16,C38 H36 N8 O8,C5 H12'
_chemical_name_systematic        
'6,14,22,30-tetrakis(1,3-Benzodithiol-2-ylidene)-2,2,10,10,18,18,26,26-octamethyl-5,7,13,15,21,23,29,31-octathia-33,34,35,36-tetraazanonacyclo[25.5.1.1^3,9^.1^11,17^.1^19,25^.0^4,8^.0^12,16^.0^20,24^.0^28,32^]hexatriaconta-1(32),3,8,11,16,19,24,27-octaene trans-5,15-bis(3,5-dinitrophenyl)-5,10,10,15,20,20-hexamethyl-5,10,15,20,22,24-hexahydroporphyrin n-pentane solvate'
_symmetry_cell_setting           triclinic
_symmetry_space_group_name_H-M   'P -1'
_symmetry_Int_Tables_number      2
_space_group_name_Hall           '-P 1'
loop_
_symmetry_equiv_pos_site_id
_symmetry_equiv_pos_as_xyz
1 x,y,z
2 -x,-y,-z
_cell_length_a                   17.9360(15)
_cell_length_b                   18.3614(16)
_cell_length_c                   18.3799(16)
_cell_angle_alpha                74.415(2)
_cell_angle_beta                 67.730(2)
_cell_angle_gamma                68.746(2)
_cell_volume                     5159.7
_exptl_crystal_colour            brown
_exptl_crystal_description       needle
_cell_formula_units_Z            2
loop_
_atom_site_label
_atom_site_type_symbol
_atom_site_fract_x
_atom_site_fract_y
_atom_site_fract_z
S1 S 0.91138(14) 0.92842(13) -0.05788(13)
S2 S 0.77880(14) 0.86608(14) -0.05967(13)
S3 S 0.78419(15) 0.97432(14) -0.23509(14)
S4 S 0.92168(15) 1.02570(14) -0.23187(14)
S5 S 0.59447(13) 1.24959(11) 0.12032(13)
S6 S 0.47424(14) 1.17282(12) 0.11830(13)
S7 S 0.34974(14) 1.34030(13) 0.07529(14)
S8 S 0.46029(14) 1.42311(12) 0.08450(13)
S9 S 0.90228(13) 0.84161(12) 0.35413(12)
S10 S 0.77061(14) 0.97693(12) 0.43594(13)
S11 S 0.78735(15) 0.85993(13) 0.60902(13)
S12 S 0.91805(15) 0.73768(13) 0.51430(14)
S13 S 0.45170(14) 0.83242(12) 0.43029(13)
S14 S 0.57684(13) 0.69497(11) 0.35084(13)
S15 S 0.44493(13) 0.59183(11) 0.44498(12)
S16 S 0.32079(14) 0.73029(12) 0.52262(13)
N1 N 0.7916(4) 0.8381(4) 0.1566(4)
H1 H 0.7795 0.8226 0.2083
N2 N 0.7984(4) 1.0080(4) 0.2069(4)
H2 H 0.7889 1.0310 0.1614
N3 N 0.5861(4) 1.0577(3) 0.2808(4)
H3 H 0.5972 1.0218 0.3210
N4 N 0.5863(4) 0.9008(4) 0.2126(4)
H4 H 0.6030 0.9341 0.1700
C1 C 0.7526(5) 0.8270(5) 0.1112(5)
C2 C 0.7889(5) 0.8586(5) 0.0338(5)
C3 C 0.8510(5) 0.8893(5) 0.0355(5)
C4 C 0.8526(5) 0.8766(4) 0.1122(5)
C5 C 0.8465(5) 0.9274(5) -0.1089(5)
C6 C 0.8505(5) 0.9710(5) -0.1824(5)
C7 C 0.9021(6) 1.0476(5) -0.3224(6)
C8 C 0.8354(5) 1.0258(5) -0.3243(5)
C9 C 0.8169(6) 1.0428(5) -0.3949(5)
H5 H 0.7716 1.0283 -0.3960
C10 C 0.8620(6) 1.0795(5) -0.4620(6)
H6 H 0.8478 1.0912 -0.5095
C11 C 0.9304(6) 1.1007(5) -0.4620(5)
H7 H 0.9629 1.1257 -0.5094
C12 C 0.9493(6) 1.0845(5) -0.3922(6)
H8 H 0.9950 1.0987 -0.3916
C13 C 0.9086(5) 0.8906(4) 0.1478(5)
C14 C 0.9661(5) 0.9379(4) 0.0853(5)
H9 H 1.0025 0.9078 0.0414
H10 H 1.0011 0.9475 0.1096
H11 H 0.9316 0.9886 0.0649
C15 C 0.9645(5) 0.8089(4) 0.1758(5)
H12 H 0.9286 0.7760 0.2115
H13 H 0.9973 0.8161 0.2040
H14 H 1.0028 0.7830 0.1294
C16 C 0.8558(5) 0.9349(4) 0.2172(5)
C17 C 0.8512(5) 0.9201(4) 0.2950(5)
C18 C 0.7898(5) 0.9852(4) 0.3336(5)
C19 C 0.7575(5) 1.0409(4) 0.2761(5)
C20 C 0.8384(5) 0.8783(5) 0.4446(5)
C21 C 0.8459(5) 0.8330(5) 0.5133(5)
C22 C 0.8413(6) 0.7753(5) 0.6617(6)
C23 C 0.8239(6) 0.7637(5) 0.7439(5)
H15 H 0.7801 0.8015 0.7748
C24 C 0.8710(7) 0.6966(6) 0.7796(6)
H16 H 0.8614 0.6894 0.8352
C25 C 0.9331(7) 0.6389(6) 0.7346(6)
H17 H 0.9642 0.5925 0.7604
C26 C 0.9500(6) 0.6482(5) 0.6531(6)
H18 H 0.9920 0.6092 0.6225
C27 C 0.9025(5) 0.7176(5) 0.6178(5)
C28 C 0.6910(5) 1.1212(4) 0.2775(5)
C29 C 0.7302(5) 1.1861(5) 0.2260(5)
H19 H 0.7699 1.1903 0.2484
H20 H 0.6858 1.2366 0.2246
H21 H 0.7601 1.1735 0.1719
C30 C 0.6476(5) 1.1385(5) 0.3624(5)
H22 H 0.6169 1.0999 0.3939
H23 H 0.6080 1.1919 0.3624
H24 H 0.6900 1.1349 0.3858
C31 C 0.6253(5) 1.1158(4) 0.2449(5)
C32 C 0.5906(5) 1.1600(4) 0.1867(5)
C33 C 0.5295(5) 1.1258(4) 0.1879(5)
C34 C 0.5281(5) 1.0618(4) 0.2475(5)
C35 C 0.4986(5) 1.2620(5) 0.1050(5)
C36 C 0.4445(5) 1.3316(4) 0.0903(5)
C37 C 0.3602(6) 1.4836(5) 0.0760(5)
C38 C 0.3099(5) 1.4436(5) 0.0708(5)
C39 C 0.2315(6) 1.4866(5) 0.0615(6)
H25 H 0.1959 1.4603 0.0588
C40 C 0.2060(6) 1.5682(6) 0.0561(6)
H26 H 0.1531 1.5979 0.0483
C41 C 0.2556(6) 1.6067(6) 0.0620(6)
H27 H 0.2366 1.6626 0.0594
C42 C 0.3340(6) 1.5639(5) 0.0720(5)
H28 H 0.3688 1.5903 0.0759
C43 C 0.4716(5) 1.0089(4) 0.2849(5)
C44 C 0.4076(6) 1.0292(5) 0.2414(5)
H29 H 0.3743 1.0848 0.2425
H30 H 0.3701 0.9956 0.2676
H31 H 0.4371 1.0202 0.1861
C45 C 0.4247(5) 1.0208(5) 0.3723(5)
H32 H 0.4651 1.0009 0.4021
H33 H 0.3827 0.9918 0.3953
H34 H 0.3966 1.0772 0.3751
C46 C 0.5237(5) 0.9230(5) 0.2810(5)
C47 C 0.5157(5) 0.8542(5) 0.3330(5)
C48 C 0.5772(5) 0.7897(4) 0.2949(5)
C49 C 0.6203(5) 0.8185(4) 0.2192(5)
C50 C 0.4769(5) 0.7324(4) 0.4193(5)
C51 C 0.4212(5) 0.6901(4) 0.4570(5)
C52 C 0.3497(5) 0.5772(5) 0.5132(5)
C53 C 0.2914(6) 0.6428(5) 0.5488(5)
C54 C 0.2148(6) 0.6366(6) 0.6059(6)
H35 H 0.1750 0.6809 0.6301
C55 C 0.1984(6) 0.5644(6) 0.6265(6)
H36 H 0.1462 0.5595 0.6643
C56 C 0.2574(6) 0.4987(6) 0.5923(6)
H37 H 0.2464 0.4490 0.6090
C57 C 0.3323(6) 0.5059(5) 0.5341(6)
H38 H 0.3712 0.4619 0.5088
C58 C 0.6884(5) 0.7812(4) 0.1489(5)
C59 C 0.6467(6) 0.7817(5) 0.0884(6)
H39 H 0.6897 0.7549 0.0443
H40 H 0.6206 0.8364 0.0679
H41 H 0.6035 0.7541 0.1150
C60 C 0.7312(6) 0.6957(5) 0.1786(6)
H42 H 0.6886 0.6677 0.2077
H43 H 0.7608 0.6951 0.2141
H44 H 0.7717 0.6695 0.1331
O1 O 0.5920(4) 0.9196(3) 0.4469(4)
O2 O 0.6805(4) 0.8902(4) 0.3316(4)
O3 O 0.8875(4) 0.6375(4) 0.3094(4)
O4 O 0.9031(4) 0.5571(4) 0.4159(4)
O5 O 0.5782(4) -0.0061(4) 0.9407(4)
O6 O 0.5976(4) -0.0143(3) 1.0531(4)
O7 O 0.8043(4) 0.1063(3) 1.0394(3)
O8 O 0.8373(4) 0.1966(3) 0.9395(4)
N5 N 0.6488(5) 0.8731(4) 0.4050(5)
N6 N 0.8660(5) 0.6185(5) 0.3827(5)
N7 N 0.6024(5) 0.0161(4) 0.9829(5)
N8 N 0.7968(4) 0.1490(4) 0.9758(4)
N9 N 0.5342(4) 0.5874(4) 0.7176(4)
H45 H 0.5483 0.5741 0.7614
N10 N 0.5319(4) 0.3872(4) 0.7643(4)
H46 H 0.5434 0.3903 0.7128
N11 N 0.7393(4) 0.3344(4) 0.7300(4)
H47 H 0.7152 0.3587 0.7720
N12 N 0.7348(4) 0.5239(4) 0.6604(4)
H48 H 0.7159 0.5066 0.6326
C61 C 0.4718(5) 0.5664(4) 0.7077(5)
C62 C 0.4707(6) 0.5979(5) 0.6321(5)
H49 H 0.4346 0.5930 0.6081
C63 C 0.5320(5) 0.6392(5) 0.5948(5)
H50 H 0.5439 0.6670 0.5420
C64 C 0.5708(5) 0.6318(4) 0.6491(5)
C65 C 0.6397(5) 0.6637(4) 0.6452(5)
C66 C 0.6007(5) 0.7329(5) 0.6929(5)
H51 H 0.5777 0.7133 0.7494
H52 H 0.5554 0.7724 0.6739
H53 H 0.6441 0.7570 0.6858
C67 C 0.6820(5) 0.6922(5) 0.5572(5)
C68 C 0.6472(5) 0.7679(4) 0.5206(5)
H54 H 0.5978 0.8028 0.5502
C69 C 0.6858(5) 0.7916(5) 0.4400(5)
C70 C 0.7555(5) 0.7445(5) 0.3939(5)
H55 H 0.7793 0.7615 0.3389
C71 C 0.7903(5) 0.6710(5) 0.4308(5)
C72 C 0.7554(5) 0.6456(5) 0.5101(5)
H56 H 0.7821 0.5947 0.5334
C73 C 0.7048(5) 0.5994(4) 0.6786(5)
C74 C 0.7485(6) 0.6018(5) 0.7234(5)
H57 H 0.7408 0.6461 0.7457
C75 C 0.8076(5) 0.5267(5) 0.7311(5)
H58 H 0.8469 0.5123 0.7593
C76 C 0.7996(5) 0.4789(5) 0.6926(5)
C77 C 0.8553(5) 0.4010(5) 0.6658(6)
C78 C 0.9138(6) 0.4193(5) 0.5806(7)
H59 H 0.9593 0.3712 0.5657
H60 H 0.9378 0.4602 0.5789
H61 H 0.8813 0.4383 0.5433
C79 C 0.9109(7) 0.3560(6) 0.7222(7)
H62 H 0.8751 0.3569 0.7778
H63 H 0.9539 0.3820 0.7114
H64 H 0.9384 0.3011 0.7126
C80 C 0.8085(5) 0.3478(5) 0.6666(6)
C81 C 0.8264(6) 0.2986(5) 0.6145(5)
H65 H 0.8711 0.2940 0.5657
C82 C 0.7654(6) 0.2548(5) 0.6464(5)
H66 H 0.7617 0.2170 0.6223
C83 C 0.7140(5) 0.2782(5) 0.7181(5)
C84 C 0.6374(5) 0.2523(4) 0.7776(5)
C85 C 0.6048(5) 0.2161(4) 0.7330(5)
H67 H 0.5536 0.2025 0.7691
H68 H 0.6481 0.1683 0.7140
H69 H 0.5920 0.2546 0.6875
C86 C 0.6624(5) 0.1916(4) 0.8477(5)
C87 C 0.7205(5) 0.1949(4) 0.8779(5)
H70 H 0.7498 0.2336 0.8534
C88 C 0.7365(5) 0.1420(5) 0.9440(5)
C89 C 0.6981(5) 0.0838(5) 0.9818(5)
H71 H 0.7083 0.0490 1.0279
C90 C 0.6429(5) 0.0795(4) 0.9476(5)
C91 C 0.6233(5) 0.1309(5) 0.8840(5)
H72 H 0.5837 0.1259 0.8643
C92 C 0.5698(5) 0.3237(4) 0.8119(5)
C93 C 0.5361(6) 0.3414(5) 0.8864(5)
H73 H 0.5500 0.3090 0.9320
C94 C 0.4759(5) 0.4174(5) 0.8843(5)
H74 H 0.4427 0.4446 0.9287
C95 C 0.4738(5) 0.4447(4) 0.8085(5)
C96 C 0.4198(5) 0.5193(5) 0.7737(5)
C97 C 0.3643(5) 0.4980(5) 0.7411(5)
H75 H 0.3266 0.5466 0.7214
H76 H 0.3309 0.4664 0.7836
H77 H 0.4002 0.4674 0.6975
C98 C 0.3613(5) 0.5702(5) 0.8391(5)
H78 H 0.3951 0.5873 0.8587
H79 H 0.3284 0.5392 0.8830
H80 H 0.3230 0.6167 0.8173
C99 C 0.042(2) 0.8234(16) 0.6904(18)
H81 H 0.0957 0.8335 0.6580
H82 H -0.0045 0.8710 0.6835
H83 H 0.0367 0.7796 0.6734
C100 C 0.038(2) 0.8039(11) 0.7696(16)
H84 H 0.0700 0.8305 0.7814
H85 H -0.0214 0.8182 0.8049
C101 C 0.0737(16) 0.7230(10) 0.7779(11)
H86 H 0.0387 0.6962 0.7704
H87 H 0.1309 0.7086 0.7392
C102 C 0.077(2) 0.7034(12) 0.8548(13)
H88 H 0.0194 0.7170 0.8936
H89 H 0.1112 0.7304 0.8626
C103 C 0.114(2) 0.6221(13) 0.8616(17)
H90 H 0.0745 0.5963 0.8620
H91 H 0.1281 0.6029 0.9113
H92 H 0.1652 0.6099 0.8164
C104? C 0.014(5) 0.519(3) 1.061(4)
H93? H 0.0241 0.5541 1.0100
H94? H -0.0146 0.4827 1.0589
H95? H 0.0673 0.4879 1.0705
C105? C -0.037(4) 0.563(3) 1.121(3)
H96? H -0.0972 0.5683 1.1326
H97? H -0.0216 0.5383 1.1707
C106? C -0.021(5) 0.635(3) 1.092(3)
H98? H -0.0560 0.6730 1.1294
H99? H 0.0393 0.6291 1.0806
C107? C -0.042(4) 0.658(3) 1.023(4)
H100? H -0.1009 0.6926 1.0319
H101? H -0.0354 0.6119 1.0003
C108? C 0.014(5) 0.699(5) 0.973(4)
H102? H -0.0155 0.7555 0.9648
H103? H 0.0411 0.6796 0.9216
H104? H 0.0576 0.6908 0.9970
C109? C 0.0982(10) 0.8458(10) 0.6662(10)
H105? H 0.1194 0.8269 0.7118
H106? H 0.0866 0.9033 0.6528
H107? H 0.1406 0.8210 0.6205
C110? C 0.0246(15) 0.8259(18) 0.6851(15)
H108? H -0.0233 0.8735 0.6802
H109? H 0.0315 0.7889 0.6510
C111? C 0.0139(11) 0.7901(13) 0.7637(14)
H110? H -0.0156 0.8297 0.8006
H111? H -0.0178 0.7512 0.7786
C112? C 0.0960(13) 0.7535(14) 0.7637(17)
H112? H 0.1338 0.7423 0.7099
H113? H 0.1163 0.7869 0.7818
C113? C 0.0928(16) 0.6852(13) 0.8157(15)
H114? H 0.0475 0.6971 0.8655
H115? H 0.1467 0.6599 0.8265
H116? H 0.0818 0.6494 0.7925
loop_
_geom_bond_atom_site_label_1
_geom_bond_atom_site_label_2
_geom_bond_site_symmetry_1
_geom_bond_site_symmetry_2
S1 C3 1_555 1_555
S2 C2 1_555 1_555
S3 C6 1_555 1_555
S4 C6 1_555 1_555
S5 C32 1_555 1_555
S6 C33 1_555 1_555
S7 C36 1_555 1_555
S8 C36 1_555 1_555
S9 C17 1_555 1_555
S10 C18 1_555 1_555
S11 C21 1_555 1_555
S12 C21 1_555 1_555
S13 C47 1_555 1_555
S14 C48 1_555 1_555
S15 C51 1_555 1_555
S16 C51 1_555 1_555
N1 H1 1_555 1_555
N2 H2 1_555 1_555
N3 H3 1_555 1_555
N4 H4 1_555 1_555
C1 N1 1_555 1_555
C2 C1 1_555 1_555
C3 C2 1_555 1_555
C4 N1 1_555 1_555
C5 S1 1_555 1_555
C6 C5 1_555 1_555
C7 S4 1_555 1_555
C8 S3 1_555 1_555
C9 C8 1_555 1_555
H5 C9 1_555 1_555
C10 C9 1_555 1_555
H6 C10 1_555 1_555
C11 C10 1_555 1_555
H7 C11 1_555 1_555
C12 C7 1_555 1_555
H8 C12 1_555 1_555
C13 C4 1_555 1_555
C14 C13 1_555 1_555
H9 C14 1_555 1_555
H10 C14 1_555 1_555
H11 C14 1_555 1_555
C15 C13 1_555 1_555
H12 C15 1_555 1_555
H13 C15 1_555 1_555
H14 C15 1_555 1_555
C16 N2 1_555 1_555
C17 C16 1_555 1_555
C18 C17 1_555 1_555
C19 N2 1_555 1_555
C20 S9 1_555 1_555
C21 C20 1_555 1_555
C22 S11 1_555 1_555
C23 C22 1_555 1_555
H15 C23 1_555 1_555
C24 C23 1_555 1_555
H16 C24 1_555 1_555
C25 C24 1_555 1_555
H17 C25 1_555 1_555
C26 C25 1_555 1_555
H18 C26 1_555 1_555
C27 S12 1_555 1_555
C28 C19 1_555 1_555
C29 C28 1_555 1_555
H19 C29 1_555 1_555
H20 C29 1_555 1_555
H21 C29 1_555 1_555
C30 C28 1_555 1_555
H22 C30 1_555 1_555
H23 C30 1_555 1_555
H24 C30 1_555 1_555
C31 N3 1_555 1_555
C32 C31 1_555 1_555
C33 C32 1_555 1_555
C34 N3 1_555 1_555
C35 S5 1_555 1_555
C36 C35 1_555 1_555
C37 S8 1_555 1_555
C38 S7 1_555 1_555
C39 C38 1_555 1_555
H25 C39 1_555 1_555
C40 C39 1_555 1_555
H26 C40 1_555 1_555
C41 C40 1_555 1_555
H27 C41 1_555 1_555
C42 C37 1_555 1_555
H28 C42 1_555 1_555
C43 C34 1_555 1_555
C44 C43 1_555 1_555
H29 C44 1_555 1_555
H30 C44 1_555 1_555
H31 C44 1_555 1_555
C45 C43 1_555 1_555
H32 C45 1_555 1_555
H33 C45 1_555 1_555
H34 C45 1_555 1_555
C46 N4 1_555 1_555
C47 C46 1_555 1_555
C48 C47 1_555 1_555
C49 N4 1_555 1_555
C50 S13 1_555 1_555
C51 C50 1_555 1_555
C52 S15 1_555 1_555
C53 S16 1_555 1_555
C54 C53 1_555 1_555
H35 C54 1_555 1_555
C55 C54 1_555 1_555
H36 C55 1_555 1_555
C56 C55 1_555 1_555
H37 C56 1_555 1_555
C57 C52 1_555 1_555
H38 C57 1_555 1_555
C58 C1 1_555 1_555
C59 C58 1_555 1_555
H39 C59 1_555 1_555
H40 C59 1_555 1_555
H41 C59 1_555 1_555
C60 C58 1_555 1_555
H42 C60 1_555 1_555
H43 C60 1_555 1_555
H44 C60 1_555 1_555
O1 N5 1_555 1_555
O2 N5 1_555 1_555
O3 N6 1_555 1_555
O4 N6 1_555 1_555
O5 N7 1_555 1_555
O6 N7 1_555 1_555
O7 N8 1_555 1_555
O8 N8 1_555 1_555
N5 C69 1_555 1_555
N6 C71 1_555 1_555
N7 C90 1_555 1_555
N8 C88 1_555 1_555
N9 H45 1_555 1_555
N10 H46 1_555 1_555
N11 H47 1_555 1_555
N12 H48 1_555 1_555
C61 N9 1_555 1_555
C62 C61 1_555 1_555
H49 C62 1_555 1_555
C63 C62 1_555 1_555
H50 C63 1_555 1_555
C64 N9 1_555 1_555
C65 C64 1_555 1_555
C66 C65 1_555 1_555
H51 C66 1_555 1_555
H52 C66 1_555 1_555
H53 C66 1_555 1_555
C67 C65 1_555 1_555
C68 C67 1_555 1_555
H54 C68 1_555 1_555
C69 C68 1_555 1_555
C70 C69 1_555 1_555
H55 C70 1_555 1_555
C71 C70 1_555 1_555
C72 C67 1_555 1_555
H56 C72 1_555 1_555
C73 N12 1_555 1_555
C74 C73 1_555 1_555
H57 C74 1_555 1_555
C75 C74 1_555 1_555
H58 C75 1_555 1_555
C76 N12 1_555 1_555
C77 C76 1_555 1_555
C78 C77 1_555 1_555
H59 C78 1_555 1_555
H60 C78 1_555 1_555
H61 C78 1_555 1_555
C79 C77 1_555 1_555
H62 C79 1_555 1_555
H63 C79 1_555 1_555
H64 C79 1_555 1_555
C80 N11 1_555 1_555
C81 C80 1_555 1_555
H65 C81 1_555 1_555
C82 C81 1_555 1_555
H66 C82 1_555 1_555
C83 N11 1_555 1_555
C84 C83 1_555 1_555
C85 C84 1_555 1_555
H67 C85 1_555 1_555
H68 C85 1_555 1_555
H69 C85 1_555 1_555
C86 C84 1_555 1_555
C87 C86 1_555 1_555
H70 C87 1_555 1_555
C88 C87 1_555 1_555
C89 C88 1_555 1_555
H71 C89 1_555 1_555
C90 C89 1_555 1_555
C91 C86 1_555 1_555
H72 C91 1_555 1_555
C92 N10 1_555 1_555
C93 C92 1_555 1_555
H73 C93 1_555 1_555
C94 C93 1_555 1_555
H74 C94 1_555 1_555
C95 N10 1_555 1_555
C96 C61 1_555 1_555
C97 C96 1_555 1_555
H75 C97 1_555 1_555
H76 C97 1_555 1_555
H77 C97 1_555 1_555
C98 C96 1_555 1_555
H78 C98 1_555 1_555
H79 C98 1_555 1_555
H80 C98 1_555 1_555
C99 H81 1_555 1_555
H82 C99 1_555 1_555
H83 C99 1_555 1_555
C100 C99 1_555 1_555
H84 C100 1_555 1_555
H85 C100 1_555 1_555
C101 C100 1_555 1_555
H86 C101 1_555 1_555
H87 C101 1_555 1_555
C102 C101 1_555 1_555
H88 C102 1_555 1_555
H89 C102 1_555 1_555
C103 C102 1_555 1_555
H90 C103 1_555 1_555
H91 C103 1_555 1_555
H92 C103 1_555 1_555
S2 C5 1_555 1_555
S6 C35 1_555 1_555
S10 C20 1_555 1_555
S14 C50 1_555 1_555
C3 C4 1_555 1_555
C7 C8 1_555 1_555
C11 C12 1_555 1_555
C13 C16 1_555 1_555
C18 C19 1_555 1_555
C22 C27 1_555 1_555
C26 C27 1_555 1_555
C28 C31 1_555 1_555
C33 C34 1_555 1_555
C37 C38 1_555 1_555
C41 C42 1_555 1_555
C43 C46 1_555 1_555
C48 C49 1_555 1_555
C49 C58 1_555 1_555
C52 C53 1_555 1_555
C56 C57 1_555 1_555
C63 C64 1_555 1_555
C65 C73 1_555 1_555
C71 C72 1_555 1_555
C75 C76 1_555 1_555
C77 C80 1_555 1_555
C82 C83 1_555 1_555
C84 C92 1_555 1_555
C90 C91 1_555 1_555
C94 C95 1_555 1_555
C95 C96 1_555 1_555

#END
