
#######################################################################
#
#                 Cambridge Crystallographic Data Centre
#                                CCDC 
#
#######################################################################
#
# If this CIF has been generated from an entry in the Cambridge 
# Structural Database, then it will include bibliographic, chemical, 
# crystal, experimental, refinement or atomic coordinate data resulting 
# from the CCDC's data processing and validation procedures.
#
#######################################################################

data_PAHWIG
_chemical_formula_moiety         'C60 H44 N4 S16,3(C3 H6 O1)'
_chemical_name_systematic        
'6,14,22,30-tetrakis(1,3-Benzodithiol-2-ylidene)-2,2,10,10,18,18,26,26-octamethyl-5,7,13,15,21,23,29,31-octathia-33,34,35,36-tetraazanonacyclo[25.5.1.1^3,9^.1^11,17^.1^19,25^.0^4,8^.0^12,16^.0^20,24^.0^28,32^]hexatriaconta-1(32),3,8,11,16,19,24,27-octaene acetone solvate'
_symmetry_cell_setting           triclinic
_symmetry_space_group_name_H-M   'P -1'
_symmetry_Int_Tables_number      2
_space_group_name_Hall           '-P 1'
loop_
_symmetry_equiv_pos_site_id
_symmetry_equiv_pos_as_xyz
1 x,y,z
2 -x,-y,-z
_cell_length_a                   15.999(8)
_cell_length_b                   16.007(6)
_cell_length_c                   17.004(7)
_cell_angle_alpha                63.127(17)
_cell_angle_beta                 80.832(17)
_cell_angle_gamma                75.206(15)
_cell_volume                     3750.76
_exptl_crystal_colour            yellow
_exptl_crystal_description       prism
_cell_formula_units_Z            2
loop_
_atom_site_label
_atom_site_type_symbol
_atom_site_fract_x
_atom_site_fract_y
_atom_site_fract_z
C1 C 0.7153(3) 0.5087(3) 0.5721(3)
C2 C 0.7308(3) 0.4901(3) 0.6568(3)
C3 C 0.6628(3) 0.5490(3) 0.6862(3)
C4 C 0.6074(3) 0.6046(3) 0.6181(3)
C5 C 0.7706(3) 0.4590(4) 0.8100(3)
C6 C 0.8174(3) 0.4359(4) 0.8791(3)
C7 C 0.8738(4) 0.4312(5) 1.0165(3)
C8 C 0.9422(4) 0.3760(5) 0.9858(3)
C9 C 1.0211(4) 0.3362(5) 1.0258(4)
H1 H 1.0672 0.3000 1.0041
C10 C 1.0312(5) 0.3507(6) 1.0987(5)
H2 H 1.0846 0.3241 1.1269
C11 C 0.9644(6) 0.4028(6) 1.1298(5)
H3 H 0.9721 0.4119 1.1794
C12 C 0.8863(5) 0.4422(5) 1.0900(4)
H4 H 0.8406 0.4773 1.1131
C13 C 0.5223(3) 0.6769(3) 0.6092(3)
C14 C 0.4486(3) 0.6329(3) 0.6063(3)
H5 H 0.4588 0.6182 0.5551
H6 H 0.3934 0.6786 0.6015
H7 H 0.4465 0.5740 0.6605
C15 C 0.5051(3) 0.7015(4) 0.6890(3)
H8 H 0.4996 0.6437 0.7433
H9 H 0.4513 0.7499 0.6816
H10 H 0.5533 0.7267 0.6927
C16 C 0.5268(3) 0.7672(3) 0.5247(3)
C17 C 0.4711(3) 0.8246(3) 0.4586(3)
C18 C 0.5063(3) 0.9050(3) 0.3991(3)
C19 C 0.5838(3) 0.8973(3) 0.4296(3)
C20 C 0.3599(3) 0.9269(3) 0.3380(3)
C21 C 0.2937(3) 0.9558(4) 0.2861(3)
C22 C 0.1984(4) 1.0387(4) 0.1498(4)
C23 C 0.1643(4) 0.9594(5) 0.2091(4)
C24 C 0.0962(5) 0.9376(6) 0.1849(4)
H11 H 0.0735 0.8828 0.2243
C25 C 0.0621(5) 0.9957(7) 0.1040(4)
H12 H 0.0145 0.9820 0.0882
C26 C 0.0963(5) 1.0748(6) 0.0446(4)
H13 H 0.0723 1.1140 -0.0114
C27 C 0.1639(4) 1.0962(5) 0.0663(4)
H14 H 0.1875 1.1496 0.0253
C28 C 0.6468(3) 0.9643(3) 0.3998(3)
C29 C 0.6376(3) 1.0090(4) 0.4654(4)
H15 H 0.6530 0.9582 0.5241
H16 H 0.5776 1.0429 0.4682
H17 H 0.6763 1.0540 0.4455
C30 C 0.6256(3) 1.0444(3) 0.3072(4)
H18 H 0.6700 1.0832 0.2855
H19 H 0.5689 1.0850 0.3101
H20 H 0.6244 1.0161 0.2671
C31 C 0.7387(3) 0.9094(3) 0.3963(3)
C32 C 0.8150(3) 0.9042(3) 0.4265(3)
C33 C 0.8832(3) 0.8458(3) 0.3968(3)
C34 C 0.8467(3) 0.8150(3) 0.3493(3)
C35 C 0.9518(3) 0.8801(3) 0.5024(3)
C36 C 1.0042(3) 0.8634(3) 0.5653(3)
C37 C 1.1335(4) 0.7958(4) 0.6688(4)
C38 C 1.0683(4) 0.8479(4) 0.7041(4)
C39 C 1.0806(6) 0.8550(7) 0.7804(4)
H21 H 1.0376 0.8912 0.8048
C40 C 1.1616(7) 0.8045(8) 0.8190(5)
H22 H 1.1721 0.8065 0.8715
C41 C 1.2253(6) 0.7532(8) 0.7846(5)
H23 H 1.2786 0.7212 0.8128
C42 C 1.2121(4) 0.7482(5) 0.7102(4)
H24 H 1.2560 0.7124 0.6862
C43 C 0.8846(3) 0.7541(3) 0.3002(3)
C44 C 0.9788(3) 0.7027(4) 0.3257(3)
H25 H 1.0144 0.7504 0.3084
H26 H 1.0018 0.6615 0.2953
H27 H 0.9799 0.6635 0.3897
C45 C 0.8843(3) 0.8177(4) 0.2001(3)
H28 H 0.8246 0.8485 0.1828
H29 H 0.9105 0.7782 0.1686
H30 H 0.9177 0.8669 0.1852
C46 C 0.8325(3) 0.6779(3) 0.3241(3)
C47 C 0.8018(3) 0.6453(3) 0.2749(3)
C48 C 0.7674(3) 0.5628(3) 0.3343(3)
C49 C 0.7286(3) 0.6016(4) 0.1792(3)
C50 C 0.6808(3) 0.6134(4) 0.1153(3)
C51 C 0.5545(4) 0.6127(4) 0.0372(3)
C52 C 0.5890(4) 0.6918(4) -0.0221(3)
C53 C 0.5474(5) 0.7551(4) -0.0997(4)
H31 H 0.5693 0.8100 -0.1401
C54 C 0.4747(5) 0.7376(5) -0.1175(4)
H32 H 0.4476 0.7794 -0.1714
C55 C 0.4402(5) 0.6588(5) -0.0570(4)
H33 H 0.3884 0.6489 -0.0689
C56 C 0.4811(4) 0.5956(4) 0.0198(4)
H34 H 0.4589 0.5409 0.0602
C57 C 0.7777(3) 0.5463(3) 0.4193(3)
C58 C 0.7606(3) 0.4666(3) 0.5089(3)
C59 C 0.8484(3) 0.4001(3) 0.5448(3)
H35 H 0.8836 0.4359 0.5549
H36 H 0.8790 0.3765 0.5017
H37 H 0.8381 0.3457 0.6005
C60 C 0.7035(3) 0.4063(3) 0.5006(3)
H38 H 0.6922 0.3563 0.5591
H39 H 0.7337 0.3765 0.4618
H40 H 0.6486 0.4478 0.4757
N1 N 0.6407(2) 0.5788(2) 0.5502(2)
H41 H 0.6171 0.6042 0.4989
N2 N 0.7594(2) 0.8553(2) 0.3489(2)
H42 H 0.7216 0.8474 0.3217
N3 N 0.5952(2) 0.8135(2) 0.5054(2)
H43 H 0.6404 0.7916 0.5379
N4 N 0.8172(2) 0.6175(2) 0.4119(2)
H44 H 0.8307 0.6235 0.4570
S1 S 0.98852(7) 0.83213(10) 0.42451(9)
S2 S 0.84646(8) 0.95231(9) 0.49011(9)
S3 S 0.97171(10) 0.90724(11) 0.64626(10)
S4 S 1.11145(9) 0.79638(11) 0.57144(11)
S5 S 0.79922(10) 0.67775(10) 0.16203(7)
S6 S 0.72667(9) 0.50581(9) 0.28631(7)
S7 S 0.61338(10) 0.53464(10) 0.13224(8)
S8 S 0.68441(12) 0.70436(12) 0.00718(8)
S9 S 0.80917(9) 0.41068(10) 0.73261(8)
S10 S 0.66747(8) 0.53686(11) 0.79321(8)
S11 S 0.77759(10) 0.47515(14) 0.96226(10)
S12 S 0.92070(10) 0.35939(15) 0.89595(10)
S13 S 0.36743(8) 0.82176(9) 0.43825(9)
S14 S 0.44179(9) 0.99324(9) 0.31175(10)
S15 S 0.28216(11) 1.06178(12) 0.18648(12)
S16 S 0.21038(11) 0.89235(12) 0.31239(10)
O1 O 0.5332(4) 0.6107(4) 0.4102(4)
C61 C 0.5175(4) 0.6640(7) 0.3349(7)
C62 C 0.5609(8) 0.7452(7) 0.2848(7)
H45 H 0.5204 0.8049 0.2787
H46 H 0.5802 0.7481 0.2261
H47 H 0.6110 0.7366 0.3162
C63 C 0.4547(6) 0.6509(7) 0.2897(5)
H48 H 0.4270 0.5983 0.3317
H49 H 0.4844 0.6357 0.2413
H50 H 0.4105 0.7100 0.2659
O2 O 0.7867(4) 0.6950(5) 0.5636(4)
C64 C 0.8305(6) 0.6825(5) 0.6195(6)
C65 C 0.7988(7) 0.7254(8) 0.6816(6)
H51 H 0.7380 0.7580 0.6716
H52 H 0.8334 0.7718 0.6725
H53 H 0.8039 0.6751 0.7422
C66 C 0.9189(6) 0.6236(10) 0.6298(8)
H54 H 0.9193 0.5653 0.6240
H55 H 0.9380 0.6062 0.6881
H56 H 0.9581 0.6600 0.5840
O3 O 0.386(2) 0.895(3) 0.022(2)
C67 C 0.3409(17) 0.9466(19) -0.0389(17)
C68 C 0.358(3) 1.041(2) -0.100(2)
H57 H 0.4179 1.0427 -0.0979
H58 H 0.3191 1.0907 -0.0850
H59 H 0.3468 1.0527 -0.1597
C69 C 0.268(2) 0.918(2) -0.054(2)
H60 H 0.2494 0.8689 0.0020
H61 H 0.2857 0.8904 -0.0972
H62 H 0.2198 0.9727 -0.0765
C70? C 0.3140(14) 0.8220(18) 0.0666(14)
C71? C 0.5778(9) 0.7330(10) 0.3093(9)
C72? C 0.9243(10) 0.6057(11) 0.6142(11)
C73? C 0.2345(17) 0.822(2) 0.035(2)
C74? C 0.5759(15) 0.8072(16) 0.2182(10)
C75? C 0.8601(16) 0.667(2) 0.6477(17)
C76? C 0.354(2) 0.735(2) 0.141(2)
C77? C 0.5223(15) 0.6637(18) 0.3339(18)
C78? C 1.0040(12) 0.5560(16) 0.6614(13)
H63? H 0.2263 0.8714 -0.0255
H64? H 0.1863 0.8358 0.0739
H65? H 0.2364 0.7593 0.0373
H66? H 0.5176 0.8475 0.2070
H67? H 0.5915 0.7770 0.1775
H68? H 0.6174 0.8468 0.2092
H69? H 0.8872 0.7148 0.6498
H70? H 0.8386 0.6282 0.7072
H71? H 0.8117 0.7004 0.6084
H72? H 0.4098 0.7079 0.1199
H73? H 0.3161 0.6887 0.1629
H74? H 0.3622 0.7504 0.1882
H75? H 0.5524 0.6120 0.3174
H76? H 0.4683 0.6959 0.3030
H77? H 0.5091 0.6370 0.3978
H78? H 0.9908 0.5080 0.7205
H79? H 1.0300 0.6023 0.6667
H80? H 1.0447 0.5242 0.6288
O4? O 0.346(2) 0.891(2) 0.033(2)
O5? O 0.6222(9) 0.7287(10) 0.3615(8)
O6? O 0.9121(10) 0.5965(12) 0.5513(9)
loop_
_geom_bond_atom_site_label_1
_geom_bond_atom_site_label_2
_geom_bond_site_symmetry_1
_geom_bond_site_symmetry_2
C1 C2 1_555 1_555
C2 C3 1_555 1_555
C3 C4 1_555 1_555
C4 C13 1_555 1_555
C5 C6 1_555 1_555
C6 S11 1_555 1_555
C7 C8 1_555 1_555
C8 C9 1_555 1_555
C9 H1 1_555 1_555
C10 C9 1_555 1_555
H2 C10 1_555 1_555
C11 C10 1_555 1_555
H3 C11 1_555 1_555
C12 C7 1_555 1_555
H4 C12 1_555 1_555
C13 C14 1_555 1_555
C14 H5 1_555 1_555
H6 C14 1_555 1_555
H7 C14 1_555 1_555
C15 C13 1_555 1_555
H8 C15 1_555 1_555
H9 C15 1_555 1_555
H10 C15 1_555 1_555
C16 C13 1_555 1_555
C17 C16 1_555 1_555
C18 C17 1_555 1_555
C19 C18 1_555 1_555
C20 C21 1_555 1_555
C21 S15 1_555 1_555
C22 C23 1_555 1_555
C23 C24 1_555 1_555
C24 H11 1_555 1_555
C25 C24 1_555 1_555
H12 C25 1_555 1_555
C26 C25 1_555 1_555
H13 C26 1_555 1_555
C27 C22 1_555 1_555
H14 C27 1_555 1_555
C28 C19 1_555 1_555
C29 C28 1_555 1_555
H15 C29 1_555 1_555
H16 C29 1_555 1_555
H17 C29 1_555 1_555
C30 C28 1_555 1_555
H18 C30 1_555 1_555
H19 C30 1_555 1_555
H20 C30 1_555 1_555
C31 C28 1_555 1_555
C32 C31 1_555 1_555
C33 C32 1_555 1_555
C34 C33 1_555 1_555
C35 C36 1_555 1_555
C36 S3 1_555 1_555
C37 C38 1_555 1_555
C38 C39 1_555 1_555
C39 H21 1_555 1_555
C40 C39 1_555 1_555
H22 C40 1_555 1_555
C41 C40 1_555 1_555
H23 C41 1_555 1_555
C42 C37 1_555 1_555
H24 C42 1_555 1_555
C43 C34 1_555 1_555
C44 C43 1_555 1_555
H25 C44 1_555 1_555
H26 C44 1_555 1_555
H27 C44 1_555 1_555
C45 C43 1_555 1_555
H28 C45 1_555 1_555
H29 C45 1_555 1_555
H30 C45 1_555 1_555
C46 C43 1_555 1_555
C47 C46 1_555 1_555
C48 C47 1_555 1_555
C49 C50 1_555 1_555
C50 S7 1_555 1_555
C51 C52 1_555 1_555
C52 C53 1_555 1_555
C53 H31 1_555 1_555
C54 C53 1_555 1_555
H32 C54 1_555 1_555
C55 C54 1_555 1_555
H33 C55 1_555 1_555
C56 C51 1_555 1_555
H34 C56 1_555 1_555
C57 C48 1_555 1_555
C58 C1 1_555 1_555
C59 C58 1_555 1_555
H35 C59 1_555 1_555
H36 C59 1_555 1_555
H37 C59 1_555 1_555
C60 C58 1_555 1_555
H38 C60 1_555 1_555
H39 C60 1_555 1_555
H40 C60 1_555 1_555
N1 C1 1_555 1_555
H41 N1 1_555 1_555
N2 C31 1_555 1_555
H42 N2 1_555 1_555
N3 C16 1_555 1_555
H43 N3 1_555 1_555
N4 C46 1_555 1_555
H44 N4 1_555 1_555
S1 C33 1_555 1_555
S2 C32 1_555 1_555
S3 C38 1_555 1_555
S4 C36 1_555 1_555
S5 C47 1_555 1_555
S6 C48 1_555 1_555
S7 C51 1_555 1_555
S8 C50 1_555 1_555
S9 C2 1_555 1_555
S10 C3 1_555 1_555
S11 C7 1_555 1_555
S12 C6 1_555 1_555
S13 C17 1_555 1_555
S14 C18 1_555 1_555
S15 C22 1_555 1_555
S16 C21 1_555 1_555
O1 C61 1_555 1_555
C61 C62 1_555 1_555
C62 H45 1_555 1_555
H46 C62 1_555 1_555
H47 C62 1_555 1_555
C63 C61 1_555 1_555
H48 C63 1_555 1_555
H49 C63 1_555 1_555
H50 C63 1_555 1_555
O2 C64 1_555 1_555
C64 C65 1_555 1_555
C65 H51 1_555 1_555
H52 C65 1_555 1_555
H53 C65 1_555 1_555
C66 C64 1_555 1_555
H54 C66 1_555 1_555
H55 C66 1_555 1_555
H56 C66 1_555 1_555
O3 C67 1_555 1_555
C67 C68 1_555 1_555
C68 H57 1_555 1_555
H58 C68 1_555 1_555
H59 C68 1_555 1_555
C69 C67 1_555 1_555
H60 C69 1_555 1_555
H61 C69 1_555 1_555
H62 C69 1_555 1_555
C4 N1 1_555 1_555
C5 S9 1_555 1_555
C5 S10 1_555 1_555
C8 S12 1_555 1_555
C11 C12 1_555 1_555
C19 N3 1_555 1_555
C20 S13 1_555 1_555
C20 S14 1_555 1_555
C23 S16 1_555 1_555
C26 C27 1_555 1_555
C34 N2 1_555 1_555
C35 S1 1_555 1_555
C35 S2 1_555 1_555
C37 S4 1_555 1_555
C41 C42 1_555 1_555
C49 S5 1_555 1_555
C49 S6 1_555 1_555
C52 S8 1_555 1_555
C55 C56 1_555 1_555
C57 C58 1_555 1_555
C57 N4 1_555 1_555

#END
