
#######################################################################
#
#                 Cambridge Crystallographic Data Centre
#                                CCDC 
#
#######################################################################
#
# If this CIF has been generated from an entry in the Cambridge 
# Structural Database, then it will include bibliographic, chemical, 
# crystal, experimental, refinement or atomic coordinate data resulting 
# from the CCDC's data processing and validation procedures.
#
#######################################################################

data_PAHXUT
_chemical_formula_moiety         'C52 H36 N4 S20,C38 H36 N8 O8,2(C5 H12)'
_chemical_name_systematic        
'2,2,10,10,18,18,26,26-Octamethyl-6,14,22,30-tetra(thieno[3,4-d][1,3]-dithiol-2-ylidene)-5,7,13,15,21,23,29,31-octathia-33,34,35,36-tetra-azanonacyclo-[25.5.1.1^3,9^.1^11,17^.1^19,25^.0^4,8^.0^12,16^.0^20,24^.0^28,32^]-hexatriaconta-1(32),3,8,11,16,19,24,27-octaene cis-5,15-bis(3,5-dinitrophenyl)-5,10,10,15,20,20-hexamethyl-5,10,15,20,22,24-hexahydroporphyrin n-pentane solvate'
_symmetry_cell_setting           triclinic
_symmetry_space_group_name_H-M   'P -1'
_symmetry_Int_Tables_number      2
_space_group_name_Hall           '-P 1'
loop_
_symmetry_equiv_pos_site_id
_symmetry_equiv_pos_as_xyz
1 x,y,z
2 -x,-y,-z
_cell_length_a                   13.452(3)
_cell_length_b                   19.699(4)
_cell_length_c                   22.220(4)
_cell_angle_alpha                110.52(3)
_cell_angle_beta                 99.22(3)
_cell_angle_gamma                91.71(3)
_cell_volume                     5419.65
_exptl_crystal_colour            brown
_exptl_crystal_description       needle
_cell_formula_units_Z            2
loop_
_atom_site_label
_atom_site_type_symbol
_atom_site_fract_x
_atom_site_fract_y
_atom_site_fract_z
C1 C 0.6043(8) 0.1280(5) 0.6519(4)
C2 C 0.6069(7) 0.0864(4) 0.6896(4)
C3 C 0.5761(7) 0.1258(5) 0.7492(4)
C4 C 0.5541(7) 0.1938(5) 0.7477(4)
C5 C 0.6023(7) -0.0024(4) 0.7524(4)
C6 C 0.5985(6) -0.0626(4) 0.7678(4)
C7 C 0.5815(6) -0.1956(5) 0.7621(4)
C8 C 0.5674(6) -0.1518(5) 0.8257(4)
C9 C 0.5464(7) -0.1914(5) 0.8640(5)
H1 H 0.5360 -0.1713 0.9074
C10 C 0.5682(7) -0.2693(5) 0.7515(4)
H2 H 0.5728 -0.3070 0.7121
C11 C 0.6266(9) 0.1158(5) 0.5848(5)
C12 C 0.6676(10) 0.0393(5) 0.5581(4)
H3 H 0.7282 0.0376 0.5875
H4 H 0.6833 0.0310 0.5151
H5 H 0.6165 0.0018 0.5551
C13 C 0.5289(9) 0.1225(6) 0.5412(5)
H6 H 0.4745 0.0898 0.5425
H7 H 0.5397 0.1097 0.4966
H8 H 0.5108 0.1722 0.5571
C14 C 0.7079(8) 0.1722(5) 0.5874(4)
C15 C 0.7256(7) 0.2066(4) 0.5451(4)
C16 C 0.8176(7) 0.2522(4) 0.5723(4)
C17 C 0.8576(8) 0.2440(4) 0.6287(4)
C18 C 0.7574(6) 0.2577(4) 0.4583(4)
C19 C 0.7549(6) 0.2682(4) 0.4004(4)
C20 C 0.8104(7) 0.3054(5) 0.3090(4)
C21 C 0.7223(7) 0.2535(5) 0.2800(4)
C22 C 0.7003(6) 0.2359(5) 0.2123(4)
H9 H 0.6481 0.2016 0.1837
C23 C 0.8514(6) 0.3267(5) 0.2664(4)
H10 H 0.9097 0.3593 0.2777
C24 C 0.9628(8) 0.2692(5) 0.6714(4)
C25 C 1.0028(7) 0.3409(5) 0.6683(4)
H11 H 1.0096 0.3339 0.6238
H12 H 1.0683 0.3572 0.6967
H13 H 0.9559 0.3772 0.6825
C26 C 1.0353(8) 0.2104(5) 0.6476(4)
H14 H 1.0092 0.1651 0.6499
H15 H 1.1015 0.2259 0.6752
H16 H 1.0407 0.2032 0.6029
C27 C 0.9583(7) 0.2809(4) 0.7437(4)
C28 C 1.0203(6) 0.2608(4) 0.7886(4)
C29 C 0.9889(6) 0.2946(4) 0.8505(3)
C30 C 0.9114(6) 0.3371(5) 0.8423(4)
C31 C 1.1240(7) 0.2111(5) 0.8701(4)
C32 C 1.1769(6) 0.1673(4) 0.8947(4)
C33 C 1.2880(6) 0.0698(5) 0.9125(4)
C34 C 1.2456(6) 0.0992(4) 0.9701(4)
C35 C 1.2734(7) 0.0651(5) 1.0127(5)
H17 H 1.2519 0.0766 1.0531
C36 C 1.3488(7) 0.0149(5) 0.9143(4)
H18 H 1.3840 -0.0102 0.8811
C37 C 0.8581(7) 0.3919(5) 0.8898(4)
C38 C 0.9027(7) 0.4687(4) 0.8981(4)
H19 H 0.9754 0.4732 0.9127
H20 H 0.8727 0.5052 0.9303
H21 H 0.8881 0.4756 0.8566
C39 C 0.8811(8) 0.3815(5) 0.9565(4)
H22 H 0.8531 0.3335 0.9516
H23 H 0.8509 0.4182 0.9884
H24 H 0.9537 0.3862 0.9713
C40 C 0.7456(7) 0.3831(4) 0.8686(4)
C41 C 0.6759(7) 0.4314(4) 0.8857(4)
C42 C 0.5798(7) 0.3947(5) 0.8626(4)
C43 C 0.5881(7) 0.3231(5) 0.8267(4)
C44 C 0.5516(7) 0.5273(5) 0.9265(5)
C45 C 0.5093(7) 0.5904(5) 0.9451(4)
C46 C 0.4872(7) 0.7284(5) 0.9875(4)
C47 C 0.3874(7) 0.6927(5) 0.9680(4)
C48 C 0.3137(8) 0.7378(5) 0.9761(4)
H25 H 0.2442 0.7227 0.9665
C49 C 0.4856(7) 0.8036(5) 1.0108(4)
H26 H 0.5435 0.8371 1.0266
C50 C 0.5109(8) 0.2580(5) 0.7943(5)
C51 C 0.4790(8) 0.2361(5) 0.8491(4)
H27 H 0.5373 0.2225 0.8726
H28 H 0.4276 0.1951 0.8301
H29 H 0.4519 0.2769 0.8790
C52 C 0.4180(8) 0.2792(5) 0.7570(5)
H30 H 0.3874 0.3171 0.7875
H31 H 0.3693 0.2369 0.7351
H32 H 0.4387 0.2968 0.7248
N1 N 0.5724(6) 0.1939(4) 0.6885(3)
H33 H 0.5649 0.2307 0.6756
N2 N 0.7891(6) 0.1956(4) 0.6371(3)
H34 H 0.7972 0.1817 0.6705
N3 N 0.8942(5) 0.3278(4) 0.7762(3)
H35 H 0.8491 0.3488 0.7580
N4 N 0.6906(6) 0.3173(4) 0.8324(3)
H36 H 0.7175 0.2769 0.8152
S1 S 0.6363(2) -0.00366(13) 0.67841(11)
S2 S 0.5807(2) 0.08404(13) 0.80723(11)
S3 S 0.57996(19) -0.05669(13) 0.84593(11)
S4 S 0.61341(19) -0.14970(12) 0.71223(11)
S5 S 0.5425(2) -0.28226(15) 0.81978(14)
S6 S 0.65937(18) 0.20410(12) 0.46942(10)
S7 S 0.85256(17) 0.30301(12) 0.52641(10)
S8 S 0.84325(18) 0.33303(13) 0.39472(10)
S9 S 0.66244(18) 0.22376(14) 0.33055(11)
S10 S 0.78351(19) 0.28655(14) 0.18910(11)
S11 S 1.1205(2) 0.20638(14) 0.78831(11)
S12 S 1.05664(19) 0.27914(13) 0.91764(10)
S13 S 1.17604(18) 0.17374(12) 0.97632(10)
S14 S 1.25446(18) 0.10577(13) 0.85114(11)
S15 S 1.3510(2) -0.00061(15) 0.98545(14)
S16 S 0.6832(2) 0.52320(13) 0.93867(13)
S17 S 0.4756(2) 0.44238(14) 0.88722(14)
S18 S 0.3783(2) 0.59665(14) 0.94202(15)
S19 S 0.5884(2) 0.67447(13) 0.98339(13)
S20 S 0.3639(2) 0.82677(13) 1.00658(12)
C53 C 0.9006(6) 0.5646(4) 0.6740(4)
C54 C 0.9724(6) 0.5311(4) 0.7011(4)
H37 H 1.0065 0.4921 0.6781
C55 C 0.9870(6) 0.5657(4) 0.7706(4)
H38 H 1.0307 0.5527 0.8014
C56 C 0.9267(6) 0.6204(4) 0.7837(4)
C57 C 0.9070(6) 0.6746(4) 0.8481(4)
C58 C 0.8084(6) 0.6475(4) 0.8629(4)
H39 H 0.7530 0.6430 0.8275
H40 H 0.7943 0.6820 0.9034
H41 H 0.8157 0.6004 0.8670
C59 C 0.9960(7) 0.6792(4) 0.9033(4)
H42 H 1.0052 0.6309 0.9043
H43 H 0.9814 0.7105 0.9450
H44 H 1.0574 0.6990 0.8954
C60 C 0.8966(6) 0.7487(4) 0.8421(3)
C61 C 0.8160(6) 0.7900(4) 0.8465(3)
H45 H 0.7528 0.7782 0.8551
C62 C 0.8458(6) 0.8543(4) 0.8354(4)
H46 H 0.8050 0.8924 0.8359
C63 C 0.9417(6) 0.8518(4) 0.8242(3)
C64 C 1.0093(6) 0.9012(4) 0.8055(4)
C65 C 1.1202(6) 0.9107(5) 0.8422(4)
H47 H 1.1221 0.9328 0.8889
H48 H 1.1612 0.9418 0.8283
H49 H 1.1466 0.8635 0.8323
C66 C 0.9689(6) 0.9767(4) 0.8254(4)
C67 C 0.9600(6) 1.0120(4) 0.8910(4)
H50 H 0.9800 0.9906 0.9222
C68 C 0.9211(7) 1.0789(4) 0.9088(4)
C69 C 0.8872(6) 1.1133(4) 0.8658(4)
H51 H 0.8603 1.1586 0.8793
C70 C 0.8959(7) 1.0761(5) 0.8016(4)
C71 C 0.9371(6) 1.0104(4) 0.7818(4)
H52 H 0.9436 0.9881 0.7379
C72 C 1.0092(7) 0.8717(4) 0.7338(4)
C73 C 1.0805(7) 0.8699(5) 0.6961(5)
H53 H 1.1495 0.8857 0.7119
C74 C 1.0339(8) 0.8403(5) 0.6299(5)
H54 H 1.0665 0.8337 0.5942
C75 C 0.9357(8) 0.8232(4) 0.6261(4)
C76 C 0.8463(7) 0.7885(5) 0.5696(4)
C77 C 0.7662(7) 0.8422(5) 0.5686(4)
H55 H 0.7086 0.8177 0.5344
H56 H 0.7949 0.8830 0.5602
H57 H 0.7444 0.8596 0.6105
C78 C 0.8867(8) 0.7661(5) 0.5040(4)
H58 H 0.9357 0.7309 0.5033
H59 H 0.9187 0.8088 0.5001
H60 H 0.8308 0.7448 0.4677
C79 C 0.8010(7) 0.7223(4) 0.5789(4)
C80 C 0.7074(7) 0.7027(5) 0.5851(4)
H61 H 0.6507 0.7292 0.5831
C81 C 0.7088(7) 0.6356(4) 0.5950(4)
H62 H 0.6530 0.6102 0.6007
C82 C 0.8038(7) 0.6138(4) 0.5951(4)
C83 C 0.8464(6) 0.5481(4) 0.6043(4)
C84 C 0.9227(6) 0.5170(4) 0.5577(4)
H63 H 0.8888 0.5037 0.5127
H64 H 0.9484 0.4742 0.5646
H65 H 0.9785 0.5536 0.5670
C85 C 0.7592(6) 0.4885(4) 0.5856(4)
C86 C 0.7392(6) 0.4551(4) 0.6293(4)
H66 H 0.7786 0.4698 0.6715
C87 C 0.6609(7) 0.4003(5) 0.6100(4)
C88 C 0.6001(6) 0.3758(4) 0.5479(4)
H67 H 0.5467 0.3389 0.5352
C89 C 0.6244(6) 0.4103(5) 0.5061(4)
C90 C 0.7001(6) 0.4650(5) 0.5236(4)
H68 H 0.7121 0.4868 0.4937
N5 N 0.8731(5) 0.6193(3) 0.7258(3)
H69 H 0.8279 0.6489 0.7219
N6 N 0.9731(5) 0.7862(3) 0.8283(3)
H70 H 1.0324 0.7711 0.8229
N7 N 0.9198(5) 0.8420(3) 0.6902(3)
H71 H 0.8618 0.8359 0.7012
N8 N 0.8603(5) 0.6673(4) 0.5850(3)
H72 H 0.9243 0.6668 0.5827
N9 N 0.6427(7) 0.3633(4) 0.6555(4)
N10 N 0.5643(6) 0.3832(5) 0.4390(4)
N11 N 0.9124(6) 1.1160(4) 0.9787(4)
N12 N 0.8610(6) 1.1104(5) 0.7536(4)
O1 O 0.7028(5) 0.3772(4) 0.7063(3)
O2 O 0.5640(5) 0.3203(3) 0.6387(3)
O3 O 0.5142(5) 0.3248(4) 0.4189(3)
O4 O 0.5684(6) 0.4224(4) 0.4068(3)
O5 O 0.9502(6) 1.0893(4) 1.0180(3)
O6 O 0.8688(5) 1.1714(3) 0.9931(3)
O7 O 0.8126(6) 1.1643(4) 0.7704(3)
O8 O 0.8826(6) 1.0828(3) 0.6988(3)
C91 C 0.6255(11) 0.5337(8) 0.3245(7)
H73 H 0.5919 0.5383 0.3616
H74 H 0.6263 0.5801 0.3175
C92 C 0.7339(12) 0.5121(9) 0.3372(8)
H75 H 0.7336 0.4641 0.3412
H76 H 0.7703 0.5119 0.3023
C93 C 0.5734(14) 0.4742(10) 0.2652(8)
H77 H 0.5831 0.4277 0.2712
H78 H 0.6047 0.4738 0.2282
C94 C 0.7789(13) 0.5707(9) 0.4003(7)
H79 H 0.8106 0.6104 0.3917
H80 H 0.8293 0.5515 0.4248
H81 H 0.7262 0.5884 0.4254
C95 C 0.4586(9) 0.4803(6) 0.2482(6)
H82 H 0.4483 0.5228 0.2364
H83 H 0.4278 0.4848 0.2859
H84 H 0.4278 0.4370 0.2118
C96 C 1.3341(13) -0.0200(10) 0.6908(9)
H85 H 1.3610 0.0110 0.7357
H86 H 1.3717 -0.0625 0.6786
H87 H 1.2634 -0.0353 0.6869
C97 C 1.3443(15) 0.0237(14) 0.6441(11)
H88 H 1.3739 -0.0043 0.6064
H89 H 1.3842 0.0708 0.6673
C98 C 1.2284(19) 0.0330(12) 0.6235(11)
H90 H 1.1945 0.0497 0.6613
H91 H 1.2195 0.0664 0.5995
C99 C 1.1907(19) -0.0482(12) 0.5780(13)
H92 H 1.1550 -0.0734 0.6004
H93 H 1.2467 -0.0757 0.5621
C100 C 1.116(2) -0.0352(18) 0.5207(13)
H94 H 1.0843 0.0092 0.5385
H95 H 1.0651 -0.0760 0.5003
H96 H 1.1545 -0.0308 0.4885
C101? C 1.2999(19) 0.0924(14) 0.6376(13)
C102? C 1.2838(17) 0.0344(16) 0.6712(12)
C103? C 1.1622(15) 0.0239(16) 0.6543(10)
C104? C 1.150(2) 0.010(2) 0.5784(10)
C105? C 1.031(2) -0.003(2) 0.5583(14)
H97? H 1.2437 0.0854 0.6020
H98? H 1.3625 0.0857 0.6206
H99? H 1.3033 0.1412 0.6696
H100? H 1.3096 0.0542 0.7184
H101? H 1.3141 -0.0108 0.6511
H102? H 1.1346 -0.0183 0.6622
H103? H 1.1317 0.0676 0.6782
H104? H 1.1764 0.0532 0.5710
H105? H 1.1833 -0.0321 0.5552
H106? H 1.0096 -0.0538 0.5496
H107? H 1.0089 0.0080 0.5193
H108? H 1.0001 0.0278 0.5937
loop_
_geom_bond_atom_site_label_1
_geom_bond_atom_site_label_2
_geom_bond_site_symmetry_1
_geom_bond_site_symmetry_2
C1 C2 1_555 1_555
C2 C3 1_555 1_555
C3 C4 1_555 1_555
C4 C50 1_555 1_555
C5 C6 1_555 1_555
C6 S3 1_555 1_555
C7 C8 1_555 1_555
C8 C9 1_555 1_555
C9 H1 1_555 1_555
C10 C7 1_555 1_555
H2 C10 1_555 1_555
C11 C1 1_555 1_555
C12 C11 1_555 1_555
H3 C12 1_555 1_555
H4 C12 1_555 1_555
H5 C12 1_555 1_555
C13 C11 1_555 1_555
H6 C13 1_555 1_555
H7 C13 1_555 1_555
H8 C13 1_555 1_555
C14 C11 1_555 1_555
C15 C14 1_555 1_555
C16 C15 1_555 1_555
C17 C16 1_555 1_555
C18 C19 1_555 1_555
C19 S8 1_555 1_555
C20 C21 1_555 1_555
C21 C22 1_555 1_555
C22 H9 1_555 1_555
C23 C20 1_555 1_555
H10 C23 1_555 1_555
C24 C17 1_555 1_555
C25 C24 1_555 1_555
H11 C25 1_555 1_555
H12 C25 1_555 1_555
H13 C25 1_555 1_555
C26 C24 1_555 1_555
H14 C26 1_555 1_555
H15 C26 1_555 1_555
H16 C26 1_555 1_555
C27 C24 1_555 1_555
C28 C27 1_555 1_555
C29 C28 1_555 1_555
C30 C29 1_555 1_555
C31 C32 1_555 1_555
C32 S13 1_555 1_555
C33 C34 1_555 1_555
C34 C35 1_555 1_555
C35 H17 1_555 1_555
C36 C33 1_555 1_555
H18 C36 1_555 1_555
C37 C30 1_555 1_555
C38 C37 1_555 1_555
H19 C38 1_555 1_555
H20 C38 1_555 1_555
H21 C38 1_555 1_555
C39 C37 1_555 1_555
H22 C39 1_555 1_555
H23 C39 1_555 1_555
H24 C39 1_555 1_555
C40 C37 1_555 1_555
C41 C40 1_555 1_555
C42 C41 1_555 1_555
C43 C42 1_555 1_555
C44 C45 1_555 1_555
C45 S18 1_555 1_555
C46 C47 1_555 1_555
C47 C48 1_555 1_555
C48 H25 1_555 1_555
C49 C46 1_555 1_555
H26 C49 1_555 1_555
C50 C43 1_555 1_555
C51 C50 1_555 1_555
H27 C51 1_555 1_555
H28 C51 1_555 1_555
H29 C51 1_555 1_555
C52 C50 1_555 1_555
H30 C52 1_555 1_555
H31 C52 1_555 1_555
H32 C52 1_555 1_555
N1 C1 1_555 1_555
H33 N1 1_555 1_555
N2 C14 1_555 1_555
H34 N2 1_555 1_555
N3 C27 1_555 1_555
H35 N3 1_555 1_555
N4 C40 1_555 1_555
H36 N4 1_555 1_555
S1 C2 1_555 1_555
S2 C3 1_555 1_555
S3 C8 1_555 1_555
S4 C6 1_555 1_555
S5 C9 1_555 1_555
S6 C15 1_555 1_555
S7 C16 1_555 1_555
S8 C20 1_555 1_555
S9 C19 1_555 1_555
S10 C22 1_555 1_555
S11 C28 1_555 1_555
S12 C29 1_555 1_555
S13 C34 1_555 1_555
S14 C32 1_555 1_555
S15 C35 1_555 1_555
S16 C41 1_555 1_555
S17 C42 1_555 1_555
S18 C47 1_555 1_555
S19 C45 1_555 1_555
S20 C48 1_555 1_555
C53 C54 1_555 1_555
C54 H37 1_555 1_555
C55 C54 1_555 1_555
H38 C55 1_555 1_555
C56 C55 1_555 1_555
C57 C56 1_555 1_555
C58 C57 1_555 1_555
H39 C58 1_555 1_555
H40 C58 1_555 1_555
H41 C58 1_555 1_555
C59 C57 1_555 1_555
H42 C59 1_555 1_555
H43 C59 1_555 1_555
H44 C59 1_555 1_555
C60 C57 1_555 1_555
C61 C60 1_555 1_555
H45 C61 1_555 1_555
C62 C61 1_555 1_555
H46 C62 1_555 1_555
C63 C62 1_555 1_555
C64 C63 1_555 1_555
C65 C64 1_555 1_555
H47 C65 1_555 1_555
H48 C65 1_555 1_555
H49 C65 1_555 1_555
C66 C64 1_555 1_555
C67 C66 1_555 1_555
H50 C67 1_555 1_555
C68 C67 1_555 1_555
C69 C68 1_555 1_555
H51 C69 1_555 1_555
C70 C69 1_555 1_555
C71 C66 1_555 1_555
H52 C71 1_555 1_555
C72 C64 1_555 1_555
C73 C72 1_555 1_555
H53 C73 1_555 1_555
C74 C73 1_555 1_555
H54 C74 1_555 1_555
C75 C74 1_555 1_555
C76 C75 1_555 1_555
C77 C76 1_555 1_555
H55 C77 1_555 1_555
H56 C77 1_555 1_555
H57 C77 1_555 1_555
C78 C76 1_555 1_555
H58 C78 1_555 1_555
H59 C78 1_555 1_555
H60 C78 1_555 1_555
C79 C76 1_555 1_555
C80 C79 1_555 1_555
H61 C80 1_555 1_555
C81 C80 1_555 1_555
H62 C81 1_555 1_555
C82 C81 1_555 1_555
C83 C53 1_555 1_555
C84 C83 1_555 1_555
H63 C84 1_555 1_555
H64 C84 1_555 1_555
H65 C84 1_555 1_555
C85 C83 1_555 1_555
C86 C85 1_555 1_555
H66 C86 1_555 1_555
C87 C86 1_555 1_555
C88 C87 1_555 1_555
H67 C88 1_555 1_555
C89 C88 1_555 1_555
C90 C85 1_555 1_555
H68 C90 1_555 1_555
N5 C53 1_555 1_555
H69 N5 1_555 1_555
N6 C60 1_555 1_555
H70 N6 1_555 1_555
N7 C72 1_555 1_555
H71 N7 1_555 1_555
N8 C79 1_555 1_555
H72 N8 1_555 1_555
N9 C87 1_555 1_555
N10 C89 1_555 1_555
N11 C68 1_555 1_555
N12 C70 1_555 1_555
O1 N9 1_555 1_555
O2 N9 1_555 1_555
O3 N10 1_555 1_555
O4 N10 1_555 1_555
O5 N11 1_555 1_555
O6 N11 1_555 1_555
O7 N12 1_555 1_555
O8 N12 1_555 1_555
C91 H73 1_555 1_555
H74 C91 1_555 1_555
C92 C91 1_555 1_555
H75 C92 1_555 1_555
H76 C92 1_555 1_555
C93 C91 1_555 1_555
H77 C93 1_555 1_555
H78 C93 1_555 1_555
C94 C92 1_555 1_555
H79 C94 1_555 1_555
H80 C94 1_555 1_555
H81 C94 1_555 1_555
C95 C93 1_555 1_555
H82 C95 1_555 1_555
H83 C95 1_555 1_555
H84 C95 1_555 1_555
C96 H85 1_555 1_555
H86 C96 1_555 1_555
H87 C96 1_555 1_555
C97 C96 1_555 1_555
H88 C97 1_555 1_555
H89 C97 1_555 1_555
C98 C97 1_555 1_555
H90 C98 1_555 1_555
H91 C98 1_555 1_555
C99 C98 1_555 1_555
H92 C99 1_555 1_555
H93 C99 1_555 1_555
C100 C99 1_555 1_555
H94 C100 1_555 1_555
H95 C100 1_555 1_555
H96 C100 1_555 1_555
C4 N1 1_555 1_555
C5 S1 1_555 1_555
C5 S2 1_555 1_555
C7 S4 1_555 1_555
C10 S5 1_555 1_555
C17 N2 1_555 1_555
C18 S6 1_555 1_555
C18 S7 1_555 1_555
C21 S9 1_555 1_555
C23 S10 1_555 1_555
C30 N3 1_555 1_555
C31 S11 1_555 1_555
C31 S12 1_555 1_555
C33 S14 1_555 1_555
C36 S15 1_555 1_555
C43 N4 1_555 1_555
C44 S16 1_555 1_555
C44 S17 1_555 1_555
C46 S19 1_555 1_555
C49 S20 1_555 1_555
C56 N5 1_555 1_555
C63 N6 1_555 1_555
C70 C71 1_555 1_555
C75 N7 1_555 1_555
C82 C83 1_555 1_555
C82 N8 1_555 1_555
C89 C90 1_555 1_555

#END
