
#######################################################################
#
#                 Cambridge Crystallographic Data Centre
#                                CCDC 
#
#######################################################################
#
# If this CIF has been generated from an entry in the Cambridge 
# Structural Database, then it will include bibliographic, chemical, 
# crystal, experimental, refinement or atomic coordinate data resulting 
# from the CCDC's data processing and validation procedures.
#
#######################################################################

data_PAHXED
_chemical_formula_moiety         
'C60 H44 N4 S16,2(C6 H3 N3 O6),2(C1 H1 Cl3),C1 H2 Cl2'
_chemical_name_systematic        
'6,14,22,30-tetrakis(1,3-Benzodithiol-2-ylidene)-2,2,10,10,18,18,26,26-octamethyl-5,7,13,15,21,23,29,31-octathia-33,34,35,36-tetraazanonacyclo[25.5.1.1^3,9^.1^11,17^.1^19,25^.0^4,8^.0^12,16^.0^20,24^.0^28,32^]hexatriaconta-1(32),3,8,11,16,19,24,27-octaene bis(1,3,5-trinitrobenzene) chloroform dichloromethane solvate'
_symmetry_cell_setting           triclinic
_symmetry_space_group_name_H-M   'P -1'
_symmetry_Int_Tables_number      2
_space_group_name_Hall           '-P 1'
loop_
_symmetry_equiv_pos_site_id
_symmetry_equiv_pos_as_xyz
1 x,y,z
2 -x,-y,-z
_cell_length_a                   10.564(4)
_cell_length_b                   17.801(7)
_cell_length_c                   24.164(9)
_cell_angle_alpha                101.333(5)
_cell_angle_beta                 91.069(5)
_cell_angle_gamma                101.085(4)
_cell_volume                     4364.78
_exptl_crystal_colour            'dark blue'
_exptl_crystal_description       prism
_cell_formula_units_Z            2
_exptl_crystal_recrystallization_method chloroform/pentane
loop_
_atom_site_label
_atom_site_type_symbol
_atom_site_fract_x
_atom_site_fract_y
_atom_site_fract_z
C1 C 1.0195(3) 0.4406(2) 0.19192(16)
C2 C 1.0965(3) 0.5067(2) 0.18136(15)
C3 C 1.1179(3) 0.5647(2) 0.23260(15)
C4 C 1.0539(3) 0.5322(2) 0.27409(16)
C5 C 1.2267(3) 0.6317(2) 0.15551(15)
C6 C 1.2670(3) 0.6863(2) 0.12480(15)
C7 C 1.3157(3) 0.7581(2) 0.04141(16)
C8 C 1.3432(4) 0.8160(2) 0.09042(16)
C9 C 1.3870(4) 0.8937(2) 0.08656(19)
H1 H 1.4065 0.9335 0.1198
C10 C 1.4015(5) 0.9123(3) 0.0339(2)
H2 H 1.4307 0.9653 0.0310
C11 C 1.3743(5) 0.8550(3) -0.0147(2)
H3 H 1.3854 0.8688 -0.0506
C12 C 1.3313(4) 0.7779(3) -0.01162(17)
H4 H 1.3125 0.7386 -0.0451
C13 C 1.0428(3) 0.5608(2) 0.33700(15)
C14 C 1.1032(4) 0.6487(2) 0.35453(16)
H5 H 1.0614 0.6779 0.3318
H6 H 1.1958 0.6569 0.3483
H7 H 1.0908 0.6671 0.3946
C15 C 1.1123(4) 0.5141(3) 0.37061(19)
H8 H 1.1038 0.5321 0.4111
H9 H 1.2040 0.5222 0.3626
H10 H 1.0733 0.4584 0.3595
C16 C 0.9007(3) 0.5475(2) 0.34998(15)
C17 C 0.8295(3) 0.5049(2) 0.38448(15)
C18 C 0.6988(3) 0.5150(2) 0.38000(15)
C19 C 0.6916(3) 0.5634(2) 0.34264(15)
C20 C 0.7009(4) 0.4180(2) 0.44554(15)
C21 C 0.6675(4) 0.3565(2) 0.47112(15)
C22 C 0.6739(4) 0.2309(2) 0.51005(17)
C23 C 0.7099(5) 0.1672(3) 0.5268(2)
H11 H 0.7982 0.1633 0.5284
C24 C 0.6163(6) 0.1097(3) 0.5411(2)
H12 H 0.6404 0.0659 0.5522
C25 C 0.4881(6) 0.1155(3) 0.5393(2)
H13 H 0.4247 0.0757 0.5493
C26 C 0.4506(5) 0.1787(3) 0.52302(19)
H14 H 0.3620 0.1823 0.5219
C27 C 0.5436(4) 0.2369(2) 0.50841(16)
C28 C 0.5853(4) 0.5971(2) 0.32020(15)
C29 C 0.4548(4) 0.5639(3) 0.34220(18)
H15 H 0.3856 0.5823 0.3245
H16 H 0.4570 0.5817 0.3833
H17 H 0.4386 0.5067 0.3328
C30 C 0.6152(5) 0.6868(2) 0.33976(17)
H18 H 0.6945 0.7088 0.3233
H19 H 0.6268 0.7004 0.3811
H20 H 0.5433 0.7082 0.3273
C31 C 0.5779(3) 0.5758(2) 0.25638(15)
C32 C 0.5865(3) 0.61771(19) 0.21393(14)
C33 C 0.5684(3) 0.56358(19) 0.16071(14)
C34 C 0.5488(3) 0.4890(2) 0.17106(15)
C35 C 0.6115(3) 0.7004(2) 0.13728(15)
C36 C 0.6477(3) 0.7600(2) 0.11045(15)
C37 C 0.7196(4) 0.8427(2) 0.03503(17)
C38 C 0.7356(4) 0.8954(2) 0.08592(18)
C39 C 0.7850(5) 0.9745(3) 0.0881(2)
H21 H 0.7949 1.0111 0.1230
C40 C 0.8197(6) 0.9987(3) 0.0381(3)
H22 H 0.8545 1.0522 0.0389
C41 C 0.8038(6) 0.9452(3) -0.0128(2)
H23 H 0.8286 0.9624 -0.0466
C42 C 0.7528(5) 0.8678(3) -0.0151(2)
H24 H 0.7401 0.8316 -0.0502
C43 C 0.5197(3) 0.40857(19) 0.13315(16)
C44 C 0.5285(5) 0.4158(2) 0.07125(17)
H25 H 0.6125 0.4475 0.0662
H26 H 0.4594 0.4408 0.0607
H27 H 0.5192 0.3636 0.0472
C45 C 0.3815(4) 0.3672(2) 0.1420(2)
H28 H 0.3601 0.3165 0.1157
H29 H 0.3202 0.3996 0.1349
H30 H 0.3765 0.3592 0.1809
C46 C 0.6162(3) 0.36251(19) 0.14844(15)
C47 C 0.6067(3) 0.29011(19) 0.16201(15)
C48 C 0.7352(3) 0.27633(19) 0.16897(15)
C49 C 0.8212(3) 0.3407(2) 0.15936(15)
C50 C 0.5813(4) 0.1557(2) 0.18996(15)
C51 C 0.5363(4) 0.0916(2) 0.21097(16)
C52 C 0.3925(4) -0.0160(2) 0.25393(17)
C53 C 0.5183(5) -0.0273(2) 0.25967(17)
C54 C 0.5431(6) -0.0853(3) 0.2866(2)
H31 H 0.6286 -0.0941 0.2901
C55 C 0.4419(7) -0.1306(3) 0.3083(2)
H32 H 0.4583 -0.1701 0.3271
C56 C 0.3169(7) -0.1185(3) 0.3028(2)
H33 H 0.2486 -0.1497 0.3181
C57 C 0.2906(5) -0.0617(3) 0.2756(2)
H34 H 0.2048 -0.0538 0.2716
C58 C 0.9665(3) 0.3596(2) 0.15663(17)
C59 C 1.0269(4) 0.2985(2) 0.1792(2)
H35 H 1.0009 0.2970 0.2178
H36 H 1.1212 0.3128 0.1795
H37 H 0.9969 0.2469 0.1548
C60 C 0.9990(4) 0.3570(2) 0.09444(18)
H38 H 0.9647 0.3045 0.0720
H39 H 1.0929 0.3695 0.0921
H40 H 0.9599 0.3953 0.0797
N1 N 0.9951(3) 0.45752(18) 0.24844(13)
H44 H 0.9475 0.4243 0.2660
N2 N 0.8160(3) 0.58214(18) 0.32513(13)
H45 H 0.8380 0.6127 0.3009
N3 N 0.7470(3) 0.39162(17) 0.14720(14)
H46 H 0.7792 0.4376 0.1395
N4 N 0.5549(3) 0.49796(17) 0.22939(13)
H47 H 0.5454 0.4587 0.2472
S1 S 1.22258(9) 0.65365(5) 0.23021(4)
S2 S 1.17596(10) 0.53225(5) 0.12249(4)
S3 S 1.26797(10) 0.66161(6) 0.05053(4)
S4 S 1.32498(9) 0.78547(5) 0.15512(4)
S5 S 0.86478(9) 0.45123(7) 0.43410(4)
S6 S 0.59001(9) 0.47016(6) 0.42380(4)
S7 S 0.50933(10) 0.32144(6) 0.48880(5)
S8 S 0.78427(10) 0.30702(6) 0.49102(5)
S9 S 0.56483(10) 0.60295(5) 0.09987(4)
S10 S 0.60079(10) 0.71661(5) 0.21152(4)
S11 S 0.68593(10) 0.85804(5) 0.14607(4)
S12 S 0.65374(10) 0.74475(6) 0.03632(4)
S13 S 0.74824(9) 0.18476(5) 0.18145(5)
S14 S 0.47902(9) 0.21292(5) 0.16738(4)
S15 S 0.37047(10) 0.05732(6) 0.21731(5)
S16 S 0.63905(11) 0.03412(6) 0.23118(5)
C61 C 0.6110(6) 0.2852(3) 0.3165(2)
H41 H 0.6402 0.3298 0.3006
C62 C 0.4813(6) 0.2588(3) 0.3228(2)
C63 C 0.4358(5) 0.1945(3) 0.34613(19)
H42 H 0.3461 0.1773 0.3499
C64 C 0.5260(5) 0.1564(2) 0.36363(17)
C65 C 0.6574(5) 0.1797(3) 0.35813(17)
H43 H 0.7187 0.1527 0.3701
C66 C 0.6943(5) 0.2447(3) 0.33422(18)
N5 N 0.4804(5) 0.0884(2) 0.38969(17)
N6 N 0.8346(6) 0.2705(3) 0.3274(2)
N7 N 0.3879(6) 0.3007(3) 0.3020(2)
O1 O 0.8638(5) 0.3289(3) 0.30692(18)
O2 O 0.9075(5) 0.2323(4) 0.3420(2)
O3 O 0.4295(6) 0.3610(2) 0.28661(19)
O4 O 0.2731(6) 0.2692(4) 0.2994(3)
O5 O 0.3658(4) 0.0713(2) 0.39583(18)
O6 O 0.5608(5) 0.0538(2) 0.40268(17)
O7 O 0.8506(4) 0.52405(19) 0.09260(18)
O8 O 0.8743(5) 0.5597(2) 0.01285(18)
O9 O 0.9134(4) 0.7177(2) 0.26561(14)
O10 O 0.9808(5) 0.8390(3) 0.26251(17)
O11 O 1.0424(4) 0.8289(2) 0.00751(15)
O12 O 1.0783(4) 0.91537(19) 0.08582(17)
N8 N 0.9496(4) 0.7705(3) 0.24018(17)
N9 N 0.8784(4) 0.5729(2) 0.06399(19)
N10 N 1.0434(3) 0.8494(2) 0.05919(18)
C67 C 0.9172(4) 0.6723(3) 0.15196(19)
H48 H 0.8898 0.6326 0.1728
C68 C 0.9552(4) 0.7498(3) 0.17824(18)
C69 C 0.9973(4) 0.8090(3) 0.14933(18)
H49 H 1.0239 0.8618 0.1685
C70 C 0.9987(4) 0.7875(2) 0.09117(17)
C71 C 0.9609(4) 0.7112(2) 0.06242(18)
H50 H 0.9623 0.6976 0.0224
C72 C 0.9211(4) 0.6553(2) 0.09406(19)
Cl1 Cl 1.0960(2) 0.9805(2) 0.41194(17)
Cl2 Cl 0.8333(3) 0.9950(3) 0.4088(2)
Cl3 Cl 0.9057(4) 0.8524(2) 0.4203(2)
C73 C 0.9418(6) 0.9344(4) 0.3922(5)
H51 H 0.9362 0.9169 0.3502
Cl4 Cl 1.2283(4) 0.3668(3) 0.42326(18)
Cl5 Cl 1.1470(3) 0.3224(2) 0.52333(12)
Cl6 Cl 1.1453(4) 0.20422(19) 0.42976(14)
C74 C 1.1268(8) 0.2985(4) 0.4514(3)
H52 H 1.0360 0.3008 0.4406
C75 C 0.0434(9) 0.1166(4) 0.2428(3)
Cl7 Cl 0.0826(4) 0.1061(2) 0.1688(2)
Cl8 Cl -0.0127(5) 0.0160(3) 0.2467(3)
Cl9? Cl 0.0309(7) 0.0517(5) 0.1838(3)
Cl10? Cl 0.0537(11) 0.0753(5) 0.3019(3)
loop_
_geom_bond_atom_site_label_1
_geom_bond_atom_site_label_2
_geom_bond_site_symmetry_1
_geom_bond_site_symmetry_2
C1 C2 1_555 1_555
C2 C3 1_555 1_555
C3 C4 1_555 1_555
C4 C13 1_555 1_555
C5 C6 1_555 1_555
C6 S3 1_555 1_555
C7 C8 1_555 1_555
C8 C9 1_555 1_555
C9 H1 1_555 1_555
C10 C9 1_555 1_555
H2 C10 1_555 1_555
C11 C10 1_555 1_555
H3 C11 1_555 1_555
C12 C7 1_555 1_555
H4 C12 1_555 1_555
C13 C14 1_555 1_555
C14 H5 1_555 1_555
H6 C14 1_555 1_555
H7 C14 1_555 1_555
C15 C13 1_555 1_555
H8 C15 1_555 1_555
H9 C15 1_555 1_555
H10 C15 1_555 1_555
C16 C13 1_555 1_555
C17 C16 1_555 1_555
C18 C17 1_555 1_555
C19 C18 1_555 1_555
C20 C21 1_555 1_555
C21 S7 1_555 1_555
C22 C23 1_555 1_555
C23 H11 1_555 1_555
C24 C23 1_555 1_555
H12 C24 1_555 1_555
C25 C24 1_555 1_555
H13 C25 1_555 1_555
C26 C25 1_555 1_555
H14 C26 1_555 1_555
C27 C22 1_555 1_555
C28 C19 1_555 1_555
C29 C28 1_555 1_555
H15 C29 1_555 1_555
H16 C29 1_555 1_555
H17 C29 1_555 1_555
C30 C28 1_555 1_555
H18 C30 1_555 1_555
H19 C30 1_555 1_555
H20 C30 1_555 1_555
C31 C28 1_555 1_555
C32 C31 1_555 1_555
C33 C32 1_555 1_555
C34 C33 1_555 1_555
C35 C36 1_555 1_555
C36 S11 1_555 1_555
C37 C38 1_555 1_555
C38 C39 1_555 1_555
C39 H21 1_555 1_555
C40 C39 1_555 1_555
H22 C40 1_555 1_555
C41 C40 1_555 1_555
H23 C41 1_555 1_555
C42 C37 1_555 1_555
H24 C42 1_555 1_555
C43 C34 1_555 1_555
C44 C43 1_555 1_555
H25 C44 1_555 1_555
H26 C44 1_555 1_555
H27 C44 1_555 1_555
C45 C43 1_555 1_555
H28 C45 1_555 1_555
H29 C45 1_555 1_555
H30 C45 1_555 1_555
C46 C43 1_555 1_555
C47 C46 1_555 1_555
C48 C47 1_555 1_555
C49 C48 1_555 1_555
C50 C51 1_555 1_555
C51 S15 1_555 1_555
C52 C53 1_555 1_555
C53 C54 1_555 1_555
C54 H31 1_555 1_555
C55 C54 1_555 1_555
H32 C55 1_555 1_555
C56 C55 1_555 1_555
H33 C56 1_555 1_555
C57 C52 1_555 1_555
H34 C57 1_555 1_555
C58 C1 1_555 1_555
C59 C58 1_555 1_555
H35 C59 1_555 1_555
H36 C59 1_555 1_555
H37 C59 1_555 1_555
C60 C58 1_555 1_555
H38 C60 1_555 1_555
H39 C60 1_555 1_555
H40 C60 1_555 1_555
C61 H41 1_555 1_555
C62 C61 1_555 1_555
C63 C62 1_555 1_555
H42 C63 1_555 1_555
C64 C63 1_555 1_555
C65 C64 1_555 1_555
H43 C65 1_555 1_555
C66 C61 1_555 1_555
N1 C1 1_555 1_555
H44 N1 1_555 1_555
N2 C16 1_555 1_555
H45 N2 1_555 1_555
N3 C46 1_555 1_555
H46 N3 1_555 1_555
N4 C31 1_555 1_555
H47 N4 1_555 1_555
N5 C64 1_555 1_555
N6 C66 1_555 1_555
N7 C62 1_555 1_555
O1 N6 1_555 1_555
O2 N6 1_555 1_555
O3 N7 1_555 1_555
O4 N7 1_555 1_555
O5 N5 1_555 1_555
O6 N5 1_555 1_555
S1 C3 1_555 1_555
S2 C2 1_555 1_555
S3 C7 1_555 1_555
S4 C6 1_555 1_555
S5 C17 1_555 1_555
S6 C18 1_555 1_555
S7 C27 1_555 1_555
S8 C21 1_555 1_555
S9 C33 1_555 1_555
S10 C32 1_555 1_555
S11 C38 1_555 1_555
S12 C36 1_555 1_555
S13 C48 1_555 1_555
S14 C47 1_555 1_555
S15 C52 1_555 1_555
S16 C51 1_555 1_555
O7 N9 1_555 1_555
O8 N9 1_555 1_555
O9 N8 1_555 1_555
O10 N8 1_555 1_555
O11 N10 1_555 1_555
O12 N10 1_555 1_555
N8 C68 1_555 1_555
N9 C72 1_555 1_555
N10 C70 1_555 1_555
C67 H48 1_555 1_555
C68 C67 1_555 1_555
C69 C68 1_555 1_555
H49 C69 1_555 1_555
C70 C69 1_555 1_555
C71 C70 1_555 1_555
H50 C71 1_555 1_555
C72 C67 1_555 1_555
Cl1 C73 1_555 1_555
Cl2 C73 1_555 1_555
Cl3 C73 1_555 1_555
C73 H51 1_555 1_555
Cl4 C74 1_555 1_555
Cl5 C74 1_555 1_555
Cl6 C74 1_555 1_555
C74 H52 1_555 1_555
C75 Cl7 1_555 1_555
Cl8 C75 1_555 1_555
C4 N1 1_555 1_555
C5 S1 1_555 1_555
C5 S2 1_555 1_555
C8 S4 1_555 1_555
C11 C12 1_555 1_555
C19 N2 1_555 1_555
C20 S5 1_555 1_555
C20 S6 1_555 1_555
C22 S8 1_555 1_555
C26 C27 1_555 1_555
C34 N4 1_555 1_555
C35 S9 1_555 1_555
C35 S10 1_555 1_555
C37 S12 1_555 1_555
C41 C42 1_555 1_555
C49 C58 1_555 1_555
C49 N3 1_555 1_555
C50 S13 1_555 1_555
C50 S14 1_555 1_555
C53 S16 1_555 1_555
C56 C57 1_555 1_555
C65 C66 1_555 1_555
C71 C72 1_555 1_555

#END
