
#######################################################################
#
#                 Cambridge Crystallographic Data Centre
#                                CCDC 
#
#######################################################################
#
# If this CIF has been generated from an entry in the Cambridge 
# Structural Database, then it will include bibliographic, chemical, 
# crystal, experimental, refinement or atomic coordinate data resulting 
# from the CCDC's data processing and validation procedures.
#
#######################################################################

data_PAHXON
_chemical_formula_moiety         'C8 H20 N1 1+,C38 H36 N8 O8,Cl1 1-,C1 H1 Cl3'
_chemical_name_systematic        
'Tetra-ethylammonium cis-5,15-bis(3,5-dinitrophenyl)-5,10,10,15,20,20-hexamethyl-5,10,15,20,22,24-hexahydroporphyrin chloride chloroform solvate'
_symmetry_cell_setting           monoclinic
_symmetry_space_group_name_H-M   'P c'
_symmetry_Int_Tables_number      7
_space_group_name_Hall           'P -2yc'
loop_
_symmetry_equiv_pos_site_id
_symmetry_equiv_pos_as_xyz
1 x,y,z
2 x,-y,1/2+z
_cell_length_a                   13.7970(11)
_cell_length_b                   13.8741(11)
_cell_length_c                   26.733(2)
_cell_angle_alpha                90
_cell_angle_beta                 90.756(2)
_cell_angle_gamma                90
_cell_volume                     5116.81
_exptl_crystal_colour            orange
_exptl_crystal_description       prism
_cell_formula_units_Z            4
loop_
_atom_site_label
_atom_site_type_symbol
_atom_site_fract_x
_atom_site_fract_y
_atom_site_fract_z
Cl1 Cl 0.71415(9) 0.59359(9) 0.08638(5)
Cl2 Cl 0.14754(10) 0.96040(9) 0.31449(5)
O1 O 0.6407(4) 0.7439(3) 0.20620(19)
O2 O 0.8918(4) 0.4095(4) 0.2852(2)
O3 O 0.8481(4) 0.9611(3) 0.0416(2)
O4 O 1.0205(4) 0.5551(4) 0.0114(2)
O5 O 0.7546(5) 0.7266(4) 0.2599(3)
O6 O 0.8178(5) 0.2871(4) 0.2567(3)
O7 O 0.7081(5) 0.9479(4) 0.0063(3)
O8 O 1.0681(4) 0.6919(5) 0.0432(2)
N1 N 0.7144(3) 0.4643(3) -0.01622(16)
H1 H 0.7106 0.4956 0.0119
N2 N 0.6411(3) 0.3671(3) 0.09062(15)
H2 H 0.6625 0.4260 0.0893
N3 N 0.4870(3) 0.5476(3) 0.10161(17)
H3 H 0.5470 0.5576 0.0935
N4 N 0.5604(3) 0.6442(3) -0.00293(16)
H4 H 0.5988 0.6304 0.0221
N5 N 0.7862(5) 0.9162(4) 0.0176(2)
N6 N 1.0091(4) 0.6408(5) 0.0197(2)
N7 N 0.6958(4) 0.6938(4) 0.2306(2)
N8 N 0.8262(5) 0.3709(5) 0.2620(2)
C1 C 0.7323(4) 0.3659(3) -0.0204(2)
C2 C 0.7299(4) 0.3464(4) -0.0704(2)
H5 H 0.7382 0.2852 -0.0848
C3 C 0.7130(4) 0.4337(4) -0.0972(2)
H6 H 0.7089 0.4408 -0.1321
C4 C 0.7039(4) 0.5045(4) -0.0625(2)
C5 C 0.6872(4) 0.6123(4) -0.0691(2)
C6 C 0.7010(5) 0.6390(5) -0.1244(2)
H7 H 0.6520 0.6068 -0.1447
H8 H 0.7648 0.6187 -0.1349
H9 H 0.6948 0.7082 -0.1284
C7 C 0.7640(4) 0.6712(4) -0.03867(19)
C8 C 0.8526(4) 0.6314(4) -0.0253(2)
H10 H 0.8690 0.5688 -0.0355
C9 C 0.9174(4) 0.6863(5) 0.0038(2)
C10 C 0.8985(4) 0.7784(4) 0.0189(2)
H11 H 0.9423 0.8137 0.0390
C11 C 0.8114(5) 0.8162(4) 0.0029(2)
C12 C 0.7416(4) 0.7657(4) -0.0247(2)
H12 H 0.6819 0.7940 -0.0336
C13 C 0.5865(4) 0.6409(3) -0.0524(2)
C14 C 0.5056(4) 0.6663(4) -0.0803(2)
H13 H 0.5008 0.6698 -0.1154
C15 C 0.4292(4) 0.6869(4) -0.0447(2)
H14 H 0.3657 0.7069 -0.0525
C16 C 0.4664(4) 0.6719(3) 0.0014(2)
C17 C 0.4210(4) 0.6906(4) 0.0529(2)
C18 C 0.3192(4) 0.7353(4) 0.0436(3)
H15 H 0.2790 0.6901 0.0251
H16 H 0.3256 0.7945 0.0246
H17 H 0.2895 0.7494 0.0755
C19 C 0.4844(5) 0.7645(4) 0.0823(3)
H18 H 0.4560 0.7763 0.1148
H19 H 0.4874 0.8245 0.0638
H20 H 0.5493 0.7388 0.0869
C20 C 0.4083(4) 0.6003(4) 0.0842(2)
C21 C 0.3285(4) 0.5623(4) 0.1051(2)
H21 H 0.2646 0.5841 0.0998
C22 C 0.3566(4) 0.4835(4) 0.1364(2)
H22 H 0.3151 0.4441 0.1551
C23 C 0.4553(4) 0.4763(4) 0.1341(2)
C24 C 0.5243(4) 0.4049(3) 0.15936(19)
C25 C 0.4636(4) 0.3441(5) 0.1964(2)
H23 H 0.5033 0.2925 0.2101
H24 H 0.4080 0.3167 0.1789
H25 H 0.4414 0.3850 0.2233
C26 C 0.6058(4) 0.4531(4) 0.18938(19)
C27 C 0.6780(4) 0.3957(4) 0.2103(2)
H26 H 0.6770 0.3288 0.2049
C28 C 0.7517(5) 0.4365(4) 0.2390(2)
C29 C 0.7619(4) 0.5338(4) 0.2467(2)
H27 H 0.8138 0.5605 0.2652
C30 C 0.6893(4) 0.5893(4) 0.2249(2)
C31 C 0.6135(4) 0.5518(4) 0.1977(2)
H28 H 0.5660 0.5934 0.1844
C32 C 0.5704(4) 0.3371(3) 0.12180(19)
C33 C 0.5577(4) 0.2412(4) 0.11206(19)
H29 H 0.5132 0.2007 0.1281
C34 C 0.6206(4) 0.2131(4) 0.0748(2)
H30 H 0.6256 0.1509 0.0612
C35 C 0.6749(4) 0.2928(3) 0.06123(19)
C36 C 0.7564(4) 0.3035(4) 0.0247(2)
C37 C 0.8450(4) 0.3496(4) 0.0525(2)
H31 H 0.8279 0.4138 0.0637
H32 H 0.8993 0.3535 0.0299
H33 H 0.8627 0.3101 0.0811
C38 C 0.7875(5) 0.2036(4) 0.0049(3)
H34 H 0.8078 0.1633 0.0328
H35 H 0.8410 0.2112 -0.0179
H36 H 0.7333 0.1735 -0.0125
O9 O 0.1729(5) 1.3011(4) 0.4146(3)
O10 O 0.3221(5) 1.0837(4) 0.12263(18)
O11 O 0.0326(5) 1.3494(4) 0.3855(3)
O12 O 0.0348(5) 0.7498(5) 0.1597(3)
O13 O -0.2204(4) 1.1142(4) 0.3557(2)
O14 O -0.2045(5) 0.9694(5) 0.3836(3)
O15 O 0.0323(4) 0.8848(4) 0.12025(19)
O16 O 0.4305(6) 1.0572(6) 0.1792(3)
N9 N 0.1924(3) 0.7264(3) 0.31559(15)
H37 H 0.1821 0.7881 0.3180
N10 N 0.0893(3) 0.8240(3) 0.41129(15)
H38 H 0.1047 0.8584 0.3854
N11 N 0.2712(3) 0.9852(3) 0.41944(15)
H39 H 0.2398 0.9761 0.3914
N12 N 0.3732(3) 0.8866(3) 0.32378(15)
H40 H 0.3130 0.9053 0.3231
N13 N 0.0717(4) 0.8264(5) 0.1482(2)
N14 N 0.3580(6) 1.0350(5) 0.1566(2)
N15 N -0.1752(4) 1.0525(5) 0.3783(2)
N16 N 0.0850(5) 1.2874(4) 0.4021(2)
C39 C 0.2705(4) 0.6852(3) 0.29255(18)
C40 C 0.2607(4) 0.5864(3) 0.2970(2)
H41 H 0.3037 0.5396 0.2849
C41 C 0.1740(4) 0.5688(4) 0.3231(2)
H42 H 0.1493 0.5078 0.3313
C42 C 0.1320(4) 0.6555(3) 0.33454(18)
C43 C 0.0367(4) 0.6788(4) 0.3606(2)
C44 C -0.0267(4) 0.7418(4) 0.3252(2)
H43 H -0.0878 0.7561 0.3411
H44 H -0.0390 0.7071 0.2942
H45 H 0.0069 0.8015 0.3180
C45 C -0.0166(4) 0.5848(4) 0.3702(3)
H46 H 0.0200 0.5463 0.3941
H47 H -0.0238 0.5494 0.3391
H48 H -0.0802 0.5986 0.3835
C46 C 0.0551(4) 0.7309(4) 0.4090(2)
C47 C 0.0422(4) 0.7026(4) 0.4574(2)
H49 H 0.0210 0.6414 0.4676
C48 C 0.0659(4) 0.7798(4) 0.4896(2)
H50 H 0.0619 0.7796 0.5246
C49 C 0.0960(4) 0.8557(4) 0.46044(18)
C50 C 0.1243(4) 0.9578(4) 0.47335(18)
C51 C 0.1018(5) 0.9756(5) 0.5293(2)
H51 H 0.0335 0.9641 0.5350
H52 H 0.1176 1.0417 0.5380
H53 H 0.1403 0.9321 0.5499
C52 C 0.0642(4) 1.0313(4) 0.44393(19)
C53 C 0.1007(4) 1.1240(4) 0.4360(2)
H54 H 0.1623 1.1409 0.4485
C54 C 0.0461(5) 1.1904(4) 0.4098(2)
C55 C -0.0434(5) 1.1698(4) 0.3902(2)
H55 H -0.0789 1.2158 0.3717
C56 C -0.0796(4) 1.0782(4) 0.3987(2)
C57 C 0.2322(4) 0.9774(4) 0.46597(19)
C58 C 0.3055(4) 0.9941(4) 0.5006(2)
H56 H 0.3004 0.9922 0.5356
C59 C 0.3899(4) 1.0146(4) 0.4729(2)
H57 H 0.4513 1.0295 0.4864
C60 C 0.3670(4) 1.0092(3) 0.42345(19)
C61 C 0.4307(4) 1.0264(4) 0.3787(2)
C62 C 0.3804(5) 1.1026(4) 0.3428(2)
H58 H 0.3156 1.0807 0.3341
H59 H 0.4181 1.1096 0.3127
H60 H 0.3765 1.1643 0.3598
C63 C 0.5289(4) 1.0660(4) 0.3946(2)
H61 H 0.5202 1.1257 0.4129
H62 H 0.5675 1.0782 0.3652
H63 H 0.5619 1.0194 0.4158
C64 C 0.4469(4) 0.9337(3) 0.34842(18)
C65 C 0.5301(4) 0.8810(4) 0.3410(2)
H64 H 0.5921 0.8954 0.3540
C66 C 0.5056(4) 0.8020(4) 0.3108(2)
H65 H 0.5490 0.7546 0.2997
C67 C 0.4081(4) 0.8051(4) 0.30008(19)
C68 C 0.3444(4) 0.7442(4) 0.26572(18)
C69 C 0.4129(5) 0.6749(4) 0.2365(2)
H66 H 0.4462 0.6326 0.2600
H67 H 0.4602 0.7125 0.2184
H68 H 0.3749 0.6367 0.2131
C70 C 0.2959(4) 0.8104(4) 0.22570(18)
C71 C 0.2087(4) 0.7865(4) 0.20464(19)
H69 H 0.1761 0.7301 0.2143
C72 C 0.1690(4) 0.8473(4) 0.16855(19)
C73 C 0.2132(5) 0.9305(4) 0.1521(2)
H70 H 0.1842 0.9718 0.1284
C74 C 0.3036(5) 0.9486(5) 0.1731(2)
C75 C 0.3458(5) 0.8907(4) 0.2092(2)
H71 H 0.4075 0.9055 0.2224
C76 C -0.0282(4) 1.0095(4) 0.4253(2)
H72 H -0.0553 0.9483 0.4309
N17 N 0.3816(3) 0.6519(3) 0.46332(14)
C77 C 0.4553(4) 0.5804(4) 0.44345(19)
H73 H 0.5201 0.6003 0.4548
H74 H 0.4422 0.5170 0.4579
C78 C 0.4556(5) 0.5711(5) 0.3871(2)
H75 H 0.3932 0.5471 0.3755
H76 H 0.5061 0.5265 0.3774
H77 H 0.4676 0.6337 0.3723
C79 C 0.4031(4) 0.7536(3) 0.4448(2)
H78 H 0.3974 0.7544 0.4082
H79 H 0.3539 0.7975 0.4579
C80 C 0.5022(4) 0.7908(4) 0.4598(3)
H80 H 0.5077 0.7927 0.4960
H81 H 0.5109 0.8552 0.4465
H82 H 0.5516 0.7484 0.4466
C81 C 0.3866(4) 0.6472(4) 0.51979(17)
H83 H 0.4532 0.6611 0.5307
H84 H 0.3715 0.5813 0.5303
C82 C 0.3189(5) 0.7159(5) 0.5461(2)
H85 H 0.3348 0.7817 0.5371
H86 H 0.3261 0.7079 0.5820
H87 H 0.2525 0.7020 0.5361
C83 C 0.2795(3) 0.6277(4) 0.4447(2)
H88 H 0.2345 0.6761 0.4576
H89 H 0.2779 0.6320 0.4081
C84 C 0.2446(5) 0.5288(4) 0.4600(3)
H90 H 0.2945 0.4816 0.4531
H91 H 0.1862 0.5128 0.4411
H92 H 0.2308 0.5287 0.4954
N18 N 0.7702(3) 0.0177(3) 0.19342(15)
C85 C 0.7004(6) 0.0064(6) 0.2364(3)
H93 H 0.7377 -0.0091 0.2667
H94 H 0.6576 -0.0483 0.2291
C86 C 0.6381(8) 0.0942(8) 0.2468(5)
H95 H 0.6733 0.1521 0.2379
H96 H 0.6225 0.0961 0.2820
H97 H 0.5787 0.0905 0.2270
C87 C 0.8294(7) 0.1073(6) 0.1972(3)
H98 H 0.8722 0.1023 0.2266
H99 H 0.7858 0.1620 0.2026
C88 C 0.8907(10) 0.1280(10) 0.1518(5)
H100 H 0.9126 0.0677 0.1374
H101 H 0.9464 0.1665 0.1617
H102 H 0.8523 0.1630 0.1272
C89 C 0.8336(6) -0.0719(6) 0.1904(4)
H103 H 0.8723 -0.0690 0.1600
H104 H 0.7921 -0.1292 0.1882
C90 C 0.9013(10) -0.0813(11) 0.2358(5)
H105 H 0.9615 -0.1113 0.2257
H106 H 0.8707 -0.1208 0.2610
H107 H 0.9147 -0.0178 0.2494
C91 C 0.7103(6) 0.0220(7) 0.1440(3)
H108 H 0.6773 0.0845 0.1419
H109 H 0.7545 0.0175 0.1157
C92 C 0.6356(9) -0.0575(10) 0.1398(5)
H110 H 0.6664 -0.1159 0.1279
H111 H 0.5849 -0.0383 0.1164
H112 H 0.6077 -0.0693 0.1723
Cl3 Cl -0.06876(17) 0.5320(2) 0.14083(10)
Cl4 Cl 0.1004(2) 0.5215(2) 0.20537(10)
Cl5 Cl 0.0825(2) 0.3944(3) 0.12144(16)
C93 C 0.0561(6) 0.5067(7) 0.1437(4)
H113 H 0.0894 0.5542 0.1223
Cl6 Cl 0.2393(4) 0.2919(3) 0.2851(2)
Cl7 Cl 0.0466(3) 0.2380(3) 0.26714(14)
Cl8 Cl 0.1912(5) 0.1819(3) 0.2011(2)
C94 C 0.1538(9) 0.1948(8) 0.2621(4)
H114 H 0.1619 0.1343 0.2813
C95? C 0.8150(8) 0.0742(10) 0.1505(4)
C96? C 0.9216(9) 0.094(2) 0.1555(9)
C97? C 0.7445(12) -0.0817(6) 0.1759(5)
C98? C 0.702(2) -0.0865(16) 0.1232(7)
C99? C 0.6802(7) 0.0723(10) 0.2101(5)
C100? C 0.6313(15) 0.027(2) 0.2548(8)
C101? C 0.8417(8) 0.0146(11) 0.2371(4)
C102? C 0.9300(13) -0.047(2) 0.2287(10)
H115? H 0.8035 0.0385 0.1194
H116? H 0.7811 0.1360 0.1474
H117? H 0.9323 0.1456 0.1793
H118? H 0.9468 0.1127 0.1232
H119? H 0.9546 0.0362 0.1671
H120? H 0.6975 -0.1094 0.1990
H121? H 0.8029 -0.1219 0.1774
H122? H 0.7125 -0.0254 0.1064
H123? H 0.6333 -0.0997 0.1247
H124? H 0.7340 -0.1375 0.1047
H125? H 0.6986 0.1386 0.2186
H126? H 0.6336 0.0751 0.1822
H127? H 0.6604 -0.0354 0.2618
H128? H 0.5628 0.0188 0.2476
H129? H 0.6396 0.0685 0.2838
H130? H 0.8629 0.0805 0.2445
H131? H 0.8081 -0.0097 0.2666
H132? H 0.9151 -0.1134 0.2365
H133? H 0.9826 -0.0247 0.2502
H134? H 0.9491 -0.0419 0.1940
loop_
_geom_bond_atom_site_label_1
_geom_bond_atom_site_label_2
_geom_bond_site_symmetry_1
_geom_bond_site_symmetry_2
O1 N7 1_555 1_555
O2 N8 1_555 1_555
O3 N5 1_555 1_555
O4 N6 1_555 1_555
O5 N7 1_555 1_555
O6 N8 1_555 1_555
O7 N5 1_555 1_555
O8 N6 1_555 1_555
N1 H1 1_555 1_555
N2 H2 1_555 1_555
N3 H3 1_555 1_555
N4 H4 1_555 1_555
N5 C11 1_555 1_555
N6 C9 1_555 1_555
N7 C30 1_555 1_555
N8 C28 1_555 1_555
C1 N1 1_555 1_555
C2 C1 1_555 1_555
H5 C2 1_555 1_555
C3 C2 1_555 1_555
H6 C3 1_555 1_555
C4 N1 1_555 1_555
C5 C4 1_555 1_555
C6 C5 1_555 1_555
H7 C6 1_555 1_555
H8 C6 1_555 1_555
H9 C6 1_555 1_555
C7 C5 1_555 1_555
C8 C7 1_555 1_555
H10 C8 1_555 1_555
C9 C8 1_555 1_555
C10 C9 1_555 1_555
H11 C10 1_555 1_555
C11 C10 1_555 1_555
C12 C7 1_555 1_555
H12 C12 1_555 1_555
C13 N4 1_555 1_555
C14 C13 1_555 1_555
H13 C14 1_555 1_555
C15 C14 1_555 1_555
H14 C15 1_555 1_555
C16 N4 1_555 1_555
C17 C16 1_555 1_555
C18 C17 1_555 1_555
H15 C18 1_555 1_555
H16 C18 1_555 1_555
H17 C18 1_555 1_555
C19 C17 1_555 1_555
H18 C19 1_555 1_555
H19 C19 1_555 1_555
H20 C19 1_555 1_555
C20 N3 1_555 1_555
C21 C20 1_555 1_555
H21 C21 1_555 1_555
C22 C21 1_555 1_555
H22 C22 1_555 1_555
C23 N3 1_555 1_555
C24 C23 1_555 1_555
C25 C24 1_555 1_555
H23 C25 1_555 1_555
H24 C25 1_555 1_555
H25 C25 1_555 1_555
C26 C24 1_555 1_555
C27 C26 1_555 1_555
H26 C27 1_555 1_555
C28 C27 1_555 1_555
C29 C28 1_555 1_555
H27 C29 1_555 1_555
C30 C29 1_555 1_555
C31 C26 1_555 1_555
H28 C31 1_555 1_555
C32 N2 1_555 1_555
C33 C32 1_555 1_555
H29 C33 1_555 1_555
C34 C33 1_555 1_555
H30 C34 1_555 1_555
C35 N2 1_555 1_555
C36 C1 1_555 1_555
C37 C36 1_555 1_555
H31 C37 1_555 1_555
H32 C37 1_555 1_555
H33 C37 1_555 1_555
C38 C36 1_555 1_555
H34 C38 1_555 1_555
H35 C38 1_555 1_555
H36 C38 1_555 1_555
O9 N16 1_555 1_555
O10 N14 1_555 1_555
O11 N16 1_555 1_555
O12 N13 1_555 1_555
O13 N15 1_555 1_555
O14 N15 1_555 1_555
O15 N13 1_555 1_555
O16 N14 1_555 1_555
N9 H37 1_555 1_555
N10 H38 1_555 1_555
N11 H39 1_555 1_555
N12 H40 1_555 1_555
N13 C72 1_555 1_555
N14 C74 1_555 1_555
N15 C56 1_555 1_555
N16 C54 1_555 1_555
C39 N9 1_555 1_555
C40 C39 1_555 1_555
H41 C40 1_555 1_555
C41 C40 1_555 1_555
H42 C41 1_555 1_555
C42 N9 1_555 1_555
C43 C42 1_555 1_555
C44 C43 1_555 1_555
H43 C44 1_555 1_555
H44 C44 1_555 1_555
H45 C44 1_555 1_555
C45 C43 1_555 1_555
H46 C45 1_555 1_555
H47 C45 1_555 1_555
H48 C45 1_555 1_555
C46 N10 1_555 1_555
C47 C46 1_555 1_555
H49 C47 1_555 1_555
C48 C47 1_555 1_555
H50 C48 1_555 1_555
C49 N10 1_555 1_555
C50 C49 1_555 1_555
C51 C50 1_555 1_555
H51 C51 1_555 1_555
H52 C51 1_555 1_555
H53 C51 1_555 1_555
C52 C50 1_555 1_555
C53 C52 1_555 1_555
H54 C53 1_555 1_555
C54 C53 1_555 1_555
C55 C54 1_555 1_555
H55 C55 1_555 1_555
C56 C55 1_555 1_555
C57 N11 1_555 1_555
C58 C57 1_555 1_555
H56 C58 1_555 1_555
C59 C58 1_555 1_555
H57 C59 1_555 1_555
C60 N11 1_555 1_555
C61 C60 1_555 1_555
C62 C61 1_555 1_555
H58 C62 1_555 1_555
H59 C62 1_555 1_555
H60 C62 1_555 1_555
C63 C61 1_555 1_555
H61 C63 1_555 1_555
H62 C63 1_555 1_555
H63 C63 1_555 1_555
C64 N12 1_555 1_555
C65 C64 1_555 1_555
H64 C65 1_555 1_555
C66 C65 1_555 1_555
H65 C66 1_555 1_555
C67 N12 1_555 1_555
C68 C39 1_555 1_555
C69 C68 1_555 1_555
H66 C69 1_555 1_555
H67 C69 1_555 1_555
H68 C69 1_555 1_555
C70 C68 1_555 1_555
C71 C70 1_555 1_555
H69 C71 1_555 1_555
C72 C71 1_555 1_555
C73 C72 1_555 1_555
H70 C73 1_555 1_555
C74 C73 1_555 1_555
C75 C70 1_555 1_555
H71 C75 1_555 1_555
C76 C52 1_555 1_555
H72 C76 1_555 1_555
N17 C77 1_555 1_555
C77 H73 1_555 1_555
H74 C77 1_555 1_555
C78 C77 1_555 1_555
H75 C78 1_555 1_555
H76 C78 1_555 1_555
H77 C78 1_555 1_555
C79 N17 1_555 1_555
H78 C79 1_555 1_555
H79 C79 1_555 1_555
C80 C79 1_555 1_555
H80 C80 1_555 1_555
H81 C80 1_555 1_555
H82 C80 1_555 1_555
C81 N17 1_555 1_555
H83 C81 1_555 1_555
H84 C81 1_555 1_555
C82 C81 1_555 1_555
H85 C82 1_555 1_555
H86 C82 1_555 1_555
H87 C82 1_555 1_555
C83 N17 1_555 1_555
H88 C83 1_555 1_555
H89 C83 1_555 1_555
C84 C83 1_555 1_555
H90 C84 1_555 1_555
H91 C84 1_555 1_555
H92 C84 1_555 1_555
N18 C85 1_555 1_555
C85 H93 1_555 1_555
H94 C85 1_555 1_555
C86 C85 1_555 1_555
H95 C86 1_555 1_555
H96 C86 1_555 1_555
H97 C86 1_555 1_555
C87 N18 1_555 1_555
H98 C87 1_555 1_555
H99 C87 1_555 1_555
C88 C87 1_555 1_555
H100 C88 1_555 1_555
H101 C88 1_555 1_555
H102 C88 1_555 1_555
C89 N18 1_555 1_555
H103 C89 1_555 1_555
H104 C89 1_555 1_555
C90 C89 1_555 1_555
H105 C90 1_555 1_555
H106 C90 1_555 1_555
H107 C90 1_555 1_555
C91 N18 1_555 1_555
H108 C91 1_555 1_555
H109 C91 1_555 1_555
C92 C91 1_555 1_555
H110 C92 1_555 1_555
H111 C92 1_555 1_555
H112 C92 1_555 1_555
Cl3 C93 1_555 1_555
Cl4 C93 1_555 1_555
Cl5 C93 1_555 1_555
C93 H113 1_555 1_555
Cl6 C94 1_555 1_555
Cl7 C94 1_555 1_555
Cl8 C94 1_555 1_555
C94 H114 1_555 1_555
C3 C4 1_555 1_555
C5 C13 1_555 1_555
C11 C12 1_555 1_555
C15 C16 1_555 1_555
C17 C20 1_555 1_555
C22 C23 1_555 1_555
C24 C32 1_555 1_555
C30 C31 1_555 1_555
C34 C35 1_555 1_555
C35 C36 1_555 1_555
C41 C42 1_555 1_555
C43 C46 1_555 1_555
C48 C49 1_555 1_555
C50 C57 1_555 1_555
C56 C76 1_555 1_555
C59 C60 1_555 1_555
C61 C64 1_555 1_555
C66 C67 1_555 1_555
C67 C68 1_555 1_555
C74 C75 1_555 1_555

#END
