
#######################################################################
#
#                 Cambridge Crystallographic Data Centre
#                                CCDC 
#
#######################################################################
#
# If this CIF has been generated from an entry in the Cambridge 
# Structural Database, then it will include bibliographic, chemical, 
# crystal, experimental, refinement or atomic coordinate data resulting 
# from the CCDC's data processing and validation procedures.
#
#######################################################################

data_PAHYEE
_chemical_formula_moiety         'C38 H36 N8 O8'
_chemical_name_systematic        
trans-5,15-bis(3,5-Dinitrophenyl)-5,10,10,15,20,20-hexamethyl-5,10,15,20,22,24-hexahydroporphyrin
_symmetry_cell_setting           triclinic
_symmetry_space_group_name_H-M   'P -1'
_symmetry_Int_Tables_number      2
_space_group_name_Hall           '-P 1'
loop_
_symmetry_equiv_pos_site_id
_symmetry_equiv_pos_as_xyz
1 x,y,z
2 -x,-y,-z
_cell_length_a                   10.5852(10)
_cell_length_b                   13.1521(12)
_cell_length_c                   13.7047(12)
_cell_angle_alpha                81.772(3)
_cell_angle_beta                 69.325(2)
_cell_angle_gamma                85.114(2)
_cell_volume                     1765.45
_exptl_crystal_colour            orange
_exptl_crystal_description       prism
_cell_formula_units_Z            2
loop_
_atom_site_label
_atom_site_type_symbol
_atom_site_fract_x
_atom_site_fract_y
_atom_site_fract_z
C1 C 0.77914(13) 0.94517(10) 0.32144(11)
C2 C 0.82738(14) 0.99824(10) 0.22315(11)
H1 H 0.9178 1.0184 0.1871
C3 C 0.71869(14) 1.01798(10) 0.18449(11)
H2 H 0.7234 1.0538 0.1181
C4 C 0.60565(14) 0.97620(10) 0.26011(11)
C5 C 0.46011(14) 0.97897(10) 0.26409(11)
C6 C 0.40219(15) 0.87143(10) 0.29629(12)
H3 H 0.4565 0.8255 0.2454
H4 H 0.3087 0.8753 0.2978
H5 H 0.4043 0.8448 0.3662
C7 C 0.45659(15) 1.01679(11) 0.15364(11)
H6 H 0.4925 1.0858 0.1310
H7 H 0.3632 1.0189 0.1551
H8 H 0.5118 0.9697 0.1044
C8 C 0.85210(13) 0.89763(10) 0.39531(11)
C9 C 0.97260(14) 0.96499(11) 0.37859(12)
H9 H 0.9397 1.0360 0.3888
H10 H 1.0373 0.9632 0.3071
H11 H 1.0171 0.9385 0.4293
C10 C 0.75889(13) 0.88878(10) 0.50930(11)
C11 C 0.72272(14) 0.80501(10) 0.58405(11)
H12 H 0.7501 0.7355 0.5739
C12 C 0.63722(14) 0.84077(10) 0.67915(11)
H13 H 0.5970 0.7993 0.7440
C13 C 0.62263(13) 0.94555(10) 0.66125(11)
C14 C 0.90559(13) 0.78803(10) 0.37153(11)
C15 C 0.86185(13) 0.73639(10) 0.30839(11)
H14 H 0.7984 0.7687 0.2780
C16 C 0.91155(14) 0.63735(11) 0.29008(11)
C17 C 1.00297(14) 0.58505(11) 0.33164(11)
H15 H 1.0372 0.5177 0.3166
C18 C 1.04142(14) 0.63717(11) 0.39660(11)
C19 C 0.99584(14) 0.73632(11) 0.41715(11)
H16 H 1.0257 0.7691 0.4621
N1 N 0.64394(11) 0.93189(8) 0.34323(9)
H17 H 0.5897 0.8997 0.4019
N2 N 0.69702(11) 0.97405(8) 0.55713(9)
H18 H 0.7040 1.0376 0.5257
N3 N 0.86311(12) 0.58483(9) 0.22344(10)
N4 N 1.12893(13) 0.58198(10) 0.45150(10)
O1 O 0.76597(11) 0.62405(8) 0.20069(9)
O2 O 0.92139(12) 0.50500(9) 0.19238(10)
O3 O 1.17609(11) 0.49668(8) 0.42707(9)
O4 O 1.14740(13) 0.62243(10) 0.52023(10)
C1A C 0.22086(13) 1.05483(10) 0.67856(11)
C2A C 0.17262(14) 1.00176(10) 0.77685(11)
H1A H 0.0822 0.9816 0.8129
C3A C 0.28131(14) 0.98202(10) 0.81551(11)
H2A H 0.2766 0.9462 0.8819
C4A C 0.39435(14) 1.02380(10) 0.73989(11)
C5A C 0.53989(14) 1.02103(10) 0.73591(11)
C6A C 0.59781(15) 1.12857(10) 0.70371(12)
H3A H 0.5435 1.1745 0.7546
H4A H 0.6913 1.1247 0.7022
H5A H 0.5957 1.1552 0.6338
C7A C 0.54341(15) 0.98321(11) 0.84636(11)
H6A H 0.5075 0.9142 0.8690
H7A H 0.6368 0.9811 0.8449
H8A H 0.4882 1.0303 0.8956
C8A C 0.14790(13) 1.10237(10) 0.60469(11)
C9A C 0.02740(14) 1.03501(11) 0.62141(12)
H9A H 0.0603 0.9640 0.6112
H10A H -0.0373 1.0368 0.6929
H11A H -0.0171 1.0615 0.5707
C10A C 0.24111(13) 1.11122(10) 0.49070(11)
C11A C 0.27728(14) 1.19499(10) 0.41595(11)
H12A H 0.2499 1.2645 0.4261
C12A C 0.36278(14) 1.15923(10) 0.32085(11)
H13A H 0.4030 1.2007 0.2560
C13A C 0.37737(13) 1.05445(10) 0.33875(11)
C14A C 0.09441(13) 1.21197(10) 0.62847(11)
C15A C 0.13815(13) 1.26361(10) 0.69161(11)
H14A H 0.2016 1.2313 0.7220
C16A C 0.08845(14) 1.36265(11) 0.70992(11)
C17A C -0.00297(14) 1.41495(11) 0.66836(11)
H15A H -0.0372 1.4823 0.6834
C18A C -0.04142(14) 1.36283(11) 0.60340(11)
C19A C 0.00416(14) 1.26368(11) 0.58285(11)
H16A H -0.0257 1.2309 0.5379
N1A N 0.35606(11) 1.06811(8) 0.65677(9)
H17A H 0.4103 1.1003 0.5981
N2A N 0.30298(11) 1.02595(8) 0.44287(9)
H18A H 0.2960 0.9624 0.4743
N3A N 0.13689(12) 1.41517(9) 0.77656(10)
N4A N -0.12893(13) 1.41802(10) 0.54850(10)
O1A O 0.23403(11) 1.37595(8) 0.79931(9)
O2A O 0.07861(12) 1.49500(9) 0.80762(10)
O3A O -0.17609(11) 1.50332(8) 0.57293(9)
O4A O -0.14740(13) 1.37757(10) 0.47977(10)
C20 C 0.71111(14) 0.79557(11) 0.00350(13)
H19 H 0.6397 0.8019 -0.0273
H20 H 0.7311 0.8639 0.0135
H21 H 0.6809 0.7526 0.0715
C21 C 0.83954(13) 0.74567(10) -0.07084(11)
C22 C 0.88599(16) 0.81355(11) -0.17733(13)
H22 H 0.9689 0.7831 -0.2244
H23 H 0.9035 0.8825 -0.1669
H24 H 0.8151 0.8183 -0.2086
C23 C 0.80649(13) 0.64098(10) -0.08726(11)
C24 C 0.77335(13) 0.61017(10) -0.16592(11)
H25 H 0.7775 0.6505 -0.2302
C25 C 0.73159(13) 0.50710(10) -0.13448(11)
H26 H 0.7025 0.4663 -0.1739
C26 C 0.74072(12) 0.47713(10) -0.03730(10)
C27 C 0.71497(13) 0.37354(10) 0.03041(11)
C28 C 0.61407(14) 0.31667(10) 0.00148(11)
H27 H 0.6509 0.3087 -0.0735
H28 H 0.5281 0.3564 0.0168
H29 H 0.5991 0.2487 0.0428
C29 C 0.84610(13) 0.31006(10) 0.01095(11)
C30 C 0.89487(14) 0.22814(10) -0.04477(11)
H30 H 0.8510 0.1974 -0.0822
C31 C 1.02311(14) 0.19732(10) -0.03649(11)
H31 H 1.0804 0.1424 -0.0677
C32 C 1.04938(13) 0.26061(10) 0.02418(11)
C33 C 0.65058(13) 0.38519(10) 0.14785(11)
C34 C 0.66673(14) 0.30661(10) 0.22338(11)
H32 H 0.7200 0.2463 0.2027
C35 C 0.60404(15) 0.31795(11) 0.32851(11)
C36 C 0.52960(15) 0.40445(11) 0.36501(12)
H33 H 0.4898 0.4111 0.4378
C37 C 0.51696(14) 0.48073(10) 0.28839(11)
C38 C 0.57075(13) 0.47172(10) 0.18232(11)
H34 H 0.5534 0.5244 0.1330
N5 N 0.78802(11) 0.55897(8) -0.00961(9)
H35 H 0.8041 0.5589 0.0492
N6 N 0.94138(11) 0.32981(8) 0.05219(9)
H36 H 0.9343 0.3794 0.0908
N7 N 0.44735(12) 0.57824(9) 0.32135(10)
N8 N 0.61564(15) 0.23260(9) 0.40703(10)
O5 O 0.40153(11) 0.63347(8) 0.26090(8)
O6 O 0.43965(13) 0.59948(9) 0.40753(9)
O7 O 0.52171(13) 0.22435(9) 0.49165(9)
O8 O 0.71545(15) 0.17459(9) 0.38475(10)
C20A C 1.28889(14) 0.20443(11) -0.00350(13)
H19A H 1.3603 0.1981 0.0273
H20A H 1.2689 0.1361 -0.0135
H21A H 1.3191 0.2474 -0.0715
C21A C 1.16046(13) 0.25433(10) 0.07084(11)
C22A C 1.11401(16) 0.18645(11) 0.17733(13)
H22A H 1.0311 0.2169 0.2244
H23A H 1.0965 0.1175 0.1669
H24A H 1.1849 0.1817 0.2086
C23A C 1.19351(13) 0.35902(10) 0.08726(11)
C24A C 1.22665(13) 0.38983(10) 0.16592(11)
H25A H 1.2225 0.3495 0.2302
C25A C 1.26841(13) 0.49290(10) 0.13448(11)
H26A H 1.2975 0.5337 0.1739
C26A C 1.25928(12) 0.52287(10) 0.03730(10)
C27A C 1.28503(13) 0.62646(10) -0.03041(11)
C28A C 1.38593(14) 0.68333(10) -0.00148(11)
H27A H 1.3491 0.6913 0.0735
H28A H 1.4719 0.6436 -0.0168
H29A H 1.4009 0.7513 -0.0428
C29A C 1.15390(13) 0.68994(10) -0.01095(11)
C30A C 1.10513(14) 0.77186(10) 0.04477(11)
H30A H 1.1490 0.8026 0.0822
C31A C 0.97689(14) 0.80268(10) 0.03649(11)
H31A H 0.9196 0.8576 0.0677
C32A C 0.95062(13) 0.73939(10) -0.02418(11)
C33A C 1.34942(13) 0.61481(10) -0.14785(11)
C34A C 1.33327(14) 0.69339(10) -0.22338(11)
H32A H 1.2800 0.7537 -0.2027
C35A C 1.39596(15) 0.68205(11) -0.32851(11)
C36A C 1.47040(15) 0.59555(11) -0.36501(12)
H33A H 1.5102 0.5889 -0.4378
C37A C 1.48304(14) 0.51927(10) -0.28839(11)
C38A C 1.42925(13) 0.52828(10) -0.18232(11)
H34A H 1.4466 0.4756 -0.1330
N5A N 1.21198(11) 0.44103(8) 0.00961(9)
H35A H 1.1959 0.4411 -0.0492
N6A N 1.05862(11) 0.67019(8) -0.05219(9)
H36A H 1.0657 0.6206 -0.0908
N7A N 1.55265(12) 0.42176(9) -0.32135(10)
N8A N 1.38436(15) 0.76740(9) -0.40703(10)
O5A O 1.59847(11) 0.36653(8) -0.26090(8)
O6A O 1.56035(13) 0.40052(9) -0.40753(9)
O7A O 1.47829(13) 0.77565(9) -0.49165(9)
O8A O 1.28455(15) 0.82541(9) -0.38475(10)
loop_
_geom_bond_atom_site_label_1
_geom_bond_atom_site_label_2
_geom_bond_site_symmetry_1
_geom_bond_site_symmetry_2
C1 C2 1_555 1_555
C2 H1 1_555 1_555
C3 C2 1_555 1_555
H2 C3 1_555 1_555
C4 C3 1_555 1_555
C5 C4 1_555 1_555
C6 C5 1_555 1_555
H3 C6 1_555 1_555
H4 C6 1_555 1_555
H5 C6 1_555 1_555
C7 C5 1_555 1_555
H6 C7 1_555 1_555
H7 C7 1_555 1_555
H8 C7 1_555 1_555
C8 C1 1_555 1_555
C9 C8 1_555 1_555
H9 C9 1_555 1_555
H10 C9 1_555 1_555
H11 C9 1_555 1_555
C10 C8 1_555 1_555
C11 C10 1_555 1_555
H12 C11 1_555 1_555
C12 C11 1_555 1_555
H13 C12 1_555 1_555
C13 C12 1_555 1_555
C14 C8 1_555 1_555
C15 C14 1_555 1_555
H14 C15 1_555 1_555
C16 C15 1_555 1_555
C17 C16 1_555 1_555
H15 C17 1_555 1_555
C18 C17 1_555 1_555
C19 C14 1_555 1_555
H16 C19 1_555 1_555
N1 C1 1_555 1_555
H17 N1 1_555 1_555
N2 C10 1_555 1_555
H18 N2 1_555 1_555
N3 C16 1_555 1_555
N4 C18 1_555 1_555
O1 N3 1_555 1_555
O2 N3 1_555 1_555
O3 N4 1_555 1_555
O4 N4 1_555 1_555
C20 H19 1_555 1_555
H20 C20 1_555 1_555
H21 C20 1_555 1_555
C21 C20 1_555 1_555
C22 C21 1_555 1_555
H22 C22 1_555 1_555
H23 C22 1_555 1_555
H24 C22 1_555 1_555
C23 C21 1_555 1_555
C24 C23 1_555 1_555
H25 C24 1_555 1_555
C25 C24 1_555 1_555
H26 C25 1_555 1_555
C26 C25 1_555 1_555
C27 C26 1_555 1_555
C28 C27 1_555 1_555
H27 C28 1_555 1_555
H28 C28 1_555 1_555
H29 C28 1_555 1_555
C29 C27 1_555 1_555
C30 C29 1_555 1_555
H30 C30 1_555 1_555
C31 C30 1_555 1_555
H31 C31 1_555 1_555
C32 C31 1_555 1_555
C33 C27 1_555 1_555
C34 C33 1_555 1_555
H32 C34 1_555 1_555
C35 C34 1_555 1_555
C36 C35 1_555 1_555
H33 C36 1_555 1_555
C37 C36 1_555 1_555
C38 C33 1_555 1_555
H34 C38 1_555 1_555
N5 C23 1_555 1_555
H35 N5 1_555 1_555
N6 C29 1_555 1_555
H36 N6 1_555 1_555
N7 C37 1_555 1_555
N8 C35 1_555 1_555
O5 N7 1_555 1_555
O6 N7 1_555 1_555
O7 N8 1_555 1_555
O8 N8 1_555 1_555
C1A C2A 1_555 1_555
C2A H1A 1_555 1_555
C3A C2A 1_555 1_555
H2A C3A 1_555 1_555
C4A C3A 1_555 1_555
C5A C13 1_555 1_555
C6A C5A 1_555 1_555
H3A C6A 1_555 1_555
H4A C6A 1_555 1_555
H5A C6A 1_555 1_555
C7A C5A 1_555 1_555
H6A C7A 1_555 1_555
H7A C7A 1_555 1_555
H8A C7A 1_555 1_555
C8A C1A 1_555 1_555
C9A C8A 1_555 1_555
H9A C9A 1_555 1_555
H10A C9A 1_555 1_555
H11A C9A 1_555 1_555
C10A C8A 1_555 1_555
C11A C10A 1_555 1_555
H12A C11A 1_555 1_555
C12A C11A 1_555 1_555
H13A C12A 1_555 1_555
C13A C5 1_555 1_555
C14A C8A 1_555 1_555
C15A C14A 1_555 1_555
H14A C15A 1_555 1_555
C16A C15A 1_555 1_555
C17A C16A 1_555 1_555
H15A C17A 1_555 1_555
C18A C17A 1_555 1_555
C19A C14A 1_555 1_555
H16A C19A 1_555 1_555
N1A C1A 1_555 1_555
H17A N1A 1_555 1_555
N2A C10A 1_555 1_555
H18A N2A 1_555 1_555
N3A C16A 1_555 1_555
N4A C18A 1_555 1_555
O1A N3A 1_555 1_555
O2A N3A 1_555 1_555
O3A N4A 1_555 1_555
O4A N4A 1_555 1_555
C20A H19A 1_555 1_555
H20A C20A 1_555 1_555
H21A C20A 1_555 1_555
C21A C32 1_555 1_555
C22A C21A 1_555 1_555
H22A C22A 1_555 1_555
H23A C22A 1_555 1_555
H24A C22A 1_555 1_555
C23A C21A 1_555 1_555
C24A C23A 1_555 1_555
H25A C24A 1_555 1_555
C25A C24A 1_555 1_555
H26A C25A 1_555 1_555
C26A C25A 1_555 1_555
C27A C26A 1_555 1_555
C28A C27A 1_555 1_555
H27A C28A 1_555 1_555
H28A C28A 1_555 1_555
H29A C28A 1_555 1_555
C29A C27A 1_555 1_555
C30A C29A 1_555 1_555
H30A C30A 1_555 1_555
C31A C30A 1_555 1_555
H31A C31A 1_555 1_555
C32A C21 1_555 1_555
C33A C27A 1_555 1_555
C34A C33A 1_555 1_555
H32A C34A 1_555 1_555
C35A C34A 1_555 1_555
C36A C35A 1_555 1_555
H33A C36A 1_555 1_555
C37A C36A 1_555 1_555
C38A C33A 1_555 1_555
H34A C38A 1_555 1_555
N5A C23A 1_555 1_555
H35A N5A 1_555 1_555
N6A C29A 1_555 1_555
H36A N6A 1_555 1_555
N7A C37A 1_555 1_555
N8A C35A 1_555 1_555
O5A N7A 1_555 1_555
O6A N7A 1_555 1_555
O7A N8A 1_555 1_555
O8A N8A 1_555 1_555
C4 N1 1_555 1_555
C13 N2 1_555 1_555
C18 C19 1_555 1_555
C26 N5 1_555 1_555
C32 N6 1_555 1_555
C37 C38 1_555 1_555
C4A C5A 1_555 1_555
C4A N1A 1_555 1_555
C12A C13A 1_555 1_555
C13A N2A 1_555 1_555
C18A C19A 1_555 1_555
C20A C21A 1_555 1_555
C26A N5A 1_555 1_555
C31A C32A 1_555 1_555
C32A N6A 1_555 1_555
C37A C38A 1_555 1_555

#END
