
#######################################################################
#
#                 Cambridge Crystallographic Data Centre
#                                CCDC 
#
#######################################################################
#
# If this CIF has been generated from an entry in the Cambridge 
# Structural Database, then it will include bibliographic, chemical, 
# crystal, experimental, refinement or atomic coordinate data resulting 
# from the CCDC's data processing and validation procedures.
#
#######################################################################

data_PAHYII
_chemical_formula_moiety         'C8 H20 N1 1+,C38 H36 N8 O8,Cl1 1-'
_chemical_name_systematic        
'Tetra-ethylammonium trans-5,15-bis(3,5-dinitrophenyl)-5,10,10,15,20,20-hexamethyl-5,10,15,20,22,24-hexahydroporphyrin chloride'
_symmetry_cell_setting           triclinic
_symmetry_space_group_name_H-M   'P -1'
_symmetry_Int_Tables_number      2
_space_group_name_Hall           '-P 1'
loop_
_symmetry_equiv_pos_site_id
_symmetry_equiv_pos_as_xyz
1 x,y,z
2 -x,-y,-z
_cell_length_a                   10.8566(9)
_cell_length_b                   11.5667(10)
_cell_length_c                   19.5534(16)
_cell_angle_alpha                105.237(2)
_cell_angle_beta                 96.900(2)
_cell_angle_gamma                96.291(2)
_cell_volume                     2326.27
_exptl_crystal_colour            orange
_exptl_crystal_description       prism
_cell_formula_units_Z            2
loop_
_atom_site_label
_atom_site_type_symbol
_atom_site_fract_x
_atom_site_fract_y
_atom_site_fract_z
C1 C 0.9176(3) 0.5886(3) 0.7620(2)
H1 H 0.9722 0.6434 0.8035
H2 H 0.9690 0.5615 0.7253
C2 C 0.7341(3) 0.5772(3) 0.66889(18)
H3 H 0.6889 0.5121 0.6829
H4 H 0.6729 0.6244 0.6541
N9 N 0.8220(2) 0.6576(2) 0.73413(14)
C41 C 0.7386(3) 0.7058(3) 0.78974(16)
H41 H 0.6920 0.7628 0.7732
H42 H 0.6782 0.6386 0.7912
C42 C 0.8975(3) 0.7634(3) 0.71711(17)
H43 H 0.9370 0.8216 0.7619
H44 H 0.9637 0.7333 0.6914
C43 C 0.8217(4) 0.8279(3) 0.67324(17)
H45 H 0.8029 0.7793 0.6242
H46 H 0.8689 0.9045 0.6757
H47 H 0.7449 0.8410 0.6918
C44 C 0.8038(3) 0.7675(3) 0.86529(18)
H48 H 0.8385 0.7089 0.8857
H49 H 0.7445 0.8035 0.8938
H50 H 0.8699 0.8293 0.8645
C45 C 0.8608(3) 0.4792(3) 0.7833(3)
H51 H 0.8098 0.5050 0.8197
H52 H 0.9268 0.4414 0.8016
H53 H 0.8100 0.4223 0.7421
C46 C 0.7951(4) 0.5219(4) 0.6051(2)
H54 H 0.8446 0.5847 0.5924
H55 H 0.7314 0.4791 0.5653
H56 H 0.8480 0.4665 0.6171
Cl1 Cl 0.47307(5) 0.90659(5) 0.76753(3)
N1 N 0.21340(17) 1.01652(16) 0.72893(9)
H5 H 0.2737 0.9815 0.7429
N2 N 0.28491(17) 0.96991(15) 0.89270(9)
H6 H 0.3554 0.9788 0.8774
N3 N 0.31037(17) 0.67248(15) 0.80483(9)
H7 H 0.3544 0.7309 0.7951
N4 N 0.24546(17) 0.73358(16) 0.64894(9)
H8 H 0.3056 0.7762 0.6815
N5 N 0.25380(18) 0.90206(18) 1.19112(10)
C3 C 0.3288(2) 0.78620(18) 0.93466(11)
O1 O 0.20447(18) 0.98552(17) 1.17772(9)
C4 C 0.2572(2) 0.56415(18) 0.75540(11)
N6 N 0.3995(2) 0.51593(19) 1.09228(12)
O2 O 0.5425(2) 1.28162(16) 0.68411(12)
C5 C 0.3417(2) 0.9395(2) 0.59418(11)
O3 O 0.26822(18) 0.88436(17) 1.25031(9)
C6 C 0.2830(2) 0.67370(18) 0.87162(11)
C7 C 0.1917(2) 1.04081(18) 0.88784(11)
C8 C 0.2742(2) 0.53487(19) 0.67734(12)
C9 C 0.4081(2) 0.8505(2) 0.55997(11)
H9 H 0.3687 0.7709 0.5406
C10 C 0.3616(2) 0.63036(19) 1.08381(12)
C11 C 0.1571(2) 1.10052(19) 0.77361(12)
C12 C 0.2485(2) 0.88293(18) 0.92553(11)
C13 C 0.3206(2) 0.75763(19) 1.00677(11)
C14 C 0.3328(2) 0.7117(2) 1.14283(12)
H10 H 0.3385 0.6973 1.1876
C15 C 0.1591(2) 0.9965(2) 0.65848(12)
C16 C 0.2069(2) 0.61140(19) 0.63720(11)
C17 C 0.1742(2) 0.7777(2) 0.60123(11)
C18 C 0.3566(2) 0.6506(2) 1.01701(12)
H11 H 0.3772 0.5927 0.9789
C19 C 0.5284(2) 1.0831(2) 0.61510(11)
C20 C 0.0960(2) 0.9984(2) 0.91821(12)
H12 H 0.0210 1.0294 0.9229
C21 C 0.2953(2) 0.8157(2) 1.13137(11)
O4 O 0.4332(2) 0.50966(19) 1.15281(11)
O5 O 0.3935(2) 0.43222(17) 1.03820(12)
C22 C 0.5965(2) 0.9970(2) 0.58205(12)
H13 H 0.6804 1.0158 0.5782
C23 C 0.2904(2) 0.84112(19) 1.06579(11)
H14 H 0.2670 0.9139 1.0611
C24 C 0.4701(2) 0.8279(2) 0.93704(12)
H15 H 0.4822 0.8511 0.8943
H16 H 0.5162 0.7627 0.9399
H17 H 0.4995 0.8959 0.9783
N7 N 0.5925(2) 1.20909(19) 0.64327(11)
C25 C 0.5320(2) 0.8810(2) 0.55499(12)
O6 O 0.7046(2) 0.8145(2) 0.50556(12)
C26 C 0.2011(2) 0.9073(2) 0.59712(11)
C27 C 0.4044(2) 1.0576(2) 0.62217(11)
H18 H 0.3627 1.1189 0.6455
C28 C 0.2034(2) 1.14438(19) 0.85366(12)
C29 C 0.2106(2) 0.5662(2) 0.86503(12)
H19 H 0.1773 0.5425 0.9017
C30 C 0.1954(2) 0.4969(2) 0.79207(12)
H20 H 0.1510 0.4192 0.7727
C31 C 0.1312(2) 0.8990(2) 0.94135(13)
H21 H 0.0829 0.8526 0.9635
C32 C 0.3403(2) 1.2065(2) 0.86695(14)
H22 H 0.3697 1.2348 0.9176
H23 H 0.3450 1.2738 0.8468
H24 H 0.3916 1.1495 0.8447
C33 C 0.0674(2) 1.0688(2) 0.65924(13)
H25 H 0.0151 1.0745 0.6193
O7 O 0.6932(2) 1.23420(19) 0.62509(12)
N8 N 0.6005(3) 0.7850(2) 0.51846(13)
C34 C 0.2216(3) 0.4000(2) 0.64118(14)
H26 H 0.2664 0.3504 0.6646
H27 H 0.2316 0.3797 0.5915
H28 H 0.1342 0.3860 0.6449
C35 C 0.0661(2) 1.1333(2) 0.73121(13)
H29 H 0.0124 1.1886 0.7470
C36 C 0.4154(2) 0.5532(2) 0.67243(14)
H30 H 0.4501 0.6366 0.6945
H31 H 0.4267 0.5313 0.6230
H32 H 0.4574 0.5030 0.6968
C37 C 0.0880(2) 0.6833(2) 0.55952(13)
H33 H 0.0269 0.6867 0.5228
C38 C 0.1293(3) 0.9153(2) 0.52570(13)
H34 H 0.0407 0.8961 0.5250
H35 H 0.1546 0.8588 0.4863
H36 H 0.1478 0.9959 0.5214
C39 C 0.1228(3) 1.2385(2) 0.88856(14)
H37 H 0.0368 1.2014 0.8805
H38 H 0.1291 1.3049 0.8676
H39 H 0.1523 1.2679 0.9392
C40 C 0.1081(2) 0.5797(2) 0.58193(13)
H40 H 0.0620 0.5028 0.5625
O8 O 0.5494(3) 0.6806(2) 0.50306(18)
loop_
_geom_bond_atom_site_label_1
_geom_bond_atom_site_label_2
_geom_bond_site_symmetry_1
_geom_bond_site_symmetry_2
C1 H1 1_555 1_555
H2 C1 1_555 1_555
C2 H3 1_555 1_555
H4 C2 1_555 1_555
N1 H5 1_555 1_555
N2 H6 1_555 1_555
N3 H7 1_555 1_555
N4 H8 1_555 1_555
N5 O1 1_555 1_555
C3 C6 1_555 1_555
C4 N3 1_555 1_555
N6 C10 1_555 1_555
O2 N7 1_555 1_555
C5 C9 1_555 1_555
O3 N5 1_555 1_555
C6 N3 1_555 1_555
C7 N2 1_555 1_555
C8 C4 1_555 1_555
C9 H9 1_555 1_555
C10 C14 1_555 1_555
C11 N1 1_555 1_555
C12 N2 1_555 1_555
C13 C3 1_555 1_555
C14 H10 1_555 1_555
C15 N1 1_555 1_555
C16 N4 1_555 1_555
C17 N4 1_555 1_555
C18 C10 1_555 1_555
H11 C18 1_555 1_555
C19 C22 1_555 1_555
C20 C7 1_555 1_555
H12 C20 1_555 1_555
C21 N5 1_555 1_555
O4 N6 1_555 1_555
O5 N6 1_555 1_555
C22 H13 1_555 1_555
C23 C13 1_555 1_555
H14 C23 1_555 1_555
C24 C3 1_555 1_555
H15 C24 1_555 1_555
H16 C24 1_555 1_555
H17 C24 1_555 1_555
N7 C19 1_555 1_555
C25 C9 1_555 1_555
O6 N8 1_555 1_555
C26 C5 1_555 1_555
C27 C5 1_555 1_555
H18 C27 1_555 1_555
C28 C7 1_555 1_555
C29 C6 1_555 1_555
H19 C29 1_555 1_555
C30 C4 1_555 1_555
H20 C30 1_555 1_555
C31 C12 1_555 1_555
H21 C31 1_555 1_555
C32 C28 1_555 1_555
H22 C32 1_555 1_555
H23 C32 1_555 1_555
H24 C32 1_555 1_555
C33 C15 1_555 1_555
H25 C33 1_555 1_555
O7 N7 1_555 1_555
N8 C25 1_555 1_555
C34 C8 1_555 1_555
H26 C34 1_555 1_555
H27 C34 1_555 1_555
H28 C34 1_555 1_555
C35 C11 1_555 1_555
H29 C35 1_555 1_555
C36 C8 1_555 1_555
H30 C36 1_555 1_555
H31 C36 1_555 1_555
H32 C36 1_555 1_555
C37 C17 1_555 1_555
H33 C37 1_555 1_555
C38 C26 1_555 1_555
H34 C38 1_555 1_555
H35 C38 1_555 1_555
H36 C38 1_555 1_555
C39 C28 1_555 1_555
H37 C39 1_555 1_555
H38 C39 1_555 1_555
H39 C39 1_555 1_555
C40 C16 1_555 1_555
H40 C40 1_555 1_555
O8 N8 1_555 1_555
N9 C1 1_555 1_555
C41 N9 1_555 1_555
H41 C41 1_555 1_555
H42 C41 1_555 1_555
C42 N9 1_555 1_555
H43 C42 1_555 1_555
H44 C42 1_555 1_555
C43 C42 1_555 1_555
H45 C43 1_555 1_555
H46 C43 1_555 1_555
H47 C43 1_555 1_555
C44 C41 1_555 1_555
H48 C44 1_555 1_555
H49 C44 1_555 1_555
H50 C44 1_555 1_555
C45 C1 1_555 1_555
H51 C45 1_555 1_555
H52 C45 1_555 1_555
H53 C45 1_555 1_555
C46 C2 1_555 1_555
H54 C46 1_555 1_555
H55 C46 1_555 1_555
H56 C46 1_555 1_555
C2 N9 1_555 1_555
C3 C12 1_555 1_555
C8 C16 1_555 1_555
C11 C28 1_555 1_555
C13 C18 1_555 1_555
C14 C21 1_555 1_555
C15 C26 1_555 1_555
C17 C26 1_555 1_555
C19 C27 1_555 1_555
C20 C31 1_555 1_555
C21 C23 1_555 1_555
C22 C25 1_555 1_555
C29 C30 1_555 1_555
C33 C35 1_555 1_555
C37 C40 1_555 1_555

#END
