
#######################################################################
#
#                 Cambridge Crystallographic Data Centre
#                                CCDC 
#
#######################################################################
#
# If this CIF has been generated from an entry in the Cambridge 
# Structural Database, then it will include bibliographic, chemical, 
# crystal, experimental, refinement or atomic coordinate data resulting 
# from the CCDC's data processing and validation procedures.
#
#######################################################################

data_PAHZAB
_chemical_formula_moiety         'C12 H10 F3 N3 O2'
_chemical_name_systematic        
'Methyl 1-benzyl-4-(trifluoromethyl)-1H-1,2,3-triazole-5-carboxylate'
_symmetry_cell_setting           triclinic
_symmetry_space_group_name_H-M   'P -1'
_symmetry_Int_Tables_number      2
_space_group_name_Hall           '-P 1'
loop_
_symmetry_equiv_pos_site_id
_symmetry_equiv_pos_as_xyz
1 x,y,z
2 -x,-y,-z
_cell_length_a                   8.04(2)
_cell_length_b                   8.97(2)
_cell_length_c                   9.47(2)
_cell_angle_alpha                82.25(3)
_cell_angle_beta                 82.33(4)
_cell_angle_gamma                70.86(3)
_cell_volume                     636.405
_chemical_melting_point          '63.0-63.9 deg.C'
_cell_formula_units_Z            2
loop_
_atom_site_label
_atom_site_type_symbol
_atom_site_fract_x
_atom_site_fract_y
_atom_site_fract_z
F1 F 0.0793(5) 0.6595(5) 0.7203(4)
F2 F 0.1567(7) 0.8290(6) 0.8072(4)
F3 F 0.3491(5) 0.6204(6) 0.7386(4)
O1 O 0.2176(6) 0.6103(5) 0.2585(5)
O2 O 0.2741(6) 0.5028(4) 0.4792(4)
N1 N 0.2490(6) 0.8973(5) 0.3393(5)
N2 N 0.2352(7) 1.0150(5) 0.4154(6)
N3 N 0.2149(7) 0.9686(5) 0.5516(6)
C1 C 0.2443(7) 0.6204(6) 0.3737(6)
C2 C 0.4784(8) 0.8398(6) 0.1387(5)
C3 C 0.2406(6) 0.7665(5) 0.4304(5)
C4 C 0.2192(7) 0.8145(6) 0.5622(6)
C5 C 0.5317(10) 0.7296(7) 0.0416(6)
H1 H 0.4479 0.6996 0.0038
C6 C 0.2865(8) 0.9157(6) 0.1852(6)
H2 H 0.2525 1.0278 0.1520
H3 H 0.2162 0.8684 0.1412
C7 C 0.6052(9) 0.8810(7) 0.1916(6)
H4 H 0.5714 0.9576 0.2561
C8 C 0.2016(9) 0.7303(8) 0.7076(6)
C9 C 0.7828(9) 0.8114(7) 0.1514(7)
H5 H 0.8674 0.8395 0.1901
C10 C 0.8330(10) 0.7031(8) 0.0565(7)
H6 H 0.9526 0.6560 0.0298
C11 C 0.2672(9) 0.3516(6) 0.4444(8)
H7 H 0.1475 0.3609 0.4321
H8 H 0.3087 0.2712 0.5209
H9 H 0.3409 0.3233 0.3574
C12 C 0.7104(11) 0.6618(7) -0.0010(7)
H10 H 0.7457 0.5885 -0.0686
loop_
_geom_bond_atom_site_label_1
_geom_bond_atom_site_label_2
_geom_bond_site_symmetry_1
_geom_bond_site_symmetry_2
F1 C8 1_555 1_555
F2 C8 1_555 1_555
F3 C8 1_555 1_555
O1 C1 1_555 1_555
O2 C1 1_555 1_555
N1 N2 1_555 1_555
N2 N3 1_555 1_555
N3 C4 1_555 1_555
C1 C3 1_555 1_555
C2 C5 1_555 1_555
C3 N1 1_555 1_555
C4 C3 1_555 1_555
C5 H1 1_555 1_555
C6 N1 1_555 1_555
H2 C6 1_555 1_555
H3 C6 1_555 1_555
C7 C2 1_555 1_555
H4 C7 1_555 1_555
C8 C4 1_555 1_555
C9 C7 1_555 1_555
H5 C9 1_555 1_555
C10 C9 1_555 1_555
H6 C10 1_555 1_555
C11 O2 1_555 1_555
H7 C11 1_555 1_555
H8 C11 1_555 1_555
H9 C11 1_555 1_555
C12 C5 1_555 1_555
H10 C12 1_555 1_555
C2 C6 1_555 1_555
C10 C12 1_555 1_555

#END
