
#######################################################################
#
#                 Cambridge Crystallographic Data Centre
#                                CCDC 
#
#######################################################################
#
# If this CIF has been generated from an entry in the Cambridge 
# Structural Database, then it will include bibliographic, chemical, 
# crystal, experimental, refinement or atomic coordinate data resulting 
# from the CCDC's data processing and validation procedures.
#
#######################################################################

data_PAJBIM
_chemical_formula_moiety         'C3 H4 F3 N4,C7 H5 F3 N4 O1'
_chemical_name_systematic        
'3-Amino-5-trifluoromethyl-1H-1,2,4-triazole 5-methyl-2-trifluoromethyl-1,2,4-triazolo(1,5-a)pyrimidin-7(4H)-one'
_symmetry_cell_setting           monoclinic
_symmetry_space_group_name_H-M   'C c'
_symmetry_Int_Tables_number      9
_space_group_name_Hall           'C -2yc'
loop_
_symmetry_equiv_pos_site_id
_symmetry_equiv_pos_as_xyz
1 x,y,z
2 x,-y,1/2+z
3 1/2+x,1/2+y,z
4 1/2+x,1/2-y,1/2+z
_cell_length_a                   5.0752(4)
_cell_length_b                   22.182(2)
_cell_length_c                   12.3960(11)
_cell_angle_alpha                90
_cell_angle_beta                 91.3200(5)
_cell_angle_gamma                90
_cell_volume                     1395.15
_exptl_crystal_colour            colorless
_exptl_crystal_description       plate
_cell_formula_units_Z            4
_exptl_crystal_recrystallization_method acetone/chloroform
loop_
_atom_site_label
_atom_site_type_symbol
_atom_site_fract_x
_atom_site_fract_y
_atom_site_fract_z
F1 F 0.2594(6) 0.88968(12) 0.5318(3)
F2 F 0.6378(6) 0.88378(12) 0.6120(2)
F3 F 0.6108(5) 0.91107(11) 0.4469(2)
O1 O 0.9903(5) 0.70589(13) 0.3008(2)
N1 N 0.3680(6) 0.76650(15) 0.5263(3)
N2 N 0.7101(6) 0.79148(14) 0.4179(2)
N3 N 0.6641(6) 0.73067(14) 0.4156(2)
N4 N 0.3804(6) 0.65950(15) 0.4898(2)
C1 C 0.5292(8) 0.80928(19) 0.4848(3)
C2 C 0.7995(8) 0.68870(19) 0.3527(3)
C3 C 0.6937(8) 0.62978(19) 0.3606(3)
C4 C 0.4914(8) 0.61592(18) 0.4278(3)
C5 C 0.4606(7) 0.71726(18) 0.4803(3)
C6 C 0.5084(8) 0.8741(2) 0.5176(3)
C7 C 0.3770(9) 0.55411(18) 0.4364(4)
H1 H 0.7657 0.5987 0.3177
H2 H 0.3863 0.5409 0.5118
H3 H 0.4770 0.5262 0.3919
H4 H 0.1926 0.5548 0.4112
H5 H 0.2574 0.6500 0.5357
F4 F 0.1869(5) 0.52602(13) 0.6966(2)
F5 F -0.2027(7) 0.49841(13) 0.7390(3)
F6 F -0.1152(5) 0.51899(11) 0.5748(2)
N5 N -0.0183(6) 0.64663(14) 0.6485(3)
N6 N -0.3334(7) 0.61325(16) 0.7604(3)
N7 N -0.3346(6) 0.67441(16) 0.7552(3)
N8 N -0.0922(7) 0.75220(15) 0.6700(3)
C8 C -0.1431(8) 0.59970(18) 0.6965(3)
C9 C -0.1428(7) 0.69385(17) 0.6893(3)
C10 C -0.0683(9) 0.5357(2) 0.6779(4)
H6 H -0.4440 0.6980 0.7896
H7 H 0.0348 0.7623 0.6264
H8 H -0.1861 0.7804 0.7011
loop_
_geom_bond_atom_site_label_1
_geom_bond_atom_site_label_2
_geom_bond_site_symmetry_1
_geom_bond_site_symmetry_2
F1 C6 1_555 1_555
F2 C6 1_555 1_555
F3 C6 1_555 1_555
O1 C2 1_555 1_555
N1 C1 1_555 1_555
N2 N3 1_555 1_555
N3 C2 1_555 1_555
N4 C4 1_555 1_555
C1 N2 1_555 1_555
C2 C3 1_555 1_555
C3 C4 1_555 1_555
C4 C7 1_555 1_555
C5 N1 1_555 1_555
C6 C1 1_555 1_555
C7 H2 1_555 1_555
F4 C10 1_555 1_555
F5 C10 1_555 1_555
F6 C10 1_555 1_555
N5 C8 1_555 1_555
N6 N7 1_555 1_555
N7 C9 1_555 1_555
N8 C9 1_555 1_555
C8 N6 1_555 1_555
C9 N5 1_555 1_555
C10 C8 1_555 1_555
H1 C3 1_555 1_555
H3 C7 1_555 1_555
H4 C7 1_555 1_555
H5 N4 1_555 1_555
H6 N7 1_555 1_555
H7 N8 1_555 1_555
H8 N8 1_555 1_555
N3 C5 1_555 1_555
N4 C5 1_555 1_555

#END
