
#######################################################################
#
#                 Cambridge Crystallographic Data Centre
#                                CCDC 
#
#######################################################################
#
# If this CIF has been generated from an entry in the Cambridge 
# Structural Database, then it will include bibliographic, chemical, 
# crystal, experimental, refinement or atomic coordinate data resulting 
# from the CCDC's data processing and validation procedures.
#
#######################################################################

data_PAJCOU
_chemical_formula_moiety         'C22 H17 Br1 F1 N1 O5 S1'
_chemical_name_systematic        
3-(4-Bromophenyl)-2-fluoro-4-nitro-1-phenyl-2-(phenylsulfonyl)butan-1-one
_symmetry_cell_setting           monoclinic
_symmetry_space_group_name_H-M   'P 21/c'
_symmetry_Int_Tables_number      14
_space_group_name_Hall           '-P 2ybc'
loop_
_symmetry_equiv_pos_site_id
_symmetry_equiv_pos_as_xyz
1 x,y,z
2 -x,1/2+y,1/2-z
3 -x,-y,-z
4 x,1/2-y,1/2+z
_cell_length_a                   11.1112(11)
_cell_length_b                   16.3844(16)
_cell_length_c                   12.6084(12)
_cell_angle_alpha                90
_cell_angle_beta                 111.746(2)
_cell_angle_gamma                90
_cell_volume                     2132.01
_exptl_crystal_colour            colorless
_exptl_crystal_description       prismatic
_chemical_melting_point          '130-132 deg.C'
_cell_formula_units_Z            4
loop_
_atom_site_label
_atom_site_type_symbol
_atom_site_fract_x
_atom_site_fract_y
_atom_site_fract_z
Br1 Br -0.48147(4) 1.07051(3) 0.67437(3)
S1 S 0.17099(8) 0.79626(5) 0.66758(8)
F1 F 0.0759(2) 0.94312(12) 0.63293(16)
N1 N -0.2202(3) 0.8121(2) 0.3731(3)
O1 O -0.0027(2) 0.80673(14) 0.8088(2)
O2 O 0.1286(3) 0.71546(16) 0.6736(3)
O3 O 0.2039(3) 0.8210(2) 0.5733(2)
O4 O -0.2768(4) 0.7579(2) 0.3974(3)
O5 O -0.2591(4) 0.8454(3) 0.2821(3)
C1 C 0.0352(3) 0.8688(2) 0.7848(3)
C2 C 0.0375(3) 0.86565(19) 0.6654(3)
C3 C -0.0937(3) 0.84143(19) 0.5765(2)
H1 H -0.1122 0.7858 0.5946
C4 C -0.0922(4) 0.8399(2) 0.4567(3)
H2 H -0.0732 0.8941 0.4361
H3 H -0.0246 0.8033 0.4543
C5 C 0.0859(3) 0.9392(2) 0.8625(3)
C6 C 0.0826(4) 1.0194(3) 0.8300(3)
H4 H 0.0507 1.0335 0.7531
C7 C 0.1286(5) 1.0807(2) 0.9151(5)
H5 H 0.1273 1.1353 0.8946
C8 C 0.1746(4) 1.0585(3) 1.0272(4)
H6 H 0.2039 1.0982 1.0838
C9 C 0.1779(4) 0.9788(3) 1.0564(3)
H7 H 0.2109 0.9638 1.1330
C10 C 0.1338(4) 0.9216(2) 0.9757(3)
H8 H 0.1360 0.8673 0.9980
C11 C -0.1971(3) 0.89669(19) 0.5900(2)
C12 C -0.2069(3) 0.9786(2) 0.5587(3)
H9 H -0.1550 0.9992 0.5217
C13 C -0.2922(3) 1.0294(2) 0.5818(3)
H10 H -0.2973 1.0842 0.5614
C14 C -0.3702(3) 0.9987(2) 0.6354(3)
C15 C -0.3667(3) 0.9183(2) 0.6625(3)
H11 H -0.4221 0.8977 0.6961
C16 C -0.2797(3) 0.8672(2) 0.6397(3)
H12 H -0.2771 0.8122 0.6583
C17 C 0.2990(3) 0.8210(2) 0.7951(3)
C18 C 0.3737(3) 0.8889(2) 0.7974(3)
H13 H 0.3574 0.9209 0.7326
C19 C 0.4726(4) 0.9075(3) 0.8981(4)
H14 H 0.5256 0.9521 0.9015
C20 C 0.4944(4) 0.8612(3) 0.9935(4)
H15 H 0.5619 0.8750 1.0610
C21 C 0.4192(4) 0.7950(3) 0.9918(4)
H16 H 0.4346 0.7643 1.0576
C22 C 0.3206(4) 0.7744(2) 0.8918(4)
H17 H 0.2686 0.7294 0.8891
loop_
_geom_bond_atom_site_label_1
_geom_bond_atom_site_label_2
_geom_bond_site_symmetry_1
_geom_bond_site_symmetry_2
Br1 C14 1_555 1_555
S1 O2 1_555 1_555
F1 C2 1_555 1_555
N1 O4 1_555 1_555
O1 C1 1_555 1_555
O3 S1 1_555 1_555
O5 N1 1_555 1_555
C1 C2 1_555 1_555
C2 S1 1_555 1_555
C3 C2 1_555 1_555
H1 C3 1_555 1_555
C4 N1 1_555 1_555
H2 C4 1_555 1_555
H3 C4 1_555 1_555
C5 C1 1_555 1_555
C6 C5 1_555 1_555
H4 C6 1_555 1_555
C7 C6 1_555 1_555
H5 C7 1_555 1_555
C8 C7 1_555 1_555
H6 C8 1_555 1_555
C9 C8 1_555 1_555
H7 C9 1_555 1_555
C10 C5 1_555 1_555
H8 C10 1_555 1_555
C11 C3 1_555 1_555
C12 C11 1_555 1_555
H9 C12 1_555 1_555
C13 C12 1_555 1_555
H10 C13 1_555 1_555
C14 C13 1_555 1_555
C15 C14 1_555 1_555
H11 C15 1_555 1_555
C16 C11 1_555 1_555
H12 C16 1_555 1_555
C17 S1 1_555 1_555
C18 C17 1_555 1_555
H13 C18 1_555 1_555
C19 C18 1_555 1_555
H14 C19 1_555 1_555
C20 C19 1_555 1_555
H15 C20 1_555 1_555
C21 C20 1_555 1_555
H16 C21 1_555 1_555
C22 C17 1_555 1_555
H17 C22 1_555 1_555
C3 C4 1_555 1_555
C9 C10 1_555 1_555
C15 C16 1_555 1_555
C21 C22 1_555 1_555

#END
