
#######################################################################
#
#                 Cambridge Crystallographic Data Centre
#                                CCDC 
#
#######################################################################
#
# If this CIF has been generated from an entry in the Cambridge 
# Structural Database, then it will include bibliographic, chemical, 
# crystal, experimental, refinement or atomic coordinate data resulting 
# from the CCDC's data processing and validation procedures.
#
#######################################################################

data_PAJCAF
_chemical_name_common            'metformin sulfate hydrate'
_chemical_formula_moiety         'C4 H13 N5 2+,O4 S1 2-,H2 O1'
_chemical_name_systematic        'N,N-Dimethylbiguanidium sulfate hydrate'
_symmetry_cell_setting           triclinic
_symmetry_space_group_name_H-M   'P -1'
_symmetry_Int_Tables_number      2
_space_group_name_Hall           '-P 1'
loop_
_symmetry_equiv_pos_site_id
_symmetry_equiv_pos_as_xyz
1 x,y,z
2 -x,-y,-z
_cell_length_a                   7.056(3)
_cell_length_b                   8.862(4)
_cell_length_c                   9.462(4)
_cell_angle_alpha                99.830(6)
_cell_angle_beta                 96.020(7)
_cell_angle_gamma                110.099(7)
_cell_volume                     538.853
_exptl_crystal_colour            colorless
_exptl_crystal_description       block
_cell_formula_units_Z            2
loop_
_atom_site_label
_atom_site_type_symbol
_atom_site_fract_x
_atom_site_fract_y
_atom_site_fract_z
C1 C 1.0935(6) 0.5395(4) 0.3032(5)
H1 H 0.9725 0.4717 0.3327
H2 H 1.2128 0.5445 0.3657
H3 H 1.0961 0.4932 0.2044
C2 C 1.2107(6) 0.8309(4) 0.4479(4)
H4 H 1.3532 0.8719 0.4404
H5 H 1.1936 0.7815 0.5308
H6 H 1.1621 0.9203 0.4595
C3 C 0.9666(4) 0.7343(3) 0.2191(3)
C4 C 0.8455(5) 0.9577(4) 0.1907(3)
N1 N 1.0919(4) 0.7060(3) 0.3139(3)
N2 N 0.8228(4) 0.6166(3) 0.1207(3)
H7 H 0.8079 0.5154 0.1165
H8 H 0.7437 0.6409 0.0605
N3 N 0.9962(4) 0.8966(3) 0.2180(3)
H9 H 1.1208 0.9656 0.2361
N4 N 0.6618(4) 0.8843(3) 0.2172(3)
H10 H 0.5697 0.9263 0.2046
H11 H 0.6331 0.7941 0.2472
N5 N 0.8969(4) 1.0953(3) 0.1448(3)
H12 H 0.8085 1.1406 0.1311
H13 H 1.0191 1.1404 0.1284
S1 S 0.47039(11) 0.24350(8) 0.19611(7)
O1 O 0.3021(3) 0.2777(3) 0.1209(2)
O2 O 0.6393(3) 0.2732(3) 0.1132(2)
O3 O 0.3956(3) 0.0702(3) 0.2107(3)
O4 O 0.5446(4) 0.3507(3) 0.3411(3)
O5 O 0.6623(4) 0.6879(3) 0.4229(3)
H14 H 0.6325 0.7086 0.5035
H15 H 0.6286 0.5895 0.3867
loop_
_geom_bond_atom_site_label_1
_geom_bond_atom_site_label_2
_geom_bond_site_symmetry_1
_geom_bond_site_symmetry_2
C1 H1 1_555 1_555
H2 C1 1_555 1_555
H3 C1 1_555 1_555
C2 H4 1_555 1_555
H5 C2 1_555 1_555
H6 C2 1_555 1_555
C3 N1 1_555 1_555
C4 N3 1_555 1_555
N1 C1 1_555 1_555
N2 C3 1_555 1_555
H7 N2 1_555 1_555
H8 N2 1_555 1_555
N3 C3 1_555 1_555
H9 N3 1_555 1_555
N4 C4 1_555 1_555
H10 N4 1_555 1_555
H11 N4 1_555 1_555
N5 C4 1_555 1_555
H12 N5 1_555 1_555
H13 N5 1_555 1_555
S1 O1 1_555 1_555
O2 S1 1_555 1_555
O3 S1 1_555 1_555
O4 S1 1_555 1_555
O5 H14 1_555 1_555
H15 O5 1_555 1_555
C2 N1 1_555 1_555

#END
