
#######################################################################
#
#                 Cambridge Crystallographic Data Centre
#                                CCDC 
#
#######################################################################
#
# If this CIF has been generated from an entry in the Cambridge 
# Structural Database, then it will include bibliographic, chemical, 
# crystal, experimental, refinement or atomic coordinate data resulting 
# from the CCDC's data processing and validation procedures.
#
#######################################################################

data_PAJDEL
_chemical_formula_moiety         'C46 H72 N2 O34 S1,6.81(H2 O1)'
_chemical_name_systematic        
'6-Deoxy-6-(2-pyrimidinethio)-\b-cyclodextrin hydrate'
_symmetry_cell_setting           monoclinic
_symmetry_space_group_name_H-M   'P 21'
_symmetry_Int_Tables_number      4
_space_group_name_Hall           'P 2yb'
loop_
_symmetry_equiv_pos_site_id
_symmetry_equiv_pos_as_xyz
1 x,y,z
2 -x,1/2+y,-z
_cell_length_a                   17.683(6)
_cell_length_b                   13.850(4)
_cell_length_c                   28.948(10)
_cell_angle_alpha                90
_cell_angle_beta                 99.572(6)
_cell_angle_gamma                90
_cell_volume                     6990.94
_exptl_crystal_colour            colorless
_exptl_crystal_description       prism
_cell_formula_units_Z            4
_exptl_crystal_recrystallization_method water
loop_
_atom_site_label
_atom_site_type_symbol
_atom_site_fract_x
_atom_site_fract_y
_atom_site_fract_z
S1 S 0.5107(2) 1.2202(2) 0.38282(8)
O1 O 0.4066(5) 0.8222(5) 0.29506(18)
H1 H 0.3845 0.8334 0.2676
O2 O 0.7007(6) 0.8602(7) 0.4195(2)
H2 H 0.6741 0.8801 0.3945
O3 O 0.8058(5) 0.7999(5) 0.6137(2)
H3 H 0.7938 0.7428 0.6189
O4 O 0.6542(4) 0.6714(4) 0.76671(18)
H4 H 0.6831 0.6600 0.7922
O5 O 0.3430(6) 0.5556(6) 0.7240(4)
H5 H 0.3289 0.5186 0.7439
O6 O 0.1290(5) 0.5697(5) 0.5591(3)
H6 H 0.1695 0.5768 0.5786
O7 O 0.1542(4) 0.6648(4) 0.3727(2)
H7 H 0.1755 0.6538 0.4004
O8 O 0.5616(5) 0.8497(9) 0.3440(3)
H8 H 0.6006 0.8832 0.3538
O9 O 0.7591(4) 0.8256(6) 0.5160(2)
H9 H 0.7425 0.7705 0.5211
O10 O 0.7514(4) 0.7361(4) 0.69932(19)
H10 H 0.7180 0.7077 0.7117
O11 O 0.4959(4) 0.6075(4) 0.7613(2)
H11 H 0.4750 0.6123 0.7852
O12 O 0.2262(6) 0.5510(6) 0.6422(3)
H12 H 0.2104 0.5583 0.6135
O13 O 0.1290(5) 0.6113(5) 0.4605(2)
H13 H 0.1147 0.6411 0.4353
O14 O 0.2719(3) 0.7388(5) 0.3226(2)
H14 H 0.3136 0.7109 0.3327
O15 O 0.5706(3) 0.9581(4) 0.42743(16)
O16 O 0.6898(4) 0.9251(4) 0.58036(16)
O17 O 0.6178(4) 0.8330(3) 0.71277(17)
O18 O 0.3865(4) 0.7412(4) 0.7186(2)
O19 O 0.1970(4) 0.7327(5) 0.59775(19)
O20 O 0.1745(4) 0.7989(4) 0.44304(16)
O21 O 0.3374(3) 0.9087(4) 0.36256(16)
O22 O 0.3987(4) 1.0553(4) 0.35280(17)
O23 O 0.6389(4) 1.0777(4) 0.47564(17)
O24 O 0.7132(4) 1.0153(4) 0.65020(17)
O25 O 0.5476(4) 0.8994(4) 0.76512(19)
O26 O 0.2663(4) 0.8036(6) 0.72078(19)
O27 O 0.1077(5) 0.8334(5) 0.5562(2)
O28 O 0.1409(4) 0.9265(4) 0.3895(2)
O29 O 0.5478(5) 1.1726(6) 0.53972(19)
H15 H 0.5548 1.2201 0.5229
O30 O 0.7025(6) 1.0832(8) 0.7312(3)
H16 H 0.7267 1.1192 0.7154
O31 O 0.4120(7) 0.9727(9) 0.7838(4)
O32 O 0.1303(7) 0.8955(10) 0.6815(5)
H17 H 0.1100 0.8462 0.6678
O33 O 0.0731(6) 0.9739(7) 0.4872(3)
H18 H 0.0668 1.0339 0.4845
O34 O 0.1843(5) 1.0865(4) 0.3379(2)
H19 H 0.1899 1.1461 0.3344
N1 N 0.5565(6) 1.3020(6) 0.4675(2)
N2 N 0.5891(8) 1.3755(7) 0.4000(3)
C1 C 0.5569(7) 1.3067(7) 0.4226(3)
C2 C 0.5889(8) 1.3734(8) 0.4940(4)
H20 H 0.5853 1.3745 0.5264
C3 C 0.6271(8) 1.4447(8) 0.4758(4)
H21 H 0.6556 1.4924 0.4950
C4 C 0.6222(9) 1.4441(8) 0.4267(5)
H22 H 0.6441 1.4965 0.4124
C5 C 0.3689(7) 0.9683(6) 0.3297(3)
H23 H 0.3295 0.9830 0.3016
C6 C 0.6398(6) 1.0080(8) 0.4399(3)
H24 H 0.6509 1.0423 0.4114
C7 C 0.7450(6) 0.9548(6) 0.6207(2)
H25 H 0.7880 0.9896 0.6094
C8 C 0.6106(6) 0.8370(5) 0.7603(3)
H26 H 0.6591 0.8608 0.7797
C9 C 0.3172(7) 0.7257(8) 0.7341(3)
H27 H 0.3266 0.7196 0.7690
C10 C 0.1222(9) 0.7393(7) 0.5773(3)
H28 H 0.0884 0.7289 0.6013
C11 C 0.1329(6) 0.8237(6) 0.3991(3)
H29 H 0.0775 0.8083 0.3985
C12 C 0.4338(6) 0.9085(8) 0.3163(3)
H30 H 0.4565 0.9464 0.2926
C13 C 0.7033(7) 0.9300(8) 0.4536(3)
H31 H 0.7543 0.9628 0.4568
C14 C 0.7762(7) 0.8635(8) 0.6454(3)
H32 H 0.8198 0.8822 0.6704
C15 C 0.5915(6) 0.7313(5) 0.7752(3)
H33 H 0.5884 0.7304 0.8093
C16 C 0.2876(8) 0.6299(9) 0.7124(4)
H34 H 0.2414 0.6117 0.7262
C17 C 0.1058(9) 0.6602(8) 0.5385(3)
H35 H 0.0497 0.6586 0.5256
C18 C 0.1635(5) 0.7633(6) 0.3621(2)
H36 H 0.1320 0.7775 0.3308
C19 C 0.4979(6) 0.8910(7) 0.3582(3)
H37 H 0.4783 0.8453 0.3802
C20 C 0.6943(6) 0.8906(6) 0.5007(3)
H38 H 0.6454 0.8531 0.4976
C21 C 0.7159(5) 0.8122(6) 0.6693(2)
H39 H 0.6757 0.7837 0.6447
C22 C 0.5170(6) 0.6993(5) 0.7478(3)
H40 H 0.5236 0.6951 0.7143
C23 C 0.2630(8) 0.6402(6) 0.6617(3)
H41 H 0.3097 0.6510 0.6471
C24 C 0.1520(7) 0.6806(6) 0.4984(3)
H42 H 0.2083 0.6760 0.5102
C25 C 0.2453(5) 0.7891(5) 0.3605(2)
H43 H 0.2775 0.7685 0.3906
C26 C 0.5200(5) 0.9864(7) 0.3846(2)
H44 H 0.5487 1.0284 0.3653
C27 C 0.6929(6) 0.9694(7) 0.5359(3)
H45 H 0.7416 1.0073 0.5384
C28 C 0.6788(6) 0.8826(5) 0.6980(2)
H46 H 0.7167 0.9023 0.7260
C29 C 0.4530(6) 0.7719(6) 0.7507(3)
H47 H 0.4411 0.7734 0.7833
C30 C 0.2091(7) 0.7256(8) 0.6488(3)
H48 H 0.1592 0.7137 0.6598
C31 C 0.1305(7) 0.7833(6) 0.4804(3)
H49 H 0.0742 0.7885 0.4684
C32 C 0.2565(5) 0.8938(6) 0.3543(2)
H50 H 0.2336 0.9146 0.3219
C33 C 0.4521(6) 1.0388(7) 0.3949(2)
H51 H 0.4263 0.9969 0.4157
C34 C 0.6265(5) 1.0355(6) 0.5196(2)
H52 H 0.5777 0.9976 0.5146
C35 C 0.6502(7) 0.9720(5) 0.6697(3)
H53 H 0.6058 0.9564 0.6446
C36 C 0.4769(6) 0.8729(5) 0.7367(3)
H54 H 0.4870 0.8678 0.7038
C37 C 0.2453(8) 0.8180(7) 0.6703(3)
H55 H 0.2941 0.8274 0.6577
C38 C 0.1552(7) 0.8544(7) 0.5212(3)
H56 H 0.2105 0.8440 0.5346
C39 C 0.2227(5) 0.9546(6) 0.3919(3)
H57 H 0.2520 0.9408 0.4238
C40 C 0.4681(7) 1.1403(7) 0.4200(3)
H58 H 0.5031 1.1319 0.4502
H59 H 0.4194 1.1683 0.4265
C41 C 0.6195(7) 1.1189(7) 0.5520(3)
H60 H 0.6230 1.0941 0.5844
H61 H 0.6630 1.1636 0.5515
C42 C 0.6301(7) 1.0520(6) 0.7019(4)
H62 H 0.6058 1.1069 0.6831
H63 H 0.5940 1.0277 0.7219
C43 C 0.4160(7) 0.9505(7) 0.7367(4)
C44 C 0.2016(8) 0.9166(9) 0.6648(6)
H64 H 0.2310 0.9674 0.6840
H65 H 0.1917 0.9376 0.6317
C45 C 0.1422(9) 0.9559(7) 0.5081(3)
H66 H 0.1532 0.9960 0.5368
H67 H 0.1786 0.9750 0.4872
C46 C 0.2192(7) 1.0590(7) 0.3836(3)
H68 H 0.1905 1.0891 0.4064
H69 H 0.2720 1.0851 0.3896
S2 S 1.18616(11) -0.08200(14) 0.04597(8)
O35 O 1.2771(3) 0.3210(4) 0.1300(3)
H70 H 1.2790 0.3648 0.1102
O36 O 1.2067(3) 0.2695(6) -0.0746(3)
H71 H 1.2376 0.2542 -0.0505
O37 O 1.2575(3) 0.2979(5) 0.0289(3)
H72 H 1.2367 0.3501 0.0189
O38 O 1.0788(3) 0.2981(4) -0.14563(19)
H73 H 1.1050 0.2696 -0.1631
O39 O 1.1345(3) 0.1754(4) -0.0083(2)
O40 O 0.9422(2) 0.2024(3) -0.13588(15)
O41 O 1.1837(3) 0.0844(3) 0.11292(19)
O42 O 1.0864(3) 0.0557(4) -0.0597(2)
O43 O 0.9455(3) -0.0309(4) -0.03992(19)
H74 H 0.9889 -0.0383 -0.0234
O44 O 0.9460(3) 0.3189(4) -0.21361(18)
H75 H 0.9792 0.3123 -0.1894
O45 O 0.6603(3) 0.4857(4) -0.19975(19)
H76 H 0.7029 0.4579 -0.1979
O46 O 0.5867(4) 0.6167(4) -0.0211(2)
H77 H 0.6310 0.6141 -0.0279
O47 O 0.7300(3) 0.5537(4) 0.1653(2)
H78 H 0.7507 0.5938 0.1852
O48 O 1.0380(3) 0.4695(3) 0.23044(19)
H79 H 1.0719 0.5025 0.2472
O49 O 0.7931(3) 0.3986(4) -0.22008(16)
H80 H 0.8080 0.4517 -0.2077
O50 O 0.6047(3) 0.5653(3) -0.1171(2)
H81 H 0.5575 0.5732 -0.1263
O51 O 0.6694(4) 0.5994(4) 0.0721(2)
H82 H 0.6803 0.5830 0.1003
O52 O 0.8850(4) 0.5082(5) 0.2114(3)
H83 H 0.8914 0.4840 0.2384
O53 O 1.1718(3) 0.4007(3) 0.1919(2)
H84 H 1.1652 0.4589 0.1983
O54 O 0.7080(2) 0.3133(3) -0.15696(14)
O55 O 0.6031(2) 0.4264(4) -0.04643(16)
O56 O 0.7080(2) 0.4063(3) 0.10254(15)
O57 O 0.9402(3) 0.3274(3) 0.18750(15)
O58 O 1.1410(3) 0.2293(3) 0.14081(16)
O59 O 0.8384(3) 0.1146(3) -0.17535(17)
O60 O 0.5825(3) 0.2725(3) -0.15100(17)
O61 O 0.5366(3) 0.3730(4) 0.01100(17)
O62 O 0.7313(3) 0.2894(4) 0.16042(18)
O63 O 1.0144(4) 0.2068(3) 0.22954(18)
O64 O 0.6798(6) 0.0684(7) -0.1830(3)
O65 O 0.4632(6) 0.2450(7) -0.0948(4)
O66 O 0.5408(4) 0.2765(5) 0.1032(2)
H85 H 0.5085 0.2324 0.1042
O67 O 0.7902(4) 0.1064(4) 0.1311(2)
H86 H 0.7461 0.0907 0.1355
O68 O 1.1153(4) 0.0537(5) 0.2307(3)
H87 H 1.1371 0.1077 0.2325
N3 N 1.0685(4) -0.1616(4) -0.0143(2)
N4 N 1.1907(4) -0.2389(4) -0.0008(2)
C47 C 1.1426(4) -0.1698(5) 0.0062(2)
C48 C 1.1581(7) -0.3082(6) -0.0327(4)
H88 H 1.1902 -0.3595 -0.0396
C49 C 1.0864(7) -0.3087(6) -0.0543(3)
H89 H 1.0668 -0.3574 -0.0762
C50 C 1.0432(5) -0.2354(5) -0.0433(3)
H90 H 0.9905 -0.2355 -0.0569
C51 C 1.2057(4) 0.1745(5) 0.1354(3)
H91 H 1.2372 0.1621 0.1669
C52 C 1.1462(4) 0.1230(6) -0.0480(3)
H92 H 1.1959 0.0872 -0.0405
C53 C 1.2508(4) 0.2344(5) 0.1068(3)
H93 H 1.2977 0.1961 0.1039
C54 C 1.1518(4) 0.1937(7) -0.0863(3)
H94 H 1.1684 0.1564 -0.1125
C55 C 1.2090(4) 0.2487(5) 0.0582(3)
H95 H 1.1628 0.2896 0.0595
C56 C 1.0738(4) 0.2400(6) -0.1064(3)
H96 H 1.0571 0.2813 -0.0816
C57 C 1.1834(4) 0.1557(6) 0.0365(3)
H97 H 1.2289 0.1170 0.0312
C58 C 1.0149(4) 0.1578(5) -0.1186(2)
H98 H 1.0306 0.1160 -0.1436
C59 C 1.1365(4) 0.0975(5) 0.0696(3)
H99 H 1.0913 0.1372 0.0745
C60 C 1.0117(4) 0.0975(5) -0.0749(3)
H100 H 0.9987 0.1405 -0.0496
C61 C 1.1082(4) 0.0007(5) 0.0506(3)
H101 H 1.0768 0.0096 0.0192
H102 H 1.0749 -0.0278 0.0713
C62 C 0.9539(5) 0.0141(5) -0.0825(3)
H103 H 0.9035 0.0390 -0.0979
H104 H 0.9713 -0.0343 -0.1037
C63 C 0.9051(4) 0.1712(5) -0.1802(2)
H105 H 0.9412 0.1318 -0.1957
C64 C 0.6297(4) 0.3279(5) -0.1770(2)
H106 H 0.6209 0.3061 -0.2104
C65 C 0.5475(4) 0.4483(5) -0.0181(3)
H107 H 0.4978 0.4635 -0.0388
C66 C 0.7060(4) 0.3861(5) 0.1498(3)
H108 H 0.6517 0.3918 0.1551
C67 C 0.9922(5) 0.3057(5) 0.2294(2)
H109 H 0.9669 0.3190 0.2572
C68 C 0.8811(4) 0.2626(5) -0.2094(2)
H110 H 0.8572 0.2415 -0.2415
C69 C 0.6128(4) 0.4327(5) -0.1748(2)
H111 H 0.5582 0.4440 -0.1893
C70 C 0.5761(4) 0.5375(6) 0.0094(3)
H112 H 0.5354 0.5572 0.0278
C71 C 0.7533(4) 0.4589(6) 0.1801(3)
H113 H 0.7442 0.4502 0.2130
C72 C 1.0618(5) 0.3709(5) 0.2309(3)
H114 H 1.0982 0.3581 0.2606
C73 C 0.8221(4) 0.3214(4) -0.1893(2)
H115 H 0.8465 0.3490 -0.1584
C74 C 0.6242(4) 0.4668(5) -0.1233(3)
H116 H 0.6798 0.4589 -0.1100
C75 C 0.6469(4) 0.5157(5) 0.0438(3)
H117 H 0.6889 0.5005 0.0257
C76 C 0.8400(4) 0.4445(5) 0.1793(3)
H118 H 0.8505 0.4573 0.1470
C77 C 1.1015(4) 0.3495(5) 0.1900(3)
H119 H 1.0665 0.3686 0.1606
C78 C 0.7544(4) 0.2580(5) -0.1819(2)
H120 H 0.7245 0.2383 -0.2129
C79 C 0.5783(4) 0.4013(5) -0.0946(2)
H121 H 0.5223 0.4151 -0.1036
C80 C 0.6355(4) 0.4290(5) 0.0730(3)
H122 H 0.5965 0.4445 0.0933
C81 C 0.8602(4) 0.3416(6) 0.1923(2)
H123 H 0.8529 0.3286 0.2253
C82 C 1.1200(4) 0.2416(5) 0.1868(2)
H124 H 1.1634 0.2229 0.2119
C83 C 0.7827(4) 0.1686(5) -0.1534(2)
H125 H 0.8089 0.1906 -0.1218
C84 C 0.5932(4) 0.2941(5) -0.1019(2)
H126 H 0.6480 0.2807 -0.0885
C85 C 0.6066(4) 0.3445(6) 0.0408(3)
H127 H 0.6460 0.3277 0.0211
C86 C 0.8111(4) 0.2709(5) 0.1581(2)
H128 H 0.8203 0.2842 0.1256
C87 C 1.0488(5) 0.1801(5) 0.1897(3)
H129 H 1.0104 0.1924 0.1609
C88 C 0.7220(5) 0.0946(6) -0.1460(3)
C89 C 0.5444(5) 0.2265(5) -0.0787(3)
C90 C 0.5882(5) 0.2524(6) 0.0692(3)
H130 H 0.5617 0.2037 0.0472
H131 H 0.6368 0.2236 0.0853
C91 C 0.8251(5) 0.1677(6) 0.1685(3)
H132 H 0.8811 0.1559 0.1746
H133 H 0.8047 0.1510 0.1973
C92 C 1.0540(7) 0.0569(12) 0.1987(4)
H134 H 1.0083 0.0318 0.2104
H135 H 1.0610 0.0215 0.1700
O69 O 0.5920(5) 0.8944(14) 0.9157(6)
O70 O 0.3433(8) 0.5229(11) 0.8862(8)
O71 O 0.1135(6) 0.4790(6) 0.8973(3)
O72 O 0.3184(8) 0.1366(11) 0.7624(5)
O73 O 0.0524(6) 0.5669(10) 0.3168(4)
O74 O 0.0351(9) 0.0673(10) 0.3138(5)
O75 O 0.5425(4) 0.1089(5) 0.1521(2)
O76 O 0.4637(6) 0.5190(11) 0.1536(4)
O77 O 0.6253(3) 0.7788(4) 1.0287(2)
O78 O 0.8218(5) 0.9538(6) 0.0061(3)
O79 O 0.9978(10) 0.4224(13) 0.3668(4)
O80 O 0.7352(5) 0.8729(4) 0.3291(2)
O81 O 0.9613(8) 0.9566(10) 0.5396(4)
O82 O 0.9546(8) 0.7463(10) 0.6419(6)
O83 O 0.4178(14) 0.1924(10) 0.5768(6)
O84 O 0.0221(8) 0.4899(13) 0.6006(6)
O85 O 0.7178(10) 0.6482(8) 0.4762(6)
O86 O 0.2688(10) 0.1785(12) 0.6875(5)
O87 O 0.8923(12) 0.7991(19) 0.4864(12)
O88 O 0.1395(9) 0.5754(11) 0.2821(5)
O89? O 0.4456(13) 1.0459(8) 0.7392(13)
O90? O 0.7399(9) 0.0292(12) -0.1130(5)
O91? O 0.5646(7) 0.1384(12) -0.0764(5)
O92? O 0.5937(10) 0.8194(12) 0.9666(6)
O93? O 0.6121(10) 0.7943(11) 1.0098(5)
O94? O 0.3310(14) 0.324(2) 0.8714(9)
O95? O 0.3308(18) 0.510(3) 0.8410(13)
O96? O 0.9248(10) 0.6696(16) 0.5448(9)
O97? O 0.1794(11) 0.1239(16) 0.7330(7)
O98? O 0.2071(13) 0.2903(18) 0.8115(8)
O99? O 0.5165(12) 0.1841(15) 0.7532(6)
O100? O 0.6525(15) 0.005(2) 0.9954(11)
O101? O 0.0670(16) 0.197(2) 0.6750(12)
O102? O 0.192(2) 0.450(2) 0.7544(7)
O103? O 0.9323(16) 0.909(3) 0.3259(11)
O104? O 0.6376(11) -0.0132(14) 1.0257(9)
O105? O 0.0220(12) 0.2446(19) 0.7164(5)
loop_
_geom_bond_atom_site_label_1
_geom_bond_atom_site_label_2
_geom_bond_site_symmetry_1
_geom_bond_site_symmetry_2
S1 C1 1_555 1_555
O1 H1 1_555 1_555
O2 H2 1_555 1_555
O3 H3 1_555 1_555
O4 H4 1_555 1_555
O5 H5 1_555 1_555
O6 H6 1_555 1_555
O7 H7 1_555 1_555
O8 H8 1_555 1_555
O9 H9 1_555 1_555
O10 H10 1_555 1_555
O11 H11 1_555 1_555
O12 H12 1_555 1_555
O13 H13 1_555 1_555
O14 H14 1_555 1_555
O15 C6 1_555 1_555
O16 C7 1_555 1_555
O17 C8 1_555 1_555
O18 C9 1_555 1_555
O19 C10 1_555 1_555
O20 C11 1_555 1_555
O21 C5 1_555 1_555
O22 C5 1_555 1_555
O23 C6 1_555 1_555
O24 C7 1_555 1_555
O25 C8 1_555 1_555
O26 C9 1_555 1_555
O27 C10 1_555 1_555
O28 C11 1_555 1_555
O29 H15 1_555 1_555
O30 H16 1_555 1_555
O31 C43 1_555 1_555
O32 H17 1_555 1_555
O33 H18 1_555 1_555
O34 H19 1_555 1_555
N1 C1 1_555 1_555
N2 C1 1_555 1_555
C2 N1 1_555 1_555
H20 C2 1_555 1_555
C3 C2 1_555 1_555
H21 C3 1_555 1_555
C4 N2 1_555 1_555
H22 C4 1_555 1_555
C5 H23 1_555 1_555
C6 H24 1_555 1_555
C7 H25 1_555 1_555
C8 H26 1_555 1_555
C9 H27 1_555 1_555
C10 H28 1_555 1_555
C11 H29 1_555 1_555
C12 O1 1_555 1_555
H30 C12 1_555 1_555
C13 O2 1_555 1_555
H31 C13 1_555 1_555
C14 O3 1_555 1_555
H32 C14 1_555 1_555
C15 O4 1_555 1_555
H33 C15 1_555 1_555
C16 O5 1_555 1_555
H34 C16 1_555 1_555
C17 O6 1_555 1_555
H35 C17 1_555 1_555
C18 O7 1_555 1_555
H36 C18 1_555 1_555
C19 O8 1_555 1_555
H37 C19 1_555 1_555
C20 O9 1_555 1_555
H38 C20 1_555 1_555
C21 O10 1_555 1_555
H39 C21 1_555 1_555
C22 O11 1_555 1_555
H40 C22 1_555 1_555
C23 O12 1_555 1_555
H41 C23 1_555 1_555
C24 O13 1_555 1_555
H42 C24 1_555 1_555
C25 O14 1_555 1_555
H43 C25 1_555 1_555
C26 O15 1_555 1_555
H44 C26 1_555 1_555
C27 O16 1_555 1_555
H45 C27 1_555 1_555
C28 O17 1_555 1_555
H46 C28 1_555 1_555
C29 O18 1_555 1_555
H47 C29 1_555 1_555
C30 O19 1_555 1_555
H48 C30 1_555 1_555
C31 O20 1_555 1_555
H49 C31 1_555 1_555
C32 O21 1_555 1_555
H50 C32 1_555 1_555
C33 O22 1_555 1_555
H51 C33 1_555 1_555
C34 O23 1_555 1_555
H52 C34 1_555 1_555
C35 O24 1_555 1_555
H53 C35 1_555 1_555
C36 O25 1_555 1_555
H54 C36 1_555 1_555
C37 O26 1_555 1_555
H55 C37 1_555 1_555
C38 O27 1_555 1_555
H56 C38 1_555 1_555
C39 O28 1_555 1_555
H57 C39 1_555 1_555
C40 S1 1_555 1_555
H58 C40 1_555 1_555
H59 C40 1_555 1_555
C41 O29 1_555 1_555
H60 C41 1_555 1_555
H61 C41 1_555 1_555
C42 O30 1_555 1_555
H62 C42 1_555 1_555
H63 C42 1_555 1_555
C43 C36 1_555 1_555
C44 O32 1_555 1_555
H64 C44 1_555 1_555
H65 C44 1_555 1_555
C45 O33 1_555 1_555
H66 C45 1_555 1_555
H67 C45 1_555 1_555
C46 O34 1_555 1_555
H68 C46 1_555 1_555
H69 C46 1_555 1_555
S2 C47 1_555 1_555
O35 H70 1_555 1_555
O36 H71 1_555 1_555
O37 H72 1_555 1_555
O38 H73 1_555 1_555
O39 C52 1_555 1_555
O40 C58 1_555 1_555
O41 C51 1_555 1_555
O42 C52 1_555 1_555
O43 H74 1_555 1_555
O44 H75 1_555 1_555
O45 H76 1_555 1_555
O46 H77 1_555 1_555
O47 H78 1_555 1_555
O48 H79 1_555 1_555
O49 H80 1_555 1_555
O50 H81 1_555 1_555
O51 H82 1_555 1_555
O52 H83 1_555 1_555
O53 H84 1_555 1_555
O54 C64 1_555 1_555
O55 C65 1_555 1_555
O56 C66 1_555 1_555
O57 C67 1_555 1_555
O58 C51 1_555 1_555
O59 C63 1_555 1_555
O60 C64 1_555 1_555
O61 C65 1_555 1_555
O62 C66 1_555 1_555
O63 C67 1_555 1_555
O64 C88 1_555 1_555
O65 C89 1_555 1_555
O66 H85 1_555 1_555
O67 H86 1_555 1_555
O68 H87 1_555 1_555
N3 C47 1_555 1_555
N4 C47 1_555 1_555
C48 N4 1_555 1_555
H88 C48 1_555 1_555
C49 C48 1_555 1_555
H89 C49 1_555 1_555
C50 N3 1_555 1_555
H90 C50 1_555 1_555
C51 H91 1_555 1_555
C52 H92 1_555 1_555
C53 O35 1_555 1_555
H93 C53 1_555 1_555
C54 O36 1_555 1_555
H94 C54 1_555 1_555
C55 O37 1_555 1_555
H95 C55 1_555 1_555
C56 O38 1_555 1_555
H96 C56 1_555 1_555
C57 O39 1_555 1_555
H97 C57 1_555 1_555
C58 C56 1_555 1_555
H98 C58 1_555 1_555
C59 O41 1_555 1_555
H99 C59 1_555 1_555
C60 O42 1_555 1_555
H100 C60 1_555 1_555
C61 S2 1_555 1_555
H101 C61 1_555 1_555
H102 C61 1_555 1_555
C62 O43 1_555 1_555
H103 C62 1_555 1_555
H104 C62 1_555 1_555
C63 O40 1_555 1_555
H105 C63 1_555 1_555
C64 H106 1_555 1_555
C65 H107 1_555 1_555
C66 H108 1_555 1_555
C67 H109 1_555 1_555
C68 O44 1_555 1_555
H110 C68 1_555 1_555
C69 O45 1_555 1_555
H111 C69 1_555 1_555
C70 O46 1_555 1_555
H112 C70 1_555 1_555
C71 O47 1_555 1_555
H113 C71 1_555 1_555
C72 O48 1_555 1_555
H114 C72 1_555 1_555
C73 O49 1_555 1_555
H115 C73 1_555 1_555
C74 O50 1_555 1_555
H116 C74 1_555 1_555
C75 O51 1_555 1_555
H117 C75 1_555 1_555
C76 O52 1_555 1_555
H118 C76 1_555 1_555
C77 O53 1_555 1_555
H119 C77 1_555 1_555
C78 O54 1_555 1_555
H120 C78 1_555 1_555
C79 O55 1_555 1_555
H121 C79 1_555 1_555
C80 O56 1_555 1_555
H122 C80 1_555 1_555
C81 O57 1_555 1_555
H123 C81 1_555 1_555
C82 O58 1_555 1_555
H124 C82 1_555 1_555
C83 O59 1_555 1_555
H125 C83 1_555 1_555
C84 O60 1_555 1_555
H126 C84 1_555 1_555
C85 O61 1_555 1_555
H127 C85 1_555 1_555
C86 O62 1_555 1_555
H128 C86 1_555 1_555
C87 O63 1_555 1_555
H129 C87 1_555 1_555
C88 C83 1_555 1_555
C89 C84 1_555 1_555
C90 O66 1_555 1_555
H130 C90 1_555 1_555
H131 C90 1_555 1_555
C91 O67 1_555 1_555
H132 C91 1_555 1_555
H133 C91 1_555 1_555
C92 O68 1_555 1_555
H134 C92 1_555 1_555
H135 C92 1_555 1_555
C3 C4 1_555 1_555
C5 C12 1_555 1_555
C6 C13 1_555 1_555
C7 C14 1_555 1_555
C8 C15 1_555 1_555
C9 C16 1_555 1_555
C10 C17 1_555 1_555
C11 C18 1_555 1_555
C12 C19 1_555 1_555
C13 C20 1_555 1_555
C14 C21 1_555 1_555
C15 C22 1_555 1_555
C16 C23 1_555 1_555
C17 C24 1_555 1_555
C18 C25 1_555 1_555
C19 C26 1_555 1_555
C20 C27 1_555 1_555
C21 C28 1_555 1_555
C22 C29 1_555 1_555
C23 C30 1_555 1_555
C24 C31 1_555 1_555
C25 C32 1_555 1_555
C26 C33 1_555 1_555
C27 C34 1_555 1_555
C28 C35 1_555 1_555
C29 C36 1_555 1_555
C30 C37 1_555 1_555
C31 C38 1_555 1_555
C32 C39 1_555 1_555
C33 C40 1_555 1_555
C34 C41 1_555 1_555
C35 C42 1_555 1_555
C37 C44 1_555 1_555
C38 C45 1_555 1_555
C39 C46 1_555 1_555
C49 C50 1_555 1_555
C51 C53 1_555 1_555
C52 C54 1_555 1_555
C53 C55 1_555 1_555
C54 C56 1_555 1_555
C55 C57 1_555 1_555
C57 C59 1_555 1_555
C58 C60 1_555 1_555
C59 C61 1_555 1_555
C60 C62 1_555 1_555
C63 C68 1_555 1_555
C64 C69 1_555 1_555
C65 C70 1_555 1_555
C66 C71 1_555 1_555
C67 C72 1_555 1_555
C68 C73 1_555 1_555
C69 C74 1_555 1_555
C70 C75 1_555 1_555
C71 C76 1_555 1_555
C72 C77 1_555 1_555
C73 C78 1_555 1_555
C74 C79 1_555 1_555
C75 C80 1_555 1_555
C76 C81 1_555 1_555
C77 C82 1_555 1_555
C78 C83 1_555 1_555
C79 C84 1_555 1_555
C80 C85 1_555 1_555
C81 C86 1_555 1_555
C82 C87 1_555 1_555
C85 C90 1_555 1_555
C86 C91 1_555 1_555
C87 C92 1_555 1_555

#END
