
#######################################################################
#
#                 Cambridge Crystallographic Data Centre
#                                CCDC 
#
#######################################################################
#
# If this CIF has been generated from an entry in the Cambridge 
# Structural Database, then it will include bibliographic, chemical, 
# crystal, experimental, refinement or atomic coordinate data resulting 
# from the CCDC's data processing and validation procedures.
#
#######################################################################

data_PAJSAV
_chemical_compound_source        'Heracleum candicans WALL'
_chemical_name_common            'Candibirin A dimethylformamide solvate'
_chemical_formula_moiety         'C32 H28 O10,C3 H7 N1 O1'
_chemical_name_systematic        
"9,9'-(1,4-dioxane-2,5-diyldimethylenedioxy)di(7H-furo(3,2-g)chromen-7-one) dimethylformamide solvate"
_symmetry_cell_setting           monoclinic
_symmetry_space_group_name_H-M   'P 21'
_symmetry_Int_Tables_number      4
_space_group_name_Hall           'P 2yb'
loop_
_symmetry_equiv_pos_site_id
_symmetry_equiv_pos_as_xyz
1 x,y,z
2 -x,1/2+y,-z
_cell_length_a                   8.2000(7)
_cell_length_b                   16.2132(14)
_cell_length_c                   11.6706(10)
_cell_angle_alpha                90
_cell_angle_beta                 97.2440(10)
_cell_angle_gamma                90
_cell_volume                     1539.2
_exptl_crystal_colour            colorless
_exptl_crystal_description       plate
_cell_formula_units_Z            2
loop_
_atom_site_label
_atom_site_type_symbol
_atom_site_fract_x
_atom_site_fract_y
_atom_site_fract_z
C1 C 0.2453(4) 0.77989(18) 0.3276(2)
C2 C 0.4125(4) 0.79808(19) 0.3469(2)
O1 O 0.4540(2) 0.87951(15) 0.36168(18)
C3 C 0.6158(4) 0.9053(3) 0.3879(3)
O2 O 0.6368(4) 0.9778(2) 0.4010(3)
C4 C 0.7386(4) 0.8414(4) 0.3953(3)
H1 H 0.8510 0.8564 0.4124
C5 C 0.7015(5) 0.7631(3) 0.3794(3)
H2 H 0.7877 0.7237 0.3834
C6 C 0.5334(4) 0.7354(2) 0.3562(2)
C7 C 0.4877(5) 0.6528(2) 0.3467(3)
H3 H 0.5688 0.6107 0.3525
C8 C 0.3219(5) 0.6329(2) 0.3287(3)
C9 C 0.2051(4) 0.69606(19) 0.3192(2)
O3 O 0.0498(3) 0.66622(15) 0.3031(2)
C10 C 0.2238(8) 0.5581(3) 0.3155(3)
H4 H 0.2642 0.5032 0.3170
C11 C 0.0670(7) 0.5810(2) 0.3008(3)
H5 H -0.0228 0.5436 0.2901
O4 O 0.1233(2) 0.83701(13) 0.33009(17)
C12 C 0.1077(3) 0.89826(16) 0.2396(2)
H6 H 0.2182 0.9202 0.2310
H7 H 0.0402 0.9446 0.2627
C13 C 0.0306(3) 0.86529(15) 0.1246(2)
H8 H 0.0907 0.8148 0.1043
O5 O -0.1350(2) 0.84472(12) 0.13681(16)
C14 C 0.0321(3) 0.93058(16) 0.0279(2)
C15 C 0.1916(4) 0.9253(2) -0.0256(3)
H9 H 0.1880 0.9645 -0.0899
H10 H 0.2053 0.8693 -0.0542
H11 H 0.2843 0.9389 0.0329
C16 C 0.0007(4) 1.01791(18) 0.0679(3)
H12 H -0.0944 1.0179 0.1110
H13 H -0.0215 1.0542 0.0005
H14 H 0.0977 1.0379 0.1178
C17 C -0.0944(3) 0.78052(18) -0.3192(2)
C18 C 0.0645(3) 0.80042(19) -0.3381(2)
O6 O 0.1137(3) 0.87989(15) -0.3130(2)
C19 C 0.2697(4) 0.9076(3) -0.3264(3)
O7 O 0.2993(4) 0.9785(2) -0.3024(3)
C20 C 0.3799(4) 0.8473(3) -0.3672(3)
H15 H 0.4891 0.8635 -0.3758
C21 C 0.3336(4) 0.7710(3) -0.3927(3)
H16 H 0.4100 0.7336 -0.4191
C22 C 0.1701(4) 0.7430(2) -0.3815(2)
C23 C 0.1158(4) 0.6634(2) -0.4088(3)
H17 H 0.1871 0.6241 -0.4366
C24 C -0.0433(5) 0.6424(2) -0.3948(3)
C25 C -0.1445(4) 0.70026(19) -0.3494(2)
O8 O -0.2978(3) 0.66946(14) -0.34475(18)
C26 C -0.1474(6) 0.5715(2) -0.4196(3)
H18 H -0.1169 0.5208 -0.4518
C27 C -0.2955(5) 0.5901(2) -0.3890(3)
H19 H -0.3869 0.5536 -0.3965
O9 O -0.1958(2) 0.83920(13) -0.28315(16)
C28 C -0.2680(3) 0.82090(18) -0.1791(2)
H20 H -0.3110 0.7638 -0.1837
H21 H -0.3617 0.8586 -0.1740
C29 C -0.1458(3) 0.82979(16) -0.0711(2)
H22 H -0.0446 0.7972 -0.0801
O10 O -0.1050(2) 0.91437(11) -0.05982(17)
C30 C -0.2179(3) 0.80034(16) 0.0393(2)
C31 C -0.1919(4) 0.70822(19) 0.0567(3)
H23 H -0.2311 0.6914 0.1291
H24 H -0.0745 0.6955 0.0602
H25 H -0.2532 0.6783 -0.0079
C32 C -0.3979(3) 0.8233(2) 0.0392(3)
H26 H -0.4121 0.8825 0.0242
H27 H -0.4322 0.8101 0.1145
H28 H -0.4653 0.7921 -0.0213
N1 N -0.6127(3) 0.61071(17) -0.0546(3)
C33 C -0.5685(5) 0.5730(3) 0.0546(3)
H29 H -0.6438 0.5272 0.0640
H30 H -0.5753 0.6137 0.1159
H31 H -0.4558 0.5519 0.0594
C34 C -0.5601(7) 0.5724(4) -0.1535(4)
H32 H -0.6119 0.6000 -0.2235
H33 H -0.5920 0.5141 -0.1556
H34 H -0.4403 0.5768 -0.1495
C35 C -0.7181(5) 0.6721(3) -0.0736(6)
H35 H -0.7445 0.6859 -0.1529
O11 O -0.7842(5) 0.7121(3) -0.0125(6)
loop_
_geom_bond_atom_site_label_1
_geom_bond_atom_site_label_2
_geom_bond_site_symmetry_1
_geom_bond_site_symmetry_2
C1 C2 1_555 1_555
C2 O1 1_555 1_555
O1 C3 1_555 1_555
C3 O2 1_555 1_555
C4 C3 1_555 1_555
H1 C4 1_555 1_555
C5 C4 1_555 1_555
H2 C5 1_555 1_555
C6 C2 1_555 1_555
C7 C6 1_555 1_555
H3 C7 1_555 1_555
C8 C7 1_555 1_555
C9 C1 1_555 1_555
O3 C9 1_555 1_555
C10 C8 1_555 1_555
H4 C10 1_555 1_555
C11 O3 1_555 1_555
H5 C11 1_555 1_555
O4 C1 1_555 1_555
C12 O4 1_555 1_555
H6 C12 1_555 1_555
H7 C12 1_555 1_555
C13 C12 1_555 1_555
H8 C13 1_555 1_555
O5 C13 1_555 1_555
C14 C13 1_555 1_555
C15 C14 1_555 1_555
H9 C15 1_555 1_555
H10 C15 1_555 1_555
H11 C15 1_555 1_555
C16 C14 1_555 1_555
H12 C16 1_555 1_555
H13 C16 1_555 1_555
H14 C16 1_555 1_555
C17 C18 1_555 1_555
C18 O6 1_555 1_555
O6 C19 1_555 1_555
C19 O7 1_555 1_555
C20 C19 1_555 1_555
H15 C20 1_555 1_555
C21 C20 1_555 1_555
H16 C21 1_555 1_555
C22 C18 1_555 1_555
C23 C22 1_555 1_555
H17 C23 1_555 1_555
C24 C23 1_555 1_555
C25 C17 1_555 1_555
O8 C25 1_555 1_555
C26 C24 1_555 1_555
H18 C26 1_555 1_555
C27 O8 1_555 1_555
H19 C27 1_555 1_555
O9 C17 1_555 1_555
C28 O9 1_555 1_555
H20 C28 1_555 1_555
H21 C28 1_555 1_555
C29 C28 1_555 1_555
H22 C29 1_555 1_555
O10 C14 1_555 1_555
C30 O5 1_555 1_555
C31 C30 1_555 1_555
H23 C31 1_555 1_555
H24 C31 1_555 1_555
H25 C31 1_555 1_555
C32 C30 1_555 1_555
H26 C32 1_555 1_555
H27 C32 1_555 1_555
H28 C32 1_555 1_555
N1 C33 1_555 1_555
C33 H29 1_555 1_555
H30 C33 1_555 1_555
H31 C33 1_555 1_555
C34 N1 1_555 1_555
H32 C34 1_555 1_555
H33 C34 1_555 1_555
H34 C34 1_555 1_555
C35 N1 1_555 1_555
H35 C35 1_555 1_555
O11 C35 1_555 1_555
C5 C6 1_555 1_555
C8 C9 1_555 1_555
C10 C11 1_555 1_555
C21 C22 1_555 1_555
C24 C25 1_555 1_555
C26 C27 1_555 1_555
C29 C30 1_555 1_555
C29 O10 1_555 1_555

#END
