
#######################################################################
#
#                 Cambridge Crystallographic Data Centre
#                                CCDC 
#
#######################################################################
#
# If this CIF has been generated from an entry in the Cambridge 
# Structural Database, then it will include bibliographic, chemical, 
# crystal, experimental, refinement or atomic coordinate data resulting 
# from the CCDC's data processing and validation procedures.
#
#######################################################################

data_PAJYIL
_chemical_formula_moiety         'C19 H17 N1'
_chemical_name_systematic        3,5-bis(4-methylphenyl)pyridine
_symmetry_cell_setting           orthorhombic
_symmetry_space_group_name_H-M   'P 21 21 21'
_symmetry_Int_Tables_number      19
_space_group_name_Hall           'P 2ac 2ab'
loop_
_symmetry_equiv_pos_site_id
_symmetry_equiv_pos_as_xyz
1 x,y,z
2 1/2-x,-y,1/2+z
3 1/2+x,1/2-y,-z
4 -x,1/2+y,1/2-z
_cell_length_a                   6.4478(12)
_cell_length_b                   7.2402(14)
_cell_length_c                   29.890(6)
_cell_angle_alpha                90
_cell_angle_beta                 90
_cell_angle_gamma                90
_cell_volume                     1395.37
_exptl_crystal_colour            colorless
_exptl_crystal_description       pillar
_cell_formula_units_Z            4
_chemical_properties_physical    ', Air-sensitive'
_exptl_crystal_recrystallization_method 'Ethyl acetate'
_exptl_crystal_preparation       ', Luminescent'
loop_
_atom_site_label
_atom_site_type_symbol
_atom_site_fract_x
_atom_site_fract_y
_atom_site_fract_z
N1 N 0.2518(2) -0.4401(2) -0.37729(4)
C1 C -0.5148(3) -0.5491(3) -0.58496(5)
H1 H -0.6616 -0.5729 -0.5788
H2 H -0.4564 -0.6527 -0.6019
H3 H -0.5014 -0.4353 -0.6025
C2 C -0.3985(3) -0.5280(2) -0.54118(5)
C3 C -0.2062(3) -0.4404(2) -0.53947(5)
H4 H -0.1446 -0.3975 -0.5664
C4 C -0.1029(3) -0.4146(2) -0.49926(5)
H5 H 0.0274 -0.3533 -0.4990
C5 C -0.1885(2) -0.4778(2) -0.45888(5)
C6 C -0.3803(3) -0.5681(2) -0.46086(5)
H6 H -0.4412 -0.6136 -0.4341
C7 C -0.4831(3) -0.5924(2) -0.50129(5)
H7 H -0.6132 -0.6540 -0.5017
C8 C -0.0781(2) -0.4554(2) -0.41564(5)
C9 C 0.1389(3) -0.4554(2) -0.41459(5)
H8 H 0.2107 -0.4670 -0.4422
C10 C 0.1482(3) -0.4263(3) -0.33866(5)
H9 H 0.2265 -0.4163 -0.3118
C11 C -0.0684(2) -0.4257(2) -0.33524(5)
C12 C -0.1823(3) -0.4398(2) -0.37485(5)
H10 H -0.3296 -0.4387 -0.3741
C13 C -0.1698(3) -0.4075(2) -0.29074(5)
C14 C -0.0772(3) -0.4819(2) -0.25216(5)
H11 H 0.0518 -0.5446 -0.2543
C15 C -0.1742(3) -0.4639(2) -0.21090(5)
H12 H -0.1092 -0.5138 -0.1851
C16 C -0.3638(3) -0.3748(2) -0.20640(5)
C17 C -0.4547(3) -0.2990(3) -0.24470(5)
H13 H -0.5833 -0.2357 -0.2424
C18 C -0.3585(3) -0.3153(2) -0.28608(5)
H14 H -0.4225 -0.2627 -0.3117
C19 C -0.4744(3) -0.3605(3) -0.16161(5)
H15 H -0.6247 -0.3570 -0.1665
H16 H -0.4306 -0.2474 -0.1463
H17 H -0.4393 -0.4679 -0.1432
loop_
_geom_bond_atom_site_label_1
_geom_bond_atom_site_label_2
_geom_bond_site_symmetry_1
_geom_bond_site_symmetry_2
N1 C9 1_555 1_555
C1 H1 1_555 1_555
H2 C1 1_555 1_555
H3 C1 1_555 1_555
C2 C1 1_555 1_555
C3 C2 1_555 1_555
H4 C3 1_555 1_555
C4 C3 1_555 1_555
H5 C4 1_555 1_555
C5 C4 1_555 1_555
C6 C5 1_555 1_555
H6 C6 1_555 1_555
C7 C2 1_555 1_555
H7 C7 1_555 1_555
C8 C5 1_555 1_555
C9 C8 1_555 1_555
H8 C9 1_555 1_555
C10 N1 1_555 1_555
H9 C10 1_555 1_555
C11 C10 1_555 1_555
C12 C8 1_555 1_555
H10 C12 1_555 1_555
C13 C11 1_555 1_555
C14 C13 1_555 1_555
H11 C14 1_555 1_555
C15 C14 1_555 1_555
H12 C15 1_555 1_555
C16 C15 1_555 1_555
C17 C16 1_555 1_555
H13 C17 1_555 1_555
C18 C13 1_555 1_555
H14 C18 1_555 1_555
C19 C16 1_555 1_555
H15 C19 1_555 1_555
H16 C19 1_555 1_555
H17 C19 1_555 1_555
C6 C7 1_555 1_555
C11 C12 1_555 1_555
C17 C18 1_555 1_555

#END
