
#######################################################################
#
#                 Cambridge Crystallographic Data Centre
#                                CCDC 
#
#######################################################################
#
# If this CIF has been generated from an entry in the Cambridge 
# Structural Database, then it will include bibliographic, chemical, 
# crystal, experimental, refinement or atomic coordinate data resulting 
# from the CCDC's data processing and validation procedures.
#
#######################################################################

data_PAKDIR
_chemical_formula_moiety         'C25 H13 F1 O4'
_chemical_name_systematic        
2-benzoyl-3-(3-fluorophenyl)naphtho[2,3-b]furan-4,9-dione
_symmetry_cell_setting           monoclinic
_symmetry_space_group_name_H-M   'P 21/c'
_symmetry_Int_Tables_number      14
_space_group_name_Hall           '-P 2ybc'
loop_
_symmetry_equiv_pos_site_id
_symmetry_equiv_pos_as_xyz
1 x,y,z
2 -x,1/2+y,1/2-z
3 -x,-y,-z
4 x,1/2-y,1/2+z
_cell_length_a                   10.0430(6)
_cell_length_b                   11.6070(5)
_cell_length_c                   16.5719(9)
_cell_angle_alpha                90
_cell_angle_beta                 102.614(3)
_cell_angle_gamma                90
_cell_volume                     1885.15
_exptl_crystal_colour            yellow
_exptl_crystal_description       block
_cell_formula_units_Z            4
loop_
_atom_site_label
_atom_site_type_symbol
_atom_site_fract_x
_atom_site_fract_y
_atom_site_fract_z
O1 O 0.44052(14) 0.19836(10) 0.90760(8)
F1 F 0.23485(15) -0.27685(10) 0.65365(9)
O2 O 0.63899(18) 0.19098(12) 1.05889(10)
O3 O 0.61166(16) -0.13943(12) 0.82576(9)
O4 O 0.15341(15) 0.19210(12) 0.74300(11)
C1 C 0.41035(19) 0.06652(15) 0.80439(12)
C2 C 0.53714(19) 0.11592(15) 0.92807(13)
C3 C 0.7404(2) 0.02295(17) 1.01445(13)
C4 C 0.2228(2) 0.35589(15) 0.82387(12)
C5 C 0.35514(19) 0.00564(16) 0.72599(13)
C6 C 0.7322(2) -0.06228(17) 0.95343(13)
C7 C 0.52388(19) 0.03364(15) 0.86827(12)
C8 C 0.6208(2) -0.06296(16) 0.87691(13)
C9 C 0.2410(2) 0.23684(16) 0.79574(14)
C10 C 0.32009(19) -0.11051(16) 0.72666(13)
H1 H 0.3309 -0.1508 0.7762
C11 C 0.6388(2) 0.11795(17) 1.00609(13)
C12 C 0.3298(2) 0.43209(16) 0.84892(13)
H2 H 0.4195 0.4068 0.8558
C13 C 0.36345(19) 0.16707(15) 0.83093(12)
C14 C 0.8293(2) -0.1490(2) 0.96418(15)
H3 H 0.8243 -0.2058 0.9240
C15 C 0.3387(2) 0.06315(18) 0.65128(14)
H4 H 0.3627 0.1405 0.6503
C16 C 0.2694(2) -0.16377(18) 0.65271(15)
C17 C 0.3028(3) 0.54633(18) 0.86369(15)
H5 H 0.3744 0.5981 0.8797
C18 C 0.2869(3) 0.0057(2) 0.57819(16)
H6 H 0.2753 0.0450 0.5282
C19 C 0.0642(3) 0.5073(2) 0.83319(16)
H7 H -0.0249 0.5321 0.8298
C20 C 0.8460(2) 0.0184(2) 1.08429(15)
H8 H 0.8520 0.0743 1.1251
C21 C 0.9332(2) -0.1518(2) 1.03373(17)
H9 H 0.9979 -0.2103 1.0403
C22 C 0.0901(2) 0.39443(18) 0.81672(15)
H10 H 0.0178 0.3434 0.8006
C23 C 0.9417(2) -0.0684(2) 1.09351(16)
H11 H 1.0123 -0.0706 1.1403
C24 C 0.2522(3) -0.1089(2) 0.57829(16)
H12 H 0.2180 -0.1479 0.5291
C25 C 0.1710(3) 0.58305(18) 0.85469(15)
H13 H 0.1535 0.6603 0.8632
loop_
_geom_bond_atom_site_label_1
_geom_bond_atom_site_label_2
_geom_bond_site_symmetry_1
_geom_bond_site_symmetry_2
O1 C2 1_555 1_555
F1 C16 1_555 1_555
O2 C11 1_555 1_555
O3 C8 1_555 1_555
O4 C9 1_555 1_555
C1 C5 1_555 1_555
C2 C7 1_555 1_555
C3 C6 1_555 1_555
C4 C9 1_555 1_555
C5 C10 1_555 1_555
C6 C8 1_555 1_555
C7 C1 1_555 1_555
C8 C7 1_555 1_555
C9 C13 1_555 1_555
C10 H1 1_555 1_555
C11 C2 1_555 1_555
C12 C4 1_555 1_555
H2 C12 1_555 1_555
C13 O1 1_555 1_555
C14 C6 1_555 1_555
H3 C14 1_555 1_555
C15 C5 1_555 1_555
H4 C15 1_555 1_555
C16 C10 1_555 1_555
C17 C12 1_555 1_555
H5 C17 1_555 1_555
C18 C15 1_555 1_555
H6 C18 1_555 1_555
C19 H7 1_555 1_555
C20 C3 1_555 1_555
H8 C20 1_555 1_555
C21 C14 1_555 1_555
H9 C21 1_555 1_555
C22 C4 1_555 1_555
H10 C22 1_555 1_555
C23 C20 1_555 1_555
H11 C23 1_555 1_555
C24 C16 1_555 1_555
H12 C24 1_555 1_555
C25 C17 1_555 1_555
H13 C25 1_555 1_555
C1 C13 1_555 1_555
C3 C11 1_555 1_555
C18 C24 1_555 1_555
C19 C22 1_555 1_555
C19 C25 1_555 1_555
C21 C23 1_555 1_555

#END
