
#######################################################################
#
#                 Cambridge Crystallographic Data Centre
#                                CCDC 
#
#######################################################################
#
# If this CIF has been generated from an entry in the Cambridge 
# Structural Database, then it will include bibliographic, chemical, 
# crystal, experimental, refinement or atomic coordinate data resulting 
# from the CCDC's data processing and validation procedures.
#
#######################################################################

data_PAKGOZ
_chemical_formula_moiety         'C38 H42 F2 O10'
_chemical_name_systematic        
'Tetraethyl 6,12-bis(4-fluorophenyl)-2,4,8,10-tetramethyl-3,9-dioxapentacyclo[6.4.0.0^2,7^.0^4,11^.0^5,10^]dodecane-1,5,7,11-tetracarboxylate'
_symmetry_cell_setting           monoclinic
_symmetry_space_group_name_H-M   'P 21/n'
_symmetry_Int_Tables_number      14
_space_group_name_Hall           '-P 2yn'
loop_
_symmetry_equiv_pos_site_id
_symmetry_equiv_pos_as_xyz
1 x,y,z
2 1/2-x,1/2+y,1/2-z
3 -x,-y,-z
4 1/2+x,1/2-y,1/2+z
_cell_length_a                   10.713(2)
_cell_length_b                   11.957(2)
_cell_length_c                   13.945(3)
_cell_angle_alpha                90
_cell_angle_beta                 98.82(3)
_cell_angle_gamma                90
_cell_volume                     1765.17
_exptl_crystal_colour            colorless
_exptl_crystal_description       block
_cell_formula_units_Z            2
loop_
_atom_site_label
_atom_site_type_symbol
_atom_site_fract_x
_atom_site_fract_y
_atom_site_fract_z
F1 F 0.24698(17) 1.06096(12) 0.60875(12)
O1 O 0.04612(12) 0.39059(11) 0.59173(9)
O2 O 0.34578(13) 0.55873(13) 0.61612(11)
O3 O 0.34656(15) 0.60577(16) 0.46215(12)
O4 O 0.02412(15) 0.35825(14) 0.25296(11)
O5 O 0.20546(19) 0.3174(2) 0.34234(14)
C1 C 0.12376(18) 0.41551(16) 0.52002(14)
C2 C 0.15093(18) 0.54460(16) 0.51422(14)
C3 C 0.06952(18) 0.54834(16) 0.41049(14)
C4 C 0.04741(18) 0.41757(16) 0.41449(14)
C5 C 0.09393(18) 0.61034(17) 0.59238(14)
H1 H 0.1342 0.5798 0.6548
C6 C 0.23574(19) 0.33786(17) 0.54457(16)
H2 H 0.2716 0.3472 0.6115
H3 H 0.2981 0.3553 0.5042
H4 H 0.2085 0.2618 0.5335
C7 C 0.2907(2) 0.57333(17) 0.52424(17)
C8 C 0.4788(2) 0.5890(3) 0.63961(18)
H5 H 0.4902 0.6675 0.6256
H6 H 0.5287 0.5449 0.6010
C9 C 0.5199(3) 0.5669(3) 0.7442(2)
H7 H 0.6073 0.5866 0.7614
H8 H 0.5090 0.4890 0.7572
H9 H 0.4699 0.6108 0.7817
C10 C 0.1237(2) 0.59409(19) 0.32436(15)
H10 H 0.0611 0.5897 0.2673
H11 H 0.1963 0.5509 0.3148
H12 H 0.1480 0.6707 0.3363
C11 C 0.1031(2) 0.35591(18) 0.33561(16)
C12 C 0.0634(3) 0.3035(3) 0.16902(19)
H13 H 0.1445 0.2675 0.1883
H14 H 0.0025 0.2463 0.1448
C13 C 0.0731(5) 0.3815(4) 0.0949(3)
H15 H 0.0985 0.3439 0.0403
H16 H 0.1348 0.4373 0.1184
H17 H -0.0074 0.4167 0.0755
C14 C 0.12851(18) 0.73363(17) 0.59473(15)
C15 C 0.0913(2) 0.80658(17) 0.51797(17)
H18 H 0.0385 0.7814 0.4630
C16 C 0.1325(2) 0.91666(19) 0.52292(18)
H19 H 0.1084 0.9652 0.4713
C17 C 0.2085(2) 0.95291(19) 0.60392(19)
C18 C 0.2485(2) 0.8843(2) 0.68106(18)
H20 H 0.3016 0.9106 0.7354
C19 C 0.2075(2) 0.77512(19) 0.67550(16)
H21 H 0.2333 0.7274 0.7274
F1B F -0.24698(17) -0.06096(12) 0.39125(12)
O1B O -0.04612(12) 0.60941(11) 0.40827(9)
O2B O -0.34578(13) 0.44127(13) 0.38388(11)
O3B O -0.34656(15) 0.39423(16) 0.53785(12)
O4B O -0.02412(15) 0.64175(14) 0.74704(11)
O5B O -0.20546(19) 0.6826(2) 0.65766(14)
C1B C -0.12376(18) 0.58449(16) 0.47998(14)
C2B C -0.15093(18) 0.45540(16) 0.48578(14)
C3B C -0.06952(18) 0.45166(16) 0.58951(14)
C4B C -0.04741(18) 0.58243(16) 0.58551(14)
C5B C -0.09393(18) 0.38966(17) 0.40762(14)
H1B H -0.1342 0.4202 0.3452
C6B C -0.23574(19) 0.66214(17) 0.45543(16)
H2B H -0.2716 0.6528 0.3885
H3B H -0.2981 0.6447 0.4958
H4B H -0.2085 0.7382 0.4665
C7B C -0.2907(2) 0.42667(17) 0.47576(17)
C8B C -0.4788(2) 0.4110(3) 0.36039(18)
H5B H -0.4902 0.3325 0.3744
H6B H -0.5287 0.4551 0.3990
C9B C -0.5199(3) 0.4331(3) 0.2558(2)
H7B H -0.6073 0.4134 0.2386
H8B H -0.5090 0.5110 0.2428
H9B H -0.4699 0.3892 0.2183
C10B C -0.1237(2) 0.40591(19) 0.67564(15)
H10B H -0.0611 0.4103 0.7327
H11B H -0.1963 0.4491 0.6852
H12B H -0.1480 0.3293 0.6637
C11B C -0.1031(2) 0.64409(18) 0.66439(16)
C12B C -0.0634(3) 0.6965(3) 0.83098(19)
H13B H -0.1445 0.7325 0.8117
H14B H -0.0025 0.7537 0.8552
C13B C -0.0731(5) 0.6185(4) 0.9051(3)
H15B H -0.0985 0.6561 0.9597
H16B H -0.1348 0.5627 0.8816
H17B H 0.0074 0.5833 0.9245
C14B C -0.12851(18) 0.26637(17) 0.40527(15)
C15B C -0.0913(2) 0.19342(17) 0.48203(17)
H18B H -0.0385 0.2186 0.5370
C16B C -0.1325(2) 0.08334(19) 0.47708(18)
H19B H -0.1084 0.0348 0.5287
C17B C -0.2085(2) 0.04709(19) 0.39608(19)
C18B C -0.2485(2) 0.1157(2) 0.31894(18)
H20B H -0.3016 0.0894 0.2646
C19B C -0.2075(2) 0.22488(19) 0.32450(16)
H21B H -0.2333 0.2726 0.2726
loop_
_geom_bond_atom_site_label_1
_geom_bond_atom_site_label_2
_geom_bond_site_symmetry_1
_geom_bond_site_symmetry_2
F1 C17 1_555 1_555
O1 C1 1_555 1_555
O2 C7 1_555 1_555
O3 C7 1_555 1_555
O4 C11 1_555 1_555
O5 C11 1_555 1_555
C1 C2 1_555 1_555
C2 C3 1_555 1_555
C3 C4 1_555 1_555
C4 C1 1_555 1_555
C5 C2 1_555 1_555
H1 C5 1_555 1_555
C6 C1 1_555 1_555
H2 C6 1_555 1_555
H3 C6 1_555 1_555
H4 C6 1_555 1_555
C7 C2 1_555 1_555
C8 O2 1_555 1_555
H5 C8 1_555 1_555
H6 C8 1_555 1_555
C9 C8 1_555 1_555
H7 C9 1_555 1_555
H8 C9 1_555 1_555
H9 C9 1_555 1_555
C10 C3 1_555 1_555
H10 C10 1_555 1_555
H11 C10 1_555 1_555
H12 C10 1_555 1_555
C11 C4 1_555 1_555
C12 O4 1_555 1_555
H13 C12 1_555 1_555
H14 C12 1_555 1_555
C13 C12 1_555 1_555
H15 C13 1_555 1_555
H16 C13 1_555 1_555
H17 C13 1_555 1_555
C14 C5 1_555 1_555
C15 C14 1_555 1_555
H18 C15 1_555 1_555
C16 C15 1_555 1_555
H19 C16 1_555 1_555
C17 C16 1_555 1_555
C18 C17 1_555 1_555
H20 C18 1_555 1_555
C19 C14 1_555 1_555
H21 C19 1_555 1_555
F1B C17B 1_555 1_555
O1B C3 1_555 1_555
O2B C7B 1_555 1_555
O3B C7B 1_555 1_555
O4B C11B 1_555 1_555
O5B C11B 1_555 1_555
C1B O1B 1_555 1_555
C2B C1B 1_555 1_555
C3B O1 1_555 1_555
C4B C5 1_555 1_555
C5B C4 1_555 1_555
H1B C5B 1_555 1_555
C6B C1B 1_555 1_555
H2B C6B 1_555 1_555
H3B C6B 1_555 1_555
H4B C6B 1_555 1_555
C7B C2B 1_555 1_555
C8B O2B 1_555 1_555
H5B C8B 1_555 1_555
H6B C8B 1_555 1_555
C9B C8B 1_555 1_555
H7B C9B 1_555 1_555
H8B C9B 1_555 1_555
H9B C9B 1_555 1_555
C10B C3B 1_555 1_555
H10B C10B 1_555 1_555
H11B C10B 1_555 1_555
H12B C10B 1_555 1_555
C11B C4B 1_555 1_555
C12B O4B 1_555 1_555
H13B C12B 1_555 1_555
H14B C12B 1_555 1_555
C13B C12B 1_555 1_555
H15B C13B 1_555 1_555
H16B C13B 1_555 1_555
H17B C13B 1_555 1_555
C14B C5B 1_555 1_555
C15B C14B 1_555 1_555
H18B C15B 1_555 1_555
C16B C15B 1_555 1_555
H19B C16B 1_555 1_555
C17B C16B 1_555 1_555
C18B C17B 1_555 1_555
H20B C18B 1_555 1_555
C19B C14B 1_555 1_555
H21B C19B 1_555 1_555
C18 C19 1_555 1_555
C1B C4B 1_555 1_555
C2B C3B 1_555 1_555
C2B C5B 1_555 1_555
C3B C4B 1_555 1_555
C18B C19B 1_555 1_555

#END
