
#######################################################################
#
#                 Cambridge Crystallographic Data Centre
#                                CCDC 
#
#######################################################################
#
# If this CIF has been generated from an entry in the Cambridge 
# Structural Database, then it will include bibliographic, chemical, 
# crystal, experimental, refinement or atomic coordinate data resulting 
# from the CCDC's data processing and validation procedures.
#
#######################################################################

data_PAKJOD
_chemical_formula_moiety         'C12 H17 N1 O6'
_chemical_name_systematic        
'methyl 5-acetamido-3-ethyl-1-hydroxy-2-methoxy-4-oxocyclopent-2-ene-1-carboxylate'
_symmetry_cell_setting           monoclinic
_symmetry_space_group_name_H-M   'P 21/c'
_symmetry_Int_Tables_number      14
_space_group_name_Hall           '-P 2ybc'
loop_
_symmetry_equiv_pos_site_id
_symmetry_equiv_pos_as_xyz
1 x,y,z
2 -x,1/2+y,1/2-z
3 -x,-y,-z
4 x,1/2-y,1/2+z
_cell_length_a                   16.9602(5)
_cell_length_b                   17.1321(5)
_cell_length_c                   9.1992(2)
_cell_angle_alpha                90
_cell_angle_beta                 97.738(2)
_cell_angle_gamma                90
_cell_volume                     2648.62
_exptl_crystal_colour            colorless
_exptl_crystal_description       'thin plate'
_cell_formula_units_Z            8
loop_
_atom_site_label
_atom_site_type_symbol
_atom_site_fract_x
_atom_site_fract_y
_atom_site_fract_z
O1 O 0.66435(8) 0.24573(8) 0.62179(14)
N1 N 0.81886(9) 0.26129(9) 0.53301(16)
H1 H 0.8296 0.2737 0.6264
C1 C 0.67997(11) 0.29789(11) 0.53791(19)
O2 O 0.66209(8) 0.49103(8) 0.40235(14)
C2 C 0.63948(11) 0.37114(11) 0.5126(2)
O3 O 0.75319(8) 0.38221(8) 0.23304(13)
H2 H 0.7223 0.3477 0.1932
C3 C 0.68399(11) 0.41781(11) 0.43612(19)
O4 O 0.89414(8) 0.41408(8) 0.39135(14)
C4 C 0.75571(11) 0.37793(11) 0.38555(19)
O5 O 0.83459(8) 0.43138(8) 0.59262(13)
C5 C 0.74879(11) 0.29334(11) 0.44793(19)
H3 H 0.7328 0.2575 0.3632
O6 O 0.85931(9) 0.19626(8) 0.34255(14)
C6 C 0.56369(12) 0.39220(12) 0.5701(2)
H4 H 0.5690 0.4450 0.6141
H5 H 0.5545 0.3550 0.6484
C7 C 0.49227(13) 0.39092(14) 0.4505(3)
H6 H 0.4442 0.4052 0.4927
H7 H 0.4859 0.3384 0.4083
H8 H 0.5007 0.4283 0.3735
C8 C 0.72064(12) 0.54463(11) 0.3586(2)
H9 H 0.6950 0.5945 0.3291
H10 H 0.7440 0.5225 0.2760
H11 H 0.7626 0.5532 0.4413
C9 C 0.83618(11) 0.41099(11) 0.4533(2)
C10 C 0.91156(12) 0.45049(12) 0.6727(2)
H12 H 0.9057 0.4623 0.7749
H13 H 0.9335 0.4961 0.6278
H14 H 0.9477 0.4060 0.6696
C11 C 0.86865(12) 0.21271(11) 0.4736(2)
C12 C 0.93493(12) 0.18019(12) 0.5806(2)
H15 H 0.9689 0.1469 0.5285
H16 H 0.9126 0.1492 0.6548
H17 H 0.9666 0.2231 0.6284
O7 O 0.64909(8) 0.75128(8) 1.11580(14)
N2 N 0.80341(9) 0.74119(9) 1.02134(16)
H18 H 0.8140 0.7315 1.1159
C13 C 0.66634(11) 0.69919(11) 1.03337(19)
O8 O 0.65593(8) 0.50529(7) 0.89939(14)
C14 C 0.63027(11) 0.62355(11) 1.0132(2)
O9 O 0.73751(8) 0.61856(8) 0.72329(13)
H19 H 0.7091 0.6554 0.6855
C15 C 0.67454(11) 0.57946(11) 0.93295(19)
O10 O 0.88268(8) 0.59467(8) 0.87583(14)
C16 C 0.74299(11) 0.62282(11) 0.87701(19)
O11 O 0.82614(8) 0.56980(8) 1.07840(13)
C17 C 0.73354(11) 0.70694(11) 0.93941(19)
H20 H 0.7150 0.7423 0.8552
O12 O 0.84254(9) 0.80240(8) 0.82569(14)
C18 C 0.55762(12) 0.60004(12) 1.0788(2)
H21 H 0.5622 0.6193 1.1811
H22 H 0.5544 0.5424 1.0813
C19 C 0.48192(13) 0.63229(14) 0.9924(3)
H23 H 0.4361 0.6175 1.0409
H24 H 0.4755 0.6109 0.8927
H25 H 0.4854 0.6893 0.9878
C20 C 0.71649(12) 0.45467(11) 0.8540(2)
H26 H 0.6926 0.4045 0.8215
H27 H 0.7584 0.4462 0.9368
H28 H 0.7394 0.4791 0.7730
C21 C 0.82543(11) 0.59349(11) 0.9401(2)
C22 C 0.90421(12) 0.55225(13) 1.1546(2)
H29 H 0.8996 0.5363 1.2554
H30 H 0.9379 0.5988 1.1563
H31 H 0.9280 0.5098 1.1039
C23 C 0.85304(12) 0.78769(11) 0.9577(2)
C24 C 0.92127(12) 0.82037(12) 1.0603(2)
H32 H 0.9514 0.8569 1.0070
H33 H 0.9562 0.7777 1.1002
H34 H 0.9008 0.8479 1.1409
loop_
_geom_bond_atom_site_label_1
_geom_bond_atom_site_label_2
_geom_bond_site_symmetry_1
_geom_bond_site_symmetry_2
O1 C1 1_555 1_555
N1 H1 1_555 1_555
C1 C2 1_555 1_555
O2 C3 1_555 1_555
C2 C3 1_555 1_555
O3 H2 1_555 1_555
C3 C4 1_555 1_555
O4 C9 1_555 1_555
C4 O3 1_555 1_555
O5 C9 1_555 1_555
C5 N1 1_555 1_555
H3 C5 1_555 1_555
O6 C11 1_555 1_555
C6 C2 1_555 1_555
H4 C6 1_555 1_555
H5 C6 1_555 1_555
C7 C6 1_555 1_555
H6 C7 1_555 1_555
H7 C7 1_555 1_555
H8 C7 1_555 1_555
C8 O2 1_555 1_555
H9 C8 1_555 1_555
H10 C8 1_555 1_555
H11 C8 1_555 1_555
C9 C4 1_555 1_555
C10 O5 1_555 1_555
H12 C10 1_555 1_555
H13 C10 1_555 1_555
H14 C10 1_555 1_555
C11 N1 1_555 1_555
C12 C11 1_555 1_555
H15 C12 1_555 1_555
H16 C12 1_555 1_555
H17 C12 1_555 1_555
O7 C13 1_555 1_555
N2 H18 1_555 1_555
C13 C14 1_555 1_555
O8 C15 1_555 1_555
C14 C15 1_555 1_555
O9 H19 1_555 1_555
C15 C16 1_555 1_555
O10 C21 1_555 1_555
C16 O9 1_555 1_555
O11 C21 1_555 1_555
C17 N2 1_555 1_555
H20 C17 1_555 1_555
O12 C23 1_555 1_555
C18 C14 1_555 1_555
H21 C18 1_555 1_555
H22 C18 1_555 1_555
C19 C18 1_555 1_555
H23 C19 1_555 1_555
H24 C19 1_555 1_555
H25 C19 1_555 1_555
C20 O8 1_555 1_555
H26 C20 1_555 1_555
H27 C20 1_555 1_555
H28 C20 1_555 1_555
C21 C16 1_555 1_555
C22 O11 1_555 1_555
H29 C22 1_555 1_555
H30 C22 1_555 1_555
H31 C22 1_555 1_555
C23 N2 1_555 1_555
C24 C23 1_555 1_555
H32 C24 1_555 1_555
H33 C24 1_555 1_555
H34 C24 1_555 1_555
C1 C5 1_555 1_555
C4 C5 1_555 1_555
C13 C17 1_555 1_555
C16 C17 1_555 1_555

#END
