
#######################################################################
#
#                 Cambridge Crystallographic Data Centre
#                                CCDC 
#
#######################################################################
#
# If this CIF has been generated from an entry in the Cambridge 
# Structural Database, then it will include bibliographic, chemical, 
# crystal, experimental, refinement or atomic coordinate data resulting 
# from the CCDC's data processing and validation procedures.
#
#######################################################################

data_PAKPUO
_chemical_formula_moiety         'C14 H22 B10 N2 O2'
_chemical_name_systematic        
1,2-bis(2-Pyridylmethanol)-1,2-dicarba-closo-dodecaborane
_symmetry_cell_setting           monoclinic
_symmetry_space_group_name_H-M   'P 21/c'
_symmetry_Int_Tables_number      14
_space_group_name_Hall           '-P 2ybc'
loop_
_symmetry_equiv_pos_site_id
_symmetry_equiv_pos_as_xyz
1 x,y,z
2 -x,1/2+y,1/2-z
3 -x,-y,-z
4 x,1/2-y,1/2+z
_cell_length_a                   13.2742(5)
_cell_length_b                   9.9648(5)
_cell_length_c                   14.8699(7)
_cell_angle_alpha                90
_cell_angle_beta                 97.441(4)
_cell_angle_gamma                90
_cell_volume                     1950.35
_exptl_crystal_colour            colorless
_exptl_crystal_description       block
_cell_formula_units_Z            4
loop_
_atom_site_label
_atom_site_type_symbol
_atom_site_fract_x
_atom_site_fract_y
_atom_site_fract_z
N1 N 0.00005(10) 0.46631(16) 0.21351(9)
O1 O -0.18123(10) 0.68514(12) 0.10048(8)
H1 H -0.2035 0.7017 0.0476
C1 C -0.08624(11) 0.53711(17) 0.20264(10)
O2 O -0.11719(9) 0.58109(17) -0.08119(8)
H2 H -0.0809 0.5724 -0.1215
C2 C -0.20823(11) 0.44324(16) 0.07312(10)
N2 N -0.28600(11) 0.74290(15) -0.07875(10)
C3 C -0.13306(12) 0.55960(17) 0.10521(10)
H3 H -0.0787 0.5612 0.0665
C4 C -0.21342(12) 0.52793(19) -0.11026(11)
H4 H -0.2079 0.4748 -0.1649
C5 C -0.28670(12) 0.64217(19) -0.13769(11)
C6 C 0.04084(13) 0.4355(2) 0.29758(12)
H5 H 0.1000 0.3845 0.3056
C7 C -0.25049(12) 0.43172(17) -0.03885(11)
B1 B -0.33314(13) 0.48515(19) 0.03583(13)
H6 H -0.3637 0.5876 0.0375
B2 B -0.16278(15) 0.3161(2) 0.00967(15)
H7 H -0.0839 0.3105 -0.0054
C8 C -0.34730(15) 0.8469(2) -0.10209(16)
H8 H -0.3486 0.9171 -0.0611
C9 C -0.00089(15) 0.4761(3) 0.37308(13)
H9 H 0.0281 0.4502 0.4308
C10 C -0.34634(15) 0.6433(2) -0.22107(14)
H10 H -0.3449 0.5716 -0.2609
B3 B -0.30011(15) 0.3902(2) 0.13579(15)
H11 H -0.3095 0.4307 0.2030
C11 C -0.08612(16) 0.5554(3) 0.36173(12)
H12 H -0.1136 0.5882 0.4118
B4 B -0.19610(16) 0.2849(2) 0.11953(15)
H13 H -0.1383 0.2570 0.1762
B5 B -0.37163(15) 0.3726(2) -0.05436(15)
H14 H -0.4278 0.4022 -0.1119
C12 C -0.13031(14) 0.5859(2) 0.27514(12)
H15 H -0.1887 0.6383 0.2657
B6 B -0.40528(15) 0.3427(2) 0.05605(17)
H16 H -0.4840 0.3517 0.0710
C13 C -0.40882(16) 0.8553(3) -0.18404(19)
H17 H -0.4501 0.9298 -0.1979
B7 B -0.36597(18) 0.2077(2) -0.0085(2)
H18 H -0.4197 0.1289 -0.0354
C14 C -0.40806(17) 0.7526(3) -0.24424(17)
H19 H -0.4485 0.7561 -0.3001
B8 B -0.23540(18) 0.1724(2) 0.03021(19)
H20 H -0.2035 0.0707 0.0284
B9 B -0.26824(17) 0.2661(2) -0.06993(17)
H21 H -0.2579 0.2256 -0.1369
B10 B -0.32085(17) 0.2181(2) 0.10799(19)
H22 H -0.3447 0.1457 0.1569
loop_
_geom_bond_atom_site_label_1
_geom_bond_atom_site_label_2
_geom_bond_site_symmetry_1
_geom_bond_site_symmetry_2
N1 C1 1_555 1_555
O1 H1 1_555 1_555
C1 C3 1_555 1_555
O2 H2 1_555 1_555
C2 C3 1_555 1_555
N2 C5 1_555 1_555
C3 O1 1_555 1_555
H3 C3 1_555 1_555
C4 O2 1_555 1_555
H4 C4 1_555 1_555
C5 C4 1_555 1_555
C6 N1 1_555 1_555
H5 C6 1_555 1_555
C7 C2 1_555 1_555
B1 C2 1_555 1_555
H6 B1 1_555 1_555
B2 C2 1_555 1_555
H7 B2 1_555 1_555
C8 N2 1_555 1_555
H8 C8 1_555 1_555
C9 C6 1_555 1_555
H9 C9 1_555 1_555
C10 C5 1_555 1_555
H10 C10 1_555 1_555
B3 C2 1_555 1_555
H11 B3 1_555 1_555
C11 C9 1_555 1_555
H12 C11 1_555 1_555
B4 C2 1_555 1_555
H13 B4 1_555 1_555
B5 C7 1_555 1_555
H14 B5 1_555 1_555
C12 C1 1_555 1_555
H15 C12 1_555 1_555
B6 B1 1_555 1_555
H16 B6 1_555 1_555
C13 C8 1_555 1_555
H17 C13 1_555 1_555
B7 B5 1_555 1_555
H18 B7 1_555 1_555
C14 C10 1_555 1_555
H19 C14 1_555 1_555
B8 B2 1_555 1_555
H20 B8 1_555 1_555
B9 C7 1_555 1_555
H21 B9 1_555 1_555
B10 B3 1_555 1_555
H22 B10 1_555 1_555
C4 C7 1_555 1_555
C7 B1 1_555 1_555
C7 B2 1_555 1_555
B1 B3 1_555 1_555
B1 B5 1_555 1_555
B2 B4 1_555 1_555
B2 B9 1_555 1_555
B3 B4 1_555 1_555
B3 B6 1_555 1_555
C11 C12 1_555 1_555
B4 B8 1_555 1_555
B4 B10 1_555 1_555
B5 B6 1_555 1_555
B5 B9 1_555 1_555
B6 B7 1_555 1_555
B6 B10 1_555 1_555
C13 C14 1_555 1_555
B7 B8 1_555 1_555
B7 B9 1_555 1_555
B7 B10 1_555 1_555
B8 B9 1_555 1_555
B8 B10 1_555 1_555

#END
