
#######################################################################
#
#                 Cambridge Crystallographic Data Centre
#                                CCDC 
#
#######################################################################
#
# If this CIF has been generated from an entry in the Cambridge 
# Structural Database, then it will include bibliographic, chemical, 
# crystal, experimental, refinement or atomic coordinate data resulting 
# from the CCDC's data processing and validation procedures.
#
#######################################################################

data_PAKRUP
_chemical_formula_moiety         'C20 H21 N1 O3'
_chemical_name_systematic        
6-azahexacyclo[16.2.1.0^2,17^.0^3,15^.0^4,8^.0^9,14^]henicosa-14,19-diene-5,7,16-trione
_symmetry_cell_setting           monoclinic
_symmetry_space_group_name_H-M   'P 21/n'
_symmetry_Int_Tables_number      14
_space_group_name_Hall           '-P 2yn'
loop_
_symmetry_equiv_pos_site_id
_symmetry_equiv_pos_as_xyz
1 x,y,z
2 1/2-x,1/2+y,1/2-z
3 -x,-y,-z
4 1/2+x,1/2-y,1/2+z
_cell_length_a                   10.470(4)
_cell_length_b                   6.352(2)
_cell_length_c                   24.228(8)
_cell_angle_alpha                90
_cell_angle_beta                 95.129(14)
_cell_angle_gamma                90
_cell_volume                     1604.84
_cell_formula_units_Z            4
loop_
_atom_site_label
_atom_site_type_symbol
_atom_site_fract_x
_atom_site_fract_y
_atom_site_fract_z
C1 C 0.3474(11) -0.0817(19) 0.4050(5)
C2 C 0.2235(10) -0.0561(18) 0.3784(5)
H1 H 0.2200 0.0675 0.3541
C3 C 0.1014(13) -0.049(2) 0.4209(6)
H2 H 0.1144 0.0445 0.4530
C4 C -0.0112(13) -0.019(3) 0.3872(7)
H3 H -0.0635 0.0994 0.3848
C5 C -0.0272(11) -0.195(3) 0.3595(6)
H4 H -0.0968 -0.2203 0.3338
C6 C 0.0764(10) -0.3507(18) 0.3732(4)
H5 H 0.0540 -0.4979 0.3649
C7 C 0.2022(9) -0.2598(19) 0.3441(4)
H6 H 0.1781 -0.2251 0.3052
C8 C 0.0887(10) -0.291(2) 0.4346(5)
H7 H 0.1646 -0.3485 0.4550
H8 H 0.0127 -0.3235 0.4530
C9 C 0.4047(11) -0.2819(17) 0.3885(4)
C10 C 0.5207(11) -0.3658(18) 0.3986(4)
C11 C 0.6164(10) -0.2702(19) 0.4329(4)
H9 H 0.5792 -0.1670 0.4563
H10 H 0.6758 -0.1984 0.4108
C12 C 0.6825(12) -0.429(2) 0.4665(5)
H11 H 0.6429 -0.4347 0.5011
H12 H 0.7697 -0.3797 0.4752
C13 C 0.6902(13) -0.651(2) 0.4454(5)
H13 H 0.7698 -0.7140 0.4608
H14 H 0.6199 -0.7321 0.4579
C14 C 0.6839(11) -0.659(2) 0.3837(5)
H15 H 0.7499 -0.5724 0.3693
H16 H 0.6903 -0.8016 0.3702
C15 C 0.5539(11) -0.5691(17) 0.3699(5)
H17 H 0.4922 -0.6756 0.3798
C16 C 0.5372(11) -0.5463(19) 0.3058(4)
H18 H 0.5368 -0.6857 0.2884
C17 C 0.6343(14) -0.397(2) 0.2782(4)
C18 C 0.4450(14) -0.254(2) 0.2626(5)
C19 C 0.4072(10) -0.4466(19) 0.2953(5)
H19 H 0.3552 -0.5382 0.2697
C20 C 0.3226(10) -0.3977(17) 0.3490(4)
H20 H 0.3015 -0.5323 0.3657
O1 O 0.3860(8) 0.0453(13) 0.4370(4)
O2 O 0.3763(9) -0.119(2) 0.2455(4)
O3 O 0.7521(9) -0.4112(12) 0.2749(3)
N1 N 0.5749(11) -0.2342(18) 0.2561(4)
H21 H 0.613(9) -0.102(15) 0.230(4)
loop_
_geom_bond_atom_site_label_1
_geom_bond_atom_site_label_2
_geom_bond_site_symmetry_1
_geom_bond_site_symmetry_2
C1 C2 1_555 1_555
C2 H1 1_555 1_555
C3 C2 1_555 1_555
H2 C3 1_555 1_555
C4 C3 1_555 1_555
H3 C4 1_555 1_555
C5 C4 1_555 1_555
H4 C5 1_555 1_555
C6 C5 1_555 1_555
H5 C6 1_555 1_555
C7 C2 1_555 1_555
H6 C7 1_555 1_555
C8 C3 1_555 1_555
H7 C8 1_555 1_555
H8 C8 1_555 1_555
C9 C1 1_555 1_555
C10 C9 1_555 1_555
C11 C10 1_555 1_555
H9 C11 1_555 1_555
H10 C11 1_555 1_555
C12 C11 1_555 1_555
H11 C12 1_555 1_555
H12 C12 1_555 1_555
C13 C12 1_555 1_555
H13 C13 1_555 1_555
H14 C13 1_555 1_555
C14 C13 1_555 1_555
H15 C14 1_555 1_555
H16 C14 1_555 1_555
C15 C10 1_555 1_555
H17 C15 1_555 1_555
C16 C15 1_555 1_555
H18 C16 1_555 1_555
C17 C16 1_555 1_555
C18 C19 1_555 1_555
C19 C16 1_555 1_555
H19 C19 1_555 1_555
C20 C7 1_555 1_555
H20 C20 1_555 1_555
O1 C1 1_555 1_555
O2 C18 1_555 1_555
O3 C17 1_555 1_555
N1 C17 1_555 1_555
H21 N1 1_555 1_555
C6 C7 1_555 1_555
C6 C8 1_555 1_555
C9 C20 1_555 1_555
C14 C15 1_555 1_555
C18 N1 1_555 1_555
C19 C20 1_555 1_555

#END
