
#######################################################################
#
#                 Cambridge Crystallographic Data Centre
#                                CCDC 
#
#######################################################################
#
# If this CIF has been generated from an entry in the Cambridge 
# Structural Database, then it will include bibliographic, chemical, 
# crystal, experimental, refinement or atomic coordinate data resulting 
# from the CCDC's data processing and validation procedures.
#
#######################################################################

data_PAKROJ
_chemical_formula_moiety         'C22 H28 O5'
_chemical_name_systematic        
'dimethyl 13-oxopentacyclo[13.2.1.0^2,14^.0^3,12^.0^6,11^]octadec-11-ene-4,5-dicarboxylate'
_symmetry_cell_setting           monoclinic
_symmetry_space_group_name_H-M   'P 21/a'
_symmetry_Int_Tables_number      14
_space_group_name_Hall           '-P 2yab'
loop_
_symmetry_equiv_pos_site_id
_symmetry_equiv_pos_as_xyz
1 x,y,z
2 1/2-x,1/2+y,-z
3 -x,-y,-z
4 1/2+x,1/2-y,z
_cell_length_a                   17.0589(6)
_cell_length_b                   7.3377(3)
_cell_length_c                   17.2860(7)
_cell_angle_alpha                90
_cell_angle_beta                 118.849(2)
_cell_angle_gamma                90
_cell_volume                     1895.21
_cell_formula_units_Z            4
loop_
_atom_site_label
_atom_site_type_symbol
_atom_site_fract_x
_atom_site_fract_y
_atom_site_fract_z
C1 C 0.53186(16) 1.3512(4) 0.33629(18)
H1 H 0.4999 1.4240 0.2833
H2 H 0.5929 1.3951 0.3693
C2 C 0.48423(16) 1.3558(3) 0.39354(17)
H3 H 0.5243 1.3992 0.4528
H4 H 0.4316 1.4332 0.3670
C3 C 0.45848(13) 1.1558(3) 0.39470(14)
H5 H 0.4461 1.1244 0.4429
C4 C 0.38271(12) 1.1068(3) 0.30157(12)
H6 H 0.3370 1.2025 0.2787
C5 C 0.33957(11) 0.9172(2) 0.29432(12)
H7 H 0.3746 0.8555 0.3511
C6 C 0.24193(11) 0.9145(2) 0.27377(12)
H8 H 0.2391 0.9660 0.3247
C7 C 0.20931(12) 0.7151(3) 0.26265(12)
H9 H 0.1448 0.7210 0.2420
C8 C 0.22018(12) 0.6107(3) 0.19054(11)
H10 H 0.2309 0.4826 0.2087
C9 C 0.13278(13) 0.6180(3) 0.10111(13)
H11 H 0.0843 0.5666 0.1083
H12 H 0.1181 0.7442 0.0832
C10 C 0.14071(15) 0.5137(3) 0.02873(13)
H13 H 0.1502 0.3853 0.0439
H14 H 0.0855 0.5257 -0.0266
C11 C 0.21776(15) 0.5867(3) 0.01806(13)
H15 H 0.2057 0.7122 -0.0019
H16 H 0.2232 0.5162 -0.0266
C12 C 0.30569(15) 0.5772(3) 0.10487(14)
H17 H 0.3216 0.4507 0.1210
H18 H 0.3529 0.6331 0.0970
C13 C 0.29843(12) 0.6734(3) 0.17839(12)
C14 C 0.35161(11) 0.8105(3) 0.22586(12)
C15 C 0.42293(12) 0.9019(3) 0.21375(12)
C16 C 0.43315(12) 1.0963(3) 0.24706(13)
H19 H 0.4078 1.1826 0.1977
C17 C 0.52956(13) 1.1491(3) 0.31383(14)
H20 H 0.5746 1.1120 0.2971
C18 C 0.53909(14) 1.0573(4) 0.39781(14)
H21 H 0.5312 0.9262 0.3919
H22 H 0.5950 1.0872 0.4500
C19 C 0.18062(12) 1.0257(3) 0.19326(13)
C20 C 0.03182(15) 1.1351(4) 0.11348(19)
H23 H 0.0343 1.2628 0.1265
H24 H -0.0257 1.0876 0.1004
H25 H 0.0410 1.1176 0.0634
C21 C 0.25087(13) 0.6256(3) 0.35325(12)
C22 C 0.28092(16) 0.3518(3) 0.43376(14)
H26 H 0.3422 0.3834 0.4729
H27 H 0.2761 0.2224 0.4243
H28 H 0.2445 0.3882 0.4595
O1 O 0.46801(10) 0.8357(2) 0.18329(11)
O2 O 0.19915(9) 1.0917(2) 0.14091(10)
O3 O 0.10030(9) 1.0411(2) 0.18838(11)
O4 O 0.27825(15) 0.7070(2) 0.42179(10)
O5 O 0.25059(10) 0.44461(18) 0.34995(9)
loop_
_geom_bond_atom_site_label_1
_geom_bond_atom_site_label_2
_geom_bond_site_symmetry_1
_geom_bond_site_symmetry_2
C1 H1 1_555 1_555
H2 C1 1_555 1_555
C2 C1 1_555 1_555
H3 C2 1_555 1_555
H4 C2 1_555 1_555
C3 C2 1_555 1_555
H5 C3 1_555 1_555
C4 C3 1_555 1_555
H6 C4 1_555 1_555
C5 C4 1_555 1_555
H7 C5 1_555 1_555
C6 C5 1_555 1_555
H8 C6 1_555 1_555
C7 C6 1_555 1_555
H9 C7 1_555 1_555
C8 C7 1_555 1_555
H10 C8 1_555 1_555
C9 C8 1_555 1_555
H11 C9 1_555 1_555
H12 C9 1_555 1_555
C10 C9 1_555 1_555
H13 C10 1_555 1_555
H14 C10 1_555 1_555
C11 C10 1_555 1_555
H15 C11 1_555 1_555
H16 C11 1_555 1_555
C12 C11 1_555 1_555
H17 C12 1_555 1_555
H18 C12 1_555 1_555
C13 C8 1_555 1_555
C14 C5 1_555 1_555
C15 C14 1_555 1_555
C16 C4 1_555 1_555
H19 C16 1_555 1_555
C17 C1 1_555 1_555
H20 C17 1_555 1_555
C18 C3 1_555 1_555
H21 C18 1_555 1_555
H22 C18 1_555 1_555
C19 C6 1_555 1_555
C20 H23 1_555 1_555
H24 C20 1_555 1_555
H25 C20 1_555 1_555
C21 C7 1_555 1_555
C22 H26 1_555 1_555
H27 C22 1_555 1_555
H28 C22 1_555 1_555
O1 C15 1_555 1_555
O2 C19 1_555 1_555
O3 C19 1_555 1_555
O4 C21 1_555 1_555
O5 C21 1_555 1_555
C12 C13 1_555 1_555
C13 C14 1_555 1_555
C15 C16 1_555 1_555
C16 C17 1_555 1_555
C17 C18 1_555 1_555
C20 O3 1_555 1_555
C22 O5 1_555 1_555

#END
