
#######################################################################
#
#                 Cambridge Crystallographic Data Centre
#                                CCDC 
#
#######################################################################
#
# If this CIF has been generated from an entry in the Cambridge 
# Structural Database, then it will include bibliographic, chemical, 
# crystal, experimental, refinement or atomic coordinate data resulting 
# from the CCDC's data processing and validation procedures.
#
#######################################################################

data_PAKSEA
_chemical_formula_moiety         'C29 H26 O3,C1 H2 Cl2'
_chemical_name_systematic        
'30,31-dioxa-nonacyclo[21.6.1.1^5,12^.0^2,22^.0^3,20^.0^4,13^.0^6,11^.0^14,19^.0^24,29^] hentriaconta-6,8,10,19,24,26,28-heptaen-21-one dichloromethane solvate'
_symmetry_cell_setting           monoclinic
_symmetry_space_group_name_H-M   'P 21/c'
_symmetry_Int_Tables_number      14
_space_group_name_Hall           '-P 2ybc'
loop_
_symmetry_equiv_pos_site_id
_symmetry_equiv_pos_as_xyz
1 x,y,z
2 -x,1/2+y,1/2-z
3 -x,-y,-z
4 x,1/2-y,1/2+z
_cell_length_a                   9.4991(6)
_cell_length_b                   15.8252(13)
_cell_length_c                   16.8571(13)
_cell_angle_alpha                90
_cell_angle_beta                 98.267(5)
_cell_angle_gamma                90
_cell_volume                     2507.71
_cell_formula_units_Z            4
loop_
_atom_site_label
_atom_site_type_symbol
_atom_site_fract_x
_atom_site_fract_y
_atom_site_fract_z
C1 C 0.2383(6) 0.7880(4) 0.1650(3)
C2 C 0.3155(5) 0.7246(3) 0.2233(3)
H1 H 0.2549 0.7044 0.2618
C3 C 0.4597(6) 0.7570(4) 0.2658(4)
H2 H 0.4589 0.8150 0.2861
C4 C 0.5161(6) 0.6914(5) 0.3271(4)
C5 C 0.5240(7) 0.6848(7) 0.4091(4)
H3 H 0.4959 0.7292 0.4393
C6 C 0.5745(10) 0.6108(9) 0.4450(5)
H4 H 0.5829 0.6057 0.5004
C7 C 0.6131(10) 0.5437(8) 0.4004(6)
H5 H 0.6440 0.4936 0.4260
C8 C 0.6062(7) 0.5500(5) 0.3162(4)
H6 H 0.6329 0.5054 0.2857
C9 C 0.5583(6) 0.6251(5) 0.2818(3)
C10 C 0.5240(5) 0.6532(4) 0.1962(3)
H7 H 0.5787 0.6248 0.1589
C11 C 0.3626(5) 0.6509(3) 0.1717(3)
H8 H 0.3222 0.5968 0.1854
C12 C 0.3130(5) 0.6751(3) 0.0824(3)
H9 H 0.3981 0.6884 0.0581
C13 C 0.2331(5) 0.6050(3) 0.0328(3)
H10 H 0.1701 0.5748 0.0643
C14 C 0.3395(5) 0.5436(3) 0.0024(3)
H11 H 0.4229 0.5305 0.0418
C15 C 0.2627(5) 0.4666(3) -0.0358(3)
C16 C 0.2553(6) 0.3830(4) -0.0151(3)
H12 H 0.3039 0.3626 0.0329
C17 C 0.1720(7) 0.3298(4) -0.0689(4)
H13 H 0.1660 0.2728 -0.0565
C18 C 0.0997(6) 0.3591(4) -0.1387(4)
H14 H 0.0450 0.3220 -0.1732
C19 C 0.1063(5) 0.4432(4) -0.1593(3)
H15 H 0.0558 0.4633 -0.2070
C20 C 0.1890(5) 0.4969(3) -0.1079(3)
C21 C 0.2267(5) 0.5894(3) -0.1089(3)
H16 H 0.2154 0.6149 -0.1624
C22 C 0.1488(5) 0.6372(3) -0.0476(3)
H17 H 0.0504 0.6170 -0.0523
C23 C 0.1484(5) 0.7336(3) -0.0604(3)
H18 H 0.2362 0.7476 -0.0818
C24 C 0.0244(7) 0.7580(4) -0.1248(3)
H19 H 0.0414 0.7338 -0.1755
H20 H -0.0618 0.7327 -0.1111
C25 C 0.0002(10) 0.8493(5) -0.1362(4)
H21 H -0.0839 0.8589 -0.1751
H22 H 0.0809 0.8750 -0.1562
C26 C -0.0194(15) 0.8886(6) -0.0560(5)
H23 H -0.0182 0.9495 -0.0622
H24 H -0.1135 0.8733 -0.0448
C27 C 0.0753(9) 0.8684(4) 0.0093(4)
H25 H 0.0261 0.8738 0.0557
H26 H 0.1488 0.9114 0.0145
C28 C 0.1495(6) 0.7839(3) 0.0159(3)
C29 C 0.2263(5) 0.7551(3) 0.0828(3)
O1 O 0.1944(7) 0.8553(3) 0.1873(3)
O2 O 0.5492(4) 0.7436(3) 0.2045(2)
O3 O 0.3719(3) 0.5880(2) -0.06814(18)
Cl1 Cl 0.2443(3) 0.41652(14) 0.19527(12)
C30 C 0.203(2) 0.3807(9) 0.2861(9)
H27 H 0.2665 0.3345 0.3053
H28 H 0.1066 0.3597 0.2792
Cl2 Cl 0.2216(7) 0.4621(5) 0.3561(3)
C31? C 0.282(2) 0.417(2) 0.3021(10)
H29? H 0.3196 0.4708 0.3228
H30? H 0.3463 0.3719 0.3223
Cl3? Cl 0.1028(10) 0.3988(5) 0.3247(5)
loop_
_geom_bond_atom_site_label_1
_geom_bond_atom_site_label_2
_geom_bond_site_symmetry_1
_geom_bond_site_symmetry_2
C1 C2 1_555 1_555
C2 H1 1_555 1_555
C3 C2 1_555 1_555
H2 C3 1_555 1_555
C4 C3 1_555 1_555
C5 C4 1_555 1_555
H3 C5 1_555 1_555
C6 C5 1_555 1_555
H4 C6 1_555 1_555
C7 C6 1_555 1_555
H5 C7 1_555 1_555
C8 C7 1_555 1_555
H6 C8 1_555 1_555
C9 C4 1_555 1_555
C10 C9 1_555 1_555
H7 C10 1_555 1_555
C11 C2 1_555 1_555
H8 C11 1_555 1_555
C12 C11 1_555 1_555
H9 C12 1_555 1_555
C13 C12 1_555 1_555
H10 C13 1_555 1_555
C14 C13 1_555 1_555
H11 C14 1_555 1_555
C15 C14 1_555 1_555
C16 C15 1_555 1_555
H12 C16 1_555 1_555
C17 C16 1_555 1_555
H13 C17 1_555 1_555
C18 C17 1_555 1_555
H14 C18 1_555 1_555
C19 C18 1_555 1_555
H15 C19 1_555 1_555
C20 C15 1_555 1_555
C21 C20 1_555 1_555
H16 C21 1_555 1_555
C22 C13 1_555 1_555
H17 C22 1_555 1_555
C23 C22 1_555 1_555
H18 C23 1_555 1_555
C24 C23 1_555 1_555
H19 C24 1_555 1_555
H20 C24 1_555 1_555
C25 C24 1_555 1_555
H21 C25 1_555 1_555
H22 C25 1_555 1_555
C26 C25 1_555 1_555
H23 C26 1_555 1_555
H24 C26 1_555 1_555
C27 C26 1_555 1_555
H25 C27 1_555 1_555
H26 C27 1_555 1_555
C28 C23 1_555 1_555
C29 C1 1_555 1_555
O1 C1 1_555 1_555
O2 C3 1_555 1_555
O3 C14 1_555 1_555
Cl1 C30 1_555 1_555
C30 H27 1_555 1_555
H28 C30 1_555 1_555
Cl2 C30 1_555 1_555
C8 C9 1_555 1_555
C10 C11 1_555 1_555
C10 O2 1_555 1_555
C12 C29 1_555 1_555
C19 C20 1_555 1_555
C21 C22 1_555 1_555
C21 O3 1_555 1_555
C27 C28 1_555 1_555
C28 C29 1_555 1_555

#END
