
#######################################################################
#
#                 Cambridge Crystallographic Data Centre
#                                CCDC 
#
#######################################################################
#
# If this CIF has been generated from an entry in the Cambridge 
# Structural Database, then it will include bibliographic, chemical, 
# crystal, experimental, refinement or atomic coordinate data resulting 
# from the CCDC's data processing and validation procedures.
#
#######################################################################

data_PAKXUX
_chemical_name_common            'Ulimorelin hydrochloride ethanol solvate'
_chemical_formula_moiety         'C30 H40 F1 N4 O4 1+,Cl1 1-,C2 H6 O1'
_chemical_name_systematic        
'(2R,5S,8R,11S)-5-cyclopropyl-11-(4-fluorobenzyl)-2,7,8-trimethyl-6,9,12-trioxo-3,4,5,6,7,8,9,10,11,12,13,14,15,16-tetradecahydro-2H-1,4,7,10,13-benzoxatetraazacyclooctadecin-4-ium chloride ethanol solvate'
_chemical_properties_biological  'gastroprokinetic properties'
_symmetry_cell_setting           orthorhombic
_symmetry_space_group_name_H-M   'P 21 21 21'
_symmetry_Int_Tables_number      19
_space_group_name_Hall           'P 2ac 2ab'
loop_
_symmetry_equiv_pos_site_id
_symmetry_equiv_pos_as_xyz
1 x,y,z
2 1/2-x,-y,1/2+z
3 1/2+x,1/2-y,-z
4 -x,1/2+y,1/2-z
_cell_length_a                   13.058(9)
_cell_length_b                   14.455(8)
_cell_length_c                   17.647(10)
_cell_angle_alpha                90
_cell_angle_beta                 90
_cell_angle_gamma                90
_cell_volume                     3330.93
_exptl_crystal_colour            colorless
_exptl_crystal_description       Needle
_cell_formula_units_Z            4
loop_
_atom_site_label
_atom_site_type_symbol
_atom_site_fract_x
_atom_site_fract_y
_atom_site_fract_z
C1 C 0.0496(4) 0.6759(4) 0.2373(3)
C2 C 0.0201(4) 0.6948(4) 0.1648(3)
H1 H -0.0345 0.7347 0.156
C3 C 0.0701(4) 0.6556(4) 0.1056(3)
H2 H 0.051 0.6702 0.0562
C4 C 0.1511(4) 0.5926(4) 0.1185(3)
C5 C 0.1757(4) 0.5730(4) 0.1933(3)
H3 H 0.2281 0.5312 0.2034
C6 C 0.1246(4) 0.6138(5) 0.2534(3)
H4 H 0.1411 0.5991 0.3032
C7 C 0.2125(4) 0.5513(4) 0.0546(3)
H5 H 0.167 0.5177 0.021
H6 H 0.2616 0.5077 0.0752
C8 C 0.2697(4) 0.6258(3) 0.0090(3)
H7 H 0.2183 0.6629 -0.0177
C9 C 0.3380(4) 0.5811(3) -0.0503(3)
C10 C 0.5105(4) 0.5648(4) -0.1034(3)
H8 H 0.567 0.6079 -0.1082
H9 H 0.477 0.5609 -0.1523
C11 C 0.5534(4) 0.4702(4) -0.0837(3)
H10 H 0.4976 0.426 -0.0823
H11 H 0.6 0.4512 -0.1235
C12 C 0.6094(4) 0.4668(3) -0.0088(3)
H12 H 0.6614 0.5147 -0.0087
H13 H 0.5612 0.4811 0.0313
C13 C 0.6600(4) 0.3761(3) 0.0095(3)
C14 C 0.6621(5) 0.3017(4) -0.0394(3)
H14 H 0.6315 0.3073 -0.0868
C15 C 0.7085(6) 0.2185(4) -0.0200(4)
H15 H 0.7086 0.1699 -0.0545
C16 C 0.7547(6) 0.2070(4) 0.0500(4)
H16 H 0.7862 0.1514 0.0627
C17 C 0.7531(5) 0.2796(4) 0.1002(3)
H17 H 0.7822 0.2723 0.148
C18 C 0.7083(4) 0.3640(3) 0.0808(3)
C19 C 0.7915(4) 0.4976(3) 0.1340(3)
H18 H 0.8091 0.5153 0.0821
C20 C 0.8847(4) 0.4554(4) 0.1731(4)
H19 H 0.8641 0.428 0.2203
H20 H 0.9345 0.5028 0.1826
H21 H 0.9142 0.4088 0.1411
C21 C 0.7559(4) 0.5808(3) 0.1775(3)
H22 H 0.736 0.5621 0.2282
H23 H 0.8119 0.6245 0.182
C22 C 0.6213(3) 0.7064(3) 0.1819(3)
H24 H 0.5908 0.6847 0.2294
C23 C 0.6975(4) 0.7799(4) 0.1973(4)
H25 H 0.7309 0.8122 0.1552
C24 C 0.7595(18) 0.763(2) 0.2766(15)
H26 H 0.747 0.7056 0.3035
H27 H 0.8293 0.7856 0.2798
C25 C 0.6740(14) 0.8341(18) 0.2754(16)
H28 H 0.6933 0.8988 0.2782
H29 H 0.6111 0.8188 0.3019
C26 C 0.5386(4) 0.7444(3) 0.1296(2)
C27 C 0.4195(4) 0.7743(5) 0.2382(3)
H30 H 0.4585 0.7265 0.2625
H31 H 0.3481 0.7584 0.2396
H32 H 0.43 0.8318 0.2642
C28 C 0.3891(4) 0.8371(3) 0.1052(3)
H33 H 0.4359 0.8776 0.0772
C29 C 0.3115(6) 0.9004(5) 0.1455(4)
H34 H 0.2584 0.8633 0.1677
H35 H 0.282 0.9423 0.1094
H36 H 0.3457 0.935 0.1844
C30 C 0.3331(4) 0.7786(3) 0.0468(3)
F1 F 0.0006(3) 0.7184(3) 0.2968(2)
N1 N 0.3243(3) 0.6872(3) 0.0602(2)
H37 H 0.3519 0.6644 0.1003
N2 N 0.4373(3) 0.6019(3) -0.0481(2)
H38 H 0.4592 0.6383 -0.0131
N3 N 0.6673(3) 0.6268(2) 0.1393(2)
H39 H 0.6182 0.5842 0.1315
H40 H 0.688 0.6473 0.0937
N4 N 0.4526(3) 0.7835(3) 0.15926(19)
O1 O 0.5547(2) 0.7447(2) 0.06031(16)
O2 O 0.2957(3) 0.8168(2) -0.0095(2)
O3 O 0.3006(3) 0.5287(3) -0.0982(2)
O4 O 0.7047(2) 0.4350(2) 0.13348(17)
Cl1 Cl 0.45372(10) 0.53823(9) 0.16142(8)
O5 O 0.5600(12) 0.6077(17) 0.3360(10)
H45 H 0.5937 0.6477 0.3575
C33 C 0.4777(11) 0.5760(12) 0.3863(8)
H46 H 0.4334 0.6276 0.399
H47 H 0.507 0.5523 0.433
C34 C 0.4150(9) 0.4999(10) 0.3477(6)
H48 H 0.3996 0.4521 0.3837
H49 H 0.4537 0.4742 0.3065
H50 H 0.3523 0.5257 0.3286
C31? C 0.6780(17) 0.8679(16) 0.233(2)
H41? H 0.6156 0.8746 0.2628
H42? H 0.7012 0.9236 0.208
C32? C 0.758(2) 0.800(2) 0.261(2)
H43? H 0.8295 0.8159 0.2532
H44? H 0.744 0.7669 0.3079
O6? O 0.5409(11) 0.6087(18) 0.4608(12)
H51? H 0.488 0.5781 0.4605
C35? C 0.558(2) 0.6470(18) 0.3863(14)
H52? H 0.6296 0.6642 0.3794
H53? H 0.5154 0.7006 0.3773
C36? C 0.5278(18) 0.5642(15) 0.3334(14)
H54? H 0.579 0.5167 0.3366
H55? H 0.5227 0.5856 0.2821
H56? H 0.4629 0.5396 0.3493
loop_
_geom_bond_atom_site_label_1
_geom_bond_atom_site_label_2
_geom_bond_site_symmetry_1
_geom_bond_site_symmetry_2
C1 C2 1_555 1_555
C2 H1 1_555 1_555
C3 C2 1_555 1_555
H2 C3 1_555 1_555
C4 C3 1_555 1_555
C5 C4 1_555 1_555
H3 C5 1_555 1_555
C6 C1 1_555 1_555
H4 C6 1_555 1_555
C7 C4 1_555 1_555
H5 C7 1_555 1_555
H6 C7 1_555 1_555
C8 C7 1_555 1_555
H7 C8 1_555 1_555
C9 C8 1_555 1_555
C10 H8 1_555 1_555
H9 C10 1_555 1_555
C11 C10 1_555 1_555
H10 C11 1_555 1_555
H11 C11 1_555 1_555
C12 C11 1_555 1_555
H12 C12 1_555 1_555
H13 C12 1_555 1_555
C13 C12 1_555 1_555
C14 C13 1_555 1_555
H14 C14 1_555 1_555
C15 C14 1_555 1_555
H15 C15 1_555 1_555
C16 C15 1_555 1_555
H16 C16 1_555 1_555
C17 C16 1_555 1_555
H17 C17 1_555 1_555
C18 C13 1_555 1_555
C19 H18 1_555 1_555
C20 C19 1_555 1_555
H19 C20 1_555 1_555
H20 C20 1_555 1_555
H21 C20 1_555 1_555
C21 C19 1_555 1_555
H22 C21 1_555 1_555
H23 C21 1_555 1_555
C22 H24 1_555 1_555
C23 C22 1_555 1_555
H25 C23 1_555 1_555
C24 C23 1_555 1_555
H26 C24 1_555 1_555
H27 C24 1_555 1_555
C25 C23 1_555 1_555
H28 C25 1_555 1_555
H29 C25 1_555 1_555
C26 C22 1_555 1_555
C27 H30 1_555 1_555
H31 C27 1_555 1_555
H32 C27 1_555 1_555
C28 H33 1_555 1_555
C29 C28 1_555 1_555
H34 C29 1_555 1_555
H35 C29 1_555 1_555
H36 C29 1_555 1_555
C30 C28 1_555 1_555
F1 C1 1_555 1_555
N1 C8 1_555 1_555
H37 N1 1_555 1_555
N2 C9 1_555 1_555
H38 N2 1_555 1_555
N3 C21 1_555 1_555
H39 N3 1_555 1_555
H40 N3 1_555 1_555
N4 C26 1_555 1_555
O1 C26 1_555 1_555
O2 C30 1_555 1_555
O3 C9 1_555 1_555
O4 C18 1_555 1_555
O5 H45 1_555 1_555
C33 O5 1_555 1_555
H46 C33 1_555 1_555
H47 C33 1_555 1_555
C34 C33 1_555 1_555
H48 C34 1_555 1_555
H49 C34 1_555 1_555
H50 C34 1_555 1_555
C5 C6 1_555 1_555
C10 N2 1_555 1_555
C17 C18 1_555 1_555
C19 O4 1_555 1_555
C22 N3 1_555 1_555
C24 C25 1_555 1_555
C27 N4 1_555 1_555
C28 N4 1_555 1_555
C30 N1 1_555 1_555

#END
