
#######################################################################
#
#                 Cambridge Crystallographic Data Centre
#                                CCDC 
#
#######################################################################
#
# If this CIF has been generated from an entry in the Cambridge 
# Structural Database, then it will include bibliographic, chemical, 
# crystal, experimental, refinement or atomic coordinate data resulting 
# from the CCDC's data processing and validation procedures.
#
#######################################################################

data_PAKYOR01
_chemical_name_common            
2-[(5-Chloro-2-oxidobenzylidene)azaniumyl]-2-methylpropane-1,3-diol
_chemical_formula_moiety         'C11 H14 Cl1 N1 O3'
_chemical_name_systematic        
4-Chloro-2-(((1,3-dihydroxy-2-methylpropan-2-yl)iminio)methyl)phenolate
_symmetry_cell_setting           orthorhombic
_symmetry_space_group_name_H-M   'P 21 21 21'
_symmetry_Int_Tables_number      19
_space_group_name_Hall           'P 2ac 2ab'
loop_
_symmetry_equiv_pos_site_id
_symmetry_equiv_pos_as_xyz
1 x,y,z
2 1/2-x,-y,1/2+z
3 -x,1/2+y,1/2-z
4 1/2+x,1/2-y,-z
_cell_length_a                   6.0019(16)
_cell_length_b                   8.838(3)
_cell_length_c                   21.555(3)
_cell_angle_alpha                90
_cell_angle_beta                 90
_cell_angle_gamma                90
_cell_volume                     1143.38
_exptl_crystal_colour            yellow
_exptl_crystal_description       block
_cell_formula_units_Z            4
loop_
_atom_site_label
_atom_site_type_symbol
_atom_site_fract_x
_atom_site_fract_y
_atom_site_fract_z
Cl1 Cl 0.67835(15) -0.07637(8) -0.02077(3)
N1 N 0.8677(3) 0.4851(2) 0.15414(9)
O1 O 1.2095(3) 0.30421(19) 0.14623(7)
O2 O 0.5214(3) 0.6832(2) 0.27003(8)
O3 O 1.0926(3) 0.6167(2) 0.24842(11)
C1 C 1.0897(4) 0.2197(3) 0.11037(11)
C2 C 1.1701(5) 0.0789(3) 0.08645(11)
H1 H 1.3107 0.0449 0.0981
C3 C 1.0452(5) -0.0064(3) 0.04693(12)
H2 H 1.1032 -0.0965 0.0316
C4 C 0.8320(5) 0.0388(3) 0.02898(11)
C5 C 0.7447(4) 0.1709(3) 0.05062(10)
H3 H 0.6031 0.2012 0.0383
C6 C 0.8698(4) 0.2620(3) 0.09192(10)
C7 C 0.7671(4) 0.3945(3) 0.11616(10)
H4 H 0.6219 0.4170 0.1042
C8 C 0.7731(4) 0.6211(3) 0.18423(10)
C9 C 0.6345(6) 0.7147(3) 0.13884(12)
H5 H 0.7202 0.7341 0.1021
H6 H 0.5940 0.8089 0.1579
H7 H 0.5020 0.6598 0.1280
C10 C 0.6293(4) 0.5634(3) 0.23840(11)
H8 H 0.5181 0.4938 0.2226
H9 H 0.7229 0.5085 0.2674
C11 C 0.9699(4) 0.7115(3) 0.20833(12)
H10 H 1.0627 0.7446 0.1741
H11 H 0.9180 0.8002 0.2306
H12 H 0.603(4) 0.720(3) 0.2983(10)
H13 H 1.215(3) 0.651(3) 0.2621(12)
H14 H 1.005(2) 0.452(3) 0.1646(11)
loop_
_geom_bond_atom_site_label_1
_geom_bond_atom_site_label_2
_geom_bond_site_symmetry_1
_geom_bond_site_symmetry_2
Cl1 C4 1_555 1_555
N1 C7 1_555 1_555
O1 C1 1_555 1_555
O2 C10 1_555 1_555
O3 C11 1_555 1_555
C1 C2 1_555 1_555
C2 H1 1_555 1_555
C3 C2 1_555 1_555
H2 C3 1_555 1_555
C4 C3 1_555 1_555
C5 C4 1_555 1_555
H3 C5 1_555 1_555
C6 C1 1_555 1_555
C7 C6 1_555 1_555
H4 C7 1_555 1_555
C8 N1 1_555 1_555
C9 C8 1_555 1_555
H5 C9 1_555 1_555
H6 C9 1_555 1_555
H7 C9 1_555 1_555
C10 C8 1_555 1_555
H8 C10 1_555 1_555
H9 C10 1_555 1_555
C11 C8 1_555 1_555
H10 C11 1_555 1_555
H11 C11 1_555 1_555
H12 O2 1_555 1_555
H13 O3 1_555 1_555
H14 N1 1_555 1_555
C5 C6 1_555 1_555

#END
