
#######################################################################
#
#                 Cambridge Crystallographic Data Centre
#                                CCDC 
#
#######################################################################
#
# If this CIF has been generated from an entry in the Cambridge 
# Structural Database, then it will include bibliographic, chemical, 
# crystal, experimental, refinement or atomic coordinate data resulting 
# from the CCDC's data processing and validation procedures.
#
#######################################################################

data_PAKYEI
_chemical_name_common            'Ulimorelin hydrogen succinate ethanol solvate'
_chemical_formula_moiety         'C30 H40 F1 N4 O4 1+,C4 H5 O4 1-,C2 H6 O1'
_chemical_name_systematic        
'(2R,5S,8R,11S)-5-5-cyclopropyl-11-(4-fluorobenzyl)-2,7,8-trimethyl-6,9,12-trioxo-3,4,5,6,7,8,9,10,11,12,13,14,15,16-tetradecahydro-2H-1,4,7,10,13-benzoxatetraazacyclooctadecin-4-ium 3-carboxypropanoate ethanol solvate'
_chemical_properties_biological  'gastroprokinetic properties'
_symmetry_cell_setting           tetragonal
_symmetry_space_group_name_H-M   'P 41'
_symmetry_Int_Tables_number      76
_space_group_name_Hall           'P 4w'
loop_
_symmetry_equiv_pos_site_id
_symmetry_equiv_pos_as_xyz
1 x,y,z
2 -x,-y,1/2+z
3 -y,x,1/4+z
4 y,-x,3/4+z
_cell_length_a                   17.480(5)
_cell_length_b                   17.480(6)
_cell_length_c                   12.466(8)
_cell_angle_alpha                90
_cell_angle_beta                 90
_cell_angle_gamma                90
_cell_volume                     3808.99
_cell_formula_units_Z            4
loop_
_atom_site_label
_atom_site_type_symbol
_atom_site_fract_x
_atom_site_fract_y
_atom_site_fract_z
O1 O 0.896 0.7534 0.3528
H1 H 0.8994 0.7164 0.3929
C1 C 0.9451 0.821 0.399
H2 H 0.915 0.8471 0.4528
H3 H 0.9895 0.7995 0.4341
C2 C 0.9725 0.8798 0.319
H4 H 0.9844 0.855 0.252
H5 H 1.0175 0.9046 0.3461
H6 H 0.9331 0.9171 0.3073
C3 C 1.3474 0.6092 0.6255
C4 C 1.3126 0.5639 0.5526
H7 H 1.339 0.5229 0.5225
C5 C 1.237 0.5784 0.5225
H8 H 1.2128 0.547 0.4728
C6 C 1.1985 0.6393 0.5664
C7 C 1.2382 0.6854 0.6388
H9 H 1.2144 0.7275 0.6698
C8 C 1.3127 0.6682 0.6643
H10 H 1.339 0.7002 0.7112
C9 C 1.1172 0.6559 0.5402
H11 H 1.1114 0.6586 0.4629
H12 H 1.1035 0.7055 0.5696
C10 C 1.0623 0.5954 0.5846
H13 H 1.071 0.5483 0.5437
C11 C 0.9809 0.6168 0.5696
C12 C 0.8526 0.6289 0.6432
H14 H 0.827 0.608 0.5807
H15 H 0.8534 0.6842 0.636
C13 C 0.8074 0.6072 0.7443
H16 H 0.7863 0.5562 0.7363
H17 H 0.8412 0.6071 0.806
C14 C 0.7439 0.6638 0.7614
H18 H 0.7666 0.7137 0.7739
H19 H 0.7145 0.6672 0.6956
C15 C 0.6902 0.6475 0.8509
C16 C 0.6153 0.6239 0.8338
H20 H 0.5988 0.6154 0.7639
C17 C 0.5651 0.6127 0.9165
H21 H 0.5156 0.596 0.9025
C18 C 0.5873 0.6259 1.0177
H22 H 0.5525 0.6192 1.0733
C19 C 0.6611 0.6492 1.041
H23 H 0.676 0.6581 1.1116
C20 C 0.7128 0.6593 0.9567
C21 C 0.8118 0.7078 1.0805
H24 H 0.7959 0.6697 1.1335
C22 C 0.7777 0.7854 1.1076
H25 H 0.7918 0.8218 1.0534
H26 H 0.7967 0.8022 1.1759
H27 H 0.723 0.7813 1.1107
C23 C 0.8967 0.7135 1.0774
H28 H 0.9111 0.7594 1.0386
H29 H 0.9158 0.7182 1.1502
C24 C 1.0188 0.6413 1.0289
H30 H 1.0419 0.691 1.0124
C25 C 1.0454 0.6125 1.1374
H31 H 1.0305 0.5596 1.1529
C26 C 1.0474 0.6627 1.2329
H32 H 1.0319 0.6408 1.301
H33 H 1.0341 0.7161 1.2232
C27 C 1.1204 0.6352 1.1846
H34 H 1.1513 0.6718 1.1454
H35 H 1.1491 0.5965 1.2233
C28 C 1.04 0.5815 0.943
C29 C 1.1722 0.634 0.9287
H36 H 1.1491 0.6795 0.957
H37 H 1.1966 0.6455 0.8616
H38 H 1.2096 0.6152 0.9786
C30 C 1.2151 0.4816 0.8593
H39 H 1.248 0.5182 0.8252
H40 H 1.2215 0.4325 0.8259
H41 H 1.228 0.4779 0.934
C31 C 1.1131 0.5151 0.7311
C32 C 1.1315 0.5074 0.848
H42 H 1.0997 0.4656 0.8757
F1 F 1.4207 0.5947 0.6508
N1 N 1.0806 0.5789 0.6965
H43 H 1.0695 0.6132 0.7435
N2 N 0.9305 0.6006 0.6468
H44 H 0.9446 0.5726 0.7
N3 N 0.9332 0.6462 1.0255
H45 H 0.9186 0.6454 0.9563
H46 H 0.9142 0.6037 1.0566
N4 N 1.1129 0.5753 0.9118
O2 O 0.9885 0.5398 0.908
O3 O 1.1257 0.4597 0.6694
O4 O 0.9593 0.645 0.4844
O5 O 0.7874 0.6845 0.973
C33 C 0.1002 0.8653 0.0547
C34 C 0.1009 0.9482 0.0586
H47 H 0.1042 0.9627 0.1335
H48 H 0.0514 0.9655 0.033
C35 C 0.1599 0.9928 0.000
H49 H 0.1422 1.0453 -0.0043
H50 H 0.162 0.9732 -0.0727
C36 C 0.2399 0.9941 0.0427
O6 O 0.043 0.8275 0.0419
O7 O 0.1634 0.8316 0.0704
H51 H 0.1986 0.8621 0.0629
O8 O 0.2648 0.9319 0.0832
O9 O 0.2765 1.0525 0.0345
O10? O 0.1634 0.8316 0.0704
O11? O 0.2765 1.0525 0.0345
O12? O 0.2648 0.9319 0.0832
O13? O 0.896 0.7534 0.3528
N5? N 0.9332 0.6462 1.0255
O14? O 0.9593 0.645 0.4844
N6? N 1.0806 0.5789 0.6965
loop_
_geom_bond_atom_site_label_1
_geom_bond_atom_site_label_2
_geom_bond_site_symmetry_1
_geom_bond_site_symmetry_2
O1 H1 1_555 1_555
C1 O1 1_555 1_555
H2 C1 1_555 1_555
H3 C1 1_555 1_555
C2 C1 1_555 1_555
H4 C2 1_555 1_555
H5 C2 1_555 1_555
H6 C2 1_555 1_555
C3 C4 1_555 1_555
C4 H7 1_555 1_555
C5 C4 1_555 1_555
H8 C5 1_555 1_555
C6 C5 1_555 1_555
C7 C6 1_555 1_555
H9 C7 1_555 1_555
C8 C3 1_555 1_555
H10 C8 1_555 1_555
C9 C6 1_555 1_555
H11 C9 1_555 1_555
H12 C9 1_555 1_555
C10 C9 1_555 1_555
H13 C10 1_555 1_555
C11 C10 1_555 1_555
C12 H14 1_555 1_555
H15 C12 1_555 1_555
C13 C12 1_555 1_555
H16 C13 1_555 1_555
H17 C13 1_555 1_555
C14 C13 1_555 1_555
H18 C14 1_555 1_555
H19 C14 1_555 1_555
C15 C14 1_555 1_555
C16 C15 1_555 1_555
H20 C16 1_555 1_555
C17 C16 1_555 1_555
H21 C17 1_555 1_555
C18 C17 1_555 1_555
H22 C18 1_555 1_555
C19 C18 1_555 1_555
H23 C19 1_555 1_555
C20 C15 1_555 1_555
C21 H24 1_555 1_555
C22 C21 1_555 1_555
H25 C22 1_555 1_555
H26 C22 1_555 1_555
H27 C22 1_555 1_555
C23 C21 1_555 1_555
H28 C23 1_555 1_555
H29 C23 1_555 1_555
C24 H30 1_555 1_555
C25 C24 1_555 1_555
H31 C25 1_555 1_555
C26 C25 1_555 1_555
H32 C26 1_555 1_555
H33 C26 1_555 1_555
C27 C25 1_555 1_555
H34 C27 1_555 1_555
H35 C27 1_555 1_555
C28 C24 1_555 1_555
C29 H36 1_555 1_555
H37 C29 1_555 1_555
H38 C29 1_555 1_555
C30 H39 1_555 1_555
H40 C30 1_555 1_555
H41 C30 1_555 1_555
C31 C32 1_555 1_555
C32 C30 1_555 1_555
H42 C32 1_555 1_555
F1 C3 1_555 1_555
N1 C10 1_555 1_555
H43 N1 1_555 1_555
N2 C11 1_555 1_555
H44 N2 1_555 1_555
N3 C23 1_555 1_555
H45 N3 1_555 1_555
H46 N3 1_555 1_555
N4 C28 1_555 1_555
O2 C28 1_555 1_555
O3 C31 1_555 1_555
O4 C11 1_555 1_555
O5 C20 1_555 1_555
C33 C34 1_555 1_555
C34 H47 1_555 1_555
H48 C34 1_555 1_555
C35 C34 1_555 1_555
H49 C35 1_555 1_555
H50 C35 1_555 1_555
C36 C35 1_555 1_555
O6 C33 1_555 1_555
O7 C33 1_555 1_555
H51 O7 1_555 1_555
O8 C36 1_555 1_555
O9 C36 1_555 1_555
C7 C8 1_555 1_555
C12 N2 1_555 1_555
C19 C20 1_555 1_555
C21 O5 1_555 1_555
C24 N3 1_555 1_555
C26 C27 1_555 1_555
C29 N4 1_555 1_555
C31 N1 1_555 1_555
C32 N4 1_555 1_555

#END
