
#######################################################################
#
#                 Cambridge Crystallographic Data Centre
#                                CCDC 
#
#######################################################################
#
# If this CIF has been generated from an entry in the Cambridge 
# Structural Database, then it will include bibliographic, chemical, 
# crystal, experimental, refinement or atomic coordinate data resulting 
# from the CCDC's data processing and validation procedures.
#
#######################################################################

data_PALCUB
_chemical_formula_moiety         'C20 H28 N4 O8'
_chemical_name_systematic        
'diethyl dodecahydro-11,12-dimethyl-2,4,5,7-tetraoxocyclobuta(1,2-d:4,3-d)dipyrimidine-1,8-dipropionate'
_symmetry_cell_setting           monoclinic
_symmetry_space_group_name_H-M   'P 21/n'
_symmetry_Int_Tables_number      14
_space_group_name_Hall           '-P 2yn'
loop_
_symmetry_equiv_pos_site_id
_symmetry_equiv_pos_as_xyz
1 x,y,z
2 1/2-x,1/2+y,1/2-z
3 -x,-y,-z
4 1/2+x,1/2-y,1/2+z
_cell_length_a                   8.427(3)
_cell_length_b                   12.346(5)
_cell_length_c                   21.542(8)
_cell_angle_alpha                90
_cell_angle_beta                 92.104(7)
_cell_angle_gamma                90
_cell_volume                     2239.71
_cell_formula_units_Z            4
loop_
_atom_site_label
_atom_site_type_symbol
_atom_site_fract_x
_atom_site_fract_y
_atom_site_fract_z
N1 N 0.8296(2) 1.03523(17) 0.19524(10)
N2 N 0.6012(3) 1.14375(19) 0.19235(12)
H1 H 0.5627 1.2077 0.1969
N3 N 0.8908(3) 0.83177(18) 0.11772(11)
N4 N 0.8101(3) 0.96861(19) 0.04897(11)
H2 H 0.8340 1.0091 0.0182
O1 O 0.8442(3) 1.21847(17) 0.20054(11)
O2 O 0.3530(2) 1.08231(18) 0.17518(12)
O3 O 1.0467(3) 0.88391(17) 0.03993(10)
O4 O 0.5839(3) 1.06445(17) 0.05778(9)
O5 O 1.0378(3) 0.85354(18) 0.28550(12)
O6 O 0.8578(3) 0.49322(19) 0.07780(12)
O7 O 0.7808(3) 0.58646(19) 0.15873(13)
C1 C 0.7655(3) 1.1358(2) 0.19693(13)
C2 C 0.4933(3) 1.0634(2) 0.18162(14)
C3 C 0.5608(3) 0.9498(2) 0.18165(13)
C4 C 0.7374(3) 0.9372(2) 0.20498(12)
H3 H 0.7495 0.9081 0.2472
C5 C 0.7503(3) 0.8495(2) 0.15312(13)
H4 H 0.7168 0.7798 0.1700
C6 C 0.6079(3) 0.9005(2) 0.11789(13)
C7 C 0.6644(4) 0.9868(2) 0.07320(13)
C8 C 0.9237(4) 0.8932(2) 0.06770(14)
C9 C 0.4495(3) 0.8780(3) 0.21791(15)
H5 H 0.4254 0.9129 0.2563
H6 H 0.4999 0.8097 0.2265
H7 H 0.3530 0.8664 0.1937
C10 C 0.4915(4) 0.8269(3) 0.08231(16)
H8 H 0.5377 0.8034 0.0445
H9 H 0.3952 0.8660 0.0726
H10 H 0.4681 0.7650 0.1074
C11 C 1.0029(3) 1.0313(2) 0.20385(13)
H11 H 1.0479 1.0886 0.1792
H12 H 1.0398 0.9629 0.1876
C12 C 1.0674(3) 1.0428(2) 0.27080(13)
H13 H 1.1671 1.0821 0.2707
H14 H 0.9932 1.0854 0.2941
C13 C 1.0938(3) 0.9377(3) 0.30267(13)
O8 O 1.1881(5) 0.9441(4) 0.35271(19)
C14 C 1.2428(14) 0.8396(5) 0.3791(4)
H15 H 1.3464 0.8212 0.3640
H16 H 1.1688 0.7823 0.3674
C15 C 1.2514(11) 0.8531(8) 0.4479(3)
H17 H 1.3421 0.8965 0.4596
H18 H 1.2610 0.7833 0.4673
H19 H 1.1567 0.8881 0.4611
C18 C 1.0101(3) 0.7527(2) 0.13949(14)
H25 H 0.9936 0.7367 0.1829
H26 H 1.1147 0.7847 0.1368
C19 C 1.0058(4) 0.6477(2) 0.10319(16)
H27 H 1.0016 0.6646 0.0592
H28 H 1.1038 0.6085 0.1122
C20 C 0.8688(4) 0.5750(2) 0.11683(16)
C21 C 0.7347(5) 0.4129(3) 0.0895(2)
H29 H 0.6308 0.4469 0.0869
H30 H 0.7509 0.3826 0.1307
C22 C 0.7437(7) 0.3263(4) 0.0422(2)
H31 H 0.6636 0.2728 0.0494
H32 H 0.8466 0.2930 0.0452
H33 H 0.7266 0.3568 0.0016
O9? O 1.1866(11) 0.9506(11) 0.3532(4)
C16? C 1.1826(18) 0.8651(17) 0.4000(6)
H20? H 1.0958 0.8155 0.3905
H21? H 1.1676 0.8961 0.4407
C17? C 1.342(2) 0.8052(16) 0.3991(13)
H22? H 1.3461 0.7633 0.3616
H23? H 1.3515 0.7580 0.4344
H24? H 1.4269 0.8568 0.4006
loop_
_geom_bond_atom_site_label_1
_geom_bond_atom_site_label_2
_geom_bond_site_symmetry_1
_geom_bond_site_symmetry_2
N1 C1 1_555 1_555
N2 H1 1_555 1_555
N3 C5 1_555 1_555
N4 H2 1_555 1_555
O1 C1 1_555 1_555
O2 C2 1_555 1_555
O3 C8 1_555 1_555
O4 C7 1_555 1_555
O5 C13 1_555 1_555
O6 C20 1_555 1_555
O7 C20 1_555 1_555
C1 N2 1_555 1_555
C2 N2 1_555 1_555
C3 C2 1_555 1_555
C4 N1 1_555 1_555
H3 C4 1_555 1_555
C5 C4 1_555 1_555
H4 C5 1_555 1_555
C6 C3 1_555 1_555
C7 N4 1_555 1_555
C8 N3 1_555 1_555
C9 C3 1_555 1_555
H5 C9 1_555 1_555
H6 C9 1_555 1_555
H7 C9 1_555 1_555
C10 C6 1_555 1_555
H8 C10 1_555 1_555
H9 C10 1_555 1_555
H10 C10 1_555 1_555
C11 N1 1_555 1_555
H11 C11 1_555 1_555
H12 C11 1_555 1_555
C12 C11 1_555 1_555
H13 C12 1_555 1_555
H14 C12 1_555 1_555
C13 C12 1_555 1_555
O8 C13 1_555 1_555
C14 O8 1_555 1_555
H15 C14 1_555 1_555
H16 C14 1_555 1_555
C15 C14 1_555 1_555
H17 C15 1_555 1_555
H18 C15 1_555 1_555
H19 C15 1_555 1_555
C18 N3 1_555 1_555
H25 C18 1_555 1_555
H26 C18 1_555 1_555
C19 C18 1_555 1_555
H27 C19 1_555 1_555
H28 C19 1_555 1_555
C20 C19 1_555 1_555
C21 O6 1_555 1_555
H29 C21 1_555 1_555
H30 C21 1_555 1_555
C22 C21 1_555 1_555
H31 C22 1_555 1_555
H32 C22 1_555 1_555
H33 C22 1_555 1_555
N4 C8 1_555 1_555
C3 C4 1_555 1_555
C5 C6 1_555 1_555
C6 C7 1_555 1_555

#END
