
#######################################################################
#
#                 Cambridge Crystallographic Data Centre
#                                CCDC 
#
#######################################################################
#
# If this CIF has been generated from an entry in the Cambridge 
# Structural Database, then it will include bibliographic, chemical, 
# crystal, experimental, refinement or atomic coordinate data resulting 
# from the CCDC's data processing and validation procedures.
#
#######################################################################

data_PALFIS
_chemical_name_common            '8-4-8 dicarbamate'
_chemical_formula_moiety         'C22 H44 N2 O4'
_chemical_name_systematic        1,4-bis(N-octyl-carbamoyloxy)butane
_symmetry_cell_setting           triclinic
_symmetry_space_group_name_H-M   'P -1'
_symmetry_Int_Tables_number      2
_space_group_name_Hall           '-P 1'
loop_
_symmetry_equiv_pos_site_id
_symmetry_equiv_pos_as_xyz
1 x,y,z
2 -x,-y,-z
_cell_length_a                   5.005(3)
_cell_length_b                   5.366(3)
_cell_length_c                   23.115(14)
_cell_angle_alpha                93.744(8)
_cell_angle_beta                 90.752(8)
_cell_angle_gamma                112.698(7)
_cell_volume                     570.998
_exptl_crystal_colour            colorless
_exptl_crystal_description       'thin plate'
_chemical_melting_point          '104.7-105.7 deg.C'
_cell_formula_units_Z            1
_exptl_crystal_recrystallization_method ethanol
loop_
_atom_site_label
_atom_site_type_symbol
_atom_site_fract_x
_atom_site_fract_y
_atom_site_fract_z
N1 N 0.0082(8) 0.8185(7) 0.65433(16)
H1 H -0.1369 0.8638 0.649
O1 O 0.2136(6) 1.1097(6) 0.59004(13)
C1 C -0.0152(9) 0.6108(9) 0.6933(2)
H2 H 0.1491 0.6774 0.7209
H3 H -0.0106 0.4526 0.6712
C2 C 0.2490(9) 0.9394(9) 0.6268(2)
C3 C -0.3181(10) 0.3198(9) 0.7673(2)
H4 H -0.1552 0.3896 0.7953
H5 H -0.3099 0.161 0.7461
C4 C -0.5971(10) 0.2374(9) 0.7994(2)
H6 H -0.6083 0.3978 0.8193
H7 H -0.7593 0.1619 0.7714
C5 C -0.9037(10) -0.0478(9) 0.8760(2)
H8 H -0.9129 0.1132 0.896
H9 H -1.0675 -0.1229 0.8484
C6 C -0.9294(11) -0.2521(10) 0.9197(2)
H10 H -0.9169 -0.4121 0.8999
H11 H -0.7679 -0.1759 0.9479
O2 O 0.4710(7) 0.9041(7) 0.63291(15)
C7 C -0.6257(10) 0.0324(9) 0.8433(2)
H12 H -0.4622 0.1069 0.8711
H13 H -0.6168 -0.1289 0.8234
C8 C 0.4664(10) 1.2668(9) 0.5602(2)
H14 H 0.5526 1.1497 0.5418
H15 H 0.6092 1.398 0.5873
C9 C -0.2901(10) 0.5324(9) 0.7254(2)
H16 H -0.4539 0.4634 0.6977
H17 H -0.296 0.692 0.7467
C10 C 0.3720(10) 1.4083(9) 0.5155(2)
H18 H 0.2734 1.5142 0.5341
H19 H 0.2365 1.2751 0.4876
C11 C -1.2090(12) -0.3340(11) 0.9510(2)
H20 H -1.2145 -0.4635 0.9782
H21 H -1.3697 -0.4135 0.9235
H22 H -1.2209 -0.1771 0.9714
N1A N 0.9918(8) 2.1815(7) 0.34567(16)
H1A H 1.1369 2.1362 0.351
O1A O 0.7864(6) 1.8903(6) 0.40996(13)
C1A C 1.0152(9) 2.3892(9) 0.3067(2)
H2A H 0.8509 2.3226 0.2791
H3A H 1.0106 2.5474 0.3288
C2A C 0.7510(9) 2.0606(9) 0.3732(2)
C3A C 1.3181(10) 2.6802(9) 0.2327(2)
H4A H 1.1552 2.6104 0.2047
H5A H 1.3099 2.839 0.2539
C4A C 1.5971(10) 2.7626(9) 0.2006(2)
H6A H 1.6083 2.6022 0.1807
H7A H 1.7593 2.8381 0.2286
C5A C 1.9037(10) 3.0478(9) 0.1240(2)
H8A H 1.9129 2.8868 0.104
H9A H 2.0675 3.1229 0.1516
C6A C 1.9294(11) 3.2521(10) 0.0803(2)
H10A H 1.9169 3.4121 0.1001
H11A H 1.7679 3.1759 0.0521
O2A O 0.5290(7) 2.0959(7) 0.36709(15)
C7A C 1.6257(10) 2.9676(9) 0.1567(2)
H12A H 1.4622 2.8931 0.1289
H13A H 1.6168 3.1289 0.1766
C8A C 0.5336(10) 1.7332(9) 0.4398(2)
H14A H 0.4474 1.8503 0.4582
H15A H 0.3908 1.602 0.4127
C9A C 1.2901(10) 2.4676(9) 0.2746(2)
H16A H 1.4539 2.5366 0.3023
H17A H 1.296 2.308 0.2533
C10A C 0.6280(10) 1.5917(9) 0.4845(2)
H18A H 0.7266 1.4858 0.4659
H19A H 0.7635 1.7249 0.5124
C11A C 2.2090(12) 3.3340(11) 0.0490(2)
H20A H 2.2145 3.4635 0.0218
H21A H 2.3697 3.4135 0.0765
H22A H 2.2209 3.1771 0.0286
loop_
_geom_bond_atom_site_label_1
_geom_bond_atom_site_label_2
_geom_bond_site_symmetry_1
_geom_bond_site_symmetry_2
N1 H1 1_555 1_555
O1 C2 1_555 1_555
C1 N1 1_555 1_555
H2 C1 1_555 1_555
H3 C1 1_555 1_555
C2 N1 1_555 1_555
C3 H4 1_555 1_555
H5 C3 1_555 1_555
C4 C3 1_555 1_555
H6 C4 1_555 1_555
H7 C4 1_555 1_555
C5 H8 1_555 1_555
H9 C5 1_555 1_555
C6 C5 1_555 1_555
H10 C6 1_555 1_555
H11 C6 1_555 1_555
O2 C2 1_555 1_555
C7 C4 1_555 1_555
H12 C7 1_555 1_555
H13 C7 1_555 1_555
C8 O1 1_555 1_555
H14 C8 1_555 1_555
H15 C8 1_555 1_555
C9 C1 1_555 1_555
H16 C9 1_555 1_555
H17 C9 1_555 1_555
C10 C8 1_555 1_555
H18 C10 1_555 1_555
H19 C10 1_555 1_555
C11 C6 1_555 1_555
H20 C11 1_555 1_555
H21 C11 1_555 1_555
H22 C11 1_555 1_555
N1A H1A 1_555 1_555
O1A C2A 1_555 1_555
C1A N1A 1_555 1_555
H2A C1A 1_555 1_555
H3A C1A 1_555 1_555
C2A N1A 1_555 1_555
C3A H4A 1_555 1_555
H5A C3A 1_555 1_555
C4A C3A 1_555 1_555
H6A C4A 1_555 1_555
H7A C4A 1_555 1_555
C5A H8A 1_555 1_555
H9A C5A 1_555 1_555
C6A C5A 1_555 1_555
H10A C6A 1_555 1_555
H11A C6A 1_555 1_555
O2A C2A 1_555 1_555
C7A C4A 1_555 1_555
H12A C7A 1_555 1_555
H13A C7A 1_555 1_555
C8A O1A 1_555 1_555
H14A C8A 1_555 1_555
H15A C8A 1_555 1_555
C9A C1A 1_555 1_555
H16A C9A 1_555 1_555
H17A C9A 1_555 1_555
C10A C10 1_555 1_555
H18A C10A 1_555 1_555
H19A C10A 1_555 1_555
C11A C6A 1_555 1_555
H20A C11A 1_555 1_555
H21A C11A 1_555 1_555
H22A C11A 1_555 1_555
C3 C9 1_555 1_555
C5 C7 1_555 1_555
C3A C9A 1_555 1_555
C5A C7A 1_555 1_555
C8A C10A 1_555 1_555

#END
