
#######################################################################
#
#                 Cambridge Crystallographic Data Centre
#                                CCDC 
#
#######################################################################
#
# If this CIF has been generated from an entry in the Cambridge 
# Structural Database, then it will include bibliographic, chemical, 
# crystal, experimental, refinement or atomic coordinate data resulting 
# from the CCDC's data processing and validation procedures.
#
#######################################################################

data_PALLEW
_chemical_formula_moiety         'C28 H30 N4'
_chemical_name_systematic        
3,4,13,14-tetraethyl-21,22,23,24-tetraazapentacyclo[16.2.1.1^2,5^.1^8,11^.1^12,15^]tetracosa-1(21),2,4,6,8(23),9,11,13,15,17,19-undecaene
_symmetry_cell_setting           triclinic
_symmetry_space_group_name_H-M   'P -1'
_symmetry_Int_Tables_number      2
_space_group_name_Hall           '-P 1'
loop_
_symmetry_equiv_pos_site_id
_symmetry_equiv_pos_as_xyz
1 x,y,z
2 -x,-y,-z
_cell_length_a                   4.9648(5)
_cell_length_b                   10.0382(11)
_cell_length_c                   12.3716(12)
_cell_angle_alpha                67.481(10)
_cell_angle_beta                 79.758(9)
_cell_angle_gamma                84.851(9)
_cell_volume                     560.325
_exptl_crystal_colour            blue
_exptl_crystal_description       block
_cell_formula_units_Z            1
loop_
_atom_site_label
_atom_site_type_symbol
_atom_site_fract_x
_atom_site_fract_y
_atom_site_fract_z
N1 N 0.3099(3) 0.12231(15) 0.90334(13)
N2 N 0.0762(3) -0.12630(15) 0.91731(13)
C1 C 0.2989(4) -0.07054(19) 0.83515(15)
C2 C 0.0102(4) -0.24612(19) 0.90276(16)
C3 C 0.4156(4) 0.05525(19) 0.82763(15)
C4 C 0.6451(3) 0.1367(2) 0.74919(16)
C5 C 0.4564(4) 0.24099(19) 0.87924(16)
C6 C -0.2065(4) -0.3378(2) 0.96900(18)
H1 H -0.2186 -0.4149 0.9461
C7 C 0.1993(4) -0.2654(2) 0.80748(18)
H2 H 0.1985 -0.3392 0.7796
C8 C 0.6693(4) 0.2506(2) 0.78149(16)
C9 C 0.4043(4) 0.3356(2) 0.93889(17)
H3 H 0.5258 0.4111 0.9112
C10 C 0.3768(4) -0.1580(2) 0.76606(17)
H4 H 0.5225 -0.1430 0.7043
C11 C 0.8718(4) 0.3690(2) 0.7266(2)
H5 H 1.0321 0.3358 0.6855
H6 H 0.9295 0.3909 0.7888
C12 C 0.8201(4) 0.1058(3) 0.64961(18)
H7 H 0.8581 0.0028 0.6751
H8 H 0.9934 0.1533 0.6315
C13 C 0.6906(5) 0.1553(3) 0.53769(19)
H9 H 0.5257 0.1035 0.5533
H10 H 0.8163 0.1368 0.4762
H11 H 0.6481 0.2568 0.5129
C14 C 0.7576(5) 0.5061(3) 0.6397(2)
H12 H 0.7076 0.4862 0.5760
H13 H 0.8941 0.5788 0.6086
H14 H 0.5989 0.5396 0.6798
H15 H 0.097(6) 0.074(3) 0.985(3)
N1A N -0.3099(3) -0.12231(15) 1.09666(13)
N2A N -0.0762(3) 0.12630(15) 1.08269(13)
C1A C -0.2989(4) 0.07054(19) 1.16485(15)
C2A C -0.0102(4) 0.24612(19) 1.09724(16)
C3A C -0.4156(4) -0.05525(19) 1.17237(15)
C4A C -0.6451(3) -0.1367(2) 1.25081(16)
C5A C -0.4564(4) -0.24099(19) 1.12076(16)
C6A C 0.2065(4) 0.3378(2) 1.03100(18)
H1A H 0.2186 0.4149 1.0539
C7A C -0.1993(4) 0.2654(2) 1.19252(18)
H2A H -0.1985 0.3392 1.2204
C8A C -0.6693(4) -0.2506(2) 1.21851(16)
C9A C -0.4043(4) -0.3356(2) 1.06111(17)
H3A H -0.5258 -0.4111 1.0888
C10A C -0.3768(4) 0.1580(2) 1.23394(17)
H4A H -0.5225 0.1430 1.2957
C11A C -0.8718(4) -0.3690(2) 1.2734(2)
H5A H -1.0321 -0.3358 1.3145
H6A H -0.9295 -0.3909 1.2112
C12A C -0.8201(4) -0.1058(3) 1.35039(18)
H7A H -0.8581 -0.0028 1.3249
H8A H -0.9934 -0.1533 1.3685
C13A C -0.6906(5) -0.1553(3) 1.46231(19)
H9A H -0.5257 -0.1035 1.4467
H10A H -0.8163 -0.1368 1.5238
H11A H -0.6481 -0.2568 1.4871
C14A C -0.7576(5) -0.5061(3) 1.3603(2)
H12A H -0.7076 -0.4862 1.4240
H13A H -0.8941 -0.5788 1.3914
H14A H -0.5989 -0.5396 1.3202
H15A H -0.097(6) -0.074(3) 1.015(3)
loop_
_geom_bond_atom_site_label_1
_geom_bond_atom_site_label_2
_geom_bond_site_symmetry_1
_geom_bond_site_symmetry_2
N1 C3 1_555 1_555
N2 C1 1_555 1_555
C1 C3 1_555 1_555
C2 N2 1_555 1_555
C3 C4 1_555 1_555
C4 C8 1_555 1_555
C5 N1 1_555 1_555
C6 C2 1_555 1_555
H1 C6 1_555 1_555
C7 C2 1_555 1_555
H2 C7 1_555 1_555
C8 C5 1_555 1_555
C9 C5 1_555 1_555
H3 C9 1_555 1_555
C10 C1 1_555 1_555
H4 C10 1_555 1_555
C11 C8 1_555 1_555
H5 C11 1_555 1_555
H6 C11 1_555 1_555
C12 C4 1_555 1_555
H7 C12 1_555 1_555
H8 C12 1_555 1_555
C13 C12 1_555 1_555
H9 C13 1_555 1_555
H10 C13 1_555 1_555
H11 C13 1_555 1_555
C14 C11 1_555 1_555
H12 C14 1_555 1_555
H13 C14 1_555 1_555
H14 C14 1_555 1_555
H15 N1 1_555 1_555
N1A C3A 1_555 1_555
N2A C1A 1_555 1_555
C1A C3A 1_555 1_555
C2A N2A 1_555 1_555
C3A C4A 1_555 1_555
C4A C8A 1_555 1_555
C5A N1A 1_555 1_555
C6A C9 1_555 1_555
H1A C6A 1_555 1_555
C7A C2A 1_555 1_555
H2A C7A 1_555 1_555
C8A C5A 1_555 1_555
C9A C6 1_555 1_555
H3A C9A 1_555 1_555
C10A C1A 1_555 1_555
H4A C10A 1_555 1_555
C11A C8A 1_555 1_555
H5A C11A 1_555 1_555
H6A C11A 1_555 1_555
C12A C4A 1_555 1_555
H7A C12A 1_555 1_555
H8A C12A 1_555 1_555
C13A C12A 1_555 1_555
H9A C13A 1_555 1_555
H10A C13A 1_555 1_555
H11A C13A 1_555 1_555
C14A C11A 1_555 1_555
H12A C14A 1_555 1_555
H13A C14A 1_555 1_555
H14A C14A 1_555 1_555
H15A N1A 1_555 1_555
C7 C10 1_555 1_555
C2A C6A 1_555 1_555
C5A C9A 1_555 1_555
C7A C10A 1_555 1_555

#END
