
#######################################################################
#
#                 Cambridge Crystallographic Data Centre
#                                CCDC 
#
#######################################################################
#
# If this CIF has been generated from an entry in the Cambridge 
# Structural Database, then it will include bibliographic, chemical, 
# crystal, experimental, refinement or atomic coordinate data resulting 
# from the CCDC's data processing and validation procedures.
#
#######################################################################

data_PALMAT
_chemical_formula_moiety         'C28 H25 N1 O2'
_chemical_name_systematic        
2-(2-oxo-4-phenylbutyl)-4,6-diphenyl-3,4-dihydro-2H-pyran-5-carbonitrile
_symmetry_cell_setting           orthorhombic
_symmetry_space_group_name_H-M   'P 21 21 21'
_symmetry_Int_Tables_number      19
_space_group_name_Hall           'P 2ac 2ab'
loop_
_symmetry_equiv_pos_site_id
_symmetry_equiv_pos_as_xyz
1 x,y,z
2 1/2-x,-y,1/2+z
3 1/2+x,1/2-y,-z
4 -x,1/2+y,1/2-z
_cell_length_a                   10.6310(3)
_cell_length_b                   12.0184(4)
_cell_length_c                   17.2054(6)
_cell_angle_alpha                90
_cell_angle_beta                 90
_cell_angle_gamma                90
_cell_volume                     2198.29
_exptl_crystal_colour            colorless
_exptl_crystal_description       plate
_cell_formula_units_Z            4
loop_
_atom_site_label
_atom_site_type_symbol
_atom_site_fract_x
_atom_site_fract_y
_atom_site_fract_z
C1 C 1.0857(2) 0.65802(19) 0.31124(14)
C2 C 1.0420(3) 0.5736(2) 0.35898(18)
C3 C 1.1054(3) 0.4736(2) 0.3660(2)
C4 C 1.2168(3) 0.4584(3) 0.32656(18)
C5 C 1.2636(3) 0.5414(2) 0.28013(18)
C6 C 1.1976(3) 0.6400(2) 0.27190(16)
C7 C 1.0183(2) 0.76896(19) 0.30378(16)
C8 C 1.0706(2) 0.8522(2) 0.36252(18)
C9 C 0.9830(2) 0.9507(2) 0.37153(16)
C10 C 1.0321(3) 1.0362(2) 0.42945(17)
C11 C 0.9539(2) 1.1412(2) 0.43334(15)
C12 C 0.8526(3) 1.1472(2) 0.49376(17)
C13 C 0.7811(3) 1.2571(3) 0.49722(18)
C14 C 0.6941(2) 1.2773(2) 0.42889(15)
C15 C 0.7087(3) 1.3679(3) 0.37946(19)
C16 C 0.6283(4) 1.3842(3) 0.3170(2)
C17 C 0.5333(3) 1.3087(3) 0.3024(2)
C18 C 0.5166(3) 1.2195(3) 0.35092(18)
C19 C 0.5962(2) 1.2044(3) 0.41399(17)
C20 C 0.6757(2) 0.8068(2) 0.38565(15)
C21 C 0.6011(3) 0.9000(3) 0.39922(19)
C22 C 0.4744(3) 0.8875(4) 0.4170(2)
C23 C 0.4219(3) 0.7827(4) 0.4219(2)
C24 C 0.4949(3) 0.6913(3) 0.40939(19)
C25 C 0.6213(3) 0.7023(3) 0.39162(17)
C26 C 0.8107(2) 0.82187(19) 0.36504(14)
C27 C 0.8772(2) 0.75890(19) 0.31492(14)
C28 C 0.8141(2) 0.6800(2) 0.26615(16)
N1 N 0.7698(2) 0.6168(2) 0.22397(15)
O1 O 0.86225(16) 0.91063(14) 0.40232(10)
O2 O 0.97579(19) 1.21885(16) 0.39053(12)
H1 H 0.964(2) 0.994(2) 0.3159(17)
H2 H 1.038(3) 0.998(2) 0.4849(19)
H3 H 1.122(3) 1.058(2) 0.4112(14)
H4 H 1.074(2) 0.8190(19) 0.4151(14)
H5 H 1.036(2) 0.798(2) 0.2548(17)
H6 H 0.846(3) 1.318(2) 0.4970(15)
H7 H 0.793(2) 1.082(2) 0.4869(15)
H8 H 1.350(3) 0.529(2) 0.2549(16)
H9 H 0.674(3) 0.637(3) 0.3913(17)
H10 H 0.465(3) 0.621(3) 0.4093(17)
H11 H 0.339(3) 0.779(3) 0.430(2)
H12 H 0.966(3) 0.587(2) 0.3859(15)
H13 H 0.644(3) 1.447(3) 0.284(2)
H14 H 0.480(3) 1.327(3) 0.261(2)
H15 H 0.891(3) 1.132(2) 0.5418(17)
H16 H 1.070(3) 0.410(3) 0.4030(18)
H17 H 1.156(3) 0.878(2) 0.3441(14)
H18 H 0.776(3) 1.416(3) 0.3919(18)
H19 H 1.223(3) 0.692(3) 0.2394(18)
H20 H 1.258(3) 0.389(3) 0.3316(17)
H21 H 0.732(3) 1.261(3) 0.5485(19)
H22 H 0.643(3) 0.980(2) 0.3924(16)
H23 H 0.447(3) 1.164(3) 0.3415(19)
H24 H 0.585(3) 1.142(2) 0.4495(18)
H25 H 0.427(3) 0.946(3) 0.430(2)
loop_
_geom_bond_atom_site_label_1
_geom_bond_atom_site_label_2
_geom_bond_site_symmetry_1
_geom_bond_site_symmetry_2
C1 C2 1_555 1_555
C2 C3 1_555 1_555
C3 C4 1_555 1_555
C4 C5 1_555 1_555
C5 C6 1_555 1_555
C6 C1 1_555 1_555
C7 C1 1_555 1_555
C8 C7 1_555 1_555
C9 C8 1_555 1_555
C10 C9 1_555 1_555
C11 C10 1_555 1_555
C12 C11 1_555 1_555
C13 C12 1_555 1_555
C14 C13 1_555 1_555
C15 C14 1_555 1_555
C16 C15 1_555 1_555
C17 C16 1_555 1_555
C18 C17 1_555 1_555
C19 C14 1_555 1_555
C20 C21 1_555 1_555
C21 C22 1_555 1_555
C22 C23 1_555 1_555
C23 C24 1_555 1_555
C24 C25 1_555 1_555
C25 C20 1_555 1_555
C26 C20 1_555 1_555
C27 C7 1_555 1_555
C28 C27 1_555 1_555
N1 C28 1_555 1_555
O1 C9 1_555 1_555
O2 C11 1_555 1_555
H1 C9 1_555 1_555
H2 C10 1_555 1_555
H3 C10 1_555 1_555
H4 C8 1_555 1_555
H5 C7 1_555 1_555
H6 C13 1_555 1_555
H7 C12 1_555 1_555
H8 C5 1_555 1_555
H9 C25 1_555 1_555
H10 C24 1_555 1_555
H11 C23 1_555 1_555
H12 C2 1_555 1_555
H13 C16 1_555 1_555
H14 C17 1_555 1_555
H15 C12 1_555 1_555
H16 C3 1_555 1_555
H17 C8 1_555 1_555
H18 C15 1_555 1_555
H19 C6 1_555 1_555
H20 C4 1_555 1_555
H21 C13 1_555 1_555
H22 C21 1_555 1_555
H23 C18 1_555 1_555
H24 C19 1_555 1_555
H25 C22 1_555 1_555
C18 C19 1_555 1_555
C26 C27 1_555 1_555
C26 O1 1_555 1_555

#END
