
#######################################################################
#
#                 Cambridge Crystallographic Data Centre
#                                CCDC 
#
#######################################################################
#
# If this CIF has been generated from an entry in the Cambridge 
# Structural Database, then it will include bibliographic, chemical, 
# crystal, experimental, refinement or atomic coordinate data resulting 
# from the CCDC's data processing and validation procedures.
#
#######################################################################

data_PALNAT
_chemical_formula_moiety         'C22 H27 N1 O1'
_chemical_name_systematic        
N,N-Diisopropyl-2-(2-(4-methylphenyl)vinyl)benzamide
_symmetry_cell_setting           monoclinic
_symmetry_space_group_name_H-M   'P 21/c'
_symmetry_Int_Tables_number      14
_space_group_name_Hall           '-P 2ybc'
loop_
_symmetry_equiv_pos_site_id
_symmetry_equiv_pos_as_xyz
1 x,y,z
2 -x,1/2+y,1/2-z
3 -x,-y,-z
4 x,1/2-y,1/2+z
_cell_length_a                   17.597(2)
_cell_length_b                   7.5241(10)
_cell_length_c                   14.624(2)
_cell_angle_alpha                90
_cell_angle_beta                 95.558(3)
_cell_angle_gamma                90
_cell_volume                     1927.14
_exptl_crystal_colour            colorless
_exptl_crystal_description       block
_cell_formula_units_Z            4
loop_
_atom_site_label
_atom_site_type_symbol
_atom_site_fract_x
_atom_site_fract_y
_atom_site_fract_z
N1 N 0.14904(11) 0.6891(2) 0.07478(12)
C1 C 0.25653(13) 0.4291(3) 0.21615(14)
O1 O 0.14495(11) 0.4009(2) 0.02985(11)
C2 C 0.17894(12) 0.4513(3) 0.18752(13)
C3 C 0.15562(12) 0.5136(3) 0.09051(14)
C4 C 0.27634(15) 0.3510(3) 0.30200(16)
H1 H 0.3276 0.3323 0.3217
C5 C 0.42498(13) 0.5956(3) 0.26258(16)
C6 C 0.39017(14) 0.6832(3) 0.33100(17)
H2 H 0.3383 0.7092 0.3220
C7 C 0.13264(14) 0.7554(3) -0.02054(15)
H3 H 0.1301 0.8852 -0.0163
C8 C 0.31419(13) 0.4789(4) 0.15426(16)
H4 H 0.2994 0.4639 0.0919
C9 C 0.12417(15) 0.4004(3) 0.24469(16)
H5 H 0.0727 0.4162 0.2254
C10 C 0.54343(15) 0.6134(4) 0.3597(2)
H6 H 0.5955 0.5894 0.3687
C11 C 0.50311(14) 0.5634(4) 0.27827(19)
H7 H 0.5284 0.5075 0.2332
C12 C 0.50864(16) 0.6983(3) 0.42843(18)
C13 C 0.43151(15) 0.7323(4) 0.41253(18)
H8 H 0.4067 0.7896 0.4575
C14 C 0.22129(17) 0.3016(3) 0.35778(17)
H9 H 0.2357 0.2507 0.4148
C15 C 0.14526(17) 0.3269(4) 0.32977(16)
H10 H 0.1083 0.2946 0.3679
C16 C 0.38430(14) 0.5421(4) 0.17458(17)
H11 H 0.4125 0.5545 0.1243
C17 C 0.15902(16) 0.8228(3) 0.14903(17)
H12 H 0.1725 0.7579 0.2064
C18 C 0.19745(18) 0.7140(4) -0.07826(18)
H13 H 0.2451 0.7485 -0.0454
H14 H 0.1901 0.7786 -0.1351
H15 H 0.1982 0.5889 -0.0908
C19 C 0.55339(19) 0.7512(5) 0.5181(2)
H16 H 0.5433 0.8736 0.5312
H17 H 0.6070 0.7357 0.5131
H18 H 0.5382 0.6779 0.5669
C20 C 0.05535(18) 0.6950(5) -0.0650(2)
H19 H 0.0575 0.5709 -0.0797
H20 H 0.0424 0.7619 -0.1203
H21 H 0.0173 0.7143 -0.0232
C21 C 0.2245(2) 0.9490(4) 0.1365(2)
H22 H 0.2697 0.8817 0.1285
H23 H 0.2335 1.0232 0.1899
H24 H 0.2117 1.0218 0.0833
C22 C 0.0852(2) 0.9201(5) 0.1598(3)
H25 H 0.0705 0.9874 0.1051
H26 H 0.0923 0.9991 0.2114
H27 H 0.0459 0.8357 0.1695
loop_
_geom_bond_atom_site_label_1
_geom_bond_atom_site_label_2
_geom_bond_site_symmetry_1
_geom_bond_site_symmetry_2
N1 C3 1_555 1_555
C1 C2 1_555 1_555
O1 C3 1_555 1_555
C2 C3 1_555 1_555
C4 C1 1_555 1_555
H1 C4 1_555 1_555
C5 C6 1_555 1_555
C6 H2 1_555 1_555
C7 N1 1_555 1_555
H3 C7 1_555 1_555
C8 C1 1_555 1_555
H4 C8 1_555 1_555
C9 C2 1_555 1_555
H5 C9 1_555 1_555
C10 H6 1_555 1_555
C11 C5 1_555 1_555
H7 C11 1_555 1_555
C12 C10 1_555 1_555
C13 C6 1_555 1_555
H8 C13 1_555 1_555
C14 C4 1_555 1_555
H9 C14 1_555 1_555
C15 C9 1_555 1_555
H10 C15 1_555 1_555
C16 C5 1_555 1_555
H11 C16 1_555 1_555
C17 N1 1_555 1_555
H12 C17 1_555 1_555
C18 C7 1_555 1_555
H13 C18 1_555 1_555
H14 C18 1_555 1_555
H15 C18 1_555 1_555
C19 C12 1_555 1_555
H16 C19 1_555 1_555
H17 C19 1_555 1_555
H18 C19 1_555 1_555
C20 C7 1_555 1_555
H19 C20 1_555 1_555
H20 C20 1_555 1_555
H21 C20 1_555 1_555
C21 C17 1_555 1_555
H22 C21 1_555 1_555
H23 C21 1_555 1_555
H24 C21 1_555 1_555
C22 C17 1_555 1_555
H25 C22 1_555 1_555
H26 C22 1_555 1_555
H27 C22 1_555 1_555
C8 C16 1_555 1_555
C10 C11 1_555 1_555
C12 C13 1_555 1_555
C14 C15 1_555 1_555

#END
