
#######################################################################
#
#                 Cambridge Crystallographic Data Centre
#                                CCDC 
#
#######################################################################
#
# If this CIF has been generated from an entry in the Cambridge 
# Structural Database, then it will include bibliographic, chemical, 
# crystal, experimental, refinement or atomic coordinate data resulting 
# from the CCDC's data processing and validation procedures.
#
#######################################################################

data_PALVOQ
_chemical_formula_moiety         'C27 H24 Cl1 N1 O3 S1'
_chemical_name_systematic        
5-((4-chlorophenyl)sulfonyl)-2,2,3a-trimethyl-1-phenyl-2,3,3a,5-tetrahydro-4H-cyclopenta[c]quinolin-4-one
_symmetry_cell_setting           triclinic
_symmetry_space_group_name_H-M   'P -1'
_symmetry_Int_Tables_number      2
_space_group_name_Hall           '-P 1'
loop_
_symmetry_equiv_pos_site_id
_symmetry_equiv_pos_as_xyz
1 x,y,z
2 -x,-y,-z
_cell_length_a                   8.2654(7)
_cell_length_b                   11.9303(9)
_cell_length_c                   12.0829(11)
_cell_angle_alpha                89.065(2)
_cell_angle_beta                 89.8540(10)
_cell_angle_gamma                90.3040(10)
_cell_volume                     1191.3
_exptl_crystal_colour            white
_exptl_crystal_description       block
_cell_formula_units_Z            2
loop_
_atom_site_label
_atom_site_type_symbol
_atom_site_fract_x
_atom_site_fract_y
_atom_site_fract_z
S1 S 0.14679(17) 0.78498(12) 0.47330(10)
Cl1 Cl 0.2111(2) 0.29794(14) 0.30790(17)
N1 N 0.2782(5) 0.8559(3) 0.3887(3)
O1 O 0.4839(5) 0.7499(3) 0.4593(3)
O2 O -0.0109(4) 0.8228(3) 0.4438(3)
O3 O 0.2018(5) 0.7953(3) 0.5832(3)
C1 C 0.2161(6) 0.9274(4) 0.2999(4)
C2 C 0.2886(6) 0.9191(4) 0.1960(4)
C3 C 0.1658(6) 0.6464(4) 0.4305(4)
C4 C 0.0913(7) 1.0016(4) 0.3172(4)
H1 H 0.0488 1.0104 0.3878
C5 C 0.3965(6) 0.7404(4) 0.0192(4)
C6 C 0.4385(6) 0.8145(4) 0.3885(4)
C7 C 0.0945(7) 0.6182(4) 0.3321(4)
H2 H 0.0376 0.6716 0.2912
C8 C 0.4861(6) 0.7720(4) 0.1200(4)
C9 C 0.0304(7) 1.0621(4) 0.2295(5)
H3 H -0.0555 1.1107 0.2408
C10 C 0.1928(7) 0.4328(5) 0.3559(5)
C11 C 0.5425(6) 0.8561(4) 0.2934(4)
C12 C 0.0945(7) 1.0520(4) 0.1259(5)
H4 H 0.0499 1.0918 0.0667
C13 C 0.2616(8) 0.4595(5) 0.4550(5)
H5 H 0.3158 0.4053 0.4966
C14 C 0.1079(8) 0.5112(5) 0.2949(5)
H6 H 0.0597 0.4913 0.2285
C15 C 0.4560(7) 0.7623(5) -0.0863(4)
H7 H 0.5566 0.7964 -0.0955
C16 C 0.2228(7) 0.6839(5) -0.1674(4)
H8 H 0.1646 0.6650 -0.2302
C17 C 0.2256(7) 0.9827(5) 0.1086(4)
H9 H 0.2717 0.9786 0.0385
C18 C 0.2497(7) 0.5674(5) 0.4924(4)
H10 H 0.2977 0.5871 0.5589
C19 C 0.6277(6) 0.7049(5) 0.1667(4)
C20 C 0.6832(7) 0.7758(5) 0.2646(5)
H11 H 0.7794 0.8185 0.2447
H12 H 0.7082 0.7278 0.3278
C21 C 0.4360(6) 0.8517(5) 0.1906(4)
C22 C 0.3668(8) 0.7336(5) -0.1773(4)
H13 H 0.4079 0.7493 -0.2476
C23 C 0.2478(7) 0.6899(5) 0.0277(4)
H14 H 0.2043 0.6749 0.0975
C24 C 0.1611(8) 0.6608(5) -0.0650(4)
H15 H 0.0610 0.6256 -0.0576
C25 C 0.7647(8) 0.6856(8) 0.0844(6)
H16 H 0.7238 0.6459 0.0219
H17 H 0.8482 0.6423 0.1196
H18 H 0.8084 0.7566 0.0601
C26 C 0.5607(10) 0.5914(5) 0.2077(6)
H19 H 0.5188 0.5506 0.1461
H20 H 0.4757 0.6034 0.2603
H21 H 0.6458 0.5491 0.2422
C27 C 0.6027(9) 0.9731(5) 0.3226(6)
H22 H 0.6560 1.0067 0.2595
H23 H 0.6775 0.9677 0.3831
H24 H 0.5126 1.0186 0.3436
loop_
_geom_bond_atom_site_label_1
_geom_bond_atom_site_label_2
_geom_bond_site_symmetry_1
_geom_bond_site_symmetry_2
S1 N1 1_555 1_555
Cl1 C10 1_555 1_555
N1 C1 1_555 1_555
O1 C6 1_555 1_555
O2 S1 1_555 1_555
O3 S1 1_555 1_555
C1 C2 1_555 1_555
C2 C17 1_555 1_555
C3 S1 1_555 1_555
C4 C1 1_555 1_555
H1 C4 1_555 1_555
C5 C8 1_555 1_555
C6 N1 1_555 1_555
C7 C3 1_555 1_555
H2 C7 1_555 1_555
C8 C19 1_555 1_555
C9 C4 1_555 1_555
H3 C9 1_555 1_555
C10 C13 1_555 1_555
C11 C6 1_555 1_555
C12 C9 1_555 1_555
H4 C12 1_555 1_555
C13 H5 1_555 1_555
C14 C7 1_555 1_555
H6 C14 1_555 1_555
C15 C5 1_555 1_555
H7 C15 1_555 1_555
C16 H8 1_555 1_555
C17 C12 1_555 1_555
H9 C17 1_555 1_555
C18 C3 1_555 1_555
H10 C18 1_555 1_555
C19 C20 1_555 1_555
C20 C11 1_555 1_555
H11 C20 1_555 1_555
H12 C20 1_555 1_555
C21 C2 1_555 1_555
C22 C15 1_555 1_555
H13 C22 1_555 1_555
C23 C5 1_555 1_555
H14 C23 1_555 1_555
C24 C16 1_555 1_555
H15 C24 1_555 1_555
C25 C19 1_555 1_555
H16 C25 1_555 1_555
H17 C25 1_555 1_555
H18 C25 1_555 1_555
C26 C19 1_555 1_555
H19 C26 1_555 1_555
H20 C26 1_555 1_555
H21 C26 1_555 1_555
C27 C11 1_555 1_555
H22 C27 1_555 1_555
H23 C27 1_555 1_555
H24 C27 1_555 1_555
C8 C21 1_555 1_555
C10 C14 1_555 1_555
C11 C21 1_555 1_555
C13 C18 1_555 1_555
C16 C22 1_555 1_555
C23 C24 1_555 1_555

#END
