
#######################################################################
#
#                 Cambridge Crystallographic Data Centre
#                                CCDC 
#
#######################################################################
#
# If this CIF has been generated from an entry in the Cambridge 
# Structural Database, then it will include bibliographic, chemical, 
# crystal, experimental, refinement or atomic coordinate data resulting 
# from the CCDC's data processing and validation procedures.
#
#######################################################################

data_PAMCIQ
_chemical_formula_moiety         'C27 H36 N4 O7,2(H2 O1)'
_chemical_name_systematic        
'Tyrosyl-\a-aminoisobutyryl-tyrosyl-valine dihydrate'
_symmetry_cell_setting           hexagonal
_symmetry_space_group_name_H-M   'P 65'
_symmetry_Int_Tables_number      170
_space_group_name_Hall           'P 65'
loop_
_symmetry_equiv_pos_site_id
_symmetry_equiv_pos_as_xyz
1 x,y,z
2 -x,-y,1/2+z
3 -y,x-y,2/3+z
4 y,-x+y,1/6+z
5 -x+y,-x,1/3+z
6 x-y,x,5/6+z
_cell_length_a                   8.807(3)
_cell_length_b                   8.807(3)
_cell_length_c                   64.67(4)
_cell_angle_alpha                90
_cell_angle_beta                 90
_cell_angle_gamma                120
_cell_volume                     4344
_exptl_crystal_colour            colorless
_exptl_crystal_description       diamond
_cell_formula_units_Z            6
_exptl_crystal_recrystallization_method water/methanol
loop_
_atom_site_label
_atom_site_type_symbol
_atom_site_fract_x
_atom_site_fract_y
_atom_site_fract_z
N1 N -0.0469(6) -0.0383(7) 0.12827(8)
H1 H -0.0636 -0.1463 0.1293
H2 H -0.1493 -0.0418 0.1295
H3 H 0.0249 0.0284 0.1383
C1 C 0.0308(7) 0.0356(6) 0.10817(9)
H4 H 0.139(7) 0.044(6) 0.1087(8)
C2 C 0.0574(7) 0.2186(7) 0.10724(8)
O1 O -0.0521(6) 0.2484(6) 0.11438(8)
C3 C -0.0900(8) -0.0780(7) 0.09091(10)
H5 H -0.1210 -0.1987 0.0934
H6 H -0.1973 -0.0725 0.0914
C4 C -0.0134(9) -0.0267(7) 0.06961(10)
C5 C 0.1162(14) -0.0562(11) 0.06312(12)
H7 H 0.1615 -0.1053 0.0722
C6 C -0.0731(9) 0.0512(10) 0.05619(11)
H8 H -0.1575 0.0785 0.0604
C7 C 0.1800(13) -0.0157(12) 0.04381(13)
H9 H 0.2676 -0.0397 0.0400
C8 C -0.0064(10) 0.0903(10) 0.03588(11)
H10 H -0.0520 0.1384 0.0267
C9 C 0.1227(10) 0.0596(9) 0.02937(10)
O2 O 0.1882(9) 0.0964(7) 0.00985(8)
H11 H 0.1403 0.1408 0.0033
N2 N 0.2045(5) 0.3418(5) 0.09761(6)
H12 H 0.2818 0.3149 0.0939
C10 C 0.2370(6) 0.5185(6) 0.09338(7)
C11 C 0.2482(6) 0.6164(7) 0.11324(8)
O3 O 0.2139(7) 0.7339(6) 0.11350(7)
C12 C 0.0989(11) 0.5122(10) 0.07902(10)
H13 H -0.0138 0.4500 0.0856
H14 H 0.0973 0.4532 0.0665
H15 H 0.1254 0.6295 0.0759
C13 C 0.4133(8) 0.6170(8) 0.08259(10)
H16 H 0.5028 0.6209 0.0914
H17 H 0.4392 0.7343 0.0796
H18 H 0.4095 0.5581 0.0699
N3 N 0.3155(5) 0.5791(5) 0.12972(6)
H19 H 0.3414 0.4972 0.1289
C14 C 0.3455(6) 0.6762(6) 0.14898(7)
H20 H 0.236(6) 0.670(5) 0.1525(7)
C15 C 0.4807(6) 0.8702(6) 0.14520(8)
O4 O 0.6062(5) 0.9073(5) 0.13473(7)
C16 C 0.4068(9) 0.5948(7) 0.16543(8)
H21 H 0.5273 0.6272 0.1625
H22 H 0.3363 0.4682 0.1644
C17 C 0.3964(8) 0.6488(7) 0.18745(8)
C18 C 0.2417(9) 0.5718(9) 0.19727(11)
H23 H 0.1427 0.4887 0.1902
C19 C 0.5391(8) 0.7695(9) 0.19846(9)
H24 H 0.6487 0.8246 0.1922
C20 C 0.2237(10) 0.6117(10) 0.21773(10)
H25 H 0.1149 0.5563 0.2242
C21 C 0.5241(9) 0.8114(9) 0.21868(10)
H26 H 0.6228 0.8942 0.2258
C22 C 0.3687(8) 0.7332(8) 0.22792(8)
O5 O 0.3553(7) 0.7842(7) 0.24803(7)
H27 H 0.2535 0.7268 0.2520
N4 N 0.4478(6) 0.9834(5) 0.15444(6)
H28 H 0.3630 0.9442 0.1632
C23 C 0.5474(7) 1.1727(6) 0.15065(8)
H29 H 0.6259 1.1909 0.1390
C24 C 0.4228(7) 1.2374(6) 0.14362(8)
O6 O 0.2680(5) 1.1625(5) 0.14990(6)
C25 C 0.6628(9) 1.2802(8) 0.16858(10)
H30 H 0.7203 1.4043 0.1647
C26 C 0.5561(13) 1.2553(12) 0.18779(11)
H31 H 0.6323 1.3249 0.1988
H32 H 0.4966 1.1339 0.1917
H33 H 0.4715 1.2912 0.1851
C27 C 0.8068(12) 1.2328(13) 0.17285(16)
H34 H 0.8749 1.2513 0.1605
H35 H 0.7532 1.1120 0.1769
H36 H 0.8817 1.3057 0.1838
O7 O 0.4908(6) 1.3701(5) 0.13222(7)
O8 O 0.8438(8) 1.6111(8) 0.12740(12)
H37 H 0.931(5) 1.577(7) 0.1288(14)
H38 H 0.734(3) 1.503(4) 0.1280(12)
O9 O 0.0609(9) 0.5269(11) 0.26517(9)
H39 H -0.05(2) 0.47(2) 0.258(5)
H40 H 0.08(2) 0.432(14) 0.268(3)
loop_
_geom_bond_atom_site_label_1
_geom_bond_atom_site_label_2
_geom_bond_site_symmetry_1
_geom_bond_site_symmetry_2
N1 H1 1_555 1_555
H2 N1 1_555 1_555
H3 N1 1_555 1_555
C1 N1 1_555 1_555
H4 C1 1_555 1_555
C2 C1 1_555 1_555
O1 C2 1_555 1_555
C3 C1 1_555 1_555
H5 C3 1_555 1_555
H6 C3 1_555 1_555
C4 C3 1_555 1_555
C5 C4 1_555 1_555
H7 C5 1_555 1_555
C6 C4 1_555 1_555
H8 C6 1_555 1_555
C7 C5 1_555 1_555
H9 C7 1_555 1_555
C8 C6 1_555 1_555
H10 C8 1_555 1_555
C9 C7 1_555 1_555
O2 C9 1_555 1_555
H11 O2 1_555 1_555
N2 C2 1_555 1_555
H12 N2 1_555 1_555
C10 N2 1_555 1_555
C11 C10 1_555 1_555
O3 C11 1_555 1_555
C12 C10 1_555 1_555
H13 C12 1_555 1_555
H14 C12 1_555 1_555
H15 C12 1_555 1_555
C13 C10 1_555 1_555
H16 C13 1_555 1_555
H17 C13 1_555 1_555
H18 C13 1_555 1_555
N3 C11 1_555 1_555
H19 N3 1_555 1_555
C14 N3 1_555 1_555
H20 C14 1_555 1_555
C15 C14 1_555 1_555
O4 C15 1_555 1_555
C16 C14 1_555 1_555
H21 C16 1_555 1_555
H22 C16 1_555 1_555
C17 C16 1_555 1_555
C18 C17 1_555 1_555
H23 C18 1_555 1_555
C19 C17 1_555 1_555
H24 C19 1_555 1_555
C20 C18 1_555 1_555
H25 C20 1_555 1_555
C21 C19 1_555 1_555
H26 C21 1_555 1_555
C22 C20 1_555 1_555
O5 C22 1_555 1_555
H27 O5 1_555 1_555
N4 C15 1_555 1_555
H28 N4 1_555 1_555
C23 N4 1_555 1_555
H29 C23 1_555 1_555
C24 C23 1_555 1_555
O6 C24 1_555 1_555
C25 C23 1_555 1_555
H30 C25 1_555 1_555
C26 C25 1_555 1_555
H31 C26 1_555 1_555
H32 C26 1_555 1_555
H33 C26 1_555 1_555
C27 C25 1_555 1_555
H34 C27 1_555 1_555
H35 C27 1_555 1_555
H36 C27 1_555 1_555
O7 C24 1_555 1_555
O8 H37 1_555 1_555
H38 O8 1_555 1_555
O9 H39 1_555 1_555
H40 O9 1_555 1_555
C8 C9 1_555 1_555
C21 C22 1_555 1_555

#END
