
#######################################################################
#
#                 Cambridge Crystallographic Data Centre
#                                CCDC 
#
#######################################################################
#
# If this CIF has been generated from an entry in the Cambridge 
# Structural Database, then it will include bibliographic, chemical, 
# crystal, experimental, refinement or atomic coordinate data resulting 
# from the CCDC's data processing and validation procedures.
#
#######################################################################

data_PAMDOW
_chemical_formula_moiety         'C38 H68 S4 Se4'
_chemical_name_systematic        tetrakis(Octylseleno)tetrathiafulvalene
_symmetry_cell_setting           triclinic
_symmetry_space_group_name_H-M   'P -1'
_symmetry_Int_Tables_number      2
_space_group_name_Hall           '-P 1'
loop_
_symmetry_equiv_pos_site_id
_symmetry_equiv_pos_as_xyz
1 x,y,z
2 -x,-y,-z
_cell_length_a                   8.211(5)
_cell_length_b                   25.45(1)
_cell_length_c                   5.473(2)
_cell_angle_alpha                90.30(4)
_cell_angle_beta                 92.70(4)
_cell_angle_gamma                92.50(5)
_cell_volume                     1141.31
_exptl_crystal_colour            orange
_cell_formula_units_Z            1
loop_
_atom_site_label
_atom_site_type_symbol
_atom_site_fract_x
_atom_site_fract_y
_atom_site_fract_z
Se1 Se -0.1144(3) 0.1253(1) 0.6838(4)
Se2 Se -0.4762(2) 0.0726(1) 0.4131(4)
S1 S 0.0552(6) 0.0538(2) 0.3071(9)
S2 S -0.2548(6) 0.0087(2) 0.0928(9)
C1 C -0.0409(20) 0.0134(8) 0.0843(31)
C2 C -0.1254(21) 0.0789(8) 0.4214(31)
C3 C -0.2642(21) 0.0522(8) 0.3236(31)
C4 C 0.0979(26) 0.1575(8) 0.6641(40)
C5 C 0.1416(30) 0.1896(11) 0.4626(46)
C6 C 0.0804(32) 0.2401(10) 0.4714(43)
C7 C 0.1396(32) 0.2749(10) 0.2711(50)
C8 C 0.0969(38) 0.3252(12) 0.2807(47)
C9 C 0.1628(39) 0.3614(12) 0.0809(56)
C10 C 0.1391(50) 0.4163(16) 0.0979(65)
C11 C 0.2094(52) 0.4549(14) -0.0794(69)
C12 C -0.5240(22) 0.1200(8) 0.1354(31)
C13 C -0.4262(21) 0.1713(8) 0.1521(31)
C14 C -0.4695(23) 0.2059(8) -0.0655(35)
C15 C -0.3678(26) 0.2561(9) -0.0682(37)
C16 C -0.4181(31) 0.2926(9) -0.2698(45)
C17 C -0.3232(36) 0.3433(11) -0.2567(48)
C18 C -0.3870(43) 0.3778(12) -0.4595(65)
C19 C -0.3127(51) 0.4310(18) -0.4554(79)
H1 H 0.166(15) 0.122(5) 0.659(23)
H2 H 0.119(15) 0.185(5) 0.825(23)
H3 H 0.083(15) 0.172(5) 0.293(23)
H4 H 0.270(15) 0.193(5) 0.460(23)
H5 H 0.119(15) 0.260(5) 0.652(23)
H6 H -0.053(15) 0.236(5) 0.456(23)
H7 H 0.094(15) 0.260(5) 0.092(23)
H8 H 0.279(15) 0.280(5) 0.270(23)
H9 H 0.142(15) 0.344(5) 0.448(23)
H10 H -0.039(15) 0.326(5) 0.262(23)
H11 H 0.108(15) 0.347(5) -0.097(23)
H12 H 0.304(15) 0.356(5) 0.079(23)
H13 H 0.200(15) 0.432(5) 0.276(23)
H14 H 0.009(15) 0.424(5) 0.076(23)
H15 H 0.181(15) 0.498(5) -0.040(23)
H16 H 0.153(15) 0.443(5) -0.259(22)
H17 H 0.351(15) 0.453(5) -0.070(23)
H18 H -0.649(15) 0.129(5) 0.148(23)
H19 H -0.498(15) 0.097(5) -0.026(23)
H20 H -0.309(15) 0.165(5) 0.162(23)
H21 H -0.448(15) 0.192(5) 0.313(23)
H22 H -0.592(15) 0.215(5) -0.056(23)
H23 H -0.446(15) 0.188(5) -0.241(23)
H24 H -0.248(15) 0.246(5) -0.081(23)
H25 H -0.372(15) 0.279(5) 0.108(23)
H26 H -0.548(15) 0.302(5) -0.258(23)
H27 H -0.400(15) 0.2715 -0.44923
H28 H -0.191(15) 0.336(5) -0.267(23)
H29 H -0.333(15) 0.359(5) -0.081(23)
H30 H -0.519(15) 0.383(5) -0.470(23)
H31 H -0.365(15) 0.356(5) -0.641(23)
H32 H -0.370(15) 0.454(5) -0.602(23)
H33 H -0.177(15) 0.431(5) -0.467(23)
H34 H -0.336(15) 0.452(5) -0.265(22)
C1A C 0.0409(20) -0.0134(8) -0.0843(31)
S1A S -0.0552(6) -0.0538(2) -0.3071(9)
S2A S 0.2548(6) -0.0087(2) -0.0928(9)
C2A C 0.1254(21) -0.0789(8) -0.4214(31)
C3A C 0.2642(21) -0.0522(8) -0.3236(31)
Se1A Se 0.1144(3) -0.1253(1) -0.6838(4)
Se2A Se 0.4762(2) -0.0726(1) -0.4131(4)
C4A C -0.0979(26) -0.1575(8) -0.6641(40)
C12A C 0.5240(22) -0.1200(8) -0.1354(31)
C5A C -0.1416(30) -0.1896(11) -0.4626(46)
H1A H -0.166(15) -0.122(5) -0.659(23)
H2A H -0.119(15) -0.185(5) -0.825(23)
C13A C 0.4262(21) -0.1713(8) -0.1521(31)
H18A H 0.649(15) -0.129(5) -0.148(23)
H19A H 0.498(15) -0.097(5) 0.026(23)
C6A C -0.0804(32) -0.2401(10) -0.4714(43)
H3A H -0.083(15) -0.172(5) -0.293(23)
H4A H -0.270(15) -0.193(5) -0.460(23)
C14A C 0.4695(23) -0.2059(8) 0.0655(35)
H20A H 0.309(15) -0.165(5) -0.162(23)
H21A H 0.448(15) -0.192(5) -0.313(23)
C7A C -0.1396(32) -0.2749(10) -0.2711(50)
H5A H -0.119(15) -0.260(5) -0.652(23)
H6A H 0.053(15) -0.236(5) -0.456(23)
C15A C 0.3678(26) -0.2561(9) 0.0682(37)
H22A H 0.592(15) -0.215(5) 0.056(23)
H23A H 0.446(15) -0.188(5) 0.241(23)
C8A C -0.0969(38) -0.3252(12) -0.2807(47)
H7A H -0.094(15) -0.260(5) -0.092(23)
H8A H -0.279(15) -0.280(5) -0.270(23)
C16A C 0.4181(31) -0.2926(9) 0.2698(45)
H24A H 0.248(15) -0.246(5) 0.081(23)
H25A H 0.372(15) -0.279(5) -0.108(23)
C9A C -0.1628(39) -0.3614(12) -0.0809(56)
H9A H -0.142(15) -0.344(5) -0.448(23)
H10A H 0.039(15) -0.326(5) -0.262(23)
C17A C 0.3232(36) -0.3433(11) 0.2567(48)
H26A H 0.548(15) -0.302(5) 0.258(23)
H27A H 0.400(15) -0.2715 0.44923
C10A C -0.1391(50) -0.4163(16) -0.0979(65)
H11A H -0.108(15) -0.347(5) 0.097(23)
H12A H -0.304(15) -0.356(5) -0.079(23)
C18A C 0.3870(43) -0.3778(12) 0.4595(65)
H28A H 0.191(15) -0.336(5) 0.267(23)
H29A H 0.333(15) -0.359(5) 0.081(23)
C11A C -0.2094(52) -0.4549(14) 0.0794(69)
H13A H -0.200(15) -0.432(5) -0.276(23)
H14A H -0.009(15) -0.424(5) -0.076(23)
C19A C 0.3127(51) -0.4310(18) 0.4554(79)
H30A H 0.519(15) -0.383(5) 0.470(23)
H31A H 0.365(15) -0.356(5) 0.641(23)
H15A H -0.181(15) -0.498(5) 0.040(23)
H16A H -0.153(15) -0.443(5) 0.259(22)
H17A H -0.351(15) -0.453(5) 0.070(23)
H32A H 0.370(15) -0.454(5) 0.602(23)
H33A H 0.177(15) -0.431(5) 0.467(23)
H34A H 0.336(15) -0.452(5) 0.265(22)
loop_
_geom_bond_atom_site_label_1
_geom_bond_atom_site_label_2
_geom_bond_site_symmetry_1
_geom_bond_site_symmetry_2
Se1 C2 1_555 1_555
Se2 C3 1_555 1_555
S1 C1 1_555 1_555
S2 C1 1_555 1_555
C1 C1A 1_555 1_555
C2 S1 1_555 1_555
C3 S2 1_555 1_555
C4 Se1 1_555 1_555
C5 C4 1_555 1_555
C6 C5 1_555 1_555
C7 C6 1_555 1_555
C8 C7 1_555 1_555
C9 C8 1_555 1_555
C10 C9 1_555 1_555
C11 C10 1_555 1_555
C12 Se2 1_555 1_555
C13 C12 1_555 1_555
C14 C13 1_555 1_555
C15 C14 1_555 1_555
C16 C15 1_555 1_555
C17 C16 1_555 1_555
C18 C17 1_555 1_555
C19 C18 1_555 1_555
H1 C4 1_555 1_555
H2 C4 1_555 1_555
H3 C5 1_555 1_555
H4 C5 1_555 1_555
H5 C6 1_555 1_555
H6 C6 1_555 1_555
H7 C7 1_555 1_555
H8 C7 1_555 1_555
H9 C8 1_555 1_555
H10 C8 1_555 1_555
H11 C9 1_555 1_555
H12 C9 1_555 1_555
H13 C10 1_555 1_555
H14 C10 1_555 1_555
H15 C11 1_555 1_555
H16 C11 1_555 1_555
H17 C11 1_555 1_555
H18 C12 1_555 1_555
H19 C12 1_555 1_555
H20 C13 1_555 1_555
H21 C13 1_555 1_555
H22 C14 1_555 1_555
H23 C14 1_555 1_555
H24 C15 1_555 1_555
H25 C15 1_555 1_555
H26 C16 1_555 1_555
H27 C16 1_555 1_555
H28 C17 1_555 1_555
H29 C17 1_555 1_555
H30 C18 1_555 1_555
H31 C18 1_555 1_555
H32 C19 1_555 1_555
H33 C19 1_555 1_555
H34 C19 1_555 1_555
C1A S1A 1_555 1_555
S1A C2A 1_555 1_555
S2A C1A 1_555 1_555
C2A C3A 1_555 1_555
C3A S2A 1_555 1_555
Se1A C2A 1_555 1_555
Se2A C3A 1_555 1_555
C4A Se1A 1_555 1_555
C12A Se2A 1_555 1_555
C5A C4A 1_555 1_555
H1A C4A 1_555 1_555
H2A C4A 1_555 1_555
C13A C12A 1_555 1_555
H18A C12A 1_555 1_555
H19A C12A 1_555 1_555
C6A C5A 1_555 1_555
H3A C5A 1_555 1_555
H4A C5A 1_555 1_555
C14A C13A 1_555 1_555
H20A C13A 1_555 1_555
H21A C13A 1_555 1_555
C7A C6A 1_555 1_555
H5A C6A 1_555 1_555
H6A C6A 1_555 1_555
C15A C14A 1_555 1_555
H22A C14A 1_555 1_555
H23A C14A 1_555 1_555
C8A C7A 1_555 1_555
H7A C7A 1_555 1_555
H8A C7A 1_555 1_555
C16A C15A 1_555 1_555
H24A C15A 1_555 1_555
H25A C15A 1_555 1_555
C9A C8A 1_555 1_555
H9A C8A 1_555 1_555
H10A C8A 1_555 1_555
C17A C16A 1_555 1_555
H26A C16A 1_555 1_555
H27A C16A 1_555 1_555
C10A C9A 1_555 1_555
H11A C9A 1_555 1_555
H12A C9A 1_555 1_555
C18A C17A 1_555 1_555
H28A C17A 1_555 1_555
H29A C17A 1_555 1_555
C11A C10A 1_555 1_555
H13A C10A 1_555 1_555
H14A C10A 1_555 1_555
C19A C18A 1_555 1_555
H30A C18A 1_555 1_555
H31A C18A 1_555 1_555
H15A C11A 1_555 1_555
H16A C11A 1_555 1_555
H17A C11A 1_555 1_555
H32A C19A 1_555 1_555
H33A C19A 1_555 1_555
H34A C19A 1_555 1_555
C2 C3 1_555 1_555

#END
