
#######################################################################
#
#                 Cambridge Crystallographic Data Centre
#                                CCDC 
#
#######################################################################
#
# If this CIF has been generated from an entry in the Cambridge 
# Structural Database, then it will include bibliographic, chemical, 
# crystal, experimental, refinement or atomic coordinate data resulting 
# from the CCDC's data processing and validation procedures.
#
#######################################################################

data_PAMDUC
_chemical_formula_moiety         'C38 H68 S4 Te4'
_chemical_name_systematic        tetrakis(Octyltelluro)tetrathiafulvalene
_symmetry_cell_setting           triclinic
_symmetry_space_group_name_H-M   'P -1'
_symmetry_Int_Tables_number      2
_space_group_name_Hall           '-P 1'
loop_
_symmetry_equiv_pos_site_id
_symmetry_equiv_pos_as_xyz
1 x,y,z
2 -x,-y,-z
_cell_length_a                   9.143(6)
_cell_length_b                   23.25(2)
_cell_length_c                   5.734(7)
_cell_angle_alpha                92.30(8)
_cell_angle_beta                 97.76(9)
_cell_angle_gamma                90.04(6)
_cell_volume                     1206.75
_exptl_crystal_colour            'dark orange'
_cell_formula_units_Z            1
loop_
_atom_site_label
_atom_site_type_symbol
_atom_site_fract_x
_atom_site_fract_y
_atom_site_fract_z
Te1 Te 0.4077(3) 0.0733(1) 0.6784(5)
Te2 Te 0.0291(3) 0.1403(2) 0.7353(5)
S1 S 0.2194(9) 0.0122(5) 0.2064(16)
S2 S -0.0691(9) 0.0589(5) 0.2705(17)
C1 C 0.0307(33) 0.0141(16) 0.1016(51)
C2 C 0.2092(32) 0.0600(19) 0.4427(61)
C3 C 0.0809(37) 0.0823(19) 0.4735(61)
C4 C 0.5402(36) 0.1003(18) 0.4241(63)
C5 C 0.4874(37) 0.1528(18) 0.3151(62)
C6 C 0.5938(47) 0.1793(22) 0.1635(75)
C7 C 0.5401(47) 0.2304(19) 0.0251(76)
C8 C 0.6712(58) 0.2587(25) -0.1159(89)
C9 C 0.6065(58) 0.3124(26) -0.235(10)
C10 C 0.7192(65) 0.3333(29) -0.370(11)
C11 C 0.6823(89) 0.3829(37) -0.498(15)
C12 C 0.0926(94) 0.2149(38) 0.561(13)
C13 C 0.0739(82) 0.2371(28) 0.371(11)
C14 C 0.1130(85) 0.2988(32) 0.3146(99)
C15 C 0.126(11) 0.3182(40) 0.132(19)
C16 C 0.1973(79) 0.3819(29) 0.116(12)
C17 C 0.123(12) 0.4136(44) -0.034(20)
C18 C 0.1954(90) 0.4597(42) -0.161(18)
C19 C 0.315(11) 0.4848(48) -0.065(19)
H1 H 0.533(28) 0.064(12) 0.281(45)
H2 H 0.656(20) 0.109(12) 0.497(45)
H3 H 0.475(20) 0.190(12) 0.457(45)
H4 H 0.384(26) 0.148(12) 0.207(45)
H5 H 0.619(20) 0.147(12) 0.036(46)
H6 H 0.702(27) 0.189(12) 0.270(45)
H7 H 0.505(28) 0.263(12) 0.147(46)
H8 H 0.434(27) 0.218(12) -0.103(44)
H9 H 0.713(28) 0.227(12) -0.268(45)
H10 H 0.763(27) 0.264(12) 0.019(46)
H11 H 0.583(28) 0.343(12) -0.101(46)
H12 H 0.506(20) 0.301(12) -0.365(45)
H13 H 0.739(28) 0.293(12) -0.511(45)
H14 H 0.819(28) 0.347(12) -0.247(46)
H15 H 0.774(28) 0.394(12) -0.591(45)
H16 H 0.653(27) 0.418(12) -0.386(45)
H17 H 0.582(28) 0.376(12) -0.620(45)
H18 H 0.213(28) 0.219(12) 0.560(45)
H19 H 0.055(28) 0.253(12) 0.658(46)
H20 H -0.039(28) 0.233(12) 0.335(45)
H21 H 0.133(28) 0.210(12) 0.246(45)
H22 H 0.219(28) 0.306(12) 0.389(44)
H23 H 0.026(28) 0.330(12) 0.378(46)
H24 H 0.005(28) 0.323(12) 0.015(45)
H25 H 0.181(28) 0.283(12) 0.006(45)
H26 H 0.313(28) 0.37812 0.075(46)
H27 H 0.202(28) 0.403(12) 0.307(45)
H28 H 0.025(27) 0.437(12) 0.052(46)
H29 H 0.062(28) 0.382(12) -0.201(46)
H30 H 0.110(27) 0.496(12) -0.211(45)
H31 H 0.234(28) 0.441(12) -0.351(45)
H32 H 0.346(27) 0.518(12) -0.201(45)
H33 H 0.417(28) 0.446(12) -0.023(44)
H34 H 0.289(28) 0.507(12) 0.112(46)
C1A C -0.0307(33) -0.0141(16) -0.1016(51)
S1A S -0.2194(9) -0.0122(5) -0.2064(16)
C2A C -0.2092(32) -0.0600(19) -0.4427(61)
Te1A Te -0.4077(3) -0.0733(1) -0.6784(5)
C4A C -0.5402(36) -0.1003(18) -0.4241(63)
C5A C -0.4874(37) -0.1528(18) -0.3151(62)
C6A C -0.5938(47) -0.1793(22) -0.1635(75)
C7A C -0.5401(47) -0.2304(19) -0.0251(76)
C8A C -0.6712(58) -0.2587(25) 0.1159(89)
C9A C -0.6065(58) -0.3124(26) 0.235(10)
C10A C -0.7192(65) -0.3333(29) 0.370(11)
C11A C -0.6823(89) -0.3829(37) 0.498(15)
H15A H -0.774(28) -0.394(12) 0.591(45)
H16A H -0.653(27) -0.418(12) 0.386(45)
H17A H -0.582(28) -0.376(12) 0.620(45)
H13A H -0.739(28) -0.293(12) 0.511(45)
H14A H -0.819(28) -0.347(12) 0.247(46)
H11A H -0.583(28) -0.343(12) 0.101(46)
H12A H -0.506(20) -0.301(12) 0.365(45)
H9A H -0.713(28) -0.227(12) 0.268(45)
H10A H -0.763(27) -0.264(12) -0.019(46)
H7A H -0.505(28) -0.263(12) -0.147(46)
H8A H -0.434(27) -0.218(12) 0.103(44)
H5A H -0.619(20) -0.147(12) -0.036(46)
H6A H -0.702(27) -0.189(12) -0.270(45)
H3A H -0.475(20) -0.190(12) -0.457(45)
H4A H -0.384(26) -0.148(12) -0.207(45)
H1A H -0.533(28) -0.064(12) -0.281(45)
H2A H -0.656(20) -0.109(12) -0.497(45)
C3A C -0.0809(37) -0.0823(19) -0.4735(61)
Te2A Te -0.0291(3) -0.1403(2) -0.7353(5)
C12A C -0.0926(94) -0.2149(38) -0.561(13)
C13A C -0.0739(82) -0.2371(28) -0.371(11)
C14A C -0.1130(85) -0.2988(32) -0.3146(99)
C15A C -0.126(11) -0.3182(40) -0.132(19)
C16A C -0.1973(79) -0.3819(29) -0.116(12)
C17A C -0.123(12) -0.4136(44) 0.034(20)
C18A C -0.1954(90) -0.4597(42) 0.161(18)
C19A C -0.315(11) -0.4848(48) 0.065(19)
H32A H -0.346(27) -0.518(12) 0.201(45)
H33A H -0.417(28) -0.446(12) 0.023(44)
H34A H -0.289(28) -0.507(12) -0.112(46)
H30A H -0.110(27) -0.496(12) 0.211(45)
H31A H -0.234(28) -0.441(12) 0.351(45)
H28A H -0.025(27) -0.437(12) -0.052(46)
H29A H -0.062(28) -0.382(12) 0.201(46)
H26A H -0.313(28) -0.37812 -0.075(46)
H27A H -0.202(28) -0.403(12) -0.307(45)
H24A H -0.005(28) -0.323(12) -0.015(45)
H25A H -0.181(28) -0.283(12) -0.006(45)
H22A H -0.219(28) -0.306(12) -0.389(44)
H23A H -0.026(28) -0.330(12) -0.378(46)
H20A H 0.039(28) -0.233(12) -0.335(45)
H21A H -0.133(28) -0.210(12) -0.246(45)
H18A H -0.213(28) -0.219(12) -0.560(45)
H19A H -0.055(28) -0.253(12) -0.658(46)
S2A S 0.0691(9) -0.0589(5) -0.2705(17)
loop_
_geom_bond_atom_site_label_1
_geom_bond_atom_site_label_2
_geom_bond_site_symmetry_1
_geom_bond_site_symmetry_2
Te1 C2 1_555 1_555
Te2 C3 1_555 1_555
S1 C1 1_555 1_555
S2 C1 1_555 1_555
C1 C1A 1_555 1_555
C2 S1 1_555 1_555
C3 S2 1_555 1_555
C4 Te1 1_555 1_555
C5 C4 1_555 1_555
C6 C5 1_555 1_555
C7 C6 1_555 1_555
C8 C7 1_555 1_555
C9 C8 1_555 1_555
C10 C9 1_555 1_555
C11 C10 1_555 1_555
C12 Te2 1_555 1_555
C13 C12 1_555 1_555
C14 C13 1_555 1_555
C15 C14 1_555 1_555
C16 C15 1_555 1_555
C17 C16 1_555 1_555
C18 C17 1_555 1_555
C19 C18 1_555 1_555
H1 C4 1_555 1_555
H2 C4 1_555 1_555
H3 C5 1_555 1_555
H4 C5 1_555 1_555
H5 C6 1_555 1_555
H6 C6 1_555 1_555
H7 C7 1_555 1_555
H8 C7 1_555 1_555
H9 C8 1_555 1_555
H10 C8 1_555 1_555
H11 C9 1_555 1_555
H12 C9 1_555 1_555
H13 C10 1_555 1_555
H14 C10 1_555 1_555
H15 C11 1_555 1_555
H16 C11 1_555 1_555
H17 C11 1_555 1_555
H18 C12 1_555 1_555
H19 C12 1_555 1_555
H20 C13 1_555 1_555
H21 C13 1_555 1_555
H22 C14 1_555 1_555
H23 C14 1_555 1_555
H24 C15 1_555 1_555
H25 C15 1_555 1_555
H26 C16 1_555 1_555
H27 C16 1_555 1_555
H28 C17 1_555 1_555
H29 C17 1_555 1_555
H30 C18 1_555 1_555
H31 C18 1_555 1_555
H32 C19 1_555 1_555
H33 C19 1_555 1_555
H34 C19 1_555 1_555
C1A S1A 1_555 1_555
S1A C2A 1_555 1_555
C2A Te1A 1_555 1_555
Te1A C4A 1_555 1_555
C4A C5A 1_555 1_555
C5A C6A 1_555 1_555
C6A C7A 1_555 1_555
C7A C8A 1_555 1_555
C8A C9A 1_555 1_555
C9A C10A 1_555 1_555
C10A C11A 1_555 1_555
C11A H15A 1_555 1_555
H16A C11A 1_555 1_555
H17A C11A 1_555 1_555
H13A C10A 1_555 1_555
H14A C10A 1_555 1_555
H11A C9A 1_555 1_555
H12A C9A 1_555 1_555
H9A C8A 1_555 1_555
H10A C8A 1_555 1_555
H7A C7A 1_555 1_555
H8A C7A 1_555 1_555
H5A C6A 1_555 1_555
H6A C6A 1_555 1_555
H3A C5A 1_555 1_555
H4A C5A 1_555 1_555
H1A C4A 1_555 1_555
H2A C4A 1_555 1_555
C3A C2A 1_555 1_555
Te2A C3A 1_555 1_555
C12A Te2A 1_555 1_555
C13A C12A 1_555 1_555
C14A C13A 1_555 1_555
C15A C14A 1_555 1_555
C16A C15A 1_555 1_555
C17A C16A 1_555 1_555
C18A C17A 1_555 1_555
C19A C18A 1_555 1_555
H32A C19A 1_555 1_555
H33A C19A 1_555 1_555
H34A C19A 1_555 1_555
H30A C18A 1_555 1_555
H31A C18A 1_555 1_555
H28A C17A 1_555 1_555
H29A C17A 1_555 1_555
H26A C16A 1_555 1_555
H27A C16A 1_555 1_555
H24A C15A 1_555 1_555
H25A C15A 1_555 1_555
H22A C14A 1_555 1_555
H23A C14A 1_555 1_555
H20A C13A 1_555 1_555
H21A C13A 1_555 1_555
H18A C12A 1_555 1_555
H19A C12A 1_555 1_555
S2A C1A 1_555 1_555
C2 C3 1_555 1_555
C3A S2A 1_555 1_555

#END
