
#######################################################################
#
#                 Cambridge Crystallographic Data Centre
#                                CCDC 
#
#######################################################################
#
# If this CIF has been generated from an entry in the Cambridge 
# Structural Database, then it will include bibliographic, chemical, 
# crystal, experimental, refinement or atomic coordinate data resulting 
# from the CCDC's data processing and validation procedures.
#
#######################################################################

data_PAMGES
_chemical_formula_moiety         '2(C60),C30 H20 S8,C6 H5 Cl1'
_chemical_name_systematic        
'bis(C60fullerene) 2,3,6,7-tetrakis(phenylsulfanyl)tetrathiafulvalene chlorobenzene solvate'
_symmetry_cell_setting           triclinic
_symmetry_space_group_name_H-M   'P -1'
_symmetry_Int_Tables_number      2
_space_group_name_Hall           '-P 1'
loop_
_symmetry_equiv_pos_site_id
_symmetry_equiv_pos_as_xyz
1 x,y,z
2 -x,-y,-z
_cell_length_a                   10.4255(7)
_cell_length_b                   20.8457(19)
_cell_length_c                   21.2111(11)
_cell_angle_alpha                101.302(6)
_cell_angle_beta                 101.293(5)
_cell_angle_gamma                100.743(7)
_cell_volume                     4310.02
_exptl_crystal_colour            'dark black'
_exptl_crystal_description       block
_cell_formula_units_Z            2
loop_
_atom_site_label
_atom_site_type_symbol
_atom_site_fract_x
_atom_site_fract_y
_atom_site_fract_z
S1 S 0.9517(4) 0.32567(18) 0.22548(17)
S2 S 1.1185(4) 0.21712(16) 0.07905(16)
S3 S 0.8803(4) 0.28241(17) -0.07960(15)
S4 S 0.9346(4) 0.30979(17) 0.07914(16)
S5 S 1.0649(4) 0.19061(17) -0.07930(15)
S6 S 0.8487(4) 0.2751(2) -0.22501(17)
S7 S 1.1518(4) 0.2249(2) 0.22552(18)
S8 S 1.0506(4) 0.17438(18) -0.22520(18)
C1 C 0.9835(14) 0.2453(6) -0.0352(5)
C2 C 1.0250(13) 0.0866(6) -0.2330(5)
C3 C 0.9321(14) 0.0521(7) -0.2073(6)
H1 H 0.8834 0.0746 -0.1819
C4 C 0.9107(17) -0.0209(7) -0.2204(6)
H2 H 0.8490 -0.0453 -0.2026
C5 C 0.9805(15) -0.0531(8) -0.2585(7)
H3 H 0.9699 -0.0995 -0.2659
C6 C 1.0733(18) -0.0132(8) -0.2877(7)
H4 H 1.1159 -0.0349 -0.3172
C7 C 1.0979(14) 0.0549(6) -0.2722(5)
H5 H 1.1628 0.0801 -0.2877
C8 C 1.0127(13) 0.2572(6) 0.0321(7)
C9 C 0.9936(12) 0.2047(7) -0.1550(6)
C10 C 1.0913(14) 0.2531(6) 0.1573(5)
C11 C 1.0033(16) 0.2940(7) 0.1558(7)
C12 C 1.3280(15) 0.2385(6) 0.2343(6)
C13 C 1.3928(16) 0.2046(6) 0.2733(5)
H6 H 1.3468 0.1725 0.2909
C14 C 1.5283(16) 0.2202(8) 0.2851(7)
H7 H 1.5722 0.2007 0.3161
C15 C 1.6061(15) 0.2580(7) 0.2600(7)
H8 H 1.6979 0.2602 0.2671
C16 C 1.5416(16) 0.2958(6) 0.2206(6)
H9 H 1.5921 0.3265 0.2032
C17 C 1.4044(16) 0.2871(6) 0.2083(7)
H10 H 1.3615 0.3125 0.1834
C18 C 0.9075(14) 0.2463(6) -0.1570(6)
C19 C 0.6736(13) 0.2618(6) -0.2356(6)
C20 C 0.5976(14) 0.2194(6) -0.2067(5)
H11 H 0.6390 0.1970 -0.1778
C21 C 0.4639(18) 0.2112(8) -0.2212(7)
H12 H 0.4132 0.1798 -0.2047
C22 C 0.4024(19) 0.2442(8) -0.2566(7)
H13 H 0.3097 0.2377 -0.2627
C23 C 0.4720(16) 0.2915(5) -0.2877(6)
H14 H 0.4289 0.3155 -0.3142
C24 C 0.6088(13) 0.2969(6) -0.2735(6)
H15 H 0.6605 0.3267 -0.2912
C25 C 0.9774(14) 0.4147(6) 0.2350(6)
C26 C 1.0676(15) 0.4511(7) 0.2075(6)
H16 H 1.1139 0.4300 0.1796
C27 C 1.0845(15) 0.5173(8) 0.2229(7)
H17 H 1.1499 0.5425 0.2076
C28 C 1.0148(14) 0.5509(7) 0.2586(7)
H18 H 1.0255 0.5970 0.2638
C29 C 0.9267(13) 0.5160(7) 0.2877(6)
H19 H 0.8825 0.5380 0.3161
C30 C 0.9074(16) 0.4475(8) 0.2727(7)
H20 H 0.8437 0.4224 0.2890
C31 C 1.221(2) 0.4522(10) -0.1373(11)
C32 C 1.659(3) 0.5016(11) -0.1287(13)
C33 C 1.4771(15) 0.3601(7) 0.0685(7)
C34 C 1.4614(15) 0.4105(9) 0.1202(8)
C35 C 1.5889(19) 0.4555(7) 0.1495(6)
C36 C 1.6833(13) 0.4329(8) 0.1159(7)
C37 C 1.6143(16) 0.3739(8) 0.0658(6)
C38 C 1.793(3) 0.4784(15) 0.1083(13)
C39 C 1.8257(18) 0.4696(8) 0.0451(9)
C40 C 1.4175(12) 0.3261(8) -0.0568(8)
C41 C 1.3187(16) 0.3415(9) -0.1041(6)
C42 C 1.2233(15) 0.3642(9) -0.0713(9)
C43 C 1.2632(17) 0.3629(11) -0.0037(7)
C44 C 1.3833(16) 0.3393(11) 0.0053(6)
C45 C 1.7157(14) 0.4200(7) -0.0733(7)
C46 C 1.5915(14) 0.3722(7) -0.1026(5)
C47 C 1.5569(11) 0.3385(6) -0.0541(7)
C48 C 1.6597(14) 0.3654(7) 0.0051(5)
C49 C 1.7579(11) 0.4158(6) -0.0067(6)
C50 C 1.1726(19) 0.4186(10) -0.0909(9)
C51 C 1.371(2) 0.3754(14) -0.1483(11)
C52 C 1.508(2) 0.3969(13) -0.1474(13)
C53 C 1.848(3) 0.5364(13) 0.0408(13)
C54 C 1.239(3) 0.4106(17) 0.0483(15)
C55 C 1.764(2) 0.4845(10) -0.0819(12)
C56 C 1.596(3) 0.5237(11) 0.1721(13)
C57 C 1.532(2) 0.4582(12) -0.1659(11)
C58 C 1.340(3) 0.435(2) 0.1087(15)
C59 C 1.305(4) 0.4224(19) -0.1718(17)
C60 C 1.179(3) 0.4607(15) 0.0237(15)
C31A C 1.779(2) 0.5478(10) 0.1373(11)
C32A C 1.341(3) 0.4984(11) 0.1287(13)
C33A C 1.5229(15) 0.6399(7) -0.0685(7)
C34A C 1.5386(15) 0.5895(9) -0.1202(8)
C35A C 1.4111(19) 0.5445(7) -0.1495(6)
C36A C 1.3167(13) 0.5671(8) -0.1159(7)
C37A C 1.3857(16) 0.6261(8) -0.0658(6)
C38A C 1.207(3) 0.5216(15) -0.1083(13)
C39A C 1.1743(18) 0.5304(8) -0.0451(9)
C40A C 1.5825(12) 0.6739(8) 0.0568(8)
C41A C 1.6813(16) 0.6585(9) 0.1041(6)
C42A C 1.7767(15) 0.6358(9) 0.0713(9)
C43A C 1.7368(17) 0.6371(11) 0.0037(7)
C44A C 1.6167(16) 0.6607(11) -0.0053(6)
C45A C 1.2843(14) 0.5800(7) 0.0733(7)
C46A C 1.4085(14) 0.6278(7) 0.1026(5)
C47A C 1.4431(11) 0.6615(6) 0.0541(7)
C48A C 1.3403(14) 0.6346(7) -0.0051(5)
C49A C 1.2421(11) 0.5842(6) 0.0067(6)
C50A C 1.8274(19) 0.5814(10) 0.0909(9)
C51A C 1.629(2) 0.6246(14) 0.1483(11)
C52A C 1.492(2) 0.6031(13) 0.1474(13)
C53A C 1.152(3) 0.4636(13) -0.0408(13)
C54A C 1.761(3) 0.5894(17) -0.0483(15)
C55A C 1.236(2) 0.5155(10) 0.0819(12)
C56A C 1.404(3) 0.4763(11) -0.1721(13)
C57A C 1.468(2) 0.5418(12) 0.1659(11)
C58A C 1.660(3) 0.565(2) -0.1087(15)
C59A C 1.695(4) 0.5776(19) 0.1718(17)
C60A C 1.821(3) 0.5393(15) -0.0237(15)
C61 C 0.779(2) 1.0408(7) 0.6331(9)
C62 C 0.7546(16) 0.9797(8) 0.4167(5)
C63 C 0.7566(14) 0.9276(6) 0.4509(6)
C64 C 0.8134(13) 0.9580(6) 0.5193(6)
C65 C 0.8465(16) 1.0288(6) 0.5273(6)
C66 C 0.8102(19) 1.0422(6) 0.4639(8)
C67 C 0.5352(15) 0.9745(7) 0.6616(8)
C68 C 0.3932(15) 0.9570(7) 0.6373(8)
C69 C 0.3491(14) 1.0173(10) 0.6359(10)
C70 C 0.4638(19) 1.0721(7) 0.6594(11)
C71 C 0.5788(14) 1.0456(7) 0.6753(7)
C72 C 0.420(3) 0.8519(14) 0.3827(14)
C73 C 0.558(2) 0.8808(9) 0.3757(9)
C74 C 0.6429(15) 0.8741(7) 0.4286(6)
C75 C 0.5944(16) 0.8441(9) 0.4754(6)
C76 C 0.4501(16) 0.8244(8) 0.4543(7)
C77 C 0.693(2) 1.0843(8) 0.6586(10)
C78 C 0.867(3) 1.0645(10) 0.5941(12)
C79 C 0.3428(17) 0.8995(9) 0.5867(7)
C80 C 0.4208(12) 0.8570(9) 0.5601(8)
C81 C 0.3571(16) 0.8283(10) 0.4921(8)
C82 C 0.2396(17) 0.8530(11) 0.4767(7)
C83 C 0.2307(17) 0.8970(9) 0.5352(11)
C84 C 0.6259(12) 0.9416(6) 0.6389(5)
C85 C 0.5620(10) 0.8810(6) 0.5901(6)
C86 C 0.6436(13) 0.8718(5) 0.5443(5)
C87 C 0.7580(11) 0.9267(6) 0.5648(5)
C88 C 0.7471(11) 0.9699(5) 0.6233(5)
C89 C 0.216(2) 0.8708(14) 0.4149(11)
C90 C 0.694(3) 1.1432(14) 0.6314(18)
C61A C 0.221(2) 0.9592(7) 0.3669(9)
C62A C 0.2454(16) 1.0203(8) 0.5833(5)
C63A C 0.2434(14) 1.0724(6) 0.5491(6)
C64A C 0.1866(13) 1.0420(6) 0.4807(6)
C65A C 0.1535(16) 0.9712(6) 0.4727(6)
C66A C 0.1898(19) 0.9578(6) 0.5361(8)
C67A C 0.4648(15) 1.0255(7) 0.3384(8)
C68A C 0.6068(15) 1.0430(7) 0.3627(8)
C69A C 0.6509(14) 0.9827(10) 0.3641(10)
C70A C 0.5362(19) 0.9279(7) 0.3406(11)
C71A C 0.4212(14) 0.9544(7) 0.3247(7)
C72A C 0.580(3) 1.1481(14) 0.6173(14)
C73A C 0.442(2) 1.1192(9) 0.6243(9)
C74A C 0.3571(15) 1.1259(7) 0.5714(6)
C75A C 0.4056(16) 1.1559(9) 0.5246(6)
C76A C 0.5499(16) 1.1756(8) 0.5457(7)
C77A C 0.307(2) 0.9157(8) 0.3414(10)
C78A C 0.133(3) 0.9355(10) 0.4059(12)
C79A C 0.6572(17) 1.1005(9) 0.4133(7)
C80A C 0.5792(12) 1.1430(9) 0.4399(8)
C81A C 0.6429(16) 1.1717(10) 0.5079(8)
C82A C 0.7604(17) 1.1470(11) 0.5233(7)
C83A C 0.7693(17) 1.1030(9) 0.4648(11)
C84A C 0.3741(12) 1.0584(6) 0.3611(5)
C85A C 0.4380(10) 1.1190(6) 0.4099(6)
C86A C 0.3564(13) 1.1282(5) 0.4557(5)
C87A C 0.2420(11) 1.0733(6) 0.4352(5)
C88A C 0.2529(11) 1.0301(5) 0.3767(5)
C89A C 0.784(2) 1.1292(14) 0.5851(11)
C90A C 0.306(3) 0.8568(14) 0.3686(18)
C91 C 0.2376(11) 0.0824(6) 0.0035(6)
C92 C 0.2707(14) 0.0754(6) 0.0696(6)
C93 C 0.3955(14) 0.1213(7) 0.1028(5)
C94 C 0.4396(12) 0.1566(6) 0.0573(7)
C95 C 0.3420(14) 0.1326(6) -0.0041(5)
C96 C 0.3176(14) 0.0666(7) -0.1191(7)
C97 C 0.418(2) 0.0469(7) -0.1504(7)
C98 C 0.5424(15) 0.0929(9) -0.1175(9)
C99 C 0.5196(15) 0.1409(8) -0.0660(7)
C100 C 0.3806(16) 0.1247(7) -0.0670(6)
C101 C 0.2032(17) -0.0481(8) -0.1363(7)
C102 C 0.163(2) -0.0841(6) -0.0904(8)
C103 C 0.1453(18) -0.0372(8) -0.0363(6)
C104 C 0.1749(17) 0.0278(6) -0.0487(7)
C105 C 0.2107(17) 0.0211(7) -0.1105(7)
C106 C 0.616(2) 0.1696(17) -0.0065(10)
C107 C 0.5771(17) 0.1747(10) 0.0542(9)
C108 C 0.672(2) 0.1595(15) 0.1066(14)
C109 C 0.785(3) 0.1390(14) 0.0739(14)
C110 C 0.3349(19) -0.0761(9) 0.1035(9)
C111 C 0.3353(17) -0.0077(8) 0.1288(7)
C112 C 0.2412(18) 0.0111(7) 0.0821(8)
C113 C 0.1827(16) -0.0455(8) 0.0278(7)
C114 C 0.241(2) -0.0995(7) 0.0410(8)
C115 C 0.494(2) 0.1013(12) 0.1446(12)
C116 C 0.372(3) -0.1238(13) -0.1459(13)
C117 C 0.4569(19) 0.0404(9) 0.1644(9)
C118 C 0.403(3) -0.0227(10) -0.1755(14)
C119 C 0.255(3) -0.1469(11) -0.0125(11)
C120 C 0.304(2) -0.0728(9) -0.1605(11)
C91A C 0.7624(11) -0.0824(6) -0.0035(6)
C92A C 0.7293(14) -0.0754(6) -0.0696(6)
C93A C 0.6045(14) -0.1213(7) -0.1028(5)
C94A C 0.5604(12) -0.1566(6) -0.0573(7)
C95A C 0.6580(14) -0.1326(6) 0.0041(5)
C96A C 0.6824(14) -0.0666(7) 0.1191(7)
C97A C 0.582(2) -0.0469(7) 0.1504(7)
C98A C 0.4576(15) -0.0929(9) 0.1175(9)
C99A C 0.4804(15) -0.1409(8) 0.0660(7)
C100A C 0.6194(16) -0.1247(7) 0.0670(6)
C101A C 0.7968(17) 0.0481(8) 0.1363(7)
C102A C 0.837(2) 0.0841(6) 0.0904(8)
C103A C 0.8547(18) 0.0372(8) 0.0363(6)
C104A C 0.8251(17) -0.0278(6) 0.0487(7)
C105A C 0.7893(17) -0.0211(7) 0.1105(7)
C106A C 0.384(2) -0.1696(17) 0.0065(10)
C107A C 0.4229(17) -0.1747(10) -0.0542(9)
C108A C 0.328(2) -0.1595(15) -0.1066(14)
C109A C 0.215(3) -0.1390(14) -0.0739(14)
C110A C 0.6651(19) 0.0761(9) -0.1035(9)
C111A C 0.6647(17) 0.0077(8) -0.1288(7)
C112A C 0.7588(18) -0.0111(7) -0.0821(8)
C113A C 0.8173(16) 0.0455(8) -0.0278(7)
C114A C 0.759(2) 0.0995(7) -0.0410(8)
C115A C 0.506(2) -0.1013(12) -0.1446(12)
C116A C 0.628(3) 0.1238(13) 0.1459(13)
C117A C 0.5431(19) -0.0404(9) -0.1644(9)
C118A C 0.597(3) 0.0227(10) 0.1755(14)
C119A C 0.745(3) 0.1469(11) 0.0125(11)
C120A C 0.696(2) 0.0728(9) 0.1605(11)
C123 C 1.079(2) 0.2126(9) 0.4978(10)
C124 C 1.088(7) 0.226(2) 0.564(3)
C125 C 0.925(2) 0.2893(10) 0.5051(10)
Cl1 Cl 0.9439(11) 0.2224(5) 0.3877(5)
C126 C 0.978(4) 0.3123(19) 0.5789(18)
C127 C 0.991(3) 0.2489(15) 0.4697(14)
C128 C 1.0592(13) 0.2774(6) 0.6123(6)
C131 C 0.7507(15) 0.4284(7) 0.4504(7)
C132 C 0.8119(15) 0.4544(7) 0.5196(7)
C133 C 0.403(2) 0.4541(10) 0.6364(9)
C134 C 0.834(3) 0.5683(9) 0.5889(11)
C135 C 0.777(2) 0.5377(8) 0.6334(9)
C136 C 0.214(2) 0.3718(12) 0.4141(9)
C137 C 0.3601(17) 0.3327(12) 0.4925(8)
C138 C 0.2403(16) 0.3551(14) 0.4755(9)
C139 C 0.224(2) 0.3962(12) 0.5338(13)
C140 C 0.333(2) 0.3991(11) 0.5868(9)
C141 C 0.4176(14) 0.3598(11) 0.5613(8)
C142 C 0.2922(19) 0.3620(14) 0.3668(11)
C143 C 0.451(5) 0.5248(12) 0.342(2)
C144 C 0.6443(10) 0.3724(6) 0.4288(5)
C145 C 0.5373(13) 0.3724(6) 0.3758(5)
C146 C 0.4145(10) 0.3431(8) 0.3893(7)
C147 C 0.4456(12) 0.3248(7) 0.4507(7)
C148 C 0.5876(13) 0.3429(6) 0.4751(5)
C149 C 0.856(2) 0.5266(8) 0.5346(9)
C150 C 0.7586(16) 0.4811(8) 0.4161(8)
C151 C 0.188(3) 0.4575(12) 0.5324(11)
C152 C 0.6124(15) 0.4379(7) 0.6368(6)
C153 C 0.7353(14) 0.4687(5) 0.6243(6)
C154 C 0.7554(11) 0.4263(6) 0.5677(5)
C155 C 0.6448(14) 0.3694(5) 0.5452(5)
C156 C 0.5565(11) 0.3766(7) 0.5879(6)
C157 C 0.536(2) 0.4252(12) 0.3409(12)
C158 C 0.298(2) 0.4106(14) 0.3289(16)
C159 C 0.4168(18) 0.4537(8) 0.3262(7)
C160 C 0.646(3) 0.4815(13) 0.3664(15)
C131A C 0.2493(15) 0.5716(7) 0.5496(7)
C132A C 0.1881(15) 0.5456(7) 0.4804(7)
C133A C 0.597(2) 0.5459(10) 0.3636(9)
C134A C 0.166(3) 0.4317(9) 0.4111(11)
C135A C 0.223(2) 0.4623(8) 0.3666(9)
C136A C 0.786(2) 0.6282(12) 0.5859(9)
C137A C 0.6399(17) 0.6673(12) 0.5075(8)
C138A C 0.7597(16) 0.6449(14) 0.5245(9)
C139A C 0.776(2) 0.6038(12) 0.4662(13)
C140A C 0.667(2) 0.6009(11) 0.4132(9)
C141A C 0.5824(14) 0.6402(11) 0.4387(8)
C142A C 0.7078(19) 0.6380(14) 0.6332(11)
C143A C 0.549(5) 0.4752(12) 0.658(2)
C144A C 0.3557(10) 0.6276(6) 0.5712(5)
C145A C 0.4627(13) 0.6276(6) 0.6242(5)
C146A C 0.5855(10) 0.6569(8) 0.6107(7)
C147A C 0.5544(12) 0.6752(7) 0.5493(7)
C148A C 0.4124(13) 0.6571(6) 0.5249(5)
C149A C 0.144(2) 0.4734(8) 0.4654(9)
C150A C 0.2414(16) 0.5189(8) 0.5839(8)
C151A C 0.812(3) 0.5425(12) 0.4676(11)
C152A C 0.3876(15) 0.5621(7) 0.3632(6)
C153A C 0.2647(14) 0.5313(5) 0.3757(6)
C154A C 0.2446(11) 0.5737(6) 0.4323(5)
C155A C 0.3552(14) 0.6306(5) 0.4548(5)
C156A C 0.4435(11) 0.6234(7) 0.4121(6)
C157A C 0.464(2) 0.5748(12) 0.6591(12)
C158A C 0.702(2) 0.5894(14) 0.6711(16)
C159A C 0.5832(18) 0.5463(8) 0.6738(7)
C160A C 0.354(3) 0.5185(13) 0.6336(15)
C121? C 0.9439(11) 0.2224(5) 0.3877(5)
C122? C 1.002(11) 0.248(6) 0.533(3)
C129? C 0.892(3) 0.2655(11) 0.4320(12)
C130? C 1.027(4) 0.192(2) 0.426(2)
Cl2? Cl 1.0592(13) 0.2774(6) 0.6123(6)
loop_
_geom_bond_atom_site_label_1
_geom_bond_atom_site_label_2
_geom_bond_site_symmetry_1
_geom_bond_site_symmetry_2
S1 C11 1_555 1_555
S2 C8 1_555 1_555
S3 C1 1_555 1_555
S4 C8 1_555 1_555
S5 C1 1_555 1_555
S6 C18 1_555 1_555
S7 C10 1_555 1_555
S8 C2 1_555 1_555
C1 C8 1_555 1_555
C2 C3 1_555 1_555
C3 H1 1_555 1_555
C4 C3 1_555 1_555
H2 C4 1_555 1_555
C5 C4 1_555 1_555
H3 C5 1_555 1_555
C6 C5 1_555 1_555
H4 C6 1_555 1_555
C7 C2 1_555 1_555
H5 C7 1_555 1_555
C9 S5 1_555 1_555
C10 S2 1_555 1_555
C11 S4 1_555 1_555
C12 S7 1_555 1_555
C13 C12 1_555 1_555
H6 C13 1_555 1_555
C14 C13 1_555 1_555
H7 C14 1_555 1_555
C15 C14 1_555 1_555
H8 C15 1_555 1_555
C16 C15 1_555 1_555
H9 C16 1_555 1_555
C17 C12 1_555 1_555
H10 C17 1_555 1_555
C18 S3 1_555 1_555
C19 S6 1_555 1_555
C20 C19 1_555 1_555
H11 C20 1_555 1_555
C21 C20 1_555 1_555
H12 C21 1_555 1_555
C22 C21 1_555 1_555
H13 C22 1_555 1_555
C23 C22 1_555 1_555
H14 C23 1_555 1_555
C24 C19 1_555 1_555
H15 C24 1_555 1_555
C25 S1 1_555 1_555
C26 C25 1_555 1_555
H16 C26 1_555 1_555
C27 C26 1_555 1_555
H17 C27 1_555 1_555
C28 C27 1_555 1_555
H18 C28 1_555 1_555
C29 C28 1_555 1_555
H19 C29 1_555 1_555
C30 C25 1_555 1_555
H20 C30 1_555 1_555
C31 C50 1_555 1_555
C32 C55 1_555 1_555
C33 C34 1_555 1_555
C34 C35 1_555 1_555
C35 C36 1_555 1_555
C36 C37 1_555 1_555
C37 C33 1_555 1_555
C38 C36 1_555 1_555
C39 C38 1_555 1_555
C40 C41 1_555 1_555
C41 C42 1_555 1_555
C42 C43 1_555 1_555
C43 C44 1_555 1_555
C44 C33 1_555 1_555
C45 C46 1_555 1_555
C46 C47 1_555 1_555
C47 C40 1_555 1_555
C48 C37 1_555 1_555
C49 C39 1_555 1_555
C50 C42 1_555 1_555
C51 C41 1_555 1_555
C52 C46 1_555 1_555
C53 C39 1_555 1_555
C54 C43 1_555 1_555
C55 C45 1_555 1_555
C56 C35 1_555 1_555
C57 C32 1_555 1_555
C58 C34 1_555 1_555
C59 C31 1_555 1_555
C60 C54 1_555 1_555
C61 C77 1_555 1_555
C62 C63 1_555 1_555
C63 C64 1_555 1_555
C64 C65 1_555 1_555
C65 C66 1_555 1_555
C66 C62 1_555 1_555
C67 C68 1_555 1_555
C68 C69 1_555 1_555
C69 C70 1_555 1_555
C70 C71 1_555 1_555
C71 C67 1_555 1_555
C72 C73 1_555 1_555
C73 C74 1_555 1_555
C74 C63 1_555 1_555
C75 C74 1_555 1_555
C76 C72 1_555 1_555
C77 C71 1_555 1_555
C78 C61 1_555 1_555
C79 C68 1_555 1_555
C80 C79 1_555 1_555
C81 C76 1_555 1_555
C82 C81 1_555 1_555
C83 C79 1_555 1_555
C84 C67 1_555 1_555
C85 C80 1_555 1_555
C86 C75 1_555 1_555
C87 C64 1_555 1_555
C88 C61 1_555 1_555
C89 C82 1_555 1_555
C90 C77 1_555 1_555
C91 C92 1_555 1_555
C92 C93 1_555 1_555
C93 C94 1_555 1_555
C94 C95 1_555 1_555
C95 C91 1_555 1_555
C96 C97 1_555 1_555
C97 C98 1_555 1_555
C98 C99 1_555 1_555
C99 C100 1_555 1_555
C100 C95 1_555 1_555
C101 C102 1_555 1_555
C102 C103 1_555 1_555
C103 C104 1_555 1_555
C104 C91 1_555 1_555
C105 C96 1_555 1_555
C106 C99 1_555 1_555
C107 C94 1_555 1_555
C108 C107 1_555 1_555
C109 C108 1_555 1_555
C110 C111 1_555 1_555
C111 C112 1_555 1_555
C112 C92 1_555 1_555
C113 C103 1_555 1_555
C114 C110 1_555 1_555
C115 C93 1_555 1_555
C116 C120 1_555 1_555
C117 C111 1_555 1_555
C118 C97 1_555 1_555
C119 C114 1_555 1_555
C120 C101 1_555 1_555
C123 C124 1_555 1_555
C124 C128 1_555 1_555
C125 C126 1_555 1_555
Cl1 C127 1_555 1_555
C126 C128 1_555 1_555
C127 C123 1_555 1_555
C131 C132 1_555 1_555
C132 C149 1_555 1_555
C133 C140 1_555 1_555
C134 C135 1_555 1_555
C135 C153 1_555 1_555
C136 C138 1_555 1_555
C137 C138 1_555 1_555
C138 C139 1_555 1_555
C139 C140 1_555 1_555
C140 C141 1_555 1_555
C141 C137 1_555 1_555
C142 C136 1_555 1_555
C143 C159 1_555 1_555
C144 C131 1_555 1_555
C145 C144 1_555 1_555
C146 C142 1_555 1_555
C147 C137 1_555 1_555
C148 C144 1_555 1_555
C149 C134 1_555 1_555
C150 C131 1_555 1_555
C151 C139 1_555 1_555
C152 C153 1_555 1_555
C153 C154 1_555 1_555
C154 C132 1_555 1_555
C155 C148 1_555 1_555
C156 C141 1_555 1_555
C157 C145 1_555 1_555
C158 C142 1_555 1_555
C159 C157 1_555 1_555
C160 C150 1_555 1_555
C31A C38 1_555 1_555
C32A C58 1_555 1_555
C33A C34A 1_555 1_555
C34A C35A 1_555 1_555
C35A C36A 1_555 1_555
C36A C37A 1_555 1_555
C37A C33A 1_555 1_555
C38A C31 1_555 1_555
C39A C38A 1_555 1_555
C40A C41A 1_555 1_555
C41A C42A 1_555 1_555
C42A C43A 1_555 1_555
C43A C44A 1_555 1_555
C44A C33A 1_555 1_555
C45A C46A 1_555 1_555
C46A C47A 1_555 1_555
C47A C40A 1_555 1_555
C48A C37A 1_555 1_555
C49A C39A 1_555 1_555
C50A C53 1_555 1_555
C51A C41A 1_555 1_555
C52A C46A 1_555 1_555
C53A C50 1_555 1_555
C54A C43A 1_555 1_555
C55A C60 1_555 1_555
C56A C57 1_555 1_555
C57A C56 1_555 1_555
C58A C32 1_555 1_555
C59A C56 1_555 1_555
C60A C53 1_555 1_555
C61A C77A 1_555 1_555
C62A C69 1_555 1_555
C63A C62A 1_555 1_555
C64A C63A 1_555 1_555
C65A C64A 1_555 1_555
C66A C83 1_555 1_555
C67A C68A 1_555 1_555
C68A C69A 1_555 1_555
C69A C62 1_555 1_555
C70A C73 1_555 1_555
C71A C67A 1_555 1_555
C72A C90 1_555 1_555
C73A C70 1_555 1_555
C74A C63A 1_555 1_555
C75A C74A 1_555 1_555
C76A C72A 1_555 1_555
C77A C71A 1_555 1_555
C78A C89 1_555 1_555
C79A C68A 1_555 1_555
C80A C79A 1_555 1_555
C81A C76A 1_555 1_555
C82A C81A 1_555 1_555
C83A C66 1_555 1_555
C84A C67A 1_555 1_555
C85A C80A 1_555 1_555
C86A C75A 1_555 1_555
C87A C64A 1_555 1_555
C88A C61A 1_555 1_555
C89A C78 1_555 1_555
C90A C72 1_555 1_555
C91A C92A 1_555 1_555
C92A C93A 1_555 1_555
C93A C94A 1_555 1_555
C94A C95A 1_555 1_555
C95A C91A 1_555 1_555
C96A C97A 1_555 1_555
C97A C98A 1_555 1_555
C98A C110 1_555 1_555
C99A C98A 1_555 1_555
C100A C95A 1_555 1_555
C101A C102A 1_555 1_555
C102A C109 1_555 1_555
C103A C102A 1_555 1_555
C104A C91A 1_555 1_555
C105A C96A 1_555 1_555
C106A C119 1_555 1_555
C107A C94A 1_555 1_555
C108A C116 1_555 1_555
C109A C102 1_555 1_555
C110A C98 1_555 1_555
C111A C110A 1_555 1_555
C112A C92A 1_555 1_555
C113A C103A 1_555 1_555
C114A C110A 1_555 1_555
C115A C116 1_555 1_555
C116A C108 1_555 1_555
C117A C118 1_555 1_555
C118A C117 1_555 1_555
C119A C106 1_555 1_555
C120A C101A 1_555 1_555
C131A C132A 1_555 1_555
C132A C149A 1_555 1_555
C133A C143 1_555 1_555
C134A C136 1_555 1_555
C135A C158 1_555 1_555
C136A C134 1_555 1_555
C137A C138A 1_555 1_555
C138A C136A 1_555 1_555
C139A C138A 1_555 1_555
C140A C133A 1_555 1_555
C141A C137A 1_555 1_555
C142A C136A 1_555 1_555
C143A C133 1_555 1_555
C144A C131A 1_555 1_555
C145A C144A 1_555 1_555
C146A C142A 1_555 1_555
C147A C137A 1_555 1_555
C148A C144A 1_555 1_555
C149A C151 1_555 1_555
C150A C151 1_555 1_555
C151A C149 1_555 1_555
C152A C143 1_555 1_555
C153A C135A 1_555 1_555
C154A C132A 1_555 1_555
C155A C148A 1_555 1_555
C156A C141A 1_555 1_555
C157A C145A 1_555 1_555
C158A C135 1_555 1_555
C159A C143A 1_555 1_555
C160A C133 1_555 1_555
S8 C9 1_555 1_555
C6 C7 1_555 1_555
C9 C18 1_555 1_555
C10 C11 1_555 1_555
C16 C17 1_555 1_555
C23 C24 1_555 1_555
C29 C30 1_555 1_555
C40 C44 1_555 1_555
C45 C49 1_555 1_555
C47 C48 1_555 1_555
C48 C49 1_555 1_555
C51 C52 1_555 1_555
C51 C59 1_555 1_555
C52 C57 1_555 1_555
C54 C58 1_555 1_555
C55 C60A 1_555 1_555
C59 C56A 1_555 1_555
C60 C53A 1_555 1_555
C65 C78 1_555 1_555
C75 C76 1_555 1_555
C80 C81 1_555 1_555
C82 C83 1_555 1_555
C84 C85 1_555 1_555
C84 C88 1_555 1_555
C85 C86 1_555 1_555
C86 C87 1_555 1_555
C87 C88 1_555 1_555
C89 C90A 1_555 1_555
C90 C89A 1_555 1_555
C96 C100 1_555 1_555
C101 C105 1_555 1_555
C104 C105 1_555 1_555
C106 C107 1_555 1_555
C109 C119A 1_555 1_555
C112 C113 1_555 1_555
C113 C114 1_555 1_555
C115 C117 1_555 1_555
C115 C116A 1_555 1_555
C118 C120 1_555 1_555
C119 C109A 1_555 1_555
C125 C127 1_555 1_555
C145 C146 1_555 1_555
C146 C147 1_555 1_555
C147 C148 1_555 1_555
C150 C151A 1_555 1_555
C152 C156 1_555 1_555
C152 C143A 1_555 1_555
C154 C155 1_555 1_555
C155 C156 1_555 1_555
C157 C160 1_555 1_555
C158 C159 1_555 1_555
C160 C133A 1_555 1_555
C31A C50A 1_555 1_555
C31A C59A 1_555 1_555
C32A C55A 1_555 1_555
C32A C57A 1_555 1_555
C34A C58A 1_555 1_555
C35A C56A 1_555 1_555
C36A C38A 1_555 1_555
C39A C53A 1_555 1_555
C40A C44A 1_555 1_555
C42A C50A 1_555 1_555
C45A C49A 1_555 1_555
C45A C55A 1_555 1_555
C47A C48A 1_555 1_555
C48A C49A 1_555 1_555
C51A C52A 1_555 1_555
C51A C59A 1_555 1_555
C52A C57A 1_555 1_555
C54A C58A 1_555 1_555
C54A C60A 1_555 1_555
C61A C78A 1_555 1_555
C62A C66A 1_555 1_555
C65A C66A 1_555 1_555
C65A C78A 1_555 1_555
C69A C70A 1_555 1_555
C70A C71A 1_555 1_555
C72A C73A 1_555 1_555
C73A C74A 1_555 1_555
C75A C76A 1_555 1_555
C77A C90A 1_555 1_555
C79A C83A 1_555 1_555
C80A C81A 1_555 1_555
C82A C83A 1_555 1_555
C82A C89A 1_555 1_555
C84A C85A 1_555 1_555
C84A C88A 1_555 1_555
C85A C86A 1_555 1_555
C86A C87A 1_555 1_555
C87A C88A 1_555 1_555
C93A C115A 1_555 1_555
C96A C100A 1_555 1_555
C97A C118A 1_555 1_555
C99A C100A 1_555 1_555
C99A C106A 1_555 1_555
C101A C105A 1_555 1_555
C103A C104A 1_555 1_555
C104A C105A 1_555 1_555
C106A C107A 1_555 1_555
C107A C108A 1_555 1_555
C108A C109A 1_555 1_555
C111A C112A 1_555 1_555
C111A C117A 1_555 1_555
C112A C113A 1_555 1_555
C113A C114A 1_555 1_555
C114A C119A 1_555 1_555
C115A C117A 1_555 1_555
C116A C120A 1_555 1_555
C118A C120A 1_555 1_555
C131A C150A 1_555 1_555
C134A C135A 1_555 1_555
C134A C149A 1_555 1_555
C139A C140A 1_555 1_555
C139A C151A 1_555 1_555
C140A C141A 1_555 1_555
C142A C158A 1_555 1_555
C145A C146A 1_555 1_555
C146A C147A 1_555 1_555
C147A C148A 1_555 1_555
C150A C160A 1_555 1_555
C152A C153A 1_555 1_555
C152A C156A 1_555 1_555
C153A C154A 1_555 1_555
C154A C155A 1_555 1_555
C155A C156A 1_555 1_555
C157A C159A 1_555 1_555
C157A C160A 1_555 1_555
C158A C159A 1_555 1_555

#END
