
#######################################################################
#
#                 Cambridge Crystallographic Data Centre
#                                CCDC 
#
#######################################################################
#
# If this CIF has been generated from an entry in the Cambridge 
# Structural Database, then it will include bibliographic, chemical, 
# crystal, experimental, refinement or atomic coordinate data resulting 
# from the CCDC's data processing and validation procedures.
#
#######################################################################

data_PAMGAO
_chemical_formula_moiety         'C60,0.5(C30 H20 S8),C1 S2'
_chemical_name_systematic        
'C60fullerene hemikis(2,3,6,7-tetrakis(phenylsulfanyl)tetrathiafulvalene) carbon disulfide solvate'
_symmetry_cell_setting           triclinic
_symmetry_space_group_name_H-M   'P -1'
_symmetry_Int_Tables_number      2
_space_group_name_Hall           '-P 1'
loop_
_symmetry_equiv_pos_site_id
_symmetry_equiv_pos_as_xyz
1 x,y,z
2 -x,-y,-z
_cell_length_a                   10.422(4)
_cell_length_b                   10.386(3)
_cell_length_c                   21.722(7)
_cell_angle_alpha                73.300(16)
_cell_angle_beta                 73.605(16)
_cell_angle_gamma                78.378(19)
_cell_volume                     2141.9
_exptl_crystal_colour            'dark black'
_exptl_crystal_description       block
_cell_formula_units_Z            2
loop_
_atom_site_label
_atom_site_type_symbol
_atom_site_fract_x
_atom_site_fract_y
_atom_site_fract_z
S1 S 0.3825(2) 0.3547(2) 0.07945(11)
S2 S 0.5653(2) 0.5395(2) 0.07988(11)
S3 S 0.3558(2) 0.2202(2) 0.22536(12)
S4 S 0.5564(3) 0.4218(2) 0.22511(12)
C1 C 0.4967(9) 0.4320(9) 0.1564(4)
C2 C 0.4132(9) 0.3502(9) 0.1564(4)
C3 C 0.4884(9) 0.4789(9) 0.0332(4)
C4 C 0.4342(9) 0.6910(10) 0.2091(4)
H1 H 0.3837 0.6727 0.1842
C5 C 0.5279(9) 0.5912(9) 0.2345(4)
C6 C 0.1076(9) 0.3630(9) 0.2066(4)
H2 H 0.1522 0.4368 0.1811
C7 C 0.1793(9) 0.2409(9) 0.2336(4)
C8 C -0.0259(10) 0.1410(10) 0.2835(5)
H3 H -0.0712 0.0672 0.3082
C9 C 0.4151(10) 0.8203(10) 0.2208(5)
H4 H 0.3549 0.8893 0.2022
C10 C -0.0328(10) 0.3722(10) 0.2185(4)
H5 H -0.0823 0.4520 0.2002
C11 C 0.6013(9) 0.6150(9) 0.2729(4)
H6 H 0.6651 0.5472 0.2892
C12 C 0.1126(10) 0.1299(9) 0.2727(5)
H7 H 0.1610 0.0495 0.2911
C13 C 0.4860(10) 0.8439(10) 0.2599(5)
H8 H 0.4720 0.9289 0.2686
C14 C 0.5793(10) 0.7420(11) 0.2870(5)
H9 H 0.6259 0.7586 0.3141
C15 C -0.0970(10) 0.2635(10) 0.2572(5)
H10 H -0.1905 0.2717 0.2661
S1A S 0.6175(2) 0.6453(2) -0.07945(11)
S2A S 0.4347(2) 0.4605(2) -0.07988(11)
S3A S 0.6442(2) 0.7798(2) -0.22536(12)
S4A S 0.4436(3) 0.5782(2) -0.22511(12)
C1A C 0.5033(9) 0.5680(9) -0.1564(4)
C2A C 0.5868(9) 0.6498(9) -0.1564(4)
C3A C 0.5116(9) 0.5211(9) -0.0332(4)
C4A C 0.5658(9) 0.3090(10) -0.2091(4)
H1A H 0.6163 0.3273 -0.1842
C5A C 0.4721(9) 0.4088(9) -0.2345(4)
C6A C 0.8924(9) 0.6370(9) -0.2066(4)
H2A H 0.8478 0.5632 -0.1811
C7A C 0.8207(9) 0.7591(9) -0.2336(4)
C8A C 1.0259(10) 0.8590(10) -0.2835(5)
H3A H 1.0712 0.9328 -0.3082
C9A C 0.5849(10) 0.1797(10) -0.2208(5)
H4A H 0.6451 0.1107 -0.2022
C10A C 1.0328(10) 0.6278(10) -0.2185(4)
H5A H 1.0823 0.5480 -0.2002
C11A C 0.3987(9) 0.3850(9) -0.2729(4)
H6A H 0.3349 0.4528 -0.2892
C12A C 0.8874(10) 0.8701(9) -0.2727(5)
H7A H 0.8390 0.9505 -0.2911
C13A C 0.5140(10) 0.1561(10) -0.2599(5)
H8A H 0.5280 0.0711 -0.2686
C14A C 0.4207(10) 0.2580(11) -0.2870(5)
H9A H 0.3741 0.2414 -0.3141
C15A C 1.0970(10) 0.7365(10) -0.2572(5)
H10A H 1.1905 0.7283 -0.2661
C16 C 0.1151(11) 0.2623(11) 0.6328(5)
C17 C 0.2689(11) 0.3132(11) 0.4075(5)
C18 C -0.0589(12) 0.3743(12) 0.3769(5)
C19 C 0.0778(13) 0.3501(13) 0.3647(6)
C20 C -0.2531(13) 0.3733(14) 0.4639(7)
C21 C -0.2351(11) 0.3174(11) 0.6299(5)
C22 C -0.0769(11) 0.4004(11) 0.6759(5)
C23 C 0.2423(12) 0.2114(12) 0.5268(6)
C24 C 0.0826(13) 0.1765(11) 0.4656(7)
C25 C 0.1215(14) 0.1503(12) 0.5282(7)
C26 C -0.3018(13) 0.3621(15) 0.5336(7)
C27 C 0.3024(12) 0.3805(13) 0.5540(7)
C28 C -0.0682(15) 0.1955(14) 0.4802(7)
C29 C -0.3016(12) 0.4491(13) 0.6235(6)
C30 C 0.3074(14) 0.2860(14) 0.4660(7)
C31 C -0.1116(14) 0.1793(12) 0.5539(7)
C32 C -0.2290(15) 0.2607(13) 0.5773(7)
C33 C 0.1523(15) 0.2535(14) 0.4086(7)
C34 C -0.1143(14) 0.2881(13) 0.6571(6)
C35 C 0.3537(13) 0.4020(15) 0.4804(7)
C36 C -0.2583(13) 0.5043(15) 0.4225(7)
C37 C 0.1512(14) 0.4735(14) 0.3357(6)
C38 C -0.1375(13) 0.5049(14) 0.3668(6)
C39 C 0.2326(14) 0.2651(14) 0.5795(7)
C40 C -0.3487(13) 0.4776(15) 0.5582(7)
C41 C -0.0015(14) 0.2070(14) 0.6338(7)
C42 C 0.0062(15) 0.1529(13) 0.5784(7)
C43 C -0.1367(14) 0.2900(15) 0.4394(7)
C44 C 0.0688(14) 0.3870(15) 0.6581(6)
C45 C 0.2670(13) 0.4462(15) 0.3631(7)
C16A C -0.1151(11) 0.7377(11) 0.3672(5)
C17A C -0.2689(11) 0.6868(11) 0.5925(5)
C18A C 0.0589(12) 0.6257(12) 0.6231(5)
C19A C -0.0778(13) 0.6499(13) 0.6353(6)
C20A C 0.2531(13) 0.6267(14) 0.5361(7)
C21A C 0.2351(11) 0.6826(11) 0.3701(5)
C22A C 0.0769(11) 0.5996(11) 0.3241(5)
C23A C -0.2423(12) 0.7886(12) 0.4732(6)
C24A C -0.0826(13) 0.8235(11) 0.5344(7)
C25A C -0.1215(14) 0.8497(12) 0.4718(7)
C26A C 0.3018(13) 0.6379(15) 0.4664(7)
C27A C -0.3024(12) 0.6195(13) 0.4460(7)
C28A C 0.0682(15) 0.8045(14) 0.5198(7)
C29A C 0.3016(12) 0.5509(13) 0.3765(6)
C30A C -0.3074(14) 0.7140(14) 0.5340(7)
C31A C 0.1116(14) 0.8207(12) 0.4461(7)
C32A C 0.2290(15) 0.7393(13) 0.4227(7)
C33A C -0.1523(15) 0.7465(14) 0.5914(7)
C34A C 0.1143(14) 0.7119(13) 0.3429(6)
C35A C -0.3537(13) 0.5980(15) 0.5196(7)
C36A C 0.2583(13) 0.4957(15) 0.5775(7)
C37A C -0.1512(14) 0.5265(14) 0.6643(6)
C38A C 0.1375(13) 0.4951(14) 0.6332(6)
C39A C -0.2326(14) 0.7349(14) 0.4205(7)
C40A C 0.3487(13) 0.5224(15) 0.4418(7)
C41A C 0.0015(14) 0.7930(14) 0.3662(7)
C42A C -0.0062(15) 0.8471(13) 0.4216(7)
C43A C 0.1367(14) 0.7100(15) 0.5606(7)
C44A C -0.0688(14) 0.6130(15) 0.3419(6)
C45A C -0.2670(13) 0.5538(15) 0.6369(7)
C46 C 0.7194(12) 0.2062(12) 0.0732(6)
C47 C 0.7180(12) 0.2546(13) 0.0042(7)
C48 C 1.2693(9) 0.1568(9) 0.0038(4)
C49 C 1.1669(8) 0.2685(9) -0.0056(5)
C50 C 1.1518(10) 0.2942(10) -0.0712(5)
C51 C 1.2449(11) 0.1984(12) -0.1023(4)
C52 C 1.3176(9) 0.1134(9) -0.0559(5)
C53 C 0.6755(12) 0.0836(14) 0.0978(7)
C54 C 1.1260(15) 0.0645(14) 0.1203(7)
C55 C 1.2447(13) 0.0532(13) 0.0692(6)
C56 C 1.2813(11) -0.0859(15) 0.0686(7)
C57 C 1.1852(14) -0.1604(11) 0.1194(7)
C58 C 1.0893(13) -0.0675(17) 0.1513(6)
C59 C 0.8600(17) 0.0225(12) 0.1633(7)
C60 C 0.9603(13) -0.0916(16) 0.1715(7)
C61 C 0.9142(13) -0.2025(11) 0.1620(6)
C62 C 0.7853(13) -0.1568(13) 0.1479(7)
C63 C 0.7518(11) -0.0177(13) 0.1486(6)
C64 C 1.0570(8) 0.2715(10) 0.0533(5)
C65 C 1.0459(11) 0.1644(11) 0.1117(5)
C66 C 0.9082(12) 0.1435(12) 0.1359(5)
C67 C 0.8343(8) 0.2376(12) 0.0924(5)
C68 C 0.9263(10) 0.3167(9) 0.0414(5)
C69 C 1.3556(14) -0.0301(16) -0.0442(10)
C70 C 1.1489(19) -0.2743(18) 0.1063(8)
C71 C 0.673(2) 0.150(2) -0.0170(12)
C72 C 0.815(2) 0.317(3) -0.0441(9)
C73 C 1.0223(17) 0.3462(19) -0.0774(8)
C74 C 0.9092(14) 0.3596(17) -0.0240(9)
C75 C 1.009(2) -0.2929(16) 0.1304(9)
C46A C 1.2806(12) -0.2062(12) -0.0732(6)
C47A C 1.2820(12) -0.2546(13) -0.0042(7)
C48A C 0.7307(9) -0.1568(9) -0.0038(4)
C49A C 0.8331(8) -0.2685(9) 0.0056(5)
C50A C 0.8482(10) -0.2942(10) 0.0712(5)
C51A C 0.7551(11) -0.1984(12) 0.1023(4)
C52A C 0.6824(9) -0.1134(9) 0.0559(5)
C53A C 1.3245(12) -0.0836(14) -0.0978(7)
C54A C 0.8740(15) -0.0645(14) -0.1203(7)
C55A C 0.7553(13) -0.0532(13) -0.0692(6)
C56A C 0.7187(11) 0.0859(15) -0.0686(7)
C57A C 0.8148(14) 0.1604(11) -0.1194(7)
C58A C 0.9107(13) 0.0675(17) -0.1513(6)
C59A C 1.1400(17) -0.0225(12) -0.1633(7)
C60A C 1.0397(13) 0.0916(16) -0.1715(7)
C61A C 1.0858(13) 0.2025(11) -0.1620(6)
C62A C 1.2147(13) 0.1568(13) -0.1479(7)
C63A C 1.2482(11) 0.0177(13) -0.1486(6)
C64A C 0.9430(8) -0.2715(10) -0.0533(5)
C65A C 0.9541(11) -0.1644(11) -0.1117(5)
C66A C 1.0918(12) -0.1435(12) -0.1359(5)
C67A C 1.1657(8) -0.2376(12) -0.0924(5)
C68A C 1.0737(10) -0.3167(9) -0.0414(5)
C69A C 0.6444(14) 0.0301(16) 0.0442(10)
C70A C 0.8511(19) 0.2743(18) -0.1063(8)
C71A C 1.327(2) -0.150(2) 0.0170(12)
C72A C 1.185(2) -0.317(3) 0.0441(9)
C73A C 0.9777(17) -0.3462(19) 0.0774(8)
C74A C 1.0908(14) -0.3596(17) 0.0240(9)
C75A C 0.991(2) 0.2929(16) -0.1304(9)
S5 S 0.4232(11) -0.0642(13) 0.4448(7)
C76 C 0.5381(17) 0.0443(18) 0.4003(9)
S6 S 0.6200(12) 0.0784(12) 0.3330(7)
S7? S 0.6397(6) 0.1516(7) 0.3910(5)
S8? S 0.4391(18) -0.0398(16) 0.4095(8)
loop_
_geom_bond_atom_site_label_1
_geom_bond_atom_site_label_2
_geom_bond_site_symmetry_1
_geom_bond_site_symmetry_2
S1 C2 1_555 1_555
S2 C1 1_555 1_555
S3 C2 1_555 1_555
S4 C1 1_555 1_555
C1 C2 1_555 1_555
C3 S1 1_555 1_555
C4 H1 1_555 1_555
C5 S4 1_555 1_555
C6 H2 1_555 1_555
C7 S3 1_555 1_555
C8 H3 1_555 1_555
C9 C4 1_555 1_555
H4 C9 1_555 1_555
C10 C6 1_555 1_555
H5 C10 1_555 1_555
C11 C5 1_555 1_555
H6 C11 1_555 1_555
C12 C7 1_555 1_555
H7 C12 1_555 1_555
C13 C9 1_555 1_555
H8 C13 1_555 1_555
C14 C11 1_555 1_555
H9 C14 1_555 1_555
C15 C8 1_555 1_555
H10 C15 1_555 1_555
C16 C39 1_555 1_555
C17 C30 1_555 1_555
C18 C19 1_555 1_555
C19 C33 1_555 1_555
C20 C26 1_555 1_555
C21 C29 1_555 1_555
C22 C34 1_555 1_555
C23 C25 1_555 1_555
C24 C25 1_555 1_555
C25 C42 1_555 1_555
C26 C32 1_555 1_555
C27 C35 1_555 1_555
C28 C24 1_555 1_555
C29 C40 1_555 1_555
C30 C23 1_555 1_555
C31 C28 1_555 1_555
C32 C21 1_555 1_555
C33 C17 1_555 1_555
C34 C21 1_555 1_555
C35 C30 1_555 1_555
C36 C20 1_555 1_555
C37 C19 1_555 1_555
C38 C18 1_555 1_555
C39 C23 1_555 1_555
C40 C26 1_555 1_555
C41 C16 1_555 1_555
C42 C31 1_555 1_555
C43 C18 1_555 1_555
C44 C16 1_555 1_555
C45 C17 1_555 1_555
C46 C47 1_555 1_555
C47 C71 1_555 1_555
C48 C49 1_555 1_555
C49 C50 1_555 1_555
C50 C51 1_555 1_555
C51 C52 1_555 1_555
C52 C48 1_555 1_555
C53 C46 1_555 1_555
C54 C55 1_555 1_555
C55 C48 1_555 1_555
C56 C55 1_555 1_555
C57 C56 1_555 1_555
C58 C54 1_555 1_555
C59 C60 1_555 1_555
C60 C58 1_555 1_555
C61 C60 1_555 1_555
C62 C61 1_555 1_555
C63 C53 1_555 1_555
C64 C49 1_555 1_555
C65 C54 1_555 1_555
C66 C59 1_555 1_555
C67 C46 1_555 1_555
C68 C64 1_555 1_555
C69 C52 1_555 1_555
C70 C57 1_555 1_555
C71 C56A 1_555 1_555
C72 C47 1_555 1_555
C73 C50 1_555 1_555
C74 C68 1_555 1_555
C75 C61 1_555 1_555
S5 C76 1_555 1_555
C76 S6 1_555 1_555
S1A C2A 1_555 1_555
S2A C1A 1_555 1_555
S3A C2A 1_555 1_555
S4A C1A 1_555 1_555
C1A C2A 1_555 1_555
C3A C3 1_555 1_555
C4A H1A 1_555 1_555
C5A S4A 1_555 1_555
C6A H2A 1_555 1_555
C7A S3A 1_555 1_555
C8A H3A 1_555 1_555
C9A C4A 1_555 1_555
H4A C9A 1_555 1_555
C10A C6A 1_555 1_555
H5A C10A 1_555 1_555
C11A C5A 1_555 1_555
H6A C11A 1_555 1_555
C12A C7A 1_555 1_555
H7A C12A 1_555 1_555
C13A C9A 1_555 1_555
H8A C13A 1_555 1_555
C14A C11A 1_555 1_555
H9A C14A 1_555 1_555
C15A C8A 1_555 1_555
H10A C15A 1_555 1_555
C16A C39A 1_555 1_555
C17A C30A 1_555 1_555
C18A C19A 1_555 1_555
C19A C33A 1_555 1_555
C20A C26A 1_555 1_555
C21A C29A 1_555 1_555
C22A C37 1_555 1_555
C23A C25A 1_555 1_555
C24A C25A 1_555 1_555
C25A C42A 1_555 1_555
C26A C32A 1_555 1_555
C27A C36 1_555 1_555
C28A C24A 1_555 1_555
C29A C45 1_555 1_555
C30A C23A 1_555 1_555
C31A C28A 1_555 1_555
C32A C21A 1_555 1_555
C33A C17A 1_555 1_555
C34A C21A 1_555 1_555
C35A C40 1_555 1_555
C36A C27 1_555 1_555
C37A C22 1_555 1_555
C38A C44 1_555 1_555
C39A C23A 1_555 1_555
C40A C35 1_555 1_555
C41A C16A 1_555 1_555
C42A C31A 1_555 1_555
C43A C18A 1_555 1_555
C44A C38 1_555 1_555
C45A C29 1_555 1_555
C46A C47A 1_555 1_555
C47A C71A 1_555 1_555
C48A C49A 1_555 1_555
C49A C50A 1_555 1_555
C50A C51A 1_555 1_555
C51A C62 1_555 1_555
C52A C48A 1_555 1_555
C53A C69 1_555 1_555
C54A C55A 1_555 1_555
C55A C48A 1_555 1_555
C56A C55A 1_555 1_555
C57A C56A 1_555 1_555
C58A C54A 1_555 1_555
C59A C60A 1_555 1_555
C60A C58A 1_555 1_555
C61A C60A 1_555 1_555
C62A C51 1_555 1_555
C63A C53A 1_555 1_555
C64A C49A 1_555 1_555
C65A C54A 1_555 1_555
C66A C59A 1_555 1_555
C67A C46A 1_555 1_555
C68A C64A 1_555 1_555
C69A C53 1_555 1_555
C70A C72 1_555 1_555
C71A C56 1_555 1_555
C72A C70 1_555 1_555
C73A C75 1_555 1_555
C74A C68A 1_555 1_555
C75A C73 1_555 1_555
S2 C3 1_555 1_555
C4 C5 1_555 1_555
C6 C7 1_555 1_555
C8 C12 1_555 1_555
C10 C15 1_555 1_555
C13 C14 1_555 1_555
C20 C43 1_555 1_555
C22 C44 1_555 1_555
C24 C33 1_555 1_555
C27 C39 1_555 1_555
C28 C43 1_555 1_555
C31 C32 1_555 1_555
C34 C41 1_555 1_555
C36 C38 1_555 1_555
C37 C45 1_555 1_555
C41 C42 1_555 1_555
C57 C58 1_555 1_555
C59 C63 1_555 1_555
C62 C63 1_555 1_555
C64 C65 1_555 1_555
C65 C66 1_555 1_555
C66 C67 1_555 1_555
C67 C68 1_555 1_555
C69 C71A 1_555 1_555
C70 C75 1_555 1_555
C71 C69A 1_555 1_555
C72 C74 1_555 1_555
C73 C74 1_555 1_555
S1A C3A 1_555 1_555
S2A C3A 1_555 1_555
C4A C5A 1_555 1_555
C6A C7A 1_555 1_555
C8A C12A 1_555 1_555
C10A C15A 1_555 1_555
C13A C14A 1_555 1_555
C16A C44A 1_555 1_555
C17A C45A 1_555 1_555
C18A C38A 1_555 1_555
C19A C37A 1_555 1_555
C20A C36A 1_555 1_555
C20A C43A 1_555 1_555
C22A C34A 1_555 1_555
C22A C44A 1_555 1_555
C24A C33A 1_555 1_555
C26A C40A 1_555 1_555
C27A C35A 1_555 1_555
C27A C39A 1_555 1_555
C28A C43A 1_555 1_555
C29A C40A 1_555 1_555
C30A C35A 1_555 1_555
C31A C32A 1_555 1_555
C34A C41A 1_555 1_555
C36A C38A 1_555 1_555
C37A C45A 1_555 1_555
C41A C42A 1_555 1_555
C46A C53A 1_555 1_555
C47A C72A 1_555 1_555
C50A C73A 1_555 1_555
C51A C52A 1_555 1_555
C52A C69A 1_555 1_555
C57A C58A 1_555 1_555
C57A C70A 1_555 1_555
C59A C63A 1_555 1_555
C61A C62A 1_555 1_555
C61A C75A 1_555 1_555
C62A C63A 1_555 1_555
C64A C65A 1_555 1_555
C65A C66A 1_555 1_555
C66A C67A 1_555 1_555
C67A C68A 1_555 1_555
C70A C75A 1_555 1_555
C72A C74A 1_555 1_555
C73A C74A 1_555 1_555

#END
