
#######################################################################
#
#                 Cambridge Crystallographic Data Centre
#                                CCDC 
#
#######################################################################
#
# If this CIF has been generated from an entry in the Cambridge 
# Structural Database, then it will include bibliographic, chemical, 
# crystal, experimental, refinement or atomic coordinate data resulting 
# from the CCDC's data processing and validation procedures.
#
#######################################################################

data_PAMJUI
_chemical_formula_moiety         'C30 H45 N1 O4'
_chemical_name_systematic        
'(22R,25R)-N-Formyl-22-N-spirosol-5-en-3\b-yl acetate'
_symmetry_cell_setting           monoclinic
_symmetry_space_group_name_H-M   'P 21'
_symmetry_Int_Tables_number      4
_space_group_name_Hall           'P 2yb'
loop_
_symmetry_equiv_pos_site_id
_symmetry_equiv_pos_as_xyz
1 x,y,z
2 -x,1/2+y,-z
_cell_length_a                   17.9430(2)
_cell_length_b                   6.6560(1)
_cell_length_c                   11.4750(1)
_cell_angle_alpha                90
_cell_angle_beta                 91.21
_cell_angle_gamma                90
_cell_volume                     1370.14
_exptl_crystal_colour            colorless
_chemical_melting_point          '203-205 deg.C'
_cell_formula_units_Z            2
loop_
_atom_site_label
_atom_site_type_symbol
_atom_site_fract_x
_atom_site_fract_y
_atom_site_fract_z
C1 C 0.6902(2) 0.8381(8) 0.4500(3)
C2 C 0.7777(2) 0.8529(8) 0.4617(3)
C3 C 0.8050(2) 0.6960(7) 0.3857(3)
C4 C 0.9241(2) 0.5366(9) 0.3983(4)
C5 C 1.0069(2) 0.5660(1) 0.4041(5)
C6 C 0.7749(2) 0.7346(8) 0.2563(3)
C7 C 0.6896(2) 0.7263(6) 0.2397(3)
C8 C 0.6534(2) 0.6051(7) 0.1614(3)
C9 C 0.5692(2) 0.5847(7) 0.1351(3)
C10 C 0.5278(2) 0.7503(6) 0.1914(2)
C11 C 0.5662(2) 0.7891(5) 0.3188(3)
C12 C 0.6494(2) 0.8606(6) 0.3211(3)
C13 C 0.5199(2) 0.9259(7) 0.3887(3)
C14 C 0.4356(2) 0.8641(7) 0.3809(3)
C15 C 0.3993(2) 0.8424(5) 0.2524(2)
C16 C 0.4466(2) 0.6910(5) 0.1946(2)
C17 C 0.3976(2) 0.6376(6) 0.0787(3)
C18 C 0.3205(2) 0.6177(5) 0.1181(3)
C19 C 0.3216(2) 0.7318(5) 0.2351(2)
C20 C 0.3946(2) 1.0493(6) 0.1934(3)
C21 C 0.6552(3) 1.0818(7) 0.2812(4)
C22 C 0.2475(2) 0.8528(6) 0.2170(3)
C23 C 0.2062(2) 0.8823(7) 0.3249(3)
C24 C 0.2036(2) 0.7635(5) 0.1032(3)
C25 C 0.1542(2) 0.9185(6) 0.0329(3)
C26 C 0.1125(2) 0.8346(7) -0.0828(3)
C27 C 0.0682(2) 0.6475(8) -0.0636(3)
C28 C 0.1201(2) 0.4956(7) 0.0069(3)
C29 C 0.0314(2) 0.5500(1) -0.1773(4)
N1 N 0.1599(2) 0.5815(5) 0.1167(2)
C30 C 0.1697(2) 0.4624(7) 0.2120(3)
O1 O 0.8862(1) 0.7065(5) 0.3981(3)
O2 O 0.8928(2) 0.3745(7) 0.3893(4)
O3 O 0.2635(1) 0.7147(6) 0.0670(2)
O4 O 0.1398(2) 0.3010(4) 0.2224(3)
loop_
_geom_bond_atom_site_label_1
_geom_bond_atom_site_label_2
_geom_bond_site_symmetry_1
_geom_bond_site_symmetry_2
C1 C2 1_555 1_555
C2 C3 1_555 1_555
C3 C6 1_555 1_555
C4 C5 1_555 1_555
C6 C7 1_555 1_555
C7 C8 1_555 1_555
C8 C9 1_555 1_555
C9 C10 1_555 1_555
C10 C11 1_555 1_555
C11 C12 1_555 1_555
C12 C1 1_555 1_555
C13 C11 1_555 1_555
C14 C13 1_555 1_555
C15 C14 1_555 1_555
C16 C10 1_555 1_555
C17 C16 1_555 1_555
C18 C17 1_555 1_555
C19 C15 1_555 1_555
C20 C15 1_555 1_555
C21 C12 1_555 1_555
C22 C19 1_555 1_555
C23 C22 1_555 1_555
C24 C22 1_555 1_555
C25 C24 1_555 1_555
C26 C25 1_555 1_555
C27 C26 1_555 1_555
C28 C27 1_555 1_555
C29 C27 1_555 1_555
N1 C24 1_555 1_555
C30 N1 1_555 1_555
O1 C3 1_555 1_555
O2 C4 1_555 1_555
O3 C18 1_555 1_555
O4 C30 1_555 1_555
C4 O1 1_555 1_555
C7 C12 1_555 1_555
C15 C16 1_555 1_555
C18 C19 1_555 1_555
C24 O3 1_555 1_555
C28 N1 1_555 1_555

#END
