
#######################################################################
#
#                 Cambridge Crystallographic Data Centre
#                                CCDC 
#
#######################################################################
#
# If this CIF has been generated from an entry in the Cambridge 
# Structural Database, then it will include bibliographic, chemical, 
# crystal, experimental, refinement or atomic coordinate data resulting 
# from the CCDC's data processing and validation procedures.
#
#######################################################################

data_PAMQIG
_chemical_compound_source        'endolichenic fungal Phialocephala fortinii'
_chemical_formula_moiety         'C20 H16 O5,C1 H4 O1'
_chemical_name_systematic        
"3,4-dihydro-2H-spiro[naphthalene-1,2'-naphtho[1,8-de][1,3]dioxine]-3,4,5-triol methanol solvate"
_symmetry_cell_setting           monoclinic
_symmetry_space_group_name_H-M   'P 21'
_symmetry_Int_Tables_number      4
_space_group_name_Hall           'P 2yb'
loop_
_symmetry_equiv_pos_site_id
_symmetry_equiv_pos_as_xyz
1 x,y,z
2 -x,1/2+y,-z
_cell_length_a                   4.98480(10)
_cell_length_b                   21.1663(6)
_cell_length_c                   8.4299(2)
_cell_angle_alpha                90
_cell_angle_beta                 101.2400(10)
_cell_angle_gamma                90
_cell_volume                     872.377
_exptl_crystal_colour            pink
_exptl_crystal_description       block
_cell_formula_units_Z            2
loop_
_atom_site_label
_atom_site_type_symbol
_atom_site_fract_x
_atom_site_fract_y
_atom_site_fract_z
O1 O 0.5696(4) 0.54501(9) 0.4736(2)
O2 O 0.3132(4) 0.58373(9) 0.6607(2)
H1 H 0.696(10) 0.319(2) 0.611(6)
O3 O 0.0704(4) 0.38352(10) 0.3841(2)
H2 H -0.044(7) 0.3778(17) 0.440(4)
O4 O 0.6247(4) 0.34415(11) 0.5448(3)
O5 O 0.8154(5) 0.33888(11) 0.8702(3)
H3 H 0.9181 0.3276 0.9535
C1 C 0.6083(5) 0.49642(12) 0.7282(3)
C2 C 0.1852(6) 0.62781(13) 0.5504(3)
C3 C 0.4446(5) 0.58651(12) 0.3562(3)
C4 C 0.6251(5) 0.43109(14) 0.7352(3)
C5 C 0.4114(5) 0.52817(12) 0.5934(3)
C6 C 0.2510(6) 0.62905(13) 0.3958(3)
C7 C 0.2856(5) 0.42267(13) 0.4693(3)
H4 H 0.4072 0.4326 0.3943
C8 C 0.8094(6) 0.40317(13) 0.8630(3)
C9 C 0.7785(6) 0.53328(14) 0.8427(3)
H5 H 0.7684 0.5771 0.8364
C10 C 0.1285(6) 0.67484(14) 0.2806(4)
C11 C 0.5189(6) 0.58814(15) 0.2089(4)
H6 H 0.6487 0.5601 0.1845
C12 C -0.0572(6) 0.71792(15) 0.3289(4)
H7 H -0.1438 0.7479 0.2558
C13 C 0.4545(5) 0.38769(13) 0.6117(3)
H8 H 0.3305 0.3634 0.6655
C14 C 0.9782(7) 0.44037(16) 0.9762(4)
H9 H 1.1024 0.4216 1.0595
C15 C 0.1770(5) 0.48493(13) 0.5203(3)
H10 H 0.0657 0.5053 0.4270
H11 H 0.0625 0.4771 0.5990
C16 C 0.9614(7) 0.50485(16) 0.9650(4)
H12 H 1.0749 0.5297 1.0410
C17 C -0.1108(7) 0.71605(14) 0.4813(4)
H13 H -0.2317 0.7453 0.5105
C18 C 0.2055(7) 0.67500(15) 0.1279(4)
H14 H 0.1261 0.7039 0.0495
C19 C 0.3952(7) 0.63315(16) 0.0943(4)
H15 H 0.4440 0.6343 -0.0067
C20 C 0.0120(6) 0.67096(14) 0.5960(4)
H16 H -0.0243 0.6707 0.7001
H17 H 1.121(9) 0.3204(19) 1.222(5)
O6 O 1.1380(5) 0.29746(13) 1.1460(3)
C21 C 1.4140(9) 0.2826(3) 1.1536(6)
H18 H 1.4298 0.2530 1.0697
H19 H 1.4883 0.2644 1.2570
H20 H 1.5132 0.3204 1.1392
loop_
_geom_bond_atom_site_label_1
_geom_bond_atom_site_label_2
_geom_bond_site_symmetry_1
_geom_bond_site_symmetry_2
O1 C3 1_555 1_555
O2 C2 1_555 1_555
H1 O4 1_555 1_555
O3 H2 1_555 1_555
O4 C13 1_555 1_555
O5 H3 1_555 1_555
C1 C4 1_555 1_555
C2 C6 1_555 1_555
C3 C6 1_555 1_555
C4 C8 1_555 1_555
C5 O1 1_555 1_555
C6 C10 1_555 1_555
C7 O3 1_555 1_555
H4 C7 1_555 1_555
C8 O5 1_555 1_555
C9 C1 1_555 1_555
H5 C9 1_555 1_555
C10 C12 1_555 1_555
C11 C3 1_555 1_555
H6 C11 1_555 1_555
C12 H7 1_555 1_555
C13 C4 1_555 1_555
H8 C13 1_555 1_555
C14 C8 1_555 1_555
H9 C14 1_555 1_555
C15 C5 1_555 1_555
H10 C15 1_555 1_555
H11 C15 1_555 1_555
C16 C9 1_555 1_555
H12 C16 1_555 1_555
C17 C12 1_555 1_555
H13 C17 1_555 1_555
C18 C10 1_555 1_555
H14 C18 1_555 1_555
C19 C11 1_555 1_555
H15 C19 1_555 1_555
C20 C2 1_555 1_555
H16 C20 1_555 1_555
H17 O6 1_555 1_555
O6 C21 1_555 1_555
C21 H18 1_555 1_555
H19 C21 1_555 1_555
H20 C21 1_555 1_555
O2 C5 1_555 1_555
C1 C5 1_555 1_555
C7 C13 1_555 1_555
C7 C15 1_555 1_555
C14 C16 1_555 1_555
C17 C20 1_555 1_555
C18 C19 1_555 1_555

#END
