
#######################################################################
#
#                 Cambridge Crystallographic Data Centre
#                                CCDC 
#
#######################################################################
#
# If this CIF has been generated from an entry in the Cambridge 
# Structural Database, then it will include bibliographic, chemical, 
# crystal, experimental, refinement or atomic coordinate data resulting 
# from the CCDC's data processing and validation procedures.
#
#######################################################################

data_PAMRIF
_chemical_formula_moiety         'C17 H18 N2 O2'
_chemical_name_systematic        
2-Hydroxy-2'-(4-isopropylbenzylidene)benzohydrazide
_symmetry_cell_setting           monoclinic
_symmetry_space_group_name_H-M   'P 21/n'
_symmetry_Int_Tables_number      14
_space_group_name_Hall           '-P 2yn'
loop_
_symmetry_equiv_pos_site_id
_symmetry_equiv_pos_as_xyz
1 x,y,z
2 1/2-x,1/2+y,1/2-z
3 -x,-y,-z
4 1/2+x,1/2-y,1/2+z
_cell_length_a                   4.9264(19)
_cell_length_b                   28.000(11)
_cell_length_c                   11.098(4)
_cell_angle_alpha                90
_cell_angle_beta                 97.957(7)
_cell_angle_gamma                90
_cell_volume                     1516.11
_exptl_crystal_colour            colorless
_exptl_crystal_description       block
_chemical_melting_point          '519-520 K'
_cell_formula_units_Z            4
_exptl_crystal_recrystallization_method DMF
loop_
_atom_site_label
_atom_site_type_symbol
_atom_site_fract_x
_atom_site_fract_y
_atom_site_fract_z
O1 O 0.7881(5) 0.27046(8) 0.86197(18)
O2 O 0.9434(5) 0.26408(8) 0.5039(2)
N1 N 0.6670(5) 0.23717(9) 0.6786(2)
N2 N 0.4978(5) 0.20445(8) 0.7234(2)
C1 C 0.8110(7) 0.26850(10) 0.7534(3)
C2 C 0.9947(6) 0.30130(9) 0.6980(2)
C3 C 1.1170(8) 0.33746(12) 0.7725(3)
H1 H 1.0738 0.3406 0.8511
C4 C 1.3014(9) 0.36891(13) 0.7321(3)
H2 H 1.3806 0.3929 0.7834
C5 C 1.3678(8) 0.36471(12) 0.6161(3)
H3 H 1.4927 0.3857 0.5892
C6 C 1.2504(7) 0.32976(11) 0.5406(3)
H4 H 1.2963 0.3270 0.4624
C7 C 1.0618(6) 0.29816(10) 0.5799(2)
C8 C 0.3585(6) 0.17941(10) 0.6420(3)
H5 H 0.3765 0.1854 0.5611
C9 C 0.1715(6) 0.14170(10) 0.6686(3)
C10 C 0.1451(7) 0.12720(11) 0.7857(3)
H6 H 0.2427 0.1428 0.8519
C11 C -0.0252(8) 0.08971(11) 0.8044(3)
H7 H -0.0380 0.0803 0.8837
C12 C -0.1772(7) 0.06565(11) 0.7100(3)
C13 C -0.1576(8) 0.08177(15) 0.5945(3)
H8 H -0.2625 0.0673 0.5285
C14 C 0.0139(9) 0.11894(14) 0.5744(3)
H9 H 0.0229 0.1288 0.4951
C15 C -0.3609(8) 0.02365(13) 0.7284(4)
C16 C -0.3912(11) 0.01337(18) 0.8571(5)
H10 H -0.2240 -0.0002 0.8976
H11 H -0.5387 -0.0088 0.8598
H12 H -0.4303 0.0425 0.8971
C17 C -0.2493(13) -0.02080(16) 0.6705(6)
H13 H -0.0760 -0.0296 0.7156
H14 H -0.2257 -0.0139 0.5879
H15 H -0.3765 -0.0467 0.6719
H16 H 0.677(7) 0.2384(11) 0.603(3)
H17 H 1.051(8) 0.2590(15) 0.450(3)
H18 H -0.534(7) 0.0213(12) 0.667(3)
loop_
_geom_bond_atom_site_label_1
_geom_bond_atom_site_label_2
_geom_bond_site_symmetry_1
_geom_bond_site_symmetry_2
O1 C1 1_555 1_555
O2 C7 1_555 1_555
N1 N2 1_555 1_555
N2 C8 1_555 1_555
C1 N1 1_555 1_555
C2 C1 1_555 1_555
C3 C2 1_555 1_555
H1 C3 1_555 1_555
C4 C3 1_555 1_555
H2 C4 1_555 1_555
C5 C4 1_555 1_555
H3 C5 1_555 1_555
C6 C5 1_555 1_555
H4 C6 1_555 1_555
C7 C2 1_555 1_555
C8 H5 1_555 1_555
C9 C8 1_555 1_555
C10 C9 1_555 1_555
H6 C10 1_555 1_555
C11 C10 1_555 1_555
H7 C11 1_555 1_555
C12 C11 1_555 1_555
C13 C12 1_555 1_555
H8 C13 1_555 1_555
C14 C9 1_555 1_555
H9 C14 1_555 1_555
C15 C12 1_555 1_555
C16 C15 1_555 1_555
H10 C16 1_555 1_555
H11 C16 1_555 1_555
H12 C16 1_555 1_555
C17 C15 1_555 1_555
H13 C17 1_555 1_555
H14 C17 1_555 1_555
H15 C17 1_555 1_555
H16 N1 1_555 1_555
H17 O2 1_555 1_555
H18 C15 1_555 1_555
C6 C7 1_555 1_555
C13 C14 1_555 1_555

#END
