
#######################################################################
#
#                 Cambridge Crystallographic Data Centre
#                                CCDC 
#
#######################################################################
#
# If this CIF has been generated from an entry in the Cambridge 
# Structural Database, then it will include bibliographic, chemical, 
# crystal, experimental, refinement or atomic coordinate data resulting 
# from the CCDC's data processing and validation procedures.
#
#######################################################################

data_PAMSUS
_chemical_formula_moiety         'C15 H9 N9 S3'
_chemical_name_systematic        
2,4,6-tris(Pyrimidin-2-ylsulfanyl)-1,3,5-triazine
_symmetry_cell_setting           monoclinic
_symmetry_space_group_name_H-M   'P 21/n'
_symmetry_Int_Tables_number      14
_space_group_name_Hall           '-P 2yn'
loop_
_symmetry_equiv_pos_site_id
_symmetry_equiv_pos_as_xyz
1 x,y,z
2 1/2-x,1/2+y,1/2-z
3 -x,-y,-z
4 1/2+x,1/2-y,1/2+z
_cell_length_a                   9.0200(10)
_cell_length_b                   18.233(3)
_cell_length_c                   11.219(2)
_cell_angle_alpha                90
_cell_angle_beta                 107.908(2)
_cell_angle_gamma                90
_cell_volume                     1755.7
_exptl_crystal_colour            colorless
_exptl_crystal_description       plate
_chemical_melting_point          '453-454 K'
_cell_formula_units_Z            4
_exptl_crystal_recrystallization_method chloroform/methanol
loop_
_atom_site_label
_atom_site_type_symbol
_atom_site_fract_x
_atom_site_fract_y
_atom_site_fract_z
S1 S 0.77586(8) 0.01474(4) 1.03672(6)
S2 S 1.08865(8) 0.26117(4) 1.06110(7)
S3 S 0.93995(8) 0.11367(4) 0.64794(6)
N1 N 0.8560(2) 0.06905(10) 0.84431(18)
N2 N 0.9960(2) 0.18121(10) 0.86156(18)
N3 N 0.9280(2) 0.13492(10) 1.03606(18)
N4 N 0.5224(3) 0.01067(12) 0.8402(2)
N5 N 0.6692(3) -0.09927(11) 0.8906(2)
N6 N 0.7258(2) 0.01102(11) 0.5618(2)
N7 N 0.9866(2) -0.02890(12) 0.6531(2)
N8 N 1.1053(2) 0.28886(11) 1.2938(2)
N9 N 0.8510(2) 0.26506(11) 1.1554(2)
C1 C 0.4180(3) -0.02472(19) 0.7484(3)
H1 H 0.3306 0.0005 0.7000
C2 C 0.4351(4) -0.0969(2) 0.7229(3)
H2 H 0.3622 -0.1207 0.6574
C3 C 0.5615(4) -0.13216(17) 0.7963(3)
H3 H 0.5745 -0.1815 0.7807
C4 C 0.6423(3) -0.02933(13) 0.9052(2)
C5 C 0.8607(2) 0.07946(12) 0.9621(2)
C6 C 0.9910(2) 0.18408(12) 0.9786(2)
C7 C 1.0048(3) 0.27115(12) 1.1844(2)
C8 C 0.7952(3) 0.27607(14) 1.2508(3)
H4 H 0.6888 0.2701 1.2372
C9 C 0.8860(3) 0.29559(14) 1.3670(3)
H5 H 0.8438 0.3043 1.4316
C10 C 1.0417(3) 0.30189(15) 1.3848(3)
H6 H 1.1063 0.3158 1.4633
C11 C 0.9286(2) 0.12106(12) 0.8007(2)
C12 C 0.8766(3) 0.02106(13) 0.6174(2)
C13 C 0.6825(3) -0.05894(16) 0.5448(3)
H7 H 0.5780 -0.0695 0.5052
C14 C 0.7835(3) -0.11567(15) 0.5824(3)
H8 H 0.7499 -0.1642 0.5721
C15 C 0.9358(3) -0.09824(16) 0.6359(3)
H9 H 1.0078 -0.1360 0.6617
loop_
_geom_bond_atom_site_label_1
_geom_bond_atom_site_label_2
_geom_bond_site_symmetry_1
_geom_bond_site_symmetry_2
S1 C4 1_555 1_555
S2 C6 1_555 1_555
S3 C11 1_555 1_555
N1 C5 1_555 1_555
N2 C6 1_555 1_555
N3 C5 1_555 1_555
N4 C1 1_555 1_555
N5 C3 1_555 1_555
N6 C12 1_555 1_555
N7 C12 1_555 1_555
N8 C7 1_555 1_555
N9 C7 1_555 1_555
C1 H1 1_555 1_555
C2 C1 1_555 1_555
H2 C2 1_555 1_555
C3 C2 1_555 1_555
H3 C3 1_555 1_555
C4 N4 1_555 1_555
C5 S1 1_555 1_555
C6 N3 1_555 1_555
C7 S2 1_555 1_555
C8 N9 1_555 1_555
H4 C8 1_555 1_555
C9 C8 1_555 1_555
H5 C9 1_555 1_555
C10 N8 1_555 1_555
H6 C10 1_555 1_555
C11 N1 1_555 1_555
C12 S3 1_555 1_555
C13 N6 1_555 1_555
H7 C13 1_555 1_555
C14 C13 1_555 1_555
H8 C14 1_555 1_555
C15 N7 1_555 1_555
H9 C15 1_555 1_555
N2 C11 1_555 1_555
N5 C4 1_555 1_555
C9 C10 1_555 1_555
C14 C15 1_555 1_555

#END
