
#######################################################################
#
#                 Cambridge Crystallographic Data Centre
#                                CCDC 
#
#######################################################################
#
# If this CIF has been generated from an entry in the Cambridge 
# Structural Database, then it will include bibliographic, chemical, 
# crystal, experimental, refinement or atomic coordinate data resulting 
# from the CCDC's data processing and validation procedures.
#
#######################################################################

data_PAMSII
_chemical_compound_source        'aerial parts of Siegesbeckia pubescens Makino'
_chemical_name_common            
'14beta,16-Epoxy-ent-3beta,15alpha,19-trihydroxypimar-7-ene monohydrate'
_chemical_formula_moiety         'C20 H32 O3,H2 O1'
_chemical_name_systematic        '14,16-epoxypimar-7-ene-3,15-diol monohydrate'
_symmetry_cell_setting           monoclinic
_symmetry_space_group_name_H-M   'P 21'
_symmetry_Int_Tables_number      4
_space_group_name_Hall           'P 2yb'
loop_
_symmetry_equiv_pos_site_id
_symmetry_equiv_pos_as_xyz
1 x,y,z
2 -x,1/2+y,-z
_cell_length_a                   7.098(5)
_cell_length_b                   11.005(5)
_cell_length_c                   12.116(6)
_cell_angle_alpha                90
_cell_angle_beta                 98.904(8)
_cell_angle_gamma                90
_cell_volume                     935.018
_exptl_crystal_colour            colorless
_exptl_crystal_description       Prism
_cell_formula_units_Z            2
loop_
_atom_site_label
_atom_site_type_symbol
_atom_site_fract_x
_atom_site_fract_y
_atom_site_fract_z
O1 O -0.8056(2) -0.17568(16) -0.94231(12)
O2 O -1.0880(2) -0.36287(17) -1.13320(11)
H1 H -1.196(3) -0.389(2) -1.1372(19)
O3 O -0.7998(2) -0.44489(16) -0.25264(11)
H2 H -0.894(3) -0.434(3) -0.220(2)
C1 C -1.1017(2) -0.4276(2) -0.53626(15)
H3 H -1.1559 -0.3483 -0.5259
H4 H -1.2036 -0.4795 -0.5722
C2 C -1.0236(3) -0.4807(2) -0.42211(17)
H5 H -1.1252 -0.4865 -0.3772
H6 H -0.9750 -0.5619 -0.4312
C3 C -0.8651(2) -0.40084(19) -0.36324(14)
H7 H -0.9174 -0.3192 -0.3567
C4 C -0.6954(2) -0.38999(17) -0.42766(14)
C5 C -0.7735(2) -0.34710(17) -0.54855(14)
H8 H -0.8171 -0.2636 -0.5400
C6 C -0.6195(2) -0.3364(2) -0.62425(16)
H9 H -0.5156 -0.2864 -0.5877
H10 H -0.5690 -0.4164 -0.6361
C7 C -0.6985(3) -0.2816(2) -0.73375(16)
H11 H -0.6131 -0.2503 -0.7774
C8 C -0.8833(2) -0.27463(18) -0.77300(15)
C9 C -1.0337(2) -0.33159(18) -0.71386(14)
H12 H -1.0999 -0.2647 -0.6827
C10 C -0.9503(2) -0.41456(17) -0.61376(14)
C11 C -1.1825(3) -0.3953(2) -0.80150(15)
H13 H -1.1227 -0.4632 -0.8336
H14 H -1.2844 -0.4272 -0.7650
C12 C -1.2661(2) -0.3093(2) -0.89408(16)
H15 H -1.3358 -0.2459 -0.8622
H16 H -1.3566 -0.3538 -0.9473
C13 C -1.1193(3) -0.2500(2) -0.95649(15)
C14 C -0.9528(3) -0.1964(2) -0.87480(16)
H17 H -0.9928 -0.1176 -0.8488
C15 C -1.0060(2) -0.3366(2) -1.02134(15)
H18 H -0.9811 -0.4127 -0.9796
C16 C -0.8189(3) -0.2701(3) -1.02394(19)
H19 H -0.7124 -0.3258 -1.0068
H20 H -0.8163 -0.2360 -1.0975
C17 C -1.2157(4) -0.1509(2) -1.0345(2)
H21 H -1.3229 -0.1850 -1.0826
H22 H -1.1261 -0.1191 -1.0788
H23 H -1.2586 -0.0867 -0.9908
C18 C -0.5609(3) -0.2905(2) -0.37143(19)
H24 H -0.5287 -0.3077 -0.2931
H25 H -0.6235 -0.2130 -0.3813
H26 H -0.4468 -0.2887 -0.4048
C19 C -0.5827(3) -0.5095(2) -0.42036(18)
H27 H -0.5126 -0.5186 -0.3464
H28 H -0.4955 -0.5082 -0.4736
H29 H -0.6694 -0.5764 -0.4365
C20 C -0.8993(4) -0.5394(2) -0.65552(19)
H30 H -1.0132 -0.5798 -0.6899
H31 H -0.8384 -0.5870 -0.5937
H32 H -0.8140 -0.5299 -0.7092
O4 O -0.5701(2) 0.02286(18) -0.87860(16)
H33 H -0.480(4) 0.052(4) -0.828(3)
H34 H -0.617(6) -0.050(3) -0.898(4)
loop_
_geom_bond_atom_site_label_1
_geom_bond_atom_site_label_2
_geom_bond_site_symmetry_1
_geom_bond_site_symmetry_2
O1 C14 1_555 1_555
O2 H1 1_555 1_555
O3 H2 1_555 1_555
C1 H3 1_555 1_555
H4 C1 1_555 1_555
C2 C1 1_555 1_555
H5 C2 1_555 1_555
H6 C2 1_555 1_555
C3 O3 1_555 1_555
H7 C3 1_555 1_555
C4 C3 1_555 1_555
C5 C4 1_555 1_555
H8 C5 1_555 1_555
C6 C5 1_555 1_555
H9 C6 1_555 1_555
H10 C6 1_555 1_555
C7 C6 1_555 1_555
H11 C7 1_555 1_555
C8 C7 1_555 1_555
C9 C8 1_555 1_555
H12 C9 1_555 1_555
C10 C1 1_555 1_555
C11 C9 1_555 1_555
H13 C11 1_555 1_555
H14 C11 1_555 1_555
C12 C11 1_555 1_555
H15 C12 1_555 1_555
H16 C12 1_555 1_555
C13 C12 1_555 1_555
C14 C8 1_555 1_555
H17 C14 1_555 1_555
C15 O2 1_555 1_555
H18 C15 1_555 1_555
C16 O1 1_555 1_555
H19 C16 1_555 1_555
H20 C16 1_555 1_555
C17 C13 1_555 1_555
H21 C17 1_555 1_555
H22 C17 1_555 1_555
H23 C17 1_555 1_555
C18 C4 1_555 1_555
H24 C18 1_555 1_555
H25 C18 1_555 1_555
H26 C18 1_555 1_555
C19 C4 1_555 1_555
H27 C19 1_555 1_555
H28 C19 1_555 1_555
H29 C19 1_555 1_555
C20 C10 1_555 1_555
H30 C20 1_555 1_555
H31 C20 1_555 1_555
H32 C20 1_555 1_555
O4 H33 1_555 1_555
H34 O4 1_555 1_555
C2 C3 1_555 1_555
C5 C10 1_555 1_555
C9 C10 1_555 1_555
C13 C14 1_555 1_555
C13 C15 1_555 1_555
C15 C16 1_555 1_555

#END
