
#######################################################################
#
#                 Cambridge Crystallographic Data Centre
#                                CCDC 
#
#######################################################################
#
# If this CIF has been generated from an entry in the Cambridge 
# Structural Database, then it will include bibliographic, chemical, 
# crystal, experimental, refinement or atomic coordinate data resulting 
# from the CCDC's data processing and validation procedures.
#
#######################################################################

data_PAMSUU
_chemical_compound_source        'aerial parts of Siegesbeckia pubescens Makino'
_chemical_name_common            'Strobol A'
_chemical_formula_moiety         'C20 H34 O4'
_chemical_name_systematic        
4,8-bis(hydroxymethyl)-4,9,11b-trimethyl-2,3,4,4a,5,6,8,9,10,11,11a,11b-dodecahydro-1H-cyclohepta[a]naphthalene-2,9-diol
_symmetry_cell_setting           monoclinic
_symmetry_space_group_name_H-M   'P 21'
_symmetry_Int_Tables_number      4
_space_group_name_Hall           'P 2yb'
loop_
_symmetry_equiv_pos_site_id
_symmetry_equiv_pos_as_xyz
1 x,y,z
2 -x,1/2+y,-z
_cell_length_a                   7.342(4)
_cell_length_b                   15.348(12)
_cell_length_c                   8.002(4)
_cell_angle_alpha                90
_cell_angle_beta                 98.622(8)
_cell_angle_gamma                90
_cell_volume                     891.515
_exptl_crystal_colour            colorless
_exptl_crystal_description       Prism
_cell_formula_units_Z            2
loop_
_atom_site_label
_atom_site_type_symbol
_atom_site_fract_x
_atom_site_fract_y
_atom_site_fract_z
O1 O 0.1708(4) 0.60502(17) 2.0032(4)
H1 H 0.1575 0.6035 1.8997
O2 O -0.6820(4) 0.95578(19) 1.1923(3)
H2 H -0.6135 0.9885 1.1497
O3 O -0.3951(4) 0.5775(2) 2.0379(4)
H3 H -0.3962 0.5464 1.9543
O4 O -0.0192(4) 0.9889(2) 1.2516(4)
H4 H 0.0473 0.9522 1.2172
C1 C -0.4948(5) 0.9024(3) 1.7329(5)
H5 H -0.5904 0.9456 1.7370
H6 H -0.5528 0.8486 1.6888
C2 C -0.3906(5) 0.8871(3) 1.9099(5)
H7 H -0.3348 0.9411 1.9549
H8 H -0.4752 0.8673 1.9841
C3 C -0.1592(5) 0.9459(3) 1.3318(5)
H9 H -0.2155 0.8991 1.2583
C4 C -0.2076(5) 0.8641(2) 1.6011(5)
C5 C -0.4554(5) 0.9760(3) 1.4500(5)
C6 C -0.1066(5) 0.8448(3) 1.7853(5)
H10 H -0.0546 0.9007 1.8283
C7 C -0.3040(5) 1.0122(3) 1.3565(5)
H11 H -0.3601 1.0337 1.2468
H12 H -0.2452 1.0611 1.4198
C8 C -0.0677(5) 0.9072(3) 1.4991(5)
H13 H -0.0021 0.9529 1.5669
H14 H 0.0218 0.8639 1.4767
C9 C -0.3602(5) 0.9341(2) 1.6176(4)
H15 H -0.2937 0.9822 1.6798
C10 C -0.2430(5) 0.8193(3) 1.9024(5)
C11 C -0.1273(5) 0.6657(3) 1.9987(5)
H16 H -0.1401 0.6426 1.8834
C12 C -0.5802(5) 0.9131(3) 1.3352(5)
H17 H -0.5049 0.8677 1.2961
H18 H -0.6656 0.8856 1.4004
C13 C -0.2093(6) 0.5981(3) 2.1062(5)
H19 H -0.1354 0.5455 2.1125
H20 H -0.2054 0.6205 2.2201
C14 C -0.2806(5) 0.7785(2) 1.5193(5)
H21 H -0.1847 0.7355 1.5345
H22 H -0.3204 0.7876 1.4008
H23 H -0.3828 0.7587 1.5714
C15 C -0.5740(5) 1.0537(3) 1.4907(5)
H24 H -0.5060 1.0881 1.5791
H25 H -0.6848 1.0326 1.5270
H26 H -0.6051 1.0890 1.3914
C16 C -0.2452(5) 0.7467(3) 1.9930(5)
H27 H -0.3340 0.7456 2.0645
C17 C 0.1493(5) 0.7636(3) 1.9743(5)
H28 H 0.1299 0.8138 2.0433
H29 H 0.2810 0.7578 1.9755
C18 C 0.0800(5) 0.6820(2) 2.0574(5)
C19 C 0.1292(6) 0.6908(3) 2.2491(5)
H30 H 0.1064 0.6364 2.3017
H31 H 0.0551 0.7356 2.2887
H32 H 0.2571 0.7057 2.2774
C20 C 0.0591(5) 0.7824(3) 1.7919(5)
H33 H 0.0182 0.7280 1.7370
H34 H 0.1498 0.8080 1.7301
loop_
_geom_bond_atom_site_label_1
_geom_bond_atom_site_label_2
_geom_bond_site_symmetry_1
_geom_bond_site_symmetry_2
O1 H1 1_555 1_555
O2 H2 1_555 1_555
O3 H3 1_555 1_555
O4 H4 1_555 1_555
C1 H5 1_555 1_555
H6 C1 1_555 1_555
C2 C1 1_555 1_555
H7 C2 1_555 1_555
H8 C2 1_555 1_555
C3 O4 1_555 1_555
H9 C3 1_555 1_555
C4 C6 1_555 1_555
C5 C7 1_555 1_555
C6 H10 1_555 1_555
C7 C3 1_555 1_555
H11 C7 1_555 1_555
H12 C7 1_555 1_555
C8 C3 1_555 1_555
H13 C8 1_555 1_555
H14 C8 1_555 1_555
C9 C1 1_555 1_555
H15 C9 1_555 1_555
C10 C2 1_555 1_555
C11 H16 1_555 1_555
C12 O2 1_555 1_555
H17 C12 1_555 1_555
H18 C12 1_555 1_555
C13 O3 1_555 1_555
H19 C13 1_555 1_555
H20 C13 1_555 1_555
C14 C4 1_555 1_555
H21 C14 1_555 1_555
H22 C14 1_555 1_555
H23 C14 1_555 1_555
C15 C5 1_555 1_555
H24 C15 1_555 1_555
H25 C15 1_555 1_555
H26 C15 1_555 1_555
C16 C10 1_555 1_555
H27 C16 1_555 1_555
C17 H28 1_555 1_555
H29 C17 1_555 1_555
C18 O1 1_555 1_555
C19 C18 1_555 1_555
H30 C19 1_555 1_555
H31 C19 1_555 1_555
H32 C19 1_555 1_555
C20 C6 1_555 1_555
H33 C20 1_555 1_555
H34 C20 1_555 1_555
C4 C8 1_555 1_555
C4 C9 1_555 1_555
C5 C9 1_555 1_555
C5 C12 1_555 1_555
C6 C10 1_555 1_555
C11 C13 1_555 1_555
C11 C16 1_555 1_555
C11 C18 1_555 1_555
C17 C18 1_555 1_555
C17 C20 1_555 1_555

#END
