
#######################################################################
#
#                 Cambridge Crystallographic Data Centre
#                                CCDC 
#
#######################################################################
#
# If this CIF has been generated from an entry in the Cambridge 
# Structural Database, then it will include bibliographic, chemical, 
# crystal, experimental, refinement or atomic coordinate data resulting 
# from the CCDC's data processing and validation procedures.
#
#######################################################################

data_PAMXAD
_chemical_formula_moiety         'C18 H18 O8'
_chemical_name_systematic        
"6,6'-Dioxo-2,2'-bi(7-oxatricyclo(3.2.1.1^3,8^)nonane)-4,4'-dicarboxylic acid"
_symmetry_cell_setting           orthorhombic
_symmetry_space_group_name_H-M   'A b a 2'
_symmetry_Int_Tables_number      41
_space_group_name_Hall           'A 2 -2ab'
loop_
_symmetry_equiv_pos_site_id
_symmetry_equiv_pos_as_xyz
1 x,y,z
2 -x,-y,z
3 1/2+x,1/2-y,z
4 1/2-x,1/2+y,z
5 x,1/2+y,1/2+z
6 -x,1/2-y,1/2+z
7 1/2+x,-y,1/2+z
8 1/2-x,y,1/2+z
_cell_length_a                   9.8562(12)
_cell_length_b                   13.4978(17)
_cell_length_c                   11.8371(14)
_cell_angle_alpha                90
_cell_angle_beta                 90
_cell_angle_gamma                90
_cell_volume                     1574.77
_exptl_crystal_colour            colorless
_exptl_crystal_description       plate
_cell_formula_units_Z            4
loop_
_atom_site_label
_atom_site_type_symbol
_atom_site_fract_x
_atom_site_fract_y
_atom_site_fract_z
O1 O 0.9561(3) 0.8404(2) -0.1095(3)
H1 H 1.0216 0.8069 -0.1286
O2 O 0.9646(3) 0.7456(2) 0.0432(3)
O3 O 0.8353(3) 0.73798(19) 0.2746(2)
O4 O 0.8902(2) 0.89671(19) 0.2866(2)
C1 C 0.8433(4) 0.9898(3) 0.2363(3)
H2 H 0.8394 1.0433 0.2921
C2 C 0.9273(3) 1.0197(2) 0.1314(3)
H3 H 0.9335 1.0922 0.1319
C3 C 0.8317(4) 0.9912(2) 0.0326(3)
H4 H 0.8567 1.0195 -0.0407
C4 C 0.8010(3) 0.8784(2) 0.0307(3)
H5 H 0.7290 0.8697 -0.0255
C5 C 0.7321(3) 0.8595(3) 0.1479(3)
H6 H 0.6489 0.8203 0.1407
C6 C 0.8228(3) 0.8208(3) 0.2393(3)
C7 C 0.7026(3) 0.9663(3) 0.1876(3)
H7 H 0.6263 0.9739 0.2399
C8 C 0.6965(4) 1.0292(3) 0.0811(4)
H8 H 0.6980 1.0997 0.0970
H9 H 0.6195 1.0130 0.0335
C9 C 0.9157(4) 0.8127(3) -0.0075(3)
O1A O 1.0439(3) 1.1596(2) -0.1095(3)
H1A H 0.9784 1.1931 -0.1286
O2A O 1.0354(3) 1.2544(2) 0.0432(3)
O3A O 1.1647(3) 1.26202(19) 0.2746(2)
O4A O 1.1098(2) 1.10329(19) 0.2866(2)
C1A C 1.1567(4) 1.0102(3) 0.2363(3)
H2A H 1.1606 0.9567 0.2921
C2A C 1.0727(3) 0.9803(2) 0.1314(3)
H3A H 1.0665 0.9078 0.1319
C3A C 1.1683(4) 1.0088(2) 0.0326(3)
H4A H 1.1433 0.9805 -0.0407
C4A C 1.1990(3) 1.1216(2) 0.0307(3)
H5A H 1.2710 1.1303 -0.0255
C5A C 1.2679(3) 1.1405(3) 0.1479(3)
H6A H 1.3511 1.1797 0.1407
C6A C 1.1772(3) 1.1792(3) 0.2393(3)
C7A C 1.2974(3) 1.0337(3) 0.1876(3)
H7A H 1.3737 1.0261 0.2399
C8A C 1.3035(4) 0.9708(3) 0.0811(4)
H8A H 1.3020 0.9003 0.0970
H9A H 1.3805 0.9870 0.0335
C9A C 1.0843(4) 1.1873(3) -0.0075(3)
loop_
_geom_bond_atom_site_label_1
_geom_bond_atom_site_label_2
_geom_bond_site_symmetry_1
_geom_bond_site_symmetry_2
O1 H1 1_555 1_555
O2 C9 1_555 1_555
O3 C6 1_555 1_555
O4 C1 1_555 1_555
C1 H2 1_555 1_555
C2 C1 1_555 1_555
H3 C2 1_555 1_555
C3 C2 1_555 1_555
H4 C3 1_555 1_555
C4 C3 1_555 1_555
H5 C4 1_555 1_555
C5 C4 1_555 1_555
H6 C5 1_555 1_555
C6 O4 1_555 1_555
C7 C1 1_555 1_555
H7 C7 1_555 1_555
C8 C3 1_555 1_555
H8 C8 1_555 1_555
H9 C8 1_555 1_555
C9 O1 1_555 1_555
O1A H1A 1_555 1_555
O2A C9A 1_555 1_555
O3A C6A 1_555 1_555
O4A C1A 1_555 1_555
C1A H2A 1_555 1_555
C2A C2 1_555 1_555
H3A C2A 1_555 1_555
C3A C2A 1_555 1_555
H4A C3A 1_555 1_555
C4A C3A 1_555 1_555
H5A C4A 1_555 1_555
C5A C4A 1_555 1_555
H6A C5A 1_555 1_555
C6A O4A 1_555 1_555
C7A C1A 1_555 1_555
H7A C7A 1_555 1_555
C8A C3A 1_555 1_555
H8A C8A 1_555 1_555
H9A C8A 1_555 1_555
C9A O1A 1_555 1_555
C4 C9 1_555 1_555
C5 C6 1_555 1_555
C5 C7 1_555 1_555
C7 C8 1_555 1_555
C1A C2A 1_555 1_555
C4A C9A 1_555 1_555
C5A C6A 1_555 1_555
C5A C7A 1_555 1_555
C7A C8A 1_555 1_555

#END
