
#######################################################################
#
#                 Cambridge Crystallographic Data Centre
#                                CCDC 
#
#######################################################################
#
# If this CIF has been generated from an entry in the Cambridge 
# Structural Database, then it will include bibliographic, chemical, 
# crystal, experimental, refinement or atomic coordinate data resulting 
# from the CCDC's data processing and validation procedures.
#
#######################################################################

data_PAMXUW
_chemical_compound_source        'from Teucrium Pernyi'
_chemical_name_common            'Teupernin D'
_chemical_formula_moiety         'C19 H19 Cl1 O6'
_chemical_name_systematic        
(12S)-15,16-Epoxy-8\b-hydroxy-17-chloro-19-nor-10\a-neo-cleroda-4,13,14-triene-18,6\b:20,12-diolide
_symmetry_cell_setting           monoclinic
_symmetry_space_group_name_H-M   'P 21'
_symmetry_Int_Tables_number      4
_space_group_name_Hall           'P 2yb'
loop_
_symmetry_equiv_pos_site_id
_symmetry_equiv_pos_as_xyz
1 x,y,z
2 -x,1/2+y,-z
_cell_length_a                   8.031(3)
_cell_length_b                   9.255(5)
_cell_length_c                   12.385(4)
_cell_angle_alpha                90
_cell_angle_beta                 90
_cell_angle_gamma                90
_cell_volume                     920.539
_exptl_crystal_colour            colorless
_chemical_melting_point          '205-207 deg.C'
_cell_formula_units_Z            2
loop_
_atom_site_label
_atom_site_type_symbol
_atom_site_fract_x
_atom_site_fract_y
_atom_site_fract_z
C1 C -0.2253(9) 0.8082(8) -0.0177(5)
C2 C -0.2085(9) 0.8578(8) 0.1007(5)
C3 C -0.0305(9) 0.8628(8) 0.1452(6)
C4 C 0.0175(9) 0.7262(8) 0.1148(5)
C5 C -0.0673(8) 0.6276(7) 0.0414(5)
C6 C 0.0082(9) 0.4996(8) 0.0318(5)
C7 C 0.0476(9) 0.4695(8) -0.0830(5)
C8 C -0.1137(9) 0.4588(8) -0.1538(5)
C9 C -0.1589(8) 0.6114(7) -0.1483(5)
C10 C -0.2050(9) 0.6495(8) -0.0325(5)
C11 C -0.0105(9) 0.7355(7) -0.2028(5)
C12 C -0.0970(9) 0.8123(8) -0.2866(5)
C13 C -0.0101(8) 0.8378(8) -0.3937(5)
C14 C 0.0678(10) 0.7410(9) -0.4509(6)
C15 C 0.1285(11) 0.8140(10) -0.5447(6)
C16 C 0.0102(9) 0.9600(8) -0.4550(6)
C17 C 0.1605(9) 0.6694(8) 0.1526(5)
C18 C -0.3165(10) 0.6064(8) -0.2225(5)
O1 O 0.1068(6) 0.5423(5) 0.0995(4)
O2 O -0.0800(6) 0.4323(5) -0.2629(3)
O3 O -0.2736(6) 0.7097(6) -0.3009(4)
O4 O 0.0943(7) 0.9504(7) -0.5464(4)
O5 O 0.2738(7) 0.7247(6) 0.2193(4)
O6 O -0.4605(7) 0.5266(6) -0.2128(4)
H1 H -0.3378 0.8092 -0.0433
H2 H -0.1377 0.8778 -0.0592
H3 H -0.2956 0.7868 0.1416
H4 H -0.2265 0.9557 0.1066
H5 H -0.0359 0.8699 0.2226
H6 H 0.0538 0.9509 0.1190
H7 H -0.0720 0.4060 0.0526
H8 H -0.1422 0.5509 -0.1079
H9 H 0.0791 0.3769 -0.0877
H10 H 0.0503 0.8073 -0.1503
H11 H 0.0695 0.6905 -0.2378
H12 H -0.0972 0.9079 -0.2599
H13 H 0.0828 0.6428 -0.4391
H14 H 0.1872 0.7635 -0.5930
H15 H -0.0361 1.0367 -0.4254
C19 C -0.2701(10) 0.3272(8) -0.1153(6)
Cl1 Cl -0.2169(3) 0.1540(2) -0.1134(2)
H16 H -0.3019 0.3486 -0.0435
H17 H -0.3662 0.3193 -0.1632
H18 H -0.3146 0.0579 -0.3157
loop_
_geom_bond_atom_site_label_1
_geom_bond_atom_site_label_2
_geom_bond_site_symmetry_1
_geom_bond_site_symmetry_2
C1 C2 1_555 1_555
C2 C3 1_555 1_555
C3 C4 1_555 1_555
C4 C5 1_555 1_555
C5 C6 1_555 1_555
C6 C7 1_555 1_555
C7 C8 1_555 1_555
C8 C9 1_555 1_555
C9 C10 1_555 1_555
C10 C1 1_555 1_555
C11 C12 1_555 1_555
C12 C13 1_555 1_555
C13 C14 1_555 1_555
C14 C15 1_555 1_555
C15 O4 1_555 1_555
C16 C13 1_555 1_555
C17 C4 1_555 1_555
C18 C9 1_555 1_555
O1 C5 1_555 1_555
O2 C8 1_555 1_555
O3 C12 1_555 1_555
O4 C16 1_555 1_555
O5 C17 1_555 1_555
O6 C18 1_555 1_555
H1 C1 1_555 1_555
H2 C1 1_555 1_555
H3 C2 1_555 1_555
H4 C2 1_555 1_555
H5 C3 1_555 1_555
H6 C3 1_555 1_555
H7 C6 1_555 1_555
H8 C8 1_555 1_555
H9 C7 1_555 1_555
H10 C11 1_555 1_555
H11 C11 1_555 1_555
H12 C12 1_555 1_555
H13 C14 1_555 1_555
H14 C15 1_555 1_555
H15 C16 1_555 1_555
C19 Cl1 1_555 1_555
H16 C19 1_555 1_555
H17 C19 1_555 1_555
C5 C10 1_555 1_555
C6 O1 1_555 1_555
C9 H8 1_555 1_555
C17 O1 1_555 1_555
C18 O3 1_555 1_555

#END
