
#######################################################################
#
#                 Cambridge Crystallographic Data Centre
#                                CCDC 
#
#######################################################################
#
# If this CIF has been generated from an entry in the Cambridge 
# Structural Database, then it will include bibliographic, chemical, 
# crystal, experimental, refinement or atomic coordinate data resulting 
# from the CCDC's data processing and validation procedures.
#
#######################################################################

data_PAMXOR
_chemical_formula_moiety         'C17 H22 O3'
_chemical_name_systematic        
9-Butyl-3,4,5,6,7,9-hexahydro-2H-xanthene-1,8-dione
_symmetry_cell_setting           orthorhombic
_symmetry_space_group_name_H-M   'C m c 21'
_symmetry_Int_Tables_number      36
_space_group_name_Hall           'C 2n -2'
loop_
_symmetry_equiv_pos_site_id
_symmetry_equiv_pos_as_xyz
1 x,y,z
2 -x,-y,1/2+z
3 -x,y,z
4 x,-y,1/2+z
5 1/2+x,1/2+y,z
6 1/2-x,1/2-y,1/2+z
7 1/2-x,1/2+y,z
8 1/2+x,1/2-y,1/2+z
_cell_length_a                   15.121(4)
_cell_length_b                   8.872(2)
_cell_length_c                   11.025(3)
_cell_angle_alpha                90
_cell_angle_beta                 90
_cell_angle_gamma                90
_cell_volume                     1479.04
_exptl_crystal_colour            colorless
_exptl_crystal_description       block
_cell_formula_units_Z            4
_exptl_crystal_recrystallization_method DMF
loop_
_atom_site_label
_atom_site_type_symbol
_atom_site_fract_x
_atom_site_fract_y
_atom_site_fract_z
O1 O 0.5000 0.7222(3) 0.3745(2)
O2 O 0.33006(12) 0.5093(3) 0.0610(2)
C1 C 0.42210(15) 0.6886(3) 0.3153(2)
C2 C 0.34659(17) 0.7700(3) 0.3713(3)
H1 H 0.3484 0.8752 0.3473
H2 H 0.3516 0.7654 0.4589
C3 C 0.25933(19) 0.7014(4) 0.3323(3)
H3 H 0.2500 0.6076 0.3757
H4 H 0.2115 0.7695 0.3533
C4 C 0.2575(2) 0.6716(3) 0.1984(3)
H5 H 0.2551 0.7672 0.1559
H6 H 0.2040 0.6164 0.1790
C5 C 0.33572(18) 0.5839(3) 0.1528(3)
C6 C 0.41886(15) 0.5978(2) 0.2187(2)
C7 C 0.5000 0.5174(4) 0.1727(3)
H7 H 0.5000 0.5256 0.0840
C8 C 0.5000 0.3482(4) 0.2047(4)
H8 H 0.4483 0.3022 0.1681
H9 H 0.5517 0.3022 0.1681
C9 C 0.5000 0.3111(4) 0.3377(3)
H10 H 0.4482 0.3561 0.3749
H11 H 0.5518 0.3561 0.3749
C10 C 0.5000 0.1437(4) 0.3638(4)
H12 H 0.4482 0.0990 0.3262
H13 H 0.5518 0.0990 0.3262
C11 C 0.5000 0.1040(5) 0.4965(4)
H14 H 0.5000 -0.0037 0.5054
H15 H 0.4482 0.1451 0.5343
H16 H 0.5518 0.1451 0.5343
O2B O 0.66994(12) 0.5093(3) 0.0610(2)
C1B C 0.57790(15) 0.6886(3) 0.3153(2)
C2B C 0.65341(17) 0.7700(3) 0.3713(3)
H1B H 0.6516 0.8752 0.3473
H2B H 0.6484 0.7654 0.4589
C3B C 0.74067(19) 0.7014(4) 0.3323(3)
H3B H 0.7500 0.6076 0.3757
H4B H 0.7885 0.7695 0.3533
C4B C 0.7425(2) 0.6716(3) 0.1984(3)
H5B H 0.7449 0.7672 0.1559
H6B H 0.7960 0.6164 0.1790
C5B C 0.66428(18) 0.5839(3) 0.1528(3)
C6B C 0.58114(15) 0.5978(2) 0.2187(2)
loop_
_geom_bond_atom_site_label_1
_geom_bond_atom_site_label_2
_geom_bond_site_symmetry_1
_geom_bond_site_symmetry_2
O1 C1 1_555 1_555
O2 C5 1_555 1_555
C1 C2 1_555 1_555
C2 H1 1_555 1_555
H2 C2 1_555 1_555
C3 C2 1_555 1_555
H3 C3 1_555 1_555
H4 C3 1_555 1_555
C4 C3 1_555 1_555
H5 C4 1_555 1_555
H6 C4 1_555 1_555
C5 C4 1_555 1_555
C6 C1 1_555 1_555
C7 C6 1_555 1_555
H7 C7 1_555 1_555
C8 C7 1_555 1_555
H8 C8 1_555 1_555
H9 C8 1_555 1_555
C9 C8 1_555 1_555
H10 C9 1_555 1_555
H11 C9 1_555 1_555
C10 C9 1_555 1_555
H12 C10 1_555 1_555
H13 C10 1_555 1_555
C11 C10 1_555 1_555
H14 C11 1_555 1_555
H15 C11 1_555 1_555
H16 C11 1_555 1_555
O2B C5B 1_555 1_555
C1B O1 1_555 1_555
C2B C1B 1_555 1_555
H1B C2B 1_555 1_555
H2B C2B 1_555 1_555
C3B C2B 1_555 1_555
H3B C3B 1_555 1_555
H4B C3B 1_555 1_555
C4B C3B 1_555 1_555
H5B C4B 1_555 1_555
H6B C4B 1_555 1_555
C5B C4B 1_555 1_555
C6B C7 1_555 1_555
C5 C6 1_555 1_555
C1B C6B 1_555 1_555
C5B C6B 1_555 1_555

#END
