
#######################################################################
#
#                 Cambridge Crystallographic Data Centre
#                                CCDC 
#
#######################################################################
#
# If this CIF has been generated from an entry in the Cambridge 
# Structural Database, then it will include bibliographic, chemical, 
# crystal, experimental, refinement or atomic coordinate data resulting 
# from the CCDC's data processing and validation procedures.
#
#######################################################################

data_PAMZUZ
_chemical_formula_moiety         'C16 H6 Br2 Cl2 N2 S2'
_chemical_name_systematic        
2,3-bis(5-Bromo-2-thienyl)-6,7-dichloroquinoxaline
_symmetry_cell_setting           tetragonal
_symmetry_space_group_name_H-M   'P -4 21 c'
_symmetry_Int_Tables_number      114
_space_group_name_Hall           'P -4 2n'
loop_
_symmetry_equiv_pos_site_id
_symmetry_equiv_pos_as_xyz
1 x,y,z
2 -x,-y,z
3 y,-x,-z
4 -y,x,-z
5 1/2-x,1/2+y,1/2-z
6 1/2+x,1/2-y,1/2-z
7 1/2-y,1/2-x,1/2+z
8 1/2+y,1/2+x,1/2+z
_cell_length_a                   20.2456(6)
_cell_length_b                   20.2456(6)
_cell_length_c                   8.5209(5)
_cell_angle_alpha                90
_cell_angle_beta                 90
_cell_angle_gamma                90
_cell_volume                     3492.58
_exptl_crystal_colour            yellow
_exptl_crystal_description       needle
_chemical_melting_point          '448 K'
_cell_formula_units_Z            8
_exptl_crystal_recrystallization_method ethanol
loop_
_atom_site_label
_atom_site_type_symbol
_atom_site_fract_x
_atom_site_fract_y
_atom_site_fract_z
Br1 Br -1.048010(14) -0.080531(15) -0.18415(5)
S1 S -0.91715(4) -0.09516(4) -0.37264(9)
Cl1 Cl -0.64125(4) 0.02239(4) -0.88776(9)
N1 N -0.78424(12) -0.10268(11) -0.5012(3)
C1 C -0.79825(14) -0.15682(13) -0.4197(3)
Br2 Br -0.727628(14) -0.471188(13) -0.17945(4)
S2 S -0.70720(3) -0.32782(3) -0.29891(9)
Cl2 Cl -0.53316(3) -0.08809(4) -0.84613(8)
N2 N -0.69738(12) -0.21098(11) -0.5013(3)
C2 C -0.75511(13) -0.21390(14) -0.4294(3)
C3 C -0.68172(14) -0.15410(13) -0.5803(3)
C4 C -0.62121(13) -0.14944(14) -0.6601(3)
H1 H -0.5896 -0.1839 -0.6518
C5 C -0.60810(13) -0.09508(14) -0.7499(3)
C6 C -0.65554(15) -0.04401(13) -0.7644(3)
C7 C -0.71394(13) -0.04698(13) -0.6834(4)
H2 H -0.7451 -0.0121 -0.6925
C8 C -0.72774(14) -0.10150(13) -0.5872(3)
C9 C -0.85771(13) -0.15373(13) -0.3239(4)
C10 C -0.87631(14) -0.18765(13) -0.1902(4)
H3 H -0.8499 -0.2211 -0.1434
C11 C -0.93785(15) -0.16806(15) -0.1300(3)
H4 H -0.9578 -0.1867 -0.0392
C12 C -0.96524(14) -0.11942(14) -0.2172(3)
C13 C -0.77147(14) -0.27928(14) -0.3668(3)
C14 C -0.82989(14) -0.31374(14) -0.3661(3)
H5 H -0.8706 -0.2957 -0.4013
C15 C -0.82344(14) -0.37879(13) -0.3078(4)
H6 H -0.8590 -0.4092 -0.2988
C16 C -0.76003(15) -0.39244(14) -0.2663(3)
loop_
_geom_bond_atom_site_label_1
_geom_bond_atom_site_label_2
_geom_bond_site_symmetry_1
_geom_bond_site_symmetry_2
Br1 C12 1_555 1_555
S1 C9 1_555 1_555
Cl1 C6 1_555 1_555
N1 C1 1_555 1_555
C1 C2 1_555 1_555
Br2 C16 1_555 1_555
S2 C13 1_555 1_555
Cl2 C5 1_555 1_555
N2 C2 1_555 1_555
C2 C13 1_555 1_555
C3 N2 1_555 1_555
C4 C3 1_555 1_555
H1 C4 1_555 1_555
C5 C4 1_555 1_555
C6 C5 1_555 1_555
C7 C6 1_555 1_555
H2 C7 1_555 1_555
C8 N1 1_555 1_555
C9 C1 1_555 1_555
C10 C9 1_555 1_555
H3 C10 1_555 1_555
C11 C10 1_555 1_555
H4 C11 1_555 1_555
C12 S1 1_555 1_555
C13 C14 1_555 1_555
C14 H5 1_555 1_555
C15 C14 1_555 1_555
H6 C15 1_555 1_555
C16 S2 1_555 1_555
C3 C8 1_555 1_555
C7 C8 1_555 1_555
C11 C12 1_555 1_555
C15 C16 1_555 1_555

#END
