
#######################################################################
#
#                 Cambridge Crystallographic Data Centre
#                                CCDC 
#
#######################################################################
#
# If this CIF has been generated from an entry in the Cambridge 
# Structural Database, then it will include bibliographic, chemical, 
# crystal, experimental, refinement or atomic coordinate data resulting 
# from the CCDC's data processing and validation procedures.
#
#######################################################################

data_PANFIW
_chemical_compound_source        
'culture extract of Talaromyces islandicus EN-501, an endophytic fungus obtained from the inner tissue of the marine red alga Laurencia okamurai.'
_chemical_name_common            '8-Hydroxyconiothyrinone B'
_chemical_formula_moiety         'C15 H18 O5'
_chemical_name_systematic        
3,5,8,10-tetrahydroxy-6-methyl-1,3,4,4a,9a,10-hexahydroanthracen-9(2H)-one
_chemical_properties_biological  'antimicrobial and antioxidant activity'
_symmetry_cell_setting           monoclinic
_symmetry_space_group_name_H-M   'P 21'
_symmetry_Int_Tables_number      4
_space_group_name_Hall           'P 2yb'
loop_
_symmetry_equiv_pos_site_id
_symmetry_equiv_pos_as_xyz
1 x,y,z
2 -x,1/2+y,-z
_cell_length_a                   10.2447(6)
_cell_length_b                   8.1822(4)
_cell_length_c                   16.0590(8)
_cell_angle_alpha                90
_cell_angle_beta                 100.634(2)
_cell_angle_gamma                90
_cell_volume                     1323.01
_chemical_melting_point          '235-237 deg.C'
_cell_formula_units_Z            4
loop_
_atom_site_label
_atom_site_type_symbol
_atom_site_fract_x
_atom_site_fract_y
_atom_site_fract_z
O1 O 0.5353(3) 0.3962(4) 0.58904(17)
O2 O 0.4995(3) 0.1427(4) 0.67385(16)
H1 H 0.4821 0.2113 0.6362
O3 O 0.9087(2) 0.3471(4) 0.92416(14)
H2 H 0.9239 0.4449 0.9205
O4 O 0.8729(3) 0.6351(3) 0.85826(14)
H3 H 0.9337 0.7005 0.8589
O5 O 0.8973(3) 1.0358(4) 0.60385(15)
H4 H 0.8987 1.0395 0.5530
C1 C 0.6311(3) 0.4350(4) 0.6443(2)
C2 C 0.6662(3) 0.3449(4) 0.7228(2)
C3 C 0.6021(3) 0.1969(5) 0.7339(2)
C4 C 0.6407(4) 0.1026(5) 0.8051(2)
H5 H 0.5981 0.0038 0.8103
C5 C 0.7423(4) 0.1531(5) 0.8692(2)
C6 C 0.8061(3) 0.3022(4) 0.8596(2)
C7 C 0.7704(3) 0.3990(4) 0.78820(19)
C8 C 0.8446(3) 0.5555(5) 0.77706(19)
H6 H 0.9293 0.5258 0.7612
C9 C 0.7722(3) 0.6694(4) 0.70989(19)
H7 H 0.6968 0.7171 0.7309
C10 C 0.8630(3) 0.8090(5) 0.6916(2)
H8 H 0.8870 0.8753 0.7422
H9 H 0.9440 0.7627 0.6785
C11 C 0.7998(4) 0.9171(4) 0.6192(2)
H10 H 0.7253 0.9754 0.6360
C12 C 0.7480(4) 0.8204(5) 0.5397(2)
H11 H 0.8217 0.7697 0.5193
H12 H 0.7032 0.8933 0.4960
C13 C 0.6512(4) 0.6885(5) 0.5579(2)
H13 H 0.5748 0.7397 0.5748
H14 H 0.6202 0.6259 0.5067
C14 C 0.7182(3) 0.5742(4) 0.62800(19)
H15 H 0.7951 0.5262 0.6087
C15 C 0.7802(4) 0.0519(5) 0.9481(2)
H16 H 0.7363 -0.0521 0.9401
H17 H 0.7540 0.1076 0.9950
H18 H 0.8746 0.0355 0.9596
O6 O 0.4794(3) 0.4429(4) 0.89561(17)
O7 O 0.5035(3) 0.7140(4) 0.82112(17)
H19 H 0.5245 0.6419 0.8565
O8 O 0.0802(2) 0.5383(3) 0.57299(14)
H20 H 0.0372 0.4617 0.5868
O9 O 0.0245(2) 0.3114(3) 0.67059(15)
H21 H -0.0057 0.2192 0.6605
O10 O 0.0737(3) -0.1444(4) 0.89852(15)
H22 H 0.0877 -0.1808 0.9469
C16 C 0.3879(3) 0.4014(5) 0.8384(2)
C17 C 0.3368(3) 0.5099(5) 0.7672(2)
C18 C 0.3997(4) 0.6622(5) 0.7619(2)
C19 C 0.3546(4) 0.7654(5) 0.6944(2)
H23 H 0.3970 0.8651 0.6910
C20 C 0.2479(4) 0.7236(5) 0.6320(2)
C21 C 0.1853(3) 0.5727(5) 0.6380(2)
C22 C 0.2266(3) 0.4662(4) 0.7037(2)
C23 C 0.1625(3) 0.3006(4) 0.7100(2)
H24 H 0.2059 0.2212 0.6784
C24 C 0.1769(3) 0.2411(5) 0.8014(2)
H25 H 0.1347 0.3212 0.8333
C25 C 0.1110(3) 0.0759(5) 0.8079(2)
H26 H 0.0158 0.0872 0.7897
H27 H 0.1427 -0.0010 0.7702
C26 C 0.1397(3) 0.0091(5) 0.8971(2)
H28 H 0.1036 0.0853 0.9342
C27 C 0.2878(3) -0.0076(5) 0.9292(2)
H29 H 0.3252 -0.0834 0.8934
H30 H 0.3036 -0.0510 0.9864
C28 C 0.3549(3) 0.1576(5) 0.9285(2)
H31 H 0.4500 0.1447 0.9464
H32 H 0.3233 0.2299 0.9683
C29 C 0.3260(3) 0.2340(5) 0.8400(2)
H33 H 0.3679 0.1637 0.8031
C30 C 0.2008(4) 0.8372(5) 0.5594(3)
H34 H 0.2334 0.9454 0.5741
H35 H 0.1055 0.8386 0.5473
H36 H 0.2334 0.8004 0.5103
loop_
_geom_bond_atom_site_label_1
_geom_bond_atom_site_label_2
_geom_bond_site_symmetry_1
_geom_bond_site_symmetry_2
O1 C1 1_555 1_555
O2 H1 1_555 1_555
O3 H2 1_555 1_555
O4 H3 1_555 1_555
O5 H4 1_555 1_555
C1 C2 1_555 1_555
C2 C3 1_555 1_555
C3 O2 1_555 1_555
C4 C3 1_555 1_555
H5 C4 1_555 1_555
C5 C4 1_555 1_555
C6 O3 1_555 1_555
C7 C2 1_555 1_555
C8 O4 1_555 1_555
H6 C8 1_555 1_555
C9 C8 1_555 1_555
H7 C9 1_555 1_555
C10 C9 1_555 1_555
H8 C10 1_555 1_555
H9 C10 1_555 1_555
C11 O5 1_555 1_555
H10 C11 1_555 1_555
C12 C11 1_555 1_555
H11 C12 1_555 1_555
H12 C12 1_555 1_555
C13 C12 1_555 1_555
H13 C13 1_555 1_555
H14 C13 1_555 1_555
C14 C1 1_555 1_555
H15 C14 1_555 1_555
C15 C5 1_555 1_555
H16 C15 1_555 1_555
H17 C15 1_555 1_555
H18 C15 1_555 1_555
O6 C16 1_555 1_555
O7 H19 1_555 1_555
O8 H20 1_555 1_555
O9 H21 1_555 1_555
O10 H22 1_555 1_555
C16 C17 1_555 1_555
C17 C18 1_555 1_555
C18 O7 1_555 1_555
C19 C18 1_555 1_555
H23 C19 1_555 1_555
C20 C19 1_555 1_555
C21 O8 1_555 1_555
C22 C17 1_555 1_555
C23 O9 1_555 1_555
H24 C23 1_555 1_555
C24 C23 1_555 1_555
H25 C24 1_555 1_555
C25 C24 1_555 1_555
H26 C25 1_555 1_555
H27 C25 1_555 1_555
C26 O10 1_555 1_555
H28 C26 1_555 1_555
C27 C26 1_555 1_555
H29 C27 1_555 1_555
H30 C27 1_555 1_555
C28 C27 1_555 1_555
H31 C28 1_555 1_555
H32 C28 1_555 1_555
C29 C16 1_555 1_555
H33 C29 1_555 1_555
C30 C20 1_555 1_555
H34 C30 1_555 1_555
H35 C30 1_555 1_555
H36 C30 1_555 1_555
C5 C6 1_555 1_555
C6 C7 1_555 1_555
C7 C8 1_555 1_555
C9 C14 1_555 1_555
C10 C11 1_555 1_555
C13 C14 1_555 1_555
C20 C21 1_555 1_555
C21 C22 1_555 1_555
C22 C23 1_555 1_555
C24 C29 1_555 1_555
C25 C26 1_555 1_555
C28 C29 1_555 1_555

#END
