
#######################################################################
#
#                 Cambridge Crystallographic Data Centre
#                                CCDC 
#
#######################################################################
#
# If this CIF has been generated from an entry in the Cambridge 
# Structural Database, then it will include bibliographic, chemical, 
# crystal, experimental, refinement or atomic coordinate data resulting 
# from the CCDC's data processing and validation procedures.
#
#######################################################################

data_PANFOC
_chemical_compound_source        
'culture extract of Talaromyces islandicus EN-501, an endophytic fungus obtained from the inner tissue of the marine red alga Laurencia okamurai.'
_chemical_name_common            8,11-Dihydroxyconiothyrinone
_chemical_formula_moiety         'C15 H18 O6'
_chemical_name_systematic        
3,5,8,10-tetrahydroxy-6-(hydroxymethyl)-1,3,4,4a,9a,10-hexahydroanthracen-9(2H)-one
_chemical_properties_biological  
'antimicrobial, antioxidant and cytotoxic activity'
_symmetry_cell_setting           triclinic
_symmetry_space_group_name_H-M   'P 1'
_symmetry_Int_Tables_number      1
_space_group_name_Hall           'P 1'
loop_
_symmetry_equiv_pos_site_id
_symmetry_equiv_pos_as_xyz
1 x,y,z
_cell_length_a                   7.4072(8)
_cell_length_b                   9.2619(11)
_cell_length_c                   10.4835(12)
_cell_angle_alpha                74.7400(10)
_cell_angle_beta                 84.183(2)
_cell_angle_gamma                75.1120(10)
_cell_volume                     670.127
_chemical_melting_point          '250-252 deg.C'
_cell_formula_units_Z            2
loop_
_atom_site_label
_atom_site_type_symbol
_atom_site_fract_x
_atom_site_fract_y
_atom_site_fract_z
O1 O 0.8868(7) 0.8728(5) 0.7600(5)
H1 H 0.9784 0.8091 0.7418
O2 O 0.4416(7) 0.8002(5) 0.5992(5)
H2 H 0.3602 0.7735 0.5699
O3 O 0.1662(6) 0.6577(5) 0.6504(4)
H3 H 0.1305 0.6739 0.5753
O4 O -0.0559(7) 0.1645(6) 0.6454(5)
H4 H -0.0824 0.0812 0.6763
O5 O 0.5961(7) 0.1819(6) 0.9923(5)
O6 O 0.8014(6) 0.3575(5) 1.0151(4)
H5 H 0.7581 0.2811 1.0346
C1 C 0.7258(9) 0.8612(8) 0.7032(7)
H6 H 0.7494 0.8747 0.6086
H7 H 0.6215 0.9445 0.7167
C2 C 0.6717(9) 0.7113(7) 0.7590(6)
C3 C 0.5254(9) 0.6834(7) 0.7015(7)
C4 C 0.4686(8) 0.5478(7) 0.7468(6)
C5 C 0.3162(9) 0.5165(7) 0.6781(7)
H8 H 0.3682 0.4939 0.5938
C6 C 0.2367(9) 0.3828(7) 0.7582(7)
H9 H 0.1614 0.4132 0.8335
C7 C 0.1124(9) 0.3411(8) 0.6717(7)
H10 H 0.0055 0.4273 0.6463
H11 H 0.1825 0.3241 0.5914
C8 C 0.0432(9) 0.1980(8) 0.7412(7)
H12 H -0.0419 0.2188 0.8156
C9 C 0.2065(9) 0.0621(7) 0.7912(7)
H13 H 0.2843 0.0352 0.7167
H14 H 0.1596 -0.0266 0.8389
C10 C 0.3237(11) 0.1039(8) 0.8832(8)
H15 H 0.2472 0.1265 0.9595
H16 H 0.4277 0.0170 0.9142
C11 C 0.3968(9) 0.2426(7) 0.8099(7)
H17 H 0.4720 0.2164 0.7331
C12 C 0.5238(10) 0.2800(8) 0.8959(8)
C13 C 0.5662(9) 0.4318(7) 0.8520(6)
C14 C 0.7095(9) 0.4623(8) 0.9108(6)
C15 C 0.7645(9) 0.6002(8) 0.8637(7)
H18 H 0.8622 0.6179 0.9018
O7 O 0.0640(8) 0.0724(7) 0.3917(6)
H19 H 0.0722 0.1033 0.4568
O8 O 0.5086(8) 0.1286(6) 0.4370(5)
H20 H 0.5914 0.1525 0.4672
O9 O 0.6407(6) 0.3356(5) 0.4967(4)
H21 H 0.7465 0.2998 0.5247
O10 O 0.9925(8) 0.7726(6) 0.4188(5)
H22 H 0.9969 0.8629 0.4066
O11 O 0.3794(7) 0.7478(6) 0.0456(5)
O12 O 0.1578(6) 0.5842(6) 0.0244(5)
H23 H 0.1993 0.6614 0.0072
C16 C 0.2259(12) 0.0681(10) 0.3171(8)
H24 H 0.2130 0.0351 0.2387
H25 H 0.3261 -0.0081 0.3674
C17 C 0.2812(10) 0.2263(9) 0.2736(8)
C18 C 0.4292(10) 0.2481(8) 0.3327(7)
C19 C 0.4855(9) 0.3850(7) 0.2930(6)
C20 C 0.6519(9) 0.4059(8) 0.3552(6)
H26 H 0.7683 0.3532 0.3168
C21 C 0.6503(10) 0.5767(7) 0.3337(6)
H27 H 0.5364 0.6264 0.3768
C22 C 0.8181(10) 0.5990(9) 0.3929(7)
H28 H 0.8105 0.5613 0.4883
H29 H 0.9318 0.5381 0.3604
C23 C 0.8290(10) 0.7659(8) 0.3590(7)
H30 H 0.7176 0.8265 0.3962
C24 C 0.8384(10) 0.8302(8) 0.2081(7)
H31 H 0.8432 0.9375 0.1879
H32 H 0.9513 0.7736 0.1711
C25 C 0.6690(10) 0.8166(8) 0.1459(6)
H33 H 0.6832 0.8494 0.0504
H34 H 0.5581 0.8851 0.1735
C26 C 0.6421(9) 0.6509(7) 0.1847(6)
H35 H 0.7456 0.5885 0.1421
C27 C 0.4653(10) 0.6415(8) 0.1333(6)
C28 C 0.3985(9) 0.5004(8) 0.1861(6)
C29 C 0.2488(9) 0.4781(8) 0.1281(7)
C30 C 0.1926(10) 0.3409(8) 0.1722(7)
H36 H 0.0938 0.3267 0.1325
loop_
_geom_bond_atom_site_label_1
_geom_bond_atom_site_label_2
_geom_bond_site_symmetry_1
_geom_bond_site_symmetry_2
O1 H1 1_555 1_555
O2 H2 1_555 1_555
O3 H3 1_555 1_555
O4 H4 1_555 1_555
O5 C12 1_555 1_555
O6 H5 1_555 1_555
C1 O1 1_555 1_555
H6 C1 1_555 1_555
H7 C1 1_555 1_555
C2 C1 1_555 1_555
C3 O2 1_555 1_555
C4 C3 1_555 1_555
C5 O3 1_555 1_555
H8 C5 1_555 1_555
C6 C5 1_555 1_555
H9 C6 1_555 1_555
C7 C6 1_555 1_555
H10 C7 1_555 1_555
H11 C7 1_555 1_555
C8 O4 1_555 1_555
H12 C8 1_555 1_555
C9 C8 1_555 1_555
H13 C9 1_555 1_555
H14 C9 1_555 1_555
C10 C9 1_555 1_555
H15 C10 1_555 1_555
H16 C10 1_555 1_555
C11 C6 1_555 1_555
H17 C11 1_555 1_555
C12 C11 1_555 1_555
C13 C4 1_555 1_555
C14 O6 1_555 1_555
C15 C2 1_555 1_555
H18 C15 1_555 1_555
O7 H19 1_555 1_555
O8 H20 1_555 1_555
O9 H21 1_555 1_555
O10 H22 1_555 1_555
O11 C27 1_555 1_555
O12 H23 1_555 1_555
C16 O7 1_555 1_555
H24 C16 1_555 1_555
H25 C16 1_555 1_555
C17 C16 1_555 1_555
C18 O8 1_555 1_555
C19 C18 1_555 1_555
C20 O9 1_555 1_555
H26 C20 1_555 1_555
C21 C20 1_555 1_555
H27 C21 1_555 1_555
C22 C21 1_555 1_555
H28 C22 1_555 1_555
H29 C22 1_555 1_555
C23 O10 1_555 1_555
H30 C23 1_555 1_555
C24 C23 1_555 1_555
H31 C24 1_555 1_555
H32 C24 1_555 1_555
C25 C24 1_555 1_555
H33 C25 1_555 1_555
H34 C25 1_555 1_555
C26 C21 1_555 1_555
H35 C26 1_555 1_555
C27 C26 1_555 1_555
C28 C19 1_555 1_555
C29 O12 1_555 1_555
C30 C17 1_555 1_555
H36 C30 1_555 1_555
C2 C3 1_555 1_555
C4 C5 1_555 1_555
C7 C8 1_555 1_555
C10 C11 1_555 1_555
C12 C13 1_555 1_555
C13 C14 1_555 1_555
C14 C15 1_555 1_555
C17 C18 1_555 1_555
C19 C20 1_555 1_555
C22 C23 1_555 1_555
C25 C26 1_555 1_555
C27 C28 1_555 1_555
C28 C29 1_555 1_555
C29 C30 1_555 1_555

#END
