
#######################################################################
#
#                 Cambridge Crystallographic Data Centre
#                                CCDC 
#
#######################################################################
#
# If this CIF has been generated from an entry in the Cambridge 
# Structural Database, then it will include bibliographic, chemical, 
# crystal, experimental, refinement or atomic coordinate data resulting 
# from the CCDC's data processing and validation procedures.
#
#######################################################################

data_PANGUH
_chemical_formula_moiety         'C22 H22 O2'
_chemical_name_systematic        1,2-Dimethyl-4,5-bis(phenoxymethyl)benzene
_symmetry_cell_setting           orthorhombic
_symmetry_space_group_name_H-M   'P b c n'
_symmetry_Int_Tables_number      60
_space_group_name_Hall           '-P 2n 2ab'
loop_
_symmetry_equiv_pos_site_id
_symmetry_equiv_pos_as_xyz
1 x,y,z
2 1/2-x,1/2-y,1/2+z
3 -x,y,1/2-z
4 1/2+x,1/2-y,-z
5 -x,-y,-z
6 1/2+x,1/2+y,1/2-z
7 x,-y,1/2+z
8 1/2-x,1/2+y,z
_cell_length_a                   18.476(4)
_cell_length_b                   11.494(2)
_cell_length_c                   8.4632(17)
_cell_angle_alpha                90
_cell_angle_beta                 90
_cell_angle_gamma                90
_cell_volume                     1797.27
_exptl_crystal_colour            colorless
_exptl_crystal_description       block
_cell_formula_units_Z            4
_exptl_crystal_recrystallization_method 'hexane/ethyl acetate'
loop_
_atom_site_label
_atom_site_type_symbol
_atom_site_fract_x
_atom_site_fract_y
_atom_site_fract_z
C1 C 0.43465(10) 0.16487(16) 0.1444(2)
H1 H 0.3936 0.1835 0.0797
H2 H 0.4191 0.1197 0.2336
H3 H 0.4690 0.1209 0.0837
C2 C 0.46968(8) 0.27578(12) 0.20161(16)
C3 C 0.44101(7) 0.38191(12) 0.15413(16)
H4 H 0.4007 0.3819 0.0883
C4 C 0.46975(7) 0.48726(12) 0.20034(15)
C5 C 0.43709(8) 0.59838(12) 0.14030(16)
H5 H 0.4741 0.6580 0.1320
H6 H 0.4164 0.5861 0.0363
C6 C 0.34705(7) 0.73729(12) 0.21541(16)
C7 C 0.28919(8) 0.76423(14) 0.31232(18)
H7 H 0.2758 0.7139 0.3932
C8 C 0.25153(9) 0.86597(15) 0.2883(2)
H8 H 0.2125 0.8839 0.3535
C9 C 0.27045(10) 0.94099(15) 0.1706(2)
H9 H 0.2448 1.0098 0.1560
C10 C 0.32745(9) 0.91424(14) 0.0741(2)
H10 H 0.3404 0.9652 -0.0065
C11 C 0.36603(8) 0.81240(13) 0.09492(19)
H11 H 0.4045 0.7946 0.0283
O1 O 0.38194(5) 0.63455(8) 0.24871(11)
C1B C 0.56535(10) 0.16487(16) 0.3556(2)
H1B H 0.6064 0.1835 0.4203
H2B H 0.5809 0.1197 0.2664
H3B H 0.5310 0.1209 0.4163
C2B C 0.53032(8) 0.27578(12) 0.29839(16)
C3B C 0.55899(7) 0.38191(12) 0.34587(16)
H4B H 0.5993 0.3819 0.4117
C4B C 0.53025(7) 0.48726(12) 0.29966(15)
C5B C 0.56291(8) 0.59838(12) 0.35970(16)
H5B H 0.5259 0.6580 0.3680
H6B H 0.5836 0.5861 0.4637
C6B C 0.65295(7) 0.73729(12) 0.28459(16)
C7B C 0.71081(8) 0.76423(14) 0.18768(18)
H7B H 0.7242 0.7139 0.1068
C8B C 0.74847(9) 0.86597(15) 0.2117(2)
H8B H 0.7875 0.8839 0.1465
C9B C 0.72955(10) 0.94099(15) 0.3294(2)
H9B H 0.7552 1.0098 0.3440
C10B C 0.67255(9) 0.91424(14) 0.4259(2)
H10B H 0.6596 0.9652 0.5065
C11B C 0.63397(8) 0.81240(13) 0.40508(19)
H11B H 0.5955 0.7946 0.4717
O1B O 0.61806(5) 0.63455(8) 0.25129(11)
loop_
_geom_bond_atom_site_label_1
_geom_bond_atom_site_label_2
_geom_bond_site_symmetry_1
_geom_bond_site_symmetry_2
C1 H1 1_555 1_555
H2 C1 1_555 1_555
H3 C1 1_555 1_555
C2 C1 1_555 1_555
C3 C2 1_555 1_555
H4 C3 1_555 1_555
C4 C3 1_555 1_555
C5 C4 1_555 1_555
H5 C5 1_555 1_555
H6 C5 1_555 1_555
C6 C7 1_555 1_555
C7 H7 1_555 1_555
C8 C7 1_555 1_555
H8 C8 1_555 1_555
C9 C8 1_555 1_555
H9 C9 1_555 1_555
C10 C9 1_555 1_555
H10 C10 1_555 1_555
C11 C6 1_555 1_555
H11 C11 1_555 1_555
O1 C5 1_555 1_555
C1B H1B 1_555 1_555
H2B C1B 1_555 1_555
H3B C1B 1_555 1_555
C2B C2 1_555 1_555
C3B C2B 1_555 1_555
H4B C3B 1_555 1_555
C4B C4 1_555 1_555
C5B C4B 1_555 1_555
H5B C5B 1_555 1_555
H6B C5B 1_555 1_555
C6B C7B 1_555 1_555
C7B H7B 1_555 1_555
C8B C7B 1_555 1_555
H8B C8B 1_555 1_555
C9B C8B 1_555 1_555
H9B C9B 1_555 1_555
C10B C9B 1_555 1_555
H10B C10B 1_555 1_555
C11B C6B 1_555 1_555
H11B C11B 1_555 1_555
O1B C5B 1_555 1_555
C6 O1 1_555 1_555
C10 C11 1_555 1_555
C1B C2B 1_555 1_555
C3B C4B 1_555 1_555
C6B O1B 1_555 1_555
C10B C11B 1_555 1_555

#END
