
#######################################################################
#
#                 Cambridge Crystallographic Data Centre
#                                CCDC 
#
#######################################################################
#
# If this CIF has been generated from an entry in the Cambridge 
# Structural Database, then it will include bibliographic, chemical, 
# crystal, experimental, refinement or atomic coordinate data resulting 
# from the CCDC's data processing and validation procedures.
#
#######################################################################

data_PANGUJ
_chemical_compound_source        'leaves of Cleistochlamys kirkii'
_chemical_name_common            cleistodienediol
_chemical_formula_moiety         'C16 H16 O6'
_chemical_name_systematic        
'(2-acetoxy-5,6-dihydroxycyclohex-3-en-1-ylidene)methyl benzoate'
_chemical_properties_biological  'Antiplasmodial and cytotoxic activity'
_symmetry_cell_setting           orthorhombic
_symmetry_space_group_name_H-M   'P 21 21 21'
_symmetry_Int_Tables_number      19
_space_group_name_Hall           'P 2ac 2ab'
loop_
_symmetry_equiv_pos_site_id
_symmetry_equiv_pos_as_xyz
1 x,y,z
2 1/2-x,-y,1/2+z
3 1/2+x,1/2-y,-z
4 -x,1/2+y,1/2-z
_cell_length_a                   4.60303(12)
_cell_length_b                   11.6267(2)
_cell_length_c                   26.9569(8)
_cell_angle_alpha                90
_cell_angle_beta                 90
_cell_angle_gamma                90
_cell_volume                     1442.68
_exptl_crystal_colour            colorless
_exptl_crystal_description       needle
_cell_formula_units_Z            4
loop_
_atom_site_label
_atom_site_type_symbol
_atom_site_fract_x
_atom_site_fract_y
_atom_site_fract_z
C1 C 0.2282(4) 0.32488(15) 0.59873(7)
C2 C 0.4539(4) 0.24843(15) 0.57560(7)
H1 H 0.6357 0.2569 0.5942
C3 C 0.3571(5) 0.12255(16) 0.57841(8)
H2 H 0.1913 0.1103 0.5562
C4 C 0.2703(5) 0.09471(16) 0.63080(8)
H3 H 0.2819 0.0185 0.6410
C5 C 0.1784(5) 0.17214(17) 0.66333(8)
H4 H 0.1353 0.1477 0.6953
C6 C 0.1402(4) 0.29739(16) 0.65109(7)
H5 H -0.0638 0.3187 0.6559
C7 C 0.1119(4) 0.41010(15) 0.57258(7)
H6 H 0.1717 0.4224 0.5401
C8 C -0.2287(4) 0.55818(15) 0.56256(7)
C9 C -0.4382(4) 0.63279(16) 0.58936(8)
C10 C -0.5879(5) 0.71525(16) 0.56206(8)
H7 H -0.5551 0.7223 0.5282
C11 C -0.7871(5) 0.78727(17) 0.58556(8)
H8 H -0.8881 0.8424 0.5674
C12 C -0.8336(5) 0.77622(16) 0.63609(9)
H9 H -0.9673 0.8238 0.6518
C13 C -0.6822(6) 0.69463(17) 0.66353(8)
H10 H -0.7136 0.6884 0.6975
C14 C -0.4839(5) 0.62241(16) 0.64029(8)
H11 H -0.3826 0.5676 0.6585
C15 C 0.2218(5) 0.37988(18) 0.73064(8)
C16 C 0.4042(6) 0.4595(2) 0.76116(9)
H12 H 0.5555 0.4166 0.7772
H13 H 0.2851 0.4961 0.7858
H14 H 0.4891 0.5169 0.7401
O1 O 0.5033(3) 0.28295(11) 0.52557(5)
H15 H 0.669(8) 0.250(3) 0.5141(11)
O2 O 0.5940(4) 0.05236(12) 0.56305(6)
H16 H 0.543(8) 0.007(3) 0.5409(12)
O3 O -0.0979(3) 0.48076(11) 0.59339(5)
O4 O -0.1785(4) 0.56455(12) 0.51873(5)
O5 O 0.3232(3) 0.36743(12) 0.68414(5)
O6 O 0.0076(5) 0.33178(17) 0.74574(6)
loop_
_geom_bond_atom_site_label_1
_geom_bond_atom_site_label_2
_geom_bond_site_symmetry_1
_geom_bond_site_symmetry_2
C1 C2 1_555 1_555
C2 H1 1_555 1_555
C3 C2 1_555 1_555
H2 C3 1_555 1_555
C4 C3 1_555 1_555
H3 C4 1_555 1_555
C5 C4 1_555 1_555
H4 C5 1_555 1_555
C6 C1 1_555 1_555
H5 C6 1_555 1_555
C7 C1 1_555 1_555
H6 C7 1_555 1_555
C8 C9 1_555 1_555
C9 C10 1_555 1_555
C10 H7 1_555 1_555
C11 C10 1_555 1_555
H8 C11 1_555 1_555
C12 C11 1_555 1_555
H9 C12 1_555 1_555
C13 C12 1_555 1_555
H10 C13 1_555 1_555
C14 C9 1_555 1_555
H11 C14 1_555 1_555
C15 C16 1_555 1_555
C16 H12 1_555 1_555
H13 C16 1_555 1_555
H14 C16 1_555 1_555
O1 C2 1_555 1_555
H15 O1 1_555 1_555
O2 C3 1_555 1_555
H16 O2 1_555 1_555
O3 C7 1_555 1_555
O4 C8 1_555 1_555
O5 C6 1_555 1_555
O6 C15 1_555 1_555
C5 C6 1_555 1_555
C8 O3 1_555 1_555
C13 C14 1_555 1_555
C15 O5 1_555 1_555

#END
