
#######################################################################
#
#                 Cambridge Crystallographic Data Centre
#                                CCDC 
#
#######################################################################
#
# If this CIF has been generated from an entry in the Cambridge 
# Structural Database, then it will include bibliographic, chemical, 
# crystal, experimental, refinement or atomic coordinate data resulting 
# from the CCDC's data processing and validation procedures.
#
#######################################################################

data_PANGIV
_chemical_formula_moiety         'C18 H14 F1 N3 O2,C1 H4 O1'
_chemical_name_systematic        
"N'-(2-Fluorobenzylidene)-2-(quinolin-8-yloxy)acetohydrazide methanol solvate"
_symmetry_cell_setting           triclinic
_symmetry_space_group_name_H-M   'P -1'
_symmetry_Int_Tables_number      2
_space_group_name_Hall           '-P 1'
loop_
_symmetry_equiv_pos_site_id
_symmetry_equiv_pos_as_xyz
1 x,y,z
2 -x,-y,-z
_cell_length_a                   9.071(2)
_cell_length_b                   9.546(2)
_cell_length_c                   11.506(3)
_cell_angle_alpha                66.450(4)
_cell_angle_beta                 71.709(4)
_cell_angle_gamma                74.490(4)
_cell_volume                     855.576
_exptl_crystal_colour            colorless
_exptl_crystal_description       column
_cell_formula_units_Z            2
_exptl_crystal_recrystallization_method tetrahydrofuran/methanol
loop_
_atom_site_label
_atom_site_type_symbol
_atom_site_fract_x
_atom_site_fract_y
_atom_site_fract_z
F1 F 1.21042(12) 0.08886(13) 0.02305(10)
O1 O 0.60350(12) 0.63734(11) 0.17998(9)
O2 O 0.59329(14) 0.64240(14) -0.12791(10)
N1 N 0.70916(14) 0.54629(13) 0.39689(11)
N2 N 0.75758(15) 0.49413(15) 0.00518(11)
H1 H 0.7879 0.4778 0.0739
N3 N 0.83401(15) 0.40809(15) -0.07516(11)
C1 C 0.7606(2) 0.50402(19) 0.50308(14)
H2 H 0.8417 0.4201 0.5169
C2 C 0.7016(2) 0.5768(2) 0.59646(14)
H3 H 0.7420 0.5414 0.6700
C3 C 0.5850(2) 0.69911(19) 0.57734(14)
H4 H 0.5437 0.7490 0.6383
C4 C 0.52507(18) 0.75187(18) 0.46519(13)
C5 C 0.4050(2) 0.8801(2) 0.43810(16)
H5 H 0.3631 0.9360 0.4946
C6 C 0.3504(2) 0.9225(2) 0.33018(17)
H6 H 0.2704 1.0071 0.3137
C7 C 0.41208(19) 0.84104(19) 0.24233(15)
H7 H 0.3711 0.8706 0.1698
C8 C 0.53161(16) 0.71910(16) 0.26316(13)
C9 C 0.59144(16) 0.66997(15) 0.37664(12)
C10 C 0.54166(18) 0.68538(18) 0.06803(13)
H8 H 0.5395 0.7961 0.0240
H9 H 0.4341 0.6662 0.0961
C11 C 0.63449(18) 0.60420(18) -0.02705(13)
C12 C 0.95456(18) 0.31158(18) -0.04420(14)
H10 H 0.9892 0.3066 0.0256
C13 C 1.03887(17) 0.20838(17) -0.11799(14)
C14 C 0.9953(2) 0.2122(2) -0.22534(15)
H11 H 0.9126 0.2866 -0.2548
C15 C 1.0721(2) 0.1081(2) -0.28819(17)
H12 H 1.0417 0.1132 -0.3600
C16 C 1.1935(2) -0.0035(2) -0.24552(18)
H13 H 1.2433 -0.0753 -0.2872
C17 C 1.2420(2) -0.0098(2) -0.14164(18)
H14 H 1.3256 -0.0837 -0.1133
C18 C 1.16362(18) 0.09609(19) -0.08069(14)
O3 O 0.84938(16) 0.35503(16) 0.25006(12)
C19 C 0.9840(2) 0.2742(2) 0.29629(18)
H15 H 0.9542 0.2180 0.3881
H16 H 1.0502 0.3460 0.2814
H17 H 1.0402 0.2030 0.2512
H18 H 0.801(2) 0.427(3) 0.288(2)
loop_
_geom_bond_atom_site_label_1
_geom_bond_atom_site_label_2
_geom_bond_site_symmetry_1
_geom_bond_site_symmetry_2
F1 C18 1_555 1_555
O1 C8 1_555 1_555
O2 C11 1_555 1_555
O3 C19 1_555 1_555
N1 C1 1_555 1_555
N2 H1 1_555 1_555
N3 N2 1_555 1_555
C1 H2 1_555 1_555
C2 C1 1_555 1_555
H3 C2 1_555 1_555
C3 C2 1_555 1_555
H4 C3 1_555 1_555
C4 C3 1_555 1_555
C5 C4 1_555 1_555
H5 C5 1_555 1_555
C6 C5 1_555 1_555
H6 C6 1_555 1_555
C7 C6 1_555 1_555
H7 C7 1_555 1_555
C8 C7 1_555 1_555
C9 N1 1_555 1_555
C10 O1 1_555 1_555
H8 C10 1_555 1_555
H9 C10 1_555 1_555
C11 N2 1_555 1_555
C12 N3 1_555 1_555
H10 C12 1_555 1_555
C13 C12 1_555 1_555
C14 C13 1_555 1_555
H11 C14 1_555 1_555
C15 C14 1_555 1_555
H12 C15 1_555 1_555
C16 C15 1_555 1_555
H13 C16 1_555 1_555
C17 C16 1_555 1_555
H14 C17 1_555 1_555
C18 C13 1_555 1_555
C19 H15 1_555 1_555
H16 C19 1_555 1_555
H17 C19 1_555 1_555
H18 O3 1_555 1_555
C4 C9 1_555 1_555
C8 C9 1_555 1_555
C10 C11 1_555 1_555
C17 C18 1_555 1_555

#END
