
#######################################################################
#
#                 Cambridge Crystallographic Data Centre
#                                CCDC 
#
#######################################################################
#
# If this CIF has been generated from an entry in the Cambridge 
# Structural Database, then it will include bibliographic, chemical, 
# crystal, experimental, refinement or atomic coordinate data resulting 
# from the CCDC's data processing and validation procedures.
#
#######################################################################

data_PANHAQ
_chemical_compound_source        'leaves of Cleistochlamys kirkii'
_chemical_name_common            
'(2,5-diacetoxy-1,6-dihydroxycyclohex-3-en-1-yl)methyl benzoate'
_chemical_formula_moiety         'C18 H20 O8'
_chemical_name_systematic        
'(1S,2R,3R,4S)-2-((benzoyloxy)methyl)cyclohex-5-en-1,2,3,4-tetrol 1,4-diacetate'
_symmetry_cell_setting           monoclinic
_symmetry_space_group_name_H-M   'P 21'
_symmetry_Int_Tables_number      4
_space_group_name_Hall           'P 2yb'
loop_
_symmetry_equiv_pos_site_id
_symmetry_equiv_pos_as_xyz
1 x,y,z
2 -x,1/2+y,-z
_cell_length_a                   7.46453(7)
_cell_length_b                   14.64416(12)
_cell_length_c                   8.31421(9)
_cell_angle_alpha                90
_cell_angle_beta                 109.8246(11)
_cell_angle_gamma                90
_cell_volume                     854.979
_exptl_crystal_colour            colorless
_exptl_crystal_description       block
_cell_formula_units_Z            2
loop_
_atom_site_label
_atom_site_type_symbol
_atom_site_fract_x
_atom_site_fract_y
_atom_site_fract_z
O1 O 0.32718(18) 0.50105(9) 0.18815(17)
O2 O 0.3520(2) 0.62325(10) 0.35379(19)
O3 O 0.59825(19) 0.50489(9) 0.03793(16)
O4 O 0.6500(2) 0.43916(12) -0.18691(19)
O5 O 0.44091(19) 0.33232(9) 0.12517(18)
H1 H 0.364(5) 0.360(2) 0.047(4)
O6 O 0.58817(19) 0.28311(10) 0.46134(19)
H2 H 0.632(4) 0.237(2) 0.510(4)
O7 O 1.01467(18) 0.29794(9) 0.57050(16)
O8 O 1.18282(19) 0.38154(10) 0.79810(17)
C1 C 0.0473(3) 0.58017(14) -0.0823(3)
H3 H 0.0685 0.5178 -0.0861
C2 C -0.0821(3) 0.62354(16) -0.2219(3)
H4 H -0.1470 0.5902 -0.3195
C3 C -0.1149(3) 0.71668(15) -0.2162(3)
H5 H -0.2025 0.7456 -0.3096
C4 C -0.0169(3) 0.76658(14) -0.0709(3)
H6 H -0.0390 0.8289 -0.0672
C5 C 0.1138(3) 0.72385(13) 0.0686(2)
H7 H 0.1804 0.7575 0.1653
C6 C 0.1449(3) 0.62993(13) 0.0630(2)
C7 C 0.2843(3) 0.58629(12) 0.2167(2)
C8 C 0.4787(3) 0.45711(13) 0.3239(2)
H8 H 0.4268 0.4254 0.4007
H9 H 0.5693 0.5023 0.3891
C9 C 0.5769(3) 0.38937(13) 0.2416(2)
C10 C 0.7037(3) 0.43387(13) 0.1522(2)
H10 H 0.7402 0.3872 0.0846
C11 C 0.5801(3) 0.49865(14) -0.1295(2)
C12 C 0.4622(3) 0.57613(16) -0.2267(3)
H11 H 0.3374 0.5732 -0.2179
H12 H 0.4522 0.5721 -0.3447
H13 H 0.5214 0.6329 -0.1799
C13 C 0.8809(3) 0.47519(15) 0.2749(3)
H14 H 0.9379 0.5233 0.2373
C14 C 0.9604(3) 0.44640(14) 0.4344(3)
H15 H 1.0731 0.4736 0.5028
C15 C 0.8758(3) 0.37193(13) 0.5085(2)
H16 H 0.8401 0.3961 0.6033
C16 C 0.7040(3) 0.32427(12) 0.3793(2)
C17 C 1.1636(3) 0.31266(14) 0.7143(2)
C18 C 1.2997(3) 0.23430(16) 0.7516(3)
H17 H 1.4069 0.2498 0.7181
H18 H 1.2370 0.1816 0.6888
H19 H 1.3425 0.2211 0.8718
H20 H 0.753(3) 0.2806(16) 0.315(3)
loop_
_geom_bond_atom_site_label_1
_geom_bond_atom_site_label_2
_geom_bond_site_symmetry_1
_geom_bond_site_symmetry_2
O1 C7 1_555 1_555
O2 C7 1_555 1_555
O3 C10 1_555 1_555
O4 C11 1_555 1_555
O5 H1 1_555 1_555
O6 H2 1_555 1_555
O7 C15 1_555 1_555
O8 C17 1_555 1_555
C1 H3 1_555 1_555
C2 C1 1_555 1_555
H4 C2 1_555 1_555
C3 C2 1_555 1_555
H5 C3 1_555 1_555
C4 C3 1_555 1_555
H6 C4 1_555 1_555
C5 C4 1_555 1_555
H7 C5 1_555 1_555
C6 C1 1_555 1_555
C7 C6 1_555 1_555
C8 O1 1_555 1_555
H8 C8 1_555 1_555
H9 C8 1_555 1_555
C9 O5 1_555 1_555
C10 C9 1_555 1_555
H10 C10 1_555 1_555
C11 O3 1_555 1_555
C12 C11 1_555 1_555
H11 C12 1_555 1_555
H12 C12 1_555 1_555
H13 C12 1_555 1_555
C13 C10 1_555 1_555
H14 C13 1_555 1_555
C14 C13 1_555 1_555
H15 C14 1_555 1_555
C15 C14 1_555 1_555
H16 C15 1_555 1_555
C16 O6 1_555 1_555
C17 O7 1_555 1_555
C18 C17 1_555 1_555
H17 C18 1_555 1_555
H18 C18 1_555 1_555
H19 C18 1_555 1_555
H20 C16 1_555 1_555
C5 C6 1_555 1_555
C8 C9 1_555 1_555
C9 C16 1_555 1_555
C15 C16 1_555 1_555

#END
