
#######################################################################
#
#                 Cambridge Crystallographic Data Centre
#                                CCDC 
#
#######################################################################
#
# If this CIF has been generated from an entry in the Cambridge 
# Structural Database, then it will include bibliographic, chemical, 
# crystal, experimental, refinement or atomic coordinate data resulting 
# from the CCDC's data processing and validation procedures.
#
#######################################################################

data_PANHAO
_chemical_formula_moiety         'C18 H11 Cl2 F3 N4 O3 S1'
_chemical_name_systematic        
1-(2,6-Dichloro-4-(trifluoromethyl)phenyl)-5-(4-methoxyphenylsulfonamido)-1H-pyrazole-3-carbonitrile
_symmetry_cell_setting           triclinic
_symmetry_space_group_name_H-M   'P -1'
_symmetry_Int_Tables_number      2
_space_group_name_Hall           '-P 1'
loop_
_symmetry_equiv_pos_site_id
_symmetry_equiv_pos_as_xyz
1 x,y,z
2 -x,-y,-z
_cell_length_a                   9.3444(9)
_cell_length_b                   10.1558(10)
_cell_length_c                   11.6007(11)
_cell_angle_alpha                99.651(2)
_cell_angle_beta                 100.645(2)
_cell_angle_gamma                102.014(2)
_cell_volume                     1033.65
_exptl_crystal_colour            colorless
_exptl_crystal_description       block
_chemical_melting_point          '492-493 K'
_cell_formula_units_Z            2
_exptl_crystal_recrystallization_method acetone/ethanol
loop_
_atom_site_label
_atom_site_type_symbol
_atom_site_fract_x
_atom_site_fract_y
_atom_site_fract_z
Cl1 Cl 0.23807(16) 0.16947(14) 0.54182(13)
Cl2 Cl 0.25449(15) 0.55220(15) 0.92744(12)
S1 S 0.22040(12) 0.66306(13) 0.51197(11)
F1 F -0.1390(7) -0.0028(8) 0.8354(11)
F2 F -0.2590(6) 0.0450(8) 0.6996(5)
F3 F -0.2253(5) 0.1591(6) 0.8662(6)
O1 O 0.0675(4) 0.6273(4) 0.4461(3)
O2 O 0.3391(4) 0.7019(4) 0.4539(3)
O3 O 0.2946(5) 1.0773(4) 0.9482(4)
N1 N 0.3633(3) 0.4360(4) 0.7170(3)
N2 N 0.5018(4) 0.4406(4) 0.7824(3)
N3 N 0.8764(5) 0.5957(6) 0.8273(5)
N4 N 0.2377(4) 0.5223(4) 0.5592(3)
H1 H 0.1640 0.4501 0.5358
C1 C -0.1591(7) 0.1004(7) 0.7964(7)
C2 C -0.0204(5) 0.1867(5) 0.7759(5)
C3 C 0.0380(5) 0.1404(5) 0.6823(5)
H2 H -0.0069 0.0543 0.6321
C4 C 0.1648(5) 0.2229(5) 0.6628(4)
C5 C 0.2331(4) 0.3504(4) 0.7384(4)
C6 C 0.1725(5) 0.3943(5) 0.8335(4)
C7 C 0.0449(5) 0.3124(5) 0.8536(4)
H3 H 0.0044 0.3416 0.9180
C8 C 0.3683(4) 0.5167(4) 0.6361(4)
C9 C 0.5159(4) 0.5811(5) 0.6497(4)
H4 H 0.5566 0.6445 0.6079
C10 C 0.5913(4) 0.5302(5) 0.7402(4)
C11 C 0.7516(5) 0.5644(6) 0.7899(5)
C12 C 0.2451(5) 0.7900(5) 0.6402(4)
C13 C 0.3678(5) 0.9016(5) 0.6726(5)
H5 H 0.4374 0.9104 0.6248
C14 C 0.3880(5) 1.0000(5) 0.7752(5)
H6 H 0.4706 1.0755 0.7964
C15 C 0.2863(6) 0.9865(5) 0.8460(5)
C16 C 0.1627(6) 0.8727(6) 0.8143(5)
H7 H 0.0944 0.8631 0.8631
C17 C 0.1421(5) 0.7761(5) 0.7128(5)
H8 H 0.0593 0.7008 0.6917
C18 C 0.4241(7) 1.1899(6) 0.9915(6)
H9 H 0.5129 1.1556 1.0003
H10 H 0.4197 1.2406 1.0679
H11 H 0.4270 1.2495 0.9354
loop_
_geom_bond_atom_site_label_1
_geom_bond_atom_site_label_2
_geom_bond_site_symmetry_1
_geom_bond_site_symmetry_2
Cl1 C4 1_555 1_555
Cl2 C6 1_555 1_555
S1 O1 1_555 1_555
F1 C1 1_555 1_555
F2 C1 1_555 1_555
F3 C1 1_555 1_555
O2 S1 1_555 1_555
O3 C15 1_555 1_555
N1 N2 1_555 1_555
N2 C10 1_555 1_555
N3 C11 1_555 1_555
N4 S1 1_555 1_555
H1 N4 1_555 1_555
C1 C2 1_555 1_555
C2 C3 1_555 1_555
C3 H2 1_555 1_555
C4 C3 1_555 1_555
C5 N1 1_555 1_555
C6 C5 1_555 1_555
C7 C2 1_555 1_555
H3 C7 1_555 1_555
C8 N1 1_555 1_555
C9 C8 1_555 1_555
H4 C9 1_555 1_555
C10 C9 1_555 1_555
C11 C10 1_555 1_555
C12 S1 1_555 1_555
C13 C12 1_555 1_555
H5 C13 1_555 1_555
C14 C13 1_555 1_555
H6 C14 1_555 1_555
C15 C14 1_555 1_555
C16 C15 1_555 1_555
H7 C16 1_555 1_555
C17 C12 1_555 1_555
H8 C17 1_555 1_555
C18 O3 1_555 1_555
H9 C18 1_555 1_555
H10 C18 1_555 1_555
H11 C18 1_555 1_555
N4 C8 1_555 1_555
C4 C5 1_555 1_555
C6 C7 1_555 1_555
C16 C17 1_555 1_555

#END
