
#######################################################################
#
#                 Cambridge Crystallographic Data Centre
#                                CCDC 
#
#######################################################################
#
# If this CIF has been generated from an entry in the Cambridge 
# Structural Database, then it will include bibliographic, chemical, 
# crystal, experimental, refinement or atomic coordinate data resulting 
# from the CCDC's data processing and validation procedures.
#
#######################################################################

data_PANICB01
_chemical_formula_moiety         'C17 H28 N1 O2 1+,Br1 1-'
_chemical_name_systematic        '(+)-Paniculatine hydrobromide'
_symmetry_cell_setting           monoclinic
_symmetry_space_group_name_H-M   'P 21'
_symmetry_Int_Tables_number      4
_space_group_name_Hall           'P 2yb'
loop_
_symmetry_equiv_pos_site_id
_symmetry_equiv_pos_as_xyz
1 x,y,z
2 -x,1/2+y,-z
_cell_length_a                   10.5831(9)
_cell_length_b                   7.5407(6)
_cell_length_c                   11.2283(9)
_cell_angle_alpha                90
_cell_angle_beta                 102.315(1)
_cell_angle_gamma                90
_cell_volume                     875.444
_exptl_crystal_colour            colorless
_exptl_crystal_description       column
_cell_formula_units_Z            2
loop_
_atom_site_label
_atom_site_type_symbol
_atom_site_fract_x
_atom_site_fract_y
_atom_site_fract_z
Br1 Br 0.2263(1) -0.4988(15) 1.9829(1)
O1 O 0.2965(9) -0.5180(22) 1.2939(8)
O2 O 0.5947(12) -0.2642(22) 1.3026(11)
N1 N 0.2438(11) 0.0757 0.9587(8)
C1 C 0.2005(12) -0.3802(22) 1.2944(12)
C2 C 0.1198(13) -0.4231(25) 1.3908(11)
C3 C 0.2069(15) -0.4096(26) 1.5189(15)
C4 C 0.2619(14) -0.2267(25) 1.5417(13)
C5 C 0.3348(11) -0.1613(22) 1.4485(11)
C6 C 0.4696(15) -0.2445(23) 1.4583(13)
C7 C 0.4962(14) -0.2300(25) 1.3277(15)
C8 C 0.3678(11) -0.1694(22) 1.2431(12)
C9 C 0.3694(11) 0.0257(31) 1.2152(10)
C10 C 0.4440(13) 0.0791(25) 1.1178(12)
C11 C 0.3818(12) 0.0222(35) 0.9938(11)
C12 C 0.1689(11) 0.0055(34) 1.0493(11)
C13 C 0.2234(13) 0.0657(22) 1.1750(11)
C14 C 0.1643(11) -0.0410(21) 1.2728(13)
C15 C 0.2637(12) -0.1953(22) 1.3135(11)
C16 C 0.1302(22) -0.4714(44) 1.6125(15)
C17 C 0.1887(18) 0.0298(40) 0.8348(15)
H1 H 0.2591 -0.6181 1.2823
H2 H 0.2420 0.1946 0.9650
H3 H 0.1432 -0.3806 1.2156
H4 H 0.0850 -0.5409 1.3779
H5 H 0.0490 -0.3414 1.3834
H6 H 0.2775 -0.4910 1.5235
H7 H 0.3195 -0.2264 1.6204
H8 H 0.1928 -0.1455 1.5448
H9 H 0.3474 -0.0358 1.4595
H10 H 0.4680 -0.3664 1.4825
H11 H 0.5339 -0.1827 1.5169
H12 H 0.3497 -0.2389 1.1698
H13 H 0.4041 0.0873 1.2898
H14 H 0.5294 0.0296 1.1390
H15 H 0.4524 0.2059 1.1192
H16 H 0.4287 0.0721 0.9375
H17 H 0.3868 -0.1046 0.9884
H18 H 0.1746 -0.1215 1.0489
H19 H 0.0792 0.0374 1.0256
H20 H 0.2083 0.1906 1.1806
H21 H 0.0804 -0.0881 1.2375
H22 H 0.1572 0.0339 1.3402
H23 H 0.1816 -0.4644 1.6939
H24 H 0.0558 -0.3961 1.6057
H25 H 0.1025 -0.5916 1.5949
H26 H 0.2403 0.0828 0.7837
H27 H 0.1879 -0.0966 0.8246
H28 H 0.1019 0.0744 0.8125
loop_
_geom_bond_atom_site_label_1
_geom_bond_atom_site_label_2
_geom_bond_site_symmetry_1
_geom_bond_site_symmetry_2
O1 C1 1_555 1_555
O2 C7 1_555 1_555
N1 C11 1_555 1_555
C1 C2 1_555 1_555
C2 C3 1_555 1_555
C3 C4 1_555 1_555
C4 C5 1_555 1_555
C5 C6 1_555 1_555
C6 C7 1_555 1_555
C7 C8 1_555 1_555
C8 C9 1_555 1_555
C9 C10 1_555 1_555
C10 C11 1_555 1_555
C11 H16 1_555 1_555
C12 N1 1_555 1_555
C13 C9 1_555 1_555
C14 C13 1_555 1_555
C15 C1 1_555 1_555
C16 C3 1_555 1_555
C17 N1 1_555 1_555
H1 O1 1_555 1_555
H2 N1 1_555 1_555
H3 C1 1_555 1_555
H4 C2 1_555 1_555
H5 C2 1_555 1_555
H6 C3 1_555 1_555
H7 C4 1_555 1_555
H8 C4 1_555 1_555
H9 C5 1_555 1_555
H10 C6 1_555 1_555
H11 C6 1_555 1_555
H12 C8 1_555 1_555
H13 C9 1_555 1_555
H14 C10 1_555 1_555
H15 C10 1_555 1_555
H17 C11 1_555 1_555
H18 C12 1_555 1_555
H19 C12 1_555 1_555
H20 C13 1_555 1_555
H21 C14 1_555 1_555
H22 C14 1_555 1_555
H23 C16 1_555 1_555
H24 C16 1_555 1_555
H25 C16 1_555 1_555
H26 C17 1_555 1_555
H27 C17 1_555 1_555
H28 C17 1_555 1_555
C5 C15 1_555 1_555
C8 C15 1_555 1_555
C12 C13 1_555 1_555
C14 C15 1_555 1_555

#END
