
#######################################################################
#
#                 Cambridge Crystallographic Data Centre
#                                CCDC 
#
#######################################################################
#
# If this CIF has been generated from an entry in the Cambridge 
# Structural Database, then it will include bibliographic, chemical, 
# crystal, experimental, refinement or atomic coordinate data resulting 
# from the CCDC's data processing and validation procedures.
#
#######################################################################

data_PANJUK
_chemical_formula_moiety         'C11 H10 N4 O3'
_chemical_name_systematic        
1-(3-Nitrophenyl)-3-(1H-1,2,4-triazol-1-yl)propan-1-one
_symmetry_cell_setting           orthorhombic
_symmetry_space_group_name_H-M   'P c a 21'
_symmetry_Int_Tables_number      29
_space_group_name_Hall           'P 2c -2ac'
loop_
_symmetry_equiv_pos_site_id
_symmetry_equiv_pos_as_xyz
1 x,y,z
2 -x,-y,1/2+z
3 1/2+x,-y,z
4 1/2-x,y,1/2+z
_cell_length_a                   26.334(8)
_cell_length_b                   4.5962(13)
_cell_length_c                   9.570(3)
_cell_angle_alpha                90
_cell_angle_beta                 90
_cell_angle_gamma                90
_cell_volume                     1158.32
_exptl_crystal_colour            colorless
_exptl_crystal_description       column
_cell_formula_units_Z            4
_exptl_crystal_recrystallization_method 'ethyl acetate/petroleum ether'
loop_
_atom_site_label
_atom_site_type_symbol
_atom_site_fract_x
_atom_site_fract_y
_atom_site_fract_z
O1 O 0.16810(9) -0.0697(10) 0.1654(4)
O2 O 0.14445(9) 0.2662(7) 0.3039(3)
O3 O 0.34668(8) -0.2138(5) 0.0558(3)
N1 N 0.49112(7) 0.1405(5) -0.0004(3)
N2 N 0.55200(11) 0.3987(8) -0.0894(4)
N3 N 0.52309(10) 0.1932(8) 0.1071(3)
N4 N 0.17699(9) 0.1252(7) 0.2458(3)
C1 C 0.26751(9) 0.0620(6) 0.1962(3)
H1 H 0.2587 -0.0751 0.1289
C2 C 0.23060(9) 0.1958(6) 0.2745(3)
C3 C 0.24159(11) 0.3947(6) 0.3773(3)
H2 H 0.2159 0.4834 0.4285
C4 C 0.29223(11) 0.4592(7) 0.4023(4)
H3 H 0.3008 0.5877 0.4736
C5 C 0.32982(10) 0.3346(6) 0.3225(3)
H4 H 0.3635 0.3854 0.3382
C6 C 0.31812(9) 0.1334(6) 0.2185(3)
C7 C 0.35737(9) -0.0023(6) 0.1263(3)
C8 C 0.40862(9) 0.1342(6) 0.1182(3)
H5 H 0.4233 0.1393 0.2111
H6 H 0.4050 0.3335 0.0864
C9 C 0.44446(10) -0.0241(6) 0.0214(3)
H7 H 0.4527 -0.2127 0.0609
H8 H 0.4279 -0.0559 -0.0678
C10 C 0.55876(12) 0.3483(9) 0.0459(4)
H9 H 0.5869 0.4181 0.0943
C11 C 0.50887(13) 0.2660(9) -0.1132(4)
H10 H 0.4928 0.2614 -0.1997
loop_
_geom_bond_atom_site_label_1
_geom_bond_atom_site_label_2
_geom_bond_site_symmetry_1
_geom_bond_site_symmetry_2
O1 N4 1_555 1_555
O2 N4 1_555 1_555
O3 C7 1_555 1_555
N1 N3 1_555 1_555
N2 C10 1_555 1_555
N3 C10 1_555 1_555
N4 C2 1_555 1_555
C1 H1 1_555 1_555
C2 C1 1_555 1_555
C3 C2 1_555 1_555
H2 C3 1_555 1_555
C4 C3 1_555 1_555
H3 C4 1_555 1_555
C5 C4 1_555 1_555
H4 C5 1_555 1_555
C6 C1 1_555 1_555
C7 C6 1_555 1_555
C8 C7 1_555 1_555
H5 C8 1_555 1_555
H6 C8 1_555 1_555
C9 N1 1_555 1_555
H7 C9 1_555 1_555
H8 C9 1_555 1_555
C10 H9 1_555 1_555
C11 N1 1_555 1_555
H10 C11 1_555 1_555
N2 C11 1_555 1_555
C5 C6 1_555 1_555
C8 C9 1_555 1_555

#END
