
#######################################################################
#
#                 Cambridge Crystallographic Data Centre
#                                CCDC 
#
#######################################################################
#
# If this CIF has been generated from an entry in the Cambridge 
# Structural Database, then it will include bibliographic, chemical, 
# crystal, experimental, refinement or atomic coordinate data resulting 
# from the CCDC's data processing and validation procedures.
#
#######################################################################

data_PANKUN
_chemical_formula_moiety         'C16 H11 Cl1 N2 O1'
_chemical_name_systematic        N-(5-chloroquinolin-8-yl)benzamide
_symmetry_cell_setting           monoclinic
_symmetry_space_group_name_H-M   'C 2/c'
_symmetry_Int_Tables_number      15
_space_group_name_Hall           '-C 2yn'
loop_
_symmetry_equiv_pos_site_id
_symmetry_equiv_pos_as_xyz
1 x,y,z
2 -x,y,1/2-z
3 1/2+x,1/2+y,z
4 1/2-x,1/2+y,1/2-z
5 -x,-y,-z
6 x,-y,1/2+z
7 1/2-x,1/2-y,-z
8 1/2+x,1/2-y,1/2+z
_cell_length_a                   18.723(9)
_cell_length_b                   9.118(4)
_cell_length_c                   16.562(8)
_cell_angle_alpha                90
_cell_angle_beta                 106.845(7)
_cell_angle_gamma                90
_cell_volume                     2706.09
_exptl_crystal_description       Block
_cell_formula_units_Z            8
loop_
_atom_site_label
_atom_site_type_symbol
_atom_site_fract_x
_atom_site_fract_y
_atom_site_fract_z
Cl1 Cl 1.09924(3) 0.45237(6) 1.20382(3)
O1 O 0.84579(8) 0.92914(17) 0.95234(9)
N1 N 1.08302(7) 0.73806(15) 0.92783(8)
N2 N 0.95368(7) 0.86245(14) 0.92582(8)
H1 H 0.9801 0.8789 0.8921
C1 C 1.05472(8) 0.70159(16) 0.99286(9)
C2 C 1.14631(9) 0.6754(2) 0.92689(12)
H2 H 1.1659 0.6992 0.8830
C3 C 1.18595(9) 0.5754(2) 0.98764(13)
H3 H 1.2304 0.5347 0.9837
C4 C 1.15847(9) 0.5385(2) 1.05260(12)
H4 H 1.1841 0.4723 1.0935
C5 C 1.09056(8) 0.60161(16) 1.05753(9)
C6 C 1.05665(10) 0.57292(17) 1.12225(10)
C7 C 0.99103(10) 0.63812(19) 1.12236(10)
H5 H 0.9699 0.6179 1.1655
C8 C 0.95521(9) 0.73566(18) 1.05749(10)
H6 H 0.9103 0.7787 1.0580
C9 C 0.98550(8) 0.76847(15) 0.99324(9)
C10 C 0.88640(8) 0.93149(17) 0.90636(10)
C11 C 0.86470(8) 1.01197(16) 0.82406(10)
C12 C 0.88842(9) 0.97157(18) 0.75445(11)
H7 H 0.9207 0.8925 0.7587
C13 C 0.86425(11) 1.0485(2) 0.67904(12)
H8 H 0.8794 1.0195 0.6328
C14 C 0.81789(10) 1.1675(2) 0.67273(12)
H9 H 0.8030 1.2208 0.6228
C15 C 0.79344(9) 1.2080(2) 0.74082(13)
H10 H 0.7618 1.2882 0.7363
C16 C 0.81572(8) 1.12991(18) 0.81547(11)
H11 H 0.7979 1.1563 0.8603
loop_
_geom_bond_atom_site_label_1
_geom_bond_atom_site_label_2
_geom_bond_site_symmetry_1
_geom_bond_site_symmetry_2
Cl1 C6 1_555 1_555
O1 C10 1_555 1_555
N1 C1 1_555 1_555
N2 H1 1_555 1_555
C1 C5 1_555 1_555
C2 N1 1_555 1_555
H2 C2 1_555 1_555
C3 C2 1_555 1_555
H3 C3 1_555 1_555
C4 C3 1_555 1_555
H4 C4 1_555 1_555
C5 C4 1_555 1_555
C6 C5 1_555 1_555
C7 C6 1_555 1_555
H5 C7 1_555 1_555
C8 C7 1_555 1_555
H6 C8 1_555 1_555
C9 N2 1_555 1_555
C10 N2 1_555 1_555
C11 C10 1_555 1_555
C12 C11 1_555 1_555
H7 C12 1_555 1_555
C13 C12 1_555 1_555
H8 C13 1_555 1_555
C14 C13 1_555 1_555
H9 C14 1_555 1_555
C15 C14 1_555 1_555
H10 C15 1_555 1_555
C16 C11 1_555 1_555
H11 C16 1_555 1_555
C1 C9 1_555 1_555
C8 C9 1_555 1_555
C15 C16 1_555 1_555

#END
