
#######################################################################
#
#                 Cambridge Crystallographic Data Centre
#                                CCDC 
#
#######################################################################
#
# If this CIF has been generated from an entry in the Cambridge 
# Structural Database, then it will include bibliographic, chemical, 
# crystal, experimental, refinement or atomic coordinate data resulting 
# from the CCDC's data processing and validation procedures.
#
#######################################################################

data_PANLUO
_chemical_formula_moiety         'C20 H20 O10,H2 O1'
_chemical_name_systematic        
'(3,4,5-trihydroxy-6-((4-oxo-4H-pyran-3-yl)oxy)tetrahydro-2H-pyran-2-yl)methyl 3-(4-hydroxyphenyl)acrylate monohydrate'
_symmetry_cell_setting           monoclinic
_symmetry_space_group_name_H-M   'P 21'
_symmetry_Int_Tables_number      4
_space_group_name_Hall           'P 2yb'
loop_
_symmetry_equiv_pos_site_id
_symmetry_equiv_pos_as_xyz
1 x,y,z
2 -x,1/2+y,-z
_cell_length_a                   15.5033(7)
_cell_length_b                   6.8121(3)
_cell_length_c                   19.6663(9)
_cell_angle_alpha                90
_cell_angle_beta                 111.691(2)
_cell_angle_gamma                90
_cell_volume                     1929.89
_exptl_crystal_colour            colorless
_exptl_crystal_description       block
_cell_formula_units_Z            4
loop_
_atom_site_label
_atom_site_type_symbol
_atom_site_fract_x
_atom_site_fract_y
_atom_site_fract_z
O1 O 1.36134(19) 1.0014(5) 0.88556(15)
C1 C 1.1256(3) 1.0412(7) 0.7659(2)
H1 H 1.0898 1.0519 0.7150
O2 O 1.08016(19) 1.0365(5) 0.81281(14)
C2 C 1.2170(3) 1.0319(7) 0.7867(2)
H2 H 1.2445 1.0371 0.7508
O3 O 1.27227(18) 1.0041(4) 0.98667(13)
C3 C 1.2758(3) 1.0138(6) 0.8631(2)
O4 O 1.24859(18) 0.7035(4) 1.02647(13)
C4 C 1.2249(3) 1.0111(6) 0.91140(19)
O5 O 1.46681(19) 0.9759(5) 1.07126(16)
H3 H 1.4495 1.0928 1.0713
C5 C 1.1325(3) 1.0189(7) 0.8860(2)
H4 H 1.1018 1.0121 0.9197
O6 O 1.52099(19) 0.6535(5) 1.16863(14)
H5 H 1.5662 0.6006 1.1620
C6 C 1.3155(3) 0.8202(6) 1.0110(2)
H6 H 1.3336 0.7571 0.9723
O7 O 1.4048(2) 0.3112(4) 1.12646(14)
H7 H 1.4350 0.2953 1.1714
C7 C 1.4001(3) 0.8479(7) 1.0812(2)
H8 H 1.3800 0.9010 1.1204
O8 O 1.12174(18) 0.3890(5) 1.00120(14)
C8 C 1.4412(3) 0.6440(6) 1.1027(2)
H9 H 1.4600 0.5911 1.0628
O9 O 1.0428(2) 0.3488(5) 1.07603(15)
C9 C 1.3708(3) 0.5069(6) 1.11361(19)
H10 H 1.3574 0.5524 1.1571
O10 O 0.6543(2) 0.3897(6) 0.61371(15)
H11 H 0.6038 0.4023 0.6200
C10 C 1.2795(3) 0.5053(6) 1.04656(19)
H12 H 1.2884 0.4367 1.0047
C11 C 1.2058(3) 0.4049(7) 1.0658(2)
H13 H 1.2273 0.2724 1.0855
H14 H 1.1931 0.4809 1.1040
C12 C 1.0433(3) 0.3620(7) 1.0148(2)
C13 C 0.9594(3) 0.3519(7) 0.9487(2)
H15 H 0.9018 0.3342 0.9547
C14 C 0.9580(3) 0.3659(7) 0.8810(2)
H16 H 1.0165 0.3786 0.8763
C15 C 0.8765(3) 0.3639(7) 0.8126(2)
C16 C 0.7858(3) 0.3723(7) 0.8111(2)
H17 H 0.7757 0.3752 0.8559
C17 C 0.7104(3) 0.3765(7) 0.7457(2)
H18 H 0.6490 0.3776 0.7454
C18 C 0.7256(3) 0.3792(7) 0.6801(2)
C19 C 0.8145(3) 0.3685(7) 0.6797(2)
H19 H 0.8245 0.3671 0.6348
C20 C 0.8886(3) 0.3599(7) 0.7458(2)
H20 H 0.9497 0.3510 0.7458
O11 O 0.3834(2) 0.3839(5) 0.35784(17)
O12 O 0.10184(19) 0.3777(5) 0.29968(15)
O13 O 0.30406(18) 0.4701(4) 0.46208(13)
O14 O 0.24361(18) 0.2614(5) 0.52324(14)
O15 O 0.47776(18) 0.4570(5) 0.57630(15)
H21 H 0.4689 0.5706 0.5584
O16 O 0.4758(2) 0.3189(5) 0.70832(14)
H22 H 0.4838 0.2397 0.7429
O17 O 0.3502(2) -0.0397(5) 0.68822(14)
H23 H 0.411(3) -0.097(5) 0.692(2)
O18 O 0.09268(19) 0.0420(5) 0.51015(14)
O19 O -0.0034(2) 0.0450(5) 0.57208(17)
O20 O -0.34477(19) -0.0147(5) 0.10080(15)
H24 H -0.3968 -0.0308 0.1041
C21 C 0.1415(3) 0.3555(7) 0.2493(2)
H25 H 0.1021 0.3376 0.1995
C22 C 0.2323(3) 0.3574(7) 0.2659(2)
H26 H 0.2555 0.3386 0.2279
C23 C 0.2972(3) 0.3871(7) 0.3396(2)
C24 C 0.2515(3) 0.4175(6) 0.3905(2)
C25 C 0.1590(3) 0.4106(7) 0.3698(2)
H27 H 0.1324 0.4296 0.4057
C26 C 0.3261(3) 0.3125(6) 0.5122(2)
H28 H 0.3516 0.1982 0.4938
C27 C 0.3954(3) 0.3883(7) 0.58396(19)
H29 H 0.3665 0.4993 0.6012
C28 C 0.4207(3) 0.2284(7) 0.64084(19)
H30 H 0.4582 0.1259 0.6280
C29 C 0.3329(3) 0.1347(6) 0.6445(2)
H31 H 0.3057 0.2326 0.6689
C30 C 0.2575(3) 0.0919(6) 0.5691(2)
H32 H 0.2745 -0.0249 0.5459
C31 C 0.1676(3) 0.0579(7) 0.5802(2)
H33 H 0.1718 -0.0642 0.6085
H34 H 0.1555 0.1684 0.6082
C32 C 0.0072(3) 0.0446(7) 0.5141(2)
C33 C -0.0700(3) 0.0462(7) 0.4433(2)
H35 H -0.1308 0.0322 0.4436
C34 C -0.0621(3) 0.0656(7) 0.3785(2)
H36 H -0.0012 0.0837 0.3787
C35 C -0.1383(3) 0.0617(7) 0.3067(2)
C36 C -0.2316(3) 0.0554(7) 0.2980(2)
H37 H -0.2475 0.0660 0.3401
C37 C -0.3014(3) 0.0344(7) 0.2307(2)
H38 H -0.3643 0.0322 0.2267
C38 C -0.2796(3) 0.0165(7) 0.1684(2)
C39 C -0.1881(3) 0.0347(7) 0.1744(2)
H39 H -0.1728 0.0316 0.1319
C40 C -0.1195(3) 0.0573(7) 0.2425(2)
H40 H -0.0570 0.0704 0.2460
O21 O 0.4448(2) 0.8280(5) 0.53924(16)
O22 O 0.4844(2) 0.2368(5) 0.27680(14)
loop_
_geom_bond_atom_site_label_1
_geom_bond_atom_site_label_2
_geom_bond_site_symmetry_1
_geom_bond_site_symmetry_2
O1 C3 1_555 1_555
C1 H1 1_555 1_555
O2 C1 1_555 1_555
C2 C1 1_555 1_555
H2 C2 1_555 1_555
O3 C4 1_555 1_555
C3 C2 1_555 1_555
O4 C6 1_555 1_555
C4 C3 1_555 1_555
O5 H3 1_555 1_555
C5 O2 1_555 1_555
H4 C5 1_555 1_555
O6 H5 1_555 1_555
C6 O3 1_555 1_555
H6 C6 1_555 1_555
O7 H7 1_555 1_555
C7 O5 1_555 1_555
H8 C7 1_555 1_555
O8 C11 1_555 1_555
C8 O6 1_555 1_555
H9 C8 1_555 1_555
O9 C12 1_555 1_555
C9 O7 1_555 1_555
H10 C9 1_555 1_555
O10 H11 1_555 1_555
C10 O4 1_555 1_555
H12 C10 1_555 1_555
C11 C10 1_555 1_555
H13 C11 1_555 1_555
H14 C11 1_555 1_555
C12 O8 1_555 1_555
C13 C12 1_555 1_555
H15 C13 1_555 1_555
C14 C13 1_555 1_555
H16 C14 1_555 1_555
C15 C14 1_555 1_555
C16 C15 1_555 1_555
H17 C16 1_555 1_555
C17 C16 1_555 1_555
H18 C17 1_555 1_555
C18 O10 1_555 1_555
C19 C18 1_555 1_555
H19 C19 1_555 1_555
C20 C15 1_555 1_555
H20 C20 1_555 1_555
O11 C23 1_555 1_555
O12 C21 1_555 1_555
O13 C24 1_555 1_555
O14 C26 1_555 1_555
O15 H21 1_555 1_555
O16 H22 1_555 1_555
O17 H23 1_555 1_555
O18 C31 1_555 1_555
O19 C32 1_555 1_555
O20 H24 1_555 1_555
C21 H25 1_555 1_555
C22 C21 1_555 1_555
H26 C22 1_555 1_555
C23 C22 1_555 1_555
C24 C23 1_555 1_555
C25 O12 1_555 1_555
H27 C25 1_555 1_555
C26 O13 1_555 1_555
H28 C26 1_555 1_555
C27 O15 1_555 1_555
H29 C27 1_555 1_555
C28 O16 1_555 1_555
H30 C28 1_555 1_555
C29 O17 1_555 1_555
H31 C29 1_555 1_555
C30 O14 1_555 1_555
H32 C30 1_555 1_555
C31 C30 1_555 1_555
H33 C31 1_555 1_555
H34 C31 1_555 1_555
C32 O18 1_555 1_555
C33 C32 1_555 1_555
H35 C33 1_555 1_555
C34 C33 1_555 1_555
H36 C34 1_555 1_555
C35 C34 1_555 1_555
C36 C35 1_555 1_555
H37 C36 1_555 1_555
C37 C36 1_555 1_555
H38 C37 1_555 1_555
C38 O20 1_555 1_555
C39 C38 1_555 1_555
H39 C39 1_555 1_555
C40 C35 1_555 1_555
H40 C40 1_555 1_555
C4 C5 1_555 1_555
C6 C7 1_555 1_555
C7 C8 1_555 1_555
C8 C9 1_555 1_555
C9 C10 1_555 1_555
C17 C18 1_555 1_555
C19 C20 1_555 1_555
C24 C25 1_555 1_555
C26 C27 1_555 1_555
C27 C28 1_555 1_555
C28 C29 1_555 1_555
C29 C30 1_555 1_555
C37 C38 1_555 1_555
C39 C40 1_555 1_555

#END
