
#######################################################################
#
#                 Cambridge Crystallographic Data Centre
#                                CCDC 
#
#######################################################################
#
# If this CIF has been generated from an entry in the Cambridge 
# Structural Database, then it will include bibliographic, chemical, 
# crystal, experimental, refinement or atomic coordinate data resulting 
# from the CCDC's data processing and validation procedures.
#
#######################################################################

data_PANNUQ
_chemical_compound_source        'air-dried roots of Trigonostemon reidioides'
_chemical_name_common            'Trigonoreidon B'
_chemical_formula_moiety         'C19 H20 O3'
_chemical_name_systematic        
7-methoxy-1,1,8-trimethyl-11,11a-dihydro-1H-dibenzo[a,d][7]annulene-4,10-dione
_symmetry_cell_setting           monoclinic
_symmetry_space_group_name_H-M   'C 2'
_symmetry_Int_Tables_number      5
_space_group_name_Hall           'C 2y'
loop_
_symmetry_equiv_pos_site_id
_symmetry_equiv_pos_as_xyz
1 x,y,z
2 -x,y,-z
3 1/2+x,1/2+y,z
4 1/2-x,1/2+y,-z
_cell_length_a                   19.1750(13)
_cell_length_b                   5.8520(4)
_cell_length_c                   14.1470(8)
_cell_angle_alpha                90
_cell_angle_beta                 99.478(3)
_cell_angle_gamma                90
_cell_volume                     1565.79
_exptl_crystal_colour            colorless
_exptl_crystal_description       Prism
_chemical_melting_point          '445 K'
_cell_formula_units_Z            4
loop_
_atom_site_label
_atom_site_type_symbol
_atom_site_fract_x
_atom_site_fract_y
_atom_site_fract_z
O1 O -0.71056(8) 0.1565(3) -0.20276(10)
C1 C -0.83342(9) -0.3368(4) -0.23318(13)
C2 C -0.78366(10) -0.1777(4) -0.18944(14)
H1 H -0.76854(10) -0.1857(4) -0.12360(14)
C3 C -0.85302(10) -0.3262(4) -0.33293(13)
C4 C -0.85569(10) -0.5125(4) -0.17036(13)
H2 H -0.83234(10) -0.5008(4) -0.10750(13)
C5 C -0.90205(10) -0.6861(4) -0.18285(14)
C6 C -0.82290(11) -0.1598(4) -0.38391(14)
H3 H -0.83556(11) -0.1571(4) -0.45024(14)
C7 C -0.75642(10) -0.0091(4) -0.24150(13)
O2 O -0.85640(10) -0.8212(3) -0.02508(12)
C8 C -0.89979(12) -0.8438(4) -0.09874(15)
C9 C -0.96766(11) -0.5493(4) -0.34158(16)
H4 H -1.00648(11) -0.5904(4) -0.39168(16)
H5 H -0.98277(11) -0.4195(4) -0.30739(16)
O3 O -0.90144(9) -0.5365(4) -0.46850(11)
C10 C -0.77532(10) 0.0011(4) -0.34136(14)
C11 C -0.95265(11) -0.7496(4) -0.27212(15)
H6 H -0.92954(11) -0.8682(4) -0.30485(15)
C12 C -0.95095(12) -1.0285(5) -0.10718(17)
H7 H -0.94416(12) -1.1476(5) -0.06308(17)
C13 C -0.90593(11) -0.4784(4) -0.38718(14)
C14 C -0.74397(13) 0.1748(5) -0.39850(17)
H8 H -0.7471(7) 0.3230(6) -0.3704(6)
H9 H -0.6952(3) 0.1382(15) -0.3991(9)
H10 H -0.7693(5) 0.1756(19) -0.4630(3)
C15 C -0.69266(13) 0.1689(5) -0.10169(16)
H11 H -0.6651(8) 0.3038(17) -0.08425(17)
H12 H -0.73508(13) 0.175(3) -0.07397(18)
H13 H -0.6657(8) 0.0364(16) -0.0783(2)
C16 C -1.02319(11) -0.8526(4) -0.25095(19)
C17 C -1.06503(17) -0.9608(6) -0.3409(3)
H14 H -1.1034(7) -1.049(3) -0.3239(3)
H15 H -1.0835(10) -0.8428(6) -0.3852(7)
H16 H -1.0345(3) -1.059(3) -0.3701(9)
C18 C -1.00677(13) -1.0326(5) -0.1754(2)
H17 H -1.03787(13) -1.1550(5) -0.1767(2)
C19 C -1.06923(15) -0.6726(6) -0.2114(3)
H18 H -1.1084(7) -0.7467(7) -0.1896(15)
H19 H -1.0414(4) -0.593(3) -0.1588(10)
H20 H -1.0867(10) -0.565(2) -0.2610(5)
loop_
_geom_bond_atom_site_label_1
_geom_bond_atom_site_label_2
_geom_bond_site_symmetry_1
_geom_bond_site_symmetry_2
O1 C7 1_555 1_555
C1 C2 1_555 1_555
C2 H1 1_555 1_555
C3 C1 1_555 1_555
C4 C1 1_555 1_555
H2 C4 1_555 1_555
C5 C4 1_555 1_555
C6 C3 1_555 1_555
H3 C6 1_555 1_555
C7 C2 1_555 1_555
O2 C8 1_555 1_555
C8 C5 1_555 1_555
C9 H4 1_555 1_555
H5 C9 1_555 1_555
O3 C13 1_555 1_555
C10 C6 1_555 1_555
C11 C5 1_555 1_555
H6 C11 1_555 1_555
C12 C8 1_555 1_555
H7 C12 1_555 1_555
C13 C3 1_555 1_555
C14 C10 1_555 1_555
H8 C14 1_555 1_555
H9 C14 1_555 1_555
H10 C14 1_555 1_555
C15 O1 1_555 1_555
H11 C15 1_555 1_555
H12 C15 1_555 1_555
H13 C15 1_555 1_555
C16 C11 1_555 1_555
C17 C16 1_555 1_555
H14 C17 1_555 1_555
H15 C17 1_555 1_555
H16 C17 1_555 1_555
C18 C12 1_555 1_555
H17 C18 1_555 1_555
C19 C16 1_555 1_555
H18 C19 1_555 1_555
H19 C19 1_555 1_555
H20 C19 1_555 1_555
C7 C10 1_555 1_555
C9 C11 1_555 1_555
C9 C13 1_555 1_555
C16 C18 1_555 1_555

#END
