
#######################################################################
#
#                 Cambridge Crystallographic Data Centre
#                                CCDC 
#
#######################################################################
#
# If this CIF has been generated from an entry in the Cambridge 
# Structural Database, then it will include bibliographic, chemical, 
# crystal, experimental, refinement or atomic coordinate data resulting 
# from the CCDC's data processing and validation procedures.
#
#######################################################################

data_PANPZA
_chemical_formula_moiety         'C42 H37 N7 P4,C1 H2 Cl2'
_chemical_name_systematic        
'N,N-bis(1,3-Diphenyl-4-anilino-cyclodiphosphazane-2-yl)-aniline dichloromethane solvate'
_symmetry_cell_setting           monoclinic
_symmetry_space_group_name_H-M   'P 21/c'
_symmetry_Int_Tables_number      14
_space_group_name_Hall           '-P 2ybc'
loop_
_symmetry_equiv_pos_site_id
_symmetry_equiv_pos_as_xyz
1 x,y,z
2 -x,1/2+y,1/2-z
3 -x,-y,-z
4 x,1/2-y,1/2+z
_cell_length_a                   15.414(5)
_cell_length_b                   18.668(8)
_cell_length_c                   15.389(6)
_cell_angle_alpha                90
_cell_angle_beta                 103.63(3)
_cell_angle_gamma                90
_cell_volume                     4303.46
_chemical_melting_point          249-252deg.C
_cell_formula_units_Z            4
loop_
_atom_site_label
_atom_site_type_symbol
_atom_site_fract_x
_atom_site_fract_y
_atom_site_fract_z
P1 P 0.09317 0.20773 0.00493
P2 P 0.06400 0.07186 -0.04012
P3 P 0.13697 -0.06062 -0.08995
P4 P 0.27373 -0.12567 -0.13088
N1 N 0.19520 0.23710 -0.00090
N2 N 0.05930 0.15490 -0.08860
N3 N 0.11400 0.12330 0.05010
N4 N 0.14920 0.02940 -0.07410
N5 N 0.17850 -0.07830 -0.18240
N6 N 0.24000 -0.09600 -0.03850
N7 N 0.35690 -0.06910 -0.13870
C1 C 0.23180 0.30330 0.03630
C2 C 0.32260 0.31520 0.04500
C3 C 0.36060 0.38010 0.07860
C4 C 0.30780 0.43320 0.10360
C5 C 0.21710 0.42120 0.09490
C6 C 0.17910 0.35630 0.06130
C7 C 0.01070 0.17430 -0.17609
C8 C -0.03080 0.12167 -0.23560
C9 C -0.07560 0.14038 -0.32210
C10 C -0.07890 0.21170 -0.34910
C11 C -0.03740 0.26427 -0.28950
C12 C 0.00740 0.24556 -0.20300
C13 C 0.14730 0.10460 0.14120
C14 C 0.16360 0.03326 0.16610
C15 C 0.19850 0.01567 0.25540
C16 C 0.21700 0.06940 0.31990
C17 C 0.20060 0.14070 0.29500
C18 C 0.16580 0.15827 0.20570
C19 C 0.22760 0.06730 -0.08490
C20 C 0.30220 0.07260 -0.01370
C21 C 0.37650 0.11130 -0.02350
C22 C 0.37620 0.14460 -0.10440
C23 C 0.30160 0.13930 -0.17560
C24 C 0.22730 0.10060 -0.16580
C25 C 0.13430 -0.08130 -0.27285
C26 C 0.04640 -0.05780 -0.30080
C27 C 0.00280 -0.06130 -0.39090
C28 C 0.04700 -0.08810 -0.45295
C29 C 0.13490 -0.11150 -0.42500
C30 C 0.17850 -0.10810 -0.33490
C31 C 0.26520 -0.12510 0.04800
C32 C 0.35410 -0.11930 0.09420
C33 C 0.38130 -0.14620 0.18080
C34 C 0.31960 -0.17880 0.22110
C35 C 0.23070 -0.18450 0.17480
C36 C 0.20350 -0.15760 0.08830
C37 C 0.42920 -0.08890 -0.17490
C38 C 0.47920 -0.03330 -0.19860
C39 C 0.55270 -0.04850 -0.23340
C40 C 0.57630 -0.11930 -0.24450
C41 C 0.52620 -0.17490 -0.22080
C42 C 0.45270 -0.15970 -0.18600
loop_
_geom_bond_atom_site_label_1
_geom_bond_atom_site_label_2
_geom_bond_site_symmetry_1
_geom_bond_site_symmetry_2
P1 N1 1_555 1_555
P2 N2 1_555 1_555
P3 N4 1_555 1_555
P4 N5 1_555 1_555
N1 C1 1_555 1_555
N2 P1 1_555 1_555
N3 P1 1_555 1_555
N4 P2 1_555 1_555
N5 P3 1_555 1_555
N6 P3 1_555 1_555
N7 P4 1_555 1_555
C1 C2 1_555 1_555
C2 C3 1_555 1_555
C3 C4 1_555 1_555
C4 C5 1_555 1_555
C5 C6 1_555 1_555
C6 C1 1_555 1_555
C7 N2 1_555 1_555
C8 C7 1_555 1_555
C9 C8 1_555 1_555
C10 C9 1_555 1_555
C11 C10 1_555 1_555
C12 C7 1_555 1_555
C13 N3 1_555 1_555
C14 C13 1_555 1_555
C15 C14 1_555 1_555
C16 C15 1_555 1_555
C17 C16 1_555 1_555
C18 C13 1_555 1_555
C19 N4 1_555 1_555
C20 C19 1_555 1_555
C21 C20 1_555 1_555
C22 C21 1_555 1_555
C23 C22 1_555 1_555
C24 C19 1_555 1_555
C25 N5 1_555 1_555
C26 C25 1_555 1_555
C27 C26 1_555 1_555
C28 C27 1_555 1_555
C29 C28 1_555 1_555
C30 C25 1_555 1_555
C31 N6 1_555 1_555
C32 C31 1_555 1_555
C33 C32 1_555 1_555
C34 C33 1_555 1_555
C35 C34 1_555 1_555
C36 C31 1_555 1_555
C37 N7 1_555 1_555
C38 C37 1_555 1_555
C39 C38 1_555 1_555
C40 C39 1_555 1_555
C41 C40 1_555 1_555
C42 C37 1_555 1_555
P2 N3 1_555 1_555
P4 N6 1_555 1_555
C11 C12 1_555 1_555
C17 C18 1_555 1_555
C23 C24 1_555 1_555
C29 C30 1_555 1_555
C35 C36 1_555 1_555
C41 C42 1_555 1_555

#END
