
#######################################################################
#
#                 Cambridge Crystallographic Data Centre
#                                CCDC 
#
#######################################################################
#
# If this CIF has been generated from an entry in the Cambridge 
# Structural Database, then it will include bibliographic, chemical, 
# crystal, experimental, refinement or atomic coordinate data resulting 
# from the CCDC's data processing and validation procedures.
#
#######################################################################

data_PANPUQ
_chemical_formula_moiety         'C34 H28 N4 O10,2(C3 H7 N1 O1)'
_chemical_name_systematic        
"Diethyl 2,8-diamino-4,10-bis(3-nitrophenyl)naphtha(1,2-b;5,6-b')dipyran-3,9-dicarboxylate dimethylformamide solvate"
_symmetry_cell_setting           triclinic
_symmetry_space_group_name_H-M   'P -1'
_symmetry_Int_Tables_number      2
_space_group_name_Hall           '-P 1'
loop_
_symmetry_equiv_pos_site_id
_symmetry_equiv_pos_as_xyz
1 x,y,z
2 -x,-y,-z
_cell_length_a                   8.3550(10)
_cell_length_b                   9.7500(10)
_cell_length_c                   12.202(2)
_cell_angle_alpha                99.292(3)
_cell_angle_beta                 96.912(3)
_cell_angle_gamma                97.103(3)
_cell_volume                     963.376
_exptl_crystal_colour            yellow
_exptl_crystal_description       block
_chemical_melting_point          '559-561 K'
_cell_formula_units_Z            1
loop_
_atom_site_label
_atom_site_type_symbol
_atom_site_fract_x
_atom_site_fract_y
_atom_site_fract_z
O1 O 0.2720(2) 0.33760(19) 0.54942(16)
O2 O 0.7598(2) 0.5894(2) 0.75623(17)
O3 O 0.7614(2) 0.3615(2) 0.68959(18)
O4 O 0.6779(4) 0.9562(4) 1.0344(3)
O5 O 0.5458(5) 0.9030(5) 1.1671(3)
N1 N 0.4824(3) 0.2222(3) 0.5621(2)
N2 N 0.5741(5) 0.8809(5) 1.0713(3)
C1 C 0.4318(3) 0.3454(3) 0.5917(2)
C2 C 0.5197(3) 0.4645(3) 0.6550(2)
C3 C 0.4431(3) 0.5960(3) 0.6861(2)
H1 H 0.5147 0.6768 0.6720
C4 C 0.2783(3) 0.5847(3) 0.6150(2)
C5 C 0.2013(3) 0.4587(3) 0.5568(2)
C6 C 0.0395(3) 0.4396(3) 0.4986(2)
C7 C -0.0439(3) 0.3078(3) 0.4415(2)
H2 H 0.0065 0.2279 0.4419
C8 C 0.1972(3) 0.7031(3) 0.6139(2)
H3 H 0.2499 0.7905 0.6520
C9 C 0.6884(3) 0.4624(3) 0.6987(2)
C10 C 0.9266(3) 0.5975(4) 0.8062(3)
H4 H 0.9930 0.5657 0.7499
H5 H 0.9342 0.5400 0.8639
C11 C 0.9802(5) 0.7468(5) 0.8548(4)
H6 H 0.9642 0.8026 0.7975
H7 H 1.0937 0.7603 0.8851
H8 H 0.9177 0.7748 0.9135
C12 C 0.4220(3) 0.6202(3) 0.8102(2)
C13 C 0.3248(3) 0.5227(3) 0.8526(3)
H9 H 0.2717 0.4416 0.8047
C14 C 0.3042(4) 0.5424(5) 0.9638(3)
H10 H 0.2369 0.4755 0.9900
C15 C 0.3828(5) 0.6606(5) 1.0361(3)
H11 H 0.3690 0.6754 1.1114
C16 C 0.4813(4) 0.7552(4) 0.9948(3)
C17 C 0.5021(3) 0.7387(3) 0.8840(3)
H12 H 0.5694 0.8064 0.8585
H20 H 0.5800(18) 0.211(3) 0.586(2)
H21 H 0.420(4) 0.153(3) 0.519(2)
O1A O -0.2720(2) 0.66240(19) 0.45058(16)
O2A O -0.7598(2) 0.4106(2) 0.24377(17)
O3A O -0.7614(2) 0.6385(2) 0.31041(18)
O4A O -0.6779(4) 0.0438(4) -0.0344(3)
O5A O -0.5458(5) 0.0970(5) -0.1671(3)
N1A N -0.4824(3) 0.7778(3) 0.4379(2)
N2A N -0.5741(5) 0.1191(5) -0.0713(3)
C1A C -0.4318(3) 0.6546(3) 0.4083(2)
C2A C -0.5197(3) 0.5355(3) 0.3450(2)
C3A C -0.4431(3) 0.4040(3) 0.3139(2)
H1A H -0.5147 0.3232 0.3280
C4A C -0.2783(3) 0.4153(3) 0.3850(2)
C5A C -0.2013(3) 0.5413(3) 0.4432(2)
C6A C -0.0395(3) 0.5604(3) 0.5014(2)
C7A C 0.0439(3) 0.6922(3) 0.5585(2)
H2A H -0.0065 0.7721 0.5581
C8A C -0.1972(3) 0.2969(3) 0.3861(2)
H3A H -0.2499 0.2095 0.3480
C9A C -0.6884(3) 0.5376(3) 0.3013(2)
C10A C -0.9266(3) 0.4025(4) 0.1938(3)
H4A H -0.9930 0.4343 0.2501
H5A H -0.9342 0.4600 0.1361
C11A C -0.9802(5) 0.2532(5) 0.1452(4)
H6A H -0.9642 0.1974 0.2025
H7A H -1.0937 0.2397 0.1149
H8A H -0.9177 0.2252 0.0865
C12A C -0.4220(3) 0.3798(3) 0.1898(2)
C13A C -0.3248(3) 0.4773(3) 0.1474(3)
H9A H -0.2717 0.5584 0.1953
C14A C -0.3042(4) 0.4576(5) 0.0362(3)
H10A H -0.2369 0.5245 0.0100
C15A C -0.3828(5) 0.3394(5) -0.0361(3)
H11A H -0.3690 0.3246 -0.1114
C16A C -0.4813(4) 0.2448(4) 0.0052(3)
C17A C -0.5021(3) 0.2613(3) 0.1160(3)
H12A H -0.5694 0.1936 0.1415
H20A H -0.5800(18) 0.789(3) 0.414(2)
H21A H -0.420(4) 0.847(3) 0.481(2)
O6 O 0.2412(5) 0.0044(4) 0.4304(4)
N3 N 0.0765(4) -0.0776(3) 0.2691(3)
C18 C 0.2132(7) -0.0243(6) 0.3366(6)
H13 H 0.3028 -0.0074 0.2996
C19 C -0.0632(7) -0.1170(7) 0.3137(5)
H14 H -0.0836 -0.2175 0.3049
H15 H -0.1540 -0.0842 0.2751
H16 H -0.0489 -0.0765 0.3920
C20 C 0.0655(8) -0.1314(7) 0.1510(5)
H17 H 0.1631 -0.0960 0.1243
H18 H -0.0267 -0.1019 0.1112
H19 H 0.0527 -0.2322 0.1388
loop_
_geom_bond_atom_site_label_1
_geom_bond_atom_site_label_2
_geom_bond_site_symmetry_1
_geom_bond_site_symmetry_2
O1 C1 1_555 1_555
O2 C9 1_555 1_555
O3 C9 1_555 1_555
O4 N2 1_555 1_555
O5 N2 1_555 1_555
N1 C1 1_555 1_555
N2 C16 1_555 1_555
C1 C2 1_555 1_555
C2 C3 1_555 1_555
C3 H1 1_555 1_555
C4 C3 1_555 1_555
C5 O1 1_555 1_555
C6 C5 1_555 1_555
C7 C6 1_555 1_555
H2 C7 1_555 1_555
C8 C4 1_555 1_555
H3 C8 1_555 1_555
C9 C2 1_555 1_555
C10 O2 1_555 1_555
H4 C10 1_555 1_555
H5 C10 1_555 1_555
C11 C10 1_555 1_555
H6 C11 1_555 1_555
H7 C11 1_555 1_555
H8 C11 1_555 1_555
C12 C3 1_555 1_555
C13 C12 1_555 1_555
H9 C13 1_555 1_555
C14 C13 1_555 1_555
H10 C14 1_555 1_555
C15 C14 1_555 1_555
H11 C15 1_555 1_555
C16 C15 1_555 1_555
C17 C12 1_555 1_555
H12 C17 1_555 1_555
O6 C18 1_555 1_555
N3 C18 1_555 1_555
C18 H13 1_555 1_555
C19 N3 1_555 1_555
H14 C19 1_555 1_555
H15 C19 1_555 1_555
H16 C19 1_555 1_555
C20 N3 1_555 1_555
H17 C20 1_555 1_555
H18 C20 1_555 1_555
H19 C20 1_555 1_555
H20 N1 1_555 1_555
H21 N1 1_555 1_555
O1A C1A 1_555 1_555
O2A C9A 1_555 1_555
O3A C9A 1_555 1_555
O4A N2A 1_555 1_555
O5A N2A 1_555 1_555
N1A C1A 1_555 1_555
N2A C16A 1_555 1_555
C1A C2A 1_555 1_555
C2A C3A 1_555 1_555
C3A H1A 1_555 1_555
C4A C3A 1_555 1_555
C5A O1A 1_555 1_555
C6A C6 1_555 1_555
C7A C8 1_555 1_555
H2A C7A 1_555 1_555
C8A C7 1_555 1_555
H3A C8A 1_555 1_555
C9A C2A 1_555 1_555
C10A O2A 1_555 1_555
H4A C10A 1_555 1_555
H5A C10A 1_555 1_555
C11A C10A 1_555 1_555
H6A C11A 1_555 1_555
H7A C11A 1_555 1_555
H8A C11A 1_555 1_555
C12A C3A 1_555 1_555
C13A C12A 1_555 1_555
H9A C13A 1_555 1_555
C14A C13A 1_555 1_555
H10A C14A 1_555 1_555
C15A C14A 1_555 1_555
H11A C15A 1_555 1_555
C16A C15A 1_555 1_555
C17A C12A 1_555 1_555
H12A C17A 1_555 1_555
H20A N1A 1_555 1_555
H21A N1A 1_555 1_555
C4 C5 1_555 1_555
C16 C17 1_555 1_555
C4A C5A 1_555 1_555
C4A C8A 1_555 1_555
C5A C6A 1_555 1_555
C6A C7A 1_555 1_555
C16A C17A 1_555 1_555

#END
