
#######################################################################
#
#                 Cambridge Crystallographic Data Centre
#                                CCDC 
#
#######################################################################
#
# If this CIF has been generated from an entry in the Cambridge 
# Structural Database, then it will include bibliographic, chemical, 
# crystal, experimental, refinement or atomic coordinate data resulting 
# from the CCDC's data processing and validation procedures.
#
#######################################################################

data_PANRIG
_chemical_formula_moiety         'C16 H16 O4'
_chemical_name_systematic        
'(S)-3-(4-(Benzyloxy)phenyl)-2-hydroxypropanoic acid'
_symmetry_cell_setting           monoclinic
_symmetry_space_group_name_H-M   'P 21'
_symmetry_Int_Tables_number      4
_space_group_name_Hall           'P 2yb'
loop_
_symmetry_equiv_pos_site_id
_symmetry_equiv_pos_as_xyz
1 x,y,z
2 -x,1/2+y,-z
_cell_length_a                   8.532(4)
_cell_length_b                   5.782(2)
_cell_length_c                   14.050(6)
_cell_angle_alpha                90
_cell_angle_beta                 102.784(7)
_cell_angle_gamma                90
_cell_volume                     675.933
_exptl_crystal_colour            colorless
_exptl_crystal_description       chunk
_cell_formula_units_Z            2
loop_
_atom_site_label
_atom_site_type_symbol
_atom_site_fract_x
_atom_site_fract_y
_atom_site_fract_z
O1 O 1.2228(5) 1.0039(10) 0.5075(3)
O2 O 1.1636(4) 0.6401(6) 0.9529(3)
H1 H 1.2155 0.5198 0.9562
O3 O 1.3989(3) 0.8040(6) 0.9615(3)
O4 O 1.2780(4) 1.2256(6) 0.9607(3)
H2 H 1.3701 1.1791 0.9810
C1 C 1.3479(7) 1.1014(10) 0.3791(4)
C2 C 1.3012(7) 0.8932(11) 0.3355(5)
H3 H 1.2429 0.7897 0.3647
C3 C 1.3409(7) 0.8360(14) 0.2473(5)
H4 H 1.3074 0.6972 0.2159
C4 C 1.4317(7) 0.9922(12) 0.2082(4)
H5 H 1.4636 0.9593 0.1505
C5 C 1.4734(9) 1.1960(13) 0.2560(5)
H6 H 1.5338 1.2993 0.2282
C6 C 1.4343(10) 1.2614(15) 0.3411(5)
H7 H 1.4641 1.4033 0.3708
C7 C 1.3036(9) 1.1671(13) 0.4735(5)
H8 H 1.4011 1.2008 0.5218
H9 H 1.2393 1.3069 0.4633
C8 C 1.1809(6) 1.0272(11) 0.5939(4)
C9 C 1.0973(6) 0.8482(11) 0.6234(4)
H10 H 1.0715 0.7178 0.5843
C10 C 1.0524(6) 0.8631(9) 0.7108(4)
H11 H 0.9967 0.7410 0.7310
C11 C 1.0881(5) 1.0556(9) 0.7695(3)
C12 C 1.1686(6) 1.2319(10) 0.7373(4)
H12 H 1.1922 1.3642 0.7754
C13 C 1.2156(7) 1.2199(11) 0.6506(4)
H13 H 1.2709 1.3424 0.6304
C14 C 1.0367(5) 1.0708(9) 0.8647(3)
H14 H 0.9563 0.9528 0.8657
H15 H 0.9864 1.2200 0.8684
C15 C 1.1717(5) 1.0415(8) 0.9542(3)
H16 H 1.1246 1.0462 1.0117
C16 C 1.2593(5) 0.8154(8) 0.9557(3)
loop_
_geom_bond_atom_site_label_1
_geom_bond_atom_site_label_2
_geom_bond_site_symmetry_1
_geom_bond_site_symmetry_2
O1 C7 1_555 1_555
O2 H1 1_555 1_555
O3 C16 1_555 1_555
O4 H2 1_555 1_555
C1 C2 1_555 1_555
C2 H3 1_555 1_555
C3 C2 1_555 1_555
H4 C3 1_555 1_555
C4 C3 1_555 1_555
H5 C4 1_555 1_555
C5 C4 1_555 1_555
H6 C5 1_555 1_555
C6 C1 1_555 1_555
H7 C6 1_555 1_555
C7 C1 1_555 1_555
H8 C7 1_555 1_555
H9 C7 1_555 1_555
C8 O1 1_555 1_555
C9 C8 1_555 1_555
H10 C9 1_555 1_555
C10 C9 1_555 1_555
H11 C10 1_555 1_555
C11 C10 1_555 1_555
C12 C11 1_555 1_555
H12 C12 1_555 1_555
C13 C8 1_555 1_555
H13 C13 1_555 1_555
C14 C11 1_555 1_555
H14 C14 1_555 1_555
H15 C14 1_555 1_555
C15 O4 1_555 1_555
H16 C15 1_555 1_555
C16 O2 1_555 1_555
C5 C6 1_555 1_555
C12 C13 1_555 1_555
C14 C15 1_555 1_555
C15 C16 1_555 1_555

#END
