
#######################################################################
#
#                 Cambridge Crystallographic Data Centre
#                                CCDC 
#
#######################################################################
#
# If this CIF has been generated from an entry in the Cambridge 
# Structural Database, then it will include bibliographic, chemical, 
# crystal, experimental, refinement or atomic coordinate data resulting 
# from the CCDC's data processing and validation procedures.
#
#######################################################################

data_PAPJAU
_chemical_formula_moiety         'C24 H17 B1 F2 O3'
_chemical_name_systematic        
2,2-difluoro-4-((6-methoxynaphthalen-2-yl)ethynyl)-5,6-dihydro-2H-2\l^4^,3\l^3^-naphtho[1,2-d][1,3,2]dioxaborinine
_symmetry_cell_setting           monoclinic
_symmetry_space_group_name_H-M   'P 21/c'
_symmetry_Int_Tables_number      14
_space_group_name_Hall           '-P 2ybc'
loop_
_symmetry_equiv_pos_site_id
_symmetry_equiv_pos_as_xyz
1 x,y,z
2 -x,1/2+y,1/2-z
3 -x,-y,-z
4 x,1/2-y,1/2+z
_cell_length_a                   6.9275(3)
_cell_length_b                   21.1323(8)
_cell_length_c                   12.7437(5)
_cell_angle_alpha                90
_cell_angle_beta                 92.586(4)
_cell_angle_gamma                90
_cell_volume                     1863.7
_exptl_crystal_colour            orange
_exptl_crystal_description       plate
_cell_formula_units_Z            4
loop_
_atom_site_label
_atom_site_type_symbol
_atom_site_fract_x
_atom_site_fract_y
_atom_site_fract_z
B1 B 0.2490(3) 0.58696(9) 0.64776(15)
O1 O 0.25539(17) 0.62805(5) 0.55339(9)
O2 O 0.23824(17) 0.51915(5) 0.61903(9)
O3 O 0.23943(18) 0.00775(5) 0.48950(10)
F1 F 0.41482(15) 0.59685(5) 0.70870(8)
F2 F 0.08844(15) 0.60237(5) 0.70084(8)
C1 C 0.2551(2) 0.60588(7) 0.45895(13)
C2 C 0.2551(2) 0.54074(7) 0.43751(12)
C3 C 0.2654(3) 0.51940(8) 0.32525(13)
H1 H 0.2173 0.4754 0.3183
H2 H 0.4013 0.5202 0.3044
C4 C 0.1432(3) 0.56291(8) 0.25340(13)
H3 H 0.1646 0.5520 0.1793
H4 H 0.0047 0.5560 0.2659
C5 C 0.1922(2) 0.63152(7) 0.27180(13)
C6 C 0.1732(2) 0.67631(8) 0.19253(14)
H5 H 0.1335 0.6635 0.1234
C7 C 0.2115(3) 0.73950(8) 0.21317(15)
H6 H 0.1953 0.7698 0.1583
C8 C 0.2733(2) 0.75918(8) 0.31299(14)
H7 H 0.3029 0.8025 0.3258
C9 C 0.2917(2) 0.71583(7) 0.39340(14)
H8 H 0.3323 0.7292 0.4621
C10 C 0.2501(2) 0.65191(7) 0.37365(13)
C11 C 0.2467(2) 0.49963(7) 0.52127(13)
C12 C 0.2452(2) 0.43284(7) 0.50762(13)
C13 C 0.2457(2) 0.37673(7) 0.49355(13)
C14 C 0.2513(2) 0.31014(7) 0.47469(14)
C15 C 0.1956(2) 0.26813(7) 0.55047(13)
H9 H 0.1498 0.2837 0.6147
C16 C 0.2064(2) 0.20207(7) 0.53322(13)
C17 C 0.1471(2) 0.15804(8) 0.60855(14)
H10 H 0.0986 0.1727 0.6727
C18 C 0.1588(3) 0.09470(8) 0.59009(14)
H11 H 0.1167 0.0656 0.6410
C19 C 0.2330(2) 0.07197(7) 0.49583(13)
C20 C 0.2914(2) 0.11302(7) 0.42061(13)
H12 H 0.3407 0.0973 0.3573
C21 C 0.2780(2) 0.17948(7) 0.43778(13)
C22 C 0.3318(2) 0.22366(8) 0.36101(14)
H13 H 0.3780 0.2089 0.2964
C23 C 0.3185(2) 0.28727(8) 0.37841(14)
H14 H 0.3545 0.3163 0.3258
C24 C 0.3132(3) -0.01934(8) 0.39672(15)
H15 H 0.2328 -0.0060 0.3354
H16 H 0.3109 -0.0656 0.4022
H17 H 0.4463 -0.0050 0.3889
loop_
_geom_bond_atom_site_label_1
_geom_bond_atom_site_label_2
_geom_bond_site_symmetry_1
_geom_bond_site_symmetry_2
B1 O1 1_555 1_555
O1 C1 1_555 1_555
O2 B1 1_555 1_555
O3 C19 1_555 1_555
F1 B1 1_555 1_555
F2 B1 1_555 1_555
C1 C2 1_555 1_555
C2 C3 1_555 1_555
C3 H1 1_555 1_555
H2 C3 1_555 1_555
C4 C3 1_555 1_555
H3 C4 1_555 1_555
H4 C4 1_555 1_555
C5 C4 1_555 1_555
C6 C5 1_555 1_555
H5 C6 1_555 1_555
C7 C6 1_555 1_555
H6 C7 1_555 1_555
C8 C7 1_555 1_555
H7 C8 1_555 1_555
C9 C8 1_555 1_555
H8 C9 1_555 1_555
C10 C1 1_555 1_555
C11 O2 1_555 1_555
C12 C11 1_555 1_555
C13 C12 1_555 1_555
C14 C13 1_555 1_555
C15 C14 1_555 1_555
H9 C15 1_555 1_555
C16 C15 1_555 1_555
C17 C16 1_555 1_555
H10 C17 1_555 1_555
C18 C17 1_555 1_555
H11 C18 1_555 1_555
C19 C18 1_555 1_555
C20 C19 1_555 1_555
H12 C20 1_555 1_555
C21 C16 1_555 1_555
C22 C21 1_555 1_555
H13 C22 1_555 1_555
C23 C14 1_555 1_555
H14 C23 1_555 1_555
C24 O3 1_555 1_555
H15 C24 1_555 1_555
H16 C24 1_555 1_555
H17 C24 1_555 1_555
C2 C11 1_555 1_555
C5 C10 1_555 1_555
C9 C10 1_555 1_555
C20 C21 1_555 1_555
C22 C23 1_555 1_555

#END
