
#######################################################################
#
#                 Cambridge Crystallographic Data Centre
#                                CCDC 
#
#######################################################################
#
# If this CIF has been generated from an entry in the Cambridge 
# Structural Database, then it will include bibliographic, chemical, 
# crystal, experimental, refinement or atomic coordinate data resulting 
# from the CCDC's data processing and validation procedures.
#
#######################################################################

data_PAPJEY
_chemical_formula_moiety         'C28 H19 B1 F2 O3'
_chemical_name_systematic        
2,2-difluoro-8-methoxy-4-(phenanthren-9-ylethynyl)-5,6-dihydro-2H-2\l^4^,3\l^3^-naphtho[1,2-d][1,3,2]dioxaborinine
_symmetry_cell_setting           monoclinic
_symmetry_space_group_name_H-M   'P 21/c'
_symmetry_Int_Tables_number      14
_space_group_name_Hall           '-P 2ybc'
loop_
_symmetry_equiv_pos_site_id
_symmetry_equiv_pos_as_xyz
1 x,y,z
2 -x,1/2+y,1/2-z
3 -x,-y,-z
4 x,1/2-y,1/2+z
_cell_length_a                   11.6684(3)
_cell_length_b                   15.1963(4)
_cell_length_c                   12.2324(2)
_cell_angle_alpha                90
_cell_angle_beta                 91.415(2)
_cell_angle_gamma                90
_cell_volume                     2168.35
_exptl_crystal_colour            orange
_exptl_crystal_description       plate
_cell_formula_units_Z            4
loop_
_atom_site_label
_atom_site_type_symbol
_atom_site_fract_x
_atom_site_fract_y
_atom_site_fract_z
B1 B 0.56240(15) 0.26000(13) 0.00114(17)
O1 O 0.47266(9) 0.19043(7) 0.00427(9)
O2 O 0.67293(9) 0.22520(8) 0.04354(10)
O3 O 0.09835(11) -0.09347(10) 0.08567(12)
F1 F 0.52847(9) 0.32923(7) 0.06349(12)
F2 F 0.57552(10) 0.28345(9) -0.10525(10)
C1 C 0.47895(12) 0.12655(9) 0.07500(11)
C2 C 0.57878(12) 0.11185(10) 0.13938(12)
C3 C 0.57628(14) 0.04392(12) 0.22854(13)
H1 H 0.5497 0.0713 0.2949
H2 H 0.6536 0.0228 0.2430
C4 C 0.49984(14) -0.03348(11) 0.20040(13)
H3 H 0.5413 -0.0735 0.1539
H4 H 0.4826 -0.0647 0.2672
C5 C 0.38866(12) -0.00826(10) 0.14308(11)
C6 C 0.29452(15) -0.06426(11) 0.14608(13)
H5 H 0.2986 -0.1158 0.1869
C7 C 0.19441(13) -0.04310(12) 0.08801(14)
C8 C 0.18667(13) 0.03358(12) 0.02675(14)
H6 H 0.1192 0.0471 -0.0116
C9 C 0.27875(12) 0.08919(11) 0.02297(13)
H7 H 0.2738 0.1405 -0.0182
C10 C 0.38097(12) 0.06903(10) 0.08119(11)
C11 C 0.1014(2) -0.17584(17) 0.1417(2)
H8 H 0.1609 -0.2119 0.1126
H9 H 0.0289 -0.2050 0.1319
H10 H 0.1165 -0.1660 0.2182
C12 C 0.67419(12) 0.16092(11) 0.11563(12)
C13 C 0.78422(13) 0.14353(11) 0.16386(14)
C14 C 0.87940(12) 0.13003(11) 0.19848(13)
C15 C 0.99160(12) 0.11597(11) 0.24434(12)
C16 C 1.08238(12) 0.17808(10) 0.22250(12)
C17 C 1.06684(14) 0.24688(12) 0.14679(13)
H11 H 0.9969 0.2527 0.1093
C18 C 1.15328(16) 0.30546(13) 0.12744(16)
H12 H 1.1422 0.3503 0.0766
C19 C 1.25774(16) 0.29756(14) 0.18419(17)
H13 H 1.3160 0.3378 0.1717
C20 C 1.27541(14) 0.23143(12) 0.25787(14)
H14 H 1.3456 0.2274 0.2951
C21 C 1.18928(12) 0.16884(11) 0.27880(12)
C22 C 1.20748(12) 0.09498(11) 0.35301(12)
C23 C 1.31114(13) 0.08188(13) 0.41327(13)
H15 H 1.3707 0.1221 0.4065
C24 C 1.32502(15) 0.01145(14) 0.48087(15)
H16 H 1.3939 0.0045 0.5198
C25 C 1.23879(17) -0.05024(14) 0.49310(16)
H17 H 1.2499 -0.0983 0.5392
C26 C 1.13689(15) -0.03957(13) 0.43651(15)
H18 H 1.0788 -0.0808 0.4444
C27 C 1.11902(12) 0.03284(11) 0.36665(12)
C28 C 1.01105(13) 0.04594(11) 0.31131(13)
H19 H 0.9525 0.0054 0.3214
loop_
_geom_bond_atom_site_label_1
_geom_bond_atom_site_label_2
_geom_bond_site_symmetry_1
_geom_bond_site_symmetry_2
B1 O1 1_555 1_555
O1 C1 1_555 1_555
O2 B1 1_555 1_555
O3 C7 1_555 1_555
F1 B1 1_555 1_555
F2 B1 1_555 1_555
C1 C2 1_555 1_555
C2 C3 1_555 1_555
C3 H1 1_555 1_555
H2 C3 1_555 1_555
C4 C3 1_555 1_555
H3 C4 1_555 1_555
H4 C4 1_555 1_555
C5 C4 1_555 1_555
C6 C5 1_555 1_555
H5 C6 1_555 1_555
C7 C6 1_555 1_555
C8 C7 1_555 1_555
H6 C8 1_555 1_555
C9 C8 1_555 1_555
H7 C9 1_555 1_555
C10 C1 1_555 1_555
C11 O3 1_555 1_555
H8 C11 1_555 1_555
H9 C11 1_555 1_555
H10 C11 1_555 1_555
C12 O2 1_555 1_555
C13 C12 1_555 1_555
C14 C13 1_555 1_555
C15 C14 1_555 1_555
C16 C15 1_555 1_555
C17 C16 1_555 1_555
H11 C17 1_555 1_555
C18 C17 1_555 1_555
H12 C18 1_555 1_555
C19 C18 1_555 1_555
H13 C19 1_555 1_555
C20 C19 1_555 1_555
H14 C20 1_555 1_555
C21 C16 1_555 1_555
C22 C21 1_555 1_555
C23 C22 1_555 1_555
H15 C23 1_555 1_555
C24 C23 1_555 1_555
H16 C24 1_555 1_555
C25 C24 1_555 1_555
H17 C25 1_555 1_555
C26 C25 1_555 1_555
H18 C26 1_555 1_555
C27 C22 1_555 1_555
C28 C15 1_555 1_555
H19 C28 1_555 1_555
C2 C12 1_555 1_555
C5 C10 1_555 1_555
C9 C10 1_555 1_555
C20 C21 1_555 1_555
C26 C27 1_555 1_555
C27 C28 1_555 1_555

#END
