
#######################################################################
#
#                 Cambridge Crystallographic Data Centre
#                                CCDC 
#
#######################################################################
#
# If this CIF has been generated from an entry in the Cambridge 
# Structural Database, then it will include bibliographic, chemical, 
# crystal, experimental, refinement or atomic coordinate data resulting 
# from the CCDC's data processing and validation procedures.
#
#######################################################################

data_PAPNOJ
_chemical_formula_moiety         'C36 H40 O4'
_chemical_name_systematic        5,13,21,29-Tetramethoxy(2~4~)metacyclophane
_symmetry_cell_setting           triclinic
_symmetry_space_group_name_H-M   'P -1'
_symmetry_Int_Tables_number      2
_space_group_name_Hall           '-P 1'
loop_
_symmetry_equiv_pos_site_id
_symmetry_equiv_pos_as_xyz
1 x,y,z
2 -x,-y,-z
_cell_length_a                   10.346(2)
_cell_length_b                   10.878(2)
_cell_length_c                   13.058(3)
_cell_angle_alpha                83.38(2)
_cell_angle_beta                 81.68(2)
_cell_angle_gamma                78.52(1)
_cell_volume                     1419.36
_chemical_melting_point          '136-137 deg.C'
_cell_formula_units_Z            2
loop_
_atom_site_label
_atom_site_type_symbol
_atom_site_fract_x
_atom_site_fract_y
_atom_site_fract_z
C1 C 0.0592(3) 0.4822(3) 0.1657(2)
C2 C 0.0018(3) 0.4057(3) 0.2606(2)
C3 C 0.1014(3) 0.3108(3) 0.3170(2)
C4 C 0.1988(3) 0.2253(3) 0.2642(2)
C5 C 0.2891(3) 0.1397(2) 0.3175(2)
C6 C 0.2838(3) 0.1374(3) 0.4242(2)
C7 C 0.1877(3) 0.2229(3) 0.4783(2)
C8 C 0.0977(3) 0.3070(3) 0.4241(2)
O1 O 0.3811(2) 0.0595(2) 0.2574(2)
C9 C 0.4883(3) -0.0158(3) 0.3064(3)
C10 C 0.1894(3) 0.2301(3) 0.5919(2)
C11 C 0.2861(3) 0.3127(3) 0.6086(2)
C12 C 0.2954(3) 0.3346(2) 0.7192(2)
C13 C 0.2397(3) 0.2657(3) 0.8050(2)
C14 C 0.2524(3) 0.2921(3) 0.9036(2)
C15 C 0.3194(3) 0.3869(3) 0.9175(2)
C16 C 0.3764(2) 0.4553(2) 0.8331(2)
C17 C 0.3630(3) 0.4281(2) 0.7344(2)
O2 O 0.2008(2) 0.2302(2) 0.9931(2)
C18 C 0.1174(3) 0.1444(3) 0.9839(2)
C19 C 0.4530(3) 0.5547(3) 0.8499(2)
C20 C 0.4875(3) 0.6456(3) 0.7562(2)
C21 C 0.3695(2) 0.7271(2) 0.7103(2)
C22 C 0.2760(3) 0.8076(2) 0.7708(2)
C23 C 0.1691(3) 0.8833(2) 0.7278(2)
C24 C 0.1512(3) 0.8789(2) 0.6257(2)
C25 C 0.2439(3) 0.7972(2) 0.5636(2)
C26 C 0.3524(3) 0.7279(3) 0.6064(2)
O3 O 0.0861(2) 0.9615(2) 0.7951(2)
C27 C -0.0305(3) 1.0365(3) 0.7589(2)
C28 C 0.2191(3) 0.7899(3) 0.4535(2)
C29 C 0.2979(3) 0.6761(3) 0.4005(2)
C30 C 0.2609(3) 0.6669(3) 0.2950(2)
C31 C 0.3108(3) 0.7397(3) 0.2094(2)
C32 C 0.2768(3) 0.7307(2) 0.1122(2)
C33 C 0.1954(3) 0.6468(2) 0.0995(2)
C34 C 0.1453(3) 0.5730(2) 0.1841(2)
C35 C 0.1776(3) 0.5855(3) 0.2817(2)
O4 O 0.3182(2) 0.7995(2) 0.0233(1)
C36 C 0.4055(3) 0.8835(3) 0.0303(2)
H1 H -0.0129 0.5298 0.1308
H2 H 0.1111 0.4240 0.1189
H3 H -0.0599 0.3616 0.2390
H4 H -0.0473 0.4633 0.3089
H5 H 0.2040 0.2265 0.1901
H6 H 0.3459 0.0770 0.4609
H7 H 0.0308 0.3654 0.4617
H8 H 0.5409 -0.0595 0.2502
H9 H 0.4565 -0.0757 0.3591
H10 H 0.5417 0.0308 0.3354
H11 H 0.2168 0.1473 0.6250
H12 H 0.1018 0.2636 0.6237
H13 H 0.2600 0.3933 0.5716
H14 H 0.3732 0.2768 0.5771
H15 H 0.1935 0.2003 0.7955
H16 H 0.3253 0.4054 0.9866
H17 H 0.4009 0.4753 0.6748
H18 H 0.0812 0.1244 1.0544
H19 H 0.1670 0.0690 0.9554
H20 H 0.0464 0.1803 0.9435
H21 H 0.5345 0.5125 0.8751
H22 H 0.4022 0.6035 0.9038
H23 H 0.5413 0.5976 0.7029
H24 H 0.5399 0.7003 0.7762
H25 H 0.2848 0.8098 0.8427
H26 H 0.0751 0.9296 0.5977
H27 H 0.4187 0.6728 0.5629
H28 H -0.0727 1.0864 0.8148
H29 H -0.0893 0.9845 0.7445
H30 H -0.0100 1.0911 0.6980
H31 H 0.2401 0.8641 0.4125
H32 H 0.1262 0.7909 0.4532
H33 H 0.2833 0.6015 0.4440
H34 H 0.3910 0.6789 0.3941
H35 H 0.3699 0.7945 0.2177
H36 H 0.1736 0.6396 0.0317
H37 H 0.1420 0.5364 0.3411
H38 H 0.4218 0.9191 -0.0400
H39 H 0.4886 0.8470 0.0555
H40 H 0.3586 0.9484 0.0731
loop_
_geom_bond_atom_site_label_1
_geom_bond_atom_site_label_2
_geom_bond_site_symmetry_1
_geom_bond_site_symmetry_2
C1 C2 1_555 1_555
C2 C3 1_555 1_555
C3 C4 1_555 1_555
C4 C5 1_555 1_555
C5 C6 1_555 1_555
C6 C7 1_555 1_555
C7 C8 1_555 1_555
C8 C3 1_555 1_555
O1 C5 1_555 1_555
C9 O1 1_555 1_555
C10 C7 1_555 1_555
C11 C10 1_555 1_555
C12 C11 1_555 1_555
C13 C12 1_555 1_555
C14 C13 1_555 1_555
C15 C14 1_555 1_555
C16 C15 1_555 1_555
C17 C12 1_555 1_555
O2 C14 1_555 1_555
C18 O2 1_555 1_555
C19 C16 1_555 1_555
C20 C19 1_555 1_555
C21 C20 1_555 1_555
C22 C21 1_555 1_555
C23 C22 1_555 1_555
C24 C23 1_555 1_555
C25 C24 1_555 1_555
C26 C21 1_555 1_555
O3 C23 1_555 1_555
C27 O3 1_555 1_555
C28 C25 1_555 1_555
C29 C28 1_555 1_555
C30 C29 1_555 1_555
C31 C30 1_555 1_555
C32 C31 1_555 1_555
C33 C32 1_555 1_555
C34 C1 1_555 1_555
C35 C30 1_555 1_555
O4 C32 1_555 1_555
C36 O4 1_555 1_555
H1 C1 1_555 1_555
H2 C1 1_555 1_555
H3 C2 1_555 1_555
H4 C2 1_555 1_555
H5 C4 1_555 1_555
H6 C6 1_555 1_555
H7 C8 1_555 1_555
H8 C9 1_555 1_555
H9 C9 1_555 1_555
H10 C9 1_555 1_555
H11 C10 1_555 1_555
H12 C10 1_555 1_555
H13 C11 1_555 1_555
H14 C11 1_555 1_555
H15 C13 1_555 1_555
H16 C15 1_555 1_555
H17 C17 1_555 1_555
H18 C18 1_555 1_555
H19 C18 1_555 1_555
H20 C18 1_555 1_555
H21 C19 1_555 1_555
H22 C19 1_555 1_555
H23 C20 1_555 1_555
H24 C20 1_555 1_555
H25 C22 1_555 1_555
H26 C24 1_555 1_555
H27 C26 1_555 1_555
H28 C27 1_555 1_555
H29 C27 1_555 1_555
H30 C27 1_555 1_555
H31 C28 1_555 1_555
H32 C28 1_555 1_555
H33 C29 1_555 1_555
H34 C29 1_555 1_555
H35 C31 1_555 1_555
H36 C33 1_555 1_555
H37 C35 1_555 1_555
H38 C36 1_555 1_555
H39 C36 1_555 1_555
H40 C36 1_555 1_555
C16 C17 1_555 1_555
C25 C26 1_555 1_555
C33 C34 1_555 1_555
C34 C35 1_555 1_555

#END
