
#######################################################################
#
#                 Cambridge Crystallographic Data Centre
#                                CCDC 
#
#######################################################################
#
# If this CIF has been generated from an entry in the Cambridge 
# Structural Database, then it will include bibliographic, chemical, 
# crystal, experimental, refinement or atomic coordinate data resulting 
# from the CCDC's data processing and validation procedures.
#
#######################################################################

data_PAPNIE
_chemical_formula_moiety         'C16 H19 F1 N2 S1'
_chemical_name_systematic        
4-(4-Fluorophenyl)-3,4,5,6,7,8,9,10-octahydro-1H-cyclooctapyrimidine-2-thione
_symmetry_cell_setting           triclinic
_symmetry_space_group_name_H-M   'P -1'
_symmetry_Int_Tables_number      2
_space_group_name_Hall           '-P 1'
loop_
_symmetry_equiv_pos_site_id
_symmetry_equiv_pos_as_xyz
1 x,y,z
2 -x,-y,-z
_cell_length_a                   6.6450(10)
_cell_length_b                   8.3240(10)
_cell_length_c                   15.040(2)
_cell_angle_alpha                95.32(2)
_cell_angle_beta                 100.860(10)
_cell_angle_gamma                110.910(10)
_cell_volume                     751.511
_exptl_crystal_colour            colorless
_exptl_crystal_description       block
_chemical_melting_point          217-220deg.C
_cell_formula_units_Z            2
_exptl_crystal_recrystallization_method dmf
loop_
_atom_site_label
_atom_site_type_symbol
_atom_site_fract_x
_atom_site_fract_y
_atom_site_fract_z
S1 S 0.15567(9) 0.79308(6) 0.99906(4)
F1 F 0.1825(3) 0.7609(2) 0.46721(10)
N1 N 0.2300(3) 0.5284(2) 0.91840(11)
N2 N 0.4426(3) 0.7977(2) 0.89770(11)
C1 C 0.3602(3) 0.4518(2) 0.88036(12)
C2 C 0.2997(3) 0.2620(2) 0.88492(13)
H1 H 0.2505 0.2392 0.9409
H2 H 0.4308 0.2348 0.8880
C3 C 0.1184(4) 0.1424(3) 0.80318(15)
H3 H -0.0203 0.1533 0.8073
H4 H 0.1004 0.0225 0.8070
C4 C 0.1624(5) 0.1794(3) 0.70964(16)
H5 H 0.0450 0.0905 0.6625
H6 H 0.1518 0.2906 0.7015
C5 C 0.3815(5) 0.1854(3) 0.69311(19)
H7 H 0.3543 0.1225 0.6317
H8 H 0.4382 0.1227 0.7359
C6 C 0.5630(5) 0.3662(3) 0.70222(17)
H9 H 0.5024 0.4329 0.6635
H10 H 0.6825 0.3517 0.6784
C7 C 0.6619(4) 0.4740(3) 0.79971(16)
H11 H 0.7049 0.4015 0.8401
H12 H 0.7960 0.5713 0.7989
C8 C 0.5152(3) 0.5451(2) 0.84054(12)
C9 C 0.5427(3) 0.7310(2) 0.83198(13)
H13 H 0.7019 0.8029 0.8475
C10 C 0.4458(3) 0.7438(2) 0.73391(13)
C11 C 0.5807(4) 0.8033(3) 0.67489(15)
H14 H 0.7337 0.8412 0.6961
C12 C 0.4922(5) 0.8073(3) 0.58480(17)
H15 H 0.5841 0.8468 0.5452
C13 C 0.2700(5) 0.7530(3) 0.55512(16)
C14 C 0.1299(5) 0.6927(3) 0.61055(17)
H16 H -0.0228 0.6554 0.5884
C15 C 0.2194(4) 0.6881(3) 0.70053(15)
H17 H 0.1257 0.6468 0.7392
C16 C 0.2829(3) 0.7020(2) 0.93463(12)
H18 H 0.136(3) 0.469(3) 0.9415(14)
H19 H 0.493(4) 0.904(3) 0.9148(15)
loop_
_geom_bond_atom_site_label_1
_geom_bond_atom_site_label_2
_geom_bond_site_symmetry_1
_geom_bond_site_symmetry_2
S1 C16 1_555 1_555
F1 C13 1_555 1_555
N1 C1 1_555 1_555
N2 C9 1_555 1_555
C1 C2 1_555 1_555
C2 H1 1_555 1_555
H2 C2 1_555 1_555
C3 C2 1_555 1_555
H3 C3 1_555 1_555
H4 C3 1_555 1_555
C4 C3 1_555 1_555
H5 C4 1_555 1_555
H6 C4 1_555 1_555
C5 C4 1_555 1_555
H7 C5 1_555 1_555
H8 C5 1_555 1_555
C6 C5 1_555 1_555
H9 C6 1_555 1_555
H10 C6 1_555 1_555
C7 C6 1_555 1_555
H11 C7 1_555 1_555
H12 C7 1_555 1_555
C8 C1 1_555 1_555
C9 C8 1_555 1_555
H13 C9 1_555 1_555
C10 C9 1_555 1_555
C11 C10 1_555 1_555
H14 C11 1_555 1_555
C12 C11 1_555 1_555
H15 C12 1_555 1_555
C13 C12 1_555 1_555
C14 C13 1_555 1_555
H16 C14 1_555 1_555
C15 C10 1_555 1_555
H17 C15 1_555 1_555
C16 N1 1_555 1_555
H18 N1 1_555 1_555
H19 N2 1_555 1_555
N2 C16 1_555 1_555
C7 C8 1_555 1_555
C14 C15 1_555 1_555

#END
