
#######################################################################
#
#                 Cambridge Crystallographic Data Centre
#                                CCDC 
#
#######################################################################
#
# If this CIF has been generated from an entry in the Cambridge 
# Structural Database, then it will include bibliographic, chemical, 
# crystal, experimental, refinement or atomic coordinate data resulting 
# from the CCDC's data processing and validation procedures.
#
#######################################################################

data_PAPPUR
_chemical_formula_moiety         'C26 H12 Br2 N2 O9,C1 H2 Cl2'
_chemical_name_systematic        
"4',5'-Dibromo-2',7'-dinitro-3',6'-bis(2-propynyloxy)spiro(phthalid-3,9'-xanthene) dichloromethane solvate"
_symmetry_cell_setting           triclinic
_symmetry_space_group_name_H-M   'P -1'
_symmetry_Int_Tables_number      2
_space_group_name_Hall           '-P 1'
loop_
_symmetry_equiv_pos_site_id
_symmetry_equiv_pos_as_xyz
1 x,y,z
2 -x,-y,-z
_cell_length_a                   7.948(1)
_cell_length_b                   11.086(1)
_cell_length_c                   16.589(2)
_cell_angle_alpha                103.50(1)
_cell_angle_beta                 91.24(1)
_cell_angle_gamma                93.75(1)
_cell_volume                     1417.23
_exptl_crystal_colour            colorless
_chemical_melting_point          '198 deg.C'
_cell_formula_units_Z            2
loop_
_atom_site_label
_atom_site_type_symbol
_atom_site_fract_x
_atom_site_fract_y
_atom_site_fract_z
C2 C -0.0933(34) 0.4779(22) -0.0331(11)
Cl2 Cl -0.0480(19) 0.5075(14) 0.0774(9)
Cl2A Cl 0.0480(19) 0.4925(14) -0.0774(9)
C2A C 0.0933(34) 0.5221(22) 0.0331(11)
C3 C 0.1775(31) 0.7634(22) 0.8105(16)
C4 C 0.1651(21) 0.7244(23) 0.7375(8)
C5 C 0.1624(15) 0.7142(14) 0.6540(6)
O1 O 0.3296(8) 0.6820(7) 0.6223(3)
C6 C 0.3397(12) 0.6701(9) 0.5389(5)
C7 C 0.2951(12) 0.5583(9) 0.4832(5)
Br1 Br 0.2117(1) 0.4195(1) 0.5210(1)
C8 C 0.3232(12) 0.5435(9) 0.3987(5)
C9 C 0.3860(11) 0.6430(8) 0.3677(5)
C10 C 0.4327(12) 0.7535(8) 0.4243(5)
C11 C 0.4085(12) 0.7666(8) 0.5066(5)
N1 N 0.4608(13) 0.8900(8) 0.5644(5)
O2 O 0.5987(12) 0.9366(7) 0.5498(5)
O3 O 0.3727(12) 0.9306(8) 0.6145(5)
O4 O 0.2818(8) 0.4276(5) 0.3494(3)
C12 C 0.3384(12) 0.4023(8) 0.2695(5)
C13 C 0.4008(11) 0.4930(8) 0.2319(5)
C14 C 0.4036(11) 0.6294(7) 0.2761(5)
C15 C 0.4524(12) 0.4573(8) 0.1513(5)
C16 C 0.4481(13) 0.3334(9) 0.1117(5)
N2 N 0.5161(14) 0.3007(8) 0.0253(5)
O5 O 0.4626(15) 0.3641(9) -0.0192(5)
O6 O 0.6010(16) 0.2218(10) 0.0096(6)
C17 C 0.3884(12) 0.2415(8) 0.1502(6)
C18 C 0.3318(13) 0.2763(8) 0.2298(5)
Br2 Br 0.2564(2) 0.1567(1) 0.2862(1)
O7 O 0.3909(10) 0.1182(6) 0.1105(4)
C19 C 0.2362(19) 0.0552(11) 0.0721(8)
C20 C 0.1399(18) 0.1208(10) 0.0231(8)
C21 C 0.0713(22) 0.1734(14) -0.0168(9)
O8 O 0.2580(7) 0.6816(5) 0.2454(3)
C22 C 0.3086(12) 0.7801(8) 0.2109(5)
O9 O 0.2068(9) 0.8326(6) 0.1807(4)
C23 C 0.4930(11) 0.7988(8) 0.2204(5)
C24 C 0.5990(14) 0.8845(9) 0.1967(6)
C25 C 0.7649(17) 0.8816(12) 0.2115(7)
C26 C 0.8300(15) 0.7909(13) 0.2481(7)
C27 C 0.7223(13) 0.7027(10) 0.2706(6)
C28 C 0.5505(11) 0.7110(8) 0.2560(5)
H1 H 0.1321 0.7890 0.6395
H2 H 0.0796 0.6483 0.6292
H3 H 0.4843 0.8219 0.4052
H4 H 0.4927 0.5192 0.1230
H5 H 0.1665 0.0358 0.1146
H6 H 0.2630 -0.0220 0.0364
H7 H 0.5565 0.9452 0.1702
H8 H 0.8418 0.9420 0.1960
H9 H 0.9496 0.7922 0.2582
H10 H 0.7628 0.6387 0.2947
C1 C -0.0036(37) -0.0124(19) 0.4509(14)
Cl1 Cl -0.0074(9) 0.1323(6) 0.5349(4)
C1A C 0.0036(37) 0.0124(19) 0.5491(14)
Cl1A Cl 0.0074(9) -0.1323(6) 0.4651(4)
loop_
_geom_bond_atom_site_label_1
_geom_bond_atom_site_label_2
_geom_bond_site_symmetry_1
_geom_bond_site_symmetry_2
C1 Cl1 1_555 1_555
Cl1 C1A 1_555 1_555
C2 Cl2 1_555 1_555
Cl2 C2A 1_555 1_555
C3 C4 1_555 1_555
C4 C5 1_555 1_555
C5 O1 1_555 1_555
O1 C6 1_555 1_555
C6 C7 1_555 1_555
C7 Br1 1_555 1_555
C8 C7 1_555 1_555
C9 C8 1_555 1_555
C10 C9 1_555 1_555
C11 C6 1_555 1_555
N1 C11 1_555 1_555
O2 N1 1_555 1_555
O3 N1 1_555 1_555
O4 C8 1_555 1_555
C12 O4 1_555 1_555
C13 C12 1_555 1_555
C14 C9 1_555 1_555
C15 C13 1_555 1_555
C16 C15 1_555 1_555
N2 C16 1_555 1_555
O5 N2 1_555 1_555
O6 N2 1_555 1_555
C17 C16 1_555 1_555
C18 C12 1_555 1_555
Br2 C18 1_555 1_555
O7 C17 1_555 1_555
C19 O7 1_555 1_555
C20 C19 1_555 1_555
C21 C20 1_555 1_555
O8 C14 1_555 1_555
C22 O8 1_555 1_555
O9 C22 1_555 1_555
C23 C22 1_555 1_555
C24 C23 1_555 1_555
C25 C24 1_555 1_555
C26 C25 1_555 1_555
C27 C26 1_555 1_555
C28 C14 1_555 1_555
H1 C5 1_555 1_555
H2 C5 1_555 1_555
H3 C10 1_555 1_555
H4 C15 1_555 1_555
H5 C19 1_555 1_555
H6 C19 1_555 1_555
H7 C24 1_555 1_555
H8 C25 1_555 1_555
H9 C26 1_555 1_555
H10 C27 1_555 1_555
C1A C1 1_555 1_555
Cl1A C1 1_555 1_555
Cl2A C2 1_555 1_555
C2A Cl2A 1_555 1_555
C10 C11 1_555 1_555
C13 C14 1_555 1_555
C17 C18 1_555 1_555
C23 C28 1_555 1_555
C27 C28 1_555 1_555
C1A Cl1A 1_555 1_555

#END
