
#######################################################################
#
#                 Cambridge Crystallographic Data Centre
#                                CCDC 
#
#######################################################################
#
# If this CIF has been generated from an entry in the Cambridge 
# Structural Database, then it will include bibliographic, chemical, 
# crystal, experimental, refinement or atomic coordinate data resulting 
# from the CCDC's data processing and validation procedures.
#
#######################################################################

data_PAPQAB
_chemical_compound_source        'fruits of Walsura robusta'
_chemical_name_common            walsuronoid
_chemical_formula_moiety         'C26 H30 O6'
_chemical_name_systematic        
17-(3-furyl)-6,11,15-trihydroxy-4,4,8,10,14-pentamethylgona-1,5,13(17)-triene-3,7-dione
_symmetry_cell_setting           monoclinic
_symmetry_space_group_name_H-M   'P 21'
_symmetry_Int_Tables_number      4
_space_group_name_Hall           'P 2yb'
loop_
_symmetry_equiv_pos_site_id
_symmetry_equiv_pos_as_xyz
1 x,y,z
2 -x,1/2+y,-z
_cell_length_a                   8.2609(2)
_cell_length_b                   9.6668(2)
_cell_length_c                   14.0592(3)
_cell_angle_alpha                90
_cell_angle_beta                 98.722(2)
_cell_angle_gamma                90
_cell_volume                     1109.73
_exptl_crystal_colour            colorless
_exptl_crystal_description       block
_chemical_melting_point          '220-221 deg.C'
_cell_formula_units_Z            2
_chemical_properties_physical    ', Heat-sensitive'
_exptl_crystal_recrystallization_method methanol
loop_
_atom_site_label
_atom_site_type_symbol
_atom_site_fract_x
_atom_site_fract_y
_atom_site_fract_z
O1 O 0.83856(11) 0.66457(14) 0.98183(6)
H1 H 0.7390 0.6594 0.9660
O2 O 0.65260(11) 0.65029(17) 0.81844(7)
O3 O 1.13510(12) 0.63527(13) 0.58679(8)
H2 H 1.2326 0.6159 0.5999
C1 C 1.07560(15) 0.68239(14) 0.90679(8)
C2 C 1.15386(14) 0.68955(14) 0.81568(9)
C3 C 0.91222(15) 0.67492(16) 0.90136(9)
O4 O 0.48290(13) 0.61477(18) 0.64411(8)
H3 H 0.5181 0.6213 0.7017
C4 C 1.02988(15) 0.74258(14) 0.72835(9)
H4 H 1.0078 0.8379 0.7464
C5 C 0.82150(17) 0.78120(16) 0.55044(9)
O5 O 1.48373(14) 0.65257(18) 1.04295(10)
C6 C 0.74183(19) 0.71676(18) 0.47293(10)
C7 C 0.73834(16) 0.76717(16) 0.63920(10)
C8 C 0.79738(15) 0.66880(17) 0.81084(9)
C9 C 1.28927(17) 0.79834(17) 0.83421(11)
H5 H 1.3022 0.8614 0.7860
C10 C 0.85376(17) 0.52245(15) 0.67867(11)
H6 H 0.7435 0.4880 0.6704
H7 H 0.9215 0.4670 0.7254
H8 H 0.8948 0.5182 0.6184
O6 O 0.93870(17) 0.67353(16) 0.25757(8)
C11 C 1.10341(17) 0.76035(17) 0.63364(10)
H9 H 1.2068 0.8111 0.6487
C12 C 0.85612(14) 0.67381(15) 0.71368(8)
C13 C 1.18955(16) 0.67403(17) 1.00397(9)
C14 C 1.1518(2) 0.7915(2) 1.07217(12)
H10 H 1.1619 0.8793 1.0417
H11 H 1.2279 0.7871 1.1309
H12 H 1.0423 0.7809 1.0862
C15 C 0.7085(2) 0.90857(19) 0.68470(12)
H13 H 0.6676 0.9731 0.6349
H14 H 0.8096 0.9426 0.7196
H15 H 0.6298 0.8980 0.7279
C16 C 1.1770(2) 0.5330(2) 1.05177(14)
H16 H 1.0695 0.5221 1.0688
H17 H 1.2572 0.5273 1.1087
H18 H 1.1965 0.4611 1.0078
C17 C 1.36767(18) 0.70421(18) 0.99164(11)
C18 C 0.98585(19) 0.84749(18) 0.56341(10)
H19 H 0.9790 0.9404 0.5885
H20 H 1.0254 0.8535 0.5020
C19 C 1.23163(18) 0.54585(16) 0.80236(11)
H21 H 1.1497 0.4753 0.8015
H22 H 1.3185 0.5291 0.8546
H23 H 1.2747 0.5444 0.7427
C20 C 0.7927(2) 0.70110(16) 0.37768(10)
C21 C 1.38885(18) 0.80492(18) 0.91752(12)
H24 H 1.4701 0.8721 0.9283
C22 C 0.9433(2) 0.6941(2) 0.35453(11)
H25 H 1.0390 0.7022 0.3985
C23 C 0.6839(2) 0.6833(2) 0.28814(11)
H26 H 0.5701 0.6830 0.2798
C24 C 0.58806(19) 0.6492(2) 0.49428(10)
H27 H 0.6001 0.5495 0.4977
H28 H 0.4956 0.6722 0.4457
C25 C 0.56656(18) 0.7095(2) 0.59197(11)
H29 H 0.4945 0.7899 0.5787
C26 C 0.7774(3) 0.6674(2) 0.21989(11)
H30 H 0.7378 0.6538 0.1550
loop_
_geom_bond_atom_site_label_1
_geom_bond_atom_site_label_2
_geom_bond_site_symmetry_1
_geom_bond_site_symmetry_2
O1 H1 1_555 1_555
O2 C8 1_555 1_555
O3 H2 1_555 1_555
C1 C2 1_555 1_555
C2 C4 1_555 1_555
C3 O1 1_555 1_555
O4 H3 1_555 1_555
C4 H4 1_555 1_555
C5 C6 1_555 1_555
O5 C17 1_555 1_555
C6 C20 1_555 1_555
C7 C5 1_555 1_555
C8 C3 1_555 1_555
C9 C2 1_555 1_555
H5 C9 1_555 1_555
C10 H6 1_555 1_555
H7 C10 1_555 1_555
H8 C10 1_555 1_555
O6 C22 1_555 1_555
C11 O3 1_555 1_555
H9 C11 1_555 1_555
C12 C4 1_555 1_555
C13 C1 1_555 1_555
C14 C13 1_555 1_555
H10 C14 1_555 1_555
H11 C14 1_555 1_555
H12 C14 1_555 1_555
C15 C7 1_555 1_555
H13 C15 1_555 1_555
H14 C15 1_555 1_555
H15 C15 1_555 1_555
C16 C13 1_555 1_555
H16 C16 1_555 1_555
H17 C16 1_555 1_555
H18 C16 1_555 1_555
C17 C13 1_555 1_555
C18 C5 1_555 1_555
H19 C18 1_555 1_555
H20 C18 1_555 1_555
C19 C2 1_555 1_555
H21 C19 1_555 1_555
H22 C19 1_555 1_555
H23 C19 1_555 1_555
C20 C22 1_555 1_555
C21 C9 1_555 1_555
H24 C21 1_555 1_555
C22 H25 1_555 1_555
C23 C20 1_555 1_555
H26 C23 1_555 1_555
C24 C6 1_555 1_555
H27 C24 1_555 1_555
H28 C24 1_555 1_555
C25 O4 1_555 1_555
H29 C25 1_555 1_555
C26 O6 1_555 1_555
H30 C26 1_555 1_555
C1 C3 1_555 1_555
C4 C11 1_555 1_555
C7 C12 1_555 1_555
C7 C25 1_555 1_555
C8 C12 1_555 1_555
C10 C12 1_555 1_555
C11 C18 1_555 1_555
C17 C21 1_555 1_555
C23 C26 1_555 1_555
C24 C25 1_555 1_555

#END
