
#######################################################################
#
#                 Cambridge Crystallographic Data Centre
#                                CCDC 
#
#######################################################################
#
# If this CIF has been generated from an entry in the Cambridge 
# Structural Database, then it will include bibliographic, chemical, 
# crystal, experimental, refinement or atomic coordinate data resulting 
# from the CCDC's data processing and validation procedures.
#
#######################################################################

data_PAPROP
_chemical_formula_moiety         'C7 H8 N2 O1'
_chemical_name_systematic        N-Methylisonicotinamide
_symmetry_cell_setting           triclinic
_symmetry_space_group_name_H-M   'P -1'
_symmetry_Int_Tables_number      2
_space_group_name_Hall           '-P 1'
loop_
_symmetry_equiv_pos_site_id
_symmetry_equiv_pos_as_xyz
1 x,y,z
2 -x,-y,-z
_cell_length_a                   8.409(4)
_cell_length_b                   9.724(4)
_cell_length_c                   9.984(4)
_cell_angle_alpha                75.782(11)
_cell_angle_beta                 72.520(13)
_cell_angle_gamma                65.759(12)
_cell_volume                     702.971
_exptl_crystal_colour            colorless
_exptl_crystal_description       'rectangular block'
_cell_formula_units_Z            4
loop_
_atom_site_label
_atom_site_type_symbol
_atom_site_fract_x
_atom_site_fract_y
_atom_site_fract_z
N1 N -0.0999(5) 1.3859(4) 0.4299(4)
N2 N 0.3755(4) 0.8529(4) 0.4056(3)
H1 H 0.3669 0.8834 0.4822
O1 O 0.2832(4) 0.9098(4) 0.2038(3)
C1 C -0.1127(6) 1.3217(5) 0.3326(5)
H2 H -0.2069 1.3750 0.2871
C2 C 0.0051(6) 1.1801(5) 0.2939(4)
H3 H -0.0100 1.1419 0.2237
C3 C 0.1455(5) 1.0966(4) 0.3615(3)
C4 C 0.1597(5) 1.1633(5) 0.4614(4)
H4 H 0.2524 1.1132 0.5087
C5 C 0.0359(7) 1.3052(5) 0.4917(5)
H5 H 0.0491 1.3468 0.5603
C6 C 0.2728(5) 0.9463(5) 0.3178(3)
C7 C 0.5013(6) 0.7022(5) 0.3783(4)
H6 H 0.4514 0.6277 0.4341
H7 H 0.6107 0.6838 0.4033
H8 H 0.5254 0.6950 0.2795
N3 N 0.8188(5) 0.4500(5) 0.9436(4)
N4 N 0.2965(4) 0.9529(4) 0.9034(3)
H9 H 0.3156 0.9324 0.9873
O2 O 0.3786(4) 0.8771(3) 0.6898(3)
C8 C 0.7330(6) 0.4530(5) 0.8509(4)
H10 H 0.7645 0.3639 0.8140
C9 C 0.5977(6) 0.5830(5) 0.8058(4)
H11 H 0.5442 0.5803 0.7379
C10 C 0.5435(5) 0.7153(4) 0.8617(3)
C11 C 0.6314(5) 0.7133(5) 0.9586(4)
H12 H 0.5998 0.8001 0.9991
C12 C 0.7669(5) 0.5809(6) 0.9949(4)
H13 H 0.8264 0.5824 1.0591
C13 C 0.3982(5) 0.8547(4) 0.8124(3)
C14 C 0.1526(6) 1.0951(5) 0.8667(4)
H14 H 0.1923 1.1407 0.7725
H15 H 0.1220 1.1639 0.9326
H16 H 0.0494 1.0735 0.8710
loop_
_geom_bond_atom_site_label_1
_geom_bond_atom_site_label_2
_geom_bond_site_symmetry_1
_geom_bond_site_symmetry_2
N1 C1 1_555 1_555
N2 H1 1_555 1_555
O1 C6 1_555 1_555
C1 H2 1_555 1_555
C2 C1 1_555 1_555
H3 C2 1_555 1_555
C3 C2 1_555 1_555
C4 C3 1_555 1_555
H4 C4 1_555 1_555
C5 N1 1_555 1_555
H5 C5 1_555 1_555
C6 N2 1_555 1_555
C7 N2 1_555 1_555
H6 C7 1_555 1_555
H7 C7 1_555 1_555
H8 C7 1_555 1_555
N3 C8 1_555 1_555
N4 H9 1_555 1_555
O2 C13 1_555 1_555
C8 H10 1_555 1_555
C9 C8 1_555 1_555
H11 C9 1_555 1_555
C10 C9 1_555 1_555
C11 C10 1_555 1_555
H12 C11 1_555 1_555
C12 N3 1_555 1_555
H13 C12 1_555 1_555
C13 N4 1_555 1_555
C14 N4 1_555 1_555
H14 C14 1_555 1_555
H15 C14 1_555 1_555
H16 C14 1_555 1_555
C3 C6 1_555 1_555
C4 C5 1_555 1_555
C10 C13 1_555 1_555
C11 C12 1_555 1_555

#END
