
#######################################################################
#
#                 Cambridge Crystallographic Data Centre
#                                CCDC 
#
#######################################################################
#
# If this CIF has been generated from an entry in the Cambridge 
# Structural Database, then it will include bibliographic, chemical, 
# crystal, experimental, refinement or atomic coordinate data resulting 
# from the CCDC's data processing and validation procedures.
#
#######################################################################

data_PAPRUV
_chemical_formula_moiety         'C7 H8 N2 O1,H2 O1'
_chemical_name_systematic        'N-(Pyridin-4-yl)acetamide monohydrate'
_symmetry_cell_setting           monoclinic
_symmetry_space_group_name_H-M   'P 21/n'
_symmetry_Int_Tables_number      14
_space_group_name_Hall           '-P 2yn'
loop_
_symmetry_equiv_pos_site_id
_symmetry_equiv_pos_as_xyz
1 x,y,z
2 1/2-x,1/2+y,1/2-z
3 -x,-y,-z
4 1/2+x,1/2-y,1/2+z
_cell_length_a                   11.936(2)
_cell_length_b                   9.768(2)
_cell_length_c                   14.267(3)
_cell_angle_alpha                90
_cell_angle_beta                 105.84(3)
_cell_angle_gamma                90
_cell_volume                     1600.24
_exptl_crystal_colour            'light yellow'
_exptl_crystal_description       needle
_cell_formula_units_Z            8
loop_
_atom_site_label
_atom_site_type_symbol
_atom_site_fract_x
_atom_site_fract_y
_atom_site_fract_z
N1 N 0.4441(2) 0.1470(3) 0.8814(2)
H1 H 0.3698 0.1364 0.8644
N2 N 0.6267(3) -0.2200(4) 0.8788(3)
O1 O 0.5850(2) 0.3077(3) 0.9278(2)
C1 C 0.6814(3) -0.1043(5) 0.9117(3)
H2 H 0.7621 -0.1081 0.9348
C2 C 0.6301(3) 0.0200(4) 0.9146(3)
H3 H 0.6748 0.0971 0.9379
C3 C 0.5086(3) 0.0286(4) 0.8818(3)
C4 C 0.4499(3) -0.0911(4) 0.8483(3)
H4 H 0.3690 -0.0909 0.8259
C5 C 0.5098(4) -0.2097(5) 0.8476(3)
H5 H 0.4674 -0.2883 0.8243
C6 C 0.4813(3) 0.2752(4) 0.9038(3)
C7 C 0.3869(3) 0.3802(4) 0.8964(3)
H6 H 0.4214 0.4665 0.9206
H7 H 0.3361 0.3509 0.9343
H8 H 0.3431 0.3901 0.8295
O2 O 0.5860(2) 0.1940(3) 0.4064(2)
N3 N 0.4414(2) 0.0357(3) 0.3733(2)
H9 H 0.3677 0.0263 0.3651
N4 N 0.6145(3) -0.3338(4) 0.3545(3)
C8 C 0.6722(3) -0.2180(5) 0.3815(4)
H10 H 0.7528 -0.2216 0.3945
C9 C 0.6240(3) -0.0936(4) 0.3919(3)
H11 H 0.6710 -0.0177 0.4138
C10 C 0.5021(3) -0.0830(4) 0.3688(3)
C11 C 0.4402(3) -0.2033(4) 0.3396(3)
H12 H 0.3593 -0.2029 0.3244
C12 C 0.4984(4) -0.3225(5) 0.3332(4)
H13 H 0.4542 -0.4008 0.3127
C13 C 0.4824(4) 0.1646(4) 0.3888(3)
C14 C 0.3917(4) 0.2733(4) 0.3836(4)
H14 H 0.4237 0.3450 0.4289
H15 H 0.3256 0.2339 0.3996
H16 H 0.3679 0.3102 0.3188
O3 O 0.8001(2) 0.0128(3) 0.6493(3)
H17 H 0.843(3) -0.039(4) 0.627(3)
H18 H 0.820(3) 0.106(4) 0.632(3)
O4 O 0.1970(2) 0.0988(3) 0.8292(3)
H19 H 0.161(3) 0.161(4) 0.848(3)
H20 H 0.179(3) 0.013(4) 0.840(3)
loop_
_geom_bond_atom_site_label_1
_geom_bond_atom_site_label_2
_geom_bond_site_symmetry_1
_geom_bond_site_symmetry_2
N1 H1 1_555 1_555
N2 C1 1_555 1_555
O1 C6 1_555 1_555
C1 H2 1_555 1_555
C2 C1 1_555 1_555
H3 C2 1_555 1_555
C3 N1 1_555 1_555
C4 C3 1_555 1_555
H4 C4 1_555 1_555
C5 N2 1_555 1_555
H5 C5 1_555 1_555
C6 N1 1_555 1_555
C7 C6 1_555 1_555
H6 C7 1_555 1_555
H7 C7 1_555 1_555
H8 C7 1_555 1_555
O2 C13 1_555 1_555
N3 H9 1_555 1_555
N4 C8 1_555 1_555
C8 H10 1_555 1_555
C9 C8 1_555 1_555
H11 C9 1_555 1_555
C10 N3 1_555 1_555
C11 C10 1_555 1_555
H12 C11 1_555 1_555
C12 N4 1_555 1_555
H13 C12 1_555 1_555
C13 N3 1_555 1_555
C14 C13 1_555 1_555
H14 C14 1_555 1_555
H15 C14 1_555 1_555
H16 C14 1_555 1_555
O3 H17 1_555 1_555
H18 O3 1_555 1_555
O4 H19 1_555 1_555
H20 O4 1_555 1_555
C2 C3 1_555 1_555
C4 C5 1_555 1_555
C9 C10 1_555 1_555
C11 C12 1_555 1_555

#END
