
#######################################################################
#
#                 Cambridge Crystallographic Data Centre
#                                CCDC 
#
#######################################################################
#
# If this CIF has been generated from an entry in the Cambridge 
# Structural Database, then it will include bibliographic, chemical, 
# crystal, experimental, refinement or atomic coordinate data resulting 
# from the CCDC's data processing and validation procedures.
#
#######################################################################

data_PAPSEG
_chemical_formula_moiety         'C7 H8 N2 O1'
_chemical_name_systematic        N-(Pyridin-3-yl)acetamide
_symmetry_cell_setting           monoclinic
_symmetry_space_group_name_H-M   'C 2/c'
_symmetry_Int_Tables_number      15
_space_group_name_Hall           '-C 2yn'
loop_
_symmetry_equiv_pos_site_id
_symmetry_equiv_pos_as_xyz
1 x,y,z
2 -x,y,1/2-z
3 1/2+x,1/2+y,z
4 1/2-x,1/2+y,1/2-z
5 -x,-y,-z
6 x,-y,1/2+z
7 1/2-x,1/2-y,-z
8 1/2+x,1/2-y,1/2+z
_cell_length_a                   15.070(9)
_cell_length_b                   7.742(4)
_cell_length_c                   12.065(7)
_cell_angle_alpha                90
_cell_angle_beta                 91.804(18)
_cell_angle_gamma                90
_cell_volume                     1406.95
_exptl_crystal_colour            colorless
_exptl_crystal_description       needle
_cell_formula_units_Z            8
loop_
_atom_site_label
_atom_site_type_symbol
_atom_site_fract_x
_atom_site_fract_y
_atom_site_fract_z
N1 N 0.21496(10) 0.0537(2) 0.04657(13)
H1 H 0.2377 0.0564 0.1128
O1 O 0.09222(10) 0.1244(3) -0.05645(13)
C1 C 0.26963(12) -0.0093(2) -0.03637(15)
C2 C 0.24861(14) 0.0019(3) -0.14881(16)
H2 H 0.1961 0.0572 -0.1708
C3 C 0.37508(15) -0.1387(3) -0.19523(18)
H3 H 0.4110 -0.1843 -0.2493
C4 C 0.40234(14) -0.1533(3) -0.08606(19)
H4 H 0.4560 -0.2063 -0.0667
C5 C 0.34895(14) -0.0881(3) -0.00601(17)
H5 H 0.3661 -0.0970 0.0685
C6 C 0.13013(13) 0.1109(3) 0.03380(17)
C7 C 0.08509(15) 0.1557(3) 0.13900(18)
H6 H 0.0535 0.2625 0.1294
H7 H 0.1288 0.1676 0.1981
H8 H 0.0442 0.0656 0.1569
N2 N 0.29966(12) -0.0623(3) -0.22706(14)
loop_
_geom_bond_atom_site_label_1
_geom_bond_atom_site_label_2
_geom_bond_site_symmetry_1
_geom_bond_site_symmetry_2
N1 H1 1_555 1_555
O1 C6 1_555 1_555
C1 N1 1_555 1_555
C2 C1 1_555 1_555
H2 C2 1_555 1_555
C3 H3 1_555 1_555
C4 C3 1_555 1_555
H4 C4 1_555 1_555
C5 C1 1_555 1_555
H5 C5 1_555 1_555
C6 N1 1_555 1_555
C7 C6 1_555 1_555
H6 C7 1_555 1_555
H7 C7 1_555 1_555
H8 C7 1_555 1_555
N2 C2 1_555 1_555
C3 N2 1_555 1_555
C4 C5 1_555 1_555

#END
