
#######################################################################
#
#                 Cambridge Crystallographic Data Centre
#                                CCDC 
#
#######################################################################
#
# If this CIF has been generated from an entry in the Cambridge 
# Structural Database, then it will include bibliographic, chemical, 
# crystal, experimental, refinement or atomic coordinate data resulting 
# from the CCDC's data processing and validation procedures.
#
#######################################################################

data_PAPVUA
_chemical_formula_moiety         'C23 H27 N1 O3 Si1'
_chemical_name_systematic        
2-((1-((t-butyl(dimethyl)silyl)oxy)-1H-isoindol-3-yl)oxy)indan-1-one
_symmetry_cell_setting           monoclinic
_symmetry_space_group_name_H-M   'P 21/c'
_symmetry_Int_Tables_number      14
_space_group_name_Hall           '-P 2ybc'
loop_
_symmetry_equiv_pos_site_id
_symmetry_equiv_pos_as_xyz
1 x,y,z
2 -x,1/2+y,1/2-z
3 -x,-y,-z
4 x,1/2-y,1/2+z
_cell_length_a                   19.196(3)
_cell_length_b                   7.6951(10)
_cell_length_c                   15.216(2)
_cell_angle_alpha                90
_cell_angle_beta                 97.590(2)
_cell_angle_gamma                90
_cell_volume                     2227.94
_exptl_crystal_description       block
_cell_formula_units_Z            4
loop_
_atom_site_label
_atom_site_type_symbol
_atom_site_fract_x
_atom_site_fract_y
_atom_site_fract_z
Si1 Si 0.67687(6) 0.69340(16) 0.13159(8)
O1 O 0.70133(16) 0.8396(4) 0.20748(19)
O2 O 1.04718(17) 1.0514(5) 0.2935(2)
N1 N 0.80055(18) 1.0095(4) 0.1813(2)
O3 O 0.90374(15) 1.1352(3) 0.25011(17)
C1 C 0.5342(3) 0.7498(10) 0.1336(5)
H1 H 0.5228 0.7516 0.0702
H2 H 0.5511 0.8621 0.1539
H3 H 0.4929 0.7212 0.1600
C2 C 0.5922(3) 0.6110(7) 0.1604(4)
C3 C 0.7271(2) 1.0087(5) 0.1994(3)
H4 H 0.6974 1.0710 0.1523
C4 C 0.8350(2) 1.0984(5) 0.2426(3)
C5 C 0.9428(2) 1.0631(5) 0.1845(2)
H5 H 0.9323 0.9390 0.1768
C6 C 1.0203(2) 1.0879(6) 0.2192(3)
C7 C 1.0540(2) 1.1638(5) 0.1477(3)
C8 C 1.1242(2) 1.2027(5) 0.1464(3)
H6 H 1.1576 1.1784 0.1948
C9 C 1.1430(3) 1.2788(6) 0.0706(4)
H7 H 1.1898 1.3064 0.0679
C10 C 0.5972(4) 0.5821(10) 0.2604(4)
H8 H 0.5562 0.5209 0.2736
H9 H 0.6001 0.6924 0.2902
H10 H 0.6384 0.5150 0.2803
C11 C 0.7446(3) 0.5209(7) 0.1428(4)
H11 H 0.7901 0.5722 0.1419
H12 H 0.7353 0.4404 0.0945
H13 H 0.7437 0.4605 0.1979
C12 C 0.6684(3) 0.7878(7) 0.0194(3)
H14 H 0.6312 0.8720 0.0130
H15 H 0.6579 0.6973 -0.0238
H16 H 0.7117 0.8432 0.0105
C13 C 1.0935(3) 1.3139(6) -0.0003(3)
H17 H 1.1075 1.3649 -0.0506
C14 C 1.0240(2) 1.2759(5) 0.0008(3)
H18 H 0.9911 1.2999 -0.0482
C15 C 1.0035(2) 1.2011(5) 0.0760(3)
C16 C 0.9313(2) 1.1546(6) 0.0949(3)
H19 H 0.9082 1.0780 0.0495
H20 H 0.9028 1.2580 0.0977
C17 C 0.7951(2) 1.1658(5) 0.3109(3)
C18 C 0.8127(2) 1.2609(6) 0.3866(3)
H21 H 0.8583 1.3010 0.4023
C19 C 0.7610(3) 1.2957(6) 0.4390(3)
H22 H 0.7714 1.3610 0.4905
C20 C 0.6942(3) 1.2335(7) 0.4148(3)
H23 H 0.6599 1.2574 0.4510
C21 C 0.6760(2) 1.1379(6) 0.3396(3)
H24 H 0.6304 1.0967 0.3245
C22 C 0.7279(2) 1.1044(5) 0.2867(3)
C23 C 0.5721(3) 0.4416(8) 0.1112(5)
H25 H 0.6064 0.3539 0.1302
H26 H 0.5707 0.4600 0.0486
H27 H 0.5268 0.4043 0.1238
loop_
_geom_bond_atom_site_label_1
_geom_bond_atom_site_label_2
_geom_bond_site_symmetry_1
_geom_bond_site_symmetry_2
Si1 O1 1_555 1_555
O1 C3 1_555 1_555
O2 C6 1_555 1_555
N1 C3 1_555 1_555
O3 C4 1_555 1_555
C1 H1 1_555 1_555
H2 C1 1_555 1_555
H3 C1 1_555 1_555
C2 Si1 1_555 1_555
C3 H4 1_555 1_555
C4 N1 1_555 1_555
C5 O3 1_555 1_555
H5 C5 1_555 1_555
C6 C5 1_555 1_555
C7 C6 1_555 1_555
C8 C7 1_555 1_555
H6 C8 1_555 1_555
C9 C8 1_555 1_555
H7 C9 1_555 1_555
C10 C2 1_555 1_555
H8 C10 1_555 1_555
H9 C10 1_555 1_555
H10 C10 1_555 1_555
C11 Si1 1_555 1_555
H11 C11 1_555 1_555
H12 C11 1_555 1_555
H13 C11 1_555 1_555
C12 Si1 1_555 1_555
H14 C12 1_555 1_555
H15 C12 1_555 1_555
H16 C12 1_555 1_555
C13 C9 1_555 1_555
H17 C13 1_555 1_555
C14 C13 1_555 1_555
H18 C14 1_555 1_555
C15 C7 1_555 1_555
C16 C5 1_555 1_555
H19 C16 1_555 1_555
H20 C16 1_555 1_555
C17 C4 1_555 1_555
C18 C17 1_555 1_555
H21 C18 1_555 1_555
C19 C18 1_555 1_555
H22 C19 1_555 1_555
C20 C19 1_555 1_555
H23 C20 1_555 1_555
C21 C20 1_555 1_555
H24 C21 1_555 1_555
C22 C3 1_555 1_555
C23 C2 1_555 1_555
H25 C23 1_555 1_555
H26 C23 1_555 1_555
H27 C23 1_555 1_555
C1 C2 1_555 1_555
C14 C15 1_555 1_555
C15 C16 1_555 1_555
C17 C22 1_555 1_555
C21 C22 1_555 1_555

#END
