
#######################################################################
#
#                 Cambridge Crystallographic Data Centre
#                                CCDC 
#
#######################################################################
#
# If this CIF has been generated from an entry in the Cambridge 
# Structural Database, then it will include bibliographic, chemical, 
# crystal, experimental, refinement or atomic coordinate data resulting 
# from the CCDC's data processing and validation procedures.
#
#######################################################################

data_PAPZIR
_chemical_formula_moiety         
'4(C6 H5 N1 O3),C30 H30 N20 O10,Rb1 1+,Cl1 1-,18(H2 O1)'
_chemical_name_systematic        
'rubidium cucurbit[5]uril chloride tetrakis(4-nitrophenol) octadecahydrate'
_symmetry_cell_setting           orthorhombic
_symmetry_space_group_name_H-M   'I b c a'
_symmetry_Int_Tables_number      73
_space_group_name_Hall           '-I 2b 2c'
loop_
_symmetry_equiv_pos_site_id
_symmetry_equiv_pos_as_xyz
1 x,y,z
2 1/2-x,-y,1/2+z
3 -x,1/2+y,1/2-z
4 1/2+x,1/2-y,-z
5 1/2+x,1/2+y,1/2+z
6 -x,1/2-y,z
7 1/2-x,y,-z
8 x,-y,1/2-z
9 -x,-y,-z
10 1/2+x,y,1/2-z
11 x,1/2-y,1/2+z
12 1/2-x,1/2+y,z
13 1/2-x,1/2-y,1/2-z
14 x,1/2+y,-z
15 1/2+x,-y,z
16 -x,y,1/2+z
_cell_length_a                   17.787(7)
_cell_length_b                   18.343(8)
_cell_length_c                   49.14(2)
_cell_angle_alpha                90
_cell_angle_beta                 90
_cell_angle_gamma                90
_cell_volume                     16032.8
_exptl_crystal_colour            colorless
_exptl_crystal_description       prism
_cell_formula_units_Z            8
loop_
_atom_site_label
_atom_site_type_symbol
_atom_site_fract_x
_atom_site_fract_y
_atom_site_fract_z
O1 O 0.7845(8) 0.0128(7) 0.1877(3)
O2 O 0.8984(11) -0.0604(9) 0.1506(3)
Rb1 Rb 0.85277(12) 0.08801(9) 0.13658(4)
Cl1 Cl 0.7886(11) 0.1993(16) 0.2646(4)
C1 C 0.9289(4) 0.1700(4) 0.07085(13)
C2 C 0.9668(4) 0.2773(4) 0.05040(14)
H1 H 0.9509 0.2895 0.0316
C3 C 1.0410(4) 0.0907(4) 0.06737(15)
H2 H 1.0729 0.0828 0.0514
H3 H 1.0037 0.0514 0.0679
C4 C 1.0590(5) 0.0588(4) 0.11568(17)
C5 C 1.1640(4) 0.1121(4) 0.09370(16)
H4 H 1.1976 0.0863 0.0809
C6 C 1.1840(4) 0.0934(4) 0.12453(18)
H5 H 1.2238 0.0558 0.1259
C7 C 1.1065(5) 0.0359(5) 0.16196(19)
H6 H 1.1548 0.0149 0.1675
H7 H 1.0695 -0.0037 0.1612
C8 C 1.0094(7) 0.1016(5) 0.18944(19)
C9 C 1.1329(6) 0.1365(6) 0.1971(2)
H8 H 1.1691 0.1074 0.2079
C10 C 1.0834(7) 0.1832(6) 0.21561(18)
H9 H 1.0936 0.1740 0.2351
C11 C 0.9352(7) 0.1798(6) 0.2208(2)
H10 H 0.8987 0.1398 0.2203
H11 H 0.9462 0.1904 0.2400
C12 C 1.1534(6) 0.2604(7) 0.1882(2)
C13 C 1.2330(5) 0.1750(5) 0.16291(17)
H12 H 1.2587 0.1311 0.1694
H13 H 1.2692 0.2154 0.1635
C14 C 1.2060(4) 0.2179(4) 0.11583(18)
C15 C 0.8333(4) 0.2665(4) 0.06884(16)
H14 H 0.8192 0.2957 0.0529
H15 H 0.7985 0.2252 0.0699
N1 N 0.9082(3) 0.2391(3) 0.06490(12)
N2 N 1.0027(3) 0.1589(3) 0.06440(11)
N3 N 1.0877(3) 0.0860(3) 0.09179(13)
N4 N 1.1139(3) 0.0682(4) 0.13542(14)
N5 N 1.0823(5) 0.0903(4) 0.18249(15)
N6 N 1.0060(5) 0.1556(4) 0.20710(16)
N7 N 1.0980(6) 0.2561(5) 0.20836(16)
N8 N 1.1717(5) 0.1911(5) 0.18069(16)
N9 N 1.2093(4) 0.1639(4) 0.13513(14)
N10 N 0.8247(3) 0.3100(3) 0.09272(13)
O3 O 0.8881(3) 0.1213(3) 0.08131(10)
O4 O 0.9967(3) 0.0308(3) 0.11887(11)
O5 O 0.9537(4) 0.0672(4) 0.18006(13)
O6 O 1.1810(4) 0.3170(4) 0.17981(14)
O7 O 1.2263(3) 0.2796(3) 0.11933(13)
C1E C 1.0711(4) 0.3300(4) 0.07085(13)
C2E C 1.0332(4) 0.2227(4) 0.05040(14)
H1E H 1.0491 0.2105 0.0316
C3E C 0.9590(4) 0.4093(4) 0.06737(15)
H2E H 0.9271 0.4172 0.0514
H3E H 0.9963 0.4486 0.0679
C4E C 0.9410(5) 0.4412(4) 0.11568(17)
C5E C 0.8360(4) 0.3879(4) 0.09370(16)
H4E H 0.8024 0.4137 0.0809
C6E C 0.8160(4) 0.4066(4) 0.12453(18)
H5E H 0.7762 0.4442 0.1259
C7E C 0.8935(5) 0.4641(5) 0.16196(19)
H6E H 0.8452 0.4851 0.1675
H7E H 0.9305 0.5037 0.1612
C8E C 0.9906(7) 0.3984(5) 0.18944(19)
C9E C 0.8671(6) 0.3635(6) 0.1971(2)
H8E H 0.8309 0.3926 0.2079
C10E C 0.9166(7) 0.3168(6) 0.21561(18)
H9E H 0.9064 0.3260 0.2351
C11E C 1.0648(7) 0.3202(6) 0.2208(2)
H10E H 1.1013 0.3602 0.2203
H11E H 1.0538 0.3096 0.2400
C12E C 0.8466(6) 0.2396(7) 0.1882(2)
C13E C 0.7670(5) 0.3250(5) 0.16291(17)
H12E H 0.7413 0.3689 0.1694
H13E H 0.7308 0.2846 0.1635
C14E C 0.7940(4) 0.2821(4) 0.11583(18)
C15E C 1.1667(4) 0.2335(4) 0.06884(16)
H14E H 1.1808 0.2043 0.0529
H15E H 1.2015 0.2748 0.0699
N1E N 1.0918(3) 0.2609(3) 0.06490(12)
N2E N 0.9973(3) 0.3411(3) 0.06440(11)
N3E N 0.9123(3) 0.4140(3) 0.09179(13)
N4E N 0.8861(3) 0.4318(4) 0.13542(14)
N5E N 0.9177(5) 0.4097(4) 0.18249(15)
N6E N 0.9940(5) 0.3444(4) 0.20710(16)
N7E N 0.9020(6) 0.2439(5) 0.20836(16)
N8E N 0.8283(5) 0.3089(5) 0.18069(16)
N9E N 0.7907(4) 0.3361(4) 0.13513(14)
N10E N 1.1753(3) 0.1900(3) 0.09272(13)
O3E O 1.1119(3) 0.3787(3) 0.08131(10)
O4E O 1.0033(3) 0.4692(3) 0.11887(11)
O5E O 1.0463(4) 0.4328(4) 0.18006(13)
O6E O 0.8190(4) 0.1830(4) 0.17981(14)
O7E O 0.7737(3) 0.2204(3) 0.11933(13)
C16 C 0.6558(5) 0.0920(4) 0.08612(17)
C17 C 0.7065(4) 0.0905(4) 0.06557(19)
H16 H 0.7574 0.0823 0.0696
C18 C 0.6851(5) 0.1006(5) 0.0386(2)
H17 H 0.7207 0.0996 0.0245
C19 C 0.6098(4) 0.1123(4) 0.03345(16)
C20 C 0.5581(4) 0.1153(5) 0.05388(18)
H18 H 0.5072 0.1241 0.0498
C21 C 0.5805(5) 0.1055(5) 0.08044(19)
H19 H 0.5452 0.1080 0.0946
N11 N 0.5842(5) 0.1214(5) 0.00523(18)
O8 O 0.6782(4) 0.0825(4) 0.11230(13)
O9 O 0.5178(4) 0.1258(6) 0.00055(16)
O10 O 0.6306(5) 0.1252(8) -0.01259(18)
C22 C 0.3704(5) 0.1382(5) 0.08725(15)
C23 C 0.3626(8) 0.1992(6) 0.07115(19)
H20 H 0.3659 0.2475 0.0775
C24 C 0.3496(5) 0.1801(3) 0.04446(18)
H21 H 0.3403 0.2183 0.0322
C25 C 0.3488(4) 0.1105(3) 0.03397(10)
C26 C 0.3567(5) 0.0529(3) 0.05161(12)
H22 H 0.3542 0.0046 0.0452
C27 C 0.3682(5) 0.0667(4) 0.07872(11)
H23 H 0.3745 0.0284 0.0912
N12 N 0.3444(6) 0.0881(5) 0.00504(10)
O11 O 0.3835(6) 0.1486(9) 0.1151(2)
H24 H 0.3836 0.1929 0.1185
O12 O 0.3304(4) 0.1371(6) -0.01087(11)
O13 O 0.3069(12) 0.0336(9) 0.0008(2)
Rb2? Rb 0.8126(10) 0.0708(8) 0.1284(3)
loop_
_geom_bond_atom_site_label_1
_geom_bond_atom_site_label_2
_geom_bond_site_symmetry_1
_geom_bond_site_symmetry_2
C1 N1 1_555 1_555
C2 H1 1_555 1_555
C3 H2 1_555 1_555
H3 C3 1_555 1_555
C4 N3 1_555 1_555
C5 H4 1_555 1_555
C6 C5 1_555 1_555
H5 C6 1_555 1_555
C7 H6 1_555 1_555
H7 C7 1_555 1_555
C8 N5 1_555 1_555
C9 H8 1_555 1_555
C10 C9 1_555 1_555
H9 C10 1_555 1_555
C11 H10 1_555 1_555
H11 C11 1_555 1_555
C12 N7 1_555 1_555
C13 H12 1_555 1_555
H13 C13 1_555 1_555
C14 N9 1_555 1_555
C15 H14 1_555 1_555
H15 C15 1_555 1_555
N1 C2 1_555 1_555
N2 C1 1_555 1_555
N3 C3 1_555 1_555
N4 C4 1_555 1_555
N5 C7 1_555 1_555
N6 C8 1_555 1_555
N7 C10 1_555 1_555
N8 C9 1_555 1_555
N9 C6 1_555 1_555
N10 C15 1_555 1_555
O3 C1 1_555 1_555
O4 C4 1_555 1_555
O5 C8 1_555 1_555
O6 C12 1_555 1_555
O7 C14 1_555 1_555
C16 C17 1_555 1_555
C17 H16 1_555 1_555
C18 C17 1_555 1_555
H17 C18 1_555 1_555
C19 C18 1_555 1_555
C20 C19 1_555 1_555
H18 C20 1_555 1_555
C21 C16 1_555 1_555
H19 C21 1_555 1_555
C22 C23 1_555 1_555
C23 H20 1_555 1_555
C24 C23 1_555 1_555
H21 C24 1_555 1_555
C25 C24 1_555 1_555
C26 C25 1_555 1_555
H22 C26 1_555 1_555
C27 C22 1_555 1_555
H23 C27 1_555 1_555
N11 C19 1_555 1_555
N12 C25 1_555 1_555
O8 C16 1_555 1_555
O9 N11 1_555 1_555
O10 N11 1_555 1_555
O11 C22 1_555 1_555
H24 O11 1_555 1_555
O12 N12 1_555 1_555
O13 N12 1_555 1_555
C1E N1E 1_555 1_555
C2E C2 1_555 1_555
H1E C2E 1_555 1_555
C3E H2E 1_555 1_555
H3E C3E 1_555 1_555
C4E N3E 1_555 1_555
C5E N10 1_555 1_555
H4E C5E 1_555 1_555
C6E C5E 1_555 1_555
H5E C6E 1_555 1_555
C7E H6E 1_555 1_555
H7E C7E 1_555 1_555
C8E N5E 1_555 1_555
C9E H8E 1_555 1_555
C10E C9E 1_555 1_555
H9E C10E 1_555 1_555
C11E N7 1_555 1_555
H10E C11E 1_555 1_555
H11E C11E 1_555 1_555
C12E N7E 1_555 1_555
C13E H12E 1_555 1_555
H13E C13E 1_555 1_555
C14E N10 1_555 1_555
C15E H14E 1_555 1_555
H15E C15E 1_555 1_555
N1E C2E 1_555 1_555
N2E C2 1_555 1_555
N3E C3E 1_555 1_555
N4E C4E 1_555 1_555
N5E C7E 1_555 1_555
N6E C8E 1_555 1_555
N7E C11 1_555 1_555
N8E C9E 1_555 1_555
N9E C6E 1_555 1_555
N10E C5 1_555 1_555
O3E C1E 1_555 1_555
O4E C4E 1_555 1_555
O5E C8E 1_555 1_555
O6E C12E 1_555 1_555
O7E C14E 1_555 1_555
C3 N2 1_555 1_555
C5 N3 1_555 1_555
C6 N4 1_555 1_555
C7 N4 1_555 1_555
C9 N5 1_555 1_555
C10 N6 1_555 1_555
C11 N6 1_555 1_555
C12 N8 1_555 1_555
C13 N8 1_555 1_555
C13 N9 1_555 1_555
C14 N10E 1_555 1_555
C15 N1 1_555 1_555
N2 C2E 1_555 1_555
C20 C21 1_555 1_555
C26 C27 1_555 1_555
C1E N2E 1_555 1_555
C3E N2E 1_555 1_555
C5E N3E 1_555 1_555
C6E N4E 1_555 1_555
C7E N4E 1_555 1_555
C9E N5E 1_555 1_555
C10E N6E 1_555 1_555
C10E N7E 1_555 1_555
C11E N6E 1_555 1_555
C12E N8E 1_555 1_555
C13E N8E 1_555 1_555
C13E N9E 1_555 1_555
C14E N9E 1_555 1_555
C15E N1E 1_555 1_555
C15E N10E 1_555 1_555

#END
