
#######################################################################
#
#                 Cambridge Crystallographic Data Centre
#                                CCDC 
#
#######################################################################
#
# If this CIF has been generated from an entry in the Cambridge 
# Structural Database, then it will include bibliographic, chemical, 
# crystal, experimental, refinement or atomic coordinate data resulting 
# from the CCDC's data processing and validation procedures.
#
#######################################################################

data_PAPZUB
_chemical_formula_moiety         'C15 H18 O2'
_chemical_name_systematic        'Tetrahydrofurano-dehydroilludin M'
_symmetry_cell_setting           orthorhombic
_symmetry_space_group_name_H-M   'P 21 21 21'
_symmetry_Int_Tables_number      19
_space_group_name_Hall           'P 2ac 2ab'
loop_
_symmetry_equiv_pos_site_id
_symmetry_equiv_pos_as_xyz
1 x,y,z
2 1/2+x,1/2-y,-z
3 -x,1/2+y,1/2-z
4 1/2-x,-y,1/2+z
_cell_length_a                   8.567(4)
_cell_length_b                   15.259(8)
_cell_length_c                   20.326(7)
_cell_angle_alpha                90
_cell_angle_beta                 90
_cell_angle_gamma                90
_cell_volume                     2657.09
_exptl_crystal_colour            colorless
_chemical_melting_point          '129-131 deg.C'
_cell_formula_units_Z            8
loop_
_atom_site_label
_atom_site_type_symbol
_atom_site_fract_x
_atom_site_fract_y
_atom_site_fract_z
O1 O 0.3569(5) 0.5092(3) 0.9386(2)
O3 O 0.4695(5) 0.3567(3) 0.8842(2)
C1 C -0.0046(7) 0.3839(3) 0.9159(2)
C3 C -0.1518(7) 0.4051(3) 0.9308(2)
C5 C -0.1547(8) 0.4883(4) 0.9719(3)
C7 C 0.0141(7) 0.5116(4) 0.9760(3)
C9 C 0.0998(7) 0.4519(4) 0.9442(3)
C11 C 0.2675(8) 0.4475(4) 0.9340(3)
C13 C 0.3262(7) 0.3541(4) 0.9201(3)
C15 C 0.2147(7) 0.3026(3) 0.8757(3)
C17 C 0.0606(7) 0.3129(3) 0.8752(2)
C19 C -0.0476(7) 0.2576(4) 0.8353(3)
C21 C -0.2481(8) 0.5618(4) 0.9393(4)
C23 C -0.2212(9) 0.4698(4) 1.0401(3)
C25 C 0.3471(9) 0.3093(4) 0.9866(3)
C27 C 0.3173(8) 0.2453(4) 0.8323(3)
C29 C 0.4771(9) 0.2830(6) 0.8421(4)
H1 H -0.2425 0.3727 0.9174
H3 H 0.0550 0.5619 0.9986
H5 H 0.0111 0.2141 0.8118
H6 H -0.1219 0.2292 0.8636
H7 H -0.1018 0.2944 0.8046
H11 H -0.2470 0.6131 0.9666
H12 H -0.2032 0.5754 0.8973
H13 H -0.3538 0.5423 0.9334
H17 H -0.1623 0.4243 1.0613
H18 H -0.2154 0.5224 1.0659
H19 H -0.3282 0.4518 1.0362
H23 H 0.3840 0.2505 0.9799
H24 H 0.4221 0.3415 1.0121
H25 H 0.2493 0.3078 1.0096
H29 H 0.2860 0.2494 0.7871
H30 H 0.3128 0.1850 0.8458
H33 H 0.5437 0.2394 0.8613
H34 H 0.5205 0.2997 0.8004
O2 O 1.1452(5) 0.2360(3) 0.6676(2)
O4 O 1.2471(5) 0.3970(3) 0.7076(2)
C2 C 0.7770(7) 0.3572(3) 0.6756(3)
C4 C 0.6311(7) 0.3293(3) 0.6623(3)
C6 C 0.6319(7) 0.2402(3) 0.6314(3)
C8 C 0.8038(7) 0.2211(4) 0.6290(3)
C10 C 0.8853(7) 0.2874(4) 0.6545(3)
C12 C 1.0529(8) 0.2973(5) 0.6644(3)
C14 C 1.1049(7) 0.3916(4) 0.6712(3)
C16 C 0.9898(8) 0.4474(3) 0.7105(3)
C18 C 0.8363(8) 0.4343(3) 0.7102(2)
C20 C 0.7232(7) 0.4929(3) 0.7462(3)
C22 C 0.5478(7) 0.1732(4) 0.6750(3)
C24 C 0.5575(7) 0.2400(4) 0.5631(3)
C26 C 1.1294(8) 0.4266(4) 0.6019(3)
C28 C 1.0850(7) 0.5114(4) 0.7508(3)
C30 C 1.2523(8) 0.4797(5) 0.7400(3)
H2 H 0.5387 0.3632 0.6703
H4 H 0.8489 0.1686 0.6113
H8 H 0.7782 0.5406 0.7664
H9 H 0.6482 0.5156 0.7155
H10 H 0.6704 0.4594 0.7794
H14 H 0.5939 0.1731 0.7180
H15 H 0.4394 0.1884 0.6784
H16 H 0.5576 0.1160 0.6558
H20 H 0.6101 0.2821 0.5359
H21 H 0.5673 0.1828 0.5439
H22 H 0.4490 0.2552 0.5665
H26 H 1.2021 0.3903 0.5785
H27 H 1.0309 0.4266 0.5794
H28 H 1.1690 0.4854 0.6042
H31 H 1.0569 0.5087 0.7965
H32 H 1.0724 0.5705 0.7354
H35 H 1.3090 0.5213 0.7138
H36 H 1.3048 0.4738 0.7815
loop_
_geom_bond_atom_site_label_1
_geom_bond_atom_site_label_2
_geom_bond_site_symmetry_1
_geom_bond_site_symmetry_2
O1 C11 1_555 1_555
O2 C12 1_555 1_555
O3 C13 1_555 1_555
O4 C14 1_555 1_555
C1 C3 1_555 1_555
C2 C4 1_555 1_555
C3 C5 1_555 1_555
C4 C6 1_555 1_555
C5 C7 1_555 1_555
C6 C8 1_555 1_555
C7 C9 1_555 1_555
C8 C10 1_555 1_555
C9 C1 1_555 1_555
C10 C2 1_555 1_555
C11 C9 1_555 1_555
C12 C10 1_555 1_555
C13 C11 1_555 1_555
C14 C12 1_555 1_555
C15 C13 1_555 1_555
C16 C14 1_555 1_555
C17 C1 1_555 1_555
C18 C2 1_555 1_555
C19 C17 1_555 1_555
C20 C18 1_555 1_555
C21 C5 1_555 1_555
C22 C6 1_555 1_555
C23 C5 1_555 1_555
C24 C6 1_555 1_555
C25 C13 1_555 1_555
C26 C14 1_555 1_555
C27 C15 1_555 1_555
C28 C16 1_555 1_555
C29 O3 1_555 1_555
C30 O4 1_555 1_555
H1 C3 1_555 1_555
H2 C4 1_555 1_555
H3 C7 1_555 1_555
H4 C8 1_555 1_555
H5 C19 1_555 1_555
H6 C19 1_555 1_555
H7 C19 1_555 1_555
H8 C20 1_555 1_555
H9 C20 1_555 1_555
H10 C20 1_555 1_555
H11 C21 1_555 1_555
H12 C21 1_555 1_555
H13 C21 1_555 1_555
H14 C22 1_555 1_555
H15 C22 1_555 1_555
H16 C22 1_555 1_555
H17 C23 1_555 1_555
H18 C23 1_555 1_555
H19 C23 1_555 1_555
H20 C24 1_555 1_555
H21 C24 1_555 1_555
H22 C24 1_555 1_555
H23 C25 1_555 1_555
H24 C25 1_555 1_555
H25 C25 1_555 1_555
H26 C26 1_555 1_555
H27 C26 1_555 1_555
H28 C26 1_555 1_555
H29 C27 1_555 1_555
H30 C27 1_555 1_555
H31 C28 1_555 1_555
H32 C28 1_555 1_555
H33 C29 1_555 1_555
H34 C29 1_555 1_555
H35 C30 1_555 1_555
H36 C30 1_555 1_555
C15 C17 1_555 1_555
C16 C18 1_555 1_555
C27 C29 1_555 1_555
C28 C30 1_555 1_555

#END
