
#######################################################################
#
#                 Cambridge Crystallographic Data Centre
#                                CCDC 
#
#######################################################################
#
# If this CIF has been generated from an entry in the Cambridge 
# Structural Database, then it will include bibliographic, chemical, 
# crystal, experimental, refinement or atomic coordinate data resulting 
# from the CCDC's data processing and validation procedures.
#
#######################################################################

data_PAPZIQ
_chemical_formula_moiety         'C58 H46 Si2'
_chemical_name_systematic        
1,1'-Bi(1-methyl-2,3,4,5-tetraphenyl-1-silacyclopenta-2,4-diene)
_symmetry_cell_setting           monoclinic
_symmetry_space_group_name_H-M   'P 21/c'
_symmetry_Int_Tables_number      14
_space_group_name_Hall           '-P 2ybc'
loop_
_symmetry_equiv_pos_site_id
_symmetry_equiv_pos_as_xyz
1 x,y,z
2 -x,1/2+y,1/2-z
3 -x,-y,-z
4 x,1/2-y,1/2+z
_cell_length_a                   12.4024(9)
_cell_length_b                   19.9497(14)
_cell_length_c                   18.2523(13)
_cell_angle_alpha                90
_cell_angle_beta                 104.9510(10)
_cell_angle_gamma                90
_cell_volume                     4363.18
_exptl_crystal_colour            'light yellow'
_exptl_crystal_description       Block
_chemical_melting_point          'above 250 deg.C'
_cell_formula_units_Z            4
_exptl_crystal_recrystallization_method xylenes
loop_
_atom_site_label
_atom_site_type_symbol
_atom_site_fract_x
_atom_site_fract_y
_atom_site_fract_z
Si1 Si 0.05443(4) 0.46503(2) 0.20707(3)
Si2 Si 0.15505(4) 0.48683(2) 0.33423(3)
C1 C -0.09767(13) 0.45331(8) 0.20245(9)
C2 C -0.15540(13) 0.50253(8) 0.15794(9)
C3 C -0.08812(13) 0.54930(8) 0.12278(9)
C4 C 0.02406(13) 0.53854(8) 0.14144(9)
C5 C 0.12300(15) 0.39493(10) 0.16842(11)
C6 C 0.17552(13) 0.57672(8) 0.36391(9)
C7 C 0.28597(13) 0.59127(8) 0.37766(9)
C8 C 0.35984(13) 0.53529(8) 0.36414(9)
C9 C 0.30873(13) 0.47551(8) 0.34356(9)
C10 C 0.09219(16) 0.43650(11) 0.39936(11)
C11 C -0.14106(13) 0.40496(8) 0.24916(9)
C12 C -0.09860(14) 0.33970(9) 0.25921(10)
C13 C -0.13213(15) 0.29491(9) 0.30728(11)
C14 C -0.20904(16) 0.31433(10) 0.34643(10)
C15 C -0.25246(16) 0.37877(10) 0.33705(10)
C16 C -0.21894(15) 0.42373(9) 0.28930(10)
C17 C -0.27869(13) 0.51303(8) 0.14198(9)
C18 C -0.35210(14) 0.46362(9) 0.10530(10)
C19 C -0.46676(15) 0.47340(9) 0.08960(11)
C20 C -0.50939(14) 0.53238(9) 0.11077(11)
C21 C -0.43727(15) 0.58196(9) 0.14699(11)
C22 C -0.32244(14) 0.57248(9) 0.16238(10)
C23 C -0.14477(13) 0.60610(9) 0.07475(9)
C24 C -0.22721(14) 0.59549(10) 0.00768(10)
C25 C -0.28093(15) 0.64961(11) -0.03415(11)
C26 C -0.25460(16) 0.71439(11) -0.00936(12)
C27 C -0.17188(17) 0.72567(10) 0.05673(13)
C28 C -0.11719(15) 0.67184(9) 0.09830(11)
C29 C 0.10449(13) 0.57741(8) 0.11138(9)
C30 C 0.08735(14) 0.58892(9) 0.03361(10)
C31 C 0.16244(16) 0.62729(10) 0.00654(11)
C32 C 0.25552(15) 0.65496(9) 0.05654(11)
C33 C 0.27462(14) 0.64281(9) 0.13357(11)
C34 C 0.20066(14) 0.60367(9) 0.16087(10)
C35 C 0.08850(13) 0.62436(8) 0.37358(10)
C36 C -0.00663(14) 0.63434(9) 0.31433(10)
C37 C -0.08689(15) 0.68131(10) 0.32067(11)
C38 C -0.07530(15) 0.71689(9) 0.38709(11)
C39 C 0.01710(16) 0.70566(10) 0.44756(12)
C40 C 0.09863(15) 0.66012(10) 0.44068(11)
C41 C 0.33449(13) 0.65875(8) 0.40045(9)
C42 C 0.29895(14) 0.71331(9) 0.35251(10)
C43 C 0.34684(14) 0.77615(9) 0.36978(10)
C44 C 0.43046(14) 0.78531(9) 0.43623(11)
C45 C 0.46481(14) 0.73186(9) 0.48509(10)
C46 C 0.41764(14) 0.66906(9) 0.46741(10)
C47 C 0.48150(13) 0.54814(8) 0.37411(9)
C48 C 0.51948(14) 0.60105(9) 0.33695(10)
C49 C 0.63318(15) 0.61289(9) 0.34839(10)
C50 C 0.71071(14) 0.57244(10) 0.39695(10)
C51 C 0.67399(15) 0.51970(9) 0.43385(10)
C52 C 0.56059(14) 0.50773(9) 0.42228(10)
C53 C 0.35917(13) 0.41457(8) 0.31965(10)
C54 C 0.42818(14) 0.41798(10) 0.26978(11)
C55 C 0.46684(16) 0.35974(11) 0.24339(12)
C56 C 0.43767(17) 0.29744(10) 0.26573(12)
C57 C 0.36977(17) 0.29310(10) 0.31516(12)
C58 C 0.33093(15) 0.35119(9) 0.34171(11)
H1 H 0.1419(18) 0.3560(12) 0.2034(13)
H2 H 0.0774(19) 0.3792(11) 0.1198(13)
H3 H 0.193(2) 0.4103(12) 0.1611(13)
H4 H 0.079(2) 0.3898(13) 0.3807(14)
H5 H 0.022(2) 0.4580(13) 0.4032(15)
H6 H 0.140(2) 0.4349(12) 0.4498(15)
H7 H -0.0466(18) 0.3249(11) 0.2310(12)
H8 H -0.1037(17) 0.2494(11) 0.3144(12)
H9 H -0.2312(18) 0.2823(11) 0.3809(13)
H10 H -0.305(2) 0.3927(12) 0.3645(14)
H11 H -0.2486(17) 0.4697(11) 0.2827(11)
H12 H -0.3242(17) 0.4233(11) 0.0907(12)
H13 H -0.5143(17) 0.4394(10) 0.0635(11)
H14 H -0.5886(18) 0.5388(11) 0.0984(12)
H15 H -0.4653(18) 0.6233(12) 0.1617(12)
H16 H -0.2728(19) 0.6072(12) 0.1898(13)
H17 H -0.2448(17) 0.5507(11) -0.0086(12)
H18 H -0.337(2) 0.6411(12) -0.0803(14)
H19 H -0.2897(19) 0.7498(12) -0.0381(13)
H20 H -0.1528(19) 0.7694(12) 0.0747(13)
H21 H -0.0599(18) 0.6790(11) 0.1457(12)
H22 H 0.0206(17) 0.5681(10) -0.0018(12)
H23 H 0.1502(18) 0.6359(11) -0.0480(13)
H24 H 0.3050(18) 0.6833(11) 0.0379(12)
H25 H 0.3389(17) 0.6631(10) 0.1684(12)
H26 H 0.2141(16) 0.5958(10) 0.2140(12)
H27 H -0.0150(18) 0.6095(11) 0.2674(13)
H28 H -0.1508(19) 0.6897(11) 0.2779(13)
H29 H -0.1315(19) 0.7508(12) 0.3906(13)
H30 H 0.0245(18) 0.7313(11) 0.4936(13)
H31 H 0.1646(18) 0.6535(11) 0.4833(13)
H32 H 0.2407(17) 0.7063(10) 0.3045(12)
H33 H 0.3232(16) 0.8124(11) 0.3358(11)
H34 H 0.4638(16) 0.8273(10) 0.4490(11)
H35 H 0.5199(18) 0.7371(11) 0.5317(13)
H36 H 0.4425(16) 0.6310(10) 0.5010(11)
H37 H 0.4655(16) 0.6310(10) 0.3031(11)
H38 H 0.6578(17) 0.6494(11) 0.3215(12)
H39 H 0.7889(19) 0.5802(11) 0.4056(12)
H40 H 0.7271(18) 0.4890(11) 0.4666(12)
H41 H 0.5366(17) 0.4714(11) 0.4468(12)
H42 H 0.4483(18) 0.4613(11) 0.2537(12)
H43 H 0.5154(19) 0.3627(11) 0.2102(13)
H44 H 0.462(2) 0.2584(13) 0.2499(14)
H45 H 0.351(2) 0.2491(13) 0.3306(13)
H46 H 0.2845(18) 0.3475(11) 0.3771(13)
loop_
_geom_bond_atom_site_label_1
_geom_bond_atom_site_label_2
_geom_bond_site_symmetry_1
_geom_bond_site_symmetry_2
Si1 Si2 1_555 1_555
Si2 C6 1_555 1_555
C1 Si1 1_555 1_555
C2 C1 1_555 1_555
C3 C2 1_555 1_555
C4 Si1 1_555 1_555
C5 Si1 1_555 1_555
C6 C7 1_555 1_555
C7 C8 1_555 1_555
C8 C9 1_555 1_555
C9 Si2 1_555 1_555
C10 Si2 1_555 1_555
C11 C1 1_555 1_555
C12 C11 1_555 1_555
C13 C12 1_555 1_555
C14 C13 1_555 1_555
C15 C14 1_555 1_555
C16 C11 1_555 1_555
C17 C2 1_555 1_555
C18 C17 1_555 1_555
C19 C18 1_555 1_555
C20 C19 1_555 1_555
C21 C20 1_555 1_555
C22 C17 1_555 1_555
C23 C3 1_555 1_555
C24 C23 1_555 1_555
C25 C24 1_555 1_555
C26 C25 1_555 1_555
C27 C26 1_555 1_555
C28 C23 1_555 1_555
C29 C4 1_555 1_555
C30 C29 1_555 1_555
C31 C30 1_555 1_555
C32 C31 1_555 1_555
C33 C32 1_555 1_555
C34 C29 1_555 1_555
C35 C6 1_555 1_555
C36 C35 1_555 1_555
C37 C36 1_555 1_555
C38 C37 1_555 1_555
C39 C38 1_555 1_555
C40 C35 1_555 1_555
C41 C7 1_555 1_555
C42 C41 1_555 1_555
C43 C42 1_555 1_555
C44 C43 1_555 1_555
C45 C44 1_555 1_555
C46 C41 1_555 1_555
C47 C8 1_555 1_555
C48 C47 1_555 1_555
C49 C48 1_555 1_555
C50 C49 1_555 1_555
C51 C50 1_555 1_555
C52 C47 1_555 1_555
C53 C9 1_555 1_555
C54 C53 1_555 1_555
C55 C54 1_555 1_555
C56 C55 1_555 1_555
C57 C56 1_555 1_555
C58 C53 1_555 1_555
H1 C5 1_555 1_555
H2 C5 1_555 1_555
H3 C5 1_555 1_555
H4 C10 1_555 1_555
H5 C10 1_555 1_555
H6 C10 1_555 1_555
H7 C12 1_555 1_555
H8 C13 1_555 1_555
H9 C14 1_555 1_555
H10 C15 1_555 1_555
H11 C16 1_555 1_555
H12 C18 1_555 1_555
H13 C19 1_555 1_555
H14 C20 1_555 1_555
H15 C21 1_555 1_555
H16 C22 1_555 1_555
H17 C24 1_555 1_555
H18 C25 1_555 1_555
H19 C26 1_555 1_555
H20 C27 1_555 1_555
H21 C28 1_555 1_555
H22 C30 1_555 1_555
H23 C31 1_555 1_555
H24 C32 1_555 1_555
H25 C33 1_555 1_555
H26 C34 1_555 1_555
H27 C36 1_555 1_555
H28 C37 1_555 1_555
H29 C38 1_555 1_555
H30 C39 1_555 1_555
H31 C40 1_555 1_555
H32 C42 1_555 1_555
H33 C43 1_555 1_555
H34 C44 1_555 1_555
H35 C45 1_555 1_555
H36 C46 1_555 1_555
H37 C48 1_555 1_555
H38 C49 1_555 1_555
H39 C50 1_555 1_555
H40 C51 1_555 1_555
H41 C52 1_555 1_555
H42 C54 1_555 1_555
H43 C55 1_555 1_555
H44 C56 1_555 1_555
H45 C57 1_555 1_555
H46 C58 1_555 1_555
C3 C4 1_555 1_555
C15 C16 1_555 1_555
C21 C22 1_555 1_555
C27 C28 1_555 1_555
C33 C34 1_555 1_555
C39 C40 1_555 1_555
C45 C46 1_555 1_555
C51 C52 1_555 1_555
C57 C58 1_555 1_555

#END
