
#######################################################################
#
#                 Cambridge Crystallographic Data Centre
#                                CCDC 
#
#######################################################################
#
# If this CIF has been generated from an entry in the Cambridge 
# Structural Database, then it will include bibliographic, chemical, 
# crystal, experimental, refinement or atomic coordinate data resulting 
# from the CCDC's data processing and validation procedures.
#
#######################################################################

data_PAQBEQ
_chemical_formula_moiety         
'4(C6 H5 N1 O3),C30 H30 N20 O10,Sr1 2+,2(Cl1 1-),12(H2 O1)'
_chemical_name_systematic        
'strontium cucurbit[5]uril dichloride tetrakis(4-nitrophenol) dodecahydrate'
_symmetry_cell_setting           monoclinic
_symmetry_space_group_name_H-M   'P 21/n'
_symmetry_Int_Tables_number      14
_space_group_name_Hall           '-P 2yn'
loop_
_symmetry_equiv_pos_site_id
_symmetry_equiv_pos_as_xyz
1 x,y,z
2 1/2-x,1/2+y,1/2-z
3 -x,-y,-z
4 1/2+x,1/2-y,1/2+z
_cell_length_a                   21.546(4)
_cell_length_b                   11.056(2)
_cell_length_c                   30.688(6)
_cell_angle_alpha                90
_cell_angle_beta                 105.313(2)
_cell_angle_gamma                90
_cell_volume                     7050.73
_exptl_crystal_colour            colorless
_exptl_crystal_description       prism
_cell_formula_units_Z            4
loop_
_atom_site_label
_atom_site_type_symbol
_atom_site_fract_x
_atom_site_fract_y
_atom_site_fract_z
O1 O 0.73636(17) -0.6328(3) 0.56809(12)
O2 O 0.63959(16) -1.2651(3) 0.49575(12)
O3 O 0.72040(19) -0.8720(3) 0.55728(14)
O4 O 0.6829(2) -1.2981(3) 0.59238(13)
O5 O 0.7860(2) -1.2787(3) 0.5348(2)
O6 O 0.7870(3) -1.3156(5) 0.6716(3)
O7 O 0.8866(5) -1.3054(6) 0.6200(4)
Sr1 Sr 0.71190(2) -1.11197(4) 0.548926(14)
Cl1 Cl 1.07468(17) -0.8706(3) 0.61208(13)
Cl2 Cl 1.2864(2) -1.2739(4) 0.68970(15)
Cl3 Cl 1.15098(19) -1.2456(4) 0.64204(14)
Cl4 Cl 0.94073(17) -0.7668(4) 0.88518(13)
C1 C 0.6771(2) -0.9249(4) 0.44629(14)
C2 C 0.63330(19) -0.7383(4) 0.41851(14)
H1 H 0.6037 -0.7292 0.3880
C3 C 0.7049(2) -0.7424(4) 0.41665(15)
H2 H 0.7090 -0.7277 0.3857
C4 C 0.6894(2) -0.5801(4) 0.46129(14)
C5 C 0.7880(2) -0.9108(4) 0.43979(15)
H3 H 0.8064 -0.8821 0.4157
H4 H 0.7862 -0.9993 0.4382
C6 C 0.79958(19) -0.6038(4) 0.45288(14)
H5 H 0.8121 -0.6205 0.4250
H6 H 0.8004 -0.5159 0.4571
C7 C 0.8433(2) -0.9504(4) 0.51921(15)
C8 C 0.8747(2) -0.7749(4) 0.48866(15)
H7 H 0.9005 -0.7780 0.4663
C9 C 0.9173(2) -0.7928(4) 0.53762(15)
H8 H 0.9635 -0.7985 0.5387
C10 C 0.86365(19) -0.6060(4) 0.53194(15)
C11 C 0.9186(2) -0.9627(4) 0.59420(14)
H9 H 0.9650 -0.9478 0.6042
H10 H 0.9122 -1.0502 0.5903
C12 C 0.9348(2) -0.6564(4) 0.60689(15)
H11 H 0.9377 -0.5682 0.6100
H12 H 0.9788 -0.6882 0.6143
C13 C 0.8417(2) -0.9844(4) 0.63993(15)
C14 C 0.91331(19) -0.8232(4) 0.65939(14)
H13 H 0.9590 -0.8350 0.6759
C15 C 0.86959(19) -0.8244(4) 0.69146(14)
H14 H 0.8949 -0.8324 0.7233
C16 C 0.8589(2) -0.6396(4) 0.65431(15)
C17 C 0.77997(19) -0.9725(4) 0.69739(15)
H15 H 0.7754 -1.0602 0.6932
H16 H 0.7938 -0.9565 0.7299
C18 C 0.7918(2) -0.6652(4) 0.70770(15)
H17 H 0.8039 -0.6988 0.7383
H18 H 0.7953 -0.5770 0.7103
C19 C 0.6735(2) -0.9664(4) 0.64403(15)
C20 C 0.69536(19) -0.8065(4) 0.69532(15)
H19 H 0.6958 -0.8134 0.7276
C21 C 0.6254(2) -0.7928(4) 0.66424(14)
H20 H 0.5930 -0.7941 0.6819
C22 C 0.6846(2) -0.6214(4) 0.65692(15)
C23 C 0.56128(19) -0.9309(4) 0.60260(14)
H21 H 0.5247 -0.9088 0.6144
H22 H 0.5607 -1.0190 0.5988
C24 C 0.5703(2) -0.6218(4) 0.61410(15)
H23 H 0.5751 -0.5338 0.6173
H24 H 0.5326 -0.6453 0.6244
C25 C 0.56981(18) -0.9302(4) 0.52484(15)
C26 C 0.5218(2) -0.7587(4) 0.54605(15)
H25 H 0.4776 -0.7573 0.5497
C27 C 0.52244(19) -0.7480(4) 0.49581(14)
H26 H 0.4783 -0.7418 0.4757
C28 C 0.5773(2) -0.5826(4) 0.53594(16)
C29 C 0.56390(19) -0.8937(4) 0.44527(14)
H27 H 0.5286 -0.8616 0.4210
H28 H 0.5622 -0.9821 0.4432
C30 C 0.5722(2) -0.5875(4) 0.45537(15)
H29 H 0.5756 -0.4994 0.4588
H30 H 0.5358 -0.6048 0.4293
N1 N 0.62429(16) -0.8526(3) 0.43841(12)
N2 N 0.72395(16) -0.8650(3) 0.43196(11)
N3 N 0.63126(16) -0.6339(3) 0.44631(12)
N4 N 0.73390(16) -0.6466(3) 0.44734(12)
N5 N 0.83016(16) -0.8751(3) 0.48311(12)
N6 N 0.89314(16) -0.9045(3) 0.55143(12)
N7 N 0.84626(16) -0.6570(3) 0.48991(12)
N8 N 0.90335(16) -0.6859(3) 0.56064(12)
N9 N 0.88960(16) -0.9224(3) 0.62874(12)
N10 N 0.82948(16) -0.9296(3) 0.67673(12)
N11 N 0.90243(16) -0.7037(3) 0.63897(12)
N12 N 0.83686(17) -0.7087(3) 0.68338(12)
N13 N 0.71803(17) -0.9161(3) 0.67876(13)
N14 N 0.61958(16) -0.8971(3) 0.63492(12)
N15 N 0.72559(16) -0.6968(3) 0.68634(12)
N16 N 0.62679(16) -0.6791(3) 0.64267(12)
N17 N 0.55318(17) -0.8747(3) 0.55890(12)
N18 N 0.55417(16) -0.8581(3) 0.48760(12)
N19 N 0.55915(16) -0.6536(3) 0.56688(12)
N20 N 0.55919(17) -0.6381(3) 0.49491(12)
O8 O 0.68180(13) -1.0273(3) 0.46201(10)
O9 O 0.81527(14) -1.0446(3) 0.52213(10)
O10 O 0.81511(14) -1.0741(3) 0.62070(10)
O11 O 0.67931(14) -1.0592(3) 0.62354(10)
O12 O 0.59394(14) -1.0309(3) 0.52619(10)
O13 O 0.70048(14) -0.4876(3) 0.48360(11)
O14 O 0.84899(14) -0.5056(3) 0.54219(10)
O15 O 0.84216(14) -0.5356(3) 0.64333(11)
O16 O 0.69662(15) -0.5206(3) 0.64577(12)
O17 O 0.60450(16) -0.4853(3) 0.54358(11)
C31 C 1.0760(2) -1.0390(4) 0.70128(16)
C32 C 1.0249(2) -1.1153(4) 0.68124(17)
H31 H 1.0250 -1.1565 0.6545
C33 C 0.9748(2) -1.1307(4) 0.69992(18)
H32 H 0.9412 -1.1838 0.6864
C34 C 0.9733(2) -1.0686(5) 0.73871(17)
C35 C 1.0225(2) -0.9889(5) 0.75887(17)
H33 H 1.0208 -0.9442 0.7846
C36 C 1.0738(2) -0.9770(4) 0.74031(17)
H34 H 1.1081 -0.9259 0.7543
N21 N 0.9213(2) -1.0857(5) 0.75847(18)
O18 O 1.12505(15) -1.0280(3) 0.68349(12)
H47 H 1.1243 -0.9599 0.6719
O19 O 0.88373(18) -1.1668(4) 0.74509(14)
O20 O 0.9149(2) -1.0141(5) 0.78801(16)
C37 C 1.0575(2) -0.5145(4) 0.68940(16)
C38 C 1.0742(3) -0.6174(5) 0.71508(17)
H35 H 1.1085 -0.6657 0.7117
C39 C 1.0406(3) -0.6498(5) 0.7457(2)
H36 H 1.0522 -0.7192 0.7637
C40 C 0.9895(3) -0.5785(6) 0.74961(19)
C41 C 0.9728(3) -0.4767(6) 0.72369(19)
H37 H 0.9381 -0.4285 0.7267
C42 C 1.0060(2) -0.4461(5) 0.69407(17)
H38 H 0.9941 -0.3767 0.6761
N22 N 0.9531(3) -0.6159(6) 0.7810(2)
O21 O 1.08828(18) -0.4813(3) 0.65903(12)
H48 H 1.1073 -0.5406 0.6521
O22 O 0.9670(4) -0.7116(6) 0.8013(2)
O23 O 0.9095(2) -0.5471(5) 0.78577(17)
C43 C 1.3043(2) -1.1461(4) 0.87229(17)
C44 C 1.2797(2) -1.2283(4) 0.89761(17)
H39 H 1.3064 -1.2900 0.9133
C45 C 1.2171(2) -1.2215(5) 0.90023(17)
H40 H 1.2008 -1.2789 0.9169
C46 C 1.1785(2) -1.1289(4) 0.87784(15)
C47 C 1.2010(2) -1.0447(4) 0.85302(16)
H41 H 1.1742 -0.9818 0.8384
C48 C 1.2629(2) -1.0531(4) 0.84978(16)
H42 H 1.2782 -0.9963 0.8323
N23 N 1.1135(2) -1.1204(5) 0.88085(15)
O24 O 1.36376(16) -1.1522(3) 0.87044(13)
H49 H 1.3778 -1.2214 0.8774
O25 O 1.09255(18) -1.2015(4) 0.90135(13)
O26 O 1.08009(19) -1.0335(4) 0.86330(14)
C49 C 1.2343(2) -1.3817(4) 0.78663(16)
C50 C 1.2230(2) -1.4754(5) 0.81282(17)
H43 H 1.2542 -1.5361 0.8224
C51 C 1.1664(2) -1.4807(5) 0.82491(17)
H44 H 1.1581 -1.5449 0.8426
C52 C 1.1214(2) -1.3894(4) 0.81053(15)
C53 C 1.1318(2) -1.2978(4) 0.78350(16)
H45 H 1.1003 -1.2380 0.7733
C54 C 1.1886(2) -1.2937(5) 0.77144(17)
H46 H 1.1964 -1.2310 0.7529
N24 N 1.0634(2) -1.3915(4) 0.82482(14)
O27 O 1.29137(16) -1.3731(3) 0.77506(13)
H50 H 1.3147 -1.4313 0.7859
O28 O 1.05524(19) -1.4748(4) 0.84925(14)
O29 O 1.02358(17) -1.3115(4) 0.81208(13)
loop_
_geom_bond_atom_site_label_1
_geom_bond_atom_site_label_2
_geom_bond_site_symmetry_1
_geom_bond_site_symmetry_2
C1 N1 1_555 1_555
C2 H1 1_555 1_555
C3 C2 1_555 1_555
H2 C3 1_555 1_555
C4 N3 1_555 1_555
C5 H3 1_555 1_555
H4 C5 1_555 1_555
C6 H5 1_555 1_555
H6 C6 1_555 1_555
C7 N5 1_555 1_555
C8 H7 1_555 1_555
C9 C8 1_555 1_555
H8 C9 1_555 1_555
C10 N7 1_555 1_555
C11 H9 1_555 1_555
H10 C11 1_555 1_555
C12 H11 1_555 1_555
H12 C12 1_555 1_555
C13 N9 1_555 1_555
C14 H13 1_555 1_555
C15 C14 1_555 1_555
H14 C15 1_555 1_555
C16 N11 1_555 1_555
C17 H15 1_555 1_555
H16 C17 1_555 1_555
C18 H17 1_555 1_555
H18 C18 1_555 1_555
C19 N13 1_555 1_555
C20 H19 1_555 1_555
C21 C20 1_555 1_555
H20 C21 1_555 1_555
C22 N15 1_555 1_555
C23 H21 1_555 1_555
H22 C23 1_555 1_555
C24 H23 1_555 1_555
H24 C24 1_555 1_555
C25 N17 1_555 1_555
C26 H25 1_555 1_555
C27 C26 1_555 1_555
H26 C27 1_555 1_555
C28 N19 1_555 1_555
C29 H27 1_555 1_555
H28 C29 1_555 1_555
C30 H29 1_555 1_555
H30 C30 1_555 1_555
N1 C2 1_555 1_555
N2 C1 1_555 1_555
N3 C2 1_555 1_555
N4 C3 1_555 1_555
N5 C5 1_555 1_555
N6 C7 1_555 1_555
N7 C6 1_555 1_555
N8 C9 1_555 1_555
N9 C11 1_555 1_555
N10 C13 1_555 1_555
N11 C12 1_555 1_555
N12 C15 1_555 1_555
N13 C17 1_555 1_555
N14 C19 1_555 1_555
N15 C18 1_555 1_555
N16 C21 1_555 1_555
N17 C23 1_555 1_555
N18 C25 1_555 1_555
N19 C24 1_555 1_555
N20 C27 1_555 1_555
O8 C1 1_555 1_555
O9 C7 1_555 1_555
O10 C13 1_555 1_555
O11 C19 1_555 1_555
O12 C25 1_555 1_555
O13 C4 1_555 1_555
O14 C10 1_555 1_555
O15 C16 1_555 1_555
O16 C22 1_555 1_555
O17 C28 1_555 1_555
C31 C32 1_555 1_555
C32 H31 1_555 1_555
C33 C32 1_555 1_555
H32 C33 1_555 1_555
C34 C33 1_555 1_555
C35 C34 1_555 1_555
H33 C35 1_555 1_555
C36 C31 1_555 1_555
H34 C36 1_555 1_555
C37 C38 1_555 1_555
C38 H35 1_555 1_555
C39 C38 1_555 1_555
H36 C39 1_555 1_555
C40 C39 1_555 1_555
C41 C40 1_555 1_555
H37 C41 1_555 1_555
C42 C37 1_555 1_555
H38 C42 1_555 1_555
C43 C44 1_555 1_555
C44 H39 1_555 1_555
C45 C44 1_555 1_555
H40 C45 1_555 1_555
C46 C45 1_555 1_555
C47 C46 1_555 1_555
H41 C47 1_555 1_555
C48 C43 1_555 1_555
H42 C48 1_555 1_555
C49 C50 1_555 1_555
C50 H43 1_555 1_555
C51 C50 1_555 1_555
H44 C51 1_555 1_555
C52 C51 1_555 1_555
C53 C52 1_555 1_555
H45 C53 1_555 1_555
C54 C49 1_555 1_555
H46 C54 1_555 1_555
N21 C34 1_555 1_555
N22 C40 1_555 1_555
N23 C46 1_555 1_555
N24 C52 1_555 1_555
O18 C31 1_555 1_555
H47 O18 1_555 1_555
O19 N21 1_555 1_555
O20 N21 1_555 1_555
O21 C37 1_555 1_555
H48 O21 1_555 1_555
O22 N22 1_555 1_555
O23 N22 1_555 1_555
O24 C43 1_555 1_555
H49 O24 1_555 1_555
O25 N23 1_555 1_555
O26 N23 1_555 1_555
O27 C49 1_555 1_555
H50 O27 1_555 1_555
O28 N24 1_555 1_555
O29 N24 1_555 1_555
C3 N2 1_555 1_555
C4 N4 1_555 1_555
C5 N2 1_555 1_555
C6 N4 1_555 1_555
C8 N5 1_555 1_555
C8 N7 1_555 1_555
C9 N6 1_555 1_555
C10 N8 1_555 1_555
C11 N6 1_555 1_555
C12 N8 1_555 1_555
C14 N9 1_555 1_555
C14 N11 1_555 1_555
C15 N10 1_555 1_555
C16 N12 1_555 1_555
C17 N10 1_555 1_555
C18 N12 1_555 1_555
C20 N13 1_555 1_555
C20 N15 1_555 1_555
C21 N14 1_555 1_555
C22 N16 1_555 1_555
C23 N14 1_555 1_555
C24 N16 1_555 1_555
C26 N17 1_555 1_555
C26 N19 1_555 1_555
C27 N18 1_555 1_555
C28 N20 1_555 1_555
C29 N1 1_555 1_555
C29 N18 1_555 1_555
C30 N3 1_555 1_555
C30 N20 1_555 1_555
C35 C36 1_555 1_555
C41 C42 1_555 1_555
C47 C48 1_555 1_555
C53 C54 1_555 1_555

#END
