
#######################################################################
#
#                 Cambridge Crystallographic Data Centre
#                                CCDC 
#
#######################################################################
#
# If this CIF has been generated from an entry in the Cambridge 
# Structural Database, then it will include bibliographic, chemical, 
# crystal, experimental, refinement or atomic coordinate data resulting 
# from the CCDC's data processing and validation procedures.
#
#######################################################################

data_PAQGIA
_chemical_formula_moiety         'C11 H10 O3'
_chemical_name_systematic        5-hydroxy-3-methyl-4-phenylfuran-2(5H)-one
_symmetry_cell_setting           monoclinic
_symmetry_space_group_name_H-M   'P 21/c'
_symmetry_Int_Tables_number      14
_space_group_name_Hall           '-P 2ybc'
loop_
_symmetry_equiv_pos_site_id
_symmetry_equiv_pos_as_xyz
1 x,y,z
2 -x,1/2+y,1/2-z
3 -x,-y,-z
4 x,1/2-y,1/2+z
_cell_length_a                   7.828(7)
_cell_length_b                   12.887(11)
_cell_length_c                   9.991(8)
_cell_angle_alpha                90
_cell_angle_beta                 110.076(9)
_cell_angle_gamma                90
_cell_volume                     946.645
_exptl_crystal_colour            white
_exptl_crystal_description       block
_cell_formula_units_Z            4
loop_
_atom_site_label
_atom_site_type_symbol
_atom_site_fract_x
_atom_site_fract_y
_atom_site_fract_z
C1 C 0.26187(19) -0.00351(12) 0.56325(16)
C2 C 0.3460(2) -0.10019(13) 0.58368(19)
H1 H 0.3716 -0.1315 0.5089
C3 C 0.3917(3) -0.15013(16) 0.7127(2)
H2 H 0.4472 -0.2149 0.7241
C4 C 0.3564(3) -0.10539(18) 0.8244(2)
H3 H 0.3875 -0.1396 0.9115
C5 C 0.2751(3) -0.01015(18) 0.8077(2)
H4 H 0.2508 0.0203 0.8837
C6 C 0.2289(2) 0.04127(15) 0.67907(18)
H5 H 0.1752 0.1065 0.6695
C7 C 0.21273(19) 0.05118(11) 0.42635(16)
C8 C 0.2031(2) 0.01791(12) 0.29692(16)
C9 C 0.1530(2) 0.10627(13) 0.19964(18)
C10 C 0.1625(2) 0.16442(12) 0.41668(17)
H6 H 0.0533 0.1750 0.4419
C11 C 0.2341(3) -0.08488(14) 0.2413(2)
H7 H 0.3624 -0.0981 0.2700
H8 H 0.1825 -0.0848 0.1391
H9 H 0.1773 -0.1381 0.2787
O1 O 0.12679(17) 0.19099(9) 0.26837(12)
O2 O 0.1373(2) 0.10940(10) 0.07469(13)
O3 O 0.30302(17) 0.22413(9) 0.50118(14)
H10 H 0.2624 0.2778 0.5227
loop_
_geom_bond_atom_site_label_1
_geom_bond_atom_site_label_2
_geom_bond_site_symmetry_1
_geom_bond_site_symmetry_2
C1 C2 1_555 1_555
C2 H1 1_555 1_555
C3 C2 1_555 1_555
H2 C3 1_555 1_555
C4 C3 1_555 1_555
H3 C4 1_555 1_555
C5 C4 1_555 1_555
H4 C5 1_555 1_555
C6 C1 1_555 1_555
H5 C6 1_555 1_555
C7 C1 1_555 1_555
C8 C7 1_555 1_555
C9 C8 1_555 1_555
C10 C7 1_555 1_555
H6 C10 1_555 1_555
C11 C8 1_555 1_555
H7 C11 1_555 1_555
H8 C11 1_555 1_555
H9 C11 1_555 1_555
O1 C9 1_555 1_555
O2 C9 1_555 1_555
O3 C10 1_555 1_555
H10 O3 1_555 1_555
C5 C6 1_555 1_555
C10 O1 1_555 1_555

#END
