
#######################################################################
#
#                 Cambridge Crystallographic Data Centre
#                                CCDC 
#
#######################################################################
#
# If this CIF has been generated from an entry in the Cambridge 
# Structural Database, then it will include bibliographic, chemical, 
# crystal, experimental, refinement or atomic coordinate data resulting 
# from the CCDC's data processing and validation procedures.
#
#######################################################################

data_PAQJOJ
_chemical_formula_moiety         'C16 H10 Br1 F3 O1'
_chemical_name_systematic        
(E)-1-(4-bromophenyl)-3-(4-(trifluoromethyl)phenyl)prop-2-en-1-one
_symmetry_cell_setting           monoclinic
_symmetry_space_group_name_H-M   'P 21/c'
_symmetry_Int_Tables_number      14
_space_group_name_Hall           '-P 2ybc'
loop_
_symmetry_equiv_pos_site_id
_symmetry_equiv_pos_as_xyz
1 x,y,z
2 -x,1/2+y,1/2-z
3 -x,-y,-z
4 x,1/2-y,1/2+z
_cell_length_a                   16.7629(12)
_cell_length_b                   13.9681(10)
_cell_length_c                   5.8740(4)
_cell_angle_alpha                90
_cell_angle_beta                 96.3860(12)
_cell_angle_gamma                90
_cell_volume                     1366.84
_exptl_crystal_colour            colorless
_exptl_crystal_description       plate
_cell_formula_units_Z            4
loop_
_atom_site_label
_atom_site_type_symbol
_atom_site_fract_x
_atom_site_fract_y
_atom_site_fract_z
Br1 Br 0.332168(11) 0.380348(13) 0.24249(3)
F1 F -0.46860(7) 0.42278(9) -0.36063(19)
F2 F -0.47713(6) 0.27592(8) -0.2567(2)
F3 F -0.52343(6) 0.38775(7) -0.05939(18)
O1 O -0.02467(8) 0.36512(9) 0.6965(2)
C1 C 0.08577(10) 0.40775(11) 0.2147(3)
H1 H 0.0440 0.4282 0.1083
C2 C 0.16443(11) 0.41294(12) 0.1624(3)
H2 H 0.1758 0.4386 0.0235
C3 C 0.22568(10) 0.37945(11) 0.3200(3)
C4 C 0.21064(10) 0.34390(11) 0.5323(3)
H3 H 0.2525 0.3228 0.6374
C5 C 0.13221(10) 0.34057(11) 0.5838(3)
H4 H 0.1213 0.3171 0.7253
C6 C 0.06912(10) 0.37189(10) 0.4264(3)
C7 C -0.01394(10) 0.36847(11) 0.4938(3)
C8 C -0.08296(10) 0.36800(11) 0.3111(3)
H5 H -0.0753 0.3522 0.1613
C9 C -0.15573(10) 0.39047(11) 0.3643(3)
H6 H -0.1586 0.4107 0.5141
C10 C -0.23212(10) 0.38728(10) 0.2156(3)
C11 C -0.23974(9) 0.34572(11) -0.0039(3)
H7 H -0.1944 0.3233 -0.0652
C12 C -0.31445(9) 0.33818(11) -0.1290(3)
H8 H -0.3194 0.3098 -0.2730
C13 C -0.38224(9) 0.37320(11) -0.0390(3)
C14 C -0.37564(10) 0.41567(11) 0.1753(3)
H9 H -0.4209 0.4395 0.2342
C15 C -0.30063(10) 0.42230(11) 0.3012(3)
H10 H -0.2961 0.4506 0.4453
C16 C -0.46260(10) 0.36455(11) -0.1789(3)
loop_
_geom_bond_atom_site_label_1
_geom_bond_atom_site_label_2
_geom_bond_site_symmetry_1
_geom_bond_site_symmetry_2
Br1 C3 1_555 1_555
F1 C16 1_555 1_555
F2 C16 1_555 1_555
F3 C16 1_555 1_555
O1 C7 1_555 1_555
C1 H1 1_555 1_555
C2 C1 1_555 1_555
H2 C2 1_555 1_555
C3 C2 1_555 1_555
C4 C3 1_555 1_555
H3 C4 1_555 1_555
C5 C4 1_555 1_555
H4 C5 1_555 1_555
C6 C1 1_555 1_555
C7 C6 1_555 1_555
C8 C7 1_555 1_555
H5 C8 1_555 1_555
C9 C8 1_555 1_555
H6 C9 1_555 1_555
C10 C9 1_555 1_555
C11 C10 1_555 1_555
H7 C11 1_555 1_555
C12 C11 1_555 1_555
H8 C12 1_555 1_555
C13 C12 1_555 1_555
C14 C13 1_555 1_555
H9 C14 1_555 1_555
C15 C10 1_555 1_555
H10 C15 1_555 1_555
C16 C13 1_555 1_555
C5 C6 1_555 1_555
C14 C15 1_555 1_555

#END
