
#######################################################################
#
#                 Cambridge Crystallographic Data Centre
#                                CCDC 
#
#######################################################################
#
# If this CIF has been generated from an entry in the Cambridge 
# Structural Database, then it will include bibliographic, chemical, 
# crystal, experimental, refinement or atomic coordinate data resulting 
# from the CCDC's data processing and validation procedures.
#
#######################################################################

data_PAQMAW01
_chemical_formula_moiety         'C12 H10 N4 O1'
_chemical_name_systematic        
2-Amino-3-(4-methoxybenzylideneamino)butenedinitrile
_symmetry_cell_setting           orthorhombic
_symmetry_space_group_name_H-M   'P n a 21'
_symmetry_Int_Tables_number      33
_space_group_name_Hall           'P 2c -2n'
loop_
_symmetry_equiv_pos_site_id
_symmetry_equiv_pos_as_xyz
1 x,y,z
2 -x,-y,1/2+z
3 1/2+x,1/2-y,z
4 1/2-x,1/2+y,1/2+z
_cell_length_a                   11.108(2)
_cell_length_b                   25.481(5)
_cell_length_c                   4.0203(8)
_cell_angle_alpha                90
_cell_angle_beta                 90
_cell_angle_gamma                90
_cell_volume                     1137.92
_exptl_crystal_colour            yellow
_exptl_crystal_description       prism
_cell_formula_units_Z            4
_exptl_crystal_recrystallization_method methanol
loop_
_atom_site_label
_atom_site_type_symbol
_atom_site_fract_x
_atom_site_fract_y
_atom_site_fract_z
C1 C 0.1575(2) 0.63116(10) 0.3670(8)
H1 H 0.2056 0.6568 0.4643
O1 O 0.28885(19) 0.42004(7) 0.4809(8)
C2 C 0.2643(2) 0.47242(9) 0.4599(8)
C3 C 0.0359(2) 0.69844(9) 0.1752(8)
N1 N 0.06251(19) 0.64529(8) 0.2098(6)
C4 C 0.1923(2) 0.57631(9) 0.3982(7)
N2 N -0.1410(2) 0.67782(9) -0.1351(8)
H2 H -0.1287 0.6447 -0.1138
H3 H -0.2027 0.6889 -0.2432
C5 C -0.0641(2) 0.71212(9) 0.0000(8)
C6 C 0.1226(2) 0.53581(10) 0.2649(8)
H4 H 0.0512 0.5438 0.1550
C7 C 0.1095(2) 0.73852(10) 0.3225(9)
C8 C 0.2986(2) 0.56343(10) 0.5594(8)
H5 H 0.3462 0.5900 0.6473
N3 N -0.1118(2) 0.81051(10) -0.0854(11)
C9 C 0.3353(2) 0.51173(10) 0.5921(9)
H6 H 0.4066 0.5036 0.7015
C10 C 0.1580(2) 0.48473(10) 0.2941(9)
H7 H 0.1110 0.4581 0.2032
N4 N 0.1705(2) 0.76848(9) 0.4476(10)
C11 C -0.0912(2) 0.76733(11) -0.0485(10)
C12 C 0.3947(3) 0.40410(12) 0.6547(13)
H8 H 0.4641 0.4192 0.5500
H9 H 0.4009 0.3665 0.6497
H10 H 0.3901 0.4158 0.8813
loop_
_geom_bond_atom_site_label_1
_geom_bond_atom_site_label_2
_geom_bond_site_symmetry_1
_geom_bond_site_symmetry_2
C1 H1 1_555 1_555
O1 C2 1_555 1_555
C2 C9 1_555 1_555
C3 N1 1_555 1_555
N1 C1 1_555 1_555
C4 C1 1_555 1_555
N2 H2 1_555 1_555
H3 N2 1_555 1_555
C5 C3 1_555 1_555
C6 C4 1_555 1_555
H4 C6 1_555 1_555
C7 C3 1_555 1_555
C8 C4 1_555 1_555
H5 C8 1_555 1_555
N3 C11 1_555 1_555
C9 C8 1_555 1_555
H6 C9 1_555 1_555
C10 C2 1_555 1_555
H7 C10 1_555 1_555
N4 C7 1_555 1_555
C11 C5 1_555 1_555
C12 O1 1_555 1_555
H8 C12 1_555 1_555
H9 C12 1_555 1_555
H10 C12 1_555 1_555
N2 C5 1_555 1_555
C6 C10 1_555 1_555

#END
