
#######################################################################
#
#                 Cambridge Crystallographic Data Centre
#                                CCDC 
#
#######################################################################
#
# If this CIF has been generated from an entry in the Cambridge 
# Structural Database, then it will include bibliographic, chemical, 
# crystal, experimental, refinement or atomic coordinate data resulting 
# from the CCDC's data processing and validation procedures.
#
#######################################################################

data_PAQNAZ
_chemical_formula_moiety         'C49 H34 N1 1+,I5 1-'
_chemical_name_systematic        
'5-(diphenylmethylidene)-3-methyl-10,10-diphenyl-5,10-dihydroindeno[1,2-c]indolo[2,1-a]isoquinolin-15-ium pentaiodide'
_symmetry_cell_setting           monoclinic
_symmetry_space_group_name_H-M   'P 21/c'
_symmetry_Int_Tables_number      14
_space_group_name_Hall           '-P 2ybc'
loop_
_symmetry_equiv_pos_site_id
_symmetry_equiv_pos_as_xyz
1 x,y,z
2 -x,1/2+y,1/2-z
3 -x,-y,-z
4 x,1/2-y,1/2+z
_cell_length_a                   14.0798(13)
_cell_length_b                   8.9445(8)
_cell_length_c                   37.487(3)
_cell_angle_alpha                90
_cell_angle_beta                 111.696(3)
_cell_angle_gamma                90
_cell_volume                     4386.55
_exptl_crystal_colour            colorless
_exptl_crystal_description       block
_cell_formula_units_Z            4
loop_
_atom_site_label
_atom_site_type_symbol
_atom_site_fract_x
_atom_site_fract_y
_atom_site_fract_z
C1 C -0.1986(7) 0.0060(10) 0.0972(3)
N1 N 0.0599(6) 0.0972(8) 0.1648(2)
C2 C 0.4106(8) 0.1789(11) 0.1903(3)
C3 C -0.1254(7) 0.1481(11) 0.1569(3)
C4 C -0.0448(7) 0.0851(10) 0.1464(3)
C5 C 0.2313(7) 0.1133(11) 0.1721(3)
C6 C -0.0820(7) 0.0092(10) 0.1125(3)
C7 C 0.2167(8) 0.1738(10) 0.2064(3)
C8 C 0.2845(8) 0.2267(11) 0.2417(3)
H1 H 0.3508 0.2528 0.2445
C9 C -0.2426(7) -0.1510(11) 0.0956(3)
C10 C 0.0857(7) 0.0096(10) 0.1080(3)
C11 C 0.4153(8) -0.0328(13) 0.1316(3)
H2 H 0.4459 0.0588 0.1310
C12 C -0.2173(8) 0.0971(11) 0.1287(3)
C13 C -0.2223(9) -0.4042(13) 0.1180(3)
H3 H -0.1800 -0.4789 0.1328
C14 C -0.3846(9) -0.3216(13) 0.0761(4)
H4 H -0.4531 -0.3411 0.0618
C15 C 0.1050(8) -0.0773(13) 0.0504(3)
H5 H 0.1442 -0.0854 0.0352
C16 C 0.5851(9) 0.2070(17) 0.2338(3)
H6 H 0.6454 0.1647 0.2506
C17 C 0.3466(7) -0.0468(12) 0.1501(3)
C18 C -0.1312(8) 0.2528(11) 0.1837(3)
H7 H -0.0720 0.2951 0.2012
C19 C 0.5044(8) 0.1182(13) 0.2143(3)
H8 H 0.5114 0.0149 0.2169
C20 C -0.0187(7) -0.0374(11) 0.0931(3)
C21 C -0.2412(7) 0.0974(11) 0.0593(3)
C22 C -0.3471(8) -0.1815(12) 0.0753(3)
H9 H -0.3905 -0.1060 0.0614
C23 C 0.1421(8) -0.0049(12) 0.0842(3)
H10 H 0.2071 0.0369 0.0920
C24 C 0.3229(7) 0.0834(11) 0.1696(3)
C25 C -0.3071(10) 0.2650(15) -0.0085(4)
H11 H -0.3295 0.3210 -0.0310
C26 C -0.1836(8) -0.2645(12) 0.1167(3)
H12 H -0.1147 -0.2465 0.1307
C27 C 0.1239(8) 0.0638(11) 0.1459(3)
C28 C -0.3172(9) 0.1113(14) -0.0094(3)
H13 H -0.3460 0.0632 -0.0330
C29 C -0.2296(9) 0.2501(12) 0.0603(3)
H14 H -0.1990 0.2980 0.0838
C30 C 0.3270(9) -0.3058(13) 0.1338(3)
H15 H 0.2977 -0.3985 0.1343
C31 C 0.1174(8) 0.1479(11) 0.2025(3)
C32 C -0.0533(8) -0.1205(12) 0.0589(3)
H16 H -0.1185 -0.1620 0.0505
C33 C -0.3117(8) 0.1373(11) 0.1299(3)
H17 H -0.3717 0.0984 0.1120
C34 C 0.0857(8) 0.1457(12) 0.2333(3)
H18 H 0.0206 0.1137 0.2307
C35 C 0.0049(9) -0.1420(14) 0.0378(3)
H19 H -0.0196 -0.1982 0.0154
C36 C -0.2859(8) 0.0289(12) 0.0233(3)
H20 H -0.2943 -0.0744 0.0218
C37 C -0.3158(9) 0.2345(13) 0.1575(3)
H21 H -0.3786 0.2613 0.1585
C38 C 0.5777(10) 0.3606(16) 0.2288(4)
H22 H 0.6335 0.4217 0.2414
C39 C 0.2533(9) 0.2402(12) 0.2722(3)
C40 C -0.2625(11) 0.3331(14) 0.0271(4)
H23 H -0.2548 0.4365 0.0286
C41 C -0.2262(9) 0.2932(13) 0.1840(3)
H24 H -0.2298 0.3607 0.2023
C42 C 0.4378(8) -0.1576(14) 0.1140(3)
H25 H 0.4822 -0.1489 0.1009
C43 C 0.3018(8) -0.1860(12) 0.1507(3)
H26 H 0.2550 -0.1965 0.1627
C44 C 0.3955(9) -0.2901(14) 0.1159(3)
H27 H 0.4131 -0.3733 0.1048
C45 C -0.3240(10) -0.4339(13) 0.0973(4)
H28 H -0.3508 -0.5286 0.0977
C46 C 0.4874(11) 0.4212(14) 0.2050(4)
H29 H 0.4819 0.5243 0.2016
C47 C 0.4050(9) 0.3322(13) 0.1860(3)
H30 H 0.3443 0.3758 0.1700
C48 C 0.1559(8) 0.1935(13) 0.2680(3)
H31 H 0.1372 0.1945 0.2893
C49 C 0.3287(9) 0.2946(17) 0.3109(3)
H32 H 0.3951 0.2539 0.3153
H33 H 0.3062 0.2625 0.3309
H34 H 0.3321 0.4018 0.3108
I1 I 0.07268(7) 0.51524(10) 0.13518(3)
I2 I 0.24567(9) 0.34618(11) 0.05310(3)
I3 I 0.10477(8) 0.64429(16) 0.20815(3)
I4 I 0.03378(10) 0.40096(13) 0.05657(3)
I5 I 0.43778(9) 0.29844(13) 0.04830(4)
loop_
_geom_bond_atom_site_label_1
_geom_bond_atom_site_label_2
_geom_bond_site_symmetry_1
_geom_bond_site_symmetry_2
C1 C6 1_555 1_555
N1 C4 1_555 1_555
C2 C19 1_555 1_555
C3 C4 1_555 1_555
C4 C6 1_555 1_555
C5 C7 1_555 1_555
C6 C20 1_555 1_555
C7 C8 1_555 1_555
C8 H1 1_555 1_555
C9 C1 1_555 1_555
C10 C20 1_555 1_555
C11 H2 1_555 1_555
C12 C1 1_555 1_555
C13 H3 1_555 1_555
C14 H4 1_555 1_555
C15 H5 1_555 1_555
C16 H6 1_555 1_555
C17 C11 1_555 1_555
C18 C3 1_555 1_555
H7 C18 1_555 1_555
C19 C16 1_555 1_555
H8 C19 1_555 1_555
C20 C32 1_555 1_555
C21 C1 1_555 1_555
C22 C9 1_555 1_555
H9 C22 1_555 1_555
C23 C10 1_555 1_555
H10 C23 1_555 1_555
C24 C2 1_555 1_555
C25 H11 1_555 1_555
C26 C9 1_555 1_555
H12 C26 1_555 1_555
C27 N1 1_555 1_555
C28 C25 1_555 1_555
H13 C28 1_555 1_555
C29 C21 1_555 1_555
H14 C29 1_555 1_555
C30 H15 1_555 1_555
C31 N1 1_555 1_555
C32 H16 1_555 1_555
C33 C12 1_555 1_555
H17 C33 1_555 1_555
C34 C31 1_555 1_555
H18 C34 1_555 1_555
C35 C15 1_555 1_555
H19 C35 1_555 1_555
C36 C21 1_555 1_555
H20 C36 1_555 1_555
C37 C33 1_555 1_555
H21 C37 1_555 1_555
C38 C16 1_555 1_555
H22 C38 1_555 1_555
C39 C8 1_555 1_555
C40 C25 1_555 1_555
H23 C40 1_555 1_555
C41 C18 1_555 1_555
H24 C41 1_555 1_555
C42 C11 1_555 1_555
H25 C42 1_555 1_555
C43 C17 1_555 1_555
H26 C43 1_555 1_555
C44 C30 1_555 1_555
H27 C44 1_555 1_555
C45 C13 1_555 1_555
H28 C45 1_555 1_555
C46 C38 1_555 1_555
H29 C46 1_555 1_555
C47 C2 1_555 1_555
H30 C47 1_555 1_555
C48 C34 1_555 1_555
H31 C48 1_555 1_555
C49 C39 1_555 1_555
H32 C49 1_555 1_555
H33 C49 1_555 1_555
H34 C49 1_555 1_555
I1 I3 1_555 1_555
I2 I4 1_555 1_555
I4 I1 1_555 1_555
I5 I2 1_555 1_555
C3 C12 1_555 1_555
C5 C24 1_555 1_555
C5 C27 1_555 1_555
C7 C31 1_555 1_555
C10 C27 1_555 1_555
C13 C26 1_555 1_555
C14 C22 1_555 1_555
C14 C45 1_555 1_555
C15 C23 1_555 1_555
C17 C24 1_555 1_555
C28 C36 1_555 1_555
C29 C40 1_555 1_555
C30 C43 1_555 1_555
C32 C35 1_555 1_555
C37 C41 1_555 1_555
C39 C48 1_555 1_555
C42 C44 1_555 1_555
C46 C47 1_555 1_555

#END
