
#######################################################################
#
#                 Cambridge Crystallographic Data Centre
#                                CCDC 
#
#######################################################################
#
# If this CIF has been generated from an entry in the Cambridge 
# Structural Database, then it will include bibliographic, chemical, 
# crystal, experimental, refinement or atomic coordinate data resulting 
# from the CCDC's data processing and validation procedures.
#
#######################################################################

data_PAQNIG
_chemical_compound_source        'timer tree Aphanamixis grandifolia'
_chemical_name_common            'laxiracemosin H'
_chemical_formula_moiety         'C26 H35 N1 O3'
_chemical_name_systematic        
3-(4,4,14-Trimethyl-3-oxoandrost-7-en-17-yl)-1H-pyrrole-2,5-dione
_symmetry_cell_setting           monoclinic
_symmetry_space_group_name_H-M   'C 2'
_symmetry_Int_Tables_number      5
_space_group_name_Hall           'C 2y'
loop_
_symmetry_equiv_pos_site_id
_symmetry_equiv_pos_as_xyz
1 x,y,z
2 -x,y,-z
3 1/2+x,1/2+y,z
4 1/2-x,1/2+y,-z
_cell_length_a                   53.195(4)
_cell_length_b                   7.6339(8)
_cell_length_c                   11.2021(11)
_cell_angle_alpha                90
_cell_angle_beta                 94.6520(10)
_cell_angle_gamma                90
_cell_volume                     4534.02
_cell_formula_units_Z            8
loop_
_atom_site_label
_atom_site_type_symbol
_atom_site_fract_x
_atom_site_fract_y
_atom_site_fract_z
N1 N 0.00985(6) 0.5370(5) 0.7009(3)
H1 H 0.0054 0.6387 0.7250
O1 O 0.21632(5) 0.1536(5) 0.7770(3)
O2 O 0.03215(6) 0.6192(5) 0.5419(3)
O3 O -0.01027(6) 0.3687(5) 0.8333(3)
C1 C 0.16929(6) 0.3668(6) 0.6121(4)
H3 H 0.1630 0.3681 0.6910
H4 H 0.1655 0.4797 0.5752
C2 C 0.19811(7) 0.3416(7) 0.6257(4)
H5 H 0.2048 0.3474 0.5478
H6 H 0.2059 0.4338 0.6756
C3 C 0.20385(7) 0.1662(7) 0.6821(4)
C4 C 0.19275(7) 0.0098(6) 0.6145(3)
C5 C 0.16375(6) 0.0432(5) 0.5867(3)
H7 H 0.1567 0.0356 0.6646
C6 C 0.15084(7) -0.1040(6) 0.5122(4)
H8 H 0.1591 -0.1177 0.4386
H9 H 0.1527 -0.2131 0.5565
C7 C 0.12307(7) -0.0678(6) 0.4822(3)
H10 H 0.1131 -0.1591 0.4499
C8 C 0.11201(7) 0.0825(5) 0.4981(3)
C9 C 0.12660(6) 0.2381(5) 0.5561(3)
H11 H 0.1255 0.2237 0.6425
C10 C 0.15533(7) 0.2243(5) 0.5369(3)
C11 C 0.11408(6) 0.4139(6) 0.5252(3)
H12 H 0.1164 0.4406 0.4421
H13 H 0.1227 0.5038 0.5739
C12 C 0.08560(6) 0.4241(5) 0.5433(3)
H14 H 0.0834 0.4885 0.6164
H15 H 0.0771 0.4888 0.4772
C13 C 0.07308(6) 0.2429(6) 0.5511(3)
C14 C 0.08418(6) 0.1142(6) 0.4612(3)
C15 C 0.06614(7) -0.0427(6) 0.4635(4)
H16 H 0.0711 -0.1198 0.5301
H17 H 0.0660 -0.1089 0.3896
C16 C 0.03984(7) 0.0398(6) 0.4783(4)
H18 H 0.0291 0.0288 0.4045
H19 H 0.0318 -0.0186 0.5419
C17 C 0.04447(7) 0.2354(6) 0.5096(3)
H20 H 0.0418 0.3027 0.4351
C18 C 0.07658(6) 0.1672(6) 0.6788(3)
H21 H 0.0941 0.1417 0.6987
H22 H 0.0669 0.0615 0.6827
H23 H 0.0709 0.2511 0.7346
C19 C 0.15955(7) 0.2497(7) 0.4037(3)
H24 H 0.1773 0.2473 0.3937
H25 H 0.1527 0.3605 0.3769
H26 H 0.1513 0.1572 0.3575
C20 C 0.02824(7) 0.3140(6) 0.5976(4)
C21 C 0.02453(7) 0.5081(6) 0.6059(4)
C22 C 0.01526(7) 0.2427(6) 0.6834(4)
H27 H 0.0140 0.1232 0.6977
C23 C 0.00329(8) 0.3807(7) 0.7516(4)
C24 C 0.20783(7) -0.0171(7) 0.5044(3)
H28 H 0.2076 0.0890 0.4583
H29 H 0.2004 -0.1102 0.4560
H30 H 0.2249 -0.0468 0.5303
C25 C 0.19680(8) -0.1532(7) 0.6925(4)
H31 H 0.2144 -0.1647 0.7179
H32 H 0.1913 -0.2548 0.6472
H33 H 0.1873 -0.1427 0.7614
C26 C 0.08195(7) 0.1880(6) 0.3315(3)
H34 H 0.0908 0.2974 0.3299
H35 H 0.0645 0.2060 0.3056
H36 H 0.0892 0.1061 0.2790
N2 N 0.03036(6) 1.0446(5) 0.0941(3)
H2 H 0.0233 1.1427 0.1088
O4 O 0.23301(5) 0.3666(5) 0.3551(2)
O5 O 0.06309(6) 1.1462(5) -0.0089(3)
O6 O 0.00396(5) 0.8607(4) 0.1859(3)
C27 C 0.19576(6) 0.6934(5) 0.2348(3)
H37 H 0.1858 0.6522 0.2981
H38 H 0.1945 0.8202 0.2324
C28 C 0.22360(7) 0.6413(7) 0.2653(4)
H39 H 0.2340 0.6907 0.2065
H40 H 0.2295 0.6869 0.3435
C29 C 0.22576(7) 0.4464(7) 0.2652(4)
C30 C 0.21671(7) 0.3562(6) 0.1477(3)
C31 C 0.18921(6) 0.4186(5) 0.1141(3)
H41 H 0.1794 0.3725 0.1776
C32 C 0.17764(7) 0.3328(6) -0.0009(3)
H42 H 0.1891 0.3472 -0.0634
H43 H 0.1757 0.2083 0.0129
C33 C 0.15248(6) 0.4086(6) -0.0431(3)
H44 H 0.1432 0.3508 -0.1051
C34 C 0.14243(6) 0.5499(6) 0.0002(3)
C35 C 0.15535(6) 0.6455(5) 0.1079(3)
H45 H 0.1497 0.5865 0.1787
C36 C 0.18455(6) 0.6189(5) 0.1146(3)
C37 C 0.14696(7) 0.8382(6) 0.1176(4)
H46 H 0.1552 0.9062 0.0587
H47 H 0.1530 0.8817 0.1961
C38 C 0.11818(7) 0.8723(6) 0.0994(3)
H48 H 0.1119 0.8942 0.1768
H49 H 0.1153 0.9772 0.0513
C39 C 0.10320(6) 0.7211(6) 0.0385(3)
C40 C 0.11840(7) 0.6311(6) -0.0561(3)
C41 C 0.09890(7) 0.5083(7) -0.1187(3)
H50 H 0.0982 0.3984 -0.0756
H51 H 0.1029 0.4843 -0.2000
C42 C 0.07342(7) 0.6080(7) -0.1182(4)
H52 H 0.0674 0.6420 -0.1989
H53 H 0.0608 0.5347 -0.0854
C43 C 0.07880(7) 0.7726(6) -0.0387(3)
H54 H 0.0833 0.8674 -0.0919
C44 C 0.09654(7) 0.5886(6) 0.1349(3)
H55 H 0.1117 0.5369 0.1712
H56 H 0.0859 0.4986 0.0985
H57 H 0.0878 0.6478 0.1950
C45 C 0.19541(7) 0.7133(6) 0.0085(3)
H58 H 0.1899 0.6543 -0.0647
H59 H 0.2135 0.7121 0.0192
H60 H 0.1895 0.8323 0.0049
C46 C 0.05703(7) 0.8352(6) 0.0244(3)
C47 C 0.05163(8) 1.0284(7) 0.0323(4)
C48 C 0.03912(8) 0.7541(7) 0.0806(4)
H61 H 0.0376 0.6333 0.0884
C49 C 0.02197(8) 0.8848(7) 0.1291(4)
C50 C 0.23621(6) 0.3940(7) 0.0567(3)
H62 H 0.2384 0.5183 0.0497
H63 H 0.2303 0.3466 -0.0199
H64 H 0.2520 0.3408 0.0836
C51 C 0.21654(8) 0.1559(6) 0.1695(4)
H65 H 0.2143 0.0960 0.0940
H66 H 0.2029 0.1264 0.2171
H67 H 0.2323 0.1211 0.2109
C52 C 0.12647(8) 0.7656(7) -0.1524(3)
H68 H 0.1334 0.8684 -0.1128
H69 H 0.1120 0.7975 -0.2046
H70 H 0.1389 0.7130 -0.1984
loop_
_geom_bond_atom_site_label_1
_geom_bond_atom_site_label_2
_geom_bond_site_symmetry_1
_geom_bond_site_symmetry_2
N1 H1 1_555 1_555
N2 H2 1_555 1_555
O1 C3 1_555 1_555
O2 C21 1_555 1_555
O3 C23 1_555 1_555
O4 C29 1_555 1_555
O5 C47 1_555 1_555
O6 C49 1_555 1_555
C1 H3 1_555 1_555
H4 C1 1_555 1_555
C2 C1 1_555 1_555
H5 C2 1_555 1_555
H6 C2 1_555 1_555
C3 C2 1_555 1_555
C4 C3 1_555 1_555
C5 C4 1_555 1_555
H7 C5 1_555 1_555
C6 C5 1_555 1_555
H8 C6 1_555 1_555
H9 C6 1_555 1_555
C7 C6 1_555 1_555
H10 C7 1_555 1_555
C8 C7 1_555 1_555
C9 C8 1_555 1_555
H11 C9 1_555 1_555
C10 C1 1_555 1_555
C11 C9 1_555 1_555
H12 C11 1_555 1_555
H13 C11 1_555 1_555
C12 C11 1_555 1_555
H14 C12 1_555 1_555
H15 C12 1_555 1_555
C13 C12 1_555 1_555
C14 C8 1_555 1_555
C15 C14 1_555 1_555
H16 C15 1_555 1_555
H17 C15 1_555 1_555
C16 C15 1_555 1_555
H18 C16 1_555 1_555
H19 C16 1_555 1_555
C17 C13 1_555 1_555
H20 C17 1_555 1_555
C18 C13 1_555 1_555
H21 C18 1_555 1_555
H22 C18 1_555 1_555
H23 C18 1_555 1_555
C19 C10 1_555 1_555
H24 C19 1_555 1_555
H25 C19 1_555 1_555
H26 C19 1_555 1_555
C20 C17 1_555 1_555
C21 N1 1_555 1_555
C22 C20 1_555 1_555
H27 C22 1_555 1_555
C23 N1 1_555 1_555
C24 C4 1_555 1_555
H28 C24 1_555 1_555
H29 C24 1_555 1_555
H30 C24 1_555 1_555
C25 C4 1_555 1_555
H31 C25 1_555 1_555
H32 C25 1_555 1_555
H33 C25 1_555 1_555
C26 C14 1_555 1_555
H34 C26 1_555 1_555
H35 C26 1_555 1_555
H36 C26 1_555 1_555
C27 H37 1_555 1_555
H38 C27 1_555 1_555
C28 C27 1_555 1_555
H39 C28 1_555 1_555
H40 C28 1_555 1_555
C29 C28 1_555 1_555
C30 C29 1_555 1_555
C31 C30 1_555 1_555
H41 C31 1_555 1_555
C32 C31 1_555 1_555
H42 C32 1_555 1_555
H43 C32 1_555 1_555
C33 C32 1_555 1_555
H44 C33 1_555 1_555
C34 C33 1_555 1_555
C35 C34 1_555 1_555
H45 C35 1_555 1_555
C36 C27 1_555 1_555
C37 C35 1_555 1_555
H46 C37 1_555 1_555
H47 C37 1_555 1_555
C38 C37 1_555 1_555
H48 C38 1_555 1_555
H49 C38 1_555 1_555
C39 C38 1_555 1_555
C40 C34 1_555 1_555
C41 C40 1_555 1_555
H50 C41 1_555 1_555
H51 C41 1_555 1_555
C42 C41 1_555 1_555
H52 C42 1_555 1_555
H53 C42 1_555 1_555
C43 C39 1_555 1_555
H54 C43 1_555 1_555
C44 C39 1_555 1_555
H55 C44 1_555 1_555
H56 C44 1_555 1_555
H57 C44 1_555 1_555
C45 C36 1_555 1_555
H58 C45 1_555 1_555
H59 C45 1_555 1_555
H60 C45 1_555 1_555
C46 C43 1_555 1_555
C47 N2 1_555 1_555
C48 C46 1_555 1_555
H61 C48 1_555 1_555
C49 N2 1_555 1_555
C50 C30 1_555 1_555
H62 C50 1_555 1_555
H63 C50 1_555 1_555
H64 C50 1_555 1_555
C51 C30 1_555 1_555
H65 C51 1_555 1_555
H66 C51 1_555 1_555
H67 C51 1_555 1_555
C52 C40 1_555 1_555
H68 C52 1_555 1_555
H69 C52 1_555 1_555
H70 C52 1_555 1_555
C5 C10 1_555 1_555
C9 C10 1_555 1_555
C13 C14 1_555 1_555
C16 C17 1_555 1_555
C20 C21 1_555 1_555
C22 C23 1_555 1_555
C31 C36 1_555 1_555
C35 C36 1_555 1_555
C39 C40 1_555 1_555
C42 C43 1_555 1_555
C46 C47 1_555 1_555
C48 C49 1_555 1_555

#END
