
#######################################################################
#
#                 Cambridge Crystallographic Data Centre
#                                CCDC 
#
#######################################################################
#
# If this CIF has been generated from an entry in the Cambridge 
# Structural Database, then it will include bibliographic, chemical, 
# crystal, experimental, refinement or atomic coordinate data resulting 
# from the CCDC's data processing and validation procedures.
#
#######################################################################

data_PAQQED
_chemical_compound_source        'yellow sponge Leucetta sp. cf. chagosensis'
_chemical_formula_moiety         'C26 H30 N6 O5'
_chemical_name_systematic        '(2E,9E)-Pyrona-amidine 9-(N-methylimine)'
_chemical_properties_biological  
'exhibits mild cytotoxic activity toward A-549, MCF-7 and HT-29 human tumor cell lines'
_symmetry_cell_setting           triclinic
_symmetry_space_group_name_H-M   'P -1'
_symmetry_Int_Tables_number      2
_space_group_name_Hall           '-P 1'
loop_
_symmetry_equiv_pos_site_id
_symmetry_equiv_pos_as_xyz
1 x,y,z
2 -x,-y,-z
_cell_length_a                   8.478(4)
_cell_length_b                   12.033(5)
_cell_length_c                   13.970(7)
_cell_angle_alpha                110.73(3)
_cell_angle_beta                 90.53(4)
_cell_angle_gamma                97.650(3)
_cell_volume                     1318.59
_exptl_crystal_colour            yellow
_chemical_melting_point          222-225deg.C
_cell_formula_units_Z            2
_exptl_crystal_recrystallization_method 'methanol dichloromethane'
loop_
_atom_site_label
_atom_site_type_symbol
_atom_site_fract_x
_atom_site_fract_y
_atom_site_fract_z
N1 N 0.3482(2) 0.8710(2) 0.3725(1)
C1 C 0.3684(3) 0.8720(2) 0.4691(2)
N2 N 0.5073(2) 0.8321(2) 0.4747(2)
C2 C 0.5777(3) 0.8044(2) 0.3806(2)
C3 C 0.4788(3) 0.8289(2) 0.3168(2)
N3 N 0.2639(2) 0.9098(2) 0.5425(2)
C4 C 0.2945(3) 0.8991(2) 0.6315(2)
N4 N 0.4117(3) 0.8509(2) 0.6599(2)
C5 C 0.3899(3) 0.8606(3) 0.7614(2)
N5 N 0.2555(3) 0.9179(2) 0.7963(2)
C6 C 0.1902(3) 0.9467(2) 0.7202(2)
C7 C 0.4951(3) 0.8185(3) 0.2069(2)
C8 C 0.4101(3) 0.7039(2) 0.1276(2)
C9 C 0.3894(3) 0.6992(3) 0.0264(2)
C10 C 0.3157(3) 0.5945(3) -0.0492(2)
C11 C 0.2615(3) 0.4936(3) -0.0256(2)
C12 C 0.2822(4) 0.4972(3) 0.0739(2)
C13 C 0.3571(4) 0.6023(3) 0.1488(2)
C14 C 0.7371(3) 0.7632(3) 0.3659(2)
C15 C 0.7702(3) 0.6963(3) 0.4359(2)
C16 C 0.8684(3) 0.7515(3) 0.5251(2)
C17 C 0.8964(4) 0.6941(3) 0.5909(2)
C18 C 0.8285(4) 0.5782(3) 0.5678(2)
C19 C 0.7288(4) 0.5180(3) 0.4813(3)
C20 C 0.7004(4) 0.5794(3) 0.4144(2)
C21 C 0.2105(4) 0.9092(3) 0.3348(2)
N6 N 0.4698(3) 0.8244(3) 0.8183(2)
C22 C 0.6061(5) 0.7642(4) 0.7746(3)
C23 C 0.2076(4) 0.9558(3) 0.9017(2)
O1 O 0.0771(2) 0.9999(2) 0.7247(2)
O2 O 0.4473(3) 0.7996(2) 0.0073(2)
O3 O 0.3054(3) 0.5920(2) -0.1493(1)
C24 C 0.1483(5) 0.5980(4) -0.1839(3)
O4 O 0.1922(3) 0.3942(2) -0.1069(2)
C25 C 0.1139(5) 0.2964(4) -0.0834(3)
O5 O 0.8627(3) 0.5263(2) 0.6394(2)
C26 C 0.8152(5) 0.4049(3) 0.6130(3)
H1 H 0.5420(29) 0.8225(21) 0.5321(20)
H2 H 0.6066(3) 0.8241(3) 0.1947(2)
H3 H 0.4565(3) 0.8855(3) 0.1973(2)
H4 H 0.2440(4) 0.4282(3) 0.0910(2)
H5 H 0.3724(4) 0.6051(3) 0.2178(2)
H6 H 0.8184(3) 0.8314(3) 0.3794(2)
H7 H 0.7412(3) 0.7115(3) 0.2959(2)
H8 H 0.9165(3) 0.8334(3) 0.5416(2)
H9 H 0.9635(4) 0.7347(3) 0.6525(2)
H10 H 0.6809(4) 0.4364(3) 0.4667(3)
H11 H 0.6312(4) 0.5392(3) 0.3537(2)
H12 H 0.1384(4) 0.9336(3) 0.3884(2)
H13 H 0.2466(4) 0.9754(3) 0.3135(2)
H14 H 0.1566(4) 0.8436(3) 0.2776(2)
H15 H 0.6572(5) 0.7410(4) 0.8247(3)
H16 H 0.5686(5) 0.6941(4) 0.7157(3)
H17 H 0.6810(5) 0.8177(4) 0.7543(3)
H18 H 0.1129(4) 0.9927(3) 0.9061(2)
H19 H 0.1864(4) 0.8871(3) 0.9218(2)
H20 H 0.2913(4) 1.0125(3) 0.9466(2)
H21 H 0.4394(44) 0.7966(33) -0.0611(32)
H22 H 0.1490(5) 0.5961(4) -0.2531(3)
H23 H 0.0777(5) 0.5299(4) -0.1813(3)
H24 H 0.1123(5) 0.6705(4) -0.1406(3)
H25 H 0.0707(5) 0.2326(4) -0.1454(3)
H26 H 0.1887(5) 0.2681(4) -0.0488(3)
H27 H 0.0291(5) 0.3227(4) -0.0397(3)
H28 H 0.8444(5) 0.3809(3) 0.6686(3)
H29 H 0.7018(5) 0.3865(3) 0.5990(3)
H30 H 0.8673(5) 0.3625(3) 0.5530(3)
loop_
_geom_bond_atom_site_label_1
_geom_bond_atom_site_label_2
_geom_bond_site_symmetry_1
_geom_bond_site_symmetry_2
N1 C1 1_555 1_555
C1 N2 1_555 1_555
N2 C2 1_555 1_555
C2 C3 1_555 1_555
C3 N1 1_555 1_555
N3 C1 1_555 1_555
C4 N3 1_555 1_555
N4 C4 1_555 1_555
C5 N4 1_555 1_555
N5 C5 1_555 1_555
C6 C4 1_555 1_555
C7 C3 1_555 1_555
C8 C7 1_555 1_555
C9 C8 1_555 1_555
C10 C9 1_555 1_555
C11 C10 1_555 1_555
C12 C11 1_555 1_555
C13 C8 1_555 1_555
C14 C2 1_555 1_555
C15 C14 1_555 1_555
C16 C15 1_555 1_555
C17 C16 1_555 1_555
C18 C17 1_555 1_555
C19 C18 1_555 1_555
C20 C15 1_555 1_555
C21 N1 1_555 1_555
N6 C5 1_555 1_555
C22 N6 1_555 1_555
C23 N5 1_555 1_555
O1 C6 1_555 1_555
O2 C9 1_555 1_555
O3 C10 1_555 1_555
C24 O3 1_555 1_555
O4 C11 1_555 1_555
C25 O4 1_555 1_555
O5 C18 1_555 1_555
C26 O5 1_555 1_555
H1 N2 1_555 1_555
H2 C7 1_555 1_555
H3 C7 1_555 1_555
H4 C12 1_555 1_555
H5 C13 1_555 1_555
H6 C14 1_555 1_555
H7 C14 1_555 1_555
H8 C16 1_555 1_555
H9 C17 1_555 1_555
H10 C19 1_555 1_555
H11 C20 1_555 1_555
H12 C21 1_555 1_555
H13 C21 1_555 1_555
H14 C21 1_555 1_555
H15 C22 1_555 1_555
H16 C22 1_555 1_555
H17 C22 1_555 1_555
H18 C23 1_555 1_555
H19 C23 1_555 1_555
H20 C23 1_555 1_555
H21 O2 1_555 1_555
H22 C24 1_555 1_555
H23 C24 1_555 1_555
H24 C24 1_555 1_555
H25 C25 1_555 1_555
H26 C25 1_555 1_555
H27 C25 1_555 1_555
H28 C26 1_555 1_555
H29 C26 1_555 1_555
H30 C26 1_555 1_555
N5 C6 1_555 1_555
C12 C13 1_555 1_555
C19 C20 1_555 1_555

#END
