
#######################################################################
#
#                 Cambridge Crystallographic Data Centre
#                                CCDC 
#
#######################################################################
#
# If this CIF has been generated from an entry in the Cambridge 
# Structural Database, then it will include bibliographic, chemical, 
# crystal, experimental, refinement or atomic coordinate data resulting 
# from the CCDC's data processing and validation procedures.
#
#######################################################################

data_PAQRIL
_chemical_formula_moiety         'C26 H14 F2 N2 O2'
_chemical_name_systematic        
6-fluoro-3-(2'-(6-fluoro-1,2-benzoxazol-3-yl)biphenyl-2-yl)-1,2-benzoxazole
_symmetry_cell_setting           monoclinic
_symmetry_space_group_name_H-M   'P 21/n'
_symmetry_Int_Tables_number      14
_space_group_name_Hall           '-P 2yn'
loop_
_symmetry_equiv_pos_site_id
_symmetry_equiv_pos_as_xyz
1 x,y,z
2 1/2-x,1/2+y,1/2-z
3 -x,-y,-z
4 1/2+x,1/2-y,1/2+z
_cell_length_a                   10.2653(13)
_cell_length_b                   10.3781(13)
_cell_length_c                   19.171(3)
_cell_angle_alpha                90
_cell_angle_beta                 105.132(3)
_cell_angle_gamma                90
_cell_volume                     1971.55
_exptl_crystal_colour            colorless
_exptl_crystal_description       prismatic
_cell_formula_units_Z            4
loop_
_atom_site_label
_atom_site_type_symbol
_atom_site_fract_x
_atom_site_fract_y
_atom_site_fract_z
F1 F 0.95207(12) 1.01880(13) 0.41975(7)
F2 F 0.65254(12) 1.05970(11) 0.04432(7)
N1 N 1.14538(14) 0.58549(13) 0.28527(8)
N2 N 0.81151(14) 0.60496(13) 0.21962(9)
O1 O 1.10233(12) 0.61861(12) 0.34800(7)
O2 O 0.74214(12) 0.72345(12) 0.21759(7)
C1 C 1.08412(14) 0.79504(15) 0.27865(9)
C2 C 1.05564(16) 0.92476(16) 0.26245(10)
H1 H 1.0660 0.9604 0.2197
C3 C 1.01220(17) 0.99772(18) 0.31106(11)
H2 H 0.9931 1.0846 0.3019
C4 C 0.99653(17) 0.9426(2) 0.37378(11)
C5 C 1.02215(17) 0.8162(2) 0.39235(10)
H3 H 1.0105 0.7811 0.4350
C6 C 1.06695(16) 0.74480(16) 0.34212(9)
C7 C 1.13315(15) 0.68848(15) 0.24542(9)
C8 C 1.17036(14) 0.68899(15) 0.17631(9)
C9 C 1.25127(17) 0.79020(17) 0.16461(10)
H4 H 1.2782 0.8531 0.2000
C10 C 1.29189(18) 0.79917(19) 0.10236(11)
H5 H 1.3466 0.8671 0.0959
C11 C 1.25169(18) 0.7074(2) 0.04937(10)
H6 H 1.2784 0.7134 0.0067
C12 C 1.17176(16) 0.60694(18) 0.05981(10)
H7 H 1.1453 0.5452 0.0237
C13 C 1.12925(14) 0.59456(15) 0.12250(9)
C14 C 1.04889(15) 0.47858(15) 0.13049(8)
C15 C 1.10006(16) 0.35921(16) 0.11881(9)
H8 H 1.1799 0.3559 0.1046
C16 C 1.03753(18) 0.24576(17) 0.12743(10)
H9 H 1.0747 0.1674 0.1190
C17 C 0.91929(18) 0.24878(17) 0.14862(10)
H10 H 0.8769 0.1725 0.1557
C18 C 0.86467(17) 0.36558(16) 0.15919(10)
H11 H 0.7842 0.3674 0.1728
C19 C 0.92637(15) 0.48115(15) 0.15005(8)
C20 C 0.85797(14) 0.60081(15) 0.16259(9)
C21 C 0.82317(15) 0.71589(15) 0.11999(9)
C22 C 0.74949(15) 0.78625(16) 0.15717(9)
C23 C 0.68910(17) 0.90418(17) 0.13441(11)
H12 H 0.6396 0.9503 0.1603
C24 C 0.70905(19) 0.94576(17) 0.07091(11)
C25 C 0.78338(19) 0.88080(19) 0.03129(11)
H13 H 0.7939 0.9158 -0.0116
C26 C 0.84152(17) 0.76439(17) 0.05560(9)
H14 H 0.8917 0.7193 0.0297
loop_
_geom_bond_atom_site_label_1
_geom_bond_atom_site_label_2
_geom_bond_site_symmetry_1
_geom_bond_site_symmetry_2
F1 C4 1_555 1_555
F2 C24 1_555 1_555
N1 O1 1_555 1_555
N2 O2 1_555 1_555
O1 C6 1_555 1_555
O2 C22 1_555 1_555
C1 C2 1_555 1_555
C2 H1 1_555 1_555
C3 C2 1_555 1_555
H2 C3 1_555 1_555
C4 C3 1_555 1_555
C5 C4 1_555 1_555
H3 C5 1_555 1_555
C6 C1 1_555 1_555
C7 N1 1_555 1_555
C8 C7 1_555 1_555
C9 C8 1_555 1_555
H4 C9 1_555 1_555
C10 C9 1_555 1_555
H5 C10 1_555 1_555
C11 C10 1_555 1_555
H6 C11 1_555 1_555
C12 C11 1_555 1_555
H7 C12 1_555 1_555
C13 C8 1_555 1_555
C14 C13 1_555 1_555
C15 C14 1_555 1_555
H8 C15 1_555 1_555
C16 C15 1_555 1_555
H9 C16 1_555 1_555
C17 C16 1_555 1_555
H10 C17 1_555 1_555
C18 C17 1_555 1_555
H11 C18 1_555 1_555
C19 C14 1_555 1_555
C20 N2 1_555 1_555
C21 C20 1_555 1_555
C22 C21 1_555 1_555
C23 C22 1_555 1_555
H12 C23 1_555 1_555
C24 C23 1_555 1_555
C25 C24 1_555 1_555
H13 C25 1_555 1_555
C26 C21 1_555 1_555
H14 C26 1_555 1_555
C1 C7 1_555 1_555
C5 C6 1_555 1_555
C12 C13 1_555 1_555
C18 C19 1_555 1_555
C19 C20 1_555 1_555
C25 C26 1_555 1_555

#END
