
#######################################################################
#
#                 Cambridge Crystallographic Data Centre
#                                CCDC 
#
#######################################################################
#
# If this CIF has been generated from an entry in the Cambridge 
# Structural Database, then it will include bibliographic, chemical, 
# crystal, experimental, refinement or atomic coordinate data resulting 
# from the CCDC's data processing and validation procedures.
#
#######################################################################

data_PAQSEI
_chemical_formula_moiety         'C32 H40 D6 N6 O7'
_chemical_name_systematic        
't-butyl {4-[12-benzyl-6-methyl-2,5,8,11,14-pentaoxo-9-(prop-2-yn-1-yl)(1,4,7,10,13-pentadeutero)-1,4,7,10,13-pentaazacycloheptadecan-3-yl]butyl}deuterocarbamate unknown solvate'
_symmetry_cell_setting           monoclinic
_symmetry_space_group_name_H-M   'P 21'
_symmetry_Int_Tables_number      4
_space_group_name_Hall           'P 2yb'
loop_
_symmetry_equiv_pos_site_id
_symmetry_equiv_pos_as_xyz
1 x,y,z
2 -x,1/2+y,-z
_cell_length_a                   9.3343(3)
_cell_length_b                   23.9338(9)
_cell_length_c                   9.3939(3)
_cell_angle_alpha                90
_cell_angle_beta                 118.3090(11)
_cell_angle_gamma                90
_cell_volume                     1847.65
_exptl_crystal_colour            colorless
_exptl_crystal_description       'irregular plate'
_cell_formula_units_Z            2
loop_
_atom_site_label
_atom_site_type_symbol
_atom_site_fract_x
_atom_site_fract_y
_atom_site_fract_z
O1 O 0.19519(18) 0.57100(7) 0.13128(18)
N1 N 0.35182(19) 0.50016(6) 0.12199(18)
D1 D 0.4395 0.4799 0.1783
C1 C 0.3225(2) 0.54408(8) 0.1939(2)
O2 O 0.67274(16) 0.57808(6) 0.24231(16)
N2 N 0.60732(19) 0.53162(6) 0.41412(18)
D2 D 0.64 0.5058 0.4898
C2 C 0.4501(2) 0.55808(8) 0.3663(2)
H1 H 0.409 0.542 0.4384
O3 O 0.65946(16) 0.43146(6) 0.22018(15)
N3 N 0.85224(18) 0.45551(6) 0.47229(18)
D3 D 0.9084 0.445 0.5739
C3 C 0.7049(2) 0.54391(7) 0.3508(2)
O4 O 0.46731(16) 0.38110(6) 0.39218(16)
N4 N 0.62505(19) 0.32635(6) 0.33016(18)
D4 D 0.6312 0.2967 0.2781
C4 C 0.8685(2) 0.51239(7) 0.4274(2)
H2 H 0.9434 0.5326 0.5289
O5 O 0.05264(16) 0.41404(6) -0.20015(16)
N5 N 0.1653(2) 0.40758(7) 0.0716(2)
D5 D 0.2367 0.4221 0.1645
C5 C 0.7528(2) 0.41869(7) 0.3612(2)
C6 C 0.7700(2) 0.35887(7) 0.4258(2)
H3 H 0.788 0.3605 0.5395
O6 O 0.36300(19) 0.74168(6) -0.12120(17)
N6 N 0.4934(2) 0.65829(7) -0.0394(2)
D6 D 0.5626 0.6385 0.044
C7 C 0.4823(2) 0.34056(8) 0.3195(2)
O7 O 0.51693(17) 0.72021(6) 0.14440(16)
C8 C 0.3408(2) 0.30209(9) 0.2147(2)
H4 H 0.3693 0.2634 0.256
H5 H 0.3257 0.3026 0.103
C9 C 0.1799(2) 0.31798(9) 0.2099(2)
H6 H 0.1167 0.2835 0.1977
H7 H 0.2038 0.3351 0.3148
C10 C 0.0751(3) 0.35821(10) 0.0749(3)
H8 H 0.032 0.3386 -0.0302
H9 H -0.0188 0.3701 0.0895
C11 C 0.1454(2) 0.43180(8) -0.0639(2)
C12 C 0.3395(2) 0.47891(8) -0.1402(2)
H10 H 0.4182 0.4479 -0.0929
H11 H 0.263 0.4689 -0.2535
C13 C 0.2437(2) 0.48491(8) -0.0459(2)
H12 H 0.1645 0.5162 -0.0962
C14 C 0.4623(3) 0.62116(8) 0.3956(2)
H13 H 0.5043 0.639 0.3289
H14 H 0.5363 0.6287 0.5099
H15 H 0.3543 0.6362 0.3667
C15 C 0.9457(2) 0.51454(8) 0.3142(2)
H16 H 0.8675 0.4997 0.2067
H17 H 0.9693 0.5539 0.3
C16 C 1.0963(2) 0.48198(8) 0.3789(2)
C17 C 0.9658(2) 0.27639(8) 0.5233(3)
C18 C 0.9179(2) 0.33016(8) 0.4260(3)
H18 H 0.8923 0.3218 0.3132
H19 H 1.0115 0.3562 0.4716
C19 C 1.2169(3) 0.45471(9) 0.4339(2)
H20 H 1.3134 0.4329 0.478
C20 C 0.9665(3) 0.22546(9) 0.4536(3)
H21 H 0.9328 0.2233 0.3411
C21 C 1.0164(3) 0.17743(10) 0.5481(3)
H22 H 1.0173 0.1427 0.4996
C22 C 1.0647(3) 0.17958(10) 0.7118(3)
H23 H 1.0979 0.1465 0.7753
C23 C 1.0643(3) 0.23023(10) 0.7823(3)
H24 H 1.0964 0.2322 0.8944
C24 C 1.0164(3) 0.27854(9) 0.6876(3)
H25 H 1.0185 0.3134 0.7367
C25 C 0.4314(3) 0.53180(8) -0.1392(2)
H26 H 0.4996 0.5232 -0.1911
H27 H 0.5056 0.542 -0.0254
C26 C 0.3253(3) 0.58250(8) -0.2242(2)
H28 H 0.2601 0.5745 -0.3412
H29 H 0.2492 0.5894 -0.1804
C27 C 0.4281(3) 0.63470(8) -0.2013(2)
H30 H 0.5194 0.6251 -0.2225
H31 H 0.3605 0.6632 -0.2813
C28 C 0.4505(2) 0.70938(8) -0.0141(2)
C29 C 0.4800(2) 0.77266(8) 0.2015(2)
C30 C 0.3000(3) 0.77516(10) 0.1522(3)
H32 H 0.2369 0.7784 0.0343
H33 H 0.2787 0.8077 0.2028
H34 H 0.2682 0.741 0.1877
C31 C 0.5376(3) 0.82302(9) 0.1433(3)
H35 H 0.6483 0.8162 0.1607
H36 H 0.5371 0.8562 0.2041
H37 H 0.4646 0.829 0.0279
C32 C 0.5803(3) 0.76769(9) 0.3833(3)
H38 H 0.5408 0.7361 0.4212
H39 H 0.5703 0.8022 0.4342
H40 H 0.6947 0.7616 0.4121
loop_
_geom_bond_atom_site_label_1
_geom_bond_atom_site_label_2
_geom_bond_site_symmetry_1
_geom_bond_site_symmetry_2
O1 C1 1_555 1_555
N1 D1 1_555 1_555
C1 N1 1_555 1_555
O2 C3 1_555 1_555
N2 D2 1_555 1_555
C2 C1 1_555 1_555
H1 C2 1_555 1_555
O3 C5 1_555 1_555
N3 D3 1_555 1_555
C3 N2 1_555 1_555
O4 C7 1_555 1_555
N4 D4 1_555 1_555
C4 N3 1_555 1_555
H2 C4 1_555 1_555
O5 C11 1_555 1_555
N5 D5 1_555 1_555
C5 N3 1_555 1_555
C6 N4 1_555 1_555
H3 C6 1_555 1_555
O6 C28 1_555 1_555
N6 D6 1_555 1_555
C7 N4 1_555 1_555
O7 C28 1_555 1_555
C8 C7 1_555 1_555
H4 C8 1_555 1_555
H5 C8 1_555 1_555
C9 C8 1_555 1_555
H6 C9 1_555 1_555
H7 C9 1_555 1_555
C10 N5 1_555 1_555
H8 C10 1_555 1_555
H9 C10 1_555 1_555
C11 N5 1_555 1_555
C12 H10 1_555 1_555
H11 C12 1_555 1_555
C13 N1 1_555 1_555
H12 C13 1_555 1_555
C14 C2 1_555 1_555
H13 C14 1_555 1_555
H14 C14 1_555 1_555
H15 C14 1_555 1_555
C15 C4 1_555 1_555
H16 C15 1_555 1_555
H17 C15 1_555 1_555
C16 C15 1_555 1_555
C17 C18 1_555 1_555
C18 C6 1_555 1_555
H18 C18 1_555 1_555
H19 C18 1_555 1_555
C19 C16 1_555 1_555
H20 C19 1_555 1_555
C20 C17 1_555 1_555
H21 C20 1_555 1_555
C21 C20 1_555 1_555
H22 C21 1_555 1_555
C22 C21 1_555 1_555
H23 C22 1_555 1_555
C23 C22 1_555 1_555
H24 C23 1_555 1_555
C24 C17 1_555 1_555
H25 C24 1_555 1_555
C25 C12 1_555 1_555
H26 C25 1_555 1_555
H27 C25 1_555 1_555
C26 C25 1_555 1_555
H28 C26 1_555 1_555
H29 C26 1_555 1_555
C27 N6 1_555 1_555
H30 C27 1_555 1_555
H31 C27 1_555 1_555
C28 N6 1_555 1_555
C29 O7 1_555 1_555
C30 C29 1_555 1_555
H32 C30 1_555 1_555
H33 C30 1_555 1_555
H34 C30 1_555 1_555
C31 C29 1_555 1_555
H35 C31 1_555 1_555
H36 C31 1_555 1_555
H37 C31 1_555 1_555
C32 C29 1_555 1_555
H38 C32 1_555 1_555
H39 C32 1_555 1_555
H40 C32 1_555 1_555
N2 C2 1_555 1_555
C3 C4 1_555 1_555
C5 C6 1_555 1_555
C9 C10 1_555 1_555
C11 C13 1_555 1_555
C12 C13 1_555 1_555
C23 C24 1_555 1_555
C26 C27 1_555 1_555

#END
