
#######################################################################
#
#                 Cambridge Crystallographic Data Centre
#                                CCDC 
#
#######################################################################
#
# If this CIF has been generated from an entry in the Cambridge 
# Structural Database, then it will include bibliographic, chemical, 
# crystal, experimental, refinement or atomic coordinate data resulting 
# from the CCDC's data processing and validation procedures.
#
#######################################################################

data_PAQWAH
_chemical_formula_moiety         'C40 H28 N2 O6'
_chemical_name_systematic        
2,4-bis(4-(diphenylamino)-2,6-dihydroxyphenyl)squaraine
_symmetry_cell_setting           triclinic
_symmetry_space_group_name_H-M   'P -1'
_symmetry_Int_Tables_number      2
_space_group_name_Hall           '-P 1'
loop_
_symmetry_equiv_pos_site_id
_symmetry_equiv_pos_as_xyz
1 x,y,z
2 -x,-y,-z
_cell_length_a                   11.1895(9)
_cell_length_b                   11.7874(11)
_cell_length_c                   11.9792(9)
_cell_angle_alpha                96.371(8)
_cell_angle_beta                 91.176(7)
_cell_angle_gamma                92.485(7)
_cell_volume                     1568.25
_exptl_crystal_colour            'metallic green blue'
_exptl_crystal_description       plate
_cell_formula_units_Z            2
loop_
_atom_site_label
_atom_site_type_symbol
_atom_site_fract_x
_atom_site_fract_y
_atom_site_fract_z
C1 C 1.2394(4) 0.7273(5) 0.8565(4)
C2 C 1.2476(5) 0.6527(5) 0.9380(4)
H1 H 1.2744 0.5779 0.9187
C3 C 1.2167(5) 0.6872(5) 1.0474(4)
H2 H 1.2206 0.6355 1.1026
C4 C 1.1800(5) 0.7974(5) 1.0764(4)
H3 H 1.16 0.8213 1.1518
C5 C 1.1727(5) 0.8726(5) 0.9953(4)
H4 H 1.1458 0.9474 1.0147
C6 C 1.2046(5) 0.8382(5) 0.8865(4)
H5 H 1.2028 0.8905 0.8317
C7 C 1.3749(4) 0.7606(4) 0.7065(4)
C8 C 1.4732(5) 0.7851(5) 0.7795(4)
H6 H 1.473 0.7579 0.8513
C9 C 1.5698(5) 0.8480(5) 0.7487(4)
H7 H 1.6369 0.8634 0.7987
C10 C 1.5707(5) 0.8895(5) 0.6449(5)
H8 H 1.6385 0.9325 0.6232
C11 C 1.4726(5) 0.8678(5) 0.5736(4)
H9 H 1.4728 0.8964 0.5026
C12 C 1.3742(5) 0.8053(5) 0.6036(4)
H10 H 1.306 0.7927 0.5545
C13 C 1.2166(4) 0.6059(5) 0.6767(4)
C14 C 1.2659(4) 0.5587(4) 0.5753(4)
H11 H 1.3358 0.5933 0.5475
C15 C 1.2108(4) 0.4604(5) 0.5163(4)
C16 C 1.1071(4) 0.4074(4) 0.5566(4)
C17 C 1.0570(4) 0.4600(5) 0.6572(4)
C18 C 1.1105(4) 0.5589(4) 0.7137(4)
H12 H 1.0743 0.595 0.7785
C19 C 1.0557(4) 0.3034(5) 0.5036(4)
C20 C 1.0773(4) 0.2266(4) 0.4005(4)
C21 C 0.9799(4) 0.1482(5) 0.4248(4)
C22 C 0.9601(4) 0.2237(4) 0.5268(4)
C23 C 0.9266(4) 0.0434(4) 0.3733(4)
C24 C 0.9613(4) -0.0039(5) 0.2636(4)
C25 C 0.8971(4) -0.0964(4) 0.2079(4)
H13 H 0.9202 -0.1263 0.1351
C26 C 0.7989(4) -0.1468(5) 0.2564(4)
C27 C 0.7699(4) -0.1075(4) 0.3673(4)
H14 H 0.7079 -0.1457 0.4037
C28 C 0.8313(4) -0.0137(5) 0.4228(4)
C29 C 0.6131(4) -0.2665(5) 0.2397(4)
C30 C 0.5909(5) -0.3773(5) 0.2672(4)
H15 H 0.6518 -0.4311 0.2604
C31 C 0.4802(5) -0.4078(5) 0.3043(4)
H16 H 0.4657 -0.4825 0.3251
C32 C 0.3897(5) -0.3322(6) 0.3118(4)
H17 H 0.3127 -0.3551 0.3354
C33 C 0.4120(5) -0.2229(5) 0.2847(4)
H18 H 0.3503 -0.1699 0.2912
C34 C 0.5232(5) -0.1895(5) 0.2481(4)
H19 H 0.5377 -0.1141 0.2289
C35 C 0.7605(5) -0.2918(5) 0.0924(4)
C36 C 0.8735(5) -0.3333(5) 0.0757(4)
H20 H 0.9314 -0.3259 0.1354
C37 C 0.9009(5) -0.3863(5) -0.0303(4)
H21 H 0.9792 -0.4121 -0.0433
C38 C 0.8159(5) -0.4017(5) -0.1165(4)
H22 H 0.8358 -0.4371 -0.1884
C39 C 0.7027(5) -0.3655(5) -0.0975(4)
H23 H 0.6434 -0.3785 -0.1559
C40 C 0.6733(5) -0.3097(5) 0.0063(4)
H24 H 0.5948 -0.284 0.0184
N1 N 1.2750(4) 0.6962(4) 0.7428(3)
N2 N 0.7286(4) -0.2352(4) 0.1992(3)
O1 O 1.2673(3) 0.4206(3) 0.4230(3)
H25 H 1.2305 0.3611 0.3925
O2 O 0.9569(3) 0.4212(3) 0.7018(3)
H26 H 0.9396 0.3541 0.6729
O3 O 1.1506(3) 0.2297(3) 0.3244(3)
O4 O 0.8869(3) 0.2200(3) 0.6042(3)
O5 O 1.0524(3) 0.0386(3) 0.2085(3)
H27 H 1.0842 0.096 0.2476
O6 O 0.7963(3) 0.0165(3) 0.5298(2)
H28 H 0.8309 0.0791 0.5551
loop_
_geom_bond_atom_site_label_1
_geom_bond_atom_site_label_2
_geom_bond_site_symmetry_1
_geom_bond_site_symmetry_2
C1 C2 1_555 1_555
C2 H1 1_555 1_555
C3 C2 1_555 1_555
H2 C3 1_555 1_555
C4 C3 1_555 1_555
H3 C4 1_555 1_555
C5 C4 1_555 1_555
H4 C5 1_555 1_555
C6 C1 1_555 1_555
H5 C6 1_555 1_555
C7 C8 1_555 1_555
C8 H6 1_555 1_555
C9 C8 1_555 1_555
H7 C9 1_555 1_555
C10 C9 1_555 1_555
H8 C10 1_555 1_555
C11 C10 1_555 1_555
H9 C11 1_555 1_555
C12 C7 1_555 1_555
H10 C12 1_555 1_555
C13 C14 1_555 1_555
C14 H11 1_555 1_555
C15 C14 1_555 1_555
C16 C15 1_555 1_555
C17 C16 1_555 1_555
C18 C13 1_555 1_555
H12 C18 1_555 1_555
C19 C16 1_555 1_555
C20 C19 1_555 1_555
C21 C20 1_555 1_555
C22 C19 1_555 1_555
C23 C21 1_555 1_555
C24 C23 1_555 1_555
C25 C24 1_555 1_555
H13 C25 1_555 1_555
C26 C25 1_555 1_555
C27 C26 1_555 1_555
H14 C27 1_555 1_555
C28 C23 1_555 1_555
C29 C30 1_555 1_555
C30 H15 1_555 1_555
C31 C30 1_555 1_555
H16 C31 1_555 1_555
C32 C31 1_555 1_555
H17 C32 1_555 1_555
C33 C32 1_555 1_555
H18 C33 1_555 1_555
C34 C29 1_555 1_555
H19 C34 1_555 1_555
C35 C36 1_555 1_555
C36 H20 1_555 1_555
C37 C36 1_555 1_555
H21 C37 1_555 1_555
C38 C37 1_555 1_555
H22 C38 1_555 1_555
C39 C38 1_555 1_555
H23 C39 1_555 1_555
C40 C35 1_555 1_555
H24 C40 1_555 1_555
N1 C1 1_555 1_555
N2 C26 1_555 1_555
O1 C15 1_555 1_555
H25 O1 1_555 1_555
O2 C17 1_555 1_555
H26 O2 1_555 1_555
O3 C20 1_555 1_555
O4 C22 1_555 1_555
O5 C24 1_555 1_555
H27 O5 1_555 1_555
O6 C28 1_555 1_555
H28 O6 1_555 1_555
C5 C6 1_555 1_555
C7 N1 1_555 1_555
C11 C12 1_555 1_555
C13 N1 1_555 1_555
C17 C18 1_555 1_555
C21 C22 1_555 1_555
C27 C28 1_555 1_555
C29 N2 1_555 1_555
C33 C34 1_555 1_555
C35 N2 1_555 1_555
C39 C40 1_555 1_555

#END
