
#######################################################################
#
#                 Cambridge Crystallographic Data Centre
#                                CCDC 
#
#######################################################################
#
# If this CIF has been generated from an entry in the Cambridge 
# Structural Database, then it will include bibliographic, chemical, 
# crystal, experimental, refinement or atomic coordinate data resulting 
# from the CCDC's data processing and validation procedures.
#
#######################################################################

data_PAQXOX
_chemical_formula_moiety         'C22 H25 N1 O6'
_chemical_name_systematic        
'dimethyl 11-t-butyl-10,12-dioxo-11-azatetracyclo[6.5.2.0^2,7^.0^9,13^]pentadeca-2,4,6-triene-14,15-dicarboxylate'
_symmetry_cell_setting           triclinic
_symmetry_space_group_name_H-M   'P -1'
_symmetry_Int_Tables_number      2
_space_group_name_Hall           '-P 1'
loop_
_symmetry_equiv_pos_site_id
_symmetry_equiv_pos_as_xyz
1 x,y,z
2 -x,-y,-z
_cell_length_a                   10.0753(11)
_cell_length_b                   10.3677(8)
_cell_length_c                   11.4126(13)
_cell_angle_alpha                76.523(8)
_cell_angle_beta                 80.432(9)
_cell_angle_gamma                64.208(9)
_cell_volume                     1040.95
_exptl_crystal_description       block
_cell_formula_units_Z            2
loop_
_atom_site_label
_atom_site_type_symbol
_atom_site_fract_x
_atom_site_fract_y
_atom_site_fract_z
O1 O 0.5063(2) 0.6850(3) 0.52801(18)
O2 O 0.3868(2) 0.7152(2) 0.15259(18)
O3 O 1.0907(2) 0.5443(2) 0.3476(2)
O4 O 1.1705(2) 0.3759(2) 0.23144(19)
O5 O 0.8776(3) 0.2417(2) 0.21622(19)
O6 O 0.9196(2) 0.3351(2) 0.02443(17)
N1 N 0.4152(2) 0.7400(2) 0.34177(18)
C1 C 0.2733(3) 0.8742(3) 0.3551(2)
C2 C 0.1438(5) 0.8376(5) 0.3556(6)
H1 H 0.1539 0.7977 0.2850
H2 H 0.0538 0.9243 0.3555
H3 H 0.1413 0.7674 0.4267
C3 C 0.2767(6) 0.9902(5) 0.2473(5)
H4 H 0.3676 1.0009 0.2421
H5 H 0.1949 1.0811 0.2567
H6 H 0.2700 0.9621 0.1749
C4 C 0.2584(7) 0.9260(7) 0.4714(6)
H7 H 0.2624 0.8490 0.5385
H8 H 0.1656 1.0086 0.4775
H9 H 0.3378 0.9533 0.4725
C5 C 0.5207(3) 0.6652(3) 0.4264(2)
C6 C 0.4594(3) 0.6774(3) 0.2386(2)
C7 C 0.6553(3) 0.5523(3) 0.3716(2)
H10 H 0.6757 0.4556 0.4210
C8 C 0.6131(2) 0.5583(2) 0.2479(2)
H11 H 0.6138 0.4652 0.2422
C9 C 0.7924(3) 0.5861(3) 0.3590(2)
H12 H 0.8189 0.5856 0.4379
C10 C 0.7195(2) 0.5992(2) 0.1472(2)
H13 H 0.6907 0.6085 0.0667
C11 C 0.7573(2) 0.7323(2) 0.2777(2)
C12 C 0.7164(2) 0.7400(2) 0.1652(2)
C13 C 0.6757(3) 0.8689(3) 0.0816(2)
H14 H 0.6492 0.8735 0.0059
C14 C 0.7574(3) 0.8548(3) 0.3065(3)
H15 H 0.7853 0.8506 0.3814
C15 C 0.7158(3) 0.9839(3) 0.2229(3)
H16 H 0.7158 1.0662 0.2423
C16 C 0.6750(3) 0.9911(3) 0.1127(3)
H17 H 0.6465 1.0785 0.0578
C17 C 0.9177(3) 0.4670(3) 0.2962(2)
H18 H 0.9237 0.3723 0.3422
C18 C 0.8794(2) 0.4803(2) 0.1667(2)
H19 H 0.9479 0.5118 0.1091
C19 C 0.8936(3) 0.3378(3) 0.1417(2)
C20 C 1.0665(3) 0.4703(3) 0.2961(2)
C21 C 1.3183(3) 0.3686(4) 0.2245(4)
H20 H 1.3849 0.2937 0.1804
H21 H 1.3494 0.3465 0.3046
H22 H 1.3187 0.4606 0.1838
C22 C 0.9266(4) 0.2086(4) -0.0145(3)
H23 H 0.9578 0.2133 -0.0990
H24 H 0.8307 0.2070 -0.0009
H25 H 0.9961 0.1218 0.0307
C23? C 0.1807(19) 0.8339(19) 0.4637(18)
H26? H 0.1492 0.7652 0.4474
H27? H 0.0956 0.9199 0.4799
H28? H 0.2385 0.7913 0.5327
C24? C 0.323(2) 0.9871(17) 0.377(3)
H29? H 0.3830 0.9463 0.4451
H30? H 0.2382 1.0729 0.3934
H31? H 0.3803 1.0123 0.3068
C25? C 0.173(2) 0.928(2) 0.2463(17)
H32? H 0.2344 0.9188 0.1719
H33? H 0.1064 1.0288 0.2447
H34? H 0.1178 0.8708 0.2557
loop_
_geom_bond_atom_site_label_1
_geom_bond_atom_site_label_2
_geom_bond_site_symmetry_1
_geom_bond_site_symmetry_2
O1 C5 1_555 1_555
O2 C6 1_555 1_555
O3 C20 1_555 1_555
O4 C20 1_555 1_555
O5 C19 1_555 1_555
O6 C19 1_555 1_555
N1 C1 1_555 1_555
C1 C2 1_555 1_555
C2 H1 1_555 1_555
H2 C2 1_555 1_555
H3 C2 1_555 1_555
C3 C1 1_555 1_555
H4 C3 1_555 1_555
H5 C3 1_555 1_555
H6 C3 1_555 1_555
C4 C1 1_555 1_555
H7 C4 1_555 1_555
H8 C4 1_555 1_555
H9 C4 1_555 1_555
C5 N1 1_555 1_555
C6 N1 1_555 1_555
C7 C5 1_555 1_555
H10 C7 1_555 1_555
C8 C6 1_555 1_555
H11 C8 1_555 1_555
C9 C7 1_555 1_555
H12 C9 1_555 1_555
C10 C8 1_555 1_555
H13 C10 1_555 1_555
C11 C9 1_555 1_555
C12 C10 1_555 1_555
C13 C12 1_555 1_555
H14 C13 1_555 1_555
C14 C11 1_555 1_555
H15 C14 1_555 1_555
C15 C14 1_555 1_555
H16 C15 1_555 1_555
C16 C13 1_555 1_555
H17 C16 1_555 1_555
C17 C9 1_555 1_555
H18 C17 1_555 1_555
C18 C10 1_555 1_555
H19 C18 1_555 1_555
C19 C18 1_555 1_555
C20 C17 1_555 1_555
C21 O4 1_555 1_555
H20 C21 1_555 1_555
H21 C21 1_555 1_555
H22 C21 1_555 1_555
C22 O6 1_555 1_555
H23 C22 1_555 1_555
H24 C22 1_555 1_555
H25 C22 1_555 1_555
C7 C8 1_555 1_555
C11 C12 1_555 1_555
C15 C16 1_555 1_555
C17 C18 1_555 1_555

#END
