
#######################################################################
#
#                 Cambridge Crystallographic Data Centre
#                                CCDC 
#
#######################################################################
#
# If this CIF has been generated from an entry in the Cambridge 
# Structural Database, then it will include bibliographic, chemical, 
# crystal, experimental, refinement or atomic coordinate data resulting 
# from the CCDC's data processing and validation procedures.
#
#######################################################################

data_PAQXEL
_chemical_formula_moiety         'C17 H23 N1 O12'
_chemical_name_systematic        
'gluco-(5S)-2-oxy-5-((1S, 2R, 3R)-1,2,3,4-tetra-acetoxybutyl)-4,5-dihydroisoxazole-3-carboxylic acid methyl ester'
_symmetry_cell_setting           monoclinic
_symmetry_space_group_name_H-M   'P 21'
_symmetry_Int_Tables_number      4
_space_group_name_Hall           'P 2yb'
loop_
_symmetry_equiv_pos_site_id
_symmetry_equiv_pos_as_xyz
1 x,y,z
2 -x,1/2+y,-z
_cell_length_a                   8.7077(11)
_cell_length_b                   12.2476(19)
_cell_length_c                   10.4305(13)
_cell_angle_alpha                90
_cell_angle_beta                 113.187(9)
_cell_angle_gamma                90
_cell_volume                     1022.54
_exptl_crystal_colour            colorless
_exptl_crystal_description       plate
_chemical_melting_point          '163-164 deg.C'
_cell_formula_units_Z            2
loop_
_atom_site_label
_atom_site_type_symbol
_atom_site_fract_x
_atom_site_fract_y
_atom_site_fract_z
C1 C 0.3299(5) 0.2977(3) 0.4583(4)
C2 C 0.2949(5) 0.1816(3) 0.4110(5)
H1 H 0.290(5) 0.136(4) 0.479(5)
H2 H 0.185(6) 0.171(4) 0.323(5)
C3 C 0.4377(5) 0.1566(3) 0.3657(4)
H3 H 0.496(4) 0.089(3) 0.397(4)
C4 C 0.4020(4) 0.1810(3) 0.2127(4)
H4 H 0.384(4) 0.266(3) 0.189(4)
C5 C 0.2668(5) 0.1133(3) 0.1042(4)
H5 H 0.171(7) 0.141(4) 0.112(5)
C6 C 0.2676(5) 0.1216(3) -0.0391(4)
H6 H 0.371(5) 0.106(3) -0.041(3)
C7 C 0.1343(5) 0.0533(4) -0.1515(6)
H7 H 0.173(5) -0.019(4) -0.131(4)
H8 H 0.132(5) 0.068(3) -0.238(5)
C8 C 0.2182(5) 0.3759(4) 0.4837(4)
C9 C -0.0466(7) 0.3892(6) 0.5021(7)
H9 H -0.139(7) 0.320(5) 0.504(6)
H10 H -0.064(8) 0.458(6) 0.449(8)
H11 H -0.007(5) 0.427(3) 0.593(4)
C10 C 0.6527(4) 0.2432(4) 0.1840(4)
C11 C 0.8121(6) 0.2028(4) 0.1837(6)
H12 H 0.865(7) 0.174(5) 0.278(6)
H13 H 0.879(6) 0.254(4) 0.191(5)
H14 H 0.815(9) 0.136(5) 0.139(7)
C12 C 0.1699(5) -0.0527(3) 0.1709(4)
C13 C 0.1935(7) -0.1753(3) 0.1773(7)
H15 H 0.149(6) -0.206(4) 0.250(6)
H16 H 0.304(5) -0.194(3) 0.188(4)
H17 H 0.122(6) -0.181(4) 0.091(6)
C14 C 0.3357(5) 0.2782(4) -0.1434(5)
C15 C 0.3241(6) 0.4006(3) -0.1502(6)
H18 H 0.403(8) 0.435(5) -0.050(7)
H19 H 0.218(8) 0.419(5) -0.150(7)
H20 H 0.381(7) 0.427(5) -0.205(6)
C16 C -0.1362(5) -0.0057(4) -0.1733(4)
C17 C -0.3060(5) 0.0326(4) -0.1977(5)
H21 H -0.3613 0.0558 -0.2929
H22 H -0.2991 0.0927 -0.1367
H23 H -0.3681 -0.0258 -0.1794
O1 O 0.5708(3) 0.2326(2) 0.4493(3)
O2 O 0.5698(4) 0.4080(2) 0.5197(3)
O3 O 0.5585(3) 0.1583(2) 0.1978(3)
O4 O 0.2895(3) -0.0026(2) 0.1397(3)
O5 O 0.2466(3) 0.2368(2) -0.0744(3)
O6 O -0.0292(3) 0.0778(2) -0.1563(3)
O7 O 0.2412(4) 0.4726(3) 0.5032(4)
O8 O 0.0826(3) 0.3222(3) 0.4828(3)
O9 O 0.6063(3) 0.3386(2) 0.1735(3)
O10 O 0.0598(4) -0.0058(3) 0.1885(3)
O11 O 0.4118(4) 0.2225(3) -0.1920(4)
O12 O -0.0939(4) -0.1000(2) -0.1710(3)
N1 N 0.4822(4) 0.3251(3) 0.4784(3)
loop_
_geom_bond_atom_site_label_1
_geom_bond_atom_site_label_2
_geom_bond_site_symmetry_1
_geom_bond_site_symmetry_2
C1 C2 1_555 1_555
C2 H1 1_555 1_555
H2 C2 1_555 1_555
C3 C2 1_555 1_555
H3 C3 1_555 1_555
C4 C3 1_555 1_555
H4 C4 1_555 1_555
C5 C4 1_555 1_555
H5 C5 1_555 1_555
C6 C5 1_555 1_555
H6 C6 1_555 1_555
C7 C6 1_555 1_555
H7 C7 1_555 1_555
H8 C7 1_555 1_555
C8 C1 1_555 1_555
C9 H9 1_555 1_555
H10 C9 1_555 1_555
H11 C9 1_555 1_555
C10 C11 1_555 1_555
C11 H12 1_555 1_555
H13 C11 1_555 1_555
H14 C11 1_555 1_555
C12 C13 1_555 1_555
C13 H15 1_555 1_555
H16 C13 1_555 1_555
H17 C13 1_555 1_555
C14 C15 1_555 1_555
C15 H18 1_555 1_555
H19 C15 1_555 1_555
H20 C15 1_555 1_555
C16 C17 1_555 1_555
C17 H21 1_555 1_555
H22 C17 1_555 1_555
H23 C17 1_555 1_555
O1 C3 1_555 1_555
O2 N1 1_555 1_555
O3 C4 1_555 1_555
O4 C5 1_555 1_555
O5 C6 1_555 1_555
O6 C7 1_555 1_555
O7 C8 1_555 1_555
O8 C8 1_555 1_555
O9 C10 1_555 1_555
O10 C12 1_555 1_555
O11 C14 1_555 1_555
O12 C16 1_555 1_555
N1 C1 1_555 1_555
C9 O8 1_555 1_555
C10 O3 1_555 1_555
C12 O4 1_555 1_555
C14 O5 1_555 1_555
C16 O6 1_555 1_555
O1 N1 1_555 1_555

#END
