
#######################################################################
#
#                 Cambridge Crystallographic Data Centre
#                                CCDC 
#
#######################################################################
#
# If this CIF has been generated from an entry in the Cambridge 
# Structural Database, then it will include bibliographic, chemical, 
# crystal, experimental, refinement or atomic coordinate data resulting 
# from the CCDC's data processing and validation procedures.
#
#######################################################################

data_PAQYEM
_chemical_formula_moiety         'C21 H22 N4 O2'
_chemical_name_systematic        
1-Ethyl-4-methyl-2,6-dioxo-5-((1,3,3-trimethyl-1,3-dihydro-2H-indol-2-ylidene)methylimino)-1,2,5,6-tetrahydropyridine-3-carbonitrile
_symmetry_cell_setting           triclinic
_symmetry_space_group_name_H-M   'P -1'
_symmetry_Int_Tables_number      2
_space_group_name_Hall           '-P 1'
loop_
_symmetry_equiv_pos_site_id
_symmetry_equiv_pos_as_xyz
1 x,y,z
2 -x,-y,-z
_cell_length_a                   8.356(3)
_cell_length_b                   9.510(3)
_cell_length_c                   12.096(4)
_cell_angle_alpha                89.931(9)
_cell_angle_beta                 75.581(7)
_cell_angle_gamma                81.927(9)
_cell_volume                     921.14
_chemical_melting_point          '264-267 deg.C'
_cell_formula_units_Z            2
loop_
_atom_site_label
_atom_site_type_symbol
_atom_site_fract_x
_atom_site_fract_y
_atom_site_fract_z
N1 N 0.8248(4) 0.7934(4) 0.5449(3)
N2 N 0.7073(4) 1.0125(4) 0.8005(3)
N3 N 0.3687(4) 1.3128(4) 0.8993(3)
N4 N 0.5587(5) 1.3152(5) 1.2400(3)
O1 O 0.3067(4) 1.4496(4) 1.0634(3)
O2 O 0.4191(4) 1.1716(4) 0.7417(3)
C1 C 0.9823(5) 0.7144(5) 0.4913(4)
C2 C 1.0310(6) 0.6426(5) 0.3878(4)
H1 H 0.9567 0.6354 0.3430
C3 C 1.1973(6) 0.5807(5) 0.3531(4)
H2 H 1.2357 0.5323 0.2826
C4 C 1.3056(7) 0.5892(6) 0.4199(5)
C5 C 1.2513(6) 0.6610(6) 0.5262(4)
C6 C 1.0881(5) 0.7261(5) 0.5604(4)
C7 C 0.9973(5) 0.8196(5) 0.6654(4)
C8 C 0.8279(5) 0.8604(5) 0.6407(3)
C9 C 0.6945(5) 0.9598(5) 0.7022(4)
H3 H 0.6007 0.9875 0.6748
C10 C 0.5996(5) 1.1178(5) 0.8633(4)
C11 C 0.6274(5) 1.1497(5) 0.9722(4)
C12 C 0.5273(5) 1.2589(5) 1.0391(4)
C13 C 0.3943(5) 1.3488(5) 1.0042(4)
C14 C 0.4594(5) 1.1973(5) 0.8284(4)
C15 C 1.0857(5) 0.9488(5) 0.6713(4)
H4 H 1.0916 1.0006 0.6025
H5 H 1.1965 0.9176 0.6791
H6 H 1.0243 1.0092 0.7358
C16 C 0.9831(5) 0.7342(5) 0.7745(4)
H7 H 0.9296 0.7959 0.8399
H8 H 1.0927 0.6941 0.7801
H9 H 0.9182 0.6593 0.7715
C17 C 0.6780(5) 0.7992(6) 0.4983(4)
H10 H 0.5785 0.8245 0.5584
H11 H 0.6763 0.7078 0.4652
H12 H 0.6832 0.8690 0.4406
C18 C 0.7671(5) 1.0636(5) 1.0106(4)
H13 H 0.8722 1.0840 0.9647
H14 H 0.7606 0.9643 1.0024
H15 H 0.7579 1.0873 1.0893
C19 C 0.5442(5) 1.2929(5) 1.1512(4)
C20 C 0.2300(5) 1.3960(5) 0.8629(4)
H16 H 0.2605 1.4029 0.7805
H17 H 0.2099 1.4915 0.8964
C21 C 0.0712(5) 1.3291(5) 0.8985(4)
H18 H 0.0857 1.2403 0.8570
H19 H -0.0198 1.3919 0.8820
H20 H 0.0472 1.3129 0.9789
H21 H 1.423(6) 0.543(5) 0.396(4)
H22 H 1.327(5) 0.673(4) 0.570(3)
loop_
_geom_bond_atom_site_label_1
_geom_bond_atom_site_label_2
_geom_bond_site_symmetry_1
_geom_bond_site_symmetry_2
N1 C1 1_555 1_555
N2 C9 1_555 1_555
N3 C13 1_555 1_555
N4 C19 1_555 1_555
O1 C13 1_555 1_555
O2 C14 1_555 1_555
C1 C2 1_555 1_555
C2 H1 1_555 1_555
C3 C2 1_555 1_555
H2 C3 1_555 1_555
C4 C3 1_555 1_555
C5 C4 1_555 1_555
C6 C1 1_555 1_555
C7 C6 1_555 1_555
C8 N1 1_555 1_555
C9 C8 1_555 1_555
H3 C9 1_555 1_555
C10 N2 1_555 1_555
C11 C10 1_555 1_555
C12 C11 1_555 1_555
C13 C12 1_555 1_555
C14 N3 1_555 1_555
C15 C7 1_555 1_555
H4 C15 1_555 1_555
H5 C15 1_555 1_555
H6 C15 1_555 1_555
C16 C7 1_555 1_555
H7 C16 1_555 1_555
H8 C16 1_555 1_555
H9 C16 1_555 1_555
C17 N1 1_555 1_555
H10 C17 1_555 1_555
H11 C17 1_555 1_555
H12 C17 1_555 1_555
C18 C11 1_555 1_555
H13 C18 1_555 1_555
H14 C18 1_555 1_555
H15 C18 1_555 1_555
C19 C12 1_555 1_555
C20 N3 1_555 1_555
H16 C20 1_555 1_555
H17 C20 1_555 1_555
C21 C20 1_555 1_555
H18 C21 1_555 1_555
H19 C21 1_555 1_555
H20 C21 1_555 1_555
H21 C4 1_555 1_555
H22 C5 1_555 1_555
C5 C6 1_555 1_555
C7 C8 1_555 1_555
C10 C14 1_555 1_555

#END
