
#######################################################################
#
#                 Cambridge Crystallographic Data Centre
#                                CCDC 
#
#######################################################################
#
# If this CIF has been generated from an entry in the Cambridge 
# Structural Database, then it will include bibliographic, chemical, 
# crystal, experimental, refinement or atomic coordinate data resulting 
# from the CCDC's data processing and validation procedures.
#
#######################################################################

data_PARCUJ
_chemical_compound_source        'aerial parts of Baeckea frutescens L.'
_chemical_name_common            'frutescone B methanol solvate'
_chemical_formula_moiety         'C29 H44 O3,C1 H4 O1'
_chemical_name_systematic        
'10-isopropyl-7-methoxy-2,2,4a,6,8,8-hexamethyl-13-methylene-2,2a,3,4,4a,8,10,10a,11,12,13,13a-dodecahydrocyclobuta[6,7]cyclonona[1,2-b]chromen-9(1H)-one methanol solvate'
_chemical_properties_biological  
'tested for cytotoxicity against human cancer cell lines Caco-2, A549 and HepG2'
_symmetry_cell_setting           monoclinic
_symmetry_space_group_name_H-M   'P 21'
_symmetry_Int_Tables_number      4
_space_group_name_Hall           'P 2yb'
loop_
_symmetry_equiv_pos_site_id
_symmetry_equiv_pos_as_xyz
1 x,y,z
2 -x,1/2+y,-z
_cell_length_a                   8.78970(10)
_cell_length_b                   12.3070(2)
_cell_length_c                   26.0231(3)
_cell_angle_alpha                90
_cell_angle_beta                 93.9320(10)
_cell_angle_gamma                90
_cell_volume                     2808.42
_exptl_crystal_colour            colorless
_exptl_crystal_description       block
_cell_formula_units_Z            4
loop_
_atom_site_label
_atom_site_type_symbol
_atom_site_fract_x
_atom_site_fract_y
_atom_site_fract_z
O1 O 0.00717(15) 0.94486(12) 0.98319(5)
O2 O 0.41193(18) 0.99453(17) 0.87722(6)
O3 O -0.0962(2) 1.08127(16) 0.81523(6)
C1 C 0.2211(2) 0.97510(17) 0.93525(7)
C2 C -0.2124(2) 1.0051(2) 0.91243(9)
H1 H -0.2437 0.9305 0.9136
H2 H -0.2746 1.0427 0.8864
H3 H -0.2238 1.0385 0.9453
C3 C 0.2551(2) 0.90293(15) 1.02831(7)
H4 H 0.2474 0.9631 1.0526
C4 C 0.0681(2) 0.97646(16) 0.93961(7)
C5 C 0.3328(2) 0.94891(16) 0.98043(7)
H5 H 0.4025 0.8930 0.9691
C6 C 0.3343(3) 0.87976(19) 1.14893(8)
C7 C -0.0454(2) 0.9479(2) 1.09153(8)
H6 H -0.0792 1.0054 1.0679
H7 H -0.1310 0.9296 1.1115
C8 C -0.0478(2) 1.01077(16) 0.89989(7)
C9 C -0.0102(2) 0.84862(18) 1.05935(7)
H8 H -0.1067 0.8186 1.0456
H9 H 0.0369 0.7946 1.0825
C10 C 0.3314(3) 0.78571(18) 1.11178(8)
H10 H 0.2334 0.7498 1.1123
H11 H 0.4090 0.7339 1.1239
C11 C 0.0009(2) 1.04381(18) 0.85469(8)
C12 C 0.0796(2) 0.99480(18) 1.12861(7)
H12 H 0.1453 1.0413 1.1090
C13 C 0.3581(2) 0.81580(18) 1.05543(8)
H13 H 0.4629 0.8400 1.0545
H14 H 0.3481 0.7498 1.0351
C14 C 0.2768(2) 1.00316(18) 0.88601(7)
C15 C 0.1834(2) 0.92106(19) 1.16528(7)
H15 H 0.1232 0.8594 1.1764
C16 C 0.5629(3) 1.0337(2) 1.03358(9)
H16 H 0.5249 1.0216 1.0668
H17 H 0.6283 1.0962 1.0350
H18 H 0.6195 0.9712 1.0238
C17 C 0.3317(3) 1.1481(2) 1.00946(11)
H19 H 0.2470 1.1571 0.9845
H20 H 0.3921 1.2131 1.0110
H21 H 0.2946 1.1340 1.0427
C18 C 0.2106(3) 1.1698(2) 0.83669(12)
H22 H 0.1424 1.2026 0.8108
H23 H 0.3133 1.1743 0.8264
H24 H 0.2033 1.2073 0.8688
C19 C 0.0881(3) 0.75727(19) 0.98250(8)
H25 H -0.0115 0.7481 0.9655
H26 H 0.1108 0.6965 1.0048
H27 H 0.1626 0.7616 0.9573
C20 C 0.4291(2) 1.05282(18) 0.99389(8)
H28 H 0.4739 1.0748 0.9620
C21 C 0.0917(2) 0.86216(16) 1.01431(7)
C22 C 0.1907(4) 0.9880(3) 0.79324(9)
H29 H 0.1648 0.9128 0.7973
H30 H 0.2955 0.9938 0.7854
H31 H 0.1267 1.0190 0.7656
C23 C 0.1666(2) 1.04912(19) 0.84327(8)
C24 C 0.1791(3) 1.0128(3) 1.20570(9)
H32 H 0.1634 0.9870 1.2401
H33 H 0.2660 1.0615 1.2060
C25 C -0.1972(4) 1.0041(3) 0.79009(13)
H34 H -0.1766 0.9991 0.7544
H35 H -0.3008 1.0271 0.7928
H36 H -0.1823 0.9344 0.8061
C26 C 0.4665(3) 0.9192(3) 1.16792(10)
H37 H 0.5572 0.8888 1.1583
H38 H 0.4687 0.9772 1.1908
C27 C 0.0338(3) 1.0591(2) 1.17707(9)
C28 C -0.1122(3) 1.0182(3) 1.19951(10)
H39 H -0.1991 1.0405 1.1776
H40 H -0.1195 1.0482 1.2333
H41 H -0.1097 0.9404 1.2016
C29 C 0.0295(4) 1.1821(3) 1.17079(13)
H42 H 0.1256 1.2069 1.1598
H43 H 0.0106 1.2152 1.2031
H44 H -0.0503 1.2015 1.1455
O4 O 0.49057(15) 0.68918(12) 0.51383(5)
O5 O 0.5916(2) 0.82941(16) 0.68123(6)
O6 O 0.08489(18) 0.73724(17) 0.61951(6)
C30 C 0.2762(2) 0.71903(17) 0.56143(7)
C31 C 0.7092(2) 0.7497(2) 0.58509(8)
H45 H 0.7409 0.6751 0.5848
H46 H 0.7706 0.7887 0.6109
H47 H 0.7213 0.7816 0.5519
C32 C 0.2202(2) 0.74665(19) 0.61083(7)
C33 C 0.2433(2) 0.64739(16) 0.46855(7)
H48 H 0.2514 0.7078 0.4443
C34 C 0.4293(2) 0.72077(16) 0.55738(7)
C35 C 0.5448(2) 0.75575(17) 0.59705(7)
C36 C 0.3296(2) 0.79392(19) 0.65331(7)
C37 C 0.5437(2) 0.6924(2) 0.40550(8)
H49 H 0.5777 0.7498 0.4291
H50 H 0.6293 0.6741 0.3855
C38 C 0.5085(2) 0.59285(18) 0.43766(7)
H51 H 0.6049 0.5628 0.4514
H52 H 0.4614 0.5389 0.4145
C39 C -0.0654(3) 0.7780(3) 0.46338(9)
H53 H -0.0270 0.7640 0.4304
H54 H -0.1291 0.8414 0.4613
H55 H -0.1240 0.7167 0.4735
C40 C 0.1681(3) 0.52993(19) 0.38510(9)
H56 H 0.2665 0.4942 0.3849
H57 H 0.0912 0.4776 0.3731
C41 C 0.1654(3) 0.62325(19) 0.34716(8)
C42 C 0.4103(3) 0.50197(19) 0.51464(9)
H58 H 0.5107 0.4919 0.5309
H59 H 0.3847 0.4412 0.4926
H60 H 0.3379 0.5073 0.5405
C43 C 0.1405(2) 0.56008(19) 0.44107(8)
H61 H 0.1499 0.4941 0.4615
H62 H 0.0357 0.5844 0.4417
C44 C 0.4065(2) 0.60632(16) 0.48269(7)
C45 C 0.3064(3) 0.7335(3) 0.70368(9)
H63 H 0.2014 0.7385 0.7114
H64 H 0.3695 0.7657 0.7312
H65 H 0.3339 0.6585 0.7001
C46 C 0.1650(2) 0.69285(17) 0.51646(7)
H66 H 0.0957 0.6366 0.5277
C47 C 0.4669(4) 0.9277(3) 0.32778(12)
H67 H 0.5462 0.9469 0.3534
H68 H 0.3703 0.9515 0.3388
H69 H 0.4859 0.9622 0.2958
C48 C 0.4951(2) 0.78969(18) 0.64191(7)
C49 C 0.1651(3) 0.8923(2) 0.48786(11)
H70 H 0.2029 0.8786 0.4547
H71 H 0.2493 0.9014 0.5130
H72 H 0.1043 0.9572 0.4862
C50 C 0.0678(2) 0.79675(19) 0.50314(8)
H73 H 0.0227 0.8182 0.5350
C51 C 0.6106(4) 0.7661(3) 0.29770(11)
H74 H 0.6186 0.7988 0.2645
H75 H 0.6076 0.6885 0.2941
H76 H 0.6972 0.7865 0.3201
C52 C 0.4185(2) 0.73936(18) 0.36846(7)
H77 H 0.3523 0.7851 0.3882
C53 C 0.3191(3) 0.7586(3) 0.29139(9)
H78 H 0.2317 0.8067 0.2912
H79 H 0.3355 0.7334 0.2569
C54 C 0.4643(3) 0.8053(2) 0.32056(9)
C55 C 0.2834(3) 0.9141(2) 0.65922(11)
H80 H 0.2896 0.9509 0.6269
H81 H 0.3511 0.9482 0.6849
H82 H 0.1808 0.9179 0.6696
C56 C 0.3155(3) 0.6662(2) 0.33145(8)
H83 H 0.3766 0.6053 0.3200
C57 C 0.6915(4) 0.7539(3) 0.70792(12)
H84 H 0.7953 0.7727 0.7027
H85 H 0.6706 0.6820 0.6950
H86 H 0.6759 0.7562 0.7441
C58 C 0.0324(3) 0.6603(3) 0.32686(11)
H87 H 0.0301 0.7147 0.3020
H88 H -0.0582 0.6318 0.3375
O7 O 0.5460(5) 0.8150(3) 0.8325(2)
H89 H 0.5578 0.8648 0.8533
C59 C 0.4666(7) 0.7357(4) 0.8527(2)
H90 H 0.3607 0.7435 0.8416
H91 H 0.4788 0.7395 0.8895
H92 H 0.5029 0.6667 0.8413
O8 O -0.0567(5) 0.5593(4) 0.6615(2)
H93 H -0.0612 0.6051 0.6386
C60 C 0.0382(7) 0.4791(4) 0.6493(2)
H94 H 0.0010 0.4110 0.6613
H95 H 0.1381 0.4927 0.6653
H96 H 0.0434 0.4764 0.6126
loop_
_geom_bond_atom_site_label_1
_geom_bond_atom_site_label_2
_geom_bond_site_symmetry_1
_geom_bond_site_symmetry_2
O1 C4 1_555 1_555
O2 C14 1_555 1_555
O3 C11 1_555 1_555
C1 C4 1_555 1_555
C2 H1 1_555 1_555
H2 C2 1_555 1_555
H3 C2 1_555 1_555
C3 H4 1_555 1_555
C4 C8 1_555 1_555
C5 C1 1_555 1_555
H5 C5 1_555 1_555
C6 C10 1_555 1_555
C7 H6 1_555 1_555
H7 C7 1_555 1_555
C8 C2 1_555 1_555
C9 C7 1_555 1_555
H8 C9 1_555 1_555
H9 C9 1_555 1_555
C10 H10 1_555 1_555
H11 C10 1_555 1_555
C11 C8 1_555 1_555
C12 C7 1_555 1_555
H12 C12 1_555 1_555
C13 C3 1_555 1_555
H13 C13 1_555 1_555
H14 C13 1_555 1_555
C14 C1 1_555 1_555
C15 C6 1_555 1_555
H15 C15 1_555 1_555
C16 H16 1_555 1_555
H17 C16 1_555 1_555
H18 C16 1_555 1_555
C17 H19 1_555 1_555
H20 C17 1_555 1_555
H21 C17 1_555 1_555
C18 H22 1_555 1_555
H23 C18 1_555 1_555
H24 C18 1_555 1_555
C19 H25 1_555 1_555
H26 C19 1_555 1_555
H27 C19 1_555 1_555
C20 C5 1_555 1_555
H28 C20 1_555 1_555
C21 O1 1_555 1_555
C22 H29 1_555 1_555
H30 C22 1_555 1_555
H31 C22 1_555 1_555
C23 C11 1_555 1_555
C24 C15 1_555 1_555
H32 C24 1_555 1_555
H33 C24 1_555 1_555
C25 O3 1_555 1_555
H34 C25 1_555 1_555
H35 C25 1_555 1_555
H36 C25 1_555 1_555
C26 C6 1_555 1_555
H37 C26 1_555 1_555
H38 C26 1_555 1_555
C27 C12 1_555 1_555
C28 C27 1_555 1_555
H39 C28 1_555 1_555
H40 C28 1_555 1_555
H41 C28 1_555 1_555
C29 C27 1_555 1_555
H42 C29 1_555 1_555
H43 C29 1_555 1_555
H44 C29 1_555 1_555
O4 C34 1_555 1_555
O5 C48 1_555 1_555
O6 C32 1_555 1_555
C30 C32 1_555 1_555
C31 H45 1_555 1_555
H46 C31 1_555 1_555
H47 C31 1_555 1_555
C32 C36 1_555 1_555
C33 H48 1_555 1_555
C34 C30 1_555 1_555
C35 C31 1_555 1_555
C36 C45 1_555 1_555
C37 H49 1_555 1_555
H50 C37 1_555 1_555
C38 C37 1_555 1_555
H51 C38 1_555 1_555
H52 C38 1_555 1_555
C39 H53 1_555 1_555
H54 C39 1_555 1_555
H55 C39 1_555 1_555
C40 H56 1_555 1_555
H57 C40 1_555 1_555
C41 C40 1_555 1_555
C42 H58 1_555 1_555
H59 C42 1_555 1_555
H60 C42 1_555 1_555
C43 C33 1_555 1_555
H61 C43 1_555 1_555
H62 C43 1_555 1_555
C44 O4 1_555 1_555
C45 H63 1_555 1_555
H64 C45 1_555 1_555
H65 C45 1_555 1_555
C46 C30 1_555 1_555
H66 C46 1_555 1_555
C47 H67 1_555 1_555
H68 C47 1_555 1_555
H69 C47 1_555 1_555
C48 C35 1_555 1_555
C49 H70 1_555 1_555
H71 C49 1_555 1_555
H72 C49 1_555 1_555
C50 C39 1_555 1_555
H73 C50 1_555 1_555
C51 H74 1_555 1_555
H75 C51 1_555 1_555
H76 C51 1_555 1_555
C52 C37 1_555 1_555
H77 C52 1_555 1_555
C53 H78 1_555 1_555
H79 C53 1_555 1_555
C54 C47 1_555 1_555
C55 C36 1_555 1_555
H80 C55 1_555 1_555
H81 C55 1_555 1_555
H82 C55 1_555 1_555
C56 C41 1_555 1_555
H83 C56 1_555 1_555
C57 O5 1_555 1_555
H84 C57 1_555 1_555
H85 C57 1_555 1_555
H86 C57 1_555 1_555
C58 C41 1_555 1_555
H87 C58 1_555 1_555
H88 C58 1_555 1_555
O7 H89 1_555 1_555
C59 O7 1_555 1_555
H90 C59 1_555 1_555
H91 C59 1_555 1_555
H92 C59 1_555 1_555
O8 H93 1_555 1_555
C60 O8 1_555 1_555
H94 C60 1_555 1_555
H95 C60 1_555 1_555
H96 C60 1_555 1_555
C3 C5 1_555 1_555
C3 C21 1_555 1_555
C9 C21 1_555 1_555
C10 C13 1_555 1_555
C12 C15 1_555 1_555
C14 C23 1_555 1_555
C16 C20 1_555 1_555
C17 C20 1_555 1_555
C18 C23 1_555 1_555
C19 C21 1_555 1_555
C22 C23 1_555 1_555
C24 C27 1_555 1_555
C33 C44 1_555 1_555
C33 C46 1_555 1_555
C34 C35 1_555 1_555
C36 C48 1_555 1_555
C38 C44 1_555 1_555
C40 C43 1_555 1_555
C42 C44 1_555 1_555
C46 C50 1_555 1_555
C49 C50 1_555 1_555
C51 C54 1_555 1_555
C52 C54 1_555 1_555
C52 C56 1_555 1_555
C53 C54 1_555 1_555
C53 C56 1_555 1_555

#END
