
#######################################################################
#
#                 Cambridge Crystallographic Data Centre
#                                CCDC 
#
#######################################################################
#
# If this CIF has been generated from an entry in the Cambridge 
# Structural Database, then it will include bibliographic, chemical, 
# crystal, experimental, refinement or atomic coordinate data resulting 
# from the CCDC's data processing and validation procedures.
#
#######################################################################

data_PARDIV
_chemical_formula_moiety         'C12 H11 Br1 Cl1 N1 O2'
_chemical_name_systematic        
(R*,S*)-3-(Bromo(2-chlorophenyl)methyl)-4-(1-hydroxyethyl)-isoxazole
_symmetry_cell_setting           monoclinic
_symmetry_space_group_name_H-M   'P 21/c'
_symmetry_Int_Tables_number      14
_space_group_name_Hall           '-P 2ybc'
loop_
_symmetry_equiv_pos_site_id
_symmetry_equiv_pos_as_xyz
1 x,y,z
2 -x,1/2+y,1/2-z
3 -x,-y,-z
4 x,1/2-y,1/2+z
_cell_length_a                   15.009(4)
_cell_length_b                   6.183(2)
_cell_length_c                   13.655(4)
_cell_angle_alpha                90
_cell_angle_beta                 96.32(2)
_cell_angle_gamma                90
_cell_volume                     1259.49
_exptl_crystal_colour            colorless
_chemical_melting_point          '111-112 deg.C'
_cell_formula_units_Z            4
loop_
_atom_site_label
_atom_site_type_symbol
_atom_site_fract_x
_atom_site_fract_y
_atom_site_fract_z
Br1 Br 0.2315(1) 0.4420(1) 0.3857(1)
Cl1 Cl 0.1871(1) 0.4133(2) 0.0836(1)
O1 O 0.4113(2) 1.0084(6) 0.4196(2)
O2 O 0.3776(2) 0.7579(6) 0.1176(2)
N1 N 0.3505(3) 0.8355(7) 0.4124(3)
C1 C 0.4206(3) 1.0756(8) 0.3275(3)
C2 C 0.3690(3) 0.9576(8) 0.2599(3)
C3 C 0.3268(3) 0.8062(7) 0.3184(3)
C4 C 0.3596(3) 0.9712(8) 0.1501(3)
C5 C 0.4215(3) 1.1364(9) 0.1112(4)
C6 C 0.2627(3) 0.6331(8) 0.2794(3)
C7 C 0.1787(3) 0.7237(7) 0.2241(3)
C8 C 0.1406(3) 0.6395(8) 0.1354(3)
C9 C 0.0651(3) 0.7320(9) 0.0834(4)
C10 C 0.0258(3) 0.9071(9) 0.1229(4)
C11 C 0.0609(3) 0.9947(9) 0.2119(4)
C12 C 0.1372(3) 0.9019(8) 0.2617(4)
H1 H 0.4596 1.1905 0.3117
H2 H 0.3464(32) 0.7496(95) 0.0502(20)
H3 H 0.2989 1.0082 0.1269
H4 H 0.4127 1.1391 0.0405
H5 H 0.4090 1.2768 0.1364
H6 H 0.4826 1.0979 0.1327
H7 H 0.2924 0.5471 0.2343
H8 H 0.0409 0.6739 0.0209
H9 H -0.0270 0.9704 0.0882
H10 H 0.0331 1.1176 0.2388
H11 H 0.1622 0.9626 0.3234
loop_
_geom_bond_atom_site_label_1
_geom_bond_atom_site_label_2
_geom_bond_site_symmetry_1
_geom_bond_site_symmetry_2
Br1 C6 1_555 1_555
Cl1 C8 1_555 1_555
O1 N1 1_555 1_555
O2 C4 1_555 1_555
N1 C3 1_555 1_555
C1 O1 1_555 1_555
C2 C1 1_555 1_555
C3 C2 1_555 1_555
C4 C2 1_555 1_555
C5 C4 1_555 1_555
C6 C3 1_555 1_555
C7 C6 1_555 1_555
C8 C7 1_555 1_555
C9 C8 1_555 1_555
C10 C9 1_555 1_555
C11 C10 1_555 1_555
C12 C7 1_555 1_555
H1 C1 1_555 1_555
H2 O2 1_555 1_555
H3 C4 1_555 1_555
H4 C5 1_555 1_555
H5 C5 1_555 1_555
H6 C5 1_555 1_555
H7 C6 1_555 1_555
H8 C9 1_555 1_555
H9 C10 1_555 1_555
H10 C11 1_555 1_555
H11 C12 1_555 1_555
C11 C12 1_555 1_555

#END
