
#######################################################################
#
#                 Cambridge Crystallographic Data Centre
#                                CCDC 
#
#######################################################################
#
# If this CIF has been generated from an entry in the Cambridge 
# Structural Database, then it will include bibliographic, chemical, 
# crystal, experimental, refinement or atomic coordinate data resulting 
# from the CCDC's data processing and validation procedures.
#
#######################################################################

data_PARKEB
_chemical_formula_moiety         'C19 H17 N1 O3'
_chemical_name_systematic        
2-[(3-methyl-3,4-dihydro-2H-1-benzopyran-3-yl)methyl]-1H-isoindole-1,3(2H)-dione
_symmetry_cell_setting           monoclinic
_symmetry_space_group_name_H-M   'P 21'
_symmetry_Int_Tables_number      4
_space_group_name_Hall           'P 2yb'
loop_
_symmetry_equiv_pos_site_id
_symmetry_equiv_pos_as_xyz
1 x,y,z
2 -x,1/2+y,-z
_cell_length_a                   5.82677(11)
_cell_length_b                   9.95071(18)
_cell_length_c                   13.6194(3)
_cell_angle_alpha                90
_cell_angle_beta                 101.7108(18)
_cell_angle_gamma                90
_cell_volume                     773.222
_cell_formula_units_Z            2
loop_
_atom_site_label
_atom_site_type_symbol
_atom_site_fract_x
_atom_site_fract_y
_atom_site_fract_z
O1 O 0.83875(17) 0.44025(11) 0.51659(8)
O2 O 1.3499(2) 0.35379(15) 0.20105(9)
O3 O 0.7035(2) 0.61238(13) 0.20305(9)
N1 N 1.0476(2) 0.49042(13) 0.22914(9)
C1 C 0.9731(2) 0.49646(14) 0.60153(11)
C2 C 1.1369(2) 0.49570(13) 0.41853(10)
C3 C 1.1795(2) 0.56582(13) 0.59997(11)
C4 C 1.3015(3) 0.62039(16) 0.68945(11)
H1 H 1.4400 0.6671 0.6899
C5 C 1.1681(3) 0.55875(15) 0.31928(10)
H2 H 1.1129 0.6509 0.3171
H3 H 1.3342 0.5613 0.3186
C6 C 0.8769(2) 0.49504(16) 0.42361(11)
H4 H 0.8172 0.5863 0.4163
H5 H 0.7906 0.4423 0.3684
C7 C 1.2638(2) 0.58694(14) 0.50325(11)
H6 H 1.4308 0.5692 0.5147
H7 H 1.2389 0.6801 0.4828
C8 C 0.8924(3) 0.48033(18) 0.68973(13)
H8 H 0.7553 0.4324 0.6897
C9 C 1.2341(2) 0.35263(14) 0.43053(11)
H9 H 1.1480 0.2968 0.3783
H10 H 1.2188 0.3177 0.4946
H11 H 1.3965 0.3535 0.4262
C10 C 1.2213(3) 0.60679(19) 0.77783(13)
H12 H 1.3042 0.6450 0.8368
C11 C 0.7805(3) 0.44513(15) 0.08308(11)
C12 C 1.1529(3) 0.39618(15) 0.17508(11)
C13 C 0.5857(3) 0.43903(18) 0.00607(12)
H13 H 0.4550 0.4925 0.0065
C14 C 0.9760(3) 0.36637(15) 0.08271(11)
C15 C 0.9833(3) 0.2784(2) 0.00541(13)
H14 H 1.1151 0.2260 0.0047
C16 C 0.8257(3) 0.52714(15) 0.17612(11)
C17 C 1.0168(3) 0.5359(2) 0.77794(13)
H15 H 0.9629 0.5255 0.8373
C18 C 0.5920(3) 0.3505(2) -0.07169(13)
H16 H 0.4637 0.3445 -0.1247
C19 C 0.7867(4) 0.2708(2) -0.07159(13)
H17 H 0.7859 0.2109 -0.1241
loop_
_geom_bond_atom_site_label_1
_geom_bond_atom_site_label_2
_geom_bond_site_symmetry_1
_geom_bond_site_symmetry_2
O1 C1 1_555 1_555
O2 C12 1_555 1_555
O3 C16 1_555 1_555
N1 C5 1_555 1_555
C1 C3 1_555 1_555
C2 C5 1_555 1_555
C3 C4 1_555 1_555
C4 H1 1_555 1_555
C5 H2 1_555 1_555
H3 C5 1_555 1_555
C6 O1 1_555 1_555
H4 C6 1_555 1_555
H5 C6 1_555 1_555
C7 C2 1_555 1_555
H6 C7 1_555 1_555
H7 C7 1_555 1_555
C8 C1 1_555 1_555
H8 C8 1_555 1_555
C9 C2 1_555 1_555
H9 C9 1_555 1_555
H10 C9 1_555 1_555
H11 C9 1_555 1_555
C10 C4 1_555 1_555
H12 C10 1_555 1_555
C11 C13 1_555 1_555
C12 N1 1_555 1_555
C13 H13 1_555 1_555
C14 C11 1_555 1_555
C15 C14 1_555 1_555
H14 C15 1_555 1_555
C16 N1 1_555 1_555
C17 C8 1_555 1_555
H15 C17 1_555 1_555
C18 C13 1_555 1_555
H16 C18 1_555 1_555
C19 C15 1_555 1_555
H17 C19 1_555 1_555
C2 C6 1_555 1_555
C3 C7 1_555 1_555
C10 C17 1_555 1_555
C11 C16 1_555 1_555
C12 C14 1_555 1_555
C18 C19 1_555 1_555

#END
