
#######################################################################
#
#                 Cambridge Crystallographic Data Centre
#                                CCDC 
#
#######################################################################
#
# If this CIF has been generated from an entry in the Cambridge 
# Structural Database, then it will include bibliographic, chemical, 
# crystal, experimental, refinement or atomic coordinate data resulting 
# from the CCDC's data processing and validation procedures.
#
#######################################################################

data_PARMOM
_chemical_formula_moiety         'C26 H20 N2'
_chemical_name_systematic        
3,3'-(Biphenyl-4,4'-diyldiethene-2,1-diyl)dipyridine
_symmetry_cell_setting           monoclinic
_symmetry_space_group_name_H-M   'P 21/c'
_symmetry_Int_Tables_number      14
_space_group_name_Hall           '-P 2ybc'
loop_
_symmetry_equiv_pos_site_id
_symmetry_equiv_pos_as_xyz
1 x,y,z
2 -x,1/2+y,1/2-z
3 -x,-y,-z
4 x,1/2-y,1/2+z
_cell_length_a                   13.11(2)
_cell_length_b                   5.562(9)
_cell_length_c                   12.92(2)
_cell_angle_alpha                90
_cell_angle_beta                 93.25(3)
_cell_angle_gamma                90
_cell_volume                     940.583
_cell_formula_units_Z            2
loop_
_atom_site_label
_atom_site_type_symbol
_atom_site_fract_x
_atom_site_fract_y
_atom_site_fract_z
N1 N 0.45488(18) 0.2483(5) 1.1075(2)
C1 C 0.4034(2) 0.2425(6) 1.0142(2)
H1 H 0.4147 0.3666 0.9679
C2 C 0.3347(2) 0.0637(6) 0.9825(2)
C3 C 0.3199(2) -0.1233(6) 1.0518(2)
H2 H 0.2752 -0.2479 1.0336
C4 C 0.3717(2) -0.1229(7) 1.1472(2)
H3 H 0.3624 -0.2459 1.1946
C5 C 0.4377(2) 0.0636(8) 1.1713(3)
H4 H 0.4728 0.0617 1.2359
C6 C 0.2811(2) 0.0795(6) 0.8801(2)
H5 H 0.2973 0.2110 0.8397
C7 C 0.2127(2) -0.0703(6) 0.8385(2)
H6 H 0.1996 -0.2059 0.8777
C8 C 0.1546(2) -0.0516(6) 0.7386(2)
C9 C 0.1656(2) 0.1389(6) 0.6704(3)
H7 H 0.2141 0.2568 0.6870
C10 C 0.1065(2) 0.1580(6) 0.5783(2)
H8 H 0.1164 0.2886 0.5350
C11 C 0.0326(2) -0.0130(6) 0.5486(2)
C12 C 0.0242(2) -0.2047(6) 0.6160(2)
H9 H -0.0229 -0.3253 0.5988
C13 C 0.0828(2) -0.2238(6) 0.7075(2)
H10 H 0.0739 -0.3566 0.7498
N1B N -0.45488(18) -0.2483(5) -0.1075(2)
C1B C -0.4034(2) -0.2425(6) -0.0142(2)
H1B H -0.4147 -0.3666 0.0321
C2B C -0.3347(2) -0.0637(6) 0.0175(2)
C3B C -0.3199(2) 0.1233(6) -0.0518(2)
H2B H -0.2752 0.2479 -0.0336
C4B C -0.3717(2) 0.1229(7) -0.1472(2)
H3B H -0.3624 0.2459 -0.1946
C5B C -0.4377(2) -0.0636(8) -0.1713(3)
H4B H -0.4728 -0.0617 -0.2359
C6B C -0.2811(2) -0.0795(6) 0.1199(2)
H5B H -0.2973 -0.2110 0.1603
C7B C -0.2127(2) 0.0703(6) 0.1615(2)
H6B H -0.1996 0.2059 0.1223
C8B C -0.1546(2) 0.0516(6) 0.2614(2)
C9B C -0.1656(2) -0.1389(6) 0.3296(3)
H7B H -0.2141 -0.2568 0.3130
C10B C -0.1065(2) -0.1580(6) 0.4217(2)
H8B H -0.1164 -0.2886 0.4650
C11B C -0.0326(2) 0.0130(6) 0.4514(2)
C12B C -0.0242(2) 0.2047(6) 0.3840(2)
H9B H 0.0229 0.3253 0.4012
C13B C -0.0828(2) 0.2238(6) 0.2925(2)
H10B H -0.0739 0.3566 0.2502
loop_
_geom_bond_atom_site_label_1
_geom_bond_atom_site_label_2
_geom_bond_site_symmetry_1
_geom_bond_site_symmetry_2
N1 C1 1_555 1_555
C1 H1 1_555 1_555
C2 C1 1_555 1_555
C3 C2 1_555 1_555
H2 C3 1_555 1_555
C4 C3 1_555 1_555
H3 C4 1_555 1_555
C5 N1 1_555 1_555
H4 C5 1_555 1_555
C6 C2 1_555 1_555
H5 C6 1_555 1_555
C7 C6 1_555 1_555
H6 C7 1_555 1_555
C8 C7 1_555 1_555
C9 C8 1_555 1_555
H7 C9 1_555 1_555
C10 C9 1_555 1_555
H8 C10 1_555 1_555
C11 C10 1_555 1_555
C12 C11 1_555 1_555
H9 C12 1_555 1_555
C13 C8 1_555 1_555
H10 C13 1_555 1_555
N1B C1B 1_555 1_555
C1B H1B 1_555 1_555
C2B C1B 1_555 1_555
C3B C2B 1_555 1_555
H2B C3B 1_555 1_555
C4B C3B 1_555 1_555
H3B C4B 1_555 1_555
C5B N1B 1_555 1_555
H4B C5B 1_555 1_555
C6B C2B 1_555 1_555
H5B C6B 1_555 1_555
C7B C6B 1_555 1_555
H6B C7B 1_555 1_555
C8B C7B 1_555 1_555
C9B C8B 1_555 1_555
H7B C9B 1_555 1_555
C10B C9B 1_555 1_555
H8B C10B 1_555 1_555
C11B C11 1_555 1_555
C12B C11B 1_555 1_555
H9B C12B 1_555 1_555
C13B C8B 1_555 1_555
H10B C13B 1_555 1_555
C4 C5 1_555 1_555
C12 C13 1_555 1_555
C4B C5B 1_555 1_555
C10B C11B 1_555 1_555
C12B C13B 1_555 1_555

#END
