
#######################################################################
#
#                 Cambridge Crystallographic Data Centre
#                                CCDC 
#
#######################################################################
#
# If this CIF has been generated from an entry in the Cambridge 
# Structural Database, then it will include bibliographic, chemical, 
# crystal, experimental, refinement or atomic coordinate data resulting 
# from the CCDC's data processing and validation procedures.
#
#######################################################################

data_PARNED
_chemical_formula_moiety         'C72 H84 N4 O4,2(C1 H1 Cl3)'
_chemical_name_systematic        
'4,6,25,27,36,38,57,59-Octamethyl-9,22,41,54-tetraazaundecacyclo[52.10.2.2^30,33^.0^3,8^.0^9,64^.0^22,31^.0^23,28^.0^35,40^.0^41,67^.0^55,60^.0^62,66^]octahexaconta-1(64),3,5,7,23,25,27,30,32,35,37,39,55,57,59,62,65,67-octadecaene-2,29,34,61-tetrone chloroform solvate'
_symmetry_cell_setting           triclinic
_symmetry_space_group_name_H-M   'P -1'
_symmetry_Int_Tables_number      2
_space_group_name_Hall           '-P 1'
loop_
_symmetry_equiv_pos_site_id
_symmetry_equiv_pos_as_xyz
1 x,y,z
2 -x,-y,-z
_cell_length_a                   9.7343(19)
_cell_length_b                   16.230(3)
_cell_length_c                   21.432(4)
_cell_angle_alpha                91.13(3)
_cell_angle_beta                 91.80(3)
_cell_angle_gamma                105.30(3)
_cell_volume                     3262.99
_exptl_crystal_colour            red
_exptl_crystal_description       block
_cell_formula_units_Z            2
loop_
_atom_site_label
_atom_site_type_symbol
_atom_site_fract_x
_atom_site_fract_y
_atom_site_fract_z
C1 C 0.2819(6) 0.2776(5) 0.7155(3)
C2 C 0.3610(7) 0.2782(5) 0.6622(3)
H1 H 0.3765 0.3245 0.6360
C3 C 0.4164(7) 0.2103(5) 0.6481(4)
C4 C 0.3890(7) 0.1406(5) 0.6873(4)
H2 H 0.4226 0.0938 0.6767
C5 C 0.3156(7) 0.1382(5) 0.7402(3)
C6 C 0.2600(7) 0.2087(4) 0.7561(3)
C7 C 0.1856(7) 0.2114(5) 0.8128(4)
C8 C 0.1306(6) 0.2862(4) 0.8240(3)
C9 C 0.0593(6) 0.2902(4) 0.8787(3)
H3 H 0.0490 0.2459 0.9065
C10 C 0.0033(7) 0.3577(4) 0.8929(3)
C11 C -0.1345(7) 0.4266(4) 0.9574(3)
C12 C -0.2095(7) 0.4273(5) 1.0114(3)
H4 H -0.2112 0.3853 1.0404
C13 C -0.2814(7) 0.4879(5) 1.0235(4)
C14 C -0.2787(7) 0.5494(5) 0.9784(4)
H5 H -0.3283 0.5902 0.9856
C15 C -0.2076(7) 0.5527(4) 0.9249(4)
C16 C -0.1299(7) 0.4913(4) 0.9133(3)
C17 C -0.0410(7) 0.4954(5) 0.8596(4)
C18 C 0.0173(6) 0.4216(4) 0.8484(3)
C19 C 0.0879(7) 0.4184(5) 0.7946(3)
H6 H 0.0959 0.4624 0.7666
C20 C 0.1478(7) 0.3523(4) 0.7802(3)
C21 C 0.5013(8) 0.2124(5) 0.5912(4)
H7 H 0.5969 0.2118 0.6032
H8 H 0.5032 0.2635 0.5690
H9 H 0.4585 0.1634 0.5647
C22 C 0.2925(8) 0.0606(5) 0.7788(4)
H10 H 0.3334 0.0195 0.7590
H11 H 0.1922 0.0361 0.7829
H12 H 0.3372 0.0761 0.8195
C23 C -0.3587(7) 0.4883(5) 1.0827(3)
H13 H -0.3755 0.4332 1.1011
H14 H -0.4482 0.5008 1.0737
H15 H -0.3020 0.5311 1.1113
C24 C -0.2191(8) 0.6187(5) 0.8779(4)
H16 H -0.2919 0.6453 0.8897
H17 H -0.2431 0.5915 0.8374
H18 H -0.1295 0.6612 0.8767
C25 C 0.2395(7) 0.4140(4) 0.6803(3)
H19 H 0.1654 0.4432 0.6854
H20 H 0.2265 0.3875 0.6388
C26 C 0.3839(7) 0.4791(5) 0.6857(4)
H21 H 0.4025 0.5069 0.6461
H22 H 0.4565 0.4491 0.6933
C27 C 0.3979(8) 0.5473(5) 0.7369(4)
H23 H 0.4981 0.5756 0.7447
H24 H 0.3612 0.5200 0.7750
C28 C 0.3189(9) 0.6144(5) 0.7209(4)
H25 H 0.3642 0.6464 0.6859
H26 H 0.2220 0.5851 0.7074
C29 C 0.3138(10) 0.6763(5) 0.7730(4)
H27 H 0.4101 0.7030 0.7887
H28 H 0.2615 0.6453 0.8068
C30 C 0.2442(11) 0.7452(6) 0.7532(5)
H29 H 0.3035 0.7791 0.7225
H30 H 0.1536 0.7173 0.7323
C31 C 0.219(2) 0.8017(10) 0.7992(8)
H31 H 0.1247 0.8080 0.7880
H32 H 0.2846 0.8562 0.7908
C32 C 0.2209(12) 0.7976(7) 0.8690(6)
H33 H 0.1679 0.7400 0.8784
H34 H 0.3193 0.8027 0.8819
C33 C 0.175(3) 0.8495(10) 0.9078(8)
H35 H 0.0766 0.8431 0.8947
H36 H 0.2264 0.9068 0.8967
C34 C 0.1760(10) 0.8515(6) 0.9711(5)
H37 H 0.0882 0.8642 0.9828
H38 H 0.2531 0.9002 0.9851
C35 C 0.1905(8) 0.7760(4) 1.0100(4)
H39 H 0.2739 0.7589 0.9972
H40 H 0.2064 0.7947 1.0535
C36 C 0.0627(7) 0.6989(4) 1.0047(3)
H41 H -0.0234 0.7178 1.0079
H42 H 0.0600 0.6716 0.9638
N1 N 0.2239(5) 0.3470(4) 0.7269(3)
N2 N -0.0643(6) 0.3633(3) 0.9480(3)
O1 O 0.1671(5) 0.1551(3) 0.8517(3)
O2 O -0.0134(5) 0.5561(3) 0.8243(3)
C1A C -0.2819(6) 0.7224(5) 1.2845(3)
C2A C -0.3610(7) 0.7218(5) 1.3378(3)
H1A H -0.3765 0.6755 1.3640
C3A C -0.4164(7) 0.7897(5) 1.3519(4)
C4A C -0.3890(7) 0.8594(5) 1.3127(4)
H2A H -0.4226 0.9062 1.3233
C5A C -0.3156(7) 0.8618(5) 1.2598(3)
C6A C -0.2600(7) 0.7913(4) 1.2439(3)
C7A C -0.1856(7) 0.7886(5) 1.1872(4)
C8A C -0.1306(6) 0.7138(4) 1.1760(3)
C9A C -0.0593(6) 0.7098(4) 1.1213(3)
H3A H -0.0490 0.7541 1.0935
C10A C -0.0033(7) 0.6423(4) 1.1071(3)
C11A C 0.1345(7) 0.5734(4) 1.0426(3)
C12A C 0.2095(7) 0.5727(5) 0.9886(3)
H4A H 0.2112 0.6147 0.9596
C13A C 0.2814(7) 0.5121(5) 0.9765(4)
C14A C 0.2787(7) 0.4506(5) 1.0216(4)
H5A H 0.3283 0.4098 1.0144
C15A C 0.2076(7) 0.4473(4) 1.0751(4)
C16A C 0.1299(7) 0.5087(4) 1.0867(3)
C17A C 0.0410(7) 0.5046(5) 1.1404(4)
C18A C -0.0173(6) 0.5784(4) 1.1516(3)
C19A C -0.0879(7) 0.5816(5) 1.2054(3)
H6A H -0.0959 0.5376 1.2334
C20A C -0.1478(7) 0.6477(4) 1.2198(3)
C21A C -0.5013(8) 0.7876(5) 1.4088(4)
H7A H -0.5969 0.7882 1.3968
H8A H -0.5032 0.7365 1.4310
H9A H -0.4585 0.8366 1.4353
C22A C -0.2925(8) 0.9394(5) 1.2212(4)
H10A H -0.3334 0.9805 1.2410
H11A H -0.1922 0.9639 1.2171
H12A H -0.3372 0.9239 1.1805
C23A C 0.3587(7) 0.5117(5) 0.9173(3)
H13A H 0.3755 0.5668 0.8989
H14A H 0.4482 0.4992 0.9263
H15A H 0.3020 0.4689 0.8887
C24A C 0.2191(8) 0.3813(5) 1.1221(4)
H16A H 0.2919 0.3547 1.1103
H17A H 0.2431 0.4085 1.1626
H18A H 0.1295 0.3388 1.1233
C25A C -0.2395(7) 0.5860(4) 1.3197(3)
H19A H -0.1654 0.5568 1.3146
H20A H -0.2265 0.6125 1.3612
C26A C -0.3839(7) 0.5209(5) 1.3143(4)
H21A H -0.4025 0.4931 1.3539
H22A H -0.4565 0.5509 1.3067
C27A C -0.3979(8) 0.4527(5) 1.2631(4)
H23A H -0.4981 0.4244 1.2553
H24A H -0.3612 0.4800 1.2250
C28A C -0.3189(9) 0.3856(5) 1.2791(4)
H25A H -0.3642 0.3536 1.3141
H26A H -0.2220 0.4149 1.2926
C29A C -0.3138(10) 0.3237(5) 1.2270(4)
H27A H -0.4101 0.2970 1.2113
H28A H -0.2615 0.3547 1.1932
C30A C -0.2442(11) 0.2548(6) 1.2468(5)
H29A H -0.3035 0.2209 1.2775
H30A H -0.1536 0.2827 1.2677
C31A C -0.219(2) 0.1983(10) 1.2008(8)
H31A H -0.1247 0.1920 1.2120
H32A H -0.2846 0.1438 1.2092
C32A C -0.2209(12) 0.2024(7) 1.1310(6)
H33A H -0.1679 0.2600 1.1216
H34A H -0.3193 0.1973 1.1181
C33A C -0.175(3) 0.1505(10) 1.0922(8)
H35A H -0.0766 0.1569 1.1053
H36A H -0.2264 0.0932 1.1033
C34A C -0.1760(10) 0.1485(6) 1.0289(5)
H37A H -0.0882 0.1358 1.0172
H38A H -0.2531 0.0998 1.0149
C35A C -0.1905(8) 0.2240(4) 0.9900(4)
H39A H -0.2739 0.2411 1.0028
H40A H -0.2064 0.2053 0.9465
C36A C -0.0627(7) 0.3011(4) 0.9953(3)
H41A H 0.0234 0.2822 0.9921
H42A H -0.0600 0.3284 1.0362
N1A N -0.2239(5) 0.6530(4) 1.2731(3)
N2A N 0.0643(6) 0.6367(3) 1.0520(3)
O1A O -0.1671(5) 0.8449(3) 1.1483(3)
O2A O 0.0134(5) 0.4439(3) 1.1757(3)
C37 C 0.2462(7) 0.7462(4) 0.2460(3)
C38 C 0.3300(7) 0.7430(5) 0.1946(3)
H43 H 0.3534 0.7895 0.1686
C39 C 0.3784(7) 0.6726(5) 0.1817(3)
C40 C 0.3410(7) 0.6031(5) 0.2205(4)
H44 H 0.3713 0.5547 0.2112
C41 C 0.2616(7) 0.6035(4) 0.2716(3)
C42 C 0.2146(6) 0.6766(5) 0.2861(3)
C43 C 0.1352(7) 0.6817(4) 0.3417(4)
C44 C 0.0872(7) 0.7598(4) 0.3505(3)
C45 C 0.0154(7) 0.7696(4) 0.4032(3)
H45 H -0.0006 0.7271 0.4327
C46 C -0.0340(7) 0.8414(4) 0.4137(3)
C47 C -0.1601(6) 0.9214(4) 0.4757(3)
C48 C -0.2309(7) 0.9291(5) 0.5301(4)
H46 H -0.2339 0.8898 0.5614
C49 C -0.2953(7) 0.9926(5) 0.5382(3)
C50 C -0.2956(7) 1.0504(5) 0.4893(4)
H47 H -0.3427 1.0929 0.4944
C51 C -0.2287(7) 1.0451(4) 0.4351(4)
C52 C -0.1552(6) 0.9817(4) 0.4283(3)
C53 C -0.0677(6) 0.9792(4) 0.3743(3)
C54 C -0.0149(7) 0.9018(4) 0.3677(3)
C55 C 0.0584(7) 0.8934(4) 0.3151(3)
H48 H 0.0705 0.9351 0.2851
C56 C 0.1141(7) 0.8247(4) 0.3060(3)
C57 C 0.4672(7) 0.6707(5) 0.1267(3)
H49 H 0.4736 0.7210 0.1030
H50 H 0.4243 0.6209 0.1010
H51 H 0.5610 0.6688 0.1407
C58 C 0.2268(8) 0.5246(5) 0.3101(4)
H52 H 0.2651 0.4818 0.2912
H53 H 0.1253 0.5033 0.3120
H54 H 0.2679 0.5385 0.3515
C59 C -0.3677(7) 1.0032(5) 0.5981(4)
H55 H -0.3592 0.9594 0.6263
H56 H -0.4667 0.9986 0.5890
H57 H -0.3233 1.0582 0.6171
C60 C -0.2434(7) 1.1050(5) 0.3845(4)
H58 H -0.3138 1.1340 0.3953
H59 H -0.2722 1.0732 0.3459
H60 H -0.1535 1.1461 0.3798
C61 C 0.2859(12) 0.9108(8) 0.2277(5)
H61 H 0.2866 0.9587 0.2555
H62 H 0.3824 0.9116 0.2172
C62 C 0.1974(10) 0.9062(8) 0.1761(6)
H63 H 0.1033 0.9105 0.1865
H64 H 0.1899 0.8553 0.1503
C63 C 0.2970(15) 0.9965(8) 0.1435(7)
H65 H 0.3874 0.9853 0.1343
H66 H 0.2502 1.0008 0.1036
C64 C 0.3286(19) 1.0749(10) 0.1705(7)
H67 H 0.3766 1.1146 0.1399
H68 H 0.3978 1.0759 0.2043
C65 C 0.2159(16) 1.1098(12) 0.1962(8)
H69 H 0.1467 1.0648 0.2161
H70 H 0.1670 1.1310 0.1625
C66 C 0.284(2) 1.1869(12) 0.2467(15)
H71 H 0.3191 1.1647 0.2839
H72 H 0.3624 1.2286 0.2290
C67 C 0.1806(17) 1.2221(14) 0.2604(12)
H73 H 0.0898 1.1806 0.2655
H74 H 0.1702 1.2654 0.2315
C68 C 0.2681(18) 1.2654(9) 0.3327(6)
H75 H 0.2933 1.2220 0.3577
H76 H 0.3527 1.3115 0.3265
C69 C 0.1494(15) 1.2981(8) 0.3620(6)
H77 H 0.1257 1.3397 0.3346
H78 H 0.0650 1.2506 0.3642
C70 C 0.1844(9) 1.3368(5) 0.4232(4)
H79 H 0.1081 1.3613 0.4354
H80 H 0.2701 1.3833 0.4211
C71 C 0.2082(8) 1.2771(5) 0.4742(4)
H81 H 0.2939 1.2595 0.4661
H82 H 0.2226 1.3078 0.5142
C72 C 0.0829(8) 1.1984(5) 0.4775(4)
H83 H -0.0043 1.2163 0.4803
H84 H 0.0759 1.1643 0.4392
N3 N 0.1960(7) 0.8169(4) 0.2556(3)
N4 N -0.0959(6) 0.8550(4) 0.4687(3)
O3 O 0.1063(5) 0.6252(3) 0.3808(2)
O4 O -0.0391(5) 1.0363(3) 0.3367(2)
C37A C -0.2462(7) 1.2538(4) 0.7540(3)
C38A C -0.3300(7) 1.2570(5) 0.8054(3)
H43A H -0.3534 1.2105 0.8314
C39A C -0.3784(7) 1.3274(5) 0.8183(3)
C40A C -0.3410(7) 1.3969(5) 0.7795(4)
H44A H -0.3713 1.4453 0.7888
C41A C -0.2616(7) 1.3965(4) 0.7284(3)
C42A C -0.2146(6) 1.3234(5) 0.7139(3)
C43A C -0.1352(7) 1.3183(4) 0.6583(4)
C44A C -0.0872(7) 1.2402(4) 0.6495(3)
C45A C -0.0154(7) 1.2304(4) 0.5968(3)
H45A H 0.0006 1.2729 0.5673
C46A C 0.0340(7) 1.1586(4) 0.5863(3)
C47A C 0.1601(6) 1.0786(4) 0.5243(3)
C48A C 0.2309(7) 1.0709(5) 0.4699(4)
H46A H 0.2339 1.1102 0.4386
C49A C 0.2953(7) 1.0074(5) 0.4618(3)
C50A C 0.2956(7) 0.9496(5) 0.5107(4)
H47A H 0.3427 0.9071 0.5056
C51A C 0.2287(7) 0.9549(4) 0.5649(4)
C52A C 0.1552(6) 1.0183(4) 0.5717(3)
C53A C 0.0677(6) 1.0208(4) 0.6257(3)
C54A C 0.0149(7) 1.0982(4) 0.6323(3)
C55A C -0.0584(7) 1.1066(4) 0.6849(3)
H48A H -0.0705 1.0649 0.7149
C56A C -0.1141(7) 1.1753(4) 0.6940(3)
C57A C -0.4672(7) 1.3293(5) 0.8733(3)
H49A H -0.4736 1.2790 0.8970
H50A H -0.4243 1.3791 0.8990
H51A H -0.5610 1.3312 0.8593
C58A C -0.2268(8) 1.4754(5) 0.6899(4)
H52A H -0.2651 1.5182 0.7088
H53A H -0.1253 1.4967 0.6880
H54A H -0.2679 1.4615 0.6485
C59A C 0.3677(7) 0.9968(5) 0.4019(4)
H55A H 0.3592 1.0406 0.3737
H56A H 0.4667 1.0014 0.4110
H57A H 0.3233 0.9418 0.3829
C60A C 0.2434(7) 0.8950(5) 0.6155(4)
H58A H 0.3138 0.8660 0.6047
H59A H 0.2722 0.9268 0.6541
H60A H 0.1535 0.8539 0.6202
C61A C -0.2859(12) 1.0892(8) 0.7723(5)
H61A H -0.2866 1.0413 0.7445
H62A H -0.3824 1.0884 0.7828
C62A C -0.1974(10) 1.0938(8) 0.8239(6)
H63A H -0.1033 1.0895 0.8135
H64A H -0.1899 1.1447 0.8497
C63A C -0.2970(15) 1.0035(8) 0.8565(7)
H65A H -0.3874 1.0147 0.8657
H66A H -0.2502 0.9992 0.8964
C64A C -0.3286(19) 0.9251(10) 0.8295(7)
H67A H -0.3766 0.8854 0.8601
H68A H -0.3978 0.9241 0.7957
C65A C -0.2159(16) 0.8902(12) 0.8038(8)
H69A H -0.1467 0.9352 0.7839
H70A H -0.1670 0.8690 0.8375
C66A C -0.284(2) 0.8131(12) 0.7533(15)
H71A H -0.3191 0.8353 0.7161
H72A H -0.3624 0.7714 0.7710
C67A C -0.1806(17) 0.7779(14) 0.7396(12)
H73A H -0.0898 0.8194 0.7345
H74A H -0.1702 0.7346 0.7685
C68A C -0.2681(18) 0.7346(9) 0.6673(6)
H75A H -0.2933 0.7780 0.6423
H76A H -0.3527 0.6885 0.6735
C69A C -0.1494(15) 0.7019(8) 0.6380(6)
H77A H -0.1257 0.6603 0.6654
H78A H -0.0650 0.7494 0.6358
C70A C -0.1844(9) 0.6632(5) 0.5768(4)
H79A H -0.1081 0.6387 0.5646
H80A H -0.2701 0.6167 0.5789
C71A C -0.2082(8) 0.7229(5) 0.5258(4)
H81A H -0.2939 0.7405 0.5339
H82A H -0.2226 0.6922 0.4858
C72A C -0.0829(8) 0.8016(5) 0.5225(4)
H83A H 0.0043 0.7837 0.5197
H84A H -0.0759 0.8357 0.5608
N3A N -0.1960(7) 1.1831(4) 0.7444(3)
N4A N 0.0959(6) 1.1450(4) 0.5313(3)
O3A O -0.1063(5) 1.3748(3) 0.6192(2)
O4A O 0.0391(5) 0.9637(3) 0.6633(2)
C73 C 0.3101(9) 0.1446(7) 0.9740(5)
H85 H 0.2927 0.1656 0.9327
Cl1 Cl 0.4303(2) 0.08559(16) 0.96754(14)
Cl2 Cl 0.1523(3) 0.0845(4) 1.0001(2)
Cl3 Cl 0.3847(6) 0.2329(2) 1.02439(18)
C74 C 0.7680(8) 0.4088(5) 0.4897(4)
H86 H 0.8185 0.4123 0.5304
Cl4 Cl 0.7447(3) 0.30628(16) 0.45768(13)
Cl5 Cl 0.6053(3) 0.43044(16) 0.50084(14)
Cl6 Cl 0.8724(2) 0.48510(16) 0.44105(12)
loop_
_geom_bond_atom_site_label_1
_geom_bond_atom_site_label_2
_geom_bond_site_symmetry_1
_geom_bond_site_symmetry_2
C1 C2 1_555 1_555
C2 H1 1_555 1_555
C3 C2 1_555 1_555
C4 C3 1_555 1_555
H2 C4 1_555 1_555
C5 C4 1_555 1_555
C6 C1 1_555 1_555
C7 C6 1_555 1_555
C8 C7 1_555 1_555
C9 C8 1_555 1_555
H3 C9 1_555 1_555
C10 C9 1_555 1_555
C11 C12 1_555 1_555
C12 H4 1_555 1_555
C13 C12 1_555 1_555
C14 C13 1_555 1_555
H5 C14 1_555 1_555
C15 C14 1_555 1_555
C16 C11 1_555 1_555
C17 C16 1_555 1_555
C18 C10 1_555 1_555
C19 C18 1_555 1_555
H6 C19 1_555 1_555
C20 C8 1_555 1_555
C21 C3 1_555 1_555
H7 C21 1_555 1_555
H8 C21 1_555 1_555
H9 C21 1_555 1_555
C22 C5 1_555 1_555
H10 C22 1_555 1_555
H11 C22 1_555 1_555
H12 C22 1_555 1_555
C23 C13 1_555 1_555
H13 C23 1_555 1_555
H14 C23 1_555 1_555
H15 C23 1_555 1_555
C24 C15 1_555 1_555
H16 C24 1_555 1_555
H17 C24 1_555 1_555
H18 C24 1_555 1_555
C25 H19 1_555 1_555
H20 C25 1_555 1_555
C26 C25 1_555 1_555
H21 C26 1_555 1_555
H22 C26 1_555 1_555
C27 C26 1_555 1_555
H23 C27 1_555 1_555
H24 C27 1_555 1_555
C28 C27 1_555 1_555
H25 C28 1_555 1_555
H26 C28 1_555 1_555
C29 C28 1_555 1_555
H27 C29 1_555 1_555
H28 C29 1_555 1_555
C30 C29 1_555 1_555
H29 C30 1_555 1_555
H30 C30 1_555 1_555
C31 C30 1_555 1_555
H31 C31 1_555 1_555
H32 C31 1_555 1_555
C32 C31 1_555 1_555
H33 C32 1_555 1_555
H34 C32 1_555 1_555
C33 C32 1_555 1_555
H35 C33 1_555 1_555
H36 C33 1_555 1_555
C34 C33 1_555 1_555
H37 C34 1_555 1_555
H38 C34 1_555 1_555
C35 C34 1_555 1_555
H39 C35 1_555 1_555
H40 C35 1_555 1_555
C36 C35 1_555 1_555
H41 C36 1_555 1_555
H42 C36 1_555 1_555
C37 C38 1_555 1_555
C38 H43 1_555 1_555
C39 C38 1_555 1_555
C40 C39 1_555 1_555
H44 C40 1_555 1_555
C41 C40 1_555 1_555
C42 C37 1_555 1_555
C43 C42 1_555 1_555
C44 C43 1_555 1_555
C45 C44 1_555 1_555
H45 C45 1_555 1_555
C46 C45 1_555 1_555
C47 C48 1_555 1_555
C48 H46 1_555 1_555
C49 C48 1_555 1_555
C50 C49 1_555 1_555
H47 C50 1_555 1_555
C51 C50 1_555 1_555
C52 C47 1_555 1_555
C53 C52 1_555 1_555
C54 C46 1_555 1_555
C55 C54 1_555 1_555
H48 C55 1_555 1_555
C56 C44 1_555 1_555
C57 C39 1_555 1_555
H49 C57 1_555 1_555
H50 C57 1_555 1_555
H51 C57 1_555 1_555
C58 C41 1_555 1_555
H52 C58 1_555 1_555
H53 C58 1_555 1_555
H54 C58 1_555 1_555
C59 C49 1_555 1_555
H55 C59 1_555 1_555
H56 C59 1_555 1_555
H57 C59 1_555 1_555
C60 C51 1_555 1_555
H58 C60 1_555 1_555
H59 C60 1_555 1_555
H60 C60 1_555 1_555
C61 H61 1_555 1_555
H62 C61 1_555 1_555
C62 C61 1_555 1_555
H63 C62 1_555 1_555
H64 C62 1_555 1_555
C63 C62 1_555 1_555
H65 C63 1_555 1_555
H66 C63 1_555 1_555
C64 C63 1_555 1_555
H67 C64 1_555 1_555
H68 C64 1_555 1_555
C65 C64 1_555 1_555
H69 C65 1_555 1_555
H70 C65 1_555 1_555
C66 C65 1_555 1_555
H71 C66 1_555 1_555
H72 C66 1_555 1_555
C67 C66 1_555 1_555
H73 C67 1_555 1_555
H74 C67 1_555 1_555
C68 C67 1_555 1_555
H75 C68 1_555 1_555
H76 C68 1_555 1_555
C69 C68 1_555 1_555
H77 C69 1_555 1_555
H78 C69 1_555 1_555
C70 C69 1_555 1_555
H79 C70 1_555 1_555
H80 C70 1_555 1_555
C71 C70 1_555 1_555
H81 C71 1_555 1_555
H82 C71 1_555 1_555
C72 C71 1_555 1_555
H83 C72 1_555 1_555
H84 C72 1_555 1_555
C73 H85 1_555 1_555
C74 H86 1_555 1_555
Cl1 C73 1_555 1_555
Cl2 C73 1_555 1_555
Cl3 C73 1_555 1_555
Cl4 C74 1_555 1_555
Cl5 C74 1_555 1_555
Cl6 C74 1_555 1_555
N1 C1 1_555 1_555
N2 C10 1_555 1_555
N3 C37 1_555 1_555
N4 C46 1_555 1_555
O1 C7 1_555 1_555
O2 C17 1_555 1_555
O3 C43 1_555 1_555
O4 C53 1_555 1_555
C1A C2A 1_555 1_555
C2A H1A 1_555 1_555
C3A C2A 1_555 1_555
C4A C3A 1_555 1_555
H2A C4A 1_555 1_555
C5A C4A 1_555 1_555
C6A C1A 1_555 1_555
C7A C6A 1_555 1_555
C8A C7A 1_555 1_555
C9A C8A 1_555 1_555
H3A C9A 1_555 1_555
C10A C9A 1_555 1_555
C11A C12A 1_555 1_555
C12A H4A 1_555 1_555
C13A C12A 1_555 1_555
C14A C13A 1_555 1_555
H5A C14A 1_555 1_555
C15A C14A 1_555 1_555
C16A C11A 1_555 1_555
C17A C16A 1_555 1_555
C18A C10A 1_555 1_555
C19A C18A 1_555 1_555
H6A C19A 1_555 1_555
C20A C8A 1_555 1_555
C21A C3A 1_555 1_555
H7A C21A 1_555 1_555
H8A C21A 1_555 1_555
H9A C21A 1_555 1_555
C22A C5A 1_555 1_555
H10A C22A 1_555 1_555
H11A C22A 1_555 1_555
H12A C22A 1_555 1_555
C23A C13A 1_555 1_555
H13A C23A 1_555 1_555
H14A C23A 1_555 1_555
H15A C23A 1_555 1_555
C24A C15A 1_555 1_555
H16A C24A 1_555 1_555
H17A C24A 1_555 1_555
H18A C24A 1_555 1_555
C25A H19A 1_555 1_555
H20A C25A 1_555 1_555
C26A C25A 1_555 1_555
H21A C26A 1_555 1_555
H22A C26A 1_555 1_555
C27A C26A 1_555 1_555
H23A C27A 1_555 1_555
H24A C27A 1_555 1_555
C28A C27A 1_555 1_555
H25A C28A 1_555 1_555
H26A C28A 1_555 1_555
C29A C28A 1_555 1_555
H27A C29A 1_555 1_555
H28A C29A 1_555 1_555
C30A C29A 1_555 1_555
H29A C30A 1_555 1_555
H30A C30A 1_555 1_555
C31A C30A 1_555 1_555
H31A C31A 1_555 1_555
H32A C31A 1_555 1_555
C32A C31A 1_555 1_555
H33A C32A 1_555 1_555
H34A C32A 1_555 1_555
C33A C32A 1_555 1_555
H35A C33A 1_555 1_555
H36A C33A 1_555 1_555
C34A C33A 1_555 1_555
H37A C34A 1_555 1_555
H38A C34A 1_555 1_555
C35A C34A 1_555 1_555
H39A C35A 1_555 1_555
H40A C35A 1_555 1_555
C36A N2 1_555 1_555
H41A C36A 1_555 1_555
H42A C36A 1_555 1_555
C37A C38A 1_555 1_555
C38A H43A 1_555 1_555
C39A C38A 1_555 1_555
C40A C39A 1_555 1_555
H44A C40A 1_555 1_555
C41A C40A 1_555 1_555
C42A C37A 1_555 1_555
C43A C42A 1_555 1_555
C44A C43A 1_555 1_555
C45A C44A 1_555 1_555
H45A C45A 1_555 1_555
C46A C45A 1_555 1_555
C47A C48A 1_555 1_555
C48A H46A 1_555 1_555
C49A C48A 1_555 1_555
C50A C49A 1_555 1_555
H47A C50A 1_555 1_555
C51A C50A 1_555 1_555
C52A C47A 1_555 1_555
C53A C52A 1_555 1_555
C54A C46A 1_555 1_555
C55A C54A 1_555 1_555
H48A C55A 1_555 1_555
C56A C44A 1_555 1_555
C57A C39A 1_555 1_555
H49A C57A 1_555 1_555
H50A C57A 1_555 1_555
H51A C57A 1_555 1_555
C58A C41A 1_555 1_555
H52A C58A 1_555 1_555
H53A C58A 1_555 1_555
H54A C58A 1_555 1_555
C59A C49A 1_555 1_555
H55A C59A 1_555 1_555
H56A C59A 1_555 1_555
H57A C59A 1_555 1_555
C60A C51A 1_555 1_555
H58A C60A 1_555 1_555
H59A C60A 1_555 1_555
H60A C60A 1_555 1_555
C61A H61A 1_555 1_555
H62A C61A 1_555 1_555
C62A C61A 1_555 1_555
H63A C62A 1_555 1_555
H64A C62A 1_555 1_555
C63A C62A 1_555 1_555
H65A C63A 1_555 1_555
H66A C63A 1_555 1_555
C64A C63A 1_555 1_555
H67A C64A 1_555 1_555
H68A C64A 1_555 1_555
C65A C64A 1_555 1_555
H69A C65A 1_555 1_555
H70A C65A 1_555 1_555
C66A C65A 1_555 1_555
H71A C66A 1_555 1_555
H72A C66A 1_555 1_555
C67A C66A 1_555 1_555
H73A C67A 1_555 1_555
H74A C67A 1_555 1_555
C68A C67A 1_555 1_555
H75A C68A 1_555 1_555
H76A C68A 1_555 1_555
C69A C68A 1_555 1_555
H77A C69A 1_555 1_555
H78A C69A 1_555 1_555
C70A C69A 1_555 1_555
H79A C70A 1_555 1_555
H80A C70A 1_555 1_555
C71A C70A 1_555 1_555
H81A C71A 1_555 1_555
H82A C71A 1_555 1_555
C72A N4 1_555 1_555
H83A C72A 1_555 1_555
H84A C72A 1_555 1_555
N1A C1A 1_555 1_555
N2A C36 1_555 1_555
N3A C37A 1_555 1_555
N4A C72 1_555 1_555
O1A C7A 1_555 1_555
O2A C17A 1_555 1_555
O3A C43A 1_555 1_555
O4A C53A 1_555 1_555
C5 C6 1_555 1_555
C11 N2 1_555 1_555
C15 C16 1_555 1_555
C17 C18 1_555 1_555
C19 C20 1_555 1_555
C20 N1 1_555 1_555
C25 N1 1_555 1_555
C41 C42 1_555 1_555
C47 N4 1_555 1_555
C51 C52 1_555 1_555
C53 C54 1_555 1_555
C55 C56 1_555 1_555
C56 N3 1_555 1_555
C61 N3 1_555 1_555
C5A C6A 1_555 1_555
C10A N2A 1_555 1_555
C11A N2A 1_555 1_555
C15A C16A 1_555 1_555
C17A C18A 1_555 1_555
C19A C20A 1_555 1_555
C20A N1A 1_555 1_555
C25A N1A 1_555 1_555
C35A C36A 1_555 1_555
C41A C42A 1_555 1_555
C46A N4A 1_555 1_555
C47A N4A 1_555 1_555
C51A C52A 1_555 1_555
C53A C54A 1_555 1_555
C55A C56A 1_555 1_555
C56A N3A 1_555 1_555
C61A N3A 1_555 1_555
C71A C72A 1_555 1_555

#END
