
#######################################################################
#
#                 Cambridge Crystallographic Data Centre
#                                CCDC 
#
#######################################################################
#
# If this CIF has been generated from an entry in the Cambridge 
# Structural Database, then it will include bibliographic, chemical, 
# crystal, experimental, refinement or atomic coordinate data resulting 
# from the CCDC's data processing and validation procedures.
#
#######################################################################

data_PARNAA
_chemical_formula_moiety         '2(C1 H6 N3 1+),C1 H4 O1,O4 S1 2-'
_chemical_name_systematic        
'bis(diaminomethaniminium) sulfate methanol solvate'
_symmetry_cell_setting           orthorhombic
_symmetry_space_group_name_H-M   'P 21 21 21'
_symmetry_Int_Tables_number      19
_space_group_name_Hall           'P 2ac 2ab'
loop_
_symmetry_equiv_pos_site_id
_symmetry_equiv_pos_as_xyz
1 x,y,z
2 1/2-x,-y,1/2+z
3 1/2+x,1/2-y,-z
4 -x,1/2+y,1/2-z
_cell_length_a                   7.5737(17)
_cell_length_b                   8.765(2)
_cell_length_c                   17.522(4)
_cell_angle_alpha                90
_cell_angle_beta                 90
_cell_angle_gamma                90
_cell_volume                     1163.17
_cell_formula_units_Z            4
loop_
_atom_site_label
_atom_site_type_symbol
_atom_site_fract_x
_atom_site_fract_y
_atom_site_fract_z
S1 S 0.7547 0.501 0.618
O1 O 0.5977(1) 0.4011(1) 0.6188(1)
O2 O 0.9125(1) 0.4113(1) 0.6374(1)
O3 O 0.7758(1) 0.5670(1) 0.5405
O4 O 0.7325(1) 0.6274(1) 0.6726
O5 O 0.8846(1) 0.3892(1) 0.4226(1)
H1 H 0.8559 0.4439 0.4600
C1 C 0.7429(2) 0.3820(2) 0.3704(1)
H2 H 0.7766 0.3187 0.3267
H3 H 0.7140 0.4851 0.3527
H4 H 0.6396 0.3373 0.3956
N1 N 0.2554(2) 0.5373(2) 0.6622(1)
N2 N 0.3976(2) 0.6922(2) 0.7485(1)
N3 N 0.0937(2) 0.6839(2) 0.7455(1)
C2 C 0.2484(2) 0.6378(2) 0.7188(1)
H5 H 0.166(3) 0.498(2) 0.6461(12)
H6 H 0.339(3) 0.504(2) 0.6509(13)
H7 H 0.395(2) 0.746(2) 0.7898(11)
H8 H 0.500(3) 0.660(2) 0.7301(11)
H9 H 0.088(3) 0.763(3) 0.7780(12)
H10 H 0.002(3) 0.656(3) 0.7243(13)
N4 N 0.4358(2) 0.6356(2) 0.4728(1)
N5 N 0.3236(3) 0.3918(2) 0.4777(1)
N6 N 0.1892(2) 0.5747(2) 0.4038(1)
C3 C 0.3164(2) 0.5349(2) 0.4517(1)
H11 H 0.409(3) 0.733(3) 0.4678(12)
H12 H 0.520(3) 0.615(3) 0.4989(12)
H13 H 0.249(4) 0.333(3) 0.4584(14)
H14 H 0.415(4) 0.367(3) 0.5063(18)
H15 H 0.191(2) 0.669(2) 0.3843(10)
H16 H 0.101(3) 0.528(2) 0.4067(12)
loop_
_geom_bond_atom_site_label_1
_geom_bond_atom_site_label_2
_geom_bond_site_symmetry_1
_geom_bond_site_symmetry_2
S1 O1 1_555 1_555
O2 S1 1_555 1_555
O3 S1 1_555 1_555
O4 S1 1_555 1_555
O5 H1 1_555 1_555
C1 O5 1_555 1_555
H2 C1 1_555 1_555
H3 C1 1_555 1_555
H4 C1 1_555 1_555
N1 C2 1_555 1_555
N2 C2 1_555 1_555
N3 C2 1_555 1_555
H5 N1 1_555 1_555
H6 N1 1_555 1_555
H7 N2 1_555 1_555
H8 N2 1_555 1_555
H9 N3 1_555 1_555
H10 N3 1_555 1_555
N4 C3 1_555 1_555
N5 C3 1_555 1_555
N6 C3 1_555 1_555
H11 N4 1_555 1_555
H12 N4 1_555 1_555
H13 N5 1_555 1_555
H14 N5 1_555 1_555
H15 N6 1_555 1_555
H16 N6 1_555 1_555

#END
