
#######################################################################
#
#                 Cambridge Crystallographic Data Centre
#                                CCDC 
#
#######################################################################
#
# If this CIF has been generated from an entry in the Cambridge 
# Structural Database, then it will include bibliographic, chemical, 
# crystal, experimental, refinement or atomic coordinate data resulting 
# from the CCDC's data processing and validation procedures.
#
#######################################################################

data_PARQUX
_chemical_formula_moiety         'C36 H28 Br2 O2'
_chemical_name_systematic        
1,1'-(2-(4-(2,2-dibromo-1-phenylvinyl)phenyl)-2-phenylethene-1,1-diyl)bis(4-methoxybenzene)
_symmetry_cell_setting           orthorhombic
_symmetry_space_group_name_H-M   'P 21 21 21'
_symmetry_Int_Tables_number      19
_space_group_name_Hall           'P 2ac 2ab'
loop_
_symmetry_equiv_pos_site_id
_symmetry_equiv_pos_as_xyz
1 x,y,z
2 1/2-x,-y,1/2+z
3 1/2+x,1/2-y,-z
4 -x,1/2+y,1/2-z
_cell_length_a                   9.75900(18)
_cell_length_b                   14.2058(3)
_cell_length_c                   20.9736(4)
_cell_angle_alpha                90
_cell_angle_beta                 90
_cell_angle_gamma                90
_cell_volume                     2907.66
_exptl_crystal_colour            colorless
_exptl_crystal_description       plate
_cell_formula_units_Z            4
loop_
_atom_site_label
_atom_site_type_symbol
_atom_site_fract_x
_atom_site_fract_y
_atom_site_fract_z
Br1 Br 0.48713(3) 0.35332(3) 0.633426(15)
Br2 Br 0.21054(4) 0.25938(3) 0.673541(16)
O1 O 0.5124(2) 0.86114(16) 0.62495(9)
O2 O 0.8592(2) 0.93380(16) 0.22272(10)
C1 C 0.2980(3) 0.3391(2) 0.61342(14)
C2 C 0.2383(3) 0.3789(2) 0.56398(14)
C3 C 0.0863(3) 0.3793(2) 0.55473(14)
C4 C -0.0034(3) 0.4048(3) 0.60306(15)
H1 H 0.0311 0.4185 0.6444
C5 C -0.1433(3) 0.4104(3) 0.59144(17)
H2 H -0.2039 0.4273 0.6250
C6 C -0.1950(3) 0.3916(3) 0.53140(18)
H3 H -0.2907 0.3962 0.5235
C7 C -0.1060(3) 0.3659(2) 0.48263(15)
H4 H -0.1407 0.3522 0.4413
C8 C 0.0326(3) 0.3604(2) 0.49437(13)
H5 H 0.0929 0.3434 0.4607
C9 C 0.5556(3) 0.5864(2) 0.37664(14)
C10 C 0.4683(3) 0.5316(2) 0.42182(13)
C11 C 0.3553(3) 0.5720(2) 0.45269(14)
H6 H 0.3289 0.6346 0.4426
C12 C 0.2819(3) 0.5220(2) 0.49753(13)
H7 H 0.2054 0.5508 0.5177
C13 C 0.3177(3) 0.4301(2) 0.51392(14)
C14 C 0.4249(3) 0.3870(2) 0.48041(14)
H8 H 0.4479 0.3232 0.4889
C15 C 0.4975(3) 0.4374(2) 0.43490(14)
H9 H 0.5690 0.4070 0.4121
C16 C 0.5921(3) 0.6767(2) 0.38825(14)
C17 C 0.5654(3) 0.7221(2) 0.45168(14)
C18 C 0.6155(3) 0.6823(2) 0.50760(14)
H10 H 0.6624 0.6237 0.5054
C19 C 0.5993(3) 0.7251(2) 0.56632(14)
H11 H 0.6350 0.6963 0.6037
C20 C 0.5308(3) 0.8103(2) 0.57039(14)
C21 C 0.4763(3) 0.8510(2) 0.51521(14)
H12 H 0.4268 0.9085 0.5177
C22 C 0.4950(3) 0.8072(2) 0.45686(13)
H13 H 0.4589 0.8357 0.4195
C23 C 0.5768(4) 0.8269(2) 0.68207(15)
H14 H 0.6756 0.8204 0.6749
H15 H 0.5381 0.7655 0.6933
H16 H 0.5607 0.8714 0.7170
C24 C 0.6657(3) 0.7394(2) 0.34220(13)
C25 C 0.7526(3) 0.8099(2) 0.36484(15)
H17 H 0.7681 0.8148 0.4094
C26 C 0.8165(3) 0.8725(2) 0.32455(14)
H18 H 0.8743 0.9202 0.3415
C27 C 0.7963(3) 0.8658(2) 0.25861(14)
C28 C 0.7124(3) 0.7954(2) 0.23460(13)
H19 H 0.6997 0.7894 0.1899
C29 C 0.6470(3) 0.7336(2) 0.27603(14)
H20 H 0.5883 0.6865 0.2591
C30 C 0.8645(4) 0.9175(2) 0.15546(14)
H21 H 0.9172 0.9678 0.1350
H22 H 0.7712 0.9167 0.1382
H23 H 0.9087 0.8567 0.1472
C31 C 0.6071(3) 0.5322(2) 0.32068(14)
C32 C 0.7482(3) 0.5225(2) 0.30969(15)
H24 H 0.8120 0.5520 0.3374
C33 C 0.7946(3) 0.4696(2) 0.25812(15)
H25 H 0.8903 0.4632 0.2509
C34 C 0.7033(4) 0.4267(2) 0.21752(15)
H26 H 0.7360 0.3914 0.1822
C35 C 0.5633(3) 0.4350(2) 0.22804(15)
H27 H 0.5002 0.4052 0.2001
C36 C 0.5160(3) 0.4871(2) 0.27980(14)
H28 H 0.4203 0.4919 0.2873
loop_
_geom_bond_atom_site_label_1
_geom_bond_atom_site_label_2
_geom_bond_site_symmetry_1
_geom_bond_site_symmetry_2
Br1 C1 1_555 1_555
Br2 C1 1_555 1_555
O1 C20 1_555 1_555
O2 C27 1_555 1_555
C1 C2 1_555 1_555
C2 C3 1_555 1_555
C3 C4 1_555 1_555
C4 H1 1_555 1_555
C5 C4 1_555 1_555
H2 C5 1_555 1_555
C6 C5 1_555 1_555
H3 C6 1_555 1_555
C7 C6 1_555 1_555
H4 C7 1_555 1_555
C8 C3 1_555 1_555
H5 C8 1_555 1_555
C9 C10 1_555 1_555
C10 C11 1_555 1_555
C11 H6 1_555 1_555
C12 C11 1_555 1_555
H7 C12 1_555 1_555
C13 C2 1_555 1_555
C14 C13 1_555 1_555
H8 C14 1_555 1_555
C15 C10 1_555 1_555
H9 C15 1_555 1_555
C16 C9 1_555 1_555
C17 C16 1_555 1_555
C18 C17 1_555 1_555
H10 C18 1_555 1_555
C19 C18 1_555 1_555
H11 C19 1_555 1_555
C20 C19 1_555 1_555
C21 C20 1_555 1_555
H12 C21 1_555 1_555
C22 C17 1_555 1_555
H13 C22 1_555 1_555
C23 O1 1_555 1_555
H14 C23 1_555 1_555
H15 C23 1_555 1_555
H16 C23 1_555 1_555
C24 C16 1_555 1_555
C25 C24 1_555 1_555
H17 C25 1_555 1_555
C26 C25 1_555 1_555
H18 C26 1_555 1_555
C27 C26 1_555 1_555
C28 C27 1_555 1_555
H19 C28 1_555 1_555
C29 C24 1_555 1_555
H20 C29 1_555 1_555
C30 O2 1_555 1_555
H21 C30 1_555 1_555
H22 C30 1_555 1_555
H23 C30 1_555 1_555
C31 C9 1_555 1_555
C32 C31 1_555 1_555
H24 C32 1_555 1_555
C33 C32 1_555 1_555
H25 C33 1_555 1_555
C34 C33 1_555 1_555
H26 C34 1_555 1_555
C35 C34 1_555 1_555
H27 C35 1_555 1_555
C36 C31 1_555 1_555
H28 C36 1_555 1_555
C7 C8 1_555 1_555
C12 C13 1_555 1_555
C14 C15 1_555 1_555
C21 C22 1_555 1_555
C28 C29 1_555 1_555
C35 C36 1_555 1_555

#END
