
#######################################################################
#
#                 Cambridge Crystallographic Data Centre
#                                CCDC 
#
#######################################################################
#
# If this CIF has been generated from an entry in the Cambridge 
# Structural Database, then it will include bibliographic, chemical, 
# crystal, experimental, refinement or atomic coordinate data resulting 
# from the CCDC's data processing and validation procedures.
#
#######################################################################

data_PARQIK
_chemical_formula_moiety         
'6(C7 H6 O3),25(H2 O1),Cl1 1-,2(C48 H48 N32 O16),Cs1 1+'
_chemical_name_systematic        
'cesium bis(cucurbit[8]uril) chloride hexakis(4-hydroxybenzoic acid) pentacosahydrate'
_symmetry_cell_setting           monoclinic
_symmetry_space_group_name_H-M   'C 2/c'
_symmetry_Int_Tables_number      15
_space_group_name_Hall           '-C 2yn'
loop_
_symmetry_equiv_pos_site_id
_symmetry_equiv_pos_as_xyz
1 x,y,z
2 -x,y,1/2-z
3 1/2+x,1/2+y,z
4 1/2-x,1/2+y,1/2-z
5 -x,-y,-z
6 x,-y,1/2+z
7 1/2-x,1/2-y,-z
8 1/2+x,1/2-y,1/2+z
_cell_length_a                   39.477(12)
_cell_length_b                   21.751(6)
_cell_length_c                   26.908(15)
_cell_angle_alpha                90
_cell_angle_beta                 131.554(2)
_cell_angle_gamma                90
_cell_volume                     17290.1
_exptl_crystal_colour            colorless
_exptl_crystal_description       prism
_cell_formula_units_Z            4
loop_
_atom_site_label
_atom_site_type_symbol
_atom_site_fract_x
_atom_site_fract_y
_atom_site_fract_z
O1 O 0.9311(4) 0.4980(5) 0.2474(6)
O2 O 0.0969(3) 0.8202(3) 0.3553(4)
C1 C 0.94239(18) 0.2690(2) 0.5005(3)
C2 C 0.99431(18) 0.2576(2) 0.6163(3)
H1 H 1.0035 0.2170 0.6384
C3 C 0.94803(17) 0.2781(2) 0.5926(3)
H2 H 0.9353 0.2469 0.6030
C4 C 1.00384(19) 0.3474(3) 0.6717(3)
C5 C 0.87095(18) 0.2845(2) 0.4770(3)
H3 H 0.8622 0.2550 0.4943
H4 H 0.8588 0.2696 0.4335
C6 C 0.92656(19) 0.3605(3) 0.6321(3)
H5 H 0.9125 0.3275 0.6377
H6 H 0.9431 0.3870 0.6715
C7 C 0.82630(17) 0.3756(2) 0.4105(3)
C8 C 0.84884(19) 0.3700(3) 0.5155(3)
H7 H 0.8360 0.3410 0.5276
C9 C 0.81772(19) 0.4275(3) 0.4778(3)
H8 H 0.7895 0.4244 0.4700
C10 C 0.88802(19) 0.4575(3) 0.5774(3)
C11 C 0.77545(18) 0.4660(2) 0.3597(2)
H9 H 0.7651 0.4458 0.3191
H10 H 0.7492 0.4709 0.3561
C12 C 0.83031(19) 0.5394(2) 0.5144(3)
H11 H 0.8494 0.5592 0.5581
H12 H 0.7993 0.5381 0.4973
C13 C 0.79885(17) 0.5443(2) 0.3219(2)
C14 C 0.79331(18) 0.5765(2) 0.3989(3)
H13 H 0.7639 0.5808 0.3874
C15 C 0.80350(17) 0.6323(2) 0.3757(2)
H14 H 0.7792 0.6637 0.3540
C16 C 0.86017(18) 0.6230(3) 0.4910(3)
C17 C 0.80494(17) 0.6418(3) 0.2826(3)
H15 H 0.7826 0.6747 0.2650
H16 H 0.7945 0.6152 0.2454
C18 C 0.8634(2) 0.7147(3) 0.4413(3)
H17 H 0.8839 0.7279 0.4878
H18 H 0.8381 0.7438 0.4156
C19 C 0.86869(18) 0.6559(3) 0.2866(2)
C20 C 0.86477(18) 0.7252(3) 0.3489(3)
H19 H 0.8409 0.7571 0.3275
C21 C 0.90400(18) 0.7445(3) 0.3511(3)
H20 H 0.8987 0.7857 0.3314
C22 C 0.9325(2) 0.7322(3) 0.4590(3)
C23 C 1.07393(19) 0.2956(3) 0.7126(3)
H21 H 1.0799 0.2542 0.7313
H22 H 1.0867 0.3253 0.7486
C24 C 1.01508(19) 0.2221(3) 0.5501(3)
H23 H 1.0233 0.1828 0.5734
H24 H 0.9984 0.2131 0.5032
N1 N 0.98604(15) 0.2554(2) 0.5552(2)
N2 N 0.91980(14) 0.2865(2) 0.5214(2)
N3 N 1.02464(15) 0.3051(2) 0.6613(2)
N4 N 0.95840(15) 0.3337(2) 0.6282(2)
N5 N 0.85060(15) 0.3435(2) 0.4685(2)
N6 N 0.80882(15) 0.4267(2) 0.4167(2)
N7 N 0.89143(15) 0.3964(2) 0.5741(2)
N8 N 0.84599(15) 0.4771(2) 0.5222(2)
N9 N 0.79318(14) 0.52564(19) 0.3647(2)
N10 N 0.80704(15) 0.6063(2) 0.3298(2)
N11 N 0.83080(15) 0.5764(2) 0.4702(2)
N12 N 0.84630(15) 0.6555(2) 0.4366(2)
N13 N 0.84824(15) 0.6692(2) 0.3107(2)
N14 N 1.09665(15) 0.3026(2) 0.6866(2)
N15 N 0.88729(16) 0.7172(2) 0.4176(2)
N16 N 1.05673(15) 0.2559(2) 0.5780(2)
O8 O 0.92547(13) 0.26585(19) 0.44279(18)
O9 O 0.82012(13) 0.36106(17) 0.36119(18)
O10 O 0.79594(13) 0.51163(17) 0.28234(18)
O11 O 0.85747(13) 0.6158(2) 0.24668(19)
O12 O 1.02232(14) 0.38885(19) 0.71221(19)
O13 O 0.91825(14) 0.49070(19) 0.62362(19)
O14 O 0.89342(13) 0.63554(19) 0.54868(19)
O15 O 0.95884(14) 0.7348(2) 0.5201(2)
C1D C 1.05761(18) 0.7310(2) 0.4995(3)
C2D C 1.00569(18) 0.7424(2) 0.3837(3)
H1D H 0.9965 0.7830 0.3616
C3D C 1.05197(17) 0.7219(2) 0.4074(3)
H2D H 1.0647 0.7531 0.3970
C4D C 0.99616(19) 0.6526(3) 0.3283(3)
C5D C 1.12905(18) 0.7155(2) 0.5230(3)
H3D H 1.1378 0.7450 0.5057
H4D H 1.1412 0.7304 0.5665
C6D C 1.07344(19) 0.6395(3) 0.3679(3)
H5D H 1.0875 0.6725 0.3623
H6D H 1.0569 0.6130 0.3285
C7D C 1.17370(17) 0.6244(2) 0.5895(3)
C8D C 1.15116(19) 0.6300(3) 0.4845(3)
H7D H 1.1640 0.6590 0.4724
C9D C 1.18228(19) 0.5725(3) 0.5222(3)
H8D H 1.2105 0.5756 0.5300
C10D C 1.11198(19) 0.5425(3) 0.4226(3)
C11D C 1.22455(18) 0.5340(2) 0.6403(2)
H9D H 1.2349 0.5542 0.6809
H10D H 1.2508 0.5291 0.6439
C12D C 1.16969(19) 0.4606(2) 0.4856(3)
H11D H 1.1506 0.4408 0.4419
H12D H 1.2007 0.4619 0.5027
C13D C 1.20115(17) 0.4557(2) 0.6781(2)
C14D C 1.20669(18) 0.4235(2) 0.6011(3)
H13D H 1.2361 0.4192 0.6126
C15D C 1.19650(17) 0.3677(2) 0.6243(2)
H14D H 1.2208 0.3363 0.6460
C16D C 1.13983(18) 0.3770(3) 0.5090(3)
C17D C 1.19506(17) 0.3582(3) 0.7174(3)
H15D H 1.2174 0.3253 0.7350
H16D H 1.2055 0.3848 0.7546
C18D C 1.1366(2) 0.2853(3) 0.5587(3)
H17D H 1.1161 0.2721 0.5122
H18D H 1.1619 0.2562 0.5844
C19D C 1.13131(18) 0.3441(3) 0.7134(2)
C20D C 1.13523(18) 0.2748(3) 0.6511(3)
H19D H 1.1591 0.2429 0.6725
C21D C 1.09600(18) 0.2555(3) 0.6489(3)
H20D H 1.1013 0.2143 0.6686
C22D C 1.0675(2) 0.2678(3) 0.5410(3)
C23D C 0.92607(19) 0.7044(3) 0.2874(3)
H21D H 0.9201 0.7458 0.2687
H22D H 0.9133 0.6747 0.2514
C24D C 0.98492(19) 0.7779(3) 0.4499(3)
H23D H 0.9767 0.8172 0.4266
H24D H 1.0016 0.7869 0.4968
N1D N 1.01396(15) 0.7446(2) 0.4448(2)
N2D N 1.08020(14) 0.7135(2) 0.4786(2)
N3D N 0.97536(15) 0.6949(2) 0.3387(2)
N4D N 1.04160(15) 0.6663(2) 0.3718(2)
N5D N 1.14940(15) 0.6565(2) 0.5315(2)
N6D N 1.19118(15) 0.5733(2) 0.5833(2)
N7D N 1.10857(15) 0.6036(2) 0.4259(2)
N8D N 1.15401(15) 0.5229(2) 0.4778(2)
N9D N 1.20682(14) 0.47436(19) 0.6353(2)
N10D N 1.19296(15) 0.3937(2) 0.6702(2)
N11D N 1.16920(15) 0.4236(2) 0.5298(2)
N12D N 1.15370(15) 0.3445(2) 0.5634(2)
N13D N 1.15176(15) 0.3308(2) 0.6893(2)
N14D N 0.90335(15) 0.6974(2) 0.3134(2)
N15D N 1.11271(16) 0.2828(2) 0.5824(2)
N16D N 0.94327(15) 0.7441(2) 0.4220(2)
O8D O 1.07453(13) 0.73415(19) 0.55721(18)
O9D O 1.17988(13) 0.63894(17) 0.63881(18)
O10D O 1.20406(13) 0.48837(17) 0.71766(18)
O11D O 1.14253(13) 0.3842(2) 0.75332(19)
O12D O 0.97768(14) 0.61115(19) 0.28779(19)
O13D O 1.08175(14) 0.50930(19) 0.37638(19)
O14D O 1.10658(13) 0.36446(19) 0.45132(19)
O15D O 1.04116(14) 0.2652(2) 0.4799(2)
C25 C 0.83899(17) 0.8774(2) 0.7542(2)
C26 C 0.91490(17) 0.8747(3) 0.8023(3)
H25 H 0.9398 0.8963 0.8439
C27 C 0.90271(17) 0.8138(2) 0.8163(2)
H26 H 0.9207 0.8076 0.8645
C28 C 0.93006(17) 0.7937(3) 0.7632(3)
C29 C 0.83211(18) 0.7824(2) 0.7953(3)
H27 H 0.8530 0.7746 0.8433
H28 H 0.8061 0.8052 0.7833
C30 C 0.91618(18) 0.7035(3) 0.8016(3)
H29 H 0.9327 0.6971 0.8488
H30 H 0.9337 0.6842 0.7920
C31 C 0.77216(17) 0.7060(2) 0.7214(2)
C32 C 0.84731(17) 0.6724(2) 0.7838(3)
H31 H 0.8676 0.6669 0.8325
C33 C 0.81488(16) 0.6176(2) 0.7462(2)
H32 H 0.8203 0.5856 0.7770
C34 C 0.86087(18) 0.6254(3) 0.7211(3)
C35 C 0.73037(17) 0.6088(2) 0.6795(3)
H33 H 0.7065 0.6361 0.6686
H34 H 0.7373 0.5791 0.7126
C36 C 0.81585(17) 0.5312(3) 0.6849(3)
H35 H 0.8231 0.5052 0.7206
H36 H 0.8360 0.5193 0.6772
C37 C 0.67159(17) 0.5863(2) 0.5596(3)
C38 C 0.73179(17) 0.5167(2) 0.6231(3)
H37 H 0.7394 0.4912 0.6598
C39 C 0.69302(17) 0.4882(2) 0.5546(2)
H38 H 0.6812 0.4503 0.5586
C40 C 0.75844(18) 0.4928(2) 0.5698(3)
C41 C 0.61260(18) 0.5258(3) 0.4595(3)
H39 H 0.6039 0.4840 0.4607
H40 H 0.5927 0.5545 0.4578
C42 C 0.6929(2) 0.4405(2) 0.4679(3)
H41 H 0.6763 0.4062 0.4667
H42 H 0.7165 0.4231 0.4695
C43 C 0.57889(17) 0.5788(3) 0.3547(3)
C44 C 0.61474(18) 0.4846(2) 0.3730(3)
H43 H 0.5998 0.4455 0.3679
C45 C 0.59495(18) 0.5114(2) 0.3055(3)
H44 H 0.5730 0.4826 0.2689
C46 C 0.67332(18) 0.4941(2) 0.3712(2)
C47 C 0.95434(18) 0.8958(3) 0.7592(3)
H45 H 0.9747 0.8706 0.7587
H46 H 0.9731 0.9228 0.7982
C48 C 0.86890(19) 0.9727(2) 0.7446(3)
H47 H 0.8952 0.9957 0.7822
H48 H 0.8419 0.9903 0.7340
N17 N 0.87326(14) 0.90927(19) 0.7641(2)
N18 N 0.85475(14) 0.81999(19) 0.7806(2)
N19 N 0.92810(14) 0.8560(2) 0.7657(2)
N20 N 0.91328(15) 0.7681(2) 0.7893(2)
N21 N 0.81662(14) 0.72465(19) 0.7609(2)
N22 N 0.77031(14) 0.64467(19) 0.7079(2)
N23 N 0.87220(15) 0.6731(2) 0.7623(2)
N24 N 0.82437(14) 0.5952(2) 0.7060(2)
N25 N 0.71374(14) 0.5758(2) 0.6198(2)
N26 N 0.65899(15) 0.5367(2) 0.5202(2)
N27 N 0.76871(15) 0.5197(2) 0.6240(2)
N28 N 0.71427(15) 0.4755(2) 0.5278(2)
N29 N 0.60565(15) 0.5330(2) 0.3999(2)
N30 N 0.92701(15) 0.9331(2) 0.7003(2)
N31 N 0.66191(15) 0.4757(2) 0.4072(2)
N32 N 0.86538(15) 0.9805(2) 0.6877(2)
O16 O 0.80160(12) 0.89817(16) 0.72764(18)
O17 O 0.74047(12) 0.73798(17) 0.70241(19)
O18 O 0.64858(12) 0.63246(17) 0.54402(18)
O19 O 0.56246(12) 0.62143(19) 0.3612(2)
O20 O 0.94467(14) 0.7656(2) 0.7418(2)
O21 O 0.87947(14) 0.6119(2) 0.7001(2)
O22 O 0.78498(13) 0.48295(18) 0.56130(18)
O23 O 0.70949(13) 0.48853(19) 0.38678(19)
C25F C 0.66101(17) 0.6226(2) 0.2458(2)
C26F C 0.58510(17) 0.6253(3) 0.1977(3)
H25F H 0.5602 0.6037 0.1561
C27F C 0.59729(17) 0.6862(2) 0.1837(2)
H26F H 0.5793 0.6924 0.1355
C28F C 0.56994(17) 0.7063(3) 0.2368(3)
C29F C 0.66789(18) 0.7176(2) 0.2047(3)
H27F H 0.6470 0.7254 0.1567
H28F H 0.6939 0.6948 0.2167
C30F C 0.58382(18) 0.7965(3) 0.1984(3)
H29F H 0.5673 0.8029 0.1512
H30F H 0.5663 0.8158 0.2080
C31F C 0.72784(17) 0.7940(2) 0.2786(2)
C32F C 0.65269(17) 0.8276(2) 0.2162(3)
H31F H 0.6324 0.8331 0.1675
C33F C 0.68512(16) 0.8824(2) 0.2538(2)
H32F H 0.6797 0.9144 0.2230
C34F C 0.63913(18) 0.8746(3) 0.2789(3)
C35F C 0.76963(17) 0.8912(2) 0.3205(3)
H33F H 0.7935 0.8639 0.3314
H34F H 0.7627 0.9209 0.2874
C36F C 0.68415(17) 0.9688(3) 0.3151(3)
H35F H 0.6769 0.9948 0.2794
H36F H 0.6640 0.9807 0.3228
C37F C 0.82841(17) 0.9137(2) 0.4404(3)
C38F C 0.76821(17) 0.9833(2) 0.3769(3)
H37F H 0.7606 1.0088 0.3402
C39F C 0.80698(17) 1.0118(2) 0.4454(2)
H38F H 0.8188 1.0497 0.4414
C40F C 0.74156(18) 1.0072(2) 0.4302(3)
C41F C 0.88740(18) 0.9742(3) 0.5405(3)
H39F H 0.8961 1.0160 0.5393
H40F H 0.9073 0.9455 0.5422
C42F C 0.8071(2) 1.0595(2) 0.5321(3)
H41F H 0.8237 1.0938 0.5333
H42F H 0.7835 1.0769 0.5305
C43F C 0.92111(17) 0.9212(3) 0.6453(3)
C44F C 0.88526(18) 1.0154(2) 0.6270(3)
H43F H 0.9002 1.0545 0.6321
C45F C 0.90505(18) 0.9886(2) 0.6945(3)
H44F H 0.9270 1.0174 0.7311
C46F C 0.82668(18) 1.0059(2) 0.6288(2)
C47F C 0.54566(18) 0.6042(3) 0.2408(3)
H45F H 0.5253 0.6294 0.2413
H46F H 0.5269 0.5772 0.2018
C48F C 0.63110(19) 0.5273(2) 0.2554(3)
H47F H 0.6048 0.5043 0.2178
H48F H 0.6581 0.5097 0.2660
N17F N 0.62674(14) 0.59073(19) 0.2359(2)
N18F N 0.64525(14) 0.68001(19) 0.2194(2)
N19F N 0.57190(14) 0.6440(2) 0.2343(2)
N20F N 0.58672(15) 0.7319(2) 0.2107(2)
N21F N 0.68338(14) 0.77535(19) 0.2391(2)
N22F N 0.72969(14) 0.85533(19) 0.2921(2)
N23F N 0.62780(15) 0.8269(2) 0.2377(2)
N24F N 0.67563(14) 0.9048(2) 0.2940(2)
N25F N 0.78626(14) 0.9242(2) 0.3802(2)
N26F N 0.84101(15) 0.9633(2) 0.4798(2)
N27F N 0.73129(15) 0.9803(2) 0.3760(2)
N28F N 0.78573(15) 1.0245(2) 0.4722(2)
N29F N 0.89435(15) 0.9670(2) 0.6001(2)
N30F N 0.57299(15) 0.5669(2) 0.2997(2)
N31F N 0.83809(15) 1.0243(2) 0.5928(2)
N32F N 0.63462(15) 0.5195(2) 0.3123(2)
O16F O 0.69840(12) 0.60183(16) 0.27236(18)
O17F O 0.75953(12) 0.76202(17) 0.29759(19)
O18F O 0.85142(12) 0.86754(17) 0.45598(18)
O19F O 0.93754(12) 0.87857(19) 0.6388(2)
O20F O 0.55533(14) 0.7344(2) 0.2582(2)
O21F O 0.62053(14) 0.8881(2) 0.2999(2)
O22F O 0.71502(13) 1.01705(18) 0.43870(18)
O23F O 0.79051(13) 1.01147(19) 0.61322(19)
C49 C 0.82348(19) 0.7524(3) 0.5164(3)
C50 C 0.8255(2) 0.7080(3) 0.5561(3)
H49 H 0.8520 0.7029 0.6008
C51 C 0.7847(2) 0.7601(3) 0.4503(3)
H50 H 0.7836 0.7902 0.4242
C52 C 0.7883(2) 0.6724(3) 0.5289(3)
H51 H 0.7894 0.6427 0.5553
C53 C 0.7477(2) 0.7230(3) 0.4233(3)
H52 H 0.7217 0.7270 0.3781
C54 C 0.7486(2) 0.6795(3) 0.4625(3)
C55 C 0.7080(2) 0.6433(3) 0.4345(3)
O24 O 0.86135(14) 0.7870(2) 0.5464(2)
H61 H 0.8590 0.8292 0.5371
O25 O 0.70682(17) 0.6062(2) 0.4685(3)
O26 O 0.67270(17) 0.6538(2) 0.3726(2)
H62 H 0.6514 0.6317 0.3611
C56 C 0.9594(3) 0.5342(7) 0.5471(6)
C57 C 0.9700(4) 0.5741(6) 0.5257(5)
H53 H 0.9858 0.6093 0.5516
C58 C 0.9368(3) 0.4859(7) 0.5126(5)
H54 H 0.9285 0.4586 0.5300
C59 C 0.9592(4) 0.5679(5) 0.4650(6)
H55 H 0.9669 0.5986 0.4494
C60 C 0.9238(3) 0.4711(5) 0.4519(5)
H56 H 0.9078 0.4347 0.4293
C61 C 0.9354(4) 0.5119(5) 0.4262(6)
C62 C 0.9287(4) 0.4996(6) 0.3689(5)
O27 O 0.9760(3) 0.5450(4) 0.6155(4)
H63 H 0.9663 0.5174 0.6246
O28 O 0.9444(3) 0.5414(4) 0.3524(4)
H64 H 0.9394 0.5298 0.3186
O29 O 0.9081(2) 0.4548(4) 0.3381(4)
C63 C 0.1727(3) 0.8170(4) 0.3374(5)
C64 C 0.1867(4) 0.7730(6) 0.3846(7)
H57 H 0.1741 0.7705 0.4043
C65 C 0.1915(3) 0.8232(4) 0.3083(5)
H58 H 0.1813 0.8544 0.2768
C66 C 0.2217(5) 0.7310(7) 0.4026(7)
H59 H 0.2313 0.6998 0.4337
C67 C 0.2265(3) 0.7820(4) 0.3267(5)
H60 H 0.2395 0.7850 0.3076
C68 C 0.2410(3) 0.7355(4) 0.3756(4)
C69 C 0.2766(4) 0.6909(5) 0.3965(5)
O30 O 0.1393(2) 0.8573(3) 0.3177(4)
H65 H 0.1299 0.8490 0.3367
O31 O 0.2892(2) 0.6928(3) 0.3632(3)
H66 H 0.3096 0.6672 0.3784
O32 O 0.2952(4) 0.6619(5) 0.4439(7)
Cl1 Cl 0.0000 0.22180(13) 0.7500
Cs1 Cs 0.95639(5) 0.72407(9) 0.64668(7)
O5 O 0.9413(5) 0.6303(8) 0.6862(7)
O6 O 0.9916(5) 0.6527(7) 0.6644(10)
O7 O 1.0000 0.7016(3) 0.7500
O3? O 0.9877(7) 0.623(2) 0.5970(9)
O4? O 0.9655(9) 0.6204(12) 0.748(2)
loop_
_geom_bond_atom_site_label_1
_geom_bond_atom_site_label_2
_geom_bond_site_symmetry_1
_geom_bond_site_symmetry_2
C1 N1 1_555 1_555
C2 H1 1_555 1_555
C3 C2 1_555 1_555
H2 C3 1_555 1_555
C4 N3 1_555 1_555
C5 H3 1_555 1_555
H4 C5 1_555 1_555
C6 H5 1_555 1_555
H6 C6 1_555 1_555
C7 N5 1_555 1_555
C8 H7 1_555 1_555
C9 C8 1_555 1_555
H8 C9 1_555 1_555
C10 N7 1_555 1_555
C11 H9 1_555 1_555
H10 C11 1_555 1_555
C12 H11 1_555 1_555
H12 C12 1_555 1_555
C13 N9 1_555 1_555
C14 H13 1_555 1_555
C15 C14 1_555 1_555
H14 C15 1_555 1_555
C16 N11 1_555 1_555
C17 H15 1_555 1_555
H16 C17 1_555 1_555
C18 H17 1_555 1_555
H18 C18 1_555 1_555
C19 N13 1_555 1_555
C20 H19 1_555 1_555
C21 C20 1_555 1_555
H20 C21 1_555 1_555
C22 N15 1_555 1_555
C23 H21 1_555 1_555
H22 C23 1_555 1_555
C24 H23 1_555 1_555
H24 C24 1_555 1_555
C25 N17 1_555 1_555
C26 H25 1_555 1_555
C27 C26 1_555 1_555
H26 C27 1_555 1_555
C28 N19 1_555 1_555
C29 H27 1_555 1_555
H28 C29 1_555 1_555
C30 H29 1_555 1_555
H30 C30 1_555 1_555
C31 N21 1_555 1_555
C32 H31 1_555 1_555
C33 C32 1_555 1_555
H32 C33 1_555 1_555
C34 N23 1_555 1_555
C35 H33 1_555 1_555
H34 C35 1_555 1_555
C36 H35 1_555 1_555
H36 C36 1_555 1_555
C37 N25 1_555 1_555
C38 H37 1_555 1_555
C39 C38 1_555 1_555
H38 C39 1_555 1_555
C40 N27 1_555 1_555
C41 H39 1_555 1_555
H40 C41 1_555 1_555
C42 H41 1_555 1_555
H42 C42 1_555 1_555
C43 N29 1_555 1_555
C44 H43 1_555 1_555
C45 C44 1_555 1_555
H44 C45 1_555 1_555
C46 N31 1_555 1_555
C47 H45 1_555 1_555
H46 C47 1_555 1_555
C48 H47 1_555 1_555
H48 C48 1_555 1_555
C49 C50 1_555 1_555
C50 H49 1_555 1_555
C51 C49 1_555 1_555
H50 C51 1_555 1_555
C52 C50 1_555 1_555
H51 C52 1_555 1_555
C53 C51 1_555 1_555
H52 C53 1_555 1_555
C54 C52 1_555 1_555
C55 C54 1_555 1_555
C56 C57 1_555 1_555
C57 H53 1_555 1_555
C58 C56 1_555 1_555
H54 C58 1_555 1_555
C59 C57 1_555 1_555
H55 C59 1_555 1_555
C60 C58 1_555 1_555
H56 C60 1_555 1_555
C61 C59 1_555 1_555
C62 C61 1_555 1_555
C63 C64 1_555 1_555
C64 H57 1_555 1_555
C65 C63 1_555 1_555
H58 C65 1_555 1_555
C66 C64 1_555 1_555
H59 C66 1_555 1_555
C67 C65 1_555 1_555
H60 C67 1_555 1_555
C68 C66 1_555 1_555
C69 C68 1_555 1_555
N1 C2 1_555 1_555
N2 C1 1_555 1_555
N3 C2 1_555 1_555
N4 C3 1_555 1_555
N5 C5 1_555 1_555
N6 C7 1_555 1_555
N7 C6 1_555 1_555
N8 C9 1_555 1_555
N9 C11 1_555 1_555
N10 C13 1_555 1_555
N11 C12 1_555 1_555
N12 C15 1_555 1_555
N13 C17 1_555 1_555
N14 C23 1_555 1_555
N15 C18 1_555 1_555
N16 C24 1_555 1_555
N17 C26 1_555 1_555
N18 C25 1_555 1_555
N19 C26 1_555 1_555
N20 C27 1_555 1_555
N21 C29 1_555 1_555
N22 C31 1_555 1_555
N23 C30 1_555 1_555
N24 C33 1_555 1_555
N25 C35 1_555 1_555
N26 C37 1_555 1_555
N27 C36 1_555 1_555
N28 C39 1_555 1_555
N29 C41 1_555 1_555
N30 C47 1_555 1_555
N31 C42 1_555 1_555
N32 C48 1_555 1_555
O8 C1 1_555 1_555
O9 C7 1_555 1_555
O10 C13 1_555 1_555
O11 C19 1_555 1_555
O12 C4 1_555 1_555
O13 C10 1_555 1_555
O14 C16 1_555 1_555
O15 C22 1_555 1_555
O16 C25 1_555 1_555
O17 C31 1_555 1_555
O18 C37 1_555 1_555
O19 C43 1_555 1_555
O20 C28 1_555 1_555
O21 C34 1_555 1_555
O22 C40 1_555 1_555
O23 C46 1_555 1_555
O24 C49 1_555 1_555
H61 O24 1_555 1_555
O25 C55 1_555 1_555
O26 C55 1_555 1_555
H62 O26 1_555 1_555
O27 C56 1_555 1_555
H63 O27 1_555 1_555
O28 C62 1_555 1_555
H64 O28 1_555 1_555
O29 C62 1_555 1_555
O30 C63 1_555 1_555
H65 O30 1_555 1_555
O31 C69 1_555 1_555
H66 O31 1_555 1_555
O32 C69 1_555 1_555
C1D N1D 1_555 1_555
C2D H1D 1_555 1_555
C3D C2D 1_555 1_555
H2D C3D 1_555 1_555
C4D N3D 1_555 1_555
C5D H3D 1_555 1_555
H4D C5D 1_555 1_555
C6D H5D 1_555 1_555
H6D C6D 1_555 1_555
C7D N5D 1_555 1_555
C8D H7D 1_555 1_555
C9D C8D 1_555 1_555
H8D C9D 1_555 1_555
C10D N7D 1_555 1_555
C11D H9D 1_555 1_555
H10D C11D 1_555 1_555
C12D H11D 1_555 1_555
H12D C12D 1_555 1_555
C13D N9D 1_555 1_555
C14D H13D 1_555 1_555
C15D C14D 1_555 1_555
H14D C15D 1_555 1_555
C16D N11D 1_555 1_555
C17D H15D 1_555 1_555
H16D C17D 1_555 1_555
C18D H17D 1_555 1_555
H18D C18D 1_555 1_555
C19D N14 1_555 1_555
C20D H19D 1_555 1_555
C21D N14 1_555 1_555
H20D C21D 1_555 1_555
C22D N16 1_555 1_555
C23D H21D 1_555 1_555
H22D C23D 1_555 1_555
C24D H23D 1_555 1_555
H24D C24D 1_555 1_555
C25F N17F 1_555 1_555
C26F H25F 1_555 1_555
C27F C26F 1_555 1_555
H26F C27F 1_555 1_555
C28F N19F 1_555 1_555
C29F H27F 1_555 1_555
H28F C29F 1_555 1_555
C30F H29F 1_555 1_555
H30F C30F 1_555 1_555
C31F N21F 1_555 1_555
C32F H31F 1_555 1_555
C33F C32F 1_555 1_555
H32F C33F 1_555 1_555
C34F N23F 1_555 1_555
C35F H33F 1_555 1_555
H34F C35F 1_555 1_555
C36F H35F 1_555 1_555
H36F C36F 1_555 1_555
C37F N25F 1_555 1_555
C38F H37F 1_555 1_555
C39F C38F 1_555 1_555
H38F C39F 1_555 1_555
C40F N27F 1_555 1_555
C41F H39F 1_555 1_555
H40F C41F 1_555 1_555
C42F H41F 1_555 1_555
H42F C42F 1_555 1_555
C43F N30 1_555 1_555
C44F H43F 1_555 1_555
C45F N30 1_555 1_555
H44F C45F 1_555 1_555
C46F N32 1_555 1_555
C47F H45F 1_555 1_555
H46F C47F 1_555 1_555
C48F H47F 1_555 1_555
H48F C48F 1_555 1_555
N1D C2D 1_555 1_555
N2D C1D 1_555 1_555
N3D C2D 1_555 1_555
N4D C3D 1_555 1_555
N5D C5D 1_555 1_555
N6D C7D 1_555 1_555
N7D C6D 1_555 1_555
N8D C9D 1_555 1_555
N9D C11D 1_555 1_555
N10D C13D 1_555 1_555
N11D C12D 1_555 1_555
N12D C15D 1_555 1_555
N13D C17D 1_555 1_555
N14D C19 1_555 1_555
N15D C18D 1_555 1_555
N16D C21 1_555 1_555
N17F C26F 1_555 1_555
N18F C25F 1_555 1_555
N19F C26F 1_555 1_555
N20F C27F 1_555 1_555
N21F C29F 1_555 1_555
N22F C31F 1_555 1_555
N23F C30F 1_555 1_555
N24F C33F 1_555 1_555
N25F C35F 1_555 1_555
N26F C37F 1_555 1_555
N27F C36F 1_555 1_555
N28F C39F 1_555 1_555
N29F C41F 1_555 1_555
N30F C43 1_555 1_555
N31F C42F 1_555 1_555
N32F C45 1_555 1_555
O8D C1D 1_555 1_555
O9D C7D 1_555 1_555
O10D C13D 1_555 1_555
O11D C19D 1_555 1_555
O12D C4D 1_555 1_555
O13D C10D 1_555 1_555
O14D C16D 1_555 1_555
O15D C22D 1_555 1_555
O16F C25F 1_555 1_555
O17F C31F 1_555 1_555
O18F C37F 1_555 1_555
O19F C43F 1_555 1_555
O20F C28F 1_555 1_555
O21F C34F 1_555 1_555
O22F C40F 1_555 1_555
O23F C46F 1_555 1_555
C3 N2 1_555 1_555
C4 N4 1_555 1_555
C5 N2 1_555 1_555
C6 N4 1_555 1_555
C8 N5 1_555 1_555
C8 N7 1_555 1_555
C9 N6 1_555 1_555
C10 N8 1_555 1_555
C11 N6 1_555 1_555
C12 N8 1_555 1_555
C14 N9 1_555 1_555
C14 N11 1_555 1_555
C15 N10 1_555 1_555
C16 N12 1_555 1_555
C17 N10 1_555 1_555
C18 N12 1_555 1_555
C20 N13 1_555 1_555
C20 N15 1_555 1_555
C21 N14D 1_555 1_555
C22 N16D 1_555 1_555
C23 N3 1_555 1_555
C24 N1 1_555 1_555
C27 N18 1_555 1_555
C28 N20 1_555 1_555
C29 N18 1_555 1_555
C30 N20 1_555 1_555
C32 N21 1_555 1_555
C32 N23 1_555 1_555
C33 N22 1_555 1_555
C34 N24 1_555 1_555
C35 N22 1_555 1_555
C36 N24 1_555 1_555
C38 N25 1_555 1_555
C38 N27 1_555 1_555
C39 N26 1_555 1_555
C40 N28 1_555 1_555
C41 N26 1_555 1_555
C42 N28 1_555 1_555
C44 N29 1_555 1_555
C44 N31 1_555 1_555
C45 N30F 1_555 1_555
C46 N32F 1_555 1_555
C47 N19 1_555 1_555
C48 N17 1_555 1_555
C53 C54 1_555 1_555
C60 C61 1_555 1_555
C67 C68 1_555 1_555
N16 C21D 1_555 1_555
N32 C45F 1_555 1_555
C3D N2D 1_555 1_555
C4D N4D 1_555 1_555
C5D N2D 1_555 1_555
C6D N4D 1_555 1_555
C8D N5D 1_555 1_555
C8D N7D 1_555 1_555
C9D N6D 1_555 1_555
C10D N8D 1_555 1_555
C11D N6D 1_555 1_555
C12D N8D 1_555 1_555
C14D N9D 1_555 1_555
C14D N11D 1_555 1_555
C15D N10D 1_555 1_555
C16D N12D 1_555 1_555
C17D N10D 1_555 1_555
C18D N12D 1_555 1_555
C19D N13D 1_555 1_555
C20D C21D 1_555 1_555
C20D N13D 1_555 1_555
C20D N15D 1_555 1_555
C22D N15D 1_555 1_555
C23D N3D 1_555 1_555
C23D N14D 1_555 1_555
C24D N1D 1_555 1_555
C24D N16D 1_555 1_555
C27F N18F 1_555 1_555
C28F N20F 1_555 1_555
C29F N18F 1_555 1_555
C30F N20F 1_555 1_555
C32F N21F 1_555 1_555
C32F N23F 1_555 1_555
C33F N22F 1_555 1_555
C34F N24F 1_555 1_555
C35F N22F 1_555 1_555
C36F N24F 1_555 1_555
C38F N25F 1_555 1_555
C38F N27F 1_555 1_555
C39F N26F 1_555 1_555
C40F N28F 1_555 1_555
C41F N26F 1_555 1_555
C42F N28F 1_555 1_555
C43F N29F 1_555 1_555
C44F C45F 1_555 1_555
C44F N29F 1_555 1_555
C44F N31F 1_555 1_555
C46F N31F 1_555 1_555
C47F N19F 1_555 1_555
C47F N30F 1_555 1_555
C48F N17F 1_555 1_555
C48F N32F 1_555 1_555

#END
