
#######################################################################
#
#                 Cambridge Crystallographic Data Centre
#                                CCDC 
#
#######################################################################
#
# If this CIF has been generated from an entry in the Cambridge 
# Structural Database, then it will include bibliographic, chemical, 
# crystal, experimental, refinement or atomic coordinate data resulting 
# from the CCDC's data processing and validation procedures.
#
#######################################################################

data_PARVAH
_chemical_formula_moiety         'C9 H7 N2 O3 1+,C1 H4 O1,Cl1 1-,H2 O1'
_chemical_name_systematic        
'2-(Carboxycarbonyl)imidazo[1,2-a]pyridin-1-ium chloride methanol solvate monohydrate'
_symmetry_cell_setting           triclinic
_symmetry_space_group_name_H-M   'P -1'
_symmetry_Int_Tables_number      2
_space_group_name_Hall           '-P 1'
loop_
_symmetry_equiv_pos_site_id
_symmetry_equiv_pos_as_xyz
1 x,y,z
2 -x,-y,-z
_cell_length_a                   8.1069(16)
_cell_length_b                   9.2546(19)
_cell_length_c                   9.999(2)
_cell_angle_alpha                64.91(3)
_cell_angle_beta                 74.11(3)
_cell_angle_gamma                69.67(3)
_cell_volume                     629.975
_cell_formula_units_Z            2
loop_
_atom_site_label
_atom_site_type_symbol
_atom_site_fract_x
_atom_site_fract_y
_atom_site_fract_z
Cl1 Cl 0.68492(16) 0.03382(16) 1.25758(13)
C1 C 1.2397(6) -0.4853(5) 1.2352(4)
C2 C 1.3423(7) -0.5999(6) 1.3471(5)
H1 H 1.4253 -0.6948 1.3363
C3 C 1.3149(8) -0.5660(6) 1.4724(5)
H2 H 1.3812 -0.6394 1.5489
C4 C 1.1887(8) -0.4226(6) 1.4895(5)
H3 H 1.1724 -0.4031 1.5768
C5 C 1.0919(7) -0.3139(6) 1.3804(5)
H4 H 1.0094 -0.2187 1.3908
C6 C 1.0371(6) -0.2544(5) 1.1254(4)
H5 H 0.9500 -0.1541 1.1078
C7 C 1.1102(5) -0.3388(5) 1.0316(4)
C8 C 1.0819(6) -0.3108(5) 0.8836(5)
C9 C 0.9420(6) -0.1540(5) 0.8075(5)
N1 N 1.2347(5) -0.4814(4) 1.1012(4)
N2 N 1.1175(5) -0.3468(4) 1.2527(4)
O1 O 1.1606(5) -0.4127(4) 0.8266(4)
O2 O 0.9177(5) -0.1534(4) 0.6831(4)
O3 O 0.8655(4) -0.0513(4) 0.8624(4)
H10 H 1.298(7) -0.563(7) 1.065(6)
C10 C 0.4615(7) 0.2310(6) -0.1107(6)
H6 H 0.4225 0.3286 -0.1944
H7 H 0.3837 0.1609 -0.0794
H8 H 0.5805 0.1726 -0.1390
O4 O 0.4582(6) 0.2766(5) 0.0080(5)
H9 H 0.5392 0.2114 0.0555
O5 O 0.6753(10) 0.0609(8) 0.5664(7)
loop_
_geom_bond_atom_site_label_1
_geom_bond_atom_site_label_2
_geom_bond_site_symmetry_1
_geom_bond_site_symmetry_2
C1 C2 1_555 1_555
C2 H1 1_555 1_555
C3 C2 1_555 1_555
H2 C3 1_555 1_555
C4 C3 1_555 1_555
H3 C4 1_555 1_555
C5 C4 1_555 1_555
H4 C5 1_555 1_555
C6 H5 1_555 1_555
C7 C6 1_555 1_555
C8 C7 1_555 1_555
C9 C8 1_555 1_555
C10 H6 1_555 1_555
H7 C10 1_555 1_555
H8 C10 1_555 1_555
N1 C1 1_555 1_555
N2 C1 1_555 1_555
O1 C8 1_555 1_555
O2 C9 1_555 1_555
O3 C9 1_555 1_555
O4 C10 1_555 1_555
H9 O4 1_555 1_555
H10 N1 1_555 1_555
C5 N2 1_555 1_555
C6 N2 1_555 1_555
C7 N1 1_555 1_555

#END
