
#######################################################################
#
#                 Cambridge Crystallographic Data Centre
#                                CCDC 
#
#######################################################################
#
# If this CIF has been generated from an entry in the Cambridge 
# Structural Database, then it will include bibliographic, chemical, 
# crystal, experimental, refinement or atomic coordinate data resulting 
# from the CCDC's data processing and validation procedures.
#
#######################################################################

data_PARYOZ
_chemical_formula_moiety         'C16 H14 N2 O3'
_chemical_name_systematic        
'(2-oxo-2,3-dihydro-1H-benzimidazol-1-yl)(phenyl)methyl acetate'
_symmetry_cell_setting           triclinic
_symmetry_space_group_name_H-M   'P -1'
_symmetry_Int_Tables_number      2
_space_group_name_Hall           '-P 1'
loop_
_symmetry_equiv_pos_site_id
_symmetry_equiv_pos_as_xyz
1 x,y,z
2 -x,-y,-z
_cell_length_a                   9.0314(6)
_cell_length_b                   9.1791(7)
_cell_length_c                   10.9270(6)
_cell_angle_alpha                71.905(6)
_cell_angle_beta                 71.569(6)
_cell_angle_gamma                61.983(7)
_cell_volume                     744.329
_exptl_crystal_colour            'dark yellow'
_exptl_crystal_description       block
_cell_formula_units_Z            2
loop_
_atom_site_label
_atom_site_type_symbol
_atom_site_fract_x
_atom_site_fract_y
_atom_site_fract_z
O1 O 0.4547(2) 0.9418(2) 0.37176(17)
O2 O 0.7650(2) 0.7738(2) 0.04419(15)
O3 O 0.6211(3) 1.0520(3) 0.0369(2)
N1 N 0.7194(3) 0.7628(3) 0.27102(18)
N2 N 0.7102(3) 0.8559(3) 0.43607(19)
H1 H 0.6726 0.9073 0.5006
C1 C 0.8876(3) 0.6922(3) 0.2897(2)
C2 C 1.0385(4) 0.5849(4) 0.2266(3)
H2 H 1.0424 0.5432 0.1576
C3 C 1.1851(4) 0.5409(5) 0.2700(3)
H3 H 1.2901 0.4684 0.2292
C4 C 1.1784(4) 0.6026(5) 0.3720(3)
H4 H 1.2793 0.5709 0.3985
C5 C 1.0263(4) 0.7103(4) 0.4366(3)
H5 H 1.0227 0.7515 0.5057
C6 C 0.8808(3) 0.7537(3) 0.3940(2)
C7 C 0.6108(4) 0.8636(3) 0.3618(2)
C8 C 0.6610(3) 0.7424(3) 0.1710(2)
H6 H 0.5420 0.8240 0.1706
C9 C 0.6710(3) 0.5686(3) 0.1905(2)
C10 C 0.6674(4) 0.5147(3) 0.0869(3)
H7 H 0.6649 0.5842 0.0042
C11 C 0.6677(4) 0.3595(4) 0.1047(3)
H8 H 0.6656 0.3249 0.0340
C12 C 0.6709(4) 0.2565(4) 0.2248(3)
H9 H 0.6712 0.1516 0.2363
C13 C 0.6736(4) 0.3077(4) 0.3289(3)
H10 H 0.6760 0.2374 0.4113
C14 C 0.6729(4) 0.4636(4) 0.3121(3)
H11 H 0.6738 0.4979 0.3834
C15 C 0.7302(4) 0.9370(4) -0.0146(3)
C16 C 0.8402(5) 0.9478(5) -0.1475(3)
H12 H 0.9500 0.8542 -0.1473
H13 H 0.8546 1.0509 -0.1714
H14 H 0.7872 0.9454 -0.2100
loop_
_geom_bond_atom_site_label_1
_geom_bond_atom_site_label_2
_geom_bond_site_symmetry_1
_geom_bond_site_symmetry_2
O1 C7 1_555 1_555
O2 C8 1_555 1_555
O3 C15 1_555 1_555
N1 C1 1_555 1_555
N2 H1 1_555 1_555
C1 C2 1_555 1_555
C2 H2 1_555 1_555
C3 C2 1_555 1_555
H3 C3 1_555 1_555
C4 C3 1_555 1_555
H4 C4 1_555 1_555
C5 C4 1_555 1_555
H5 C5 1_555 1_555
C6 N2 1_555 1_555
C7 N1 1_555 1_555
C8 N1 1_555 1_555
H6 C8 1_555 1_555
C9 C8 1_555 1_555
C10 C9 1_555 1_555
H7 C10 1_555 1_555
C11 C10 1_555 1_555
H8 C11 1_555 1_555
C12 C11 1_555 1_555
H9 C12 1_555 1_555
C13 C12 1_555 1_555
H10 C13 1_555 1_555
C14 C9 1_555 1_555
H11 C14 1_555 1_555
C15 O2 1_555 1_555
C16 C15 1_555 1_555
H12 C16 1_555 1_555
H13 C16 1_555 1_555
H14 C16 1_555 1_555
N2 C7 1_555 1_555
C1 C6 1_555 1_555
C5 C6 1_555 1_555
C13 C14 1_555 1_555

#END
