
#######################################################################
#
#                 Cambridge Crystallographic Data Centre
#                                CCDC 
#
#######################################################################
#
# If this CIF has been generated from an entry in the Cambridge 
# Structural Database, then it will include bibliographic, chemical, 
# crystal, experimental, refinement or atomic coordinate data resulting 
# from the CCDC's data processing and validation procedures.
#
#######################################################################

data_PASHAV
_chemical_formula_moiety         'C15 H13 N1 O1'
_chemical_name_systematic        3-(phenylimino)-2,3-dihydro-1H-inden-4-ol
_symmetry_cell_setting           orthorhombic
_symmetry_space_group_name_H-M   'P n a 21'
_symmetry_Int_Tables_number      33
_space_group_name_Hall           'P 2c -2n'
loop_
_symmetry_equiv_pos_site_id
_symmetry_equiv_pos_as_xyz
1 x,y,z
2 -x,-y,1/2+z
3 1/2-x,1/2+y,1/2+z
4 1/2+x,1/2-y,z
_cell_length_a                   10.4043(9)
_cell_length_b                   16.1681(13)
_cell_length_c                   7.1817(6)
_cell_angle_alpha                90
_cell_angle_beta                 90
_cell_angle_gamma                90
_cell_volume                     1208.09
_exptl_crystal_colour            yellow
_exptl_crystal_description       parallelepiped
_cell_formula_units_Z            4
loop_
_atom_site_label
_atom_site_type_symbol
_atom_site_fract_x
_atom_site_fract_y
_atom_site_fract_z
O1 O 0.6774(2) 0.66293(11) 0.3082(4)
H1 H 0.735(3) 0.609(2) 0.291(6)
N1 N 0.7470(2) 0.50211(12) 0.2967(3)
C1 C 0.5318(2) 0.54883(13) 0.3212(4)
C2 C 0.5559(3) 0.63402(14) 0.3203(4)
C3 C 0.4515(3) 0.68724(17) 0.3320(5)
H2 H 0.4642 0.7442 0.3345
C4 C 0.3286(3) 0.6550(2) 0.3400(5)
H3 H 0.2592 0.6911 0.3473
C5 C 0.3056(3) 0.57172(18) 0.3376(4)
H4 H 0.2220 0.5516 0.3428
C6 C 0.4087(2) 0.51790(14) 0.3273(4)
C7 C 0.4120(2) 0.42528(15) 0.3199(5)
H5 H 0.3735 0.4052 0.2055
H6 H 0.3662 0.4017 0.4248
C8 C 0.5563(2) 0.40260(14) 0.3281(4)
H7 H 0.5763 0.3745 0.4439
H8 H 0.5793 0.3668 0.2250
C9 C 0.6278(2) 0.48377(13) 0.3156(4)
C10 C 0.8476(2) 0.44242(14) 0.2882(4)
C11 C 0.8506(3) 0.37085(18) 0.3901(5)
H9 H 0.7816 0.3572 0.4666
C12 C 0.9560(3) 0.3188(2) 0.3794(5)
H10 H 0.9585 0.2711 0.4517
C13 C 1.0566(3) 0.3369(2) 0.2636(6)
H11 H 1.1264 0.3011 0.2544
C14 C 1.0531(3) 0.4083(2) 0.1616(6)
H12 H 1.1212 0.4213 0.0831
C15 C 0.9494(3) 0.4612(2) 0.1742(5)
H13 H 0.9485 0.5099 0.1051
loop_
_geom_bond_atom_site_label_1
_geom_bond_atom_site_label_2
_geom_bond_site_symmetry_1
_geom_bond_site_symmetry_2
O1 H1 1_555 1_555
N1 C9 1_555 1_555
C1 C2 1_555 1_555
C2 O1 1_555 1_555
C3 C2 1_555 1_555
H2 C3 1_555 1_555
C4 C3 1_555 1_555
H3 C4 1_555 1_555
C5 C4 1_555 1_555
H4 C5 1_555 1_555
C6 C1 1_555 1_555
C7 C6 1_555 1_555
H5 C7 1_555 1_555
H6 C7 1_555 1_555
C8 C7 1_555 1_555
H7 C8 1_555 1_555
H8 C8 1_555 1_555
C9 C1 1_555 1_555
C10 N1 1_555 1_555
C11 C10 1_555 1_555
H9 C11 1_555 1_555
C12 C11 1_555 1_555
H10 C12 1_555 1_555
C13 C12 1_555 1_555
H11 C13 1_555 1_555
C14 C13 1_555 1_555
H12 C14 1_555 1_555
C15 C10 1_555 1_555
H13 C15 1_555 1_555
C5 C6 1_555 1_555
C8 C9 1_555 1_555
C14 C15 1_555 1_555

#END
