
#######################################################################
#
#                 Cambridge Crystallographic Data Centre
#                                CCDC 
#
#######################################################################
#
# If this CIF has been generated from an entry in the Cambridge 
# Structural Database, then it will include bibliographic, chemical, 
# crystal, experimental, refinement or atomic coordinate data resulting 
# from the CCDC's data processing and validation procedures.
#
#######################################################################

data_PASSIO
_chemical_formula_moiety         'C86 H56 N4'
_chemical_name_systematic        
3,3',3'',3'''-(ethene-1,1,2,2-tetrayltetrabiphenyl-4',4-diyl)tetrakis(2-phenylacrylonitrile)
_symmetry_cell_setting           triclinic
_symmetry_space_group_name_H-M   'P -1'
_symmetry_Int_Tables_number      2
_space_group_name_Hall           '-P 1'
loop_
_symmetry_equiv_pos_site_id
_symmetry_equiv_pos_as_xyz
1 x,y,z
2 -x,-y,-z
_cell_length_a                   14.514(5)
_cell_length_b                   16.791(6)
_cell_length_c                   18.292(6)
_cell_angle_alpha                108.446(19)
_cell_angle_beta                 96.255(20)
_cell_angle_gamma                115.336(17)
_cell_volume                     3663.55
_exptl_crystal_colour            yellow
_exptl_crystal_description       needle
_cell_formula_units_Z            2
loop_
_atom_site_label
_atom_site_type_symbol
_atom_site_fract_x
_atom_site_fract_y
_atom_site_fract_z
C1 C 0.6266(2) 0.4260(2) 0.46263(17)
C2 C 0.6621(2) 0.4373(2) 0.54738(17)
C3 C 0.7082(2) 0.5237(2) 0.61317(19)
H1 H 0.7195 0.5789 0.6054
C4 C 0.7382(2) 0.5314(2) 0.69029(19)
H2 H 0.7695 0.5913 0.7331
C5 C 0.7224(2) 0.4509(2) 0.70484(18)
C6 C 0.6747(3) 0.3642(2) 0.63955(19)
H3 H 0.6627 0.3089 0.6474
C7 C 0.6444(3) 0.3570(2) 0.5629(2)
H4 H 0.6111 0.2968 0.5203
C8 C 0.7584(2) 0.4592(2) 0.78796(19)
C9 C 0.7678(3) 0.5332(3) 0.8548(2)
H5 H 0.7484 0.5771 0.8481
C10 C 0.8059(3) 0.5428(3) 0.9318(2)
H6 H 0.8128 0.5942 0.9755
C11 C 0.8340(2) 0.4784(2) 0.94587(19)
C12 C 0.8258(3) 0.4063(3) 0.8784(2)
H7 H 0.8458 0.3627 0.8850
C13 C 0.7894(3) 0.3963(2) 0.8016(2)
H8 H 0.7855 0.3465 0.7580
C14 C 0.8735(2) 0.4960(3) 1.02919(19)
H9 H 0.8969 0.5586 1.0656
C15 C 0.8822(2) 0.4385(3) 1.0630(2)
C16 C 0.9238(2) 0.4681(3) 1.1501(2)
C17 C 0.9442(3) 0.5558(3) 1.2049(2)
H10 H 0.9301 0.5966 1.1871
C18 C 0.9853(3) 0.5841(3) 1.2865(2)
H11 H 0.9967 0.6429 1.3228
C19 C 1.0091(3) 0.5268(4) 1.3137(3)
H12 H 1.0398 0.5475 1.3682
C20 C 0.9878(3) 0.4388(4) 1.2607(3)
H13 H 1.0021 0.3984 1.2791
C21 C 0.9447(3) 0.4094(3) 1.1789(2)
H14 H 0.9298 0.3489 1.1432
C22 C 0.8482(4) 0.3402(4) 1.0140(3)
N1 N 0.8206(6) 0.2603(4) 0.9764(3)
C23 C 0.5120(2) 0.3534(2) 0.42317(17)
C24 C 0.4389(2) 0.3618(2) 0.46232(18)
H15 H 0.4630 0.4119 0.5126
C25 C 0.3319(2) 0.2991(2) 0.42993(19)
H16 H 0.2852 0.3081 0.4582
C26 C 0.2923(2) 0.2224(2) 0.35574(18)
C27 C 0.3659(2) 0.2109(2) 0.31696(19)
H17 H 0.3424 0.1588 0.2680
C28 C 0.4734(2) 0.2756(2) 0.34997(19)
H18 H 0.5208 0.2667 0.3225
C29 C 0.1755(2) 0.1573(2) 0.32060(19)
C30 C 0.1323(3) 0.0608(2) 0.2713(2)
H19 H 0.1771 0.0355 0.2585
C31 C 0.0243(3) 0.0020(3) 0.2409(2)
H20 H -0.0028 -0.0622 0.2066
C32 C -0.0450(3) 0.0360(3) 0.2602(2)
C33 C -0.0022(3) 0.1319(3) 0.3088(2)
H21 H -0.0472 0.1569 0.3217
C34 C 0.1059(3) 0.1914(3) 0.3386(2)
H22 H 0.1328 0.2560 0.3716
C35 C -0.1606(3) -0.0269(3) 0.2283(3)
H23 H -0.1876 -0.0665 0.1737
C36 C -0.2274(3) -0.0319(3) 0.2691(3)
C37 C -0.3487(3) -0.0860(3) 0.2369(3)
C38 C -0.4109(4) -0.1137(3) 0.2814(3)
H24 H -0.3810 -0.0967 0.3353
C39 C -0.5173(3) -0.1665(3) 0.2498(3)
H25 H -0.5588 -0.1862 0.2826
C40 C -0.5661(3) -0.1919(3) 0.1729(3)
H26 H -0.6398 -0.2291 0.1531
C41 C -0.5067(4) -0.1628(3) 0.1243(3)
H27 H -0.5384 -0.1783 0.0712
C42 C -0.3934(4) -0.1075(3) 0.1582(3)
H28 H -0.3501 -0.0862 0.1269
C43 C -0.1891(3) 0.0113(3) 0.3559(3)
N2 N -0.1561(4) 0.0434(3) 0.4271(3)
C44 C 0.6895(2) 0.4755(2) 0.42632(17)
C45 C 0.8063(2) 0.5450(2) 0.46384(17)
C46 C 0.8524(2) 0.6296(2) 0.45230(17)
H29 H 0.8100 0.6439 0.4227
C47 C 0.9603(2) 0.6931(2) 0.48410(17)
H30 H 0.9891 0.7494 0.4754
C48 C 1.0268(2) 0.6750(2) 0.52876(17)
C49 C 0.9799(2) 0.5914(2) 0.54141(18)
H31 H 1.0220 0.5783 0.5725
C50 C 0.8727(2) 0.5270(2) 0.50935(18)
H32 H 0.8442 0.4708 0.5181
C51 C 1.1439(2) 0.7397(2) 0.55864(19)
C52 C 1.1985(3) 0.7852(2) 0.5131(2)
H33 H 1.1607 0.7753 0.4637
C53 C 1.3071(3) 0.8446(3) 0.5392(2)
H34 H 1.3412 0.8732 0.5069
C54 C 1.3659(2) 0.8621(2) 0.6125(2)
C55 C 1.3127(3) 0.8175(3) 0.6581(2)
H35 H 1.3508 0.8284 0.7078
C56 C 1.2038(3) 0.7569(3) 0.6317(2)
H36 H 1.1702 0.7273 0.6636
C57 C 1.4822(3) 0.9265(2) 0.6451(2)
H37 H 1.5084 0.9514 0.7007
C58 C 1.5556(3) 0.9544(2) 0.6065(2)
C59 C 1.6701(3) 1.0256(2) 0.6480(2)
C60 C 1.7421(3) 1.0414(3) 0.6037(3)
H38 H 1.7184 1.0065 0.5483
C61 C 1.8487(3) 1.1079(3) 0.6400(3)
H39 H 1.8961 1.1165 0.6091
C62 C 1.8845(3) 1.1608(3) 0.7208(3)
H40 H 1.9560 1.2064 0.7450
C63 C 1.8153(3) 1.1466(3) 0.7661(3)
H41 H 1.8398 1.1828 0.8213
C64 C 1.7067(3) 1.0777(3) 0.7300(2)
H42 H 1.6601 1.0674 0.7614
C65 C 1.5270(3) 0.9164(3) 0.5207(3)
N3 N 1.5082(3) 0.8862(3) 0.4521(2)
C66 C 0.6483(2) 0.4644(2) 0.34248(17)
C67 C 0.6984(2) 0.4439(2) 0.28531(19)
H43 H 0.7596 0.4405 0.3000
C68 C 0.6604(2) 0.4284(3) 0.2071(2)
H44 H 0.6957 0.4135 0.1699
C69 C 0.5701(2) 0.4345(2) 0.18204(18)
C70 C 0.5214(2) 0.4573(2) 0.24043(19)
H45 H 0.4617 0.4631 0.2265
C71 C 0.5595(2) 0.4718(2) 0.31923(18)
H46 H 0.5247 0.4867 0.3568
C72 C 0.5243(2) 0.4120(2) 0.09643(18)
C73 C 0.5877(3) 0.4315(2) 0.04630(19)
H47 H 0.6612 0.4644 0.0674
C74 C 0.5439(3) 0.4032(3) -0.0348(2)
H48 H 0.5887 0.4165 -0.0670
C75 C 0.4355(2) 0.3557(2) -0.06869(18)
C76 C 0.3724(3) 0.3371(3) -0.0180(2)
H49 H 0.2988 0.3058 -0.0388
C77 C 0.4150(2) 0.3634(3) 0.06146(19)
H50 H 0.3698 0.3485 0.0932
C78 C 0.3950(3) 0.3231(2) -0.15528(19)
H51 H 0.4449 0.3225 -0.1830
C79 C 0.2996(3) 0.2938(2) -0.20251(19)
C80 C 0.2679(3) 0.2543(2) -0.2922(2)
C81 C 0.3438(3) 0.2679(3) -0.3334(2)
H52 H 0.4156 0.3066 -0.3054
C82 C 0.3122(4) 0.2232(3) -0.4171(3)
H53 H 0.3633 0.2324 -0.4448
C83 C 0.2069(5) 0.1659(3) -0.4585(3)
H54 H 0.1869 0.1359 -0.5143
C84 C 0.1306(4) 0.1523(3) -0.4190(2)
H55 H 0.0588 0.1139 -0.4472
C85 C 0.1628(3) 0.1971(3) -0.3362(2)
H56 H 0.1111 0.1881 -0.3090
C86 C 0.2169(3) 0.2965(3) -0.1676(2)
N4 N 0.1487(3) 0.2978(3) -0.14227(19)
loop_
_geom_bond_atom_site_label_1
_geom_bond_atom_site_label_2
_geom_bond_site_symmetry_1
_geom_bond_site_symmetry_2
C1 C2 1_555 1_555
C2 C3 1_555 1_555
C3 H1 1_555 1_555
C4 C3 1_555 1_555
H2 C4 1_555 1_555
C5 C4 1_555 1_555
C6 C5 1_555 1_555
H3 C6 1_555 1_555
C7 C2 1_555 1_555
H4 C7 1_555 1_555
C8 C5 1_555 1_555
C9 C8 1_555 1_555
H5 C9 1_555 1_555
C10 C9 1_555 1_555
H6 C10 1_555 1_555
C11 C10 1_555 1_555
C12 C11 1_555 1_555
H7 C12 1_555 1_555
C13 C8 1_555 1_555
H8 C13 1_555 1_555
C14 C11 1_555 1_555
H9 C14 1_555 1_555
C15 C14 1_555 1_555
C16 C15 1_555 1_555
C17 C16 1_555 1_555
H10 C17 1_555 1_555
C18 C17 1_555 1_555
H11 C18 1_555 1_555
C19 C18 1_555 1_555
H12 C19 1_555 1_555
C20 C19 1_555 1_555
H13 C20 1_555 1_555
C21 C16 1_555 1_555
H14 C21 1_555 1_555
C22 C15 1_555 1_555
N1 C22 1_555 1_555
C23 C1 1_555 1_555
C24 C23 1_555 1_555
H15 C24 1_555 1_555
C25 C24 1_555 1_555
H16 C25 1_555 1_555
C26 C25 1_555 1_555
C27 C26 1_555 1_555
H17 C27 1_555 1_555
C28 C23 1_555 1_555
H18 C28 1_555 1_555
C29 C26 1_555 1_555
C30 C29 1_555 1_555
H19 C30 1_555 1_555
C31 C30 1_555 1_555
H20 C31 1_555 1_555
C32 C31 1_555 1_555
C33 C32 1_555 1_555
H21 C33 1_555 1_555
C34 C29 1_555 1_555
H22 C34 1_555 1_555
C35 C32 1_555 1_555
H23 C35 1_555 1_555
C36 C35 1_555 1_555
C37 C36 1_555 1_555
C38 C37 1_555 1_555
H24 C38 1_555 1_555
C39 C38 1_555 1_555
H25 C39 1_555 1_555
C40 C39 1_555 1_555
H26 C40 1_555 1_555
C41 C40 1_555 1_555
H27 C41 1_555 1_555
C42 C37 1_555 1_555
H28 C42 1_555 1_555
C43 C36 1_555 1_555
N2 C43 1_555 1_555
C44 C1 1_555 1_555
C45 C44 1_555 1_555
C46 C45 1_555 1_555
H29 C46 1_555 1_555
C47 C46 1_555 1_555
H30 C47 1_555 1_555
C48 C47 1_555 1_555
C49 C48 1_555 1_555
H31 C49 1_555 1_555
C50 C45 1_555 1_555
H32 C50 1_555 1_555
C51 C48 1_555 1_555
C52 C51 1_555 1_555
H33 C52 1_555 1_555
C53 C52 1_555 1_555
H34 C53 1_555 1_555
C54 C53 1_555 1_555
C55 C54 1_555 1_555
H35 C55 1_555 1_555
C56 C51 1_555 1_555
H36 C56 1_555 1_555
C57 C54 1_555 1_555
H37 C57 1_555 1_555
C58 C57 1_555 1_555
C59 C58 1_555 1_555
C60 C59 1_555 1_555
H38 C60 1_555 1_555
C61 C60 1_555 1_555
H39 C61 1_555 1_555
C62 C61 1_555 1_555
H40 C62 1_555 1_555
C63 C62 1_555 1_555
H41 C63 1_555 1_555
C64 C59 1_555 1_555
H42 C64 1_555 1_555
C65 C58 1_555 1_555
N3 C65 1_555 1_555
C66 C44 1_555 1_555
C67 C66 1_555 1_555
H43 C67 1_555 1_555
C68 C67 1_555 1_555
H44 C68 1_555 1_555
C69 C68 1_555 1_555
C70 C69 1_555 1_555
H45 C70 1_555 1_555
C71 C66 1_555 1_555
H46 C71 1_555 1_555
C72 C69 1_555 1_555
C73 C72 1_555 1_555
H47 C73 1_555 1_555
C74 C73 1_555 1_555
H48 C74 1_555 1_555
C75 C74 1_555 1_555
C76 C75 1_555 1_555
H49 C76 1_555 1_555
C77 C72 1_555 1_555
H50 C77 1_555 1_555
C78 C75 1_555 1_555
H51 C78 1_555 1_555
C79 C78 1_555 1_555
C80 C79 1_555 1_555
C81 C80 1_555 1_555
H52 C81 1_555 1_555
C82 C81 1_555 1_555
H53 C82 1_555 1_555
C83 C82 1_555 1_555
H54 C83 1_555 1_555
C84 C83 1_555 1_555
H55 C84 1_555 1_555
C85 C80 1_555 1_555
H56 C85 1_555 1_555
C86 C79 1_555 1_555
N4 C86 1_555 1_555
C6 C7 1_555 1_555
C12 C13 1_555 1_555
C20 C21 1_555 1_555
C27 C28 1_555 1_555
C33 C34 1_555 1_555
C41 C42 1_555 1_555
C49 C50 1_555 1_555
C55 C56 1_555 1_555
C63 C64 1_555 1_555
C70 C71 1_555 1_555
C76 C77 1_555 1_555
C84 C85 1_555 1_555

#END
