
#######################################################################
#
#                 Cambridge Crystallographic Data Centre
#                                CCDC 
#
#######################################################################
#
# If this CIF has been generated from an entry in the Cambridge 
# Structural Database, then it will include bibliographic, chemical, 
# crystal, experimental, refinement or atomic coordinate data resulting 
# from the CCDC's data processing and validation procedures.
#
#######################################################################

data_PASSEK
_chemical_formula_moiety         'C16 H12 N6 S1'
_chemical_name_systematic        
N,N'-bis(pyridin-4-yl)-2,1,3-benzothiadiazole-4,7-diamine
_symmetry_cell_setting           monoclinic
_symmetry_space_group_name_H-M   'C 2/c'
_symmetry_Int_Tables_number      15
_space_group_name_Hall           '-C 2yn'
loop_
_symmetry_equiv_pos_site_id
_symmetry_equiv_pos_as_xyz
1 x,y,z
2 -x,y,1/2-z
3 1/2+x,1/2+y,z
4 1/2-x,1/2+y,1/2-z
5 -x,-y,-z
6 x,-y,1/2+z
7 1/2-x,1/2-y,-z
8 1/2+x,1/2-y,1/2+z
_cell_length_a                   38.380(8)
_cell_length_b                   3.9269(8)
_cell_length_c                   28.039(6)
_cell_angle_alpha                90
_cell_angle_beta                 124.83(3)
_cell_angle_gamma                90
_cell_volume                     3468.82
_exptl_crystal_colour            rufous
_exptl_crystal_description       block
_cell_formula_units_Z            8
loop_
_atom_site_label
_atom_site_type_symbol
_atom_site_fract_x
_atom_site_fract_y
_atom_site_fract_z
C1 C 0.14931(6) 0.9525(5) 0.56095(8)
C2 C 0.14786(6) 1.0314(5) 0.51005(8)
C3 C 0.11165(6) 0.9390(5) 0.45389(8)
C4 C 0.07968(7) 0.7744(5) 0.45240(9)
H1 H 0.0556 0.7119 0.4165
C5 C 0.08136(6) 0.6942(5) 0.50294(9)
H2 H 0.0586 0.5798 0.4989
C6 C 0.11520(6) 0.7789(5) 0.55742(9)
C7 C 0.08894(6) 0.6725(5) 0.61913(8)
C8 C 0.09880(7) 0.5244(6) 0.67070(8)
H3 H 0.1256 0.4329 0.6969
C9 C 0.06883(7) 0.5144(6) 0.68253(9)
H4 H 0.0763 0.4128 0.7171
C10 C 0.02032(7) 0.7789(6) 0.59839(10)
H5 H -0.0068 0.8687 0.5732
C11 C 0.04771(7) 0.7992(5) 0.58173(9)
H6 H 0.0390 0.8954 0.5462
C12 C 0.13459(6) 0.9676(5) 0.38703(8)
C13 C 0.17284(7) 0.7946(5) 0.42163(9)
H7 H 0.1814 0.7106 0.4578
C14 C 0.19780(8) 0.7499(6) 0.40150(11)
H8 H 0.2235 0.6367 0.4256
C15 C 0.15109(8) 1.0162(7) 0.31712(10)
H9 H 0.1433 1.0930 0.2809
C16 C 0.12368(7) 1.0764(6) 0.33253(9)
H10 H 0.0981 1.1882 0.3071
N1 N 0.18261(6) 1.1994(5) 0.52223(8)
N2 N 0.18484(5) 1.0594(5) 0.61043(7)
N3 N 0.11999(5) 0.6979(5) 0.60937(7)
H11 H 0.1455 0.6592 0.6388
N4 N 0.10689(6) 1.0337(5) 0.40196(7)
H12 H 0.0842 1.1446 0.3770
N5 N 0.18812(7) 0.8561(6) 0.35003(9)
N6 N 0.02946(6) 0.6411(6) 0.64770(9)
S1 S 0.213019(16) 1.24018(15) 0.59191(2)
loop_
_geom_bond_atom_site_label_1
_geom_bond_atom_site_label_2
_geom_bond_site_symmetry_1
_geom_bond_site_symmetry_2
C1 C2 1_555 1_555
C2 C3 1_555 1_555
C3 C4 1_555 1_555
C4 H1 1_555 1_555
C5 C4 1_555 1_555
H2 C5 1_555 1_555
C6 C1 1_555 1_555
C7 C8 1_555 1_555
C8 H3 1_555 1_555
C9 C8 1_555 1_555
H4 C9 1_555 1_555
C10 H5 1_555 1_555
C11 C7 1_555 1_555
H6 C11 1_555 1_555
C12 C13 1_555 1_555
C13 H7 1_555 1_555
C14 C13 1_555 1_555
H8 C14 1_555 1_555
C15 H9 1_555 1_555
C16 C12 1_555 1_555
H10 C16 1_555 1_555
N1 C2 1_555 1_555
N2 C1 1_555 1_555
N3 C6 1_555 1_555
H11 N3 1_555 1_555
N4 C3 1_555 1_555
H12 N4 1_555 1_555
N5 C14 1_555 1_555
N6 C9 1_555 1_555
S1 N1 1_555 1_555
C5 C6 1_555 1_555
C7 N3 1_555 1_555
C10 C11 1_555 1_555
C10 N6 1_555 1_555
C12 N4 1_555 1_555
C15 C16 1_555 1_555
C15 N5 1_555 1_555
N2 S1 1_555 1_555

#END
