
#######################################################################
#
#                 Cambridge Crystallographic Data Centre
#                                CCDC 
#
#######################################################################
#
# If this CIF has been generated from an entry in the Cambridge 
# Structural Database, then it will include bibliographic, chemical, 
# crystal, experimental, refinement or atomic coordinate data resulting 
# from the CCDC's data processing and validation procedures.
#
#######################################################################

data_PASYIT
_chemical_formula_moiety         'C19 H23 N1 O5 S2'
_chemical_name_systematic        
'Ethyl (5-(2-furyl)-4-(((4-methylphenyl)sulfonyl)amino)tetrahydrothiophen-3-yl)acetate'
_symmetry_cell_setting           orthorhombic
_symmetry_space_group_name_H-M   'P 21 21 21'
_symmetry_Int_Tables_number      19
_space_group_name_Hall           'P 2ac 2ab'
loop_
_symmetry_equiv_pos_site_id
_symmetry_equiv_pos_as_xyz
1 x,y,z
2 1/2-x,-y,1/2+z
3 -x,1/2+y,1/2-z
4 1/2+x,1/2-y,-z
_cell_length_a                   5.9976(3)
_cell_length_b                   15.2615(9)
_cell_length_c                   21.8521(14)
_cell_angle_alpha                90
_cell_angle_beta                 90
_cell_angle_gamma                90
_cell_volume                     2000.17
_exptl_crystal_colour            colorless
_exptl_crystal_description       prism
_cell_formula_units_Z            4
loop_
_atom_site_label
_atom_site_type_symbol
_atom_site_fract_x
_atom_site_fract_y
_atom_site_fract_z
S1 S 0.15806(7) 0.54949(3) 0.20302(2)
S2 S 0.57240(5) 0.79868(2) 0.076367(17)
N1 N 0.4279(2) 0.71060(8) 0.08016(6)
H1 H 0.333(3) 0.7030(13) 0.0551(8)
O1 O 0.3882(2) 0.71922(7) 0.26004(6)
O2 O 0.5960(2) 0.81671(8) 0.01202(6)
O3 O 0.76657(18) 0.78706(8) 0.11361(7)
O4 O 0.5880(3) 0.39679(10) 0.05093(9)
C1 C 0.2075(2) 0.65882(9) 0.17008(7)
H2 H 0.0827 0.6731 0.1422
C2 C 0.4230(2) 0.65110(8) 0.13204(6)
H3 H 0.5511 0.6649 0.1589
C3 C 0.4479(2) 0.55592(9) 0.10939(7)
H4 H 0.3404 0.5450 0.0759
C4 C 0.3893(3) 0.49849(10) 0.16395(8)
H5 H 0.5175 0.4935 0.1915
H6 H 0.3477 0.4396 0.1501
C5 C 0.2175(3) 0.72666(9) 0.21882(7)
C6 C 0.0875(3) 0.79511(10) 0.23332(8)
H7 H -0.0401 0.8142 0.2122
C7 C 0.1811(4) 0.83319(11) 0.28717(9)
H8 H 0.1274 0.8824 0.3084
C8 C 0.3575(4) 0.78581(12) 0.30131(9)
H9 H 0.4501 0.7963 0.3352
C9 C 0.4184(2) 0.88693(9) 0.10569(6)
C10 C 0.2096(3) 0.90424(11) 0.08125(8)
H10 H 0.1441 0.8647 0.0536
C11 C 0.0988(3) 0.97972(12) 0.09775(9)
H11 H -0.0420 0.9917 0.0808
C12 C 0.1919(4) 1.03836(11) 0.13911(8)
C13 C 0.3967(4) 1.01828(11) 0.16470(9)
H12 H 0.4592 1.0566 0.1937
C14 C 0.5121(3) 0.94282(11) 0.14847(7)
H13 H 0.6511 0.9300 0.1662
C15 C 0.0756(5) 1.12359(14) 0.15363(12)
H14 H 0.0828 1.1620 0.1183
H15 H 0.1483 1.1515 0.1882
H16 H -0.0792 1.1120 0.1637
C16 C 0.6847(3) 0.54104(10) 0.08598(8)
H17 H 0.7161 0.5838 0.0537
H18 H 0.7896 0.5519 0.1195
C17 C 0.7253(3) 0.45073(13) 0.06122(10)
O5 O 0.9489(4) 0.43363(19) 0.0612(2)
C18 C 1.0214(6) 0.3497(3) 0.0395(2)
H19 H 0.9155 0.3048 0.0532
H20 H 1.1669 0.3360 0.0576
C19 C 1.0399(11) 0.3461(3) -0.0272(2)
H21 H 1.0899 0.2883 -0.0395
H22 H 1.1467 0.3896 -0.0409
H23 H 0.8956 0.3581 -0.0454
C20? C 0.9919(15) 0.3710(5) -0.0023(4)
C21? C 1.0600(14) 0.3062(8) 0.0423(4)
H24? H 0.8640 0.3492 -0.0257
H25? H 1.1143 0.3825 -0.0309
H26? H 1.0947 0.2516 0.0215
H27? H 0.9399 0.2965 0.0712
H28? H 1.1910 0.3269 0.0639
O6? O 0.9302(9) 0.4530(4) 0.0302(4)
loop_
_geom_bond_atom_site_label_1
_geom_bond_atom_site_label_2
_geom_bond_site_symmetry_1
_geom_bond_site_symmetry_2
S1 C1 1_555 1_555
S2 N1 1_555 1_555
N1 H1 1_555 1_555
O1 C5 1_555 1_555
O2 S2 1_555 1_555
O3 S2 1_555 1_555
O4 C17 1_555 1_555
C1 H2 1_555 1_555
C2 N1 1_555 1_555
H3 C2 1_555 1_555
C3 C2 1_555 1_555
H4 C3 1_555 1_555
C4 S1 1_555 1_555
H5 C4 1_555 1_555
H6 C4 1_555 1_555
C5 C1 1_555 1_555
C6 C5 1_555 1_555
H7 C6 1_555 1_555
C7 C6 1_555 1_555
H8 C7 1_555 1_555
C8 O1 1_555 1_555
H9 C8 1_555 1_555
C9 S2 1_555 1_555
C10 C9 1_555 1_555
H10 C10 1_555 1_555
C11 C10 1_555 1_555
H11 C11 1_555 1_555
C12 C11 1_555 1_555
C13 C12 1_555 1_555
H12 C13 1_555 1_555
C14 C9 1_555 1_555
H13 C14 1_555 1_555
C15 C12 1_555 1_555
H14 C15 1_555 1_555
H15 C15 1_555 1_555
H16 C15 1_555 1_555
C16 C3 1_555 1_555
H17 C16 1_555 1_555
H18 C16 1_555 1_555
C17 C16 1_555 1_555
O5 C17 1_555 1_555
C18 O5 1_555 1_555
H19 C18 1_555 1_555
H20 C18 1_555 1_555
C19 C18 1_555 1_555
H21 C19 1_555 1_555
H22 C19 1_555 1_555
H23 C19 1_555 1_555
C1 C2 1_555 1_555
C3 C4 1_555 1_555
C7 C8 1_555 1_555
C13 C14 1_555 1_555

#END
