
#######################################################################
#
#                 Cambridge Crystallographic Data Centre
#                                CCDC 
#
#######################################################################
#
# If this CIF has been generated from an entry in the Cambridge 
# Structural Database, then it will include bibliographic, chemical, 
# crystal, experimental, refinement or atomic coordinate data resulting 
# from the CCDC's data processing and validation procedures.
#
#######################################################################

data_PASZOZ
_chemical_formula_moiety         'C6 H16 N1 1+,C14 H14 O2 P1 S2 1-'
_chemical_name_systematic        
"Triethylammonium O,O'-bis(o-tolyl)dithiophosphate"
_symmetry_cell_setting           monoclinic
_symmetry_space_group_name_H-M   'P 21/c'
_symmetry_Int_Tables_number      14
_space_group_name_Hall           '-P 2ybc'
loop_
_symmetry_equiv_pos_site_id
_symmetry_equiv_pos_as_xyz
1 x,y,z
2 -x,1/2+y,1/2-z
3 -x,-y,-z
4 x,1/2-y,1/2+z
_cell_length_a                   15.4342(6)
_cell_length_b                   10.1913(4)
_cell_length_c                   14.0729(6)
_cell_angle_alpha                90
_cell_angle_beta                 100.8550(10)
_cell_angle_gamma                90
_cell_volume                     2173.98
_exptl_crystal_colour            colorless
_exptl_crystal_description       block
_chemical_melting_point          56-58deg.C
_cell_formula_units_Z            4
loop_
_atom_site_label
_atom_site_type_symbol
_atom_site_fract_x
_atom_site_fract_y
_atom_site_fract_z
S1 S 0.26553(5) 0.24756(8) 0.29583(4)
S2 S 0.26254(4) 0.57791(7) 0.28316(4)
P1 P 0.25709(4) 0.40700(7) 0.21748(4)
O1 O 0.17155(9) 0.40291(15) 0.12941(10)
O2 O 0.33157(11) 0.3939(2) 0.15151(11)
C1 C 0.08580(14) 0.4191(2) 0.14736(14)
C2 C 0.04306(15) 0.5379(2) 0.12344(14)
C3 C -0.04253(16) 0.5491(3) 0.14029(16)
H1 H -0.0734 0.6293 0.1254
C4 C -0.08395(16) 0.4465(3) 0.17817(17)
H2 H -0.1420 0.4575 0.1904
C5 C -0.04106(16) 0.3286(3) 0.19811(17)
H3 H -0.0701 0.2571 0.2222
C6 C 0.04471(16) 0.3143(2) 0.18299(15)
H4 H 0.0749 0.2333 0.1970
C7 C 0.08537(17) 0.6486(2) 0.07876(16)
H5 H 0.1480 0.6536 0.1084
H6 H 0.0563 0.7312 0.0895
H7 H 0.0794 0.6332 0.0091
C8 C 0.35465(16) 0.4920(3) 0.09130(16)
C9 C 0.43441(17) 0.5566(4) 0.12062(18)
C10 C 0.46064(18) 0.6425(4) 0.0555(2)
H8 H 0.5151 0.6876 0.0735
C11 C 0.41008(19) 0.6648(3) -0.0348(2)
H9 H 0.4298 0.7243 -0.0781
C12 C 0.33114(18) 0.6004(3) -0.06159(18)
H10 H 0.2959 0.6160 -0.1235
C13 C 0.30275(16) 0.5131(3) 0.00106(16)
H11 H 0.2483 0.4681 -0.0175
C14 C 0.4912(2) 0.5305(5) 0.2184(2)
H12 H 0.5455 0.5826 0.2253
H13 H 0.5063 0.4370 0.2241
H14 H 0.4589 0.5549 0.2694
N1 N 0.2301(4) 0.4483(6) 0.4874(4)
H15 H 0.2424 0.4573 0.4255
C15 C 0.2535(15) 0.584(3) 0.5408(19)
H16 H 0.3162 0.6045 0.5412
H17 H 0.2174 0.6538 0.5038
C16 C 0.2389(9) 0.5851(14) 0.6381(11)
H18 H 0.1767 0.5656 0.6384
H19 H 0.2536 0.6719 0.6666
H20 H 0.2762 0.5187 0.6761
C17 C 0.1358(5) 0.4094(10) 0.4756(7)
H21 H 0.1201 0.4024 0.5405
H22 H 0.1283 0.3215 0.4453
C18 C 0.0728(4) 0.5039(7) 0.4150(4)
H23 H 0.0707 0.5860 0.4507
H24 H 0.0137 0.4649 0.4006
H25 H 0.0930 0.5219 0.3544
C19 C 0.2877(3) 0.3405(5) 0.5359(3)
H26 H 0.2794 0.3322 0.6037
H27 H 0.2696 0.2565 0.5025
C20 C 0.3826(5) 0.3646(8) 0.5349(6)
H28 H 0.3909 0.3747 0.4680
H29 H 0.4177 0.2902 0.5649
H30 H 0.4017 0.4449 0.5713
N2? N 0.2655(4) 0.4748(6) 0.4994(4)
H31? H 0.2625 0.4806 0.4329
C21? C 0.2579(17) 0.607(3) 0.5317(18)
H32? H 0.1986 0.6417 0.5038
H33? H 0.3023 0.6630 0.5090
C22? C 0.2728(7) 0.6122(15) 0.6485(10)
H34? H 0.2251 0.5645 0.6705
H35? H 0.2728 0.7038 0.6698
H36? H 0.3295 0.5715 0.6760
C23? C 0.1899(5) 0.3887(6) 0.5125(4)
H37? H 0.1991 0.2997 0.4881
H38? H 0.1887 0.3814 0.5824
C24? C 0.1028(6) 0.4403(11) 0.4608(9)
H39? H 0.0901 0.5238 0.4899
H40? H 0.0563 0.3768 0.4664
H41? H 0.1050 0.4539 0.3924
C25? C 0.3512(5) 0.4052(7) 0.5382(5)
H42? H 0.3574 0.3945 0.6091
H43? H 0.3498 0.3166 0.5090
C26? C 0.4295(3) 0.4788(6) 0.5168(4)
H44? H 0.4209 0.4971 0.4473
H45? H 0.4828 0.4257 0.5363
H46? H 0.4359 0.5616 0.5528
loop_
_geom_bond_atom_site_label_1
_geom_bond_atom_site_label_2
_geom_bond_site_symmetry_1
_geom_bond_site_symmetry_2
S1 P1 1_555 1_555
S2 P1 1_555 1_555
P1 O1 1_555 1_555
O1 C1 1_555 1_555
O2 P1 1_555 1_555
C1 C2 1_555 1_555
C2 C3 1_555 1_555
C3 H1 1_555 1_555
C4 C3 1_555 1_555
H2 C4 1_555 1_555
C5 C4 1_555 1_555
H3 C5 1_555 1_555
C6 C1 1_555 1_555
H4 C6 1_555 1_555
C7 C2 1_555 1_555
H5 C7 1_555 1_555
H6 C7 1_555 1_555
H7 C7 1_555 1_555
C8 O2 1_555 1_555
C9 C8 1_555 1_555
C10 C9 1_555 1_555
H8 C10 1_555 1_555
C11 C10 1_555 1_555
H9 C11 1_555 1_555
C12 C11 1_555 1_555
H10 C12 1_555 1_555
C13 C8 1_555 1_555
H11 C13 1_555 1_555
C14 C9 1_555 1_555
H12 C14 1_555 1_555
H13 C14 1_555 1_555
H14 C14 1_555 1_555
N1 H15 1_555 1_555
C15 N1 1_555 1_555
H16 C15 1_555 1_555
H17 C15 1_555 1_555
C16 C15 1_555 1_555
H18 C16 1_555 1_555
H19 C16 1_555 1_555
H20 C16 1_555 1_555
C17 N1 1_555 1_555
H21 C17 1_555 1_555
H22 C17 1_555 1_555
C18 C17 1_555 1_555
H23 C18 1_555 1_555
H24 C18 1_555 1_555
H25 C18 1_555 1_555
C19 N1 1_555 1_555
H26 C19 1_555 1_555
H27 C19 1_555 1_555
C20 C19 1_555 1_555
H28 C20 1_555 1_555
H29 C20 1_555 1_555
H30 C20 1_555 1_555
C5 C6 1_555 1_555
C12 C13 1_555 1_555

#END
