
#######################################################################
#
#                 Cambridge Crystallographic Data Centre
#                                CCDC 
#
#######################################################################
#
# If this CIF has been generated from an entry in the Cambridge 
# Structural Database, then it will include bibliographic, chemical, 
# crystal, experimental, refinement or atomic coordinate data resulting 
# from the CCDC's data processing and validation procedures.
#
#######################################################################

data_PATFEX
_chemical_formula_moiety         'C30 H22 O7 S4'
_chemical_name_systematic        
26,27,28-Trihydroxy-25-n-propoxy-2,8,14,20-tetrathiacalix(4)arene-5,11,17-tricarbaldehyde
_symmetry_cell_setting           rhombohedral
_symmetry_space_group_name_H-M   'R -3'
_symmetry_Int_Tables_number      148
_space_group_name_Hall           '-R 3'
loop_
_symmetry_equiv_pos_site_id
_symmetry_equiv_pos_as_xyz
1 x,y,z
2 -y,x-y,z
3 -x+y,-x,z
4 2/3+x,1/3+y,1/3+z
5 2/3-y,1/3+x-y,1/3+z
6 2/3-x+y,1/3-x,1/3+z
7 1/3+x,2/3+y,2/3+z
8 1/3-y,2/3+x-y,2/3+z
9 1/3-x+y,2/3-x,2/3+z
10 -x,-y,-z
11 y,-x+y,-z
12 x-y,x,-z
13 1/3-x,2/3-y,2/3-z
14 1/3+y,2/3-x+y,2/3-z
15 1/3+x-y,2/3+x,2/3-z
16 2/3-x,1/3-y,1/3-z
17 2/3+y,1/3-x+y,1/3-z
18 2/3+x-y,1/3+x,1/3-z
_cell_length_a                   37.589(3)
_cell_length_b                   37.589(3)
_cell_length_c                   10.6810(16)
_cell_angle_alpha                90
_cell_angle_beta                 90
_cell_angle_gamma                120
_cell_volume                     13069.7
_exptl_crystal_colour            colorless
_exptl_crystal_description       plate
_cell_formula_units_Z            18
loop_
_atom_site_label
_atom_site_type_symbol
_atom_site_fract_x
_atom_site_fract_y
_atom_site_fract_z
S1 S 0.77851(3) 0.99933(2) 0.67723(7)
O1 O 0.78875(6) 0.94118(6) 0.84180(17)
H1 H 0.7883 0.9226 0.8834
O2 O 0.66075(10) 1.00124(10) 0.9711(3)
O3 O 0.81535(8) 0.94891(9) 0.5816(2)
H2 H 0.8196 0.9633 0.6437
O4 O 0.64619(9) 0.87353(9) 0.2939(2)
C1 C 0.76099(9) 0.95040(8) 0.8874(2)
C2 C 0.75150(9) 0.97633(7) 0.8175(2)
C3 C 0.72234(9) 0.98548(8) 0.8618(3)
H3 H 0.7165 1.0030 0.8159
C4 C 0.70154(10) 0.96886(10) 0.9742(3)
C5 C 0.71092(12) 0.94391(13) 1.0422(3)
H4 H 0.6973 0.9329 1.1173
C6 C 0.74046(10) 0.93454(10) 1.0015(2)
C7 C 0.66888(14) 0.97691(15) 1.0180(3)
H5 H 0.6534 0.9621 1.0868
C8 C 0.77826(10) 0.93786(10) 0.5353(2)
C9 C 0.76092(11) 0.90525(11) 0.4470(2)
C10 C 0.72310(11) 0.89320(11) 0.3973(2)
H6 H 0.7115 0.8713 0.3414
C11 C 0.70154(11) 0.91350(10) 0.4298(2)
C12 C 0.71813(10) 0.94540(9) 0.5162(2)
H7 H 0.7038 0.9587 0.5378
C13 C 0.75602(10) 0.95744(9) 0.5703(2)
C14 C 0.66167(12) 0.90022(11) 0.3726(3)
H8 H 0.6472 0.9130 0.3981
S2 S 0.78550(7) 0.87826(7) 0.38935(18)
S3 S 0.75203(6) 0.78296(4) 0.81487(11)
S4 S 0.75561(5) 0.90783(5) 1.09718(12)
O5 O 0.73220(14) 0.81286(14) 0.5837(4)
H9 H 0.7276 0.8194 0.5150
O6 O 0.9196(4) 0.8909(7) 0.7588(14)
O7 O 0.79105(13) 0.86826(16) 0.9425(4)
C15 C 0.7732(2) 0.8323(2) 0.6035(5)
C16 C 0.8018(2) 0.8633(2) 0.5237(5)
C17 C 0.84328(18) 0.8802(2) 0.5461(5)
H10 H 0.8622 0.9003 0.4928
C18 C 0.8569(2) 0.8674(3) 0.6473(7)
C19 C 0.8288(2) 0.8381(2) 0.7298(5)
H11 H 0.8383 0.8301 0.7985
C20 C 0.78703(19) 0.82085(16) 0.7109(4)
C21 C 0.9023(3) 0.8864(4) 0.6688(9)
H12 H 0.9185 0.8958 0.5973
C22 C 0.74934(19) 0.84505(14) 0.9504(4)
C23 C 0.72695(16) 0.80702(12) 0.8883(4)
C24 C 0.6847(3) 0.7860(2) 0.8928(10)
H13 H 0.6703 0.7610 0.8509
C25 C 0.66329(19) 0.80100(15) 0.9580(5)
H14 H 0.6347 0.7865 0.9590
C26 C 0.68462(16) 0.83782(14) 1.0217(4)
H15 H 0.6706 0.8480 1.0673
C27 C 0.72754(19) 0.85952(16) 1.0169(4)
C28 C 0.81618(14) 0.86392(11) 1.0415(3)
H16 H 0.8164 0.8385 1.0289
H17 H 0.8039 0.8625 1.1225
C29 C 0.85987(18) 0.89950(15) 1.0408(5)
H18 H 0.8597 0.9250 1.0517
H19 H 0.8725 0.9006 0.9606
C30 C 0.88578(19) 0.89503(18) 1.1476(6)
H20 H 0.8741 0.8954 1.2273
H21 H 0.9135 0.9174 1.1433
H22 H 0.8856 0.8695 1.1378
S5? S 0.79623(15) 0.89296(15) 0.3728(4)
S6? S 0.78553(16) 0.79628(10) 0.7800(3)
S7? S 0.75188(15) 0.89511(11) 1.0846(4)
O8? O 0.7536(5) 0.8213(3) 0.5654(10)
H23? H 0.7426 0.8340 0.5384
O9? O 0.9472(8) 0.9231(11) 0.685(3)
O10? O 0.8043(4) 0.8730(5) 0.9271(13)
C31? C 0.7941(5) 0.8472(4) 0.5786(12)
C32? C 0.8179(4) 0.8803(4) 0.5011(13)
C33? C 0.8610(4) 0.9044(6) 0.5193(15)
H24? H 0.8763 0.9272 0.4686
C34? C 0.8810(4) 0.8943(5) 0.6146(16)
C35? C 0.8558(6) 0.8627(6) 0.697(2)
H25? H 0.8681 0.8580 0.7662
C36? C 0.8128(5) 0.8376(4) 0.6825(10)
C37? C 0.9257(3) 0.9056(5) 0.6033(12)
H26? H 0.9354 0.8987 0.5327
C38? C 0.7637(3) 0.8441(3) 0.9252(9)
C39? C 0.7501(3) 0.8086(2) 0.8559(8)
C40? C 0.7085(4) 0.7808(3) 0.8469(10)
H27? H 0.6993 0.7569 0.8003
C41? C 0.6805(4) 0.7885(3) 0.9074(12)
H28? H 0.6525 0.7698 0.9013
C42? C 0.6941(4) 0.8241(3) 0.9767(10)
H29? H 0.6753 0.8293 1.0174
C43? C 0.7358(3) 0.8519(3) 0.9857(8)
H30? H 0.8149 0.8375 1.0405
H31? H 0.8004 0.8652 1.1113
H32? H 0.8706 0.8884 1.2247
H33? H 0.9112 0.9204 1.1570
H34? H 0.8914 0.8735 1.1267
loop_
_geom_bond_atom_site_label_1
_geom_bond_atom_site_label_2
_geom_bond_site_symmetry_1
_geom_bond_site_symmetry_2
S1 C2 1_555 1_555
O1 H1 1_555 1_555
O2 C7 1_555 1_555
O3 H2 1_555 1_555
O4 C14 1_555 1_555
C1 O1 1_555 1_555
C2 C1 1_555 1_555
C3 C2 1_555 1_555
H3 C3 1_555 1_555
C4 C3 1_555 1_555
C5 C4 1_555 1_555
H4 C5 1_555 1_555
C6 C1 1_555 1_555
C7 C4 1_555 1_555
H5 C7 1_555 1_555
C8 O3 1_555 1_555
C9 C8 1_555 1_555
C10 C9 1_555 1_555
H6 C10 1_555 1_555
C11 C10 1_555 1_555
C12 C11 1_555 1_555
H7 C12 1_555 1_555
C13 S1 1_555 1_555
C14 C11 1_555 1_555
H8 C14 1_555 1_555
S2 C9 1_555 1_555
S3 C20 1_555 1_555
S4 C6 1_555 1_555
O5 H9 1_555 1_555
O6 C21 1_555 1_555
O7 C22 1_555 1_555
C15 O5 1_555 1_555
C16 S2 1_555 1_555
C17 C16 1_555 1_555
H10 C17 1_555 1_555
C18 C17 1_555 1_555
C19 C18 1_555 1_555
H11 C19 1_555 1_555
C20 C15 1_555 1_555
C21 C18 1_555 1_555
H12 C21 1_555 1_555
C22 C23 1_555 1_555
C23 S3 1_555 1_555
C24 C23 1_555 1_555
H13 C24 1_555 1_555
C25 C24 1_555 1_555
H14 C25 1_555 1_555
C26 C25 1_555 1_555
H15 C26 1_555 1_555
C27 S4 1_555 1_555
C28 O7 1_555 1_555
H16 C28 1_555 1_555
H17 C28 1_555 1_555
C29 C28 1_555 1_555
H18 C29 1_555 1_555
H19 C29 1_555 1_555
C30 C29 1_555 1_555
H20 C30 1_555 1_555
H21 C30 1_555 1_555
H22 C30 1_555 1_555
C5 C6 1_555 1_555
C8 C13 1_555 1_555
C12 C13 1_555 1_555
C15 C16 1_555 1_555
C19 C20 1_555 1_555
C22 C27 1_555 1_555
C26 C27 1_555 1_555

#END
