
#######################################################################
#
#                 Cambridge Crystallographic Data Centre
#                                CCDC 
#
#######################################################################
#
# If this CIF has been generated from an entry in the Cambridge 
# Structural Database, then it will include bibliographic, chemical, 
# crystal, experimental, refinement or atomic coordinate data resulting 
# from the CCDC's data processing and validation procedures.
#
#######################################################################

data_PATLOO
_chemical_formula_moiety         'C25 H25 N1 O6 S1'
_chemical_name_systematic        
2-[(4-methylphenyl)sulfonyl]-1-(2,4,6-trimethoxyphenyl)-2,3-dihydroisoquinolin-4(1H)-one
_symmetry_cell_setting           monoclinic
_symmetry_space_group_name_H-M   'P 21/c'
_symmetry_Int_Tables_number      14
_space_group_name_Hall           '-P 2ybc'
loop_
_symmetry_equiv_pos_site_id
_symmetry_equiv_pos_as_xyz
1 x,y,z
2 -x,1/2+y,1/2-z
3 -x,-y,-z
4 x,1/2-y,1/2+z
_cell_length_a                   10.1630(5)
_cell_length_b                   24.6945(14)
_cell_length_c                   10.0270(6)
_cell_angle_alpha                90
_cell_angle_beta                 115.490(2)
_cell_angle_gamma                90
_cell_volume                     2271.53
_cell_formula_units_Z            4
loop_
_atom_site_label
_atom_site_type_symbol
_atom_site_fract_x
_atom_site_fract_y
_atom_site_fract_z
S1 S 0.59008(17) 0.07711(6) 0.34362(16)
O1 O 0.0970(5) 0.0904(2) 0.3790(5)
C1 C 0.1859(6) 0.0397(2) 0.2384(6)
N1 N 0.4418(5) 0.06618(19) 0.3662(5)
O2 O 0.2886(5) -0.01243(18) 0.1149(5)
O3 O -0.1228(5) -0.0818(2) 0.1677(5)
O4 O 0.6987(5) 0.04054(19) 0.4399(5)
C2 C 0.2988(6) 0.0815(2) 0.2469(6)
C3 C 0.1846(6) -0.0090(2) 0.1664(6)
O5 O 0.5495(6) 0.0750(2) 0.1890(5)
C4 C 0.4536(6) 0.0746(2) 0.5170(6)
C5 C 0.6493(6) 0.1425(2) 0.4058(6)
C6 C -0.0211(6) -0.0410(2) 0.1970(6)
C7 C -0.0235(6) 0.0056(2) 0.2743(6)
O6 O 0.4515(6) 0.1482(2) 0.6666(6)
C8 C 0.0838(6) 0.0441(2) 0.2958(6)
C9 C 0.2673(6) 0.1400(2) 0.2694(6)
C10 C 0.0805(6) -0.0496(2) 0.1431(6)
C11 C 0.4138(6) 0.1310(3) 0.5408(6)
C12 C 0.3276(6) 0.1642(3) 0.4081(6)
C13 C 0.7506(7) 0.1505(3) 0.5524(7)
C14 C 0.1826(8) 0.1712(3) 0.1454(8)
C15 C -0.0192(8) 0.1050(3) 0.4173(8)
C16 C 0.3068(8) 0.2191(3) 0.4300(8)
C17 C 0.5968(8) 0.1866(3) 0.3114(8)
C18 C 0.1589(9) 0.2261(3) 0.1654(9)
C19 C 0.3070(8) -0.0623(3) 0.0529(8)
C20 C 0.2203(9) 0.2507(4) 0.3027(10)
C21 C 0.7357(9) 0.2469(3) 0.5088(9)
C22 C -0.2490(9) -0.0714(3) 0.1903(9)
C23 C 0.6397(9) 0.2392(4) 0.3658(10)
C24 C 0.7851(13) 0.3043(5) 0.5709(13)
C25 C 0.7924(8) 0.2027(3) 0.6010(8)
loop_
_geom_bond_atom_site_label_1
_geom_bond_atom_site_label_2
_geom_bond_site_symmetry_1
_geom_bond_site_symmetry_2
S1 N1 1_555 1_555
O1 C8 1_555 1_555
C1 C2 1_555 1_555
N1 C2 1_555 1_555
O2 C3 1_555 1_555
O3 C6 1_555 1_555
O4 S1 1_555 1_555
C2 C9 1_555 1_555
C3 C1 1_555 1_555
O5 S1 1_555 1_555
C4 N1 1_555 1_555
C5 S1 1_555 1_555
C6 C7 1_555 1_555
C7 C8 1_555 1_555
O6 C11 1_555 1_555
C8 C1 1_555 1_555
C9 C12 1_555 1_555
C10 C3 1_555 1_555
C11 C4 1_555 1_555
C12 C11 1_555 1_555
C13 C5 1_555 1_555
C14 C9 1_555 1_555
C15 O1 1_555 1_555
C16 C12 1_555 1_555
C17 C5 1_555 1_555
C18 C14 1_555 1_555
C19 O2 1_555 1_555
C20 C16 1_555 1_555
C21 C23 1_555 1_555
C22 O3 1_555 1_555
C23 C17 1_555 1_555
C24 C21 1_555 1_555
C25 C13 1_555 1_555
C6 C10 1_555 1_555
C18 C20 1_555 1_555
C21 C25 1_555 1_555

#END
