
#######################################################################
#
#                 Cambridge Crystallographic Data Centre
#                                CCDC 
#
#######################################################################
#
# If this CIF has been generated from an entry in the Cambridge 
# Structural Database, then it will include bibliographic, chemical, 
# crystal, experimental, refinement or atomic coordinate data resulting 
# from the CCDC's data processing and validation procedures.
#
#######################################################################

data_PATRAG
_chemical_formula_moiety         'C14 H16 N2 O2'
_chemical_name_systematic        
'[3-(4-methoxyphenyl)-4,4-dimethyl-4,5-dihydro-1,2-oxazol-5-yl]acetonitrile'
_symmetry_cell_setting           monoclinic
_symmetry_space_group_name_H-M   'P 21/n'
_symmetry_Int_Tables_number      14
_space_group_name_Hall           '-P 2yn'
loop_
_symmetry_equiv_pos_site_id
_symmetry_equiv_pos_as_xyz
1 x,y,z
2 1/2-x,1/2+y,1/2-z
3 -x,-y,-z
4 1/2+x,1/2-y,1/2+z
_cell_length_a                   11.7785(12)
_cell_length_b                   8.8637(5)
_cell_length_c                   13.5121(10)
_cell_angle_alpha                90
_cell_angle_beta                 111.790(11)
_cell_angle_gamma                90
_cell_volume                     1309.89
_exptl_crystal_colour            'light colorless'
_exptl_crystal_description       block
_cell_formula_units_Z            4
loop_
_atom_site_label
_atom_site_type_symbol
_atom_site_fract_x
_atom_site_fract_y
_atom_site_fract_z
O1 O 0.9324(2) 0.7167(3) 0.38142(16)
O2 O 0.8696(2) -0.0055(2) 0.05492(15)
N1 N 0.8937(2) 0.1056(3) 0.13692(18)
N2 N 0.7714(3) -0.3048(3) -0.1334(2)
C1 C 0.8682(3) 0.5111(3) 0.1307(2)
H1 H 0.8540 0.5292 0.0593
C2 C 0.8879(3) 0.6322(4) 0.1992(2)
H2 H 0.8873 0.7300 0.1742
C3 C 0.9085(2) 0.6069(3) 0.3056(2)
C4 C 0.9049(3) 0.4604(4) 0.3404(2)
H3 H 0.9159 0.4429 0.4112
C5 C 0.8853(2) 0.3415(3) 0.2716(2)
H4 H 0.8830 0.2441 0.2962
C6 C 0.8688(2) 0.3642(3) 0.1646(2)
C7 C 0.8546(2) 0.2333(3) 0.0946(2)
C8 C 0.8034(2) 0.2302(3) -0.0277(2)
C9 C 0.7838(3) 0.0592(3) -0.0396(2)
H5 H 0.7017 0.0376 -0.0410
C10 C 0.7955(3) -0.0146(3) -0.1347(2)
H6 H 0.7345 0.0269 -0.1989
H7 H 0.8755 0.0078 -0.1362
C11 C 0.7799(3) -0.1781(4) -0.1340(3)
C12 C 0.9476(3) 0.8671(4) 0.3513(3)
H8 H 0.8729 0.9010 0.2973
H9 H 1.0121 0.8696 0.3239
H10 H 0.9683 0.9320 0.4123
C13 C 0.6824(2) 0.3127(3) -0.0801(2)
H11 H 0.6257 0.2799 -0.0486
H12 H 0.6497 0.2909 -0.1550
H13 H 0.6955 0.4194 -0.0696
C14 C 0.8997(2) 0.2888(3) -0.0688(2)
H14 H 0.9139 0.3941 -0.0522
H15 H 0.8713 0.2752 -0.1446
H16 H 0.9745 0.2339 -0.0355
loop_
_geom_bond_atom_site_label_1
_geom_bond_atom_site_label_2
_geom_bond_site_symmetry_1
_geom_bond_site_symmetry_2
O1 C3 1_555 1_555
O2 N1 1_555 1_555
N1 C7 1_555 1_555
N2 C11 1_555 1_555
C1 H1 1_555 1_555
C2 C1 1_555 1_555
H2 C2 1_555 1_555
C3 C2 1_555 1_555
C4 C3 1_555 1_555
H3 C4 1_555 1_555
C5 C4 1_555 1_555
H4 C5 1_555 1_555
C6 C1 1_555 1_555
C7 C6 1_555 1_555
C8 C7 1_555 1_555
C9 O2 1_555 1_555
H5 C9 1_555 1_555
C10 C9 1_555 1_555
H6 C10 1_555 1_555
H7 C10 1_555 1_555
C11 C10 1_555 1_555
C12 O1 1_555 1_555
H8 C12 1_555 1_555
H9 C12 1_555 1_555
H10 C12 1_555 1_555
C13 C8 1_555 1_555
H11 C13 1_555 1_555
H12 C13 1_555 1_555
H13 C13 1_555 1_555
C14 C8 1_555 1_555
H14 C14 1_555 1_555
H15 C14 1_555 1_555
H16 C14 1_555 1_555
C5 C6 1_555 1_555
C8 C9 1_555 1_555

#END
