
#######################################################################
#
#                 Cambridge Crystallographic Data Centre
#                                CCDC 
#
#######################################################################
#
# If this CIF has been generated from an entry in the Cambridge 
# Structural Database, then it will include bibliographic, chemical, 
# crystal, experimental, refinement or atomic coordinate data resulting 
# from the CCDC's data processing and validation procedures.
#
#######################################################################

data_PATTIN
_chemical_formula_moiety         'C18 H14 O1'
_chemical_name_systematic        
11-Oxa-(2)(1,7)naphthalino-(1)(1,3)-benzophane
_symmetry_cell_setting           monoclinic
_symmetry_space_group_name_H-M   'P 21/n'
_symmetry_Int_Tables_number      14
_space_group_name_Hall           '-P 2yn'
loop_
_symmetry_equiv_pos_site_id
_symmetry_equiv_pos_as_xyz
1 x,y,z
2 1/2-x,1/2+y,1/2-z
3 -x,-y,-z
4 1/2+x,1/2-y,1/2+z
_cell_length_a                   9.834(2)
_cell_length_b                   8.690(2)
_cell_length_c                   15.651(2)
_cell_angle_alpha                90
_cell_angle_beta                 106.44(2)
_cell_angle_gamma                90
_cell_volume                     1282.81
_cell_formula_units_Z            4
loop_
_atom_site_label
_atom_site_type_symbol
_atom_site_fract_x
_atom_site_fract_y
_atom_site_fract_z
O1 O -0.0148(1) 0.1784(2) 0.10551(7)
C1 C 0.1295(2) 0.1665(2) 0.1108(1)
C2 C 0.1586(2) 0.1263(2) 0.0328(1)
C3 C 0.2965(2) 0.0959(3) 0.0322(1)
C4 C 0.4036(2) 0.0921(2) 0.1099(1)
C5 C 0.3763(2) 0.1293(2) 0.1917(1)
C6 C 0.4744(2) 0.0987(2) 0.2756(2)
C7 C 0.4350(2) 0.1090(2) 0.3518(1)
C8 C 0.3030(2) 0.1757(2) 0.3520(1)
C9 C 0.2194(2) 0.2327(2) 0.2729(1)
C10 C 0.2405(2) 0.1870(2) 0.1908(1)
C11 C -0.0601(2) 0.1496(2) 0.1807(1)
C12 C 0.0115(2) 0.0491(2) 0.2477(1)
C13 C 0.0011(2) 0.0710(2) 0.3340(1)
C14 C -0.1072(2) 0.1657(2) 0.3450(1)
C15 C -0.1959(2) 0.2430(3) 0.2730(1)
C16 C -0.1698(2) 0.2402(2) 0.1916(1)
C17 C 0.1267(2) 0.0292(2) 0.4118(1)
C18 C 0.2423(2) 0.1603(2) 0.4293(1)
loop_
_geom_bond_atom_site_label_1
_geom_bond_atom_site_label_2
_geom_bond_site_symmetry_1
_geom_bond_site_symmetry_2
O1 C1 1_555 1_555
C1 C2 1_555 1_555
C2 C3 1_555 1_555
C3 C4 1_555 1_555
C4 C5 1_555 1_555
C5 C6 1_555 1_555
C6 C7 1_555 1_555
C7 C8 1_555 1_555
C8 C9 1_555 1_555
C9 C10 1_555 1_555
C10 C1 1_555 1_555
C11 O1 1_555 1_555
C12 C11 1_555 1_555
C13 C12 1_555 1_555
C14 C13 1_555 1_555
C15 C14 1_555 1_555
C16 C11 1_555 1_555
C17 C13 1_555 1_555
C18 C8 1_555 1_555
C5 C10 1_555 1_555
C15 C16 1_555 1_555
C17 C18 1_555 1_555

#END
