
#######################################################################
#
#                 Cambridge Crystallographic Data Centre
#                                CCDC 
#
#######################################################################
#
# If this CIF has been generated from an entry in the Cambridge 
# Structural Database, then it will include bibliographic, chemical, 
# crystal, experimental, refinement or atomic coordinate data resulting 
# from the CCDC's data processing and validation procedures.
#
#######################################################################

data_PATTUC
_chemical_formula_moiety         'C21 H19 N1 O1'
_chemical_name_systematic        
3-methyl-3-(4-methylphenyl)-2-phenyl-2,3-dihydro-1,2-benzoxazole
_symmetry_cell_setting           monoclinic
_symmetry_space_group_name_H-M   'P 21/c'
_symmetry_Int_Tables_number      14
_space_group_name_Hall           '-P 2ybc'
loop_
_symmetry_equiv_pos_site_id
_symmetry_equiv_pos_as_xyz
1 x,y,z
2 -x,1/2+y,1/2-z
3 -x,-y,-z
4 x,1/2-y,1/2+z
_cell_length_a                   9.4297(16)
_cell_length_b                   9.7758(16)
_cell_length_c                   18.503(3)
_cell_angle_alpha                90
_cell_angle_beta                 103.717(11)
_cell_angle_gamma                90
_cell_volume                     1657.01
_exptl_crystal_colour            colorless
_exptl_crystal_description       block
_cell_formula_units_Z            4
loop_
_atom_site_label
_atom_site_type_symbol
_atom_site_fract_x
_atom_site_fract_y
_atom_site_fract_z
C1 C 0.1954(3) 0.5162(3) 0.43692(14)
C2 C 0.1610(4) 0.3799(4) 0.42925(17)
H1 H 0.1008 0.3385 0.4560
C3 C 0.2213(4) 0.3066(4) 0.37905(19)
H2 H 0.2011 0.2138 0.3718
C4 C 0.3108(4) 0.3705(4) 0.34003(18)
H3 H 0.3512 0.3206 0.3071
C5 C 0.3403(4) 0.5084(4) 0.35003(16)
H4 H 0.3997 0.5517 0.3235
C6 C 0.2822(3) 0.5808(3) 0.39878(14)
C7 C 0.3045(3) 0.7283(3) 0.42567(14)
C8 C 0.4519(3) 0.7399(4) 0.48218(15)
H5 H 0.4525 0.6809 0.5237
H6 H 0.4670 0.8327 0.4992
H7 H 0.5287 0.7133 0.4590
C9 C 0.1902(3) 0.8293(3) 0.52305(14)
C10 C 0.1961(4) 0.7860(4) 0.59413(16)
H8 H 0.1963 0.6929 0.6044
C11 C 0.2017(5) 0.8793(4) 0.65022(18)
H9 H 0.2064 0.8485 0.6983
C12 C 0.2005(4) 1.0145(4) 0.63657(19)
H10 H 0.2032 1.0766 0.6749
C13 C 0.1954(3) 1.0601(4) 0.56667(18)
H11 H 0.1967 1.1536 0.5575
C14 C 0.1884(3) 0.9684(3) 0.50931(16)
H12 H 0.1823 1.0001 0.4613
C15 C 0.2835(3) 0.8309(3) 0.36169(13)
C16 C 0.1474(3) 0.8505(3) 0.31438(15)
H13 H 0.0673 0.8044 0.3237
C17 C 0.1279(3) 0.9363(3) 0.25395(15)
H14 H 0.0348 0.9473 0.2235
C18 C 0.2431(3) 1.0062(3) 0.23753(14)
C19 C 0.3774(3) 0.9887(4) 0.28509(18)
H15 H 0.4570 1.0357 0.2759
C20 C 0.3983(3) 0.9030(4) 0.34669(17)
H16 H 0.4909 0.8943 0.3780
C21 C 0.2219(4) 1.0979(4) 0.16987(18)
H17 H 0.2762 1.1810 0.1830
H18 H 0.1201 1.1191 0.1523
H19 H 0.2559 1.0518 0.1314
N1 N 0.1748(2) 0.7389(3) 0.46045(12)
O1 O 0.1482(2) 0.6012(2) 0.48600(11)
loop_
_geom_bond_atom_site_label_1
_geom_bond_atom_site_label_2
_geom_bond_site_symmetry_1
_geom_bond_site_symmetry_2
C1 C2 1_555 1_555
C2 H1 1_555 1_555
C3 C2 1_555 1_555
H2 C3 1_555 1_555
C4 C3 1_555 1_555
H3 C4 1_555 1_555
C5 C4 1_555 1_555
H4 C5 1_555 1_555
C6 C1 1_555 1_555
C7 C6 1_555 1_555
C8 C7 1_555 1_555
H5 C8 1_555 1_555
H6 C8 1_555 1_555
H7 C8 1_555 1_555
C9 C10 1_555 1_555
C10 H8 1_555 1_555
C11 C10 1_555 1_555
H9 C11 1_555 1_555
C12 C11 1_555 1_555
H10 C12 1_555 1_555
C13 C12 1_555 1_555
H11 C13 1_555 1_555
C14 C9 1_555 1_555
H12 C14 1_555 1_555
C15 C7 1_555 1_555
C16 C15 1_555 1_555
H13 C16 1_555 1_555
C17 C16 1_555 1_555
H14 C17 1_555 1_555
C18 C17 1_555 1_555
C19 C18 1_555 1_555
H15 C19 1_555 1_555
C20 C15 1_555 1_555
H16 C20 1_555 1_555
C21 C18 1_555 1_555
H17 C21 1_555 1_555
H18 C21 1_555 1_555
H19 C21 1_555 1_555
N1 C7 1_555 1_555
O1 C1 1_555 1_555
C5 C6 1_555 1_555
C9 N1 1_555 1_555
C13 C14 1_555 1_555
C19 C20 1_555 1_555
N1 O1 1_555 1_555

#END
