
#######################################################################
#
#                 Cambridge Crystallographic Data Centre
#                                CCDC 
#
#######################################################################
#
# If this CIF has been generated from an entry in the Cambridge 
# Structural Database, then it will include bibliographic, chemical, 
# crystal, experimental, refinement or atomic coordinate data resulting 
# from the CCDC's data processing and validation procedures.
#
#######################################################################

data_PATVEO
_chemical_formula_moiety         'C21 H19 N1 O1'
_chemical_name_systematic        
2-methyl-2-(4-methylphenyl)-3-phenyl-2,3-dihydro-1,3-benzoxazole
_symmetry_cell_setting           monoclinic
_symmetry_space_group_name_H-M   'P 21/c'
_symmetry_Int_Tables_number      14
_space_group_name_Hall           '-P 2ybc'
loop_
_symmetry_equiv_pos_site_id
_symmetry_equiv_pos_as_xyz
1 x,y,z
2 -x,1/2+y,1/2-z
3 -x,-y,-z
4 x,1/2-y,1/2+z
_cell_length_a                   9.468(3)
_cell_length_b                   19.074(7)
_cell_length_c                   9.275(3)
_cell_angle_alpha                90
_cell_angle_beta                 103.80(2)
_cell_angle_gamma                90
_cell_volume                     1626.65
_exptl_crystal_colour            colorless
_exptl_crystal_description       block
_cell_formula_units_Z            4
loop_
_atom_site_label
_atom_site_type_symbol
_atom_site_fract_x
_atom_site_fract_y
_atom_site_fract_z
C1 C 0.76889(15) 0.40053(8) 0.39240(17)
C2 C 0.41057(16) 0.38566(9) 0.22340(19)
C3 C 0.56474(16) 0.36735(9) 0.04608(18)
C4 C 0.85062(18) 0.44129(9) 0.50520(18)
H1 H 0.8368 0.4896 0.5036
C5 C 0.68710(17) 0.40164(9) 0.02433(19)
C6 C 0.66612(16) 0.43314(9) 0.25824(18)
C7 C 0.48721(18) 0.32353(9) -0.06161(19)
H2 H 0.4061 0.2994 -0.0477
C8 C 0.79061(18) 0.32883(9) 0.4000(2)
H3 H 0.7366 0.3002 0.3259
C9 C 0.89163(18) 0.29919(10) 0.5166(2)
H4 H 0.9036 0.2508 0.5201
C10 C 0.97513(18) 0.33981(10) 0.6280(2)
C11 C 0.95268(19) 0.41115(10) 0.62043(19)
H5 H 1.0073 0.4397 0.6944
C12 C 0.73368(19) 0.39483(10) -0.1036(2)
H6 H 0.8156 0.4185 -0.1167
C13 C 0.3995(2) 0.36583(10) 0.3637(2)
H7 H 0.4818 0.3513 0.4337
C14 C 0.28745(19) 0.40699(11) 0.1204(2)
H8 H 0.2935 0.4209 0.0259
C15 C 0.5341(2) 0.31629(10) -0.1927(2)
H9 H 0.4828 0.2872 -0.2674
C16 C 0.6079(2) 0.50445(10) 0.2844(2)
H10 H 0.6869 0.5372 0.3096
H11 H 0.5598 0.5017 0.3643
H12 H 0.5400 0.5198 0.1958
C17 C 0.6540(2) 0.35118(11) -0.2133(2)
H13 H 0.6826 0.3456 -0.3019
C18 C 0.1448(2) 0.38790(11) 0.2975(3)
H14 H 0.0552 0.3883 0.3223
C19 C 0.2673(2) 0.36761(11) 0.3999(2)
H15 H 0.2608 0.3549 0.4949
C20 C 0.1549(2) 0.40754(12) 0.1588(3)
H16 H 0.0717 0.4215 0.0892
C21 C 1.0872(2) 0.30698(14) 0.7533(3)
H17 H 1.1501 0.3428 0.8060
H18 H 1.1437 0.2736 0.7135
H19 H 1.0391 0.2837 0.8199
N1 N 0.54832(14) 0.38365(8) 0.18709(15)
O1 O 0.74952(12) 0.44218(7) 0.14510(13)
loop_
_geom_bond_atom_site_label_1
_geom_bond_atom_site_label_2
_geom_bond_site_symmetry_1
_geom_bond_site_symmetry_2
C1 C4 1_555 1_555
C2 C13 1_555 1_555
C3 C5 1_555 1_555
C4 H1 1_555 1_555
C5 C12 1_555 1_555
C6 C1 1_555 1_555
C7 C3 1_555 1_555
H2 C7 1_555 1_555
C8 C1 1_555 1_555
H3 C8 1_555 1_555
C9 C8 1_555 1_555
H4 C9 1_555 1_555
C10 C9 1_555 1_555
C11 C4 1_555 1_555
H5 C11 1_555 1_555
C12 H6 1_555 1_555
C13 H7 1_555 1_555
C14 C2 1_555 1_555
H8 C14 1_555 1_555
C15 C7 1_555 1_555
H9 C15 1_555 1_555
C16 C6 1_555 1_555
H10 C16 1_555 1_555
H11 C16 1_555 1_555
H12 C16 1_555 1_555
C17 C12 1_555 1_555
H13 C17 1_555 1_555
C18 H14 1_555 1_555
C19 C13 1_555 1_555
H15 C19 1_555 1_555
C20 C14 1_555 1_555
H16 C20 1_555 1_555
C21 C10 1_555 1_555
H17 C21 1_555 1_555
H18 C21 1_555 1_555
H19 C21 1_555 1_555
N1 C2 1_555 1_555
O1 C5 1_555 1_555
C3 N1 1_555 1_555
C6 N1 1_555 1_555
C6 O1 1_555 1_555
C10 C11 1_555 1_555
C15 C17 1_555 1_555
C18 C19 1_555 1_555
C18 C20 1_555 1_555

#END
