
#######################################################################
#
#                 Cambridge Crystallographic Data Centre
#                                CCDC 
#
#######################################################################
#
# If this CIF has been generated from an entry in the Cambridge 
# Structural Database, then it will include bibliographic, chemical, 
# crystal, experimental, refinement or atomic coordinate data resulting 
# from the CCDC's data processing and validation procedures.
#
#######################################################################

data_PATVAK
_chemical_formula_moiety         'C24 H19 N1 O1'
_chemical_name_systematic        
2-methyl-2-(naphthalen-2-yl)-3-phenyl-2,3-dihydro-1,3-benzoxazole
_symmetry_cell_setting           monoclinic
_symmetry_space_group_name_H-M   'P 21'
_symmetry_Int_Tables_number      4
_space_group_name_Hall           'P 2yb'
loop_
_symmetry_equiv_pos_site_id
_symmetry_equiv_pos_as_xyz
1 x,y,z
2 -x,1/2+y,-z
_cell_length_a                   9.1845(3)
_cell_length_b                   6.2326(3)
_cell_length_c                   15.9525(7)
_cell_angle_alpha                90
_cell_angle_beta                 104.976(2)
_cell_angle_gamma                90
_cell_volume                     882.157
_exptl_crystal_colour            colorless
_exptl_crystal_description       block
_cell_formula_units_Z            2
loop_
_atom_site_label
_atom_site_type_symbol
_atom_site_fract_x
_atom_site_fract_y
_atom_site_fract_z
C1 C 0.6387(3) 0.3384(4) 0.40899(14)
C2 C 0.7520(3) 0.1862(5) 0.44209(17)
H1 H 0.7528 0.0571 0.4130
C3 C 0.8604(3) 0.2267(6) 0.51642(19)
H2 H 0.9349 0.1250 0.5377
C4 C 0.8609(3) 0.4190(7) 0.56099(17)
H3 H 0.9345 0.4425 0.6124
C5 C 0.7559(3) 0.5727(6) 0.53053(15)
H4 H 0.7592 0.7015 0.5604
C6 C 0.6408(3) 0.5368(4) 0.45292(14)
C7 C 0.5273(3) 0.6887(5) 0.41951(15)
H5 H 0.5290 0.8202 0.4472
C8 C 0.4146(3) 0.6454(4) 0.34685(15)
H6 H 0.3405 0.7478 0.3260
C9 C 0.4091(3) 0.4481(4) 0.30307(13)
C10 C 0.5192(3) 0.3006(4) 0.33345(14)
H7 H 0.5163 0.1712 0.3041
C11 C 0.2710(3) 0.3986(4) 0.22766(15)
C12 C 0.2950(3) 0.2256(5) 0.16669(18)
H8 H 0.3048 0.0894 0.1957
H9 H 0.3851 0.2555 0.1489
H10 H 0.2104 0.2218 0.1166
C13 C 0.0691(2) 0.6401(4) 0.20079(13)
C14 C -0.0293(3) 0.8087(5) 0.18002(16)
H11 H -0.0118 0.9203 0.1452
C15 C -0.1562(3) 0.8085(6) 0.21256(17)
H12 H -0.2240 0.9219 0.1994
C16 C -0.1828(3) 0.6435(6) 0.26384(18)
H13 H -0.2693 0.6459 0.2839
C17 C -0.0829(3) 0.4737(6) 0.28604(16)
H14 H -0.0997 0.3626 0.3213
C18 C 0.0420(3) 0.4764(5) 0.25392(14)
C19 C 0.2471(2) 0.6704(4) 0.10678(13)
C20 C 0.3977(3) 0.7034(4) 0.10985(16)
H15 H 0.4713 0.6757 0.1609
C21 C 0.4390(3) 0.7772(5) 0.03758(19)
H16 H 0.5402 0.7980 0.0400
C22 C 0.3304(4) 0.8198(5) -0.03793(19)
H17 H 0.3579 0.8689 -0.0867
C23 C 0.1817(3) 0.7895(5) -0.04074(16)
H18 H 0.1084 0.8204 -0.0915
C24 C 0.1388(3) 0.7137(5) 0.03072(15)
H19 H 0.0373 0.6919 0.0276
N1 N 0.2062(2) 0.5964(4) 0.18131(12)
O1 O 0.1530(2) 0.3246(3) 0.26727(11)
loop_
_geom_bond_atom_site_label_1
_geom_bond_atom_site_label_2
_geom_bond_site_symmetry_1
_geom_bond_site_symmetry_2
C1 C2 1_555 1_555
C2 H1 1_555 1_555
C3 C2 1_555 1_555
H2 C3 1_555 1_555
C4 C3 1_555 1_555
H3 C4 1_555 1_555
C5 C4 1_555 1_555
H4 C5 1_555 1_555
C6 C1 1_555 1_555
C7 C6 1_555 1_555
H5 C7 1_555 1_555
C8 C7 1_555 1_555
H6 C8 1_555 1_555
C9 C8 1_555 1_555
C10 C1 1_555 1_555
H7 C10 1_555 1_555
C11 C9 1_555 1_555
C12 C11 1_555 1_555
H8 C12 1_555 1_555
H9 C12 1_555 1_555
H10 C12 1_555 1_555
C13 C14 1_555 1_555
C14 H11 1_555 1_555
C15 C14 1_555 1_555
H12 C15 1_555 1_555
C16 C15 1_555 1_555
H13 C16 1_555 1_555
C17 C16 1_555 1_555
H14 C17 1_555 1_555
C18 C13 1_555 1_555
C19 C20 1_555 1_555
C20 H15 1_555 1_555
C21 C20 1_555 1_555
H16 C21 1_555 1_555
C22 C21 1_555 1_555
H17 C22 1_555 1_555
C23 C22 1_555 1_555
H18 C23 1_555 1_555
C24 C19 1_555 1_555
H19 C24 1_555 1_555
N1 C11 1_555 1_555
O1 C11 1_555 1_555
C5 C6 1_555 1_555
C9 C10 1_555 1_555
C13 N1 1_555 1_555
C17 C18 1_555 1_555
C18 O1 1_555 1_555
C19 N1 1_555 1_555
C23 C24 1_555 1_555

#END
