
#######################################################################
#
#                 Cambridge Crystallographic Data Centre
#                                CCDC 
#
#######################################################################
#
# If this CIF has been generated from an entry in the Cambridge 
# Structural Database, then it will include bibliographic, chemical, 
# crystal, experimental, refinement or atomic coordinate data resulting 
# from the CCDC's data processing and validation procedures.
#
#######################################################################

data_PATVOY
_chemical_formula_moiety         'C24 H27 Br1 O3'
_chemical_name_systematic        
6-bromo-4-(3,5-di-t-butyl-4-hydroxyphenyl)-3-methylidene-3,4-dihydro-2H-1-benzopyran-2-one
_symmetry_cell_setting           orthorhombic
_symmetry_space_group_name_H-M   'P 21 21 21'
_symmetry_Int_Tables_number      19
_space_group_name_Hall           'P 2ac 2ab'
loop_
_symmetry_equiv_pos_site_id
_symmetry_equiv_pos_as_xyz
1 x,y,z
2 1/2-x,-y,1/2+z
3 1/2+x,1/2-y,-z
4 -x,1/2+y,1/2-z
_cell_length_a                   10.1261(4)
_cell_length_b                   11.2710(7)
_cell_length_c                   19.4856(11)
_cell_angle_alpha                90
_cell_angle_beta                 90
_cell_angle_gamma                90
_cell_volume                     2223.92
_exptl_crystal_colour            'light colorless'
_exptl_crystal_description       block
_chemical_melting_point          '437-439 K'
_cell_formula_units_Z            4
_exptl_crystal_recrystallization_method 'ethyl acetate/petroleum ether'
loop_
_atom_site_label
_atom_site_type_symbol
_atom_site_fract_x
_atom_site_fract_y
_atom_site_fract_z
Br1 Br 0.04549(11) 0.87342(15) 0.18546(7)
O1 O -0.4831(7) 1.3357(4) 0.0875(2)
H1 H -0.4984 1.3716 0.0517
O2 O -0.6142(9) 0.5758(6) 0.0415(3)
O3 O -0.4051(9) 0.5967(5) 0.0611(4)
C1 C -0.4292(7) 1.0524(5) -0.0016(3)
H2 H -0.4192 1.0214 -0.0456
C2 C -0.4475(7) 1.1747(5) 0.0064(3)
C3 C -0.4621(7) 1.2178(5) 0.0732(3)
C4 C -0.4529(7) 1.1443(5) 0.1314(3)
C5 C -0.4370(7) 1.0235(6) 0.1196(3)
H3 H -0.4340 0.9722 0.1570
C6 C -0.4255(7) 0.9764(5) 0.0539(3)
C7 C -0.4104(8) 0.8449(6) 0.0427(3)
H4 H -0.3901 0.8340 -0.0061
C8 C -0.5349(11) 0.7751(6) 0.0568(4)
C9 C -0.5269(13) 0.6437(8) 0.0528(4)
C10 C -0.3038(11) 0.6621(9) 0.0887(5)
C11 C -0.2049(12) 0.6029(10) 0.1228(6)
H5 H -0.2093 0.5209 0.1274
C12 C -0.1020(11) 0.6619(11) 0.1497(5)
H6 H -0.0349 0.6205 0.1719
C13 C -0.0956(9) 0.7862(11) 0.1444(5)
C14 C -0.1936(8) 0.8483(9) 0.1103(4)
H7 H -0.1887 0.9303 0.1062
C15 C -0.2996(9) 0.7867(7) 0.0824(4)
C16 C -0.4493(8) 1.2571(5) -0.0580(3)
C17 C -0.3409(7) 1.3511(7) -0.0540(4)
H8 H -0.3526 1.3978 -0.0132
H9 H -0.3458 1.4016 -0.0936
H10 H -0.2561 1.3130 -0.0527
C18 C -0.5869(8) 1.3159(7) -0.0649(4)
H11 H -0.6536 1.2555 -0.0671
H12 H -0.5896 1.3628 -0.1060
H13 H -0.6029 1.3659 -0.0259
C19 C -0.4280(9) 1.1870(6) -0.1243(3)
H14 H -0.3444 1.1470 -0.1223
H15 H -0.4289 1.2404 -0.1627
H16 H -0.4974 1.1297 -0.1294
C20 C -0.4609(9) 1.1929(6) 0.2050(3)
C21 C -0.5974(9) 1.2495(8) 0.2186(4)
H17 H -0.6081 1.3181 0.1900
H18 H -0.6035 1.2725 0.2659
H19 H -0.6656 1.1930 0.2083
C22 C -0.3534(9) 1.2855(8) 0.2168(4)
H20 H -0.2682 1.2492 0.2116
H21 H -0.3615 1.3171 0.2624
H22 H -0.3628 1.3484 0.1840
C23 C -0.4415(12) 1.0957(7) 0.2584(3)
H23 H -0.5123 1.0394 0.2551
H24 H -0.4410 1.1303 0.3035
H25 H -0.3589 1.0563 0.2504
C24 C -0.6515(11) 0.8213(8) 0.0708(5)
H26 H -0.7239 0.7720 0.0776
H27 H -0.6612 0.9032 0.0738
loop_
_geom_bond_atom_site_label_1
_geom_bond_atom_site_label_2
_geom_bond_site_symmetry_1
_geom_bond_site_symmetry_2
Br1 C13 1_555 1_555
O1 H1 1_555 1_555
O2 C9 1_555 1_555
O3 C9 1_555 1_555
C1 H2 1_555 1_555
C2 C1 1_555 1_555
C3 O1 1_555 1_555
C4 C3 1_555 1_555
C5 C4 1_555 1_555
H3 C5 1_555 1_555
C6 C1 1_555 1_555
C7 C6 1_555 1_555
H4 C7 1_555 1_555
C8 C7 1_555 1_555
C9 C8 1_555 1_555
C10 O3 1_555 1_555
C11 C10 1_555 1_555
H5 C11 1_555 1_555
C12 C11 1_555 1_555
H6 C12 1_555 1_555
C13 C12 1_555 1_555
C14 C13 1_555 1_555
H7 C14 1_555 1_555
C15 C7 1_555 1_555
C16 C2 1_555 1_555
C17 C16 1_555 1_555
H8 C17 1_555 1_555
H9 C17 1_555 1_555
H10 C17 1_555 1_555
C18 C16 1_555 1_555
H11 C18 1_555 1_555
H12 C18 1_555 1_555
H13 C18 1_555 1_555
C19 C16 1_555 1_555
H14 C19 1_555 1_555
H15 C19 1_555 1_555
H16 C19 1_555 1_555
C20 C4 1_555 1_555
C21 C20 1_555 1_555
H17 C21 1_555 1_555
H18 C21 1_555 1_555
H19 C21 1_555 1_555
C22 C20 1_555 1_555
H20 C22 1_555 1_555
H21 C22 1_555 1_555
H22 C22 1_555 1_555
C23 C20 1_555 1_555
H23 C23 1_555 1_555
H24 C23 1_555 1_555
H25 C23 1_555 1_555
C24 C8 1_555 1_555
H26 C24 1_555 1_555
H27 C24 1_555 1_555
C2 C3 1_555 1_555
C5 C6 1_555 1_555
C10 C15 1_555 1_555
C14 C15 1_555 1_555

#END
