
#######################################################################
#
#                 Cambridge Crystallographic Data Centre
#                                CCDC 
#
#######################################################################
#
# If this CIF has been generated from an entry in the Cambridge 
# Structural Database, then it will include bibliographic, chemical, 
# crystal, experimental, refinement or atomic coordinate data resulting 
# from the CCDC's data processing and validation procedures.
#
#######################################################################

data_PATWOZ
_chemical_formula_moiety         'C16 H13 Br2 N5 O2 S1'
_chemical_name_systematic        
4,10-dibromo-7-hexyl-6H-pyrrolo[3,4-b][1,2,5]thiadiazolo[3,4-g]quinoxaline-6,8(7H)-dione
_symmetry_cell_setting           triclinic
_symmetry_space_group_name_H-M   'P -1'
_symmetry_Int_Tables_number      2
_space_group_name_Hall           '-P 1'
loop_
_symmetry_equiv_pos_site_id
_symmetry_equiv_pos_as_xyz
1 x,y,z
2 -x,-y,-z
_cell_length_a                   5.1566(3)
_cell_length_b                   11.9068(6)
_cell_length_c                   14.6053(9)
_cell_angle_alpha                73.067(4)
_cell_angle_beta                 87.725(4)
_cell_angle_gamma                89.454(3)
_cell_volume                     857.189
_exptl_crystal_colour            red
_exptl_crystal_description       needle
_cell_formula_units_Z            2
_exptl_crystal_recrystallization_method chloroform
loop_
_atom_site_label
_atom_site_type_symbol
_atom_site_fract_x
_atom_site_fract_y
_atom_site_fract_z
Br1 Br 0.01414(18) 0.33588(8) 0.00016(7)
Br2 Br 0.87559(19) 0.02363(8) 0.29273(7)
S1 S 0.2548(5) -0.06769(19) 0.09070(18)
O1 O 0.4170(12) 0.6681(5) 0.1494(4)
O2 O 1.0878(12) 0.4594(5) 0.3174(4)
N1 N 0.1559(14) 0.0657(6) 0.0494(5)
N2 N 0.4755(14) -0.0544(6) 0.1623(5)
N3 N 0.3830(13) 0.4212(6) 0.1272(5)
N4 N 0.7847(14) 0.2861(6) 0.2440(5)
N5 N 0.7603(13) 0.5858(6) 0.2428(5)
C1 C 0.2917(16) 0.1284(7) 0.0931(6)
C2 C 0.4786(17) 0.0617(7) 0.1595(6)
C3 C 0.6381(17) 0.1140(7) 0.2099(6)
C4 C 0.6136(18) 0.2349(7) 0.1964(7)
C5 C 0.4206(16) 0.3008(7) 0.1354(6)
C6 C 0.2671(16) 0.2496(8) 0.0827(7)
C7 C 0.8948(15) 0.4766(7) 0.2732(6)
C8 C 0.7402(17) 0.3966(8) 0.2312(7)
C9 C 0.5383(16) 0.4625(8) 0.1758(7)
C10 C 0.5560(18) 0.5851(7) 0.1856(7)
C11 C 0.8534(18) 0.6912(8) 0.2700(7)
C12 C 0.7824(18) 0.6788(8) 0.3735(7)
C13 C 0.4957(18) 0.6725(8) 0.4016(7)
C14 C 0.4454(16) 0.6780(7) 0.5042(6)
C15 C 0.480(2) 0.8000(9) 0.5188(8)
C16 C 0.283(2) 0.8875(10) 0.4693(8)
H1 H 0.778999 0.762500 0.228801
H2 H 1.043499 0.698301 0.259000
H3 H 0.862801 0.607201 0.413900
H4 H 0.856700 0.743900 0.391901
H5 H 0.423201 0.600801 0.393101
H6 H 0.408700 0.738500 0.355901
H7 H 0.269000 0.651001 0.525500
H8 H 0.561701 0.623001 0.546100
H9 H 0.466900 0.792800 0.588301
H10 H 0.652801 0.830100 0.496900
H11 H 0.107800 0.859900 0.492599
H12 H 0.293600 0.897100 0.401200
H13 H 0.306399 0.962700 0.479699
loop_
_geom_bond_atom_site_label_1
_geom_bond_atom_site_label_2
_geom_bond_site_symmetry_1
_geom_bond_site_symmetry_2
Br1 C6 1_555 1_555
Br2 C3 1_555 1_555
S1 N1 1_555 1_555
O1 C10 1_555 1_555
O2 C7 1_555 1_555
N1 C1 1_555 1_555
N2 S1 1_555 1_555
N3 C5 1_555 1_555
N4 C4 1_555 1_555
N5 C7 1_555 1_555
C1 C2 1_555 1_555
C2 N2 1_555 1_555
C3 C2 1_555 1_555
C4 C3 1_555 1_555
C5 C4 1_555 1_555
C6 C1 1_555 1_555
C7 C8 1_555 1_555
C8 N4 1_555 1_555
C9 N3 1_555 1_555
C10 N5 1_555 1_555
C11 N5 1_555 1_555
C12 C11 1_555 1_555
C13 C12 1_555 1_555
C14 C13 1_555 1_555
C15 C14 1_555 1_555
C16 C15 1_555 1_555
H1 C11 1_555 1_555
H2 C11 1_555 1_555
H3 C12 1_555 1_555
H4 C12 1_555 1_555
H5 C13 1_555 1_555
H6 C13 1_555 1_555
H7 C14 1_555 1_555
H8 C14 1_555 1_555
H9 C15 1_555 1_555
H10 C15 1_555 1_555
H11 C16 1_555 1_555
H12 C16 1_555 1_555
H13 C16 1_555 1_555
C5 C6 1_555 1_555
C8 C9 1_555 1_555
C9 C10 1_555 1_555

#END
