
#######################################################################
#
#                 Cambridge Crystallographic Data Centre
#                                CCDC 
#
#######################################################################
#
# If this CIF has been generated from an entry in the Cambridge 
# Structural Database, then it will include bibliographic, chemical, 
# crystal, experimental, refinement or atomic coordinate data resulting 
# from the CCDC's data processing and validation procedures.
#
#######################################################################

data_PATZUI
_chemical_name_common            
(E)-1-(4-chlorophenyl)-2-(5-(4-methoxyphenyl)-9,9-dioxido-5,6-dihydrobenzo[3',4']cyclobuta[1',2':2,3]pyrido[1,2-b][1,2]benzothiazol-7(4bH)-ylidene)propan-1-one
_chemical_formula_moiety         'C33 H26 Cl1 N1 O4 S1'
_chemical_name_systematic        
(E)-1-(4-chlorophenyl)-2-((9S,9aS,13bS)-9-(4-methoxyphenyl)-5,5-dioxido-9,9a-dihydrobenzo[3,4]cyclobuta[1,2-b]benzo[4,5]isothiazolo[2,3-a]pyridin-7(8H)-ylidene)propan-1-one
_symmetry_cell_setting           orthorhombic
_symmetry_space_group_name_H-M   'P 21 21 21'
_symmetry_Int_Tables_number      19
_space_group_name_Hall           'P 2ac 2ab'
loop_
_symmetry_equiv_pos_site_id
_symmetry_equiv_pos_as_xyz
1 x,y,z
2 1/2-x,-y,1/2+z
3 1/2+x,1/2-y,-z
4 -x,1/2+y,1/2-z
_cell_length_a                   8.9355(5)
_cell_length_b                   14.8690(6)
_cell_length_c                   20.8047(11)
_cell_angle_alpha                90
_cell_angle_beta                 90
_cell_angle_gamma                90
_cell_volume                     2764.15
_cell_formula_units_Z            4
loop_
_atom_site_label
_atom_site_type_symbol
_atom_site_fract_x
_atom_site_fract_y
_atom_site_fract_z
Cl1 Cl 0.63916(16) -0.00137(7) 0.57285(7)
S1 S 0.41005(11) 0.51011(6) 0.60245(5)
O1 O 0.4070(4) 0.5563(2) 0.54319(14)
O2 O 0.3870(3) 0.41535(18) 0.60011(19)
O3 O 0.9992(3) 0.39095(18) 0.57458(17)
O4 O 0.9369(4) 0.26882(19) 0.96990(15)
N1 N 0.5684(3) 0.53295(17) 0.64271(13)
C1 C 0.6793(4) 0.4624(2) 0.63830(17)
C2 C 0.6917(5) 0.4064(2) 0.69798(18)
H1 H 0.764(4) 0.364(2) 0.6921(16)
H2 H 0.596(4) 0.374(2) 0.7068(17)
C3 C 0.7384(4) 0.4671(2) 0.75406(16)
H3 H 0.8261 0.5013 0.7398
C4 C 0.6129(4) 0.5356(2) 0.76721(17)
H4 H 0.5377 0.5149 0.7981
C5 C 0.6731(4) 0.6291(2) 0.78106(18)
C6 C 0.7464(5) 0.6807(3) 0.8259(2)
H5 H 0.7704 0.6585 0.8664
C7 C 0.7828(5) 0.7676(3) 0.8075(3)
H6 H 0.8318 0.8051 0.8365
C8 C 0.7478(5) 0.7996(3) 0.7472(3)
H7 H 0.7750 0.8582 0.7367
C9 C 0.6740(4) 0.7483(2) 0.7019(2)
H8 H 0.6513 0.7701 0.6611
C10 C 0.6364(4) 0.6625(2) 0.72119(18)
C11 C 0.5442(4) 0.5791(2) 0.70400(17)
C12 C 0.3780(4) 0.5979(2) 0.70782(17)
C13 C 0.3052(5) 0.6468(2) 0.7549(2)
H9 H 0.3582 0.6711 0.7893
C14 C 0.1522(5) 0.6589(3) 0.7501(2)
H10 H 0.1020 0.6911 0.7818
C15 C 0.0729(5) 0.6242(3) 0.6992(2)
H11 H -0.0298 0.6341 0.6969
C16 C 0.1416(4) 0.5755(2) 0.6518(2)
H12 H 0.0883 0.5518 0.6174
C17 C 0.2959(4) 0.5631(2) 0.65777(18)
C18 C 0.7587(4) 0.4530(2) 0.58490(17)
C19 C 0.7576(5) 0.5158(3) 0.5287(2)
H13 H 0.8582 0.5342 0.5192
H14 H 0.6982 0.5677 0.5389
H15 H 0.7158 0.4858 0.4921
C20 C 0.8663(5) 0.3759(2) 0.57806(18)
C21 C 0.8068(4) 0.2827(2) 0.57332(18)
C22 C 0.9068(5) 0.2116(2) 0.56859(18)
H16 H 1.0089 0.2231 0.5660
C23 C 0.8562(5) 0.1241(3) 0.5677(2)
H17 H 0.9235 0.0764 0.5656
C24 C 0.7057(5) 0.1084(2) 0.5701(2)
C25 C 0.6028(5) 0.1770(2) 0.5712(2)
H18 H 0.5007 0.1648 0.5709
C26 C 0.6541(5) 0.2645(2) 0.5728(2)
H19 H 0.5859 0.3117 0.5734
C27 C 0.7846(4) 0.4151(2) 0.81318(17)
C28 C 0.6916(5) 0.3558(2) 0.8440(2)
H20 H 0.5942 0.3490 0.8289
C29 C 0.7368(5) 0.3056(2) 0.8965(2)
H21 H 0.6711 0.2654 0.9160
C30 C 0.8789(5) 0.3157(2) 0.91934(19)
C31 C 0.9734(5) 0.3761(3) 0.8905(2)
H22 H 1.0695 0.3845 0.9066
C32 C 0.9268(5) 0.4244(3) 0.8378(2)
H23 H 0.9930 0.4643 0.8184
C33 C 0.8408(6) 0.2159(3) 1.0069(2)
H24 H 0.8027 0.1675 0.9812
H25 H 0.7591 0.2521 1.0221
H26 H 0.8946 0.1918 1.0429
loop_
_geom_bond_atom_site_label_1
_geom_bond_atom_site_label_2
_geom_bond_site_symmetry_1
_geom_bond_site_symmetry_2
Cl1 C24 1_555 1_555
S1 O1 1_555 1_555
O2 S1 1_555 1_555
O3 C20 1_555 1_555
O4 C30 1_555 1_555
N1 S1 1_555 1_555
C1 N1 1_555 1_555
C2 C1 1_555 1_555
H1 C2 1_555 1_555
H2 C2 1_555 1_555
C3 C2 1_555 1_555
H3 C3 1_555 1_555
C4 C3 1_555 1_555
H4 C4 1_555 1_555
C5 C4 1_555 1_555
C6 C5 1_555 1_555
H5 C6 1_555 1_555
C7 C6 1_555 1_555
H6 C7 1_555 1_555
C8 C7 1_555 1_555
H7 C8 1_555 1_555
C9 C8 1_555 1_555
H8 C9 1_555 1_555
C10 C5 1_555 1_555
C11 N1 1_555 1_555
C12 C11 1_555 1_555
C13 C12 1_555 1_555
H9 C13 1_555 1_555
C14 C13 1_555 1_555
H10 C14 1_555 1_555
C15 C14 1_555 1_555
H11 C15 1_555 1_555
C16 C15 1_555 1_555
H12 C16 1_555 1_555
C17 S1 1_555 1_555
C18 C1 1_555 1_555
C19 C18 1_555 1_555
H13 C19 1_555 1_555
H14 C19 1_555 1_555
H15 C19 1_555 1_555
C20 C18 1_555 1_555
C21 C20 1_555 1_555
C22 C21 1_555 1_555
H16 C22 1_555 1_555
C23 C22 1_555 1_555
H17 C23 1_555 1_555
C24 C23 1_555 1_555
C25 C24 1_555 1_555
H18 C25 1_555 1_555
C26 C21 1_555 1_555
H19 C26 1_555 1_555
C27 C3 1_555 1_555
C28 C27 1_555 1_555
H20 C28 1_555 1_555
C29 C28 1_555 1_555
H21 C29 1_555 1_555
C30 C29 1_555 1_555
C31 C30 1_555 1_555
H22 C31 1_555 1_555
C32 C27 1_555 1_555
H23 C32 1_555 1_555
C33 O4 1_555 1_555
H24 C33 1_555 1_555
H25 C33 1_555 1_555
H26 C33 1_555 1_555
C4 C11 1_555 1_555
C9 C10 1_555 1_555
C10 C11 1_555 1_555
C12 C17 1_555 1_555
C16 C17 1_555 1_555
C25 C26 1_555 1_555
C31 C32 1_555 1_555

#END
