
#######################################################################
#
#                 Cambridge Crystallographic Data Centre
#                                CCDC 
#
#######################################################################
#
# If this CIF has been generated from an entry in the Cambridge 
# Structural Database, then it will include bibliographic, chemical, 
# crystal, experimental, refinement or atomic coordinate data resulting 
# from the CCDC's data processing and validation procedures.
#
#######################################################################

data_PATZOB
_chemical_name_common            Brusatol
_chemical_formula_moiety         'C26 H32 O11'
_chemical_name_systematic        
'Methyl 3,11,12-trihydroxy-15-((3-methylbut-2-enoyl)oxy)-2,16-dioxo-13,20-epoxypicras-3-en-21-oate'
_symmetry_cell_setting           orthorhombic
_symmetry_space_group_name_H-M   'P 21 21 21'
_symmetry_Int_Tables_number      19
_space_group_name_Hall           'P 2ac 2ab'
loop_
_symmetry_equiv_pos_site_id
_symmetry_equiv_pos_as_xyz
1 x,y,z
2 1/2-x,-y,1/2+z
3 -x,1/2+y,1/2-z
4 1/2+x,1/2-y,-z
_cell_length_a                   6.71620(10)
_cell_length_b                   13.6796(2)
_cell_length_c                   25.9859(5)
_cell_angle_alpha                90
_cell_angle_beta                 90
_cell_angle_gamma                90
_cell_volume                     2387.45
_exptl_crystal_colour            colorless
_exptl_crystal_description       needle
_cell_formula_units_Z            4
loop_
_atom_site_label
_atom_site_type_symbol
_atom_site_fract_x
_atom_site_fract_y
_atom_site_fract_z
O1 O 0.6704(3) 0.54720(14) 0.02225(7)
O2 O 0.7863(3) 0.37039(16) -0.00367(7)
H1 H 0.7975 0.4234 -0.0181
O3 O 0.0404(3) 0.54519(13) 0.14364(6)
H2 H -0.0296 0.5919 0.1516
O4 O 0.2361(3) 0.56662(12) 0.27424(6)
H3 H 0.2887 0.6182 0.2656
O5 O -0.2473(3) 0.51540(14) 0.30530(8)
O6 O -0.0670(2) 0.39701(16) 0.34093(6)
O7 O -0.1327(2) 0.40828(12) 0.21639(6)
O8 O 0.4711(2) 0.23809(11) 0.21922(6)
O9 O 0.6417(3) 0.25571(13) 0.28957(6)
O10 O 0.3429(2) 0.35608(10) 0.33806(5)
O11 O 0.2397(3) 0.20076(11) 0.33187(6)
C1 C 0.5140(4) 0.50092(16) 0.10202(8)
H4 H 0.4364 0.5605 0.0990
H5 H 0.6112 0.5104 0.1292
C2 C 0.6203(4) 0.48223(18) 0.05223(9)
C3 C 0.6762(4) 0.38148(18) 0.04044(9)
C4 C 0.6333(4) 0.30630(17) 0.07122(8)
C5 C 0.5044(3) 0.32145(15) 0.11842(8)
H6 H 0.5971 0.3306 0.1471
C6 C 0.3745(4) 0.23359(15) 0.13322(8)
H7 H 0.2654 0.2271 0.1090
H8 H 0.4532 0.1742 0.1319
C7 C 0.2931(3) 0.24785(15) 0.18675(8)
H9 H 0.2018 0.1940 0.1946
C8 C 0.1859(3) 0.34436(15) 0.19626(8)
C9 C 0.2988(3) 0.43333(15) 0.17275(8)
H10 H 0.4203 0.4388 0.1934
C10 C 0.3752(3) 0.41578(15) 0.11664(8)
C11 C 0.1883(4) 0.53042(16) 0.18209(8)
H11 H 0.2859 0.5833 0.1788
C12 C 0.0966(3) 0.53777(15) 0.23619(8)
H12 H -0.0104 0.5864 0.2352
C13 C 0.0083(3) 0.44045(16) 0.25471(8)
C14 C 0.1578(3) 0.35654(15) 0.25474(8)
H13 H 0.0874 0.2983 0.2671
C15 C 0.3574(3) 0.35998(15) 0.28264(7)
H14 H 0.4201 0.4225 0.2738
C16 C 0.4981(4) 0.27969(16) 0.26507(8)
C17 C 0.7205(4) 0.2074(2) 0.06165(10)
H15 H 0.7984 0.2089 0.0307
H16 H 0.6152 0.1605 0.0580
H17 H 0.8038 0.1893 0.0901
C18 C 0.2138(4) 0.40703(18) 0.07452(8)
H18 H 0.2763 0.3965 0.0418
H19 H 0.1371 0.4662 0.0734
H20 H 0.1278 0.3530 0.0823
C19 C -0.0349(3) 0.34250(16) 0.18165(8)
H21 H -0.0530 0.3637 0.1463
H22 H -0.0884 0.2770 0.1852
C20 C -0.1136(4) 0.45655(17) 0.30335(9)
C21 C -0.1880(5) 0.4031(3) 0.38682(10)
H23 H -0.1412 0.3565 0.4117
H24 H -0.3240 0.3889 0.3783
H25 H -0.1790 0.4677 0.4010
C22 C 0.2828(3) 0.27079(16) 0.35871(8)
C23 C 0.2793(4) 0.26745(17) 0.41472(8)
H26 H 0.2646 0.2051 0.4284
C24 C 0.2934(4) 0.33837(18) 0.44969(9)
C25 C 0.3105(5) 0.44546(19) 0.43916(10)
H27 H 0.3144 0.4562 0.4027
H28 H 0.4305 0.4701 0.4545
H29 H 0.1977 0.4788 0.4536
C26 C 0.2881(5) 0.3129(2) 0.50613(9)
H30 H 0.2802 0.2432 0.5100
H31 H 0.1739 0.3427 0.5218
H32 H 0.4070 0.3365 0.5225
loop_
_geom_bond_atom_site_label_1
_geom_bond_atom_site_label_2
_geom_bond_site_symmetry_1
_geom_bond_site_symmetry_2
O1 C2 1_555 1_555
O2 H1 1_555 1_555
O3 H2 1_555 1_555
O4 H3 1_555 1_555
O5 C20 1_555 1_555
O6 C20 1_555 1_555
O7 C13 1_555 1_555
O8 C7 1_555 1_555
O9 C16 1_555 1_555
O10 C15 1_555 1_555
O11 C22 1_555 1_555
C1 H4 1_555 1_555
H5 C1 1_555 1_555
C2 C1 1_555 1_555
C3 O2 1_555 1_555
C4 C3 1_555 1_555
C5 C4 1_555 1_555
H6 C5 1_555 1_555
C6 C5 1_555 1_555
H7 C6 1_555 1_555
H8 C6 1_555 1_555
C7 C6 1_555 1_555
H9 C7 1_555 1_555
C8 C7 1_555 1_555
C9 C8 1_555 1_555
H10 C9 1_555 1_555
C10 C1 1_555 1_555
C11 O3 1_555 1_555
H11 C11 1_555 1_555
C12 O4 1_555 1_555
H12 C12 1_555 1_555
C13 C12 1_555 1_555
C14 C8 1_555 1_555
H13 C14 1_555 1_555
C15 C14 1_555 1_555
H14 C15 1_555 1_555
C16 O8 1_555 1_555
C17 C4 1_555 1_555
H15 C17 1_555 1_555
H16 C17 1_555 1_555
H17 C17 1_555 1_555
C18 C10 1_555 1_555
H18 C18 1_555 1_555
H19 C18 1_555 1_555
H20 C18 1_555 1_555
C19 O7 1_555 1_555
H21 C19 1_555 1_555
H22 C19 1_555 1_555
C20 C13 1_555 1_555
C21 O6 1_555 1_555
H23 C21 1_555 1_555
H24 C21 1_555 1_555
H25 C21 1_555 1_555
C22 O10 1_555 1_555
C23 C22 1_555 1_555
H26 C23 1_555 1_555
C24 C23 1_555 1_555
C25 C24 1_555 1_555
H27 C25 1_555 1_555
H28 C25 1_555 1_555
H29 C25 1_555 1_555
C26 C24 1_555 1_555
H30 C26 1_555 1_555
H31 C26 1_555 1_555
H32 C26 1_555 1_555
C2 C3 1_555 1_555
C5 C10 1_555 1_555
C8 C19 1_555 1_555
C9 C10 1_555 1_555
C9 C11 1_555 1_555
C11 C12 1_555 1_555
C13 C14 1_555 1_555
C15 C16 1_555 1_555

#END
