
#######################################################################
#
#                 Cambridge Crystallographic Data Centre
#                                CCDC 
#
#######################################################################
#
# If this CIF has been generated from an entry in the Cambridge 
# Structural Database, then it will include bibliographic, chemical, 
# crystal, experimental, refinement or atomic coordinate data resulting 
# from the CCDC's data processing and validation procedures.
#
#######################################################################

data_PATZUH
_chemical_name_common            
'(E)-2,4-dichlorobenzaldehyde O-cyclopropanecarbonyl oxime'
_chemical_formula_moiety         'C11 H9 Cl2 N1 O2'
_chemical_name_systematic        
'(E)-(2,4-Dichlorobenzylidene)amino cyclopropanecarboxylate'
_symmetry_cell_setting           triclinic
_symmetry_space_group_name_H-M   'P -1'
_symmetry_Int_Tables_number      2
_space_group_name_Hall           '-P 1'
loop_
_symmetry_equiv_pos_site_id
_symmetry_equiv_pos_as_xyz
1 x,y,z
2 -x,-y,-z
_cell_length_a                   6.4381(13)
_cell_length_b                   7.6030(15)
_cell_length_c                   11.956(2)
_cell_angle_alpha                94.90(3)
_cell_angle_beta                 100.42(3)
_cell_angle_gamma                102.70(3)
_cell_volume                     556.7
_exptl_crystal_colour            colorless
_exptl_crystal_description       block
_cell_formula_units_Z            2
loop_
_atom_site_label
_atom_site_type_symbol
_atom_site_fract_x
_atom_site_fract_y
_atom_site_fract_z
Cl1 Cl 0.32359(6) 0.70035(5) 0.47089(3)
Cl2 Cl 1.15092(6) 0.98054(6) 0.68823(4)
O1 O 0.08882(17) 0.30779(16) 0.94813(9)
O2 O 0.00692(16) 0.37138(15) 0.76492(9)
N1 N 0.2306(2) 0.46280(18) 0.78101(11)
C1 C -0.3868(2) 0.2548(2) 0.94150(14)
H1 H -0.2971 0.3293 1.0106
H2 H -0.5348 0.2689 0.9234
C2 C -0.3504(3) 0.0724(2) 0.91336(14)
H3 H -0.4764 -0.0249 0.8783
H4 H -0.2388 0.0354 0.9655
C3 C -0.2777(2) 0.2198(2) 0.84222(14)
H5 H -0.3629 0.2113 0.7644
C4 C -0.0426(2) 0.3004(2) 0.86199(13)
C5 C 0.2637(2) 0.5304(2) 0.69054(14)
H6 H 0.1511 0.5129 0.6268
C6 C 0.4823(2) 0.6365(2) 0.68810(14)
C7 C 0.5265(3) 0.7218(2) 0.59348(13)
C8 C 0.7305(2) 0.8271(2) 0.59131(13)
H7 H 0.7566 0.8836 0.5275
C9 C 0.8947(2) 0.8453(2) 0.68750(14)
C10 C 0.8595(3) 0.7612(2) 0.78232(14)
H8 H 0.9725 0.7736 0.8453
C11 C 0.6539(2) 0.6579(2) 0.78256(14)
H9 H 0.6293 0.6016 0.8466
loop_
_geom_bond_atom_site_label_1
_geom_bond_atom_site_label_2
_geom_bond_site_symmetry_1
_geom_bond_site_symmetry_2
Cl1 C7 1_555 1_555
Cl2 C9 1_555 1_555
O1 C4 1_555 1_555
O2 N1 1_555 1_555
N1 C5 1_555 1_555
C1 H1 1_555 1_555
H2 C1 1_555 1_555
C2 C1 1_555 1_555
H3 C2 1_555 1_555
H4 C2 1_555 1_555
C3 C1 1_555 1_555
H5 C3 1_555 1_555
C4 O2 1_555 1_555
C5 H6 1_555 1_555
C6 C5 1_555 1_555
C7 C6 1_555 1_555
C8 C7 1_555 1_555
H7 C8 1_555 1_555
C9 C8 1_555 1_555
C10 C9 1_555 1_555
H8 C10 1_555 1_555
C11 C6 1_555 1_555
H9 C11 1_555 1_555
C2 C3 1_555 1_555
C3 C4 1_555 1_555
C10 C11 1_555 1_555

#END
