
#######################################################################
#
#                 Cambridge Crystallographic Data Centre
#                                CCDC 
#
#######################################################################
#
# If this CIF has been generated from an entry in the Cambridge 
# Structural Database, then it will include bibliographic, chemical, 
# crystal, experimental, refinement or atomic coordinate data resulting 
# from the CCDC's data processing and validation procedures.
#
#######################################################################

data_PATZIW
_chemical_formula_moiety         'C19 H26 N2'
_chemical_name_systematic        (+)-aspidospermidine
_symmetry_cell_setting           orthorhombic
_symmetry_space_group_name_H-M   'P 21 21 21'
_symmetry_Int_Tables_number      19
_space_group_name_Hall           'P 2ac 2ab'
loop_
_symmetry_equiv_pos_site_id
_symmetry_equiv_pos_as_xyz
1 x,y,z
2 1/2-x,-y,1/2+z
3 -x,1/2+y,1/2-z
4 1/2+x,1/2-y,-z
_cell_length_a                   11.1357(16)
_cell_length_b                   12.5468(19)
_cell_length_c                   22.930(3)
_cell_angle_alpha                90
_cell_angle_beta                 90
_cell_angle_gamma                90
_cell_volume                     3203.72
_exptl_crystal_colour            colorless
_exptl_crystal_description       block
_chemical_melting_point          '100-101 deg.C'
_cell_formula_units_Z            8
loop_
_atom_site_label
_atom_site_type_symbol
_atom_site_fract_x
_atom_site_fract_y
_atom_site_fract_z
C1 C 1.1694(4) 1.1246(3) 0.8437(2)
C2 C 1.0498(4) 1.1334(4) 0.8620(2)
H1 H 0.9869 1.1229 0.8359
C3 C 1.0278(5) 1.1578(4) 0.9189(3)
H2 H 0.9489 1.1626 0.9319
C4 C 1.1202(6) 1.1754(4) 0.9574(2)
H3 H 1.1028 1.1928 0.9959
C5 C 1.2409(5) 1.1676(4) 0.9394(2)
H4 H 1.3035 1.1788 0.9656
C6 C 1.2632(4) 1.1427(3) 0.8819(2)
C7 C 1.3797(4) 1.1390(3) 0.84784(19)
C8 C 1.4202(4) 1.2538(4) 0.8324(2)
H5 H 1.3970 1.2718 0.7928
H6 H 1.3844 1.3050 0.8589
C9 C 1.5556(4) 1.2537(4) 0.8385(3)
H7 H 1.5930 1.2877 0.8051
H8 H 1.5799 1.2910 0.8736
C10 C 1.7070(4) 1.1226(4) 0.8664(2)
H9 H 1.7094 1.1491 0.9061
H10 H 1.7673 1.1604 0.8439
C11 C 1.7340(4) 1.0044(4) 0.8658(2)
H11 H 1.8107 0.9914 0.8845
H12 H 1.7391 0.9794 0.8259
C12 C 1.6353(4) 0.9434(4) 0.8980(2)
H13 H 1.6424 0.9584 0.9394
H14 H 1.6490 0.8677 0.8927
C13 C 1.5060(4) 0.9693(3) 0.87862(18)
C14 C 1.4792(4) 0.9260(3) 0.81759(19)
H15 H 1.5385 0.9532 0.7904
H16 H 1.4855 0.8489 0.8180
C15 C 1.3546(4) 0.9575(3) 0.7969(2)
H17 H 1.2955 0.9291 0.8238
H18 H 1.3401 0.9258 0.7589
C16 C 1.3383(4) 1.0778(3) 0.79238(19)
H19 H 1.3822 1.1045 0.7584
C17 C 1.4923(4) 1.0919(3) 0.87678(18)
H20 H 1.4975 1.1193 0.9167
C18 C 1.4202(4) 0.9240(3) 0.9243(2)
H21 H 1.3399 0.9496 0.9160
H22 H 1.4431 0.9514 0.9622
C19 C 1.4170(5) 0.8024(4) 0.9274(2)
H23 H 1.3618 0.7805 0.9572
H24 H 1.4958 0.7760 0.9364
H25 H 1.3915 0.7742 0.8905
N1 N 1.2110(3) 1.1072(3) 0.78742(17)
H26 H 1.1700 1.1125 0.7557
N2 N 1.5892(3) 1.1417(3) 0.84156(17)
N3 N 1.2898(3) 0.5582(3) 0.78262(17)
H27 H 1.3297 0.5533 0.7506
N4 N 0.9133(3) 0.5208(3) 0.83556(17)
C20 C 1.3333(4) 0.5396(3) 0.8385(2)
C21 C 1.4504(4) 0.5343(4) 0.8580(2)
H28 H 1.5140 0.5477 0.8327
C22 C 1.4716(5) 0.5087(4) 0.9157(2)
H29 H 1.5501 0.5068 0.9294
C23 C 1.3803(5) 0.4862(4) 0.9527(2)
H30 H 1.3971 0.4683 0.9912
C24 C 1.2605(5) 0.4898(4) 0.9336(2)
H31 H 1.1977 0.4738 0.9589
C25 C 1.2383(4) 0.5174(3) 0.87670(18)
C26 C 1.1228(4) 0.5225(3) 0.84224(18)
C27 C 1.0810(4) 0.4080(4) 0.8244(2)
H32 H 1.1054 0.3920 0.7848
H33 H 1.1152 0.3550 0.8504
C28 C 0.9470(4) 0.4092(4) 0.8293(3)
H34 H 0.9106 0.3788 0.7946
H35 H 0.9210 0.3684 0.8630
C29 C 0.7956(4) 0.5365(4) 0.8614(2)
H36 H 0.7942 0.5069 0.9005
H37 H 0.7351 0.5003 0.8383
C30 C 0.7685(4) 0.6548(4) 0.8638(2)
H38 H 0.6919 0.6663 0.8829
H39 H 0.7632 0.6831 0.8245
C31 C 0.8681(4) 0.7124(4) 0.8974(2)
H40 H 0.8611 0.6938 0.9383
H41 H 0.8548 0.7886 0.8941
C32 C 0.9977(4) 0.6878(3) 0.87730(19)
C33 C 1.0245(5) 0.7395(3) 0.8181(2)
H42 H 0.9641 0.7176 0.7901
H43 H 1.0205 0.8164 0.8219
C34 C 1.1472(4) 0.7080(4) 0.7961(2)
H44 H 1.2074 0.7335 0.8233
H45 H 1.1614 0.7426 0.7589
C35 C 1.1618(4) 0.5881(3) 0.78857(19)
H46 H 1.1171 0.5643 0.7541
C36 C 1.0088(4) 0.5661(3) 0.87199(19)
H47 H 1.0029 0.5350 0.9111
C37 C 1.0829(4) 0.7273(3) 0.9252(2)
H48 H 1.0638 0.6900 0.9610
H49 H 1.1642 0.7077 0.9144
C38 C 1.0803(5) 0.8474(4) 0.9375(3)
H50 H 1.1364 0.8639 0.9680
H51 H 1.0010 0.8679 0.9495
H52 H 1.1019 0.8857 0.9028
loop_
_geom_bond_atom_site_label_1
_geom_bond_atom_site_label_2
_geom_bond_site_symmetry_1
_geom_bond_site_symmetry_2
C1 C2 1_555 1_555
C2 H1 1_555 1_555
C3 C2 1_555 1_555
H2 C3 1_555 1_555
C4 C3 1_555 1_555
H3 C4 1_555 1_555
C5 C4 1_555 1_555
H4 C5 1_555 1_555
C6 C1 1_555 1_555
C7 C6 1_555 1_555
C8 C7 1_555 1_555
H5 C8 1_555 1_555
H6 C8 1_555 1_555
C9 C8 1_555 1_555
H7 C9 1_555 1_555
H8 C9 1_555 1_555
C10 H9 1_555 1_555
H10 C10 1_555 1_555
C11 C10 1_555 1_555
H11 C11 1_555 1_555
H12 C11 1_555 1_555
C12 C11 1_555 1_555
H13 C12 1_555 1_555
H14 C12 1_555 1_555
C13 C12 1_555 1_555
C14 C13 1_555 1_555
H15 C14 1_555 1_555
H16 C14 1_555 1_555
C15 C14 1_555 1_555
H17 C15 1_555 1_555
H18 C15 1_555 1_555
C16 C7 1_555 1_555
H19 C16 1_555 1_555
C17 C7 1_555 1_555
H20 C17 1_555 1_555
C18 C13 1_555 1_555
H21 C18 1_555 1_555
H22 C18 1_555 1_555
C19 C18 1_555 1_555
H23 C19 1_555 1_555
H24 C19 1_555 1_555
H25 C19 1_555 1_555
N1 C1 1_555 1_555
H26 N1 1_555 1_555
N2 C9 1_555 1_555
N3 H27 1_555 1_555
N4 C28 1_555 1_555
C20 N3 1_555 1_555
C21 C20 1_555 1_555
H28 C21 1_555 1_555
C22 C21 1_555 1_555
H29 C22 1_555 1_555
C23 C22 1_555 1_555
H30 C23 1_555 1_555
C24 C23 1_555 1_555
H31 C24 1_555 1_555
C25 C20 1_555 1_555
C26 C25 1_555 1_555
C27 C26 1_555 1_555
H32 C27 1_555 1_555
H33 C27 1_555 1_555
C28 C27 1_555 1_555
H34 C28 1_555 1_555
H35 C28 1_555 1_555
C29 N4 1_555 1_555
H36 C29 1_555 1_555
H37 C29 1_555 1_555
C30 C29 1_555 1_555
H38 C30 1_555 1_555
H39 C30 1_555 1_555
C31 C30 1_555 1_555
H40 C31 1_555 1_555
H41 C31 1_555 1_555
C32 C31 1_555 1_555
C33 C32 1_555 1_555
H42 C33 1_555 1_555
H43 C33 1_555 1_555
C34 C33 1_555 1_555
H44 C34 1_555 1_555
H45 C34 1_555 1_555
C35 N3 1_555 1_555
H46 C35 1_555 1_555
C36 N4 1_555 1_555
H47 C36 1_555 1_555
C37 C32 1_555 1_555
H48 C37 1_555 1_555
H49 C37 1_555 1_555
C38 C37 1_555 1_555
H50 C38 1_555 1_555
H51 C38 1_555 1_555
H52 C38 1_555 1_555
C5 C6 1_555 1_555
C10 N2 1_555 1_555
C13 C17 1_555 1_555
C15 C16 1_555 1_555
C16 N1 1_555 1_555
C17 N2 1_555 1_555
C24 C25 1_555 1_555
C26 C35 1_555 1_555
C26 C36 1_555 1_555
C32 C36 1_555 1_555
C34 C35 1_555 1_555

#END
