
#######################################################################
#
#                 Cambridge Crystallographic Data Centre
#                                CCDC 
#
#######################################################################
#
# If this CIF has been generated from an entry in the Cambridge 
# Structural Database, then it will include bibliographic, chemical, 
# crystal, experimental, refinement or atomic coordinate data resulting 
# from the CCDC's data processing and validation procedures.
#
#######################################################################

data_PATZOC
_chemical_formula_moiety         'C27 H23 N1 O3 S1'
_chemical_name_systematic        
(S,E)-3-(5,5-dioxido-9-phenyl-8,9-dihydro-7H-pyrido[1,2-b][1,2]benzothiazol-7-ylidene)-4-phenylbutan-2-one
_symmetry_cell_setting           orthorhombic
_symmetry_space_group_name_H-M   'P 21 21 21'
_symmetry_Int_Tables_number      19
_space_group_name_Hall           'P 2ac 2ab'
loop_
_symmetry_equiv_pos_site_id
_symmetry_equiv_pos_as_xyz
1 x,y,z
2 1/2+x,1/2-y,-z
3 -x,1/2+y,1/2-z
4 1/2-x,-y,1/2+z
_cell_length_a                   11.4379(6)
_cell_length_b                   12.8956(7)
_cell_length_c                   15.0848(8)
_cell_angle_alpha                90
_cell_angle_beta                 90
_cell_angle_gamma                90
_cell_volume                     2224.99
_exptl_crystal_colour            colorless
_exptl_crystal_description       Block
_cell_formula_units_Z            4
loop_
_atom_site_label
_atom_site_type_symbol
_atom_site_fract_x
_atom_site_fract_y
_atom_site_fract_z
S1 S 0.31389(3) 0.42910(3) 0.09266(2)
O1 O 0.40782(10) 0.35737(9) 0.07739(8)
O2 O 0.24364(10) 0.45601(9) 0.01720(7)
O3 O 0.08910(10) 0.08076(9) 0.11937(8)
N1 N 0.22975(11) 0.38928(9) 0.17839(8)
C1 C 0.34103(12) 0.52433(11) 0.24180(10)
C2 C 0.37744(14) 0.59986(12) 0.30181(10)
H1 H 0.3662 0.5909 0.3637
C3 C 0.43076(14) 0.68882(12) 0.26866(11)
H2 H 0.4551 0.7416 0.3085
C4 C 0.44910(14) 0.70176(13) 0.17766(12)
H3 H 0.4852 0.7634 0.1568
C5 C 0.41551(13) 0.62629(13) 0.11748(11)
H4 H 0.4290 0.6341 0.0557
C6 C 0.36128(13) 0.53870(11) 0.15157(10)
C7 C 0.28087(12) 0.42582(11) 0.25956(9)
C8 C 0.27746(13) 0.37345(12) 0.33573(9)
H5 H 0.3035 0.4063 0.3885
C9 C 0.23359(14) 0.26396(11) 0.34010(10)
H6 H 0.2899 0.2238 0.3775
C10 C 0.23695(13) 0.21646(11) 0.24587(9)
H7 H 0.3192 0.2051 0.2279
H8 H 0.1970 0.1484 0.2463
C11 C 0.17817(13) 0.28685(10) 0.17985(9)
C12 C 0.08136(13) 0.26415(11) 0.13341(10)
C13 C 0.01604(13) 0.33656(12) 0.07180(10)
H9 H 0.0040 0.3008 0.0145
H10 H 0.0657 0.3980 0.0604
C14 C -0.10196(13) 0.37355(11) 0.10570(10)
C15 C -0.11479(14) 0.40774(11) 0.19294(10)
H11 H -0.0491 0.4076 0.2315
C16 C -0.22237(14) 0.44192(12) 0.22424(10)
H12 H -0.2304 0.4629 0.2843
C17 C -0.31787(15) 0.44543(13) 0.16779(11)
H13 H -0.3913 0.4695 0.1889
C18 C -0.30600(15) 0.41373(15) 0.08023(12)
H14 H -0.3711 0.4170 0.0412
C19 C -0.19879(14) 0.37710(13) 0.04952(11)
H15 H -0.1916 0.3544 -0.0101
C20 C 0.03225(14) 0.15567(12) 0.14157(10)
C21 C -0.08915(17) 0.14437(14) 0.17788(16)
H16 H -0.1457 0.1707 0.1345
H17 H -0.0960 0.1840 0.2330
H18 H -0.1051 0.0710 0.1898
C22 C 0.11327(14) 0.25214(12) 0.38198(10)
C23 C 0.03322(14) 0.33308(12) 0.38552(10)
H19 H 0.0556 0.4001 0.3655
C24 C -0.07973(15) 0.31720(14) 0.41815(10)
H20 H -0.1340 0.3730 0.4196
C25 C -0.11233(16) 0.22044(15) 0.44825(11)
H21 H -0.1897 0.2089 0.4689
C26 C -0.03153(19) 0.13964(14) 0.44827(13)
H22 H -0.0531 0.0735 0.4707
C27 C 0.08103(17) 0.15557(13) 0.41541(12)
H23 H 0.1360 0.1003 0.4158
loop_
_geom_bond_atom_site_label_1
_geom_bond_atom_site_label_2
_geom_bond_site_symmetry_1
_geom_bond_site_symmetry_2
S1 O1 1_555 1_555
O2 S1 1_555 1_555
O3 C20 1_555 1_555
N1 S1 1_555 1_555
C1 C2 1_555 1_555
C2 H1 1_555 1_555
C3 C2 1_555 1_555
H2 C3 1_555 1_555
C4 C3 1_555 1_555
H3 C4 1_555 1_555
C5 C4 1_555 1_555
H4 C5 1_555 1_555
C6 S1 1_555 1_555
C7 N1 1_555 1_555
C8 C7 1_555 1_555
H5 C8 1_555 1_555
C9 C8 1_555 1_555
H6 C9 1_555 1_555
C10 C9 1_555 1_555
H7 C10 1_555 1_555
H8 C10 1_555 1_555
C11 N1 1_555 1_555
C12 C11 1_555 1_555
C13 C12 1_555 1_555
H9 C13 1_555 1_555
H10 C13 1_555 1_555
C14 C13 1_555 1_555
C15 C14 1_555 1_555
H11 C15 1_555 1_555
C16 C15 1_555 1_555
H12 C16 1_555 1_555
C17 C16 1_555 1_555
H13 C17 1_555 1_555
C18 C17 1_555 1_555
H14 C18 1_555 1_555
C19 C14 1_555 1_555
H15 C19 1_555 1_555
C20 C12 1_555 1_555
C21 C20 1_555 1_555
H16 C21 1_555 1_555
H17 C21 1_555 1_555
H18 C21 1_555 1_555
C22 C9 1_555 1_555
C23 C22 1_555 1_555
H19 C23 1_555 1_555
C24 C23 1_555 1_555
H20 C24 1_555 1_555
C25 C24 1_555 1_555
H21 C25 1_555 1_555
C26 C25 1_555 1_555
H22 C26 1_555 1_555
C27 C22 1_555 1_555
H23 C27 1_555 1_555
C1 C6 1_555 1_555
C1 C7 1_555 1_555
C5 C6 1_555 1_555
C10 C11 1_555 1_555
C18 C19 1_555 1_555
C26 C27 1_555 1_555

#END
