
#######################################################################
#
#                 Cambridge Crystallographic Data Centre
#                                CCDC 
#
#######################################################################
#
# If this CIF has been generated from an entry in the Cambridge 
# Structural Database, then it will include bibliographic, chemical, 
# crystal, experimental, refinement or atomic coordinate data resulting 
# from the CCDC's data processing and validation procedures.
#
#######################################################################

data_PAVBET
_chemical_formula_moiety         'C22 H24 O5'
_chemical_name_systematic        
2-Acetoxy-3,4-benzo-1,13,13-trimethyl-12-vinylidene-6,8-dioxatricyclo(7.2.2.0^5,9^)tridec-3-en-7-one
_symmetry_cell_setting           triclinic
_symmetry_space_group_name_H-M   'P -1'
_symmetry_Int_Tables_number      2
_space_group_name_Hall           '-P 1'
loop_
_symmetry_equiv_pos_site_id
_symmetry_equiv_pos_as_xyz
1 x,y,z
2 -x,-y,-z
_cell_length_a                   14.113(8)
_cell_length_b                   8.745(5)
_cell_length_c                   7.901(4)
_cell_angle_alpha                97.91(5)
_cell_angle_beta                 99.35(8)
_cell_angle_gamma                77.83(8)
_cell_volume                     935.132
_exptl_crystal_colour            colorless
_exptl_crystal_description       plates
_chemical_melting_point          '180-181 deg.C'
_cell_formula_units_Z            2
_exptl_crystal_recrystallization_method methanol
loop_
_atom_site_label
_atom_site_type_symbol
_atom_site_fract_x
_atom_site_fract_y
_atom_site_fract_z
C1 C 0.1339(5) 0.7371(7) 0.2372(9)
O1 O 0.0314(3) 0.7541(5) 0.2565(6)
C2 C -0.0265(5) 0.8186(8) 0.1209(10)
O2 O -0.1131(4) 0.8586(6) 0.1107(8)
O3 O 0.0248(3) 0.8289(5) -0.0032(6)
C3 C 0.1277(5) 0.7746(7) 0.0459(8)
C4 C 0.1656(5) 0.6376(7) -0.0766(8)
C5 C 0.1022(6) 0.5632(8) -0.1970(9)
C6 C 0.1391(7) 0.4330(9) -0.3081(10)
C7 C 0.2377(7) 0.3768(9) -0.2947(11)
C8 C 0.3010(6) 0.4496(8) -0.1755(10)
C9 C 0.2662(5) 0.5814(7) -0.0647(9)
O4 O 0.3390(3) 0.8121(5) -0.0007(6)
C10 C 0.3420(5) 0.6584(7) 0.0582(9)
C11 C 0.3394(5) 0.6819(7) 0.2570(9)
C12 C 0.4455(6) 0.6652(10) 0.3418(12)
C13 C 0.2819(5) 0.8452(7) 0.3210(8)
C14 C 0.1791(5) 0.8605(5) 0.3663(8)
C15 C 0.1203(6) 1.0281(9) 0.3477(11)
C16 C 0.1817(6) 0.8247(10) 0.5543(10)
C17 C 0.1840(5) 0.5704(8) 0.2714(10)
C18 C 0.2952(5) 0.5482(8) 0.3038(11)
C19 C 0.3236(5) 0.9671(8) 0.3402(9)
C20 C 0.3666(8) 1.0889(10) 0.3560(17)
C21 C 0.4072(6) 0.8239(9) -0.0948(10)
O5 O 0.4727(40) 0.7139(65) -0.1422(99)
C22 C 0.3905(50) 0.9762(61) -0.1520(48)
H1 H 0.167 0.886 0.067
H2 H 0.030 0.619 -0.190
H3 H 0.096 0.372 -0.390
H4 H 0.264 0.295 -0.382
H5 H 0.375 0.395 -0.167
H6 H 0.410 0.596 0.046
H7 H 0.166 0.506 0.182
H8 H 0.163 0.559 0.374
H9 H 0.332 0.451 0.232
H10 H 0.311 0.545 0.412
H11 H 0.054 1.041 0.366
H12 H 0.109 1.051 0.208
H13 H 0.154 1.088 0.429
H14 H 0.111 0.804 0.574
H15 H 0.206 0.915 0.629
H16 H 0.239 0.708 0.581
H17 H 0.357 1.141 0.233
H18 H 0.412 1.112 0.490
H19 H 0.481 0.732 0.276
H20 H 0.480 0.564 0.304
H21 H 0.445 0.680 0.469
H22 H 0.414 1.051 -0.229
H26 H 0.394 1.001 -0.015
H27 H 0.320 0.946 -0.182
O6? O 0.4757(32) 0.7375(88) -0.0959(99)
C23? C 0.3685(62) 1.0162(86) -0.1491(89)
H23? H 0.372 0.890 -0.234
H24? H 0.447 0.944 -0.067
H25? H 0.361 1.108 -0.177
loop_
_geom_bond_atom_site_label_1
_geom_bond_atom_site_label_2
_geom_bond_site_symmetry_1
_geom_bond_site_symmetry_2
C1 O1 1_555 1_555
O1 C2 1_555 1_555
C2 O2 1_555 1_555
O3 C2 1_555 1_555
C3 C1 1_555 1_555
C4 C3 1_555 1_555
C5 C4 1_555 1_555
C6 C5 1_555 1_555
C7 C6 1_555 1_555
C8 C7 1_555 1_555
C9 C4 1_555 1_555
O4 C10 1_555 1_555
C10 C9 1_555 1_555
C11 C10 1_555 1_555
C12 C11 1_555 1_555
C13 C11 1_555 1_555
C14 C1 1_555 1_555
C15 C14 1_555 1_555
C16 C14 1_555 1_555
C17 C1 1_555 1_555
C18 C11 1_555 1_555
C19 C13 1_555 1_555
C20 C19 1_555 1_555
C21 O4 1_555 1_555
O5 C21 1_555 1_555
C22 C21 1_555 1_555
H1 C3 1_555 1_555
H2 C5 1_555 1_555
H3 C6 1_555 1_555
H4 C7 1_555 1_555
H5 C8 1_555 1_555
H6 C10 1_555 1_555
H7 C17 1_555 1_555
H8 C17 1_555 1_555
H9 C18 1_555 1_555
H10 C18 1_555 1_555
H11 C15 1_555 1_555
H12 C15 1_555 1_555
H13 C15 1_555 1_555
H14 C16 1_555 1_555
H15 C16 1_555 1_555
H16 C16 1_555 1_555
H17 C20 1_555 1_555
H18 C20 1_555 1_555
H19 C12 1_555 1_555
H20 C12 1_555 1_555
H21 C12 1_555 1_555
H22 C22 1_555 1_555
H26 C22 1_555 1_555
H27 C22 1_555 1_555
O3 C3 1_555 1_555
C8 C9 1_555 1_555
C13 C14 1_555 1_555
C17 C18 1_555 1_555

#END
