
#######################################################################
#
#                 Cambridge Crystallographic Data Centre
#                                CCDC 
#
#######################################################################
#
# If this CIF has been generated from an entry in the Cambridge 
# Structural Database, then it will include bibliographic, chemical, 
# crystal, experimental, refinement or atomic coordinate data resulting 
# from the CCDC's data processing and validation procedures.
#
#######################################################################

data_PAVCIB
_chemical_formula_moiety         'C67 H61 B2 N1 O1'
_chemical_name_systematic        
2,7-bis(dimesitylboryl)spiro[fluorene-9,9'-quinolino[3,2,1-kl]phenoxazine]
_symmetry_cell_setting           triclinic
_symmetry_space_group_name_H-M   'P -1'
_symmetry_Int_Tables_number      2
_space_group_name_Hall           '-P 1'
loop_
_symmetry_equiv_pos_site_id
_symmetry_equiv_pos_as_xyz
1 x,y,z
2 -x,-y,-z
_cell_length_a                   11.871(6)
_cell_length_b                   13.699(7)
_cell_length_c                   17.145(9)
_cell_angle_alpha                74.499(14)
_cell_angle_beta                 76.450(14)
_cell_angle_gamma                89.010(14)
_cell_volume                     2608.87
_exptl_crystal_colour            yellow
_exptl_crystal_description       block
_cell_formula_units_Z            2
loop_
_atom_site_label
_atom_site_type_symbol
_atom_site_fract_x
_atom_site_fract_y
_atom_site_fract_z
O1 O 0.4086(3) 0.2470(3) 0.0909(2)
N1 N 0.5165(3) 0.2460(2) 0.2167(2)
C1 C 0.4157(3) 0.3381(3) 0.1149(3)
C2 C 0.4710(3) 0.3371(3) 0.1775(2)
C3 C 0.4674(3) 0.1526(3) 0.2166(3)
C4 C 0.4130(5) 0.1564(4) 0.1514(4)
C5 C 0.3594(5) 0.0705(4) 0.1455(4)
H1 H 0.3206 0.0723 0.1026
C6 C 0.3665(5) -0.0254(4) 0.2111(4)
H2 H 0.3284 -0.0858 0.2111
C7 C 0.4198(7) -0.0282(5) 0.2643(6)
H3 H 0.4252 -0.0913 0.3029
C8 C 0.4741(6) 0.0604(5) 0.2700(5)
H4 H 0.5157 0.0552 0.3119
C9 C 0.6134(4) 0.2529(3) 0.2493(2)
C10 C 0.6316(3) 0.3379(3) 0.2748(2)
C11 C 0.5409(3) 0.4196(3) 0.2735(2)
C12 C 0.4853(3) 0.4247(3) 0.2008(2)
C13 C 0.4412(3) 0.5136(3) 0.1603(3)
H5 H 0.4495 0.5745 0.1754
C14 C 0.3850(4) 0.5133(3) 0.0980(3)
H6 H 0.3555 0.5743 0.0703
C15 C 0.3715(4) 0.4254(3) 0.0757(3)
H7 H 0.3318 0.4255 0.0336
C16 C 0.5904(3) 0.5228(3) 0.2698(2)
C17 C 0.5329(3) 0.5566(3) 0.3382(2)
C18 C 0.4434(3) 0.4783(3) 0.3917(2)
C19 C 0.4468(3) 0.3982(3) 0.3558(2)
C20 C 0.3692(3) 0.3151(3) 0.3924(2)
H8 H 0.3748 0.2592 0.3690
C21 C 0.2821(3) 0.3137(3) 0.4642(2)
C22 C 0.2808(3) 0.3955(3) 0.4996(2)
H9 H 0.2231 0.3949 0.5486
C23 C 0.3616(3) 0.4772(3) 0.4650(2)
H10 H 0.3609 0.5307 0.4908
C24 C 0.2246(3) 0.1165(3) 0.4880(2)
C25 C 0.3108(4) 0.0642(3) 0.5240(3)
C26 C 0.3336(4) -0.0339(3) 0.5193(3)
H11 H 0.3904 -0.0689 0.5455
C27 C 0.2762(4) -0.0824(4) 0.4775(3)
C28 C 0.1949(4) -0.0296(4) 0.4395(3)
H12 H 0.1559 -0.0610 0.4094
C29 C 0.1681(4) 0.0678(4) 0.4439(3)
C30 C 0.0798(4) 0.1226(4) 0.3988(3)
H13 H 0.0170 0.1432 0.4387
H14 H 0.0480 0.0772 0.3729
H15 H 0.1175 0.1829 0.3556
C31 C 0.3022(5) -0.1907(4) 0.4751(3)
H16 H 0.3364 -0.1919 0.4175
H17 H 0.2301 -0.2331 0.4965
H18 H 0.3568 -0.2170 0.5096
C32 C 0.3746(4) 0.1096(3) 0.5738(3)
H19 H 0.3804 0.1836 0.5520
H20 H 0.4527 0.0836 0.5691
H21 H 0.3321 0.0909 0.6324
C33 C 0.0651(3) 0.2427(3) 0.5511(3)
C34 C 0.0159(3) 0.1817(3) 0.6333(3)
C35 C -0.0843(3) 0.2091(3) 0.6819(3)
H22 H -0.1145 0.1678 0.7369
C36 C -0.1409(3) 0.2944(4) 0.6521(3)
C37 C -0.0986(4) 0.3496(4) 0.5698(3)
H23 H -0.1401 0.4059 0.5472
C38 C 0.0019(4) 0.3262(3) 0.5192(3)
C39 C 0.0363(4) 0.3887(4) 0.4286(3)
H24 H 0.1122 0.4234 0.4177
H25 H -0.0217 0.4391 0.4177
H26 H 0.0407 0.3440 0.3920
C40 C -0.2481(4) 0.3244(4) 0.7068(3)
H27 H -0.3176 0.2980 0.6961
H28 H -0.2488 0.3985 0.6941
H29 H -0.2472 0.2960 0.7655
C41 C 0.0712(4) 0.0856(3) 0.6714(3)
H30 H 0.0907 0.0451 0.6313
H31 H 0.0166 0.0461 0.7219
H32 H 0.1419 0.1034 0.6858
C42 C 0.5606(3) 0.6524(3) 0.3434(2)
H33 H 0.5228 0.6757 0.3899
C43 C 0.6449(3) 0.7134(3) 0.2792(2)
H34 H 0.6625 0.7796 0.2818
C44 C 0.7048(3) 0.6806(3) 0.2106(2)
C45 C 0.6771(3) 0.5828(3) 0.2079(2)
H35 H 0.7181 0.5576 0.1632
C46 C 0.8982(3) 0.7030(3) 0.0845(2)
C47 C 0.9228(3) 0.7254(3) -0.0035(3)
C48 C 1.0105(3) 0.6787(3) -0.0466(3)
H36 H 1.0228 0.6936 -0.1055
C49 C 1.0807(3) 0.6115(3) -0.0077(3)
C50 C 1.0599(3) 0.5910(3) 0.0786(3)
H37 H 1.1081 0.5459 0.1068
C51 C 0.9706(3) 0.6346(3) 0.1249(3)
C52 C 0.9577(4) 0.6088(3) 0.2185(3)
H38 H 0.9328 0.6683 0.2383
H39 H 1.0324 0.5887 0.2313
H40 H 0.8997 0.5527 0.2463
C53 C 1.1770(3) 0.5635(3) -0.0568(3)
H41 H 1.1764 0.5856 -0.1159
H42 H 1.1657 0.4895 -0.0368
H43 H 1.2517 0.5841 -0.0495
C54 C 0.8520(3) 0.7971(3) -0.0546(3)
H44 H 0.7696 0.7760 -0.0330
H45 H 0.8765 0.7954 -0.1129
H46 H 0.8642 0.8661 -0.0509
C55 C 0.7705(3) 0.8671(3) 0.1090(2)
C56 C 0.6656(3) 0.9001(3) 0.0892(3)
C57 C 0.6507(4) 1.0032(3) 0.0603(3)
H47 H 0.5813 1.0243 0.0437
C58 C 0.7334(4) 1.0763(3) 0.0550(3)
C59 C 0.8343(4) 1.0434(3) 0.0778(3)
H48 H 0.8912 1.0922 0.0764
C60 C 0.8553(3) 0.9413(3) 0.1027(2)
C61 C 0.9715(3) 0.9093(3) 0.1212(3)
H49 H 0.9589 0.8550 0.1734
H50 H 1.0129 0.9675 0.1267
H51 H 1.0178 0.8848 0.0756
C62 C 0.7151(4) 1.1881(3) 0.0230(3)
H52 H 0.6398 1.1966 0.0084
H53 H 0.7770 1.2181 -0.0265
H54 H 0.7165 1.2220 0.0664
C63 C 0.5685(3) 0.8262(3) 0.0937(3)
H55 H 0.6000 0.7764 0.0637
H56 H 0.5092 0.8635 0.0682
H57 H 0.5336 0.7912 0.1521
C64 C 0.7313(3) 0.3457(3) 0.3021(2)
H58 H 0.7450 0.4033 0.3201
C65 C 0.8113(4) 0.2706(3) 0.3036(3)
H59 H 0.8790 0.2773 0.3226
C66 C 0.7934(4) 0.1868(4) 0.2778(3)
H60 H 0.8484 0.1355 0.2790
C67 C 0.6948(4) 0.1774(3) 0.2500(3)
H61 H 0.6822 0.1199 0.2314
B1 B 0.1889(4) 0.2238(4) 0.5007(3)
B2 B 0.7950(4) 0.7508(3) 0.1346(3)
O2? O 0.6393(8) 0.0870(6) 0.2412(6)
H62? H 0.4083 0.2777 0.0989
C68? C 0.5259(16) 0.0743(12) 0.2363(11)
C69? C 0.4864(15) -0.0230(12) 0.2426(10)
H63? H 0.5250 -0.0822 0.2631
H64? H 0.3499 -0.0725 0.1830
C70? C 0.3017(13) 0.0389(10) 0.2273(10)
H65? H 0.2204 0.0240 0.2428
C71? C 0.3435(11) 0.1336(9) 0.2238(9)
H66? H 0.2918 0.1870 0.2261
loop_
_geom_bond_atom_site_label_1
_geom_bond_atom_site_label_2
_geom_bond_site_symmetry_1
_geom_bond_site_symmetry_2
O1 C1 1_555 1_555
N1 C2 1_555 1_555
C1 C2 1_555 1_555
C2 C12 1_555 1_555
C3 N1 1_555 1_555
C4 O1 1_555 1_555
C5 C4 1_555 1_555
H1 C5 1_555 1_555
C6 C5 1_555 1_555
H2 C6 1_555 1_555
C7 C6 1_555 1_555
H3 C7 1_555 1_555
C8 C3 1_555 1_555
H4 C8 1_555 1_555
C9 N1 1_555 1_555
C10 C9 1_555 1_555
C11 C10 1_555 1_555
C12 C11 1_555 1_555
C13 C12 1_555 1_555
H5 C13 1_555 1_555
C14 C13 1_555 1_555
H6 C14 1_555 1_555
C15 C1 1_555 1_555
H7 C15 1_555 1_555
C16 C11 1_555 1_555
C17 C16 1_555 1_555
C18 C17 1_555 1_555
C19 C11 1_555 1_555
C20 C19 1_555 1_555
H8 C20 1_555 1_555
C21 C20 1_555 1_555
C22 C21 1_555 1_555
H9 C22 1_555 1_555
C23 C18 1_555 1_555
H10 C23 1_555 1_555
C24 C25 1_555 1_555
C25 C26 1_555 1_555
C26 H11 1_555 1_555
C27 C26 1_555 1_555
C28 C27 1_555 1_555
H12 C28 1_555 1_555
C29 C24 1_555 1_555
C30 C29 1_555 1_555
H13 C30 1_555 1_555
H14 C30 1_555 1_555
H15 C30 1_555 1_555
C31 C27 1_555 1_555
H16 C31 1_555 1_555
H17 C31 1_555 1_555
H18 C31 1_555 1_555
C32 C25 1_555 1_555
H19 C32 1_555 1_555
H20 C32 1_555 1_555
H21 C32 1_555 1_555
C33 C34 1_555 1_555
C34 C35 1_555 1_555
C35 H22 1_555 1_555
C36 C35 1_555 1_555
C37 C36 1_555 1_555
H23 C37 1_555 1_555
C38 C33 1_555 1_555
C39 C38 1_555 1_555
H24 C39 1_555 1_555
H25 C39 1_555 1_555
H26 C39 1_555 1_555
C40 C36 1_555 1_555
H27 C40 1_555 1_555
H28 C40 1_555 1_555
H29 C40 1_555 1_555
C41 C34 1_555 1_555
H30 C41 1_555 1_555
H31 C41 1_555 1_555
H32 C41 1_555 1_555
C42 C17 1_555 1_555
H33 C42 1_555 1_555
C43 C42 1_555 1_555
H34 C43 1_555 1_555
C44 C43 1_555 1_555
C45 C16 1_555 1_555
H35 C45 1_555 1_555
C46 C47 1_555 1_555
C47 C48 1_555 1_555
C48 H36 1_555 1_555
C49 C48 1_555 1_555
C50 C49 1_555 1_555
H37 C50 1_555 1_555
C51 C46 1_555 1_555
C52 C51 1_555 1_555
H38 C52 1_555 1_555
H39 C52 1_555 1_555
H40 C52 1_555 1_555
C53 C49 1_555 1_555
H41 C53 1_555 1_555
H42 C53 1_555 1_555
H43 C53 1_555 1_555
C54 C47 1_555 1_555
H44 C54 1_555 1_555
H45 C54 1_555 1_555
H46 C54 1_555 1_555
C55 C56 1_555 1_555
C56 C57 1_555 1_555
C57 H47 1_555 1_555
C58 C57 1_555 1_555
C59 C58 1_555 1_555
H48 C59 1_555 1_555
C60 C55 1_555 1_555
C61 C60 1_555 1_555
H49 C61 1_555 1_555
H50 C61 1_555 1_555
H51 C61 1_555 1_555
C62 C58 1_555 1_555
H52 C62 1_555 1_555
H53 C62 1_555 1_555
H54 C62 1_555 1_555
C63 C56 1_555 1_555
H55 C63 1_555 1_555
H56 C63 1_555 1_555
H57 C63 1_555 1_555
C64 C10 1_555 1_555
H58 C64 1_555 1_555
C65 C64 1_555 1_555
H59 C65 1_555 1_555
C66 C65 1_555 1_555
H60 C66 1_555 1_555
C67 C9 1_555 1_555
H61 C67 1_555 1_555
B1 C21 1_555 1_555
B2 C44 1_555 1_555
C3 C4 1_555 1_555
C7 C8 1_555 1_555
C14 C15 1_555 1_555
C18 C19 1_555 1_555
C22 C23 1_555 1_555
C24 B1 1_555 1_555
C28 C29 1_555 1_555
C33 B1 1_555 1_555
C37 C38 1_555 1_555
C44 C45 1_555 1_555
C46 B2 1_555 1_555
C50 C51 1_555 1_555
C55 B2 1_555 1_555
C59 C60 1_555 1_555
C66 C67 1_555 1_555

#END
