
#######################################################################
#
#                 Cambridge Crystallographic Data Centre
#                                CCDC 
#
#######################################################################
#
# If this CIF has been generated from an entry in the Cambridge 
# Structural Database, then it will include bibliographic, chemical, 
# crystal, experimental, refinement or atomic coordinate data resulting 
# from the CCDC's data processing and validation procedures.
#
#######################################################################

data_PAVDUN
_chemical_name_common            14,15-Didehydrohellebrigenin
_chemical_formula_moiety         'C24 H30 O5'
_chemical_name_systematic        3,5-Dihydroxy-19-oxobufa-14,20,22-trienolide
_symmetry_cell_setting           monoclinic
_symmetry_space_group_name_H-M   'P 21'
_symmetry_Int_Tables_number      4
_space_group_name_Hall           'P 2yb'
loop_
_symmetry_equiv_pos_site_id
_symmetry_equiv_pos_as_xyz
1 x,y,z
2 -x,1/2+y,-z
_cell_length_a                   10.7628(4)
_cell_length_b                   6.6016(2)
_cell_length_c                   14.6376(5)
_cell_angle_alpha                90
_cell_angle_beta                 94.224(3)
_cell_angle_gamma                90
_cell_volume                     1037.2
_exptl_crystal_colour            colorless
_exptl_crystal_description       prism
_cell_formula_units_Z            2
loop_
_atom_site_label
_atom_site_type_symbol
_atom_site_fract_x
_atom_site_fract_y
_atom_site_fract_z
O1 O 0.40415(18) 0.7669(4) 1.06950(14)
O2 O 0.3968(2) 0.9967(4) 0.91061(15)
O3 O 0.1076(3) 1.2425(4) 0.8935(2)
O4 O -0.6574(2) 0.2486(7) 0.5959(2)
O5 O -0.4844(3) 0.2651(7) 0.69025(19)
C1 C 0.1594(2) 0.8911(5) 0.98577(16)
C2 C 0.1910(3) 0.6866(5) 1.02785(18)
C3 C 0.3250(3) 0.6280(5) 1.01530(18)
C4 C 0.3517(3) 0.6385(5) 0.91490(19)
C5 C 0.3174(2) 0.8405(5) 0.86880(19)
C6 C 0.3428(3) 0.8346(7) 0.7677(2)
C7 C 0.2526(3) 0.6979(6) 0.71152(19)
C8 C 0.1166(2) 0.7489(5) 0.72275(17)
C9 C 0.0893(2) 0.7573(5) 0.82503(16)
C10 C 0.1798(2) 0.9001(4) 0.88277(16)
C11 C -0.0483(2) 0.8023(5) 0.83501(19)
C12 C -0.1299(2) 0.6349(5) 0.79095(17)
C13 C -0.1110(2) 0.6065(5) 0.68901(16)
C14 C 0.0279(2) 0.6028(5) 0.67349(16)
C15 C 0.0524(3) 0.4602(6) 0.61287(19)
C16 C -0.0631(3) 0.3465(6) 0.5790(2)
C17 C -0.1499(3) 0.3905(5) 0.65465(18)
C18 C -0.1773(3) 0.7733(6) 0.6318(2)
C19 C 0.1572(3) 1.1166(5) 0.8511(2)
C20 C -0.2876(3) 0.3558(5) 0.63458(18)
C21 C -0.3594(3) 0.3021(8) 0.7029(2)
C22 C -0.3499(3) 0.3797(7) 0.5489(2)
C23 C -0.4722(3) 0.3462(7) 0.5348(2)
C24 C -0.5468(3) 0.2853(7) 0.6046(3)
H1 H 0.47040 0.71120 1.08520
H2 H 0.21060 0.99380 1.01750
H3 H 0.07300 0.92230 0.99440
H4 H 0.40780 0.97540 0.96580
H5 H 0.13570 0.58490 0.99960
H6 H 0.17820 0.69050 1.09270
H7 H 0.34000 0.48970 1.03780
H8 H 0.30580 0.53130 0.88210
H9 H 0.43970 0.61350 0.90990
H10 H 0.33670 0.97090 0.74300
H11 H 0.42710 0.78710 0.76200
H12 H 0.26790 0.55840 0.72980
H13 H 0.26840 0.70970 0.64730
H14 H 0.10020 0.88370 0.69650
H15 H 0.10440 0.62050 0.84930
H16 H -0.06290 0.81300 0.89940
H17 H -0.07020 0.93080 0.80600
H18 H -0.21660 0.66700 0.79790
H19 H -0.11100 0.50860 0.82290
H20 H 0.13140 0.43410 0.59380
H21 H -0.04700 0.20260 0.57370
H22 H -0.09700 0.39790 0.52020
H23 H -0.12410 0.29820 0.70490
H24 H -0.26480 0.76990 0.64050
H25 H -0.16490 0.75220 0.56830
H26 H -0.14390 0.90280 0.65080
H27 H 0.18410 1.15340 0.79450
H28 H -0.32140 0.28980 0.76170
H29 H -0.30540 0.42010 0.49990
H30 H -0.50960 0.36410 0.47610
loop_
_geom_bond_atom_site_label_1
_geom_bond_atom_site_label_2
_geom_bond_site_symmetry_1
_geom_bond_site_symmetry_2
O1 C3 1_555 1_555
O2 C5 1_555 1_555
O3 C19 1_555 1_555
O4 C24 1_555 1_555
O5 C21 1_555 1_555
C1 C2 1_555 1_555
C2 C3 1_555 1_555
C3 C4 1_555 1_555
C4 C5 1_555 1_555
C5 C6 1_555 1_555
C6 C7 1_555 1_555
C7 C8 1_555 1_555
C8 C9 1_555 1_555
C9 C10 1_555 1_555
C10 C1 1_555 1_555
C11 C9 1_555 1_555
C12 C11 1_555 1_555
C13 C12 1_555 1_555
C14 C8 1_555 1_555
C15 C14 1_555 1_555
C16 C15 1_555 1_555
C17 C13 1_555 1_555
C18 C13 1_555 1_555
C19 C10 1_555 1_555
C20 C17 1_555 1_555
C21 C20 1_555 1_555
C22 C20 1_555 1_555
C23 C22 1_555 1_555
C24 O5 1_555 1_555
H1 O1 1_555 1_555
H2 C1 1_555 1_555
H3 C1 1_555 1_555
H4 O2 1_555 1_555
H5 C2 1_555 1_555
H6 C2 1_555 1_555
H7 C3 1_555 1_555
H8 C4 1_555 1_555
H9 C4 1_555 1_555
H10 C6 1_555 1_555
H11 C6 1_555 1_555
H12 C7 1_555 1_555
H13 C7 1_555 1_555
H14 C8 1_555 1_555
H15 C9 1_555 1_555
H16 C11 1_555 1_555
H17 C11 1_555 1_555
H18 C12 1_555 1_555
H19 C12 1_555 1_555
H20 C15 1_555 1_555
H21 C16 1_555 1_555
H22 C16 1_555 1_555
H23 C17 1_555 1_555
H24 C18 1_555 1_555
H25 C18 1_555 1_555
H26 C18 1_555 1_555
H27 C19 1_555 1_555
H28 C21 1_555 1_555
H29 C22 1_555 1_555
H30 C23 1_555 1_555
C5 C10 1_555 1_555
C13 C14 1_555 1_555
C16 C17 1_555 1_555
C23 C24 1_555 1_555

#END
