
#######################################################################
#
#                 Cambridge Crystallographic Data Centre
#                                CCDC 
#
#######################################################################
#
# If this CIF has been generated from an entry in the Cambridge 
# Structural Database, then it will include bibliographic, chemical, 
# crystal, experimental, refinement or atomic coordinate data resulting 
# from the CCDC's data processing and validation procedures.
#
#######################################################################

data_PAVFEZ
_chemical_formula_moiety         'C19 H19 N1 O4'
_chemical_name_systematic        
'Methyl (E)-2-((2-[(E)-(hydroxyimino)methyl]phenoxy)methyl)-3-(4-methylphenyl)acrylate'
_symmetry_cell_setting           triclinic
_symmetry_space_group_name_H-M   'P -1'
_symmetry_Int_Tables_number      2
_space_group_name_Hall           '-P 1'
loop_
_symmetry_equiv_pos_site_id
_symmetry_equiv_pos_as_xyz
1 x,y,z
2 -x,-y,-z
_cell_length_a                   8.8683(2)
_cell_length_b                   9.3246(2)
_cell_length_c                   11.9259(3)
_cell_angle_alpha                75.200(2)
_cell_angle_beta                 76.453(2)
_cell_angle_gamma                65.1420(10)
_cell_volume                     856.043
_exptl_crystal_colour            white
_exptl_crystal_description       block
_cell_formula_units_Z            2
loop_
_atom_site_label
_atom_site_type_symbol
_atom_site_fract_x
_atom_site_fract_y
_atom_site_fract_z
C1 C 0.30137(15) 0.78709(15) 0.40342(11)
H1 H 0.3839 0.8244 0.3607
C2 C 0.32860(14) 0.61892(14) 0.41323(10)
C3 C 0.24555(17) 0.54149(16) 0.50493(12)
H2 H 0.1701 0.5977 0.5623
C4 C 0.2729(2) 0.38274(18) 0.51246(13)
H3 H 0.2161 0.3325 0.5743
C5 C 0.38495(19) 0.29887(16) 0.42785(13)
H4 H 0.4027 0.1920 0.4326
C6 C 0.47131(16) 0.37155(15) 0.33607(12)
H5 H 0.5470 0.3139 0.2795
C7 C 0.44431(14) 0.53102(13) 0.32886(10)
C8 C 0.64247(16) 0.53394(14) 0.15207(11)
H6 H 0.5849 0.5135 0.1017
H7 H 0.7225 0.4320 0.1859
C9 C 0.73103(15) 0.64103(15) 0.08311(11)
C10 C 0.89857(17) 0.60977(17) 0.11066(13)
C11 C 1.0978(2) 0.4600(3) 0.24022(17)
H8 H 1.1801 0.4565 0.1713
H9 H 1.1307 0.3571 0.2908
H10 H 1.0899 0.5402 0.2807
C12 C 0.67354(16) 0.76491(15) -0.00294(11)
H11 H 0.7450 0.8193 -0.0359
C13 C 0.51907(16) 0.82972(14) -0.05413(11)
C14 C 0.37187(17) 0.80613(17) -0.00162(12)
H12 H 0.3663 0.7467 0.0737
C15 C 0.23412(19) 0.86949(18) -0.05950(14)
H13 H 0.1378 0.8506 -0.0228
C16 C 0.23571(19) 0.96063(17) -0.17098(13)
C17 C 0.3798(2) 0.98842(18) -0.22200(13)
H14 H 0.3833 1.0512 -0.2962
C18 C 0.51779(19) 0.92530(16) -0.16541(12)
H15 H 0.6129 0.9466 -0.2020
C19 C 0.0852(3) 1.0257(3) -0.23393(18)
H16 H 0.0030 0.9840 -0.1886
H17 H 0.1192 0.9937 -0.3093
H18 H 0.0376 1.1408 -0.2440
N1 N 0.16707(14) 0.88269(13) 0.45217(10)
O1 O 0.16721(14) 1.03758(12) 0.43411(11)
H19 H 0.0766 1.0977 0.4635
O2 O 0.52349(11) 0.61418(10) 0.24323(7)
O3 O 0.99150(15) 0.67203(16) 0.05342(13)
O4 O 0.93678(13) 0.49931(16) 0.20693(9)
H20? H 0.0618 0.9382 -0.2433
H21? H -0.0102 1.0945 -0.1890
H22? H 0.1082 1.0858 -0.3096
loop_
_geom_bond_atom_site_label_1
_geom_bond_atom_site_label_2
_geom_bond_site_symmetry_1
_geom_bond_site_symmetry_2
C1 H1 1_555 1_555
C2 C1 1_555 1_555
C3 C2 1_555 1_555
H2 C3 1_555 1_555
C4 C3 1_555 1_555
H3 C4 1_555 1_555
C5 C4 1_555 1_555
H4 C5 1_555 1_555
C6 C5 1_555 1_555
H5 C6 1_555 1_555
C7 C2 1_555 1_555
C8 H6 1_555 1_555
H7 C8 1_555 1_555
C9 C8 1_555 1_555
C10 C9 1_555 1_555
C11 H8 1_555 1_555
H9 C11 1_555 1_555
H10 C11 1_555 1_555
C12 C9 1_555 1_555
H11 C12 1_555 1_555
C13 C12 1_555 1_555
C14 C13 1_555 1_555
H12 C14 1_555 1_555
C15 C14 1_555 1_555
H13 C15 1_555 1_555
C16 C15 1_555 1_555
C17 C16 1_555 1_555
H14 C17 1_555 1_555
C18 C13 1_555 1_555
H15 C18 1_555 1_555
C19 C16 1_555 1_555
H16 C19 1_555 1_555
H17 C19 1_555 1_555
H18 C19 1_555 1_555
N1 C1 1_555 1_555
O1 N1 1_555 1_555
H19 O1 1_555 1_555
O2 C7 1_555 1_555
O3 C10 1_555 1_555
O4 C10 1_555 1_555
C6 C7 1_555 1_555
C8 O2 1_555 1_555
C11 O4 1_555 1_555
C17 C18 1_555 1_555

#END
