
#######################################################################
#
#                 Cambridge Crystallographic Data Centre
#                                CCDC 
#
#######################################################################
#
# If this CIF has been generated from an entry in the Cambridge 
# Structural Database, then it will include bibliographic, chemical, 
# crystal, experimental, refinement or atomic coordinate data resulting 
# from the CCDC's data processing and validation procedures.
#
#######################################################################

data_PAVGEA
_chemical_formula_moiety         'C14 H16 N2 O8,2(H2 O1)'
_chemical_name_systematic        
"2,2',2'',2'''-(1,4-Phenylenedinitrilo)tetraacetic acid dihydrate"
_symmetry_cell_setting           triclinic
_symmetry_space_group_name_H-M   'P -1'
_symmetry_Int_Tables_number      2
_space_group_name_Hall           '-P 1'
loop_
_symmetry_equiv_pos_site_id
_symmetry_equiv_pos_as_xyz
1 x,y,z
2 -x,-y,-z
_cell_length_a                   5.1446(12)
_cell_length_b                   8.4165(19)
_cell_length_c                   9.953(2)
_cell_angle_alpha                76.656(4)
_cell_angle_beta                 88.177(4)
_cell_angle_gamma                85.715(4)
_cell_volume                     418.106
_exptl_crystal_colour            purple
_exptl_crystal_description       block
_cell_formula_units_Z            1
loop_
_atom_site_label
_atom_site_type_symbol
_atom_site_fract_x
_atom_site_fract_y
_atom_site_fract_z
C1 C 0.2990(4) 0.0540(2) 0.58341(19)
C2 C 0.4610(4) 0.1632(2) 0.5005(2)
H1 H 0.4370 0.2740 0.4998
C3 C 0.3429(4) -0.1104(3) 0.5810(2)
H2 H 0.2384 -0.1866 0.6353
C4 C -0.0514(4) -0.0116(3) 0.7566(2)
H3 H -0.1229 -0.0793 0.7021
H4 H -0.1969 0.0462 0.7934
C5 C 0.0940(4) -0.1225(3) 0.8765(2)
C6 C 0.0618(4) 0.2780(3) 0.6670(2)
H5 H -0.1036 0.2976 0.7121
H6 H 0.0541 0.3419 0.5725
C7 C 0.2789(5) 0.3343(3) 0.7411(2)
N1 N 0.1002(3) 0.1069(2) 0.66661(17)
O1 O 0.2911(3) -0.0650(2) 0.92636(16)
H7 H 0.3127 0.0279 0.8814
O2 O 0.0295(4) -0.2586(2) 0.92856(18)
O3 O 0.4170(3) 0.2397(2) 0.82357(17)
O4 O 0.3047(4) 0.4915(2) 0.7071(2)
H8 H 0.4199 0.5141 0.7532
C1A C 0.7010(4) -0.0540(2) 0.41659(19)
C2A C 0.5390(4) -0.1632(2) 0.4995(2)
H1A H 0.5630 -0.2740 0.5002
C3A C 0.6571(4) 0.1104(3) 0.4190(2)
H2A H 0.7616 0.1866 0.3647
C4A C 1.0514(4) 0.0116(3) 0.2434(2)
H3A H 1.1229 0.0793 0.2979
H4A H 1.1969 -0.0462 0.2066
C5A C 0.9060(4) 0.1225(3) 0.1235(2)
C6A C 0.9382(4) -0.2780(3) 0.3330(2)
H5A H 1.1036 -0.2976 0.2879
H6A H 0.9459 -0.3419 0.4275
C7A C 0.7211(5) -0.3343(3) 0.2589(2)
N1A N 0.8998(3) -0.1069(2) 0.33339(17)
O1A O 0.7089(3) 0.0650(2) 0.07364(16)
H7A H 0.6873 -0.0279 0.1186
O2A O 0.9705(4) 0.2586(2) 0.07144(18)
O3A O 0.5830(3) -0.2397(2) 0.17643(17)
O4A O 0.6953(4) -0.4915(2) 0.2929(2)
H8A H 0.5801 -0.5141 0.2468
O5 O 0.6861(4) 0.5278(3) 0.8597(2)
H9 H 0.6992 0.4518 0.9430
H10 H 0.7121 0.6234 0.8727
loop_
_geom_bond_atom_site_label_1
_geom_bond_atom_site_label_2
_geom_bond_site_symmetry_1
_geom_bond_site_symmetry_2
C1 C2 1_555 1_555
C2 H1 1_555 1_555
C3 C1 1_555 1_555
H2 C3 1_555 1_555
C4 H3 1_555 1_555
H4 C4 1_555 1_555
C5 C4 1_555 1_555
C6 H5 1_555 1_555
H6 C6 1_555 1_555
C7 C6 1_555 1_555
N1 C1 1_555 1_555
O1 C5 1_555 1_555
H7 O1 1_555 1_555
O2 C5 1_555 1_555
O3 C7 1_555 1_555
O4 C7 1_555 1_555
H8 O4 1_555 1_555
O5 H9 1_555 1_555
H10 O5 1_555 1_555
C1A C2A 1_555 1_555
C2A C3 1_555 1_555
H1A C2A 1_555 1_555
C3A C2 1_555 1_555
H2A C3A 1_555 1_555
C4A H3A 1_555 1_555
H4A C4A 1_555 1_555
C5A C4A 1_555 1_555
C6A H5A 1_555 1_555
H6A C6A 1_555 1_555
C7A C6A 1_555 1_555
N1A C1A 1_555 1_555
O1A C5A 1_555 1_555
H7A O1A 1_555 1_555
O2A C5A 1_555 1_555
O3A C7A 1_555 1_555
O4A C7A 1_555 1_555
H8A O4A 1_555 1_555
C4 N1 1_555 1_555
C6 N1 1_555 1_555
C1A C3A 1_555 1_555
C4A N1A 1_555 1_555
C6A N1A 1_555 1_555

#END
