
#######################################################################
#
#                 Cambridge Crystallographic Data Centre
#                                CCDC 
#
#######################################################################
#
# If this CIF has been generated from an entry in the Cambridge 
# Structural Database, then it will include bibliographic, chemical, 
# crystal, experimental, refinement or atomic coordinate data resulting 
# from the CCDC's data processing and validation procedures.
#
#######################################################################

data_PAVHUR
_chemical_name_common            N-[2-(2-Hydroxyethoxy)phenethyl]phthalimide
_chemical_formula_moiety         'C18 H17 N1 O4'
_chemical_name_systematic        
2-(2-(2-(2-Hydroxyethoxy)phenyl)ethyl)-1H-isoindole-1,3(2H)-dione
_symmetry_cell_setting           monoclinic
_symmetry_space_group_name_H-M   'P 21/c'
_symmetry_Int_Tables_number      14
_space_group_name_Hall           '-P 2ybc'
loop_
_symmetry_equiv_pos_site_id
_symmetry_equiv_pos_as_xyz
1 x,y,z
2 -x,1/2+y,1/2-z
3 -x,-y,-z
4 x,1/2-y,1/2+z
_cell_length_a                   8.4799(19)
_cell_length_b                   22.954(5)
_cell_length_c                   8.5089(19)
_cell_angle_alpha                90
_cell_angle_beta                 110.077(2)
_cell_angle_gamma                90
_cell_volume                     1555.59
_exptl_crystal_colour            colorless
_exptl_crystal_description       block
_cell_formula_units_Z            4
loop_
_atom_site_label
_atom_site_type_symbol
_atom_site_fract_x
_atom_site_fract_y
_atom_site_fract_z
C1 C 0.3135(3) 0.43925(12) 0.1572(4)
C2 C 0.4828(3) 0.45631(11) 0.2714(4)
C3 C 0.5941(4) 0.49717(13) 0.2529(4)
H1 H 0.5698 0.5191 0.1556
C4 C 0.7434(4) 0.50426(16) 0.3846(6)
H2 H 0.8209 0.5315 0.3757
C5 C 0.7792(4) 0.47205(16) 0.5276(5)
H3 H 0.8809 0.4778 0.6139
C6 C 0.6675(4) 0.43115(14) 0.5464(4)
H4 H 0.6920 0.4091 0.6436
C7 C 0.5189(3) 0.42441(11) 0.4159(4)
C8 C 0.3739(3) 0.38582(11) 0.3991(4)
C9 C 0.0948(3) 0.36841(11) 0.1771(3)
H5 H 0.1011 0.3308 0.2308
H6 H 0.0678 0.3617 0.0581
C10 C -0.0443(3) 0.40388(10) 0.2042(3)
H7 H -0.0109 0.4153 0.3209
H8 H -0.0623 0.4391 0.1373
C11 C -0.2049(3) 0.36999(10) 0.1575(3)
C12 C -0.3276(3) 0.37546(13) 0.0032(3)
H9 H -0.3116 0.4017 -0.0731
C13 C -0.4738(4) 0.34333(15) -0.0424(4)
H10 H -0.5541 0.3475 -0.1484
C14 C -0.4990(4) 0.30551(14) 0.0690(4)
H11 H -0.5974 0.2837 0.0389
C15 C -0.3807(3) 0.29891(12) 0.2265(4)
H12 H -0.3995 0.2733 0.3029
C16 C -0.2334(3) 0.33096(10) 0.2697(3)
C17 C -0.1242(4) 0.29088(13) 0.5486(4)
H13 H -0.1393 0.2507 0.5108
H14 H -0.2202 0.3025 0.5783
C18 C 0.0337(5) 0.29740(15) 0.6943(4)
H15 H 0.0512 0.3383 0.7242
H16 H 0.0229 0.2766 0.7892
N1 N 0.2576(2) 0.39694(9) 0.2431(3)
O1 O 0.2337(3) 0.45710(10) 0.0197(3)
O2 O 0.3549(3) 0.35172(9) 0.4993(3)
O3 O -0.1065(2) 0.32785(8) 0.4213(2)
O4 O 0.1750(3) 0.27578(10) 0.6595(3)
H17 H 0.2069 0.3003 0.6069
loop_
_geom_bond_atom_site_label_1
_geom_bond_atom_site_label_2
_geom_bond_site_symmetry_1
_geom_bond_site_symmetry_2
C1 C2 1_555 1_555
C2 C3 1_555 1_555
C3 H1 1_555 1_555
C4 C3 1_555 1_555
H2 C4 1_555 1_555
C5 C4 1_555 1_555
H3 C5 1_555 1_555
C6 C5 1_555 1_555
H4 C6 1_555 1_555
C7 C2 1_555 1_555
C8 C7 1_555 1_555
C9 H5 1_555 1_555
H6 C9 1_555 1_555
C10 C9 1_555 1_555
H7 C10 1_555 1_555
H8 C10 1_555 1_555
C11 C10 1_555 1_555
C12 C11 1_555 1_555
H9 C12 1_555 1_555
C13 C12 1_555 1_555
H10 C13 1_555 1_555
C14 C13 1_555 1_555
H11 C14 1_555 1_555
C15 C14 1_555 1_555
H12 C15 1_555 1_555
C16 C11 1_555 1_555
C17 H13 1_555 1_555
H14 C17 1_555 1_555
C18 C17 1_555 1_555
H15 C18 1_555 1_555
H16 C18 1_555 1_555
N1 C1 1_555 1_555
O1 C1 1_555 1_555
O2 C8 1_555 1_555
O3 C16 1_555 1_555
O4 C18 1_555 1_555
H17 O4 1_555 1_555
C6 C7 1_555 1_555
C8 N1 1_555 1_555
C9 N1 1_555 1_555
C15 C16 1_555 1_555
C17 O3 1_555 1_555

#END
