
#######################################################################
#
#                 Cambridge Crystallographic Data Centre
#                                CCDC 
#
#######################################################################
#
# If this CIF has been generated from an entry in the Cambridge 
# Structural Database, then it will include bibliographic, chemical, 
# crystal, experimental, refinement or atomic coordinate data resulting 
# from the CCDC's data processing and validation procedures.
#
#######################################################################

data_PAVLED
_chemical_formula_moiety         'C42 H24 O6,2(C1 H1 Cl3)'
_chemical_name_systematic        
'2,3:5,6:8,9:11,12:14,15:17,18-Hexabenzo-1,4:4,7:7,10:10,13:13,16:16,1-hexaepoxy-cyclo-octadecine chloroform solvate'
_symmetry_cell_setting           monoclinic
_symmetry_space_group_name_H-M   'P 21/c'
_symmetry_Int_Tables_number      14
_space_group_name_Hall           '-P 2ybc'
loop_
_symmetry_equiv_pos_site_id
_symmetry_equiv_pos_as_xyz
1 x,y,z
2 -x,1/2+y,1/2-z
3 -x,-y,-z
4 x,1/2-y,1/2+z
_cell_length_a                   15.813(6)
_cell_length_b                   13.108(1)
_cell_length_c                   20.257(7)
_cell_angle_alpha                90
_cell_angle_beta                 109.35(2)
_cell_angle_gamma                90
_cell_volume                     3961.62
_exptl_crystal_colour            white
_chemical_melting_point          'above 350 deg.C'
_cell_formula_units_Z            4
loop_
_atom_site_label
_atom_site_type_symbol
_atom_site_fract_x
_atom_site_fract_y
_atom_site_fract_z
Cl1 Cl 0.05239(7) 0.17633(9) 0.70263(5)
Cl2 Cl 0.20728(8) 0.2010(1) 0.66033(7)
Cl3 Cl 0.04908(8) 0.31638(8) 0.59388(6)
C43 C 0.0904(2) 0.1988(3) 0.6315(2)
H25 H 0.060 0.133 0.593
Cl4 Cl 0.46237(9) 0.2098(1) 0.16571(7)
Cl5 Cl 0.6390(1) 0.2232(2) 0.1647(1)
Cl6 Cl 0.5089(2) 0.3313(2) 0.0628(1)
C44 C 0.5274(3) 0.2170(3) 0.1102(2)
H26 H 0.524 0.149 0.075
O1 O -0.0852(1) 0.1010(1) 0.50370(8)
O2 O -0.0954(1) -0.0780(1) 0.51119(8)
O3 O -0.0476(1) 0.0524(1) 0.40501(9)
C1 C -0.1030(2) 0.1180(2) 0.4299(1)
C2 C -0.1986(2) 0.0839(2) 0.3987(1)
C3 C -0.2596(2) 0.0990(3) 0.3327(2)
C4 C -0.3424(2) 0.0507(3) 0.3162(2)
C5 C -0.3620(2) -0.0110(3) 0.3636(2)
C6 C -0.3019(2) -0.0256(3) 0.4300(2)
C7 C -0.2198(2) 0.0234(2) 0.4469(1)
C8 C -0.1391(2) 0.0173(2) 0.5116(1)
C9 C -0.1445(2) 0.0215(2) 0.5848(1)
C10 C -0.1912(2) 0.0862(2) 0.6137(2)
C11 C -0.1799(2) 0.0749(3) 0.6838(2)
C12 C -0.1237(2) 0.0009(3) 0.7236(1)
C13 C -0.0761(2) -0.0628(3) 0.6950(2)
C14 C -0.0862(2) -0.0510(2) 0.6253(1)
C15 C 0.0383(2) 0.1016(2) 0.4193(1)
C16 C 0.0148(2) 0.2125(2) 0.4148(1)
C17 C 0.0633(2) 0.2978(3) 0.4091(2)
C18 C 0.0257(2) 0.3926(3) 0.4083(2)
C19 C -0.0596(2) 0.4024(3) 0.4138(2)
C20 C -0.1084(2) 0.3170(2) 0.4199(2)
C21 C -0.0699(2) 0.2225(2) 0.4209(1)
H1 H -0.246 0.142 0.299
H2 H -0.386 0.060 0.271
H3 H -0.419 -0.045 0.350
H4 H -0.317 -0.067 0.463
H5 H -0.229 0.137 0.586
H6 H -0.212 0.119 0.705
H7 H -0.117 -0.006 0.772
H8 H -0.037 -0.112 0.723
H9 H 0.122 0.290 0.406
H10 H 0.058 0.452 0.404
H11 H -0.086 0.469 0.413
H12 H -0.167 0.323 0.424
C15B C -0.0383(2) -0.1016(2) 0.5807(1)
O2B O 0.0954(1) 0.0780(1) 0.48881(8)
C14B C 0.0862(2) 0.0510(2) 0.3747(1)
O3B O 0.0476(1) -0.0524(1) 0.59499(9)
C16B C -0.0148(2) -0.2125(2) 0.5852(1)
C8B C 0.1391(2) -0.0173(2) 0.4884(1)
C9B C 0.1445(2) -0.0215(2) 0.4152(1)
C13B C 0.0761(2) 0.0628(3) 0.3050(2)
C1B C 0.1030(2) -0.1180(2) 0.5701(1)
C17B C -0.0633(2) -0.2978(3) 0.5909(2)
C21B C 0.0699(2) -0.2225(2) 0.5791(1)
O1B O 0.0852(1) -0.1010(1) 0.49630(8)
C7B C 0.2198(2) -0.0234(2) 0.5531(1)
C10B C 0.1912(2) -0.0862(2) 0.3863(2)
C12B C 0.1237(2) -0.0009(3) 0.2764(1)
H8B H 0.037 0.112 0.277
C2B C 0.1986(2) -0.0839(2) 0.6013(1)
C18B C -0.0257(2) -0.3926(3) 0.5917(2)
H9B H -0.122 -0.290 0.594
C20B C 0.1084(2) -0.3170(2) 0.5801(2)
C6B C 0.3019(2) 0.0256(3) 0.5700(2)
C11B C 0.1799(2) -0.0749(3) 0.3162(2)
H5B H 0.229 -0.137 0.414
H7B H 0.117 0.006 0.228
C3B C 0.2596(2) -0.0990(3) 0.6673(2)
C19B C 0.0596(2) -0.4024(3) 0.5862(2)
H10B H -0.058 -0.452 0.596
H12B H 0.167 -0.323 0.576
C5B C 0.3620(2) 0.0110(3) 0.6364(2)
H4B H 0.317 0.067 0.537
H6B H 0.212 -0.119 0.295
C4B C 0.3424(2) -0.0507(3) 0.6838(2)
H1B H 0.246 -0.142 0.701
H11B H 0.086 -0.469 0.587
H3B H 0.419 0.045 0.650
H2B H 0.386 -0.060 0.729
O4 O -0.3923(1) 0.5724(1) 0.50684(8)
O5 O -0.4223(1) 0.3966(1) 0.48687(8)
O6 O -0.4496(1) 0.5343(1) 0.59758(9)
C22 C -0.3780(2) 0.5825(2) 0.5804(1)
C23 C -0.2937(2) 0.5211(2) 0.6128(1)
C24 C -0.2364(2) 0.5172(3) 0.6811(2)
C25 C -0.1658(2) 0.4492(3) 0.6969(2)
C26 C -0.1544(2) 0.3853(3) 0.6473(2)
C27 C -0.2123(2) 0.3878(2) 0.5786(2)
C28 C -0.2821(2) 0.4570(2) 0.5623(1)
C29 C -0.3573(2) 0.4757(2) 0.4952(1)
C30 C -0.3449(2) 0.4788(2) 0.4243(1)
C31 C -0.2806(2) 0.5266(2) 0.4033(2)
C32 C -0.2872(2) 0.5179(3) 0.3337(2)
C33 C -0.3571(2) 0.4644(3) 0.2872(2)
C34 C -0.4234(2) 0.4195(3) 0.3077(2)
C35 C -0.4161(2) 0.4275(2) 0.3775(1)
C36 C -0.5215(2) 0.6075(2) 0.5849(1)
C37 C -0.4732(2) 0.7074(2) 0.5982(2)
C38 C -0.5031(2) 0.8033(3) 0.6086(2)
C39 C -0.4432(3) 0.8831(3) 0.6171(2)
C40 C -0.3578(3) 0.8686(3) 0.6146(3)
C41 C -0.3283(2) 0.7729(3) 0.6043(2)
C42 C -0.3875(2) 0.6923(2) 0.5963(1)
H13 H -0.246 0.560 0.716
H14 H -0.125 0.446 0.744
H15 H -0.105 0.339 0.660
H16 H -0.205 0.343 0.544
H17 H -0.233 0.565 0.435
H18 H -0.243 0.548 0.318
H19 H -0.360 0.459 0.239
H20 H -0.471 0.384 0.275
H21 H -0.562 0.814 0.610
H22 H -0.461 0.950 0.626
H23 H -0.318 0.925 0.620
H24 H -0.270 0.763 0.602
C36B C -0.4785(2) 0.3925(2) 0.4151(1)
O5B O -0.5777(1) 0.6034(1) 0.51313(8)
C35B C -0.5839(2) 0.5725(2) 0.6225(1)
O6B O -0.5504(1) 0.4657(1) 0.40242(9)
C37B C -0.5268(2) 0.2926(2) 0.4018(2)
C29B C -0.6427(2) 0.5243(2) 0.5048(1)
C30B C -0.6551(2) 0.5212(2) 0.5757(1)
C34B C -0.5766(2) 0.5805(3) 0.6923(2)
C22B C -0.6220(2) 0.4175(2) 0.4196(1)
C38B C -0.4969(2) 0.1967(3) 0.3914(2)
C42B C -0.6125(2) 0.3077(2) 0.4037(1)
O4B O -0.6077(1) 0.4276(1) 0.49316(8)
C28B C -0.7179(2) 0.5430(2) 0.4377(1)
C31B C -0.7194(2) 0.4734(2) 0.5967(2)
C33B C -0.6429(2) 0.5356(3) 0.7128(2)
H20B H -0.529 0.616 0.725
C23B C -0.7063(2) 0.4789(2) 0.3872(1)
C39B C -0.5568(3) 0.1169(3) 0.3829(2)
H21B H -0.438 0.186 0.390
C41B C -0.6717(2) 0.2271(3) 0.3957(2)
C27B C -0.7877(2) 0.6122(2) 0.4214(2)
C32B C -0.7128(2) 0.4821(3) 0.6663(2)
H17B H -0.767 0.435 0.565
H19B H -0.640 0.541 0.761
C24B C -0.7636(2) 0.4828(3) 0.3189(2)
C40B C -0.6422(3) 0.1314(3) 0.3854(3)
H22B H -0.539 0.050 0.374
H24B H -0.730 0.237 0.398
C26B C -0.8456(2) 0.6147(3) 0.3527(2)
H16B H -0.795 0.657 0.456
H18B H -0.757 0.452 0.682
C25B C -0.8342(2) 0.5508(3) 0.3031(2)
H13B H -0.754 0.440 0.284
H23B H -0.682 0.075 0.380
H15B H -0.895 0.661 0.340
H14B H -0.875 0.554 0.256
Cl7? Cl 0.5861(2) 0.1831(3) 0.6113(2)
Cl8? Cl 0.186(1) 0.252(2) 0.124(1)
Cl9? Cl 0.513(1) 0.224(2) 0.181(1)
Cl10? Cl 0.4347(9) 0.257(1) 0.6273(7)
loop_
_geom_bond_atom_site_label_1
_geom_bond_atom_site_label_2
_geom_bond_site_symmetry_1
_geom_bond_site_symmetry_2
Cl1 C43 1_555 1_555
Cl2 C43 1_555 1_555
Cl3 C43 1_555 1_555
Cl4 C44 1_555 1_555
Cl5 C44 1_555 1_555
Cl6 C44 1_555 1_555
O1 C1 1_555 1_555
O2 C8 1_555 1_555
O3 C1 1_555 1_555
O4 C22 1_555 1_555
O5 C29 1_555 1_555
O6 C22 1_555 1_555
C1 C2 1_555 1_555
C2 C3 1_555 1_555
C3 C4 1_555 1_555
C4 C5 1_555 1_555
C5 C6 1_555 1_555
C6 C7 1_555 1_555
C7 C2 1_555 1_555
C8 O1 1_555 1_555
C9 C8 1_555 1_555
C10 C9 1_555 1_555
C11 C10 1_555 1_555
C12 C11 1_555 1_555
C13 C12 1_555 1_555
C14 C9 1_555 1_555
C15 O3 1_555 1_555
C16 C15 1_555 1_555
C17 C16 1_555 1_555
C18 C17 1_555 1_555
C19 C18 1_555 1_555
C20 C19 1_555 1_555
C21 C1 1_555 1_555
C22 C23 1_555 1_555
C23 C24 1_555 1_555
C24 C25 1_555 1_555
C25 C26 1_555 1_555
C26 C27 1_555 1_555
C27 C28 1_555 1_555
C28 C23 1_555 1_555
C29 O4 1_555 1_555
C30 C29 1_555 1_555
C31 C30 1_555 1_555
C32 C31 1_555 1_555
C33 C32 1_555 1_555
C34 C33 1_555 1_555
C35 C30 1_555 1_555
C36 O6 1_555 1_555
C37 C36 1_555 1_555
C38 C37 1_555 1_555
C39 C38 1_555 1_555
C40 C39 1_555 1_555
C41 C40 1_555 1_555
C42 C22 1_555 1_555
C43 H25 1_555 1_555
C44 H26 1_555 1_555
H1 C3 1_555 1_555
H2 C4 1_555 1_555
H3 C5 1_555 1_555
H4 C6 1_555 1_555
H5 C10 1_555 1_555
H6 C11 1_555 1_555
H7 C12 1_555 1_555
H8 C13 1_555 1_555
H9 C17 1_555 1_555
H10 C18 1_555 1_555
H11 C19 1_555 1_555
H12 C20 1_555 1_555
H13 C24 1_555 1_555
H14 C25 1_555 1_555
H15 C26 1_555 1_555
H16 C27 1_555 1_555
H17 C31 1_555 1_555
H18 C32 1_555 1_555
H19 C33 1_555 1_555
H20 C34 1_555 1_555
H21 C38 1_555 1_555
H22 C39 1_555 1_555
H23 C40 1_555 1_555
H24 C41 1_555 1_555
C15B O2 1_555 1_555
O2B C15 1_555 1_555
C14B C15 1_555 1_555
O3B C15B 1_555 1_555
C16B C15B 1_555 1_555
C8B O2B 1_555 1_555
C9B C14B 1_555 1_555
C13B C14B 1_555 1_555
C1B O3B 1_555 1_555
C17B C16B 1_555 1_555
C21B C16B 1_555 1_555
O1B C8B 1_555 1_555
C7B C8B 1_555 1_555
C10B C9B 1_555 1_555
C12B C13B 1_555 1_555
H8B C13B 1_555 1_555
C2B C1B 1_555 1_555
C18B C17B 1_555 1_555
H9B C17B 1_555 1_555
C20B C21B 1_555 1_555
C6B C7B 1_555 1_555
C11B C10B 1_555 1_555
H5B C10B 1_555 1_555
H7B C12B 1_555 1_555
C3B C2B 1_555 1_555
C19B C18B 1_555 1_555
H10B C18B 1_555 1_555
H12B C20B 1_555 1_555
C5B C6B 1_555 1_555
H4B C6B 1_555 1_555
H6B C11B 1_555 1_555
C4B C3B 1_555 1_555
H1B C3B 1_555 1_555
H11B C19B 1_555 1_555
H3B C5B 1_555 1_555
H2B C4B 1_555 1_555
C36B O5 1_555 1_555
O5B C36 1_555 1_555
C35B C36 1_555 1_555
O6B C36B 1_555 1_555
C37B C36B 1_555 1_555
C29B O5B 1_555 1_555
C30B C35B 1_555 1_555
C34B C35B 1_555 1_555
C22B O6B 1_555 1_555
C38B C37B 1_555 1_555
C42B C37B 1_555 1_555
O4B C29B 1_555 1_555
C28B C29B 1_555 1_555
C31B C30B 1_555 1_555
C33B C34B 1_555 1_555
H20B C34B 1_555 1_555
C23B C22B 1_555 1_555
C39B C38B 1_555 1_555
H21B C38B 1_555 1_555
C41B C42B 1_555 1_555
C27B C28B 1_555 1_555
C32B C31B 1_555 1_555
H17B C31B 1_555 1_555
H19B C33B 1_555 1_555
C24B C23B 1_555 1_555
C40B C39B 1_555 1_555
H22B C39B 1_555 1_555
H24B C41B 1_555 1_555
C26B C27B 1_555 1_555
H16B C27B 1_555 1_555
H18B C32B 1_555 1_555
C25B C24B 1_555 1_555
H13B C24B 1_555 1_555
H23B C40B 1_555 1_555
H15B C26B 1_555 1_555
H14B C25B 1_555 1_555
C7 C8 1_555 1_555
C13 C14 1_555 1_555
C14 C15B 1_555 1_555
C16 C21 1_555 1_555
C20 C21 1_555 1_555
C28 C29 1_555 1_555
C34 C35 1_555 1_555
C35 C36B 1_555 1_555
C37 C42 1_555 1_555
C41 C42 1_555 1_555
C8B C9B 1_555 1_555
C1B O1B 1_555 1_555
C1B C21B 1_555 1_555
C7B C2B 1_555 1_555
C12B C11B 1_555 1_555
C20B C19B 1_555 1_555
C5B C4B 1_555 1_555
C29B C30B 1_555 1_555
C22B O4B 1_555 1_555
C22B C42B 1_555 1_555
C28B C23B 1_555 1_555
C33B C32B 1_555 1_555
C41B C40B 1_555 1_555
C26B C25B 1_555 1_555

#END
