
#######################################################################
#
#                 Cambridge Crystallographic Data Centre
#                                CCDC 
#
#######################################################################
#
# If this CIF has been generated from an entry in the Cambridge 
# Structural Database, then it will include bibliographic, chemical, 
# crystal, experimental, refinement or atomic coordinate data resulting 
# from the CCDC's data processing and validation procedures.
#
#######################################################################

data_PAVNAE
_chemical_formula_moiety         'C22 H15 N5 O1'
_chemical_name_systematic        
4-[3-(1H-benzimidazol-2-yl)-4-oxo-1,2,3,4-tetrahydroquinazolin-2-yl]benzonitrile
_symmetry_cell_setting           monoclinic
_symmetry_space_group_name_H-M   'C 2/c'
_symmetry_Int_Tables_number      15
_space_group_name_Hall           '-C 2yn'
loop_
_symmetry_equiv_pos_site_id
_symmetry_equiv_pos_as_xyz
1 x,y,z
2 -x,y,1/2-z
3 1/2+x,1/2+y,z
4 1/2-x,1/2+y,1/2-z
5 -x,-y,-z
6 x,-y,1/2+z
7 1/2-x,1/2-y,-z
8 1/2+x,1/2-y,1/2+z
_cell_length_a                   23.175(4)
_cell_length_b                   9.9645(11)
_cell_length_c                   16.245(2)
_cell_angle_alpha                90
_cell_angle_beta                 107.625(18)
_cell_angle_gamma                90
_cell_volume                     3575.32
_exptl_crystal_colour            white
_exptl_crystal_description       block
_cell_formula_units_Z            8
loop_
_atom_site_label
_atom_site_type_symbol
_atom_site_fract_x
_atom_site_fract_y
_atom_site_fract_z
C1 C 0.43437(10) 0.2426(2) 0.51116(12)
H1 H 0.45994(10) 0.2762(2) 0.47742(12)
C2 C 0.33831(11) 0.1232(2) 0.47489(13)
C3 C 0.27615(12) 0.1238(3) 0.43537(16)
H2 H 0.25873(12) 0.1884(3) 0.39394(16)
C4 C 0.24053(13) 0.0296(4) 0.4573(2)
H3 H 0.19890(13) 0.0306(4) 0.4308(2)
C5 C 0.26570(14) -0.0669(3) 0.51839(19)
H4 H 0.24117(14) -0.1305(3) 0.53315(19)
C6 C 0.32664(12) -0.0687(3) 0.55697(16)
H5 H 0.34359(12) -0.1344(3) 0.59774(16)
C7 C 0.36384(11) 0.0262(2) 0.53635(14)
C8 C 0.42950(11) 0.0172(2) 0.57530(14)
C9 C 0.52544(10) 0.1314(2) 0.59458(13)
C10 C 0.61729(11) 0.0887(2) 0.67561(14)
C11 C 0.67061(13) 0.0409(3) 0.73173(17)
H6 H 0.67155(13) -0.0388(3) 0.76195(17)
C12 C 0.72179(13) 0.1141(3) 0.74141(19)
H7 H 0.75844(13) 0.0838(3) 0.77844(19)
C13 C 0.71996(14) 0.2326(3) 0.69703(19)
H8 H 0.75558(14) 0.2807(3) 0.70457(19)
C14 C 0.66723(12) 0.2811(3) 0.64232(17)
H9 H 0.66657(12) 0.3619(3) 0.61340(17)
C15 C 0.61512(11) 0.2081(2) 0.63084(14)
C16 C 0.43110(9) 0.35147(19) 0.57533(12)
C17 C 0.43448(9) 0.4839(2) 0.55255(13)
H10 H 0.43997(9) 0.5039(2) 0.49951(13)
C18 C 0.42997(9) 0.5860(2) 0.60596(13)
H11 H 0.43231(9) 0.6747(2) 0.58961(13)
C19 C 0.42186(9) 0.5560(2) 0.68486(12)
C20 C 0.41917(10) 0.4250(2) 0.70914(13)
H12 H 0.41412(10) 0.4052(2) 0.76249(13)
C21 C 0.42392(10) 0.3229(2) 0.65480(13)
H13 H 0.42229(10) 0.2341(2) 0.67160(13)
C22 C 0.41621(10) 0.6612(2) 0.74202(15)
N1 N 0.46317(8) 0.12022(16) 0.55660(10)
N2 N 0.37604(9) 0.21442(19) 0.45233(11)
H14 H 0.36435(9) 0.25397(19) 0.40299(11)
N3 N 0.55876(9) 0.04199(18) 0.65103(11)
H15 H 0.54596(9) -0.03044(18) 0.66842(11)
N4 N 0.55618(9) 0.23354(18) 0.57982(11)
N5 N 0.41096(11) 0.7416(2) 0.78846(14)
O1 O 0.45399(8) -0.07660(16) 0.62164(11)
loop_
_geom_bond_atom_site_label_1
_geom_bond_atom_site_label_2
_geom_bond_site_symmetry_1
_geom_bond_site_symmetry_2
C1 H1 1_555 1_555
C2 C3 1_555 1_555
C3 H2 1_555 1_555
C4 C3 1_555 1_555
H3 C4 1_555 1_555
C5 C4 1_555 1_555
H4 C5 1_555 1_555
C6 C5 1_555 1_555
H5 C6 1_555 1_555
C7 C2 1_555 1_555
C8 C7 1_555 1_555
C9 N1 1_555 1_555
C10 C11 1_555 1_555
C11 H6 1_555 1_555
C12 C11 1_555 1_555
H7 C12 1_555 1_555
C13 C12 1_555 1_555
H8 C13 1_555 1_555
C14 C13 1_555 1_555
H9 C14 1_555 1_555
C15 C10 1_555 1_555
C16 C1 1_555 1_555
C17 C16 1_555 1_555
H10 C17 1_555 1_555
C18 C17 1_555 1_555
H11 C18 1_555 1_555
C19 C18 1_555 1_555
C20 C19 1_555 1_555
H12 C20 1_555 1_555
C21 C16 1_555 1_555
H13 C21 1_555 1_555
C22 C19 1_555 1_555
N1 C1 1_555 1_555
N2 C1 1_555 1_555
H14 N2 1_555 1_555
N3 C9 1_555 1_555
H15 N3 1_555 1_555
N4 C9 1_555 1_555
N5 C22 1_555 1_555
O1 C8 1_555 1_555
C2 N2 1_555 1_555
C6 C7 1_555 1_555
C8 N1 1_555 1_555
C10 N3 1_555 1_555
C14 C15 1_555 1_555
C15 N4 1_555 1_555
C20 C21 1_555 1_555

#END
