
#######################################################################
#
#                 Cambridge Crystallographic Data Centre
#                                CCDC 
#
#######################################################################
#
# If this CIF has been generated from an entry in the Cambridge 
# Structural Database, then it will include bibliographic, chemical, 
# crystal, experimental, refinement or atomic coordinate data resulting 
# from the CCDC's data processing and validation procedures.
#
#######################################################################

data_PAVPIN
_chemical_formula_moiety         'C12 H13 Br1 N4 O1 S1'
_chemical_name_systematic        
4-((5-Bromo-2-hydroxybenzylidene)amino)-5-propyl-2,4-dihydro-3H-1,2,4-triazole-3-thione
_symmetry_cell_setting           triclinic
_symmetry_space_group_name_H-M   'P -1'
_symmetry_Int_Tables_number      2
_space_group_name_Hall           '-P 1'
loop_
_symmetry_equiv_pos_site_id
_symmetry_equiv_pos_as_xyz
1 x,y,z
2 -x,-y,-z
_cell_length_a                   8.042(5)
_cell_length_b                   13.187(8)
_cell_length_c                   13.408(8)
_cell_angle_alpha                97.406(9)
_cell_angle_beta                 92.956(10)
_cell_angle_gamma                95.916(9)
_cell_volume                     1399.51
_exptl_crystal_colour            yellow
_exptl_crystal_description       block
_cell_formula_units_Z            4
loop_
_atom_site_label
_atom_site_type_symbol
_atom_site_fract_x
_atom_site_fract_y
_atom_site_fract_z
Br1 Br 0.38916(7) 0.16296(4) 0.59088(4)
S1 S 0.49656(16) 0.40893(8) 0.14062(8)
O1 O 0.1987(5) 0.5771(2) 0.5179(2)
H1 H 0.2089 0.5860 0.4590
N1 N 0.4061(5) 0.5891(3) 0.0953(2)
H2 H 0.4451 0.5805 0.0366
N2 N 0.3314(5) 0.6750(3) 0.1302(3)
N3 N 0.3366(4) 0.5663(2) 0.2414(2)
N4 N 0.3044(4) 0.5369(2) 0.3350(2)
C1 C 0.4132(5) 0.5203(3) 0.1597(3)
C2 C 0.2882(5) 0.6584(3) 0.2197(3)
C3 C 0.1971(6) 0.7272(3) 0.2879(3)
H3 H 0.2588 0.7428 0.3531
H4 H 0.0881 0.6922 0.2975
C4 C 0.1740(6) 0.8271(3) 0.2457(3)
H5 H 0.2832 0.8624 0.2370
H6 H 0.1143 0.8111 0.1799
C5 C 0.0785(7) 0.8980(4) 0.3133(4)
H7 H -0.0316 0.8647 0.3197
H8 H 0.0695 0.9604 0.2844
H9 H 0.1368 0.9140 0.3786
C6 C 0.3493(5) 0.4529(3) 0.3590(3)
H10 H 0.4027 0.4104 0.3131
C7 C 0.3181(5) 0.4230(3) 0.4566(3)
C8 C 0.2452(5) 0.4844(3) 0.5321(3)
C9 C 0.2203(6) 0.4511(4) 0.6243(3)
H11 H 0.1734 0.4926 0.6743
C10 C 0.2647(6) 0.3566(4) 0.6423(3)
H12 H 0.2475 0.3341 0.7043
C11 C 0.3349(5) 0.2955(3) 0.5681(3)
C12 C 0.3633(5) 0.3282(3) 0.4773(3)
H13 H 0.4133 0.2868 0.4287
Br2 Br 0.51614(6) -0.08187(4) -0.31301(4)
S2 S 0.14032(16) 0.37417(8) -0.08568(8)
O2 O 0.1831(4) -0.0214(2) 0.0781(2)
H14 H 0.1680 0.0389 0.0943
N5 N -0.0208(5) 0.3668(3) 0.1823(2)
N6 N 0.0102(5) 0.4074(2) 0.0951(2)
H15 H -0.0145 0.4674 0.0853
N7 N 0.0963(4) 0.2607(2) 0.0741(2)
N8 N 0.1549(4) 0.1671(2) 0.0448(2)
C13 C 0.0814(5) 0.3467(3) 0.0267(3)
C14 C 0.0324(5) 0.2768(3) 0.1686(3)
C15 C 0.0280(5) 0.2020(3) 0.2411(3)
H16 H 0.1416 0.1892 0.2590
H17 H -0.0325 0.1375 0.2094
C16 C -0.0556(6) 0.2392(3) 0.3367(3)
H18 H 0.0035 0.3043 0.3679
H19 H -0.1700 0.2505 0.3191
C17 C -0.0559(7) 0.1630(4) 0.4107(3)
H20 H -0.1174 0.0991 0.3808
H21 H -0.1078 0.1893 0.4701
H22 H 0.0573 0.1519 0.4285
C18 C 0.2235(5) 0.1495(3) -0.0384(3)
H23 H 0.2378 0.2006 -0.0799
C19 C 0.2791(5) 0.0495(3) -0.0681(3)
C20 C 0.2579(5) -0.0309(3) -0.0101(3)
C21 C 0.3146(6) -0.1252(3) -0.0421(3)
H24 H 0.3009 -0.1784 -0.0030
C22 C 0.3909(5) -0.1398(3) -0.1314(3)
H25 H 0.4284 -0.2029 -0.1529
C23 C 0.4117(5) -0.0604(3) -0.1893(3)
C24 C 0.3565(5) 0.0322(3) -0.1588(3)
H26 H 0.3704 0.0846 -0.1989
loop_
_geom_bond_atom_site_label_1
_geom_bond_atom_site_label_2
_geom_bond_site_symmetry_1
_geom_bond_site_symmetry_2
Br1 C11 1_555 1_555
S1 C1 1_555 1_555
O1 H1 1_555 1_555
N1 H2 1_555 1_555
N2 N1 1_555 1_555
N3 N4 1_555 1_555
N4 C6 1_555 1_555
C1 N1 1_555 1_555
C2 N2 1_555 1_555
C3 C2 1_555 1_555
H3 C3 1_555 1_555
H4 C3 1_555 1_555
C4 C3 1_555 1_555
H5 C4 1_555 1_555
H6 C4 1_555 1_555
C5 C4 1_555 1_555
H7 C5 1_555 1_555
H8 C5 1_555 1_555
H9 C5 1_555 1_555
C6 H10 1_555 1_555
C7 C6 1_555 1_555
C8 O1 1_555 1_555
C9 C8 1_555 1_555
H11 C9 1_555 1_555
C10 C9 1_555 1_555
H12 C10 1_555 1_555
C11 C10 1_555 1_555
C12 C7 1_555 1_555
H13 C12 1_555 1_555
Br2 C23 1_555 1_555
S2 C13 1_555 1_555
O2 H14 1_555 1_555
N5 N6 1_555 1_555
N6 H15 1_555 1_555
N7 N8 1_555 1_555
N8 C18 1_555 1_555
C13 N6 1_555 1_555
C14 N5 1_555 1_555
C15 C14 1_555 1_555
H16 C15 1_555 1_555
H17 C15 1_555 1_555
C16 C15 1_555 1_555
H18 C16 1_555 1_555
H19 C16 1_555 1_555
C17 C16 1_555 1_555
H20 C17 1_555 1_555
H21 C17 1_555 1_555
H22 C17 1_555 1_555
C18 H23 1_555 1_555
C19 C18 1_555 1_555
C20 O2 1_555 1_555
C21 C20 1_555 1_555
H24 C21 1_555 1_555
C22 C21 1_555 1_555
H25 C22 1_555 1_555
C23 C22 1_555 1_555
C24 C19 1_555 1_555
H26 C24 1_555 1_555
N3 C1 1_555 1_555
N3 C2 1_555 1_555
C7 C8 1_555 1_555
C11 C12 1_555 1_555
N7 C13 1_555 1_555
N7 C14 1_555 1_555
C19 C20 1_555 1_555
C23 C24 1_555 1_555

#END
