
#######################################################################
#
#                 Cambridge Crystallographic Data Centre
#                                CCDC 
#
#######################################################################
#
# If this CIF has been generated from an entry in the Cambridge 
# Structural Database, then it will include bibliographic, chemical, 
# crystal, experimental, refinement or atomic coordinate data resulting 
# from the CCDC's data processing and validation procedures.
#
#######################################################################

data_PAVPAF
_chemical_formula_moiety         'C17 H12 Br1 N1'
_chemical_name_systematic        N-(4-Bromobenzylidene)naphthalen-1-amine
_symmetry_cell_setting           monoclinic
_symmetry_space_group_name_H-M   'P 21/c'
_symmetry_Int_Tables_number      14
_space_group_name_Hall           '-P 2ybc'
loop_
_symmetry_equiv_pos_site_id
_symmetry_equiv_pos_as_xyz
1 x,y,z
2 -x,1/2+y,1/2-z
3 -x,-y,-z
4 x,1/2-y,1/2+z
_cell_length_a                   7.0823(6)
_cell_length_b                   25.555(2)
_cell_length_c                   7.5712(5)
_cell_angle_alpha                90
_cell_angle_beta                 94.4310(10)
_cell_angle_gamma                90
_cell_volume                     1366.2
_exptl_crystal_colour            yellow
_exptl_crystal_description       block
_cell_formula_units_Z            4
loop_
_atom_site_label
_atom_site_type_symbol
_atom_site_fract_x
_atom_site_fract_y
_atom_site_fract_z
Br1 Br -0.13531(5) 0.479652(16) 0.74533(7)
N1 N 0.4392(3) 0.26397(10) 0.6574(4)
C1 C 0.4699(4) 0.30922(13) 0.7241(4)
H1 H 0.5918 0.3173 0.7707
C2 C 0.3235(4) 0.34896(12) 0.7310(4)
C3 C 0.3651(5) 0.39638(13) 0.8152(5)
H2 H 0.4857 0.4018 0.8698
C4 C 0.2310(5) 0.43560(13) 0.8194(5)
H3 H 0.2610 0.4674 0.8744
C5 C 0.0531(5) 0.42671(13) 0.7408(5)
C6 C 0.0059(5) 0.38013(15) 0.6560(5)
H4 H -0.1149 0.3749 0.6016
C7 C 0.1413(4) 0.34164(13) 0.6537(5)
H5 H 0.1100 0.3099 0.5989
C8 C 0.5943(4) 0.22972(13) 0.6450(4)
C9 C 0.7594(4) 0.24571(14) 0.5768(5)
H6 H 0.7726 0.2804 0.5422
C10 C 0.9082(5) 0.21025(16) 0.5588(5)
H7 H 1.0187 0.2217 0.5121
C11 C 0.8930(5) 0.15948(15) 0.6086(5)
H8 H 0.9932 0.1366 0.5960
C12 C 0.7270(5) 0.14119(14) 0.6791(5)
C13 C 0.5735(4) 0.17643(12) 0.6966(4)
C14 C 0.4062(5) 0.15755(13) 0.7641(4)
H9 H 0.3048 0.1801 0.7752
C15 C 0.3920(5) 0.10638(15) 0.8134(5)
H10 H 0.2805 0.0945 0.8570
C16 C 0.5417(6) 0.07172(15) 0.7995(6)
H11 H 0.5307 0.0371 0.8351
C17 C 0.7043(6) 0.08871(15) 0.7337(6)
H12 H 0.8033 0.0652 0.7242
loop_
_geom_bond_atom_site_label_1
_geom_bond_atom_site_label_2
_geom_bond_site_symmetry_1
_geom_bond_site_symmetry_2
Br1 C5 1_555 1_555
N1 C1 1_555 1_555
C1 H1 1_555 1_555
C2 C1 1_555 1_555
C3 C2 1_555 1_555
H2 C3 1_555 1_555
C4 C3 1_555 1_555
H3 C4 1_555 1_555
C5 C4 1_555 1_555
C6 C5 1_555 1_555
H4 C6 1_555 1_555
C7 C2 1_555 1_555
H5 C7 1_555 1_555
C8 N1 1_555 1_555
C9 C8 1_555 1_555
H6 C9 1_555 1_555
C10 C9 1_555 1_555
H7 C10 1_555 1_555
C11 C10 1_555 1_555
H8 C11 1_555 1_555
C12 C11 1_555 1_555
C13 C8 1_555 1_555
C14 C13 1_555 1_555
H9 C14 1_555 1_555
C15 C14 1_555 1_555
H10 C15 1_555 1_555
C16 C15 1_555 1_555
H11 C16 1_555 1_555
C17 C12 1_555 1_555
H12 C17 1_555 1_555
C6 C7 1_555 1_555
C12 C13 1_555 1_555
C16 C17 1_555 1_555

#END
