
#######################################################################
#
#                 Cambridge Crystallographic Data Centre
#                                CCDC 
#
#######################################################################
#
# If this CIF has been generated from an entry in the Cambridge 
# Structural Database, then it will include bibliographic, chemical, 
# crystal, experimental, refinement or atomic coordinate data resulting 
# from the CCDC's data processing and validation procedures.
#
#######################################################################

data_PAVQAG
_chemical_formula_moiety         'C21 H18 N4 O3'
_chemical_name_systematic        
N-(1-Acetyl-5-benzoyl-1,4,5,6-tetrahydropyrrolo[3,4-c]pyrazol-3-yl)benzamide
_symmetry_cell_setting           monoclinic
_symmetry_space_group_name_H-M   'P 21/c'
_symmetry_Int_Tables_number      14
_space_group_name_Hall           '-P 2ybc'
loop_
_symmetry_equiv_pos_site_id
_symmetry_equiv_pos_as_xyz
1 x,y,z
2 -x,1/2+y,1/2-z
3 -x,-y,-z
4 x,1/2-y,1/2+z
_cell_length_a                   5.32163(11)
_cell_length_b                   21.1878(5)
_cell_length_c                   16.4585(3)
_cell_angle_alpha                90
_cell_angle_beta                 96.9378(17)
_cell_angle_gamma                90
_cell_volume                     1842.17
_exptl_crystal_colour            colorless
_exptl_crystal_description       block
_cell_formula_units_Z            4
loop_
_atom_site_label
_atom_site_type_symbol
_atom_site_fract_x
_atom_site_fract_y
_atom_site_fract_z
O1 O -0.5691(3) 0.31747(7) 0.32789(9)
N1 N 0.3203(3) 0.24185(8) 0.66211(9)
H1 H 0.3904 0.2161 0.6983
N2 N -0.3129(3) 0.29957(8) 0.44421(10)
N3 N 0.0354(3) 0.16211(8) 0.61696(10)
N4 N -0.1782(3) 0.15647(8) 0.56051(10)
O2 O 0.3492(4) 0.33753(8) 0.60417(11)
C1 C -0.3981(4) 0.33561(9) 0.37999(11)
C2 C 0.1126(3) 0.22096(9) 0.60959(10)
C3 C -0.2243(4) 0.21181(9) 0.51951(11)
O3 O -0.5009(4) 0.10010(8) 0.49746(12)
C4 C -0.0472(3) 0.25406(9) 0.54786(10)
C5 C -0.4179(4) 0.23584(9) 0.45428(11)
H2 H -0.4240 0.2111 0.4045
H3 H -0.5850 0.2375 0.4721
C6 C -0.0927(4) 0.31603(9) 0.50527(12)
H4 H -0.1351 0.3488 0.5425
H5 H 0.0522 0.3292 0.4790
C7 C 0.4185(4) 0.30113(9) 0.65912(12)
C8 C 0.8086(4) 0.27803(11) 0.75721(12)
H6 H 0.8090 0.2366 0.7384
C9 C 0.6190(4) 0.31905(9) 0.72611(11)
C10 C -0.2769(4) 0.39859(9) 0.37409(12)
C11 C 0.6176(4) 0.38031(11) 0.75652(14)
H7 H 0.4912 0.4083 0.7359
C12 C 0.9981(4) 0.29859(13) 0.81639(14)
H8 H 1.1283 0.2713 0.8360
C13 C -0.3162(5) 0.10024(11) 0.54676(15)
C14 C 0.8033(5) 0.39953(12) 0.81712(16)
H9 H 0.7987 0.4401 0.8384
C15 C 0.9951(4) 0.35908(14) 0.84631(15)
H10 H 1.1225 0.3726 0.8862
C16 C -0.0648(6) 0.51684(12) 0.35967(17)
H11 H 0.0022 0.5568 0.3531
C17 C -0.0915(6) 0.40756(13) 0.3251(2)
H12 H -0.0371 0.3738 0.2955
C18 C -0.3456(8) 0.44917(14) 0.4169(2)
H13 H -0.4667 0.4440 0.4526
C19 C -0.2147(10) 0.04482(15) 0.5952(3)
H14 H -0.0354 0.0418 0.5933
H15 H -0.2955 0.0071 0.5727
H16 H -0.2473 0.0496 0.6510
C20 C -0.2405(10) 0.50798(14) 0.4088(3)
H17 H -0.2940 0.5418 0.4383
C21 C 0.0164(7) 0.46637(15) 0.3188(2)
H18 H 0.1462 0.4716 0.2863
loop_
_geom_bond_atom_site_label_1
_geom_bond_atom_site_label_2
_geom_bond_site_symmetry_1
_geom_bond_site_symmetry_2
O1 C1 1_555 1_555
N1 H1 1_555 1_555
N2 C1 1_555 1_555
N3 N4 1_555 1_555
N4 C3 1_555 1_555
O2 C7 1_555 1_555
C1 C10 1_555 1_555
C2 N1 1_555 1_555
C3 C4 1_555 1_555
O3 C13 1_555 1_555
C4 C2 1_555 1_555
C5 N2 1_555 1_555
H2 C5 1_555 1_555
H3 C5 1_555 1_555
C6 N2 1_555 1_555
H4 C6 1_555 1_555
H5 C6 1_555 1_555
C7 N1 1_555 1_555
C8 H6 1_555 1_555
C9 C7 1_555 1_555
C10 C17 1_555 1_555
C11 C9 1_555 1_555
H7 C11 1_555 1_555
C12 C8 1_555 1_555
H8 C12 1_555 1_555
C13 N4 1_555 1_555
C14 C11 1_555 1_555
H9 C14 1_555 1_555
C15 C12 1_555 1_555
H10 C15 1_555 1_555
C16 H11 1_555 1_555
C17 H12 1_555 1_555
C18 C10 1_555 1_555
H13 C18 1_555 1_555
C19 C13 1_555 1_555
H14 C19 1_555 1_555
H15 C19 1_555 1_555
H16 C19 1_555 1_555
C20 C16 1_555 1_555
H17 C20 1_555 1_555
C21 C16 1_555 1_555
H18 C21 1_555 1_555
N3 C2 1_555 1_555
C3 C5 1_555 1_555
C4 C6 1_555 1_555
C8 C9 1_555 1_555
C14 C15 1_555 1_555
C17 C21 1_555 1_555
C18 C20 1_555 1_555

#END
