
#######################################################################
#
#                 Cambridge Crystallographic Data Centre
#                                CCDC 
#
#######################################################################
#
# If this CIF has been generated from an entry in the Cambridge 
# Structural Database, then it will include bibliographic, chemical, 
# crystal, experimental, refinement or atomic coordinate data resulting 
# from the CCDC's data processing and validation procedures.
#
#######################################################################

data_PAVQEK
_chemical_formula_moiety         'C7 H7 N2 1+,C2 H1 O4 1-,0.5(H2 O1)'
_chemical_name_systematic        '3-Cyanoanilinium hydrogen oxalate hemihydrate'
_symmetry_cell_setting           monoclinic
_symmetry_space_group_name_H-M   'P 2/c'
_symmetry_Int_Tables_number      13
_space_group_name_Hall           '-P 2yc'
loop_
_symmetry_equiv_pos_site_id
_symmetry_equiv_pos_as_xyz
1 x,y,z
2 -x,y,1/2-z
3 -x,-y,-z
4 x,-y,1/2+z
_cell_length_a                   15.1221(7)
_cell_length_b                   5.65180(10)
_cell_length_c                   13.6926(6)
_cell_angle_alpha                90
_cell_angle_beta                 113.22(4)
_cell_angle_gamma                90
_cell_volume                     1075.47
_exptl_crystal_colour            colorless
_exptl_crystal_description       block
_cell_formula_units_Z            4
loop_
_atom_site_label
_atom_site_type_symbol
_atom_site_fract_x
_atom_site_fract_y
_atom_site_fract_z
O1 O 0.5000 0.3943(3) 0.7500
H1 H 0.4708 0.3063 0.6999
H1A H 0.5292 0.3063 0.8001
N1 N 0.63809(11) 0.7280(2) 0.75668(11)
H2 H 0.6328 0.8305 0.8034
H3 H 0.5962 0.6106 0.7469
H4 H 0.6258 0.8012 0.6952
C1 C 0.73556(13) 0.6324(3) 0.79701(14)
C2 C 0.75806(14) 0.4443(3) 0.86683(15)
H5 H 0.7120 0.3818 0.8888
C3 C 0.85041(16) 0.3490(4) 0.90408(18)
C4 C 0.87338(18) 0.1547(5) 0.9797(2)
C5 C 0.8941(2) 0.6365(8) 0.8017(3)
H6 H 0.9400 0.7024 0.7805
C6 C 0.80292(17) 0.7312(5) 0.7645(2)
H7 H 0.7870 0.8596 0.7183
N2 N 0.89001(19) 0.0051(5) 1.0408(2)
C7 C 0.9188(2) 0.4440(7) 0.8704(2)
H8 H 0.9802 0.3793 0.8937
O2 O 0.60131(9) -0.0466(2) 0.39238(9)
O3 O 0.60400(10) -0.1979(2) 0.54425(9)
O4 O 0.60355(10) 0.3895(2) 0.46709(9)
H9 H 0.6034 0.5206 0.4927
O5 O 0.62804(10) 0.2420(2) 0.62874(9)
C8 C 0.61454(12) 0.2186(3) 0.53599(13)
C9 C 0.60611(12) -0.0294(3) 0.48550(13)
loop_
_geom_bond_atom_site_label_1
_geom_bond_atom_site_label_2
_geom_bond_site_symmetry_1
_geom_bond_site_symmetry_2
O1 H1 1_555 1_555
N1 H2 1_555 1_555
H3 N1 1_555 1_555
H4 N1 1_555 1_555
C1 N1 1_555 1_555
C2 C1 1_555 1_555
H5 C2 1_555 1_555
C3 C2 1_555 1_555
C4 C3 1_555 1_555
C5 H6 1_555 1_555
C6 C1 1_555 1_555
H7 C6 1_555 1_555
N2 C4 1_555 1_555
C7 C3 1_555 1_555
H8 C7 1_555 1_555
O2 C9 1_555 1_555
O3 C9 1_555 1_555
O4 H9 1_555 1_555
O5 C8 1_555 1_555
C8 O4 1_555 1_555
C9 C8 1_555 1_555
H1A O1 1_555 1_555
C5 C6 1_555 1_555
C5 C7 1_555 1_555

#END
