
#######################################################################
#
#                 Cambridge Crystallographic Data Centre
#                                CCDC 
#
#######################################################################
#
# If this CIF has been generated from an entry in the Cambridge 
# Structural Database, then it will include bibliographic, chemical, 
# crystal, experimental, refinement or atomic coordinate data resulting 
# from the CCDC's data processing and validation procedures.
#
#######################################################################

data_PAVSUC
_chemical_formula_moiety         'C14 H17 N1 O1'
_chemical_name_systematic        
(1S*,5R*)-9-Phenyl-9-azabicyclo[3.3.1]nonan-3-one
_symmetry_cell_setting           orthorhombic
_symmetry_space_group_name_H-M   'P 21 21 21'
_symmetry_Int_Tables_number      19
_space_group_name_Hall           'P 2ac 2ab'
loop_
_symmetry_equiv_pos_site_id
_symmetry_equiv_pos_as_xyz
1 x,y,z
2 1/2-x,-y,1/2+z
3 1/2+x,1/2-y,-z
4 -x,1/2+y,1/2-z
_cell_length_a                   9.4028(3)
_cell_length_b                   10.2524(5)
_cell_length_c                   12.0473(6)
_cell_angle_alpha                90
_cell_angle_beta                 90
_cell_angle_gamma                90
_cell_volume                     1161.37
_exptl_crystal_colour            colorless
_exptl_crystal_description       block
_cell_formula_units_Z            4
_exptl_crystal_recrystallization_method 'ethyl acetate/petroleum ether'
loop_
_atom_site_label
_atom_site_type_symbol
_atom_site_fract_x
_atom_site_fract_y
_atom_site_fract_z
O1 O -0.58709(17) -0.01586(16) -0.68342(15)
N1 N -0.19284(14) -0.18245(14) -0.65084(12)
C1 C -0.31907(18) -0.26416(18) -0.63463(16)
H1 H -0.2985 -0.3506 -0.6653
C2 C -0.4480(2) -0.20832(19) -0.69713(16)
H2 H -0.4367 -0.2265 -0.7757
H3 H -0.5329 -0.2532 -0.6721
C3 C -0.4692(2) -0.0642(2) -0.68231(16)
C4 C -0.3376(2) 0.01633(18) -0.67070(17)
H4 H -0.3618 0.0971 -0.6332
H5 H -0.3032 0.0386 -0.7442
C5 C -0.2173(2) -0.05077(18) -0.60634(17)
H6 H -0.1302 0.0001 -0.6174
C6 C -0.2468(2) -0.0573(2) -0.48223(17)
H7 H -0.1612 -0.0854 -0.4442
H8 H -0.2703 0.0293 -0.4556
C7 C -0.3672(2) -0.1497(2) -0.45334(16)
H9 H -0.3705 -0.1626 -0.3736
H10 H -0.4571 -0.1122 -0.4766
C8 C -0.3452(2) -0.2797(2) -0.51068(17)
H11 H -0.4286 -0.3338 -0.4994
H12 H -0.2646 -0.3239 -0.4774
C9 C -0.11420(18) -0.19480(18) -0.75009(15)
C10 C -0.1472(2) -0.28634(19) -0.83142(16)
H13 H -0.2261 -0.3400 -0.8221
C11 C -0.0647(2) -0.2989(2) -0.92593(16)
H14 H -0.0896 -0.3602 -0.9794
C12 C 0.0534(2) -0.2223(2) -0.94206(16)
H15 H 0.1084 -0.2308 -1.0058
C13 C 0.0880(2) -0.1329(2) -0.8617(2)
H16 H 0.1680 -0.0807 -0.8712
C14 C 0.0069(2) -0.1187(2) -0.76732(18)
H17 H 0.0333 -0.0574 -0.7142
loop_
_geom_bond_atom_site_label_1
_geom_bond_atom_site_label_2
_geom_bond_site_symmetry_1
_geom_bond_site_symmetry_2
O1 C3 1_555 1_555
N1 C1 1_555 1_555
C1 H1 1_555 1_555
C2 C1 1_555 1_555
H2 C2 1_555 1_555
H3 C2 1_555 1_555
C3 C2 1_555 1_555
C4 C3 1_555 1_555
H4 C4 1_555 1_555
H5 C4 1_555 1_555
C5 N1 1_555 1_555
H6 C5 1_555 1_555
C6 C5 1_555 1_555
H7 C6 1_555 1_555
H8 C6 1_555 1_555
C7 C6 1_555 1_555
H9 C7 1_555 1_555
H10 C7 1_555 1_555
C8 C1 1_555 1_555
H11 C8 1_555 1_555
H12 C8 1_555 1_555
C9 N1 1_555 1_555
C10 C9 1_555 1_555
H13 C10 1_555 1_555
C11 C10 1_555 1_555
H14 C11 1_555 1_555
C12 C11 1_555 1_555
H15 C12 1_555 1_555
C13 C12 1_555 1_555
H16 C13 1_555 1_555
C14 C9 1_555 1_555
H17 C14 1_555 1_555
C4 C5 1_555 1_555
C7 C8 1_555 1_555
C13 C14 1_555 1_555

#END
