
#######################################################################
#
#                 Cambridge Crystallographic Data Centre
#                                CCDC 
#
#######################################################################
#
# If this CIF has been generated from an entry in the Cambridge 
# Structural Database, then it will include bibliographic, chemical, 
# crystal, experimental, refinement or atomic coordinate data resulting 
# from the CCDC's data processing and validation procedures.
#
#######################################################################

data_PAVTUD
_chemical_formula_moiety         'C13 H19 N1 O4'
_chemical_name_systematic        
'2-t-Butyl 4-methyl 3,5-dimethyl-1H-pyrrole-2,4-dicarboxylate'
_symmetry_cell_setting           monoclinic
_symmetry_space_group_name_H-M   'P 21/c'
_symmetry_Int_Tables_number      14
_space_group_name_Hall           '-P 2ybc'
loop_
_symmetry_equiv_pos_site_id
_symmetry_equiv_pos_as_xyz
1 x,y,z
2 -x,1/2+y,1/2-z
3 -x,-y,-z
4 x,1/2-y,1/2+z
_cell_length_a                   11.788(4)
_cell_length_b                   17.045(6)
_cell_length_c                   7.229(2)
_cell_angle_alpha                90
_cell_angle_beta                 106.420(7)
_cell_angle_gamma                90
_cell_volume                     1393.26
_exptl_crystal_colour            colorless
_exptl_crystal_description       plate
_cell_formula_units_Z            4
loop_
_atom_site_label
_atom_site_type_symbol
_atom_site_fract_x
_atom_site_fract_y
_atom_site_fract_z
C1 C 1.1539(4) 0.4652(3) 1.0373(8)
H1 H 1.0961 0.5063 1.0193
H2 H 1.1953 0.4696 0.9409
H3 H 1.2091 0.4699 1.1630
C2 C 1.1615(3) 0.3246(2) 1.0408(5)
C3 C 1.0936(3) 0.25230(19) 1.0199(4)
C4 C 0.9687(3) 0.24090(18) 0.9753(4)
C5 C 0.9521(2) 0.16057(19) 0.9724(4)
C6 C 1.1478(3) 0.1795(2) 1.0403(5)
C7 C 0.8755(3) 0.30226(19) 0.9401(5)
H4 H 0.7992 0.2778 0.9138
H5 H 0.8788 0.3337 0.8315
H6 H 0.8881 0.3350 1.0521
C8 C 1.2746(3) 0.1548(3) 1.0879(7)
H7 H 1.2792 0.0986 1.0897
H8 H 1.3167 0.1750 1.2123
H9 H 1.3092 0.1750 0.9923
C9 C 0.8486(3) 0.1108(2) 0.9370(5)
C10 C 0.6297(3) 0.1201(2) 0.8529(6)
C11 C 0.6041(4) 0.0676(3) 0.6820(8)
H10 H 0.6540 0.0222 0.7116
H11 H 0.6189 0.0952 0.5753
H12 H 0.5227 0.0517 0.6488
C12 C 0.6181(4) 0.0814(3) 1.0336(7)
H13 H 0.6657 0.0348 1.0584
H14 H 0.5368 0.0677 1.0175
H15 H 0.6443 0.1169 1.1403
C13 C 0.5522(3) 0.1940(3) 0.8125(8)
H16 H 0.5697 0.2261 0.9261
H17 H 0.4703 0.1790 0.7776
H18 H 0.5680 0.2229 0.7086
O1 O 1.0949(2) 0.38906(15) 1.0199(4)
O2 O 1.2657(3) 0.32986(18) 1.0728(6)
O3 O 0.74888(17) 0.15373(14) 0.8891(3)
O4 O 0.85058(19) 0.03974(15) 0.9488(4)
N1 N 1.0615(2) 0.12471(17) 1.0127(4)
H19 H 1.0730 0.0748 1.0192
loop_
_geom_bond_atom_site_label_1
_geom_bond_atom_site_label_2
_geom_bond_site_symmetry_1
_geom_bond_site_symmetry_2
C1 H1 1_555 1_555
H2 C1 1_555 1_555
H3 C1 1_555 1_555
C2 C3 1_555 1_555
C3 C4 1_555 1_555
C4 C5 1_555 1_555
C5 C9 1_555 1_555
C6 C3 1_555 1_555
C7 C4 1_555 1_555
H4 C7 1_555 1_555
H5 C7 1_555 1_555
H6 C7 1_555 1_555
C8 C6 1_555 1_555
H7 C8 1_555 1_555
H8 C8 1_555 1_555
H9 C8 1_555 1_555
C9 O3 1_555 1_555
C10 C11 1_555 1_555
C11 H10 1_555 1_555
H11 C11 1_555 1_555
H12 C11 1_555 1_555
C12 C10 1_555 1_555
H13 C12 1_555 1_555
H14 C12 1_555 1_555
H15 C12 1_555 1_555
C13 C10 1_555 1_555
H16 C13 1_555 1_555
H17 C13 1_555 1_555
H18 C13 1_555 1_555
O1 C1 1_555 1_555
O2 C2 1_555 1_555
O3 C10 1_555 1_555
O4 C9 1_555 1_555
N1 C5 1_555 1_555
H19 N1 1_555 1_555
C2 O1 1_555 1_555
C6 N1 1_555 1_555

#END
