
#######################################################################
#
#                 Cambridge Crystallographic Data Centre
#                                CCDC 
#
#######################################################################
#
# If this CIF has been generated from an entry in the Cambridge 
# Structural Database, then it will include bibliographic, chemical, 
# crystal, experimental, refinement or atomic coordinate data resulting 
# from the CCDC's data processing and validation procedures.
#
#######################################################################

data_PAVVEQ
_chemical_formula_moiety         'C18 H18 O2 S2'
_chemical_name_systematic        
2-(benzyloxy)-3,3-bis(methylsulfanyl)-1-phenylprop-2-en-1-one
_symmetry_cell_setting           monoclinic
_symmetry_space_group_name_H-M   'P 21/c'
_symmetry_Int_Tables_number      14
_space_group_name_Hall           '-P 2ybc'
loop_
_symmetry_equiv_pos_site_id
_symmetry_equiv_pos_as_xyz
1 x,y,z
2 -x,1/2+y,1/2-z
3 -x,-y,-z
4 x,1/2-y,1/2+z
_cell_length_a                   16.7723(14)
_cell_length_b                   5.6960(4)
_cell_length_c                   19.6942(15)
_cell_angle_alpha                90
_cell_angle_beta                 113.699(10)
_cell_angle_gamma                90
_cell_volume                     1722.82
_exptl_crystal_colour            colorless
_exptl_crystal_description       prismatic
_cell_formula_units_Z            4
loop_
_atom_site_label
_atom_site_type_symbol
_atom_site_fract_x
_atom_site_fract_y
_atom_site_fract_z
S1 S 0.08736(4) 1.04912(14) 0.42264(4)
S2 S 0.10115(4) 0.80360(16) 0.29395(3)
O1 O 0.32582(12) 1.1012(3) 0.52730(10)
O2 O 0.29153(8) 0.7794(3) 0.40105(7)
C1 C 0.28836(16) 0.8872(5) 0.64000(13)
H1 H 0.3196 1.0269 0.6522
C2 C 0.2732(2) 0.7643(6) 0.69367(14)
H2 H 0.2938 0.8220 0.7419
C3 C 0.2282(2) 0.5581(6) 0.67646(16)
H3 H 0.2173 0.4767 0.7128
C4 C 0.19869(17) 0.4701(5) 0.60555(16)
H4 H 0.1693 0.3275 0.5943
C5 C 0.21275(15) 0.5933(4) 0.55129(13)
H5 H 0.1921 0.5342 0.5033
C6 C 0.25722(13) 0.8039(4) 0.56747(11)
C7 C 0.27569(14) 0.9365(4) 0.51104(12)
C8 C 0.23610(13) 0.8579(4) 0.43092(11)
C9 C 0.15160(14) 0.8855(4) 0.38782(12)
C10 C 0.37071(16) 0.6660(6) 0.45117(13)
H6 H 0.3573 0.5521 0.4817
H7 H 0.4103 0.7817 0.4835
C11 C 0.41191(13) 0.5467(4) 0.40604(11)
C12 C 0.38173(16) 0.3334(5) 0.37262(16)
H8 H 0.3352 0.2604 0.3783
C13 C 0.4209(2) 0.2277(5) 0.33043(18)
H9 H 0.3998 0.0853 0.3070
C14 C 0.4901(2) 0.3317(6) 0.32316(14)
H10 H 0.5159 0.2606 0.2945
C15 C 0.52115(16) 0.5365(5) 0.35719(14)
H11 H 0.5693 0.6049 0.3530
C16 C 0.48223(14) 0.6455(4) 0.39805(12)
H12 H 0.5039 0.7886 0.4207
C17 C 0.00501(17) 0.8407(7) 0.41745(17)
H13 H -0.0123 0.7535 0.3721
H14 H -0.0445 0.9221 0.4187
H15 H 0.0277 0.7349 0.4588
C18 C 0.13598(18) 0.5057(6) 0.29467(16)
H16 H 0.1956 0.5036 0.3003
H17 H 0.1001 0.4309 0.2488
H18 H 0.1309 0.4230 0.3352
loop_
_geom_bond_atom_site_label_1
_geom_bond_atom_site_label_2
_geom_bond_site_symmetry_1
_geom_bond_site_symmetry_2
S1 C9 1_555 1_555
S2 C9 1_555 1_555
O1 C7 1_555 1_555
O2 C8 1_555 1_555
C1 H1 1_555 1_555
C2 C1 1_555 1_555
H2 C2 1_555 1_555
C3 C2 1_555 1_555
H3 C3 1_555 1_555
C4 C3 1_555 1_555
H4 C4 1_555 1_555
C5 C4 1_555 1_555
H5 C5 1_555 1_555
C6 C1 1_555 1_555
C7 C6 1_555 1_555
C8 C7 1_555 1_555
C9 C8 1_555 1_555
C10 O2 1_555 1_555
H6 C10 1_555 1_555
H7 C10 1_555 1_555
C11 C10 1_555 1_555
C12 C11 1_555 1_555
H8 C12 1_555 1_555
C13 C12 1_555 1_555
H9 C13 1_555 1_555
C14 C13 1_555 1_555
H10 C14 1_555 1_555
C15 C14 1_555 1_555
H11 C15 1_555 1_555
C16 C11 1_555 1_555
H12 C16 1_555 1_555
C17 S1 1_555 1_555
H13 C17 1_555 1_555
H14 C17 1_555 1_555
H15 C17 1_555 1_555
C18 S2 1_555 1_555
H16 C18 1_555 1_555
H17 C18 1_555 1_555
H18 C18 1_555 1_555
C5 C6 1_555 1_555
C15 C16 1_555 1_555

#END
