
#######################################################################
#
#                 Cambridge Crystallographic Data Centre
#                                CCDC 
#
#######################################################################
#
# If this CIF has been generated from an entry in the Cambridge 
# Structural Database, then it will include bibliographic, chemical, 
# crystal, experimental, refinement or atomic coordinate data resulting 
# from the CCDC's data processing and validation procedures.
#
#######################################################################

data_PAVWAN
_chemical_formula_moiety         '2(C7 H13 N2 1+),H12 B12 2-'
_chemical_name_systematic        
'bis(1-methyl-3-propyl-1H-imidazol-3-ium) closo-dodecaborate(12)'
_symmetry_cell_setting           monoclinic
_symmetry_space_group_name_H-M   'P 21/n'
_symmetry_Int_Tables_number      14
_space_group_name_Hall           '-P 2yn'
loop_
_symmetry_equiv_pos_site_id
_symmetry_equiv_pos_as_xyz
1 x,y,z
2 1/2-x,1/2+y,1/2-z
3 -x,-y,-z
4 1/2+x,1/2-y,1/2+z
_cell_length_a                   9.600(3)
_cell_length_b                   10.708(3)
_cell_length_c                   11.824(3)
_cell_angle_alpha                90
_cell_angle_beta                 98.996(3)
_cell_angle_gamma                90
_cell_volume                     1200.52
_exptl_crystal_colour            colorless
_cell_formula_units_Z            2
loop_
_atom_site_label
_atom_site_type_symbol
_atom_site_fract_x
_atom_site_fract_y
_atom_site_fract_z
N1 N 0.42627(8) 0.48700(7) 0.83081(6)
N2 N 0.54576(8) 0.59694(7) 0.72622(6)
C1 C 0.50522(10) 0.40460(9) 0.77737(8)
H1 H 0.5067 0.3163 0.7849
C2 C 0.58017(11) 0.47346(9) 0.71226(8)
H2 H 0.6445 0.4426 0.6656
C3 C 0.45198(10) 0.60251(9) 0.79783(8)
H3 H 0.4103 0.6766 0.8215
C4 C 0.32912(11) 0.45489(10) 0.91009(8)
H4 H 0.3396 0.5152 0.9732
H5 H 0.3507 0.3708 0.9407
H6 H 0.2320 0.4572 0.8695
C5 C 0.59216(10) 0.70383(9) 0.66307(8)
H7 H 0.6883 0.6878 0.6461
H8 H 0.5957 0.7798 0.7111
C6 C 0.49237(11) 0.72510(10) 0.55211(9)
H9 H 0.3990 0.7509 0.5695
H10 H 0.4801 0.6461 0.5082
C7 C 0.54889(15) 0.82523(12) 0.48029(11)
H11 H 0.5684 0.9014 0.5260
H12 H 0.4786 0.8432 0.4128
H13 H 0.6360 0.7956 0.4558
B1 B 0.17752(10) 0.47883(9) 0.51592(8)
B2 B 0.07639(10) 0.42808(9) 0.62143(8)
B3 B 0.10000(10) 0.59066(9) 0.59909(8)
B4 B 0.09499(10) 0.61502(9) 0.44930(8)
B5 B 0.06803(10) 0.46744(9) 0.37923(8)
B6 B 0.05693(10) 0.35214(9) 0.48624(8)
H14 H 0.2948(13) 0.4632(11) 0.5272(10)
H15 H 0.1265(13) 0.3809(12) 0.7026(10)
H16 H 0.1655(13) 0.6499(11) 0.6652(10)
H17 H 0.1568(13) 0.6919(11) 0.4169(10)
H18 H 0.1106(13) 0.4460(11) 0.2954(10)
H19 H 0.0975(12) 0.2537(11) 0.4785(10)
B1B B -0.17752(10) 0.52117(9) 0.48408(8)
B2B B -0.07639(10) 0.57192(9) 0.37857(8)
B3B B -0.10000(10) 0.40934(9) 0.40091(8)
B4B B -0.09499(10) 0.38498(9) 0.55070(8)
B5B B -0.06803(10) 0.53256(9) 0.62077(8)
B6B B -0.05693(10) 0.64786(9) 0.51376(8)
H14B H -0.2948(13) 0.5368(11) 0.4728(10)
H15B H -0.1265(13) 0.6191(12) 0.2974(10)
H16B H -0.1655(13) 0.3501(11) 0.3348(10)
H17B H -0.1568(13) 0.3081(11) 0.5831(10)
H18B H -0.1106(13) 0.5540(11) 0.7046(10)
H19B H -0.0975(12) 0.7463(11) 0.5215(10)
loop_
_geom_bond_atom_site_label_1
_geom_bond_atom_site_label_2
_geom_bond_site_symmetry_1
_geom_bond_site_symmetry_2
N1 C1 1_555 1_555
N2 C2 1_555 1_555
C1 H1 1_555 1_555
C2 C1 1_555 1_555
H2 C2 1_555 1_555
C3 N1 1_555 1_555
H3 C3 1_555 1_555
C4 N1 1_555 1_555
H4 C4 1_555 1_555
H5 C4 1_555 1_555
H6 C4 1_555 1_555
C5 N2 1_555 1_555
H7 C5 1_555 1_555
H8 C5 1_555 1_555
C6 C5 1_555 1_555
H9 C6 1_555 1_555
H10 C6 1_555 1_555
C7 C6 1_555 1_555
H11 C7 1_555 1_555
H12 C7 1_555 1_555
H13 C7 1_555 1_555
B1 B2 1_555 1_555
B2 B3 1_555 1_555
B3 B1 1_555 1_555
B4 B1 1_555 1_555
B5 B1 1_555 1_555
B6 B1 1_555 1_555
H14 B1 1_555 1_555
H15 B2 1_555 1_555
H16 B3 1_555 1_555
H17 B4 1_555 1_555
H18 B5 1_555 1_555
H19 B6 1_555 1_555
B1B B2B 1_555 1_555
B2B B4 1_555 1_555
B3B B5 1_555 1_555
B4B B2 1_555 1_555
B5B B2 1_555 1_555
B6B B3 1_555 1_555
H14B B1B 1_555 1_555
H15B B2B 1_555 1_555
H16B B3B 1_555 1_555
H17B B4B 1_555 1_555
H18B B5B 1_555 1_555
H19B B6B 1_555 1_555
N2 C3 1_555 1_555
B2 B6 1_555 1_555
B3 B4 1_555 1_555
B3 B5B 1_555 1_555
B4 B5 1_555 1_555
B4 B6B 1_555 1_555
B5 B6 1_555 1_555
B5 B2B 1_555 1_555
B6 B3B 1_555 1_555
B6 B4B 1_555 1_555
B1B B3B 1_555 1_555
B1B B4B 1_555 1_555
B1B B5B 1_555 1_555
B1B B6B 1_555 1_555
B2B B3B 1_555 1_555
B2B B6B 1_555 1_555
B3B B4B 1_555 1_555
B4B B5B 1_555 1_555
B5B B6B 1_555 1_555

#END
