
#######################################################################
#
#                 Cambridge Crystallographic Data Centre
#                                CCDC 
#
#######################################################################
#
# If this CIF has been generated from an entry in the Cambridge 
# Structural Database, then it will include bibliographic, chemical, 
# crystal, experimental, refinement or atomic coordinate data resulting 
# from the CCDC's data processing and validation procedures.
#
#######################################################################

data_PAVWEQ
_chemical_formula_moiety         'C17 H20 Cl1 F1 N2 O3'
_chemical_name_systematic        
2-t-Butyl-4-chloro-5-((4-(2-fluoroethoxy)benzyl)oxy)pyridazin-3(2H)-one
_symmetry_cell_setting           triclinic
_symmetry_space_group_name_H-M   'P -1'
_symmetry_Int_Tables_number      2
_space_group_name_Hall           '-P 1'
loop_
_symmetry_equiv_pos_site_id
_symmetry_equiv_pos_as_xyz
1 x,y,z
2 -x,-y,-z
_cell_length_a                   8.7170(14)
_cell_length_b                   9.5850(16)
_cell_length_c                   11.8524(19)
_cell_angle_alpha                110.475(2)
_cell_angle_beta                 107.185(2)
_cell_angle_gamma                96.424(3)
_cell_volume                     860.306
_exptl_crystal_colour            colorless
_exptl_crystal_description       column
_chemical_melting_point          '396 K'
_cell_formula_units_Z            2
_exptl_crystal_recrystallization_method hexane/methanol
loop_
_atom_site_label
_atom_site_type_symbol
_atom_site_fract_x
_atom_site_fract_y
_atom_site_fract_z
C1 C 0.7610(4) 1.6895(3) 0.6672(3)
H1 H 0.7483 1.7463 0.7502
H2 H 0.8756 1.7279 0.6751
F1 F 0.6489(2) 1.71415(19) 0.56807(19)
C2 C 0.7295(3) 1.5215(2) 0.63796(19)
H3 H 0.7927 1.5042 0.7142
H4 H 0.6104 1.4780 0.6141
C3 C 0.7804(2) 1.29834(18) 0.49589(16)
C4 C 0.8406(2) 1.2381(2) 0.39752(17)
H5 H 0.8787 1.3019 0.3607
C5 C 0.8452(2) 1.08544(19) 0.35314(16)
H6 H 0.8883 1.0456 0.2867
C6 C 0.7879(2) 0.98912(18) 0.40407(15)
C7 C 0.7268(2) 1.05060(19) 0.50116(16)
H7 H 0.6861 0.9860 0.5363
C8 C 0.7234(2) 1.2049(2) 0.54876(17)
H8 H 0.6827 1.2454 0.6165
C9 C 0.7940(2) 0.82347(19) 0.35594(16)
H9 H 0.9074 0.8134 0.3944
H10 H 0.7176 0.7643 0.3796
C10 C 0.74817(19) 0.62230(17) 0.15061(16)
C11 C 0.69499(19) 0.56701(17) 0.01958(15)
C12 C 0.69623(19) 0.41371(18) -0.05951(15)
C13 C 0.8067(2) 0.52043(18) 0.20730(16)
H11 H 0.8450 0.5560 0.2986
C14 C 0.7659(2) 0.16475(18) -0.05844(16)
C15 C 0.8931(2) 0.1704(2) -0.12319(19)
H12 H 0.8604 0.2209 -0.1825
H13 H 0.8984 0.0657 -0.1714
H14 H 1.0020 0.2281 -0.0571
C16 C 0.5943(2) 0.06939(19) -0.15633(18)
H15 H 0.5141 0.0780 -0.1127
H16 H 0.5978 -0.0383 -0.1945
H17 H 0.5612 0.1075 -0.2244
C17 C 0.8217(2) 0.09524(19) 0.03935(18)
H18 H 0.9307 0.1564 0.1034
H19 H 0.8286 -0.0101 -0.0049
H20 H 0.7419 0.0946 0.0827
Cl1 Cl 0.62207(5) 0.67867(4) -0.06075(4)
N1 N 0.75585(16) 0.32789(14) 0.01074(12)
N2 N 0.81035(17) 0.38114(15) 0.14042(13)
O1 O 0.78194(18) 1.45135(14) 0.53292(12)
O2 O 0.74477(15) 0.76678(12) 0.21681(10)
O3 O 0.64984(16) 0.36158(13) -0.17774(11)
C18? C 0.6652(12) 1.6621(10) 0.6292(9)
F2? F 0.8073(7) 1.7730(6) 0.6664(5)
H21? H 0.5919 1.6389 0.5400
H22? H 0.6036 1.6957 0.6880
loop_
_geom_bond_atom_site_label_1
_geom_bond_atom_site_label_2
_geom_bond_site_symmetry_1
_geom_bond_site_symmetry_2
C1 H1 1_555 1_555
H2 C1 1_555 1_555
F1 C1 1_555 1_555
C2 C1 1_555 1_555
H3 C2 1_555 1_555
H4 C2 1_555 1_555
C3 C4 1_555 1_555
C4 H5 1_555 1_555
C5 C4 1_555 1_555
H6 C5 1_555 1_555
C6 C5 1_555 1_555
C7 C6 1_555 1_555
H7 C7 1_555 1_555
C8 C3 1_555 1_555
H8 C8 1_555 1_555
C9 C6 1_555 1_555
H9 C9 1_555 1_555
H10 C9 1_555 1_555
C10 C11 1_555 1_555
C11 C12 1_555 1_555
C12 N1 1_555 1_555
C13 C10 1_555 1_555
H11 C13 1_555 1_555
C14 C15 1_555 1_555
C15 H12 1_555 1_555
H13 C15 1_555 1_555
H14 C15 1_555 1_555
C16 C14 1_555 1_555
H15 C16 1_555 1_555
H16 C16 1_555 1_555
H17 C16 1_555 1_555
C17 C14 1_555 1_555
H18 C17 1_555 1_555
H19 C17 1_555 1_555
H20 C17 1_555 1_555
Cl1 C11 1_555 1_555
N1 C14 1_555 1_555
N2 C13 1_555 1_555
O1 C2 1_555 1_555
O2 C9 1_555 1_555
O3 C12 1_555 1_555
C3 O1 1_555 1_555
C7 C8 1_555 1_555
C10 O2 1_555 1_555
N1 N2 1_555 1_555

#END
