
#######################################################################
#
#                 Cambridge Crystallographic Data Centre
#                                CCDC 
#
#######################################################################
#
# If this CIF has been generated from an entry in the Cambridge 
# Structural Database, then it will include bibliographic, chemical, 
# crystal, experimental, refinement or atomic coordinate data resulting 
# from the CCDC's data processing and validation procedures.
#
#######################################################################

data_PAVZAN
_chemical_formula_moiety         
'C1 H6 N3 1+,0.5(C12 H8 O6 S2 2-),2(C6 H5 N1 O2)'
_chemical_name_systematic        
'bis(Guanidinium) biphenyldisulfonate p-nitrobenzene clathrate'
_symmetry_cell_setting           monoclinic
_symmetry_space_group_name_H-M   'P 21/n'
_symmetry_Int_Tables_number      14
_space_group_name_Hall           '-P 2yn'
loop_
_symmetry_equiv_pos_site_id
_symmetry_equiv_pos_as_xyz
1 x,y,z
2 1/2+x,1/2-y,1/2+z
3 -x,-y,-z
4 1/2-x,1/2+y,1/2-z
_cell_length_a                   7.6881(7)
_cell_length_b                   9.9552(9)
_cell_length_c                   29.215(3)
_cell_angle_alpha                90
_cell_angle_beta                 94.127(2)
_cell_angle_gamma                90
_cell_volume                     2230.22
_exptl_crystal_colour            colorless
_exptl_crystal_description       Plate
_cell_formula_units_Z            4
loop_
_atom_site_label
_atom_site_type_symbol
_atom_site_fract_x
_atom_site_fract_y
_atom_site_fract_z
S1 S 0.5015(2) 0.01424(13) 0.18151(4)
O1 O 0.4980(5) -0.1248(3) 0.19650(11)
O2 O 0.3472(4) 0.0880(3) 0.19260(10)
O3 O 0.6617(4) 0.0829(4) 0.19815(11)
C1 C 0.5000(6) 0.0135(4) 0.1213(2)
C2 C 0.3482(7) 0.0294(7) 0.0943(2)
H1 H 0.2416(7) 0.0439(7) 0.1081(2)
C3 C 0.3496(8) 0.0244(8) 0.0472(2)
H2 H 0.2430(8) 0.0362(8) 0.0291(2)
C4 C 0.4989(6) 0.0031(5) 0.02552(15)
C5 C 0.6497(7) -0.0120(6) 0.0531(2)
H3 H 0.7566(7) -0.0252(6) 0.0393(2)
C6 C 0.6508(7) -0.0086(6) 0.1005(2)
H4 H 0.7571(7) -0.0217(6) 0.1186(2)
C4B C 0.5011(6) -0.0031(5) -0.02552(15)
C3B C 0.6504(8) -0.0244(8) -0.0472(2)
C2B C 0.6518(7) -0.0294(7) -0.0943(2)
C1B C 0.5000(6) -0.0135(4) -0.1213(2)
S1B S 0.4985(2) -0.01424(13) -0.18151(4)
O1B O 0.5020(5) 0.1248(3) -0.19650(11)
O2B O 0.6528(4) -0.0880(3) -0.19260(10)
O3B O 0.3383(4) -0.0829(4) -0.19815(11)
C6B C 0.3492(7) 0.0086(6) -0.1005(2)
C5B C 0.3503(7) 0.0120(6) -0.0531(2)
H3B H 0.2434(7) 0.0252(6) -0.0393(2)
H4B H 0.2429(7) 0.0217(6) -0.1186(2)
H1B H 0.7584(7) -0.0439(7) -0.1081(2)
H2B H 0.7570(8) -0.0362(8) -0.0291(2)
C7 C 0.0155(7) -0.1330(5) 0.2312(2)
N1 N 0.1657(5) -0.1914(4) 0.24375(13)
H5 H 0.2633(5) -0.1595(4) 0.23411(13)
H6 H 0.1680(5) -0.2623(4) 0.26177(13)
N2 N 0.0101(5) -0.0263(4) 0.20406(14)
H7 H 0.1071(5) 0.0064(4) 0.19426(14)
H8 H -0.0905(5) 0.0120(4) 0.19585(14)
N3 N -0.1325(6) -0.1834(4) 0.24535(14)
H9 H -0.1296(6) -0.2551(4) 0.26298(14)
H10 H -0.2328(6) -0.1448(4) 0.23705(14)
N4 N 0.9269(6) 0.2943(5) 0.1540(2)
O4 O 0.9674(5) 0.3065(4) 0.19519(15)
O5 O 0.9679(5) 0.1969(5) 0.13112(15)
C8 C 0.8276(7) 0.4059(6) 0.1300(2)
C9 C 0.7992(8) 0.5190(7) 0.1537(3)
H11 H 0.8398(8) 0.5271(7) 0.1851(3)
C10 C 0.7101(10) 0.6221(8) 0.1314(3)
H12 H 0.6875(10) 0.7025(8) 0.1474(3)
C11 C 0.6543(9) 0.6094(9) 0.0864(4)
H13 H 0.5947(9) 0.6821(9) 0.0711(4)
C12 C 0.6827(8) 0.4921(9) 0.0623(2)
H14 H 0.6421(8) 0.4840(9) 0.0309(2)
C13 C 0.7721(8) 0.3859(7) 0.0849(2)
H15 H 0.7932(8) 0.3038(7) 0.0697(2)
N5 N 1.0630(8) 0.7369(8) 0.0581(2)
O6 O 1.0331(7) 0.7245(6) 0.0167(2)
O7 O 1.0223(6) 0.8370(6) 0.0795(2)
C14 C 1.1550(8) 0.6292(8) 0.0842(2)
C15 C 1.1768(9) 0.5072(9) 0.0624(2)
H16 H 1.1370(9) 0.4939(9) 0.0312(2)
C16 C 1.2589(10) 0.4055(8) 0.0881(3)
H17 H 1.2778(10) 0.3207(8) 0.0745(3)
C17 C 1.3130(10) 0.4270(10) 0.1333(3)
H18 H 1.3680(10) 0.3561(10) 0.1506(3)
C18 C 1.2898(10) 0.5475(10) 0.1538(3)
H19 H 1.3285(10) 0.5599(10) 0.1851(3)
C19 C 1.2111(9) 0.6507(8) 0.1295(3)
H20 H 1.1953(9) 0.7356(8) 0.1435(3)
loop_
_geom_bond_atom_site_label_1
_geom_bond_atom_site_label_2
_geom_bond_site_symmetry_1
_geom_bond_site_symmetry_2
S1 O1 1_555 1_555
O2 S1 1_555 1_555
O3 S1 1_555 1_555
C1 S1 1_555 1_555
C2 C1 1_555 1_555
H1 C2 1_555 1_555
C3 C2 1_555 1_555
H2 C3 1_555 1_555
C4 C3 1_555 1_555
C5 C4 1_555 1_555
H3 C5 1_555 1_555
C6 C1 1_555 1_555
H4 C6 1_555 1_555
C7 N1 1_555 1_555
N1 H5 1_555 1_555
H6 N1 1_555 1_555
N2 C7 1_555 1_555
H7 N2 1_555 1_555
H8 N2 1_555 1_555
N3 C7 1_555 1_555
H9 N3 1_555 1_555
H10 N3 1_555 1_555
N4 O4 1_555 1_555
O5 N4 1_555 1_555
C8 N4 1_555 1_555
C9 C8 1_555 1_555
H11 C9 1_555 1_555
C10 C9 1_555 1_555
H12 C10 1_555 1_555
C11 C10 1_555 1_555
H13 C11 1_555 1_555
C12 C11 1_555 1_555
H14 C12 1_555 1_555
C13 C8 1_555 1_555
H15 C13 1_555 1_555
N5 O6 1_555 1_555
O7 N5 1_555 1_555
C14 N5 1_555 1_555
C15 C14 1_555 1_555
H16 C15 1_555 1_555
C16 C15 1_555 1_555
H17 C16 1_555 1_555
C17 C16 1_555 1_555
H18 C17 1_555 1_555
C18 C17 1_555 1_555
H19 C18 1_555 1_555
C19 C14 1_555 1_555
H20 C19 1_555 1_555
C4B C4 1_555 1_555
C3B C4B 1_555 1_555
C2B C3B 1_555 1_555
C1B C2B 1_555 1_555
S1B C1B 1_555 1_555
O1B S1B 1_555 1_555
O2B S1B 1_555 1_555
O3B S1B 1_555 1_555
C6B C1B 1_555 1_555
C5B C4B 1_555 1_555
H3B C5B 1_555 1_555
H4B C6B 1_555 1_555
H1B C2B 1_555 1_555
H2B C3B 1_555 1_555
C5 C6 1_555 1_555
C12 C13 1_555 1_555
C18 C19 1_555 1_555
C6B C5B 1_555 1_555

#END
