
#######################################################################
#
#                 Cambridge Crystallographic Data Centre
#                                CCDC 
#
#######################################################################
#
# If this CIF has been generated from an entry in the Cambridge 
# Structural Database, then it will include bibliographic, chemical, 
# crystal, experimental, refinement or atomic coordinate data resulting 
# from the CCDC's data processing and validation procedures.
#
#######################################################################

data_PAWFUQ
_chemical_formula_moiety         'C19 H19 Cl1 O4'
_chemical_name_systematic        
'Ethyl 2-(4-(4-chlorobenzoyl)phenoxy)-2-methylpropanoate'
_chemical_properties_biological  'Antihypertensive activity'
_symmetry_cell_setting           orthorhombic
_symmetry_space_group_name_H-M   'P n a 21'
_symmetry_Int_Tables_number      33
_space_group_name_Hall           'P 2c -2n'
loop_
_symmetry_equiv_pos_site_id
_symmetry_equiv_pos_as_xyz
1 x,y,z
2 -x,-y,1/2+z
3 1/2+x,1/2-y,z
4 1/2-x,1/2+y,1/2+z
_cell_length_a                   13.677(3)
_cell_length_b                   16.420(3)
_cell_length_c                   7.9490(16)
_cell_angle_alpha                90
_cell_angle_beta                 90
_cell_angle_gamma                90
_cell_volume                     1785.16
_exptl_crystal_colour            colorless
_exptl_crystal_description       block
_cell_formula_units_Z            4
_exptl_crystal_recrystallization_method ethanol
loop_
_atom_site_label
_atom_site_type_symbol
_atom_site_fract_x
_atom_site_fract_y
_atom_site_fract_z
Cl1 Cl 0.48890(13) 0.70175(10) 0.0275(3)
O1 O 0.5732(3) 0.8850(3) 0.7608(6)
C1 C 0.4206(4) 0.8448(3) 0.4133(8)
H1 H 0.3735 0.8840 0.4365
O2 O 0.1445(2) 0.96725(19) 1.0184(5)
C2 C 0.4204(4) 0.8080(3) 0.2568(8)
H2 H 0.3747 0.8228 0.1757
O3 O 0.2113(3) 0.9435(2) 1.3404(6)
C3 C 0.4895(4) 0.7489(3) 0.2235(9)
O4 O 0.2075(3) 1.0773(2) 1.3897(5)
C4 C 0.5574(4) 0.7267(3) 0.3426(9)
H3 H 0.6030 0.6861 0.3196
C5 C 0.5571(4) 0.7653(3) 0.4965(9)
H4 H 0.6041 0.7510 0.5757
C6 C 0.4886(3) 0.8254(3) 0.5378(9)
C7 C 0.4929(3) 0.8691(3) 0.7002(7)
C8 C 0.4017(4) 0.8941(3) 0.7865(7)
C9 C 0.4053(4) 0.9562(3) 0.9038(8)
H5 H 0.4650 0.9809 0.9267
C10 C 0.3229(4) 0.9827(3) 0.9882(7)
H6 H 0.3272 1.0245 1.0668
C11 C 0.2338(4) 0.9463(3) 0.9542(7)
C12 C 0.2301(4) 0.8814(3) 0.8440(7)
H7 H 0.1711 0.8545 0.8270
C13 C 0.3114(4) 0.8558(3) 0.7596(8)
H8 H 0.3069 0.8128 0.6839
C14 C 0.1328(4) 1.0324(3) 1.1404(7)
C15 C 0.1562(4) 1.1156(3) 1.0644(7)
H9 H 0.2247 1.1185 1.0390
H10 H 0.1395 1.1575 1.1434
H11 H 0.1191 1.1229 0.9630
C16 C 0.0242(4) 1.0277(3) 1.1840(8)
H12 H 0.0101 0.9757 1.2338
H13 H -0.0139 1.0342 1.0834
H14 H 0.0081 1.0702 1.2621
C17 C 0.1892(3) 1.0110(3) 1.3001(7)
C18 C 0.2573(5) 1.0655(4) 1.5498(9)
H15 H 0.3151 1.0322 1.5333
H16 H 0.2144 1.0374 1.6278
C19 C 0.2854(5) 1.1450(4) 1.6197(10)
H17 H 0.3193 1.1372 1.7241
H18 H 0.2278 1.1771 1.6389
H19 H 0.3274 1.1727 1.5416
loop_
_geom_bond_atom_site_label_1
_geom_bond_atom_site_label_2
_geom_bond_site_symmetry_1
_geom_bond_site_symmetry_2
Cl1 C3 1_555 1_555
O1 C7 1_555 1_555
C1 H1 1_555 1_555
O2 C11 1_555 1_555
C2 C1 1_555 1_555
H2 C2 1_555 1_555
O3 C17 1_555 1_555
C3 C2 1_555 1_555
O4 C17 1_555 1_555
C4 C3 1_555 1_555
H3 C4 1_555 1_555
C5 C4 1_555 1_555
H4 C5 1_555 1_555
C6 C1 1_555 1_555
C7 C6 1_555 1_555
C8 C7 1_555 1_555
C9 C8 1_555 1_555
H5 C9 1_555 1_555
C10 C9 1_555 1_555
H6 C10 1_555 1_555
C11 C10 1_555 1_555
C12 C11 1_555 1_555
H7 C12 1_555 1_555
C13 C8 1_555 1_555
H8 C13 1_555 1_555
C14 O2 1_555 1_555
C15 C14 1_555 1_555
H9 C15 1_555 1_555
H10 C15 1_555 1_555
H11 C15 1_555 1_555
C16 C14 1_555 1_555
H12 C16 1_555 1_555
H13 C16 1_555 1_555
H14 C16 1_555 1_555
C17 C14 1_555 1_555
C18 O4 1_555 1_555
H15 C18 1_555 1_555
H16 C18 1_555 1_555
C19 C18 1_555 1_555
H17 C19 1_555 1_555
H18 C19 1_555 1_555
H19 C19 1_555 1_555
C5 C6 1_555 1_555
C12 C13 1_555 1_555

#END
