
#######################################################################
#
#                 Cambridge Crystallographic Data Centre
#                                CCDC 
#
#######################################################################
#
# If this CIF has been generated from an entry in the Cambridge 
# Structural Database, then it will include bibliographic, chemical, 
# crystal, experimental, refinement or atomic coordinate data resulting 
# from the CCDC's data processing and validation procedures.
#
#######################################################################

data_PAWGOL
_chemical_formula_moiety         'C11 H14 F1 N1 O1'
_chemical_name_systematic        N-(4-Fluorophenyl)-2,2-dimethylpropanamide
_symmetry_cell_setting           monoclinic
_symmetry_space_group_name_H-M   'P 21/c'
_symmetry_Int_Tables_number      14
_space_group_name_Hall           '-P 2ybc'
loop_
_symmetry_equiv_pos_site_id
_symmetry_equiv_pos_as_xyz
1 x,y,z
2 -x,1/2+y,1/2-z
3 -x,-y,-z
4 x,1/2-y,1/2+z
_cell_length_a                   9.5750(19)
_cell_length_b                   13.027(3)
_cell_length_c                   8.8340(18)
_cell_angle_alpha                90
_cell_angle_beta                 92.07(3)
_cell_angle_gamma                90
_cell_volume                     1101.18
_exptl_crystal_colour            yellow
_exptl_crystal_description       block
_cell_formula_units_Z            4
_exptl_crystal_recrystallization_method ethanol
loop_
_atom_site_label
_atom_site_type_symbol
_atom_site_fract_x
_atom_site_fract_y
_atom_site_fract_z
O1 O 0.55665(18) 0.65320(14) 0.18951(19)
F1 F 0.01604(17) 0.92797(16) 0.1759(2)
N1 N 0.4924(2) 0.74067(17) -0.0211(2)
H1 H 0.5136 0.7547 -0.1126
C1 C 0.2795(3) 0.7359(2) 0.1236(3)
H2 H 0.2982 0.6683 0.1514
C2 C 0.1603(3) 0.7837(3) 0.1726(4)
H3 H 0.0995 0.7493 0.2349
C3 C 0.1340(3) 0.8806(3) 0.1284(3)
C4 C 0.2195(3) 0.9346(2) 0.0395(3)
H4 H 0.1981 1.0016 0.0110
C5 C 0.3409(3) 0.8869(2) -0.0081(3)
H5 H 0.4019 0.9225 -0.0687
C6 C 0.3705(3) 0.7878(2) 0.0339(3)
C7 C 0.5775(3) 0.6763(2) 0.0568(3)
C8 C 0.7023(3) 0.6356(2) -0.0266(3)
C9 C 0.8029(3) 0.7255(3) -0.0500(4)
H6 H 0.8316 0.7537 0.0465
H7 H 0.7565 0.7775 -0.1102
H8 H 0.8834 0.7014 -0.1011
C10 C 0.7752(4) 0.5529(3) 0.0688(4)
H9 H 0.7121 0.4967 0.0829
H10 H 0.8036 0.5809 0.1657
H11 H 0.8560 0.5289 0.0181
C11 C 0.6568(3) 0.5904(2) -0.1808(3)
H12 H 0.5945 0.5338 -0.1662
H13 H 0.7375 0.5669 -0.2321
H14 H 0.6097 0.6422 -0.2408
loop_
_geom_bond_atom_site_label_1
_geom_bond_atom_site_label_2
_geom_bond_site_symmetry_1
_geom_bond_site_symmetry_2
O1 C7 1_555 1_555
F1 C3 1_555 1_555
N1 H1 1_555 1_555
C1 H2 1_555 1_555
C2 C1 1_555 1_555
H3 C2 1_555 1_555
C3 C2 1_555 1_555
C4 C3 1_555 1_555
H4 C4 1_555 1_555
C5 C4 1_555 1_555
H5 C5 1_555 1_555
C6 N1 1_555 1_555
C7 N1 1_555 1_555
C8 C7 1_555 1_555
C9 C8 1_555 1_555
H6 C9 1_555 1_555
H7 C9 1_555 1_555
H8 C9 1_555 1_555
C10 C8 1_555 1_555
H9 C10 1_555 1_555
H10 C10 1_555 1_555
H11 C10 1_555 1_555
C11 C8 1_555 1_555
H12 C11 1_555 1_555
H13 C11 1_555 1_555
H14 C11 1_555 1_555
C1 C6 1_555 1_555
C5 C6 1_555 1_555

#END
