
#######################################################################
#
#                 Cambridge Crystallographic Data Centre
#                                CCDC 
#
#######################################################################
#
# If this CIF has been generated from an entry in the Cambridge 
# Structural Database, then it will include bibliographic, chemical, 
# crystal, experimental, refinement or atomic coordinate data resulting 
# from the CCDC's data processing and validation procedures.
#
#######################################################################

data_PAWHUS
_chemical_name_common            
"3,3,3',3'-Tetramethyl-6,6'-bis((pyridin-4-yl)methoxy)-1,1'-spirobiindan monohydrate"
_chemical_formula_moiety         'C33 H34 N2 O2,H2 O1'
_chemical_name_systematic        
"4,4'-((3,3,3',3'-Tetramethyl-2,2',3,3'-tetrahydro-1,1'-spirobi[indene]-6,6'-diyl)bis(oxymethylene))dipyridine monohydrate"
_symmetry_cell_setting           triclinic
_symmetry_space_group_name_H-M   'P -1'
_symmetry_Int_Tables_number      2
_space_group_name_Hall           '-P 1'
loop_
_symmetry_equiv_pos_site_id
_symmetry_equiv_pos_as_xyz
1 x,y,z
2 -x,-y,-z
_cell_length_a                   6.0101(12)
_cell_length_b                   10.724(2)
_cell_length_c                   22.156(4)
_cell_angle_alpha                81.92(3)
_cell_angle_beta                 87.17(3)
_cell_angle_gamma                77.22(3)
_cell_volume                     1378.56
_exptl_crystal_colour            colorless
_exptl_crystal_description       block
_cell_formula_units_Z            2
_exptl_crystal_recrystallization_method hexane
loop_
_atom_site_label
_atom_site_type_symbol
_atom_site_fract_x
_atom_site_fract_y
_atom_site_fract_z
O1 O 1.1312(3) 0.04027(16) 0.33047(7)
O2 O 0.1540(3) 0.43323(16) 0.23137(8)
N1 N 1.5601(4) 0.2248(2) 0.46452(11)
N2 N -0.4528(4) 0.5560(2) 0.38411(11)
C1 C 0.6971(4) 0.0684(2) 0.14537(10)
C2 C 0.5655(4) 0.2053(2) 0.14847(10)
C3 C 0.4135(4) 0.2482(2) 0.19451(10)
H1 H 0.3835 0.1900 0.2288
C4 C 0.3069(4) 0.3778(2) 0.18911(11)
C5 C 0.3525(4) 0.4625(2) 0.13868(11)
H2 H 0.2780 0.5511 0.1353
C6 C 0.5050(4) 0.4188(2) 0.09374(11)
H3 H 0.5361 0.4771 0.0596
C7 C 0.6129(4) 0.2894(2) 0.09859(10)
C8 C 0.7834(4) 0.2204(2) 0.05474(11)
C9 C 0.8772(4) 0.0906(2) 0.09442(11)
H4 H 1.0229 0.0928 0.1128
H5 H 0.9059 0.0194 0.0691
C10 C 0.8030(4) 0.0020(2) 0.20557(10)
C11 C 0.9276(4) 0.0530(2) 0.24253(10)
H6 H 0.9555 0.1370 0.2312
C12 C 1.0119(4) -0.0205(2) 0.29660(10)
C13 C 0.9705(4) -0.1428(2) 0.31379(10)
H7 H 1.0265 -0.1919 0.3512
C14 C 0.8451(4) -0.1929(2) 0.27528(11)
H8 H 0.8170 -0.2770 0.2864
C15 C 0.7615(4) -0.1208(2) 0.22100(10)
C16 C 0.6323(4) -0.1574(2) 0.17100(11)
C17 C 0.5423(4) -0.0241(2) 0.13356(11)
H9 H 0.3828 0.0110 0.1460
H10 H 0.5455 -0.0327 0.0896
C18 C 0.6609(4) 0.2012(3) -0.00128(11)
H11 H 0.5397 0.1550 0.0119
H12 H 0.7705 0.1510 -0.0277
H13 H 0.5941 0.2855 -0.0239
C19 C 0.9733(4) 0.2922(3) 0.03409(13)
H14 H 0.9085 0.3739 0.0091
H15 H 1.0881 0.2390 0.0100
H16 H 1.0449 0.3095 0.0699
C20 C 0.4349(4) -0.2201(3) 0.19443(13)
H17 H 0.4950 -0.3051 0.2172
H18 H 0.3473 -0.2297 0.1599
H19 H 0.3354 -0.1656 0.2213
C21 C 0.7993(4) -0.2496(2) 0.13409(12)
H20 H 0.9238 -0.2087 0.1176
H21 H 0.7186 -0.2695 0.1005
H22 H 0.8619 -0.3295 0.1607
C22 C 0.1231(4) 0.3548(2) 0.28763(12)
H23 H 0.2627 0.3366 0.3122
H24 H 0.0926 0.2717 0.2796
C23 C -0.0741(4) 0.4264(2) 0.32137(11)
C24 C -0.0538(5) 0.4563(2) 0.37921(12)
H25 H 0.0898 0.4334 0.3986
C25 C -0.2440(5) 0.5196(3) 0.40854(13)
H26 H -0.2268 0.5388 0.4484
C26 C -0.4693(5) 0.5269(3) 0.32831(13)
H27 H -0.6144 0.5520 0.3098
C27 C -0.2893(4) 0.4629(2) 0.29563(12)
H28 H -0.3119 0.4439 0.2561
C28 C 1.2225(4) -0.0277(2) 0.38685(11)
H29 H 1.3343 -0.1076 0.3800
H30 H 1.0993 -0.0513 0.4144
C29 C 1.3368(4) 0.0620(2) 0.41402(10)
C30 C 1.2521(4) 0.1158(2) 0.46561(11)
H31 H 1.1150 0.0987 0.4847
C31 C 1.3682(5) 0.1949(3) 0.48926(12)
H32 H 1.3082 0.2300 0.5252
C32 C 1.6353(4) 0.1750(3) 0.41367(13)
H33 H 1.7691 0.1965 0.3944
C33 C 1.5327(4) 0.0949(3) 0.38721(11)
H34 H 1.5951 0.0623 0.3509
O3 O -0.8355(3) 0.67390(19) 0.45596(8)
H35 H -0.7253 0.6347 0.4324
H36 H -0.7606 0.7035 0.4826
loop_
_geom_bond_atom_site_label_1
_geom_bond_atom_site_label_2
_geom_bond_site_symmetry_1
_geom_bond_site_symmetry_2
O1 C12 1_555 1_555
O2 C4 1_555 1_555
N1 C31 1_555 1_555
N2 C25 1_555 1_555
C1 C2 1_555 1_555
C2 C3 1_555 1_555
C3 H1 1_555 1_555
C4 C3 1_555 1_555
C5 C4 1_555 1_555
H2 C5 1_555 1_555
C6 C5 1_555 1_555
H3 C6 1_555 1_555
C7 C2 1_555 1_555
C8 C7 1_555 1_555
C9 C1 1_555 1_555
H4 C9 1_555 1_555
H5 C9 1_555 1_555
C10 C1 1_555 1_555
C11 C10 1_555 1_555
H6 C11 1_555 1_555
C12 C11 1_555 1_555
C13 C12 1_555 1_555
H7 C13 1_555 1_555
C14 C13 1_555 1_555
H8 C14 1_555 1_555
C15 C10 1_555 1_555
C16 C15 1_555 1_555
C17 C1 1_555 1_555
H9 C17 1_555 1_555
H10 C17 1_555 1_555
C18 C8 1_555 1_555
H11 C18 1_555 1_555
H12 C18 1_555 1_555
H13 C18 1_555 1_555
C19 C8 1_555 1_555
H14 C19 1_555 1_555
H15 C19 1_555 1_555
H16 C19 1_555 1_555
C20 C16 1_555 1_555
H17 C20 1_555 1_555
H18 C20 1_555 1_555
H19 C20 1_555 1_555
C21 C16 1_555 1_555
H20 C21 1_555 1_555
H21 C21 1_555 1_555
H22 C21 1_555 1_555
C22 O2 1_555 1_555
H23 C22 1_555 1_555
H24 C22 1_555 1_555
C23 C22 1_555 1_555
C24 C23 1_555 1_555
H25 C24 1_555 1_555
C25 C24 1_555 1_555
H26 C25 1_555 1_555
C26 N2 1_555 1_555
H27 C26 1_555 1_555
C27 C23 1_555 1_555
H28 C27 1_555 1_555
C28 O1 1_555 1_555
H29 C28 1_555 1_555
H30 C28 1_555 1_555
C29 C28 1_555 1_555
C30 C29 1_555 1_555
H31 C30 1_555 1_555
C31 C30 1_555 1_555
H32 C31 1_555 1_555
C32 N1 1_555 1_555
H33 C32 1_555 1_555
C33 C29 1_555 1_555
H34 C33 1_555 1_555
O3 H35 1_555 1_555
H36 O3 1_555 1_555
C6 C7 1_555 1_555
C8 C9 1_555 1_555
C14 C15 1_555 1_555
C16 C17 1_555 1_555
C26 C27 1_555 1_555
C32 C33 1_555 1_555

#END
