
#######################################################################
#
#                 Cambridge Crystallographic Data Centre
#                                CCDC 
#
#######################################################################
#
# If this CIF has been generated from an entry in the Cambridge 
# Structural Database, then it will include bibliographic, chemical, 
# crystal, experimental, refinement or atomic coordinate data resulting 
# from the CCDC's data processing and validation procedures.
#
#######################################################################

data_PAWKOP
_chemical_formula_moiety         '2(C2 H8 N1 1+),C8 H4 O4 2-,C8 H6 O4'
_chemical_name_systematic        
'bis(Dimethylammonium) benzene-1,3-dicarboxylic acid benzene-1,3-dicarboxylate'
_symmetry_cell_setting           triclinic
_symmetry_space_group_name_H-M   'P -1'
_symmetry_Int_Tables_number      2
_space_group_name_Hall           '-P 1'
loop_
_symmetry_equiv_pos_site_id
_symmetry_equiv_pos_as_xyz
1 x,y,z
2 -x,-y,-z
_cell_length_a                   8.439(5)
_cell_length_b                   10.133(8)
_cell_length_c                   12.304(9)
_cell_angle_alpha                91.858(14)
_cell_angle_beta                 94.599(17)
_cell_angle_gamma                90.009(14)
_cell_volume                     1048.2
_exptl_crystal_colour            colorless
_exptl_crystal_description       plate
_cell_formula_units_Z            2
loop_
_atom_site_label
_atom_site_type_symbol
_atom_site_fract_x
_atom_site_fract_y
_atom_site_fract_z
C1 C 0.59587(16) 0.02460(14) -0.25653(10)
C2 C 0.58993(16) 0.13501(13) -0.17228(10)
C3 C 0.48388(15) 0.12628(13) -0.09138(10)
H1 H 0.4153 0.0519 -0.0910
C4 C 0.47801(16) 0.22626(13) -0.01100(10)
C5 C 0.57738(17) 0.33635(14) -0.01340(11)
H2 H 0.5745 0.4043 0.0414
C6 C 0.68042(18) 0.34716(14) -0.09543(12)
H3 H 0.7458 0.4232 -0.0976
C7 C 0.68748(17) 0.24595(14) -0.17441(11)
H4 H 0.7589 0.2525 -0.2299
C8 C 0.35934(16) 0.21816(14) 0.07316(11)
O1 O 0.72388(12) 0.01992(10) -0.30648(8)
O2 O 0.48067(12) -0.05209(10) -0.27252(8)
O3 O 0.38017(13) 0.30395(11) 0.15297(8)
O4 O 0.24967(12) 0.13580(10) 0.06142(8)
C9 C -0.11755(16) 0.80121(13) 0.53099(11)
C10 C -0.11194(15) 0.71996(13) 0.42712(10)
C11 C 0.01076(16) 0.62967(13) 0.41715(11)
H5 H 0.0899 0.6204 0.4758
C12 C 0.01843(16) 0.55276(13) 0.32181(11)
C13 C -0.09707(17) 0.56792(14) 0.23523(11)
H6 H -0.0916 0.5167 0.1696
C14 C -0.21941(18) 0.65736(15) 0.24494(11)
H7 H -0.2979 0.6673 0.1860
C15 C -0.22774(17) 0.73288(14) 0.34092(11)
H8 H -0.3127 0.7934 0.3476
C16 C 0.15174(16) 0.45605(14) 0.31194(11)
H25 H 0.255(4) 0.332(3) 0.198(2)
O5 O -0.24912(12) 0.86489(11) 0.53935(9)
H26 H -0.260(3) 0.933(2) 0.618(2)
O6 O -0.00266(12) 0.80375(11) 0.59990(8)
O7 O 0.13688(12) 0.38054(11) 0.22481(8)
O8 O 0.26436(12) 0.45389(10) 0.38262(8)
C17 C 0.60139(18) 0.23158(16) 0.50279(12)
H9 H 0.5285 0.1660 0.5280
H10 H 0.6147 0.3049 0.5567
H11 H 0.7048 0.1905 0.4936
C18 C 0.64148(18) 0.37914(15) 0.35102(12)
H12 H 0.7438 0.3373 0.3395
H13 H 0.6586 0.4550 0.4021
H14 H 0.5924 0.4091 0.2813
N1 N 0.53500(14) 0.28220(12) 0.39679(9)
H21 H 0.4386 0.3216 0.4061
H22 H 0.5174 0.2123 0.3477
C19 C 0.07030(19) 1.03645(15) 0.80345(14)
H15 H 0.0896 1.0796 0.8757
H16 H -0.0110 1.0855 0.7601
H17 H 0.1691 1.0350 0.7667
C20 C 0.13291(19) 0.82098(16) 0.88063(13)
H18 H 0.0922 0.7313 0.8874
H19 H 0.1530 0.8628 0.9533
H20 H 0.2322 0.8171 0.8444
N2 N 0.01442(14) 0.89893(12) 0.81537(9)
H23 H -0.0795 0.9006 0.8486
H24 H -0.0050 0.8590 0.7474
loop_
_geom_bond_atom_site_label_1
_geom_bond_atom_site_label_2
_geom_bond_site_symmetry_1
_geom_bond_site_symmetry_2
C1 C2 1_555 1_555
C2 C3 1_555 1_555
C3 H1 1_555 1_555
C4 C3 1_555 1_555
C5 C4 1_555 1_555
H2 C5 1_555 1_555
C6 C5 1_555 1_555
H3 C6 1_555 1_555
C7 C2 1_555 1_555
H4 C7 1_555 1_555
C8 C4 1_555 1_555
C9 C10 1_555 1_555
C10 C11 1_555 1_555
C11 H5 1_555 1_555
C12 C11 1_555 1_555
C13 C12 1_555 1_555
H6 C13 1_555 1_555
C14 C13 1_555 1_555
H7 C14 1_555 1_555
C15 C10 1_555 1_555
H8 C15 1_555 1_555
C16 C12 1_555 1_555
C17 H9 1_555 1_555
H10 C17 1_555 1_555
H11 C17 1_555 1_555
C18 H12 1_555 1_555
H13 C18 1_555 1_555
H14 C18 1_555 1_555
C19 H15 1_555 1_555
H16 C19 1_555 1_555
H17 C19 1_555 1_555
C20 H18 1_555 1_555
H19 C20 1_555 1_555
H20 C20 1_555 1_555
N1 C17 1_555 1_555
H21 N1 1_555 1_555
H22 N1 1_555 1_555
N2 C19 1_555 1_555
H23 N2 1_555 1_555
H24 N2 1_555 1_555
O1 C1 1_555 1_555
O2 C1 1_555 1_555
O3 C8 1_555 1_555
H25 O7 1_555 1_555
O4 C8 1_555 1_555
O5 C9 1_555 1_555
H26 O5 1_555 1_555
O6 C9 1_555 1_555
O7 C16 1_555 1_555
O8 C16 1_555 1_555
C6 C7 1_555 1_555
C14 C15 1_555 1_555
C18 N1 1_555 1_555
C20 N2 1_555 1_555

#END
