
#######################################################################
#
#                 Cambridge Crystallographic Data Centre
#                                CCDC 
#
#######################################################################
#
# If this CIF has been generated from an entry in the Cambridge 
# Structural Database, then it will include bibliographic, chemical, 
# crystal, experimental, refinement or atomic coordinate data resulting 
# from the CCDC's data processing and validation procedures.
#
#######################################################################

data_PAWKUW
_chemical_formula_moiety         'C33 H27 N1 O2'
_chemical_name_systematic        
(11-ethyl-6-phenyl-6,11,12,13-tetrahydro-6,13-methano[1]benzoxocino[4,3-b]indol-12-yl)(phenyl)methanone
_symmetry_cell_setting           triclinic
_symmetry_space_group_name_H-M   'P -1'
_symmetry_Int_Tables_number      2
_space_group_name_Hall           '-P 1'
loop_
_symmetry_equiv_pos_site_id
_symmetry_equiv_pos_as_xyz
1 x,y,z
2 -x,-y,-z
_cell_length_a                   9.153(2)
_cell_length_b                   10.233(2)
_cell_length_c                   14.412(3)
_cell_angle_alpha                86.461(4)
_cell_angle_beta                 74.021(4)
_cell_angle_gamma                73.014(4)
_cell_volume                     1240.84
_cell_formula_units_Z            2
loop_
_atom_site_label
_atom_site_type_symbol
_atom_site_fract_x
_atom_site_fract_y
_atom_site_fract_z
O1 O 0.3556(2) 0.5288(2) 0.63816(15)
O2 O -0.26515(17) 0.58657(15) 0.75706(10)
N1 N 0.1566(2) 0.46649(18) 0.86984(12)
C1 C 0.4898(8) 0.9672(6) 0.6325(5)
H1 H 0.5377 1.0373 0.6219
C2 C 0.3475(6) 0.9842(4) 0.7014(3)
H2 H 0.2990 1.0652 0.7374
C3 C 0.2772(5) 0.8787(4) 0.7165(3)
H3 H 0.1807 0.8895 0.7628
C4 C 0.3490(3) 0.7575(4) 0.6636(2)
C5 C 0.2828(3) 0.6379(3) 0.67997(19)
C6 C 0.1186(3) 0.6562(2) 0.74817(15)
H4 H 0.1021 0.7234 0.7984
C7 C -0.0087(3) 0.7138(2) 0.69096(15)
H5 H 0.0252 0.7808 0.6450
C8 C -0.0258(3) 0.6001(2) 0.63546(14)
H6 H 0.0776 0.5472 0.5974
H7 H -0.0911 0.6385 0.5921
C9 C -0.1035(3) 0.5080(2) 0.70850(14)
C10 C -0.1187(3) 0.3887(2) 0.65857(14)
C11 C 0.0090(3) 0.2733(3) 0.63284(17)
H8 H 0.1043 0.2702 0.6454
C12 C -0.0031(4) 0.1629(3) 0.58895(19)
H9 H 0.0837 0.0856 0.5725
C13 C -0.1418(4) 0.1658(3) 0.5694(2)
H10 H -0.1503 0.0904 0.5406
C14 C 0.0918(3) 0.5285(2) 0.79629(14)
C15 C 0.2758(3) 0.5019(3) 0.90436(18)
H11 H 0.2421 0.5078 0.9743
H12 H 0.2832 0.5911 0.8806
C16 C 0.4377(3) 0.3997(3) 0.8727(2)
H13 H 0.4336 0.3130 0.9011
H14 H 0.5129 0.4313 0.8933
H15 H 0.4694 0.3897 0.8037
C17 C 0.0904(3) 0.3627(2) 0.90437(15)
C18 C 0.1132(3) 0.2735(2) 0.97974(17)
H16 H 0.1858 0.2756 1.0134
C19 C 0.0245(4) 0.1824(3) 1.00244(18)
H17 H 0.0368 0.1227 1.0529
C20 C -0.0827(4) 0.1774(3) 0.95214(18)
H18 H -0.1409 0.1147 0.9695
C21 C -0.1046(3) 0.2636(2) 0.87685(16)
H19 H -0.1766 0.2592 0.8433
C22 C -0.0171(3) 0.3578(2) 0.85165(14)
C23 C -0.0117(3) 0.4646(2) 0.78226(14)
C24 C -0.2834(3) 0.7150(2) 0.78851(15)
C25 C -0.1682(3) 0.7835(2) 0.75872(15)
C26 C -0.2061(3) 0.9171(3) 0.79160(18)
H20 H -0.1310 0.9650 0.7713
C27 C -0.3504(4) 0.9808(3) 0.8530(2)
H21 H -0.3727 1.0705 0.8738
C28 C -0.4631(3) 0.9101(3) 0.8838(2)
H22 H -0.5610 0.9520 0.9260
C29 C -0.4299(3) 0.7788(3) 0.85200(17)
H23 H -0.5055 0.7316 0.8728
C30 C -0.2681(4) 0.2804(3) 0.5925(2)
H24 H -0.3622 0.2835 0.5783
C31 C -0.2572(3) 0.3921(3) 0.63695(16)
H25 H -0.3437 0.4698 0.6522
C32 C 0.4924(4) 0.7429(4) 0.5929(2)
H26 H 0.5413 0.6634 0.5552
C33 C 0.5604(6) 0.8502(7) 0.5804(4)
H27 H 0.6572 0.8408 0.5347
loop_
_geom_bond_atom_site_label_1
_geom_bond_atom_site_label_2
_geom_bond_site_symmetry_1
_geom_bond_site_symmetry_2
O1 C5 1_555 1_555
O2 C9 1_555 1_555
N1 C14 1_555 1_555
C1 H1 1_555 1_555
C2 C1 1_555 1_555
H2 C2 1_555 1_555
C3 C2 1_555 1_555
H3 C3 1_555 1_555
C4 C3 1_555 1_555
C5 C4 1_555 1_555
C6 C5 1_555 1_555
H4 C6 1_555 1_555
C7 C6 1_555 1_555
H5 C7 1_555 1_555
C8 C7 1_555 1_555
H6 C8 1_555 1_555
H7 C8 1_555 1_555
C9 C8 1_555 1_555
C10 C9 1_555 1_555
C11 C10 1_555 1_555
H8 C11 1_555 1_555
C12 C11 1_555 1_555
H9 C12 1_555 1_555
C13 C12 1_555 1_555
H10 C13 1_555 1_555
C14 C6 1_555 1_555
C15 N1 1_555 1_555
H11 C15 1_555 1_555
H12 C15 1_555 1_555
C16 C15 1_555 1_555
H13 C16 1_555 1_555
H14 C16 1_555 1_555
H15 C16 1_555 1_555
C17 N1 1_555 1_555
C18 C17 1_555 1_555
H16 C18 1_555 1_555
C19 C18 1_555 1_555
H17 C19 1_555 1_555
C20 C19 1_555 1_555
H18 C20 1_555 1_555
C21 C20 1_555 1_555
H19 C21 1_555 1_555
C22 C17 1_555 1_555
C23 C9 1_555 1_555
C24 O2 1_555 1_555
C25 C7 1_555 1_555
C26 C25 1_555 1_555
H20 C26 1_555 1_555
C27 C26 1_555 1_555
H21 C27 1_555 1_555
C28 C27 1_555 1_555
H22 C28 1_555 1_555
C29 C24 1_555 1_555
H23 C29 1_555 1_555
C30 C13 1_555 1_555
H24 C30 1_555 1_555
C31 C10 1_555 1_555
H25 C31 1_555 1_555
C32 C4 1_555 1_555
H26 C32 1_555 1_555
C33 C1 1_555 1_555
H27 C33 1_555 1_555
C14 C23 1_555 1_555
C21 C22 1_555 1_555
C22 C23 1_555 1_555
C24 C25 1_555 1_555
C28 C29 1_555 1_555
C30 C31 1_555 1_555
C32 C33 1_555 1_555

#END
