
#######################################################################
#
#                 Cambridge Crystallographic Data Centre
#                                CCDC 
#
#######################################################################
#
# If this CIF has been generated from an entry in the Cambridge 
# Structural Database, then it will include bibliographic, chemical, 
# crystal, experimental, refinement or atomic coordinate data resulting 
# from the CCDC's data processing and validation procedures.
#
#######################################################################

data_PAWLAD
_chemical_formula_moiety         'C21 H16 N2 O4'
_chemical_name_systematic        
'ethyl 16-amino-15-cyano-13-methyl-12,17-dioxapentacyclo[9.3.3.1^2,6^.0^1,11^.0^10,18^]octadeca-2,4,6(18),7,9,13,15-heptaene-14-carboxylate'
_symmetry_cell_setting           monoclinic
_symmetry_space_group_name_H-M   'P 21/c'
_symmetry_Int_Tables_number      14
_space_group_name_Hall           '-P 2ybc'
loop_
_symmetry_equiv_pos_site_id
_symmetry_equiv_pos_as_xyz
1 x,y,z
2 -x,1/2+y,1/2-z
3 -x,-y,-z
4 x,1/2-y,1/2+z
_cell_length_a                   14.4443(13)
_cell_length_b                   8.0800(7)
_cell_length_c                   16.1303(15)
_cell_angle_alpha                90
_cell_angle_beta                 104.281(2)
_cell_angle_gamma                90
_cell_volume                     1824.39
_cell_formula_units_Z            4
loop_
_atom_site_label
_atom_site_type_symbol
_atom_site_fract_x
_atom_site_fract_y
_atom_site_fract_z
N1 N 0.11221(17) 0.1701(3) 0.39469(14)
H1 H 0.0595(12) 0.1167(13) 0.39817(14)
H2 H 0.1270(3) 0.1794(4) 0.3446(11)
N2 N 0.0324(2) 0.0866(4) 0.59857(16)
O1 O 0.31412(13) 0.5433(2) 0.52915(11)
O2 O 0.24772(12) 0.3142(2) 0.45106(10)
O3 O 0.16381(17) 0.6896(3) 0.71102(14)
O4 O 0.14205(16) 0.4191(3) 0.72629(12)
C1 C 0.39733(19) 0.2780(3) 0.56013(17)
C2 C 0.4743(2) 0.2644(4) 0.5257(2)
H3 H 0.4751 0.3157 0.4743
C3 C 0.5528(2) 0.1697(5) 0.5710(3)
H4 H 0.6056 0.1584 0.5482
C4 C 0.5540(3) 0.0946(5) 0.6464(3)
H5 H 0.6074 0.0337 0.6739
C5 C 0.4758(2) 0.1071(4) 0.6837(2)
C6 C 0.39808(19) 0.1996(3) 0.63802(17)
C7 C 0.31497(19) 0.2256(3) 0.66674(15)
C8 C 0.3083(2) 0.1575(4) 0.74276(17)
H6 H 0.2539 0.1726 0.7629
C9 C 0.3857(3) 0.0641(4) 0.7895(2)
H7 H 0.3815 0.0174 0.8411
C10 C 0.4664(3) 0.0393(4) 0.7624(2)
H8 H 0.5161 -0.0227 0.7957
C11 C 0.30392(18) 0.3678(3) 0.53278(15)
C12 C 0.24635(18) 0.3303(3) 0.60090(14)
C13 C 0.16195(18) 0.2387(3) 0.54670(15)
C14 C 0.16864(18) 0.2359(3) 0.46412(15)
C15 C 0.0903(2) 0.1575(4) 0.57575(16)
C16 C 0.1744(2) 0.5316(4) 0.69283(16)
C17 C 0.22809(19) 0.5036(3) 0.62869(15)
C18 C 0.26730(19) 0.6140(3) 0.58530(16)
C19 C 0.2719(3) 0.7970(4) 0.5861(2)
H9 H 0.2430 0.8390 0.6295
H10 H 0.2382 0.8390 0.5313
H11 H 0.3374 0.8317 0.5982
C20 C 0.1081(3) 0.7241(5) 0.7727(3)
H12 H 0.0407 0.7154 0.7445
H13 H 0.1226 0.6416 0.8177
C21 C 0.1268(6) 0.8849(11) 0.8100(5)
H14 H 0.1939 0.8961 0.8357
H15 H 0.0917 0.8991 0.8529
H16 H 0.1073 0.9676 0.7664
H17? H 0.0724 0.6270 0.7817
H18? H 0.0633 0.8132 0.7522
C22? C 0.1740(10) 0.7732(18) 0.8500(8)
H19? H 0.2122 0.6798 0.8745
H20? H 0.1395 0.8137 0.8896
H21? H 0.2147 0.8591 0.8379
loop_
_geom_bond_atom_site_label_1
_geom_bond_atom_site_label_2
_geom_bond_site_symmetry_1
_geom_bond_site_symmetry_2
N1 H1 1_555 1_555
H2 N1 1_555 1_555
N2 C15 1_555 1_555
O1 C11 1_555 1_555
O2 C11 1_555 1_555
O3 C16 1_555 1_555
O4 C16 1_555 1_555
C1 C2 1_555 1_555
C2 H3 1_555 1_555
C3 C2 1_555 1_555
H4 C3 1_555 1_555
C4 C3 1_555 1_555
H5 C4 1_555 1_555
C5 C4 1_555 1_555
C6 C1 1_555 1_555
C7 C6 1_555 1_555
C8 C7 1_555 1_555
H6 C8 1_555 1_555
C9 C8 1_555 1_555
H7 C9 1_555 1_555
C10 C5 1_555 1_555
H8 C10 1_555 1_555
C11 C1 1_555 1_555
C12 C7 1_555 1_555
C13 C12 1_555 1_555
C14 N1 1_555 1_555
C15 C13 1_555 1_555
C16 C17 1_555 1_555
C17 C12 1_555 1_555
C18 O1 1_555 1_555
C19 C18 1_555 1_555
H9 C19 1_555 1_555
H10 C19 1_555 1_555
H11 C19 1_555 1_555
C20 O3 1_555 1_555
H12 C20 1_555 1_555
H13 C20 1_555 1_555
C21 C20 1_555 1_555
H14 C21 1_555 1_555
H15 C21 1_555 1_555
H16 C21 1_555 1_555
O2 C14 1_555 1_555
C5 C6 1_555 1_555
C9 C10 1_555 1_555
C11 C12 1_555 1_555
C13 C14 1_555 1_555
C17 C18 1_555 1_555

#END
