
#######################################################################
#
#                 Cambridge Crystallographic Data Centre
#                                CCDC 
#
#######################################################################
#
# If this CIF has been generated from an entry in the Cambridge 
# Structural Database, then it will include bibliographic, chemical, 
# crystal, experimental, refinement or atomic coordinate data resulting 
# from the CCDC's data processing and validation procedures.
#
#######################################################################

data_PAWLAC
_chemical_formula_moiety         'C20 H17 Cl2 F2 N3 O2'
_chemical_name_systematic        
1-((Z)-1-(3-(2,4-Dichlorophenoxy)propoxy)-1-(2,4-difluorophenyl)prop-1-en-2-yl)-1H-1,2,4-triazole
_symmetry_cell_setting           triclinic
_symmetry_space_group_name_H-M   'P -1'
_symmetry_Int_Tables_number      2
_space_group_name_Hall           '-P 1'
loop_
_symmetry_equiv_pos_site_id
_symmetry_equiv_pos_as_xyz
1 x,y,z
2 -x,-y,-z
_cell_length_a                   7.4380(15)
_cell_length_b                   8.7600(18)
_cell_length_c                   15.892(3)
_cell_angle_alpha                89.48(3)
_cell_angle_beta                 84.57(3)
_cell_angle_gamma                73.74(3)
_cell_volume                     989.43
_exptl_crystal_colour            colorless
_exptl_crystal_description       block
_cell_formula_units_Z            2
_exptl_crystal_recrystallization_method ethanol
loop_
_atom_site_label
_atom_site_type_symbol
_atom_site_fract_x
_atom_site_fract_y
_atom_site_fract_z
Cl1 Cl 0.48843(15) 0.85730(11) 0.59207(6)
O1 O 0.0231(3) 1.0877(2) 0.22722(12)
F1 F 0.0405(2) 0.8859(2) 0.07385(13)
N1 N 0.0846(4) 1.4711(3) 0.11743(16)
C1 C -0.1446(4) 0.9223(3) 0.09377(16)
Cl2 Cl 0.39808(13) 0.30882(11) 0.71824(5)
F2 F -0.5362(3) 0.7795(2) 0.05601(13)
O2 O 0.2476(3) 0.8160(2) 0.46936(12)
C2 C -0.2436(4) 0.8278(3) 0.06304(18)
H1 H -0.1844 0.7386 0.0291
N2 N 0.1804(4) 1.4856(3) 0.24639(18)
N3 N 0.0067(3) 1.3826(2) 0.17311(13)
C3 C -0.4343(4) 0.8715(3) 0.08482(18)
C4 C -0.5252(4) 1.0021(4) 0.13428(18)
H2 H -0.6547 1.0283 0.1479
C5 C -0.4209(4) 1.0939(3) 0.16344(18)
H3 H -0.4813 1.1835 0.1969
C6 C -0.2260(3) 1.0556(3) 0.14398(15)
C7 C -0.1090(4) 1.1539(3) 0.17330(15)
C8 C -0.1167(3) 1.2983(3) 0.14444(15)
C9 C -0.2440(4) 1.3857(3) 0.08190(18)
H4 H -0.3213 1.3218 0.0657
H5 H -0.1700 1.4075 0.0329
H6 H -0.3226 1.4840 0.1069
C10 C 0.1855(4) 1.5294(4) 0.1652(2)
H7 H 0.2557 1.5965 0.1441
C11 C 0.0658(4) 1.3936(3) 0.24882(19)
H8 H 0.0312 1.3434 0.2970
C12 C 0.0011(4) 0.9622(3) 0.28022(18)
H9 H 0.0406 0.8621 0.2488
H10 H -0.1297 0.9811 0.3020
C13 C 0.1210(4) 0.9566(3) 0.35150(17)
H11 H 0.2475 0.9540 0.3288
H12 H 0.0706 1.0520 0.3865
C14 C 0.1277(4) 0.8136(4) 0.40447(18)
H13 H 0.0024 0.8167 0.4293
H14 H 0.1770 0.7173 0.3701
C15 C 0.2795(4) 0.6921(3) 0.52364(16)
C16 C 0.3907(4) 0.7002(3) 0.58833(16)
C17 C 0.4295(4) 0.5822(3) 0.64753(16)
H15 H 0.5028 0.5890 0.6909
C18 C 0.3582(4) 0.4548(4) 0.64139(17)
C19 C 0.2511(4) 0.4420(4) 0.57782(19)
H16 H 0.2043 0.3545 0.5744
C20 C 0.2131(4) 0.5605(4) 0.51874(19)
H17 H 0.1418 0.5514 0.4750
loop_
_geom_bond_atom_site_label_1
_geom_bond_atom_site_label_2
_geom_bond_site_symmetry_1
_geom_bond_site_symmetry_2
Cl1 C16 1_555 1_555
O1 C7 1_555 1_555
F1 C1 1_555 1_555
N1 N3 1_555 1_555
C1 C2 1_555 1_555
Cl2 C18 1_555 1_555
F2 C3 1_555 1_555
O2 C14 1_555 1_555
C2 H1 1_555 1_555
N2 C10 1_555 1_555
N3 C8 1_555 1_555
C3 C2 1_555 1_555
C4 C3 1_555 1_555
H2 C4 1_555 1_555
C5 C4 1_555 1_555
H3 C5 1_555 1_555
C6 C1 1_555 1_555
C7 C6 1_555 1_555
C8 C7 1_555 1_555
C9 C8 1_555 1_555
H4 C9 1_555 1_555
H5 C9 1_555 1_555
H6 C9 1_555 1_555
C10 N1 1_555 1_555
H7 C10 1_555 1_555
C11 N2 1_555 1_555
H8 C11 1_555 1_555
C12 O1 1_555 1_555
H9 C12 1_555 1_555
H10 C12 1_555 1_555
C13 C12 1_555 1_555
H11 C13 1_555 1_555
H12 C13 1_555 1_555
C14 C13 1_555 1_555
H13 C14 1_555 1_555
H14 C14 1_555 1_555
C15 O2 1_555 1_555
C16 C15 1_555 1_555
C17 C16 1_555 1_555
H15 C17 1_555 1_555
C18 C17 1_555 1_555
C19 C18 1_555 1_555
H16 C19 1_555 1_555
C20 C15 1_555 1_555
H17 C20 1_555 1_555
N3 C11 1_555 1_555
C5 C6 1_555 1_555
C19 C20 1_555 1_555

#END
