
#######################################################################
#
#                 Cambridge Crystallographic Data Centre
#                                CCDC 
#
#######################################################################
#
# If this CIF has been generated from an entry in the Cambridge 
# Structural Database, then it will include bibliographic, chemical, 
# crystal, experimental, refinement or atomic coordinate data resulting 
# from the CCDC's data processing and validation procedures.
#
#######################################################################

data_PAWLIL
_chemical_formula_moiety         'C23 H21 N1 O6'
_chemical_name_systematic        
'diethyl 13-amino-16-methyl-12,17-dioxapentacyclo[9.3.3.1^2,6^.0^1,11^.0^10,18^]octadeca-2,4,6(18),7,9,13,15-heptaene-14,15-dicarboxylate'
_symmetry_cell_setting           triclinic
_symmetry_space_group_name_H-M   'P -1'
_symmetry_Int_Tables_number      2
_space_group_name_Hall           '-P 1'
loop_
_symmetry_equiv_pos_site_id
_symmetry_equiv_pos_as_xyz
1 x,y,z
2 -x,-y,-z
_cell_length_a                   8.6545(7)
_cell_length_b                   16.0639(12)
_cell_length_c                   16.1566(12)
_cell_angle_alpha                64.7830(10)
_cell_angle_beta                 87.382(2)
_cell_angle_gamma                89.439(2)
_cell_volume                     2029.88
_cell_formula_units_Z            4
loop_
_atom_site_label
_atom_site_type_symbol
_atom_site_fract_x
_atom_site_fract_y
_atom_site_fract_z
N1 N 0.7048(5) 0.9989(3) 0.4079(3)
H1 H 0.7883 1.0304 0.4003
H2 H 0.6448 0.9864 0.4556
O1 O 0.7732(4) 0.9939(2) 0.2740(2)
O2 O 0.3077(4) 0.8474(3) 0.3966(3)
O3 O 0.4244(4) 0.9099(3) 0.4782(3)
O4 O 0.8242(4) 0.9048(2) 0.1958(3)
O5 O 0.3773(4) 0.7355(2) 0.3002(3)
O6 O 0.5866(5) 0.6500(3) 0.3322(3)
C1 C 0.6697(7) 1.0437(4) 0.1231(4)
C2 C 0.7524(8) 1.1169(4) 0.0623(4)
H3 H 0.8564 1.1248 0.0695
C3 C 0.6732(11) 1.1809(5) -0.0128(5)
H4 H 0.7282 1.2316 -0.0555
C4 C 0.5225(10) 1.1726(5) -0.0262(4)
H5 H 0.4767 1.2173 -0.0767
C5 C 0.4326(8) 1.0955(4) 0.0369(4)
C6 C 0.5120(7) 1.0320(3) 0.1125(3)
C7 C 0.4411(6) 0.9545(3) 0.1823(3)
C8 C 0.2881(6) 0.9383(4) 0.1766(4)
H6 H 0.2378 0.8872 0.2219
C9 C 0.2076(8) 0.9999(5) 0.1013(4)
H7 H 0.1039 0.9880 0.0975
C10 C 0.2756(9) 1.0758(5) 0.0342(4)
H8 H 0.2179 1.1151 -0.0140
C11 C 0.7127(6) 0.9637(3) 0.2099(3)
C12 C 0.5605(5) 0.9063(3) 0.2536(3)
C13 C 0.6689(6) 0.9697(3) 0.3463(3)
C14 C 0.5455(5) 0.9191(3) 0.3418(3)
C15 C 0.4250(6) 0.8940(3) 0.4108(4)
C16 C 0.1821(8) 0.8152(6) 0.4642(5)
H9 H 0.2143 0.8141 0.5214
H10 H 0.1533 0.7530 0.4752
C17 C 0.048(3) 0.876(3) 0.432(2)
H11 H 0.0679 0.9335 0.4352
H12 H -0.0425 0.8474 0.4700
H13 H 0.0300 0.8880 0.3698
C18 C 0.8693(7) 0.7495(4) 0.2230(5)
H14 H 0.9395 0.7305 0.2719
H15 H 0.9267 0.7768 0.1653
H16 H 0.8122 0.6971 0.2266
C19 C 0.7609(6) 0.8176(4) 0.2310(4)
C20 C 0.6162(6) 0.8120(3) 0.2632(3)
C21 C 0.5304(6) 0.7247(3) 0.3020(4)
C22 C 0.2800(8) 0.6522(4) 0.3376(5)
H17 H 0.3288 0.6050 0.3894
H18 H 0.1807 0.6658 0.3590
C23 C 0.2564(10) 0.6182(5) 0.2691(6)
H19 H 0.2206 0.6673 0.2146
H20 H 0.1808 0.5694 0.2923
H21 H 0.3523 0.5954 0.2550
N2 N -0.1941(5) 0.5026(3) 0.4085(3)
H27 H -0.2746 0.5367 0.3995
H28 H -0.1418 0.4901 0.4564
O7 O -0.2424(4) 0.4943(2) 0.2768(2)
O8 O 0.2008(4) 0.3412(3) 0.4032(2)
O9 O 0.0752(5) 0.4083(3) 0.4826(3)
O10 O -0.2912(4) 0.3980(2) 0.2089(2)
O11 O 0.1492(4) 0.2307(2) 0.3057(3)
O12 O -0.0611(4) 0.1435(3) 0.3387(3)
C25 C -0.1240(6) 0.5331(3) 0.1261(3)
C26 C -0.2006(7) 0.6045(4) 0.0614(4)
H29 H -0.3063 0.6126 0.0680
C27 C -0.1110(8) 0.6655(4) -0.0161(4)
H30 H -0.1602 0.7145 -0.0613
C28 C 0.0434(8) 0.6554(4) -0.0273(4)
H31 H 0.0967 0.6970 -0.0798
C29 C 0.1242(7) 0.5832(4) 0.0389(4)
C30 C 0.0350(6) 0.5223(3) 0.1155(3)
C31 C 0.0986(6) 0.4469(3) 0.1888(3)
C32 C 0.2537(6) 0.4312(4) 0.1849(4)
H32 H 0.2979 0.3816 0.2321
C33 C 0.3465(7) 0.4909(4) 0.1085(4)
H33 H 0.4521 0.4802 0.1065
C34 C 0.2855(7) 0.5635(4) 0.0381(4)
H34 H 0.3496 0.6009 -0.0114
C35 C -0.1777(5) 0.4589(3) 0.2161(3)
C36 C -0.0324(5) 0.4008(3) 0.2606(3)
C37 C -0.1511(5) 0.4698(3) 0.3495(3)
C38 C -0.0284(5) 0.4158(3) 0.3477(3)
C39 C 0.0833(6) 0.3902(3) 0.4166(3)
C40 C 0.3180(7) 0.3087(6) 0.4702(5)
H35 H 0.3472 0.2466 0.4808
H36 H 0.2776 0.3074 0.5278
C41 C 0.456(3) 0.371(2) 0.4368(16)
H37 H 0.4902 0.3755 0.3775
H38 H 0.5368 0.3457 0.4788
H39 H 0.4287 0.4303 0.4324
C42 C -0.3390(7) 0.2408(4) 0.2434(4)
H40 H -0.2808 0.1919 0.2382
H41 H -0.4031 0.2686 0.1918
H42 H -0.4028 0.2165 0.2988
C43 C -0.2320(6) 0.3105(3) 0.2454(3)
C44 C -0.0876(5) 0.3055(3) 0.2739(3)
C45 C -0.0031(6) 0.2188(3) 0.3094(3)
C46 C 0.2440(7) 0.1486(4) 0.3357(5)
H43 H 0.1898 0.0981 0.3854
H44 H 0.3400 0.1599 0.3581
C47 C 0.2776(9) 0.1240(5) 0.2584(5)
H45 H 0.1832 0.1067 0.2405
H46 H 0.3479 0.0733 0.2769
H47 H 0.3236 0.1759 0.2075
H22? H 0.1845 0.8466 0.5038
H23? H 0.1910 0.7497 0.5020
C24? C 0.032(3) 0.835(3) 0.416(2)
H24? H 0.0347 0.8976 0.3691
H25? H -0.0522 0.8277 0.4589
H26? H 0.0193 0.7938 0.3879
H48? H 0.3039 0.2433 0.5079
H49? H 0.3077 0.3398 0.5101
C48? C 0.477(4) 0.326(4) 0.424(2)
H50? H 0.5074 0.2748 0.4113
H51? H 0.5501 0.3345 0.4626
H52? H 0.4760 0.3808 0.3669
loop_
_geom_bond_atom_site_label_1
_geom_bond_atom_site_label_2
_geom_bond_site_symmetry_1
_geom_bond_site_symmetry_2
N1 H1 1_555 1_555
H2 N1 1_555 1_555
O1 C11 1_555 1_555
O2 C15 1_555 1_555
O3 C15 1_555 1_555
O4 C11 1_555 1_555
O5 C21 1_555 1_555
O6 C21 1_555 1_555
C1 C2 1_555 1_555
C2 H3 1_555 1_555
C3 C2 1_555 1_555
H4 C3 1_555 1_555
C4 C3 1_555 1_555
H5 C4 1_555 1_555
C5 C4 1_555 1_555
C6 C1 1_555 1_555
C7 C6 1_555 1_555
C8 C7 1_555 1_555
H6 C8 1_555 1_555
C9 C8 1_555 1_555
H7 C9 1_555 1_555
C10 C5 1_555 1_555
H8 C10 1_555 1_555
C11 C1 1_555 1_555
C12 C7 1_555 1_555
C13 N1 1_555 1_555
C14 C12 1_555 1_555
C15 C14 1_555 1_555
C16 O2 1_555 1_555
H9 C16 1_555 1_555
H10 C16 1_555 1_555
C17 C16 1_555 1_555
H11 C17 1_555 1_555
H12 C17 1_555 1_555
H13 C17 1_555 1_555
C18 H14 1_555 1_555
H15 C18 1_555 1_555
H16 C18 1_555 1_555
C19 O4 1_555 1_555
C20 C12 1_555 1_555
C21 C20 1_555 1_555
C22 O5 1_555 1_555
H17 C22 1_555 1_555
H18 C22 1_555 1_555
C23 C22 1_555 1_555
H19 C23 1_555 1_555
H20 C23 1_555 1_555
H21 C23 1_555 1_555
N2 H27 1_555 1_555
H28 N2 1_555 1_555
O7 C35 1_555 1_555
O8 C39 1_555 1_555
O9 C39 1_555 1_555
O10 C35 1_555 1_555
O11 C45 1_555 1_555
O12 C45 1_555 1_555
C25 C26 1_555 1_555
C26 H29 1_555 1_555
C27 C26 1_555 1_555
H30 C27 1_555 1_555
C28 C27 1_555 1_555
H31 C28 1_555 1_555
C29 C28 1_555 1_555
C30 C25 1_555 1_555
C31 C30 1_555 1_555
C32 C31 1_555 1_555
H32 C32 1_555 1_555
C33 C32 1_555 1_555
H33 C33 1_555 1_555
C34 C29 1_555 1_555
H34 C34 1_555 1_555
C35 C25 1_555 1_555
C36 C31 1_555 1_555
C37 N2 1_555 1_555
C38 C36 1_555 1_555
C39 C38 1_555 1_555
C40 O8 1_555 1_555
H35 C40 1_555 1_555
H36 C40 1_555 1_555
C41 C40 1_555 1_555
H37 C41 1_555 1_555
H38 C41 1_555 1_555
H39 C41 1_555 1_555
C42 H40 1_555 1_555
H41 C42 1_555 1_555
H42 C42 1_555 1_555
C43 O10 1_555 1_555
C44 C36 1_555 1_555
C45 C44 1_555 1_555
C46 O11 1_555 1_555
H43 C46 1_555 1_555
H44 C46 1_555 1_555
C47 C46 1_555 1_555
H45 C47 1_555 1_555
H46 C47 1_555 1_555
H47 C47 1_555 1_555
O1 C13 1_555 1_555
C5 C6 1_555 1_555
C9 C10 1_555 1_555
C11 C12 1_555 1_555
C13 C14 1_555 1_555
C18 C19 1_555 1_555
C19 C20 1_555 1_555
O7 C37 1_555 1_555
C29 C30 1_555 1_555
C33 C34 1_555 1_555
C35 C36 1_555 1_555
C37 C38 1_555 1_555
C42 C43 1_555 1_555
C43 C44 1_555 1_555

#END
