
#######################################################################
#
#                 Cambridge Crystallographic Data Centre
#                                CCDC 
#
#######################################################################
#
# If this CIF has been generated from an entry in the Cambridge 
# Structural Database, then it will include bibliographic, chemical, 
# crystal, experimental, refinement or atomic coordinate data resulting 
# from the CCDC's data processing and validation procedures.
#
#######################################################################

data_PAWNIM
_chemical_formula_moiety         'C16 H15 N1 O2'
_chemical_name_systematic        
2-Benzyl-3-hydroxy-3-methyl-2,3-dihydro-1H-isoindol-1-one
_symmetry_cell_setting           monoclinic
_symmetry_space_group_name_H-M   'C 2/c'
_symmetry_Int_Tables_number      15
_space_group_name_Hall           '-C 2yn'
loop_
_symmetry_equiv_pos_site_id
_symmetry_equiv_pos_as_xyz
1 x,y,z
2 -x,y,1/2-z
3 1/2+x,1/2+y,z
4 1/2-x,1/2+y,1/2-z
5 -x,-y,-z
6 x,-y,1/2+z
7 1/2-x,1/2-y,-z
8 1/2+x,1/2-y,1/2+z
_cell_length_a                   11.093(4)
_cell_length_b                   11.604(4)
_cell_length_c                   21.226(7)
_cell_angle_alpha                90
_cell_angle_beta                 101.777(5)
_cell_angle_gamma                90
_cell_volume                     2674.76
_exptl_crystal_colour            colorless
_exptl_crystal_description       block
_cell_formula_units_Z            8
loop_
_atom_site_label
_atom_site_type_symbol
_atom_site_fract_x
_atom_site_fract_y
_atom_site_fract_z
O1 O 0.48310(7) 0.73617(7) 0.04556(4)
O2 O 0.49294(7) 0.35635(7) 0.07278(4)
N1 N 0.46720(9) 0.54981(8) 0.09038(4)
C1 C 0.53806(10) 0.65930(9) 0.09452(5)
C2 C 0.66237(10) 0.61485(9) 0.08633(5)
C3 C 0.76900(10) 0.67523(10) 0.08427(5)
H1 H 0.7719 0.7568 0.0880
C4 C 0.87197(11) 0.61253(10) 0.07655(6)
H2 H 0.9459 0.6525 0.0746
C5 C 0.86960(11) 0.49285(10) 0.07166(5)
H3 H 0.9418 0.4523 0.0672
C6 C 0.76204(10) 0.43254(9) 0.07334(5)
H4 H 0.7589 0.3509 0.0699
C7 C 0.65951(10) 0.49583(9) 0.08021(5)
C8 C 0.53351(11) 0.45578(9) 0.08088(5)
C9 C 0.33419(10) 0.54720(10) 0.08518(5)
H5 H 0.3006 0.4809 0.0578
H6 H 0.2989 0.6181 0.0628
C10 C 0.29071(10) 0.53813(10) 0.14795(5)
C11 C 0.33512(12) 0.45438(11) 0.19347(6)
H7 H 0.4002 0.4052 0.1873
C12 C 0.28499(13) 0.44209(12) 0.24794(6)
H8 H 0.3159 0.3844 0.2788
C13 C 0.19061(13) 0.51312(13) 0.25754(6)
H9 H 0.1557 0.5037 0.2945
C14 C 0.14733(12) 0.59773(14) 0.21325(7)
H10 H 0.0832 0.6475 0.2200
C15 C 0.19722(11) 0.61047(12) 0.15877(6)
H11 H 0.1671 0.6693 0.1285
C16 C 0.54084(11) 0.71985(10) 0.15828(6)
H12 H 0.5928 0.7887 0.1609
H13 H 0.5745 0.6675 0.1938
H14 H 0.4570 0.7423 0.1613
H15 H 0.4958(12) 0.7058(13) 0.0054(7)
loop_
_geom_bond_atom_site_label_1
_geom_bond_atom_site_label_2
_geom_bond_site_symmetry_1
_geom_bond_site_symmetry_2
O1 C1 1_555 1_555
O2 C8 1_555 1_555
N1 C1 1_555 1_555
C1 C2 1_555 1_555
C2 C3 1_555 1_555
C3 H1 1_555 1_555
C4 C3 1_555 1_555
H2 C4 1_555 1_555
C5 C4 1_555 1_555
H3 C5 1_555 1_555
C6 C5 1_555 1_555
H4 C6 1_555 1_555
C7 C2 1_555 1_555
C8 N1 1_555 1_555
C9 N1 1_555 1_555
H5 C9 1_555 1_555
H6 C9 1_555 1_555
C10 C9 1_555 1_555
C11 C10 1_555 1_555
H7 C11 1_555 1_555
C12 C11 1_555 1_555
H8 C12 1_555 1_555
C13 C12 1_555 1_555
H9 C13 1_555 1_555
C14 C13 1_555 1_555
H10 C14 1_555 1_555
C15 C10 1_555 1_555
H11 C15 1_555 1_555
C16 C1 1_555 1_555
H12 C16 1_555 1_555
H13 C16 1_555 1_555
H14 C16 1_555 1_555
H15 O1 1_555 1_555
C6 C7 1_555 1_555
C7 C8 1_555 1_555
C14 C15 1_555 1_555

#END
