
#######################################################################
#
#                 Cambridge Crystallographic Data Centre
#                                CCDC 
#
#######################################################################
#
# If this CIF has been generated from an entry in the Cambridge 
# Structural Database, then it will include bibliographic, chemical, 
# crystal, experimental, refinement or atomic coordinate data resulting 
# from the CCDC's data processing and validation procedures.
#
#######################################################################

data_PAWNUY
_chemical_formula_moiety         'C8 H12 N4'
_chemical_name_systematic        2,2'-Piperazine-1,4-diyldiacetonitrile
_symmetry_cell_setting           monoclinic
_symmetry_space_group_name_H-M   'P 21/c'
_symmetry_Int_Tables_number      14
_space_group_name_Hall           '-P 2ybc'
loop_
_symmetry_equiv_pos_site_id
_symmetry_equiv_pos_as_xyz
1 x,y,z
2 -x,1/2+y,1/2-z
3 -x,-y,-z
4 x,1/2-y,1/2+z
_cell_length_a                   6.3452(13)
_cell_length_b                   6.6731(13)
_cell_length_c                   11.077(2)
_cell_angle_alpha                90
_cell_angle_beta                 95.61(3)
_cell_angle_gamma                90
_cell_volume                     466.778
_exptl_crystal_colour            colorless
_exptl_crystal_description       block
_cell_formula_units_Z            2
loop_
_atom_site_label
_atom_site_type_symbol
_atom_site_fract_x
_atom_site_fract_y
_atom_site_fract_z
N1 N 0.06045(14) 0.54542(14) 0.12377(8)
N2 N 0.3536(2) 0.9796(2) 0.16532(15)
C1 C -0.21559(17) 0.52728(19) -0.04400(11)
H1 H -0.2823 0.4143 -0.0078
H2 H -0.3249 0.6036 -0.0910
C2 C -0.10710(17) 0.65762(18) 0.05439(11)
H3 H -0.0474 0.7746 0.0184
H4 H -0.2095 0.7030 0.1079
C3 C 0.1569(2) 0.6568(2) 0.22683(12)
H5 H 0.2562 0.5701 0.2741
H6 H 0.0476 0.6945 0.2779
C4 C 0.2700(2) 0.8402(2) 0.19376(13)
N1B N -0.06045(14) 0.45458(14) -0.12377(8)
N2B N -0.3536(2) 0.0204(2) -0.16532(15)
C1B C 0.21559(17) 0.47272(19) 0.04400(11)
H1B H 0.2823 0.5857 0.0078
H2B H 0.3249 0.3964 0.0910
C2B C 0.10710(17) 0.34238(18) -0.05439(11)
H3B H 0.0474 0.2254 -0.0184
H4B H 0.2095 0.2970 -0.1079
C3B C -0.1569(2) 0.3432(2) -0.22683(12)
H5B H -0.2562 0.4299 -0.2741
H6B H -0.0476 0.3055 -0.2779
C4B C -0.2700(2) 0.1598(2) -0.19376(13)
loop_
_geom_bond_atom_site_label_1
_geom_bond_atom_site_label_2
_geom_bond_site_symmetry_1
_geom_bond_site_symmetry_2
N1 C2 1_555 1_555
N2 C4 1_555 1_555
C1 H1 1_555 1_555
H2 C1 1_555 1_555
C2 C1 1_555 1_555
H3 C2 1_555 1_555
H4 C2 1_555 1_555
C3 N1 1_555 1_555
H5 C3 1_555 1_555
H6 C3 1_555 1_555
C4 C3 1_555 1_555
N1B C1 1_555 1_555
N2B C4B 1_555 1_555
C1B N1 1_555 1_555
H1B C1B 1_555 1_555
H2B C1B 1_555 1_555
C2B N1B 1_555 1_555
H3B C2B 1_555 1_555
H4B C2B 1_555 1_555
C3B N1B 1_555 1_555
H5B C3B 1_555 1_555
H6B C3B 1_555 1_555
C4B C3B 1_555 1_555
C1B C2B 1_555 1_555

#END
