
#######################################################################
#
#                 Cambridge Crystallographic Data Centre
#                                CCDC 
#
#######################################################################
#
# If this CIF has been generated from an entry in the Cambridge 
# Structural Database, then it will include bibliographic, chemical, 
# crystal, experimental, refinement or atomic coordinate data resulting 
# from the CCDC's data processing and validation procedures.
#
#######################################################################

data_PAWSUC
_chemical_formula_moiety         'C27 H50 Li1 N1 O2 Si4'
_chemical_name_systematic        
(N-(Naphthyl)-N-(tris(trimethylsilyl)silyl)amido)-bis(tetrahydrofuran)-lithium
_symmetry_cell_setting           monoclinic
_symmetry_space_group_name_H-M   'P 21'
_symmetry_Int_Tables_number      4
_space_group_name_Hall           'P 2yb'
loop_
_symmetry_equiv_pos_site_id
_symmetry_equiv_pos_as_xyz
1 x,y,z
2 -x,1/2+y,-z
_cell_length_a                   9.906(3)
_cell_length_b                   15.606(5)
_cell_length_c                   12.029(3)
_cell_angle_alpha                90
_cell_angle_beta                 112.369(5)
_cell_angle_gamma                90
_cell_volume                     1719.67
_exptl_crystal_colour            yellow
_chemical_melting_point          '98 deg.C(dec.)'
_cell_formula_units_Z            2
loop_
_atom_site_label
_atom_site_type_symbol
_atom_site_fract_x
_atom_site_fract_y
_atom_site_fract_z
Li1 Li 0.7856(12) 0.3645(6) 0.8174(8)
N1 N 0.8412(5) 0.2556(3) 0.7617(4)
O1 O 0.8916(5) 0.4627(3) 0.8085(5)
O2 O 0.6551(5) 0.4133(4) 0.8851(5)
Si1 Si 0.76679(17) 0.20438(11) 0.62510(13)
Si2 Si 0.52716(17) 0.17617(11) 0.60986(15)
Si3 Si 0.88078(19) 0.07258(12) 0.62177(16)
Si4 Si 0.75278(19) 0.27921(11) 0.45025(14)
C1 C 0.9868(6) 0.2533(4) 0.8300(5)
C2 C 1.0984(6) 0.2470(4) 0.7897(5)
H1 H 1.0760 0.2406 0.7077
C3 C 1.2450(7) 0.2497(4) 0.8677(6)
H2 H 1.3168 0.2458 0.8357
C4 C 1.2859(7) 0.2578(5) 0.9876(6)
H3 H 1.3845 0.2604 1.0367
C5 C 1.1808(7) 0.2625(4) 1.0380(6)
C6 C 1.2187(8) 0.2696(5) 1.1632(6)
H4 H 1.3164 0.2733 1.2143
C7 C 1.1143(8) 0.2712(6) 1.2089(6)
H5 H 1.1412 0.2767 1.2916
C8 C 0.9692(8) 0.2650(5) 1.1368(6)
H6 H 0.8994 0.2663 1.1711
C9 C 0.9265(6) 0.2570(4) 1.0159(6)
H7 H 0.8281 0.2507 0.9678
C10 C 1.0316(7) 0.2584(4) 0.9632(5)
C11 C 0.4351(6) 0.2783(4) 0.6218(5)
H8 H 0.4947 0.3083 0.6934
H9 H 0.3420 0.2656 0.6254
H10 H 0.4213 0.3134 0.5528
C12 C 0.5355(6) 0.1074(4) 0.7381(5)
H11 H 0.5985 0.1334 0.8120
H12 H 0.5730 0.0520 0.7301
H13 H 0.4393 0.1012 0.7386
C13 C 0.4044(5) 0.1245(4) 0.4688(5)
H14 H 0.4003 0.1588 0.4013
H15 H 0.3083 0.1194 0.4698
H16 H 0.4411 0.0686 0.4623
C14 C 0.7494(6) -0.0050(3) 0.5211(5)
H17 H 0.7107 0.0174 0.4407
H18 H 0.6712 -0.0143 0.5483
H19 H 0.7983 -0.0583 0.5220
C15 C 0.9498(7) 0.0238(4) 0.7719(5)
H20 H 1.0191 0.0617 0.8279
H21 H 0.9965 -0.0297 0.7694
H22 H 0.8700 0.0138 0.7970
C16 C 1.0379(6) 0.0799(4) 0.5701(5)
H23 H 1.0041 0.1035 0.4905
H24 H 1.0771 0.0237 0.5696
H25 H 1.1125 0.1162 0.6239
C17 C 0.6712(5) 0.2096(4) 0.3149(4)
H26 H 0.7291 0.1587 0.3248
H27 H 0.6689 0.2401 0.2449
H28 H 0.5736 0.1941 0.3053
C18 C 0.6369(6) 0.3765(4) 0.4247(5)
H29 H 0.6755 0.4138 0.4931
H30 H 0.5391 0.3602 0.4134
H31 H 0.6362 0.4059 0.3544
C19 C 0.9347(5) 0.3138(4) 0.4538(4)
H32 H 0.9973 0.2647 0.4664
H33 H 0.9774 0.3540 0.5181
H34 H 0.9230 0.3404 0.3788
C20 C 0.9591(9) 0.4739(5) 0.7261(6)
H35 H 0.9041 0.5139 0.6636
H36 H 0.9654 0.4197 0.6889
C21 C 1.1064(10) 0.5078(7) 0.7956(10)
H37 H 1.1796 0.4705 0.7859
H38 H 1.1169 0.5643 0.7665
C22 C 1.1264(10) 0.5122(7) 0.9167(9)
H39 H 1.1718 0.5659 0.9524
H40 H 1.1856 0.4650 0.9620
C23 C 0.9764(11) 0.5064(6) 0.9119(9)
H41 H 0.9755 0.4763 0.9822
H42 H 0.9371 0.5635 0.9113
C24 C 0.5805(11) 0.4901(8) 0.8464(8)
H43 H 0.4896 0.4790 0.7792
H44 H 0.6388 0.5281 0.8188
C25 C 0.5504(13) 0.5306(6) 0.9398(13)
H45 H 0.4524 0.5540 0.9101
H46 H 0.6197 0.5761 0.9764
C26 C 0.5656(12) 0.4617(9) 1.0236(8)
H47 H 0.6290 0.4790 1.1040
H48 H 0.4711 0.4466 1.0246
C27 C 0.6257(10) 0.3918(6) 0.9860(10)
H49 H 0.7152 0.3742 1.0505
H50 H 0.5580 0.3440 0.9669
loop_
_geom_bond_atom_site_label_1
_geom_bond_atom_site_label_2
_geom_bond_site_symmetry_1
_geom_bond_site_symmetry_2
Li1 N1 1_555 1_555
N1 Si1 1_555 1_555
O1 Li1 1_555 1_555
O2 Li1 1_555 1_555
Si1 Si2 1_555 1_555
Si2 C11 1_555 1_555
Si3 Si1 1_555 1_555
Si4 Si1 1_555 1_555
C1 N1 1_555 1_555
C2 C1 1_555 1_555
H1 C2 1_555 1_555
C3 C2 1_555 1_555
H2 C3 1_555 1_555
C4 C3 1_555 1_555
H3 C4 1_555 1_555
C5 C4 1_555 1_555
C6 C5 1_555 1_555
H4 C6 1_555 1_555
C7 C6 1_555 1_555
H5 C7 1_555 1_555
C8 C7 1_555 1_555
H6 C8 1_555 1_555
C9 C8 1_555 1_555
H7 C9 1_555 1_555
C10 C1 1_555 1_555
C11 H8 1_555 1_555
H9 C11 1_555 1_555
H10 C11 1_555 1_555
C12 Si2 1_555 1_555
H11 C12 1_555 1_555
H12 C12 1_555 1_555
H13 C12 1_555 1_555
C13 Si2 1_555 1_555
H14 C13 1_555 1_555
H15 C13 1_555 1_555
H16 C13 1_555 1_555
C14 Si3 1_555 1_555
H17 C14 1_555 1_555
H18 C14 1_555 1_555
H19 C14 1_555 1_555
C15 Si3 1_555 1_555
H20 C15 1_555 1_555
H21 C15 1_555 1_555
H22 C15 1_555 1_555
C16 Si3 1_555 1_555
H23 C16 1_555 1_555
H24 C16 1_555 1_555
H25 C16 1_555 1_555
C17 Si4 1_555 1_555
H26 C17 1_555 1_555
H27 C17 1_555 1_555
H28 C17 1_555 1_555
C18 Si4 1_555 1_555
H29 C18 1_555 1_555
H30 C18 1_555 1_555
H31 C18 1_555 1_555
C19 Si4 1_555 1_555
H32 C19 1_555 1_555
H33 C19 1_555 1_555
H34 C19 1_555 1_555
C20 O1 1_555 1_555
H35 C20 1_555 1_555
H36 C20 1_555 1_555
C21 C20 1_555 1_555
H37 C21 1_555 1_555
H38 C21 1_555 1_555
C22 C21 1_555 1_555
H39 C22 1_555 1_555
H40 C22 1_555 1_555
C23 O1 1_555 1_555
H41 C23 1_555 1_555
H42 C23 1_555 1_555
C24 O2 1_555 1_555
H43 C24 1_555 1_555
H44 C24 1_555 1_555
C25 C24 1_555 1_555
H45 C25 1_555 1_555
H46 C25 1_555 1_555
C26 C25 1_555 1_555
H47 C26 1_555 1_555
H48 C26 1_555 1_555
C27 O2 1_555 1_555
H49 C27 1_555 1_555
H50 C27 1_555 1_555
C5 C10 1_555 1_555
C9 C10 1_555 1_555
C22 C23 1_555 1_555
C26 C27 1_555 1_555

#END
