
#######################################################################
#
#                 Cambridge Crystallographic Data Centre
#                                CCDC 
#
#######################################################################
#
# If this CIF has been generated from an entry in the Cambridge 
# Structural Database, then it will include bibliographic, chemical, 
# crystal, experimental, refinement or atomic coordinate data resulting 
# from the CCDC's data processing and validation procedures.
#
#######################################################################

data_PAWTOW01
_chemical_formula_moiety         'C34 H36 O4'
_chemical_name_systematic        
26,28-dihydroxy-25,27-bis(propoxy)calix(4)arene
_symmetry_cell_setting           rhombohedral
_symmetry_space_group_name_H-M   'R -3'
_symmetry_Int_Tables_number      148
_space_group_name_Hall           '-R 3'
loop_
_symmetry_equiv_pos_site_id
_symmetry_equiv_pos_as_xyz
1 x,y,z
2 -y,x-y,z
3 -x+y,-x,z
4 2/3+x,1/3+y,1/3+z
5 2/3-y,1/3+x-y,1/3+z
6 2/3-x+y,1/3-x,1/3+z
7 1/3+x,2/3+y,2/3+z
8 2/3+y,1/3-x+y,1/3-z
9 2/3+x-y,1/3+x,1/3-z
10 -x,-y,-z
11 y,-x+y,-z
12 x-y,x,-z
13 1/3-x,2/3-y,2/3-z
14 1/3+y,2/3-x+y,2/3-z
15 1/3+x-y,2/3+x,2/3-z
16 2/3-x,1/3-y,1/3-z
17 1/3-y,2/3+x-y,2/3+z
18 1/3-x+y,2/3-x,2/3+z
_cell_length_a                   35.2039(8)
_cell_length_b                   35.2039(8)
_cell_length_c                   11.7188(4)
_cell_angle_alpha                90
_cell_angle_beta                 90
_cell_angle_gamma                120.00
_cell_volume                     12577.5
_exptl_crystal_colour            colorless
_exptl_crystal_description       prism
_cell_formula_units_Z            18
_chemical_properties_physical    air-sensitive
loop_
_atom_site_label
_atom_site_type_symbol
_atom_site_fract_x
_atom_site_fract_y
_atom_site_fract_z
O1 O 0.05075(4) 0.20014(4) 0.87134(11)
O2 O 0.09989(4) 0.20270(4) 0.64432(11)
O3 O 0.13064(4) 0.20116(4) 0.85232(10)
O4 O 0.00885(4) 0.17409(4) 0.66770(11)
C1 C 0.04338(5) 0.22706(5) 0.93996(14)
C2 C 0.00800(5) 0.23427(5) 0.92383(15)
C3 C 0.00091(6) 0.25897(6) 1.0051(2)
C4 C 0.02855(6) 0.27709(6) 1.0980(2)
C5 C 0.06392(6) 0.27044(6) 1.1111(2)
C6 C 0.07205(5) 0.24539(5) 1.03355(14)
C7 C 0.10997(6) 0.23669(6) 1.0494(2)
C8 C 0.15705(5) 0.24606(5) 0.87452(14)
C9 C 0.14866(5) 0.26418(5) 0.97085(14)
C10 C 0.17609(6) 0.30906(6) 0.9904(2)
C11 C 0.20997(6) 0.33477(6) 0.9154(2)
C12 C 0.21622(6) 0.31615(6) 0.8181(2)
C13 C 0.18985(5) 0.27164(6) 0.79528(14)
C14 C 0.19559(6) 0.25161(6) 0.6860(2)
C15 C 0.12721(6) 0.23428(6) 0.56918(14)
C16 C 0.17310(5) 0.25781(5) 0.58253(14)
C17 C 0.19809(6) 0.28660(6) 0.4961(2)
C18 C 0.17882(6) 0.29298(6) 0.4002(2)
C19 C 0.13355(6) 0.27030(6) 0.3902(2)
C20 C 0.10698(6) 0.24055(6) 0.47343(15)
C21 C 0.05726(6) 0.21486(7) 0.4613(2)
C22 C 0.01311(5) 0.21415(5) 0.63517(15)
C23 C 0.03524(5) 0.23412(6) 0.53419(15)
C24 C 0.03796(6) 0.27365(6) 0.5030(2)
C25 C 0.02044(6) 0.29310(6) 0.5723(2)
C26 C 0.00091(6) 0.27380(6) 0.6750(2)
C27 C -0.00299(5) 0.23407(6) 0.70876(14)
C28 C -0.02345(6) 0.21389(6) 0.8236(2)
C29 C 0.14769(7) 0.17411(6) 0.8958(2)
C30 C 0.11847(8) 0.12794(7) 0.8547(2)
C31 C 0.07262(8) 0.10691(8) 0.9035(3)
C32 C -0.03114(7) 0.13615(6) 0.6284(2)
C33 C -0.03112(8) 0.09569(7) 0.6699(2)
C34 C 0.00481(10) 0.08948(10) 0.6165(3)
H1 H 0.2280(5) 0.3654(6) 0.9290(15)
H2 H 0.2397(6) 0.3334(5) 0.7626(15)
H3 H 0.1182(6) 0.2737(6) 0.3215(16)
H4 H 0.1195(5) 0.2434(5) 1.1300(16)
H5 H 0.0991(5) 0.2047(6) 1.0389(15)
H6 H 0.0836(6) 0.2831(6) 1.1773(16)
H7 H 0.1707(5) 0.3224(5) 1.0586(15)
H8 H -0.0339(6) 0.1830(6) 0.8220(15)
H9 H -0.0490(6) 0.2175(5) 0.8397(15)
H10 H -0.0242(6) 0.2620(5) 0.9992(15)
H11 H 0.0496(6) 0.2154(6) 0.3800(17)
H12 H 0.0466(6) 0.1839(6) 0.4831(16)
H13 H 0.1967(6) 0.3127(6) 0.3395(17)
H14 H 0.0529(6) 0.2882(5) 0.4323(16)
H15 H 0.0220(6) 0.3203(6) 0.5489(16)
H16 H 0.1840(6) 0.2196(6) 0.6956(15)
H17 H 0.2278(6) 0.2656(6) 0.6684(16)
H18 H 0.2298(6) 0.3014(5) 0.5046(14)
H19 H 0.1474(6) 0.1754(6) 0.9791(17)
H20 H 0.1779(6) 0.1863(6) 0.8696(15)
H21 H 0.0223(6) 0.2932(6) 1.1547(17)
H22 H -0.0109(6) 0.2881(6) 0.7251(16)
H23 H -0.0307(6) 0.1369(6) 0.5431(19)
H24 H -0.0565(6) 0.1375(6) 0.6568(16)
H25 H 0.1320(7) 0.1105(7) 0.8728(20)
H26 H 0.1175(6) 0.1276(7) 0.7687(20)
H27 H -0.0603(8) 0.0705(8) 0.6522(19)
H28 H -0.0284(7) 0.0964(7) 0.7562(21)
H29 H 0.0536(8) 0.0759(9) 0.8746(21)
H30 H 0.0598(8) 0.1239(8) 0.8800(22)
H31 H 0.0716(9) 0.1011(10) 0.9937(29)
H32 H 0.0049(9) 0.0625(10) 0.6457(24)
H33 H 0.0360(9) 0.1161(9) 0.6344(24)
H34 H -0.0015(10) 0.0860(10) 0.5285(30)
H35 H 0.1133(9) 0.2021(9) 0.7084(25)
H36 H 0.0329(8) 0.1898(8) 0.8101(22)
loop_
_geom_bond_atom_site_label_1
_geom_bond_atom_site_label_2
_geom_bond_site_symmetry_1
_geom_bond_site_symmetry_2
O1 C1 1_555 1_555
O2 C15 1_555 1_555
O3 C8 1_555 1_555
O4 C22 1_555 1_555
C1 C2 1_555 1_555
C2 C3 1_555 1_555
C3 C4 1_555 1_555
C4 C5 1_555 1_555
C5 C6 1_555 1_555
C6 C1 1_555 1_555
C7 C6 1_555 1_555
C8 C9 1_555 1_555
C9 C7 1_555 1_555
C10 C9 1_555 1_555
C11 C10 1_555 1_555
C12 C11 1_555 1_555
C13 C8 1_555 1_555
C14 C13 1_555 1_555
C15 C16 1_555 1_555
C16 C14 1_555 1_555
C17 C16 1_555 1_555
C18 C17 1_555 1_555
C19 C18 1_555 1_555
C20 C15 1_555 1_555
C21 C20 1_555 1_555
C22 C23 1_555 1_555
C23 C21 1_555 1_555
C24 C23 1_555 1_555
C25 C24 1_555 1_555
C26 C25 1_555 1_555
C27 C22 1_555 1_555
C28 C2 1_555 1_555
C29 O3 1_555 1_555
C30 C29 1_555 1_555
C31 C30 1_555 1_555
C32 O4 1_555 1_555
C33 C32 1_555 1_555
C34 C33 1_555 1_555
H1 C11 1_555 1_555
H2 C12 1_555 1_555
H3 C19 1_555 1_555
H4 C7 1_555 1_555
H5 C7 1_555 1_555
H6 C5 1_555 1_555
H7 C10 1_555 1_555
H8 C28 1_555 1_555
H9 C28 1_555 1_555
H10 C3 1_555 1_555
H11 C21 1_555 1_555
H12 C21 1_555 1_555
H13 C18 1_555 1_555
H14 C24 1_555 1_555
H15 C25 1_555 1_555
H16 C14 1_555 1_555
H17 C14 1_555 1_555
H18 C17 1_555 1_555
H19 C29 1_555 1_555
H20 C29 1_555 1_555
H21 C4 1_555 1_555
H22 C26 1_555 1_555
H23 C32 1_555 1_555
H24 C32 1_555 1_555
H25 C30 1_555 1_555
H26 C30 1_555 1_555
H27 C33 1_555 1_555
H28 C33 1_555 1_555
H29 C31 1_555 1_555
H30 C31 1_555 1_555
H31 C31 1_555 1_555
H32 C34 1_555 1_555
H33 C34 1_555 1_555
H34 C34 1_555 1_555
H35 O2 1_555 1_555
H36 O1 1_555 1_555
C12 C13 1_555 1_555
C19 C20 1_555 1_555
C26 C27 1_555 1_555
C27 C28 1_555 1_555

#END
