
#######################################################################
#
#                 Cambridge Crystallographic Data Centre
#                                CCDC 
#
#######################################################################
#
# If this CIF has been generated from an entry in the Cambridge 
# Structural Database, then it will include bibliographic, chemical, 
# crystal, experimental, refinement or atomic coordinate data resulting 
# from the CCDC's data processing and validation procedures.
#
#######################################################################

data_PAWVOB
_chemical_formula_moiety         'C36 H44'
_chemical_name_systematic        2,3,8,9-tetrabutyldibenzo[b,h]biphenylene
_symmetry_cell_setting           triclinic
_symmetry_space_group_name_H-M   'P -1'
_symmetry_Int_Tables_number      2
_space_group_name_Hall           '-P 1'
loop_
_symmetry_equiv_pos_site_id
_symmetry_equiv_pos_as_xyz
1 x,y,z
2 -x,-y,-z
_cell_length_a                   8.2828(4)
_cell_length_b                   8.9132(4)
_cell_length_c                   9.1524(4)
_cell_angle_alpha                88.129(2)
_cell_angle_beta                 79.474(2)
_cell_angle_gamma                86.662(2)
_cell_volume                     663.023
_exptl_crystal_description       hexagonal
_cell_formula_units_Z            1
loop_
_atom_site_label
_atom_site_type_symbol
_atom_site_fract_x
_atom_site_fract_y
_atom_site_fract_z
C1 C 0.72427(18) 0.58712(15) 1.03367(16)
H1 H 0.7742 0.5218 0.9516
H2 H 0.6696 0.5258 1.1169
H3 H 0.8100 0.6424 1.0660
C2 C 0.59850(17) 0.69818(15) 0.98158(15)
H4 H 0.5193 0.6422 0.9384
H5 H 0.5364 0.7534 1.0681
C3 C 0.67970(16) 0.81027(15) 0.86603(15)
H6 H 0.7537 0.7541 0.7866
H7 H 0.7483 0.8740 0.9136
C4 C 0.55840(16) 0.91251(14) 0.79473(14)
H8 H 0.4706 0.9534 0.8739
H9 H 0.6170 0.9983 0.7429
C5 C 0.48112(16) 0.83071(14) 0.68526(15)
C6 C 0.32722(16) 0.77529(14) 0.72950(14)
H10 H 0.2703 0.7943 0.8276
C7 C 0.25084(16) 0.69196(14) 0.63588(14)
C8 C 0.08971(15) 0.63698(14) 0.68709(14)
H11 H 0.0309 0.6551 0.7847
C9 C 0.02637(15) 0.55809(14) 0.58894(15)
C10 C 0.11503(16) 0.52704(14) 0.44119(15)
C11 C 0.26736(16) 0.57546(14) 0.38942(14)
H12 H 0.3247 0.5531 0.2922
C12 C 0.33785(15) 0.66251(14) 0.48932(14)
C13 C 0.49467(16) 0.72203(14) 0.44501(14)
H13 H 0.5526 0.7042 0.3470
C14 C 0.56703(15) 0.80480(13) 0.53786(14)
C15 C 0.73391(15) 0.86974(14) 0.48591(14)
H14 H 0.8065 0.8356 0.5565
H15 H 0.7198 0.9806 0.4910
C16 C 0.82066(16) 0.82948(14) 0.32997(15)
H16 H 0.7532 0.8702 0.2575
H17 H 0.8301 0.7187 0.3217
C17 C 0.99203(16) 0.89077(14) 0.29063(15)
H18 H 0.9821 1.0020 0.2879
H19 H 1.0561 0.8587 0.3686
C18 C 1.08334(17) 0.83533(16) 0.14049(16)
H20 H 1.0243 0.8732 0.0621
H21 H 1.0897 0.7252 0.1416
H22 H 1.1947 0.8720 0.1212
C1A C -0.72427(18) 0.41288(15) -0.03367(16)
H1A H -0.7742 0.4782 0.0484
H2A H -0.6696 0.4742 -0.1169
H3A H -0.8100 0.3576 -0.0660
C2A C -0.59850(17) 0.30182(15) 0.01842(15)
H4A H -0.5193 0.3578 0.0616
H5A H -0.5364 0.2466 -0.0681
C3A C -0.67970(16) 0.18973(15) 0.13397(15)
H6A H -0.7537 0.2459 0.2134
H7A H -0.7483 0.1260 0.0864
C4A C -0.55840(16) 0.08749(14) 0.20527(14)
H8A H -0.4706 0.0466 0.1261
H9A H -0.6170 0.0017 0.2571
C5A C -0.48112(16) 0.16929(14) 0.31474(15)
C6A C -0.32722(16) 0.22471(14) 0.27050(14)
H10A H -0.2703 0.2057 0.1724
C7A C -0.25084(16) 0.30804(14) 0.36412(14)
C8A C -0.08971(15) 0.36302(14) 0.31291(14)
H11A H -0.0309 0.3449 0.2153
C9A C -0.02637(15) 0.44191(14) 0.41106(15)
C10A C -0.11503(16) 0.47296(14) 0.55881(15)
C11A C -0.26736(16) 0.42454(14) 0.61058(14)
H12A H -0.3247 0.4469 0.7078
C12A C -0.33785(15) 0.33749(14) 0.51068(14)
C13A C -0.49467(16) 0.27797(14) 0.55499(14)
H13A H -0.5526 0.2958 0.6530
C14A C -0.56703(15) 0.19520(13) 0.46214(14)
C15A C -0.73391(15) 0.13026(14) 0.51409(14)
H14A H -0.8065 0.1644 0.4435
H15A H -0.7198 0.0194 0.5090
C16A C -0.82066(16) 0.17052(14) 0.67003(15)
H16A H -0.7532 0.1298 0.7425
H17A H -0.8301 0.2813 0.6783
C17A C -0.99203(16) 0.10923(14) 0.70937(15)
H18A H -0.9821 -0.0020 0.7121
H19A H -1.0561 0.1413 0.6314
C18A C -1.08334(17) 0.16467(16) 0.85951(16)
H20A H -1.0243 0.1268 0.9379
H21A H -1.0897 0.2748 0.8584
H22A H -1.1947 0.1280 0.8788
loop_
_geom_bond_atom_site_label_1
_geom_bond_atom_site_label_2
_geom_bond_site_symmetry_1
_geom_bond_site_symmetry_2
C1 H1 1_555 1_555
H2 C1 1_555 1_555
H3 C1 1_555 1_555
C2 C1 1_555 1_555
H4 C2 1_555 1_555
H5 C2 1_555 1_555
C3 C2 1_555 1_555
H6 C3 1_555 1_555
H7 C3 1_555 1_555
C4 C3 1_555 1_555
H8 C4 1_555 1_555
H9 C4 1_555 1_555
C5 C4 1_555 1_555
C6 C5 1_555 1_555
H10 C6 1_555 1_555
C7 C6 1_555 1_555
C8 C7 1_555 1_555
H11 C8 1_555 1_555
C9 C8 1_555 1_555
C10 C9 1_555 1_555
C11 C10 1_555 1_555
H12 C11 1_555 1_555
C12 C7 1_555 1_555
C13 C12 1_555 1_555
H13 C13 1_555 1_555
C14 C5 1_555 1_555
C15 C14 1_555 1_555
H14 C15 1_555 1_555
H15 C15 1_555 1_555
C16 C15 1_555 1_555
H16 C16 1_555 1_555
H17 C16 1_555 1_555
C17 C16 1_555 1_555
H18 C17 1_555 1_555
H19 C17 1_555 1_555
C18 C17 1_555 1_555
H20 C18 1_555 1_555
H21 C18 1_555 1_555
H22 C18 1_555 1_555
C1A H1A 1_555 1_555
H2A C1A 1_555 1_555
H3A C1A 1_555 1_555
C2A C1A 1_555 1_555
H4A C2A 1_555 1_555
H5A C2A 1_555 1_555
C3A C2A 1_555 1_555
H6A C3A 1_555 1_555
H7A C3A 1_555 1_555
C4A C3A 1_555 1_555
H8A C4A 1_555 1_555
H9A C4A 1_555 1_555
C5A C4A 1_555 1_555
C6A C5A 1_555 1_555
H10A C6A 1_555 1_555
C7A C6A 1_555 1_555
C8A C7A 1_555 1_555
H11A C8A 1_555 1_555
C9A C10 1_555 1_555
C10A C9 1_555 1_555
C11A C10A 1_555 1_555
H12A C11A 1_555 1_555
C12A C7A 1_555 1_555
C13A C12A 1_555 1_555
H13A C13A 1_555 1_555
C14A C5A 1_555 1_555
C15A C14A 1_555 1_555
H14A C15A 1_555 1_555
H15A C15A 1_555 1_555
C16A C15A 1_555 1_555
H16A C16A 1_555 1_555
H17A C16A 1_555 1_555
C17A C16A 1_555 1_555
H18A C17A 1_555 1_555
H19A C17A 1_555 1_555
C18A C17A 1_555 1_555
H20A C18A 1_555 1_555
H21A C18A 1_555 1_555
H22A C18A 1_555 1_555
C11 C12 1_555 1_555
C13 C14 1_555 1_555
C8A C9A 1_555 1_555
C9A C10A 1_555 1_555
C11A C12A 1_555 1_555
C13A C14A 1_555 1_555

#END
