
#######################################################################
#
#                 Cambridge Crystallographic Data Centre
#                                CCDC 
#
#######################################################################
#
# If this CIF has been generated from an entry in the Cambridge 
# Structural Database, then it will include bibliographic, chemical, 
# crystal, experimental, refinement or atomic coordinate data resulting 
# from the CCDC's data processing and validation procedures.
#
#######################################################################

data_PAWVUH
_chemical_formula_moiety         'C13 H14 Br2 Si1'
_chemical_name_systematic        (3,7-dibromonaphthalen-2-yl)(trimethyl)silane
_symmetry_cell_setting           monoclinic
_symmetry_space_group_name_H-M   'P 21/n'
_symmetry_Int_Tables_number      14
_space_group_name_Hall           '-P 2yn'
loop_
_symmetry_equiv_pos_site_id
_symmetry_equiv_pos_as_xyz
1 x,y,z
2 1/2-x,1/2+y,1/2-z
3 -x,-y,-z
4 1/2+x,1/2-y,1/2+z
_cell_length_a                   7.1961(4)
_cell_length_b                   7.4763(4)
_cell_length_c                   26.1123(14)
_cell_angle_alpha                90
_cell_angle_beta                 95.1754(14)
_cell_angle_gamma                90
_cell_volume                     1399.12
_exptl_crystal_colour            colorless
_exptl_crystal_description       needle
_cell_formula_units_Z            4
loop_
_atom_site_label
_atom_site_type_symbol
_atom_site_fract_x
_atom_site_fract_y
_atom_site_fract_z
Br1 Br -0.02905(2) 0.55547(2) 0.63331(2)
Br2 Br 0.96482(2) 0.72939(2) 0.84428(2)
Si1 Si 0.33251(5) 0.74015(6) 0.57137(2)
C1 C 0.20867(18) 0.60496(18) 0.66910(6)
C2 C 0.35110(18) 0.68535(18) 0.64235(5)
C3 C 0.51616(18) 0.72111(17) 0.67180(5)
H1 H 0.6143 0.7770 0.6558
C4 C 0.54602(18) 0.67848(17) 0.72477(5)
C5 C 0.71768(18) 0.71711(17) 0.75381(6)
H2 H 0.8167 0.7727 0.7380
C6 C 0.73817(19) 0.67312(18) 0.80476(6)
C7 C 0.5952(2) 0.58972(18) 0.82961(6)
H3 H 0.6141 0.5601 0.8651
C8 C 0.4292(2) 0.55198(18) 0.80219(6)
H4 H 0.3326 0.4958 0.8188
C9 C 0.39956(18) 0.59574(17) 0.74923(5)
C10 C 0.22844(19) 0.56087(18) 0.71994(6)
H5 H 0.1281 0.5072 0.7356
C11 C 0.1567(2) 0.9198(3) 0.55626(7)
H6 H 0.0329 0.8763 0.5631
H7 H 0.1557 0.9531 0.5199
H8 H 0.1890 1.0246 0.5778
C12 C 0.2749(2) 0.5350(3) 0.53239(7)
H9 H 0.3669 0.4416 0.5421
H10 H 0.2773 0.5631 0.4958
H11 H 0.1502 0.4928 0.5388
C13 C 0.5641(2) 0.8246(2) 0.55490(6)
H12 H 0.5936 0.9366 0.5734
H13 H 0.5598 0.8460 0.5178
H14 H 0.6605 0.7355 0.5649
loop_
_geom_bond_atom_site_label_1
_geom_bond_atom_site_label_2
_geom_bond_site_symmetry_1
_geom_bond_site_symmetry_2
Br1 C1 1_555 1_555
Br2 C6 1_555 1_555
Si1 C2 1_555 1_555
C1 C2 1_555 1_555
C2 C3 1_555 1_555
C3 H1 1_555 1_555
C4 C3 1_555 1_555
C5 C4 1_555 1_555
H2 C5 1_555 1_555
C6 C5 1_555 1_555
C7 C6 1_555 1_555
H3 C7 1_555 1_555
C8 C7 1_555 1_555
H4 C8 1_555 1_555
C9 C4 1_555 1_555
C10 C1 1_555 1_555
H5 C10 1_555 1_555
C11 Si1 1_555 1_555
H6 C11 1_555 1_555
H7 C11 1_555 1_555
H8 C11 1_555 1_555
C12 Si1 1_555 1_555
H9 C12 1_555 1_555
H10 C12 1_555 1_555
H11 C12 1_555 1_555
C13 Si1 1_555 1_555
H12 C13 1_555 1_555
H13 C13 1_555 1_555
H14 C13 1_555 1_555
C8 C9 1_555 1_555
C9 C10 1_555 1_555

#END
