
#######################################################################
#
#                 Cambridge Crystallographic Data Centre
#                                CCDC 
#
#######################################################################
#
# If this CIF has been generated from an entry in the Cambridge 
# Structural Database, then it will include bibliographic, chemical, 
# crystal, experimental, refinement or atomic coordinate data resulting 
# from the CCDC's data processing and validation procedures.
#
#######################################################################

data_PAWXAO
_chemical_formula_moiety         'C23 H18 Cl1 N3 O1'
_chemical_name_systematic        
(4Z)-4-[(2-Chloroanilino)(phenyl)methylidene]-3-methyl-1-phenyl-1H-pyrazol-5(4H)-one
_symmetry_cell_setting           monoclinic
_symmetry_space_group_name_H-M   'P 21/n'
_symmetry_Int_Tables_number      14
_space_group_name_Hall           '-P 2yn'
loop_
_symmetry_equiv_pos_site_id
_symmetry_equiv_pos_as_xyz
1 x,y,z
2 1/2-x,1/2+y,1/2-z
3 -x,-y,-z
4 1/2+x,1/2-y,1/2+z
_cell_length_a                   9.0425(3)
_cell_length_b                   18.5180(7)
_cell_length_c                   11.1983(4)
_cell_angle_alpha                90
_cell_angle_beta                 90.4230(10)
_cell_angle_gamma                90
_cell_volume                     1875.09
_exptl_crystal_colour            yellow
_exptl_crystal_description       block
_cell_formula_units_Z            4
loop_
_atom_site_label
_atom_site_type_symbol
_atom_site_fract_x
_atom_site_fract_y
_atom_site_fract_z
C1 C 0.86725(13) -0.06692(6) -0.09829(10)
C2 C 0.87873(15) -0.07367(7) -0.22145(11)
H1 H 0.8476 -0.0364 -0.2713
C3 C 0.93725(15) -0.13668(7) -0.26969(12)
H2 H 0.9454 -0.1413 -0.3521
C4 C 0.98343(14) -0.19250(7) -0.19629(12)
H3 H 1.0181 -0.2354 -0.2291
C5 C 0.97757(15) -0.18398(7) -0.07385(12)
H4 H 1.0116 -0.2208 -0.0242
C6 C 0.92153(15) -0.12112(7) -0.02397(11)
H5 H 0.9203 -0.1153 0.0585
C7 C 0.70636(14) 0.10296(6) -0.05496(10)
C8 C 0.67068(17) 0.17489(7) -0.10804(11)
H6 H 0.7155 0.1787 -0.1852
H7 H 0.7083 0.2124 -0.0570
H8 H 0.5654 0.1798 -0.1161
C9 C 0.68060(13) 0.07593(6) 0.06368(10)
C10 C 0.74394(13) 0.00384(6) 0.06478(10)
C11 C 0.62430(12) 0.10790(6) 0.16590(10)
C12 C 0.56486(12) 0.18268(6) 0.16522(10)
C13 C 0.43881(14) 0.20000(7) 0.09874(11)
H9 H 0.3877 0.1641 0.0577
C14 C 0.38969(16) 0.27111(8) 0.09393(13)
H10 H 0.3046 0.2826 0.0509
C15 C 0.46709(18) 0.32468(7) 0.15296(14)
H11 H 0.4353 0.3723 0.1478
C16 C 0.59174(17) 0.30782(7) 0.21975(13)
H12 H 0.6434 0.3442 0.2594
C17 C 0.63988(14) 0.23657(7) 0.22775(11)
H13 H 0.7218 0.2250 0.2747
C18 C 0.57642(12) 0.08798(6) 0.38216(9)
C19 C 0.43971(13) 0.12143(6) 0.39789(10)
H14 H 0.3851 0.1365 0.3317
C20 C 0.38483(13) 0.13232(6) 0.51203(11)
H15 H 0.2938 0.1548 0.5218
C21 C 0.46478(14) 0.10990(6) 0.61183(10)
H16 H 0.4270 0.1172 0.6879
C22 C 0.60091(13) 0.07666(6) 0.59773(10)
H17 H 0.6550 0.0616 0.6642
C23 C 0.65570(12) 0.06605(6) 0.48371(10)
Cl1 Cl 0.82565(3) 0.023579(16) 0.46642(3)
H18 H 0.678(2) 0.0288(10) 0.2610(16)
N1 N 0.79928(12) -0.00523(5) -0.04860(8)
N2 N 0.77460(12) 0.05536(5) -0.12101(9)
N3 N 0.63332(12) 0.07069(6) 0.26879(8)
O1 O 0.74879(11) -0.04063(5) 0.14826(8)
loop_
_geom_bond_atom_site_label_1
_geom_bond_atom_site_label_2
_geom_bond_site_symmetry_1
_geom_bond_site_symmetry_2
C1 C2 1_555 1_555
C2 H1 1_555 1_555
C3 C2 1_555 1_555
H2 C3 1_555 1_555
C4 C3 1_555 1_555
H3 C4 1_555 1_555
C5 C4 1_555 1_555
H4 C5 1_555 1_555
C6 C1 1_555 1_555
H5 C6 1_555 1_555
C7 C8 1_555 1_555
C8 H6 1_555 1_555
H7 C8 1_555 1_555
H8 C8 1_555 1_555
C9 C7 1_555 1_555
C10 C9 1_555 1_555
C11 C9 1_555 1_555
C12 C11 1_555 1_555
C13 C12 1_555 1_555
H9 C13 1_555 1_555
C14 C13 1_555 1_555
H10 C14 1_555 1_555
C15 C14 1_555 1_555
H11 C15 1_555 1_555
C16 C15 1_555 1_555
H12 C16 1_555 1_555
C17 C12 1_555 1_555
H13 C17 1_555 1_555
C18 C19 1_555 1_555
C19 H14 1_555 1_555
C20 C19 1_555 1_555
H15 C20 1_555 1_555
C21 C20 1_555 1_555
H16 C21 1_555 1_555
C22 C21 1_555 1_555
H17 C22 1_555 1_555
C23 C18 1_555 1_555
Cl1 C23 1_555 1_555
H18 N3 1_555 1_555
N1 C1 1_555 1_555
N2 C7 1_555 1_555
N3 C11 1_555 1_555
O1 C10 1_555 1_555
C5 C6 1_555 1_555
C10 N1 1_555 1_555
C16 C17 1_555 1_555
C18 N3 1_555 1_555
C22 C23 1_555 1_555
N1 N2 1_555 1_555

#END
