
#######################################################################
#
#                 Cambridge Crystallographic Data Centre
#                                CCDC 
#
#######################################################################
#
# If this CIF has been generated from an entry in the Cambridge 
# Structural Database, then it will include bibliographic, chemical, 
# crystal, experimental, refinement or atomic coordinate data resulting 
# from the CCDC's data processing and validation procedures.
#
#######################################################################

data_PAWYOD
_chemical_formula_moiety         'C21 H19 N1 O3 S2'
_chemical_name_systematic        
3-(2-((1,3-Benzothiazol-2-ylsulfanyl)methyl)phenyl)-4-methoxy-5,5-dimethylfuran-2(5H)-one
_symmetry_cell_setting           triclinic
_symmetry_space_group_name_H-M   'P -1'
_symmetry_Int_Tables_number      2
_space_group_name_Hall           '-P 1'
loop_
_symmetry_equiv_pos_site_id
_symmetry_equiv_pos_as_xyz
1 x,y,z
2 -x,-y,-z
_cell_length_a                   10.4702(9)
_cell_length_b                   10.4851(9)
_cell_length_c                   10.5169(9)
_cell_angle_alpha                117.5670(10)
_cell_angle_beta                 100.3980(10)
_cell_angle_gamma                95.2570(10)
_cell_volume                     986.152
_exptl_crystal_colour            colorless
_exptl_crystal_description       block
_cell_formula_units_Z            2
loop_
_atom_site_label
_atom_site_type_symbol
_atom_site_fract_x
_atom_site_fract_y
_atom_site_fract_z
C1 C 0.3099(2) 1.1296(2) 0.3804(2)
C2 C 0.1915(2) 1.1787(3) 0.3934(3)
H1 H 0.1101 1.1139 0.3439
C3 C 0.1987(3) 1.3256(3) 0.4814(3)
H2 H 0.1207 1.3609 0.4920
C4 C 0.3186(3) 1.4226(3) 0.5548(3)
H3 H 0.3199 1.5220 0.6133
C5 C 0.4367(2) 1.3757(2) 0.5435(3)
H4 H 0.5172 1.4418 0.5944
C6 C 0.4325(2) 1.2275(2) 0.4545(2)
C7 C 0.5064(2) 1.0231(2) 0.3504(2)
C8 C 0.7722(2) 1.0145(2) 0.3745(2)
H5 H 0.7754 1.0955 0.4713
H6 H 0.8379 0.9594 0.3878
C9 C 0.80777(19) 1.0755(2) 0.2782(2)
C10 C 0.82367(19) 0.9825(2) 0.1364(2)
C11 C 0.8548(2) 1.0439(2) 0.0510(2)
H7 H 0.8650 0.9830 -0.0432
C12 C 0.8711(2) 1.1929(3) 0.1022(3)
H8 H 0.8919 1.2318 0.0433
C13 C 0.8561(2) 1.2839(2) 0.2417(3)
H9 H 0.8674 1.3847 0.2775
C14 C 0.8244(2) 1.2252(2) 0.3280(2)
H10 H 0.8140 1.2873 0.4217
C15 C 0.8151(2) 0.8231(2) 0.0802(2)
C16 C 0.7292(2) 0.7023(2) -0.0266(2)
C17 C 0.7745(2) 0.5641(3) -0.0455(3)
C18 C 0.9225(2) 0.7703(3) 0.1412(3)
C19 C 0.5531(2) 0.8016(3) -0.1034(3)
H11 H 0.5432 0.8556 -0.0043
H12 H 0.4677 0.7665 -0.1725
H13 H 0.6086 0.8647 -0.1235
C20 C 0.6809(3) 0.4717(3) -0.0114(4)
H14 H 0.7197 0.3923 -0.0111
H15 H 0.5983 0.4328 -0.0856
H16 H 0.6657 0.5315 0.0841
C21 C 0.8059(3) 0.4778(3) -0.1948(3)
H17 H 0.8612 0.5429 -0.2127
H18 H 0.7250 0.4334 -0.2718
H19 H 0.8515 0.4026 -0.1941
N1 N 0.54360(17) 1.16332(19) 0.43437(18)
O1 O 1.02066(17) 0.84009(18) 0.2398(2)
O2 O 0.89788(16) 0.62095(17) 0.06858(18)
O3 O 0.61278(16) 0.67939(17) -0.11829(18)
S1 S 0.33515(6) 0.95239(6) 0.28478(6)
S2 S 0.60881(6) 0.89569(6) 0.29888(6)
loop_
_geom_bond_atom_site_label_1
_geom_bond_atom_site_label_2
_geom_bond_site_symmetry_1
_geom_bond_site_symmetry_2
C1 C2 1_555 1_555
C2 H1 1_555 1_555
C3 C2 1_555 1_555
H2 C3 1_555 1_555
C4 C3 1_555 1_555
H3 C4 1_555 1_555
C5 C4 1_555 1_555
H4 C5 1_555 1_555
C6 C1 1_555 1_555
C7 N1 1_555 1_555
C8 H5 1_555 1_555
H6 C8 1_555 1_555
C9 C8 1_555 1_555
C10 C9 1_555 1_555
C11 C10 1_555 1_555
H7 C11 1_555 1_555
C12 C11 1_555 1_555
H8 C12 1_555 1_555
C13 C12 1_555 1_555
H9 C13 1_555 1_555
C14 C9 1_555 1_555
H10 C14 1_555 1_555
C15 C10 1_555 1_555
C16 C15 1_555 1_555
C17 C16 1_555 1_555
C18 C15 1_555 1_555
C19 H11 1_555 1_555
H12 C19 1_555 1_555
H13 C19 1_555 1_555
C20 C17 1_555 1_555
H14 C20 1_555 1_555
H15 C20 1_555 1_555
H16 C20 1_555 1_555
C21 C17 1_555 1_555
H17 C21 1_555 1_555
H18 C21 1_555 1_555
H19 C21 1_555 1_555
N1 C6 1_555 1_555
O1 C18 1_555 1_555
O2 C17 1_555 1_555
O3 C16 1_555 1_555
S1 C1 1_555 1_555
S2 C7 1_555 1_555
C5 C6 1_555 1_555
C7 S1 1_555 1_555
C8 S2 1_555 1_555
C13 C14 1_555 1_555
C18 O2 1_555 1_555
C19 O3 1_555 1_555

#END
