
#######################################################################
#
#                 Cambridge Crystallographic Data Centre
#                                CCDC 
#
#######################################################################
#
# If this CIF has been generated from an entry in the Cambridge 
# Structural Database, then it will include bibliographic, chemical, 
# crystal, experimental, refinement or atomic coordinate data resulting 
# from the CCDC's data processing and validation procedures.
#
#######################################################################

data_PAWYET
_chemical_formula_moiety         'C18 H11 Br1 N2 O2'
_chemical_name_systematic        
6-Bromo-2-(diprop-2-ynylamino)-1H-benzo[de]isoquinoline-1,3(2H)-dione
_symmetry_cell_setting           triclinic
_symmetry_space_group_name_H-M   'P -1'
_symmetry_Int_Tables_number      2
_space_group_name_Hall           '-P 1'
loop_
_symmetry_equiv_pos_site_id
_symmetry_equiv_pos_as_xyz
1 x,y,z
2 -x,-y,-z
_cell_length_a                   10.460(3)
_cell_length_b                   11.816(3)
_cell_length_c                   13.561(3)
_cell_angle_alpha                75.128(4)
_cell_angle_beta                 75.725(4)
_cell_angle_gamma                72.298(4)
_cell_volume                     1517.16
_exptl_crystal_colour            yellow
_exptl_crystal_description       block
_cell_formula_units_Z            4
loop_
_atom_site_label
_atom_site_type_symbol
_atom_site_fract_x
_atom_site_fract_y
_atom_site_fract_z
Br1 Br 0.55459(14) 0.50977(11) 0.76724(11)
C1 C 0.6750(6) 0.5968(6) 0.7825(5)
C2 C 0.4943(7) 0.6809(6) 0.9230(5)
H1 H 0.4352 0.6387 0.9177
O1 O 1.0432(4) 0.7900(4) 0.7554(3)
O2 O 0.7320(4) 0.9391(4) 1.0192(3)
N1 N 0.8868(4) 0.8680(4) 0.8839(3)
N2 N 0.9653(5) 0.9410(4) 0.8921(3)
C3 C 0.7978(8) 0.5865(6) 0.7231(5)
H2 H 0.8266 0.5359 0.6751
C4 C 0.8830(7) 0.6511(6) 0.7325(5)
H3 H 0.9684 0.6451 0.6899
C5 C 0.8417(6) 0.7239(5) 0.8044(4)
C6 C 0.7107(5) 0.7359(5) 0.8683(4)
C7 C 0.6694(5) 0.8110(5) 0.9422(4)
C8 C 0.5441(6) 0.8219(6) 1.0036(4)
H4 H 0.5160 0.8725 1.0516
C9 C 0.4565(6) 0.7562(6) 0.9943(5)
H5 H 0.3711 0.7637 1.0372
C10 C 0.6227(6) 0.6695(5) 0.8594(5)
C11 C 0.9338(6) 0.7938(5) 0.8102(4)
C12 C 0.7610(5) 0.8777(5) 0.9544(4)
C13 C 1.0955(6) 0.8715(6) 0.9279(5)
H6 H 1.1567 0.8304 0.8741
H7 H 1.1389 0.9269 0.9406
C14 C 1.0719(6) 0.7828(6) 1.0224(5)
C15 C 1.0549(7) 0.7110(6) 1.0983(5)
H8 H 1.0414 0.6537 1.1587
C16 C 0.9868(6) 1.0320(5) 0.7990(5)
H9 H 1.0319 1.0855 0.8126
H10 H 1.0468 0.9922 0.7440
C17 C 0.8608(7) 1.1035(6) 0.7643(5)
C18 C 0.7616(8) 1.1615(7) 0.7340(6)
H11 H 0.6821 1.2079 0.7098
Br2 Br 0.59705(8) 0.00106(6) 0.23760(5)
O3 O 0.5025(4) 0.3271(4) 0.6119(4)
O4 O 0.0699(4) 0.2945(4) 0.6614(3)
N3 N 0.2845(4) 0.3213(4) 0.6295(3)
N4 N 0.2348(5) 0.4032(4) 0.6985(3)
C19 C 0.5383(7) 0.0905(5) 0.3449(4)
C20 C 0.6289(6) 0.1396(6) 0.3650(4)
H12 H 0.7169 0.1289 0.3260
C21 C 0.5900(6) 0.2068(5) 0.4446(5)
H13 H 0.6525 0.2389 0.4593
C22 C 0.4603(6) 0.2243(5) 0.4999(4)
C23 C 0.3643(6) 0.1758(4) 0.4791(4)
C24 C 0.2311(6) 0.1948(5) 0.5347(4)
C25 C 0.1384(6) 0.1445(5) 0.5174(4)
H14 H 0.0501 0.1577 0.5557
C26 C 0.1779(7) 0.0727(6) 0.4415(5)
H15 H 0.1162 0.0370 0.4304
C27 C 0.3051(7) 0.0557(5) 0.3849(4)
H16 H 0.3286 0.0097 0.3338
C28 C 0.4030(6) 0.1046(5) 0.4001(4)
C29 C 0.1848(6) 0.2737(5) 0.6133(4)
C30 C 0.4232(6) 0.2937(5) 0.5833(4)
C31 C 0.2805(6) 0.3486(5) 0.7979(4)
H17 H 0.2603 0.2703 0.8244
H18 H 0.3784 0.3363 0.7882
C32 C 0.2116(7) 0.4275(6) 0.8720(5)
C33 C 0.1620(9) 0.4915(8) 0.9295(6)
H19 H 0.1218 0.5435 0.9762
C34 C 0.2598(6) 0.5219(5) 0.6495(5)
H20 H 0.2196 0.5768 0.6977
H21 H 0.3573 0.5144 0.6322
C35 C 0.2019(6) 0.5705(5) 0.5570(5)
C36 C 0.1566(8) 0.6073(6) 0.4818(6)
H22 H 0.1203 0.6370 0.4213
Br3? Br 0.3819(3) 0.5988(3) 0.9048(3)
H23? H 0.6195 0.5535 0.7732
loop_
_geom_bond_atom_site_label_1
_geom_bond_atom_site_label_2
_geom_bond_site_symmetry_1
_geom_bond_site_symmetry_2
Br1 C1 1_555 1_555
C1 C3 1_555 1_555
C2 H1 1_555 1_555
O1 C11 1_555 1_555
O2 C12 1_555 1_555
N1 N2 1_555 1_555
N2 C13 1_555 1_555
C3 H2 1_555 1_555
C4 C3 1_555 1_555
H3 C4 1_555 1_555
C5 C4 1_555 1_555
C6 C5 1_555 1_555
C7 C6 1_555 1_555
C8 C7 1_555 1_555
H4 C8 1_555 1_555
C9 C2 1_555 1_555
H5 C9 1_555 1_555
C10 C1 1_555 1_555
C11 N1 1_555 1_555
C12 N1 1_555 1_555
C13 H6 1_555 1_555
H7 C13 1_555 1_555
C14 C13 1_555 1_555
C15 C14 1_555 1_555
H8 C15 1_555 1_555
C16 N2 1_555 1_555
H9 C16 1_555 1_555
H10 C16 1_555 1_555
C17 C16 1_555 1_555
C18 C17 1_555 1_555
H11 C18 1_555 1_555
Br2 C19 1_555 1_555
O3 C30 1_555 1_555
O4 C29 1_555 1_555
N3 N4 1_555 1_555
N4 C31 1_555 1_555
C19 C20 1_555 1_555
C20 H12 1_555 1_555
C21 C20 1_555 1_555
H13 C21 1_555 1_555
C22 C21 1_555 1_555
C23 C22 1_555 1_555
C24 C23 1_555 1_555
C25 C24 1_555 1_555
H14 C25 1_555 1_555
C26 C25 1_555 1_555
H15 C26 1_555 1_555
C27 C26 1_555 1_555
H16 C27 1_555 1_555
C28 C19 1_555 1_555
C29 N3 1_555 1_555
C30 N3 1_555 1_555
C31 H17 1_555 1_555
H18 C31 1_555 1_555
C32 C31 1_555 1_555
C33 C32 1_555 1_555
H19 C33 1_555 1_555
C34 N4 1_555 1_555
H20 C34 1_555 1_555
H21 C34 1_555 1_555
C35 C34 1_555 1_555
C36 C35 1_555 1_555
H22 C36 1_555 1_555
C2 C10 1_555 1_555
C5 C11 1_555 1_555
C6 C10 1_555 1_555
C7 C12 1_555 1_555
C8 C9 1_555 1_555
C22 C30 1_555 1_555
C23 C28 1_555 1_555
C24 C29 1_555 1_555
C27 C28 1_555 1_555

#END
