
#######################################################################
#
#                 Cambridge Crystallographic Data Centre
#                                CCDC 
#
#######################################################################
#
# If this CIF has been generated from an entry in the Cambridge 
# Structural Database, then it will include bibliographic, chemical, 
# crystal, experimental, refinement or atomic coordinate data resulting 
# from the CCDC's data processing and validation procedures.
#
#######################################################################

data_PAXMAE
_chemical_formula_moiety         'C4 H7 N3 O2,H2 O1'
_chemical_name_systematic        
'5-Methoxy-4-methyl-2,4-dihydro-3H-1,2,4-triazol-3-one monohydrate'
_symmetry_cell_setting           orthorhombic
_symmetry_space_group_name_H-M   'P n m a'
_symmetry_Int_Tables_number      62
_space_group_name_Hall           '-P 2ac 2n'
loop_
_symmetry_equiv_pos_site_id
_symmetry_equiv_pos_as_xyz
1 x,y,z
2 1/2-x,-y,1/2+z
3 -x,1/2+y,-z
4 1/2+x,1/2-y,1/2-z
5 -x,-y,-z
6 1/2+x,y,1/2-z
7 x,1/2-y,z
8 1/2-x,1/2+y,1/2+z
_cell_length_a                   6.810(4)
_cell_length_b                   6.506(4)
_cell_length_c                   15.277(9)
_cell_angle_alpha                90
_cell_angle_beta                 90
_cell_angle_gamma                90
_cell_volume                     676.861
_exptl_crystal_colour            colorless
_exptl_crystal_description       prism
_cell_formula_units_Z            4
loop_
_atom_site_label
_atom_site_type_symbol
_atom_site_fract_x
_atom_site_fract_y
_atom_site_fract_z
O1 O 0.64561(9) 0.2500 0.35699(4)
O2 O 0.49415(9) 0.2500 0.65038(4)
N1 N 0.62148(10) 0.2500 0.50977(4)
N2 N 0.35229(11) 0.2500 0.43609(4)
N3 N 0.29539(11) 0.2500 0.52418(5)
C1 C 0.54905(11) 0.2500 0.42578(6)
C2 C 0.46308(12) 0.2500 0.56483(6)
C3 C 0.82847(13) 0.2500 0.53342(6)
C4 C 0.31615(14) 0.2500 0.70293(6)
H7 H 0.2590(12) 0.2500 0.3942(6)
O3 O 0.04758(10) 0.2500 0.31776(5)
H8 H 0.0698(13) 0.2500 0.2619(4)
H9 H -0.0752(9) 0.2500 0.3306(6)
H1? H 0.9060 0.1949 0.4847
H2? H 0.8481 0.1642 0.5854
H3? H 0.8707 0.3909 0.5461
H4? H 0.2528 0.3849 0.6990
H5? H 0.2262 0.1442 0.6811
H6? H 0.3495 0.2209 0.7641
loop_
_geom_bond_atom_site_label_1
_geom_bond_atom_site_label_2
_geom_bond_site_symmetry_1
_geom_bond_site_symmetry_2
O1 C1 1_555 1_555
O2 C2 1_555 1_555
N1 C1 1_555 1_555
N2 N3 1_555 1_555
N3 C2 1_555 1_555
C1 N2 1_555 1_555
C2 N1 1_555 1_555
C3 N1 1_555 1_555
C4 O2 1_555 1_555
O3 H8 1_555 1_555
H7 N2 1_555 1_555
H9 O3 1_555 1_555

#END
