
#######################################################################
#
#                 Cambridge Crystallographic Data Centre
#                                CCDC 
#
#######################################################################
#
# If this CIF has been generated from an entry in the Cambridge 
# Structural Database, then it will include bibliographic, chemical, 
# crystal, experimental, refinement or atomic coordinate data resulting 
# from the CCDC's data processing and validation procedures.
#
#######################################################################

data_PAXMUY
_chemical_formula_moiety         'C16 H17 N2 1+,N1 O3 1-,H2 O1'
_chemical_name_systematic        
'3,4,7,8-Tetramethyl-1,10-phenanthrolin-1-ium nitrate monohydrate'
_symmetry_cell_setting           orthorhombic
_symmetry_space_group_name_H-M   'C m c a'
_symmetry_Int_Tables_number      64
_space_group_name_Hall           '-C 2ac 2'
loop_
_symmetry_equiv_pos_site_id
_symmetry_equiv_pos_as_xyz
1 x,y,z
2 -x,1/2-y,1/2+z
3 -x,1/2+y,1/2-z
4 x,-y,-z
5 1/2+x,1/2+y,z
6 1/2-x,-y,1/2+z
7 1/2-x,y,1/2-z
8 1/2+x,1/2-y,-z
9 -x,-y,-z
10 x,1/2+y,1/2-z
11 x,1/2-y,1/2+z
12 -x,y,z
13 1/2-x,1/2-y,-z
14 1/2+x,y,1/2-z
15 1/2+x,-y,1/2+z
16 1/2-x,1/2+y,z
_cell_length_a                   6.7401(8)
_cell_length_b                   24.090(3)
_cell_length_c                   19.254(2)
_cell_angle_alpha                90
_cell_angle_beta                 90
_cell_angle_gamma                90
_cell_volume                     3126.25
_exptl_crystal_colour            colorless
_exptl_crystal_description       block
_cell_formula_units_Z            8
loop_
_atom_site_label
_atom_site_type_symbol
_atom_site_fract_x
_atom_site_fract_y
_atom_site_fract_z
C1 C 1.0000 0.19047(14) 0.08694(15)
H1 H 1.0000 0.1825 0.0397
C2 C 1.0000 0.24624(14) 0.10669(16)
C3 C 1.0000 0.25954(12) 0.17669(16)
C4 C 1.0000 0.21518(11) 0.22551(14)
C5 C 1.0000 0.22191(12) 0.29933(15)
H2 H 1.0000 0.2576 0.3177
C6 C 1.0000 0.17823(11) 0.34314(14)
H3 H 1.0000 0.1847 0.3908
C7 C 1.0000 0.12218(11) 0.31849(13)
C8 C 1.0000 0.07458(12) 0.36186(14)
C9 C 1.0000 0.02213(12) 0.33180(16)
C10 C 1.0000 0.01823(12) 0.26008(17)
H4 H 1.0000 -0.0168 0.2396
C11 C 1.0000 0.11486(10) 0.24627(14)
C12 C 1.0000 0.16081(12) 0.19900(13)
C13 C 1.0000 0.29005(16) 0.05051(19)
C14 C 1.0000 0.31938(13) 0.1996(2)
C15 C 1.0000 0.08170(15) 0.43955(15)
C16 C 1.0000 -0.03134(13) 0.3737(2)
N1 N 1.0000 0.14820(10) 0.13060(11)
N2 N 1.0000 0.06277(9) 0.21952(11)
H17 H 1.0000 0.0585 0.1752
N3 N 0.5000 0.38702(12) 0.09781(14)
O1 O 0.5000 0.41620(12) 0.04627(14)
O2 O 0.5000 0.40810(14) 0.15514(15)
O3 O 0.5000 0.33707(11) 0.09262(15)
O4 O 0.0000 0.02821(10) 0.08654(12)
H18 H 0.0000 0.0477 0.0512
H19 H 0.0000 -0.0058 0.0779
H5? H 1.0207 0.2728 0.0062
H6? H 1.1046 0.3162 0.0592
H7? H 0.8747 0.3090 0.0505
H8? H 0.8712 0.3352 0.1918
H9? H 1.0972 0.3397 0.1734
H10? H 1.0316 0.3214 0.2481
H11? H 0.9482 0.0488 0.4610
H12? H 0.9186 0.1129 0.4518
H13? H 1.1332 0.0880 0.4554
H14? H 1.0869 -0.0274 0.4129
H15? H 1.0453 -0.0614 0.3450
H16? H 0.8679 -0.0390 0.3896
loop_
_geom_bond_atom_site_label_1
_geom_bond_atom_site_label_2
_geom_bond_site_symmetry_1
_geom_bond_site_symmetry_2
C1 H1 1_555 1_555
C2 C1 1_555 1_555
C3 C2 1_555 1_555
C4 C3 1_555 1_555
C5 C4 1_555 1_555
H2 C5 1_555 1_555
C6 C5 1_555 1_555
H3 C6 1_555 1_555
C7 C6 1_555 1_555
C8 C7 1_555 1_555
C9 C8 1_555 1_555
C10 C9 1_555 1_555
H4 C10 1_555 1_555
C11 C7 1_555 1_555
C12 C4 1_555 1_555
C13 C2 1_555 1_555
C14 C3 1_555 1_555
C15 C8 1_555 1_555
C16 C9 1_555 1_555
N1 C1 1_555 1_555
N2 C10 1_555 1_555
H17 N2 1_555 1_555
N3 O1 1_555 1_555
O2 N3 1_555 1_555
O3 N3 1_555 1_555
O4 H18 1_555 1_555
H19 O4 1_555 1_555
C11 C12 1_555 1_555
C11 N2 1_555 1_555
C12 N1 1_555 1_555

#END
