
#######################################################################
#
#                 Cambridge Crystallographic Data Centre
#                                CCDC 
#
#######################################################################
#
# If this CIF has been generated from an entry in the Cambridge 
# Structural Database, then it will include bibliographic, chemical, 
# crystal, experimental, refinement or atomic coordinate data resulting 
# from the CCDC's data processing and validation procedures.
#
#######################################################################

data_PAXPUB
_chemical_formula_moiety         'C11 H26 N3 1+,C4 H4 N4,Cl1 1-'
_chemical_name_systematic        
'N-((Dimethylamino)(dipropylamino)methylene)-N-methylmethanaminium chloride 2,3-diaminobut-2-enedinitrile'
_symmetry_cell_setting           monoclinic
_symmetry_space_group_name_H-M   'P 21/n'
_symmetry_Int_Tables_number      14
_space_group_name_Hall           '-P 2yn'
loop_
_symmetry_equiv_pos_site_id
_symmetry_equiv_pos_as_xyz
1 x,y,z
2 1/2-x,1/2+y,1/2-z
3 -x,-y,-z
4 1/2+x,1/2-y,1/2+z
_cell_length_a                   8.5646(3)
_cell_length_b                   24.6447(9)
_cell_length_c                   9.5363(4)
_cell_angle_alpha                90
_cell_angle_beta                 101.341(2)
_cell_angle_gamma                90
_cell_volume                     1973.54
_exptl_crystal_colour            colorless
_exptl_crystal_description       lath
_cell_formula_units_Z            4
loop_
_atom_site_label
_atom_site_type_symbol
_atom_site_fract_x
_atom_site_fract_y
_atom_site_fract_z
Cl1 Cl 0.77349(4) 0.023155(18) 0.13502(5)
C1 C 0.73690(17) 0.11012(7) 0.67572(16)
N1 N 0.60198(14) 0.08427(6) 0.68672(14)
N2 N 0.85119(14) 0.08348(6) 0.62646(14)
N3 N 0.75830(14) 0.16234(5) 0.71465(13)
C2 C 1.02067(17) 0.09594(8) 0.67499(18)
H1 H 1.0601 0.1154 0.5994
H2 H 1.0806 0.0621 0.6971
H3 H 1.0346 0.1186 0.7610
C3 C 0.8157(2) 0.04293(8) 0.51327(19)
H4 H 0.8484 0.0070 0.5526
H5 H 0.8738 0.0517 0.4373
H6 H 0.7010 0.0428 0.4739
C4 C 0.6013(2) 0.02679(7) 0.72316(19)
H7 H 0.5649 0.0055 0.6361
H8 H 0.5293 0.0208 0.7898
H9 H 0.7093 0.0155 0.7681
C5 C 0.44834(17) 0.11190(7) 0.66526(18)
H10 H 0.4136 0.1149 0.7569
H11 H 0.3695 0.0911 0.5979
H12 H 0.4587 0.1483 0.6265
C6 C 0.83711(16) 0.19998(7) 0.63049(16)
H13 H 0.8609 0.1807 0.5461
H14 H 0.9394 0.2122 0.6895
C7 C 0.73418(17) 0.24919(7) 0.58080(17)
H15 H 0.6240 0.2372 0.5412
H16 H 0.7311 0.2731 0.6636
C8 C 0.7983(2) 0.28072(8) 0.46745(18)
H17 H 0.9067 0.2932 0.5071
H18 H 0.7297 0.3121 0.4373
H19 H 0.7999 0.2572 0.3849
C9 C 0.70155(17) 0.18362(7) 0.84042(16)
H20 H 0.6533 0.1537 0.8867
H21 H 0.6182 0.2113 0.8089
C10 C 0.83651(17) 0.20876(8) 0.94804(17)
H22 H 0.8801 0.2402 0.9038
H23 H 0.9230 0.1818 0.9748
C11 C 0.7796(2) 0.22732(8) 1.08166(18)
H24 H 0.6972 0.2552 1.0558
H25 H 0.8694 0.2424 1.1502
H26 H 0.7353 0.1963 1.1250
C12 C 0.20196(18) 0.09908(7) 0.15547(17)
C13 C 0.36014(18) 0.10073(7) 0.15344(17)
N4 N 0.08854(18) 0.07578(7) 0.04879(17)
H27 H -0.001(2) 0.0652(9) 0.075(2)
H28 H 0.129(2) 0.0521(9) -0.002(2)
N5 N 0.42670(19) 0.07966(7) 0.04344(16)
H29 H 0.530(2) 0.0716(8) 0.0693(19)
H30 H 0.369(2) 0.0554(9) -0.006(2)
C14 C 0.4658(2) 0.12854(7) 0.26529(19)
N6 N 0.55281(18) 0.15012(7) 0.35497(17)
C15 C 0.14409(19) 0.12679(7) 0.26810(19)
N7 N 0.09678(18) 0.14926(7) 0.35655(17)
loop_
_geom_bond_atom_site_label_1
_geom_bond_atom_site_label_2
_geom_bond_site_symmetry_1
_geom_bond_site_symmetry_2
C1 N1 1_555 1_555
N1 C4 1_555 1_555
N2 C1 1_555 1_555
N3 C1 1_555 1_555
C2 N2 1_555 1_555
H1 C2 1_555 1_555
H2 C2 1_555 1_555
H3 C2 1_555 1_555
C3 N2 1_555 1_555
H4 C3 1_555 1_555
H5 C3 1_555 1_555
H6 C3 1_555 1_555
C4 H7 1_555 1_555
H8 C4 1_555 1_555
H9 C4 1_555 1_555
C5 N1 1_555 1_555
H10 C5 1_555 1_555
H11 C5 1_555 1_555
H12 C5 1_555 1_555
C6 N3 1_555 1_555
H13 C6 1_555 1_555
H14 C6 1_555 1_555
C7 C6 1_555 1_555
H15 C7 1_555 1_555
H16 C7 1_555 1_555
C8 C7 1_555 1_555
H17 C8 1_555 1_555
H18 C8 1_555 1_555
H19 C8 1_555 1_555
C9 N3 1_555 1_555
H20 C9 1_555 1_555
H21 C9 1_555 1_555
C10 C9 1_555 1_555
H22 C10 1_555 1_555
H23 C10 1_555 1_555
C11 C10 1_555 1_555
H24 C11 1_555 1_555
H25 C11 1_555 1_555
H26 C11 1_555 1_555
C12 C13 1_555 1_555
C13 N5 1_555 1_555
N4 C12 1_555 1_555
H27 N4 1_555 1_555
H28 N4 1_555 1_555
N5 H29 1_555 1_555
H30 N5 1_555 1_555
C14 C13 1_555 1_555
N6 C14 1_555 1_555
C15 C12 1_555 1_555
N7 C15 1_555 1_555

#END
