
#######################################################################
#
#                 Cambridge Crystallographic Data Centre
#                                CCDC 
#
#######################################################################
#
# If this CIF has been generated from an entry in the Cambridge 
# Structural Database, then it will include bibliographic, chemical, 
# crystal, experimental, refinement or atomic coordinate data resulting 
# from the CCDC's data processing and validation procedures.
#
#######################################################################

data_PAXQEL
_chemical_compound_source        'roots of Securidaca inappendiculata'
_chemical_formula_moiety         'C15 H12 O4'
_chemical_name_systematic        2-Methoxy-3,4-methylenedioxybenzophenone
_symmetry_cell_setting           triclinic
_symmetry_space_group_name_H-M   'P -1'
_symmetry_Int_Tables_number      2
_space_group_name_Hall           '-P 1'
loop_
_symmetry_equiv_pos_site_id
_symmetry_equiv_pos_as_xyz
1 x,y,z
2 -x,-y,-z
_cell_length_a                   6.7279(2)
_cell_length_b                   8.6893(2)
_cell_length_c                   10.8003(3)
_cell_angle_alpha                93.3460(10)
_cell_angle_beta                 104.7360(10)
_cell_angle_gamma                90.861(2)
_cell_volume                     609.293
_exptl_crystal_colour            colorless
_exptl_crystal_description       block
_chemical_melting_point          81.5deg.C
_cell_formula_units_Z            2
loop_
_atom_site_label
_atom_site_type_symbol
_atom_site_fract_x
_atom_site_fract_y
_atom_site_fract_z
O1 O -0.75755(17) 0.95836(14) 0.09394(12)
O2 O -0.61601(17) 0.78636(14) -0.02701(10)
O3 O 0.15617(16) 0.84661(12) 0.39150(10)
O4 O -0.18793(18) 0.66107(14) 0.07680(9)
C1 C 0.05581(19) 0.58597(15) 0.33459(11)
C2 C 0.2555(2) 0.53359(18) 0.36115(13)
H1 H 0.3658 0.6034 0.3726
C3 C 0.2903(3) 0.3784(2) 0.37047(15)
H2 H 0.4240 0.3437 0.3871
C4 C 0.1282(3) 0.27439(19) 0.35536(14)
H3 H 0.1525 0.1698 0.3621
C5 C -0.0695(3) 0.32532(17) 0.33030(15)
H4 H -0.1788 0.2551 0.3209
C6 C -0.1064(2) 0.48050(15) 0.31899(13)
H5 H -0.2406 0.5142 0.3008
C7 C 0.0209(2) 0.75523(15) 0.33235(12)
C8 C -0.1854(2) 0.81084(14) 0.26676(12)
C9 C -0.2904(2) 0.75778(14) 0.14069(12)
C10 C -0.4835(2) 0.81403(15) 0.09280(13)
C11 C -0.5686(2) 0.91799(16) 0.16472(15)
C12 C -0.4687(2) 0.97292(17) 0.28609(15)
H6 H -0.5281 1.0433 0.3330
C13 C -0.2743(2) 0.91808(15) 0.33544(13)
H7 H -0.2005 0.9541 0.4172
C14 C -0.7987(2) 0.8637(2) -0.02203(18)
H8 H -0.8411 0.9264 -0.0951
H9 H -0.9087 0.7892 -0.0245
C15 C -0.2731(3) 0.6111(2) -0.05134(15)
H10 H -0.1793 0.5448 -0.0806
H11 H -0.2982 0.6987 -0.1027
H12 H -0.4004 0.5554 -0.0587
loop_
_geom_bond_atom_site_label_1
_geom_bond_atom_site_label_2
_geom_bond_site_symmetry_1
_geom_bond_site_symmetry_2
O1 C11 1_555 1_555
O2 C10 1_555 1_555
O3 C7 1_555 1_555
O4 C9 1_555 1_555
C1 C2 1_555 1_555
C2 H1 1_555 1_555
C3 C2 1_555 1_555
H2 C3 1_555 1_555
C4 C3 1_555 1_555
H3 C4 1_555 1_555
C5 C4 1_555 1_555
H4 C5 1_555 1_555
C6 C1 1_555 1_555
H5 C6 1_555 1_555
C7 C1 1_555 1_555
C8 C7 1_555 1_555
C9 C8 1_555 1_555
C10 C9 1_555 1_555
C11 C10 1_555 1_555
C12 C11 1_555 1_555
H6 C12 1_555 1_555
C13 C8 1_555 1_555
H7 C13 1_555 1_555
C14 O1 1_555 1_555
H8 C14 1_555 1_555
H9 C14 1_555 1_555
C15 O4 1_555 1_555
H10 C15 1_555 1_555
H11 C15 1_555 1_555
H12 C15 1_555 1_555
O2 C14 1_555 1_555
C5 C6 1_555 1_555
C12 C13 1_555 1_555

#END
