
#######################################################################
#
#                 Cambridge Crystallographic Data Centre
#                                CCDC 
#
#######################################################################
#
# If this CIF has been generated from an entry in the Cambridge 
# Structural Database, then it will include bibliographic, chemical, 
# crystal, experimental, refinement or atomic coordinate data resulting 
# from the CCDC's data processing and validation procedures.
#
#######################################################################

data_PAXROX
_chemical_formula_moiety         'C11 H9 N3 O1'
_chemical_name_systematic        
3,8-Dimethyl-4-oxo-3,4-dihydroquinazoline-6-carbonitrile
_symmetry_cell_setting           orthorhombic
_symmetry_space_group_name_H-M   'P n a 21'
_symmetry_Int_Tables_number      33
_space_group_name_Hall           'P 2c -2n'
loop_
_symmetry_equiv_pos_site_id
_symmetry_equiv_pos_as_xyz
1 x,y,z
2 -x,-y,1/2+z
3 1/2-x,1/2+y,1/2+z
4 1/2+x,1/2-y,z
_cell_length_a                   7.0700(14)
_cell_length_b                   13.441(3)
_cell_length_c                   10.156(2)
_cell_angle_alpha                90
_cell_angle_beta                 90
_cell_angle_gamma                90
_cell_volume                     965.103
_exptl_crystal_colour            colorless
_exptl_crystal_description       block
_cell_formula_units_Z            4
loop_
_atom_site_label
_atom_site_type_symbol
_atom_site_fract_x
_atom_site_fract_y
_atom_site_fract_z
C1 C 0.1413(2) 0.27920(15) -0.02167(19)
C2 C 0.1206(3) 0.37812(15) 0.02217(19)
H1 H 0.1394 0.4300 -0.0370
C3 C 0.0734(2) 0.39952(12) 0.1495(2)
C4 C 0.0470(2) 0.31970(13) 0.23889(19)
C5 C 0.0689(2) 0.22115(12) 0.19457(18)
C6 C 0.1155(2) 0.20073(14) 0.06421(19)
H2 H 0.1290 0.1354 0.0355
C7 C 0.0396(2) 0.13796(13) 0.28618(19)
C8 C -0.0271(3) 0.26620(13) 0.44539(19)
H3 H -0.0603 0.2803 0.5320
C9 C 0.1888(3) 0.25977(17) -0.1578(2)
C10 C 0.0482(4) 0.50555(16) 0.1950(3)
H4 H 0.0682 0.5499 0.1222
H5 H 0.1382 0.5200 0.2632
H6 H -0.0776 0.5143 0.2285
C11 C -0.0442(4) 0.09042(15) 0.5119(2)
H7 H -0.0593 0.1209 0.5968
H8 H 0.0612 0.0454 0.5142
H9 H -0.1570 0.0544 0.4897
N1 N 0.2256(3) 0.24416(16) -0.2643(2)
N2 N -0.0095(2) 0.16788(11) 0.41248(17)
N3 N -0.0021(2) 0.34132(12) 0.36812(16)
O1 O 0.0553(2) 0.05017(10) 0.25774(18)
loop_
_geom_bond_atom_site_label_1
_geom_bond_atom_site_label_2
_geom_bond_site_symmetry_1
_geom_bond_site_symmetry_2
C1 C2 1_555 1_555
C2 H1 1_555 1_555
C3 C2 1_555 1_555
C4 C3 1_555 1_555
C5 C4 1_555 1_555
C6 C1 1_555 1_555
H2 C6 1_555 1_555
C7 C5 1_555 1_555
C8 H3 1_555 1_555
C9 C1 1_555 1_555
C10 C3 1_555 1_555
H4 C10 1_555 1_555
H5 C10 1_555 1_555
H6 C10 1_555 1_555
C11 H7 1_555 1_555
H8 C11 1_555 1_555
H9 C11 1_555 1_555
N1 C9 1_555 1_555
N2 C7 1_555 1_555
N3 C4 1_555 1_555
O1 C7 1_555 1_555
C5 C6 1_555 1_555
C8 N2 1_555 1_555
C8 N3 1_555 1_555
C11 N2 1_555 1_555

#END
