
#######################################################################
#
#                 Cambridge Crystallographic Data Centre
#                                CCDC 
#
#######################################################################
#
# If this CIF has been generated from an entry in the Cambridge 
# Structural Database, then it will include bibliographic, chemical, 
# crystal, experimental, refinement or atomic coordinate data resulting 
# from the CCDC's data processing and validation procedures.
#
#######################################################################

data_PAXRUD
_chemical_formula_moiety         'C15 H13 Cl1 N2 O1'
_chemical_name_systematic        
N'-(2-Chlorobenzylidene)-4-methylbenzohydrazide
_symmetry_cell_setting           monoclinic
_symmetry_space_group_name_H-M   'P 21/c'
_symmetry_Int_Tables_number      14
_space_group_name_Hall           '-P 2ybc'
loop_
_symmetry_equiv_pos_site_id
_symmetry_equiv_pos_as_xyz
1 x,y,z
2 -x,1/2+y,1/2-z
3 -x,-y,-z
4 x,1/2-y,1/2+z
_cell_length_a                   11.0697(14)
_cell_length_b                   13.4436(16)
_cell_length_c                   9.1643(11)
_cell_angle_alpha                90
_cell_angle_beta                 96.576(2)
_cell_angle_gamma                90
_cell_volume                     1354.83
_exptl_crystal_colour            colorless
_exptl_crystal_description       block
_cell_formula_units_Z            4
loop_
_atom_site_label
_atom_site_type_symbol
_atom_site_fract_x
_atom_site_fract_y
_atom_site_fract_z
Cl1 Cl 0.73671(7) -0.12300(4) 0.12887(7)
N1 N 0.68758(14) 0.16431(11) -0.06660(16)
N2 N 0.73084(15) 0.24311(11) 0.02057(16)
O1 O 0.76428(13) 0.33102(10) -0.18063(13)
C1 C 0.62975(16) -0.00454(13) -0.0883(2)
C2 C 0.65016(18) -0.10128(14) -0.0383(2)
C3 C 0.6060(2) -0.18270(15) -0.1196(2)
H1 H 0.6209 -0.2467 -0.0835
C4 C 0.5403(2) -0.16849(17) -0.2538(3)
H2 H 0.5098 -0.2229 -0.3088
C5 C 0.5195(2) -0.07398(17) -0.3069(2)
H3 H 0.4752 -0.0645 -0.3984
C6 C 0.56356(18) 0.00679(16) -0.2258(2)
H4 H 0.5489 0.0704 -0.2636
C7 C 0.67597(17) 0.08183(13) -0.0024(2)
H5 H 0.6967 0.0764 0.0986
C8 C 0.76952(17) 0.32495(13) -0.04646(19)
C9 C 0.81732(17) 0.40832(12) 0.04982(19)
C10 C 0.86287(18) 0.39728(13) 0.1951(2)
H6 H 0.8641 0.3347 0.2385
C11 C 0.90664(18) 0.47857(15) 0.2764(2)
H7 H 0.9381 0.4694 0.3740
C12 C 0.90528(18) 0.57268(14) 0.2177(2)
C13 C 0.8605(2) 0.58265(16) 0.0728(3)
H8 H 0.8585 0.6454 0.0299
C14 C 0.8183(2) 0.50216(15) -0.0111(2)
H9 H 0.7903 0.5111 -0.1098
C15 C 0.9510(2) 0.66110(18) 0.3086(3)
H10 H 0.9073 0.6662 0.3930
H11 H 0.9387 0.7205 0.2507
H12 H 1.0362 0.6530 0.3402
H13 H 0.740(2) 0.2368(18) 0.1184(11)
loop_
_geom_bond_atom_site_label_1
_geom_bond_atom_site_label_2
_geom_bond_site_symmetry_1
_geom_bond_site_symmetry_2
Cl1 C2 1_555 1_555
N1 N2 1_555 1_555
N2 C8 1_555 1_555
O1 C8 1_555 1_555
C1 C2 1_555 1_555
C2 C3 1_555 1_555
C3 H1 1_555 1_555
C4 C3 1_555 1_555
H2 C4 1_555 1_555
C5 C4 1_555 1_555
H3 C5 1_555 1_555
C6 C1 1_555 1_555
H4 C6 1_555 1_555
C7 N1 1_555 1_555
H5 C7 1_555 1_555
C8 C9 1_555 1_555
C9 C10 1_555 1_555
C10 H6 1_555 1_555
C11 C10 1_555 1_555
H7 C11 1_555 1_555
C12 C11 1_555 1_555
C13 C12 1_555 1_555
H8 C13 1_555 1_555
C14 C9 1_555 1_555
H9 C14 1_555 1_555
C15 C12 1_555 1_555
H10 C15 1_555 1_555
H11 C15 1_555 1_555
H12 C15 1_555 1_555
H13 N2 1_555 1_555
C1 C7 1_555 1_555
C5 C6 1_555 1_555
C13 C14 1_555 1_555

#END
