
#######################################################################
#
#                 Cambridge Crystallographic Data Centre
#                                CCDC 
#
#######################################################################
#
# If this CIF has been generated from an entry in the Cambridge 
# Structural Database, then it will include bibliographic, chemical, 
# crystal, experimental, refinement or atomic coordinate data resulting 
# from the CCDC's data processing and validation procedures.
#
#######################################################################

data_PAXVAN
_chemical_formula_moiety         'C7 H9 N2 O2 1+,Cl1 1-'
_chemical_name_systematic        'N-Methyl-4-nitroanilinium chloride'
_symmetry_cell_setting           monoclinic
_symmetry_space_group_name_H-M   'P 21/c'
_symmetry_Int_Tables_number      14
_space_group_name_Hall           '-P 2ybc'
loop_
_symmetry_equiv_pos_site_id
_symmetry_equiv_pos_as_xyz
1 x,y,z
2 -x,1/2+y,1/2-z
3 -x,-y,-z
4 x,1/2-y,1/2+z
_cell_length_a                   7.0509(14)
_cell_length_b                   19.120(4)
_cell_length_c                   13.443(3)
_cell_angle_alpha                90
_cell_angle_beta                 95.20(3)
_cell_angle_gamma                90
_cell_volume                     1804.84
_exptl_crystal_colour            yellow
_exptl_crystal_description       block
_cell_formula_units_Z            8
loop_
_atom_site_label
_atom_site_type_symbol
_atom_site_fract_x
_atom_site_fract_y
_atom_site_fract_z
O1 O 0.5920(3) 0.47358(8) 0.82213(13)
O2 O 0.6814(3) 0.46456(9) 0.97433(15)
N1 N 0.6303(3) 0.43952(9) 0.89526(14)
N2 N 0.5910(2) 0.14490(8) 0.86838(12)
C1 C 0.5619(3) 0.26091(10) 0.79113(13)
H1 H 0.5343 0.2393 0.7295
C2 C 0.5707(3) 0.33269(10) 0.79740(13)
H2 H 0.5485 0.3603 0.7406
C3 C 0.6131(2) 0.36260(9) 0.88971(14)
C4 C 0.6468(3) 0.32360(10) 0.97592(14)
H3 H 0.6757 0.3453 1.0374
C5 C 0.6365(3) 0.25178(10) 0.96866(13)
H4 H 0.6580 0.2242 1.0256
C6 C 0.5942(2) 0.22099(9) 0.87655(12)
C7 C 0.4023(3) 0.11454(11) 0.83074(18)
H5 H 0.3053 0.1324 0.8696
H6 H 0.4074 0.0645 0.8365
H7 H 0.3732 0.1272 0.7620
H15 H 0.632(3) 0.1249(11) 0.9271(10)
H16 H 0.684(2) 0.1328(12) 0.8311(15)
O3 O 0.2318(3) 0.28345(10) 1.09445(12)
O4 O 0.1062(3) 0.20296(9) 0.99778(13)
N3 N 0.1557(2) 0.26321(10) 1.01448(14)
N4 N 0.0461(2) 0.45901(8) 0.70054(11)
C8 C 0.0468(3) 0.33800(9) 0.76075(13)
H8 H 0.0125 0.3233 0.6956
C9 C 0.0732(3) 0.28977(9) 0.83732(14)
H9 H 0.0568 0.2422 0.8251
C10 C 0.1243(3) 0.31429(10) 0.93243(13)
C11 C 0.1482(3) 0.38398(10) 0.95434(14)
H10 H 0.1817 0.3987 1.0195
C12 C 0.1211(3) 0.43201(10) 0.87722(13)
H11 H 0.1360 0.4796 0.8898
C13 C 0.0720(2) 0.40829(9) 0.78202(12)
C14 C 0.1958(3) 0.45515(11) 0.62862(15)
H12 H 0.3184 0.4640 0.6634
H13 H 0.1701 0.4896 0.5772
H14 H 0.1948 0.4094 0.5991
H17 H -0.0708(18) 0.4519(12) 0.6697(15)
H18 H 0.041(3) 0.5011(7) 0.7277(15)
Cl1 Cl 0.10531(8) 0.61298(3) 0.77271(4)
Cl2 Cl 0.31979(7) 0.57619(3) 0.42629(3)
loop_
_geom_bond_atom_site_label_1
_geom_bond_atom_site_label_2
_geom_bond_site_symmetry_1
_geom_bond_site_symmetry_2
O1 N1 1_555 1_555
O2 N1 1_555 1_555
O3 N3 1_555 1_555
O4 N3 1_555 1_555
N1 C3 1_555 1_555
N2 C6 1_555 1_555
N3 C10 1_555 1_555
N4 C13 1_555 1_555
C1 H1 1_555 1_555
C2 C1 1_555 1_555
H2 C2 1_555 1_555
C3 C2 1_555 1_555
C4 C3 1_555 1_555
H3 C4 1_555 1_555
C5 C4 1_555 1_555
H4 C5 1_555 1_555
C6 C1 1_555 1_555
C7 N2 1_555 1_555
H5 C7 1_555 1_555
H6 C7 1_555 1_555
H7 C7 1_555 1_555
C8 H8 1_555 1_555
C9 C8 1_555 1_555
H9 C9 1_555 1_555
C10 C9 1_555 1_555
C11 C10 1_555 1_555
H10 C11 1_555 1_555
C12 C11 1_555 1_555
H11 C12 1_555 1_555
C13 C8 1_555 1_555
C14 N4 1_555 1_555
H12 C14 1_555 1_555
H13 C14 1_555 1_555
H14 C14 1_555 1_555
H15 N2 1_555 1_555
H16 N2 1_555 1_555
H17 N4 1_555 1_555
H18 N4 1_555 1_555
C5 C6 1_555 1_555
C12 C13 1_555 1_555

#END
