
#######################################################################
#
#                 Cambridge Crystallographic Data Centre
#                                CCDC 
#
#######################################################################
#
# If this CIF has been generated from an entry in the Cambridge 
# Structural Database, then it will include bibliographic, chemical, 
# crystal, experimental, refinement or atomic coordinate data resulting 
# from the CCDC's data processing and validation procedures.
#
#######################################################################

data_PAXXIX
_chemical_formula_moiety         'C9 H13 N2 O1 1+,Cl1 1-'
_chemical_name_systematic        
'4-[(E)-(Hydroxyimino)methyl]-N,N-dimethylanilinium chloride'
_symmetry_cell_setting           monoclinic
_symmetry_space_group_name_H-M   'P 21/c'
_symmetry_Int_Tables_number      14
_space_group_name_Hall           '-P 2ybc'
loop_
_symmetry_equiv_pos_site_id
_symmetry_equiv_pos_as_xyz
1 x,y,z
2 -x,1/2+y,1/2-z
3 -x,-y,-z
4 x,1/2-y,1/2+z
_cell_length_a                   11.2696(10)
_cell_length_b                   11.7093(10)
_cell_length_c                   7.6961(7)
_cell_angle_alpha                90
_cell_angle_beta                 90.108(2)
_cell_angle_gamma                90
_cell_volume                     1015.57
_exptl_crystal_colour            brown
_exptl_crystal_description       needle
_cell_formula_units_Z            4
loop_
_atom_site_label
_atom_site_type_symbol
_atom_site_fract_x
_atom_site_fract_y
_atom_site_fract_z
Cl1 Cl 0.16123(3) 0.02780(2) 0.86101(4)
O1 O 0.81494(8) 0.28038(8) 0.48301(14)
H1 H 0.8321 0.3407 0.5309
N1 N 0.17646(8) 0.07318(8) 0.24932(13)
H2 H 0.1744(14) 0.0531(13) 0.1354(18)
N2 N 0.69124(9) 0.27159(9) 0.46814(14)
C1 C 0.30082(10) 0.10295(10) 0.29034(14)
C2 C 0.32816(11) 0.20083(11) 0.38181(18)
H3 H 0.2683 0.2494 0.4197
C3 C 0.44580(11) 0.22569(11) 0.41636(18)
H4 H 0.4647 0.2913 0.4787
C4 C 0.53633(10) 0.15418(9) 0.35930(14)
C5 C 0.50650(11) 0.05628(10) 0.26681(16)
H5 H 0.5661 0.0076 0.2283
C6 C 0.38908(11) 0.03048(9) 0.23151(16)
H6 H 0.3697 -0.0349 0.1689
C7 C 0.66167(10) 0.18062(10) 0.38936(15)
H7 H 0.7199 0.1305 0.3506
C8 C 0.08882(12) 0.16749(13) 0.2724(2)
H8 H 0.0145 0.1459 0.2209
H9 H 0.1179 0.2354 0.2172
H10 H 0.0776 0.1818 0.3941
C9 C 0.13654(13) -0.03099(11) 0.34631(19)
H11 H 0.1896 -0.0931 0.3223
H12 H 0.0577 -0.0512 0.3100
H13 H 0.1367 -0.0154 0.4688
loop_
_geom_bond_atom_site_label_1
_geom_bond_atom_site_label_2
_geom_bond_site_symmetry_1
_geom_bond_site_symmetry_2
O1 H1 1_555 1_555
N1 H2 1_555 1_555
N2 O1 1_555 1_555
C1 N1 1_555 1_555
C2 C1 1_555 1_555
H3 C2 1_555 1_555
C3 C2 1_555 1_555
H4 C3 1_555 1_555
C4 C3 1_555 1_555
C5 C4 1_555 1_555
H5 C5 1_555 1_555
C6 C1 1_555 1_555
H6 C6 1_555 1_555
C7 N2 1_555 1_555
H7 C7 1_555 1_555
C8 N1 1_555 1_555
H8 C8 1_555 1_555
H9 C8 1_555 1_555
H10 C8 1_555 1_555
C9 N1 1_555 1_555
H11 C9 1_555 1_555
H12 C9 1_555 1_555
H13 C9 1_555 1_555
C4 C7 1_555 1_555
C5 C6 1_555 1_555

#END
