
#######################################################################
#
#                 Cambridge Crystallographic Data Centre
#                                CCDC 
#
#######################################################################
#
# If this CIF has been generated from an entry in the Cambridge 
# Structural Database, then it will include bibliographic, chemical, 
# crystal, experimental, refinement or atomic coordinate data resulting 
# from the CCDC's data processing and validation procedures.
#
#######################################################################

data_PAXYOE
_chemical_formula_moiety         'C10 H5 Cl1 F2 N2 O1 S1'
_chemical_name_systematic        
N-(5-Chloro-1,3-thiazol-2-yl)-2,4-difluorobenzamide
_symmetry_cell_setting           triclinic
_symmetry_space_group_name_H-M   'P -1'
_symmetry_Int_Tables_number      2
_space_group_name_Hall           '-P 1'
loop_
_symmetry_equiv_pos_site_id
_symmetry_equiv_pos_as_xyz
1 x,y,z
2 -x,-y,-z
_cell_length_a                   6.929(2)
_cell_length_b                   7.330(2)
_cell_length_c                   12.179(4)
_cell_angle_alpha                101.669(3)
_cell_angle_beta                 98.277(3)
_cell_angle_gamma                111.796(3)
_cell_volume                     545.91
_exptl_crystal_colour            colorless
_exptl_crystal_description       block
_cell_formula_units_Z            2
loop_
_atom_site_label
_atom_site_type_symbol
_atom_site_fract_x
_atom_site_fract_y
_atom_site_fract_z
C1 C 1.0517(5) 0.7233(5) 0.9365(3)
C2 C 1.2260(5) 0.8083(5) 1.0282(3)
H1 H 1.2296 0.8968 1.0958
C3 C 1.3958(5) 0.7579(5) 1.0168(3)
C4 C 1.3945(5) 0.6268(5) 0.9182(3)
H2 H 1.5116 0.5954 0.9126
C5 C 1.2153(5) 0.5432(5) 0.8280(3)
H3 H 1.2120 0.4530 0.7612
C6 C 1.0387(4) 0.5896(4) 0.8336(2)
C7 C 0.8392(5) 0.4900(4) 0.7407(2)
C8 C 0.6940(4) 0.3522(4) 0.5350(2)
C9 C 0.5284(5) 0.2099(5) 0.3514(3)
H4 H 0.5166 0.1733 0.2722
C10 C 0.3587(5) 0.1551(4) 0.3969(3)
Cl1 Cl 0.09389(14) 0.01753(14) 0.32522(8)
F1 F 1.5714(3) 0.8434(3) 1.10528(18)
F2 F 0.8890(3) 0.7783(4) 0.9458(2)
N1 N 0.8646(4) 0.4602(4) 0.62983(19)
H5 H 0.9916 0.5106 0.6191
N2 N 0.7224(4) 0.3246(4) 0.4302(2)
O1 O 0.6609(3) 0.4314(4) 0.75914(18)
S1 S 0.43196(11) 0.24360(11) 0.54607(6)
loop_
_geom_bond_atom_site_label_1
_geom_bond_atom_site_label_2
_geom_bond_site_symmetry_1
_geom_bond_site_symmetry_2
C1 C2 1_555 1_555
C2 H1 1_555 1_555
C3 C2 1_555 1_555
C4 C3 1_555 1_555
H2 C4 1_555 1_555
C5 C4 1_555 1_555
H3 C5 1_555 1_555
C6 C1 1_555 1_555
C7 C6 1_555 1_555
C8 N1 1_555 1_555
C9 H4 1_555 1_555
C10 C9 1_555 1_555
Cl1 C10 1_555 1_555
F1 C3 1_555 1_555
F2 C1 1_555 1_555
N1 C7 1_555 1_555
H5 N1 1_555 1_555
N2 C8 1_555 1_555
O1 C7 1_555 1_555
S1 C8 1_555 1_555
C5 C6 1_555 1_555
C9 N2 1_555 1_555
C10 S1 1_555 1_555

#END
