
#######################################################################
#
#                 Cambridge Crystallographic Data Centre
#                                CCDC 
#
#######################################################################
#
# If this CIF has been generated from an entry in the Cambridge 
# Structural Database, then it will include bibliographic, chemical, 
# crystal, experimental, refinement or atomic coordinate data resulting 
# from the CCDC's data processing and validation procedures.
#
#######################################################################

data_PAXZOF
_chemical_formula_moiety         'C24 H24 N7 3+,3(C6 H2 N3 O7 1-),2(C2 H3 N1)'
_chemical_name_systematic        
'tris(1H-benzimidazol-3-ium-2-ylmethyl)amine tris(2,4,6-trinitrophenolate) acetonitrile solvate'
_symmetry_cell_setting           triclinic
_symmetry_space_group_name_H-M   'P -1'
_symmetry_Int_Tables_number      2
_space_group_name_Hall           '-P 1'
loop_
_symmetry_equiv_pos_site_id
_symmetry_equiv_pos_as_xyz
1 x,y,z
2 -x,-y,-z
_cell_length_a                   10.9914(3)
_cell_length_b                   15.4620(5)
_cell_length_c                   16.1760(6)
_cell_angle_alpha                74.8260(10)
_cell_angle_beta                 74.3370(10)
_cell_angle_gamma                73.2990(10)
_cell_volume                     2484.29
_exptl_crystal_colour            yellow
_exptl_crystal_description       block
_cell_formula_units_Z            2
loop_
_atom_site_label
_atom_site_type_symbol
_atom_site_fract_x
_atom_site_fract_y
_atom_site_fract_z
O1 O 0.19492(13) 0.72945(9) 0.17343(9)
O2 O 0.39722(16) 0.60052(13) 0.11588(14)
O3 O 0.36658(17) 0.47442(13) 0.10886(18)
O4 O -0.03082(14) 0.38847(10) 0.21627(11)
O5 O -0.20832(15) 0.49423(12) 0.23218(13)
O6 O -0.18403(14) 0.78337(11) 0.28475(10)
O7 O -0.04156(14) 0.84451(10) 0.18413(11)
N8 N 0.32617(16) 0.54937(12) 0.12943(12)
N9 N -0.08945(16) 0.46810(12) 0.22038(12)
N10 N -0.08201(16) 0.77711(12) 0.22959(11)
C25 C 0.13096(18) 0.66971(13) 0.18346(12)
C26 C 0.18751(18) 0.57814(13) 0.16620(13)
C27 C 0.11648(19) 0.51360(13) 0.17898(13)
H25 H 0.1585 0.4544 0.1659
C28 C -0.01533(18) 0.53544(13) 0.21077(13)
C29 C -0.07911(19) 0.62129(14) 0.22969(13)
H26 H -0.1701 0.6354 0.2526
C30 C -0.00806(19) 0.68566(13) 0.21469(12)
O8 O 0.55319(13) -0.01411(9) 0.21443(9)
O9 O 0.45012(15) 0.11421(11) 0.08342(10)
O10 O 0.54969(15) 0.22461(11) 0.04584(10)
O11 O 0.4936(2) 0.37383(13) 0.28626(13)
O12 O 0.5011(2) 0.29227(13) 0.41583(12)
O13 O 0.61627(14) -0.04480(11) 0.44910(10)
O14 O 0.49248(17) -0.08665(11) 0.39075(10)
N11 N 0.50651(16) 0.16298(12) 0.10090(11)
N12 N 0.5052(2) 0.29939(14) 0.33842(13)
N13 N 0.55052(16) -0.03116(12) 0.39430(11)
C31 C 0.53576(17) 0.05662(14) 0.24384(13)
C32 C 0.51996(18) 0.14913(13) 0.19069(13)
C33 C 0.51562(18) 0.22584(14) 0.21939(13)
H27 H 0.5091 0.2841 0.1806
C34 C 0.52086(19) 0.21746(14) 0.30585(14)
C35 C 0.53357(19) 0.13207(14) 0.36288(13)
H28 H 0.5386 0.1266 0.4218
C36 C 0.53860(18) 0.05687(14) 0.33255(13)
O15 O 0.80096(18) 0.92619(10) 0.63659(10)
O16 O 0.86187(18) 0.99626(11) 0.46725(10)
O17 O 0.91497(14) 0.90721(11) 0.37525(9)
O18 O 0.8705(2) 0.59992(13) 0.45699(13)
O19 O 0.8206(2) 0.53622(13) 0.59356(15)
O20 O 0.74359(14) 0.70416(10) 0.81857(10)
O21 O 0.84323(16) 0.81413(11) 0.78892(10)
N14 N 0.87694(16) 0.92056(12) 0.45101(11)
N15 N 0.8432(2) 0.60241(14) 0.53516(15)
N16 N 0.79938(16) 0.76219(11) 0.76568(11)
C37 C 0.82270(18) 0.85297(13) 0.61195(13)
C38 C 0.85192(18) 0.84327(14) 0.52128(13)
C39 C 0.85685(19) 0.76357(14) 0.49720(14)
H29 H 0.8738 0.7612 0.4369
C40 C 0.8371(2) 0.68644(14) 0.56079(15)
C41 C 0.81635(19) 0.68765(14) 0.64873(14)
H30 H 0.8037 0.6342 0.6919
C42 C 0.81428(18) 0.76644(13) 0.67287(13)
N1 N 0.19365(15) 0.80823(11) 0.31345(11)
H1 H 0.1904 0.7887 0.2678
N2 N 0.20614(15) 0.89781(11) 0.39250(10)
H2 H 0.2129 0.9467 0.4075
N3 N 0.16194(15) 0.88274(11) 0.03191(11)
H3 H 0.1554 0.8451 0.0833
N4 N 0.19477(15) 1.00153(11) -0.06998(10)
H4 H 0.2132 1.0551 -0.0966
N5 N 0.44272(15) 0.73101(11) 0.19350(11)
H5 H 0.4120 0.7140 0.1569
N6 N 0.50621(15) 0.81663(11) 0.25280(10)
H6 H 0.5238 0.8650 0.2618
N7 N 0.25878(15) 0.93287(11) 0.15208(10)
C1 C 0.18632(18) 0.75699(13) 0.39846(13)
C2 C 0.1757(2) 0.66653(15) 0.43415(15)
H7 H 0.1705 0.6272 0.3995
C3 C 0.1730(2) 0.63736(16) 0.52277(16)
H8 H 0.1661 0.5760 0.5498
C4 C 0.1801(2) 0.69480(16) 0.57392(15)
H9 H 0.1780 0.6716 0.6347
C5 C 0.1901(2) 0.78520(15) 0.53837(14)
H10 H 0.1945 0.8247 0.5731
C6 C 0.19351(18) 0.81461(13) 0.44906(13)
C7 C 0.20641(17) 0.89165(13) 0.31229(12)
C8 C 0.22002(19) 0.96737(13) 0.23388(12)
H11 H 0.1362 1.0136 0.2346
H12 H 0.2859 0.9983 0.2365
C9 C 0.2139(2) 1.00563(13) 0.08031(13)
H13 H 0.2794 1.0429 0.0527
H14 H 0.1316 1.0469 0.1038
C10 C 0.19338(17) 0.96346(13) 0.01371(12)
C11 C 0.16236(17) 0.94336(13) -0.10929(12)
C12 C 0.15096(18) 0.95044(15) -0.19487(13)
H15 H 0.1647 1.0024 -0.2398
C13 C 0.1184(2) 0.87699(15) -0.20989(14)
H16 H 0.1110 0.8780 -0.2673
C14 C 0.0957(2) 0.80077(16) -0.14332(15)
H17 H 0.0725 0.7522 -0.1568
C15 C 0.1064(2) 0.79473(15) -0.05901(15)
H18 H 0.0908 0.7433 -0.0138
C16 C 0.14117(18) 0.86745(14) -0.04346(13)
C17 C 0.40172(18) 0.89956(14) 0.12558(13)
H19 H 0.4444 0.9490 0.1223
H20 H 0.4235 0.8847 0.0666
C18 C 0.45217(17) 0.81625(13) 0.18870(12)
C19 C 0.53047(18) 0.72800(13) 0.30347(13)
C20 C 0.58034(19) 0.69227(14) 0.37957(13)
H21 H 0.6085 0.7292 0.4058
C21 C 0.5861(2) 0.60002(15) 0.41413(14)
H22 H 0.6190 0.5727 0.4660
C22 C 0.5453(2) 0.54537(15) 0.37567(15)
H23 H 0.5520 0.4820 0.4019
C23 C 0.4956(2) 0.58018(14) 0.30116(15)
H24 H 0.4672 0.5429 0.2753
C24 C 0.48936(18) 0.67315(13) 0.26583(13)
N17 N 0.9138(2) 0.42750(16) 0.01524(15)
C45 C 0.8089(3) 0.43038(17) 0.05165(17)
C46 C 0.6769(3) 0.4302(2) 0.0968(2)
H34 H 0.6485 0.3835 0.0806
H35 H 0.6208 0.4910 0.0803
H36 H 0.6717 0.4159 0.1602
N18 N 0.76021(19) 0.81449(14) 0.08431(13)
C43 C 0.7582(2) 0.75207(16) 0.06067(14)
C44 C 0.7551(3) 0.67206(18) 0.03153(18)
H31 H 0.7095 0.6322 0.0801
H32 H 0.8442 0.6380 0.0119
H33 H 0.7097 0.6918 -0.0171
loop_
_geom_bond_atom_site_label_1
_geom_bond_atom_site_label_2
_geom_bond_site_symmetry_1
_geom_bond_site_symmetry_2
O1 C25 1_555 1_555
O2 N8 1_555 1_555
O3 N8 1_555 1_555
O4 N9 1_555 1_555
O5 N9 1_555 1_555
O6 N10 1_555 1_555
O7 N10 1_555 1_555
O8 C31 1_555 1_555
O9 N11 1_555 1_555
O10 N11 1_555 1_555
O11 N12 1_555 1_555
O12 N12 1_555 1_555
O13 N13 1_555 1_555
O14 N13 1_555 1_555
O15 C37 1_555 1_555
O16 N14 1_555 1_555
O17 N14 1_555 1_555
O18 N15 1_555 1_555
O19 N15 1_555 1_555
O20 N16 1_555 1_555
O21 N16 1_555 1_555
N1 H1 1_555 1_555
N2 H2 1_555 1_555
N3 H3 1_555 1_555
N4 H4 1_555 1_555
N5 H5 1_555 1_555
N6 H6 1_555 1_555
N7 C8 1_555 1_555
N8 C26 1_555 1_555
N9 C28 1_555 1_555
N10 C30 1_555 1_555
N11 C32 1_555 1_555
N12 C34 1_555 1_555
N13 C36 1_555 1_555
N14 C38 1_555 1_555
N15 C40 1_555 1_555
N16 C42 1_555 1_555
N17 C45 1_555 1_555
N18 C43 1_555 1_555
C1 N1 1_555 1_555
C2 C1 1_555 1_555
H7 C2 1_555 1_555
C3 C2 1_555 1_555
H8 C3 1_555 1_555
C4 C3 1_555 1_555
H9 C4 1_555 1_555
C5 C4 1_555 1_555
H10 C5 1_555 1_555
C6 N2 1_555 1_555
C7 N1 1_555 1_555
C8 C7 1_555 1_555
H11 C8 1_555 1_555
H12 C8 1_555 1_555
C9 N7 1_555 1_555
H13 C9 1_555 1_555
H14 C9 1_555 1_555
C10 N3 1_555 1_555
C11 N4 1_555 1_555
C12 C11 1_555 1_555
H15 C12 1_555 1_555
C13 C12 1_555 1_555
H16 C13 1_555 1_555
C14 C13 1_555 1_555
H17 C14 1_555 1_555
C15 C14 1_555 1_555
H18 C15 1_555 1_555
C16 N3 1_555 1_555
C17 N7 1_555 1_555
H19 C17 1_555 1_555
H20 C17 1_555 1_555
C18 N5 1_555 1_555
C19 N6 1_555 1_555
C20 C19 1_555 1_555
H21 C20 1_555 1_555
C21 C20 1_555 1_555
H22 C21 1_555 1_555
C22 C21 1_555 1_555
H23 C22 1_555 1_555
C23 C22 1_555 1_555
H24 C23 1_555 1_555
C24 N5 1_555 1_555
C25 C26 1_555 1_555
C26 C27 1_555 1_555
C27 H25 1_555 1_555
C28 C27 1_555 1_555
C29 C28 1_555 1_555
H26 C29 1_555 1_555
C30 C25 1_555 1_555
C31 C32 1_555 1_555
C32 C33 1_555 1_555
C33 H27 1_555 1_555
C34 C33 1_555 1_555
C35 C34 1_555 1_555
H28 C35 1_555 1_555
C36 C31 1_555 1_555
C37 C38 1_555 1_555
C38 C39 1_555 1_555
C39 H29 1_555 1_555
C40 C39 1_555 1_555
C41 C40 1_555 1_555
H30 C41 1_555 1_555
C42 C37 1_555 1_555
C43 C44 1_555 1_555
C44 H31 1_555 1_555
H32 C44 1_555 1_555
H33 C44 1_555 1_555
C45 C46 1_555 1_555
C46 H34 1_555 1_555
H35 C46 1_555 1_555
H36 C46 1_555 1_555
N2 C7 1_555 1_555
N4 C10 1_555 1_555
N6 C18 1_555 1_555
C1 C6 1_555 1_555
C5 C6 1_555 1_555
C9 C10 1_555 1_555
C11 C16 1_555 1_555
C15 C16 1_555 1_555
C17 C18 1_555 1_555
C19 C24 1_555 1_555
C23 C24 1_555 1_555
C29 C30 1_555 1_555
C35 C36 1_555 1_555
C41 C42 1_555 1_555

#END
