
#######################################################################
#
#                 Cambridge Crystallographic Data Centre
#                                CCDC 
#
#######################################################################
#
# If this CIF has been generated from an entry in the Cambridge 
# Structural Database, then it will include bibliographic, chemical, 
# crystal, experimental, refinement or atomic coordinate data resulting 
# from the CCDC's data processing and validation procedures.
#
#######################################################################

data_PAXZEU
_chemical_formula_moiety         'C25 H26 N4 S2'
_chemical_name_systematic        
1,2-bis(1-Phenyl-2-thioimidazol-3-ylmethyl)cyclopentane
_symmetry_cell_setting           orthorhombic
_symmetry_space_group_name_H-M   'P 21 21 2'
_symmetry_Int_Tables_number      18
_space_group_name_Hall           'P 2 2ab'
loop_
_symmetry_equiv_pos_site_id
_symmetry_equiv_pos_as_xyz
1 x,y,z
2 -x,-y,z
3 1/2-x,1/2+y,-z
4 1/2+x,1/2-y,-z
_cell_length_a                   12.6595(7)
_cell_length_b                   17.5962(9)
_cell_length_c                   10.4121(5)
_cell_angle_alpha                90
_cell_angle_beta                 90
_cell_angle_gamma                90
_cell_volume                     2319.39
_exptl_crystal_colour            colorless
_exptl_crystal_description       chunk
_cell_formula_units_Z            4
loop_
_atom_site_label
_atom_site_type_symbol
_atom_site_fract_x
_atom_site_fract_y
_atom_site_fract_z
C1 C 0.5000 0.0000 0.3996(4)
H1 H 0.5578 0.0165 0.3452
C2 C 0.4644(3) 0.06433(15) 0.4850(3)
H2 H 0.3880 0.0686 0.4847
H3 H 0.4944 0.1122 0.4565
C3 C 0.50496(18) 0.04348(11) 0.6194(2)
H4 H 0.5798 0.0572 0.6256
C4 C 0.4451(2) 0.08111(15) 0.7287(3)
H5 H 0.3700 0.0798 0.7104
H6 H 0.4572 0.0530 0.8074
N1 N 0.47870(17) 0.16034(11) 0.7465(2)
C5 C 0.4344(2) 0.22304(15) 0.6879(3)
H7 H 0.3742 0.2234 0.6367
C6 C 0.4930(2) 0.28244(15) 0.7178(3)
H8 H 0.4813 0.3322 0.6914
C7 C 0.5664(2) 0.18059(13) 0.8130(3)
S1 S 0.64654(6) 0.12235(4) 0.89623(8)
N2 N 0.57521(18) 0.25752(10) 0.7958(2)
C8 C 0.6560(2) 0.30654(13) 0.8447(3)
C9 C 0.6783(2) 0.30658(15) 0.9749(3)
H9 H 0.6432 0.2736 1.0300
C10 C 0.7528(3) 0.35594(16) 1.0213(3)
H10 H 0.7693 0.3555 1.1083
C11 C 0.8037(3) 0.40619(17) 0.9411(4)
H11 H 0.8531 0.4401 0.9740
C12 C 0.7812(3) 0.40602(16) 0.8129(3)
H12 H 0.8159 0.4394 0.7581
C13 C 0.7063(2) 0.35596(15) 0.7642(3)
H13 H 0.6905 0.3561 0.6770
H1A H 0.4422 -0.0165 0.3452
C2A C 0.5356(3) -0.06433(15) 0.4850(3)
H2A H 0.6120 -0.0686 0.4847
H3A H 0.5056 -0.1122 0.4565
C3A C 0.49504(18) -0.04348(11) 0.6194(2)
H4A H 0.4202 -0.0572 0.6256
C4A C 0.5549(2) -0.08111(15) 0.7287(3)
H5A H 0.6300 -0.0798 0.7104
H6A H 0.5428 -0.0530 0.8074
N1A N 0.52130(17) -0.16034(11) 0.7465(2)
C5A C 0.5656(2) -0.22304(15) 0.6879(3)
H7A H 0.6258 -0.2234 0.6367
C6A C 0.5070(2) -0.28244(15) 0.7178(3)
H8A H 0.5187 -0.3322 0.6914
C7A C 0.4336(2) -0.18059(13) 0.8130(3)
S1A S 0.35346(6) -0.12235(4) 0.89623(8)
N2A N 0.42479(18) -0.25752(10) 0.7958(2)
C8A C 0.3440(2) -0.30654(13) 0.8447(3)
C9A C 0.3217(2) -0.30658(15) 0.9749(3)
H9A H 0.3568 -0.2736 1.0300
C10A C 0.2472(3) -0.35594(16) 1.0213(3)
H10A H 0.2307 -0.3555 1.1083
C11A C 0.1963(3) -0.40619(17) 0.9411(4)
H11A H 0.1469 -0.4401 0.9740
C12A C 0.2188(3) -0.40602(16) 0.8129(3)
H12A H 0.1841 -0.4394 0.7581
C13A C 0.2937(2) -0.35596(15) 0.7642(3)
H13A H 0.3095 -0.3561 0.6770
C14 C 0.0000 0.0000 1.0940(4)
H14 H -0.0471 -0.0293 1.1483
C15 C -0.0631(3) 0.05250(16) 1.0064(3)
H15 H -0.0342 0.1035 1.0082
H16 H -0.1364 0.0545 1.0331
C16 C -0.0536(2) 0.01809(15) 0.8708(2)
H17 H -0.1052 -0.0233 0.8660
C17 C -0.0789(2) 0.07217(15) 0.7615(2)
H18 H -0.0607 0.0470 0.6816
H19 H -0.1547 0.0802 0.7607
N3 N -0.02810(17) 0.14656(11) 0.7618(2)
C18 C -0.0701(2) 0.20969(15) 0.8218(3)
H20 H -0.1304 0.2105 0.8729
C19 C -0.0095(2) 0.26894(15) 0.7939(3)
H21 H -0.0194 0.3186 0.8222
C20 C 0.0597(2) 0.16670(14) 0.6941(3)
S2 S 0.13789(6) 0.10924(4) 0.60612(8)
N4 N 0.07164(18) 0.24328(11) 0.7143(2)
C21 C 0.1507(2) 0.29247(13) 0.6619(2)
C22 C 0.1998(2) 0.34512(15) 0.7399(3)
H22 H 0.1848 0.3466 0.8273
C23 C 0.2711(3) 0.39545(16) 0.6877(3)
H23 H 0.3034 0.4315 0.7399
C24 C 0.2949(3) 0.39277(18) 0.5582(3)
H24 H 0.3433 0.4269 0.5235
C25 C 0.2473(3) 0.33970(17) 0.4809(3)
H25 H 0.2640 0.3373 0.3940
C26 C 0.1747(2) 0.28998(16) 0.5321(3)
H26 H 0.1416 0.2546 0.4794
H14A H 0.0471 0.0293 1.1483
C15A C 0.0631(3) -0.05250(16) 1.0064(3)
H15A H 0.0342 -0.1035 1.0082
H16A H 0.1364 -0.0545 1.0331
C16A C 0.0536(2) -0.01809(15) 0.8708(2)
H17A H 0.1052 0.0233 0.8660
C17A C 0.0789(2) -0.07217(15) 0.7615(2)
H18A H 0.0607 -0.0470 0.6816
H19A H 0.1547 -0.0802 0.7607
N3A N 0.02810(17) -0.14656(11) 0.7618(2)
C18A C 0.0701(2) -0.20969(15) 0.8218(3)
H20A H 0.1304 -0.2105 0.8729
C19A C 0.0095(2) -0.26894(15) 0.7939(3)
H21A H 0.0194 -0.3186 0.8222
C20A C -0.0597(2) -0.16670(14) 0.6941(3)
S2A S -0.13789(6) -0.10924(4) 0.60612(8)
N4A N -0.07164(18) -0.24328(11) 0.7143(2)
C21A C -0.1507(2) -0.29247(13) 0.6619(2)
C22A C -0.1998(2) -0.34512(15) 0.7399(3)
H22A H -0.1848 -0.3466 0.8273
C23A C -0.2711(3) -0.39545(16) 0.6877(3)
H23A H -0.3034 -0.4315 0.7399
C24A C -0.2949(3) -0.39277(18) 0.5582(3)
H24A H -0.3433 -0.4269 0.5235
C25A C -0.2473(3) -0.33970(17) 0.4809(3)
H25A H -0.2640 -0.3373 0.3940
C26A C -0.1747(2) -0.28998(16) 0.5321(3)
H26A H -0.1416 -0.2546 0.4794
loop_
_geom_bond_atom_site_label_1
_geom_bond_atom_site_label_2
_geom_bond_site_symmetry_1
_geom_bond_site_symmetry_2
C1 H1 1_555 1_555
C2 C1 1_555 1_555
H2 C2 1_555 1_555
H3 C2 1_555 1_555
C3 C2 1_555 1_555
H4 C3 1_555 1_555
C4 C3 1_555 1_555
H5 C4 1_555 1_555
H6 C4 1_555 1_555
N1 C4 1_555 1_555
C5 N1 1_555 1_555
H7 C5 1_555 1_555
C6 C5 1_555 1_555
H8 C6 1_555 1_555
C7 N1 1_555 1_555
S1 C7 1_555 1_555
N2 C6 1_555 1_555
C8 N2 1_555 1_555
C9 C8 1_555 1_555
H9 C9 1_555 1_555
C10 C9 1_555 1_555
H10 C10 1_555 1_555
C11 C10 1_555 1_555
H11 C11 1_555 1_555
C12 C11 1_555 1_555
H12 C12 1_555 1_555
C13 C8 1_555 1_555
H13 C13 1_555 1_555
C14 H14 1_555 1_555
C15 C14 1_555 1_555
H15 C15 1_555 1_555
H16 C15 1_555 1_555
C16 C15 1_555 1_555
H17 C16 1_555 1_555
C17 C16 1_555 1_555
H18 C17 1_555 1_555
H19 C17 1_555 1_555
N3 C17 1_555 1_555
C18 N3 1_555 1_555
H20 C18 1_555 1_555
C19 C18 1_555 1_555
H21 C19 1_555 1_555
C20 N3 1_555 1_555
S2 C20 1_555 1_555
N4 C19 1_555 1_555
C21 N4 1_555 1_555
C22 C21 1_555 1_555
H22 C22 1_555 1_555
C23 C22 1_555 1_555
H23 C23 1_555 1_555
C24 C23 1_555 1_555
H24 C24 1_555 1_555
C25 C24 1_555 1_555
H25 C25 1_555 1_555
C26 C21 1_555 1_555
H26 C26 1_555 1_555
H1A C1 1_555 1_555
C2A C1 1_555 1_555
H2A C2A 1_555 1_555
H3A C2A 1_555 1_555
C3A C3 1_555 1_555
H4A C3A 1_555 1_555
C4A C3A 1_555 1_555
H5A C4A 1_555 1_555
H6A C4A 1_555 1_555
N1A C4A 1_555 1_555
C5A N1A 1_555 1_555
H7A C5A 1_555 1_555
C6A C5A 1_555 1_555
H8A C6A 1_555 1_555
C7A N1A 1_555 1_555
S1A C7A 1_555 1_555
N2A C6A 1_555 1_555
C8A N2A 1_555 1_555
C9A C8A 1_555 1_555
H9A C9A 1_555 1_555
C10A C9A 1_555 1_555
H10A C10A 1_555 1_555
C11A C10A 1_555 1_555
H11A C11A 1_555 1_555
C12A C11A 1_555 1_555
H12A C12A 1_555 1_555
C13A C8A 1_555 1_555
H13A C13A 1_555 1_555
H14A C14 1_555 1_555
C15A C14 1_555 1_555
H15A C15A 1_555 1_555
H16A C15A 1_555 1_555
C16A C16 1_555 1_555
H17A C16A 1_555 1_555
C17A C16A 1_555 1_555
H18A C17A 1_555 1_555
H19A C17A 1_555 1_555
N3A C17A 1_555 1_555
C18A N3A 1_555 1_555
H20A C18A 1_555 1_555
C19A C18A 1_555 1_555
H21A C19A 1_555 1_555
C20A N3A 1_555 1_555
S2A C20A 1_555 1_555
N4A C19A 1_555 1_555
C21A N4A 1_555 1_555
C22A C21A 1_555 1_555
H22A C22A 1_555 1_555
C23A C22A 1_555 1_555
H23A C23A 1_555 1_555
C24A C23A 1_555 1_555
H24A C24A 1_555 1_555
C25A C24A 1_555 1_555
H25A C25A 1_555 1_555
C26A C21A 1_555 1_555
H26A C26A 1_555 1_555
C7 N2 1_555 1_555
C12 C13 1_555 1_555
C20 N4 1_555 1_555
C25 C26 1_555 1_555
C2A C3A 1_555 1_555
C7A N2A 1_555 1_555
C12A C13A 1_555 1_555
C15A C16A 1_555 1_555
C20A N4A 1_555 1_555
C25A C26A 1_555 1_555

#END
