
#######################################################################
#
#                 Cambridge Crystallographic Data Centre
#                                CCDC 
#
#######################################################################
#
# If this CIF has been generated from an entry in the Cambridge 
# Structural Database, then it will include bibliographic, chemical, 
# crystal, experimental, refinement or atomic coordinate data resulting 
# from the CCDC's data processing and validation procedures.
#
#######################################################################

data_PAYBIC
_chemical_formula_moiety         'C26 H20 N2 O2'
_chemical_name_systematic        
4-(2-(4-Nitrophenyl)vinyl)-N,N-diphenylaniline
_symmetry_cell_setting           monoclinic
_symmetry_space_group_name_H-M   'P 21/c'
_symmetry_Int_Tables_number      14
_space_group_name_Hall           '-P 2ybc'
loop_
_symmetry_equiv_pos_site_id
_symmetry_equiv_pos_as_xyz
1 x,y,z
2 -x,1/2+y,1/2-z
3 -x,-y,-z
4 x,1/2-y,1/2+z
_cell_length_a                   8.4884(3)
_cell_length_b                   8.9834(3)
_cell_length_c                   27.0880(8)
_cell_angle_alpha                90
_cell_angle_beta                 96.500(2)
_cell_angle_gamma                90
_cell_volume                     2052.31
_exptl_crystal_colour            red
_exptl_crystal_description       block
_cell_formula_units_Z            4
loop_
_atom_site_label
_atom_site_type_symbol
_atom_site_fract_x
_atom_site_fract_y
_atom_site_fract_z
O1 O 0.1022(4) 0.1217(4) 1.06736(14)
O2 O 0.2236(5) -0.0213(4) 1.02338(11)
N1 N 0.4781(2) 1.2271(2) 0.81947(8)
N2 N 0.1826(4) 0.1004(4) 1.03580(13)
C1 C 0.3616(3) 1.3187(3) 0.78910(9)
C2 C 0.3483(3) 1.4677(3) 0.79922(10)
H1 H 0.4128 1.5106 0.8254
C3 C 0.2364(4) 1.5551(4) 0.76972(13)
H2 H 0.2289 1.6559 0.7770
C4 C 0.1355(4) 1.4960(5) 0.72958(14)
H3 H 0.0631 1.5566 0.7107
C5 C 0.1463(4) 1.3478(4) 0.71906(13)
H4 H 0.0806 1.3053 0.6930
C6 C 0.2598(4) 1.2596(3) 0.74862(11)
H5 H 0.2677 1.1590 0.7411
C7 C 0.6385(3) 1.2784(3) 0.83323(9)
C8 C 0.7061(3) 1.3620(3) 0.80040(11)
H6 H 0.6519 1.3862 0.7697
C9 C 0.8628(4) 1.4119(3) 0.81420(15)
H7 H 0.9097 1.4701 0.7915
C10 C 0.9527(4) 1.3801(3) 0.85959(15)
H8 H 1.0551 1.4169 0.8667
C11 C 0.8878(4) 1.2964(3) 0.89204(12)
H9 H 0.9441 1.2712 0.9224
C12 C 0.7319(3) 1.2467(3) 0.87945(10)
H10 H 0.6861 1.1894 0.9026
C13 C 0.4293(3) 1.0942(3) 0.83959(9)
C14 C 0.2812(3) 1.0854(3) 0.85408(10)
H11 H 0.2101 1.1638 0.8479
C15 C 0.2386(4) 0.9612(3) 0.87764(11)
H12 H 0.1375 0.9567 0.8877
C16 C 0.3393(3) 0.8402(3) 0.88742(10)
C17 C 0.4834(3) 0.8447(3) 0.87023(11)
H13 H 0.5512 0.7634 0.8746
C18 C 0.5286(3) 0.9702(3) 0.84636(11)
H14 H 0.6272 0.9725 0.8345
C19 C 0.2936(4) 0.7155(3) 0.91720(11)
H15 H 0.1950 0.7239 0.9288
C20 C 0.3702(4) 0.5964(3) 0.92954(11)
H16 H 0.4687 0.5873 0.9180
C21 C 0.3225(3) 0.4725(3) 0.95959(10)
C22 C 0.2273(3) 0.4916(3) 0.99516(12)
H17 H 0.1908 0.5861 1.0021
C23 C 0.1839(3) 0.3702(4) 1.02138(12)
H18 H 0.1189 0.3830 1.0465
C24 C 0.2349(3) 0.2320(3) 1.01095(11)
C25 C 0.3328(4) 0.2112(3) 0.97748(11)
H19 H 0.3709 0.1169 0.9711
C26 C 0.3760(4) 0.3325(3) 0.95259(11)
H20 H 0.4469 0.3190 0.9292
loop_
_geom_bond_atom_site_label_1
_geom_bond_atom_site_label_2
_geom_bond_site_symmetry_1
_geom_bond_site_symmetry_2
O1 N2 1_555 1_555
O2 N2 1_555 1_555
N1 C1 1_555 1_555
N2 C24 1_555 1_555
C1 C2 1_555 1_555
C2 H1 1_555 1_555
C3 C2 1_555 1_555
H2 C3 1_555 1_555
C4 C3 1_555 1_555
H3 C4 1_555 1_555
C5 C4 1_555 1_555
H4 C5 1_555 1_555
C6 C1 1_555 1_555
H5 C6 1_555 1_555
C7 N1 1_555 1_555
C8 C7 1_555 1_555
H6 C8 1_555 1_555
C9 C8 1_555 1_555
H7 C9 1_555 1_555
C10 C9 1_555 1_555
H8 C10 1_555 1_555
C11 C10 1_555 1_555
H9 C11 1_555 1_555
C12 C7 1_555 1_555
H10 C12 1_555 1_555
C13 N1 1_555 1_555
C14 C13 1_555 1_555
H11 C14 1_555 1_555
C15 C14 1_555 1_555
H12 C15 1_555 1_555
C16 C15 1_555 1_555
C17 C16 1_555 1_555
H13 C17 1_555 1_555
C18 C13 1_555 1_555
H14 C18 1_555 1_555
C19 C16 1_555 1_555
H15 C19 1_555 1_555
C20 C19 1_555 1_555
H16 C20 1_555 1_555
C21 C20 1_555 1_555
C22 C21 1_555 1_555
H17 C22 1_555 1_555
C23 C22 1_555 1_555
H18 C23 1_555 1_555
C24 C23 1_555 1_555
C25 C24 1_555 1_555
H19 C25 1_555 1_555
C26 C21 1_555 1_555
H20 C26 1_555 1_555
C5 C6 1_555 1_555
C11 C12 1_555 1_555
C17 C18 1_555 1_555
C25 C26 1_555 1_555

#END
