
#######################################################################
#
#                 Cambridge Crystallographic Data Centre
#                                CCDC 
#
#######################################################################
#
# If this CIF has been generated from an entry in the Cambridge 
# Structural Database, then it will include bibliographic, chemical, 
# crystal, experimental, refinement or atomic coordinate data resulting 
# from the CCDC's data processing and validation procedures.
#
#######################################################################

data_PAYHUV
_chemical_formula_moiety         'C20 H17 F2 N3 O3'
_chemical_name_systematic        
"ethyl 5'-(difluoromethyl)-2-oxo-1-phenyl-1,2,4',5'-tetrahydrospiro[indole-3,3'-pyrazole]-4'-carboxylate"
_symmetry_cell_setting           monoclinic
_symmetry_space_group_name_H-M   'P 21/n'
_symmetry_Int_Tables_number      14
_space_group_name_Hall           '-P 2yn'
loop_
_symmetry_equiv_pos_site_id
_symmetry_equiv_pos_as_xyz
1 x,y,z
2 1/2-x,1/2+y,1/2-z
3 -x,-y,-z
4 1/2+x,1/2-y,1/2+z
_cell_length_a                   10.7505(5)
_cell_length_b                   12.0115(5)
_cell_length_c                   14.5754(7)
_cell_angle_alpha                90
_cell_angle_beta                 106.876(5)
_cell_angle_gamma                90
_cell_volume                     1801.06
_exptl_crystal_colour            colorless
_exptl_crystal_description       block
_cell_formula_units_Z            4
loop_
_atom_site_label
_atom_site_type_symbol
_atom_site_fract_x
_atom_site_fract_y
_atom_site_fract_z
F1 F 0.71718(9) 0.22680(8) 0.64649(6)
F2 F 0.81138(8) 0.21408(8) 0.53229(7)
O1 O 0.31296(10) 0.19813(8) 0.59854(7)
O2 O 0.32756(10) 0.46815(8) 0.45675(7)
O3 O 0.45027(10) 0.06370(9) 0.58145(8)
N1 N 0.15530(11) 0.35593(9) 0.37480(8)
N2 N 0.56373(12) 0.26341(10) 0.39173(8)
N3 N 0.45060(12) 0.29623(10) 0.35451(9)
C1 C 0.41107(13) 0.15790(12) 0.56934(9)
C2 C 0.14103(14) 0.24318(11) 0.34411(10)
C3 C 0.58271(13) 0.21434(11) 0.48865(10)
H1 H 0.587954 0.133071 0.485074
C4 C 0.46150(13) 0.24711(11) 0.51659(10)
H2 H 0.479498 0.314743 0.555838
C5 C 0.04959(13) 0.43111(12) 0.36769(10)
C6 C 0.28352(13) 0.38032(12) 0.42031(10)
C7 C 0.26198(13) 0.19059(12) 0.37024(9)
C8 C 0.05209(14) 0.53613(12) 0.32891(10)
H3 H 0.121405 0.557554 0.306787
C9 C 0.02948(14) 0.18850(12) 0.29301(10)
H4 H -0.050744 0.224183 0.275660
C10 C 0.36407(13) 0.27442(11) 0.41847(10)
C11 C 0.27297(14) 0.08037(12) 0.34696(10)
H5 H 0.353150 0.044631 0.365144
C12 C 0.16098(15) 0.02369(12) 0.29548(10)
H6 H 0.166365 -0.050666 0.279264
C13 C -0.05347(14) 0.39748(12) 0.40051(10)
H7 H -0.053616 0.327158 0.427177
C14 C -0.05020(15) 0.60908(12) 0.32344(11)
H8 H -0.048840 0.680199 0.298525
C15 C 0.70788(14) 0.25961(12) 0.55502(11)
H9 H 0.709894 0.340993 0.550909
C16 C -0.15642(14) 0.47027(13) 0.39299(10)
H10 H -0.226919 0.448105 0.413408
C17 C 0.24565(15) 0.11893(13) 0.64368(11)
H11 H 0.213633 0.157073 0.690952
H12 H 0.305784 0.061504 0.676252
C18 C -0.15424(15) 0.57591(12) 0.35509(11)
H13 H -0.222842 0.624693 0.350893
C19 C 0.04171(15) 0.07768(12) 0.26839(11)
H14 H -0.031608 0.039146 0.233080
C20 C 0.13427(18) 0.06688(18) 0.56943(13)
H15 H 0.166557 0.026937 0.524043
H16 H 0.075459 0.123970 0.536782
H17 H 0.089398 0.016389 0.599863
loop_
_geom_bond_atom_site_label_1
_geom_bond_atom_site_label_2
_geom_bond_site_symmetry_1
_geom_bond_site_symmetry_2
F1 C15 1_555 1_555
F2 C15 1_555 1_555
O1 C1 1_555 1_555
O2 C6 1_555 1_555
O3 C1 1_555 1_555
N1 C2 1_555 1_555
N2 N3 1_555 1_555
N3 C10 1_555 1_555
C1 C4 1_555 1_555
C2 C7 1_555 1_555
C3 N2 1_555 1_555
H1 C3 1_555 1_555
C4 C3 1_555 1_555
H2 C4 1_555 1_555
C5 N1 1_555 1_555
C6 N1 1_555 1_555
C7 C10 1_555 1_555
C8 C5 1_555 1_555
H3 C8 1_555 1_555
C9 C2 1_555 1_555
H4 C9 1_555 1_555
C10 C4 1_555 1_555
C11 C7 1_555 1_555
H5 C11 1_555 1_555
C12 C11 1_555 1_555
H6 C12 1_555 1_555
C13 C5 1_555 1_555
H7 C13 1_555 1_555
C14 C8 1_555 1_555
H8 C14 1_555 1_555
C15 C3 1_555 1_555
H9 C15 1_555 1_555
C16 C13 1_555 1_555
H10 C16 1_555 1_555
C17 O1 1_555 1_555
H11 C17 1_555 1_555
H12 C17 1_555 1_555
C18 C14 1_555 1_555
H13 C18 1_555 1_555
C19 C9 1_555 1_555
H14 C19 1_555 1_555
C20 C17 1_555 1_555
H15 C20 1_555 1_555
H16 C20 1_555 1_555
H17 C20 1_555 1_555
C6 C10 1_555 1_555
C12 C19 1_555 1_555
C16 C18 1_555 1_555

#END
