
#######################################################################
#
#                 Cambridge Crystallographic Data Centre
#                                CCDC 
#
#######################################################################
#
# If this CIF has been generated from an entry in the Cambridge 
# Structural Database, then it will include bibliographic, chemical, 
# crystal, experimental, refinement or atomic coordinate data resulting 
# from the CCDC's data processing and validation procedures.
#
#######################################################################

data_PAYHOP
_chemical_formula_moiety         'C16 H17 F2 N3 O4'
_chemical_name_systematic        
"ethyl 5'-(difluoromethyl)-7-methoxy-1-methyl-2-oxo-1,2,4',5'-tetrahydrospiro[indole-3,3'-pyrazole]-4'-carboxylate"
_symmetry_cell_setting           triclinic
_symmetry_space_group_name_H-M   'P -1'
_symmetry_Int_Tables_number      2
_space_group_name_Hall           '-P 1'
loop_
_symmetry_equiv_pos_site_id
_symmetry_equiv_pos_as_xyz
1 x,y,z
2 -x,-y,-z
_cell_length_a                   8.1522(5)
_cell_length_b                   9.1400(6)
_cell_length_c                   12.4646(8)
_cell_angle_alpha                89.726(5)
_cell_angle_beta                 76.757(5)
_cell_angle_gamma                63.771(7)
_cell_volume                     806.003
_exptl_crystal_colour            colorless
_exptl_crystal_description       block
_cell_formula_units_Z            2
loop_
_atom_site_label
_atom_site_type_symbol
_atom_site_fract_x
_atom_site_fract_y
_atom_site_fract_z
F1 F 0.39584(14) 0.75694(14) 1.10445(8)
F2 F 0.24733(14) 0.66235(14) 1.02277(8)
O1 O 0.86351(14) 0.59540(14) 0.83082(9)
O2 O 0.54966(15) 0.47345(14) 0.68545(9)
O3 O 0.88899(16) 0.72863(14) 0.39618(9)
O4 O 0.70106(17) 0.84922(16) 0.91964(11)
N1 N 0.68663(17) 0.60683(16) 0.56733(10)
N2 N 0.29076(17) 0.83262(16) 0.76458(10)
N3 N 0.21130(18) 0.88702(16) 0.86344(10)
C1 C 0.7061(2) 0.7307(2) 0.87550(12)
C2 C 0.5348(2) 0.71523(19) 0.86087(12)
H1 H 0.547657 0.606030 0.876512
C3 C 0.5035(2) 0.74686(18) 0.74382(11)
C4 C 0.5810(2) 0.84951(19) 0.67584(12)
C5 C 0.6876(2) 0.76143(18) 0.57310(12)
C6 C 0.7679(2) 0.4844(2) 0.47099(12)
H2 H 0.705277 0.529502 0.413544
H3 H 0.751574 0.389368 0.491562
H4 H 0.900178 0.453648 0.444442
C7 C 0.7782(2) 0.8260(2) 0.49250(12)
C8 C 0.5809(2) 0.59019(19) 0.66433(12)
C9 C 1.0404(2) 0.5951(2) 0.83799(14)
H5 H 1.021073 0.657561 0.906404
H6 H 1.084509 0.644700 0.776221
C10 C 0.5544(2) 1.0072(2) 0.70112(13)
H7 H 0.482716 1.065617 0.770140
C11 C 0.3486(2) 0.8468(2) 0.93310(12)
H8 H 0.364040 0.944514 0.948085
C12 C 0.7492(2) 0.9860(2) 0.51778(14)
H9 H 0.805400 1.033702 0.465210
C13 C 0.6383(2) 1.0751(2) 0.61986(14)
H10 H 0.619986 1.181757 0.634002
C14 C 0.2694(2) 0.7995(2) 1.04142(13)
H11 H 0.148541 0.890393 1.080710
C15 C 0.9990(2) 0.7873(2) 0.31888(14)
H12 H 1.076211 0.704878 0.257087
H13 H 1.078248 0.811306 0.354564
H14 H 0.916240 0.885201 0.293099
C16 C 1.1830(2) 0.4202(2) 0.83498(14)
H15 H 1.200817 0.359519 0.767105
H16 H 1.138576 0.372685 0.896806
H17 H 1.301007 0.416332 0.839114
loop_
_geom_bond_atom_site_label_1
_geom_bond_atom_site_label_2
_geom_bond_site_symmetry_1
_geom_bond_site_symmetry_2
F1 C14 1_555 1_555
F2 C14 1_555 1_555
O1 C1 1_555 1_555
O2 C8 1_555 1_555
O3 C7 1_555 1_555
O4 C1 1_555 1_555
N1 C5 1_555 1_555
N2 N3 1_555 1_555
N3 C11 1_555 1_555
C1 C2 1_555 1_555
C2 H1 1_555 1_555
C3 N2 1_555 1_555
C4 C3 1_555 1_555
C5 C4 1_555 1_555
C6 N1 1_555 1_555
H2 C6 1_555 1_555
H3 C6 1_555 1_555
H4 C6 1_555 1_555
C7 C5 1_555 1_555
C8 N1 1_555 1_555
C9 O1 1_555 1_555
H5 C9 1_555 1_555
H6 C9 1_555 1_555
C10 C4 1_555 1_555
H7 C10 1_555 1_555
C11 C2 1_555 1_555
H8 C11 1_555 1_555
C12 C7 1_555 1_555
H9 C12 1_555 1_555
C13 C10 1_555 1_555
H10 C13 1_555 1_555
C14 C11 1_555 1_555
H11 C14 1_555 1_555
C15 O3 1_555 1_555
H12 C15 1_555 1_555
H13 C15 1_555 1_555
H14 C15 1_555 1_555
C16 C9 1_555 1_555
H15 C16 1_555 1_555
H16 C16 1_555 1_555
H17 C16 1_555 1_555
C2 C3 1_555 1_555
C3 C8 1_555 1_555
C12 C13 1_555 1_555

#END
