
#######################################################################
#
#                 Cambridge Crystallographic Data Centre
#                                CCDC 
#
#######################################################################
#
# If this CIF has been generated from an entry in the Cambridge 
# Structural Database, then it will include bibliographic, chemical, 
# crystal, experimental, refinement or atomic coordinate data resulting 
# from the CCDC's data processing and validation procedures.
#
#######################################################################

data_PAYJOR
_chemical_compound_source        'eggs of the toad Bufo bufo gargarizans'
_chemical_formula_moiety         'C27 H36 O7,H2 O1'
_chemical_name_systematic        
'5-hydroxy-3-[(2-hydroxypropanoyl)oxy]-14,15-epoxybufa-20,22-dienolide monohydrate'
_symmetry_cell_setting           monoclinic
_symmetry_space_group_name_H-M   'P 21'
_symmetry_Int_Tables_number      4
_space_group_name_Hall           'P 2yb'
loop_
_symmetry_equiv_pos_site_id
_symmetry_equiv_pos_as_xyz
1 x,y,z
2 -x,1/2+y,-z
_cell_length_a                   9.4990(2)
_cell_length_b                   10.4196(3)
_cell_length_c                   12.8765(5)
_cell_angle_alpha                90
_cell_angle_beta                 96.497(3)
_cell_angle_gamma                90
_cell_volume                     1266.28
_exptl_crystal_colour            colorless
_exptl_crystal_description       block
_cell_formula_units_Z            2
loop_
_atom_site_label
_atom_site_type_symbol
_atom_site_fract_x
_atom_site_fract_y
_atom_site_fract_z
O1 O 0.1203(3) 0.5059(3) -0.0037(2)
O2 O 0.3035(3) 0.2905(3) 0.0561(2)
H1 H 0.228176 0.323354 0.032590
O3 O 0.9020(3) 0.4930(3) 0.3062(2)
O4 O 1.1143(4) 0.6768(4) 0.6991(3)
O5 O 1.3117(5) 0.5697(5) 0.7498(4)
O6 O -0.0226(4) 0.6784(3) -0.0178(4)
O7 O -0.2486(3) 0.5256(4) -0.0896(4)
H2 H -0.244307 0.602427 -0.075636
C1 C 0.2294(4) 0.4748(6) 0.2202(4)
H3 H 0.156433 0.416544 0.189797
H4 H 0.213702 0.489203 0.292369
C2 C 0.2138(4) 0.6006(5) 0.1626(4)
H5 H 0.281718 0.661783 0.195520
H6 H 0.119468 0.634635 0.166513
C3 C 0.2378(4) 0.5838(4) 0.0486(4)
H7 H 0.239619 0.667860 0.014701
C4 C 0.3739(4) 0.5115(4) 0.0364(3)
H8 H 0.453146 0.569031 0.054838
H9 H 0.374141 0.489096 -0.036679
C5 C 0.3985(4) 0.3888(4) 0.1018(3)
C6 C 0.5462(4) 0.3348(4) 0.0933(3)
H10 H 0.551456 0.248412 0.121525
H11 H 0.560681 0.329489 0.020047
C7 C 0.6648(4) 0.4151(5) 0.1506(3)
H12 H 0.669713 0.496871 0.115221
H13 H 0.754364 0.371300 0.147769
C8 C 0.6434(4) 0.4392(4) 0.2648(3)
H14 H 0.646195 0.356046 0.300540
C9 C 0.4956(4) 0.4988(4) 0.2711(3)
H15 H 0.492144 0.578538 0.230547
C10 C 0.3747(4) 0.4100(4) 0.2181(3)
C11 C 0.4757(4) 0.5360(6) 0.3836(3)
H16 H 0.384781 0.578114 0.384474
H17 H 0.475276 0.458943 0.425922
C12 C 0.5929(4) 0.6253(6) 0.4309(4)
H18 H 0.576214 0.646785 0.501732
H19 H 0.589557 0.704199 0.390734
C13 C 0.7424(4) 0.5649(4) 0.4327(3)
C14 C 0.7564(4) 0.5234(4) 0.3213(3)
C15 C 0.8443(5) 0.6161(5) 0.2732(4)
H20 H 0.824362 0.634948 0.198389
C16 C 0.8873(6) 0.7221(5) 0.3479(4)
H21 H 0.834804 0.799688 0.327753
H22 H 0.987730 0.739938 0.349077
C17 C 0.8538(5) 0.6761(4) 0.4564(3)
H23 H 0.804842 0.746731 0.487396
C18 C 0.7614(5) 0.4554(5) 0.5102(4)
H24 H 0.683330 0.396855 0.497250
H25 H 0.764459 0.488728 0.579912
H26 H 0.848265 0.411244 0.502540
C19 C 0.3710(5) 0.2813(6) 0.2753(4)
H27 H 0.295048 0.229698 0.242102
H28 H 0.356228 0.296148 0.346808
H29 H 0.459334 0.237309 0.272685
C20 C 0.9843(4) 0.6458(5) 0.5307(3)
C21 C 1.0016(5) 0.6996(5) 0.6263(4)
H30 H 0.932140 0.756035 0.643722
C22 C 1.0958(5) 0.5638(6) 0.5066(4)
H31 H 1.090459 0.526167 0.440764
C23 C 1.2083(5) 0.5394(5) 0.5764(4)
H32 H 1.280203 0.486595 0.557602
C24 C 1.2198(5) 0.5931(5) 0.6788(4)
C25 C -0.0032(5) 0.5660(4) -0.0303(4)
C26 C -0.1123(4) 0.4745(4) -0.0808(4)
H33 H -0.112056 0.399078 -0.035279
C27 C -0.0714(7) 0.4296(8) -0.1838(5)
H34 H -0.137197 0.365346 -0.212254
H35 H 0.022273 0.393852 -0.173882
H36 H -0.073142 0.500900 -0.231120
O8 O 0.5446(7) 0.3861(8) 0.7676(8)
H37 H 0.610662 0.440228 0.782844
H38 H 0.467190 0.425713 0.750342
loop_
_geom_bond_atom_site_label_1
_geom_bond_atom_site_label_2
_geom_bond_site_symmetry_1
_geom_bond_site_symmetry_2
O1 C3 1_555 1_555
O2 H1 1_555 1_555
O3 C14 1_555 1_555
O4 C21 1_555 1_555
O5 C24 1_555 1_555
O6 C25 1_555 1_555
O7 H2 1_555 1_555
C1 H3 1_555 1_555
H4 C1 1_555 1_555
C2 C1 1_555 1_555
H5 C2 1_555 1_555
H6 C2 1_555 1_555
C3 C2 1_555 1_555
H7 C3 1_555 1_555
C4 C3 1_555 1_555
H8 C4 1_555 1_555
H9 C4 1_555 1_555
C5 O2 1_555 1_555
C6 C5 1_555 1_555
H10 C6 1_555 1_555
H11 C6 1_555 1_555
C7 C6 1_555 1_555
H12 C7 1_555 1_555
H13 C7 1_555 1_555
C8 C7 1_555 1_555
H14 C8 1_555 1_555
C9 C8 1_555 1_555
H15 C9 1_555 1_555
C10 C1 1_555 1_555
C11 C9 1_555 1_555
H16 C11 1_555 1_555
H17 C11 1_555 1_555
C12 C11 1_555 1_555
H18 C12 1_555 1_555
H19 C12 1_555 1_555
C13 C12 1_555 1_555
C14 C8 1_555 1_555
C15 O3 1_555 1_555
H20 C15 1_555 1_555
C16 C15 1_555 1_555
H21 C16 1_555 1_555
H22 C16 1_555 1_555
C17 C13 1_555 1_555
H23 C17 1_555 1_555
C18 C13 1_555 1_555
H24 C18 1_555 1_555
H25 C18 1_555 1_555
H26 C18 1_555 1_555
C19 C10 1_555 1_555
H27 C19 1_555 1_555
H28 C19 1_555 1_555
H29 C19 1_555 1_555
C20 C17 1_555 1_555
C21 C20 1_555 1_555
H30 C21 1_555 1_555
C22 C20 1_555 1_555
H31 C22 1_555 1_555
C23 C22 1_555 1_555
H32 C23 1_555 1_555
C24 O4 1_555 1_555
C25 O1 1_555 1_555
C26 O7 1_555 1_555
H33 C26 1_555 1_555
C27 C26 1_555 1_555
H34 C27 1_555 1_555
H35 C27 1_555 1_555
H36 C27 1_555 1_555
O8 H37 1_555 1_555
H38 O8 1_555 1_555
C4 C5 1_555 1_555
C5 C10 1_555 1_555
C9 C10 1_555 1_555
C13 C14 1_555 1_555
C14 C15 1_555 1_555
C16 C17 1_555 1_555
C23 C24 1_555 1_555
C25 C26 1_555 1_555

#END
