
#######################################################################
#
#                 Cambridge Crystallographic Data Centre
#                                CCDC 
#
#######################################################################
#
# If this CIF has been generated from an entry in the Cambridge 
# Structural Database, then it will include bibliographic, chemical, 
# crystal, experimental, refinement or atomic coordinate data resulting 
# from the CCDC's data processing and validation procedures.
#
#######################################################################

data_PAYLIN
_chemical_formula_moiety         'C15 H20 F1 N1 O3 S1'
_chemical_name_systematic        
'isopropyl (S,Z)-((t-butylsulfinyl)imino)(4-fluorophenyl)acetate'
_symmetry_cell_setting           orthorhombic
_symmetry_space_group_name_H-M   'P 21 21 21'
_symmetry_Int_Tables_number      19
_space_group_name_Hall           'P 2ac 2ab'
loop_
_symmetry_equiv_pos_site_id
_symmetry_equiv_pos_as_xyz
1 x,y,z
2 1/2-x,-y,1/2+z
3 -x,1/2+y,1/2-z
4 1/2+x,1/2-y,-z
_cell_length_a                   8.8617(7)
_cell_length_b                   13.1073(12)
_cell_length_c                   28.600(2)
_cell_angle_alpha                90
_cell_angle_beta                 90
_cell_angle_gamma                90
_cell_volume                     3321.97
_exptl_crystal_colour            'light yellow'
_exptl_crystal_description       block
_chemical_melting_point          '338.4-339.8 K'
_cell_formula_units_Z            8
_exptl_crystal_recrystallization_method 'petroleum ether'
loop_
_atom_site_label
_atom_site_type_symbol
_atom_site_fract_x
_atom_site_fract_y
_atom_site_fract_z
S1 S 0.80979(10) -0.04859(7) 0.57602(3)
F1 F 0.7203(3) 0.51565(15) 0.47579(7)
O1 O 0.7460(3) 0.15214(19) 0.64871(7)
O2 O 0.5098(3) 0.13022(19) 0.62062(8)
O3 O 0.7035(3) -0.06322(19) 0.61566(8)
N1 N 0.7854(3) 0.0635(2) 0.54847(9)
C1 C 0.6438(4) 0.1372(3) 0.61519(11)
C2 C 0.6433(4) 0.3227(3) 0.56238(11)
H1 H 0.593215 0.315666 0.590765
C3 C 0.7167(4) 0.2391(2) 0.54303(10)
C4 C 0.7418(4) -0.1299(3) 0.52759(12)
C5 C 0.7188(4) 0.4241(3) 0.49807(12)
C6 C 0.6438(4) 0.4168(3) 0.53992(11)
H2 H 0.594815 0.472856 0.552819
C7 C 0.7923(4) 0.2510(3) 0.50065(12)
H3 H 0.842458 0.195696 0.487523
C8 C 0.7207(4) 0.1404(3) 0.56760(10)
C9 C 0.7937(5) 0.3442(3) 0.47783(12)
H4 H 0.844189 0.352284 0.449562
C10 C 0.6928(5) 0.1489(3) 0.69745(11)
H5 H 0.603436 0.105262 0.699848
C11 C 0.8516(5) -0.1173(3) 0.48754(13)
H6 H 0.840866 -0.050336 0.474397
H7 H 0.830728 -0.167560 0.463980
H8 H 0.952768 -0.126108 0.498819
C12 C 0.7494(5) -0.2375(3) 0.54768(14)
H9 H 0.848202 -0.249473 0.560331
H10 H 0.729400 -0.286163 0.523361
H11 H 0.675487 -0.244685 0.571983
C13 C 0.5814(5) -0.1005(3) 0.51468(16)
H12 H 0.520198 -0.098957 0.542370
H13 H 0.541106 -0.149660 0.493150
H14 H 0.581398 -0.034264 0.500347
C14 C 0.6558(6) 0.2536(4) 0.71299(14)
H15 H 0.744403 0.295591 0.711103
H16 H 0.620562 0.251820 0.744714
H17 H 0.578492 0.281400 0.693228
C15 C 0.8216(7) 0.1030(5) 0.72490(15)
H18 H 0.850620 0.039304 0.710977
H19 H 0.790165 0.091561 0.756585
H20 H 0.906000 0.148951 0.724577
S2 S 0.28413(11) 0.42965(7) 0.61923(3)
F2 F 0.1162(3) 1.02131(17) 0.64789(9)
O4 O 0.5756(3) 0.59427(19) 0.61631(8)
O5 O 0.5210(3) 0.6076(2) 0.69339(8)
O6 O 0.4107(3) 0.4047(2) 0.65018(10)
C16 C 0.4881(4) 0.6029(3) 0.64803(12)
N2 N 0.2266(3) 0.5514(2) 0.62706(9)
C17 C 0.2697(4) 0.7272(3) 0.64359(11)
C18 C 0.3215(4) 0.6207(3) 0.63990(10)
C19 C 0.1155(4) 0.7475(3) 0.65005(12)
H21 H 0.047676 0.693689 0.652784
C20 C 0.0641(5) 0.8463(3) 0.65237(13)
H22 H -0.037419 0.860362 0.657590
C21 C 0.1137(4) 0.3704(3) 0.64396(13)
C22 C 0.3684(4) 0.8081(3) 0.63950(12)
H23 H 0.471057 0.795226 0.636122
C23 C 0.1676(5) 0.9243(3) 0.64672(13)
C24 C 0.3178(5) 0.9078(3) 0.64031(13)
H24 H 0.384466 0.962018 0.636591
C25 C 0.0935(5) 0.4044(3) 0.69444(14)
H25 H 0.188475 0.400339 0.710465
H26 H 0.021535 0.360806 0.709637
H27 H 0.057637 0.473498 0.695074
C26 C 0.1459(5) 0.2562(3) 0.64106(16)
H28 H 0.168967 0.238072 0.609328
H29 H 0.058760 0.218797 0.651286
H30 H 0.230233 0.239749 0.660744
C27 C 0.6821(5) 0.5976(4) 0.70604(14)
H31 H 0.735651 0.559655 0.681600
C28 C -0.0188(5) 0.3987(4) 0.61330(17)
H32 H -0.040361 0.470082 0.616787
H33 H -0.105576 0.359580 0.622403
H34 H 0.005268 0.384443 0.581231
C29 C 0.6876(6) 0.5399(4) 0.75050(17)
H35 H 0.643383 0.580083 0.774991
H36 H 0.790690 0.524894 0.758213
H37 H 0.632352 0.477349 0.747133
C30 C 0.7441(6) 0.7024(5) 0.7094(2)
H38 H 0.729506 0.737184 0.680235
H39 H 0.849935 0.699087 0.716391
H40 H 0.692881 0.738811 0.733856
loop_
_geom_bond_atom_site_label_1
_geom_bond_atom_site_label_2
_geom_bond_site_symmetry_1
_geom_bond_site_symmetry_2
S1 O3 1_555 1_555
F1 C5 1_555 1_555
O1 C1 1_555 1_555
O2 C1 1_555 1_555
N1 S1 1_555 1_555
C1 C8 1_555 1_555
C2 H1 1_555 1_555
C3 C2 1_555 1_555
C4 S1 1_555 1_555
C5 C6 1_555 1_555
C6 C2 1_555 1_555
H2 C6 1_555 1_555
C7 C3 1_555 1_555
H3 C7 1_555 1_555
C8 N1 1_555 1_555
C9 C5 1_555 1_555
H4 C9 1_555 1_555
C10 O1 1_555 1_555
H5 C10 1_555 1_555
C11 C4 1_555 1_555
H6 C11 1_555 1_555
H7 C11 1_555 1_555
H8 C11 1_555 1_555
C12 C4 1_555 1_555
H9 C12 1_555 1_555
H10 C12 1_555 1_555
H11 C12 1_555 1_555
C13 C4 1_555 1_555
H12 C13 1_555 1_555
H13 C13 1_555 1_555
H14 C13 1_555 1_555
C14 C10 1_555 1_555
H15 C14 1_555 1_555
H16 C14 1_555 1_555
H17 C14 1_555 1_555
C15 C10 1_555 1_555
H18 C15 1_555 1_555
H19 C15 1_555 1_555
H20 C15 1_555 1_555
S2 O6 1_555 1_555
F2 C23 1_555 1_555
O4 C16 1_555 1_555
O5 C16 1_555 1_555
C16 C18 1_555 1_555
N2 S2 1_555 1_555
C17 C18 1_555 1_555
C18 N2 1_555 1_555
C19 C17 1_555 1_555
H21 C19 1_555 1_555
C20 C19 1_555 1_555
H22 C20 1_555 1_555
C21 S2 1_555 1_555
C22 C17 1_555 1_555
H23 C22 1_555 1_555
C23 C20 1_555 1_555
C24 C22 1_555 1_555
H24 C24 1_555 1_555
C25 C21 1_555 1_555
H25 C25 1_555 1_555
H26 C25 1_555 1_555
H27 C25 1_555 1_555
C26 C21 1_555 1_555
H28 C26 1_555 1_555
H29 C26 1_555 1_555
H30 C26 1_555 1_555
C27 O5 1_555 1_555
H31 C27 1_555 1_555
C28 C21 1_555 1_555
H32 C28 1_555 1_555
H33 C28 1_555 1_555
H34 C28 1_555 1_555
C29 C27 1_555 1_555
H35 C29 1_555 1_555
H36 C29 1_555 1_555
H37 C29 1_555 1_555
C30 C27 1_555 1_555
H38 C30 1_555 1_555
H39 C30 1_555 1_555
H40 C30 1_555 1_555
C3 C8 1_555 1_555
C7 C9 1_555 1_555
C23 C24 1_555 1_555

#END
