
#######################################################################
#
#                 Cambridge Crystallographic Data Centre
#                                CCDC 
#
#######################################################################
#
# If this CIF has been generated from an entry in the Cambridge 
# Structural Database, then it will include bibliographic, chemical, 
# crystal, experimental, refinement or atomic coordinate data resulting 
# from the CCDC's data processing and validation procedures.
#
#######################################################################

data_PAYWIW
_chemical_formula_moiety         'C32 H16 Mg1 N9 O3,0.5(C4 H8 O1)'
_chemical_name_systematic        
'(Nitrato-O)-(phthalocyanine)-magnesium(ii) tetrahydrofuran solvate'
_symmetry_cell_setting           orthorhombic
_symmetry_space_group_name_H-M   'P c a 21'
_symmetry_Int_Tables_number      29
_space_group_name_Hall           'P 2c -2ac'
loop_
_symmetry_equiv_pos_site_id
_symmetry_equiv_pos_as_xyz
1 x,y,z
2 -x,-y,1/2+z
3 1/2+x,-y,z
4 1/2-x,y,1/2+z
_cell_length_a                   14.9214(6)
_cell_length_b                   17.0155(7)
_cell_length_c                   22.5556(8)
_cell_angle_alpha                90
_cell_angle_beta                 90
_cell_angle_gamma                90
_cell_volume                     5726.76
_exptl_crystal_colour            black
_exptl_crystal_description       prism
_cell_formula_units_Z            8
_chemical_properties_physical    air-sensitive
loop_
_atom_site_label
_atom_site_type_symbol
_atom_site_fract_x
_atom_site_fract_y
_atom_site_fract_z
Mg1 Mg 0.05938(15) 0.28269(13) 0.28500(10)
C1 C -0.0564(5) 0.1643(4) 0.2178(3)
N1 N -0.0384(4) 0.2421(3) 0.2286(2)
C2 C -0.0785(4) 0.2856(4) 0.1848(3)
N2 N -0.0789(4) 0.3634(3) 0.1796(2)
C3 C -0.0428(4) 0.4114(4) 0.2199(3)
N3 N 0.0063(4) 0.3912(3) 0.2690(2)
C4 C 0.0283(4) 0.4596(4) 0.2982(3)
N4 N 0.0719(4) 0.4667(3) 0.3490(2)
C5 C 0.0990(4) 0.4054(4) 0.3814(3)
N5 N 0.0880(4) 0.3261(3) 0.3679(2)
C6 C 0.1201(5) 0.2838(4) 0.4146(3)
N6 N 0.1203(4) 0.2053(3) 0.4210(3)
C7 C 0.0826(5) 0.1572(4) 0.3809(3)
N7 N 0.0427(4) 0.1764(4) 0.3281(2)
C8 C 0.0137(5) 0.1100(4) 0.3027(3)
N8 N -0.0320(4) 0.1030(4) 0.2505(3)
C9 C -0.1092(5) 0.1564(4) 0.1637(3)
C10 C -0.1231(5) 0.2330(4) 0.1417(3)
C11 C -0.1708(5) 0.2466(4) 0.0913(3)
H1 H -0.1783 0.2973 0.0766
C12 C -0.2077(6) 0.1824(6) 0.0625(4)
H2 H -0.2418 0.1899 0.0285
C13 C -0.1939(6) 0.1064(5) 0.0843(4)
H3 H -0.2190 0.0643 0.0639
C14 C -0.1449(5) 0.0913(5) 0.1347(3)
H4 H -0.1361 0.0404 0.1485
C15 C -0.0532(4) 0.4960(4) 0.2159(3)
C16 C -0.0086(5) 0.5269(4) 0.2662(3)
C17 C -0.0066(5) 0.6073(4) 0.2781(3)
H5 H 0.0233 0.6278 0.3108
C18 C -0.0519(5) 0.6550(5) 0.2381(3)
H6 H -0.0519 0.7090 0.2441
C19 C -0.0973(5) 0.6248(5) 0.1893(3)
H7 H -0.1285 0.6587 0.1644
C20 C -0.0969(5) 0.5447(4) 0.1773(3)
H8 H -0.1255 0.5248 0.1439
C21 C 0.1442(5) 0.4135(4) 0.4385(3)
C22 C 0.1574(5) 0.3366(5) 0.4596(3)
C23 C 0.1982(5) 0.3227(5) 0.5141(3)
H9 H 0.2066 0.2721 0.5286
C24 C 0.2254(5) 0.3881(5) 0.5454(3)
H10 H 0.2530 0.3810 0.5820
C25 C 0.2134(5) 0.4645(4) 0.5245(3)
H11 H 0.2336 0.5067 0.5469
C26 C 0.1713(5) 0.4782(5) 0.4703(3)
H12 H 0.1620 0.5289 0.4562
C27 C 0.0800(5) 0.0721(4) 0.3893(3)
C28 C 0.0364(5) 0.0417(4) 0.3394(3)
C29 C 0.0244(5) -0.0385(5) 0.3319(3)
H13 H -0.0031 -0.0584 0.2981
C30 C 0.0546(5) -0.0882(5) 0.3765(4)
H14 H 0.0468 -0.1422 0.3731
C31 C 0.0967(6) -0.0565(5) 0.4265(4)
H15 H 0.1159 -0.0905 0.4562
C32 C 0.1112(6) 0.0237(5) 0.4336(4)
H16 H 0.1406 0.0436 0.4667
N9 N 0.1951(4) 0.2709(4) 0.2009(4)
O1 O 0.1832(4) 0.2540(3) 0.2520(3)
O2 O 0.1439(5) 0.3162(4) 0.1750(3)
O3 O 0.2593(5) 0.2396(4) 0.1729(3)
Mg2 Mg -0.19908(15) 0.28966(13) 0.38232(10)
C33 C -0.2288(4) 0.4143(4) 0.2895(3)
N10 N -0.2210(4) 0.3366(3) 0.3000(2)
C34 C -0.2612(5) 0.2983(4) 0.2547(3)
N11 N -0.2705(4) 0.2192(4) 0.2490(3)
C35 C -0.2392(5) 0.1667(4) 0.2878(3)
N12 N -0.1968(4) 0.1831(3) 0.3401(3)
C36 C -0.1749(5) 0.1120(4) 0.3655(3)
N13 N -0.1335(4) 0.1020(3) 0.4179(3)
C37 C -0.1016(4) 0.1611(4) 0.4504(3)
N14 N -0.1057(4) 0.2391(3) 0.4385(2)
C38 C -0.0628(5) 0.2785(4) 0.4823(3)
N15 N -0.0545(4) 0.3568(4) 0.4889(3)
C39 C -0.0863(4) 0.4078(4) 0.4505(3)
N16 N -0.1332(4) 0.3926(3) 0.3991(2)
C40 C -0.1528(4) 0.4627(4) 0.3728(3)
N17 N -0.1993(4) 0.4746(3) 0.3229(2)
C41 C -0.2764(5) 0.4274(4) 0.2344(3)
C42 C -0.2954(5) 0.3529(4) 0.2115(3)
C43 C -0.3433(5) 0.3432(5) 0.1596(3)
H17 H -0.3571 0.2933 0.1454
C44 C -0.3702(5) 0.4103(5) 0.1291(3)
H18 H -0.4016 0.4058 0.0936
C45 C -0.3499(5) 0.4851(5) 0.1522(3)
H19 H -0.3687 0.5293 0.1314
C46 C -0.3029(5) 0.4958(4) 0.2048(3)
H20 H -0.2899 0.5456 0.2194
C47 C -0.2476(5) 0.0821(4) 0.2808(3)
C48 C -0.2070(5) 0.0480(4) 0.3285(3)
C49 C -0.2001(6) -0.0334(5) 0.3358(4)
H21 H -0.1730 -0.0557 0.3689
C50 C -0.2366(6) -0.0798(5) 0.2898(4)
H22 H -0.2333 -0.1343 0.2924
C51 C -0.2772(6) -0.0459(5) 0.2411(4)
H23 H -0.3001 -0.0779 0.2112
C52 C -0.2846(5) 0.0362(5) 0.2359(4)
H24 H -0.3132 0.0591 0.2036
C53 C -0.0555(5) 0.1500(4) 0.5067(3)
C54 C -0.0303(5) 0.2237(4) 0.5268(3)
C55 C 0.0149(5) 0.2326(5) 0.5796(3)
H25 H 0.0327 0.2821 0.5925
C56 C 0.0332(6) 0.1678(5) 0.6126(4)
H26 H 0.0642 0.1734 0.6481
C57 C -0.0768(5) 0.4940(4) 0.4579(3)
C58 C -0.1197(5) 0.5281(4) 0.4097(3)
C59 C 0.0065(6) 0.0929(5) 0.5943(4)
H27 H 0.0183 0.0496 0.6183
C60 C -0.0379(6) 0.0825(5) 0.5400(4)
H28 H -0.0548 0.0329 0.5268
C61 C -0.1273(5) 0.6088(4) 0.4042(3)
H29 H -0.1586 0.6320 0.3732
C62 C -0.0855(5) 0.6531(5) 0.4479(4)
H30 H -0.0855 0.7076 0.4443
C63 C -0.0436(6) 0.6195(5) 0.4969(4)
H31 H -0.0200 0.6517 0.5264
C64 C -0.0367(5) 0.5379(4) 0.5022(3)
H32 H -0.0069 0.5144 0.5338
N18 N -0.3578(4) 0.2814(3) 0.4285(2)
O4 O -0.2935(5) 0.3011(4) 0.4492(3)
O5 O -0.3704(6) 0.2705(4) 0.3734(3)
O6 O -0.4215(4) 0.2479(4) 0.4602(3)
O7 O 0.2042(5) 0.0741(5) 0.0275(3)
C65 C 0.1910(12) 0.0915(10) 0.0848(5)
H33 H 0.2387 0.1260 0.0982
H34 H 0.1941 0.0435 0.1080
C66 C 0.1404(9) 0.1228(7) -0.0041(5)
H35 H 0.1039 0.0911 -0.0304
H36 H 0.1712 0.1625 -0.0272
C67 C 0.1073(9) 0.1284(9) 0.0951(5)
H37 H 0.0630 0.0903 0.1079
H38 H 0.1128 0.1687 0.1253
C68 C 0.0839(11) 0.1601(10) 0.0432(6)
H39 H 0.0938 0.2164 0.0439
H40 H 0.0209 0.1505 0.0354
loop_
_geom_bond_atom_site_label_1
_geom_bond_atom_site_label_2
_geom_bond_site_symmetry_1
_geom_bond_site_symmetry_2
Mg1 N1 1_555 1_555
C1 N1 1_555 1_555
N1 C2 1_555 1_555
C2 N2 1_555 1_555
N2 C3 1_555 1_555
C3 N3 1_555 1_555
N3 Mg1 1_555 1_555
C4 N3 1_555 1_555
N4 C4 1_555 1_555
C5 N4 1_555 1_555
N5 Mg1 1_555 1_555
C6 N5 1_555 1_555
N6 C6 1_555 1_555
C7 N6 1_555 1_555
N7 Mg1 1_555 1_555
C8 N7 1_555 1_555
N8 C1 1_555 1_555
C9 C1 1_555 1_555
C10 C2 1_555 1_555
C11 C10 1_555 1_555
H1 C11 1_555 1_555
C12 C11 1_555 1_555
H2 C12 1_555 1_555
C13 C12 1_555 1_555
H3 C13 1_555 1_555
C14 C9 1_555 1_555
H4 C14 1_555 1_555
C15 C3 1_555 1_555
C16 C4 1_555 1_555
C17 C16 1_555 1_555
H5 C17 1_555 1_555
C18 C17 1_555 1_555
H6 C18 1_555 1_555
C19 C18 1_555 1_555
H7 C19 1_555 1_555
C20 C15 1_555 1_555
H8 C20 1_555 1_555
C21 C5 1_555 1_555
C22 C6 1_555 1_555
C23 C22 1_555 1_555
H9 C23 1_555 1_555
C24 C23 1_555 1_555
H10 C24 1_555 1_555
C25 C24 1_555 1_555
H11 C25 1_555 1_555
C26 C21 1_555 1_555
H12 C26 1_555 1_555
C27 C7 1_555 1_555
C28 C8 1_555 1_555
C29 C28 1_555 1_555
H13 C29 1_555 1_555
C30 C29 1_555 1_555
H14 C30 1_555 1_555
C31 C30 1_555 1_555
H15 C31 1_555 1_555
C32 C27 1_555 1_555
H16 C32 1_555 1_555
N9 O1 1_555 1_555
O1 Mg1 1_555 1_555
O2 N9 1_555 1_555
O3 N9 1_555 1_555
Mg2 N10 1_555 1_555
C33 N10 1_555 1_555
N10 C34 1_555 1_555
C34 N11 1_555 1_555
N11 C35 1_555 1_555
C35 N12 1_555 1_555
N12 Mg2 1_555 1_555
C36 N12 1_555 1_555
N13 C36 1_555 1_555
C37 N13 1_555 1_555
N14 Mg2 1_555 1_555
C38 N14 1_555 1_555
N15 C38 1_555 1_555
C39 N15 1_555 1_555
N16 Mg2 1_555 1_555
C40 N16 1_555 1_555
N17 C33 1_555 1_555
C41 C33 1_555 1_555
C42 C34 1_555 1_555
C43 C42 1_555 1_555
H17 C43 1_555 1_555
C44 C43 1_555 1_555
H18 C44 1_555 1_555
C45 C44 1_555 1_555
H19 C45 1_555 1_555
C46 C41 1_555 1_555
H20 C46 1_555 1_555
C47 C35 1_555 1_555
C48 C36 1_555 1_555
C49 C48 1_555 1_555
H21 C49 1_555 1_555
C50 C49 1_555 1_555
H22 C50 1_555 1_555
C51 C50 1_555 1_555
H23 C51 1_555 1_555
C52 C47 1_555 1_555
H24 C52 1_555 1_555
C53 C37 1_555 1_555
C54 C38 1_555 1_555
C55 C54 1_555 1_555
H25 C55 1_555 1_555
C56 C55 1_555 1_555
H26 C56 1_555 1_555
C57 C39 1_555 1_555
C58 C40 1_555 1_555
C59 C56 1_555 1_555
H27 C59 1_555 1_555
C60 C53 1_555 1_555
H28 C60 1_555 1_555
C61 C58 1_555 1_555
H29 C61 1_555 1_555
C62 C61 1_555 1_555
H30 C62 1_555 1_555
C63 C62 1_555 1_555
H31 C63 1_555 1_555
C64 C57 1_555 1_555
H32 C64 1_555 1_555
N18 O4 1_555 1_555
O4 Mg2 1_555 1_555
O5 N18 1_555 1_555
O6 N18 1_555 1_555
O7 C65 1_555 1_555
C65 H33 1_555 1_555
H34 C65 1_555 1_555
C66 O7 1_555 1_555
H35 C66 1_555 1_555
H36 C66 1_555 1_555
C67 C65 1_555 1_555
H37 C67 1_555 1_555
H38 C67 1_555 1_555
C68 C66 1_555 1_555
H39 C68 1_555 1_555
H40 C68 1_555 1_555
C5 N5 1_555 1_555
C7 N7 1_555 1_555
C8 N8 1_555 1_555
C9 C10 1_555 1_555
C13 C14 1_555 1_555
C15 C16 1_555 1_555
C19 C20 1_555 1_555
C21 C22 1_555 1_555
C25 C26 1_555 1_555
C27 C28 1_555 1_555
C31 C32 1_555 1_555
C37 N14 1_555 1_555
C39 N16 1_555 1_555
C40 N17 1_555 1_555
C41 C42 1_555 1_555
C45 C46 1_555 1_555
C47 C48 1_555 1_555
C51 C52 1_555 1_555
C53 C54 1_555 1_555
C57 C58 1_555 1_555
C59 C60 1_555 1_555
C63 C64 1_555 1_555
C67 C68 1_555 1_555

#END
