
#######################################################################
#
#                 Cambridge Crystallographic Data Centre
#                                CCDC 
#
#######################################################################
#
# If this CIF has been generated from an entry in the Cambridge 
# Structural Database, then it will include bibliographic, chemical, 
# crystal, experimental, refinement or atomic coordinate data resulting 
# from the CCDC's data processing and validation procedures.
#
#######################################################################

data_PAZCOJ
_chemical_formula_moiety         'C17 H17 N3 O1 S2'
_chemical_name_systematic        
3-(2-Aminophenyl)-2-methylsulfanyl-5,6,7,8-tetrahydrobenzothieno(2,3-d)pyrimidin-4(3H)-one
_symmetry_cell_setting           monoclinic
_symmetry_space_group_name_H-M   'P 21/c'
_symmetry_Int_Tables_number      14
_space_group_name_Hall           '-P 2ybc'
loop_
_symmetry_equiv_pos_site_id
_symmetry_equiv_pos_as_xyz
1 x,y,z
2 -x,1/2+y,1/2-z
3 -x,-y,-z
4 x,1/2-y,1/2+z
_cell_length_a                   11.7686(10)
_cell_length_b                   13.4861(11)
_cell_length_c                   11.2137(10)
_cell_angle_alpha                90
_cell_angle_beta                 112.552(2)
_cell_angle_gamma                90
_cell_volume                     1643.66
_exptl_crystal_colour            colorless
_exptl_crystal_description       block
_chemical_melting_point          '507 K'
_cell_formula_units_Z            4
_exptl_crystal_recrystallization_method hexane/dichloromethane
loop_
_atom_site_label
_atom_site_type_symbol
_atom_site_fract_x
_atom_site_fract_y
_atom_site_fract_z
C1 C 0.3788(3) 0.0784(3) 0.5019(3)
H3 H 0.3887 0.0060 0.5034
H4 H 0.4454 0.1052 0.5738
C4 C 0.3912(11) 0.1212(6) 0.3808(9)
H9 H 0.4779 0.1257 0.3957
H10 H 0.3532 0.0759 0.3094
C5 C 0.3334(8) 0.2224(6) 0.3430(15)
H11 H 0.3349 0.2402 0.2598
H12 H 0.3832 0.2705 0.4056
C6 C 0.2015(3) 0.2298(3) 0.3347(4)
H15 H 0.1829 0.2997 0.3448
H16 H 0.1488 0.2079 0.2514
C7 C 0.1821(3) 0.1688(2) 0.4377(3)
C8 C 0.2603(3) 0.1018(2) 0.5151(3)
C9 C 0.2146(3) 0.0600(2) 0.6065(3)
C10 C 0.1006(3) 0.0966(2) 0.5909(3)
C11 C 0.0864(3) 0.0119(2) 0.7566(3)
C12 C 0.2723(3) -0.0082(2) 0.7099(3)
C13 C 0.2534(2) -0.0940(2) 0.8953(3)
C14 C 0.2166(3) -0.1921(2) 0.8855(3)
H17 H 0.1626 -0.2164 0.8064
C15 C 0.2577(3) -0.2537(3) 0.9892(4)
H18 H 0.2305 -0.3190 0.9820
C16 C 0.3399(3) -0.2184(3) 1.1048(4)
H19 H 0.3680 -0.2602 1.1761
C17 C 0.3818(3) -0.1209(3) 1.1172(3)
H20 H 0.4390 -0.0983 1.1956
C18 C 0.3368(3) -0.0567(2) 1.0101(3)
C19 C -0.1188(3) 0.0566(3) 0.8005(4)
H21 H -0.0936 0.1247 0.8164
H22 H -0.1731 0.0410 0.8435
H23 H -0.1608 0.0462 0.7093
N1 N 0.0331(2) 0.07316(18) 0.6624(2)
N2 N 0.2013(2) -0.02915(17) 0.7838(2)
N3 N 0.3724(3) 0.0415(2) 1.0248(3)
O1 O 0.37418(18) -0.04633(15) 0.7391(2)
S1 S 0.04830(8) 0.18325(6) 0.46843(8)
S2 S 0.01466(8) -0.02236(7) 0.86101(9)
H24 H 0.4410(17) 0.051(2) 1.089(2)
H25 H 0.361(3) 0.073(2) 0.954(2)
H1? H 0.3698 0.0194 0.4495
H2? H 0.4428 0.0664 0.5861
C2? C 0.4125(12) 0.1669(8) 0.4378(12)
H5? H 0.4247 0.2253 0.4917
H6? H 0.4881 0.1536 0.4249
C3? C 0.3078(9) 0.1836(10) 0.3094(14)
H7? H 0.2824 0.1210 0.2643
H8? H 0.3339 0.2274 0.2561
H13? H 0.2208 0.2979 0.3635
H14? H 0.1277 0.2297 0.2564
loop_
_geom_bond_atom_site_label_1
_geom_bond_atom_site_label_2
_geom_bond_site_symmetry_1
_geom_bond_site_symmetry_2
C1 H3 1_555 1_555
H4 C1 1_555 1_555
C4 C1 1_555 1_555
H9 C4 1_555 1_555
H10 C4 1_555 1_555
C5 C4 1_555 1_555
H11 C5 1_555 1_555
H12 C5 1_555 1_555
C6 C5 1_555 1_555
H15 C6 1_555 1_555
H16 C6 1_555 1_555
C7 C6 1_555 1_555
C8 C1 1_555 1_555
C9 C8 1_555 1_555
C10 C9 1_555 1_555
C11 N1 1_555 1_555
C12 C9 1_555 1_555
C13 C14 1_555 1_555
C14 H17 1_555 1_555
C15 C14 1_555 1_555
H18 C15 1_555 1_555
C16 C15 1_555 1_555
H19 C16 1_555 1_555
C17 C16 1_555 1_555
H20 C17 1_555 1_555
C18 C13 1_555 1_555
C19 H21 1_555 1_555
H22 C19 1_555 1_555
H23 C19 1_555 1_555
N1 C10 1_555 1_555
N2 C11 1_555 1_555
N3 C18 1_555 1_555
O1 C12 1_555 1_555
S1 C7 1_555 1_555
S2 C11 1_555 1_555
H24 N3 1_555 1_555
H25 N3 1_555 1_555
C7 C8 1_555 1_555
C10 S1 1_555 1_555
C12 N2 1_555 1_555
C13 N2 1_555 1_555
C17 C18 1_555 1_555
C19 S2 1_555 1_555

#END
