
#######################################################################
#
#                 Cambridge Crystallographic Data Centre
#                                CCDC 
#
#######################################################################
#
# If this CIF has been generated from an entry in the Cambridge 
# Structural Database, then it will include bibliographic, chemical, 
# crystal, experimental, refinement or atomic coordinate data resulting 
# from the CCDC's data processing and validation procedures.
#
#######################################################################

data_PAZCUP
_chemical_formula_moiety         'C19 H20 N2 O7'
_chemical_name_systematic        
'Acetonyl methyl 1,4-dihydro-2,6-dimethyl-4-(2-nitrophenyl)pyridine-3,5-dicarboxylate'
_symmetry_cell_setting           monoclinic
_symmetry_space_group_name_H-M   'C 2/c'
_symmetry_Int_Tables_number      15
_space_group_name_Hall           '-C 2yn'
loop_
_symmetry_equiv_pos_site_id
_symmetry_equiv_pos_as_xyz
1 x,y,z
2 1/2+x,1/2+y,z
3 -x,y,1/2-z
4 1/2-x,1/2+y,1/2-z
5 -x,-y,-z
6 1/2-x,1/2-y,-z
7 x,-y,1/2+z
8 1/2+x,1/2-y,1/2+z
_cell_length_a                   26.462(15)
_cell_length_b                   9.566(6)
_cell_length_c                   16.159(9)
_cell_angle_alpha                90
_cell_angle_beta                 115.155(6)
_cell_angle_gamma                90
_cell_volume                     3702.49
_exptl_crystal_colour            yellow
_exptl_crystal_description       block
_chemical_melting_point          '423-424 K'
_cell_formula_units_Z            8
_exptl_crystal_recrystallization_method ethanol
loop_
_atom_site_label
_atom_site_type_symbol
_atom_site_fract_x
_atom_site_fract_y
_atom_site_fract_z
O1 O 0.11482(8) 0.5093(2) 0.57173(12)
O2 O 0.19705(7) 0.5448(2) 0.57994(10)
O3 O 0.26500(6) 0.49363(16) 0.48436(9)
O4 O 0.30364(6) 0.49966(16) 0.38657(10)
O5 O 0.06544(7) 0.92405(18) 0.35051(12)
O6 O 0.10873(5) 0.77002(14) 0.46104(9)
O7 O -0.00870(9) 0.8085(3) 0.51165(17)
N1 N 0.14856(9) 0.50940(19) 0.53820(12)
N2 N 0.18051(7) 0.80593(18) 0.24309(10)
H1 H 0.1787 0.8417 0.1931
C1 C 0.12823(8) 0.4617(2) 0.44266(12)
C2 C 0.09312(8) 0.3473(2) 0.42076(15)
H2 H 0.0835 0.3076 0.4646
C3 C 0.07251(9) 0.2926(2) 0.33434(17)
H3 H 0.0494 0.2144 0.3194
C4 C 0.08627(9) 0.3543(2) 0.26987(15)
H4 H 0.0723 0.3181 0.2109
C5 C 0.12092(8) 0.4703(2) 0.29245(12)
H5 H 0.1294 0.5110 0.2476
C6 C 0.14340(7) 0.52769(18) 0.37955(11)
C7 C 0.17823(7) 0.66175(18) 0.39509(11)
H6 H 0.1961 0.6816 0.4608
C8 C 0.22375(7) 0.64259(19) 0.36151(11)
C9 C 0.26791(8) 0.5414(2) 0.40914(12)
C10 C 0.30471(9) 0.3885(2) 0.53532(16)
H7 H 0.2979 0.3048 0.4994
H8 H 0.3010 0.3687 0.5908
H9 H 0.3418 0.4215 0.5500
C11 C 0.22292(8) 0.7133(2) 0.28864(12)
C12 C 0.26515(10) 0.7052(3) 0.24955(15)
H10 H 0.3019 0.7170 0.2977
H11 H 0.2579 0.7776 0.2048
H12 H 0.2626 0.6157 0.2212
C13 C 0.14078(8) 0.84514(19) 0.27223(12)
C14 C 0.10362(10) 0.9601(2) 0.21564(15)
H13 H 0.0668 0.9482 0.2124
H14 H 0.1019 0.9570 0.1551
H15 H 0.1184 1.0487 0.2431
C15 C 0.13954(7) 0.78333(18) 0.34647(12)
C16 C 0.10062(8) 0.8350(2) 0.38199(13)
C17 C 0.07628(9) 0.8229(2) 0.50625(14)
H16 H 0.0741 0.9238 0.4997
H17 H 0.0959 0.8023 0.5710
C18 C 0.01840(10) 0.7669(3) 0.47277(17)
C19 C -0.00387(10) 0.6658(3) 0.39615(18)
H18 H -0.0406 0.6369 0.3870
H19 H 0.0202 0.5857 0.4104
H20 H -0.0056 0.7093 0.3414
loop_
_geom_bond_atom_site_label_1
_geom_bond_atom_site_label_2
_geom_bond_site_symmetry_1
_geom_bond_site_symmetry_2
O1 N1 1_555 1_555
O2 N1 1_555 1_555
O3 C9 1_555 1_555
O4 C9 1_555 1_555
O5 C16 1_555 1_555
O6 C16 1_555 1_555
O7 C18 1_555 1_555
N1 C1 1_555 1_555
N2 H1 1_555 1_555
C1 C2 1_555 1_555
C2 H2 1_555 1_555
C3 C2 1_555 1_555
H3 C3 1_555 1_555
C4 C3 1_555 1_555
H4 C4 1_555 1_555
C5 C4 1_555 1_555
H5 C5 1_555 1_555
C6 C1 1_555 1_555
C7 C6 1_555 1_555
H6 C7 1_555 1_555
C8 C7 1_555 1_555
C9 C8 1_555 1_555
C10 O3 1_555 1_555
H7 C10 1_555 1_555
H8 C10 1_555 1_555
H9 C10 1_555 1_555
C11 N2 1_555 1_555
C12 C11 1_555 1_555
H10 C12 1_555 1_555
H11 C12 1_555 1_555
H12 C12 1_555 1_555
C13 N2 1_555 1_555
C14 C13 1_555 1_555
H13 C14 1_555 1_555
H14 C14 1_555 1_555
H15 C14 1_555 1_555
C15 C7 1_555 1_555
C16 C15 1_555 1_555
C17 O6 1_555 1_555
H16 C17 1_555 1_555
H17 C17 1_555 1_555
C18 C17 1_555 1_555
C19 C18 1_555 1_555
H18 C19 1_555 1_555
H19 C19 1_555 1_555
H20 C19 1_555 1_555
C5 C6 1_555 1_555
C8 C11 1_555 1_555
C13 C15 1_555 1_555

#END
