
#######################################################################
#
#                 Cambridge Crystallographic Data Centre
#                                CCDC 
#
#######################################################################
#
# If this CIF has been generated from an entry in the Cambridge 
# Structural Database, then it will include bibliographic, chemical, 
# crystal, experimental, refinement or atomic coordinate data resulting 
# from the CCDC's data processing and validation procedures.
#
#######################################################################

data_PAZDEA
_chemical_formula_moiety         'C23 H23 N3 O4'
_chemical_name_systematic        
2-(N-(2-Ethoxyphenyl)carbamoylmethoxy)-N-(2-pyridylmethyl)benzamide
_symmetry_cell_setting           triclinic
_symmetry_space_group_name_H-M   'P -1'
_symmetry_Int_Tables_number      2
_space_group_name_Hall           '-P 1'
loop_
_symmetry_equiv_pos_site_id
_symmetry_equiv_pos_as_xyz
1 x,y,z
2 -x,-y,-z
_cell_length_a                   8.7109(14)
_cell_length_b                   10.8764(17)
_cell_length_c                   11.2510(18)
_cell_angle_alpha                106.481(3)
_cell_angle_beta                 90.471(3)
_cell_angle_gamma                100.828(3)
_cell_volume                     1001.82
_exptl_crystal_colour            colorless
_exptl_crystal_description       block
_cell_formula_units_Z            2
_exptl_crystal_recrystallization_method 'petroleum ether/ethyl acetate'
loop_
_atom_site_label
_atom_site_type_symbol
_atom_site_fract_x
_atom_site_fract_y
_atom_site_fract_z
O1 O 0.69091(19) -0.06042(16) 0.41724(15)
O2 O 0.43012(16) 0.03107(12) 0.15861(11)
O3 O 0.27117(18) -0.17145(13) -0.00895(13)
O4 O -0.00946(15) 0.03480(12) -0.24412(11)
C1 C 0.7448(3) -0.5204(2) 0.0285(2)
H1 H 0.7540 -0.6072 0.0141
N1 N 0.52390(19) -0.14435(15) 0.24957(14)
H2 H 0.4634 -0.1294 0.1967
N2 N 0.17318(17) -0.04732(14) -0.11231(13)
H3 H 0.1760 0.0328 -0.1101
C2 C 0.6529(3) -0.46523(19) 0.1186(2)
H4 H 0.5989 -0.5147 0.1659
C3 C 0.8227(3) -0.4457(2) -0.0398(2)
H5 H 0.8852 -0.4804 -0.1022
C4 C 0.8058(3) -0.3185(2) -0.0135(2)
H6 H 0.8597 -0.2676 -0.0595
N3 N 0.7170(2) -0.26223(15) 0.07411(15)
C5 C 0.6405(2) -0.33576(17) 0.13931(17)
C6 C 0.5380(3) -0.27722(19) 0.23830(19)
H7 H 0.4339 -0.3318 0.2216
H8 H 0.5789 -0.2802 0.3177
C7 C 0.6033(2) -0.04364(19) 0.34088(17)
C8 C 0.5804(2) 0.09288(18) 0.34938(16)
C9 C 0.6493(2) 0.1908(2) 0.45384(18)
H9 H 0.7045 0.1688 0.5133
C10 C 0.6389(3) 0.3194(2) 0.47286(19)
H10 H 0.6860 0.3829 0.5443
C11 C 0.5590(3) 0.3531(2) 0.38586(19)
H11 H 0.5521 0.4400 0.3979
C12 C 0.4885(2) 0.25873(19) 0.28029(18)
H12 H 0.4345 0.2822 0.2212
C13 C 0.4981(2) 0.12921(17) 0.26206(15)
C14 C 0.3334(2) 0.06154(17) 0.07408(16)
H13 H 0.3952 0.1192 0.0328
H14 H 0.2539 0.1052 0.1175
C15 C 0.2576(2) -0.06568(17) -0.01981(16)
C16 C 0.0808(2) -0.14259(17) -0.21220(15)
C17 C 0.0799(2) -0.27544(18) -0.24339(17)
H15 H 0.1422 -0.3073 -0.1963
C18 C -0.0132(2) -0.3610(2) -0.34425(19)
H16 H -0.0138 -0.4501 -0.3643
C19 C -0.1044(3) -0.3149(2) -0.4147(2)
H17 H -0.1661 -0.3731 -0.4827
C20 C -0.1056(2) -0.1829(2) -0.38562(18)
H18 H -0.1675 -0.1522 -0.4340
C21 C -0.0141(2) -0.09658(18) -0.28416(16)
C22 C -0.0884(3) 0.0909(2) -0.32134(18)
H19 H -0.1995 0.0533 -0.3309
H20 H -0.0471 0.0733 -0.4030
C23 C -0.0624(3) 0.2350(2) -0.2608(2)
H21 H -0.1132 0.2750 -0.3116
H22 H 0.0479 0.2711 -0.2510
H23 H -0.1053 0.2515 -0.1808
loop_
_geom_bond_atom_site_label_1
_geom_bond_atom_site_label_2
_geom_bond_site_symmetry_1
_geom_bond_site_symmetry_2
O1 C7 1_555 1_555
O2 C13 1_555 1_555
O3 C15 1_555 1_555
O4 C21 1_555 1_555
C1 H1 1_555 1_555
N1 H2 1_555 1_555
N2 H3 1_555 1_555
C2 C1 1_555 1_555
H4 C2 1_555 1_555
C3 C1 1_555 1_555
H5 C3 1_555 1_555
C4 C3 1_555 1_555
H6 C4 1_555 1_555
N3 C4 1_555 1_555
C5 C2 1_555 1_555
C6 N1 1_555 1_555
H7 C6 1_555 1_555
H8 C6 1_555 1_555
C7 N1 1_555 1_555
C8 C7 1_555 1_555
C9 C8 1_555 1_555
H9 C9 1_555 1_555
C10 C9 1_555 1_555
H10 C10 1_555 1_555
C11 C10 1_555 1_555
H11 C11 1_555 1_555
C12 C11 1_555 1_555
H12 C12 1_555 1_555
C13 C8 1_555 1_555
C14 O2 1_555 1_555
H13 C14 1_555 1_555
H14 C14 1_555 1_555
C15 N2 1_555 1_555
C16 N2 1_555 1_555
C17 C16 1_555 1_555
H15 C17 1_555 1_555
C18 C17 1_555 1_555
H16 C18 1_555 1_555
C19 C18 1_555 1_555
H17 C19 1_555 1_555
C20 C19 1_555 1_555
H18 C20 1_555 1_555
C21 C16 1_555 1_555
C22 O4 1_555 1_555
H19 C22 1_555 1_555
H20 C22 1_555 1_555
C23 C22 1_555 1_555
H21 C23 1_555 1_555
H22 C23 1_555 1_555
H23 C23 1_555 1_555
N3 C5 1_555 1_555
C5 C6 1_555 1_555
C12 C13 1_555 1_555
C14 C15 1_555 1_555
C20 C21 1_555 1_555

#END
