
#######################################################################
#
#                 Cambridge Crystallographic Data Centre
#                                CCDC 
#
#######################################################################
#
# If this CIF has been generated from an entry in the Cambridge 
# Structural Database, then it will include bibliographic, chemical, 
# crystal, experimental, refinement or atomic coordinate data resulting 
# from the CCDC's data processing and validation procedures.
#
#######################################################################

data_PAZFAZ
_chemical_formula_moiety         'C40 H44 N24 O12,C12 H13 N4 1+,Cl1 1-,5(H2 O1)'
_chemical_name_systematic        
'Tetramethylcucurbit[6]uril 2,4-diaminoazobenzene clathrate hydrogenchloride pentahydrate'
_symmetry_cell_setting           triclinic
_symmetry_space_group_name_H-M   'P -1'
_symmetry_Int_Tables_number      2
_space_group_name_Hall           '-P 1'
loop_
_symmetry_equiv_pos_site_id
_symmetry_equiv_pos_as_xyz
1 x,y,z
2 -x,-y,-z
_cell_length_a                   12.0591(8)
_cell_length_b                   13.3323(9)
_cell_length_c                   24.3017(17)
_cell_angle_alpha                104.456(3)
_cell_angle_beta                 92.714(3)
_cell_angle_gamma                93.998(2)
_cell_volume                     3765.72
_cell_formula_units_Z            2
loop_
_atom_site_label
_atom_site_type_symbol
_atom_site_fract_x
_atom_site_fract_y
_atom_site_fract_z
O1 O 0.1739(4) 0.5961(3) 0.38316(19)
O2 O 0.1396(4) 0.0505(4) 0.5267(2)
O3 O 0.2332(5) 0.7865(4) 0.4585(2)
O4 O 0.0212(5) 0.8389(5) 0.4137(2)
O5 O 0.9571(6) 0.6485(7) 0.3537(3)
Cl1 Cl 0.8372(2) 0.6824(2) 0.01340(12)
C1 C 0.3220(4) 0.9386(4) 0.2644(2)
H1 H 0.3064 1.0074 0.2690
C2 C 0.2779(4) 0.8834(4) 0.2992(2)
H2 H 0.2320 0.9145 0.3271
C3 C 0.3001(4) 0.7836(4) 0.2936(2)
H3 H 0.2698 0.7463 0.3178
C4 C 0.3677(5) 0.7370(4) 0.2523(2)
H4 H 0.3838 0.6686 0.2489
C5 C 0.4118(4) 0.7916(4) 0.2157(2)
H5 H 0.4557 0.7596 0.1870
C6 C 0.3902(3) 0.8939(3) 0.22212(16)
C7 C 0.5382(4) 0.9592(3) 0.11091(18)
C8 C 0.5276(4) 1.0653(4) 0.11106(19)
H6 H 0.4880 1.1060 0.1390
C9 C 0.5735(5) 1.1080(4) 0.0717(2)
H7 H 0.5680 1.1780 0.0735
C10 C 0.6308(4) 1.0451(4) 0.02694(18)
C11 C 0.6431(5) 0.9435(4) 0.02525(19)
H8 H 0.6816 0.9040 -0.0036
C12 C 0.5993(5) 0.8979(4) 0.0660(2)
N1 N 0.4333(3) 0.9509(3) 0.18571(14)
H9 H 0.4190 1.0146 0.1899
N2 N 0.4944(3) 0.9077(3) 0.14584(15)
N3 N 0.6715(4) 1.0893(3) -0.01257(16)
H10 H 0.7063 1.0535 -0.0398
H11 H 0.6628 1.1535 -0.0107
N4 N 0.6176(6) 0.8011(4) 0.0670(3)
H12 H 0.6574 0.7653 0.0421
H13 H 0.5896 0.7744 0.0926
C13 C 0.5132(4) 0.5662(3) 0.13860(17)
C14 C 0.5101(4) 0.4513(3) 0.19772(17)
C15 C 0.4003(4) 0.4290(3) 0.15745(18)
C16 C 0.3544(4) 0.4754(3) 0.2540(2)
C17 C 0.3404(4) 0.5172(3) 0.07750(18)
H14 H 0.3853 0.5444 0.0516
H15 H 0.3085 0.4483 0.0572
C18 C 0.1953(4) 0.4428(3) 0.1851(2)
H16 H 0.1564 0.4308 0.2172
H17 H 0.1757 0.3833 0.1530
C19 C 0.2480(4) 0.6814(3) 0.08622(17)
C20 C 0.1472(4) 0.5474(3) 0.1137(2)
H18 H 0.1126 0.4841 0.0870
C21 C 0.0751(4) 0.6396(3) 0.1175(2)
H19 H 0.0090 0.6206 0.0908
C22 C 0.0900(4) 0.5997(3) 0.2065(2)
C23 C 0.1061(4) 0.8084(3) 0.08871(18)
H20 H 0.1566 0.8310 0.0634
H21 H 0.0343 0.7872 0.0677
C24 C -0.0426(4) 0.7299(3) 0.1966(3)
H22 H -0.1032 0.7168 0.1673
H23 H -0.0714 0.7124 0.2299
C25 C 0.1582(4) 0.9861(3) 0.14700(17)
C26 C -0.0031(4) 0.9007(3) 0.16979(19)
H24 H -0.0725 0.8869 0.1454
C27 C 0.0098(4) 1.0147(3) 0.20690(17)
H25 H -0.0515 1.0539 0.1980
C28 C -0.0068(4) 0.9001(3) 0.2655(2)
C29 C 0.1528(4) 1.1649(3) 0.20804(17)
H26 H 0.0884 1.2050 0.2099
H27 H 0.1975 1.1802 0.1786
C30 C 0.0092(4) 1.0896(3) 0.31424(17)
H28 H -0.0359 1.1413 0.3050
H29 H -0.0250 1.0654 0.3444
C31 C 0.3318(4) 1.2008(3) 0.26363(16)
C32 C 0.1752(4) 1.2264(3) 0.31861(16)
C33 C 0.2865(3) 1.2508(3) 0.36019(16)
C34 C 0.1743(3) 1.1127(3) 0.37949(16)
C35 C 0.4924(3) 1.2379(3) 0.33418(18)
H30 H 0.5327 1.2511 0.3027
H31 H 0.5117 1.2962 0.3670
C36 C 0.3468(3) 1.1652(3) 0.44006(17)
H32 H 0.3778 1.2349 0.4594
H33 H 0.3020 1.1394 0.4665
C37 C 0.5967(3) 1.0810(3) 0.31136(18)
C38 C 0.5394(3) 1.1332(3) 0.40369(16)
H34 H 0.5768 1.1960 0.4298
C39 C 0.6111(3) 1.0386(3) 0.39827(17)
H35 H 0.6773 1.0556 0.4249
C40 C 0.4375(4) 1.0002(3) 0.43221(16)
C41 C 0.7271(3) 0.9490(3) 0.31933(19)
H36 H 0.7543 0.9672 0.2858
H37 H 0.7889 0.9618 0.3479
C42 C 0.5743(4) 0.8685(3) 0.42700(17)
H38 H 0.6454 0.8882 0.4488
H39 H 0.5222 0.8441 0.4510
C43 C 0.6961(3) 0.7771(3) 0.24941(19)
C44 C 0.6869(4) 0.7779(3) 0.34654(17)
H40 H 0.7546 0.7926 0.3721
C45 C 0.6755(4) 0.6650(3) 0.30971(18)
H41 H 0.7362 0.6265 0.3199
C46 C 0.5234(4) 0.6925(3) 0.36689(18)
C47 C 0.6797(4) 0.5893(3) 0.20291(18)
H42 H 0.7252 0.5373 0.2115
H43 H 0.7129 0.6140 0.1726
C48 C 0.5365(4) 0.5125(3) 0.30885(18)
H44 H 0.4938 0.4976 0.3391
H45 H 0.6022 0.4740 0.3068
C49 C 0.5838(4) 0.3613(3) 0.19075(19)
H46 H 0.6101 0.3454 0.1531
H47 H 0.5416 0.3013 0.1964
H48 H 0.6462 0.3803 0.2184
C50 C 0.3787(4) 0.3207(3) 0.11804(18)
H49 H 0.3702 0.2707 0.1403
H50 H 0.4404 0.3057 0.0946
H51 H 0.3119 0.3172 0.0943
C51 C 0.1001(4) 1.3151(3) 0.32487(19)
H52 H 0.0729 1.3307 0.3623
H53 H 0.0383 1.2950 0.2969
H54 H 0.1416 1.3755 0.3194
C52 C 0.3036(4) 1.3592(3) 0.39917(17)
H55 H 0.2460 1.3691 0.4255
H56 H 0.3008 1.4093 0.3769
H57 H 0.3749 1.3681 0.4199
N5 N 0.5676(3) 0.5403(3) 0.18249(14)
N6 N 0.4123(3) 0.5086(3) 0.12585(14)
N7 N 0.4692(3) 0.4768(3) 0.25486(14)
N8 N 0.3118(3) 0.4487(3) 0.19888(15)
N9 N 0.2507(3) 0.5838(3) 0.09380(15)
N10 N 0.1480(3) 0.7184(3) 0.10405(15)
N11 N 0.1558(3) 0.5357(3) 0.17086(16)
N12 N 0.0455(3) 0.6627(3) 0.17621(18)
N13 N 0.0937(3) 0.8943(3) 0.13579(15)
N14 N 0.1150(3) 1.0556(3) 0.19195(14)
N15 N -0.0051(3) 0.8393(3) 0.21115(16)
N16 N 0.0078(3) 1.0027(3) 0.26444(15)
N17 N 0.2185(3) 1.1987(3) 0.26273(13)
N18 N 0.3725(3) 1.2328(3) 0.31919(13)
N19 N 0.1178(3) 1.1380(3) 0.33503(14)
N20 N 0.2751(3) 1.1709(3) 0.39170(13)
N21 N 0.5289(3) 1.1444(3) 0.34718(14)
N22 N 0.6401(3) 1.0163(3) 0.34103(14)
N23 N 0.4371(3) 1.0998(3) 0.42589(14)
N24 N 0.5337(3) 0.9610(2) 0.41214(13)
N25 N 0.6899(3) 0.8389(3) 0.30449(14)
N26 N 0.6819(3) 0.6750(3) 0.25270(14)
N27 N 0.5876(3) 0.7846(2) 0.37751(14)
N28 N 0.5712(3) 0.6232(3) 0.32293(15)
O6 O 0.5492(3) 0.6291(2) 0.11353(12)
O7 O 0.3189(3) 0.7277(2) 0.06562(12)
O8 O 0.2362(3) 1.0057(2) 0.12160(12)
O9 O 0.3874(3) 1.1805(2) 0.22244(11)
O10 O 0.6124(3) 1.0837(2) 0.26223(12)
O11 O 0.7105(3) 0.8082(2) 0.20725(12)
O12 O 0.3000(3) 0.4909(2) 0.29584(13)
O13 O 0.0704(3) 0.5974(3) 0.25495(17)
O14 O -0.0225(3) 0.8682(2) 0.30761(15)
O15 O 0.1408(2) 1.0487(2) 0.40451(12)
O16 O 0.3657(3) 0.9561(2) 0.45332(11)
O17 O 0.4432(3) 0.6727(3) 0.39130(14)
loop_
_geom_bond_atom_site_label_1
_geom_bond_atom_site_label_2
_geom_bond_site_symmetry_1
_geom_bond_site_symmetry_2
C1 H1 1_555 1_555
C2 C1 1_555 1_555
H2 C2 1_555 1_555
C3 C2 1_555 1_555
H3 C3 1_555 1_555
C4 C3 1_555 1_555
H4 C4 1_555 1_555
C5 C4 1_555 1_555
H5 C5 1_555 1_555
C6 C1 1_555 1_555
C7 C8 1_555 1_555
C8 H6 1_555 1_555
C9 C8 1_555 1_555
H7 C9 1_555 1_555
C10 C9 1_555 1_555
C11 C10 1_555 1_555
H8 C11 1_555 1_555
C12 C7 1_555 1_555
N1 C6 1_555 1_555
H9 N1 1_555 1_555
N2 C7 1_555 1_555
N3 C10 1_555 1_555
H10 N3 1_555 1_555
H11 N3 1_555 1_555
N4 C12 1_555 1_555
H12 N4 1_555 1_555
H13 N4 1_555 1_555
C13 N5 1_555 1_555
C14 C15 1_555 1_555
C15 C50 1_555 1_555
C16 N7 1_555 1_555
C17 H14 1_555 1_555
H15 C17 1_555 1_555
C18 H16 1_555 1_555
H17 C18 1_555 1_555
C19 N9 1_555 1_555
C20 H18 1_555 1_555
C21 C20 1_555 1_555
H19 C21 1_555 1_555
C22 N11 1_555 1_555
C23 H20 1_555 1_555
H21 C23 1_555 1_555
C24 H22 1_555 1_555
H23 C24 1_555 1_555
C25 N13 1_555 1_555
C26 H24 1_555 1_555
C27 C26 1_555 1_555
H25 C27 1_555 1_555
C28 N15 1_555 1_555
C29 H26 1_555 1_555
H27 C29 1_555 1_555
C30 H28 1_555 1_555
H29 C30 1_555 1_555
C31 N17 1_555 1_555
C32 C33 1_555 1_555
C33 C52 1_555 1_555
C34 N19 1_555 1_555
C35 H30 1_555 1_555
H31 C35 1_555 1_555
C36 H32 1_555 1_555
H33 C36 1_555 1_555
C37 N21 1_555 1_555
C38 H34 1_555 1_555
C39 C38 1_555 1_555
H35 C39 1_555 1_555
C40 N23 1_555 1_555
C41 H36 1_555 1_555
H37 C41 1_555 1_555
C42 H38 1_555 1_555
H39 C42 1_555 1_555
C43 N25 1_555 1_555
C44 H40 1_555 1_555
C45 C44 1_555 1_555
H41 C45 1_555 1_555
C46 N27 1_555 1_555
C47 H42 1_555 1_555
H43 C47 1_555 1_555
C48 H44 1_555 1_555
H45 C48 1_555 1_555
C49 C14 1_555 1_555
H46 C49 1_555 1_555
H47 C49 1_555 1_555
H48 C49 1_555 1_555
C50 H49 1_555 1_555
H50 C50 1_555 1_555
H51 C50 1_555 1_555
C51 C32 1_555 1_555
H52 C51 1_555 1_555
H53 C51 1_555 1_555
H54 C51 1_555 1_555
C52 H55 1_555 1_555
H56 C52 1_555 1_555
H57 C52 1_555 1_555
N5 C14 1_555 1_555
N6 C13 1_555 1_555
N7 C14 1_555 1_555
N8 C15 1_555 1_555
N9 C17 1_555 1_555
N10 C19 1_555 1_555
N11 C18 1_555 1_555
N12 C21 1_555 1_555
N13 C23 1_555 1_555
N14 C25 1_555 1_555
N15 C24 1_555 1_555
N16 C27 1_555 1_555
N17 C29 1_555 1_555
N18 C31 1_555 1_555
N19 C30 1_555 1_555
N20 C33 1_555 1_555
N21 C35 1_555 1_555
N22 C37 1_555 1_555
N23 C36 1_555 1_555
N24 C39 1_555 1_555
N25 C41 1_555 1_555
N26 C43 1_555 1_555
N27 C42 1_555 1_555
N28 C45 1_555 1_555
O6 C13 1_555 1_555
O7 C19 1_555 1_555
O8 C25 1_555 1_555
O9 C31 1_555 1_555
O10 C37 1_555 1_555
O11 C43 1_555 1_555
O12 C16 1_555 1_555
O13 C22 1_555 1_555
O14 C28 1_555 1_555
O15 C34 1_555 1_555
O16 C40 1_555 1_555
O17 C46 1_555 1_555
C5 C6 1_555 1_555
C11 C12 1_555 1_555
N1 N2 1_555 1_555
C15 N6 1_555 1_555
C16 N8 1_555 1_555
C17 N6 1_555 1_555
C18 N8 1_555 1_555
C20 N9 1_555 1_555
C20 N11 1_555 1_555
C21 N10 1_555 1_555
C22 N12 1_555 1_555
C23 N10 1_555 1_555
C24 N12 1_555 1_555
C26 N13 1_555 1_555
C26 N15 1_555 1_555
C27 N14 1_555 1_555
C28 N16 1_555 1_555
C29 N14 1_555 1_555
C30 N16 1_555 1_555
C32 N17 1_555 1_555
C32 N19 1_555 1_555
C33 N18 1_555 1_555
C34 N20 1_555 1_555
C35 N18 1_555 1_555
C36 N20 1_555 1_555
C38 N21 1_555 1_555
C38 N23 1_555 1_555
C39 N22 1_555 1_555
C40 N24 1_555 1_555
C41 N22 1_555 1_555
C42 N24 1_555 1_555
C44 N25 1_555 1_555
C44 N27 1_555 1_555
C45 N26 1_555 1_555
C46 N28 1_555 1_555
C47 N5 1_555 1_555
C47 N26 1_555 1_555
C48 N7 1_555 1_555
C48 N28 1_555 1_555

#END
