
#######################################################################
#
#                 Cambridge Crystallographic Data Centre
#                                CCDC 
#
#######################################################################
#
# If this CIF has been generated from an entry in the Cambridge 
# Structural Database, then it will include bibliographic, chemical, 
# crystal, experimental, refinement or atomic coordinate data resulting 
# from the CCDC's data processing and validation procedures.
#
#######################################################################

data_PAZFEB
_chemical_formula_moiety         'C7 H18 N3 1+,C24 H20 B1 1-'
_chemical_name_systematic        
"N,N,N',N',N'',N''-Hexamethylguanidinium tetraphenylborate"
_symmetry_cell_setting           trigonal
_symmetry_space_group_name_H-M   'P 31 2 1'
_symmetry_Int_Tables_number      152
_space_group_name_Hall           'P 31 2"'
loop_
_symmetry_equiv_pos_site_id
_symmetry_equiv_pos_as_xyz
1 x,y,z
2 -y,x-y,1/3+z
3 -x+y,-x,2/3+z
4 y,x,-z
5 -x,-x+y,1/3-z
6 x-y,-y,2/3-z
_cell_length_a                   9.8210(10)
_cell_length_b                   9.8210(10)
_cell_length_c                   25.170(6)
_cell_angle_alpha                90
_cell_angle_beta                 90
_cell_angle_gamma                120
_cell_volume                     2102.45
_exptl_crystal_colour            colorless
_exptl_crystal_description       block
_cell_formula_units_Z            3
loop_
_atom_site_label
_atom_site_type_symbol
_atom_site_fract_x
_atom_site_fract_y
_atom_site_fract_z
B1 B 1.0000 0.2781(4) 0.1667
C1 C 0.8413(3) 0.1033(3) 0.15891(9)
C2 C 0.7121(3) 0.0823(4) 0.12873(11)
H1 H 0.7179(3) 0.1684(4) 0.11118(11)
C3 C 0.5754(4) -0.0631(4) 0.12418(14)
H2 H 0.4932(4) -0.0723(4) 0.10327(14)
C4 C 0.5600(3) -0.1926(4) 0.14987(14)
H3 H 0.4683(3) -0.2893(4) 0.14670(14)
C5 C 0.6839(4) -0.1767(4) 0.18079(13)
H4 H 0.6759(4) -0.2634(4) 0.19864(13)
C6 C 0.8207(3) -0.0307(3) 0.18509(11)
H5 H 0.9019(3) -0.0225(3) 0.20640(11)
C7 C 1.0389(3) 0.3901(3) 0.11408(10)
C8 C 1.1178(4) 0.5553(4) 0.11734(14)
H6 H 1.1415(4) 0.6023(4) 0.15070(14)
C9 C 1.1613(5) 0.6505(4) 0.0726(2)
H7 H 1.2142(5) 0.7592(4) 0.0766(2)
C10 C 1.0551(5) 0.4280(5) 0.01745(13)
H8 H 1.0353(5) 0.3837(5) -0.01632(13)
C11 C 1.1279(5) 0.5874(6) 0.0232(2)
H9 H 1.1544(5) 0.6520(6) -0.0065(2)
C12 C 1.0102(4) 0.3312(4) 0.06250(11)
H10 H 0.9589(4) 0.2228(4) 0.05770(11)
C1D C 1.1587(3) 0.2620(4) 0.17442(9)
C2D C 1.2879(3) 0.3702(5) 0.20460(11)
H1D H 1.2821(3) 0.4505(5) 0.22215(11)
C3D C 1.4246(4) 0.3615(6) 0.20915(14)
H2D H 1.5068(4) 0.4345(6) 0.23006(14)
C4D C 1.4400(3) 0.2474(5) 0.18346(14)
H3D H 1.5317(3) 0.2424(5) 0.18663(14)
C5D C 1.3161(4) 0.1394(6) 0.15254(13)
H4D H 1.3241(4) 0.0607(6) 0.13469(13)
C6D C 1.1793(3) 0.1486(4) 0.14824(11)
H5D H 1.0981(3) 0.0756(4) 0.12693(11)
C7D C 0.9611(3) 0.3512(4) 0.21925(10)
C8D C 0.8822(4) 0.4375(6) 0.21599(14)
H6D H 0.8585(4) 0.4608(6) 0.18263(14)
C9D C 0.8387(5) 0.4892(6) 0.2607(2)
H7D H 0.7858(5) 0.5450(6) 0.2567(2)
C11D C 0.8721(5) 0.4595(8) 0.3101(2)
C10D C 0.9449(5) 0.3729(7) 0.31588(13)
H8D H 0.9647(5) 0.3484(7) 0.34965(13)
C12D C 0.9898(4) 0.3210(6) 0.27083(11)
H10D H 1.0411(4) 0.2639(6) 0.27563(11)
H9D H 0.8456(5) 0.4976(8) 0.3398(2)
C13 C 0.6377(4) 0.6377(4) 0.0000
N1 N 0.7742(5) 0.7742(5) 0.0000
N2 N 0.6015(4) 0.5395(4) 0.04081(13)
C14 C 0.8510(6) 0.8552(7) 0.0491(2)
H11 H 0.9468(6) 0.9502(7) 0.0407(2)
H12 H 0.8745(6) 0.7883(7) 0.0703(2)
H13 H 0.7824(6) 0.8804(7) 0.0685(2)
C15 C 0.4364(5) 0.4404(5) 0.0570(2)
H14 H 0.4306(5) 0.3768(5) 0.0868(2)
H15 H 0.3771(5) 0.3736(5) 0.0279(2)
H16 H 0.3936(5) 0.5060(5) 0.0667(2)
C16 C 0.7213(7) 0.5130(8) 0.0675(2)
H17 H 0.6728(7) 0.4387(8) 0.0958(2)
H18 H 0.8032(7) 0.6106(8) 0.0816(2)
H19 H 0.7654(7) 0.4726(8) 0.0422(2)
C14C C 0.8552(7) 0.8510(6) -0.0491(2)
H11C H 0.9502(7) 0.9468(6) -0.0407(2)
H12C H 0.7883(7) 0.8745(6) -0.0703(2)
H13C H 0.8804(7) 0.7824(6) -0.0685(2)
N2C N 0.5395(4) 0.6015(4) -0.04081(13)
C15C C 0.4404(5) 0.4364(5) -0.0570(2)
H14C H 0.3768(5) 0.4306(5) -0.0868(2)
H15C H 0.3736(5) 0.3771(5) -0.0279(2)
H16C H 0.5060(5) 0.3936(5) -0.0667(2)
C16C C 0.5130(8) 0.7213(7) -0.0675(2)
H17C H 0.4387(8) 0.6728(7) -0.0958(2)
H18C H 0.6106(8) 0.8032(7) -0.0816(2)
H19C H 0.4726(8) 0.7654(7) -0.0422(2)
N3? N 0.5015(15) 0.5015(15) 0.0000
N4? N 0.7489(22) 0.6450(26) 0.0364(8)
loop_
_geom_bond_atom_site_label_1
_geom_bond_atom_site_label_2
_geom_bond_site_symmetry_1
_geom_bond_site_symmetry_2
B1 C1 1_555 1_555
C1 C2 1_555 1_555
C2 H1 1_555 1_555
C3 C2 1_555 1_555
H2 C3 1_555 1_555
C4 C3 1_555 1_555
H3 C4 1_555 1_555
C5 C4 1_555 1_555
H4 C5 1_555 1_555
C6 C1 1_555 1_555
H5 C6 1_555 1_555
C7 B1 1_555 1_555
C8 C7 1_555 1_555
H6 C8 1_555 1_555
C9 C8 1_555 1_555
H7 C9 1_555 1_555
C10 H8 1_555 1_555
C11 C9 1_555 1_555
H9 C11 1_555 1_555
C12 C7 1_555 1_555
H10 C12 1_555 1_555
C13 N1 1_555 1_555
N1 C14 1_555 1_555
N2 C13 1_555 1_555
C14 H11 1_555 1_555
H12 C14 1_555 1_555
H13 C14 1_555 1_555
C15 N2 1_555 1_555
H14 C15 1_555 1_555
H15 C15 1_555 1_555
H16 C15 1_555 1_555
C16 N2 1_555 1_555
H17 C16 1_555 1_555
H18 C16 1_555 1_555
H19 C16 1_555 1_555
C1D B1 1_555 1_555
C2D C1D 1_555 1_555
H1D C2D 1_555 1_555
C3D C2D 1_555 1_555
H2D C3D 1_555 1_555
C4D C3D 1_555 1_555
H3D C4D 1_555 1_555
C5D C4D 1_555 1_555
H4D C5D 1_555 1_555
C6D C1D 1_555 1_555
H5D C6D 1_555 1_555
C7D B1 1_555 1_555
C8D C7D 1_555 1_555
H6D C8D 1_555 1_555
C9D C8D 1_555 1_555
H7D C9D 1_555 1_555
C11D C9D 1_555 1_555
C10D C11D 1_555 1_555
H8D C10D 1_555 1_555
C12D C7D 1_555 1_555
H10D C12D 1_555 1_555
H9D C11D 1_555 1_555
C14C N1 1_555 1_555
H11C C14C 1_555 1_555
H12C C14C 1_555 1_555
H13C C14C 1_555 1_555
N2C C13 1_555 1_555
C15C N2C 1_555 1_555
H14C C15C 1_555 1_555
H15C C15C 1_555 1_555
H16C C15C 1_555 1_555
C16C N2C 1_555 1_555
H17C C16C 1_555 1_555
H18C C16C 1_555 1_555
H19C C16C 1_555 1_555
C5 C6 1_555 1_555
C10 C11 1_555 1_555
C10 C12 1_555 1_555
C5D C6D 1_555 1_555
C10D C12D 1_555 1_555

#END
