
#######################################################################
#
#                 Cambridge Crystallographic Data Centre
#                                CCDC 
#
#######################################################################
#
# If this CIF has been generated from an entry in the Cambridge 
# Structural Database, then it will include bibliographic, chemical, 
# crystal, experimental, refinement or atomic coordinate data resulting 
# from the CCDC's data processing and validation procedures.
#
#######################################################################

data_PAZFAA
_chemical_formula_moiety         'C30 H34 N2 O6'
_chemical_name_systematic        
"4'-t-butyl 3'-ethyl 1-acetyl-1'-benzyl-5,5'-dimethyl-2-oxo-1,1',2,3'-tetrahydrospiro[indole-3,2'-pyrrole]-3',4'-dicarboxylate"
_symmetry_cell_setting           monoclinic
_symmetry_space_group_name_H-M   'P 21/n'
_symmetry_Int_Tables_number      14
_space_group_name_Hall           '-P 2yn'
loop_
_symmetry_equiv_pos_site_id
_symmetry_equiv_pos_as_xyz
1 x,y,z
2 1/2-x,1/2+y,1/2-z
3 -x,-y,-z
4 1/2+x,1/2-y,1/2+z
_cell_length_a                   11.13730(10)
_cell_length_b                   24.0612(2)
_cell_length_c                   11.22560(10)
_cell_angle_alpha                90
_cell_angle_beta                 112.9450(10)
_cell_angle_gamma                90
_cell_volume                     2770.19
_exptl_crystal_colour            colorless
_exptl_crystal_description       block
_cell_formula_units_Z            4
loop_
_atom_site_label
_atom_site_type_symbol
_atom_site_fract_x
_atom_site_fract_y
_atom_site_fract_z
O1 O 0.14931(10) 0.50620(4) 0.73371(10)
O2 O 0.22974(12) 0.39254(5) 0.84394(12)
O3 O 0.35442(12) 0.40105(5) 0.45352(10)
N1 N 0.52271(11) 0.44551(5) 0.72149(11)
O4 O 0.31145(12) 0.55893(5) 0.87184(13)
N2 N 0.41551(12) 0.31716(5) 0.56606(12)
O5 O 0.14829(14) 0.35594(6) 0.64596(14)
C1 C 0.35710(13) 0.47952(5) 0.76971(12)
C2 C 0.30221(12) 0.42896(5) 0.68745(12)
H1 H 0.2525 0.4418 0.5989
C3 C 0.48166(13) 0.48696(5) 0.78294(13)
C4 C 0.27535(14) 0.51925(5) 0.80041(13)
C5 C 0.47266(13) 0.34934(5) 0.77446(13)
C6 C 0.69050(13) 0.40009(6) 0.65998(15)
C7 C 0.42786(13) 0.39948(5) 0.68850(12)
C8 C 0.39593(13) 0.37496(6) 0.55278(14)
C9 C 0.21705(14) 0.38897(6) 0.72227(15)
C10 C 0.46182(14) 0.30210(6) 0.70014(15)
O6 O 0.4156(2) 0.23070(6) 0.48860(16)
C11 C 0.52138(14) 0.34609(6) 0.90760(14)
H2 H 0.5300 0.3781 0.9566
C12 C 0.66163(14) 0.43231(7) 0.76073(16)
H3 H 0.6905 0.4108 0.8401
H4 H 0.7111 0.4667 0.7787
C13 C 0.57000(16) 0.53453(6) 0.84424(17)
H5 H 0.6426 0.5216 0.9187
H6 H 0.5231 0.5622 0.8703
H7 H 0.6012 0.5504 0.7832
C14 C 0.04114(15) 0.53766(7) 0.74457(16)
C15 C 0.55767(17) 0.29485(6) 0.96855(16)
C16 C 0.65567(16) 0.42020(7) 0.53505(17)
H8 H 0.6103 0.4535 0.5116
C17 C 0.49585(18) 0.25057(6) 0.75840(19)
H9 H 0.4874 0.2186 0.7092
C18 C 0.75865(18) 0.35071(7) 0.69248(18)
H10 H 0.7824 0.3363 0.7754
C19 C 0.68752(19) 0.39139(8) 0.44556(18)
H11 H 0.6623 0.4050 0.3618
C20 C 0.54285(19) 0.24805(7) 0.89193(19)
H12 H 0.5654 0.2136 0.9320
C21 C 0.3976(2) 0.27935(8) 0.46528(19)
C22 C 0.7562(2) 0.34273(9) 0.4794(2)
H13 H 0.7786 0.3235 0.4191
C23 C 0.6128(2) 0.29084(8) 1.11433(19)
H14 H 0.5881 0.3232 1.1495
H15 H 0.7061 0.2886 1.1464
H16 H 0.5791 0.2582 1.1397
C24 C 0.7917(2) 0.32263(9) 0.6020(2)
H17 H 0.8387 0.2896 0.6251
C25 C -0.07599(18) 0.50442(9) 0.6578(2)
H18 H -0.0775 0.5034 0.5717
H19 H -0.1544 0.5216 0.6562
H20 H -0.0702 0.4672 0.6905
C26 C 0.0356(2) 0.59482(8) 0.6891(3)
H21 H 0.1064 0.6168 0.7468
H22 H -0.0457 0.6121 0.6782
H23 H 0.0427 0.5922 0.6067
C27 C 0.0519(3) 0.53714(16) 0.8815(2)
H24 H 0.0670 0.4998 0.9142
H25 H -0.0275 0.5509 0.8850
H26 H 0.1233 0.5604 0.9333
C28 C 0.3562(4) 0.30193(11) 0.3317(2)
H27 H 0.2747 0.3211 0.3089
H28 H 0.3460 0.2719 0.2721
H29 H 0.4212 0.3273 0.3279
C29 C 0.1524(3) 0.35323(12) 0.8827(3)
H30 H 0.0611 0.3633 0.8416
H31 H 0.1627 0.3164 0.8530
C30 C 0.1880(6) 0.3522(2) 1.0126(4)
H32 H 0.1347 0.3260 1.0341
H33 H 0.1766 0.3885 1.0421
H34 H 0.2779 0.3414 1.0536
H35? H 0.1097 0.3732 0.9303
H36? H 0.0848 0.3383 0.8053
C31? C 0.2179(10) 0.3118(4) 0.9537(8)
H37? H 0.1595 0.2880 0.9743
H38? H 0.2833 0.3260 1.0322
H39? H 0.2589 0.2911 0.9069
loop_
_geom_bond_atom_site_label_1
_geom_bond_atom_site_label_2
_geom_bond_site_symmetry_1
_geom_bond_site_symmetry_2
O1 C4 1_555 1_555
O2 C9 1_555 1_555
O3 C8 1_555 1_555
N1 C3 1_555 1_555
O4 C4 1_555 1_555
N2 C8 1_555 1_555
O5 C9 1_555 1_555
C1 C2 1_555 1_555
C2 H1 1_555 1_555
C3 C1 1_555 1_555
C4 C1 1_555 1_555
C5 C7 1_555 1_555
C6 C12 1_555 1_555
C7 N1 1_555 1_555
C8 C7 1_555 1_555
C9 C2 1_555 1_555
C10 N2 1_555 1_555
O6 C21 1_555 1_555
C11 C5 1_555 1_555
H2 C11 1_555 1_555
C12 N1 1_555 1_555
H3 C12 1_555 1_555
H4 C12 1_555 1_555
C13 C3 1_555 1_555
H5 C13 1_555 1_555
H6 C13 1_555 1_555
H7 C13 1_555 1_555
C14 O1 1_555 1_555
C15 C11 1_555 1_555
C16 C6 1_555 1_555
H8 C16 1_555 1_555
C17 C10 1_555 1_555
H9 C17 1_555 1_555
C18 C6 1_555 1_555
H10 C18 1_555 1_555
C19 C16 1_555 1_555
H11 C19 1_555 1_555
C20 C15 1_555 1_555
H12 C20 1_555 1_555
C21 N2 1_555 1_555
C22 C19 1_555 1_555
H13 C22 1_555 1_555
C23 C15 1_555 1_555
H14 C23 1_555 1_555
H15 C23 1_555 1_555
H16 C23 1_555 1_555
C24 C18 1_555 1_555
H17 C24 1_555 1_555
C25 C14 1_555 1_555
H18 C25 1_555 1_555
H19 C25 1_555 1_555
H20 C25 1_555 1_555
C26 C14 1_555 1_555
H21 C26 1_555 1_555
H22 C26 1_555 1_555
H23 C26 1_555 1_555
C27 C14 1_555 1_555
H24 C27 1_555 1_555
H25 C27 1_555 1_555
H26 C27 1_555 1_555
C28 C21 1_555 1_555
H27 C28 1_555 1_555
H28 C28 1_555 1_555
H29 C28 1_555 1_555
C29 O2 1_555 1_555
H30 C29 1_555 1_555
H31 C29 1_555 1_555
C30 C29 1_555 1_555
H32 C30 1_555 1_555
H33 C30 1_555 1_555
H34 C30 1_555 1_555
C2 C7 1_555 1_555
C5 C10 1_555 1_555
C17 C20 1_555 1_555
C22 C24 1_555 1_555

#END
