
#######################################################################
#
#                 Cambridge Crystallographic Data Centre
#                                CCDC 
#
#######################################################################
#
# If this CIF has been generated from an entry in the Cambridge 
# Structural Database, then it will include bibliographic, chemical, 
# crystal, experimental, refinement or atomic coordinate data resulting 
# from the CCDC's data processing and validation procedures.
#
#######################################################################

data_PAZHAC
_chemical_formula_moiety         'C23 H24 N8'
_chemical_name_systematic        
2-methyl-1-((2-methyl-5-((4-methylphenyl)diazenyl)-1H-imidazol-1-yl)methyl)-5-((4-methylphenyl)diazenyl)-1H-imidazole
_symmetry_cell_setting           monoclinic
_symmetry_space_group_name_H-M   'C 2/c'
_symmetry_Int_Tables_number      15
_space_group_name_Hall           '-C 2yn'
loop_
_symmetry_equiv_pos_site_id
_symmetry_equiv_pos_as_xyz
1 x,y,z
2 -x,y,1/2-z
3 1/2+x,1/2+y,z
4 1/2-x,1/2+y,1/2-z
5 -x,-y,-z
6 x,-y,1/2+z
7 1/2-x,1/2-y,-z
8 1/2+x,1/2-y,1/2+z
_cell_length_a                   32.126(5)
_cell_length_b                   5.1587(9)
_cell_length_c                   12.930(2)
_cell_angle_alpha                90
_cell_angle_beta                 92.521(3)
_cell_angle_gamma                90
_cell_volume                     2140.79
_exptl_crystal_colour            yellow
_exptl_crystal_description       block
_cell_formula_units_Z            4
loop_
_atom_site_label
_atom_site_type_symbol
_atom_site_fract_x
_atom_site_fract_y
_atom_site_fract_z
C1 C 0.48398(6) -0.1618(4) 0.11891(15)
C2 C 0.41710(7) -0.1516(4) 0.11229(16)
H1 H 0.3895 -0.1913 0.0945
C3 C 0.42953(6) 0.0391(4) 0.17899(14)
C4 C 0.52789(6) -0.2266(4) 0.09872(17)
H2 H 0.5408 -0.3062 0.1591
H3 H 0.5427 -0.0710 0.0826
H4 H 0.5286 -0.3444 0.0414
C5 C 0.35353(6) 0.4373(4) 0.28435(15)
C6 C 0.31696(7) 0.5495(5) 0.24697(18)
H5 H 0.3057 0.5016 0.1823
C7 C 0.29700(7) 0.7318(5) 0.3047(2)
H6 H 0.2725 0.8066 0.2780
C8 C 0.31267(7) 0.8059(4) 0.4013(2)
C9 C 0.34899(7) 0.6881(4) 0.43899(18)
H7 H 0.3598 0.7326 0.5045
C10 C 0.36950(6) 0.5060(4) 0.38168(15)
H8 H 0.3939 0.4299 0.4084
C11 C 0.29108(8) 1.0077(5) 0.4640(2)
H9 H 0.2989 1.1774 0.4415
H10 H 0.2991 0.9868 0.5359
H11 H 0.2615 0.9875 0.4545
C12 C 0.5000 0.1864(5) 0.2500
H12 H 0.5167 0.2969 0.2076
N1 N 0.47288(5) 0.0283(3) 0.18375(11)
N2 N 0.45072(6) -0.2773(3) 0.07490(14)
N3 N 0.41059(5) 0.2206(3) 0.24051(13)
N4 N 0.37258(5) 0.2545(3) 0.21817(13)
H12A H 0.4833 0.2969 0.2924
C1A C 0.51602(6) -0.1618(4) 0.38109(15)
C2A C 0.58290(7) -0.1516(4) 0.38771(16)
H1A H 0.6105 -0.1913 0.4055
C3A C 0.57047(6) 0.0391(4) 0.32101(14)
C4A C 0.47211(6) -0.2266(4) 0.40128(17)
H2A H 0.4592 -0.3062 0.3409
H3A H 0.4573 -0.0710 0.4174
H4A H 0.4714 -0.3444 0.4586
C5A C 0.64647(6) 0.4373(4) 0.21565(15)
C6A C 0.68304(7) 0.5495(5) 0.25303(18)
H5A H 0.6943 0.5016 0.3177
C7A C 0.70300(7) 0.7318(5) 0.1953(2)
H6A H 0.7275 0.8066 0.2220
C8A C 0.68733(7) 0.8059(4) 0.0987(2)
C9A C 0.65101(7) 0.6881(4) 0.06101(18)
H7A H 0.6402 0.7326 -0.0045
C10A C 0.63050(6) 0.5060(4) 0.11832(15)
H8A H 0.6061 0.4299 0.0916
C11A C 0.70892(8) 1.0077(5) 0.0360(2)
H9A H 0.7011 1.1774 0.0585
H10A H 0.7009 0.9868 -0.0359
H11A H 0.7385 0.9875 0.0455
N1A N 0.52712(5) 0.0283(3) 0.31625(11)
N2A N 0.54928(6) -0.2773(3) 0.42510(14)
N3A N 0.58941(5) 0.2206(3) 0.25949(13)
N4A N 0.62742(5) 0.2545(3) 0.28183(13)
H13? H 0.5167 0.2969 0.2076
loop_
_geom_bond_atom_site_label_1
_geom_bond_atom_site_label_2
_geom_bond_site_symmetry_1
_geom_bond_site_symmetry_2
C1 C4 1_555 1_555
C2 H1 1_555 1_555
C3 C2 1_555 1_555
C4 H2 1_555 1_555
H3 C4 1_555 1_555
H4 C4 1_555 1_555
C5 C6 1_555 1_555
C6 H5 1_555 1_555
C7 C6 1_555 1_555
H6 C7 1_555 1_555
C8 C7 1_555 1_555
C9 C8 1_555 1_555
H7 C9 1_555 1_555
C10 C5 1_555 1_555
H8 C10 1_555 1_555
C11 C8 1_555 1_555
H9 C11 1_555 1_555
H10 C11 1_555 1_555
H11 C11 1_555 1_555
C12 H12 1_555 1_555
N1 C1 1_555 1_555
N2 C1 1_555 1_555
N3 C3 1_555 1_555
N4 C5 1_555 1_555
H12A C12 1_555 1_555
C1A C4A 1_555 1_555
C2A H1A 1_555 1_555
C3A C2A 1_555 1_555
C4A H2A 1_555 1_555
H3A C4A 1_555 1_555
H4A C4A 1_555 1_555
C5A C6A 1_555 1_555
C6A H5A 1_555 1_555
C7A C6A 1_555 1_555
H6A C7A 1_555 1_555
C8A C7A 1_555 1_555
C9A C8A 1_555 1_555
H7A C9A 1_555 1_555
C10A C5A 1_555 1_555
H8A C10A 1_555 1_555
C11A C8A 1_555 1_555
H9A C11A 1_555 1_555
H10A C11A 1_555 1_555
H11A C11A 1_555 1_555
N1A C12 1_555 1_555
N2A C1A 1_555 1_555
N3A C3A 1_555 1_555
N4A C5A 1_555 1_555
C2 N2 1_555 1_555
C3 N1 1_555 1_555
C9 C10 1_555 1_555
C12 N1 1_555 1_555
N3 N4 1_555 1_555
C1A N1A 1_555 1_555
C2A N2A 1_555 1_555
C3A N1A 1_555 1_555
C9A C10A 1_555 1_555
N3A N4A 1_555 1_555

#END
