
#######################################################################
#
#                 Cambridge Crystallographic Data Centre
#                                CCDC 
#
#######################################################################
#
# If this CIF has been generated from an entry in the Cambridge 
# Structural Database, then it will include bibliographic, chemical, 
# crystal, experimental, refinement or atomic coordinate data resulting 
# from the CCDC's data processing and validation procedures.
#
#######################################################################

data_PAZHUT
_chemical_formula_moiety         'C18 H18 S8'
_chemical_name_systematic        4-bis(4',5,5'-Trimethyltetrathiafulvalenyl)
_symmetry_cell_setting           monoclinic
_symmetry_space_group_name_H-M   'C 2/c'
_symmetry_Int_Tables_number      15
_space_group_name_Hall           '-C 2yn'
loop_
_symmetry_equiv_pos_site_id
_symmetry_equiv_pos_as_xyz
1 x,y,z
2 1/2+x,1/2+y,z
3 x,-y,1/2+z
4 1/2+x,1/2-y,1/2+z
5 -x,-y,-z
6 1/2-x,1/2-y,-z
7 -x,y,1/2-z
8 1/2-x,1/2+y,1/2-z
_cell_length_a                   13.629(1)
_cell_length_b                   7.187(1)
_cell_length_c                   21.688(1)
_cell_angle_alpha                90
_cell_angle_beta                 91.82(1)
_cell_angle_gamma                90
_cell_volume                     2123.3
_exptl_crystal_colour            orange
_chemical_melting_point          190-192deg.C
_cell_formula_units_Z            4
loop_
_atom_site_label
_atom_site_type_symbol
_atom_site_fract_x
_atom_site_fract_y
_atom_site_fract_z
S1 S 0.11022(4) 0.04723(7) 0.28155(2)
S2 S 0.13006(4) 0.32341(7) 0.38230(2)
S3 S 0.26463(4) -0.22007(7) 0.34501(2)
S4 S 0.29099(4) 0.02858(7) 0.45325(2)
C1 C 0.16699(15) 0.1068(3) 0.35309(9)
C2 C 0.03489(14) 0.2479(3) 0.27658(9)
C3 C 0.04366(14) 0.3744(3) 0.32213(9)
C4 C 0.23244(14) -0.0095(3) 0.38068(9)
C5 C 0.34085(15) -0.3004(3) 0.40665(10)
C6 C 0.35274(15) -0.1880(3) 0.45558(10)
C7 C -0.0132(2) 0.5516(3) 0.32830(11)
H1 H -0.0681(20) 0.5611(37) 0.2973(13)
H2 H -0.0399(20) 0.5569(39) 0.3679(13)
H3 H 0.0284(21) 0.6508(41) 0.3219(13)
C8 C 0.3875(2) -0.4879(3) 0.39793(12)
H4 H 0.3504(27) -0.5617(49) 0.3691(17)
H5 H 0.3845(24) -0.5536(47) 0.4352(16)
H6 H 0.4517(30) -0.4771(53) 0.3881(18)
C9 C 0.4150(2) -0.2282(4) 0.51250(11)
H7 H 0.3826(21) -0.2004(39) 0.5478(14)
H8 H 0.4715(26) -0.1647(49) 0.5142(16)
H9 H 0.4302(22) -0.3587(47) 0.5147(14)
C2F C -0.03489(14) 0.2479(3) 0.22342(9)
S1F S -0.11022(4) 0.04723(7) 0.21845(2)
C1F C -0.16699(15) 0.1068(3) 0.14691(9)
S2F S -0.13006(4) 0.32341(7) 0.11770(2)
C3F C -0.04366(14) 0.3744(3) 0.17787(9)
C7F C 0.0132(2) 0.5516(3) 0.17170(11)
H1F H 0.0681(20) 0.5611(37) 0.2027(13)
H2F H 0.0399(20) 0.5569(39) 0.1321(13)
H3F H -0.0284(21) 0.6508(41) 0.1781(13)
C4F C -0.23244(14) -0.0095(3) 0.11932(9)
S3F S -0.26463(4) -0.22007(7) 0.15499(2)
C5F C -0.34085(15) -0.3004(3) 0.09335(10)
C6F C -0.35274(15) -0.1880(3) 0.04442(10)
S4F S -0.29099(4) 0.02858(7) 0.04675(2)
C9F C -0.4150(2) -0.2282(4) -0.01250(11)
H7F H -0.3826(21) -0.2004(39) -0.0478(14)
H8F H -0.4715(26) -0.1647(49) -0.0142(16)
H9F H -0.4302(22) -0.3587(47) -0.0147(14)
C8F C -0.3875(2) -0.4879(3) 0.10207(12)
H4F H -0.3504(27) -0.5617(49) 0.1309(17)
H5F H -0.3845(24) -0.5536(47) 0.0648(16)
H6F H -0.4517(30) -0.4771(53) 0.1119(18)
loop_
_geom_bond_atom_site_label_1
_geom_bond_atom_site_label_2
_geom_bond_site_symmetry_1
_geom_bond_site_symmetry_2
S1 C1 1_555 1_555
S2 C1 1_555 1_555
S3 C4 1_555 1_555
S4 C4 1_555 1_555
C1 C4 1_555 1_555
C2 S1 1_555 1_555
C3 S2 1_555 1_555
C5 S3 1_555 1_555
C6 S4 1_555 1_555
C7 C3 1_555 1_555
H1 C7 1_555 1_555
H2 C7 1_555 1_555
H3 C7 1_555 1_555
C8 C5 1_555 1_555
H4 C8 1_555 1_555
H5 C8 1_555 1_555
H6 C8 1_555 1_555
C9 C6 1_555 1_555
H7 C9 1_555 1_555
H8 C9 1_555 1_555
H9 C9 1_555 1_555
C2F C2 1_555 1_555
S1F C2F 1_555 1_555
C1F S1F 1_555 1_555
S2F C1F 1_555 1_555
C3F C2F 1_555 1_555
C7F C3F 1_555 1_555
H1F C7F 1_555 1_555
H2F C7F 1_555 1_555
H3F C7F 1_555 1_555
C4F C1F 1_555 1_555
S3F C4F 1_555 1_555
C5F S3F 1_555 1_555
C6F C5F 1_555 1_555
S4F C4F 1_555 1_555
C9F C6F 1_555 1_555
H7F C9F 1_555 1_555
H8F C9F 1_555 1_555
H9F C9F 1_555 1_555
C8F C5F 1_555 1_555
H4F C8F 1_555 1_555
H5F C8F 1_555 1_555
H6F C8F 1_555 1_555
C2 C3 1_555 1_555
C5 C6 1_555 1_555
S2F C3F 1_555 1_555
C6F S4F 1_555 1_555

#END
