
#######################################################################
#
#                 Cambridge Crystallographic Data Centre
#                                CCDC 
#
#######################################################################
#
# If this CIF has been generated from an entry in the Cambridge 
# Structural Database, then it will include bibliographic, chemical, 
# crystal, experimental, refinement or atomic coordinate data resulting 
# from the CCDC's data processing and validation procedures.
#
#######################################################################

data_PAZNUA
_chemical_formula_moiety         'C32 H36 N4 Se2'
_chemical_name_systematic        
14,33-Diselena-3,6,22,25-tetra-azapentacyclo[32.4.0.0^8,13^.0^15,20^.0^27,32^]octatriaconta-1(38),8,10,12,15,17,19,27,29,31,34,36-dodecaene
_symmetry_cell_setting           monoclinic
_symmetry_space_group_name_H-M   'P 2/n'
_symmetry_Int_Tables_number      13
_space_group_name_Hall           '-P 2yac'
loop_
_symmetry_equiv_pos_site_id
_symmetry_equiv_pos_as_xyz
1 x,y,z
2 1/2-x,y,1/2-z
3 -x,-y,-z
4 1/2+x,-y,1/2+z
_cell_length_a                   16.3985(14)
_cell_length_b                   5.0714(4)
_cell_length_c                   18.2454(15)
_cell_angle_alpha                90
_cell_angle_beta                 104.4830(10)
_cell_angle_gamma                90
_cell_volume                     1469.13
_exptl_crystal_colour            colorless
_exptl_crystal_description       needle
_cell_formula_units_Z            2
loop_
_atom_site_label
_atom_site_type_symbol
_atom_site_fract_x
_atom_site_fract_y
_atom_site_fract_z
Se1 Se 0.154790(17) 0.18382(6) 0.328992(16)
N1 N 0.32591(13) 0.0250(4) 0.42315(12)
H1 H 0.3463(15) -0.106(5) 0.4015(14)
N2 N 0.11113(14) 0.4809(5) 0.14700(13)
H2 H 0.1518(16) 0.383(5) 0.1694(15)
C1 C 0.15911(15) 0.2597(4) 0.43330(14)
C2 C 0.10739(16) 0.4522(5) 0.45204(16)
H3 H 0.0693 0.5416 0.4138
C3 C 0.11197(18) 0.5121(6) 0.52678(18)
H4 H 0.0767 0.6398 0.5388
C4 C 0.16909(19) 0.3817(6) 0.58354(17)
H5 H 0.1725 0.4206 0.6340
C5 C 0.22118(18) 0.1930(6) 0.56485(16)
H6 H 0.2599 0.1072 0.6035
C6 C 0.21755(15) 0.1275(5) 0.49014(15)
C7 C 0.27464(17) -0.0813(5) 0.47143(16)
H7 H 0.3112 -0.1485 0.5179
H8 H 0.2409 -0.2267 0.4457
C8 C 0.39200(15) 0.2030(5) 0.46326(14)
H9 H 0.4296 0.1087 0.5044
H10 H 0.3669 0.3471 0.4849
C9 C 0.03547(16) 0.2439(5) 0.28738(14)
C10 C -0.02305(18) 0.0935(5) 0.31243(16)
H11 H -0.0043 -0.0279 0.3512
C11 C -0.10826(19) 0.1201(6) 0.28116(18)
H12 H -0.1464 0.0181 0.2989
C12 C -0.13663(19) 0.2984(7) 0.22355(18)
H13 H -0.1940 0.3166 0.2016
C13 C -0.07919(19) 0.4491(6) 0.19893(15)
H14 H -0.0987 0.5703 0.1603
C14 C 0.00707(17) 0.4272(5) 0.22965(15)
C15 C 0.06642(19) 0.6030(5) 0.19916(16)
H15 H 0.0341 0.7509 0.1733
H16 H 0.1082 0.6735 0.2420
C16 C 0.44189(15) 0.3127(6) 0.41065(14)
H17 H 0.4892 0.4142 0.4397
H18 H 0.4639 0.1686 0.3864
Se1A Se 0.345210(17) 0.18382(6) 0.171008(16)
N1A N 0.17409(13) 0.0250(4) 0.07685(12)
H1A H 0.1537(15) -0.106(5) 0.0985(14)
N2A N 0.38887(14) 0.4809(5) 0.35300(13)
H2A H 0.3482(16) 0.383(5) 0.3306(15)
C1A C 0.34089(15) 0.2597(4) 0.06670(14)
C2A C 0.39261(16) 0.4522(5) 0.04796(16)
H3A H 0.4307 0.5416 0.0862
C3A C 0.38803(18) 0.5121(6) -0.02678(18)
H4A H 0.4233 0.6398 -0.0388
C4A C 0.33091(19) 0.3817(6) -0.08354(17)
H5A H 0.3275 0.4206 -0.1340
C5A C 0.27882(18) 0.1930(6) -0.06485(16)
H6A H 0.2401 0.1072 -0.1035
C6A C 0.28245(15) 0.1275(5) 0.00986(15)
C7A C 0.22536(17) -0.0813(5) 0.02857(16)
H7A H 0.1888 -0.1485 -0.0179
H8A H 0.2591 -0.2267 0.0543
C8A C 0.10800(15) 0.2030(5) 0.03674(14)
H9A H 0.0704 0.1087 -0.0044
H10A H 0.1331 0.3471 0.0151
C9A C 0.46453(16) 0.2439(5) 0.21262(14)
C10A C 0.52305(18) 0.0935(5) 0.18757(16)
H11A H 0.5043 -0.0279 0.1488
C11A C 0.60826(19) 0.1201(6) 0.21884(18)
H12A H 0.6464 0.0181 0.2011
C12A C 0.63663(19) 0.2984(7) 0.27645(18)
H13A H 0.6940 0.3166 0.2984
C13A C 0.57919(19) 0.4491(6) 0.30107(15)
H14A H 0.5987 0.5703 0.3397
C14A C 0.49293(17) 0.4272(5) 0.27035(15)
C15A C 0.43358(19) 0.6030(5) 0.30084(16)
H15A H 0.4659 0.7509 0.3267
H16A H 0.3918 0.6735 0.2580
C16A C 0.05811(15) 0.3127(6) 0.08935(14)
H17A H 0.0108 0.4142 0.0603
H18A H 0.0361 0.1686 0.1136
loop_
_geom_bond_atom_site_label_1
_geom_bond_atom_site_label_2
_geom_bond_site_symmetry_1
_geom_bond_site_symmetry_2
Se1 C1 1_555 1_555
N1 H1 1_555 1_555
N2 H2 1_555 1_555
C1 C2 1_555 1_555
C2 H3 1_555 1_555
C3 C2 1_555 1_555
H4 C3 1_555 1_555
C4 C3 1_555 1_555
H5 C4 1_555 1_555
C5 C4 1_555 1_555
H6 C5 1_555 1_555
C6 C1 1_555 1_555
C7 N1 1_555 1_555
H7 C7 1_555 1_555
H8 C7 1_555 1_555
C8 N1 1_555 1_555
H9 C8 1_555 1_555
H10 C8 1_555 1_555
C9 Se1 1_555 1_555
C10 C9 1_555 1_555
H11 C10 1_555 1_555
C11 C10 1_555 1_555
H12 C11 1_555 1_555
C12 C11 1_555 1_555
H13 C12 1_555 1_555
C13 C12 1_555 1_555
H14 C13 1_555 1_555
C14 C9 1_555 1_555
C15 N2 1_555 1_555
H15 C15 1_555 1_555
H16 C15 1_555 1_555
C16 C8 1_555 1_555
H17 C16 1_555 1_555
H18 C16 1_555 1_555
Se1A C1A 1_555 1_555
N1A H1A 1_555 1_555
N2A C16 1_555 1_555
H2A N2A 1_555 1_555
C1A C2A 1_555 1_555
C2A H3A 1_555 1_555
C3A C2A 1_555 1_555
H4A C3A 1_555 1_555
C4A C3A 1_555 1_555
H5A C4A 1_555 1_555
C5A C4A 1_555 1_555
H6A C5A 1_555 1_555
C6A C1A 1_555 1_555
C7A N1A 1_555 1_555
H7A C7A 1_555 1_555
H8A C7A 1_555 1_555
C8A N1A 1_555 1_555
H9A C8A 1_555 1_555
H10A C8A 1_555 1_555
C9A Se1A 1_555 1_555
C10A C9A 1_555 1_555
H11A C10A 1_555 1_555
C11A C10A 1_555 1_555
H12A C11A 1_555 1_555
C12A C11A 1_555 1_555
H13A C12A 1_555 1_555
C13A C12A 1_555 1_555
H14A C13A 1_555 1_555
C14A C9A 1_555 1_555
C15A N2A 1_555 1_555
H15A C15A 1_555 1_555
H16A C15A 1_555 1_555
C16A N2 1_555 1_555
H17A C16A 1_555 1_555
H18A C16A 1_555 1_555
C5 C6 1_555 1_555
C6 C7 1_555 1_555
C13 C14 1_555 1_555
C14 C15 1_555 1_555
C5A C6A 1_555 1_555
C6A C7A 1_555 1_555
C8A C16A 1_555 1_555
C13A C14A 1_555 1_555
C14A C15A 1_555 1_555

#END
