
#######################################################################
#
#                 Cambridge Crystallographic Data Centre
#                                CCDC 
#
#######################################################################
#
# If this CIF has been generated from an entry in the Cambridge 
# Structural Database, then it will include bibliographic, chemical, 
# crystal, experimental, refinement or atomic coordinate data resulting 
# from the CCDC's data processing and validation procedures.
#
#######################################################################

data_PAZOXN12
_chemical_formula_moiety         'C14 H14 N2 O3'
_chemical_name_systematic        
1-Hydroxy-1,2-bis(4-methoxyphenyl)-1\l^5^-diazene
_symmetry_cell_setting           monoclinic
_symmetry_space_group_name_H-M   'P n'
_symmetry_Int_Tables_number      7
_space_group_name_Hall           'P -2yac'
loop_
_symmetry_equiv_pos_site_id
_symmetry_equiv_pos_as_xyz
1 x,y,z
2 1/2+x,-y,1/2+z
_cell_length_a                   11.0245(8)
_cell_length_b                   8.1166(5)
_cell_length_c                   15.0455(11)
_cell_angle_alpha                90
_cell_angle_beta                 107.190(3)
_cell_angle_gamma                90
_cell_volume                     1286.15
_exptl_crystal_colour            yellow
_exptl_crystal_description       plate
_cell_formula_units_Z            4
loop_
_atom_site_label
_atom_site_type_symbol
_atom_site_fract_x
_atom_site_fract_y
_atom_site_fract_z
C1 C 0.8861(7) 0.9351(9) 0.0887(5)
C2 C 0.8014(7) 0.8587(8) 0.1218(5)
H1 H 0.7334 0.8054 0.0801
C3 C 0.8102(6) 0.8555(7) 0.2135(4)
H2 H 0.7490 0.8019 0.2342
C4 C 0.9130(5) 0.9343(6) 0.2763(4)
C5 C 1.0055(6) 1.0049(8) 0.2445(5)
H3 H 1.0776 1.0498 0.2863
C6 C 0.9904(7) 1.0088(8) 0.1495(5)
H4 H 1.0506 1.0609 0.1271
C7 C 1.0230(8) 0.9929(9) 0.4375(5)
H5 H 1.1006 0.9481 0.4311
H6 H 1.0157 0.9655 0.4978
H7 H 1.0235 1.1105 0.4309
C8 C 0.8990(6) 0.9392(8) -0.1536(4)
C9 C 0.9487(7) 1.0337(8) -0.2055(5)
H8 H 0.9946 1.1265 -0.1788
C10 C 0.9354(6) 1.0005(7) -0.2949(4)
H9 H 0.9727 1.0695 -0.3287
C11 C 0.8671(6) 0.8653(6) -0.3376(4)
C12 C 0.8080(5) 0.7655(7) -0.2869(4)
H10 H 0.7587 0.6759 -0.3147
C13 C 0.8253(5) 0.8043(8) -0.1919(4)
H11 H 0.7877 0.7402 -0.1561
C14 C 0.7875(8) 0.7018(9) -0.4755(5)
H12 H 0.8187 0.6013 -0.4432
H13 H 0.7930 0.6957 -0.5379
H14 H 0.7006 0.7178 -0.4771
N1 N 0.8623(5) 0.9045(6) -0.0120(3)
N2 N 0.9241(4) 0.9903(5) -0.0405(7)
O1 O 0.9954(4) 1.1113(5) -0.0237(3)
O2 O 0.9176(4) 0.9251(5) 0.3672(3)
O3 O 0.8633(4) 0.8390(6) -0.4275(3)
C15 C 1.1263(6) 0.5666(7) -0.5709(4)
C16 C 1.2166(5) 0.6436(6) -0.6056(5)
H15 H 1.2861 0.6967 -0.5653
C17 C 1.2022(6) 0.6402(7) -0.6987(5)
H16 H 1.2643 0.6901 -0.7200
C18 C 1.1002(6) 0.5667(7) -0.7634(5)
C19 C 1.0132(5) 0.4826(6) -0.7287(4)
H17 H 0.9461 0.4258 -0.7693
C20 C 1.0260(6) 0.4832(8) -0.6350(5)
H18 H 0.9668 0.4270 -0.6133
C21 C 0.9908(6) 0.5068(8) -0.9194(5)
H19 H 0.9907 0.3899 -0.9097
H20 H 0.9946 0.5288 -0.9812
H21 H 0.9147 0.5538 -0.9116
C22 C 1.1200(6) 0.5585(7) -0.3322(4)
C23 C 1.1914(6) 0.6941(9) -0.2902(4)
H22 H 1.2299 0.7604 -0.3246
C24 C 1.2055(6) 0.7306(7) -0.1997(4)
H23 H 1.2551 0.8201 -0.1722
C25 C 1.1480(5) 0.6376(7) -0.1489(4)
C26 C 1.0712(6) 0.5037(7) -0.1905(5)
H24 H 1.0307 0.4420 -0.1556
C27 C 1.0551(6) 0.4622(8) -0.2820(5)
H25 H 1.0036 0.3744 -0.3098
C28 C 1.2267(6) 0.7935(8) -0.0094(5)
H26 H 1.3139 0.7821 -0.0079
H27 H 1.2207 0.7934 0.0529
H28 H 1.1936 0.8954 -0.0393
N3 N 1.0949(4) 0.5105(6) -0.4281(3)
N4 N 1.1508(5) 0.5990(6) -0.4640(6)
O4 O 1.0205(5) 0.3890(5) -0.4635(3)
O5 O 1.0985(4) 0.5780(5) -0.8535(3)
O6 O 1.1561(5) 0.6615(5) -0.0592(3)
loop_
_geom_bond_atom_site_label_1
_geom_bond_atom_site_label_2
_geom_bond_site_symmetry_1
_geom_bond_site_symmetry_2
C1 C2 1_555 1_555
C2 H1 1_555 1_555
C3 C2 1_555 1_555
H2 C3 1_555 1_555
C4 C3 1_555 1_555
C5 C4 1_555 1_555
H3 C5 1_555 1_555
C6 C1 1_555 1_555
H4 C6 1_555 1_555
C7 H5 1_555 1_555
H6 C7 1_555 1_555
H7 C7 1_555 1_555
C8 C9 1_555 1_555
C9 H8 1_555 1_555
C10 C9 1_555 1_555
H9 C10 1_555 1_555
C11 C10 1_555 1_555
C12 C11 1_555 1_555
H10 C12 1_555 1_555
C13 C8 1_555 1_555
H11 C13 1_555 1_555
C14 H12 1_555 1_555
H13 C14 1_555 1_555
H14 C14 1_555 1_555
N1 C1 1_555 1_555
N2 C8 1_555 1_555
O1 N2 1_555 1_555
O2 C4 1_555 1_555
O3 C11 1_555 1_555
C15 C16 1_555 1_555
C16 H15 1_555 1_555
C17 C16 1_555 1_555
H16 C17 1_555 1_555
C18 C17 1_555 1_555
C19 C18 1_555 1_555
H17 C19 1_555 1_555
C20 C15 1_555 1_555
H18 C20 1_555 1_555
C21 H19 1_555 1_555
H20 C21 1_555 1_555
H21 C21 1_555 1_555
C22 C23 1_555 1_555
C23 H22 1_555 1_555
C24 C23 1_555 1_555
H23 C24 1_555 1_555
C25 C24 1_555 1_555
C26 C25 1_555 1_555
H24 C26 1_555 1_555
C27 C22 1_555 1_555
H25 C27 1_555 1_555
C28 H26 1_555 1_555
H27 C28 1_555 1_555
H28 C28 1_555 1_555
N3 C22 1_555 1_555
N4 C15 1_555 1_555
O4 N3 1_555 1_555
O5 C18 1_555 1_555
O6 C25 1_555 1_555
C5 C6 1_555 1_555
C7 O2 1_555 1_555
C12 C13 1_555 1_555
C14 O3 1_555 1_555
N1 N2 1_555 1_555
C19 C20 1_555 1_555
C21 O5 1_555 1_555
C26 C27 1_555 1_555
C28 O6 1_555 1_555
N3 N4 1_555 1_555

#END
