
#######################################################################
#
#                 Cambridge Crystallographic Data Centre
#                                CCDC 
#
#######################################################################
#
# If this CIF has been generated from an entry in the Cambridge 
# Structural Database, then it will include bibliographic, chemical, 
# crystal, experimental, refinement or atomic coordinate data resulting 
# from the CCDC's data processing and validation procedures.
#
#######################################################################

data_PAZWAQ
_chemical_formula_moiety         'C21 H17 N1 O5'
_chemical_name_systematic        
'Dimethyl 4-(4-methylbenzoyl)quinoline-2,3-dicarboxylate'
_symmetry_cell_setting           monoclinic
_symmetry_space_group_name_H-M   'P 21/c'
_symmetry_Int_Tables_number      14
_space_group_name_Hall           '-P 2ybc'
loop_
_symmetry_equiv_pos_site_id
_symmetry_equiv_pos_as_xyz
1 x,y,z
2 -x,1/2+y,1/2-z
3 -x,-y,-z
4 x,1/2-y,1/2+z
_cell_length_a                   10.775(13)
_cell_length_b                   21.81(3)
_cell_length_c                   8.143(10)
_cell_angle_alpha                90
_cell_angle_beta                 108.880(14)
_cell_angle_gamma                90
_cell_volume                     1810.67
_exptl_crystal_colour            colorless
_exptl_crystal_description       block
_cell_formula_units_Z            4
loop_
_atom_site_label
_atom_site_type_symbol
_atom_site_fract_x
_atom_site_fract_y
_atom_site_fract_z
C1 C 0.6889(5) 0.2489(2) 0.6150(6)
C2 C 0.6018(6) 0.2044(3) 0.6391(7)
H1 H 0.6241 0.1631 0.6434
C3 C 0.4853(6) 0.2216(3) 0.6560(8)
H2 H 0.4278 0.1917 0.6698
C4 C 0.4509(6) 0.2829(3) 0.6531(8)
H3 H 0.3708 0.2938 0.6648
C5 C 0.5332(5) 0.3269(2) 0.6334(7)
H4 H 0.5085 0.3678 0.6303
C6 C 0.6568(5) 0.3116(2) 0.6173(6)
C7 C 0.7466(5) 0.3553(2) 0.5939(5)
C8 C 0.8608(5) 0.3350(2) 0.5715(6)
C9 C 0.8843(5) 0.2716(2) 0.5725(6)
C10 C 1.0132(5) 0.2486(3) 0.5648(6)
C11 C 1.1307(6) 0.1656(3) 0.5071(8)
H5 H 1.1699 0.1904 0.4395
H6 H 1.1160 0.1250 0.4595
H7 H 1.1885 0.1638 0.6248
C12 C 0.9549(5) 0.3819(2) 0.5465(7)
C13 C 1.0631(7) 0.4201(3) 0.3602(9)
H8 H 1.0516 0.4596 0.4054
H9 H 1.0475 0.4233 0.2376
H10 H 1.1510 0.4060 0.4166
C14 C 0.7145(4) 0.4222(2) 0.5794(6)
C15 C 0.7021(4) 0.4568(2) 0.7280(6)
C16 C 0.7474(5) 0.4343(2) 0.8976(6)
H11 H 0.7885 0.3963 0.9201
C17 C 0.7311(5) 0.4686(2) 1.0328(6)
H12 H 0.7623 0.4532 1.1453
C18 C 0.6700(5) 0.5247(2) 1.0046(6)
C19 C 0.6244(5) 0.5464(2) 0.8356(7)
H13 H 0.5818 0.5841 0.8131
C20 C 0.6411(5) 0.5133(2) 0.7006(6)
H14 H 0.6108 0.5292 0.5887
C21 C 0.6513(5) 0.5613(2) 1.1508(7)
H15 H 0.7338 0.5784 1.2195
H16 H 0.6184 0.5350 1.2220
H17 H 0.5898 0.5937 1.1045
N1 N 0.8030(4) 0.22942(19) 0.5933(5)
O1 O 1.1130(4) 0.2781(2) 0.6157(6)
O2 O 1.0078(4) 0.19228(17) 0.5034(5)
O3 O 1.0038(4) 0.42091(17) 0.6504(5)
O4 O 0.9713(4) 0.37710(18) 0.3919(5)
O5 O 0.6936(4) 0.44623(17) 0.4379(5)
loop_
_geom_bond_atom_site_label_1
_geom_bond_atom_site_label_2
_geom_bond_site_symmetry_1
_geom_bond_site_symmetry_2
C1 C2 1_555 1_555
C2 H1 1_555 1_555
C3 C2 1_555 1_555
H2 C3 1_555 1_555
C4 C3 1_555 1_555
H3 C4 1_555 1_555
C5 C4 1_555 1_555
H4 C5 1_555 1_555
C6 C1 1_555 1_555
C7 C6 1_555 1_555
C8 C7 1_555 1_555
C9 C8 1_555 1_555
C10 C9 1_555 1_555
C11 H5 1_555 1_555
H6 C11 1_555 1_555
H7 C11 1_555 1_555
C12 C8 1_555 1_555
C13 H8 1_555 1_555
H9 C13 1_555 1_555
H10 C13 1_555 1_555
C14 C7 1_555 1_555
C15 C14 1_555 1_555
C16 C15 1_555 1_555
H11 C16 1_555 1_555
C17 C16 1_555 1_555
H12 C17 1_555 1_555
C18 C17 1_555 1_555
C19 C18 1_555 1_555
H13 C19 1_555 1_555
C20 C15 1_555 1_555
H14 C20 1_555 1_555
C21 C18 1_555 1_555
H15 C21 1_555 1_555
H16 C21 1_555 1_555
H17 C21 1_555 1_555
N1 C1 1_555 1_555
O1 C10 1_555 1_555
O2 C10 1_555 1_555
O3 C12 1_555 1_555
O4 C12 1_555 1_555
O5 C14 1_555 1_555
C5 C6 1_555 1_555
C9 N1 1_555 1_555
C11 O2 1_555 1_555
C13 O4 1_555 1_555
C19 C20 1_555 1_555

#END
