
#######################################################################
#
#                 Cambridge Crystallographic Data Centre
#                                CCDC 
#
#######################################################################
#
# If this CIF has been generated from an entry in the Cambridge 
# Structural Database, then it will include bibliographic, chemical, 
# crystal, experimental, refinement or atomic coordinate data resulting 
# from the CCDC's data processing and validation procedures.
#
#######################################################################

data_PAZXAR
_chemical_formula_moiety         'C31 H31 Br1 N2 O7'
_chemical_name_systematic        
'Dibenzyl (6-bromo-3-((t-butoxycarbonyl)amino)-1-methyl-2-oxo-2,3-dihydro-1H-indol-3-yl)malonate'
_symmetry_cell_setting           monoclinic
_symmetry_space_group_name_H-M   'P 21'
_symmetry_Int_Tables_number      4
_space_group_name_Hall           'P 2yb'
loop_
_symmetry_equiv_pos_site_id
_symmetry_equiv_pos_as_xyz
1 x,y,z
2 -x,1/2+y,-z
_cell_length_a                   10.731(17)
_cell_length_b                   8.960(14)
_cell_length_c                   15.53(2)
_cell_angle_alpha                90
_cell_angle_beta                 97.637(16)
_cell_angle_gamma                90
_cell_volume                     1479.96
_exptl_crystal_colour            colorless
_exptl_crystal_description       block
_cell_formula_units_Z            2
loop_
_atom_site_label
_atom_site_type_symbol
_atom_site_fract_x
_atom_site_fract_y
_atom_site_fract_z
Br1 Br 0.74752(7) 0.79079(13) -0.13048(5)
C1 C 0.6113(7) 0.8953(8) 0.0970(5)
C2 C 0.6624(7) 0.9101(8) 0.0198(5)
H1 H 0.6799 1.0028 -0.0025
C3 C 0.6853(5) 0.7800(12) -0.0212(4)
C4 C 0.6621(7) 0.6416(9) 0.0107(5)
H2 H 0.6811 0.5560 -0.0188
C5 C 0.6089(7) 0.6305(8) 0.0889(5)
H3 H 0.5910 0.5377 0.1111
C6 C 0.5844(5) 0.7584(8) 0.1312(4)
C7 C 0.5245(5) 0.7856(9) 0.2125(3)
C8 C 0.5185(6) 0.9589(8) 0.2161(5)
C9 C 0.3019(6) 0.7558(8) 0.1506(4)
C10 C 0.0714(6) 0.7338(9) 0.1251(5)
C11 C 0.0675(7) 0.6964(12) 0.0313(5)
H4 H 0.1178 0.7667 0.0044
H5 H -0.0177 0.7008 0.0033
H6 H 0.1001 0.5976 0.0257
C12 C 0.0437(9) 0.8925(10) 0.1404(7)
H7 H 0.0464 0.9098 0.2016
H8 H -0.0385 0.9167 0.1114
H9 H 0.1052 0.9542 0.1180
C13 C -0.0132(7) 0.6344(11) 0.1697(6)
H10 H 0.0012 0.5321 0.1555
H11 H -0.0994 0.6598 0.1507
H12 H 0.0046 0.6479 0.2315
C14 C 0.6109(6) 1.1664(7) 0.1401(5)
H13 H 0.5659 1.2266 0.1767
H14 H 0.5910 1.1985 0.0809
H15 H 0.6996 1.1766 0.1579
C15 C 0.5983(5) 0.7353(6) 0.2994(4)
H16 H 0.5531 0.7753 0.3452
C16 C 0.7312(5) 0.7930(11) 0.3180(4)
C17 C 0.9098(5) 0.7928(14) 0.4250(4)
H17 H 0.9192 0.8967 0.4093
H18 H 0.9714 0.7345 0.3992
C18 C 0.9304(6) 0.7760(10) 0.5219(4)
C19 C 0.8491(7) 0.7033(9) 0.5681(6)
H19 H 0.7762 0.6617 0.5387
C20 C 0.8727(9) 0.6901(10) 0.6578(6)
H20 H 0.8156 0.6405 0.6877
C21 C 0.9772(9) 0.7482(11) 0.7016(5)
H21 H 0.9947 0.7379 0.7616
C22 C 1.0571(7) 0.8229(14) 0.6559(6)
H22 H 1.1292 0.8651 0.6859
C23 C 1.0357(7) 0.8389(10) 0.5668(5)
H23 H 1.0920 0.8916 0.5378
C24 C 0.5990(7) 0.5660(8) 0.3097(5)
C25 C 0.5002(7) 0.3649(8) 0.3765(5)
H24 H 0.5126 0.3107 0.3242
H25 H 0.4154 0.3451 0.3886
C26 C 0.5919(6) 0.3104(9) 0.4504(4)
C27 C 0.6498(7) 0.1756(9) 0.4459(5)
H26 H 0.6349 0.1205 0.3948
C28 C 0.7294(8) 0.1192(9) 0.5144(7)
H27 H 0.7674 0.0268 0.5097
C29 C 0.7528(8) 0.1988(12) 0.5896(6)
H28 H 0.8072 0.1611 0.6361
C30 C 0.6969(8) 0.3326(11) 0.5966(5)
H29 H 0.7127 0.3880 0.6475
C31 C 0.6162(8) 0.3852(9) 0.5272(6)
H30 H 0.5764 0.4762 0.5328
N1 N 0.3998(4) 0.7201(5) 0.2109(3)
H31 H 0.3882 0.6558 0.2501
N2 N 0.5748(5) 1.0111(6) 0.1473(4)
O1 O 0.7796(5) 0.8770(6) 0.2745(3)
O2 O 0.7844(4) 0.7416(6) 0.3929(3)
O3 O 0.6610(5) 0.4818(5) 0.2755(3)
O4 O 0.5142(4) 0.5239(5) 0.3617(3)
O5 O 0.4771(4) 1.0323(5) 0.2704(3)
O6 O 0.3127(4) 0.8315(6) 0.0890(3)
O7 O 0.1966(4) 0.6987(5) 0.1730(3)
loop_
_geom_bond_atom_site_label_1
_geom_bond_atom_site_label_2
_geom_bond_site_symmetry_1
_geom_bond_site_symmetry_2
Br1 C3 1_555 1_555
C1 C2 1_555 1_555
C2 H1 1_555 1_555
C3 C2 1_555 1_555
C4 C3 1_555 1_555
H2 C4 1_555 1_555
C5 C4 1_555 1_555
H3 C5 1_555 1_555
C6 C1 1_555 1_555
C7 C6 1_555 1_555
C8 C7 1_555 1_555
C9 N1 1_555 1_555
C10 C11 1_555 1_555
C11 H4 1_555 1_555
H5 C11 1_555 1_555
H6 C11 1_555 1_555
C12 C10 1_555 1_555
H7 C12 1_555 1_555
H8 C12 1_555 1_555
H9 C12 1_555 1_555
C13 C10 1_555 1_555
H10 C13 1_555 1_555
H11 C13 1_555 1_555
H12 C13 1_555 1_555
C14 H13 1_555 1_555
H14 C14 1_555 1_555
H15 C14 1_555 1_555
C15 C7 1_555 1_555
H16 C15 1_555 1_555
C16 C15 1_555 1_555
C17 H17 1_555 1_555
H18 C17 1_555 1_555
C18 C17 1_555 1_555
C19 C18 1_555 1_555
H19 C19 1_555 1_555
C20 C19 1_555 1_555
H20 C20 1_555 1_555
C21 C20 1_555 1_555
H21 C21 1_555 1_555
C22 C21 1_555 1_555
H22 C22 1_555 1_555
C23 C18 1_555 1_555
H23 C23 1_555 1_555
C24 C15 1_555 1_555
C25 H24 1_555 1_555
H25 C25 1_555 1_555
C26 C25 1_555 1_555
C27 C26 1_555 1_555
H26 C27 1_555 1_555
C28 C27 1_555 1_555
H27 C28 1_555 1_555
C29 C28 1_555 1_555
H28 C29 1_555 1_555
C30 C29 1_555 1_555
H29 C30 1_555 1_555
C31 C26 1_555 1_555
H30 C31 1_555 1_555
N1 C7 1_555 1_555
H31 N1 1_555 1_555
N2 C1 1_555 1_555
O1 C16 1_555 1_555
O2 C16 1_555 1_555
O3 C24 1_555 1_555
O4 C24 1_555 1_555
O5 C8 1_555 1_555
O6 C9 1_555 1_555
O7 C9 1_555 1_555
C5 C6 1_555 1_555
C8 N2 1_555 1_555
C10 O7 1_555 1_555
C14 N2 1_555 1_555
C17 O2 1_555 1_555
C22 C23 1_555 1_555
C25 O4 1_555 1_555
C30 C31 1_555 1_555

#END
