
#######################################################################
#
#                 Cambridge Crystallographic Data Centre
#                                CCDC 
#
#######################################################################
#
# If this CIF has been generated from an entry in the Cambridge 
# Structural Database, then it will include bibliographic, chemical, 
# crystal, experimental, refinement or atomic coordinate data resulting 
# from the CCDC's data processing and validation procedures.
#
#######################################################################

data_PAZXOF
_chemical_formula_moiety         'C29 H36 O7'
_chemical_name_systematic        
'Methyl (6-((7-acetoxy-1-(3-furyl)-7a-methyl-2,6,7,7a-tetrahydro-1H-inden-4-yl)methyl)-2,2,4-trimethyl-7-oxo-2,3,6,7-tetrahydrooxepin-3-yl)acetate'
_symmetry_cell_setting           monoclinic
_symmetry_space_group_name_H-M   'P 21'
_symmetry_Int_Tables_number      4
_space_group_name_Hall           'P 2yb'
loop_
_symmetry_equiv_pos_site_id
_symmetry_equiv_pos_as_xyz
1 x,y,z
2 -x,1/2+y,-z
_cell_length_a                   12.1060(4)
_cell_length_b                   6.6633(2)
_cell_length_c                   16.8211(6)
_cell_angle_alpha                90
_cell_angle_beta                 99.5550(10)
_cell_angle_gamma                90
_cell_volume                     1338.06
_exptl_crystal_colour            colorless
_exptl_crystal_description       prism
_cell_formula_units_Z            2
loop_
_atom_site_label
_atom_site_type_symbol
_atom_site_fract_x
_atom_site_fract_y
_atom_site_fract_z
O1 O 0.24525(18) 0.6291(4) 0.85509(12)
O2 O 0.41330(18) 0.5072(4) 0.83982(12)
O3 O 0.11267(15) 0.4272(3) 0.61636(10)
O4 O 0.00996(16) 0.6495(4) 0.54304(11)
O5 O 0.37290(15) 0.5396(3) 0.16062(10)
O6 O 0.54157(15) 0.5261(3) 0.23975(12)
O7 O 0.27076(17) 0.0493(4) 0.00437(12)
C1 C 0.2709(3) 0.5781(6) 0.94001(18)
H1 H 0.2926 0.4365 0.9458
H2 H 0.2047 0.6012 0.9653
H3 H 0.3328 0.6621 0.9663
C2 C 0.3251(2) 0.5804(4) 0.81126(16)
C3 C 0.2895(2) 0.6352(4) 0.72370(15)
H4 H 0.3289 0.7595 0.7124
H5 H 0.2082 0.6641 0.7140
C4 C 0.3138(2) 0.4694(4) 0.66422(15)
H6 H 0.3800 0.3927 0.6923
C5 C 0.3506(2) 0.5669(4) 0.59143(16)
C6 C 0.2885(2) 0.5934(5) 0.51882(15)
H7 H 0.3259 0.6599 0.4809
C7 C 0.1681(2) 0.5347(4) 0.48683(14)
H8 H 0.1680 0.3936 0.4665
C8 C 0.1185(2) 0.6711(5) 0.41568(15)
H9 H 0.0383 0.6378 0.3990
H10 H 0.1232 0.8125 0.4340
C9 C 0.1774(2) 0.6508(4) 0.34388(15)
C10 C 0.1506(2) 0.4801(4) 0.28954(15)
C11 C 0.2011(2) 0.4706(4) 0.21184(15)
C12 C 0.1929(2) 0.2413(4) 0.19350(16)
H11 H 0.2572 0.1772 0.2295
C13 C 0.2000(2) 0.1737(4) 0.10983(16)
C14 C 0.1132(2) 0.1645(5) 0.03995(17)
H12 H 0.0374 0.2050 0.0373
C15 C 0.1593(3) 0.0884(6) -0.02035(17)
H13 H 0.1201 0.0647 -0.0733
C16 C 0.2170(2) 0.3179(4) 0.64638(15)
C17 C 0.1898(2) 0.2250(4) 0.72312(16)
H14 H 0.1589 0.3279 0.7548
H15 H 0.2583 0.1696 0.7548
H16 H 0.1348 0.1174 0.7094
C18 C 0.0921(2) 0.5438(4) 0.54992(14)
C19 C 0.4704(2) 0.6408(6) 0.60601(18)
H17 H 0.5214 0.5258 0.6149
H18 H 0.4824 0.7278 0.6536
H19 H 0.4849 0.7167 0.5589
C20 C 0.0843(2) 0.3212(5) 0.29517(15)
H20 H 0.0421 0.3021 0.3374
C21 C 0.0849(2) 0.1768(5) 0.22637(16)
H21 H 0.0172 0.1927 0.1849
H22 H 0.0900 0.0360 0.2454
C22 C 0.1301(2) 0.5958(5) 0.14540(15)
H23 H 0.1207 0.7317 0.1655
H24 H 0.0564 0.5329 0.1301
H25 H 0.1678 0.6024 0.0982
C23 C 0.3206(2) 0.5481(4) 0.23289(14)
H26 H 0.3634 0.4603 0.2754
C24 C 0.4853(2) 0.5309(4) 0.17353(17)
C25 C 0.5311(3) 0.5300(5) 0.09641(19)
H27 H 0.5278 0.6660 0.0740
H28 H 0.4866 0.4393 0.0579
H29 H 0.6091 0.4841 0.1067
C26 C 0.3241(2) 0.7619(4) 0.26327(16)
H30 H 0.4026 0.8001 0.2840
H31 H 0.2950 0.8531 0.2182
C27 C 0.2548(2) 0.7849(4) 0.32947(15)
H32 H 0.2664 0.9006 0.3628
C28 C 0.2923(2) 0.1020(4) 0.08456(16)
H33 H 0.3634 0.0895 0.1179
C29 C 0.2424(2) 0.1512(4) 0.58984(17)
H34 H 0.1731 0.0794 0.5686
H35 H 0.2964 0.0573 0.6195
H36 H 0.2739 0.2097 0.5451
loop_
_geom_bond_atom_site_label_1
_geom_bond_atom_site_label_2
_geom_bond_site_symmetry_1
_geom_bond_site_symmetry_2
O1 C1 1_555 1_555
O2 C2 1_555 1_555
O3 C16 1_555 1_555
O4 C18 1_555 1_555
O5 C23 1_555 1_555
O6 C24 1_555 1_555
O7 C15 1_555 1_555
C1 H1 1_555 1_555
H2 C1 1_555 1_555
H3 C1 1_555 1_555
C2 O1 1_555 1_555
C3 C2 1_555 1_555
H4 C3 1_555 1_555
H5 C3 1_555 1_555
C4 C3 1_555 1_555
H6 C4 1_555 1_555
C5 C4 1_555 1_555
C6 C5 1_555 1_555
H7 C6 1_555 1_555
C7 C6 1_555 1_555
H8 C7 1_555 1_555
C8 C7 1_555 1_555
H9 C8 1_555 1_555
H10 C8 1_555 1_555
C9 C8 1_555 1_555
C10 C9 1_555 1_555
C11 C10 1_555 1_555
C12 C11 1_555 1_555
H11 C12 1_555 1_555
C13 C12 1_555 1_555
C14 C13 1_555 1_555
H12 C14 1_555 1_555
C15 C14 1_555 1_555
H13 C15 1_555 1_555
C16 C4 1_555 1_555
C17 C16 1_555 1_555
H14 C17 1_555 1_555
H15 C17 1_555 1_555
H16 C17 1_555 1_555
C18 O3 1_555 1_555
C19 C5 1_555 1_555
H17 C19 1_555 1_555
H18 C19 1_555 1_555
H19 C19 1_555 1_555
C20 C10 1_555 1_555
H20 C20 1_555 1_555
C21 C12 1_555 1_555
H21 C21 1_555 1_555
H22 C21 1_555 1_555
C22 C11 1_555 1_555
H23 C22 1_555 1_555
H24 C22 1_555 1_555
H25 C22 1_555 1_555
C23 C11 1_555 1_555
H26 C23 1_555 1_555
C24 O5 1_555 1_555
C25 C24 1_555 1_555
H27 C25 1_555 1_555
H28 C25 1_555 1_555
H29 C25 1_555 1_555
C26 C23 1_555 1_555
H30 C26 1_555 1_555
H31 C26 1_555 1_555
C27 C9 1_555 1_555
H32 C27 1_555 1_555
C28 O7 1_555 1_555
H33 C28 1_555 1_555
C29 C16 1_555 1_555
H34 C29 1_555 1_555
H35 C29 1_555 1_555
H36 C29 1_555 1_555
C7 C18 1_555 1_555
C13 C28 1_555 1_555
C20 C21 1_555 1_555
C26 C27 1_555 1_555

#END
