
#######################################################################
#
#                 Cambridge Crystallographic Data Centre
#                                CCDC 
#
#######################################################################
#
# If this CIF has been generated from an entry in the Cambridge 
# Structural Database, then it will include bibliographic, chemical, 
# crystal, experimental, refinement or atomic coordinate data resulting 
# from the CCDC's data processing and validation procedures.
#
#######################################################################

data_PAZZOH
_chemical_formula_moiety         'C45 H70 N6 O9'
_chemical_name_systematic        
'Benzyl 2-((((2-(((2-(((2-(((2-(((2-((t-butoxycarbonyl)amino)propanoyl)amino)methyl)cyclohexyl)carbonyl)-amino)propanoyl)amino)methyl)cyclohexyl)carbonyl))amino)propanoyl)-amino)methyl)cyclohexyl-2-carboxylate'
_symmetry_cell_setting           tetragonal
_symmetry_space_group_name_H-M   'P 41 21 2'
_symmetry_Int_Tables_number      92
_space_group_name_Hall           'P 4abw 2nw'
loop_
_symmetry_equiv_pos_site_id
_symmetry_equiv_pos_as_xyz
1 x,y,z
2 -x,-y,1/2+z
3 1/2-y,1/2+x,1/4+z
4 1/2+y,1/2-x,3/4+z
5 1/2-x,1/2+y,1/4-z
6 1/2+x,1/2-y,3/4-z
7 y,x,-z
8 -y,-x,1/2-z
_cell_length_a                   15.1846(3)
_cell_length_b                   15.1846(3)
_cell_length_c                   46.0450(11)
_cell_angle_alpha                90
_cell_angle_beta                 90
_cell_angle_gamma                90
_cell_volume                     10616.7
_exptl_crystal_colour            colorless
_exptl_crystal_description       needle
_cell_formula_units_Z            8
loop_
_atom_site_label
_atom_site_type_symbol
_atom_site_fract_x
_atom_site_fract_y
_atom_site_fract_z
O1 O 0.23568(16) 0.60366(16) 0.33135(5)
O2 O 0.2083(2) 0.65765(18) 0.37672(5)
O3 O 0.00646(19) 0.6210(3) 0.41762(5)
O4 O 0.19268(15) 0.52151(16) 0.47466(4)
O5 O 0.1533(2) 0.74577(17) 0.50545(5)
O6 O -0.0618(2) 0.53946(18) 0.54168(5)
O7 O 0.12452(18) 0.57976(18) 0.59928(4)
O8 O 0.1544(2) 0.9687(2) 0.58402(7)
O9 O 0.21835(19) 0.94021(18) 0.54098(5)
N1 N 0.0980(2) 0.6114(2) 0.34700(5)
H1 H 0.0852 0.5860 0.3303
N2 N 0.05393(19) 0.5013(3) 0.39322(6)
H2 H 0.0678 0.4809 0.3759
N3 N 0.21243(19) 0.62624(19) 0.44089(6)
H3 H 0.2104 0.6403 0.4224
N4 N 0.0640(2) 0.69702(18) 0.47016(5)
H4 H 0.0602 0.6780 0.4522
N5 N 0.0751(2) 0.53166(18) 0.52427(5)
H5 H 0.1106 0.5394 0.5094
N6 N 0.13654(19) 0.6694(2) 0.56053(5)
H6 H 0.1323 0.6734 0.5415
C1 C 0.3601(3) 0.5787(3) 0.30265(8)
H7 H 0.3418 0.6193 0.2873
H8 H 0.3330 0.5209 0.2994
H9 H 0.4243 0.5726 0.3024
C2 C 0.3691(3) 0.5529(4) 0.35582(10)
H10 H 0.4328 0.5473 0.3531
H11 H 0.3416 0.4947 0.3543
H12 H 0.3570 0.5777 0.3751
C3 C 0.3529(6) 0.7109(5) 0.33459(10)
H13 H 0.3601 0.7265 0.3551
H14 H 0.3052 0.7460 0.3261
H15 H 0.4078 0.7228 0.3241
C4 C 0.3307(3) 0.6147(4) 0.33213(8)
C5 C 0.1825(3) 0.6274(2) 0.35364(7)
C6 C 0.0269(3) 0.6350(4) 0.36683(8)
H16 H 0.0328 0.6989 0.3718
C7 C -0.0619(3) 0.6212(5) 0.35178(10)
H17 H -0.0700 0.6662 0.3368
H18 H -0.1094 0.6257 0.3661
H19 H -0.0632 0.5627 0.3428
C8 C 0.0294(2) 0.5820(3) 0.39504(7)
C9 C 0.0605(3) 0.4404(3) 0.41816(7)
H20 H 0.0195 0.3905 0.4151
H21 H 0.0419 0.4716 0.4360
C10 C 0.1508(3) 0.4052(3) 0.42247(7)
H22 H 0.1654 0.3717 0.4044
C11 C 0.1541(4) 0.3369(3) 0.44783(9)
H23 H 0.1335 0.3653 0.4660
H24 H 0.1140 0.2873 0.4434
C12 C 0.2449(5) 0.3025(3) 0.45224(11)
H25 H 0.2616 0.2667 0.4351
H26 H 0.2449 0.2632 0.4694
C13 C 0.3139(4) 0.3735(3) 0.45669(12)
H27 H 0.3007 0.4071 0.4746
H28 H 0.3727 0.3462 0.4589
C14 C 0.3137(3) 0.4345(3) 0.43081(9)
H29 H 0.3320 0.4014 0.4133
H30 H 0.3570 0.4822 0.4340
C15 C 0.2215(2) 0.4757(2) 0.42541(7)
H31 H 0.2243 0.5082 0.4065
C16 C 0.20552(19) 0.5419(2) 0.44873(6)
C17 C 0.2233(3) 0.6952(3) 0.46243(8)
H32 H 0.2710 0.6752 0.4759
C18 C 0.2569(4) 0.7786(4) 0.44768(13)
H33 H 0.3114 0.7653 0.4371
H34 H 0.2686 0.8237 0.4624
H35 H 0.2124 0.8003 0.4340
C19 C 0.1440(3) 0.7139(2) 0.48100(6)
C20 C -0.0168(3) 0.7084(2) 0.48649(7)
H36 H -0.0449 0.7645 0.4807
H37 H -0.0027 0.7119 0.5075
C21 C -0.0817(2) 0.6325(3) 0.48140(7)
H38 H -0.0931 0.6305 0.4600
C22 C -0.1705(3) 0.6477(3) 0.49588(11)
H39 H -0.1623 0.6503 0.5172
H40 H -0.1945 0.7051 0.4894
C23 C -0.2350(3) 0.5761(5) 0.48866(12)
H41 H -0.2479 0.5776 0.4676
H42 H -0.2908 0.5870 0.4992
C24 C -0.1995(3) 0.4838(4) 0.49689(11)
H43 H -0.1957 0.4789 0.5183
H44 H -0.2408 0.4382 0.4898
C25 C -0.1090(3) 0.4681(3) 0.48374(9)
H45 H -0.1155 0.4614 0.4625
H46 H -0.0853 0.4121 0.4915
C26 C -0.0425(2) 0.5413(2) 0.48973(7)
H47 H 0.0097 0.5307 0.4770
C27 C -0.0112(3) 0.5385(2) 0.52064(7)
C28 C 0.1117(3) 0.5113(2) 0.55279(7)
H48 H 0.0708 0.4693 0.5626
C29 C 0.1979(3) 0.4660(3) 0.54875(9)
H49 H 0.2419 0.5086 0.5420
H50 H 0.1915 0.4191 0.5343
H51 H 0.2170 0.4405 0.5673
C30 C 0.1229(2) 0.5922(2) 0.57274(6)
C31 C 0.1581(3) 0.7478(2) 0.57682(8)
H52 H 0.1504 0.7366 0.5979
H53 H 0.1183 0.7965 0.5711
C32 C 0.2583(3) 0.7744(3) 0.57017(7)
H54 H 0.2666 0.7753 0.5486
C33 C 0.3241(3) 0.7086(3) 0.58310(9)
H55 H 0.3074 0.6483 0.5770
H56 H 0.3834 0.7210 0.5752
C34 C 0.3282(3) 0.7121(3) 0.61614(9)
H57 H 0.3749 0.6719 0.6231
H58 H 0.2714 0.6920 0.6243
C35 C 0.3475(3) 0.8056(4) 0.62662(9)
H59 H 0.3477 0.8065 0.6481
H60 H 0.4068 0.8234 0.6199
C36 C 0.2799(3) 0.8713(3) 0.61552(8)
H61 H 0.2960 0.9314 0.6219
H62 H 0.2212 0.8570 0.6236
C37 C 0.2765(3) 0.8674(3) 0.58183(8)
H63 H 0.3359 0.8853 0.5746
C38 C 0.2119(3) 0.9310(3) 0.56989(8)
C39 C 0.1520(3) 0.9932(3) 0.52724(10)
H64 H 0.1544 1.0540 0.5349
H65 H 0.0929 0.9687 0.5314
C40 C 0.16788(19) 0.99409(19) 0.49492(4)
C41 C 0.10788(16) 0.9555(2) 0.47601(6)
H66 H 0.0580 0.9252 0.4835
C42 C 0.12084(19) 0.9612(2) 0.44618(5)
H67 H 0.0798 0.9348 0.4333
C43 C 0.1938(2) 1.0054(2) 0.43527(4)
H68 H 0.2027 1.0093 0.4149
C44 C 0.25380(19) 1.0440(2) 0.45418(6)
H69 H 0.3037 1.0743 0.4467
C45 C 0.24084(19) 1.0384(2) 0.48400(5)
H70 H 0.2819 1.0648 0.4969
loop_
_geom_bond_atom_site_label_1
_geom_bond_atom_site_label_2
_geom_bond_site_symmetry_1
_geom_bond_site_symmetry_2
O1 C4 1_555 1_555
O2 C5 1_555 1_555
O3 C8 1_555 1_555
O4 C16 1_555 1_555
O5 C19 1_555 1_555
O6 C27 1_555 1_555
O7 C30 1_555 1_555
O8 C38 1_555 1_555
O9 C38 1_555 1_555
N1 H1 1_555 1_555
N2 H2 1_555 1_555
N3 H3 1_555 1_555
N4 H4 1_555 1_555
N5 H5 1_555 1_555
N6 H6 1_555 1_555
C1 H7 1_555 1_555
H8 C1 1_555 1_555
H9 C1 1_555 1_555
C2 H10 1_555 1_555
H11 C2 1_555 1_555
H12 C2 1_555 1_555
C3 H13 1_555 1_555
H14 C3 1_555 1_555
H15 C3 1_555 1_555
C4 C1 1_555 1_555
C5 O1 1_555 1_555
C6 N1 1_555 1_555
H16 C6 1_555 1_555
C7 C6 1_555 1_555
H17 C7 1_555 1_555
H18 C7 1_555 1_555
H19 C7 1_555 1_555
C8 N2 1_555 1_555
C9 N2 1_555 1_555
H20 C9 1_555 1_555
H21 C9 1_555 1_555
C10 C9 1_555 1_555
H22 C10 1_555 1_555
C11 C10 1_555 1_555
H23 C11 1_555 1_555
H24 C11 1_555 1_555
C12 C11 1_555 1_555
H25 C12 1_555 1_555
H26 C12 1_555 1_555
C13 C12 1_555 1_555
H27 C13 1_555 1_555
H28 C13 1_555 1_555
C14 C13 1_555 1_555
H29 C14 1_555 1_555
H30 C14 1_555 1_555
C15 C10 1_555 1_555
H31 C15 1_555 1_555
C16 N3 1_555 1_555
C17 N3 1_555 1_555
H32 C17 1_555 1_555
C18 C17 1_555 1_555
H33 C18 1_555 1_555
H34 C18 1_555 1_555
H35 C18 1_555 1_555
C19 N4 1_555 1_555
C20 N4 1_555 1_555
H36 C20 1_555 1_555
H37 C20 1_555 1_555
C21 C20 1_555 1_555
H38 C21 1_555 1_555
C22 C21 1_555 1_555
H39 C22 1_555 1_555
H40 C22 1_555 1_555
C23 C22 1_555 1_555
H41 C23 1_555 1_555
H42 C23 1_555 1_555
C24 C23 1_555 1_555
H43 C24 1_555 1_555
H44 C24 1_555 1_555
C25 C24 1_555 1_555
H45 C25 1_555 1_555
H46 C25 1_555 1_555
C26 C21 1_555 1_555
H47 C26 1_555 1_555
C27 N5 1_555 1_555
C28 N5 1_555 1_555
H48 C28 1_555 1_555
C29 C28 1_555 1_555
H49 C29 1_555 1_555
H50 C29 1_555 1_555
H51 C29 1_555 1_555
C30 N6 1_555 1_555
C31 N6 1_555 1_555
H52 C31 1_555 1_555
H53 C31 1_555 1_555
C32 C31 1_555 1_555
H54 C32 1_555 1_555
C33 C32 1_555 1_555
H55 C33 1_555 1_555
H56 C33 1_555 1_555
C34 C33 1_555 1_555
H57 C34 1_555 1_555
H58 C34 1_555 1_555
C35 C34 1_555 1_555
H59 C35 1_555 1_555
H60 C35 1_555 1_555
C36 C35 1_555 1_555
H61 C36 1_555 1_555
H62 C36 1_555 1_555
C37 C32 1_555 1_555
H63 C37 1_555 1_555
C38 C37 1_555 1_555
C39 O9 1_555 1_555
H64 C39 1_555 1_555
H65 C39 1_555 1_555
C40 C39 1_555 1_555
C41 C40 1_555 1_555
H66 C41 1_555 1_555
C42 C41 1_555 1_555
H67 C42 1_555 1_555
C43 C42 1_555 1_555
H68 C43 1_555 1_555
C44 C43 1_555 1_555
H69 C44 1_555 1_555
C45 C40 1_555 1_555
H70 C45 1_555 1_555
N1 C5 1_555 1_555
C2 C4 1_555 1_555
C3 C4 1_555 1_555
C6 C8 1_555 1_555
C14 C15 1_555 1_555
C15 C16 1_555 1_555
C17 C19 1_555 1_555
C25 C26 1_555 1_555
C26 C27 1_555 1_555
C28 C30 1_555 1_555
C36 C37 1_555 1_555
C44 C45 1_555 1_555

#END
