
#######################################################################
#
#                 Cambridge Crystallographic Data Centre
#                                CCDC 
#
#######################################################################
#
# If this CIF has been generated from an entry in the Cambridge 
# Structural Database, then it will include bibliographic, chemical, 
# crystal, experimental, refinement or atomic coordinate data resulting 
# from the CCDC's data processing and validation procedures.
#
#######################################################################

data_PAZZIB
_chemical_formula_moiety         'C34 H52 N4 O7'
_chemical_name_systematic        
'Benzyl 2-(((2-(((2-(((2-((t-butoxycarbonyl)amino)propanoyl)amino)-methyl)cyclohexyl)carbonyl)amino)propanoyl)amino)methyl)cyclohexyl-2-carboxylate'
_symmetry_cell_setting           orthorhombic
_symmetry_space_group_name_H-M   'P 21 21 21'
_symmetry_Int_Tables_number      19
_space_group_name_Hall           'P 2ac 2ab'
loop_
_symmetry_equiv_pos_site_id
_symmetry_equiv_pos_as_xyz
1 x,y,z
2 1/2-x,-y,1/2+z
3 -x,1/2+y,1/2-z
4 1/2+x,1/2-y,-z
_cell_length_a                   9.0786(4)
_cell_length_b                   16.4153(6)
_cell_length_c                   23.8705(9)
_cell_angle_alpha                90
_cell_angle_beta                 90
_cell_angle_gamma                90
_cell_volume                     3557.37
_exptl_crystal_colour            colorless
_exptl_crystal_description       needle
_cell_formula_units_Z            4
loop_
_atom_site_label
_atom_site_type_symbol
_atom_site_fract_x
_atom_site_fract_y
_atom_site_fract_z
O1 O 0.58861(14) -0.09116(8) 0.15307(5)
O2 O 0.59609(15) 0.04073(8) 0.18362(6)
O3 O 0.43165(17) -0.00154(8) 0.32790(5)
O4 O 0.72225(17) 0.29704(8) 0.28829(6)
O5 O 0.35130(15) 0.23003(8) 0.19990(6)
O6 O 0.01841(16) 0.23412(9) 0.14207(6)
O7 O 0.16439(16) 0.16727(8) 0.08197(6)
N1 N 0.41245(17) -0.04560(9) 0.20898(6)
H1 H 0.3823 -0.0965 0.2102
N2 N 0.41681(19) 0.12702(9) 0.29414(6)
H2 H 0.3872 0.1579 0.2662
N3 N 0.65090(18) 0.21676(9) 0.21614(6)
H3 H 0.6495 0.1670 0.2025
N4 N 0.37420(19) 0.36500(9) 0.18165(6)
H4 H 0.4364 0.4058 0.1783
C1 C 0.8551(2) -0.06803(13) 0.15517(9)
H5 H 0.8602 -0.1104 0.1840
H6 H 0.8464 -0.0145 0.1731
H7 H 0.9448 -0.0696 0.1323
C2 C 0.7317(2) -0.16610(14) 0.09012(10)
H8 H 0.7437 -0.2082 0.1189
H9 H 0.8165 -0.1672 0.0647
H10 H 0.6413 -0.1765 0.0688
C3 C 0.6992(2) -0.01703(14) 0.07407(9)
H11 H 0.7777 -0.0205 0.0460
H12 H 0.7018 0.0366 0.0920
H13 H 0.6035 -0.0248 0.0558
C4 C 0.7217(2) -0.08283(12) 0.11803(8)
C5 C 0.53845(19) -0.02647(10) 0.18223(7)
C6 C 0.3265(2) 0.01808(11) 0.23577(7)
H14 H 0.3183 0.0654 0.2096
C7 C 0.1724(2) -0.01471(13) 0.24793(9)
H15 H 0.1273 -0.0338 0.2130
H16 H 0.1117 0.0287 0.2641
H17 H 0.1791 -0.0601 0.2745
C8 C 0.3983(2) 0.04672(11) 0.29019(7)
C9 C 0.4840(2) 0.16594(11) 0.34271(8)
H18 H 0.4266 0.1507 0.3764
H19 H 0.4757 0.2257 0.3381
C10 C 0.6457(3) 0.14484(11) 0.35320(8)
H20 H 0.6495 0.0869 0.3660
C11 C 0.7032(3) 0.19771(14) 0.40139(9)
H21 H 0.6888 0.2558 0.3918
H22 H 0.6450 0.1861 0.4355
C12 C 0.8649(4) 0.18274(16) 0.41353(12)
H23 H 0.8980 0.2197 0.4438
H24 H 0.8786 0.1259 0.4265
C13 C 0.9570(3) 0.19730(15) 0.36136(12)
H25 H 1.0615 0.1852 0.3697
H26 H 0.9499 0.2553 0.3505
C14 C 0.9057(3) 0.14416(13) 0.31280(11)
H27 H 0.9289 0.0866 0.3215
H28 H 0.9619 0.1593 0.2788
C15 C 0.7398(2) 0.15118(11) 0.29985(8)
H29 H 0.7128 0.1042 0.2752
C16 C 0.7047(2) 0.22876(11) 0.26789(8)
C17 C 0.5951(2) 0.28275(11) 0.18194(8)
H30 H 0.6435 0.3349 0.1934
C18 C 0.6283(2) 0.26581(16) 0.12014(8)
H31 H 0.7346 0.2586 0.1151
H32 H 0.5945 0.3118 0.0974
H33 H 0.5769 0.2162 0.1084
C19 C 0.4281(2) 0.29030(11) 0.18979(7)
C20 C 0.2168(2) 0.38189(11) 0.17806(8)
H34 H 0.1952 0.4338 0.1975
H35 H 0.1616 0.3380 0.1973
C21 C 0.1650(2) 0.38780(11) 0.11700(7)
H36 H 0.2259 0.4313 0.0990
C22 C 0.0039(2) 0.41580(12) 0.11280(8)
H37 H -0.0603 0.3756 0.1318
H38 H -0.0075 0.4687 0.1322
C23 C -0.0441(3) 0.42470(14) 0.05151(9)
H39 H -0.1505 0.4378 0.0502
H40 H 0.0103 0.4705 0.0342
C24 C -0.0158(2) 0.34741(15) 0.01792(9)
H41 H -0.0416 0.3570 -0.0218
H42 H -0.0796 0.3031 0.0322
C25 C 0.1455(2) 0.32128(13) 0.02198(8)
H43 H 0.2086 0.3633 0.0044
H44 H 0.1596 0.2697 0.0012
C26 C 0.1926(2) 0.30920(11) 0.08347(7)
H45 H 0.3008 0.2979 0.0840
C27 C 0.1139(2) 0.23513(12) 0.10739(7)
C28 C 0.0930(3) 0.09246(12) 0.09941(8)
H46 H -0.0152 0.0998 0.1002
H47 H 0.1262 0.0769 0.1374
C29 C 0.1341(2) 0.02749(11) 0.05799(8)
C30 C 0.0684(2) 0.02636(12) 0.00533(8)
H48 H -0.0010 0.0674 -0.0042
C31 C 0.1026(2) -0.03356(12) -0.03329(8)
H49 H 0.0571 -0.0337 -0.0691
C32 C 0.2043(3) -0.09364(12) -0.01914(9)
H50 H 0.2280 -0.1353 -0.0453
C33 C 0.2706(3) -0.09271(13) 0.03287(9)
H51 H 0.3403 -0.1336 0.0424
C34 C 0.2358(2) -0.03228(13) 0.07119(8)
H52 H 0.2823 -0.0319 0.1069
loop_
_geom_bond_atom_site_label_1
_geom_bond_atom_site_label_2
_geom_bond_site_symmetry_1
_geom_bond_site_symmetry_2
O1 C4 1_555 1_555
O2 C5 1_555 1_555
O3 C8 1_555 1_555
O4 C16 1_555 1_555
O5 C19 1_555 1_555
O6 C27 1_555 1_555
O7 C27 1_555 1_555
N1 H1 1_555 1_555
N2 H2 1_555 1_555
N3 H3 1_555 1_555
N4 H4 1_555 1_555
C1 H5 1_555 1_555
H6 C1 1_555 1_555
H7 C1 1_555 1_555
C2 H8 1_555 1_555
H9 C2 1_555 1_555
H10 C2 1_555 1_555
C3 H11 1_555 1_555
H12 C3 1_555 1_555
H13 C3 1_555 1_555
C4 C1 1_555 1_555
C5 O1 1_555 1_555
C6 N1 1_555 1_555
H14 C6 1_555 1_555
C7 C6 1_555 1_555
H15 C7 1_555 1_555
H16 C7 1_555 1_555
H17 C7 1_555 1_555
C8 N2 1_555 1_555
C9 N2 1_555 1_555
H18 C9 1_555 1_555
H19 C9 1_555 1_555
C10 C9 1_555 1_555
H20 C10 1_555 1_555
C11 C10 1_555 1_555
H21 C11 1_555 1_555
H22 C11 1_555 1_555
C12 C11 1_555 1_555
H23 C12 1_555 1_555
H24 C12 1_555 1_555
C13 C12 1_555 1_555
H25 C13 1_555 1_555
H26 C13 1_555 1_555
C14 C13 1_555 1_555
H27 C14 1_555 1_555
H28 C14 1_555 1_555
C15 C10 1_555 1_555
H29 C15 1_555 1_555
C16 N3 1_555 1_555
C17 N3 1_555 1_555
H30 C17 1_555 1_555
C18 C17 1_555 1_555
H31 C18 1_555 1_555
H32 C18 1_555 1_555
H33 C18 1_555 1_555
C19 N4 1_555 1_555
C20 N4 1_555 1_555
H34 C20 1_555 1_555
H35 C20 1_555 1_555
C21 C20 1_555 1_555
H36 C21 1_555 1_555
C22 C21 1_555 1_555
H37 C22 1_555 1_555
H38 C22 1_555 1_555
C23 C22 1_555 1_555
H39 C23 1_555 1_555
H40 C23 1_555 1_555
C24 C23 1_555 1_555
H41 C24 1_555 1_555
H42 C24 1_555 1_555
C25 C24 1_555 1_555
H43 C25 1_555 1_555
H44 C25 1_555 1_555
C26 C21 1_555 1_555
H45 C26 1_555 1_555
C27 C26 1_555 1_555
C28 O7 1_555 1_555
H46 C28 1_555 1_555
H47 C28 1_555 1_555
C29 C28 1_555 1_555
C30 C29 1_555 1_555
H48 C30 1_555 1_555
C31 C30 1_555 1_555
H49 C31 1_555 1_555
C32 C31 1_555 1_555
H50 C32 1_555 1_555
C33 C32 1_555 1_555
H51 C33 1_555 1_555
C34 C29 1_555 1_555
H52 C34 1_555 1_555
N1 C5 1_555 1_555
C2 C4 1_555 1_555
C3 C4 1_555 1_555
C6 C8 1_555 1_555
C14 C15 1_555 1_555
C15 C16 1_555 1_555
C17 C19 1_555 1_555
C25 C26 1_555 1_555
C33 C34 1_555 1_555

#END
