
#######################################################################
#
#                 Cambridge Crystallographic Data Centre
#                                CCDC 
#
#######################################################################
#
# If this CIF has been generated from an entry in the Cambridge 
# Structural Database, then it will include bibliographic, chemical, 
# crystal, experimental, refinement or atomic coordinate data resulting 
# from the CCDC's data processing and validation procedures.
#
#######################################################################

data_PCHXDC10
_chemical_formula_moiety         'C16 H20 O2'
_chemical_name_systematic        
Pentacyclo(6.3.3.2^2,7^.0^1,8^.0^2,6^)hexadeca-10,16-dione
_symmetry_cell_setting           monoclinic
_symmetry_space_group_name_H-M   'C 2/c'
_symmetry_Int_Tables_number      15
_space_group_name_Hall           '-C 2yn'
loop_
_symmetry_equiv_pos_site_id
_symmetry_equiv_pos_as_xyz
1 x,y,z
2 1/2+x,1/2+y,z
3 -x,y,1/2-z
4 1/2-x,1/2+y,1/2-z
5 -x,-y,-z
6 1/2-x,1/2-y,-z
7 x,-y,1/2+z
8 1/2+x,1/2-y,1/2+z
_cell_length_a                   30.276(8)
_cell_length_b                   7.297(2)
_cell_length_c                   11.793(3)
_cell_angle_alpha                90
_cell_angle_beta                 98.01(2)
_cell_angle_gamma                90
_cell_volume                     2579.94
_exptl_crystal_colour            colorless
_chemical_melting_point          88-9deg.C
_cell_formula_units_Z            8
loop_
_atom_site_label
_atom_site_type_symbol
_atom_site_fract_x
_atom_site_fract_y
_atom_site_fract_z
C1 C 0.40030 0.18200 0.43450
C2 C 0.42660 0.29380 0.53030
C3 C 0.44160 0.46480 0.47690
C4 C 0.43810 0.44100 0.35070
C5 C 0.40890 0.27230 0.31870
C6 C 0.43390 0.12320 0.25880
C7 C 0.45470 0.00390 0.35440
C8 C 0.41890 -0.01340 0.43190
O1 O 0.45470 0.60010 0.53030
C9 C 0.33550 0.15540 0.29840
C10 C 0.36130 0.31320 0.25250
C11 C 0.34400 0.47110 0.31470
C12 C 0.33560 0.39990 0.42990
C13 C 0.34900 0.19400 0.42430
C14 C 0.32030 0.07010 0.48690
C15 C 0.27720 0.04450 0.39700
C16 C 0.28430 0.13590 0.28670
O2 O 0.33810 0.62770 0.28030
H1 H 0.44600 0.24200 0.58000
H2 H 0.41200 0.31300 0.59800
H3 H 0.45900 0.45500 0.26500
H4 H 0.42700 0.53800 0.33200
H5 H 0.45100 0.17900 0.19600
H6 H 0.41000 0.05800 0.19600
H7 H 0.47900 0.08600 0.39500
H8 H 0.46400 -0.12000 0.32800
H9 H 0.42900 -0.05600 0.50800
H10 H 0.39700 -0.09200 0.39100
H11 H 0.34700 0.03200 0.27900
H12 H 0.35900 0.33100 0.17300
H13 H 0.35200 0.44200 0.50800
H14 H 0.31700 0.45400 0.43200
H15 H 0.33300 -0.04600 0.50700
H16 H 0.31500 0.10500 0.56100
H17 H 0.26500 -0.10000 0.39300
H18 H 0.26100 0.09100 0.47000
H19 H 0.27400 0.28000 0.28500
H20 H 0.27600 0.07600 0.21100
loop_
_geom_bond_atom_site_label_1
_geom_bond_atom_site_label_2
_geom_bond_site_symmetry_1
_geom_bond_site_symmetry_2
C1 C2 1_555 1_555
C2 C3 1_555 1_555
C3 C4 1_555 1_555
C4 C5 1_555 1_555
C5 C1 1_555 1_555
C6 C5 1_555 1_555
C7 C6 1_555 1_555
C8 C1 1_555 1_555
O1 C3 1_555 1_555
C9 C10 1_555 1_555
C10 C5 1_555 1_555
C11 C10 1_555 1_555
C12 C11 1_555 1_555
C13 C1 1_555 1_555
C14 C13 1_555 1_555
C15 C14 1_555 1_555
C16 C9 1_555 1_555
O2 C11 1_555 1_555
H1 C2 1_555 1_555
H2 C2 1_555 1_555
H3 C4 1_555 1_555
H4 C4 1_555 1_555
H5 C6 1_555 1_555
H6 C6 1_555 1_555
H7 C7 1_555 1_555
H8 C7 1_555 1_555
H9 C8 1_555 1_555
H10 C8 1_555 1_555
H11 C9 1_555 1_555
H12 C10 1_555 1_555
H13 C12 1_555 1_555
H14 C12 1_555 1_555
H15 C14 1_555 1_555
H16 C14 1_555 1_555
H17 C15 1_555 1_555
H18 C15 1_555 1_555
H19 C16 1_555 1_555
H20 C16 1_555 1_555
C7 C8 1_555 1_555
C9 C13 1_555 1_555
C12 C13 1_555 1_555
C15 C16 1_555 1_555

#END
