
#######################################################################
#
#                 Cambridge Crystallographic Data Centre
#                                CCDC 
#
#######################################################################
#
# If this CIF has been generated from an entry in the Cambridge 
# Structural Database, then it will include bibliographic, chemical, 
# crystal, experimental, refinement or atomic coordinate data resulting 
# from the CCDC's data processing and validation procedures.
#
#######################################################################

data_PCLPYR05
_chemical_formula_moiety         'C5 Cl5 N1'
_chemical_name_systematic        pentachloropyridine
_symmetry_cell_setting           monoclinic
_symmetry_space_group_name_H-M   'P c'
_symmetry_Int_Tables_number      7
_space_group_name_Hall           'P -2yc'
loop_
_symmetry_equiv_pos_site_id
_symmetry_equiv_pos_as_xyz
1 x,y,z
2 x,-y,1/2+z
_cell_length_a                   5.3290(14)
_cell_length_b                   5.1935(13)
_cell_length_c                   14.949(4)
_cell_angle_alpha                90
_cell_angle_beta                 99.833(5)
_cell_angle_gamma                90
_cell_volume                     407.653
_exptl_crystal_colour            colorless
_exptl_crystal_description       plate
_cell_formula_units_Z            2
loop_
_atom_site_label
_atom_site_type_symbol
_atom_site_fract_x
_atom_site_fract_y
_atom_site_fract_z
Cl1 Cl 0.1144(3) 0.6748(4) 0.33204(11)
Cl2 Cl 0.5285(3) 1.1050(4) 0.32389(10)
Cl3 Cl 0.9611(3) 1.1745(3) 0.49191(12)
Cl4 Cl 0.9700(3) 0.8150(4) 0.65997(12)
Cl5 Cl 0.5361(3) 0.3993(4) 0.65424(11)
C1 C 0.3582(12) 0.7241(14) 0.4220(4)
C2 C 0.5375(13) 0.9145(14) 0.4175(4)
C3 C 0.7335(13) 0.9460(14) 0.4929(5)
C4 C 0.7334(12) 0.7850(13) 0.5674(4)
C5 C 0.5424(14) 0.6043(13) 0.5640(5)
N1 N 0.3616(11) 0.5732(12) 0.4935(4)
loop_
_geom_bond_atom_site_label_1
_geom_bond_atom_site_label_2
_geom_bond_site_symmetry_1
_geom_bond_site_symmetry_2
Cl1 C1 1_555 1_555
Cl2 C2 1_555 1_555
Cl3 C3 1_555 1_555
Cl4 C4 1_555 1_555
Cl5 C5 1_555 1_555
C1 C2 1_555 1_555
C2 C3 1_555 1_555
C3 C4 1_555 1_555
C4 C5 1_555 1_555
C5 N1 1_555 1_555
N1 C1 1_555 1_555

#END
