
#######################################################################
#
#                 Cambridge Crystallographic Data Centre
#                                CCDC 
#
#######################################################################
#
# If this CIF has been generated from an entry in the Cambridge 
# Structural Database, then it will include bibliographic, chemical, 
# crystal, experimental, refinement or atomic coordinate data resulting 
# from the CCDC's data processing and validation procedures.
#
#######################################################################

data_PCLPYR06
_chemical_formula_moiety         'C5 Cl5 N1'
_chemical_name_systematic        pentachloropyridine
_symmetry_cell_setting           monoclinic
_symmetry_space_group_name_H-M   'P c'
_symmetry_Int_Tables_number      7
_space_group_name_Hall           'P -2yc'
loop_
_symmetry_equiv_pos_site_id
_symmetry_equiv_pos_as_xyz
1 x,y,z
2 x,-y,1/2+z
_cell_length_a                   5.359(4)
_cell_length_b                   5.224(4)
_cell_length_c                   15.101(13)
_cell_angle_alpha                90
_cell_angle_beta                 100.228(18)
_cell_angle_gamma                90
_cell_volume                     416.041
_exptl_crystal_colour            colorless
_exptl_crystal_description       plate
_cell_formula_units_Z            2
loop_
_atom_site_label
_atom_site_type_symbol
_atom_site_fract_x
_atom_site_fract_y
_atom_site_fract_z
Cl1 Cl 0.1185(4) 0.6708(6) 0.33238(14)
Cl2 Cl 0.5309(4) 1.0973(5) 0.32478(15)
Cl3 Cl 0.9582(5) 1.1724(4) 0.49192(18)
Cl4 Cl 0.9659(4) 0.8200(6) 0.65956(15)
Cl5 Cl 0.5349(5) 0.4062(5) 0.65336(15)
C1 C 0.3589(16) 0.7219(18) 0.4213(6)
C2 C 0.5392(18) 0.9080(17) 0.4180(6)
C3 C 0.5433(18) 0.6051(16) 0.5631(6)
C4 C 0.7316(17) 0.9418(18) 0.4913(6)
C5 C 0.7326(16) 0.7844(17) 0.5675(5)
N1 N 0.3639(14) 0.5758(15) 0.4932(5)
loop_
_geom_bond_atom_site_label_1
_geom_bond_atom_site_label_2
_geom_bond_site_symmetry_1
_geom_bond_site_symmetry_2
Cl1 C1 1_555 1_555
Cl2 C2 1_555 1_555
Cl3 C4 1_555 1_555
Cl4 C5 1_555 1_555
Cl5 C3 1_555 1_555
C1 C2 1_555 1_555
C2 C4 1_555 1_555
C3 C5 1_555 1_555
C4 C5 1_555 1_555
N1 C1 1_555 1_555
C3 N1 1_555 1_555

#END
