
#######################################################################
#
#                 Cambridge Crystallographic Data Centre
#                                CCDC 
#
#######################################################################
#
# If this CIF has been generated from an entry in the Cambridge 
# Structural Database, then it will include bibliographic, chemical, 
# crystal, experimental, refinement or atomic coordinate data resulting 
# from the CCDC's data processing and validation procedures.
#
#######################################################################

data_PCPZOL
_chemical_formula_moiety         'C21 H17 Cl1 N2'
_chemical_name_systematic        1,3-Diphenyl-5-(p-chlorophenyl)-2-pyrazoline
_symmetry_cell_setting           monoclinic
_symmetry_space_group_name_H-M   'P 21/c'
_symmetry_Int_Tables_number      14
_space_group_name_Hall           '-P 2ybc'
loop_
_symmetry_equiv_pos_site_id
_symmetry_equiv_pos_as_xyz
1 x,y,z
2 -x,1/2+y,1/2-z
3 -x,-y,-z
4 x,1/2-y,1/2+z
_cell_length_a                   11.365(3)
_cell_length_b                   13.854(3)
_cell_length_c                   12.026(4)
_cell_angle_alpha                90
_cell_angle_beta                 112.26(3)
_cell_angle_gamma                90
_cell_volume                     1752.39
_cell_formula_units_Z            4
loop_
_atom_site_label
_atom_site_type_symbol
_atom_site_fract_x
_atom_site_fract_y
_atom_site_fract_z
Cl1 Cl -0.06472 0.02634 0.22962
N1 N -0.33390 0.47380 0.15000
N2 N -0.29970 0.56680 0.13090
C1 C -0.25260 0.56410 0.04940
C2 C -0.25130 0.46500 -0.00020
C3 C -0.32810 0.40570 0.05750
C4 C -0.41760 0.46370 0.20960
C5 C -0.48050 0.37670 0.20670
C6 C -0.56100 0.36760 0.26930
C7 C -0.57920 0.44350 0.33450
C8 C -0.51760 0.52930 0.33760
C9 C -0.43680 0.53990 0.27570
C10 C -0.20300 0.65070 0.01240
C11 C -0.22350 0.74220 0.04880
C12 C -0.18100 0.82290 0.00900
C13 C -0.11460 0.81420 -0.06570
C14 C -0.09220 0.72470 -0.10050
C15 C -0.13560 0.64280 -0.06220
C16 C -0.26730 0.30990 0.10540
C17 C -0.28620 0.23250 0.02680
C18 C -0.22580 0.14570 0.06410
C19 C -0.14530 0.13530 0.18270
C20 C -0.12650 0.20950 0.26320
C21 C -0.18660 0.29640 0.22430
H1 H -0.16400 0.44100 0.02800
H2 H -0.29200 0.46100 -0.08800
H3 H -0.41400 0.39500 0.00200
H4 H -0.47500 0.32200 0.16000
H5 H -0.60400 0.30400 0.26700
H6 H -0.63400 0.43300 0.37900
H7 H -0.52800 0.58300 0.38800
H8 H -0.39800 0.60000 0.27300
H9 H -0.27100 0.74600 0.10600
H10 H -0.19300 0.88700 0.03400
H11 H -0.08200 0.87100 -0.08900
H12 H -0.04500 0.71700 -0.15000
H13 H -0.12900 0.57900 -0.09500
H14 H -0.34500 0.24200 -0.05600
H15 H -0.23900 0.09400 0.00900
H16 H -0.07400 0.19900 0.34600
H17 H -0.17500 0.35000 0.28000
loop_
_geom_bond_atom_site_label_1
_geom_bond_atom_site_label_2
_geom_bond_site_symmetry_1
_geom_bond_site_symmetry_2
Cl1 C19 1_555 1_555
N1 N2 1_555 1_555
N2 C1 1_555 1_555
C1 C2 1_555 1_555
C2 C3 1_555 1_555
C3 N1 1_555 1_555
C4 N1 1_555 1_555
C5 C4 1_555 1_555
C6 C5 1_555 1_555
C7 C6 1_555 1_555
C8 C7 1_555 1_555
C9 C4 1_555 1_555
C10 C1 1_555 1_555
C11 C10 1_555 1_555
C12 C11 1_555 1_555
C13 C12 1_555 1_555
C14 C13 1_555 1_555
C15 C10 1_555 1_555
C16 C3 1_555 1_555
C17 C16 1_555 1_555
C18 C17 1_555 1_555
C19 C18 1_555 1_555
C20 C19 1_555 1_555
C21 C16 1_555 1_555
H1 C2 1_555 1_555
H2 C2 1_555 1_555
H3 C3 1_555 1_555
H4 C5 1_555 1_555
H5 C6 1_555 1_555
H6 C7 1_555 1_555
H7 C8 1_555 1_555
H8 C9 1_555 1_555
H9 C11 1_555 1_555
H10 C12 1_555 1_555
H11 C13 1_555 1_555
H12 C14 1_555 1_555
H13 C15 1_555 1_555
H14 C17 1_555 1_555
H15 C18 1_555 1_555
H16 C20 1_555 1_555
H17 C21 1_555 1_555
C8 C9 1_555 1_555
C14 C15 1_555 1_555
C20 C21 1_555 1_555

#END
