
#######################################################################
#
#                 Cambridge Crystallographic Data Centre
#                                CCDC 
#
#######################################################################
#
# If this CIF has been generated from an entry in the Cambridge 
# Structural Database, then it will include bibliographic, chemical, 
# crystal, experimental, refinement or atomic coordinate data resulting 
# from the CCDC's data processing and validation procedures.
#
#######################################################################

data_PEBBIJ
_chemical_compound_source        'Lycopodium japonicum Thunb'
_chemical_name_common            'lycojaponicumin A'
_chemical_formula_moiety         'C16 H21 N1 O4'
_chemical_name_systematic        
7-Hydroxy-7-methyl-17-oxa-14-azapentacyclo-[12.2.1.0^2,10^.0^2,13^.0^5,10^]heptadecane-3,9-dione
_symmetry_cell_setting           orthorhombic
_symmetry_space_group_name_H-M   'P 21 21 21'
_symmetry_Int_Tables_number      19
_space_group_name_Hall           'P 2ac 2ab'
loop_
_symmetry_equiv_pos_site_id
_symmetry_equiv_pos_as_xyz
1 x,y,z
2 1/2-x,-y,1/2+z
3 1/2+x,1/2-y,-z
4 -x,1/2+y,1/2-z
_cell_length_a                   6.532(3)
_cell_length_b                   12.094(6)
_cell_length_c                   17.506(7)
_cell_angle_alpha                90
_cell_angle_beta                 90
_cell_angle_gamma                90
_cell_volume                     1382.94
_exptl_crystal_colour            colorless
_exptl_crystal_description       prism
_chemical_melting_point          223-225deg.C
_cell_formula_units_Z            4
loop_
_atom_site_label
_atom_site_type_symbol
_atom_site_fract_x
_atom_site_fract_y
_atom_site_fract_z
N1 N 0.2547(2) -0.10839(12) 0.55505(6)
O1 O 0.16348(19) 0.13920(9) 0.68567(6)
O2 O 0.72775(17) -0.01416(11) 0.74657(6)
O3 O 0.53129(16) 0.02636(8) 0.93093(5)
H1 H 0.4481 0.0464 0.9632
O4 O 0.32695(18) 0.00572(9) 0.55543(5)
C1 C 0.4531(3) -0.16665(15) 0.54282(8)
H2 H 0.4870 -0.1697 0.4889
H3 H 0.4476 -0.2414 0.5628
C2 C 0.6105(2) -0.09671(14) 0.58691(8)
H4 H 0.6727 -0.1383 0.6282
H5 H 0.7168 -0.0686 0.5534
C3 C 0.4749(2) -0.00436(13) 0.61693(7)
H6 H 0.5495 0.0643 0.6274
C4 C 0.3329(2) -0.04023(11) 0.68267(6)
C5 C 0.2216(2) 0.05782(11) 0.71914(7)
C6 C 0.1993(2) 0.03791(11) 0.80389(7)
H7 H 0.0620 0.0560 0.8210
H8 H 0.2968 0.0820 0.8325
C7 C 0.2426(2) -0.08505(11) 0.81374(7)
H9 H 0.1177 -0.1247 0.7992
C8 C 0.3024(2) -0.12517(12) 0.89350(7)
H10 H 0.2933 -0.2052 0.8944
H11 H 0.2030 -0.0970 0.9298
C9 C 0.1848(2) -0.11807(13) 0.63652(7)
H12 H 0.0443 -0.0904 0.6409
C10 C 0.1985(3) -0.23319(13) 0.67335(8)
H13 H 0.2119 -0.2897 0.6344
H14 H 0.0765 -0.2483 0.7031
C11 C 0.3889(2) -0.23209(11) 0.72524(7)
H15 H 0.5099 -0.2550 0.6973
H16 H 0.3704 -0.2806 0.7688
C12 C 0.40661(19) -0.10983(11) 0.75094(7)
C13 C 0.6158(2) -0.07607(12) 0.78170(7)
C14 C 0.6736(2) -0.11979(13) 0.85895(7)
H17 H 0.8052 -0.0892 0.8735
H18 H 0.6884 -0.1995 0.8559
C15 C 0.5162(2) -0.09176(11) 0.92065(7)
C16 C 0.5728(3) -0.15101(13) 0.99456(8)
H19 H 0.7077 -0.1291 1.0101
H20 H 0.5700 -0.2295 0.9864
H21 H 0.4762 -0.1318 1.0337
loop_
_geom_bond_atom_site_label_1
_geom_bond_atom_site_label_2
_geom_bond_site_symmetry_1
_geom_bond_site_symmetry_2
N1 O4 1_555 1_555
O1 C5 1_555 1_555
O2 C13 1_555 1_555
O3 H1 1_555 1_555
O4 C3 1_555 1_555
C1 N1 1_555 1_555
H2 C1 1_555 1_555
H3 C1 1_555 1_555
C2 C1 1_555 1_555
H4 C2 1_555 1_555
H5 C2 1_555 1_555
C3 C2 1_555 1_555
H6 C3 1_555 1_555
C4 C3 1_555 1_555
C5 C4 1_555 1_555
C6 C5 1_555 1_555
H7 C6 1_555 1_555
H8 C6 1_555 1_555
C7 C6 1_555 1_555
H9 C7 1_555 1_555
C8 C7 1_555 1_555
H10 C8 1_555 1_555
H11 C8 1_555 1_555
C9 N1 1_555 1_555
H12 C9 1_555 1_555
C10 C9 1_555 1_555
H13 C10 1_555 1_555
H14 C10 1_555 1_555
C11 C10 1_555 1_555
H15 C11 1_555 1_555
H16 C11 1_555 1_555
C12 C4 1_555 1_555
C13 C12 1_555 1_555
C14 C13 1_555 1_555
H17 C14 1_555 1_555
H18 C14 1_555 1_555
C15 O3 1_555 1_555
C16 C15 1_555 1_555
H19 C16 1_555 1_555
H20 C16 1_555 1_555
H21 C16 1_555 1_555
C4 C9 1_555 1_555
C7 C12 1_555 1_555
C8 C15 1_555 1_555
C11 C12 1_555 1_555
C14 C15 1_555 1_555

#END
