
#######################################################################
#
#                 Cambridge Crystallographic Data Centre
#                                CCDC 
#
#######################################################################
#
# If this CIF has been generated from an entry in the Cambridge 
# Structural Database, then it will include bibliographic, chemical, 
# crystal, experimental, refinement or atomic coordinate data resulting 
# from the CCDC's data processing and validation procedures.
#
#######################################################################

data_PEBBOP
_chemical_compound_source        'Lycopodium japonicum Thunb'
_chemical_name_common            'lycojaponicumin B'
_chemical_formula_moiety         'C16 H23 N1 O4'
_chemical_name_systematic        
3,4-Dihydroxy-7-methyl-17-oxa-14-azapentacyclo[12.2.1.0^2,10^.0^2,13^.0^5,10^]heptadecan-9-one
_symmetry_cell_setting           monoclinic
_symmetry_space_group_name_H-M   'P 21'
_symmetry_Int_Tables_number      4
_space_group_name_Hall           'P 2yb'
loop_
_symmetry_equiv_pos_site_id
_symmetry_equiv_pos_as_xyz
1 x,y,z
2 -x,1/2+y,-z
_cell_length_a                   6.659(8)
_cell_length_b                   9.549(7)
_cell_length_c                   11.189(8)
_cell_angle_alpha                90
_cell_angle_beta                 91.20(2)
_cell_angle_gamma                90
_cell_volume                     711.317
_exptl_crystal_colour            colorless
_exptl_crystal_description       cubic
_cell_formula_units_Z            2
loop_
_atom_site_label
_atom_site_type_symbol
_atom_site_fract_x
_atom_site_fract_y
_atom_site_fract_z
N1 N -0.6058(2) 0.39355(19) -0.98975(13)
O1 O -0.6617(2) -0.01097(15) -0.84426(11)
H1 H -0.5913 -0.0436 -0.8967
O2 O -0.7210(2) 0.00674(16) -0.61923(12)
H2 H -0.7456 -0.0528 -0.6703
O3 O -1.0838(2) 0.21858(18) -0.72344(11)
O4 O -0.6771(2) 0.25374(17) -1.02203(11)
C1 C -0.8006(3) 0.4705(3) -0.99327(17)
H3 H -0.8353 0.4996 -1.0742
H4 H -0.7943 0.5526 -0.9423
C2 C -0.9541(3) 0.3646(3) -0.94704(16)
H5 H -1.0146 0.3966 -0.8738
H6 H -1.0589 0.3454 -1.0064
C3 C -0.8205(3) 0.2372(2) -0.92523(15)
H7 H -0.8941 0.1484 -0.9289
C4 C -0.6784(3) 0.2484(2) -0.81707(14)
C5 C -0.5658(3) 0.1078(2) -0.79324(15)
H8 H -0.4288 0.1148 -0.8231
C6 C -0.5576(3) 0.0913(2) -0.65636(16)
H9 H -0.4289 0.0512 -0.6295
C7 C -0.5837(3) 0.2376(2) -0.60779(14)
H10 H -0.4579 0.2885 -0.6196
C8 C -0.6290(3) 0.2413(2) -0.47286(15)
H11 H -0.6305 0.1458 -0.4432
H12 H -0.5201 0.2899 -0.4316
C9 C -0.5339(3) 0.3656(2) -0.86447(15)
H13 H -0.3966 0.3288 -0.8660
C10 C -0.5408(3) 0.4888(2) -0.77724(17)
H14 H -0.5539 0.5765 -0.8204
H15 H -0.4191 0.4920 -0.7282
C11 C -0.7256(3) 0.4642(2) -0.69886(17)
H16 H -0.8449 0.5061 -0.7350
H17 H -0.7042 0.5035 -0.6197
C12 C -0.7463(3) 0.3027(2) -0.69266(15)
C13 C -0.9535(3) 0.2551(2) -0.65343(15)
C14 C -0.9959(3) 0.2572(3) -0.52061(15)
H18 H -1.0287 0.1628 -0.4958
H19 H -1.1134 0.3150 -0.5081
C15 C -0.8258(3) 0.3112(2) -0.44059(16)
H20 H -0.8123 0.4121 -0.4539
C16 C -0.8684(4) 0.2872(3) -0.30819(17)
H21 H -0.7569 0.3204 -0.2604
H22 H -0.8873 0.1890 -0.2940
H23 H -0.9876 0.3372 -0.2872
loop_
_geom_bond_atom_site_label_1
_geom_bond_atom_site_label_2
_geom_bond_site_symmetry_1
_geom_bond_site_symmetry_2
N1 O4 1_555 1_555
O1 H1 1_555 1_555
O2 H2 1_555 1_555
O3 C13 1_555 1_555
O4 C3 1_555 1_555
C1 N1 1_555 1_555
H3 C1 1_555 1_555
H4 C1 1_555 1_555
C2 C1 1_555 1_555
H5 C2 1_555 1_555
H6 C2 1_555 1_555
C3 C2 1_555 1_555
H7 C3 1_555 1_555
C4 C3 1_555 1_555
C5 O1 1_555 1_555
H8 C5 1_555 1_555
C6 O2 1_555 1_555
H9 C6 1_555 1_555
C7 C6 1_555 1_555
H10 C7 1_555 1_555
C8 C7 1_555 1_555
H11 C8 1_555 1_555
H12 C8 1_555 1_555
C9 N1 1_555 1_555
H13 C9 1_555 1_555
C10 C9 1_555 1_555
H14 C10 1_555 1_555
H15 C10 1_555 1_555
C11 C10 1_555 1_555
H16 C11 1_555 1_555
H17 C11 1_555 1_555
C12 C4 1_555 1_555
C13 C12 1_555 1_555
C14 C13 1_555 1_555
H18 C14 1_555 1_555
H19 C14 1_555 1_555
C15 C8 1_555 1_555
H20 C15 1_555 1_555
C16 C15 1_555 1_555
H21 C16 1_555 1_555
H22 C16 1_555 1_555
H23 C16 1_555 1_555
C4 C5 1_555 1_555
C4 C9 1_555 1_555
C5 C6 1_555 1_555
C7 C12 1_555 1_555
C11 C12 1_555 1_555
C14 C15 1_555 1_555

#END
