
#######################################################################
#
#                 Cambridge Crystallographic Data Centre
#                                CCDC 
#
#######################################################################
#
# If this CIF has been generated from an entry in the Cambridge 
# Structural Database, then it will include bibliographic, chemical, 
# crystal, experimental, refinement or atomic coordinate data resulting 
# from the CCDC's data processing and validation procedures.
#
#######################################################################

data_PEBBUV
_chemical_compound_source        'Lycopodium japonicum Thunb'
_chemical_name_common            'lycojaponicumin C'
_chemical_formula_moiety         'C17 H23 N1 O2'
_chemical_name_systematic        
1,8-Dimethyl-1,3,4,6a,7,11,12,12a-octahydro-2H,5H-benzo[3a,4]pentaleno[1,6a-b]pyridine-5,10(6H)-dione
_symmetry_cell_setting           orthorhombic
_symmetry_space_group_name_H-M   'P 21 21 21'
_symmetry_Int_Tables_number      19
_space_group_name_Hall           'P 2ac 2ab'
loop_
_symmetry_equiv_pos_site_id
_symmetry_equiv_pos_as_xyz
1 x,y,z
2 1/2-x,-y,1/2+z
3 1/2+x,1/2-y,-z
4 -x,1/2+y,1/2-z
_cell_length_a                   10.661(4)
_cell_length_b                   11.765(5)
_cell_length_c                   11.777(5)
_cell_angle_alpha                90
_cell_angle_beta                 90
_cell_angle_gamma                90
_cell_volume                     1477.15
_exptl_crystal_colour            colorless
_exptl_crystal_description       plane
_cell_formula_units_Z            4
loop_
_atom_site_label
_atom_site_type_symbol
_atom_site_fract_x
_atom_site_fract_y
_atom_site_fract_z
N1 N 0.08022(14) -0.14450(10) 0.41821(12)
O1 O -0.14517(11) -0.00135(10) 0.68892(12)
O2 O 0.28209(11) 0.08215(9) 0.39671(10)
C1 C -0.0173(2) -0.11041(14) 0.33816(17)
H1 H -0.0956 -0.1469 0.3586
H2 H 0.0055 -0.1356 0.2625
C2 C -0.03533(18) 0.01667(14) 0.33754(15)
H3 H -0.1027 0.0364 0.2858
H4 H 0.0408 0.0532 0.3109
C3 C -0.06672(14) 0.05939(13) 0.45602(14)
H5 H -0.1521 0.0375 0.4743
H6 H -0.0630 0.1418 0.4561
C4 C 0.02096(13) 0.01403(11) 0.54837(13)
C5 C -0.04046(15) 0.03236(12) 0.66562(15)
C6 C 0.04590(17) 0.09551(14) 0.74412(13)
H7 H 0.0918 0.0435 0.7927
H8 H -0.0002 0.1488 0.7911
C7 C 0.13388(15) 0.15745(12) 0.66308(14)
H9 H 0.2139 0.1734 0.7009
C8 C 0.07236(16) 0.26879(12) 0.62466(13)
H10 H -0.0175 0.2568 0.6201
H11 H 0.0871 0.3259 0.6825
C9 C 0.04615(15) -0.11515(12) 0.53532(14)
H12 H -0.0275 -0.1588 0.5593
C10 C 0.15360(16) -0.13338(12) 0.61792(15)
H13 H 0.1983 -0.2031 0.6005
H14 H 0.1229 -0.1374 0.6954
C11 C 0.23862(14) -0.03002(12) 0.60184(15)
H15 H 0.3013 -0.0455 0.5442
H16 H 0.2812 -0.0119 0.6723
C12 C 0.15404(13) 0.07058(11) 0.56463(12)
C13 C 0.20886(13) 0.12986(11) 0.46078(13)
C14 C 0.17626(13) 0.24895(11) 0.43943(14)
H17 H 0.1987 0.2805 0.3699
C15 C 0.11632(13) 0.31452(12) 0.51386(14)
C16 C 0.08668(16) 0.43694(12) 0.49047(16)
H18 H 0.1184 0.4575 0.4170
H19 H 0.1252 0.4838 0.5474
H20 H -0.0026 0.4478 0.4920
C17 C 0.1026(3) -0.26667(15) 0.4070(2)
H21 H 0.1243 -0.2840 0.3298
H22 H 0.0280 -0.3075 0.4277
H23 H 0.1701 -0.2887 0.4562
loop_
_geom_bond_atom_site_label_1
_geom_bond_atom_site_label_2
_geom_bond_site_symmetry_1
_geom_bond_site_symmetry_2
N1 C1 1_555 1_555
O1 C5 1_555 1_555
O2 C13 1_555 1_555
C1 H1 1_555 1_555
H2 C1 1_555 1_555
C2 C1 1_555 1_555
H3 C2 1_555 1_555
H4 C2 1_555 1_555
C3 C2 1_555 1_555
H5 C3 1_555 1_555
H6 C3 1_555 1_555
C4 C3 1_555 1_555
C5 C4 1_555 1_555
C6 C5 1_555 1_555
H7 C6 1_555 1_555
H8 C6 1_555 1_555
C7 C6 1_555 1_555
H9 C7 1_555 1_555
C8 C7 1_555 1_555
H10 C8 1_555 1_555
H11 C8 1_555 1_555
C9 N1 1_555 1_555
H12 C9 1_555 1_555
C10 C9 1_555 1_555
H13 C10 1_555 1_555
H14 C10 1_555 1_555
C11 C10 1_555 1_555
H15 C11 1_555 1_555
H16 C11 1_555 1_555
C12 C4 1_555 1_555
C13 C12 1_555 1_555
C14 C13 1_555 1_555
H17 C14 1_555 1_555
C15 C8 1_555 1_555
C16 C15 1_555 1_555
H18 C16 1_555 1_555
H19 C16 1_555 1_555
H20 C16 1_555 1_555
C17 N1 1_555 1_555
H21 C17 1_555 1_555
H22 C17 1_555 1_555
H23 C17 1_555 1_555
C4 C9 1_555 1_555
C7 C12 1_555 1_555
C11 C12 1_555 1_555
C14 C15 1_555 1_555

#END
