
#######################################################################
#
#                 Cambridge Crystallographic Data Centre
#                                CCDC 
#
#######################################################################
#
# If this CIF has been generated from an entry in the Cambridge 
# Structural Database, then it will include bibliographic, chemical, 
# crystal, experimental, refinement or atomic coordinate data resulting 
# from the CCDC's data processing and validation procedures.
#
#######################################################################

data_PEBBEG
_chemical_formula_moiety         'C21 H24 N2 O2 S1'
_chemical_name_systematic        
(2R,5R)-2,6-dimethyl-3-(methylsulfonyl)-5-phenyl-1,2,3,4,5,6-hexahydroazepino[4,5-b]indole
_symmetry_cell_setting           monoclinic
_symmetry_space_group_name_H-M   'P 21'
_symmetry_Int_Tables_number      4
_space_group_name_Hall           'P 2yb'
loop_
_symmetry_equiv_pos_site_id
_symmetry_equiv_pos_as_xyz
1 x,y,z
2 -x,1/2+y,-z
_cell_length_a                   9.6188(3)
_cell_length_b                   16.8151(5)
_cell_length_c                   11.4121(3)
_cell_angle_alpha                90
_cell_angle_beta                 92.913(3)
_cell_angle_gamma                90
_cell_volume                     1843.42
_exptl_crystal_colour            colorless
_exptl_crystal_description       plate
_cell_formula_units_Z            4
loop_
_atom_site_label
_atom_site_type_symbol
_atom_site_fract_x
_atom_site_fract_y
_atom_site_fract_z
S1 S -0.96668(15) -0.24062(9) -0.32792(12)
O1 O -1.1104(4) -0.2360(3) -0.3555(3)
O2 O -0.8714(5) -0.2038(3) -0.4047(4)
N1 N -0.9259(5) -0.3337(3) -0.3168(4)
N2 N -0.9740(5) -0.3464(3) 0.0396(4)
C1 C -0.8463(6) -0.3361(4) 0.0963(5)
C2 C -0.6030(6) -0.3496(4) 0.0555(5)
H1 H -0.5321 -0.3624 0.0037
C3 C -0.7414(6) -0.3558(4) 0.0189(5)
C4 C -1.1576(6) -0.4630(4) -0.1267(5)
C5 C -1.0768(7) -0.3880(4) -0.1574(5)
H2 H -1.1411 -0.3416 -0.1516
C6 C -0.7766(6) -0.3537(4) -0.3044(5)
H3 H -0.7225 -0.3034 -0.2916
C7 C -1.2991(6) -0.4607(4) -0.1145(5)
H4 H -1.3484 -0.4122 -0.1269
C8 C -0.9366(6) -0.1960(4) -0.1888(5)
H5 H -0.9550 -0.1388 -0.1948
H6 H -0.8395 -0.2046 -0.1615
H7 H -0.9984 -0.2199 -0.1330
C9 C -0.5683(7) -0.3243(4) 0.1694(6)
H8 H -0.4733 -0.3189 0.1952
C10 C -0.8104(7) -0.3110(4) 0.2121(6)
H9 H -0.8801 -0.2976 0.2648
C11 C -0.7469(7) -0.4084(4) -0.1979(6)
H10 H -0.7805 -0.4627 -0.2178
H11 H -0.6450 -0.4115 -0.1813
C12 C -1.3004(8) -0.6003(4) -0.0677(6)
H12 H -1.3491 -0.6469 -0.0466
C13 C -0.8154(7) -0.3803(4) -0.0882(5)
C14 C -0.9546(6) -0.3740(4) -0.0743(5)
C15 C -1.0870(7) -0.5351(4) -0.1108(5)
H13 H -0.9893 -0.5374 -0.1195
C16 C -1.0307(6) -0.3924(4) -0.2862(5)
H14 H -0.9931 -0.4462 -0.3001
H15 H -1.1140 -0.3854 -0.3398
C17 C -1.3702(8) -0.5291(5) -0.0839(6)
H16 H -1.4676 -0.5268 -0.0742
C18 C -1.1076(6) -0.3355(4) 0.0899(6)
H17 H -1.1430 -0.3871 0.1150
H18 H -1.1732 -0.3121 0.0310
H19 H -1.0971 -0.2999 0.1577
C19 C -0.6729(7) -0.3068(4) 0.2457(6)
H20 H -0.6471 -0.2913 0.3239
C20 C -0.7321(7) -0.3922(4) -0.4172(5)
H21 H -0.7862 -0.4408 -0.4322
H22 H -0.6329 -0.4053 -0.4094
H23 H -0.7488 -0.3551 -0.4827
C21 C -1.1583(8) -0.6029(4) -0.0827(5)
H24 H -1.1097 -0.6519 -0.0735
S2 S -0.54324(15) -0.70847(9) -0.81342(12)
O3 O -0.6499(5) -0.7429(3) -0.8886(4)
O4 O -0.4016(4) -0.7136(3) -0.8429(4)
N3 N -0.4733(5) -0.6013(3) -0.4432(4)
N4 N -0.5800(5) -0.6153(3) -0.7991(4)
C22 C -0.7094(6) -0.5965(4) -0.4591(5)
C23 C -0.8427(7) -0.6067(4) -0.4214(6)
H25 H -0.9221 -0.5940 -0.4708
C24 C -0.4030(7) -0.5608(4) -0.6441(5)
H26 H -0.3400 -0.6081 -0.6400
C25 C -0.7261(6) -0.5936(4) -0.7842(5)
H27 H -0.7791 -0.6438 -0.7717
C26 C -0.3127(6) -0.4870(4) -0.6206(5)
C27 C -0.4697(6) -0.5566(4) -0.7713(5)
H28 H -0.5090 -0.5027 -0.7842
H29 H -0.3952 -0.5638 -0.8271
C28 C -0.5128(7) -0.5733(4) -0.5555(5)
C29 C -0.7388(7) -0.5410(4) -0.6744(6)
H30 H -0.7090 -0.4864 -0.6932
H31 H -0.8379 -0.5386 -0.6552
C30 C -0.5926(6) -0.6140(4) -0.3853(5)
C31 C -0.1697(7) -0.4908(4) -0.6263(5)
H32 H -0.1265 -0.5403 -0.6412
C32 C -0.0893(7) -0.4237(4) -0.6106(5)
H33 H 0.0089 -0.4275 -0.6144
C33 C -0.3331(7) -0.6060(4) -0.3947(6)
H34 H -0.2733 -0.6292 -0.4528
H35 H -0.3304 -0.6395 -0.3244
H36 H -0.2997 -0.5526 -0.3738
C34 C -0.5548(6) -0.7538(4) -0.6743(5)
H37 H -0.6467 -0.7432 -0.6444
H38 H -0.4826 -0.7319 -0.6198
H39 H -0.5414 -0.8113 -0.6817
C35 C -0.3721(7) -0.4143(4) -0.5979(5)
H40 H -0.4701 -0.4106 -0.5919
C36 C -0.6551(7) -0.5691(4) -0.5684(5)
C37 C -0.8570(8) -0.6365(4) -0.3078(6)
H41 H -0.9474 -0.6458 -0.2807
C38 C -0.7869(7) -0.5549(4) -0.8944(6)
H42 H -0.7311 -0.5082 -0.9130
H43 H -0.8828 -0.5384 -0.8823
H44 H -0.7862 -0.5929 -0.9594
C39 C -0.2908(7) -0.3466(4) -0.5837(5)
H45 H -0.3333 -0.2967 -0.5700
C40 C -0.1485(6) -0.3516(4) -0.5896(5)
H46 H -0.0921 -0.3055 -0.5792
C41 C -0.6097(8) -0.6427(4) -0.2706(6)
H47 H -0.5316 -0.6550 -0.2196
C42 C -0.7427(8) -0.6521(4) -0.2356(6)
H48 H -0.7560 -0.6703 -0.1581
loop_
_geom_bond_atom_site_label_1
_geom_bond_atom_site_label_2
_geom_bond_site_symmetry_1
_geom_bond_site_symmetry_2
S1 O1 1_555 1_555
O2 S1 1_555 1_555
N1 S1 1_555 1_555
N2 C1 1_555 1_555
C1 C3 1_555 1_555
C2 H1 1_555 1_555
C3 C2 1_555 1_555
C4 C5 1_555 1_555
C5 H2 1_555 1_555
C6 N1 1_555 1_555
H3 C6 1_555 1_555
C7 C4 1_555 1_555
H4 C7 1_555 1_555
C8 S1 1_555 1_555
H5 C8 1_555 1_555
H6 C8 1_555 1_555
H7 C8 1_555 1_555
C9 C2 1_555 1_555
H8 C9 1_555 1_555
C10 C1 1_555 1_555
H9 C10 1_555 1_555
C11 C6 1_555 1_555
H10 C11 1_555 1_555
H11 C11 1_555 1_555
C12 H12 1_555 1_555
C13 C3 1_555 1_555
C14 N2 1_555 1_555
C15 C4 1_555 1_555
H13 C15 1_555 1_555
C16 N1 1_555 1_555
H14 C16 1_555 1_555
H15 C16 1_555 1_555
C17 C7 1_555 1_555
H16 C17 1_555 1_555
C18 N2 1_555 1_555
H17 C18 1_555 1_555
H18 C18 1_555 1_555
H19 C18 1_555 1_555
C19 C9 1_555 1_555
H20 C19 1_555 1_555
C20 C6 1_555 1_555
H21 C20 1_555 1_555
H22 C20 1_555 1_555
H23 C20 1_555 1_555
C21 C12 1_555 1_555
H24 C21 1_555 1_555
S2 O3 1_555 1_555
O4 S2 1_555 1_555
N3 C28 1_555 1_555
N4 S2 1_555 1_555
C22 C23 1_555 1_555
C23 H25 1_555 1_555
C24 H26 1_555 1_555
C25 N4 1_555 1_555
H27 C25 1_555 1_555
C26 C24 1_555 1_555
C27 N4 1_555 1_555
H28 C27 1_555 1_555
H29 C27 1_555 1_555
C28 C24 1_555 1_555
C29 C25 1_555 1_555
H30 C29 1_555 1_555
H31 C29 1_555 1_555
C30 N3 1_555 1_555
C31 C26 1_555 1_555
H32 C31 1_555 1_555
C32 C31 1_555 1_555
H33 C32 1_555 1_555
C33 N3 1_555 1_555
H34 C33 1_555 1_555
H35 C33 1_555 1_555
H36 C33 1_555 1_555
C34 S2 1_555 1_555
H37 C34 1_555 1_555
H38 C34 1_555 1_555
H39 C34 1_555 1_555
C35 C26 1_555 1_555
H40 C35 1_555 1_555
C36 C22 1_555 1_555
C37 C23 1_555 1_555
H41 C37 1_555 1_555
C38 C25 1_555 1_555
H42 C38 1_555 1_555
H43 C38 1_555 1_555
H44 C38 1_555 1_555
C39 C35 1_555 1_555
H45 C39 1_555 1_555
C40 C32 1_555 1_555
H46 C40 1_555 1_555
C41 C30 1_555 1_555
H47 C41 1_555 1_555
C42 C37 1_555 1_555
H48 C42 1_555 1_555
C5 C14 1_555 1_555
C5 C16 1_555 1_555
C10 C19 1_555 1_555
C11 C13 1_555 1_555
C12 C17 1_555 1_555
C13 C14 1_555 1_555
C15 C21 1_555 1_555
C22 C30 1_555 1_555
C24 C27 1_555 1_555
C28 C36 1_555 1_555
C29 C36 1_555 1_555
C39 C40 1_555 1_555
C41 C42 1_555 1_555

#END
