
#######################################################################
#
#                 Cambridge Crystallographic Data Centre
#                                CCDC 
#
#######################################################################
#
# If this CIF has been generated from an entry in the Cambridge 
# Structural Database, then it will include bibliographic, chemical, 
# crystal, experimental, refinement or atomic coordinate data resulting 
# from the CCDC's data processing and validation procedures.
#
#######################################################################

data_PEBDEI
_chemical_formula_moiety         'C21 H27 N1 O2 S1'
_chemical_name_systematic        
6,6-dimethyl-1-((4-methylphenyl)sulfonyl)-2-phenylazepane
_symmetry_cell_setting           monoclinic
_symmetry_space_group_name_H-M   'P 21/n'
_symmetry_Int_Tables_number      14
_space_group_name_Hall           '-P 2yn'
loop_
_symmetry_equiv_pos_site_id
_symmetry_equiv_pos_as_xyz
1 x,y,z
2 1/2-x,1/2+y,1/2-z
3 -x,-y,-z
4 1/2+x,1/2-y,1/2+z
_cell_length_a                   11.6983(3)
_cell_length_b                   13.0767(3)
_cell_length_c                   13.6557(5)
_cell_angle_alpha                90
_cell_angle_beta                 114.637(4)
_cell_angle_gamma                90
_cell_volume                     1898.82
_cell_formula_units_Z            4
loop_
_atom_site_label
_atom_site_type_symbol
_atom_site_fract_x
_atom_site_fract_y
_atom_site_fract_z
C1 C 0.18754(11) 0.85937(9) 0.23251(9)
H1 H 0.2262 0.8959 0.3003
H2 H 0.2219 0.7906 0.2444
C2 C 0.04424(12) 0.85259(9) 0.20025(10)
C3 C -0.02122(12) 0.77739(10) 0.10644(11)
H3 H 0.0020 0.7085 0.1339
H4 H -0.1113 0.7838 0.0835
C4 C 0.00657(12) 0.78950(10) 0.00726(10)
H5 H -0.0099 0.8597 -0.0176
H6 H -0.0502 0.7460 -0.0498
C5 C 0.14232(12) 0.76232(10) 0.02862(10)
H7 H 0.1426 0.7334 -0.0367
H8 H 0.1716 0.7097 0.0836
C6 C 0.23602(12) 0.85134(9) 0.06470(10)
H9 H 0.2134 0.8976 0.0030
C7 C 0.03027(14) 0.81092(11) 0.29959(11)
H10 H 0.0650 0.8591 0.3577
H11 H 0.0742 0.7470 0.3207
H12 H -0.0572 0.8006 0.2827
C8 C -0.01750(12) 0.95823(10) 0.17184(12)
H13 H -0.1051 0.9526 0.1567
H14 H -0.0089 0.9844 0.1096
H15 H 0.0228 1.0039 0.2314
C9 C 0.36880(12) 0.81314(9) 0.09156(10)
C10 C 0.42600(13) 0.83672(10) 0.02296(11)
H16 H 0.3823 0.8753 -0.0386
C11 C 0.54740(14) 0.80358(11) 0.04492(12)
H17 H 0.5841 0.8201 -0.0017
C12 C 0.61342(13) 0.74584(11) 0.13639(12)
H18 H 0.6949 0.7242 0.1518
C13 C 0.55689(13) 0.72053(10) 0.20493(11)
H19 H 0.6007 0.6814 0.2661
C14 C 0.43541(12) 0.75329(10) 0.18268(10)
H20 H 0.3982 0.7353 0.2286
C15 C 0.45263(11) 1.00770(9) 0.25529(10)
C16 C 0.53355(12) 1.01755(10) 0.20491(10)
H21 H 0.5021 1.0327 0.1318
C17 C 0.66191(12) 1.00451(11) 0.26476(12)
H22 H 0.7161 1.0103 0.2309
C18 C 0.71078(12) 0.98297(10) 0.37434(11)
C19 C 0.62819(12) 0.97528(10) 0.42376(11)
H23 H 0.6599 0.9622 0.4973
C20 C 0.49953(12) 0.98674(10) 0.36505(10)
H24 H 0.4452 0.9805 0.3987
C21 C 0.84954(13) 0.96730(13) 0.43874(14)
H25 H 0.8726 0.9895 0.5115
H26 H 0.8953 1.0063 0.4074
H27 H 0.8693 0.8961 0.4384
N1 N 0.22314(10) 0.91052(8) 0.15264(8)
O1 O 0.24295(9) 1.07416(7) 0.24984(8)
O2 O 0.27211(9) 1.06907(7) 0.07950(8)
S1 S 0.28887(3) 1.02306(2) 0.18004(2)
loop_
_geom_bond_atom_site_label_1
_geom_bond_atom_site_label_2
_geom_bond_site_symmetry_1
_geom_bond_site_symmetry_2
C1 H1 1_555 1_555
H2 C1 1_555 1_555
C2 C1 1_555 1_555
C3 C2 1_555 1_555
H3 C3 1_555 1_555
H4 C3 1_555 1_555
C4 C3 1_555 1_555
H5 C4 1_555 1_555
H6 C4 1_555 1_555
C5 C4 1_555 1_555
H7 C5 1_555 1_555
H8 C5 1_555 1_555
C6 C5 1_555 1_555
H9 C6 1_555 1_555
C7 C2 1_555 1_555
H10 C7 1_555 1_555
H11 C7 1_555 1_555
H12 C7 1_555 1_555
C8 C2 1_555 1_555
H13 C8 1_555 1_555
H14 C8 1_555 1_555
H15 C8 1_555 1_555
C9 C6 1_555 1_555
C10 C9 1_555 1_555
H16 C10 1_555 1_555
C11 C10 1_555 1_555
H17 C11 1_555 1_555
C12 C11 1_555 1_555
H18 C12 1_555 1_555
C13 C12 1_555 1_555
H19 C13 1_555 1_555
C14 C9 1_555 1_555
H20 C14 1_555 1_555
C15 C16 1_555 1_555
C16 H21 1_555 1_555
C17 C16 1_555 1_555
H22 C17 1_555 1_555
C18 C17 1_555 1_555
C19 C18 1_555 1_555
H23 C19 1_555 1_555
C20 C15 1_555 1_555
H24 C20 1_555 1_555
C21 C18 1_555 1_555
H25 C21 1_555 1_555
H26 C21 1_555 1_555
H27 C21 1_555 1_555
N1 C1 1_555 1_555
O1 S1 1_555 1_555
O2 S1 1_555 1_555
S1 C15 1_555 1_555
C6 N1 1_555 1_555
C13 C14 1_555 1_555
C19 C20 1_555 1_555
N1 S1 1_555 1_555

#END
