
#######################################################################
#
#                 Cambridge Crystallographic Data Centre
#                                CCDC 
#
#######################################################################
#
# If this CIF has been generated from an entry in the Cambridge 
# Structural Database, then it will include bibliographic, chemical, 
# crystal, experimental, refinement or atomic coordinate data resulting 
# from the CCDC's data processing and validation procedures.
#
#######################################################################

data_PEBLIS
_chemical_formula_moiety         'C15 H18 O5'
_chemical_name_systematic        
5a-allyl-3a,4-dihydroxy-8b-methyl-3a,4,5,5a,6,8b-hexahydro-1H-indeno[4,5-c]furan-3,7-dione
_symmetry_cell_setting           triclinic
_symmetry_space_group_name_H-M   'P -1'
_symmetry_Int_Tables_number      2
_space_group_name_Hall           '-P 1'
loop_
_symmetry_equiv_pos_site_id
_symmetry_equiv_pos_as_xyz
1 x,y,z
2 -x,-y,-z
_cell_length_a                   8.5840(17)
_cell_length_b                   8.7590(18)
_cell_length_c                   9.785(2)
_cell_angle_alpha                78.98(3)
_cell_angle_beta                 80.70(3)
_cell_angle_gamma                73.04(3)
_cell_volume                     686.331
_cell_formula_units_Z            2
loop_
_atom_site_label
_atom_site_type_symbol
_atom_site_fract_x
_atom_site_fract_y
_atom_site_fract_z
O1 O -0.13298(16) 0.11535(18) 0.30482(18)
O2 O 0.28134(17) 0.48970(17) 0.48041(14)
H1 H 0.3515 0.4417 0.5329
O3 O 0.57715(15) 0.30831(17) 0.21169(14)
H2 H 0.6706 0.2539 0.2244
O4 O 0.5128(2) 0.6562(2) 0.31124(16)
O5 O 0.38629(17) 0.64411(17) 0.13452(15)
C1 C 0.1554(2) 0.0648(2) 0.3263(2)
H3 H 0.1861 -0.0280 0.2775
H4 H 0.1617 0.0272 0.4257
C2 C -0.0137(2) 0.1667(2) 0.3003(2)
C3 C -0.0080(2) 0.3344(2) 0.2739(2)
H5 H -0.0992 0.4231 0.2661
C4 C 0.14652(19) 0.3432(2) 0.26237(19)
C5 C 0.2008(2) 0.4941(2) 0.25326(19)
C6 C 0.3441(2) 0.4654(2) 0.34178(19)
C7 C 0.4734(2) 0.3014(2) 0.3408(2)
H6 H 0.5407 0.2870 0.4166
C8 C 0.3955(2) 0.1621(2) 0.3677(2)
H7 H 0.3430 0.1538 0.4633
H8 H 0.4814 0.0628 0.3593
C9 C 0.2685(2) 0.1768(2) 0.2689(2)
C10 C 0.3527(2) 0.1365(2) 0.1217(2)
H9 H 0.4278 0.2028 0.0869
H10 H 0.4171 0.0246 0.1322
C11 C 0.2378(2) 0.1619(3) 0.0146(2)
H11 H 0.1873 0.2680 -0.0215
C12 C 0.2027(3) 0.0484(3) -0.0322(3)
H12 H 0.2505 -0.0593 0.0011
H13 H 0.1297 0.0748 -0.0991
C13 C 0.4255(2) 0.5969(3) 0.2654(2)
C14 C 0.2804(2) 0.5524(2) 0.1072(2)
H14 H 0.3438 0.4614 0.0610
H15 H 0.1977 0.6202 0.0487
C15 C 0.0565(2) 0.6334(2) 0.2991(2)
H16 H -0.0261 0.6591 0.2367
H17 H 0.0948 0.7266 0.2966
H18 H 0.0109 0.6012 0.3928
loop_
_geom_bond_atom_site_label_1
_geom_bond_atom_site_label_2
_geom_bond_site_symmetry_1
_geom_bond_site_symmetry_2
O1 C2 1_555 1_555
O2 H1 1_555 1_555
O3 H2 1_555 1_555
O4 C13 1_555 1_555
O5 C13 1_555 1_555
C1 H3 1_555 1_555
H4 C1 1_555 1_555
C2 C1 1_555 1_555
C3 C2 1_555 1_555
H5 C3 1_555 1_555
C4 C3 1_555 1_555
C5 C4 1_555 1_555
C6 O2 1_555 1_555
C7 O3 1_555 1_555
H6 C7 1_555 1_555
C8 C7 1_555 1_555
H7 C8 1_555 1_555
H8 C8 1_555 1_555
C9 C1 1_555 1_555
C10 C9 1_555 1_555
H9 C10 1_555 1_555
H10 C10 1_555 1_555
C11 C10 1_555 1_555
H11 C11 1_555 1_555
C12 C11 1_555 1_555
H12 C12 1_555 1_555
H13 C12 1_555 1_555
C13 C6 1_555 1_555
C14 O5 1_555 1_555
H14 C14 1_555 1_555
H15 C14 1_555 1_555
C15 C5 1_555 1_555
H16 C15 1_555 1_555
H17 C15 1_555 1_555
H18 C15 1_555 1_555
C4 C9 1_555 1_555
C5 C6 1_555 1_555
C5 C14 1_555 1_555
C6 C7 1_555 1_555
C8 C9 1_555 1_555

#END
