
#######################################################################
#
#                 Cambridge Crystallographic Data Centre
#                                CCDC 
#
#######################################################################
#
# If this CIF has been generated from an entry in the Cambridge 
# Structural Database, then it will include bibliographic, chemical, 
# crystal, experimental, refinement or atomic coordinate data resulting 
# from the CCDC's data processing and validation procedures.
#
#######################################################################

data_PEBLUG
_chemical_formula_moiety         'C34 H33 O6'
_chemical_name_systematic        
'(2,6,10-tributoxy-4,8-dioxo-4H,8H-dibenzo[cd,mn]pyren-12-yl)oxidanyl radical'
_symmetry_cell_setting           orthorhombic
_symmetry_space_group_name_H-M   'P 21 21 21'
_symmetry_Int_Tables_number      19
_space_group_name_Hall           'P 2ac 2ab'
loop_
_symmetry_equiv_pos_site_id
_symmetry_equiv_pos_as_xyz
1 x,y,z
2 1/2+x,1/2-y,-z
3 -x,1/2+y,1/2-z
4 1/2-x,-y,1/2+z
_cell_length_a                   6.5294(7)
_cell_length_b                   26.765(3)
_cell_length_c                   30.423(3)
_cell_angle_alpha                90
_cell_angle_beta                 90
_cell_angle_gamma                90
_cell_volume                     5316.7
_exptl_crystal_colour            black
_exptl_crystal_description       needle
_cell_formula_units_Z            8
loop_
_atom_site_label
_atom_site_type_symbol
_atom_site_fract_x
_atom_site_fract_y
_atom_site_fract_z
O1 O 0.4663(6) 0.41229(15) 0.68169(12)
O2 O 0.4571(6) 0.36356(14) 0.91376(12)
O3 O 0.5067(7) 0.15972(15) 0.76092(11)
O4 O 0.3754(7) 0.51466(16) 0.82410(14)
O5 O 0.4424(7) 0.24512(15) 0.61083(13)
O6 O 0.5657(6) 0.17446(15) 0.92285(12)
C1 C 0.4124(9) 0.4666(2) 0.8107(2)
C2 C 0.4288(9) 0.4506(2) 0.7672(2)
H1 H 0.4207 0.4740 0.7437
C3 C 0.4572(8) 0.3998(2) 0.75861(18)
C4 C 0.4673(8) 0.3645(2) 0.79369(18)
C5 C 0.4536(9) 0.3826(2) 0.83801(18)
C6 C 0.4271(8) 0.4328(2) 0.84591(19)
H2 H 0.4188 0.4447 0.8753
C7 C 0.4690(9) 0.3825(2) 0.71223(18)
C8 C 0.4783(9) 0.3276(2) 0.70474(18)
C9 C 0.4854(9) 0.2942(2) 0.74147(17)
C10 C 0.4882(9) 0.3117(2) 0.78556(17)
C11 C 0.4913(9) 0.2770(2) 0.82140(17)
C12 C 0.4900(9) 0.2937(2) 0.86562(17)
C13 C 0.4641(8) 0.3480(2) 0.87554(19)
C14 C 0.4692(9) 0.3101(2) 0.6626(2)
H3 H 0.4659 0.3330 0.6388
C15 C 0.4648(10) 0.2587(2) 0.65425(18)
C16 C 0.4802(9) 0.2244(2) 0.68841(18)
H4 H 0.4832 0.1896 0.6824
C17 C 0.4915(9) 0.2418(2) 0.73197(17)
C18 C 0.5015(9) 0.2048(2) 0.76863(19)
C19 C 0.5058(9) 0.2250(2) 0.81367(18)
C20 C 0.5254(9) 0.1922(2) 0.84858(19)
H5 H 0.5342 0.1574 0.8431
C21 C 0.5323(9) 0.2098(2) 0.89172(18)
C22 C 0.5063(9) 0.2601(2) 0.90080(18)
H6 H 0.4996 0.2716 0.9303
C23 C 0.3125(10) 0.5507(2) 0.7913(2)
H7 H 0.2017 0.5369 0.7727
H8 H 0.4293 0.5600 0.7723
C24 C 0.2369(9) 0.5956(2) 0.8171(2)
H9 H 0.2088 0.6232 0.7962
H10 H 0.3474 0.6069 0.8370
C25 C 0.0445(10) 0.5860(2) 0.8442(2)
H11 H 0.0280 0.6134 0.8657
H12 H 0.0627 0.5545 0.8608
C26 C -0.1516(9) 0.5821(3) 0.8165(2)
H13 H -0.2158 0.6151 0.8143
H14 H -0.2469 0.5587 0.8305
H15 H -0.1172 0.5700 0.7870
C27 C 0.3942(12) 0.1930(2) 0.6018(2)
H16 H 0.2808 0.1816 0.6210
H17 H 0.5153 0.1717 0.6075
C28 C 0.3319(13) 0.1896(3) 0.5538(2)
H18 H 0.3061 0.1541 0.5465
H19 H 0.4475 0.2012 0.5354
C29 C 0.1402(14) 0.2203(3) 0.5421(3)
H20 H 0.1181 0.2187 0.5099
H21 H 0.1641 0.2557 0.5500
C30 C -0.0547(14) 0.2017(3) 0.5656(3)
H22 H -0.1248 0.1771 0.5471
H23 H -0.1462 0.2300 0.5712
H24 H -0.0168 0.1861 0.5936
C31 C 0.6241(10) 0.1914(2) 0.96724(19)
H25 H 0.5038 0.2047 0.9832
H26 H 0.7302 0.2178 0.9656
C32 C 0.7072(10) 0.1449(3) 0.9899(2)
H27 H 0.6013 0.1185 0.9890
H28 H 0.7339 0.1529 1.0212
C33 C 0.9041(10) 0.1246(3) 0.9693(2)
H29 H 0.9286 0.0905 0.9808
H30 H 0.8839 0.1220 0.9372
C34 C 1.0947(10) 0.1563(3) 0.9780(2)
H31 H 1.1092 0.1814 0.9547
H32 H 1.2160 0.1347 0.9783
H33 H 1.0812 0.1731 1.0065
O7 O -0.0604(7) 0.46447(15) 0.74686(13)
O8 O -0.0175(6) 0.28357(15) 0.92066(12)
O9 O -0.0070(6) 0.20364(14) 0.69472(12)
O10 O -0.1387(6) 0.47223(15) 0.90886(14)
O11 O -0.0094(9) 0.35992(16) 0.60758(13)
O12 O 0.0684(7) 0.12029(15) 0.84648(13)
C35 C -0.0987(9) 0.4331(2) 0.8817(2)
C36 C -0.0876(9) 0.4438(2) 0.8374(2)
H34 H -0.0961 0.4776 0.8281
C37 C -0.0645(9) 0.4066(2) 0.80627(19)
C38 C -0.0519(8) 0.3559(2) 0.81950(19)
C39 C -0.0524(9) 0.3450(2) 0.86494(18)
C40 C -0.0721(8) 0.3838(2) 0.8963(2)
H35 H -0.0674 0.3766 0.9268
C41 C -0.0591(9) 0.4207(2) 0.75931(19)
C42 C -0.0461(9) 0.3792(2) 0.72713(18)
C43 C -0.0370(9) 0.3288(2) 0.74204(19)
C44 C -0.0400(9) 0.3166(2) 0.78727(18)
C45 C -0.0189(9) 0.2658(2) 0.80172(17)
C46 C -0.0093(9) 0.2539(2) 0.84699(19)
C47 C -0.0242(9) 0.2935(2) 0.88152(19)
C48 C -0.0382(9) 0.3902(2) 0.68226(19)
H36 H -0.0428 0.4240 0.6726
C49 C -0.0238(10) 0.3519(2) 0.65199(18)
C50 C -0.0254(10) 0.3019(2) 0.66536(19)
H37 H -0.0246 0.2759 0.6441
C51 C -0.0282(9) 0.2905(2) 0.70982(19)
C52 C -0.0160(9) 0.2374(2) 0.72279(19)
C53 C -0.0086(9) 0.2265(2) 0.77018(17)
C54 C 0.0184(10) 0.1770(2) 0.78439(19)
H38 H 0.0271 0.1506 0.7636
C55 C 0.0323(10) 0.1670(2) 0.82901(19)
C56 C 0.0172(9) 0.2049(2) 0.86017(18)
H39 H 0.0251 0.1971 0.8906
C57 C -0.2086(11) 0.4622(3) 0.9538(2)
H40 H -0.0933 0.4508 0.9724
H41 H -0.3164 0.4362 0.9539
C58 C -0.2926(10) 0.5111(3) 0.9705(2)
H42 H -0.1844 0.5369 0.9682
H43 H -0.3273 0.5074 1.0020
C59 C -0.4843(10) 0.5295(3) 0.9457(2)
H44 H -0.5107 0.5647 0.9538
H45 H -0.4558 0.5286 0.9137
C60 C -0.6771(10) 0.4989(3) 0.9549(3)
H46 H -0.6874 0.4717 0.9334
H47 H -0.7979 0.5204 0.9525
H48 H -0.6697 0.4849 0.9846
C61 C 0.0448(18) 0.4110(3) 0.5926(2)
H49 H -0.0757 0.4333 0.5953
H50 H 0.1559 0.4247 0.6112
C62 C 0.1111(19) 0.4091(4) 0.5473(3)
H51 H 0.1287 0.4436 0.5363
H52 H 0.0026 0.3930 0.5295
C63 C 0.3046(15) 0.3815(4) 0.5409(4)
H53 H 0.3186 0.3753 0.5090
H54 H 0.2873 0.3485 0.5551
C64 C 0.5070(15) 0.4024(4) 0.5566(3)
H55 H 0.5694 0.4223 0.5331
H56 H 0.5989 0.3749 0.5645
H57 H 0.4839 0.4237 0.5824
C65 C 0.1309(11) 0.0802(2) 0.8158(2)
H58 H 0.2450 0.0915 0.7969
H59 H 0.0146 0.0701 0.7969
C66 C 0.1988(11) 0.0370(3) 0.8452(2)
H60 H 0.0854 0.0286 0.8656
H61 H 0.2240 0.0073 0.8266
C67 C 0.3906(13) 0.0473(3) 0.8723(3)
H62 H 0.3757 0.0804 0.8865
H63 H 0.3990 0.0220 0.8960
C68 C 0.5842(15) 0.0467(4) 0.8477(3)
H64 H 0.6437 0.0131 0.8488
H65 H 0.6798 0.0706 0.8608
H66 H 0.5582 0.0559 0.8170
loop_
_geom_bond_atom_site_label_1
_geom_bond_atom_site_label_2
_geom_bond_site_symmetry_1
_geom_bond_site_symmetry_2
O1 C7 1_555 1_555
O2 C13 1_555 1_555
O3 C18 1_555 1_555
O4 C1 1_555 1_555
O5 C15 1_555 1_555
O6 C21 1_555 1_555
C1 C2 1_555 1_555
C2 H1 1_555 1_555
C3 C2 1_555 1_555
C4 C3 1_555 1_555
C5 C4 1_555 1_555
C6 C1 1_555 1_555
H2 C6 1_555 1_555
C7 C3 1_555 1_555
C8 C7 1_555 1_555
C9 C8 1_555 1_555
C10 C4 1_555 1_555
C11 C10 1_555 1_555
C12 C11 1_555 1_555
C13 C5 1_555 1_555
C14 C8 1_555 1_555
H3 C14 1_555 1_555
C15 C14 1_555 1_555
C16 C15 1_555 1_555
H4 C16 1_555 1_555
C17 C9 1_555 1_555
C18 C17 1_555 1_555
C19 C11 1_555 1_555
C20 C19 1_555 1_555
H5 C20 1_555 1_555
C21 C20 1_555 1_555
C22 C12 1_555 1_555
H6 C22 1_555 1_555
C23 O4 1_555 1_555
H7 C23 1_555 1_555
H8 C23 1_555 1_555
C24 C23 1_555 1_555
H9 C24 1_555 1_555
H10 C24 1_555 1_555
C25 C24 1_555 1_555
H11 C25 1_555 1_555
H12 C25 1_555 1_555
C26 C25 1_555 1_555
H13 C26 1_555 1_555
H14 C26 1_555 1_555
H15 C26 1_555 1_555
C27 O5 1_555 1_555
H16 C27 1_555 1_555
H17 C27 1_555 1_555
C28 C27 1_555 1_555
H18 C28 1_555 1_555
H19 C28 1_555 1_555
C29 C28 1_555 1_555
H20 C29 1_555 1_555
H21 C29 1_555 1_555
C30 C29 1_555 1_555
H22 C30 1_555 1_555
H23 C30 1_555 1_555
H24 C30 1_555 1_555
C31 O6 1_555 1_555
H25 C31 1_555 1_555
H26 C31 1_555 1_555
C32 C31 1_555 1_555
H27 C32 1_555 1_555
H28 C32 1_555 1_555
C33 C32 1_555 1_555
H29 C33 1_555 1_555
H30 C33 1_555 1_555
C34 C33 1_555 1_555
H31 C34 1_555 1_555
H32 C34 1_555 1_555
H33 C34 1_555 1_555
O7 C41 1_555 1_555
O8 C47 1_555 1_555
O9 C52 1_555 1_555
O10 C35 1_555 1_555
O11 C49 1_555 1_555
O12 C55 1_555 1_555
C35 C36 1_555 1_555
C36 H34 1_555 1_555
C37 C36 1_555 1_555
C38 C37 1_555 1_555
C39 C38 1_555 1_555
C40 C35 1_555 1_555
H35 C40 1_555 1_555
C41 C37 1_555 1_555
C42 C41 1_555 1_555
C43 C42 1_555 1_555
C44 C38 1_555 1_555
C45 C44 1_555 1_555
C46 C45 1_555 1_555
C47 C39 1_555 1_555
C48 C42 1_555 1_555
H36 C48 1_555 1_555
C49 C48 1_555 1_555
C50 C49 1_555 1_555
H37 C50 1_555 1_555
C51 C43 1_555 1_555
C52 C51 1_555 1_555
C53 C45 1_555 1_555
C54 C53 1_555 1_555
H38 C54 1_555 1_555
C55 C54 1_555 1_555
C56 C46 1_555 1_555
H39 C56 1_555 1_555
C57 O10 1_555 1_555
H40 C57 1_555 1_555
H41 C57 1_555 1_555
C58 C57 1_555 1_555
H42 C58 1_555 1_555
H43 C58 1_555 1_555
C59 C58 1_555 1_555
H44 C59 1_555 1_555
H45 C59 1_555 1_555
C60 C59 1_555 1_555
H46 C60 1_555 1_555
H47 C60 1_555 1_555
H48 C60 1_555 1_555
C61 O11 1_555 1_555
H49 C61 1_555 1_555
H50 C61 1_555 1_555
C62 C61 1_555 1_555
H51 C62 1_555 1_555
H52 C62 1_555 1_555
C63 C62 1_555 1_555
H53 C63 1_555 1_555
H54 C63 1_555 1_555
C64 C63 1_555 1_555
H55 C64 1_555 1_555
H56 C64 1_555 1_555
H57 C64 1_555 1_555
C65 O12 1_555 1_555
H58 C65 1_555 1_555
H59 C65 1_555 1_555
C66 C65 1_555 1_555
H60 C66 1_555 1_555
H61 C66 1_555 1_555
C67 C66 1_555 1_555
H62 C67 1_555 1_555
H63 C67 1_555 1_555
C68 C67 1_555 1_555
H64 C68 1_555 1_555
H65 C68 1_555 1_555
H66 C68 1_555 1_555
C5 C6 1_555 1_555
C9 C10 1_555 1_555
C12 C13 1_555 1_555
C16 C17 1_555 1_555
C18 C19 1_555 1_555
C21 C22 1_555 1_555
C39 C40 1_555 1_555
C43 C44 1_555 1_555
C46 C47 1_555 1_555
C50 C51 1_555 1_555
C52 C53 1_555 1_555
C55 C56 1_555 1_555

#END
