
#######################################################################
#
#                 Cambridge Crystallographic Data Centre
#                                CCDC 
#
#######################################################################
#
# If this CIF has been generated from an entry in the Cambridge 
# Structural Database, then it will include bibliographic, chemical, 
# crystal, experimental, refinement or atomic coordinate data resulting 
# from the CCDC's data processing and validation procedures.
#
#######################################################################

data_PEBMEO
_chemical_formula_moiety         'C20 H15 As1 F6 N1 P1'
_chemical_name_systematic        
bis(Trifluoromethyl)arsino-triphenylphosphazene
_symmetry_cell_setting           orthorhombic
_symmetry_space_group_name_H-M   'F d d 2'
_symmetry_Int_Tables_number      43
_space_group_name_Hall           'F 2 -2d'
loop_
_symmetry_equiv_pos_site_id
_symmetry_equiv_pos_as_xyz
1 x,y,z
2 x,1/2+y,1/2+z
3 1/2+x,y,1/2+z
4 1/2+x,1/2+y,z
5 1/4-x,1/4+y,1/4+z
6 1/4-x,3/4+y,3/4+z
7 3/4-x,1/4+y,3/4+z
8 3/4-x,3/4+y,1/4+z
9 1/4+x,1/4-y,1/4+z
10 1/4+x,3/4-y,3/4+z
11 3/4+x,1/4-y,3/4+z
12 3/4+x,3/4-y,1/4+z
13 1/2-x,-y,1/2+z
14 1/2-x,1/2-y,z
15 -x,-y,z
16 -x,1/2-y,1/2+z
_cell_length_a                   19.114(5)
_cell_length_b                   42.918(8)
_cell_length_c                   10.378(3)
_cell_angle_alpha                90
_cell_angle_beta                 90
_cell_angle_gamma                90
_cell_volume                     8513.43
_exptl_crystal_colour            colorless
_chemical_melting_point          '123-125 deg.C'
_cell_formula_units_Z            16
loop_
_atom_site_label
_atom_site_type_symbol
_atom_site_fract_x
_atom_site_fract_y
_atom_site_fract_z
As1 As 0.0236(1) 0.2307(1) 0.8781
P1 P -0.0226(2) 0.1702(1) 0.9941(3)
N1 N 0.0349(5) 0.1952(2) 0.9646(10)
F1 F 0.1645(6) 0.2373(3) 0.9602(19)
F2 F 0.0949(9) 0.2592(4) 1.0723(15)
F3 F 0.1202(6) 0.2785(2) 0.8955(15)
F4 F 0.1335(9) 0.2025(3) 0.7353(17)
F5 F 0.0342(10) 0.1989(3) 0.6539(12)
F6 F 0.0856(8) 0.2412(3) 0.6381(13)
C1 C 0.1080(11) 0.2515(4) 0.9543(24)
C2 C 0.0750(14) 0.2183(5) 0.7195(17)
C3 C -0.1397(7) 0.1863(3) 0.8527(14)
C4 C -0.2060(9) 0.1992(4) 0.8392(19)
C5 C -0.2433(8) 0.2087(4) 0.9429(27)
C6 C -0.2152(8) 0.2059(3) 1.0632(21)
C7 C -0.1510(7) 0.1925(3) 1.0801(15)
C8 C -0.1130(6) 0.1828(2) 0.9756(13)
C9 C -0.0672(6) 0.1146(2) 0.8780(14)
C10 C -0.0588(7) 0.0886(3) 0.8071(13)
C11 C 0.0052(7) 0.0823(3) 0.7497(14)
C12 C 0.0596(8) 0.1027(3) 0.7688(14)
C13 C 0.0507(6) 0.1288(3) 0.8425(12)
C14 C -0.0126(6) 0.1359(2) 0.8996(11)
C15 C -0.0366(7) 0.1310(3) 1.2090(14)
C16 C -0.0273(10) 0.1232(4) 1.3390(16)
C17 C 0.0093(9) 0.1420(5) 1.4150(14)
C18 C 0.0354(8) 0.1705(4) 1.3677(16)
C19 C 0.0255(7) 0.1782(3) 1.2425(14)
C20 C -0.0112(6) 0.1587(3) 1.1597(11)
H1 H -0.1134 0.1796 0.7790
H2 H -0.2254 0.2014 0.7543
H3 H -0.2890 0.2175 0.9317
H4 H -0.2416 0.2126 1.1369
H5 H -0.1316 0.1904 1.1650
H6 H -0.1118 0.1188 0.9171
H7 H -0.0970 0.0744 0.7947
H8 H 0.0115 0.0639 0.6982
H9 H 0.1042 0.0985 0.7298
H10 H 0.0889 0.1430 0.8549
H11 H -0.0624 0.1172 1.1535
H12 H -0.0455 0.1040 1.3721
H13 H 0.0169 0.1365 1.5035
H14 H 0.0612 0.1842 1.4232
H15 H 0.0437 0.1974 1.2094
loop_
_geom_bond_atom_site_label_1
_geom_bond_atom_site_label_2
_geom_bond_site_symmetry_1
_geom_bond_site_symmetry_2
As1 N1 1_555 1_555
P1 N1 1_555 1_555
F1 C1 1_555 1_555
F2 C1 1_555 1_555
F3 C1 1_555 1_555
F4 C2 1_555 1_555
F5 C2 1_555 1_555
F6 C2 1_555 1_555
C1 As1 1_555 1_555
C2 As1 1_555 1_555
C3 C4 1_555 1_555
C4 C5 1_555 1_555
C5 C6 1_555 1_555
C6 C7 1_555 1_555
C7 C8 1_555 1_555
C8 P1 1_555 1_555
C9 C10 1_555 1_555
C10 C11 1_555 1_555
C11 C12 1_555 1_555
C12 C13 1_555 1_555
C13 C14 1_555 1_555
C14 P1 1_555 1_555
C15 C16 1_555 1_555
C16 C17 1_555 1_555
C17 C18 1_555 1_555
C18 C19 1_555 1_555
C19 C20 1_555 1_555
C20 P1 1_555 1_555
H1 C3 1_555 1_555
H2 C4 1_555 1_555
H3 C5 1_555 1_555
H4 C6 1_555 1_555
H5 C7 1_555 1_555
H6 C9 1_555 1_555
H7 C10 1_555 1_555
H8 C11 1_555 1_555
H9 C12 1_555 1_555
H10 C13 1_555 1_555
H11 C15 1_555 1_555
H12 C16 1_555 1_555
H13 C17 1_555 1_555
H14 C18 1_555 1_555
H15 C19 1_555 1_555
C3 C8 1_555 1_555
C9 C14 1_555 1_555
C15 C20 1_555 1_555

#END
