
#######################################################################
#
#                 Cambridge Crystallographic Data Centre
#                                CCDC 
#
#######################################################################
#
# If this CIF has been generated from an entry in the Cambridge 
# Structural Database, then it will include bibliographic, chemical, 
# crystal, experimental, refinement or atomic coordinate data resulting 
# from the CCDC's data processing and validation procedures.
#
#######################################################################

data_PEBMOB
_chemical_formula_moiety         'C22 H21 N1 O8,C1 H4 O1'
_chemical_name_systematic        
'10-(3,4,5-trimethoxyphenyl)-6a,7,9a,10-tetrahydro-6H-[1,3]dioxolo[4,5-h]furo[3,4-c][1]benzazepine-6,9(5H)-dione methanol solvate'
_symmetry_cell_setting           triclinic
_symmetry_space_group_name_H-M   'P 1'
_symmetry_Int_Tables_number      1
_space_group_name_Hall           'P 1'
loop_
_symmetry_equiv_pos_site_id
_symmetry_equiv_pos_as_xyz
1 x,y,z
_cell_length_a                   5.0127(6)
_cell_length_b                   9.5948(17)
_cell_length_c                   11.857(2)
_cell_angle_alpha                70.723(17)
_cell_angle_beta                 77.991(13)
_cell_angle_gamma                86.700(12)
_cell_volume                     526.48
_exptl_crystal_colour            colorless
_exptl_crystal_description       block
_cell_formula_units_Z            1
loop_
_atom_site_label
_atom_site_type_symbol
_atom_site_fract_x
_atom_site_fract_y
_atom_site_fract_z
O1 O -0.9159(9) -1.1938(6) -0.1217(5)
N1 N -0.7676(13) -0.9836(6) -0.1081(5)
O2 O -0.2301(12) -0.6650(7) 0.0064(5)
O3 O -0.0520(11) -0.5279(6) -0.1952(5)
O4 O -0.7503(12) -0.9858(7) -0.5065(6)
O5 O -0.5976(12) -1.1914(6) -0.3864(5)
O6 O -0.7314(11) -0.3248(6) -0.6344(5)
O7 O -0.3065(10) -0.3440(6) -0.8096(5)
O8 O -0.0060(10) -0.5859(6) -0.7786(5)
C1 C -0.4599(18) -1.2325(9) -0.2838(8)
H1 H -0.2709 -1.2566 -0.3086
H2 H -0.5493 -1.3172 -0.2186
C2 C -0.4789(14) -1.0971(7) -0.2423(7)
H3 H -0.3222 -1.0914 -0.2064
C3 C -0.7393(13) -1.0978(7) -0.1546(6)
C4 C -0.5786(12) -0.8667(7) -0.1380(6)
C5 C -0.5058(15) -0.8342(8) -0.0422(7)
H4 H -0.5779 -0.8877 0.0387
C6 C -0.3247(15) -0.7210(9) -0.0715(7)
C7 C -0.0355(18) -0.5531(10) -0.0693(8)
H5 H 0.1465 -0.5844 -0.0567
H6 H -0.0748 -0.4628 -0.0494
C8 C -0.2222(13) -0.6405(8) -0.1893(7)
C9 C -0.2928(13) -0.6685(8) -0.2848(7)
H7 H -0.2212 -0.6122 -0.3649
C10 C -0.4776(13) -0.7852(7) -0.2581(6)
C11 C -0.5684(12) -0.8212(7) -0.3619(6)
H8 H -0.7680 -0.8285 -0.3414
C12 C -0.4629(13) -0.9736(8) -0.3650(6)
H9 H -0.2719 -0.9620 -0.4080
C13 C -0.6195(16) -1.0423(9) -0.4305(7)
C14 C -0.4933(12) -0.6982(7) -0.4841(6)
C15 C -0.6530(13) -0.5706(7) -0.5030(6)
H10 H -0.8012 -0.5636 -0.4433
C16 C -0.5865(13) -0.4552(8) -0.6120(7)
C17 C -0.3753(13) -0.4621(8) -0.7014(6)
C18 C -0.2145(12) -0.5872(8) -0.6854(6)
C19 C -0.2735(12) -0.7047(7) -0.5764(6)
H11 H -0.1653 -0.7883 -0.5651
C20 C -0.9531(14) -0.3107(9) -0.5475(8)
H12 H -0.9005 -0.3360 -0.4698
H13 H -1.0975 -0.3757 -0.5418
H14 H -1.0152 -0.2106 -0.5704
C21 C -0.4919(17) -0.3207(11) -0.8923(8)
H15 H -0.6692 -0.2975 -0.8540
H16 H -0.5039 -0.4088 -0.9126
H17 H -0.4258 -0.2404 -0.9652
C22 C 0.1747(15) -0.7071(9) -0.7613(7)
H18 H 0.2408 -0.7225 -0.6878
H19 H 0.3258 -0.6866 -0.8294
H20 H 0.0798 -0.7943 -0.7551
H21 H -0.916(15) -0.985(8) -0.060(7)
O9 O -0.0966(16) -1.0584(8) -0.8532(7)
H22 H -0.1134 -1.1467 -0.8420
C23 C -0.310(3) -1.0138(14) -0.7651(11)
H23 H -0.2824 -1.0631 -0.6838
H24 H -0.4867 -1.0404 -0.7719
H25 H -0.3008 -0.9089 -0.7827
loop_
_geom_bond_atom_site_label_1
_geom_bond_atom_site_label_2
_geom_bond_site_symmetry_1
_geom_bond_site_symmetry_2
O1 C3 1_555 1_555
N1 C3 1_555 1_555
O2 C6 1_555 1_555
O3 C7 1_555 1_555
O4 C13 1_555 1_555
O5 C1 1_555 1_555
O6 C16 1_555 1_555
O7 C17 1_555 1_555
O8 C18 1_555 1_555
C1 H1 1_555 1_555
H2 C1 1_555 1_555
C2 C1 1_555 1_555
H3 C2 1_555 1_555
C3 C2 1_555 1_555
C4 N1 1_555 1_555
C5 C4 1_555 1_555
H4 C5 1_555 1_555
C6 C5 1_555 1_555
C7 O2 1_555 1_555
H5 C7 1_555 1_555
H6 C7 1_555 1_555
C8 O3 1_555 1_555
C9 C8 1_555 1_555
H7 C9 1_555 1_555
C10 C4 1_555 1_555
C11 C10 1_555 1_555
H8 C11 1_555 1_555
C12 C2 1_555 1_555
H9 C12 1_555 1_555
C13 O5 1_555 1_555
C14 C11 1_555 1_555
C15 C14 1_555 1_555
H10 C15 1_555 1_555
C16 C15 1_555 1_555
C17 C16 1_555 1_555
C18 C17 1_555 1_555
C19 C14 1_555 1_555
H11 C19 1_555 1_555
C20 O6 1_555 1_555
H12 C20 1_555 1_555
H13 C20 1_555 1_555
H14 C20 1_555 1_555
C21 O7 1_555 1_555
H15 C21 1_555 1_555
H16 C21 1_555 1_555
H17 C21 1_555 1_555
C22 O8 1_555 1_555
H18 C22 1_555 1_555
H19 C22 1_555 1_555
H20 C22 1_555 1_555
H21 N1 1_555 1_555
O9 H22 1_555 1_555
C23 O9 1_555 1_555
H23 C23 1_555 1_555
H24 C23 1_555 1_555
H25 C23 1_555 1_555
C6 C8 1_555 1_555
C9 C10 1_555 1_555
C11 C12 1_555 1_555
C12 C13 1_555 1_555
C18 C19 1_555 1_555

#END
