
#######################################################################
#
#                 Cambridge Crystallographic Data Centre
#                                CCDC 
#
#######################################################################
#
# If this CIF has been generated from an entry in the Cambridge 
# Structural Database, then it will include bibliographic, chemical, 
# crystal, experimental, refinement or atomic coordinate data resulting 
# from the CCDC's data processing and validation procedures.
#
#######################################################################

data_PEBZUU
_chemical_name_common            'bis(L-proline) resveratrol'
_chemical_formula_moiety         'C14 H12 O3,2(C5 H9 N1 O2)'
_chemical_name_systematic        
'bis(pyrrolidinium-2-carboxylate) 5-(2-(4-hydroxyphenyl)vinyl)benzene-1,3-diol'
_symmetry_cell_setting           orthorhombic
_symmetry_space_group_name_H-M   'P 21 21 21'
_symmetry_Int_Tables_number      19
_space_group_name_Hall           'P 2ac 2ab'
loop_
_symmetry_equiv_pos_site_id
_symmetry_equiv_pos_as_xyz
1 x,y,z
2 1/2+x,1/2-y,-z
3 -x,1/2+y,1/2-z
4 1/2-x,-y,1/2+z
_cell_length_a                   5.5674(3)
_cell_length_b                   18.6152(10)
_cell_length_c                   21.5591(12)
_cell_angle_alpha                90
_cell_angle_beta                 90
_cell_angle_gamma                90
_cell_volume                     2234.35
_exptl_crystal_colour            colorless
_exptl_crystal_description       needle
_cell_formula_units_Z            4
loop_
_atom_site_label
_atom_site_type_symbol
_atom_site_fract_x
_atom_site_fract_y
_atom_site_fract_z
O1 O -0.1519(4) -0.07238(11) 0.18846(9)
O2 O -0.0950(4) 0.04307(10) 0.16420(9)
C1 C 0.4315(6) 0.09023(14) 0.24392(13)
H1 H 0.3118 0.1279 0.2469
H2 H 0.5890 0.1119 0.2395
N1 N 0.3781(4) 0.04067(11) 0.19104(9)
H3 H 0.5157 0.0227 0.1756
H4 H 0.3019 0.0647 0.1606
C2 C 0.2210(5) -0.01956(13) 0.21485(12)
H5 H 0.2948 -0.0661 0.2054
C3 C -0.0275(5) -0.01537(15) 0.18587(12)
C4 C 0.2140(6) -0.00779(16) 0.28566(13)
H6 H 0.0635 0.0142 0.2980
H7 H 0.2322 -0.0530 0.3075
C5 C 0.4224(6) 0.04156(17) 0.29930(14)
H8 H 0.3946 0.0687 0.3370
H9 H 0.5707 0.0147 0.3035
O3 O -0.2183(3) 0.32281(9) 0.99872(8)
O4 O -0.0774(3) 0.38081(9) 0.91559(8)
C6 C -0.0556(5) 0.35401(13) 0.96846(11)
C7 C 0.1815(5) 0.36418(13) 1.00192(11)
H10 H 0.2319 0.3190 1.0212
C8 C 0.1605(5) 0.42392(14) 1.05167(12)
H11 H 0.0210 0.4538 1.0440
H12 H 0.1473 0.4032 1.0928
C9 C 0.3914(6) 0.46762(14) 1.04559(12)
H13 H 0.3683 0.5166 1.0598
H14 H 0.5215 0.4459 1.0689
N2 N 0.3726(4) 0.39052(10) 0.95823(10)
H15 H 0.5019 0.3616 0.9601
H16 H 0.3168 0.3902 0.9190
C10 C 0.4405(6) 0.46526(13) 0.97668(12)
H17 H 0.3436 0.5004 0.9548
H18 H 0.6087 0.4745 0.9681
O5 O 0.5146(4) 0.91357(9) 1.09976(8)
H19 H 0.6152 0.9072 1.1270
O6 O 1.2408(4) 0.63108(10) 0.70031(8)
H20 H 1.2997 0.6249 0.7348
C11 C 0.9261(5) 0.69227(13) 0.65006(12)
H21 H 0.9820 0.6747 0.6123
C12 C 0.7236(5) 0.73425(12) 0.65230(11)
C13 C 0.6409(5) 0.76154(13) 0.70836(12)
H22 H 0.5018 0.7892 0.7094
C14 C 0.7657(5) 0.74759(13) 0.76284(11)
C15 C 0.6792(6) 0.78020(14) 0.82110(12)
H23 H 0.5275 0.8011 0.8201
C16 C 0.7958(6) 0.78285(13) 0.87500(11)
H24 H 0.9444 0.7600 0.8760
C17 C 0.7194(5) 0.81721(13) 0.93298(11)
C18 C 0.8684(5) 0.81285(13) 0.98481(11)
H25 H 1.0137 0.7885 0.9817
C19 C 0.8049(5) 0.84419(13) 1.04135(12)
H26 H 0.9064 0.8405 1.0755
C20 C 0.5893(5) 0.88079(13) 1.04610(12)
O7 O 0.5947(4) 0.75077(9) 0.60030(8)
H27 H 0.6572 0.7318 0.5700
C21 C 1.0474(5) 0.67616(12) 0.70500(12)
C22 C 0.9713(6) 0.70435(13) 0.76129(11)
H28 H 1.0559 0.6946 0.7975
C23 C 0.5027(5) 0.85434(14) 0.93939(12)
H29 H 0.4005 0.8582 0.9054
C24 C 0.4367(5) 0.88556(13) 0.99504(12)
H30 H 0.2909 0.9097 0.9984
loop_
_geom_bond_atom_site_label_1
_geom_bond_atom_site_label_2
_geom_bond_site_symmetry_1
_geom_bond_site_symmetry_2
O1 C3 1_555 1_555
O2 C3 1_555 1_555
C1 H1 1_555 1_555
H2 C1 1_555 1_555
N1 C1 1_555 1_555
H3 N1 1_555 1_555
H4 N1 1_555 1_555
C2 N1 1_555 1_555
H5 C2 1_555 1_555
C3 C2 1_555 1_555
C4 C2 1_555 1_555
H6 C4 1_555 1_555
H7 C4 1_555 1_555
C5 C1 1_555 1_555
H8 C5 1_555 1_555
H9 C5 1_555 1_555
O3 C6 1_555 1_555
O4 C6 1_555 1_555
C6 C7 1_555 1_555
C7 H10 1_555 1_555
C8 C7 1_555 1_555
H11 C8 1_555 1_555
H12 C8 1_555 1_555
C9 C8 1_555 1_555
H13 C9 1_555 1_555
H14 C9 1_555 1_555
N2 C7 1_555 1_555
H15 N2 1_555 1_555
H16 N2 1_555 1_555
C10 C9 1_555 1_555
H17 C10 1_555 1_555
H18 C10 1_555 1_555
O5 H19 1_555 1_555
O6 H20 1_555 1_555
C11 H21 1_555 1_555
C12 C11 1_555 1_555
C13 C12 1_555 1_555
H22 C13 1_555 1_555
C14 C13 1_555 1_555
C15 C14 1_555 1_555
H23 C15 1_555 1_555
C16 C15 1_555 1_555
H24 C16 1_555 1_555
C17 C16 1_555 1_555
C18 C17 1_555 1_555
H25 C18 1_555 1_555
C19 C18 1_555 1_555
H26 C19 1_555 1_555
C20 O5 1_555 1_555
O7 C12 1_555 1_555
H27 O7 1_555 1_555
C21 O6 1_555 1_555
C22 C14 1_555 1_555
H28 C22 1_555 1_555
C23 C17 1_555 1_555
H29 C23 1_555 1_555
C24 C20 1_555 1_555
H30 C24 1_555 1_555
C4 C5 1_555 1_555
N2 C10 1_555 1_555
C11 C21 1_555 1_555
C19 C20 1_555 1_555
C21 C22 1_555 1_555
C23 C24 1_555 1_555

#END
