
#######################################################################
#
#                 Cambridge Crystallographic Data Centre
#                                CCDC 
#
#######################################################################
#
# If this CIF has been generated from an entry in the Cambridge 
# Structural Database, then it will include bibliographic, chemical, 
# crystal, experimental, refinement or atomic coordinate data resulting 
# from the CCDC's data processing and validation procedures.
#
#######################################################################

data_PEBZEE
_chemical_name_common            'nicotinamide resveratrol'
_chemical_formula_moiety         'C14 H12 O3,C6 H6 N2 O1'
_chemical_name_systematic        
'nicotinamide 5-(2-(4-hydroxyphenyl)vinyl)benzene-1,3-diol'
_symmetry_cell_setting           orthorhombic
_symmetry_space_group_name_H-M   'P c a 21'
_symmetry_Int_Tables_number      29
_space_group_name_Hall           'P 2c -2ac'
loop_
_symmetry_equiv_pos_site_id
_symmetry_equiv_pos_as_xyz
1 x,y,z
2 -x,-y,1/2+z
3 1/2-x,y,1/2+z
4 1/2+x,-y,z
_cell_length_a                   12.9988(6)
_cell_length_b                   5.5370(2)
_cell_length_c                   23.4511(10)
_cell_angle_alpha                90
_cell_angle_beta                 90
_cell_angle_gamma                90
_cell_volume                     1687.88
_exptl_crystal_colour            colorless
_exptl_crystal_description       block
_cell_formula_units_Z            4
loop_
_atom_site_label
_atom_site_type_symbol
_atom_site_fract_x
_atom_site_fract_y
_atom_site_fract_z
N1 N 0.41609(18) 0.0545(4) 0.85428(10)
H1 H 0.3702 -0.0121 0.8755
H2 H 0.4801 0.0226 0.8596
N2 N 0.51666(18) 0.6434(4) 0.71491(9)
O1 O 0.29762(14) 0.2586(3) 0.80393(8)
C1 C 0.3881(2) 0.2066(5) 0.81334(10)
C2 C 0.47197(19) 0.3197(5) 0.77884(10)
C3 C 0.4496(2) 0.5245(5) 0.74736(11)
H3 H 0.3827 0.5835 0.7490
C4 C 0.6117(2) 0.5549(5) 0.71293(11)
H4 H 0.6601 0.6341 0.6905
C5 C 0.6423(2) 0.3522(5) 0.74243(11)
H5 H 0.7097 0.2967 0.7399
C6 C 0.57126(19) 0.2326(5) 0.77585(11)
H6 H 0.5901 0.0952 0.7961
O2 O 0.01783(13) 0.0634(3) 0.15416(7)
H7 H 0.0158 -0.0650 0.1716
O3 O 0.76971(14) 0.0821(3) -0.05232(8)
O4 O 0.62214(13) 0.7799(3) -0.13622(8)
H8 H 0.6766 0.7743 -0.1538
C7 C 0.11073(19) 0.0872(4) 0.12861(10)
C8 C 0.1274(2) 0.2947(4) 0.09611(10)
H9 H 0.0761 0.4112 0.0933
C9 C 0.2196(2) 0.3270(5) 0.06824(10)
H10 H 0.2291 0.4651 0.0463
C10 C 0.29925(19) 0.1583(5) 0.07196(10)
C11 C 0.3974(2) 0.1840(5) 0.04209(10)
H11 H 0.4459 0.0635 0.0484
C12 C 0.4250(2) 0.3614(5) 0.00678(11)
H12 H 0.3784 0.4877 0.0026
C13 C 0.52048(19) 0.3797(4) -0.02625(10)
C14 C 0.60040(19) 0.2106(5) -0.02167(10)
H13 H 0.5951 0.0816 0.0035
C15 C 0.68716(19) 0.2380(4) -0.05513(10)
C16 C 0.69733(19) 0.4256(5) -0.09382(10)
H14 H 0.7561 0.4402 -0.1162
C17 C 0.18783(19) -0.0836(5) 0.13243(10)
H15 H 0.1773 -0.2232 0.1537
C18 C 0.28058(19) -0.0484(5) 0.10483(10)
H16 H 0.3318 -0.1648 0.1082
C19 C 0.61759(19) 0.5913(4) -0.09831(10)
C20 C 0.53069(19) 0.5700(4) -0.06466(10)
H17 H 0.4785 0.6841 -0.0677
H18 H 0.760(2) -0.037(6) -0.0248(14)
loop_
_geom_bond_atom_site_label_1
_geom_bond_atom_site_label_2
_geom_bond_site_symmetry_1
_geom_bond_site_symmetry_2
N1 H1 1_555 1_555
H2 N1 1_555 1_555
N2 C3 1_555 1_555
O1 C1 1_555 1_555
C1 N1 1_555 1_555
C2 C1 1_555 1_555
C3 C2 1_555 1_555
H3 C3 1_555 1_555
C4 N2 1_555 1_555
H4 C4 1_555 1_555
C5 C4 1_555 1_555
H5 C5 1_555 1_555
C6 C2 1_555 1_555
H6 C6 1_555 1_555
O2 H7 1_555 1_555
O3 C15 1_555 1_555
O4 H8 1_555 1_555
C7 O2 1_555 1_555
C8 C7 1_555 1_555
H9 C8 1_555 1_555
C9 C8 1_555 1_555
H10 C9 1_555 1_555
C10 C9 1_555 1_555
C11 C10 1_555 1_555
H11 C11 1_555 1_555
C12 C11 1_555 1_555
H12 C12 1_555 1_555
C13 C12 1_555 1_555
C14 C13 1_555 1_555
H13 C14 1_555 1_555
C15 C14 1_555 1_555
C16 C15 1_555 1_555
H14 C16 1_555 1_555
C17 C7 1_555 1_555
H15 C17 1_555 1_555
C18 C10 1_555 1_555
H16 C18 1_555 1_555
C19 O4 1_555 1_555
C20 C13 1_555 1_555
H17 C20 1_555 1_555
H18 O3 1_555 1_555
C5 C6 1_555 1_555
C16 C19 1_555 1_555
C17 C18 1_555 1_555
C19 C20 1_555 1_555

#END
