
#######################################################################
#
#                 Cambridge Crystallographic Data Centre
#                                CCDC 
#
#######################################################################
#
# If this CIF has been generated from an entry in the Cambridge 
# Structural Database, then it will include bibliographic, chemical, 
# crystal, experimental, refinement or atomic coordinate data resulting 
# from the CCDC's data processing and validation procedures.
#
#######################################################################

data_PECDUW
_chemical_formula_moiety         'C21 H33 B3 O6 Si3'
_chemical_name_systematic        tris((4-Trimethylsilyl)furan-3-yl)boroxine
_symmetry_cell_setting           orthorhombic
_symmetry_space_group_name_H-M   'P 21 21 21'
_symmetry_Int_Tables_number      19
_space_group_name_Hall           'P 2ac 2ab'
loop_
_symmetry_equiv_pos_site_id
_symmetry_equiv_pos_as_xyz
1 x,y,z
2 1/2+x,1/2-y,-z
3 -x,1/2+y,1/2-z
4 1/2-x,-y,1/2+z
_cell_length_a                   10.685(5)
_cell_length_b                   11.524(2)
_cell_length_c                   23.752(7)
_cell_angle_alpha                90
_cell_angle_beta                 90
_cell_angle_gamma                90
_cell_volume                     2924.68
_exptl_crystal_colour            colorless
_chemical_melting_point          '167-168 deg.C'
_cell_formula_units_Z            4
loop_
_atom_site_label
_atom_site_type_symbol
_atom_site_fract_x
_atom_site_fract_y
_atom_site_fract_z
Si1 Si 0.3446(2) 0.8226(2) 0.0797(1)
Si2 Si 0.1459(2) 0.2340(2) 0.2521(1)
Si3 Si 0.3812(2) 0.8093(2) 0.4224(1)
B1 B 0.2569(8) 0.6159(4) 0.1929(3)
B2 B 0.2284(8) 0.5410(5) 0.2853(2)
B3 B 0.3208(8) 0.7277(5) 0.2717(2)
O1 O 0.2201(5) 0.5280(4) 0.2280(2)
O2 O 0.2834(2) 0.6392(3) 0.3063(2)
O3 O 0.3069(6) 0.7155(3) 0.2147(2)
O4 O 0.1847(7) 0.5111(6) 0.0468(2)
O5 O 0.1137(9) 0.3740(6) 0.4068(3)
O6 O 0.4711(6) 1.0159(4) 0.2909(3)
C1 C 0.2690(8) 0.6754(7) 0.0814(3)
C2 C 0.2371(10) 0.6155(8) 0.0361(4)
C3 C 0.1878(9) 0.5049(8) 0.1051(4)
C4 C 0.2359(8) 0.5998(6) 0.1286(3)
C5 C 0.1447(7) 0.3269(6) 0.3142(3)
C6 C 0.1059(12) 0.2898(9) 0.3679(4)
C7 C 0.1609(11) 0.4659(8) 0.3814(4)
C8 C 0.1818(8) 0.4486(6) 0.3257(3)
C9 C 0.4059(7) 0.8777(6) 0.3531(3)
C10 C 0.4581(9) 0.9821(8) 0.3477(5)
C11 C 0.4195(8) 0.9271(6) 0.2614(4)
C12 C 0.3799(7) 0.8406(6) 0.2950(3)
C13 C 0.2426(10) 0.9284(7) 0.1169(4)
C14 C 0.5040(8) 0.8150(7) 0.1125(4)
C15 C 0.3631(12) 0.8658(8) 0.0046(4)
C16 C 0.2972(9) 0.2416(8) 0.2146(4)
C17 C 0.0171(8) 0.2787(7) 0.2044(4)
C18 C 0.1163(9) 0.0822(6) 0.2785(4)
C19 C 0.4600(10) 0.6683(7) 0.4272(5)
C20 C 0.2108(10) 0.7937(10) 0.4356(4)
C21 C 0.4509(11) 0.9077(9) 0.4754(4)
H1 H 0.2539 0.6540 0.0011
H2 H 0.1616 0.4465 0.1313
H3 H 0.0780 0.2108 0.3689
H4 H 0.1828 0.5415 0.3949
H5 H 0.4883 1.0354 0.3755
H6 H 0.4069 0.9159 0.2219
H7 H 0.2799 1.0040 0.1163
H8 H 0.2298 0.9047 0.1551
H9 H 0.1637 0.9308 0.0977
H10 H 0.4970 0.7934 0.1514
H11 H 0.5438 0.8893 0.1097
H12 H 0.5530 0.7583 0.0929
H13 H 0.2825 0.8705 -0.0129
H14 H 0.4129 0.8088 -0.0143
H15 H 0.4037 0.9398 0.0024
H16 H 0.2962 0.1934 0.1817
H17 H 0.3613 0.2154 0.2398
H18 H 0.3136 0.3203 0.2038
H19 H 0.0175 0.2306 0.1715
H20 H 0.0273 0.3583 0.1935
H21 H -0.0609 0.2696 0.2238
H22 H 0.1156 0.0304 0.2470
H23 H 0.0375 0.0781 0.2977
H24 H 0.1821 0.0604 0.3038
H25 H 0.4466 0.6335 0.4633
H26 H 0.5478 0.6802 0.4214
H27 H 0.4280 0.6182 0.3984
H28 H 0.1985 0.7581 0.4716
H29 H 0.1735 0.7465 0.4069
H30 H 0.1727 0.8690 0.4354
H31 H 0.4407 0.8760 0.5124
H32 H 0.4107 0.9820 0.4735
H33 H 0.5383 0.9165 0.4674
loop_
_geom_bond_atom_site_label_1
_geom_bond_atom_site_label_2
_geom_bond_site_symmetry_1
_geom_bond_site_symmetry_2
Si1 C1 1_555 1_555
Si2 C5 1_555 1_555
Si3 C9 1_555 1_555
B1 O1 1_555 1_555
B2 O1 1_555 1_555
B3 O2 1_555 1_555
O2 B2 1_555 1_555
O3 B1 1_555 1_555
O4 C2 1_555 1_555
O5 C6 1_555 1_555
O6 C10 1_555 1_555
C1 C2 1_555 1_555
C2 H1 1_555 1_555
C3 O4 1_555 1_555
C4 B1 1_555 1_555
C5 C6 1_555 1_555
C6 H3 1_555 1_555
C7 O5 1_555 1_555
C8 B2 1_555 1_555
C9 C10 1_555 1_555
C10 H5 1_555 1_555
C11 O6 1_555 1_555
C12 B3 1_555 1_555
C13 Si1 1_555 1_555
C14 Si1 1_555 1_555
C15 Si1 1_555 1_555
C16 Si2 1_555 1_555
C17 Si2 1_555 1_555
C18 Si2 1_555 1_555
C19 Si3 1_555 1_555
C20 Si3 1_555 1_555
C21 Si3 1_555 1_555
H2 C3 1_555 1_555
H4 C7 1_555 1_555
H6 C11 1_555 1_555
H7 C13 1_555 1_555
H8 C13 1_555 1_555
H9 C13 1_555 1_555
H10 C14 1_555 1_555
H11 C14 1_555 1_555
H12 C14 1_555 1_555
H13 C15 1_555 1_555
H14 C15 1_555 1_555
H15 C15 1_555 1_555
H16 C16 1_555 1_555
H17 C16 1_555 1_555
H18 C16 1_555 1_555
H19 C17 1_555 1_555
H20 C17 1_555 1_555
H21 C17 1_555 1_555
H22 C18 1_555 1_555
H23 C18 1_555 1_555
H24 C18 1_555 1_555
H25 C19 1_555 1_555
H26 C19 1_555 1_555
H27 C19 1_555 1_555
H28 C20 1_555 1_555
H29 C20 1_555 1_555
H30 C20 1_555 1_555
H31 C21 1_555 1_555
H32 C21 1_555 1_555
H33 C21 1_555 1_555
B3 O3 1_555 1_555
C1 C4 1_555 1_555
C3 C4 1_555 1_555
C5 C8 1_555 1_555
C7 C8 1_555 1_555
C9 C12 1_555 1_555
C11 C12 1_555 1_555

#END
