
#######################################################################
#
#                 Cambridge Crystallographic Data Centre
#                                CCDC 
#
#######################################################################
#
# If this CIF has been generated from an entry in the Cambridge 
# Structural Database, then it will include bibliographic, chemical, 
# crystal, experimental, refinement or atomic coordinate data resulting 
# from the CCDC's data processing and validation procedures.
#
#######################################################################

data_PECFEL
_chemical_formula_moiety         'C23 H19 N3,2(C2 H3 N1)'
_chemical_name_systematic        
'3-((E)-((E)-(1-(biphenyl-4-yl)ethylidene)hydrazono)methyl)-1H-indole acetonitrile solvate'
_chemical_properties_biological  'antitumour activity'
_symmetry_cell_setting           monoclinic
_symmetry_space_group_name_H-M   'P 21/c'
_symmetry_Int_Tables_number      14
_space_group_name_Hall           '-P 2ybc'
loop_
_symmetry_equiv_pos_site_id
_symmetry_equiv_pos_as_xyz
1 x,y,z
2 -x,1/2+y,1/2-z
3 -x,-y,-z
4 x,1/2-y,1/2+z
_cell_length_a                   8.1493(4)
_cell_length_b                   8.5209(5)
_cell_length_c                   34.4887(14)
_cell_angle_alpha                90
_cell_angle_beta                 96.648(4)
_cell_angle_gamma                90
_cell_volume                     2378.77
_exptl_crystal_colour            'light yellow'
_exptl_crystal_description       block
_chemical_melting_point          '462.8 K'
_cell_formula_units_Z            4
loop_
_atom_site_label
_atom_site_type_symbol
_atom_site_fract_x
_atom_site_fract_y
_atom_site_fract_z
C1 C -0.1478(2) 0.5352(2) 0.19965(5)
C2 C -0.2959(3) 0.5409(3) 0.17606(6)
C3 C -0.3384(2) 0.4245(3) 0.14926(5)
C4 C -0.2312(2) 0.3026(2) 0.14580(5)
C5 C -0.0833(2) 0.2950(2) 0.16929(4)
C6 C -0.03821(18) 0.41080(17) 0.19707(4)
C7 C 0.11989(18) 0.40273(17) 0.22314(4)
C8 C 0.1358(2) 0.46886(19) 0.26043(4)
C9 C 0.28366(19) 0.46591(19) 0.28434(5)
C10 C 0.42390(17) 0.39544(17) 0.27222(4)
C11 C 0.4069(2) 0.3258(2) 0.23536(5)
C12 C 0.2587(2) 0.3302(2) 0.21148(5)
C13 C 0.58273(18) 0.39466(18) 0.29784(4)
C14 C 0.7227(3) 0.2999(3) 0.28593(7)
C15 C 0.7367(2) 0.5542(2) 0.38395(5)
C16 C 0.8766(2) 0.56975(19) 0.41290(5)
C17 C 0.8737(3) 0.6521(3) 0.44720(5)
C18 C 1.1287(2) 0.5547(2) 0.44929(5)
C19 C 1.2920(3) 0.5148(3) 0.46008(7)
C20 C 1.3703(3) 0.4266(3) 0.43478(7)
C21 C 1.2857(2) 0.3770(3) 0.39924(6)
C22 C 1.1233(2) 0.4149(2) 0.38867(5)
C23 C 1.0405(2) 0.50537(19) 0.41393(4)
N1 N 0.58785(15) 0.47591(17) 0.32937(4)
N2 N 0.74129(15) 0.47184(17) 0.35301(4)
N3 N 1.0229(2) 0.6429(2) 0.46890(5)
H1 H -0.119(2) 0.621(2) 0.2191(5)
H2 H -0.367(2) 0.624(2) 0.1781(6)
H3 H -0.447(2) 0.427(2) 0.1330(5)
H4 H 1.049(3) 0.691(3) 0.4924(7)
H5 H -0.259(2) 0.221(2) 0.1274(5)
H6 H -0.0090(18) 0.204(2) 0.1671(4)
H7 H 0.049(2) 0.5153(19) 0.2707(5)
H8 H 0.2941(19) 0.513(2) 0.3102(5)
H9 H 0.500(2) 0.277(2) 0.2264(5)
H10 H 0.2510(18) 0.283(2) 0.1859(5)
H11 H 0.751(3) 0.339(3) 0.2587(8)
H12 H 0.696(4) 0.186(4) 0.2798(9)
H13 H 0.820(3) 0.305(3) 0.3043(6)
H14 H 0.633(2) 0.613(2) 0.3886(5)
H15 H 0.785(2) 0.712(3) 0.4555(6)
H16 H 1.348(2) 0.552(2) 0.4834(6)
H17 H 1.489(3) 0.393(2) 0.4418(5)
H18 H 1.344(2) 0.310(2) 0.3817(6)
H19 H 1.0664(19) 0.382(2) 0.3637(5)
C24 C 1.1844(4) 0.9272(4) 0.61211(7)
H20 H 1.0799 0.9311 0.6224
H21 H 1.2291 1.0312 0.6114
H22 H 1.2593 0.8619 0.6285
C25 C 1.1617(3) 0.8632(3) 0.57327(6)
N4 N 1.1409(3) 0.8135(3) 0.54300(6)
C26 C 0.2515(4) 1.0066(4) 0.45680(10)
H23 H 0.2460 1.0430 0.4830
H24 H 0.1669 0.9296 0.4502
H25 H 0.2354 1.0935 0.4390
C27 C 0.4108(4) 0.9374(3) 0.45413(7)
N5 N 0.5344(4) 0.8839(4) 0.45153(8)
loop_
_geom_bond_atom_site_label_1
_geom_bond_atom_site_label_2
_geom_bond_site_symmetry_1
_geom_bond_site_symmetry_2
C1 C2 1_555 1_555
C2 C3 1_555 1_555
C3 C4 1_555 1_555
C4 C5 1_555 1_555
C5 C6 1_555 1_555
C6 C1 1_555 1_555
C7 C6 1_555 1_555
C8 C7 1_555 1_555
C9 C8 1_555 1_555
C10 C9 1_555 1_555
C11 C10 1_555 1_555
C12 C7 1_555 1_555
C13 C10 1_555 1_555
C14 C13 1_555 1_555
C15 C16 1_555 1_555
C16 C17 1_555 1_555
C17 N3 1_555 1_555
C18 C19 1_555 1_555
C19 C20 1_555 1_555
C20 C21 1_555 1_555
C21 C22 1_555 1_555
C22 C23 1_555 1_555
C23 C16 1_555 1_555
N1 C13 1_555 1_555
N2 C15 1_555 1_555
N3 C18 1_555 1_555
H1 C1 1_555 1_555
H2 C2 1_555 1_555
H3 C3 1_555 1_555
H4 N3 1_555 1_555
H5 C4 1_555 1_555
H6 C5 1_555 1_555
H7 C8 1_555 1_555
H8 C9 1_555 1_555
H9 C11 1_555 1_555
H10 C12 1_555 1_555
H11 C14 1_555 1_555
H12 C14 1_555 1_555
H13 C14 1_555 1_555
H14 C15 1_555 1_555
H15 C17 1_555 1_555
H16 C19 1_555 1_555
H17 C20 1_555 1_555
H18 C21 1_555 1_555
H19 C22 1_555 1_555
C24 H20 1_555 1_555
H21 C24 1_555 1_555
H22 C24 1_555 1_555
C25 C24 1_555 1_555
N4 C25 1_555 1_555
C26 H23 1_555 1_555
H24 C26 1_555 1_555
H25 C26 1_555 1_555
C27 C26 1_555 1_555
N5 C27 1_555 1_555
C11 C12 1_555 1_555
C18 C23 1_555 1_555
N1 N2 1_555 1_555

#END
