
#######################################################################
#
#                 Cambridge Crystallographic Data Centre
#                                CCDC 
#
#######################################################################
#
# If this CIF has been generated from an entry in the Cambridge 
# Structural Database, then it will include bibliographic, chemical, 
# crystal, experimental, refinement or atomic coordinate data resulting 
# from the CCDC's data processing and validation procedures.
#
#######################################################################

data_PECQEW
_chemical_formula_moiety         'C20 H16 Cl2 N2 O3'
_chemical_name_systematic        
1-acetyl-5-benzoyl-4-(dichloromethylene)-6-phenyltetrahydropyrimidin-2(1H)-one
_symmetry_cell_setting           monoclinic
_symmetry_space_group_name_H-M   'P 21/c'
_symmetry_Int_Tables_number      14
_space_group_name_Hall           '-P 2ybc'
loop_
_symmetry_equiv_pos_site_id
_symmetry_equiv_pos_as_xyz
1 x,y,z
2 -x,1/2+y,1/2-z
3 -x,-y,-z
4 x,1/2-y,1/2+z
_cell_length_a                   9.529(5)
_cell_length_b                   10.534(6)
_cell_length_c                   20.019(5)
_cell_angle_alpha                90
_cell_angle_beta                 101.486(6)
_cell_angle_gamma                90
_cell_volume                     1969.23
_exptl_crystal_colour            colorless
_exptl_crystal_description       prism
_cell_formula_units_Z            4
loop_
_atom_site_label
_atom_site_type_symbol
_atom_site_fract_x
_atom_site_fract_y
_atom_site_fract_z
Cl1 Cl 0.67044(7) 0.83436(5) 0.54535(3)
Cl2 Cl 0.80510(7) 0.85929(6) 0.68816(4)
N1 N 0.73087(15) 0.36850(14) 0.63704(7)
C1 C 0.85204(19) 0.44023(18) 0.67688(9)
C2 C 0.7910(2) 0.56823(19) 0.69499(9)
N2 N 0.65682(17) 0.55590(15) 0.57837(8)
C3 C 0.64454(19) 0.42699(17) 0.58132(9)
C4 C 0.72762(19) 0.63506(18) 0.63043(9)
C5 C 0.7199(2) 0.2391(2) 0.65336(11)
C6 C 0.5834(3) 0.1691(2) 0.62784(15)
H1 H 0.5750 0.1002 0.6582
H2 H 0.5836 0.1362 0.5831
H3 H 0.5038 0.2258 0.6258
C7 C 0.7351(2) 0.75926(19) 0.62161(10)
C8 C 0.6816(2) 0.5460(2) 0.74012(10)
C9 C 0.7311(2) 0.4889(2) 0.80826(11)
C10 C 0.6401(4) 0.4083(3) 0.83443(19)
C11 C 0.6836(6) 0.3547(4) 0.8979(2)
C12 C 0.8651(3) 0.5108(3) 0.84639(12)
C13 C 0.8158(6) 0.3794(5) 0.9342(2)
H4 H 0.8440 0.3432 0.9772
C14 C 0.9077(5) 0.4546(5) 0.91019(16)
C15 C 0.97825(19) 0.45049(18) 0.64141(9)
C16 C 1.0923(2) 0.5264(2) 0.66773(13)
C17 C 1.2136(3) 0.5290(3) 0.64040(15)
H5 H 1.2905 0.5801 0.6599
C18 C 1.1073(4) 0.3841(5) 0.5567(2)
C19 C 0.9873(3) 0.3801(3) 0.58564(16)
C20 C 1.2213(3) 0.4573(4) 0.58525(17)
O1 O 0.55655(17) 0.5708(2) 0.71882(9)
O2 O 0.82153(19) 0.19038(15) 0.69005(9)
O3 O 0.56573(14) 0.36835(12) 0.53663(7)
H6 H 0.8824(18) 0.3953(18) 0.7187(9)
H7 H 0.559(3) 0.392(3) 0.8077(13)
H8 H 0.924(2) 0.567(2) 0.8309(12)
H9 H 0.8638(18) 0.6204(17) 0.7180(9)
H10 H 0.910(3) 0.324(3) 0.5674(15)
H11 H 1.087(2) 0.570(2) 0.7046(12)
H12 H 1.013(4) 0.469(3) 0.9394(17)
H13 H 1.304(3) 0.471(3) 0.5669(15)
H14 H 0.611(2) 0.588(2) 0.5428(11)
H15 H 0.622(4) 0.304(3) 0.9096(19)
H16 H 1.102(4) 0.331(3) 0.5146(19)
loop_
_geom_bond_atom_site_label_1
_geom_bond_atom_site_label_2
_geom_bond_site_symmetry_1
_geom_bond_site_symmetry_2
Cl1 C7 1_555 1_555
Cl2 C7 1_555 1_555
N1 C1 1_555 1_555
C1 C2 1_555 1_555
C2 C4 1_555 1_555
N2 C3 1_555 1_555
C3 N1 1_555 1_555
C4 N2 1_555 1_555
C5 N1 1_555 1_555
C6 C5 1_555 1_555
H1 C6 1_555 1_555
H2 C6 1_555 1_555
H3 C6 1_555 1_555
C7 C4 1_555 1_555
C8 C2 1_555 1_555
C9 C8 1_555 1_555
C10 C9 1_555 1_555
C11 C10 1_555 1_555
C12 C9 1_555 1_555
C13 C11 1_555 1_555
H4 C13 1_555 1_555
C14 C12 1_555 1_555
C15 C1 1_555 1_555
C16 C15 1_555 1_555
C17 C16 1_555 1_555
H5 C17 1_555 1_555
C18 C19 1_555 1_555
C19 C15 1_555 1_555
C20 C17 1_555 1_555
O1 C8 1_555 1_555
O2 C5 1_555 1_555
O3 C3 1_555 1_555
H6 C1 1_555 1_555
H7 C10 1_555 1_555
H8 C12 1_555 1_555
H9 C2 1_555 1_555
H10 C19 1_555 1_555
H11 C16 1_555 1_555
H12 C14 1_555 1_555
H13 C20 1_555 1_555
H14 N2 1_555 1_555
H15 C11 1_555 1_555
H16 C18 1_555 1_555
C13 C14 1_555 1_555
C18 C20 1_555 1_555

#END
