
#######################################################################
#
#                 Cambridge Crystallographic Data Centre
#                                CCDC 
#
#######################################################################
#
# If this CIF has been generated from an entry in the Cambridge 
# Structural Database, then it will include bibliographic, chemical, 
# crystal, experimental, refinement or atomic coordinate data resulting 
# from the CCDC's data processing and validation procedures.
#
#######################################################################

data_PECQAR
_chemical_name_common            
N-(bis(isopropylamino)phosphoryl)-4-fluorobenzamide
_chemical_formula_moiety         'C13 H21 F1 N3 O2 P1'
_chemical_name_systematic        
"N-(4-Fluorobenzoyl)-N',N''-diisopropylphosphoric triamide"
_symmetry_cell_setting           monoclinic
_symmetry_space_group_name_H-M   'P 21/c'
_symmetry_Int_Tables_number      14
_space_group_name_Hall           '-P 2ybc'
loop_
_symmetry_equiv_pos_site_id
_symmetry_equiv_pos_as_xyz
1 x,y,z
2 -x,1/2+y,1/2-z
3 -x,-y,-z
4 x,1/2-y,1/2+z
_cell_length_a                   15.9974(12)
_cell_length_b                   10.7474(7)
_cell_length_c                   19.5478(13)
_cell_angle_alpha                90
_cell_angle_beta                 111.461(2)
_cell_angle_gamma                90
_cell_volume                     3127.84
_exptl_crystal_colour            colorless
_exptl_crystal_description       block
_cell_formula_units_Z            8
loop_
_atom_site_label
_atom_site_type_symbol
_atom_site_fract_x
_atom_site_fract_y
_atom_site_fract_z
P1 P 0.66641(4) 0.16703(5) 0.60938(3)
F1 F 1.19973(10) 0.26579(16) 0.81566(8)
O1 O 0.81182(11) 0.27790(16) 0.57067(9)
O2 O 0.62755(10) 0.11428(15) 0.66103(8)
N1 N 0.77938(13) 0.17148(18) 0.65776(10)
H1 H 0.7967(17) 0.148(2) 0.7034(10)
N2 N 0.64876(13) 0.08672(17) 0.53551(10)
H2 H 0.6444(17) 0.124(2) 0.4962(11)
N3 N 0.63066(14) 0.30688(18) 0.58047(11)
H3 H 0.6526(18) 0.333(2) 0.5509(13)
C1 C 0.98985(16) 0.3212(2) 0.66618(13)
H7 H 0.9655 0.3738 0.6245
C2 C 1.07965(17) 0.3330(2) 0.71090(14)
H8 H 1.1172 0.3931 0.7009
C3 C 1.11214(16) 0.2545(2) 0.77028(13)
C4 C 1.06095(17) 0.1645(2) 0.78636(13)
H9 H 1.0865 0.1105 0.8272
C5 C 0.97113(16) 0.1547(2) 0.74148(12)
H10 H 0.9343 0.0940 0.7519
C6 C 0.93470(15) 0.2335(2) 0.68126(12)
C7 C 0.83791(15) 0.2292(2) 0.63192(12)
C8 C 0.67839(16) -0.0441(2) 0.54144(13)
H11 H 0.6991 -0.0683 0.5944
C9 C 0.75718(18) -0.0592(3) 0.51657(15)
H12 H 0.8062 -0.0041 0.5455
H13 H 0.7384 -0.0377 0.4644
H14 H 0.7779 -0.1458 0.5238
C10 C 0.59970(19) -0.1273(3) 0.49919(16)
H15 H 0.5511 -0.1153 0.5178
H16 H 0.6190 -0.2145 0.5057
H17 H 0.5782 -0.1059 0.4469
C11 C 0.62386(19) 0.4006(2) 0.63394(14)
H18 H 0.6167 0.3669 0.6792
C12 C 0.6977(5) 0.5009(7) 0.6466(5)
H19 H 0.7565 0.4650 0.6752
H20 H 0.6857 0.5712 0.6736
H21 H 0.6977 0.5299 0.5991
C13 C 0.5514(5) 0.4973(6) 0.5888(4)
H22 H 0.4917 0.4590 0.5731
H23 H 0.5639 0.5235 0.5455
H24 H 0.5532 0.5700 0.6196
P2 P 0.21362(4) 0.66868(5) 0.64779(3)
F2 F 0.75090(10) 0.72695(16) 0.81958(8)
O3 O 0.34880(12) 0.81368(16) 0.60767(9)
O4 O 0.18241(11) 0.59057(15) 0.69603(8)
N4 N 0.32492(13) 0.69042(18) 0.69250(10)
H4 H 0.3451(17) 0.668(2) 0.7372(10)
N5 N 0.19346(14) 0.60247(18) 0.56892(10)
H5 H 0.1955(18) 0.647(2) 0.5336(12)
N6 N 0.17165(14) 0.80866(19) 0.63345(11)
H6 H 0.2011(18) 0.861(2) 0.6202(15)
C14 C 0.53551(17) 0.8319(2) 0.69340(13)
H25 H 0.5109 0.8941 0.6570
C15 C 0.62753(17) 0.8276(2) 0.73154(14)
H26 H 0.6664 0.8872 0.7229
C16 C 0.66076(16) 0.7340(2) 0.78238(13)
C17 C 0.60747(17) 0.6462(2) 0.79746(13)
H27 H 0.6330 0.5823 0.8325
C18 C 0.51529(16) 0.6533(2) 0.75999(13)
H28 H 0.4770 0.5946 0.7701
C19 C 0.47844(16) 0.7459(2) 0.70771(12)
C20 C 0.37995(16) 0.7536(2) 0.66527(12)
C21 C 0.20729(17) 0.4683(2) 0.56179(13)
H29 H 0.2013 0.4257 0.6053
C22 C 0.2994(2) 0.4408(3) 0.5623(2)
H30 H 0.3444 0.4811 0.6049
H31 H 0.3046 0.4728 0.5171
H32 H 0.3093 0.3507 0.5652
C23 C 0.1340(3) 0.4201(3) 0.4942(2)
H33 H 0.0754 0.4378 0.4974
H34 H 0.1409 0.3300 0.4904
H35 H 0.1378 0.4610 0.4506
C24 C 0.07352(18) 0.8274(2) 0.60296(14)
H36 H 0.0453 0.7512 0.6145
C25 C 0.0378(2) 0.8417(3) 0.52048(15)
H37 H 0.0521 0.7670 0.4982
H38 H 0.0655 0.9145 0.5072
H39 H -0.0275 0.8529 0.5025
C26 C 0.0489(2) 0.9359(3) 0.64109(16)
H40 H 0.0694 0.9193 0.6940
H41 H -0.0165 0.9470 0.6214
H42 H 0.0777 1.0117 0.6326
C27? C 0.7119(6) 0.4539(9) 0.6829(5)
C28? C 0.5276(6) 0.4168(8) 0.6273(5)
H43? H 0.6168 0.4687 0.5974
H44? H 0.7376 0.4014 0.7266
H45? H 0.7026 0.5382 0.6978
H46? H 0.7532 0.4570 0.6562
H47? H 0.4995 0.3349 0.6244
H48? H 0.4948 0.4644 0.5828
H49? H 0.5258 0.4615 0.6704
loop_
_geom_bond_atom_site_label_1
_geom_bond_atom_site_label_2
_geom_bond_site_symmetry_1
_geom_bond_site_symmetry_2
P1 O2 1_555 1_555
P2 O4 1_555 1_555
F1 C3 1_555 1_555
F2 C16 1_555 1_555
O1 C7 1_555 1_555
O3 C20 1_555 1_555
N1 P1 1_555 1_555
H1 N1 1_555 1_555
N2 P1 1_555 1_555
H2 N2 1_555 1_555
N3 P1 1_555 1_555
H3 N3 1_555 1_555
N4 P2 1_555 1_555
H4 N4 1_555 1_555
N5 P2 1_555 1_555
H5 N5 1_555 1_555
N6 P2 1_555 1_555
H6 N6 1_555 1_555
C1 H7 1_555 1_555
C2 C1 1_555 1_555
H8 C2 1_555 1_555
C3 C2 1_555 1_555
C4 C3 1_555 1_555
H9 C4 1_555 1_555
C5 C4 1_555 1_555
H10 C5 1_555 1_555
C6 C1 1_555 1_555
C7 N1 1_555 1_555
C8 N2 1_555 1_555
H11 C8 1_555 1_555
C9 C8 1_555 1_555
H12 C9 1_555 1_555
H13 C9 1_555 1_555
H14 C9 1_555 1_555
C10 C8 1_555 1_555
H15 C10 1_555 1_555
H16 C10 1_555 1_555
H17 C10 1_555 1_555
C11 N3 1_555 1_555
H18 C11 1_555 1_555
C12 C11 1_555 1_555
H19 C12 1_555 1_555
H20 C12 1_555 1_555
H21 C12 1_555 1_555
C13 C11 1_555 1_555
H22 C13 1_555 1_555
H23 C13 1_555 1_555
H24 C13 1_555 1_555
C14 H25 1_555 1_555
C15 C14 1_555 1_555
H26 C15 1_555 1_555
C16 C15 1_555 1_555
C17 C16 1_555 1_555
H27 C17 1_555 1_555
C18 C17 1_555 1_555
H28 C18 1_555 1_555
C19 C14 1_555 1_555
C20 N4 1_555 1_555
C21 N5 1_555 1_555
H29 C21 1_555 1_555
C22 C21 1_555 1_555
H30 C22 1_555 1_555
H31 C22 1_555 1_555
H32 C22 1_555 1_555
C23 C21 1_555 1_555
H33 C23 1_555 1_555
H34 C23 1_555 1_555
H35 C23 1_555 1_555
C24 N6 1_555 1_555
H36 C24 1_555 1_555
C25 C24 1_555 1_555
H37 C25 1_555 1_555
H38 C25 1_555 1_555
H39 C25 1_555 1_555
C26 C24 1_555 1_555
H40 C26 1_555 1_555
H41 C26 1_555 1_555
H42 C26 1_555 1_555
C5 C6 1_555 1_555
C6 C7 1_555 1_555
C18 C19 1_555 1_555
C19 C20 1_555 1_555

#END
