
#######################################################################
#
#                 Cambridge Crystallographic Data Centre
#                                CCDC 
#
#######################################################################
#
# If this CIF has been generated from an entry in the Cambridge 
# Structural Database, then it will include bibliographic, chemical, 
# crystal, experimental, refinement or atomic coordinate data resulting 
# from the CCDC's data processing and validation procedures.
#
#######################################################################

data_PECTUO
_chemical_name_common            1-Chloro-1H-benzotriazole
_chemical_formula_moiety         'C6 H4 Cl1 N3'
_chemical_name_systematic        1-Chloro-1H-1,2,3-benzotriazole
_symmetry_cell_setting           orthorhombic
_symmetry_space_group_name_H-M   'F d d 2'
_symmetry_Int_Tables_number      43
_space_group_name_Hall           'F 2 -2d'
loop_
_symmetry_equiv_pos_site_id
_symmetry_equiv_pos_as_xyz
1 x,y,z
2 -x,-y,z
3 1/4-x,1/4+y,1/4+z
4 1/4+x,1/4-y,1/4+z
5 x,1/2+y,1/2+z
6 -x,1/2-y,1/2+z
7 1/4-x,3/4+y,3/4+z
8 1/4+x,3/4-y,3/4+z
9 1/2+x,y,1/2+z
10 1/2-x,-y,1/2+z
11 3/4-x,1/4+y,3/4+z
12 3/4+x,1/4-y,3/4+z
13 1/2+x,1/2+y,z
14 1/2-x,1/2-y,z
15 3/4-x,3/4+y,1/4+z
16 3/4+x,3/4-y,1/4+z
_cell_length_a                   22.8022(11)
_cell_length_b                   14.2637(8)
_cell_length_c                   8.2259(4)
_cell_angle_alpha                90
_cell_angle_beta                 90
_cell_angle_gamma                90
_cell_volume                     2675.42
_exptl_crystal_colour            colorless
_exptl_crystal_description       block
_cell_formula_units_Z            16
loop_
_atom_site_label
_atom_site_type_symbol
_atom_site_fract_x
_atom_site_fract_y
_atom_site_fract_z
Cl1 Cl 0.31785(3) 0.13250(5) -0.13509(9)
N1 N 0.37734(9) 0.18891(16) -0.0618(3)
N2 N 0.43133(10) 0.15132(19) -0.0788(3)
N3 N 0.46849(10) 0.20933(18) -0.0121(4)
C1 C 0.37873(11) 0.27246(19) 0.0179(3)
C2 C 0.43801(11) 0.2849(2) 0.0484(3)
C3 C 0.45739(14) 0.3651(2) 0.1311(4)
H1 H 0.4969 0.3751 0.1531
C4 C 0.41526(15) 0.4282(2) 0.1780(4)
H2 H 0.4265 0.4822 0.2330
C5 C 0.35617(14) 0.4133(2) 0.1453(4)
H3 H 0.3292 0.4581 0.1796
C6 C 0.33580(13) 0.3357(2) 0.0649(4)
H4 H 0.2962 0.3262 0.0435
loop_
_geom_bond_atom_site_label_1
_geom_bond_atom_site_label_2
_geom_bond_site_symmetry_1
_geom_bond_site_symmetry_2
Cl1 N1 1_555 1_555
N1 N2 1_555 1_555
N2 N3 1_555 1_555
N3 C2 1_555 1_555
C1 N1 1_555 1_555
C2 C1 1_555 1_555
C3 C2 1_555 1_555
H1 C3 1_555 1_555
C4 C3 1_555 1_555
H2 C4 1_555 1_555
C5 C4 1_555 1_555
H3 C5 1_555 1_555
C6 C1 1_555 1_555
H4 C6 1_555 1_555
C5 C6 1_555 1_555

#END
