
#######################################################################
#
#                 Cambridge Crystallographic Data Centre
#                                CCDC 
#
#######################################################################
#
# If this CIF has been generated from an entry in the Cambridge 
# Structural Database, then it will include bibliographic, chemical, 
# crystal, experimental, refinement or atomic coordinate data resulting 
# from the CCDC's data processing and validation procedures.
#
#######################################################################

data_PECWOK
_chemical_formula_moiety         'C10 H12 O4'
_chemical_name_systematic        1,8-Dioxa-dispiro(3.2.3.2)dodecane-2,9-dione
_symmetry_cell_setting           monoclinic
_symmetry_space_group_name_H-M   'P 21/n'
_symmetry_Int_Tables_number      14
_space_group_name_Hall           '-P 2yn'
loop_
_symmetry_equiv_pos_site_id
_symmetry_equiv_pos_as_xyz
1 x,y,z
2 1/2-x,1/2+y,1/2-z
3 -x,-y,-z
4 1/2+x,1/2-y,1/2+z
_cell_length_a                   8.4475(8)
_cell_length_b                   5.4646(5)
_cell_length_c                   10.2032(9)
_cell_angle_alpha                90
_cell_angle_beta                 99.118(2)
_cell_angle_gamma                90
_cell_volume                     465.051
_exptl_crystal_colour            colorless
_exptl_crystal_description       needle
_cell_formula_units_Z            2
loop_
_atom_site_label
_atom_site_type_symbol
_atom_site_fract_x
_atom_site_fract_y
_atom_site_fract_z
O1 O 0.53240(11) 0.8975(2) 1.15381(9)
O2 O 0.76574(10) 1.04060(16) 1.09670(8)
C1 C 0.65065(14) 0.8700(2) 1.10478(12)
C2 C 0.72900(16) 0.6701(2) 1.03688(15)
H1 H 0.7624(19) 0.535(3) 1.0941(16)
H2 H 0.6669(18) 0.617(3) 0.9524(16)
C3 C 0.85940(13) 0.8618(2) 1.02584(11)
C4 C 0.87047(14) 0.9548(3) 0.88804(12)
H3 H 0.7615(18) 0.991(3) 0.8424(14)
H4 H 0.9163(16) 0.823(3) 0.8404(13)
C5 C 1.02209(14) 0.8203(2) 1.10873(13)
H5 H 1.0741(17) 0.683(3) 1.0707(15)
H6 H 1.0078(16) 0.770(3) 1.1986(15)
O1B O 1.46760(11) 1.1025(2) 0.84619(9)
O2B O 1.23426(10) 0.95940(16) 0.90330(8)
C1B C 1.34935(14) 1.1300(2) 0.89522(12)
C2B C 1.27100(16) 1.3299(2) 0.96312(15)
H1B H 1.2376(19) 1.465(3) 0.9059(16)
H2B H 1.3331(18) 1.383(3) 1.0476(16)
C3B C 1.14060(13) 1.1382(2) 0.97416(11)
C4B C 1.12953(14) 1.0452(3) 1.11196(12)
H3B H 1.2385(18) 1.009(3) 1.1576(14)
H4B H 1.0837(16) 1.177(3) 1.1596(13)
C5B C 0.97791(14) 1.1797(2) 0.89127(13)
H5B H 0.9259(17) 1.317(3) 0.9293(15)
H6B H 0.9922(16) 1.230(3) 0.8014(15)
loop_
_geom_bond_atom_site_label_1
_geom_bond_atom_site_label_2
_geom_bond_site_symmetry_1
_geom_bond_site_symmetry_2
O1 C1 1_555 1_555
O2 C1 1_555 1_555
C1 C2 1_555 1_555
C2 H1 1_555 1_555
H2 C2 1_555 1_555
C3 O2 1_555 1_555
C4 C3 1_555 1_555
H3 C4 1_555 1_555
H4 C4 1_555 1_555
C5 C3 1_555 1_555
H5 C5 1_555 1_555
H6 C5 1_555 1_555
O1B C1B 1_555 1_555
O2B C1B 1_555 1_555
C1B C2B 1_555 1_555
C2B H1B 1_555 1_555
H2B C2B 1_555 1_555
C3B O2B 1_555 1_555
C4B C5 1_555 1_555
H3B C4B 1_555 1_555
H4B C4B 1_555 1_555
C5B C4 1_555 1_555
H5B C5B 1_555 1_555
H6B C5B 1_555 1_555
C2 C3 1_555 1_555
C2B C3B 1_555 1_555
C3B C4B 1_555 1_555
C3B C5B 1_555 1_555

#END
