
#######################################################################
#
#                 Cambridge Crystallographic Data Centre
#                                CCDC 
#
#######################################################################
#
# If this CIF has been generated from an entry in the Cambridge 
# Structural Database, then it will include bibliographic, chemical, 
# crystal, experimental, refinement or atomic coordinate data resulting 
# from the CCDC's data processing and validation procedures.
#
#######################################################################

data_PECWEZ10
_chemical_formula_moiety         'C24 H16 S3'
_chemical_name_systematic        1,9-bis(Phenylthio)dibenzothiophene
_symmetry_cell_setting           monoclinic
_symmetry_space_group_name_H-M   'P 21/n'
_symmetry_Int_Tables_number      14
_space_group_name_Hall           '-P 2yn'
loop_
_symmetry_equiv_pos_site_id
_symmetry_equiv_pos_as_xyz
1 x,y,z
2 1/2-x,1/2+y,1/2-z
3 -x,-y,-z
4 1/2+x,1/2-y,1/2+z
_cell_length_a                   17.862
_cell_length_b                   8.050
_cell_length_c                   13.549
_cell_angle_alpha                90
_cell_angle_beta                 95.74
_cell_angle_gamma                90
_cell_volume                     1938.43
_exptl_crystal_colour            colorless
_chemical_melting_point          '197.5-200 deg.C'
_cell_formula_units_Z            4
loop_
_atom_site_label
_atom_site_type_symbol
_atom_site_fract_x
_atom_site_fract_y
_atom_site_fract_z
S1 S 0.20663(5) 0.97865(10) 0.65046(7)
S2 S 0.27383(4) 0.41656(10) 0.46885(5)
S3 S 0.41500(4) 0.51316(10) 0.59627(6)
C1 C 0.29706(17) 0.94108(37) 0.61779(20)
C2 C 0.30901(15) 0.77196(34) 0.59493(18)
C3 C 0.23942(15) 0.67714(34) 0.59219(18)
C4 C 0.18118(17) 0.77154(37) 0.62827(21)
C5 C 0.11023(18) 0.70600(45) 0.63918(23)
C6 C 0.09622(20) 0.54261(48) 0.61350(27)
C7 C 0.15028(19) 0.45117(41) 0.56943(23)
C8 C 0.21975(16) 0.51833(35) 0.55386(20)
C9 C 0.35352(20) 1.06116(40) 0.62051(23)
C10 C 0.42426(20) 1.01122(42) 0.60175(24)
C11 C 0.44036(17) 0.84614(41) 0.58677(22)
C12 C 0.38429(16) 0.72424(36) 0.58697(20)
C13 C 0.21870(15) 0.45399(33) 0.35406(19)
C14 C 0.15221(17) 0.54229(40) 0.34156(21)
C15 C 0.11474(19) 0.56041(49) 0.24780(25)
C16 C 0.14308(22) 0.49041(51) 0.16631(23)
C17 C 0.20977(22) 0.40554(54) 0.17863(25)
C18 C 0.24796(19) 0.38501(44) 0.27190(24)
C19 C 0.47880(15) 0.52475(34) 0.70597(21)
C20 C 0.46390(16) 0.61967(37) 0.78814(22)
C21 C 0.51206(20) 0.61017(43) 0.87500(23)
C22 C 0.57439(22) 0.50764(48) 0.88031(27)
C23 C 0.58910(19) 0.41523(50) 0.79956(32)
C24 C 0.54181(17) 0.42491(41) 0.71094(25)
H1 H 0.071(2) 0.769(4) 0.672(3)
H2 H 0.044(2) 0.485(5) 0.612(3)
H3 H 0.135(2) 0.338(5) 0.540(3)
H4 H 0.339(2) 1.180(4) 0.634(3)
H5 H 0.466(2) 1.088(5) 0.607(3)
H6 H 0.495(2) 0.802(4) 0.580(3)
H7 H 0.133(2) 0.594(4) 0.401(2)
H8 H 0.067(3) 0.625(6) 0.238(4)
H9 H 0.117(2) 0.500(4) 0.104(3)
H10 H 0.234(2) 0.351(5) 0.125(3)
H11 H 0.296(2) 0.320(4) 0.280(3)
H12 H 0.423(2) 0.704(4) 0.788(2)
H13 H 0.497(2) 0.684(4) 0.932(3)
H14 H 0.606(2) 0.512(4) 0.943(3)
H15 H 0.632(2) 0.347(5) 0.793(3)
H16 H 0.553(2) 0.355(4) 0.652(2)
loop_
_geom_bond_atom_site_label_1
_geom_bond_atom_site_label_2
_geom_bond_site_symmetry_1
_geom_bond_site_symmetry_2
S1 C1 1_555 1_555
S2 C8 1_555 1_555
S3 C12 1_555 1_555
C1 C2 1_555 1_555
C2 C3 1_555 1_555
C3 C4 1_555 1_555
C4 S1 1_555 1_555
C5 C4 1_555 1_555
C6 C5 1_555 1_555
C7 C6 1_555 1_555
C8 C3 1_555 1_555
C9 C1 1_555 1_555
C10 C9 1_555 1_555
C11 C10 1_555 1_555
C12 C2 1_555 1_555
C13 S2 1_555 1_555
C14 C13 1_555 1_555
C15 C14 1_555 1_555
C16 C15 1_555 1_555
C17 C16 1_555 1_555
C18 C13 1_555 1_555
C19 S3 1_555 1_555
C20 C19 1_555 1_555
C21 C20 1_555 1_555
C22 C21 1_555 1_555
C23 C22 1_555 1_555
C24 C19 1_555 1_555
H1 C5 1_555 1_555
H2 C6 1_555 1_555
H3 C7 1_555 1_555
H4 C9 1_555 1_555
H5 C10 1_555 1_555
H6 C11 1_555 1_555
H7 C14 1_555 1_555
H8 C15 1_555 1_555
H9 C16 1_555 1_555
H10 C17 1_555 1_555
H11 C18 1_555 1_555
H12 C20 1_555 1_555
H13 C21 1_555 1_555
H14 C22 1_555 1_555
H15 C23 1_555 1_555
H16 C24 1_555 1_555
C7 C8 1_555 1_555
C11 C12 1_555 1_555
C17 C18 1_555 1_555
C23 C24 1_555 1_555

#END
