
#######################################################################
#
#                 Cambridge Crystallographic Data Centre
#                                CCDC 
#
#######################################################################
#
# If this CIF has been generated from an entry in the Cambridge 
# Structural Database, then it will include bibliographic, chemical, 
# crystal, experimental, refinement or atomic coordinate data resulting 
# from the CCDC's data processing and validation procedures.
#
#######################################################################

data_PECWIE
_chemical_formula_moiety         'C10 H12 O4'
_chemical_name_systematic        
Tetrahydro-4H,4'H-spiro(1-benzofuran-5,2'-oxetane)-2,4'(3H)-dione
_symmetry_cell_setting           monoclinic
_symmetry_space_group_name_H-M   'P 21'
_symmetry_Int_Tables_number      4
_space_group_name_Hall           'P 2yb'
loop_
_symmetry_equiv_pos_site_id
_symmetry_equiv_pos_as_xyz
1 x,y,z
2 -x,1/2+y,-z
_cell_length_a                   5.3861(3)
_cell_length_b                   10.9679(7)
_cell_length_c                   8.4107(5)
_cell_angle_alpha                90
_cell_angle_beta                 107.8670(10)
_cell_angle_gamma                90
_cell_volume                     472.893
_exptl_crystal_colour            colorless
_exptl_crystal_description       prism
_cell_formula_units_Z            2
loop_
_atom_site_label
_atom_site_type_symbol
_atom_site_fract_x
_atom_site_fract_y
_atom_site_fract_z
O1 O 0.4351(4) 0.0000(2) 0.0118(3)
O2 O 0.4490(3) 0.15270(19) 0.1973(2)
C1 C 0.3312(5) 0.0706(3) 0.0768(3)
C2 C 0.0567(5) 0.1045(3) 0.0702(4)
H1 H -0.033(6) 0.148(3) -0.031(4)
H2 H -0.038(5) 0.039(3) 0.096(3)
C3 C 0.1870(5) 0.1907(2) 0.2136(3)
C4 C 0.1455(7) 0.3249(3) 0.1823(4)
H3 H 0.173(6) 0.347(3) 0.063(4)
H4 H -0.036(7) 0.336(3) 0.178(4)
C5 C 0.3337(8) 0.4013(3) 0.3169(4)
H5 H 0.512(7) 0.390(4) 0.308(4)
H6 H 0.272(6) 0.490(4) 0.309(4)
C6 C 0.3612(6) 0.3606(2) 0.4929(4)
H7 H 0.519(6) 0.401(3) 0.571(3)
C7 C 0.3776(5) 0.2241(2) 0.5236(3)
H8 H 0.568(6) 0.189(3) 0.530(4)
C8 C 0.1773(5) 0.1554(2) 0.3842(3)
H9 H 0.203(5) 0.069(3) 0.398(3)
H10 H 0.003(6) 0.175(3) 0.392(4)
C9 C 0.3108(6) 0.2168(3) 0.6858(4)
H11 H 0.236(5) 0.139(3) 0.709(3)
H12 H 0.454(6) 0.238(3) 0.782(4)
C10 C 0.1120(5) 0.3172(3) 0.6648(3)
O3 O 0.1300(4) 0.3946(2) 0.5443(2)
O4 O -0.0462(4) 0.3309(2) 0.7386(2)
loop_
_geom_bond_atom_site_label_1
_geom_bond_atom_site_label_2
_geom_bond_site_symmetry_1
_geom_bond_site_symmetry_2
O1 C1 1_555 1_555
O2 C1 1_555 1_555
C1 C2 1_555 1_555
C2 H1 1_555 1_555
H2 C2 1_555 1_555
C3 O2 1_555 1_555
C4 C3 1_555 1_555
H3 C4 1_555 1_555
H4 C4 1_555 1_555
C5 C4 1_555 1_555
H5 C5 1_555 1_555
H6 C5 1_555 1_555
C6 C5 1_555 1_555
H7 C6 1_555 1_555
C7 C6 1_555 1_555
H8 C7 1_555 1_555
C8 C3 1_555 1_555
H9 C8 1_555 1_555
H10 C8 1_555 1_555
C9 C7 1_555 1_555
H11 C9 1_555 1_555
H12 C9 1_555 1_555
C10 C9 1_555 1_555
O3 C6 1_555 1_555
O4 C10 1_555 1_555
C2 C3 1_555 1_555
C7 C8 1_555 1_555
C10 O3 1_555 1_555

#END
