
#######################################################################
#
#                 Cambridge Crystallographic Data Centre
#                                CCDC 
#
#######################################################################
#
# If this CIF has been generated from an entry in the Cambridge 
# Structural Database, then it will include bibliographic, chemical, 
# crystal, experimental, refinement or atomic coordinate data resulting 
# from the CCDC's data processing and validation procedures.
#
#######################################################################

data_PECXAX
_chemical_compound_source        'leaves and stems of Kadsura longipedunculata'
_chemical_formula_moiety         'C30 H38 O6'
_chemical_name_systematic        'Kadlongilactone A'
_chemical_properties_biological  
'inhibitory activity against human tumour K562 cells'
_symmetry_cell_setting           triclinic
_symmetry_space_group_name_H-M   'P 1'
_symmetry_Int_Tables_number      1
_space_group_name_Hall           'P 1'
loop_
_symmetry_equiv_pos_site_id
_symmetry_equiv_pos_as_xyz
1 x,y,z
_cell_length_a                   6.8240(14)
_cell_length_b                   7.7330(15)
_cell_length_c                   14.387(3)
_cell_angle_alpha                77.63(3)
_cell_angle_beta                 84.79(3)
_cell_angle_gamma                64.36(3)
_cell_volume                     668.553
_exptl_crystal_colour            colorless
_exptl_crystal_description       block
_chemical_melting_point          212-214deg.C
_cell_formula_units_Z            1
loop_
_atom_site_label
_atom_site_type_symbol
_atom_site_fract_x
_atom_site_fract_y
_atom_site_fract_z
C1 C 0.8742(8) 0.1861(6) 0.1883(3)
H1 H 0.8986 0.2923 0.1553
C2 C 0.8608(10) 0.1710(8) 0.2833(4)
H2 H 0.8694 0.2719 0.3055
C3 C 0.8347(9) 0.0191(8) 0.3570(4)
O1 O 0.8979(9) -0.0107(8) 0.4377(3)
O2 O 0.7421(6) -0.0933(5) 0.3398(2)
C4 C 0.6239(8) -0.0576(6) 0.2529(3)
C5 C 0.7758(7) -0.0943(6) 0.1665(3)
H3 H 0.6884 -0.0910 0.1152
C6 C 0.9720(8) -0.2977(6) 0.1803(3)
H4 H 1.0961 -0.2879 0.2025
H5 H 0.9370 -0.3886 0.2286
C7 C 1.0325(8) -0.3775(6) 0.0874(3)
H6 H 1.1417 -0.5116 0.1020
H7 H 0.9048 -0.3797 0.0642
C8 C 1.1186(7) -0.2644(5) 0.0079(3)
H8 H 1.2422 -0.2593 0.0351
C9 C 0.9610(7) -0.0493(5) -0.0305(3)
O3 O 0.7543(5) -0.0426(4) -0.0493(2)
H9 H 0.6868 0.0570 -0.0882
C10 C 0.8566(7) 0.0632(5) 0.1288(3)
C11 C 1.0717(7) -0.0025(5) -0.1231(3)
H10 H 1.2018 0.0104 -0.1110
H11 H 0.9742 0.1168 -0.1635
C12 C 1.1270(6) -0.1810(5) -0.1678(3)
H12 H 0.9898 -0.1710 -0.1895
C13 C 1.2749(7) -0.1918(5) -0.2540(3)
C14 C 1.2089(7) -0.3581(5) -0.0828(3)
C15 C 1.4570(7) -0.4504(5) -0.0814(3)
H13 H 1.5067 -0.5691 -0.0331
H14 H 1.5037 -0.3613 -0.0622
C16 C 1.5702(7) -0.5013(5) -0.1754(3)
H15 H 1.7230 -0.5278 -0.1696
O4 O 1.5636(6) -0.6797(4) -0.1893(2)
H16 H 1.6243 -0.7688 -0.1446
C17 C 1.4737(7) -0.3339(5) -0.2588(3)
C18 C 1.1709(8) -0.0189(6) -0.3346(3)
H17 H 1.1620 0.0978 -0.3161
H18 H 1.0236 -0.0007 -0.3437
C19 C 0.9332(7) 0.0817(5) 0.0396(3)
H19 H 0.9731 0.1844 0.0186
C20 C 1.6132(7) -0.3391(5) -0.3485(3)
H20 H 1.5914 -0.4257 -0.3831
C21 C 1.8568(9) -0.4241(7) -0.3311(4)
H21 H 1.9028 -0.5488 -0.2887
H22 H 1.8887 -0.3370 -0.3032
H23 H 1.9326 -0.4402 -0.3904
C22 C 1.5352(7) -0.1392(5) -0.4150(2)
H24 H 1.6081 -0.1540 -0.4766
O5 O 1.5981(5) -0.0157(4) -0.37111(19)
C23 C 1.2926(7) -0.0394(5) -0.4302(3)
H25 H 1.2496 -0.1166 -0.4629
C24 C 1.2394(8) 0.1579(6) -0.4924(3)
H26 H 1.1220 0.2128 -0.5341
C25 C 1.3562(8) 0.2545(6) -0.4888(3)
C26 C 1.5258(9) 0.1728(6) -0.4134(3)
O6 O 1.5960(8) 0.2724(5) -0.3847(3)
C27 C 1.3150(12) 0.4526(8) -0.5460(4)
H27 H 1.2031 0.4912 -0.5921
H28 H 1.4460 0.4487 -0.5782
H29 H 1.2695 0.5452 -0.5046
C28 C 1.1249(8) -0.5077(6) -0.0923(3)
H30 H 1.1829 -0.5584 -0.1491
H31 H 0.9690 -0.4456 -0.0959
H32 H 1.1699 -0.6128 -0.0380
C29 C 0.5280(11) -0.2083(9) 0.2781(4)
H33 H 0.4343 -0.1828 0.3323
H34 H 0.6437 -0.3373 0.2928
H35 H 0.4461 -0.1991 0.2250
C30 C 0.4340(8) 0.1452(8) 0.2358(4)
H36 H 0.3427 0.1604 0.2912
H37 H 0.3510 0.1594 0.1820
H38 H 0.4888 0.2432 0.2236
loop_
_geom_bond_atom_site_label_1
_geom_bond_atom_site_label_2
_geom_bond_site_symmetry_1
_geom_bond_site_symmetry_2
C1 H1 1_555 1_555
C2 C1 1_555 1_555
H2 C2 1_555 1_555
C3 C2 1_555 1_555
O1 C3 1_555 1_555
O2 C3 1_555 1_555
C4 O2 1_555 1_555
C5 C4 1_555 1_555
H3 C5 1_555 1_555
C6 C5 1_555 1_555
H4 C6 1_555 1_555
H5 C6 1_555 1_555
C7 C6 1_555 1_555
H6 C7 1_555 1_555
H7 C7 1_555 1_555
C8 C7 1_555 1_555
H8 C8 1_555 1_555
C9 C8 1_555 1_555
O3 C9 1_555 1_555
H9 O3 1_555 1_555
C10 C1 1_555 1_555
C11 C9 1_555 1_555
H10 C11 1_555 1_555
H11 C11 1_555 1_555
C12 C11 1_555 1_555
H12 C12 1_555 1_555
C13 C12 1_555 1_555
C14 C8 1_555 1_555
C15 C14 1_555 1_555
H13 C15 1_555 1_555
H14 C15 1_555 1_555
C16 C15 1_555 1_555
H15 C16 1_555 1_555
O4 C16 1_555 1_555
H16 O4 1_555 1_555
C17 C13 1_555 1_555
C18 C13 1_555 1_555
H17 C18 1_555 1_555
H18 C18 1_555 1_555
C19 C9 1_555 1_555
H19 C19 1_555 1_555
C20 C17 1_555 1_555
H20 C20 1_555 1_555
C21 C20 1_555 1_555
H21 C21 1_555 1_555
H22 C21 1_555 1_555
H23 C21 1_555 1_555
C22 C20 1_555 1_555
H24 C22 1_555 1_555
O5 C22 1_555 1_555
C23 C18 1_555 1_555
H25 C23 1_555 1_555
C24 C23 1_555 1_555
H26 C24 1_555 1_555
C25 C24 1_555 1_555
C26 O5 1_555 1_555
O6 C26 1_555 1_555
C27 C25 1_555 1_555
H27 C27 1_555 1_555
H28 C27 1_555 1_555
H29 C27 1_555 1_555
C28 C14 1_555 1_555
H30 C28 1_555 1_555
H31 C28 1_555 1_555
H32 C28 1_555 1_555
C29 C4 1_555 1_555
H33 C29 1_555 1_555
H34 C29 1_555 1_555
H35 C29 1_555 1_555
C30 C4 1_555 1_555
H36 C30 1_555 1_555
H37 C30 1_555 1_555
H38 C30 1_555 1_555
C5 C10 1_555 1_555
C10 C19 1_555 1_555
C12 C14 1_555 1_555
C16 C17 1_555 1_555
C22 C23 1_555 1_555
C25 C26 1_555 1_555

#END
