
#######################################################################
#
#                 Cambridge Crystallographic Data Centre
#                                CCDC 
#
#######################################################################
#
# If this CIF has been generated from an entry in the Cambridge 
# Structural Database, then it will include bibliographic, chemical, 
# crystal, experimental, refinement or atomic coordinate data resulting 
# from the CCDC's data processing and validation procedures.
#
#######################################################################

data_PECXAY
_chemical_formula_moiety         'C10 H10 N2 2+,2(C7 H4 N1 S2 1-)'
_chemical_name_systematic        
"4,4'-Bipyridine-1,1'-diium; bis(1,3-benzothiazole-2-thiolate)"
_symmetry_cell_setting           monoclinic
_symmetry_space_group_name_H-M   'P 21/c'
_symmetry_Int_Tables_number      14
_space_group_name_Hall           '-P 2ybc'
loop_
_symmetry_equiv_pos_site_id
_symmetry_equiv_pos_as_xyz
1 x,y,z
2 -x,1/2+y,1/2-z
3 -x,-y,-z
4 x,1/2-y,1/2+z
_cell_length_a                   14.3909(13)
_cell_length_b                   5.6670(4)
_cell_length_c                   15.5471(14)
_cell_angle_alpha                90
_cell_angle_beta                 109.023(2)
_cell_angle_gamma                90
_cell_volume                     1198.67
_exptl_crystal_colour            colorless
_exptl_crystal_description       block
_cell_formula_units_Z            2
loop_
_atom_site_label
_atom_site_type_symbol
_atom_site_fract_x
_atom_site_fract_y
_atom_site_fract_z
N1 N 0.2335(3) 0.3414(7) 0.7956(2)
S1 S 0.16856(12) 0.6851(3) 0.68804(10)
S2 S 0.30080(16) 0.3128(4) 0.65559(11)
C1 C 0.2387(4) 0.4264(10) 0.7171(3)
C2 C 0.1755(3) 0.4737(9) 0.8346(3)
C3 C 0.1353(4) 0.6727(10) 0.7852(3)
C4 C 0.0782(4) 0.8244(11) 0.8160(5)
H2 H 0.0515 0.9598 0.7835
C5 C 0.0617(5) 0.7703(13) 0.8960(6)
H3 H 0.0217 0.8680 0.9170
C6 C 0.1030(5) 0.5758(13) 0.9448(4)
H4 H 0.0921 0.5448 0.9995
C7 C 0.1601(3) 0.4255(9) 0.9152(3)
H5 H 0.1879 0.2929 0.9491
N2 N 0.6509(3) 0.4638(7) 0.6145(3)
H1 H 0.6875 0.5792 0.6419
C8 C 0.5934(4) 0.3548(11) 0.6502(4)
H6 H 0.5926 0.4038 0.7070
C9 C 0.5343(4) 0.1726(11) 0.6091(4)
H7 H 0.4955 0.0979 0.6385
C10 C 0.5317(3) 0.0987(8) 0.5244(3)
C11 C 0.5936(4) 0.2124(10) 0.4888(3)
H8 H 0.5967 0.1676 0.4322
C12 C 0.6507(4) 0.3907(11) 0.5350(4)
H9 H 0.6923 0.4653 0.5086
N2B N 0.3491(3) -0.4638(7) 0.3855(3)
H1B H 0.3125 -0.5792 0.3581
C8B C 0.4066(4) -0.3548(11) 0.3498(4)
H6B H 0.4074 -0.4038 0.2930
C9B C 0.4657(4) -0.1726(11) 0.3909(4)
H7B H 0.5045 -0.0979 0.3615
C10B C 0.4683(3) -0.0987(8) 0.4756(3)
C11B C 0.4064(4) -0.2124(10) 0.5112(3)
H8B H 0.4033 -0.1676 0.5678
C12B C 0.3493(4) -0.3907(11) 0.4650(4)
H9B H 0.3077 -0.4653 0.4914
loop_
_geom_bond_atom_site_label_1
_geom_bond_atom_site_label_2
_geom_bond_site_symmetry_1
_geom_bond_site_symmetry_2
N1 C1 1_555 1_555
N2 H1 1_555 1_555
S1 C1 1_555 1_555
S2 C1 1_555 1_555
C2 N1 1_555 1_555
C3 S1 1_555 1_555
C4 C3 1_555 1_555
H2 C4 1_555 1_555
C5 C4 1_555 1_555
H3 C5 1_555 1_555
C6 C5 1_555 1_555
H4 C6 1_555 1_555
C7 C2 1_555 1_555
H5 C7 1_555 1_555
C8 N2 1_555 1_555
H6 C8 1_555 1_555
C9 C8 1_555 1_555
H7 C9 1_555 1_555
C10 C9 1_555 1_555
C11 C10 1_555 1_555
H8 C11 1_555 1_555
C12 N2 1_555 1_555
H9 C12 1_555 1_555
N2B H1B 1_555 1_555
C8B N2B 1_555 1_555
H6B C8B 1_555 1_555
C9B C8B 1_555 1_555
H7B C9B 1_555 1_555
C10B C10 1_555 1_555
C11B C10B 1_555 1_555
H8B C11B 1_555 1_555
C12B N2B 1_555 1_555
H9B C12B 1_555 1_555
C2 C3 1_555 1_555
C6 C7 1_555 1_555
C11 C12 1_555 1_555
C9B C10B 1_555 1_555
C11B C12B 1_555 1_555

#END
