
#######################################################################
#
#                 Cambridge Crystallographic Data Centre
#                                CCDC 
#
#######################################################################
#
# If this CIF has been generated from an entry in the Cambridge 
# Structural Database, then it will include bibliographic, chemical, 
# crystal, experimental, refinement or atomic coordinate data resulting 
# from the CCDC's data processing and validation procedures.
#
#######################################################################

data_PECXON
_chemical_formula_moiety         'C22 H20 N2'
_chemical_name_systematic        
4,4'-(1,4-phenylenediethene-2,1-diyl)bis(3-methylpyridine)
_symmetry_cell_setting           monoclinic
_symmetry_space_group_name_H-M   'C c'
_symmetry_Int_Tables_number      9
_space_group_name_Hall           'C -2yc'
loop_
_symmetry_equiv_pos_site_id
_symmetry_equiv_pos_as_xyz
1 x,y,z
2 x,-y,1/2+z
3 1/2+x,1/2+y,z
4 1/2+x,1/2-y,1/2+z
_cell_length_a                   11.152(2)
_cell_length_b                   9.6889(19)
_cell_length_c                   30.579(6)
_cell_angle_alpha                90
_cell_angle_beta                 97.11(3)
_cell_angle_gamma                90
_cell_volume                     3278.67
_exptl_crystal_colour            'light yellow'
_exptl_crystal_description       plate
_cell_formula_units_Z            8
loop_
_atom_site_label
_atom_site_type_symbol
_atom_site_fract_x
_atom_site_fract_y
_atom_site_fract_z
N1 N -0.1668(6) 0.6614(8) -0.1602(2)
N2 N 0.8266(7) 0.0869(9) 0.2229(3)
C1 C 0.7965(6) 0.0480(8) 0.1804(2)
H1 H 0.8356 -0.0281 0.1702
C2 C 0.7116(7) 0.1146(9) 0.1515(3)
H2 H 0.6989 0.0867 0.1222
C3 C 0.6439(6) 0.2237(8) 0.1656(2)
C4 C 0.6663(6) 0.2662(9) 0.2117(3)
C5 C 0.7583(8) 0.1905(10) 0.2362(3)
H3 H 0.7747 0.2148 0.2657
C6 C 0.6014(8) 0.3755(9) 0.2300(3)
H4 H 0.5171 0.3523 0.2276
H5 H 0.6113 0.4595 0.2142
H6 H 0.6323 0.3879 0.2605
C7 C 0.5518(7) 0.2932(10) 0.1350(3)
H7 H 0.5295 0.3816 0.1428
C8 C 0.4973(7) 0.2435(9) 0.0976(2)
H8 H 0.5164 0.1529 0.0912
C9 C 0.4106(6) 0.3122(8) 0.0647(2)
C10 C 0.3774(7) 0.4509(8) 0.0672(3)
H9 H 0.4108 0.5043 0.0909
C11 C 0.2953(7) 0.5095(8) 0.0349(3)
H10 H 0.2746 0.6018 0.0376
C12 C 0.2422(8) 0.4351(8) -0.0017(3)
C13 C 0.2758(7) 0.2979(8) -0.0046(2)
H11 H 0.2432 0.2453 -0.0286
C14 C 0.3581(7) 0.2379(8) 0.0281(3)
H12 H 0.3785 0.1455 0.0254
C15 C 0.1554(7) 0.5026(9) -0.0338(3)
H13 H 0.1352 0.5927 -0.0273
C16 C 0.1004(6) 0.4516(10) -0.0717(3)
H14 H 0.1220 0.3627 -0.0792
C17 C 0.0092(6) 0.5222(9) -0.1028(3)
C18 C -0.0585(7) 0.6323(10) -0.0882(3)
H15 H -0.0444 0.6644 -0.0593
C19 C -0.1474(8) 0.6912(11) -0.1185(3)
H16 H -0.1970 0.7575 -0.1081
C20 C -0.1037(7) 0.5557(10) -0.1742(3)
H17 H -0.1199 0.5275 -0.2034
C21 C -0.0150(7) 0.4870(9) -0.1465(2)
C22 C 0.0572(8) 0.3756(10) -0.1675(3)
H18 H 0.0588 0.2927 -0.1502
H19 H 0.1383 0.4074 -0.1685
H20 H 0.0197 0.3570 -0.1969
N3 N -0.1864(7) 1.1219(9) -0.1571(2)
N4 N 0.8462(6) 0.6316(8) 0.2247(2)
C23 C 0.8274(9) 0.5985(11) 0.1814(3)
H21 H 0.8825 0.5405 0.1701
C24 C 0.7306(7) 0.6468(9) 0.1533(2)
H22 H 0.7237 0.6230 0.1236
C25 C 0.6431(6) 0.7301(8) 0.1682(2)
C26 C 0.6590(6) 0.7682(9) 0.2146(2)
C27 C 0.7617(7) 0.7120(9) 0.2391(2)
H23 H 0.7726 0.7332 0.2689
C28 C 0.5741(8) 0.8614(11) 0.2340(3)
H24 H 0.4939 0.8241 0.2288
H25 H 0.5754 0.9509 0.2205
H26 H 0.5981 0.8697 0.2651
C29 C 0.5350(7) 0.7785(9) 0.1394(3)
H27 H 0.4659 0.8006 0.1520
C30 C 0.5331(7) 0.7917(9) 0.0961(3)
H28 H 0.6042 0.7722 0.0843
C31 C 0.4260(6) 0.8355(8) 0.0647(3)
C32 C 0.3169(7) 0.8731(7) 0.0779(3)
H29 H 0.3079 0.8754 0.1077
C33 C 0.2195(6) 0.9079(8) 0.0464(3)
H30 H 0.1459 0.9306 0.0559
C34 C 0.2292(7) 0.9095(8) 0.0015(3)
C35 C 0.3401(7) 0.8729(8) -0.0117(3)
H31 H 0.3496 0.8724 -0.0415
C36 C 0.4365(6) 0.8371(8) 0.0194(3)
H32 H 0.5100 0.8137 0.0099
C37 C 0.1235(6) 0.9508(8) -0.0293(3)
H33 H 0.0534 0.9690 -0.0168
C38 C 0.1155(7) 0.9653(9) -0.0725(3)
H34 H 0.1831 0.9393 -0.0856
C39 C 0.0125(7) 1.0177(9) -0.1024(2)
C40 C -0.0742(7) 1.1007(10) -0.0860(3)
H35 H -0.0658 1.1266 -0.0565
C41 C -0.1725(7) 1.1433(9) -0.1146(3)
H36 H -0.2334 1.1907 -0.1028
C42 C -0.1057(7) 1.0413(10) -0.1730(3)
H37 H -0.1165 1.0179 -0.2027
C43 C -0.0055(7) 0.9914(9) -0.1461(2)
C44 C 0.0791(7) 0.8955(9) -0.1690(3)
H38 H 0.0796 0.8051 -0.1562
H39 H 0.1596 0.9325 -0.1652
H40 H 0.0505 0.8897 -0.1999
loop_
_geom_bond_atom_site_label_1
_geom_bond_atom_site_label_2
_geom_bond_site_symmetry_1
_geom_bond_site_symmetry_2
N1 C19 1_555 1_555
N2 C1 1_555 1_555
C1 H1 1_555 1_555
C2 C1 1_555 1_555
H2 C2 1_555 1_555
C3 C2 1_555 1_555
C4 C3 1_555 1_555
C5 N2 1_555 1_555
H3 C5 1_555 1_555
C6 C4 1_555 1_555
H4 C6 1_555 1_555
H5 C6 1_555 1_555
H6 C6 1_555 1_555
C7 C3 1_555 1_555
H7 C7 1_555 1_555
C8 C7 1_555 1_555
H8 C8 1_555 1_555
C9 C8 1_555 1_555
C10 C9 1_555 1_555
H9 C10 1_555 1_555
C11 C10 1_555 1_555
H10 C11 1_555 1_555
C12 C11 1_555 1_555
C13 C12 1_555 1_555
H11 C13 1_555 1_555
C14 C9 1_555 1_555
H12 C14 1_555 1_555
C15 C12 1_555 1_555
H13 C15 1_555 1_555
C16 C15 1_555 1_555
H14 C16 1_555 1_555
C17 C16 1_555 1_555
C18 C17 1_555 1_555
H15 C18 1_555 1_555
C19 C18 1_555 1_555
H16 C19 1_555 1_555
C20 N1 1_555 1_555
H17 C20 1_555 1_555
C21 C17 1_555 1_555
C22 C21 1_555 1_555
H18 C22 1_555 1_555
H19 C22 1_555 1_555
H20 C22 1_555 1_555
N3 C41 1_555 1_555
N4 C23 1_555 1_555
C23 H21 1_555 1_555
C24 C23 1_555 1_555
H22 C24 1_555 1_555
C25 C24 1_555 1_555
C26 C25 1_555 1_555
C27 N4 1_555 1_555
H23 C27 1_555 1_555
C28 C26 1_555 1_555
H24 C28 1_555 1_555
H25 C28 1_555 1_555
H26 C28 1_555 1_555
C29 C25 1_555 1_555
H27 C29 1_555 1_555
C30 C29 1_555 1_555
H28 C30 1_555 1_555
C31 C30 1_555 1_555
C32 C31 1_555 1_555
H29 C32 1_555 1_555
C33 C32 1_555 1_555
H30 C33 1_555 1_555
C34 C33 1_555 1_555
C35 C34 1_555 1_555
H31 C35 1_555 1_555
C36 C31 1_555 1_555
H32 C36 1_555 1_555
C37 C34 1_555 1_555
H33 C37 1_555 1_555
C38 C37 1_555 1_555
H34 C38 1_555 1_555
C39 C38 1_555 1_555
C40 C39 1_555 1_555
H35 C40 1_555 1_555
C41 C40 1_555 1_555
H36 C41 1_555 1_555
C42 N3 1_555 1_555
H37 C42 1_555 1_555
C43 C39 1_555 1_555
C44 C43 1_555 1_555
H38 C44 1_555 1_555
H39 C44 1_555 1_555
H40 C44 1_555 1_555
C4 C5 1_555 1_555
C13 C14 1_555 1_555
C20 C21 1_555 1_555
C26 C27 1_555 1_555
C35 C36 1_555 1_555
C42 C43 1_555 1_555

#END
