
#######################################################################
#
#                 Cambridge Crystallographic Data Centre
#                                CCDC 
#
#######################################################################
#
# If this CIF has been generated from an entry in the Cambridge 
# Structural Database, then it will include bibliographic, chemical, 
# crystal, experimental, refinement or atomic coordinate data resulting 
# from the CCDC's data processing and validation procedures.
#
#######################################################################

data_PECXEC
_chemical_name_common            
3-(4-Methoxyphenyl)-6,7-dihydro-1H-furo[3,4-c]pyran-4(3H)-one
_chemical_formula_moiety         'C14 H14 O4'
_chemical_name_systematic        
3-(4-Methoxyphenyl)-1,3,6,7-tetrahydro-4H-furo[3,4-c]pyran-4-one
_symmetry_cell_setting           monoclinic
_symmetry_space_group_name_H-M   'P 21/n'
_symmetry_Int_Tables_number      14
_space_group_name_Hall           '-P 2yn'
loop_
_symmetry_equiv_pos_site_id
_symmetry_equiv_pos_as_xyz
1 x,y,z
2 1/2-x,1/2+y,1/2-z
3 -x,-y,-z
4 1/2+x,1/2-y,1/2+z
_cell_length_a                   7.240(3)
_cell_length_b                   8.635(4)
_cell_length_c                   19.545(8)
_cell_angle_alpha                90
_cell_angle_beta                 97.352(6)
_cell_angle_gamma                90
_cell_volume                     1211.86
_exptl_crystal_colour            colorless
_exptl_crystal_description       prism
_cell_formula_units_Z            4
loop_
_atom_site_label
_atom_site_type_symbol
_atom_site_fract_x
_atom_site_fract_y
_atom_site_fract_z
O1 O 0.3995(3) 0.6361(2) 0.04179(10)
O2 O 0.5812(3) 0.8161(3) 0.00885(11)
O3 O 0.9242(3) 0.4487(2) 0.14388(12)
O4 O 0.2905(3) 0.5087(3) 0.33985(12)
C1 C 0.5550(4) 0.6850(3) 0.04378(13)
C2 C 0.7206(3) 0.6116(3) 0.07879(13)
C3 C 0.7270(3) 0.4668(3) 0.12146(15)
H1 H 0.6841 0.3796 0.0915
C4 C 1.0291(4) 0.5583(4) 0.1116(2)
H2 H 1.1033 0.5076 0.0803
H3 H 1.1116 0.6153 0.1457
C5 C 0.8909(4) 0.6629(3) 0.07366(15)
C6 C 0.9218(4) 0.8021(4) 0.03314(19)
H4 H 1.0260 0.8605 0.0563
H5 H 0.9517 0.7719 -0.0120
C7 C 0.7547(6) 0.8987(5) 0.0253(3)
H6 H 0.7502 0.9555 0.0679
H7 H 0.7654 0.9740 -0.0108
C8 C 0.6177(3) 0.4702(3) 0.18107(14)
C9 C 0.4688(4) 0.3726(3) 0.18314(15)
H8 H 0.4417 0.2997 0.1483
C10 C 0.3579(4) 0.3798(3) 0.23563(16)
H9 H 0.2584 0.3119 0.2360
C11 C 0.3952(4) 0.4871(3) 0.28691(15)
C12 C 0.5476(4) 0.5848(3) 0.28669(16)
H10 H 0.5769 0.6556 0.3223
C13 C 0.6550(4) 0.5765(3) 0.23382(15)
H11 H 0.7550 0.6439 0.2335
C14 C 0.1150(5) 0.4338(5) 0.33449(19)
H12 H 0.0466 0.4550 0.2901
H13 H 0.0464 0.4716 0.3699
H14 H 0.1330 0.3241 0.3398
loop_
_geom_bond_atom_site_label_1
_geom_bond_atom_site_label_2
_geom_bond_site_symmetry_1
_geom_bond_site_symmetry_2
O1 C1 1_555 1_555
O2 C1 1_555 1_555
O3 C3 1_555 1_555
O4 C11 1_555 1_555
C1 C2 1_555 1_555
C2 C3 1_555 1_555
C3 H1 1_555 1_555
C4 O3 1_555 1_555
H2 C4 1_555 1_555
H3 C4 1_555 1_555
C5 C2 1_555 1_555
C6 C5 1_555 1_555
H4 C6 1_555 1_555
H5 C6 1_555 1_555
C7 O2 1_555 1_555
H6 C7 1_555 1_555
H7 C7 1_555 1_555
C8 C3 1_555 1_555
C9 C8 1_555 1_555
H8 C9 1_555 1_555
C10 C9 1_555 1_555
H9 C10 1_555 1_555
C11 C10 1_555 1_555
C12 C11 1_555 1_555
H10 C12 1_555 1_555
C13 C8 1_555 1_555
H11 C13 1_555 1_555
C14 O4 1_555 1_555
H12 C14 1_555 1_555
H13 C14 1_555 1_555
H14 C14 1_555 1_555
C4 C5 1_555 1_555
C6 C7 1_555 1_555
C12 C13 1_555 1_555

#END
