
#######################################################################
#
#                 Cambridge Crystallographic Data Centre
#                                CCDC 
#
#######################################################################
#
# If this CIF has been generated from an entry in the Cambridge 
# Structural Database, then it will include bibliographic, chemical, 
# crystal, experimental, refinement or atomic coordinate data resulting 
# from the CCDC's data processing and validation procedures.
#
#######################################################################

data_PECYOO
_chemical_formula_moiety         'C26 H17 Br1 N2 O4,C1 H2 Cl2'
_chemical_name_systematic        
"(2R,3S)-3-(3-bromophenyl)-3'-methyl-1'-phenyl-3H,4H-spiro[furo[3,2-c]chromene-2,4'-pyrazole]-4,5'(1'H)-dione dichloromethane solvate"
_symmetry_cell_setting           monoclinic
_symmetry_space_group_name_H-M   'P 21'
_symmetry_Int_Tables_number      4
_space_group_name_Hall           'P 2yb'
loop_
_symmetry_equiv_pos_site_id
_symmetry_equiv_pos_as_xyz
1 x,y,z
2 -x,1/2+y,-z
_cell_length_a                   8.743(2)
_cell_length_b                   9.675(3)
_cell_length_c                   15.147(4)
_cell_angle_alpha                90
_cell_angle_beta                 94.291(6)
_cell_angle_gamma                90
_cell_volume                     1277.67
_exptl_crystal_colour            colorless
_exptl_crystal_description       prismatic
_chemical_melting_point          '165-166 deg.C'
_cell_formula_units_Z            2
_chemical_properties_physical    ', Heat-sensitive'
_exptl_crystal_recrystallization_method dichloromethane
loop_
_atom_site_label
_atom_site_type_symbol
_atom_site_fract_x
_atom_site_fract_y
_atom_site_fract_z
Br1 Br 0.36240(10) 0.44272(17) 0.19306(8)
N1 N 1.0475(7) 0.6661(7) 0.2320(4)
N2 N 0.9909(7) 0.5445(8) 0.1900(5)
O1 O 0.7806(8) 0.5875(8) 0.5897(4)
O2 O 1.0083(6) 0.5141(6) 0.6445(3)
O3 O 1.1237(5) 0.4297(6) 0.3946(3)
O4 O 1.1433(7) 0.7290(6) 0.3730(4)
C1 C 1.1485(8) 0.4506(11) 0.6352(5)
C2 C 1.2406(9) 0.4291(12) 0.7112(5)
H1 H 1.2076 0.4528 0.7662
C3 C 1.3832(10) 0.3715(11) 0.7041(6)
H2 H 1.4473 0.3566 0.7550
C4 C 1.4326(10) 0.3357(11) 0.6233(7)
H3 H 1.5287 0.2958 0.6200
C5 C 1.3406(9) 0.3586(10) 0.5473(6)
H4 H 1.3743 0.3347 0.4925
C6 C 1.1971(8) 0.4176(9) 0.5527(5)
C7 C 1.0905(7) 0.4520(10) 0.4801(4)
C8 C 0.9555(9) 0.5108(9) 0.4882(5)
C9 C 0.9009(10) 0.5414(9) 0.5732(6)
C10 C 0.8722(8) 0.5337(9) 0.3994(5)
H5 H 0.8398 0.6305 0.3940
C11 C 1.0119(8) 0.5079(8) 0.3408(5)
C12 C 1.0800(9) 0.6494(9) 0.3203(5)
C13 C 0.9773(7) 0.4532(11) 0.2499(5)
C14 C 0.9389(12) 0.3068(11) 0.2289(7)
H6 H 0.9324 0.2939 0.1658
H7 H 0.8421 0.2841 0.2512
H8 H 1.0173 0.2477 0.2559
C15 C 1.0786(10) 0.7837(9) 0.1785(6)
C16 C 1.1873(11) 0.8786(10) 0.2077(6)
H9 H 1.2431 0.8679 0.2620
C17 C 1.2113(15) 0.9906(12) 0.1540(9)
H10 H 1.2823 1.0573 0.1738
C18 C 1.136(2) 1.0067(15) 0.0744(10)
H11 H 1.1569 1.0820 0.0390
C19 C 1.0274(17) 0.9105(17) 0.0454(7)
H12 H 0.9726 0.9221 -0.0091
C20 C 0.9994(12) 0.7963(12) 0.0972(7)
H13 H 0.9284 0.7296 0.0772
C21 C 0.7346(7) 0.4390(10) 0.3762(5)
C22 C 0.6286(8) 0.4755(10) 0.3089(5)
H14 H 0.6389 0.5585 0.2790
C23 C 0.5076(9) 0.3897(10) 0.2857(6)
C24 C 0.4899(10) 0.2658(10) 0.3281(6)
H15 H 0.4086 0.2071 0.3114
C25 C 0.5955(10) 0.2315(10) 0.3955(7)
H16 H 0.5839 0.1490 0.4259
C26 C 0.7174(9) 0.3144(9) 0.4198(6)
H17 H 0.7887 0.2877 0.4652
Cl1 Cl 0.4128(7) 0.2239(10) 0.9397(4)
Cl2 Cl 0.6341(10) 0.1227(9) 1.0666(5)
C27 C 0.582(2) 0.247(2) 0.9966(14)
H18 H 0.6598 0.2576 0.9549
H19 H 0.5776 0.3332 1.0294
loop_
_geom_bond_atom_site_label_1
_geom_bond_atom_site_label_2
_geom_bond_site_symmetry_1
_geom_bond_site_symmetry_2
Br1 C23 1_555 1_555
N1 N2 1_555 1_555
N2 C13 1_555 1_555
O1 C9 1_555 1_555
O2 C1 1_555 1_555
O3 C7 1_555 1_555
O4 C12 1_555 1_555
C1 C2 1_555 1_555
C2 H1 1_555 1_555
C3 C2 1_555 1_555
H2 C3 1_555 1_555
C4 C3 1_555 1_555
H3 C4 1_555 1_555
C5 C4 1_555 1_555
H4 C5 1_555 1_555
C6 C1 1_555 1_555
C7 C6 1_555 1_555
C8 C7 1_555 1_555
C9 O2 1_555 1_555
C10 C8 1_555 1_555
H5 C10 1_555 1_555
C11 O3 1_555 1_555
C12 N1 1_555 1_555
C13 C11 1_555 1_555
C14 C13 1_555 1_555
H6 C14 1_555 1_555
H7 C14 1_555 1_555
H8 C14 1_555 1_555
C15 N1 1_555 1_555
C16 C15 1_555 1_555
H9 C16 1_555 1_555
C17 C16 1_555 1_555
H10 C17 1_555 1_555
C18 C17 1_555 1_555
H11 C18 1_555 1_555
C19 C18 1_555 1_555
H12 C19 1_555 1_555
C20 C15 1_555 1_555
H13 C20 1_555 1_555
C21 C10 1_555 1_555
C22 C21 1_555 1_555
H14 C22 1_555 1_555
C23 C22 1_555 1_555
C24 C23 1_555 1_555
H15 C24 1_555 1_555
C25 C24 1_555 1_555
H16 C25 1_555 1_555
C26 C21 1_555 1_555
H17 C26 1_555 1_555
Cl1 C27 1_555 1_555
Cl2 C27 1_555 1_555
C27 H18 1_555 1_555
H19 C27 1_555 1_555
C5 C6 1_555 1_555
C8 C9 1_555 1_555
C10 C11 1_555 1_555
C11 C12 1_555 1_555
C19 C20 1_555 1_555
C25 C26 1_555 1_555

#END
