
#######################################################################
#
#                 Cambridge Crystallographic Data Centre
#                                CCDC 
#
#######################################################################
#
# If this CIF has been generated from an entry in the Cambridge 
# Structural Database, then it will include bibliographic, chemical, 
# crystal, experimental, refinement or atomic coordinate data resulting 
# from the CCDC's data processing and validation procedures.
#
#######################################################################

data_PECZON
_chemical_formula_moiety         'C27 H35 N1 O17 S1'
_chemical_name_systematic        
2,3,6-Tri-O-acetyl-4-O-(2,3,4,6-tetra-O-acetylhexopyranosyl)-N-(thioxomethylene)hexopyranosylamine
_symmetry_cell_setting           orthorhombic
_symmetry_space_group_name_H-M   'P 21 21 21'
_symmetry_Int_Tables_number      19
_space_group_name_Hall           'P 2ac 2ab'
loop_
_symmetry_equiv_pos_site_id
_symmetry_equiv_pos_as_xyz
1 x,y,z
2 1/2-x,-y,1/2+z
3 -x,1/2+y,1/2-z
4 1/2+x,1/2-y,-z
_cell_length_a                   12.3282(7)
_cell_length_b                   18.0012(10)
_cell_length_c                   18.5230(10)
_cell_angle_alpha                90
_cell_angle_beta                 90
_cell_angle_gamma                90
_cell_volume                     4110.67
_exptl_crystal_colour            colorless
_exptl_crystal_description       block
_cell_formula_units_Z            4
_exptl_crystal_recrystallization_method 'ethyl acetate/petroleum ether'
loop_
_atom_site_label
_atom_site_type_symbol
_atom_site_fract_x
_atom_site_fract_y
_atom_site_fract_z
S1 S 0.3139(7) 0.8799(6) 0.6271(10)
O1 O 0.6003(3) 0.8902(3) 0.7773(3)
O2 O 0.6853(5) 0.8128(3) 0.6069(3)
O3 O 0.6029(19) 0.7049(7) 0.6018(8)
O4 O 0.8387(4) 0.7529(2) 0.7039(2)
O5 O 0.9678(7) 0.8044(4) 0.6367(4)
O6 O 0.6342(5) 0.9756(3) 0.9079(3)
O7 O 0.5548(8) 0.9344(4) 1.0021(4)
O8 O 0.8856(3) 0.85520(17) 0.82182(18)
O9 O 0.9919(3) 0.75462(19) 0.83966(19)
O10 O 1.0204(3) 0.5944(2) 0.8245(2)
O11 O 0.9659(7) 0.4784(5) 0.7836(5)
O12 O 1.2095(3) 0.7801(2) 0.8860(2)
O13 O 1.3393(4) 0.7596(4) 0.9678(3)
O14 O 1.1480(3) 0.8634(2) 1.0044(2)
O15 O 1.1512(5) 0.7892(3) 1.1007(3)
O16 O 0.9415(3) 0.9107(2) 0.9595(2)
O17 O 1.0236(13) 1.0083(4) 0.9031(6)
N1 N 0.5049(7) 0.8884(6) 0.6744(5)
C1 C 0.6101(6) 0.8877(4) 0.7022(4)
H1 H 0.6496 0.9317 0.6852
C2 C 0.6735(6) 0.8175(4) 0.6823(3)
H2 H 0.6354 0.7735 0.7004
C3 C 0.7855(5) 0.8219(3) 0.7155(3)
H3 H 0.8268 0.8619 0.6924
C4 C 0.7802(4) 0.8355(3) 0.7962(3)
H4 H 0.7554 0.7903 0.8207
C5 C 0.7021(4) 0.9003(3) 0.8137(3)
H5 H 0.7349 0.9472 0.7980
C6 C 0.4263(10) 0.8824(8) 0.6539(8)
C7 C 0.6378(17) 0.7543(7) 0.5722(7)
C8 C 0.6835(18) 0.7529(9) 0.4935(7)
H6 H 0.6518 0.7123 0.4674
H7 H 0.7608 0.7470 0.4950
H8 H 0.6659 0.7988 0.4697
C9 C 0.9274(9) 0.7511(5) 0.6637(4)
C10 C 0.9728(12) 0.6725(5) 0.6584(5)
H9 H 1.0367 0.6727 0.6287
H10 H 0.9194 0.6403 0.6373
H11 H 0.9910 0.6548 0.7058
C11 C 0.6786(5) 0.9041(3) 0.8916(3)
H12 H 0.6272 0.8656 0.9048
H13 H 0.7447 0.8963 0.9190
C12 C 0.5743(8) 0.9832(5) 0.9645(4)
C13 C 0.5318(14) 1.0614(6) 0.9755(7)
H14 H 0.4885 1.0631 1.0186
H15 H 0.4882 1.0756 0.9348
H16 H 0.5917 1.0952 0.9801
C14 C 0.9321(4) 0.8110(2) 0.8738(3)
H17 H 0.8761 0.7894 0.9049
C15 C 1.0475(4) 0.7069(3) 0.8899(3)
H18 H 0.9941 0.6846 0.9225
C16 C 1.1278(4) 0.7508(3) 0.9340(3)
H19 H 1.1618 0.7183 0.9699
C17 C 1.0716(4) 0.8139(3) 0.9711(3)
H20 H 1.0224 0.7941 1.0080
C18 C 1.0075(4) 0.8596(3) 0.9173(3)
H21 H 1.0565 0.8871 0.8854
C19 C 1.1023(5) 0.6458(3) 0.8476(4)
H22 H 1.1395 0.6665 0.8061
H23 H 1.1553 0.6207 0.8776
C20 C 1.0541(7) 0.5250(3) 0.8069(4)
C21 C 1.1469(5) 0.5094(3) 0.8082(5)
H24 H 1.1880 0.5511 0.8254
H25 H 1.1705 0.4966 0.7604
H26 H 1.1577 0.4678 0.8398
C22 C 1.3117(5) 0.7818(5) 0.9098(5)
C23 C 1.3837(7) 0.8170(7) 0.8539(6)
H27 H 1.4570 0.8181 0.8712
H28 H 1.3595 0.8669 0.8447
H29 H 1.3804 0.7887 0.8100
C24 C 1.1801(6) 0.8429(4) 1.0719(4)
C25 C 1.2628(7) 0.8977(5) 1.1008(5)
H30 H 1.2852 0.8826 1.1482
H31 H 1.2309 0.9463 1.1032
H32 H 1.3246 0.8988 1.0693
C26 C 0.9607(11) 0.9850(5) 0.9461(6)
C27 C 0.8801(10) 1.0291(6) 0.9915(7)
H33 H 0.8914 1.0813 0.9839
H34 H 0.8907 1.0177 1.0417
H35 H 0.8075 1.0162 0.9777
loop_
_geom_bond_atom_site_label_1
_geom_bond_atom_site_label_2
_geom_bond_site_symmetry_1
_geom_bond_site_symmetry_2
S1 C6 1_555 1_555
O1 C1 1_555 1_555
O2 C2 1_555 1_555
O3 C7 1_555 1_555
O4 C3 1_555 1_555
O5 C9 1_555 1_555
O6 C11 1_555 1_555
O7 C12 1_555 1_555
O8 C4 1_555 1_555
O9 C14 1_555 1_555
O10 C19 1_555 1_555
O11 C20 1_555 1_555
O12 C16 1_555 1_555
O13 C22 1_555 1_555
O14 C17 1_555 1_555
O15 C24 1_555 1_555
O16 C18 1_555 1_555
O17 C26 1_555 1_555
N1 C1 1_555 1_555
C1 H1 1_555 1_555
C2 C1 1_555 1_555
H2 C2 1_555 1_555
C3 C2 1_555 1_555
H3 C3 1_555 1_555
C4 C3 1_555 1_555
H4 C4 1_555 1_555
C5 O1 1_555 1_555
H5 C5 1_555 1_555
C6 N1 1_555 1_555
C7 O2 1_555 1_555
C8 C7 1_555 1_555
H6 C8 1_555 1_555
H7 C8 1_555 1_555
H8 C8 1_555 1_555
C9 O4 1_555 1_555
C10 C9 1_555 1_555
H9 C10 1_555 1_555
H10 C10 1_555 1_555
H11 C10 1_555 1_555
C11 C5 1_555 1_555
H12 C11 1_555 1_555
H13 C11 1_555 1_555
C12 O6 1_555 1_555
C13 C12 1_555 1_555
H14 C13 1_555 1_555
H15 C13 1_555 1_555
H16 C13 1_555 1_555
C14 O8 1_555 1_555
H17 C14 1_555 1_555
C15 O9 1_555 1_555
H18 C15 1_555 1_555
C16 C15 1_555 1_555
H19 C16 1_555 1_555
C17 C16 1_555 1_555
H20 C17 1_555 1_555
C18 C14 1_555 1_555
H21 C18 1_555 1_555
C19 C15 1_555 1_555
H22 C19 1_555 1_555
H23 C19 1_555 1_555
C20 O10 1_555 1_555
C21 C20 1_555 1_555
H24 C21 1_555 1_555
H25 C21 1_555 1_555
H26 C21 1_555 1_555
C22 O12 1_555 1_555
C23 C22 1_555 1_555
H27 C23 1_555 1_555
H28 C23 1_555 1_555
H29 C23 1_555 1_555
C24 O14 1_555 1_555
C25 C24 1_555 1_555
H30 C25 1_555 1_555
H31 C25 1_555 1_555
H32 C25 1_555 1_555
C26 O16 1_555 1_555
C27 C26 1_555 1_555
H33 C27 1_555 1_555
H34 C27 1_555 1_555
H35 C27 1_555 1_555
C4 C5 1_555 1_555
C17 C18 1_555 1_555

#END
