
#######################################################################
#
#                 Cambridge Crystallographic Data Centre
#                                CCDC 
#
#######################################################################
#
# If this CIF has been generated from an entry in the Cambridge 
# Structural Database, then it will include bibliographic, chemical, 
# crystal, experimental, refinement or atomic coordinate data resulting 
# from the CCDC's data processing and validation procedures.
#
#######################################################################

data_PEDDAG
_chemical_formula_moiety         'C18 H22 B10 N2'
_chemical_name_systematic        
1-((2,2'-bipyridin)-4-yl)-2-phenyl-1,2-dicarba-closo-dodecaborane(10)
_symmetry_cell_setting           orthorhombic
_symmetry_space_group_name_H-M   'P b c a'
_symmetry_Int_Tables_number      61
_space_group_name_Hall           '-P 2ac 2ab'
loop_
_symmetry_equiv_pos_site_id
_symmetry_equiv_pos_as_xyz
1 x,y,z
2 1/2-x,-y,1/2+z
3 -x,1/2+y,1/2-z
4 1/2+x,1/2-y,-z
5 -x,-y,-z
6 1/2+x,y,1/2-z
7 x,1/2-y,1/2+z
8 1/2-x,1/2+y,z
_cell_length_a                   12.0727(15)
_cell_length_b                   12.5640(16)
_cell_length_c                   26.304(3)
_cell_angle_alpha                90
_cell_angle_beta                 90
_cell_angle_gamma                90
_cell_volume                     3989.83
_exptl_crystal_description       block
_cell_formula_units_Z            8
loop_
_atom_site_label
_atom_site_type_symbol
_atom_site_fract_x
_atom_site_fract_y
_atom_site_fract_z
B1 B 0.50313(13) 0.25610(13) 0.30876(6)
H1 H 0.5835 0.2964 0.3129
B2 B 0.30099(13) 0.19204(12) 0.35668(6)
H2 H 0.2512 0.1910 0.3917
B3 B 0.36758(13) 0.07596(13) 0.33330(6)
H3 H 0.3601 -0.0011 0.3528
B4 B 0.49337(13) 0.11611(13) 0.30305(6)
H4 H 0.5675 0.0652 0.3027
B5 B 0.45853(13) 0.19917(13) 0.25107(6)
H5 H 0.5100 0.2020 0.2166
B6 B 0.39106(13) 0.31467(13) 0.27486(6)
H6 H 0.3989 0.3927 0.2562
B7 B 0.26562(13) 0.27462(13) 0.30477(6)
H7 H 0.1921 0.3263 0.3056
B8 B 0.25512(13) 0.13377(13) 0.29946(6)
H8 H 0.1744 0.0937 0.2965
B9 B 0.37398(13) 0.08672(13) 0.26590(6)
H9 H 0.3702 0.0163 0.2411
B10 B 0.31114(13) 0.20974(13) 0.24831(6)
H10 H 0.2669 0.2190 0.2120
C1 C 0.44380(11) 0.17937(10) 0.35572(5)
C2 C 0.38364(11) 0.29842(11) 0.33934(5)
C3 C 0.50073(12) 0.14793(11) 0.49676(5)
C4 C 0.44471(12) 0.14903(11) 0.45040(5)
H11 H 0.3693 0.1340 0.4491
C5 C 0.50252(11) 0.17278(11) 0.40632(5)
C6 C 0.61634(12) 0.18838(12) 0.41006(5)
H12 H 0.6587 0.2017 0.3812
C7 C 0.66513(13) 0.18358(12) 0.45768(6)
H13 H 0.7414 0.1934 0.4597
C8 C 0.43867(12) 0.12859(11) 0.54491(5)
C9 C 0.48719(14) 0.14803(12) 0.59207(5)
H14 H 0.5598 0.1723 0.5943
C10 C 0.42518(15) 0.13045(13) 0.63548(6)
H15 H 0.4557 0.1425 0.6674
C11 C 0.31720(15) 0.09476(12) 0.63090(6)
H16 H 0.2736 0.0826 0.6595
C12 C 0.27611(14) 0.07779(13) 0.58255(6)
H17 H 0.2038 0.0532 0.5795
C13 C 0.39707(11) 0.39071(11) 0.37534(5)
C14 C 0.33140(12) 0.40045(12) 0.41857(5)
H18 H 0.2781 0.3492 0.4258
C15 C 0.34550(14) 0.48691(13) 0.45091(6)
H19 H 0.3016 0.4931 0.4798
C16 C 0.42402(14) 0.56364(13) 0.44052(6)
H20 H 0.4339 0.6206 0.4626
C17 C 0.48801(14) 0.55553(13) 0.39708(6)
H21 H 0.5402 0.6077 0.3897
C18 C 0.47449(12) 0.46945(12) 0.36445(6)
H22 H 0.5174 0.4645 0.3352
N1 N 0.61022(10) 0.16582(10) 0.50081(5)
N2 N 0.33392(11) 0.09446(11) 0.53996(5)
loop_
_geom_bond_atom_site_label_1
_geom_bond_atom_site_label_2
_geom_bond_site_symmetry_1
_geom_bond_site_symmetry_2
B1 H1 1_555 1_555
B2 H2 1_555 1_555
B3 B2 1_555 1_555
H3 B3 1_555 1_555
B4 B1 1_555 1_555
H4 B4 1_555 1_555
B5 B1 1_555 1_555
H5 B5 1_555 1_555
B6 B1 1_555 1_555
H6 B6 1_555 1_555
B7 B2 1_555 1_555
H7 B7 1_555 1_555
B8 B2 1_555 1_555
H8 B8 1_555 1_555
B9 B3 1_555 1_555
H9 B9 1_555 1_555
B10 B5 1_555 1_555
H10 B10 1_555 1_555
C1 B1 1_555 1_555
C2 B1 1_555 1_555
C3 C4 1_555 1_555
C4 H11 1_555 1_555
C5 C1 1_555 1_555
C6 C5 1_555 1_555
H12 C6 1_555 1_555
C7 C6 1_555 1_555
H13 C7 1_555 1_555
C8 C3 1_555 1_555
C9 C8 1_555 1_555
H14 C9 1_555 1_555
C10 C9 1_555 1_555
H15 C10 1_555 1_555
C11 C10 1_555 1_555
H16 C11 1_555 1_555
C12 C11 1_555 1_555
H17 C12 1_555 1_555
C13 C2 1_555 1_555
C14 C13 1_555 1_555
H18 C14 1_555 1_555
C15 C14 1_555 1_555
H19 C15 1_555 1_555
C16 C15 1_555 1_555
H20 C16 1_555 1_555
C17 C16 1_555 1_555
H21 C17 1_555 1_555
C18 C13 1_555 1_555
H22 C18 1_555 1_555
N1 C3 1_555 1_555
N2 C8 1_555 1_555
B2 C1 1_555 1_555
B2 C2 1_555 1_555
B3 B4 1_555 1_555
B3 B8 1_555 1_555
B3 C1 1_555 1_555
B4 B5 1_555 1_555
B4 B9 1_555 1_555
B4 C1 1_555 1_555
B5 B6 1_555 1_555
B5 B9 1_555 1_555
B6 B7 1_555 1_555
B6 B10 1_555 1_555
B6 C2 1_555 1_555
B7 B8 1_555 1_555
B7 B10 1_555 1_555
B7 C2 1_555 1_555
B8 B9 1_555 1_555
B8 B10 1_555 1_555
B9 B10 1_555 1_555
C1 C2 1_555 1_555
C4 C5 1_555 1_555
C7 N1 1_555 1_555
C12 N2 1_555 1_555
C17 C18 1_555 1_555

#END
