
#######################################################################
#
#                 Cambridge Crystallographic Data Centre
#                                CCDC 
#
#######################################################################
#
# If this CIF has been generated from an entry in the Cambridge 
# Structural Database, then it will include bibliographic, chemical, 
# crystal, experimental, refinement or atomic coordinate data resulting 
# from the CCDC's data processing and validation procedures.
#
#######################################################################

data_PEDDIM01
_chemical_formula_moiety         'C12 H10 N2 O1'
_chemical_name_systematic        N-Phenylisonicotinamide
_symmetry_cell_setting           triclinic
_symmetry_space_group_name_H-M   'P -1'
_symmetry_Int_Tables_number      2
_space_group_name_Hall           '-P 1'
loop_
_symmetry_equiv_pos_site_id
_symmetry_equiv_pos_as_xyz
1 x,y,z
2 -x,-y,-z
_cell_length_a                   5.3406(3)
_cell_length_b                   7.6571(6)
_cell_length_c                   12.1562(9)
_cell_angle_alpha                73.931(3)
_cell_angle_beta                 79.394(4)
_cell_angle_gamma                89.874(4)
_cell_volume                     468.901
_exptl_crystal_colour            colorless
_exptl_crystal_description       plate
_cell_formula_units_Z            2
loop_
_atom_site_label
_atom_site_type_symbol
_atom_site_fract_x
_atom_site_fract_y
_atom_site_fract_z
O1 O 0.3771(2) 0.24164(17) 0.00346(9)
N1 N 0.5888(2) 0.22917(18) 0.39062(11)
N2 N 0.8133(2) 0.24889(17) -0.03719(11)
C1 C 0.4039(3) 0.1456(2) 0.35966(14)
C2 C 0.3975(3) 0.1478(2) 0.24604(13)
C3 C 0.5968(3) 0.2371(2) 0.15788(12)
C4 C 0.7933(3) 0.3217(2) 0.18803(13)
C5 C 0.7785(3) 0.3161(2) 0.30422(13)
C6 C 0.5839(3) 0.2425(2) 0.03455(13)
C7 C 0.8541(3) 0.2572(2) -0.15757(12)
C8 C 0.6892(3) 0.3420(2) -0.23023(13)
C9 C 0.7449(3) 0.3513(2) -0.34797(13)
C10 C 0.9638(3) 0.2782(2) -0.39408(13)
C11 C 1.1287(3) 0.1952(2) -0.32176(14)
C12 C 1.0746(3) 0.1842(2) -0.20367(13)
H1 H 0.264(4) 0.079(3) 0.4237(16)
H2 H 0.258(3) 0.086(2) 0.2275(14)
H3 H 0.950(4) 0.237(2) -0.0022(15)
H4 H 0.940(3) 0.389(2) 0.1284(15)
H5 H 0.916(3) 0.376(2) 0.3264(15)
H6 H 0.540(3) 0.394(2) -0.1973(14)
H7 H 0.627(3) 0.411(2) -0.3991(14)
H8 H 1.003(3) 0.285(2) -0.4786(15)
H9 H 1.286(3) 0.148(2) -0.3536(15)
H10 H 1.192(3) 0.130(2) -0.1532(14)
loop_
_geom_bond_atom_site_label_1
_geom_bond_atom_site_label_2
_geom_bond_site_symmetry_1
_geom_bond_site_symmetry_2
O1 C6 1_555 1_555
N1 C1 1_555 1_555
N2 C6 1_555 1_555
C1 C2 1_555 1_555
C2 C3 1_555 1_555
C3 C4 1_555 1_555
C4 C5 1_555 1_555
C5 N1 1_555 1_555
C6 C3 1_555 1_555
C7 N2 1_555 1_555
C8 C7 1_555 1_555
C9 C8 1_555 1_555
C10 C9 1_555 1_555
C11 C10 1_555 1_555
C12 C7 1_555 1_555
H1 C1 1_555 1_555
H2 C2 1_555 1_555
H3 N2 1_555 1_555
H4 C4 1_555 1_555
H5 C5 1_555 1_555
H6 C8 1_555 1_555
H7 C9 1_555 1_555
H8 C10 1_555 1_555
H9 C11 1_555 1_555
H10 C12 1_555 1_555
C11 C12 1_555 1_555

#END
