
#######################################################################
#
#                 Cambridge Crystallographic Data Centre
#                                CCDC 
#
#######################################################################
#
# If this CIF has been generated from an entry in the Cambridge 
# Structural Database, then it will include bibliographic, chemical, 
# crystal, experimental, refinement or atomic coordinate data resulting 
# from the CCDC's data processing and validation procedures.
#
#######################################################################

data_PEDDIN
_chemical_formula_moiety         'C13 H21 Cl1 O2'
_chemical_name_systematic        
(E)-4-(2-Chloro-1-hydroxy-2,6,6-trimethylcyclohexyl)but-3-en-2-one
_symmetry_cell_setting           monoclinic
_symmetry_space_group_name_H-M   'P 21/n'
_symmetry_Int_Tables_number      14
_space_group_name_Hall           '-P 2yn'
loop_
_symmetry_equiv_pos_site_id
_symmetry_equiv_pos_as_xyz
1 x,y,z
2 1/2-x,1/2+y,1/2-z
3 -x,-y,-z
4 1/2+x,1/2-y,1/2+z
_cell_length_a                   6.2660(10)
_cell_length_b                   8.586(2)
_cell_length_c                   24.868(5)
_cell_angle_alpha                90
_cell_angle_beta                 92.24(3)
_cell_angle_gamma                90
_cell_volume                     1336.87
_exptl_crystal_colour            colorless
_exptl_crystal_description       cube
_cell_formula_units_Z            4
loop_
_atom_site_label
_atom_site_type_symbol
_atom_site_fract_x
_atom_site_fract_y
_atom_site_fract_z
Cl1 Cl 0.73792(16) 0.51609(11) 0.14841(4)
O1 O 1.1529(3) 0.2036(2) 0.09894(8)
H1 H 1.1530 0.1117 0.0899
C1 C 0.8845(5) 0.1320(3) 0.16368(12)
O2 O 0.6807(4) 0.0827(3) -0.05952(10)
C2 C 1.0445(5) 0.1541(4) 0.21162(13)
H2 H 1.0002 0.0904 0.2414
H3 H 1.1839 0.1177 0.2015
C3 C 1.0635(6) 0.3233(4) 0.23029(15)
H4 H 0.9271 0.3583 0.2430
H5 H 1.1681 0.3306 0.2600
C4 C 1.1304(6) 0.4266(4) 0.18449(15)
H6 H 1.1366 0.5335 0.1972
H7 H 1.2733 0.3972 0.1748
C5 C 0.9854(5) 0.4199(3) 0.13459(13)
C6 C 0.9465(5) 0.2448(3) 0.11647(11)
C7 C 0.8980(6) -0.0372(4) 0.14485(15)
H8 H 1.0381 -0.0573 0.1321
H9 H 0.7935 -0.0550 0.1162
H10 H 0.8710 -0.1056 0.1744
C8 C 0.6432(4) 0.1588(3) 0.18449(11)
H11 H 0.6166 0.0868 0.2130
H12 H 0.5415 0.1418 0.1552
H13 H 0.6298 0.2635 0.1975
C9 C 1.0807(6) 0.5136(4) 0.08881(15)
H14 H 1.2142 0.4680 0.0795
H15 H 1.1039 0.6192 0.1003
H16 H 0.9836 0.5122 0.0580
C10 C 0.7826(5) 0.2374(3) 0.07141(12)
H17 H 0.6470 0.2752 0.0781
C11 C 0.8145(5) 0.1811(4) 0.02232(12)
H18 H 0.9515 0.1480 0.0148
C12 C 0.6479(5) 0.1680(3) -0.02048(12)
C13 C 0.4476(5) 0.2548(4) -0.01817(13)
H19 H 0.3583 0.2309 -0.0493
H20 H 0.4775 0.3645 -0.0174
H21 H 0.3755 0.2260 0.0137
loop_
_geom_bond_atom_site_label_1
_geom_bond_atom_site_label_2
_geom_bond_site_symmetry_1
_geom_bond_site_symmetry_2
Cl1 C5 1_555 1_555
O1 H1 1_555 1_555
C1 C2 1_555 1_555
O2 C12 1_555 1_555
C2 H2 1_555 1_555
H3 C2 1_555 1_555
C3 C2 1_555 1_555
H4 C3 1_555 1_555
H5 C3 1_555 1_555
C4 C3 1_555 1_555
H6 C4 1_555 1_555
H7 C4 1_555 1_555
C5 C4 1_555 1_555
C6 O1 1_555 1_555
C7 C1 1_555 1_555
H8 C7 1_555 1_555
H9 C7 1_555 1_555
H10 C7 1_555 1_555
C8 C1 1_555 1_555
H11 C8 1_555 1_555
H12 C8 1_555 1_555
H13 C8 1_555 1_555
C9 C5 1_555 1_555
H14 C9 1_555 1_555
H15 C9 1_555 1_555
H16 C9 1_555 1_555
C10 C6 1_555 1_555
H17 C10 1_555 1_555
C11 C10 1_555 1_555
H18 C11 1_555 1_555
C12 C11 1_555 1_555
C13 C12 1_555 1_555
H19 C13 1_555 1_555
H20 C13 1_555 1_555
H21 C13 1_555 1_555
C1 C6 1_555 1_555
C5 C6 1_555 1_555

#END
