
#######################################################################
#
#                 Cambridge Crystallographic Data Centre
#                                CCDC 
#
#######################################################################
#
# If this CIF has been generated from an entry in the Cambridge 
# Structural Database, then it will include bibliographic, chemical, 
# crystal, experimental, refinement or atomic coordinate data resulting 
# from the CCDC's data processing and validation procedures.
#
#######################################################################

data_PEDFIQ
_chemical_formula_moiety         'C14 H28 B20 N2'
_chemical_name_systematic        
5,5'-bis(1,2-dicarba-closo-dodecaboran(11)-1-yl)-2,2'-bipyridine
_symmetry_cell_setting           monoclinic
_symmetry_space_group_name_H-M   'C 2/c'
_symmetry_Int_Tables_number      15
_space_group_name_Hall           '-C 2yn'
loop_
_symmetry_equiv_pos_site_id
_symmetry_equiv_pos_as_xyz
1 x,y,z
2 -x,y,1/2-z
3 1/2+x,1/2+y,z
4 1/2-x,1/2+y,1/2-z
5 -x,-y,-z
6 x,-y,1/2+z
7 1/2-x,1/2-y,-z
8 1/2+x,1/2-y,1/2+z
_cell_length_a                   30.853(15)
_cell_length_b                   6.836(3)
_cell_length_c                   12.622(6)
_cell_angle_alpha                90
_cell_angle_beta                 106.229(9)
_cell_angle_gamma                90
_cell_volume                     2556.04
_exptl_crystal_colour            white
_exptl_crystal_description       block
_cell_formula_units_Z            4
loop_
_atom_site_label
_atom_site_type_symbol
_atom_site_fract_x
_atom_site_fract_y
_atom_site_fract_z
C1 C 0.48383(11) 0.0358(5) 0.0285(3)
C2 C 0.38666(11) 0.2233(5) 0.1878(3)
C3 C 0.42198(11) 0.1627(5) 0.1328(3)
N1 N 0.46975(12) -0.0889(5) 0.0939(3)
C4 C 0.46816(13) 0.2233(6) 0.0148(3)
H1 H 0.4785 0.3082 -0.0304
C5 C 0.43785(14) 0.2872(6) 0.0659(4)
H2 H 0.4276 0.4156 0.0560
C6 C 0.43939(15) -0.0264(5) 0.1459(4)
H3 H 0.4299 -0.1127 0.1918
B1 B 0.37113(16) 0.4626(6) 0.1889(4)
H4 H 0.3870 0.5823 0.1550
C7 C 0.37993(15) 0.0994(6) 0.2991(4)
B2 B 0.32219(15) 0.0956(7) 0.2877(4)
H5 H 0.3060 -0.0255 0.3198
B3 B 0.34106(13) 0.0733(6) 0.1717(3)
H6 H 0.3376 -0.0657 0.1262
B4 B 0.33583(12) 0.2934(6) 0.1062(4)
H7 H 0.3286 0.3004 0.0158
B5 B 0.39974(15) 0.3406(6) 0.3105(4)
H8 H 0.4344 0.3790 0.3571
B6 B 0.31391(16) 0.4648(7) 0.1770(4)
H9 H 0.2922 0.5861 0.1362
B7 B 0.35853(16) 0.2639(7) 0.3747(4)
H10 H 0.3661 0.2527 0.4649
B8 B 0.29389(15) 0.2189(7) 0.1643(4)
H11 H 0.2595 0.1795 0.1158
B9 B 0.35342(18) 0.4939(7) 0.3069(4)
H12 H 0.3576 0.6333 0.3523
B10 B 0.30547(17) 0.3425(7) 0.2931(4)
H13 H 0.2783 0.3840 0.3296
H14 H 0.4028(12) -0.034(4) 0.331(3)
C1D C 0.51617(11) -0.0358(5) -0.0285(3)
C2D C 0.61334(11) -0.2233(5) -0.1878(3)
C3D C 0.57802(11) -0.1627(5) -0.1328(3)
N1D N 0.53025(12) 0.0889(5) -0.0939(3)
C4D C 0.53184(13) -0.2233(6) -0.0148(3)
H1D H 0.5215 -0.3082 0.0304
C5D C 0.56215(14) -0.2872(6) -0.0659(4)
H2D H 0.5724 -0.4156 -0.0560
C6D C 0.56061(15) 0.0264(5) -0.1459(4)
H3D H 0.5701 0.1127 -0.1918
B1D B 0.62887(16) -0.4626(6) -0.1889(4)
H4D H 0.6130 -0.5823 -0.1550
C7D C 0.62007(15) -0.0994(6) -0.2991(4)
B2D B 0.67781(15) -0.0956(7) -0.2877(4)
H5D H 0.6940 0.0255 -0.3198
B3D B 0.65894(13) -0.0733(6) -0.1717(3)
H6D H 0.6624 0.0657 -0.1262
B4D B 0.66417(12) -0.2934(6) -0.1062(4)
H7D H 0.6714 -0.3004 -0.0158
B5D B 0.60026(15) -0.3406(6) -0.3105(4)
H8D H 0.5656 -0.3790 -0.3571
B6D B 0.68609(16) -0.4648(7) -0.1770(4)
H9D H 0.7078 -0.5861 -0.1362
B7D B 0.64147(16) -0.2639(7) -0.3747(4)
H10D H 0.6339 -0.2527 -0.4649
B8D B 0.70611(15) -0.2189(7) -0.1643(4)
H11D H 0.7405 -0.1795 -0.1158
B9D B 0.64658(18) -0.4939(7) -0.3069(4)
H12D H 0.6424 -0.6333 -0.3523
B10D B 0.69453(17) -0.3425(7) -0.2931(4)
H13D H 0.7217 -0.3840 -0.3296
H14D H 0.5972(12) 0.034(4) -0.331(3)
loop_
_geom_bond_atom_site_label_1
_geom_bond_atom_site_label_2
_geom_bond_site_symmetry_1
_geom_bond_site_symmetry_2
C1 N1 1_555 1_555
C2 C3 1_555 1_555
C3 C5 1_555 1_555
N1 C6 1_555 1_555
C4 C1 1_555 1_555
H1 C4 1_555 1_555
C5 C4 1_555 1_555
H2 C5 1_555 1_555
C6 C3 1_555 1_555
H3 C6 1_555 1_555
B1 C2 1_555 1_555
H4 B1 1_555 1_555
C7 C2 1_555 1_555
B2 C7 1_555 1_555
H5 B2 1_555 1_555
B3 C2 1_555 1_555
H6 B3 1_555 1_555
B4 C2 1_555 1_555
H7 B4 1_555 1_555
B5 C2 1_555 1_555
H8 B5 1_555 1_555
B6 B1 1_555 1_555
H9 B6 1_555 1_555
B7 C7 1_555 1_555
H10 B7 1_555 1_555
B8 B2 1_555 1_555
H11 B8 1_555 1_555
B9 B1 1_555 1_555
H12 B9 1_555 1_555
B10 B2 1_555 1_555
H13 B10 1_555 1_555
H14 C7 1_555 1_555
C1D C1 1_555 1_555
C2D C3D 1_555 1_555
C3D C5D 1_555 1_555
N1D C1D 1_555 1_555
C4D C1D 1_555 1_555
H1D C4D 1_555 1_555
C5D C4D 1_555 1_555
H2D C5D 1_555 1_555
C6D C3D 1_555 1_555
H3D C6D 1_555 1_555
B1D C2D 1_555 1_555
H4D B1D 1_555 1_555
C7D C2D 1_555 1_555
B2D C7D 1_555 1_555
H5D B2D 1_555 1_555
B3D C2D 1_555 1_555
H6D B3D 1_555 1_555
B4D C2D 1_555 1_555
H7D B4D 1_555 1_555
B5D C2D 1_555 1_555
H8D B5D 1_555 1_555
B6D B1D 1_555 1_555
H9D B6D 1_555 1_555
B7D C7D 1_555 1_555
H10D B7D 1_555 1_555
B8D B2D 1_555 1_555
H11D B8D 1_555 1_555
B9D B1D 1_555 1_555
H12D B9D 1_555 1_555
B10D B2D 1_555 1_555
H13D B10D 1_555 1_555
H14D C7D 1_555 1_555
B1 B4 1_555 1_555
B1 B5 1_555 1_555
C7 B3 1_555 1_555
C7 B5 1_555 1_555
B2 B3 1_555 1_555
B2 B7 1_555 1_555
B3 B4 1_555 1_555
B3 B8 1_555 1_555
B4 B6 1_555 1_555
B4 B8 1_555 1_555
B5 B7 1_555 1_555
B5 B9 1_555 1_555
B6 B8 1_555 1_555
B6 B9 1_555 1_555
B6 B10 1_555 1_555
B7 B9 1_555 1_555
B7 B10 1_555 1_555
B8 B10 1_555 1_555
B9 B10 1_555 1_555
N1D C6D 1_555 1_555
B1D B4D 1_555 1_555
B1D B5D 1_555 1_555
C7D B3D 1_555 1_555
C7D B5D 1_555 1_555
B2D B3D 1_555 1_555
B2D B7D 1_555 1_555
B3D B4D 1_555 1_555
B3D B8D 1_555 1_555
B4D B6D 1_555 1_555
B4D B8D 1_555 1_555
B5D B7D 1_555 1_555
B5D B9D 1_555 1_555
B6D B8D 1_555 1_555
B6D B9D 1_555 1_555
B6D B10D 1_555 1_555
B7D B9D 1_555 1_555
B7D B10D 1_555 1_555
B8D B10D 1_555 1_555
B9D B10D 1_555 1_555

#END
