
#######################################################################
#
#                 Cambridge Crystallographic Data Centre
#                                CCDC 
#
#######################################################################
#
# If this CIF has been generated from an entry in the Cambridge 
# Structural Database, then it will include bibliographic, chemical, 
# crystal, experimental, refinement or atomic coordinate data resulting 
# from the CCDC's data processing and validation procedures.
#
#######################################################################

data_PEDHIP
_chemical_formula_moiety         'C27 H24 Cl1 N1 O2 S1 Si1'
_chemical_name_systematic        
2-Chloro-1-(4-methyl-2-nitrobenzenethio)-triphenylvinylsilane
_symmetry_cell_setting           monoclinic
_symmetry_space_group_name_H-M   'P 21/c'
_symmetry_Int_Tables_number      14
_space_group_name_Hall           '-P 2ybc'
loop_
_symmetry_equiv_pos_site_id
_symmetry_equiv_pos_as_xyz
1 x,y,z
2 -x,1/2+y,1/2-z
3 -x,-y,-z
4 x,1/2-y,1/2+z
_cell_length_a                   7.822(5)
_cell_length_b                   11.688(9)
_cell_length_c                   27.283(11)
_cell_angle_alpha                90
_cell_angle_beta                 98.24(4)
_cell_angle_gamma                90
_cell_volume                     2468.56
_exptl_crystal_colour            yellow
_chemical_melting_point          '142-145 deg.C'
_cell_formula_units_Z            4
loop_
_atom_site_label
_atom_site_type_symbol
_atom_site_fract_x
_atom_site_fract_y
_atom_site_fract_z
Si1 Si 0.2407(2) 0.9149(1) 0.1539(1)
S1 S 0.1864(2) 0.8069(1) 0.0498(1)
Cl1 Cl -0.2237(2) 0.9116(2) 0.0347(1)
C1 C 0.0751(8) 0.8697(5) 0.0986(2)
C2 C -0.0436(9) 0.9647(6) 0.0770(2)
C3 C 0.1171(8) 0.9294(5) 0.2082(2)
C4 C -0.0109(9) 1.0114(6) 0.2096(2)
C5 C -0.1087(10) 1.0159(6) 0.2483(3)
C6 C -0.0789(9) 0.9397(6) 0.2872(3)
C7 C 0.0482(10) 0.8589(6) 0.2865(3)
C8 C 0.1468(9) 0.8534(5) 0.2482(2)
C9 C 0.3526(8) 1.0520(5) 0.1429(2)
C10 C 0.3685(9) 1.1410(6) 0.1776(3)
C11 C 0.4601(11) 1.2385(6) 0.1698(3)
C12 C 0.5392(11) 1.2493(7) 0.1280(4)
C13 C 0.5295(10) 1.1629(7) 0.0935(3)
C14 C 0.4346(8) 1.0647(6) 0.1011(2)
C15 C 0.4041(8) 0.7978(5) 0.1662(2)
C16 C 0.5790(9) 0.8224(6) 0.1734(2)
C17 C 0.7033(10) 0.7355(7) 0.1820(3)
C18 C 0.6522(10) 0.6235(7) 0.1832(2)
C19 C 0.4803(10) 0.5965(6) 0.1762(2)
C20 C 0.3575(9) 0.6810(5) 0.1683(2)
C21 C 0.1417(8) 0.6585(5) 0.0551(2)
C22 C 0.2666(8) 0.5760(6) 0.0494(2)
N1 N 0.4327(8) 0.6090(5) 0.0357(2)
O1 O 0.4360(7) 0.6893(4) 0.0068(2)
O2 O 0.5605(6) 0.5550(5) 0.0531(2)
C23 C 0.2416(8) 0.4593(5) 0.0561(2)
C24 C 0.0853(9) 0.4210(6) 0.0677(2)
C25 C 0.0524(8) 0.2938(5) 0.0746(2)
C26 C -0.0415(8) 0.5014(5) 0.0725(2)
C27 C -0.0161(8) 0.6183(5) 0.0660(2)
H1 H -0.0065 0.8069 0.1129
H2 H -0.0923 1.0090 0.1069
H3 H 0.0292 1.0235 0.0575
H4 H -0.0349 1.0731 0.1800
H5 H -0.2090 1.0795 0.2478
H6 H -0.1536 0.9436 0.3175
H7 H 0.0719 0.7982 0.3165
H8 H 0.2475 0.7898 0.2493
H9 H 0.3085 1.1333 0.2107
H10 H 0.4698 1.3070 0.1966
H11 H 0.6097 1.3265 0.1224
H12 H 0.5939 1.1707 0.0612
H13 H 0.4244 0.9970 0.0739
H14 H 0.6206 0.9103 0.1723
H15 H 0.8391 0.7568 0.1877
H16 H 0.7478 0.5565 0.1897
H17 H 0.4408 0.5080 0.1768
H18 H 0.2225 0.6580 0.1636
H19 H 0.3437 0.3993 0.0521
H20 H -0.0766 0.2818 0.0834
H21 H 0.1452 0.2609 0.1044
H22 H 0.0655 0.2486 0.0408
H23 H -0.1642 0.4726 0.0817
H24 H -0.1194 0.6778 0.0693
loop_
_geom_bond_atom_site_label_1
_geom_bond_atom_site_label_2
_geom_bond_site_symmetry_1
_geom_bond_site_symmetry_2
Si1 C1 1_555 1_555
S1 C1 1_555 1_555
Cl1 C2 1_555 1_555
C1 C2 1_555 1_555
C2 H2 1_555 1_555
C3 Si1 1_555 1_555
C4 C3 1_555 1_555
C5 C4 1_555 1_555
C6 C5 1_555 1_555
C7 C6 1_555 1_555
C8 C3 1_555 1_555
C9 Si1 1_555 1_555
C10 C9 1_555 1_555
C11 C10 1_555 1_555
C12 C11 1_555 1_555
C13 C12 1_555 1_555
C14 C9 1_555 1_555
C15 Si1 1_555 1_555
C16 C15 1_555 1_555
C17 C16 1_555 1_555
C18 C17 1_555 1_555
C19 C18 1_555 1_555
C20 C15 1_555 1_555
C21 S1 1_555 1_555
C22 C21 1_555 1_555
N1 C22 1_555 1_555
O1 N1 1_555 1_555
O2 N1 1_555 1_555
C23 C22 1_555 1_555
C24 C23 1_555 1_555
C25 C24 1_555 1_555
C26 C24 1_555 1_555
C27 C21 1_555 1_555
H1 C1 1_555 1_555
H3 C2 1_555 1_555
H4 C4 1_555 1_555
H5 C5 1_555 1_555
H6 C6 1_555 1_555
H7 C7 1_555 1_555
H8 C8 1_555 1_555
H9 C10 1_555 1_555
H10 C11 1_555 1_555
H11 C12 1_555 1_555
H12 C13 1_555 1_555
H13 C14 1_555 1_555
H14 C16 1_555 1_555
H15 C17 1_555 1_555
H16 C18 1_555 1_555
H17 C19 1_555 1_555
H18 C20 1_555 1_555
H19 C23 1_555 1_555
H20 C25 1_555 1_555
H21 C25 1_555 1_555
H22 C25 1_555 1_555
H23 C26 1_555 1_555
H24 C27 1_555 1_555
C7 C8 1_555 1_555
C13 C14 1_555 1_555
C19 C20 1_555 1_555
C26 C27 1_555 1_555

#END
