
#######################################################################
#
#                 Cambridge Crystallographic Data Centre
#                                CCDC 
#
#######################################################################
#
# If this CIF has been generated from an entry in the Cambridge 
# Structural Database, then it will include bibliographic, chemical, 
# crystal, experimental, refinement or atomic coordinate data resulting 
# from the CCDC's data processing and validation procedures.
#
#######################################################################

data_PEFBEJ
_chemical_formula_moiety         'C29 H32 Br1 N1 S1'
_chemical_name_systematic        
4-Bromo-N,N-bis(4-t-butylphenyl)-2-methyl-1-benzothiophen-5-amine
_symmetry_cell_setting           monoclinic
_symmetry_space_group_name_H-M   'P 21'
_symmetry_Int_Tables_number      4
_space_group_name_Hall           'P 2yb'
loop_
_symmetry_equiv_pos_site_id
_symmetry_equiv_pos_as_xyz
1 x,y,z
2 -x,1/2+y,-z
_cell_length_a                   11.131(1)
_cell_length_b                   11.0720(9)
_cell_length_c                   11.493(1)
_cell_angle_alpha                90
_cell_angle_beta                 116.171(13)
_cell_angle_gamma                90
_cell_volume                     1271.22
_exptl_crystal_colour            yellow
_exptl_crystal_description       prism
_cell_formula_units_Z            2
loop_
_atom_site_label
_atom_site_type_symbol
_atom_site_fract_x
_atom_site_fract_y
_atom_site_fract_z
Br1 Br 0.3743 0.497 0.5984
S1 S 0.0139(1) 0.3393(1) 0.1223(1)
N1 N 0.4954(2) 0.2404(2) 0.6182(2)
C1 C 0.0171(3) 0.4865(4) 0.1843(3)
C2 C 0.1151(2) 0.4998(4) 0.3052(2)
H1 H 0.1298 0.5723 0.3537
C3 C 0.1965(3) 0.3916(3) 0.3541(3)
C4 C 0.1533(3) 0.2966(3) 0.2640(3)
C5 C 0.2193(3) 0.1842(3) 0.2889(3)
H2 H 0.1879 0.1218 0.2258
C6 C 0.3283(3) 0.1658(3) 0.4041(3)
H3 H 0.3722 0.0897 0.4212
C7 C 0.3777(3) 0.2589(3) 0.4995(3)
C8 C 0.3105(3) 0.3707(3) 0.4719(3)
C9 C -0.0838(3) 0.5757(3) 0.0987(3)
H4 H -0.0841 0.6464 0.1499
H5 H -0.1728 0.5384 0.0608
H6 H -0.0608 0.6008 0.0293
C10 C 0.6191(3) 0.2890(2) 0.6280(3)
C11 C 0.6370(3) 0.3154(3) 0.5187(3)
H7 H 0.5648 0.3036 0.4353
C12 C 0.7563(3) 0.3580(3) 0.5286(3)
H8 H 0.7659 0.3726 0.4516
C13 C 0.8663(3) 0.3813(3) 0.6503(3)
C14 C 0.8470(3) 0.3558(3) 0.7603(3)
H9 H 0.9182 0.3694 0.8439
C15 C 0.7254(3) 0.3111(3) 0.7495(3)
H10 H 0.7148 0.2954 0.8257
C16 C 1.0027(3) 0.4238(3) 0.6591(3)
C17 C 0.9820(3) 0.5351(2) 0.5720(3)
H11 H 0.9204 0.5146 0.4823
H12 H 1.0682 0.5603 0.5761
H13 H 0.9442 0.6012 0.6020
C18 C 1.0598(3) 0.3199(3) 0.6082(3)
H14 H 0.9951 0.2988 0.5198
H15 H 1.0764 0.2492 0.6646
H16 H 1.1438 0.3459 0.6080
C19 C 1.1020(3) 0.4568(3) 0.7973(3)
H17 H 1.1847 0.4875 0.7974
H18 H 1.1221 0.3849 0.8524
H19 H 1.0629 0.5191 0.8307
C20 C 0.4922(3) 0.1357(3) 0.6918(3)
C21 C 0.3775(3) 0.1128(3) 0.7068(3)
H20 H 0.3032 0.1662 0.6705
C22 C 0.3714(2) 0.0102(3) 0.7758(2)
H21 H 0.2915 -0.0049 0.7839
C23 C 0.4771(3) -0.0699(2) 0.8327(3)
C24 C 0.5923(3) -0.0430(2) 0.8189(3)
H22 H 0.6679 -0.0946 0.8579
C25 C 0.5996(3) 0.0565(3) 0.7502(3)
H23 H 0.6798 0.0714 0.7424
C26 C 0.4669(3) -0.1803(3) 0.9088(3)
C27 C 0.5808(3) -0.2713(3) 0.9379(3)
H24 H 0.5799 -0.2984 0.8564
H25 H 0.5683 -0.3409 0.9841
H26 H 0.6668 -0.2326 0.9918
C28 C 0.3350(3) -0.2499(3) 0.8332(3)
H27 H 0.2591 -0.1945 0.8091
H28 H 0.3275 -0.3147 0.8877
H29 H 0.3345 -0.2849 0.7546
C29 C 0.4707(3) -0.1365(3) 1.0363(3)
H30 H 0.5515 -0.0881 1.0833
H31 H 0.4716 -0.2062 1.0892
H32 H 0.3914 -0.0870 1.0182
loop_
_geom_bond_atom_site_label_1
_geom_bond_atom_site_label_2
_geom_bond_site_symmetry_1
_geom_bond_site_symmetry_2
Br1 C8 1_555 1_555
S1 C1 1_555 1_555
N1 C7 1_555 1_555
C1 C2 1_555 1_555
C2 H1 1_555 1_555
C3 C2 1_555 1_555
C4 S1 1_555 1_555
C5 C4 1_555 1_555
H2 C5 1_555 1_555
C6 C5 1_555 1_555
H3 C6 1_555 1_555
C7 C6 1_555 1_555
C8 C3 1_555 1_555
C9 C1 1_555 1_555
H4 C9 1_555 1_555
H5 C9 1_555 1_555
H6 C9 1_555 1_555
C10 N1 1_555 1_555
C11 C10 1_555 1_555
H7 C11 1_555 1_555
C12 C11 1_555 1_555
H8 C12 1_555 1_555
C13 C12 1_555 1_555
C14 C13 1_555 1_555
H9 C14 1_555 1_555
C15 C10 1_555 1_555
H10 C15 1_555 1_555
C16 C13 1_555 1_555
C17 C16 1_555 1_555
H11 C17 1_555 1_555
H12 C17 1_555 1_555
H13 C17 1_555 1_555
C18 C16 1_555 1_555
H14 C18 1_555 1_555
H15 C18 1_555 1_555
H16 C18 1_555 1_555
C19 C16 1_555 1_555
H17 C19 1_555 1_555
H18 C19 1_555 1_555
H19 C19 1_555 1_555
C20 N1 1_555 1_555
C21 C20 1_555 1_555
H20 C21 1_555 1_555
C22 C21 1_555 1_555
H21 C22 1_555 1_555
C23 C22 1_555 1_555
C24 C23 1_555 1_555
H22 C24 1_555 1_555
C25 C20 1_555 1_555
H23 C25 1_555 1_555
C26 C23 1_555 1_555
C27 C26 1_555 1_555
H24 C27 1_555 1_555
H25 C27 1_555 1_555
H26 C27 1_555 1_555
C28 C26 1_555 1_555
H27 C28 1_555 1_555
H28 C28 1_555 1_555
H29 C28 1_555 1_555
C29 C26 1_555 1_555
H30 C29 1_555 1_555
H31 C29 1_555 1_555
H32 C29 1_555 1_555
C3 C4 1_555 1_555
C7 C8 1_555 1_555
C14 C15 1_555 1_555
C24 C25 1_555 1_555

#END
