
#######################################################################
#
#                 Cambridge Crystallographic Data Centre
#                                CCDC 
#
#######################################################################
#
# If this CIF has been generated from an entry in the Cambridge 
# Structural Database, then it will include bibliographic, chemical, 
# crystal, experimental, refinement or atomic coordinate data resulting 
# from the CCDC's data processing and validation procedures.
#
#######################################################################

data_PEFFAH01
_chemical_formula_moiety         'C10 H10 Cl1 N1 O2'
_chemical_name_systematic        N-(4-chlorophenyl)-3-oxobutanamide
_symmetry_cell_setting           orthorhombic
_symmetry_space_group_name_H-M   'P b c a'
_symmetry_Int_Tables_number      61
_space_group_name_Hall           '-P 2ac 2ab'
loop_
_symmetry_equiv_pos_site_id
_symmetry_equiv_pos_as_xyz
1 x,y,z
2 1/2-x,-y,1/2+z
3 -x,1/2+y,1/2-z
4 1/2+x,1/2-y,-z
5 -x,-y,-z
6 1/2+x,y,1/2-z
7 x,1/2-y,1/2+z
8 1/2-x,1/2+y,z
_cell_length_a                   9.4026(5)
_cell_length_b                   8.2315(5)
_cell_length_c                   26.358(3)
_cell_angle_alpha                90
_cell_angle_beta                 90
_cell_angle_gamma                90
_cell_volume                     2040.04
_exptl_crystal_colour            colorless
_exptl_crystal_description       parallelepiped
_cell_formula_units_Z            8
loop_
_atom_site_label
_atom_site_type_symbol
_atom_site_fract_x
_atom_site_fract_y
_atom_site_fract_z
Cl1 Cl 0.18737(10) 0.22834(11) 0.49864(3)
O1 O 0.29671(17) 0.0290(3) 0.74549(7)
O2 O 0.1291(2) 0.1974(2) 0.83341(8)
N1 N 0.0748(2) 0.0287(3) 0.71087(8)
H1 H -0.015(4) 0.008(4) 0.7190(13)
C1 C 0.2295(3) 0.1654(3) 0.64818(10)
H2 H 0.2967 0.1934 0.6736
C2 C 0.2534(3) 0.2092(3) 0.59822(11)
H3 H 0.3374 0.2666 0.5894
C3 C 0.1557(3) 0.1697(3) 0.56132(10)
C4 C 0.0316(3) 0.0894(3) 0.57334(10)
H4 H -0.0366 0.0660 0.5478
C5 C 0.0075(2) 0.0435(3) 0.62304(10)
H5 H -0.0772 -0.0133 0.6315
C6 C 0.1063(2) 0.0797(3) 0.66104(9)
C7 C 0.1678(2) 0.0024(3) 0.74890(10)
C8 C 0.1059(2) -0.0655(3) 0.79710(10)
H6 H 0.1598 -0.1641 0.8069
H7 H 0.0061 -0.0982 0.7908
C9 C 0.1097(2) 0.0540(3) 0.84032(10)
C10 C 0.0857(4) -0.0150(4) 0.89199(11)
H8 H 0.0865 0.0728 0.9171
H9 H 0.1613 -0.0930 0.8999
H10 H -0.0066 -0.0703 0.8929
loop_
_geom_bond_atom_site_label_1
_geom_bond_atom_site_label_2
_geom_bond_site_symmetry_1
_geom_bond_site_symmetry_2
Cl1 C3 1_555 1_555
O1 C7 1_555 1_555
O2 C9 1_555 1_555
N1 H1 1_555 1_555
C1 H2 1_555 1_555
C2 C1 1_555 1_555
H3 C2 1_555 1_555
C3 C2 1_555 1_555
C4 C3 1_555 1_555
H4 C4 1_555 1_555
C5 C4 1_555 1_555
H5 C5 1_555 1_555
C6 N1 1_555 1_555
C7 N1 1_555 1_555
C8 C7 1_555 1_555
H6 C8 1_555 1_555
H7 C8 1_555 1_555
C9 C8 1_555 1_555
C10 C9 1_555 1_555
H8 C10 1_555 1_555
H9 C10 1_555 1_555
H10 C10 1_555 1_555
C1 C6 1_555 1_555
C5 C6 1_555 1_555

#END
