
#######################################################################
#
#                 Cambridge Crystallographic Data Centre
#                                CCDC 
#
#######################################################################
#
# If this CIF has been generated from an entry in the Cambridge 
# Structural Database, then it will include bibliographic, chemical, 
# crystal, experimental, refinement or atomic coordinate data resulting 
# from the CCDC's data processing and validation procedures.
#
#######################################################################

data_PEFHAM
_chemical_formula_moiety         'C16 H16 N4 O4 S1'
_chemical_name_systematic        
"ethyl 4'-((4-methylphenyl)sulfonyl)-1,1'-biimidazole-5-carboxylate"
_symmetry_cell_setting           monoclinic
_symmetry_space_group_name_H-M   'P 21/c'
_symmetry_Int_Tables_number      14
_space_group_name_Hall           '-P 2ybc'
loop_
_symmetry_equiv_pos_site_id
_symmetry_equiv_pos_as_xyz
1 x,y,z
2 -x,1/2+y,1/2-z
3 -x,-y,-z
4 x,1/2-y,1/2+z
_cell_length_a                   16.2647(11)
_cell_length_b                   7.6111(4)
_cell_length_c                   15.2059(12)
_cell_angle_alpha                90
_cell_angle_beta                 113.600(9)
_cell_angle_gamma                90
_cell_volume                     1724.94
_cell_formula_units_Z            4
loop_
_atom_site_label
_atom_site_type_symbol
_atom_site_fract_x
_atom_site_fract_y
_atom_site_fract_z
C1 C 0.34238(13) 0.6122(2) 0.18466(15)
C2 C 0.30757(14) 0.6155(3) 0.08649(15)
H1 H 0.2467 0.5955 0.0513
C3 C 0.36351(15) 0.6489(3) 0.04013(16)
H2 H 0.3397 0.6506 -0.0266
C4 C 0.45368(15) 0.6797(3) 0.09028(16)
C5 C 0.48730(15) 0.6742(4) 0.18811(18)
H3 H 0.5483 0.6929 0.2231
C6 C 0.43271(16) 0.6413(4) 0.23633(16)
H4 H 0.4567 0.6389 0.3031
C7 C 0.51357(18) 0.7240(4) 0.0392(2)
H5 H 0.4839 0.6931 -0.0274
H6 H 0.5687 0.6594 0.0676
H7 H 0.5263 0.8477 0.0448
C8 C 0.22790(13) 0.7944(2) 0.24388(13)
C9 C 0.14250(13) 0.8429(2) 0.19331(13)
H8 H 0.0948 0.7735 0.1543
C10 C 0.22671(14) 1.0671(3) 0.27101(13)
H9 H 0.2436 1.1811 0.2927
C11 C 0.01024(16) 1.1774(3) 0.20428(17)
H10 H 0.0125 1.1410 0.2636
C12 C -0.03009(14) 1.2987(3) 0.06817(16)
H11 H -0.0629 1.3661 0.0145
C13 C 0.04453(12) 1.2064(2) 0.07831(12)
C14 C 0.09161(13) 1.1978(2) 0.01465(13)
C15 C 0.22255(16) 1.0992(4) -0.00490(17)
H12 H 0.2085 1.1953 -0.0505
H13 H 0.2103 0.9894 -0.0402
C16 C 0.31791(17) 1.1074(4) 0.0622(2)
H14 H 0.3302 1.2194 0.0938
H15 H 0.3552 1.0922 0.0273
H16 H 0.3303 1.0157 0.1092
N1 N -0.05146(13) 1.2808(3) 0.14600(14)
N2 N 0.28109(11) 0.9332(2) 0.29280(12)
N3 N 0.07030(10) 1.1297(2) 0.16829(11)
N4 N 0.14215(10) 1.01830(19) 0.21251(10)
O1 O 0.19490(11) 0.47876(19) 0.18485(14)
O2 O 0.32226(12) 0.5297(2) 0.34023(12)
O3 O 0.16836(9) 1.1121(2) 0.05144(10)
O4 O 0.06166(10) 1.2641(2) -0.06365(10)
S1 S 0.27027(4) 0.58374(7) 0.24372(4)
loop_
_geom_bond_atom_site_label_1
_geom_bond_atom_site_label_2
_geom_bond_site_symmetry_1
_geom_bond_site_symmetry_2
C1 C2 1_555 1_555
C2 H1 1_555 1_555
C3 C2 1_555 1_555
H2 C3 1_555 1_555
C4 C3 1_555 1_555
C5 C4 1_555 1_555
H3 C5 1_555 1_555
C6 C1 1_555 1_555
H4 C6 1_555 1_555
C7 C4 1_555 1_555
H5 C7 1_555 1_555
H6 C7 1_555 1_555
H7 C7 1_555 1_555
C8 C9 1_555 1_555
C9 H8 1_555 1_555
C10 H9 1_555 1_555
C11 H10 1_555 1_555
C12 H11 1_555 1_555
C13 C12 1_555 1_555
C14 C13 1_555 1_555
C15 H12 1_555 1_555
H13 C15 1_555 1_555
C16 C15 1_555 1_555
H14 C16 1_555 1_555
H15 C16 1_555 1_555
H16 C16 1_555 1_555
N1 C11 1_555 1_555
N2 C8 1_555 1_555
N3 C11 1_555 1_555
N4 C9 1_555 1_555
O1 S1 1_555 1_555
O2 S1 1_555 1_555
O3 C14 1_555 1_555
O4 C14 1_555 1_555
S1 C1 1_555 1_555
C5 C6 1_555 1_555
C8 S1 1_555 1_555
C10 N2 1_555 1_555
C10 N4 1_555 1_555
C12 N1 1_555 1_555
C13 N3 1_555 1_555
C15 O3 1_555 1_555
N3 N4 1_555 1_555

#END
