
#######################################################################
#
#                 Cambridge Crystallographic Data Centre
#                                CCDC 
#
#######################################################################
#
# If this CIF has been generated from an entry in the Cambridge 
# Structural Database, then it will include bibliographic, chemical, 
# crystal, experimental, refinement or atomic coordinate data resulting 
# from the CCDC's data processing and validation procedures.
#
#######################################################################

data_PEFSAU
_chemical_formula_moiety         'C16 H16 N2'
_chemical_name_systematic        
(2SR,3aSR)-2-Phenyl-2,3,3a,4-tetrahydro-1H-pyrazolo(1,5-a)indole
_symmetry_cell_setting           monoclinic
_symmetry_space_group_name_H-M   'P 21/c'
_symmetry_Int_Tables_number      14
_space_group_name_Hall           '-P 2ybc'
loop_
_symmetry_equiv_pos_site_id
_symmetry_equiv_pos_as_xyz
1 x,y,z
2 -x,1/2+y,1/2-z
3 -x,-y,-z
4 x,1/2-y,1/2+z
_cell_length_a                   10.272(2)
_cell_length_b                   16.692(1)
_cell_length_c                   7.716(3)
_cell_angle_alpha                90
_cell_angle_beta                 84.76
_cell_angle_gamma                90
_cell_volume                     1317.46
_cell_formula_units_Z            4
loop_
_atom_site_label
_atom_site_type_symbol
_atom_site_fract_x
_atom_site_fract_y
_atom_site_fract_z
N1 N 0.4884(2) 0.3983(3) 0.0629(2)
C1 C 0.4723(2) 0.3658(2) 0.2425(3)
C2 C 0.3675(3) 0.4162(3) 0.3421(3)
C3 C 0.3052(3) 0.4678(2) 0.2102(2)
C4 C 0.1582(2) 0.4547(2) 0.2019(2)
C5 C 0.1517(2) 0.4004(3) 0.0489(3)
C6 C 0.0466(2) 0.3600(2) -0.0124(2)
C7 C 0.0694(2) 0.3112(3) -0.1590(3)
C8 C 0.1927(3) 0.3032(2) -0.2445(2)
C9 C 0.2999(2) 0.3435(3) -0.1851(3)
C10 C 0.2763(3) 0.3912(2) -0.0383(3)
N2 N 0.3695(2) 0.4392(2) 0.0366(2)
C11 C 0.6005(3) 0.3631(2) 0.3251(2)
C12 C 0.6864(2) 0.4283(2) 0.3124(3)
C13 C 0.8033(2) 0.4250(2) 0.3911(2)
C14 C 0.8330(3) 0.3581(3) 0.4833(2)
C15 C 0.7483(2) 0.2947(2) 0.4989(2)
C16 C 0.6318(3) 0.2960(3) 0.4195(3)
H1 H 0.5418(4) 0.4237(4) 0.0408(4)
H2 H 0.4423(4) 0.3110(4) 0.2337(4)
H3 H 0.3930(4) 0.4530(4) 0.4372(4)
H4 H 0.2973(3) 0.3821(4) 0.4050(4)
H5 H 0.3273(4) 0.5301(5) 0.2176(5)
H6 H 0.1176(4) 0.4220(4) 0.3058(5)
H7 H 0.1182(4) 0.4998(4) 0.1712(5)
H8 H -0.0404(4) 0.3714(4) 0.0460(4)
H9 H 0.0053(4) 0.2745(4) -0.1992(4)
H10 H 0.2024(4) 0.2729(4) -0.3418(4)
H11 H 0.3879(4) 0.3453(4) -0.2358(4)
H12 H 0.6678(4) 0.4814(4) 0.2614(4)
H13 H 0.8570(4) 0.4727(4) 0.3704(4)
H14 H 0.9234(3) 0.3520(4) 0.5181(4)
H15 H 0.7689(4) 0.2469(4) 0.5456(4)
H16 H 0.5766(4) 0.2429(4) 0.4221(4)
loop_
_geom_bond_atom_site_label_1
_geom_bond_atom_site_label_2
_geom_bond_site_symmetry_1
_geom_bond_site_symmetry_2
N1 C1 1_555 1_555
C1 C2 1_555 1_555
C2 C3 1_555 1_555
C3 C4 1_555 1_555
C4 C5 1_555 1_555
C5 C6 1_555 1_555
C6 C7 1_555 1_555
C7 C8 1_555 1_555
C8 C9 1_555 1_555
C9 C10 1_555 1_555
C10 C5 1_555 1_555
N2 N1 1_555 1_555
C11 C1 1_555 1_555
C12 C11 1_555 1_555
C13 C12 1_555 1_555
C14 C13 1_555 1_555
C15 C14 1_555 1_555
C16 C11 1_555 1_555
H1 N1 1_555 1_555
H2 C1 1_555 1_555
H3 C2 1_555 1_555
H4 C2 1_555 1_555
H5 C3 1_555 1_555
H6 C4 1_555 1_555
H7 C4 1_555 1_555
H8 C6 1_555 1_555
H9 C7 1_555 1_555
H10 C8 1_555 1_555
H11 C9 1_555 1_555
H12 C12 1_555 1_555
H13 C13 1_555 1_555
H14 C14 1_555 1_555
H15 C15 1_555 1_555
H16 C16 1_555 1_555
C3 N2 1_555 1_555
C10 N2 1_555 1_555
C15 C16 1_555 1_555

#END
