
#######################################################################
#
#                 Cambridge Crystallographic Data Centre
#                                CCDC 
#
#######################################################################
#
# If this CIF has been generated from an entry in the Cambridge 
# Structural Database, then it will include bibliographic, chemical, 
# crystal, experimental, refinement or atomic coordinate data resulting 
# from the CCDC's data processing and validation procedures.
#
#######################################################################

data_PEFTIE
_chemical_name_common            NPAN
_chemical_formula_moiety         'C9 H9 N3 O2'
_chemical_name_systematic        N-(4-Nitrophenyl)-N-methylaminoacetonitrile
_symmetry_cell_setting           monoclinic
_symmetry_space_group_name_H-M   'P 21/c'
_symmetry_Int_Tables_number      14
_space_group_name_Hall           '-P 2ybc'
loop_
_symmetry_equiv_pos_site_id
_symmetry_equiv_pos_as_xyz
1 x,y,z
2 -x,1/2+y,1/2-z
3 -x,-y,-z
4 x,1/2-y,1/2+z
_cell_length_a                   7.1495(7)
_cell_length_b                   25.354(1)
_cell_length_c                   10.279(1)
_cell_angle_alpha                90
_cell_angle_beta                 95.62(3)
_cell_angle_gamma                90
_cell_volume                     1854.3
_exptl_crystal_colour            'light yellow'
_exptl_crystal_description       needle
_chemical_melting_point          '95 deg.C'
_cell_formula_units_Z            8
_exptl_crystal_recrystallization_method dioxane
_exptl_crystal_preparation       
'obtained by cooling polymorph 2 and recrystallisation from dioxane'
loop_
_atom_site_label
_atom_site_type_symbol
_atom_site_fract_x
_atom_site_fract_y
_atom_site_fract_z
O1 O 0.1352(3) 0.45071(7) 1.07726(17)
O2 O 0.0650(3) 0.36817(7) 1.09724(17)
N1 N 0.1003(3) 0.40653(8) 1.0297(2)
N2 N 0.0809(3) 0.38297(7) 0.48770(19)
N3 N 0.3099(4) 0.26938(9) 0.4214(3)
C1 C 0.0992(3) 0.39980(9) 0.8905(2)
C2 C 0.0512(3) 0.35126(9) 0.8343(2)
C3 C 0.0478(3) 0.34515(9) 0.7013(2)
C4 C 0.0908(3) 0.38760(8) 0.6211(2)
C5 C 0.1430(3) 0.43642(9) 0.6817(2)
C6 C 0.1454(3) 0.44212(9) 0.8143(2)
C7 C 0.1420(4) 0.42591(10) 0.4077(3)
C8 C 0.0250(4) 0.33422(10) 0.4228(3)
C9 C 0.1850(4) 0.29664(10) 0.4215(3)
H1 H 0.027(3) 0.3236(9) 0.891(2)
H2 H 0.010(4) 0.3117(10) 0.667(3)
H3 H 0.180(4) 0.4670(10) 0.631(3)
H4 H 0.172(4) 0.4773(11) 0.853(3)
H5 H 0.058(4) 0.4587(11) 0.414(3)
H6 H 0.274(4) 0.4341(11) 0.440(3)
H7 H 0.139(5) 0.4128(12) 0.320(4)
H8 H -0.020(4) 0.3422(10) 0.332(3)
H9 H -0.074(4) 0.3143(11) 0.467(3)
O3 O 0.3105(3) 0.54521(7) 0.49999(17)
O4 O 0.3854(3) 0.62713(7) 0.53733(18)
N4 N 0.3584(3) 0.58887(8) 0.4624(2)
N5 N 0.4549(3) 0.61836(7) -0.06617(19)
N6 N 0.2018(4) 0.73300(10) -0.1248(3)
C10 C 0.3818(3) 0.59643(9) 0.3263(2)
C11 C 0.4429(3) 0.64542(9) 0.2849(2)
C12 C 0.4638(3) 0.65299(9) 0.1548(2)
C13 C 0.4261(3) 0.61212(9) 0.0633(2)
C14 C 0.3615(3) 0.56342(9) 0.1081(2)
C15 C 0.3409(3) 0.55561(9) 0.2383(2)
C16 C 0.3889(5) 0.57887(11) -0.1620(3)
C17 C 0.4947(4) 0.67041(10) -0.1164(3)
C18 C 0.3301(4) 0.70611(10) -0.1221(3)
H10 H 0.477(4) 0.6742(11) 0.350(3)
H11 H 0.506(3) 0.6871(9) 0.129(2)
H12 H 0.329(4) 0.5334(11) 0.054(3)
H13 H 0.300(3) 0.5204(9) 0.266(2)
H14 H 0.253(4) 0.5719(11) -0.169(3)
H15 H 0.414(5) 0.5921(13) -0.246(3)
H16 H 0.453(4) 0.5446(12) -0.137(3)
H17 H 0.604(4) 0.6875(10) -0.066(3)
H18 H 0.540(4) 0.6662(12) -0.208(3)
loop_
_geom_bond_atom_site_label_1
_geom_bond_atom_site_label_2
_geom_bond_site_symmetry_1
_geom_bond_site_symmetry_2
O1 N1 1_555 1_555
O2 N1 1_555 1_555
N1 C1 1_555 1_555
N2 C4 1_555 1_555
N3 C9 1_555 1_555
C1 C2 1_555 1_555
C2 C3 1_555 1_555
C3 C4 1_555 1_555
C4 C5 1_555 1_555
C5 C6 1_555 1_555
C6 C1 1_555 1_555
C7 N2 1_555 1_555
C8 N2 1_555 1_555
C9 C8 1_555 1_555
H1 C2 1_555 1_555
H2 C3 1_555 1_555
H3 C5 1_555 1_555
H4 C6 1_555 1_555
H5 C7 1_555 1_555
H6 C7 1_555 1_555
H7 C7 1_555 1_555
H8 C8 1_555 1_555
H9 C8 1_555 1_555
O3 N4 1_555 1_555
O4 N4 1_555 1_555
N4 C10 1_555 1_555
N5 C13 1_555 1_555
N6 C18 1_555 1_555
C10 C11 1_555 1_555
C11 C12 1_555 1_555
C12 C13 1_555 1_555
C13 C14 1_555 1_555
C14 C15 1_555 1_555
C15 C10 1_555 1_555
C16 N5 1_555 1_555
C17 N5 1_555 1_555
C18 C17 1_555 1_555
H10 C11 1_555 1_555
H11 C12 1_555 1_555
H12 C14 1_555 1_555
H13 C15 1_555 1_555
H14 C16 1_555 1_555
H15 C16 1_555 1_555
H16 C16 1_555 1_555
H17 C17 1_555 1_555
H18 C17 1_555 1_555

#END
