
#######################################################################
#
#                 Cambridge Crystallographic Data Centre
#                                CCDC 
#
#######################################################################
#
# If this CIF has been generated from an entry in the Cambridge 
# Structural Database, then it will include bibliographic, chemical, 
# crystal, experimental, refinement or atomic coordinate data resulting 
# from the CCDC's data processing and validation procedures.
#
#######################################################################

data_PEFTIE01
_chemical_name_common            NPAN
_chemical_formula_moiety         'C9 H9 N3 O2'
_chemical_name_systematic        N-(4-nitrophenyl)-N-methylaminoacetonitrile
_symmetry_cell_setting           orthorhombic
_symmetry_space_group_name_H-M   'F d d 2'
_symmetry_Int_Tables_number      43
_space_group_name_Hall           'F 2 -2d'
loop_
_symmetry_equiv_pos_site_id
_symmetry_equiv_pos_as_xyz
1 x,y,z
2 -x,-y,z
3 1/4+x,1/4-y,1/4+z
4 1/4-x,1/4+y,1/4+z
5 x,1/2+y,1/2+z
6 -x,1/2-y,1/2+z
7 1/4+x,3/4-y,3/4+z
8 1/4-x,3/4+y,3/4+z
9 1/2+x,y,1/2+z
10 1/2-x,-y,1/2+z
11 3/4+x,1/4-y,3/4+z
12 3/4-x,1/4+y,3/4+z
13 1/2+x,1/2+y,z
14 1/2-x,1/2-y,z
15 3/4+x,3/4-y,1/4+z
16 3/4-x,3/4+y,1/4+z
_cell_length_a                   25.8337(5)
_cell_length_b                   34.3252(7)
_cell_length_c                   4.1548(1)
_cell_angle_alpha                90
_cell_angle_beta                 90
_cell_angle_gamma                90
_cell_volume                     3684.26
_exptl_crystal_colour            'light yellow'
_exptl_crystal_description       prism
_chemical_melting_point          '114-115 deg.C'
_cell_formula_units_Z            16
_exptl_crystal_recrystallization_method ethanol
loop_
_atom_site_label
_atom_site_type_symbol
_atom_site_fract_x
_atom_site_fract_y
_atom_site_fract_z
O1 O 0.35316(5) 0.18865(4) 0.3294(5)
O2 O 0.27321(5) 0.18065(4) 0.4702(5)
N1 N 0.31898(6) 0.17057(4) 0.4752(4)
N2 N 0.37619(5) 0.03515(4) 1.1416(4)
N3 N 0.28714(6) -0.03608(4) 0.9587(5)
C1 C 0.33350(6) 0.13607(4) 0.6540(5)
C2 C 0.29538(6) 0.11365(5) 0.8022(5)
C3 C 0.30923(6) 0.08007(4) 0.9650(5)
C4 C 0.36171(5) 0.06856(4) 0.9825(4)
C5 C 0.39941(6) 0.09199(4) 0.8301(5)
C6 C 0.38539(6) 0.12552(4) 0.6680(5)
C7 C 0.42976(6) 0.02140(5) 1.1344(5)
C8 C 0.33878(6) 0.01275(4) 1.3242(4)
C9 C 0.30945(5) -0.01519(5) 1.1214(5)
H1 H 0.2564(8) 0.1219(5) 0.802(7)
H2 H 0.2818(8) 0.0649(6) 1.073(7)
H3 H 0.4357(9) 0.0838(8) 0.845(9)
H4 H 0.4113(9) 0.1411(7) 0.569(9)
H5 H 0.4293(8) -0.0045(7) 1.233(7)
H6 H 0.4529(9) 0.0395(7) 1.259(8)
H7 H 0.4438(9) 0.0203(8) 0.911(8)
H8 H 0.3123(8) 0.0297(6) 1.434(6)
H9 H 0.3594(8) -0.0020(7) 1.477(8)
loop_
_geom_bond_atom_site_label_1
_geom_bond_atom_site_label_2
_geom_bond_site_symmetry_1
_geom_bond_site_symmetry_2
O1 N1 1_555 1_555
O2 N1 1_555 1_555
N1 C1 1_555 1_555
N2 C4 1_555 1_555
N3 C9 1_555 1_555
C1 C2 1_555 1_555
C2 C3 1_555 1_555
C3 C4 1_555 1_555
C4 C5 1_555 1_555
C5 C6 1_555 1_555
C6 C1 1_555 1_555
C7 N2 1_555 1_555
C8 N2 1_555 1_555
C9 C8 1_555 1_555
H1 C2 1_555 1_555
H2 C3 1_555 1_555
H3 C5 1_555 1_555
H4 C6 1_555 1_555
H5 C7 1_555 1_555
H6 C7 1_555 1_555
H7 C7 1_555 1_555
H8 C8 1_555 1_555
H9 C8 1_555 1_555

#END
