
#######################################################################
#
#                 Cambridge Crystallographic Data Centre
#                                CCDC 
#
#######################################################################
#
# If this CIF has been generated from an entry in the Cambridge 
# Structural Database, then it will include bibliographic, chemical, 
# crystal, experimental, refinement or atomic coordinate data resulting 
# from the CCDC's data processing and validation procedures.
#
#######################################################################

data_PEFVOM
_chemical_formula_moiety         'C27 H16 B1 N3 O1,H2 O1'
_chemical_name_systematic        
'Hydroxo((14)tribenzosubporphinato(1.1.1))boron(iii) monohydrate'
_symmetry_cell_setting           monoclinic
_symmetry_space_group_name_H-M   'C 2/c'
_symmetry_Int_Tables_number      15
_space_group_name_Hall           '-C 2yn'
loop_
_symmetry_equiv_pos_site_id
_symmetry_equiv_pos_as_xyz
1 x,y,z
2 1/2+x,1/2+y,z
3 -x,y,1/2-z
4 1/2-x,1/2+y,1/2-z
5 -x,-y,-z
6 1/2-x,1/2-y,-z
7 x,-y,1/2+z
8 1/2+x,1/2-y,1/2+z
_cell_length_a                   24.535(5)
_cell_length_b                   11.708(3)
_cell_length_c                   13.940(3)
_cell_angle_alpha                90
_cell_angle_beta                 91.192(14)
_cell_angle_gamma                90
_cell_volume                     4003.48
_exptl_crystal_colour            orange
_exptl_crystal_description       prism
_cell_formula_units_Z            8
_exptl_crystal_recrystallization_method ethane/acetonitrile/water
loop_
_atom_site_label
_atom_site_type_symbol
_atom_site_fract_x
_atom_site_fract_y
_atom_site_fract_z
N1 N 0.41721(11) 0.1659(2) 0.6119(2)
O1 O 0.45946(9) 0.0864(2) 0.46411(17)
H1 H 0.4847 0.0610 0.4998
N2 N 0.38674(11) -0.0125(2) 0.5483(2)
N3 N 0.36573(11) 0.1617(2) 0.4638(2)
C1 C 0.40998(14) 0.2823(3) 0.6192(3)
C2 C 0.39800(13) -0.0657(3) 0.6347(3)
C3 C 0.42457(14) 0.3124(3) 0.7177(3)
C4 C 0.35489(14) 0.2768(3) 0.4720(3)
C5 C 0.35117(14) -0.0722(3) 0.4904(3)
C6 C 0.42836(13) 0.1151(3) 0.6990(3)
C7 C 0.42213(13) -0.0023(3) 0.7097(3)
H2 H 0.4341 -0.0391 0.7671
C8 C 0.38151(14) 0.3387(3) 0.5452(2)
H3 H 0.3802 0.4198 0.5446
C9 C 0.37182(14) -0.1763(3) 0.6279(3)
C10 C 0.30798(15) 0.2978(3) 0.4103(3)
C11 C 0.34348(14) -0.1810(3) 0.5375(3)
C12 C 0.31419(15) -0.2794(3) 0.5109(3)
H4 H 0.2959 -0.2846 0.4504
C13 C 0.43542(13) 0.2084(3) 0.7677(3)
C14 C 0.32702(14) 0.1044(3) 0.4093(3)
C15 C 0.29074(14) 0.1914(3) 0.3715(3)
C16 C 0.44731(14) 0.2091(3) 0.8662(3)
H5 H 0.4539 0.1397 0.8999
C17 C 0.44926(16) 0.3125(4) 0.9134(3)
H6 H 0.4575 0.3143 0.9802
C18 C 0.21509(16) 0.2845(4) 0.2944(3)
H7 H 0.1834 0.2816 0.2541
C19 C 0.24390(15) 0.1855(3) 0.3131(3)
H8 H 0.2321 0.1147 0.2867
C20 C 0.33852(15) -0.3627(3) 0.6653(3)
H9 H 0.3353 -0.4248 0.7088
C21 C 0.42706(15) 0.4163(3) 0.7665(3)
H10 H 0.4205 0.4861 0.7335
C22 C 0.23160(15) 0.3888(4) 0.3338(3)
H11 H 0.2105 0.4553 0.3210
C23 C 0.27800(15) 0.3970(3) 0.3909(3)
H12 H 0.2894 0.4685 0.4165
B1 B 0.41061(16) 0.1004(3) 0.5192(3)
C24 C 0.32329(14) -0.0139(3) 0.4162(3)
H13 H 0.3018 -0.0553 0.3706
C25 C 0.36876(14) -0.2675(3) 0.6921(3)
H14 H 0.3870 -0.2644 0.7528
C26 C 0.43924(16) 0.4158(4) 0.8640(3)
H15 H 0.4409 0.4860 0.8980
C27 C 0.31291(15) -0.3684(3) 0.5759(3)
H16 H 0.2938 -0.4361 0.5585
O2 O 0.00936(16) 0.2211(3) 0.6582(3)
O3? O 0.0000 0.2121(7) 0.7500
loop_
_geom_bond_atom_site_label_1
_geom_bond_atom_site_label_2
_geom_bond_site_symmetry_1
_geom_bond_site_symmetry_2
N1 C1 1_555 1_555
O1 H1 1_555 1_555
N2 C2 1_555 1_555
N3 C4 1_555 1_555
C1 C3 1_555 1_555
C2 C7 1_555 1_555
C3 C13 1_555 1_555
C4 C8 1_555 1_555
C5 N2 1_555 1_555
C6 N1 1_555 1_555
C7 C6 1_555 1_555
H2 C7 1_555 1_555
C8 C1 1_555 1_555
H3 C8 1_555 1_555
C9 C2 1_555 1_555
C10 C4 1_555 1_555
C11 C5 1_555 1_555
C12 C11 1_555 1_555
H4 C12 1_555 1_555
C13 C6 1_555 1_555
C14 N3 1_555 1_555
C15 C10 1_555 1_555
C16 C13 1_555 1_555
H5 C16 1_555 1_555
C17 C16 1_555 1_555
H6 C17 1_555 1_555
C18 H7 1_555 1_555
C19 C15 1_555 1_555
H8 C19 1_555 1_555
C20 H9 1_555 1_555
C21 C3 1_555 1_555
H10 C21 1_555 1_555
C22 C18 1_555 1_555
H11 C22 1_555 1_555
C23 C10 1_555 1_555
H12 C23 1_555 1_555
B1 N1 1_555 1_555
C24 C5 1_555 1_555
H13 C24 1_555 1_555
C25 C9 1_555 1_555
H14 C25 1_555 1_555
C26 C17 1_555 1_555
H15 C26 1_555 1_555
C27 C12 1_555 1_555
H16 C27 1_555 1_555
O1 B1 1_555 1_555
N2 B1 1_555 1_555
N3 B1 1_555 1_555
C9 C11 1_555 1_555
C14 C15 1_555 1_555
C14 C24 1_555 1_555
C18 C19 1_555 1_555
C20 C25 1_555 1_555
C20 C27 1_555 1_555
C21 C26 1_555 1_555
C22 C23 1_555 1_555

#END
