
#######################################################################
#
#                 Cambridge Crystallographic Data Centre
#                                CCDC 
#
#######################################################################
#
# If this CIF has been generated from an entry in the Cambridge 
# Structural Database, then it will include bibliographic, chemical, 
# crystal, experimental, refinement or atomic coordinate data resulting 
# from the CCDC's data processing and validation procedures.
#
#######################################################################

data_PEFVEC
_chemical_formula_moiety         'C24 H46 N2 O4 S2'
_chemical_name_systematic        
(2E,1S,4S)-N,N'-bis-(t-butylsulfonyl)-1,4-dicyclohexylbut-2-ene-1,4-diamine
_symmetry_cell_setting           monoclinic
_symmetry_space_group_name_H-M   'P 21'
_symmetry_Int_Tables_number      4
_space_group_name_Hall           'P 2yb'
loop_
_symmetry_equiv_pos_site_id
_symmetry_equiv_pos_as_xyz
1 x,y,z
2 -x,1/2+y,-z
_cell_length_a                   12.0205(2)
_cell_length_b                   9.4000(2)
_cell_length_c                   12.7518(3)
_cell_angle_alpha                90
_cell_angle_beta                 112.6566(10)
_cell_angle_gamma                90
_cell_volume                     1329.67
_exptl_crystal_colour            colorless
_exptl_crystal_description       prism
_chemical_melting_point          '481 K'
_cell_formula_units_Z            2
_exptl_crystal_recrystallization_method acetone
loop_
_atom_site_label
_atom_site_type_symbol
_atom_site_fract_x
_atom_site_fract_y
_atom_site_fract_z
C1 C 0.50522(18) 0.6181(2) 0.23534(17)
C2 C 0.55086(18) 0.7281(2) 0.32890(16)
C3 C 0.68991(19) 0.7189(2) 0.39082(17)
C4 C 0.73810(18) 0.8347(3) 0.48089(17)
C5 C 0.8759(2) 0.8297(3) 0.54029(18)
C6 C 0.9339(2) 0.8430(3) 0.4532(2)
C7 C 0.8896(2) 0.7258(3) 0.3652(2)
C8 C 0.7519(2) 0.7281(3) 0.30597(19)
N1 N 0.49304(17) 0.7128(2) 0.41123(16)
S1 S 0.41068(5) 0.82997(7) 0.43674(4)
O1 O 0.40179(14) 0.78936(18) 0.54212(13)
O2 O 0.45584(15) 0.97002(17) 0.42857(14)
C9 C 0.25939(18) 0.8199(3) 0.32704(18)
C10 C 0.1863(2) 0.9386(3) 0.3537(2)
C11 C 0.2079(2) 0.6738(3) 0.3340(2)
C12 C 0.2662(2) 0.8446(3) 0.21104(18)
C13 C 0.45639(19) 0.4941(2) 0.24305(18)
C14 C 0.41658(19) 0.3822(2) 0.15173(17)
C15 C 0.27817(19) 0.3570(2) 0.10543(17)
C16 C 0.2356(2) 0.2608(3) 0.00067(18)
C17 C 0.0986(2) 0.2438(3) -0.0493(2)
C18 C 0.0538(2) 0.1871(3) 0.0395(2)
C19 C 0.0968(2) 0.2810(3) 0.1451(2)
C20 C 0.2342(2) 0.2974(2) 0.19439(18)
N2 N 0.48277(17) 0.2484(2) 0.19872(16)
S2 S 0.55937(5) 0.15783(7) 0.14216(5)
O3 O 0.58332(17) 0.02339(19) 0.20033(17)
O4 O 0.49466(15) 0.1611(2) 0.02120(12)
C21 C 0.7047(2) 0.2411(3) 0.17120(19)
C22 C 0.7772(2) 0.1338(3) 0.1330(3)
C23 C 0.6863(3) 0.3775(3) 0.1010(2)
C24 C 0.7651(2) 0.2727(3) 0.2978(2)
H1 H 0.501(2) 0.644(3) 0.445(2)
H2 H 0.511(2) 0.238(3) 0.264(2)
H3 H 0.5125 0.6408 0.1616
H4 H 0.5292 0.8238 0.2924
H5 H 0.7088 0.6244 0.4297
H6 H 0.7139 0.9297 0.4437
H7 H 0.7021 0.8215 0.5391
H8 H 0.9038 0.9100 0.5957
H9 H 0.9004 0.7372 0.5816
H10 H 1.0235 0.8358 0.4930
H11 H 0.9125 0.9374 0.4144
H12 H 0.9256 0.7394 0.3071
H13 H 0.9154 0.6317 0.4035
H14 H 0.7270 0.8187 0.2620
H15 H 0.7257 0.6454 0.2527
H16 H 0.1019 0.9378 0.2955
H17 H 0.2243 1.0328 0.3521
H18 H 0.1851 0.9225 0.4308
H19 H 0.1246 0.6659 0.2744
H20 H 0.2050 0.6611 0.4108
H21 H 0.2603 0.5986 0.3215
H22 H 0.1834 0.8392 0.1503
H23 H 0.3013 0.9407 0.2097
H24 H 0.3183 0.7700 0.1973
H25 H 0.4451 0.4734 0.3153
H26 H 0.4355 0.4156 0.0860
H27 H 0.2416 0.4535 0.0836
H28 H 0.2614 0.3033 -0.0583
H29 H 0.2735 0.1649 0.0228
H30 H 0.0606 0.3384 -0.0768
H31 H 0.0752 0.1757 -0.1145
H32 H -0.0363 0.1852 0.0063
H33 H 0.0853 0.0884 0.0614
H34 H 0.0591 0.3771 0.1244
H35 H 0.0715 0.2370 0.2038
H36 H 0.2585 0.3638 0.2607
H37 H 0.2721 0.2022 0.2201
H38 H 0.8587 0.1739 0.1469
H39 H 0.7862 0.0434 0.1769
H40 H 0.7340 0.1138 0.0500
H41 H 0.7662 0.4235 0.1169
H42 H 0.6473 0.3538 0.0184
H43 H 0.6335 0.4443 0.1220
H44 H 0.8451 0.3185 0.3141
H45 H 0.7769 0.1819 0.3416
H46 H 0.7129 0.3383 0.3207
loop_
_geom_bond_atom_site_label_1
_geom_bond_atom_site_label_2
_geom_bond_site_symmetry_1
_geom_bond_site_symmetry_2
C1 C2 1_555 1_555
C2 C3 1_555 1_555
C3 C4 1_555 1_555
C4 C5 1_555 1_555
C5 C6 1_555 1_555
C6 C7 1_555 1_555
C7 C8 1_555 1_555
C8 C3 1_555 1_555
N1 C2 1_555 1_555
S1 N1 1_555 1_555
O1 S1 1_555 1_555
O2 S1 1_555 1_555
C9 S1 1_555 1_555
C10 C9 1_555 1_555
C11 C9 1_555 1_555
C12 C9 1_555 1_555
C13 C1 1_555 1_555
C14 C13 1_555 1_555
C15 C14 1_555 1_555
C16 C15 1_555 1_555
C17 C16 1_555 1_555
C18 C17 1_555 1_555
C19 C18 1_555 1_555
C20 C15 1_555 1_555
N2 C14 1_555 1_555
S2 N2 1_555 1_555
O3 S2 1_555 1_555
O4 S2 1_555 1_555
C21 S2 1_555 1_555
C22 C21 1_555 1_555
C23 C21 1_555 1_555
C24 C21 1_555 1_555
H1 N1 1_555 1_555
H2 N2 1_555 1_555
H3 C1 1_555 1_555
H4 C2 1_555 1_555
H5 C3 1_555 1_555
H6 C4 1_555 1_555
H7 C4 1_555 1_555
H8 C5 1_555 1_555
H9 C5 1_555 1_555
H10 C6 1_555 1_555
H11 C6 1_555 1_555
H12 C7 1_555 1_555
H13 C7 1_555 1_555
H14 C8 1_555 1_555
H15 C8 1_555 1_555
H16 C10 1_555 1_555
H17 C10 1_555 1_555
H18 C10 1_555 1_555
H19 C11 1_555 1_555
H20 C11 1_555 1_555
H21 C11 1_555 1_555
H22 C12 1_555 1_555
H23 C12 1_555 1_555
H24 C12 1_555 1_555
H25 C13 1_555 1_555
H26 C14 1_555 1_555
H27 C15 1_555 1_555
H28 C16 1_555 1_555
H29 C16 1_555 1_555
H30 C17 1_555 1_555
H31 C17 1_555 1_555
H32 C18 1_555 1_555
H33 C18 1_555 1_555
H34 C19 1_555 1_555
H35 C19 1_555 1_555
H36 C20 1_555 1_555
H37 C20 1_555 1_555
H38 C22 1_555 1_555
H39 C22 1_555 1_555
H40 C22 1_555 1_555
H41 C23 1_555 1_555
H42 C23 1_555 1_555
H43 C23 1_555 1_555
H44 C24 1_555 1_555
H45 C24 1_555 1_555
H46 C24 1_555 1_555
C19 C20 1_555 1_555

#END
