
#######################################################################
#
#                 Cambridge Crystallographic Data Centre
#                                CCDC 
#
#######################################################################
#
# If this CIF has been generated from an entry in the Cambridge 
# Structural Database, then it will include bibliographic, chemical, 
# crystal, experimental, refinement or atomic coordinate data resulting 
# from the CCDC's data processing and validation procedures.
#
#######################################################################

data_PEFVII
_chemical_formula_moiety         'C6 H16 N1 O3 1+,C7 H5 O3 1-'
_chemical_name_systematic        'N,N,N-tris(2-hydroxyethyl)ammonium salicylate'
_symmetry_cell_setting           orthorhombic
_symmetry_space_group_name_H-M   'P c a 21'
_symmetry_Int_Tables_number      29
_space_group_name_Hall           'P 2c -2ac'
loop_
_symmetry_equiv_pos_site_id
_symmetry_equiv_pos_as_xyz
1 x,y,z
2 -x,-y,1/2+z
3 1/2-x,y,1/2+z
4 1/2+x,-y,z
_cell_length_a                   10.3205(7)
_cell_length_b                   11.2445(8)
_cell_length_c                   24.3654(17)
_cell_angle_alpha                90
_cell_angle_beta                 90
_cell_angle_gamma                90
_cell_volume                     2827.58
_exptl_crystal_colour            colorless
_exptl_crystal_description       prism
_cell_formula_units_Z            8
loop_
_atom_site_label
_atom_site_type_symbol
_atom_site_fract_x
_atom_site_fract_y
_atom_site_fract_z
O1 O 0.53944(11) 0.11592(11) 0.37760(5)
H1 H 0.4869(3) 0.1219(18) 0.40268(6)
N1 N 0.71499(15) 0.00361(10) 0.30955(8)
H2 H 0.62686(15) 0.00576(10) 0.30895(8)
O2 O 0.53975(11) -0.17957(9) 0.30349(6)
H3 H 0.49273(13) -0.2353(7) 0.2949(8)
O3 O 0.55066(11) 0.10784(10) 0.23199(6)
H4 H 0.50652(12) 0.1672(4) 0.2263(10)
C1 C 0.75876(16) 0.09276(14) 0.35201(7)
H5 H 0.84461(16) 0.07180(14) 0.36502(7)
H6 H 0.76332(16) 0.17124(14) 0.33560(7)
C2 C 0.76099(17) 0.03558(15) 0.25246(7)
H7 H 0.85217(17) 0.05632(15) 0.25370(7)
H8 H 0.75126(17) -0.03273(15) 0.22850(7)
C3 C 0.66500(16) 0.09453(14) 0.39977(7)
H9 H 0.68823(16) 0.15693(14) 0.42544(7)
H10 H 0.66672(16) 0.01896(14) 0.41895(7)
C4 C 0.67196(16) -0.21268(13) 0.29589(8)
H11 H 0.68755(16) -0.29118(13) 0.31102(8)
H12 H 0.69317(16) -0.21409(13) 0.25711(8)
C5 C 0.68474(16) 0.13874(15) 0.22959(8)
H13 H 0.71024(16) 0.15413(15) 0.19194(8)
H14 H 0.70088(16) 0.20984(15) 0.25108(8)
C6 C 0.75357(16) -0.12134(13) 0.32522(8)
H15 H 0.84406(16) -0.13382(13) 0.31614(8)
H16 H 0.74383(16) -0.13139(13) 0.36455(8)
O4 O 0.70408(11) 0.38779(10) 0.36488(5)
H17 H 0.7585(3) 0.3885(17) 0.34036(12)
N2 N 0.52786(15) 0.50139(10) 0.43236(8)
H18 H 0.61585(15) 0.49731(10) 0.43385(8)
O5 O 0.70881(10) 0.68123(9) 0.43798(6)
H19 H 0.75705(11) 0.7341(8) 0.4489(8)
O6 O 0.68754(11) 0.39878(10) 0.51006(5)
H20 H 0.73184(12) 0.3403(5) 0.5172(9)
C7 C 0.48433(16) 0.41279(13) 0.38918(7)
H21 H 0.47808(16) 0.33424(13) 0.40542(7)
H22 H 0.39921(16) 0.43486(13) 0.37572(7)
C8 C 0.47854(16) 0.47090(15) 0.48868(7)
H23 H 0.48716(16) 0.53952(15) 0.51253(7)
H24 H 0.38740(16) 0.45031(15) 0.48657(7)
C9 C 0.57907(15) 0.41002(15) 0.34205(7)
H25 H 0.57855(15) 0.48549(15) 0.32276(7)
H26 H 0.55598(15) 0.34765(15) 0.31634(7)
C10 C 0.49376(16) 0.62714(13) 0.41588(8)
H27 H 0.50584(16) 0.63644(13) 0.37664(8)
H28 H 0.40332(16) 0.64226(13) 0.42416(8)
C11 C 0.55372(16) 0.36755(15) 0.51250(8)
H29 H 0.53770(16) 0.29588(15) 0.49140(8)
H30 H 0.52775(16) 0.35339(15) 0.55020(8)
C12 C 0.57741(15) 0.71621(13) 0.44594(8)
H31 H 0.55636(15) 0.71653(13) 0.48474(8)
H32 H 0.56332(15) 0.79550(13) 0.43144(8)
O7 O 0.87137(11) 0.35529(10) 0.27879(5)
O8 O 0.81586(12) 0.54478(10) 0.26611(5)
O9 O 0.93773(12) 0.67499(10) 0.20206(5)
H33 H 0.8870(16) 0.6558(3) 0.2264(6)
C13 C 0.97308(16) 0.46348(14) 0.20574(7)
C14 C 1.03785(17) 0.36477(15) 0.18483(7)
H34 H 1.01748(17) 0.28950(15) 0.19809(7)
C15 C 1.00146(16) 0.57684(15) 0.18367(8)
C16 C 0.87992(16) 0.45303(14) 0.25267(8)
C17 C 1.13204(19) 0.37638(18) 0.14465(9)
H35 H 1.17522(19) 0.30974(18) 0.13136(9)
C18 C 1.09612(19) 0.58867(17) 0.14313(9)
H36 H 1.11523(19) 0.66329(17) 0.12880(9)
C19 C 1.1614(2) 0.48959(18) 0.12432(10)
H37 H 1.2255(2) 0.49818(18) 0.09782(10)
O10 O 0.37321(11) 0.14132(9) 0.46561(5)
O11 O 0.43039(12) -0.04858(9) 0.47273(5)
O12 O 0.31442(12) -0.18808(10) 0.53352(5)
H38 H 0.3681(15) -0.1643(2) 0.5113(7)
C20 C 0.27253(17) 0.02235(15) 0.53539(8)
C21 C 0.15289(19) -0.11281(17) 0.59468(8)
H39 H 0.13448(19) -0.18973(17) 0.60633(8)
C22 C 0.36523(15) 0.04088(14) 0.48865(8)
C23 C 0.20582(18) 0.11759(15) 0.55934(8)
H40 H 0.22274(18) 0.19472(15) 0.54757(8)
C24 C 0.11450(19) 0.09857(18) 0.60054(9)
H41 H 0.07231(19) 0.16257(18) 0.61683(9)
C25 C 0.24776(18) -0.09386(14) 0.55426(8)
C26 C 0.0869(2) -0.0180(2) 0.61716(10)
H42 H 0.0236(2) -0.0315(2) 0.64358(10)
loop_
_geom_bond_atom_site_label_1
_geom_bond_atom_site_label_2
_geom_bond_site_symmetry_1
_geom_bond_site_symmetry_2
O1 H1 1_555 1_555
N1 H2 1_555 1_555
O2 H3 1_555 1_555
O3 H4 1_555 1_555
C1 N1 1_555 1_555
H5 C1 1_555 1_555
H6 C1 1_555 1_555
C2 N1 1_555 1_555
H7 C2 1_555 1_555
H8 C2 1_555 1_555
C3 O1 1_555 1_555
H9 C3 1_555 1_555
H10 C3 1_555 1_555
C4 O2 1_555 1_555
H11 C4 1_555 1_555
H12 C4 1_555 1_555
C5 O3 1_555 1_555
H13 C5 1_555 1_555
H14 C5 1_555 1_555
C6 N1 1_555 1_555
H15 C6 1_555 1_555
H16 C6 1_555 1_555
O4 H17 1_555 1_555
N2 H18 1_555 1_555
O5 H19 1_555 1_555
O6 H20 1_555 1_555
C7 N2 1_555 1_555
H21 C7 1_555 1_555
H22 C7 1_555 1_555
C8 N2 1_555 1_555
H23 C8 1_555 1_555
H24 C8 1_555 1_555
C9 O4 1_555 1_555
H25 C9 1_555 1_555
H26 C9 1_555 1_555
C10 N2 1_555 1_555
H27 C10 1_555 1_555
H28 C10 1_555 1_555
C11 O6 1_555 1_555
H29 C11 1_555 1_555
H30 C11 1_555 1_555
C12 O5 1_555 1_555
H31 C12 1_555 1_555
H32 C12 1_555 1_555
O7 C16 1_555 1_555
O8 C16 1_555 1_555
O9 H33 1_555 1_555
C13 C14 1_555 1_555
C14 H34 1_555 1_555
C15 O9 1_555 1_555
C16 C13 1_555 1_555
C17 C14 1_555 1_555
H35 C17 1_555 1_555
C18 C15 1_555 1_555
H36 C18 1_555 1_555
C19 C17 1_555 1_555
H37 C19 1_555 1_555
O10 C22 1_555 1_555
O11 C22 1_555 1_555
O12 H38 1_555 1_555
C20 C22 1_555 1_555
C21 H39 1_555 1_555
C23 C20 1_555 1_555
H40 C23 1_555 1_555
C24 C23 1_555 1_555
H41 C24 1_555 1_555
C25 O12 1_555 1_555
C26 C21 1_555 1_555
H42 C26 1_555 1_555
C1 C3 1_555 1_555
C2 C5 1_555 1_555
C4 C6 1_555 1_555
C7 C9 1_555 1_555
C8 C11 1_555 1_555
C10 C12 1_555 1_555
C13 C15 1_555 1_555
C18 C19 1_555 1_555
C20 C25 1_555 1_555
C21 C25 1_555 1_555
C24 C26 1_555 1_555

#END
