
#######################################################################
#
#                 Cambridge Crystallographic Data Centre
#                                CCDC 
#
#######################################################################
#
# If this CIF has been generated from an entry in the Cambridge 
# Structural Database, then it will include bibliographic, chemical, 
# crystal, experimental, refinement or atomic coordinate data resulting 
# from the CCDC's data processing and validation procedures.
#
#######################################################################

data_PEGHEP
_chemical_formula_moiety         'C11 H12 O3'
_chemical_name_systematic        
(E)-4-(4-Hydroxy-3-methoxyphenyl)but-3-en-2-one
_symmetry_cell_setting           monoclinic
_symmetry_space_group_name_H-M   'P 21/c'
_symmetry_Int_Tables_number      14
_space_group_name_Hall           '-P 2ybc'
loop_
_symmetry_equiv_pos_site_id
_symmetry_equiv_pos_as_xyz
1 x,y,z
2 -x,1/2+y,1/2-z
3 -x,-y,-z
4 x,1/2-y,1/2+z
_cell_length_a                   9.602(5)
_cell_length_b                   7.780(4)
_cell_length_c                   13.478(7)
_cell_angle_alpha                90
_cell_angle_beta                 97.466(8)
_cell_angle_gamma                90
_cell_volume                     998.319
_exptl_crystal_colour            colorless
_exptl_crystal_description       prism
_cell_formula_units_Z            4
_exptl_crystal_recrystallization_method ethanol/dichloromethane
loop_
_atom_site_label
_atom_site_type_symbol
_atom_site_fract_x
_atom_site_fract_y
_atom_site_fract_z
O1 O 1.20118(12) 0.80293(18) 0.28139(8)
H1 H 1.2674 0.7414 0.2716
C1 C 0.80091(15) 0.82090(19) -0.06027(11)
H2 H 0.8317 0.7829 -0.1191
C2 C 0.90466(13) 0.82078(18) 0.02899(10)
O2 O 1.26019(11) 0.64976(17) 0.11386(8)
C3 C 1.03328(14) 0.73781(19) 0.02537(10)
H3 H 1.0519 0.6873 -0.0340
C4 C 1.10596(14) 0.80697(19) 0.19783(10)
C5 C 1.13266(14) 0.73009(19) 0.10883(10)
C6 C 0.88071(15) 0.8990(2) 0.11778(11)
H4 H 0.7965 0.9563 0.1212
O3 O 0.44087(11) 0.88424(18) -0.15226(9)
C7 C 0.66655(15) 0.8696(2) -0.06681(12)
H5 H 0.6358 0.9171 -0.0102
C8 C 0.56503(15) 0.8534(2) -0.15629(12)
C9 C 0.98065(16) 0.8924(2) 0.20102(11)
H6 H 0.9635 0.9462 0.2599
C10 C 1.31211(18) 0.6130(3) 0.02279(13)
H7 H 1.3154 0.7170 -0.0152
H8 H 1.2513 0.5316 -0.0148
H9 H 1.4049 0.5656 0.0366
C11 C 0.61088(19) 0.7969(3) -0.25261(14)
H10 H 0.5309 0.7915 -0.3033
H11 H 0.6534 0.6853 -0.2442
H12 H 0.6778 0.8775 -0.2724
loop_
_geom_bond_atom_site_label_1
_geom_bond_atom_site_label_2
_geom_bond_site_symmetry_1
_geom_bond_site_symmetry_2
O1 H1 1_555 1_555
C1 H2 1_555 1_555
C2 C1 1_555 1_555
O2 C5 1_555 1_555
C3 C2 1_555 1_555
H3 C3 1_555 1_555
C4 O1 1_555 1_555
C5 C3 1_555 1_555
C6 C2 1_555 1_555
H4 C6 1_555 1_555
O3 C8 1_555 1_555
C7 C1 1_555 1_555
H5 C7 1_555 1_555
C8 C7 1_555 1_555
C9 C4 1_555 1_555
H6 C9 1_555 1_555
C10 O2 1_555 1_555
H7 C10 1_555 1_555
H8 C10 1_555 1_555
H9 C10 1_555 1_555
C11 C8 1_555 1_555
H10 C11 1_555 1_555
H11 C11 1_555 1_555
H12 C11 1_555 1_555
C4 C5 1_555 1_555
C6 C9 1_555 1_555

#END
