
#######################################################################
#
#                 Cambridge Crystallographic Data Centre
#                                CCDC 
#
#######################################################################
#
# If this CIF has been generated from an entry in the Cambridge 
# Structural Database, then it will include bibliographic, chemical, 
# crystal, experimental, refinement or atomic coordinate data resulting 
# from the CCDC's data processing and validation procedures.
#
#######################################################################

data_PEGJOD
_chemical_formula_moiety         'C26 H35 I1 O4 Si1'
_chemical_name_systematic        
4-(2-{[t-butyl(dimethyl)silyl]oxy}-1-iodo-4-phenylbutyl)-6-phenyl-1,3-dioxan-2-one
_symmetry_cell_setting           triclinic
_symmetry_space_group_name_H-M   'P -1'
_symmetry_Int_Tables_number      2
_space_group_name_Hall           '-P 1'
loop_
_symmetry_equiv_pos_site_id
_symmetry_equiv_pos_as_xyz
1 x,y,z
2 -x,-y,-z
_cell_length_a                   10.685
_cell_length_b                   16.542
_cell_length_c                   16.552
_cell_angle_alpha                90.62
_cell_angle_beta                 108.12
_cell_angle_gamma                92.72
_cell_volume                     2776.36
_exptl_crystal_colour            colorless
_exptl_crystal_description       block
_cell_formula_units_Z            4
loop_
_atom_site_label
_atom_site_type_symbol
_atom_site_fract_x
_atom_site_fract_y
_atom_site_fract_z
Si1 Si -0.0284(3) 0.0582(2) 0.80093(18)
I1 I 0.29706(6) 0.02060(4) 0.65474(4)
O1 O 0.1002(5) 0.0655(3) 0.7660(4)
O2 O 0.3010(5) -0.0409(3) 0.9074(3)
O3 O 0.3838(6) -0.0472(3) 1.0460(3)
O4 O 0.4546(5) -0.1313(3) 0.9696(3)
C1 C 0.4097(6) 0.3027(4) 0.8217(5)
C2 C 0.4307(7) 0.3392(5) 0.7499(6)
H1 H 0.4429 0.3066 0.7072
C3 C 0.4335(9) 0.4215(6) 0.7418(8)
H2 H 0.4458 0.4444 0.6936
C4 C 0.4183(11) 0.4683(6) 0.8034(11)
H3 H 0.4179 0.5240 0.7969
C5 C 0.4034(12) 0.4375(9) 0.8753(10)
H4 H 0.3992 0.4717 0.9192
C6 C 0.3942(10) 0.3514(7) 0.8830(6)
H5 H 0.3775 0.3294 0.9303
C7 C 0.3977(8) 0.2120(4) 0.8265(6)
H6 H 0.4254 0.1968 0.8857
H7 H 0.4559 0.1879 0.7993
C8 C 0.2557(7) 0.1787(4) 0.7831(5)
H8 H 0.1956 0.2133 0.7987
H9 H 0.2369 0.1808 0.7219
C9 C 0.2300(7) 0.0923(4) 0.8064(5)
H10 H 0.2427 0.0929 0.8677
C10 C 0.3251(6) 0.0322(4) 0.7898(4)
H11 H 0.4155 0.0536 0.8180
C11 C 0.3105(7) -0.0527(4) 0.8220(4)
H12 H 0.2281 -0.0794 0.7856
C12 C 0.4236(7) -0.1040(4) 0.8223(4)
H13 H 0.5046 -0.0703 0.8360
H14 H 0.4078 -0.1285 0.7662
C13 C 0.4377(6) -0.1696(3) 0.8870(4)
H15 H 0.3571 -0.2050 0.8711
C14 C 0.3820(6) -0.0728(3) 0.9774(4)
C15 C 0.5537(6) -0.2199(3) 0.8977(4)
C16 C 0.6809(8) -0.1851(5) 0.9238(6)
H16 H 0.6947 -0.1299 0.9365
C17 C 0.7858(9) -0.2314(6) 0.9311(7)
H17 H 0.8704 -0.2068 0.9468
C18 C 0.7692(9) -0.3133(6) 0.9155(5)
H18 H 0.8416 -0.3444 0.9212
C19 C 0.6470(9) -0.3477(5) 0.8920(6)
H19 H 0.6352 -0.4035 0.8822
C20 C 0.5378(7) -0.3026(4) 0.8819(5)
H20 H 0.4537 -0.3278 0.8646
C21 C -0.005(2) 0.097(2) 0.9010(14)
C22 C -0.069(2) -0.0639(8) 0.800(2)
C23 C -0.1713(16) 0.0861(11) 0.7124(15)
C24 C -0.1775(15) 0.0357(13) 0.6283(10)
C25 C -0.2982(13) 0.0576(16) 0.7422(14)
C26 C -0.129(3) 0.1845(10) 0.720(2)
I2 I -0.00171(8) -0.18531(3) 0.55032(5)
O5 O -0.2597(5) -0.2844(3) 0.5768(3)
O6 O -0.1665(6) -0.4255(3) 0.4676(3)
O7 O -0.1916(6) -0.5537(3) 0.4368(4)
O8 O -0.1055(5) -0.4769(3) 0.3593(3)
C27 C 0.1072(7) -0.3274(5) 0.8383(5)
C28 C 0.1756(11) -0.3854(6) 0.8871(6)
H21 H 0.1766 -0.4364 0.8631
C29 C 0.2450(13) -0.3699(8) 0.9732(7)
H22 H 0.2966 -0.4092 1.0051
C30 C 0.2370(10) -0.2979(8) 1.0096(6)
H23 H 0.2808 -0.2882 1.0672
C31 C 0.1673(9) -0.2411(6) 0.9640(6)
H24 H 0.1628 -0.1917 0.9901
C32 C 0.1003(8) -0.2534(5) 0.8780(5)
H25 H 0.0513 -0.2127 0.8469
C33 C 0.0471(10) -0.3433(6) 0.7435(6)
H26 H 0.1119 -0.3269 0.7161
H27 H 0.0285 -0.4012 0.7334
C34 C -0.0781(8) -0.3008(5) 0.7019(5)
H28 H -0.0575 -0.2429 0.7052
H29 H -0.1394 -0.3116 0.7335
C35 C -0.1446(7) -0.3260(4) 0.6098(4)
H30 H -0.1698 -0.3839 0.6077
C36 C -0.0566(6) -0.3127(4) 0.5530(5)
H31 H 0.0243 -0.3413 0.5777
C37 C -0.1187(6) -0.3429(4) 0.4601(4)
H32 H -0.1935 -0.3104 0.4321
C38 C -0.0242(7) -0.3412(4) 0.4098(4)
H33 H -0.0111 -0.2863 0.3927
H34 H 0.0604 -0.3592 0.4443
C39 C -0.0783(6) -0.3953(4) 0.3331(4)
H35 H -0.1606 -0.3744 0.2966
C40 C -0.1560(6) -0.4877(4) 0.4217(4)
C41 C 0.0142(6) -0.4062(4) 0.2817(4)
C42 C -0.0272(9) -0.3914(6) 0.1952(5)
H36 H -0.1119 -0.3748 0.1691
C43 C 0.0585(12) -0.4015(8) 0.1475(6)
H37 H 0.0318 -0.3910 0.0897
C44 C 0.1843(11) -0.4273(8) 0.1876(7)
H38 H 0.2420 -0.4344 0.1564
C45 C 0.2220(10) -0.4418(8) 0.2690(7)
H39 H 0.3067 -0.4587 0.2946
C46 C 0.1396(8) -0.4328(6) 0.3181(5)
H40 H 0.1686 -0.4445 0.3755
C47 C -0.4330(17) -0.3755(11) 0.6544(11)
Si2 Si -0.4131(3) -0.3126(3) 0.5695(3)
C48 C -0.489(3) -0.377(2) 0.4725(16)
C49 C -0.494(2) -0.2165(16) 0.564(2)
C50 C -0.4602(18) -0.1575(15) 0.5055(19)
C51 C -0.6498(15) -0.2383(12) 0.5404(17)
C52 C -0.390(4) -0.1806(15) 0.6801(16)
Si3? Si -0.3916(14) -0.2761(11) 0.6117(14)
C53? C -0.329(17) -0.195(14) 0.704(14)
C54? C -0.522(4) -0.240(3) 0.5083(18)
C55? C -0.505(4) -0.223(4) 0.432(3)
loop_
_geom_bond_atom_site_label_1
_geom_bond_atom_site_label_2
_geom_bond_site_symmetry_1
_geom_bond_site_symmetry_2
Si1 O1 1_555 1_555
I1 C10 1_555 1_555
O1 C9 1_555 1_555
O2 C11 1_555 1_555
O3 C14 1_555 1_555
O4 C13 1_555 1_555
C1 C2 1_555 1_555
C2 H1 1_555 1_555
C3 C2 1_555 1_555
H2 C3 1_555 1_555
C4 C3 1_555 1_555
H3 C4 1_555 1_555
C5 C4 1_555 1_555
H4 C5 1_555 1_555
C6 C1 1_555 1_555
H5 C6 1_555 1_555
C7 C1 1_555 1_555
H6 C7 1_555 1_555
H7 C7 1_555 1_555
C8 C7 1_555 1_555
H8 C8 1_555 1_555
H9 C8 1_555 1_555
C9 C8 1_555 1_555
H10 C9 1_555 1_555
C10 C9 1_555 1_555
H11 C10 1_555 1_555
C11 C10 1_555 1_555
H12 C11 1_555 1_555
C12 C11 1_555 1_555
H13 C12 1_555 1_555
H14 C12 1_555 1_555
C13 C12 1_555 1_555
H15 C13 1_555 1_555
C14 O2 1_555 1_555
C15 C13 1_555 1_555
C16 C15 1_555 1_555
H16 C16 1_555 1_555
C17 C16 1_555 1_555
H17 C17 1_555 1_555
C18 C17 1_555 1_555
H18 C18 1_555 1_555
C19 C18 1_555 1_555
H19 C19 1_555 1_555
C20 C15 1_555 1_555
H20 C20 1_555 1_555
C21 Si1 1_555 1_555
C22 Si1 1_555 1_555
C23 Si1 1_555 1_555
C24 C23 1_555 1_555
C25 C23 1_555 1_555
C26 C23 1_555 1_555
I2 C36 1_555 1_555
O5 C35 1_555 1_555
O6 C37 1_555 1_555
O7 C40 1_555 1_555
O8 C39 1_555 1_555
C27 C28 1_555 1_555
C28 H21 1_555 1_555
C29 C28 1_555 1_555
H22 C29 1_555 1_555
C30 C29 1_555 1_555
H23 C30 1_555 1_555
C31 C30 1_555 1_555
H24 C31 1_555 1_555
C32 C27 1_555 1_555
H25 C32 1_555 1_555
C33 C27 1_555 1_555
H26 C33 1_555 1_555
H27 C33 1_555 1_555
C34 C33 1_555 1_555
H28 C34 1_555 1_555
H29 C34 1_555 1_555
C35 C34 1_555 1_555
H30 C35 1_555 1_555
C36 C35 1_555 1_555
H31 C36 1_555 1_555
C37 C36 1_555 1_555
H32 C37 1_555 1_555
C38 C37 1_555 1_555
H33 C38 1_555 1_555
H34 C38 1_555 1_555
C39 C38 1_555 1_555
H35 C39 1_555 1_555
C40 O6 1_555 1_555
C41 C39 1_555 1_555
C42 C41 1_555 1_555
H36 C42 1_555 1_555
C43 C42 1_555 1_555
H37 C43 1_555 1_555
C44 C43 1_555 1_555
H38 C44 1_555 1_555
C45 C44 1_555 1_555
H39 C45 1_555 1_555
C46 C41 1_555 1_555
H40 C46 1_555 1_555
C47 Si2 1_555 1_555
Si2 O5 1_555 1_555
C48 Si2 1_555 1_555
C49 Si2 1_555 1_555
C50 C49 1_555 1_555
C51 C49 1_555 1_555
C52 C49 1_555 1_555
O4 C14 1_555 1_555
C5 C6 1_555 1_555
C19 C20 1_555 1_555
O8 C40 1_555 1_555
C31 C32 1_555 1_555
C45 C46 1_555 1_555

#END
