
#######################################################################
#
#                 Cambridge Crystallographic Data Centre
#                                CCDC 
#
#######################################################################
#
# If this CIF has been generated from an entry in the Cambridge 
# Structural Database, then it will include bibliographic, chemical, 
# crystal, experimental, refinement or atomic coordinate data resulting 
# from the CCDC's data processing and validation procedures.
#
#######################################################################

data_PEGJOB
_chemical_formula_moiety         'C4 H12 O7 P2 S1,H2 O1'
_chemical_name_systematic        
'(2-(Dimethylsulfonio)-1-hydroxy-1-phosphonoethyl)phosphonate monohydrate'
_symmetry_cell_setting           monoclinic
_symmetry_space_group_name_H-M   'P 21/c'
_symmetry_Int_Tables_number      14
_space_group_name_Hall           '-P 2ybc'
loop_
_symmetry_equiv_pos_site_id
_symmetry_equiv_pos_as_xyz
1 x,y,z
2 -x,1/2+y,1/2-z
3 -x,-y,-z
4 x,1/2-y,1/2+z
_cell_length_a                   7.1107(2)
_cell_length_b                   10.2149(3)
_cell_length_c                   15.1091(4)
_cell_angle_alpha                90
_cell_angle_beta                 101.653(10)
_cell_angle_gamma                90
_cell_volume                     1074.83
_exptl_crystal_colour            colorless
_exptl_crystal_description       column
_cell_formula_units_Z            4
_exptl_crystal_recrystallization_method ethanol/water
loop_
_atom_site_label
_atom_site_type_symbol
_atom_site_fract_x
_atom_site_fract_y
_atom_site_fract_z
P1 P 0.70350(3) -0.02181(2) 0.184030(14)
P2 P 1.11687(3) 0.07908(2) 0.257862(14)
S1 S 0.88103(3) 0.16268(2) 0.444383(14)
O1 O 1.08811(10) 0.17139(6) 0.17939(4)
O2 O 0.91288(10) -0.06711(6) 0.35237(4)
H1 H 0.912(2) -0.1419(12) 0.3316(10)
O3 O 1.23470(10) 0.14093(7) 0.34649(5)
H2 H 1.225(2) 0.2192(13) 0.3521(10)
O4 O 0.79874(9) -0.11594(7) 0.12925(4)
O5 O 0.65156(10) 0.10906(7) 0.13266(5)
H3 H 0.5447(19) 0.1248(16) 0.1109(11)
C1 C 0.88321(11) 0.03158(7) 0.28402(5)
O6 O 0.53863(9) -0.08127(7) 0.21842(5)
C2 C 0.79474(12) 0.15086(8) 0.32309(5)
H4 H 0.8313(19) 0.2341(12) 0.2988(9)
H5 H 0.6609(16) 0.1474(13) 0.3151(9)
O7 O 1.21452(10) -0.05179(7) 0.24599(6)
H6 H 1.3263(19) -0.0506(16) 0.2410(11)
C3 C 0.69581(15) 0.08011(12) 0.48719(7)
H7 H 0.7157 0.0932 0.5527
H8 H 0.6999 -0.0137 0.4741
H9 H 0.5704 0.1156 0.4582
C4 C 0.82372(15) 0.33028(10) 0.46176(7)
H10 H 0.6884 0.3464 0.4348
H11 H 0.9049 0.3874 0.4333
H12 H 0.8465 0.3487 0.5267
O8 O 0.31972(12) 0.17391(11) 0.05454(5)
H13 H 0.267(3) 0.1437(18) 0.0016(11)
H14 H 0.237(2) 0.1721(18) 0.0888(12)
loop_
_geom_bond_atom_site_label_1
_geom_bond_atom_site_label_2
_geom_bond_site_symmetry_1
_geom_bond_site_symmetry_2
P1 O4 1_555 1_555
P2 O1 1_555 1_555
S1 C2 1_555 1_555
O2 H1 1_555 1_555
O3 P2 1_555 1_555
H2 O3 1_555 1_555
O5 P1 1_555 1_555
H3 O5 1_555 1_555
C1 P1 1_555 1_555
O6 P1 1_555 1_555
C2 C1 1_555 1_555
H4 C2 1_555 1_555
H5 C2 1_555 1_555
O7 P2 1_555 1_555
H6 O7 1_555 1_555
C3 S1 1_555 1_555
H7 C3 1_555 1_555
H8 C3 1_555 1_555
H9 C3 1_555 1_555
C4 S1 1_555 1_555
H10 C4 1_555 1_555
H11 C4 1_555 1_555
H12 C4 1_555 1_555
O8 H13 1_555 1_555
H14 O8 1_555 1_555
P2 C1 1_555 1_555
O2 C1 1_555 1_555

#END
