
#######################################################################
#
#                 Cambridge Crystallographic Data Centre
#                                CCDC 
#
#######################################################################
#
# If this CIF has been generated from an entry in the Cambridge 
# Structural Database, then it will include bibliographic, chemical, 
# crystal, experimental, refinement or atomic coordinate data resulting 
# from the CCDC's data processing and validation procedures.
#
#######################################################################

data_PEGKOD
_chemical_formula_moiety         'C11 H12 N2 O1'
_chemical_name_systematic        
5-Methyl-2-(pyridin-2-ylamino)cyclopent-2-en-1-one
_symmetry_cell_setting           monoclinic
_symmetry_space_group_name_H-M   'P 21/n'
_symmetry_Int_Tables_number      14
_space_group_name_Hall           '-P 2yn'
loop_
_symmetry_equiv_pos_site_id
_symmetry_equiv_pos_as_xyz
1 x,y,z
2 1/2-x,1/2+y,1/2-z
3 -x,-y,-z
4 1/2+x,1/2-y,1/2+z
_cell_length_a                   7.133(5)
_cell_length_b                   15.809(5)
_cell_length_c                   9.126(5)
_cell_angle_alpha                90
_cell_angle_beta                 101.666(5)
_cell_angle_gamma                90
_cell_volume                     1007.84
_cell_formula_units_Z            4
loop_
_atom_site_label
_atom_site_type_symbol
_atom_site_fract_x
_atom_site_fract_y
_atom_site_fract_z
C1 C 0.4203(3) 0.56770(11) 0.7709(2)
C2 C 0.3569(3) 0.58859(12) 0.8950(2)
H1 H 0.4027 0.6360 0.9557
C3 C 0.6995(2) 0.65885(11) 0.75678(19)
C4 C 0.8371(3) 0.67886(12) 0.6719(2)
H2 H 0.8413 0.6489 0.5824
C5 C 0.9649(3) 0.74224(12) 0.7206(2)
H3 H 1.0588 0.7573 0.6649
C6 C 0.9559(3) 0.78447(13) 0.8527(2)
H4 H 1.0429 0.8288 0.8890
C7 C 0.8173(3) 0.76001(13) 0.9290(2)
H5 H 0.8119 0.7887 1.0195
N1 N 0.5685(2) 0.59551(9) 0.70657(16)
H6 H 0.5812 0.5698 0.6236
N2 N 0.6885(2) 0.69813(10) 0.88398(17)
O1 O 0.322(3) 0.4660(13) 0.5799(14)
C8 C 0.3159(9) 0.4926(5) 0.7047(8)
C9 C 0.2047(14) 0.5288(4) 0.9281(7)
H7 H 0.0798 0.5579 0.9176
H8 H 0.2413 0.5055 1.0306
C10 C 0.1960(5) 0.4587(2) 0.8100(4)
H9 H 0.2643 0.4083 0.8616
C11 C -0.0023(6) 0.4293(3) 0.7306(5)
H10 H -0.0757 0.4779 0.6830
H11 H -0.0691 0.4039 0.8036
H12 H 0.0104 0.3874 0.6542
C12? C 0.0794(8) 0.3982(3) 0.7722(6)
C13? C 0.2801(9) 0.5092(5) 0.6764(8)
C14? C 0.1162(6) 0.4924(2) 0.7550(4)
C15? C 0.1703(14) 0.5448(4) 0.8998(7)
H13? H 0.0581 0.3709 0.6739
H14? H -0.0341 0.3907 0.8161
H15? H 0.1905 0.3724 0.8378
H16? H -0.0021 0.5177 0.6930
H17? H 0.0694 0.5869 0.9054
H18? H 0.1853 0.5074 0.9884
O2? O 0.301(3) 0.4764(13) 0.5594(15)
loop_
_geom_bond_atom_site_label_1
_geom_bond_atom_site_label_2
_geom_bond_site_symmetry_1
_geom_bond_site_symmetry_2
C1 C2 1_555 1_555
C2 H1 1_555 1_555
C3 C4 1_555 1_555
C4 H2 1_555 1_555
C5 C4 1_555 1_555
H3 C5 1_555 1_555
C6 C5 1_555 1_555
H4 C6 1_555 1_555
C7 C6 1_555 1_555
H5 C7 1_555 1_555
N1 C1 1_555 1_555
H6 N1 1_555 1_555
N2 C3 1_555 1_555
O1 C8 1_555 1_555
C8 C1 1_555 1_555
C9 C2 1_555 1_555
H7 C9 1_555 1_555
H8 C9 1_555 1_555
C10 C8 1_555 1_555
H9 C10 1_555 1_555
C11 C10 1_555 1_555
H10 C11 1_555 1_555
H11 C11 1_555 1_555
H12 C11 1_555 1_555
C3 N1 1_555 1_555
C7 N2 1_555 1_555
C9 C10 1_555 1_555

#END
