
#######################################################################
#
#                 Cambridge Crystallographic Data Centre
#                                CCDC 
#
#######################################################################
#
# If this CIF has been generated from an entry in the Cambridge 
# Structural Database, then it will include bibliographic, chemical, 
# crystal, experimental, refinement or atomic coordinate data resulting 
# from the CCDC's data processing and validation procedures.
#
#######################################################################

data_PEGMUJ
_chemical_formula_moiety         'C44 H132 Ba4 N28 P8 Si4,C7 H8'
_chemical_name_systematic        
'tetrakis(\m~4~-(1-Trimethylsilyl)-2,2,4,4-tetrakis(dimethylamino)-1,3,5-triaza-2,4-diphospha-bicyclo(2.2.0)hexane)-barium toluene solvate'
_symmetry_cell_setting           triclinic
_symmetry_space_group_name_H-M   'P -1'
_symmetry_Int_Tables_number      2
_space_group_name_Hall           '-P 1'
loop_
_symmetry_equiv_pos_site_id
_symmetry_equiv_pos_as_xyz
1 x,y,z
2 -x,-y,-z
_cell_length_a                   16.303(6)
_cell_length_b                   16.898(6)
_cell_length_c                   18.752(7)
_cell_angle_alpha                71.30(2)
_cell_angle_beta                 82.46(2)
_cell_angle_gamma                79.98(2)
_cell_volume                     4802.82
_exptl_crystal_colour            colorless
_chemical_melting_point          '110 deg.C'
_cell_formula_units_Z            2
_chemical_properties_physical    Moisture-sensitive
loop_
_atom_site_label
_atom_site_type_symbol
_atom_site_fract_x
_atom_site_fract_y
_atom_site_fract_z
C45 C 0.2925(6) 0.6939(7) 0.5640(6)
C46 C 0.3715(6) 0.7071(7) 0.5285(6)
C47 C 0.4388(6) 0.6430(7) 0.5462(6)
C48 C 0.4271(6) 0.5659(7) 0.5994(6)
C49 C 0.3481(6) 0.5527(7) 0.6349(6)
C50 C 0.2808(6) 0.6167(7) 0.6172(6)
C51 C 0.2294(5) 0.7554(6) 0.5488(6)
C52 C 0.5164(5) 0.6903(6) 0.3420(7)
C53 C 0.4613(5) 0.6763(6) 0.2983(7)
C54 C 0.3792(5) 0.6674(6) 0.3266(7)
C55 C 0.3521(5) 0.6724(6) 0.3985(7)
C56 C 0.4072(5) 0.6864(6) 0.4422(6)
C57 C 0.4894(5) 0.6954(6) 0.4139(6)
C58 C 0.6036(5) 0.7049(6) 0.3189(7)
Ba1 Ba 0.24460(3) 0.07604(3) 0.18050(3)
Ba2 Ba 0.14851(3) 0.32024(3) 0.12495(3)
Ba3 Ba 0.20050(3) 0.20784(3) 0.33607(3)
Ba4 Ba 0.39531(3) 0.25009(3) 0.1783(53)
N1 N 0.2448(4) 0.3420(4) 0.2196(4)
P1 P 0.27656(14) 0.39262(13) 0.26282(13)
N2 N 0.2865(4) 0.3533(4) 0.3514(4)
N3 N 0.3790(4) 0.4062(5) 0.2297(5)
C1 C 0.3863(7) 0.4671(6) 0.1532(6)
C2 C 0.4367(6) 0.4181(7) 0.2772(7)
N4 N 0.2227(5) 0.4908(4) 0.2494(4)
C3 C 0.2491(6) 0.5496(5) 0.2807(6)
C4 C 0.1778(6) 0.5324(5) 0.1818(5)
P2 P 0.22308(14) 0.33601(14) 0.42470(13)
N5 N 0.1307(4) 0.3312(4) 0.4193(4)
N6 N 0.2599(4) 0.2344(4) 0.4746(4)
C5 C 0.3493(6) 0.2157(6) 0.4857(6)
C6 C 0.2097(6) 0.1945(6) 0.5434(5)
N7 N 0.2341(5) 0.4011(5) 0.4733(4)
C7 C 0.1776(8) 0.4052(8) 0.5404(6)
C8 C 0.3145(7) 0.4266(7) 0.4737(7)
Si1 Si 0.0405(2) 0.3957(2) 0.39439(14)
C9 C 0.0147(6) 0.3931(6) 0.3014(5)
C10 C 0.0400(6) 0.5088(6) 0.3866(6)
C11 C -0.0462(6) 0.3560(6) 0.4651(6)
N8 N 0.3222(4) 0.1161(4) 0.2830(4)
P3 P 0.40345(12) 0.05283(12) 0.2958(21)
N9 N 0.4885(4) 0.0851(4) 0.2534(4)
N10 N 0.3957(4) -0.0292(4) 0.2613(4)
C12 C 0.3388(5) -0.0872(5) 0.3089(5)
C13 C 0.4700(5) -0.0755(6) 0.2336(6)
N11 N 0.4176(4) 0.0081(4) 0.3882(4)
C14 C 0.4887(5) -0.0554(6) 0.4126(5)
C15 C 0.3489(5) 0.0014(6) 0.4453(5)
P4 P 0.57532(13) 0.11708(13) 0.24214(12)
N12 N 0.5731(4) 0.2035(4) 0.1775(4)
N13 N 0.6557(4) 0.0479(4) 0.2238(4)
C16 C 0.6666(6) 0.0382(6) 0.1488(6)
C17 C 0.6833(6) -0.0320(7) 0.2819(6)
N14 N 0.5992(4) 0.1184(4) 0.3268(4)
C18 C 0.6811(6) 0.1406(8) 0.3300(6)
C19 C 0.5330(6) 0.1634(6) 0.3658(5)
Si2 Si 0.64083(15) 0.2697(2) 0.1274(2)
C20 C 0.5989(9) 0.3275(12) 0.0355(9)
C21 C 0.7471(6) 0.2195(7) 0.1066(8)
C22 C 0.6553(10) 0.3466(9) 0.1748(10)
N15 N 0.2861(4) 0.2264(4) 0.0953(3)
P5 P 0.32137(13) 0.23163(13) 0.01338(12)
N16 N 0.2633(4) 0.2618(4) -0.0563(4)
N17 N 0.4002(4) 0.2932(4) -0.0115(4)
C23 C 0.3689(6) 0.3822(5) -0.0158(6)
C24 C 0.4517(6) 0.2930(7) -0.0820(6)
N18 N 0.3715(4) 0.1369(4) 0.0079(4)
C25 C 0.3785(7) 0.1119(7) -0.0599(6)
C26 C 0.4423(5) 0.0971(6) 0.0539(5)
P6 P 0.16879(13) 0.30324(13) -0.05760(12)
N19 N 0.1379(4) 0.3877(4) -0.0364(4)
N20 N 0.1125(4) 0.2346(4) 0.0078(4)
C27 C 0.1322(6) 0.1457(5) 0.0091(5)
C28 C 0.0212(5) 0.2574(6) 0.0205(6)
N21 N 0.1447(4) 0.3116(5) -0.1434(4)
C29 C 0.1978(7) 0.2743(8) -0.1950(6)
C30 C 0.0618(6) 0.3479(6) -0.1674(6)
Si3 Si 0.13899(14) 0.48966(14) -0.08585(13)
C31 C 0.2001(6) 0.5088(6) -0.1796(5)
C32 C 0.0304(5) 0.5469(5) -0.1053(5)
C33 C 0.1758(6) 0.5436(5) -0.0252(5)
N22 N 0.1125(4) 0.1831(4) 0.2310(4)
P7 P 0.06510(12) 0.10935(13) 0.28025(12)
N23 N 0.0934(4) 0.0184(4) 0.2682(4)
N24 N -0.0393(4) 0.1342(5) 0.2792(4)
C34 C -0.0813(6) 0.2162(6) 0.2426(6)
C35 C -0.0939(5) 0.0727(6) 0.3232(6)
N25 N 0.0804(4) 0.0883(4) 0.3752(4)
C36 C 0.1019(6) 0.0032(5) 0.4243(5)
C37 C 0.0252(6) 0.1431(6) 0.4132(5)
P8 P 0.08837(13) -0.05435(13) 0.23442(13)
N26 N 0.1667(4) -0.0626(4) 0.1770(4)
N27 N 0.0826(4) -0.1470(4) 0.3020(4)
C38 C 0.0126(6) -0.1559(7) 0.3593(6)
C39 C 0.1573(6) -0.1994(6) 0.3298(6)
N28 N -0.0065(4) -0.0399(5) 0.2016(4)
C40 C -0.0355(6) 0.0421(6) 0.1495(6)
C41 C -0.0339(7) -0.1086(7) 0.1836(7)
Si4 Si 0.1997(2) -0.11493(14) 0.11356(14)
C42 C 0.1894(10) -0.2294(6) 0.1474(7)
C43 C 0.1468(7) -0.0702(7) 0.0243(6)
C44 C 0.3105(6) -0.1018(8) 0.0857(8)
loop_
_geom_bond_atom_site_label_1
_geom_bond_atom_site_label_2
_geom_bond_site_symmetry_1
_geom_bond_site_symmetry_2
Ba1 N8 1_555 1_555
Ba2 N1 1_555 1_555
Ba3 N1 1_555 1_555
Ba4 N1 1_555 1_555
N1 P1 1_555 1_555
P1 N2 1_555 1_555
N2 Ba3 1_555 1_555
N3 Ba4 1_555 1_555
C1 N3 1_555 1_555
C2 N3 1_555 1_555
N4 P1 1_555 1_555
C3 N4 1_555 1_555
C4 N4 1_555 1_555
P2 N2 1_555 1_555
N5 Ba3 1_555 1_555
N6 Ba3 1_555 1_555
C5 N6 1_555 1_555
C6 N6 1_555 1_555
N7 P2 1_555 1_555
C7 N7 1_555 1_555
C8 N7 1_555 1_555
Si1 N5 1_555 1_555
C9 Si1 1_555 1_555
C10 Si1 1_555 1_555
C11 Si1 1_555 1_555
N8 Ba3 1_555 1_555
P3 N8 1_555 1_555
N9 Ba4 1_555 1_555
N10 Ba1 1_555 1_555
C12 N10 1_555 1_555
C13 N10 1_555 1_555
N11 P3 1_555 1_555
C14 N11 1_555 1_555
C15 N11 1_555 1_555
P4 N9 1_555 1_555
N12 Ba4 1_555 1_555
N13 P4 1_555 1_555
C16 N13 1_555 1_555
C17 N13 1_555 1_555
N14 P4 1_555 1_555
C18 N14 1_555 1_555
C19 N14 1_555 1_555
Si2 N12 1_555 1_555
C20 Si2 1_555 1_555
C21 Si2 1_555 1_555
C22 Si2 1_555 1_555
N15 Ba1 1_555 1_555
P5 N15 1_555 1_555
N16 P5 1_555 1_555
N17 P5 1_555 1_555
C23 N17 1_555 1_555
C24 N17 1_555 1_555
N18 P5 1_555 1_555
C25 N18 1_555 1_555
C26 N18 1_555 1_555
P6 N16 1_555 1_555
N19 Ba2 1_555 1_555
N20 Ba2 1_555 1_555
C27 N20 1_555 1_555
C28 N20 1_555 1_555
N21 P6 1_555 1_555
C29 N21 1_555 1_555
C30 N21 1_555 1_555
Si3 N19 1_555 1_555
C31 Si3 1_555 1_555
C32 Si3 1_555 1_555
C33 Si3 1_555 1_555
N22 Ba1 1_555 1_555
P7 N22 1_555 1_555
N23 Ba1 1_555 1_555
N24 P7 1_555 1_555
C34 N24 1_555 1_555
C35 N24 1_555 1_555
N25 Ba3 1_555 1_555
C36 N25 1_555 1_555
C37 N25 1_555 1_555
P8 N23 1_555 1_555
N26 Ba1 1_555 1_555
N27 P8 1_555 1_555
C38 N27 1_555 1_555
C39 N27 1_555 1_555
N28 P8 1_555 1_555
C40 N28 1_555 1_555
C41 N28 1_555 1_555
Si4 N26 1_555 1_555
C42 Si4 1_555 1_555
C43 Si4 1_555 1_555
C44 Si4 1_555 1_555
C45 C46 1_555 1_555
C46 C47 1_555 1_555
C47 C48 1_555 1_555
C48 C49 1_555 1_555
C49 C50 1_555 1_555
C50 C45 1_555 1_555
C51 C45 1_555 1_555
C52 C53 1_555 1_555
C53 C54 1_555 1_555
C54 C55 1_555 1_555
C55 C56 1_555 1_555
C56 C46 1_555 1_555
C57 C52 1_555 1_555
C58 C52 1_555 1_555
Ba2 N15 1_555 1_555
Ba2 N22 1_555 1_555
Ba3 N22 1_555 1_555
Ba4 N15 1_555 1_555
Ba4 N8 1_555 1_555
P1 N3 1_555 1_555
P2 N5 1_555 1_555
P2 N6 1_555 1_555
P3 N9 1_555 1_555
P3 N10 1_555 1_555
P4 N12 1_555 1_555
P6 N19 1_555 1_555
P6 N20 1_555 1_555
P7 N23 1_555 1_555
P7 N25 1_555 1_555
P8 N26 1_555 1_555
C56 C57 1_555 1_555

#END
