
#######################################################################
#
#                 Cambridge Crystallographic Data Centre
#                                CCDC 
#
#######################################################################
#
# If this CIF has been generated from an entry in the Cambridge 
# Structural Database, then it will include bibliographic, chemical, 
# crystal, experimental, refinement or atomic coordinate data resulting 
# from the CCDC's data processing and validation procedures.
#
#######################################################################

data_PEGNUN
_chemical_formula_moiety         'C18 H15 Br1 O5'
_chemical_name_systematic        
4-[(5-bromo-2-hydroxyphenyl)methylidene]-6-hydroxy-8-methoxy-3,4-dihydro-1-benzoxepin-5(2H)-one
_symmetry_cell_setting           monoclinic
_symmetry_space_group_name_H-M   'P 21/n'
_symmetry_Int_Tables_number      14
_space_group_name_Hall           '-P 2yn'
loop_
_symmetry_equiv_pos_site_id
_symmetry_equiv_pos_as_xyz
1 x,y,z
2 1/2-x,1/2+y,1/2-z
3 -x,-y,-z
4 1/2+x,1/2-y,1/2+z
_cell_length_a                   11.960(4)
_cell_length_b                   9.025(3)
_cell_length_c                   14.981(4)
_cell_angle_alpha                90
_cell_angle_beta                 96.768(6)
_cell_angle_gamma                90
_cell_volume                     1605.77
_exptl_crystal_colour            yellow
_exptl_crystal_description       block
_cell_formula_units_Z            4
loop_
_atom_site_label
_atom_site_type_symbol
_atom_site_fract_x
_atom_site_fract_y
_atom_site_fract_z
Br1 Br 0.11150(3) 1.16571(4) 0.10415(2)
C1 C 0.3910(3) 0.4235(3) 0.14028(19)
C2 C 0.3849(2) 0.3774(3) 0.05003(18)
C3 C 0.4234(3) 0.2323(3) 0.03582(19)
C4 C 0.4552(3) 0.1360(3) 0.1060(2)
H1 H 0.4766 0.0393 0.0949
C5 C 0.4545(3) 0.1861(3) 0.1924(2)
C6 C 0.4230(3) 0.3311(3) 0.2102(2)
H2 H 0.4239 0.3640 0.2691
C7 C 0.3422(3) 0.4691(3) -0.02609(19)
C8 C 0.2722(3) 0.6018(3) -0.01220(18)
C9 C 0.1977(3) 0.5903(3) 0.0613(2)
H3 H 0.1642 0.4923 0.0596
H4 H 0.1371 0.6618 0.0501
C10 C 0.2587(3) 0.6170(4) 0.1540(2)
H5 H 0.2555 0.7216 0.1683
H6 H 0.2213 0.5627 0.1978
C11 C 0.2795(3) 0.7156(3) -0.06838(18)
H7 H 0.3257 0.6992 -0.1132
C12 C 0.2267(3) 0.8612(3) -0.07056(19)
C13 C 0.2054(3) 0.9343(3) -0.15327(19)
C14 C 0.1617(3) 1.0753(3) -0.1591(2)
H8 H 0.1515 1.1235 -0.2143
C15 C 0.1327(3) 1.1460(3) -0.0829(2)
H9 H 0.1014 1.2404 -0.0866
C16 C 0.1510(3) 1.0740(3) -0.0019(2)
C17 C 0.1989(3) 0.9352(3) 0.00498(19)
H10 H 0.2128 0.8903 0.0611
C18 C 0.5233(3) -0.0463(4) 0.2550(2)
H11 H 0.4627 -0.1025 0.2238
H12 H 0.5458 -0.0908 0.3126
H13 H 0.5860 -0.0455 0.2205
O1 O 0.37413(19) 0.5711(2) 0.15975(13)
O2 O 0.3591(2) 0.4338(2) -0.10358(12)
O3 O 0.4301(2) 0.1809(2) -0.04798(14)
H14 H 0.4178 0.2488 -0.0842
O4 O 0.48642(19) 0.1033(2) 0.26751(14)
O5 O 0.2319(2) 0.8596(2) -0.22711(14)
H15 H 0.2121 0.9084 -0.2724
loop_
_geom_bond_atom_site_label_1
_geom_bond_atom_site_label_2
_geom_bond_site_symmetry_1
_geom_bond_site_symmetry_2
Br1 C16 1_555 1_555
C1 C2 1_555 1_555
C2 C3 1_555 1_555
C3 C4 1_555 1_555
C4 H1 1_555 1_555
C5 C4 1_555 1_555
C6 C1 1_555 1_555
H2 C6 1_555 1_555
C7 C2 1_555 1_555
C8 C7 1_555 1_555
C9 C8 1_555 1_555
H3 C9 1_555 1_555
H4 C9 1_555 1_555
C10 C9 1_555 1_555
H5 C10 1_555 1_555
H6 C10 1_555 1_555
C11 C8 1_555 1_555
H7 C11 1_555 1_555
C12 C11 1_555 1_555
C13 C12 1_555 1_555
C14 C13 1_555 1_555
H8 C14 1_555 1_555
C15 C14 1_555 1_555
H9 C15 1_555 1_555
C16 C15 1_555 1_555
C17 C12 1_555 1_555
H10 C17 1_555 1_555
C18 H11 1_555 1_555
H12 C18 1_555 1_555
H13 C18 1_555 1_555
O1 C1 1_555 1_555
O2 C7 1_555 1_555
O3 C3 1_555 1_555
H14 O3 1_555 1_555
O4 C5 1_555 1_555
O5 C13 1_555 1_555
H15 O5 1_555 1_555
C5 C6 1_555 1_555
C10 O1 1_555 1_555
C16 C17 1_555 1_555
C18 O4 1_555 1_555

#END
