
#######################################################################
#
#                 Cambridge Crystallographic Data Centre
#                                CCDC 
#
#######################################################################
#
# If this CIF has been generated from an entry in the Cambridge 
# Structural Database, then it will include bibliographic, chemical, 
# crystal, experimental, refinement or atomic coordinate data resulting 
# from the CCDC's data processing and validation procedures.
#
#######################################################################

data_PEGPAV
_chemical_formula_moiety         'C18 H36 N2 S4'
_chemical_name_systematic        
1,1',1'',1'''-[disulfanediylbis(carbonothioylnitrilo)]tetrakis(2-methylpropane)
_symmetry_cell_setting           triclinic
_symmetry_space_group_name_H-M   'P -1'
_symmetry_Int_Tables_number      2
_space_group_name_Hall           '-P 1'
loop_
_symmetry_equiv_pos_site_id
_symmetry_equiv_pos_as_xyz
1 x,y,z
2 -x,-y,-z
_cell_length_a                   7.2449(11)
_cell_length_b                   9.6102(14)
_cell_length_c                   17.196(3)
_cell_angle_alpha                98.580(2)
_cell_angle_beta                 94.540(2)
_cell_angle_gamma                103.409(2)
_cell_volume                     1143.52
_exptl_crystal_colour            'pale yellow'
_exptl_crystal_description       block
_cell_formula_units_Z            2
loop_
_atom_site_label
_atom_site_type_symbol
_atom_site_fract_x
_atom_site_fract_y
_atom_site_fract_z
S1 S 0.11097(10) 0.22088(8) 0.72835(4)
S2 S 0.35046(10) 0.62092(8) 0.68215(4)
S3 S 0.37169(10) 0.47724(7) 0.84025(4)
S4 S 0.13548(10) 0.54581(8) 0.82084(4)
N1 N 0.4760(3) 0.2440(2) 0.77920(12)
N2 N 0.0291(3) 0.6939(2) 0.71490(12)
C1 C 0.3217(4) 0.2980(3) 0.77839(15)
C2 C 0.1689(4) 0.6296(3) 0.73258(16)
C3 C 0.6574(4) 0.3090(3) 0.83096(15)
H1 H 0.6641 0.4125 0.8506
H2 H 0.7650 0.3052 0.7993
C4 C 0.6811(4) 0.2335(3) 0.90154(15)
H3 H 0.6567 0.1270 0.8813
C5 C 0.8874(4) 0.2875(4) 0.94048(18)
H4 H 0.9155 0.3924 0.9597
H5 H 0.9740 0.2674 0.9017
H6 H 0.9052 0.2375 0.9851
C6 C 0.5418(5) 0.2552(4) 0.96030(17)
H7 H 0.5722 0.3576 0.9854
H8 H 0.5511 0.1948 1.0009
H9 H 0.4115 0.2273 0.9328
C7 C 0.4768(4) 0.1089(3) 0.72601(15)
H10 H 0.3433 0.0528 0.7085
H11 H 0.5411 0.0491 0.7556
C8 C 0.5774(4) 0.1370(3) 0.65392(16)
H12 H 0.7063 0.2031 0.6734
C9 C 0.6088(4) -0.0045(3) 0.61130(17)
H13 H 0.6814 -0.0465 0.6480
H14 H 0.6803 0.0145 0.5664
H15 H 0.4849 -0.0727 0.5920
C10 C 0.4765(5) 0.2120(4) 0.59941(19)
H16 H 0.5528 0.2336 0.5562
H17 H 0.4598 0.3026 0.6291
H18 H 0.3510 0.1484 0.5775
C11 C -0.1242(4) 0.7070(3) 0.76450(15)
H19 H -0.1361 0.6320 0.7988
H20 H -0.2462 0.6864 0.7296
C12 C -0.0943(4) 0.8561(3) 0.81718(16)
H21 H -0.1195 0.9262 0.7826
C13 C 0.1058(4) 0.9157(3) 0.86038(18)
H22 H 0.1164 1.0126 0.8906
H23 H 0.1988 0.9220 0.8218
H24 H 0.1316 0.8510 0.8966
C14 C -0.2443(5) 0.8413(3) 0.87450(18)
H25 H -0.2247 0.7710 0.9081
H26 H -0.3719 0.8077 0.8446
H27 H -0.2329 0.9358 0.9077
C15 C 0.0346(4) 0.7671(3) 0.64587(15)
H28 H 0.1683 0.8198 0.6436
H29 H -0.0420 0.8400 0.6531
C16 C -0.0405(4) 0.6652(3) 0.56672(15)
H30 H 0.0321 0.5883 0.5614
C17 C -0.2504(4) 0.5917(4) 0.56081(18)
H31 H -0.3243 0.6653 0.5659
H32 H -0.2725 0.5343 0.6033
H33 H -0.2908 0.5276 0.5094
C18 C 0.0007(5) 0.7523(3) 0.50071(17)
H34 H -0.0641 0.8315 0.5064
H35 H -0.0459 0.6888 0.4494
H36 H 0.1388 0.7927 0.5036
loop_
_geom_bond_atom_site_label_1
_geom_bond_atom_site_label_2
_geom_bond_site_symmetry_1
_geom_bond_site_symmetry_2
S1 C1 1_555 1_555
S2 C2 1_555 1_555
S3 S4 1_555 1_555
S4 C2 1_555 1_555
N1 C1 1_555 1_555
N2 C2 1_555 1_555
C1 S3 1_555 1_555
C3 N1 1_555 1_555
H1 C3 1_555 1_555
H2 C3 1_555 1_555
C4 C3 1_555 1_555
H3 C4 1_555 1_555
C5 C4 1_555 1_555
H4 C5 1_555 1_555
H5 C5 1_555 1_555
H6 C5 1_555 1_555
C6 C4 1_555 1_555
H7 C6 1_555 1_555
H8 C6 1_555 1_555
H9 C6 1_555 1_555
C7 N1 1_555 1_555
H10 C7 1_555 1_555
H11 C7 1_555 1_555
C8 C7 1_555 1_555
H12 C8 1_555 1_555
C9 C8 1_555 1_555
H13 C9 1_555 1_555
H14 C9 1_555 1_555
H15 C9 1_555 1_555
C10 C8 1_555 1_555
H16 C10 1_555 1_555
H17 C10 1_555 1_555
H18 C10 1_555 1_555
C11 N2 1_555 1_555
H19 C11 1_555 1_555
H20 C11 1_555 1_555
C12 C11 1_555 1_555
H21 C12 1_555 1_555
C13 C12 1_555 1_555
H22 C13 1_555 1_555
H23 C13 1_555 1_555
H24 C13 1_555 1_555
C14 C12 1_555 1_555
H25 C14 1_555 1_555
H26 C14 1_555 1_555
H27 C14 1_555 1_555
C15 N2 1_555 1_555
H28 C15 1_555 1_555
H29 C15 1_555 1_555
C16 C15 1_555 1_555
H30 C16 1_555 1_555
C17 C16 1_555 1_555
H31 C17 1_555 1_555
H32 C17 1_555 1_555
H33 C17 1_555 1_555
C18 C16 1_555 1_555
H34 C18 1_555 1_555
H35 C18 1_555 1_555
H36 C18 1_555 1_555

#END
