
#######################################################################
#
#                 Cambridge Crystallographic Data Centre
#                                CCDC 
#
#######################################################################
#
# If this CIF has been generated from an entry in the Cambridge 
# Structural Database, then it will include bibliographic, chemical, 
# crystal, experimental, refinement or atomic coordinate data resulting 
# from the CCDC's data processing and validation procedures.
#
#######################################################################

data_PEGSEB
_chemical_formula_moiety         'C32 H28 N2 S5'
_chemical_name_systematic        
4,7-bis(4,4-Diethyl-4H-cyclopenta(1,2-b:5,4-b')bis(thiophen-2-yl))-2,1,3-benzothiadiazole
_symmetry_cell_setting           orthorhombic
_symmetry_space_group_name_H-M   'P n c 2'
_symmetry_Int_Tables_number      30
_space_group_name_Hall           'P 2 -2bc'
loop_
_symmetry_equiv_pos_site_id
_symmetry_equiv_pos_as_xyz
1 x,y,z
2 -x,1/2+y,1/2+z
3 x,1/2-y,1/2+z
4 -x,-y,z
_cell_length_a                   23.2667(12)
_cell_length_b                   36.0236(17)
_cell_length_c                   7.2248(3)
_cell_angle_alpha                90
_cell_angle_beta                 90
_cell_angle_gamma                90
_cell_volume                     6055.47
_exptl_crystal_colour            purple
_exptl_crystal_description       plate
_cell_formula_units_Z            8
_exptl_crystal_recrystallization_method 'chloroform/diethyl ether'
loop_
_atom_site_label
_atom_site_type_symbol
_atom_site_fract_x
_atom_site_fract_y
_atom_site_fract_z
S1 S 0.42809(3) 0.692722(19) 0.05595(11)
S2 S 0.34977(3) 0.591889(15) 0.07581(8)
S3 S 0.14499(3) 0.41051(2) 0.32284(10)
S4 S 0.06100(4) 0.31341(3) 0.37098(15)
S5 S 0.38567(2) 0.472369(10) 0.02468(12)
N1 N 0.36221(2) 0.513485(15) 0.06446(19)
N2 N 0.33050(2) 0.447950(17) 0.07908(18)
C1 C 0.308700(19) 0.508438(13) 0.11959(16)
C2 C 0.289250(19) 0.470907(14) 0.13027(15)
C3 C 0.20148(4) 0.490499(12) 0.2443(3)
C4 C 0.21743(2) 0.528145(17) 0.2361(2)
C9 C 0.40895(13) 0.73446(7) 0.1437(3)
H5 H 0.4321 0.7561 0.1327
C10 C 0.35751(13) 0.73411(7) 0.2311(4)
H6 H 0.3400 0.7552 0.2861
C11 C 0.33339(12) 0.69807(6) 0.2294(4)
C12 C 0.36552(10) 0.67308(6) 0.1333(3)
C13 C 0.33760(10) 0.63677(6) 0.1401(3)
C14 C 0.28593(11) 0.64126(6) 0.2365(3)
C15 C 0.25798(11) 0.60723(6) 0.2520(3)
H7 H 0.2221 0.6050 0.3137
C16 C 0.28405(10) 0.57785(5) 0.1758(3)
C17 C 0.27962(2) 0.68115(2) 0.29939(10)
C18 C 0.22400(3) 0.70137(4) 0.23830(8)
H8 H 0.1899 0.6891 0.2931
H9 H 0.2248 0.7275 0.2805
C19 C 0.22098(5) 0.69974(6) 0.02847(7)
H10 H 0.2598 0.7019 -0.0230
H11 H 0.1972 0.7203 -0.0172
H12 H 0.2040 0.6761 -0.0097
C22 C 0.27899(14) 0.68269(6) 0.5219(3)
H18 H 0.2771 0.7090 0.5607
H19 H 0.2435 0.6704 0.5664
C23 C 0.32789(12) 0.66553(7) 0.6125(4)
H20 H 0.3242 0.6385 0.6061
H21 H 0.3292 0.6733 0.7423
H22 H 0.3634 0.6732 0.5501
C24 C 0.266582(13) 0.538591(15) 0.18437(11)
C25 C 0.230018(14) 0.461499(15) 0.21163(11)
C26 C 0.21025(9) 0.42226(6) 0.2187(3)
C27 C 0.23718(10) 0.39136(6) 0.1421(3)
H23 H 0.2736 0.3919 0.0827
C28 C 0.20377(10) 0.35945(6) 0.1638(4)
C29 C 0.15453(11) 0.36480(8) 0.2563(4)
C30 C 0.12392(11) 0.32912(8) 0.2699(4)
C31 C 0.15563(12) 0.30173(7) 0.1723(4)
C32 C 0.12734(12) 0.26694(8) 0.1683(6)
H24 H 0.1411 0.2455 0.1060
C33 C 0.07689(14) 0.26872(8) 0.2676(7)
H25 H 0.0521 0.2479 0.2810
C34 C 0.20925(2) 0.31728(3) 0.09833(9)
C35 C 0.21079(13) 0.31463(7) -0.1001(4)
H26 H 0.2109 0.2880 -0.1334
H27 H 0.2478 0.3252 -0.1427
C36 C 0.16113(13) 0.33406(7) -0.2126(4)
H28 H 0.1238 0.3256 -0.1659
H29 H 0.1646 0.3276 -0.3439
H30 H 0.1641 0.3610 -0.1980
C37 C 0.26475(3) 0.29833(4) 0.16986(8)
H31 H 0.2660 0.2725 0.1229
H32 H 0.2985 0.3116 0.1190
C38 C 0.26927(5) 0.29760(6) 0.37954(7)
H33 H 0.2533 0.3206 0.4304
H34 H 0.3097 0.2954 0.4156
H35 H 0.2477 0.2763 0.4279
S7 S 0.30477(3) 0.387253(18) 0.68902(11)
S8 S 0.38521(4) 0.28878(2) 0.69441(16)
S9 S 0.35743(2) 0.553390(11) 0.56992(11)
N5 N 0.29419(2) 0.562725(15) 0.64584(18)
N6 N 0.35666(2) 0.508785(14) 0.5699(2)
C41 C 0.268904(12) 0.531123(9) 0.66510(10)
C42 C 0.305107(13) 0.499771(9) 0.61821(9)
C43 C 0.231697(13) 0.460202(11) 0.73249(9)
H41 H 0.2189 0.4362 0.7686
C44 C 0.194942(15) 0.490611(9) 0.76669(12)
H42 H 0.1575 0.4861 0.8145
S11 S 0.111553(19) 0.703174(13) 0.68448(4)
S12 S 0.19713(3) 0.605084(16) 0.69592(7)
C49 C 0.04874(2) 0.716750(15) 0.77483(5)
H45 H 0.0347 0.7414 0.7648
C50 C 0.01773(2) 0.687581(17) 0.86960(6)
H46 H -0.0189 0.6898 0.9269
C51 C 0.05192(2) 0.655112(15) 0.86133(5)
C52 C 0.10098(2) 0.658023(14) 0.75613(5)
C53 C 0.13318(3) 0.622081(14) 0.76227(5)
C54 C 0.09963(3) 0.597878(14) 0.85788(6)
C55 C 0.12533(4) 0.562765(14) 0.87949(7)
H47 H 0.1088 0.5424 0.9439
C56 C 0.17950(4) 0.562443(15) 0.79069(8)
C57 C 0.04244(3) 0.616510(16) 0.92652(6)
C58 C -0.00966(3) 0.59374(3) 0.85640(6)
H48 H -0.0056 0.5675 0.8958
H49 H -0.0455 0.6037 0.9109
C59 C -0.01303(5) 0.59572(5) 0.64668(6)
H50 H 0.0259 0.5962 0.5950
H51 H -0.0336 0.6183 0.6101
H52 H -0.0336 0.5739 0.5997
C60 C 0.03777(3) 0.61647(3) 1.14041(6)
H53 H 0.0030 0.6303 1.1788
H54 H 0.0342 0.5906 1.1857
C61 C 0.09070(3) 0.63443(4) 1.22460(9)
H55 H 0.1166 0.6425 1.1256
H56 H 0.1105 0.6164 1.3039
H57 H 0.0791 0.6560 1.2986
C75 C 0.212385(14) 0.527625(11) 0.73161(14)
C76 C 0.286417(14) 0.463143(11) 0.64780(13)
C77 C 0.32431(9) 0.43051(6) 0.6151(2)
C78 C 0.37774(9) 0.43021(7) 0.5247(3)
H71 H 0.3956 0.4514 0.4716
C79 C 0.40117(11) 0.39425(7) 0.5236(3)
C80 C 0.36712(12) 0.36747(8) 0.6137(4)
C81 C 0.39711(11) 0.33223(7) 0.6095(4)
C82 C 0.44789(12) 0.33592(7) 0.5107(3)
C83 C 0.47654(13) 0.30028(8) 0.5000(4)
H72 H 0.5111 0.2959 0.4335
C84 C 0.44689(18) 0.27307(10) 0.5999(7)
H73 H 0.4601 0.2483 0.6132
C85 C 0.45642(12) 0.37693(7) 0.4474(3)
C86 C 0.45796(11) 0.37939(8) 0.2317(3)
H74 H 0.4583 0.4059 0.1957
H75 H 0.4943 0.3682 0.1877
C87 C 0.40931(15) 0.36081(10) 0.1356(4)
H76 H 0.3950 0.3404 0.2123
H77 H 0.4225 0.3510 0.0164
H78 H 0.3784 0.3788 0.1148
C88 C 0.51069(12) 0.39233(9) 0.5286(3)
H79 H 0.5435 0.3780 0.4789
H80 H 0.5151 0.4183 0.4859
C89 C 0.51418(14) 0.39190(10) 0.7351(4)
H81 H 0.4963 0.4144 0.7847
H82 H 0.5546 0.3910 0.7732
H83 H 0.4940 0.3700 0.7828
H1? H 0.1628 0.4862 0.2805
H2? H 0.1901 0.5464 0.2709
S6? S 0.10944(3) 0.525886(11) 0.36697(17)
N3? N 0.16292(2) 0.550773(18) 0.30144(19)
N4? N 0.13557(2) 0.484982(16) 0.3413(2)
C5? C 0.29665(4) 0.510678(13) 0.1433(3)
H3? H 0.3338 0.5149 0.0931
C6? C 0.27888(2) 0.473626(19) 0.1667(3)
H4? H 0.3075 0.4553 0.1459
C7? C 0.18813(2) 0.491413(14) 0.28058(16)
C8? C 0.205870(19) 0.528939(15) 0.25267(18)
C20? C 0.23086(2) 0.70138(3) 0.19386(16)
H13? H 0.2315 0.7282 0.2230
H14? H 0.2360 0.6983 0.0587
C21? C 0.17414(2) 0.68441(5) 0.2544(3)
H15? H 0.1799 0.6581 0.2838
H16? H 0.1460 0.6867 0.1542
H17? H 0.1600 0.6974 0.3644
C39? C 0.25033(2) 0.30637(7) 0.25806(12)
H36? H 0.2429 0.3228 0.3652
H37? H 0.2417 0.2806 0.2969
C40? C 0.31348(2) 0.30898(14) 0.2064(2)
H38? H 0.3171 0.3116 0.0718
H39? H 0.3334 0.2864 0.2468
H40? H 0.3307 0.3306 0.2671
S10? S 0.14208(2) 0.441194(13) 0.81808(18)
N7? N 0.20587(2) 0.430371(17) 0.75233(15)
N8? N 0.14256(3) 0.485786(15) 0.81608(17)
C45? C 0.271690(12) 0.530845(11) 0.68996(19)
H43? H 0.2879 0.5550 0.6804
C46? C 0.307840(14) 0.499866(9) 0.6621(4)
H44? H 0.3481 0.5038 0.6525
C47? C 0.226895(12) 0.459934(10) 0.67792(15)
C48? C 0.192115(13) 0.490896(9) 0.74011(14)
S13? S 0.127134(19) 0.704108(13) 0.79507(5)
S14? S 0.19362(3) 0.601256(15) 0.71457(8)
C62? C 0.06588(2) 0.718898(15) 0.89151(6)
H58? H 0.0567 0.7444 0.9054
C63? C 0.02815(2) 0.689344(17) 0.95183(7)
H59? H -0.0087 0.6923 1.0068
C64? C 0.05617(2) 0.655295(15) 0.91392(6)
C65? C 0.10710(2) 0.658256(14) 0.81840(6)
C66? C 0.13226(3) 0.620421(14) 0.79090(7)
C67? C 0.09292(3) 0.595874(14) 0.85683(7)
C68? C 0.11154(4) 0.558766(14) 0.84470(9)
H60? H 0.0903 0.5378 0.8855
C69? C 0.16666(4) 0.557507(14) 0.76244(9)
C70? C 0.03854(3) 0.615976(16) 0.93767(8)
C71? C -0.01338(3) 0.605713(17) 0.81365(9)
H61? H -0.0467 0.6215 0.8464
H62? H -0.0037 0.6103 0.6823
C72? C -0.02883(4) 0.565088(15) 0.8400(3)
H63? H 0.0058 0.5510 0.8730
H64? H -0.0449 0.5552 0.7248
H65? H -0.0573 0.5628 0.9394
C73? C 0.02737(4) 0.59678(3) 1.12612(6)
H66? H -0.0131 0.6007 1.1636
H67? H 0.0340 0.5697 1.1142
C74? C 0.06719(4) 0.61269(5) 1.27261(7)
H68? H 0.1072 0.6096 1.2332
H69? H 0.0611 0.5996 1.3899
H70? H 0.0590 0.6392 1.2892
loop_
_geom_bond_atom_site_label_1
_geom_bond_atom_site_label_2
_geom_bond_site_symmetry_1
_geom_bond_site_symmetry_2
S1 C9 1_555 1_555
S2 C13 1_555 1_555
S3 C26 1_555 1_555
S4 C30 1_555 1_555
S5 N1 1_555 1_555
N1 C1 1_555 1_555
N2 S5 1_555 1_555
C1 C2 1_555 1_555
C2 N2 1_555 1_555
C3 C4 1_555 1_555
C4 C24 1_555 1_555
C9 H5 1_555 1_555
C10 C9 1_555 1_555
H6 C10 1_555 1_555
C11 C10 1_555 1_555
C12 S1 1_555 1_555
C13 C12 1_555 1_555
C14 C13 1_555 1_555
C15 C14 1_555 1_555
H7 C15 1_555 1_555
C16 S2 1_555 1_555
C17 C11 1_555 1_555
C18 C17 1_555 1_555
H8 C18 1_555 1_555
H9 C18 1_555 1_555
C19 C18 1_555 1_555
H10 C19 1_555 1_555
H11 C19 1_555 1_555
H12 C19 1_555 1_555
C22 C17 1_555 1_555
H18 C22 1_555 1_555
H19 C22 1_555 1_555
C23 C22 1_555 1_555
H20 C23 1_555 1_555
H21 C23 1_555 1_555
H22 C23 1_555 1_555
C24 C1 1_555 1_555
C25 C2 1_555 1_555
C26 C25 1_555 1_555
C27 C26 1_555 1_555
H23 C27 1_555 1_555
C28 C27 1_555 1_555
C29 S3 1_555 1_555
C30 C29 1_555 1_555
C31 C30 1_555 1_555
C32 C31 1_555 1_555
H24 C32 1_555 1_555
C33 S4 1_555 1_555
H25 C33 1_555 1_555
C34 C28 1_555 1_555
C35 C34 1_555 1_555
H26 C35 1_555 1_555
H27 C35 1_555 1_555
C36 C35 1_555 1_555
H28 C36 1_555 1_555
H29 C36 1_555 1_555
H30 C36 1_555 1_555
C37 C34 1_555 1_555
H31 C37 1_555 1_555
H32 C37 1_555 1_555
C38 C37 1_555 1_555
H33 C38 1_555 1_555
H34 C38 1_555 1_555
H35 C38 1_555 1_555
S7 C77 1_555 1_555
S8 C81 1_555 1_555
S9 N5 1_555 1_555
N5 C41 1_555 1_555
N6 S9 1_555 1_555
C41 C42 1_555 1_555
C42 N6 1_555 1_555
C43 H41 1_555 1_555
C44 C43 1_555 1_555
H42 C44 1_555 1_555
S11 C49 1_555 1_555
S12 C53 1_555 1_555
C49 H45 1_555 1_555
C50 C49 1_555 1_555
H46 C50 1_555 1_555
C51 C50 1_555 1_555
C52 S11 1_555 1_555
C53 C52 1_555 1_555
C54 C53 1_555 1_555
C55 C54 1_555 1_555
H47 C55 1_555 1_555
C56 S12 1_555 1_555
C57 C51 1_555 1_555
C58 C57 1_555 1_555
H48 C58 1_555 1_555
H49 C58 1_555 1_555
C59 C58 1_555 1_555
H50 C59 1_555 1_555
H51 C59 1_555 1_555
H52 C59 1_555 1_555
C60 C57 1_555 1_555
H53 C60 1_555 1_555
H54 C60 1_555 1_555
C61 C60 1_555 1_555
H55 C61 1_555 1_555
H56 C61 1_555 1_555
H57 C61 1_555 1_555
C75 C41 1_555 1_555
C76 C42 1_555 1_555
C77 C76 1_555 1_555
C78 C77 1_555 1_555
H71 C78 1_555 1_555
C79 C78 1_555 1_555
C80 S7 1_555 1_555
C81 C80 1_555 1_555
C82 C81 1_555 1_555
C83 C82 1_555 1_555
H72 C83 1_555 1_555
C84 S8 1_555 1_555
H73 C84 1_555 1_555
C85 C79 1_555 1_555
C86 C85 1_555 1_555
H74 C86 1_555 1_555
H75 C86 1_555 1_555
C87 C86 1_555 1_555
H76 C87 1_555 1_555
H77 C87 1_555 1_555
H78 C87 1_555 1_555
C88 C85 1_555 1_555
H79 C88 1_555 1_555
H80 C88 1_555 1_555
C89 C88 1_555 1_555
H81 C89 1_555 1_555
H82 C89 1_555 1_555
H83 C89 1_555 1_555
C3 C25 1_555 1_555
C11 C12 1_555 1_555
C14 C17 1_555 1_555
C15 C16 1_555 1_555
C16 C24 1_555 1_555
C28 C29 1_555 1_555
C31 C34 1_555 1_555
C32 C33 1_555 1_555
C43 C76 1_555 1_555
C44 C75 1_555 1_555
C51 C52 1_555 1_555
C54 C57 1_555 1_555
C55 C56 1_555 1_555
C56 C75 1_555 1_555
C79 C80 1_555 1_555
C82 C85 1_555 1_555
C83 C84 1_555 1_555

#END
