
#######################################################################
#
#                 Cambridge Crystallographic Data Centre
#                                CCDC 
#
#######################################################################
#
# If this CIF has been generated from an entry in the Cambridge 
# Structural Database, then it will include bibliographic, chemical, 
# crystal, experimental, refinement or atomic coordinate data resulting 
# from the CCDC's data processing and validation procedures.
#
#######################################################################

data_PEGWOQ
_chemical_formula_moiety         'C10 H11 N4 O2 1+,N1 O3 1-'
_chemical_name_systematic        
'4-{[(4-hydroxy-3-methoxyphenyl)methylidene]amino}-4H-1,2,4-triazol-1-ium nitrate'
_symmetry_cell_setting           monoclinic
_symmetry_space_group_name_H-M   'P n'
_symmetry_Int_Tables_number      7
_space_group_name_Hall           'P -2yac'
loop_
_symmetry_equiv_pos_site_id
_symmetry_equiv_pos_as_xyz
1 x,y,z
2 1/2+x,-y,1/2+z
_cell_length_a                   4.2000(8)
_cell_length_b                   8.5070(17)
_cell_length_c                   17.069(3)
_cell_angle_alpha                90
_cell_angle_beta                 94.05(3)
_cell_angle_gamma                90
_cell_volume                     608.342
_exptl_crystal_colour            orange
_exptl_crystal_description       Rod
_cell_formula_units_Z            2
loop_
_atom_site_label
_atom_site_type_symbol
_atom_site_fract_x
_atom_site_fract_y
_atom_site_fract_z
O1 O 0.0320(7) 0.6261(3) 0.16133(14)
H1 H 0.0149 0.7053 0.1881
N1 N 1.1671(8) 0.6518(4) -0.31891(17)
H2 H 1.2921 0.6097 -0.3508
C1 C 1.0586(9) 0.5785(4) -0.2585(2)
H3 H 1.0984 0.4747 -0.2437
O2 O 0.0602(7) 0.4053(3) 0.05870(14)
N2 N 1.0577(9) 0.8026(4) -0.32504(18)
C2 C 0.8837(10) 0.8181(4) -0.2659(2)
H4 H 0.7748 0.9093 -0.2541
C3 C 0.6808(9) 0.7461(4) -0.1072(2)
H5 H 0.7753 0.8437 -0.1138
N3 N 0.8816(7) 0.6812(3) -0.22282(17)
N4 N 0.7060(7) 0.6390(3) -0.15890(17)
C4 C 0.5058(8) 0.7169(4) -0.0382(2)
C5 C 0.4845(10) 0.8341(4) 0.0170(2)
H6 H 0.5773 0.9315 0.0090
C6 C 0.3246(10) 0.8077(4) 0.0849(2)
H7 H 0.3111 0.8871 0.1220
C7 C 0.1863(9) 0.6623(4) 0.0966(2)
C8 C 0.2074(8) 0.5435(4) 0.04035(18)
C9 C 0.3643(8) 0.5696(4) -0.0267(2)
H8 H 0.3764 0.4906 -0.0640
C10 C 0.0641(14) 0.2790(5) 0.0034(3)
H9 H -0.0445 0.1897 0.0233
H10 H 0.2810 0.2511 -0.0045
H11 H -0.0415 0.3114 -0.0456
O3 O 0.3005(11) 1.0363(4) -0.1450(2)
O4 O 0.4692(13) 1.1232(4) -0.2520(2)
O5 O 0.2404(18) 1.2758(5) -0.1785(3)
N5 N 0.3343(10) 1.1456(4) -0.1912(2)
loop_
_geom_bond_atom_site_label_1
_geom_bond_atom_site_label_2
_geom_bond_site_symmetry_1
_geom_bond_site_symmetry_2
O1 H1 1_555 1_555
N1 H2 1_555 1_555
C1 N1 1_555 1_555
H3 C1 1_555 1_555
O2 C8 1_555 1_555
N2 N1 1_555 1_555
C2 N2 1_555 1_555
H4 C2 1_555 1_555
C3 H5 1_555 1_555
N3 C1 1_555 1_555
N4 C3 1_555 1_555
C4 C3 1_555 1_555
C5 C4 1_555 1_555
H6 C5 1_555 1_555
C6 C5 1_555 1_555
H7 C6 1_555 1_555
C7 O1 1_555 1_555
C8 C7 1_555 1_555
C9 C4 1_555 1_555
H8 C9 1_555 1_555
C10 O2 1_555 1_555
H9 C10 1_555 1_555
H10 C10 1_555 1_555
H11 C10 1_555 1_555
O3 N5 1_555 1_555
O4 N5 1_555 1_555
O5 N5 1_555 1_555
C2 N3 1_555 1_555
N3 N4 1_555 1_555
C6 C7 1_555 1_555
C8 C9 1_555 1_555

#END
