
#######################################################################
#
#                 Cambridge Crystallographic Data Centre
#                                CCDC 
#
#######################################################################
#
# If this CIF has been generated from an entry in the Cambridge 
# Structural Database, then it will include bibliographic, chemical, 
# crystal, experimental, refinement or atomic coordinate data resulting 
# from the CCDC's data processing and validation procedures.
#
#######################################################################

data_PEGWUW
_chemical_formula_moiety         'C10 H11 N4 O2 1+,Cl1 O4 1-'
_chemical_name_systematic        
'4-{[(4-hydroxy-3-methoxyphenyl)methylidene]amino}-1H-1,2,4-triazol-4-ium perchlorate'
_symmetry_cell_setting           monoclinic
_symmetry_space_group_name_H-M   'P n'
_symmetry_Int_Tables_number      7
_space_group_name_Hall           'P -2yac'
loop_
_symmetry_equiv_pos_site_id
_symmetry_equiv_pos_as_xyz
1 x,y,z
2 1/2+x,-y,1/2+z
_cell_length_a                   4.4190(9)
_cell_length_b                   8.5810(17)
_cell_length_c                   17.499(4)
_cell_angle_alpha                90
_cell_angle_beta                 91.35(3)
_cell_angle_gamma                90
_cell_volume                     663.368
_exptl_crystal_colour            colorless
_exptl_crystal_description       block
_cell_formula_units_Z            2
loop_
_atom_site_label
_atom_site_type_symbol
_atom_site_fract_x
_atom_site_fract_y
_atom_site_fract_z
Cl1 Cl 0.1510(3) 0.88553(19) 0.71973(10)
O1 O -0.0974(12) 0.8337(9) 0.6620(3)
O2 O 0.2621(16) 1.0308(8) 0.6926(4)
O3 O 0.3838(13) 0.7639(7) 0.7186(4)
O4 O 0.0118(14) 0.8979(6) 0.7935(3)
O5 O 1.4328(13) 0.3551(6) 0.3761(3)
H1 H 1.5165 0.4430 0.3692
N1 N 0.3263(15) 0.3756(7) 0.8536(3)
H2 H 0.1971 0.4164 0.8836
C1 C 0.4309(17) 0.4448(9) 0.7927(4)
H3 H 0.3829 0.5448 0.7759
C2 C 0.6262(18) 0.2143(9) 0.8055(4)
H4 H 0.7430 0.1265 0.7961
N2 N 0.4481(15) 0.2317(7) 0.8629(3)
O6 O 1.4222(13) 0.5849(6) 0.4712(3)
N3 N 0.6147(14) 0.3474(6) 0.7602(3)
C3 C 0.7991(17) 0.2790(9) 0.6461(4)
H5 H 0.6964 0.1862 0.6545
N4 N 0.7907(15) 0.3847(7) 0.6958(3)
C4 C 0.9647(15) 0.2979(8) 0.5763(4)
C5 C 0.9752(19) 0.1764(9) 0.5242(4)
H6 H 0.8763 0.0832 0.5341
C6 C 1.1338(19) 0.1940(9) 0.4570(4)
H7 H 1.1407 0.1118 0.4224
C7 C 1.2797(18) 0.3305(9) 0.4410(4)
C8 C 1.2687(16) 0.4547(8) 0.4930(4)
C9 C 1.1115(17) 0.4381(8) 0.5599(4)
H8 H 1.1031 0.5207 0.5942
C10 C 1.426(2) 0.7168(10) 0.5216(5)
H9 H 1.5409 0.7995 0.4994
H10 H 1.2224 0.7515 0.5292
H11 H 1.5170 0.6876 0.5698
loop_
_geom_bond_atom_site_label_1
_geom_bond_atom_site_label_2
_geom_bond_site_symmetry_1
_geom_bond_site_symmetry_2
Cl1 O1 1_555 1_555
O2 Cl1 1_555 1_555
O3 Cl1 1_555 1_555
O4 Cl1 1_555 1_555
O5 H1 1_555 1_555
N1 H2 1_555 1_555
C1 N1 1_555 1_555
H3 C1 1_555 1_555
C2 H4 1_555 1_555
N2 N1 1_555 1_555
O6 C8 1_555 1_555
N3 C1 1_555 1_555
C3 H5 1_555 1_555
N4 N3 1_555 1_555
C4 C3 1_555 1_555
C5 C4 1_555 1_555
H6 C5 1_555 1_555
C6 C5 1_555 1_555
H7 C6 1_555 1_555
C7 O5 1_555 1_555
C8 C7 1_555 1_555
C9 C4 1_555 1_555
H8 C9 1_555 1_555
C10 O6 1_555 1_555
H9 C10 1_555 1_555
H10 C10 1_555 1_555
H11 C10 1_555 1_555
C2 N2 1_555 1_555
C2 N3 1_555 1_555
C3 N4 1_555 1_555
C6 C7 1_555 1_555
C8 C9 1_555 1_555

#END
