
#######################################################################
#
#                 Cambridge Crystallographic Data Centre
#                                CCDC 
#
#######################################################################
#
# If this CIF has been generated from an entry in the Cambridge 
# Structural Database, then it will include bibliographic, chemical, 
# crystal, experimental, refinement or atomic coordinate data resulting 
# from the CCDC's data processing and validation procedures.
#
#######################################################################

data_PEGXAD
_chemical_formula_moiety         'C10 H11 N4 O2 1+,H2 O4 P1 1-'
_chemical_name_systematic        
'4-{[(4-hydroxy-3-methoxyphenyl)methylidene]amino}-4H-1,2,4-triazol-1-ium dihydrogen phosphate'
_symmetry_cell_setting           monoclinic
_symmetry_space_group_name_H-M   'P n'
_symmetry_Int_Tables_number      7
_space_group_name_Hall           'P -2yac'
loop_
_symmetry_equiv_pos_site_id
_symmetry_equiv_pos_as_xyz
1 x,y,z
2 1/2+x,-y,1/2+z
_cell_length_a                   4.4091(9)
_cell_length_b                   8.6022(17)
_cell_length_c                   17.525(4)
_cell_angle_alpha                90
_cell_angle_beta                 91.34(3)
_cell_angle_gamma                90
_cell_volume                     664.506
_exptl_crystal_colour            'light yellow'
_exptl_crystal_description       acicular
_cell_formula_units_Z            2
loop_
_atom_site_label
_atom_site_type_symbol
_atom_site_fract_x
_atom_site_fract_y
_atom_site_fract_z
P1 P 0.7831(3) 0.88555(16) 0.01319(9)
O1 O 0.9259(11) 0.8975(5) -0.0608(3)
O2 O 0.5522(11) 0.7660(6) 0.0145(3)
O3 O 1.0321(11) 0.8339(8) 0.0719(3)
H1 H 1.1944 0.8251 0.0503
O4 O 0.6761(13) 1.0316(6) 0.0404(3)
H2 H 0.5162 1.0187 0.0625
O5 O 0.5004(11) 0.3583(5) 0.3565(3)
H3 H 0.4829 0.2767 0.3801
N1 N 1.1482(12) 0.3847(6) 0.0372(3)
C1 C 1.3087(15) 0.2141(7) -0.0720(3)
H4 H 1.1921 0.1264 -0.0626
O6 O 0.5131(10) 0.5851(4) 0.2621(2)
N2 N 1.6111(13) 0.3758(6) -0.1199(3)
H5 H 1.7413 0.4160 -0.1498
N3 N 1.3175(12) 0.3459(5) -0.0277(3)
C2 C 0.6679(13) 0.4554(6) 0.2395(3)
N4 N 1.4900(13) 0.2310(6) -0.1296(3)
C3 C 1.5073(14) 0.4462(7) -0.0600(4)
H6 H 1.5555 0.5460 -0.0432
C4 C 1.1393(14) 0.2766(7) 0.0876(3)
H7 H 1.2409 0.1835 0.0795
C5 C 0.6574(15) 0.3319(7) 0.2920(4)
C6 C 0.9644(15) 0.1777(8) 0.2089(4)
H8 H 1.0650 0.0852 0.1987
C7 C 0.8237(14) 0.4394(7) 0.1730(4)
H9 H 0.8308 0.5216 0.1386
C8 C 0.9732(13) 0.2983(7) 0.1568(3)
C9 C 0.8061(16) 0.1933(7) 0.2765(4)
H10 H 0.8001 0.1114 0.3110
C10 C 0.511(2) 0.7168(8) 0.2123(4)
H11 H 0.7154 0.7483 0.2030
H12 H 0.4035 0.8008 0.2356
H13 H 0.4115 0.6896 0.1648
loop_
_geom_bond_atom_site_label_1
_geom_bond_atom_site_label_2
_geom_bond_site_symmetry_1
_geom_bond_site_symmetry_2
P1 O1 1_555 1_555
O2 P1 1_555 1_555
O3 P1 1_555 1_555
H1 O3 1_555 1_555
O4 P1 1_555 1_555
H2 O4 1_555 1_555
O5 H3 1_555 1_555
N1 N3 1_555 1_555
C1 H4 1_555 1_555
O6 C2 1_555 1_555
N2 H5 1_555 1_555
N3 C1 1_555 1_555
C2 C5 1_555 1_555
N4 C1 1_555 1_555
C3 N2 1_555 1_555
H6 C3 1_555 1_555
C4 N1 1_555 1_555
H7 C4 1_555 1_555
C5 O5 1_555 1_555
C6 H8 1_555 1_555
C7 C2 1_555 1_555
H9 C7 1_555 1_555
C8 C4 1_555 1_555
C9 C5 1_555 1_555
H10 C9 1_555 1_555
C10 O6 1_555 1_555
H11 C10 1_555 1_555
H12 C10 1_555 1_555
H13 C10 1_555 1_555
N2 N4 1_555 1_555
N3 C3 1_555 1_555
C6 C8 1_555 1_555
C6 C9 1_555 1_555
C7 C8 1_555 1_555

#END
