
#######################################################################
#
#                 Cambridge Crystallographic Data Centre
#                                CCDC 
#
#######################################################################
#
# If this CIF has been generated from an entry in the Cambridge 
# Structural Database, then it will include bibliographic, chemical, 
# crystal, experimental, refinement or atomic coordinate data resulting 
# from the CCDC's data processing and validation procedures.
#
#######################################################################

data_PEGXEF
_chemical_formula_moiety         'C38 H37 N5 O10,0.5(C3 H6 O1)'
_chemical_name_systematic        
"3,4-Diphenyl-N,N'-bis(3,4-bis(ethoxycarbonyl)pyrrol-2-yl)-2,5-pyrrolediamide acetone solvate"
_symmetry_cell_setting           triclinic
_symmetry_space_group_name_H-M   'P -1'
_symmetry_Int_Tables_number      2
_space_group_name_Hall           '-P 1'
loop_
_symmetry_equiv_pos_site_id
_symmetry_equiv_pos_as_xyz
1 x,y,z
2 -x,-y,-z
_cell_length_a                   9.8674(16)
_cell_length_b                   11.449(3)
_cell_length_c                   17.359(6)
_cell_angle_alpha                102.14(2)
_cell_angle_beta                 105.57(2)
_cell_angle_gamma                95.79(2)
_cell_volume                     1820.91
_exptl_crystal_colour            'pale yellow'
_exptl_crystal_description       Prism
_chemical_melting_point          '266-267 deg.C(dec.)'
_cell_formula_units_Z            2
loop_
_atom_site_label
_atom_site_type_symbol
_atom_site_fract_x
_atom_site_fract_y
_atom_site_fract_z
C39 C 0.4001(6) 0.4398(5) 0.4372(3)
H38 H 0.3272 0.4000 0.4562
H39 H 0.4658 0.3840 0.4265
H40 H 0.3542 0.4627 0.3863
O11 O 0.4225(8) 0.6348(7) 0.5014(4)
C40 C 0.4728(13) 0.5390(10) 0.4952(7)
C39A C 0.5999(6) 0.5602(5) 0.5628(3)
H38A H 0.6728 0.6000 0.5438
H39A H 0.5342 0.6160 0.5735
H40A H 0.6458 0.5373 0.6137
O11A O 0.5775(8) 0.3652(7) 0.4986(4)
C40A C 0.5272(13) 0.4610(10) 0.5048(7)
C1 C -0.9454(5) 1.3043(5) 0.2608(4)
H1 H -0.8804 1.3708 0.3043
H2 H -1.0423 1.3234 0.2484
H3 H -0.9145 1.2938 0.2110
C2 C -0.9440(4) 1.1946(4) 0.2883(3)
H4 H -1.0115 1.1282 0.2446
H5 H -0.9771 1.2053 0.3379
C3 C -0.7609(4) 1.1014(4) 0.2476(2)
C4 C -0.8399(4) 0.9070(4) -0.0308(3)
H6 H -0.8818 0.8427 -0.0106
H7 H -0.8594 0.8800 -0.0908
H8 H -0.8817 0.9799 -0.0176
C5 C -0.6813(4) 0.9350(4) 0.0098(2)
H9 H -0.6380 0.8613 -0.0012
H10 H -0.6368 0.9977 -0.0115
C6 C -0.5349(3) 0.9760(3) 0.1487(2)
C7 C -0.5427(3) 1.1082(3) 0.3597(2)
H11 H -0.5769 1.1490 0.4025
C8 C -0.6151(3) 1.0784(3) 0.2779(2)
C9 C -0.5227(3) 1.0203(3) 0.2352(2)
C10 C -0.4008(3) 1.0175(3) 0.29705(19)
C11 C -0.1651(3) 0.9658(3) 0.3495(2)
C12 C -0.0616(3) 0.8954(3) 0.32400(19)
C13 C -0.0629(3) 0.8177(3) 0.25047(19)
C14 C 0.0717(3) 0.7817(3) 0.26238(19)
C15 C 0.1524(3) 0.8377(3) 0.3428(2)
C16 C 0.3004(3) 0.8408(3) 0.38946(19)
C17 C -0.1810(3) 0.7718(3) 0.17225(19)
C18 C -0.2988(3) 0.6913(3) 0.1696(2)
H12 H -0.3051 0.6685 0.2183
C19 C -0.4062(4) 0.6445(4) 0.0964(2)
H13 H -0.4869 0.5903 0.0951
C20 C -0.3975(4) 0.6756(4) 0.0250(2)
H14 H -0.4717 0.6431 -0.0253
C21 C -0.2802(4) 0.7544(3) 0.0273(2)
H15 H -0.2735 0.7757 -0.0217
C22 C -0.1723(4) 0.8027(3) 0.1007(2)
H16 H -0.0920 0.8571 0.1018
C23 C 0.1109(3) 0.6960(3) 0.19769(19)
C24 C 0.0559(4) 0.5737(3) 0.1779(2)
H17 H -0.0020 0.5442 0.2077
C25 C 0.0852(4) 0.4946(4) 0.1148(2)
H18 H 0.0470 0.4108 0.1010
C26 C 0.1698(4) 0.5372(4) 0.0718(2)
H19 H 0.1912 0.4825 0.0290
C27 C 0.2229(4) 0.6576(4) 0.0904(2)
H20 H 0.2802 0.6865 0.0601
C28 C 0.1941(4) 0.7382(3) 0.1531(2)
H21 H 0.2311 0.8221 0.1655
C29 C 0.5155(3) 0.7536(3) 0.38582(19)
C30 C 0.5866(3) 0.6643(3) 0.35740(19)
C31 C 0.7305(3) 0.6946(3) 0.41167(19)
C32 C 0.7366(3) 0.7986(3) 0.4688(2)
H22 H 0.8187 0.8394 0.5131
C33 C 0.6269(4) 0.2993(4) 0.1898(2)
H23 H 0.6876 0.3540 0.1716
H24 H 0.5818 0.2272 0.1446
H25 H 0.6851 0.2749 0.2372
C34 C 0.5150(4) 0.3624(3) 0.2141(2)
H26 H 0.4535 0.3853 0.1662
H27 H 0.4545 0.3088 0.2341
C35 C 0.5101(3) 0.5578(3) 0.2917(2)
C36 C 1.1729(4) 0.6632(4) 0.5787(2)
H28 H 1.1761 0.7487 0.6043
H29 H 1.2703 0.6468 0.5851
H30 H 1.1248 0.6121 0.6054
C37 C 1.0925(3) 0.6358(3) 0.4886(2)
H31 H 1.1410 0.6859 0.4606
H32 H 1.0871 0.5493 0.4621
C38 C 0.8592(3) 0.6424(3) 0.4068(2)
N1 N -0.4143(3) 1.0710(2) 0.37121(16)
H33 H -0.3500 1.0801 0.4192
N2 N -0.2830(3) 0.9671(2) 0.28785(16)
H34 H -0.2846 0.9325 0.2372
N3 N 0.0703(3) 0.9060(2) 0.37974(16)
H35 H 0.0976 0.9497 0.4311
N4 N 0.3734(3) 0.7635(2) 0.35348(16)
H36 H 0.3264 0.7148 0.3050
N5 N 0.6066(3) 0.8349(2) 0.45248(16)
H37 H 0.5855 0.9003 0.4806
O1 O -0.8036(3) 1.1607(3) 0.30765(16)
O2 O -0.8424(4) 1.0646(5) 0.1818(2)
O3 O -0.6600(2) 0.9787(2) 0.09784(13)
O4 O -0.4377(3) 0.9403(3) 0.12544(15)
O5 O -0.1438(2) 1.0218(2) 0.42191(13)
O6 O 0.3562(2) 0.9117(2) 0.45841(13)
O7 O 0.3864(3) 0.5484(2) 0.25251(16)
O8 O 0.5876(2) 0.4703(2) 0.27953(14)
O9 O 0.8836(2) 0.5920(2) 0.34490(15)
O10 O 0.9517(2) 0.6635(2) 0.48295(14)
loop_
_geom_bond_atom_site_label_1
_geom_bond_atom_site_label_2
_geom_bond_site_symmetry_1
_geom_bond_site_symmetry_2
C1 H1 1_555 1_555
H2 C1 1_555 1_555
H3 C1 1_555 1_555
C2 C1 1_555 1_555
H4 C2 1_555 1_555
H5 C2 1_555 1_555
C3 C8 1_555 1_555
C4 H6 1_555 1_555
H7 C4 1_555 1_555
H8 C4 1_555 1_555
C5 C4 1_555 1_555
H9 C5 1_555 1_555
H10 C5 1_555 1_555
C6 C9 1_555 1_555
C7 H11 1_555 1_555
C8 C7 1_555 1_555
C9 C8 1_555 1_555
C10 C9 1_555 1_555
C11 C12 1_555 1_555
C12 C13 1_555 1_555
C13 C14 1_555 1_555
C14 C15 1_555 1_555
C15 C16 1_555 1_555
C16 N4 1_555 1_555
C17 C13 1_555 1_555
C18 C17 1_555 1_555
H12 C18 1_555 1_555
C19 C18 1_555 1_555
H13 C19 1_555 1_555
C20 C19 1_555 1_555
H14 C20 1_555 1_555
C21 C20 1_555 1_555
H15 C21 1_555 1_555
C22 C17 1_555 1_555
H16 C22 1_555 1_555
C23 C14 1_555 1_555
C24 C23 1_555 1_555
H17 C24 1_555 1_555
C25 C24 1_555 1_555
H18 C25 1_555 1_555
C26 C25 1_555 1_555
H19 C26 1_555 1_555
C27 C26 1_555 1_555
H20 C27 1_555 1_555
C28 C23 1_555 1_555
H21 C28 1_555 1_555
C29 C30 1_555 1_555
C30 C31 1_555 1_555
C31 C32 1_555 1_555
C32 H22 1_555 1_555
C33 H23 1_555 1_555
H24 C33 1_555 1_555
H25 C33 1_555 1_555
C34 C33 1_555 1_555
H26 C34 1_555 1_555
H27 C34 1_555 1_555
C35 C30 1_555 1_555
C36 H28 1_555 1_555
H29 C36 1_555 1_555
H30 C36 1_555 1_555
C37 C36 1_555 1_555
H31 C37 1_555 1_555
H32 C37 1_555 1_555
C38 C31 1_555 1_555
N1 C7 1_555 1_555
H33 N1 1_555 1_555
N2 C10 1_555 1_555
H34 N2 1_555 1_555
N3 C12 1_555 1_555
H35 N3 1_555 1_555
N4 C29 1_555 1_555
H36 N4 1_555 1_555
N5 C29 1_555 1_555
H37 N5 1_555 1_555
O1 C2 1_555 1_555
O2 C3 1_555 1_555
O3 C5 1_555 1_555
O4 C6 1_555 1_555
O5 C11 1_555 1_555
O6 C16 1_555 1_555
O7 C35 1_555 1_555
O8 C34 1_555 1_555
O9 C38 1_555 1_555
O10 C37 1_555 1_555
C39 H38 1_555 1_555
H39 C39 1_555 1_555
H40 C39 1_555 1_555
O11 C40 1_555 1_555
C40 C39 1_555 1_555
C39A C40 1_555 1_555
H38A C39A 1_555 1_555
H39A C39A 1_555 1_555
H40A C39A 1_555 1_555
O11A C40A 1_555 1_555
C40A C39 1_555 1_555
C3 O1 1_555 1_555
C6 O3 1_555 1_555
C10 N1 1_555 1_555
C11 N2 1_555 1_555
C15 N3 1_555 1_555
C21 C22 1_555 1_555
C27 C28 1_555 1_555
C32 N5 1_555 1_555
C35 O8 1_555 1_555
C38 O10 1_555 1_555
C40 C40A 1_555 1_555
C39A C40A 1_555 1_555

#END
