
#######################################################################
#
#                 Cambridge Crystallographic Data Centre
#                                CCDC 
#
#######################################################################
#
# If this CIF has been generated from an entry in the Cambridge 
# Structural Database, then it will include bibliographic, chemical, 
# crystal, experimental, refinement or atomic coordinate data resulting 
# from the CCDC's data processing and validation procedures.
#
#######################################################################

data_PEGYUY
_chemical_formula_moiety         'C15 H22 O3,0.5(H2 O1)'
_chemical_name_systematic        
'6-hydroxy-8-isopropyl-5-methylene-3,4,4a,5,6,7,8,8a-octahydronaphthalene-2-carboxylic acid hemihydrate'
_symmetry_cell_setting           orthorhombic
_symmetry_space_group_name_H-M   'P 21 21 2'
_symmetry_Int_Tables_number      18
_space_group_name_Hall           'P 2 2ab'
loop_
_symmetry_equiv_pos_site_id
_symmetry_equiv_pos_as_xyz
1 x,y,z
2 -x,-y,z
3 1/2-x,1/2+y,-z
4 1/2+x,1/2-y,-z
_cell_length_a                   16.315(3)
_cell_length_b                   17.050(3)
_cell_length_c                   5.2386(10)
_cell_angle_alpha                90
_cell_angle_beta                 90
_cell_angle_gamma                90
_cell_volume                     1457.23
_exptl_crystal_colour            colorless
_exptl_crystal_description       needle
_cell_formula_units_Z            4
loop_
_atom_site_label
_atom_site_type_symbol
_atom_site_fract_x
_atom_site_fract_y
_atom_site_fract_z
O1 O 0.0000 0.0000 0.2252(5)
H1 H -0.0327 0.0326 0.1269
H1A H 0.0327 -0.0326 0.1269
O2 O 0.06479(9) 0.13765(9) 0.3940(4)
H2 H 0.0589 0.0893 0.3696
O3 O 0.45933(9) 0.27234(9) -0.1573(3)
H3 H 0.4923 0.3031 -0.2292
O4 O 0.41564(10) 0.38282(9) 0.0268(4)
C1 C 0.24641(11) 0.16201(10) 0.4157(4)
H4 H 0.2174 0.1597 0.2477
C2 C 0.33268(12) 0.13082(11) 0.3711(4)
H5 H 0.3664 0.1395 0.5256
H6 H 0.3304 0.0737 0.3379
C3 C 0.37159(12) 0.17240(12) 0.1444(4)
H7 H 0.4305 0.1589 0.1355
H8 H 0.3453 0.1543 -0.0154
C4 C 0.36210(12) 0.26016(11) 0.1679(4)
C5 C 0.30892(11) 0.29347(11) 0.3278(4)
H9 H 0.3084 0.3491 0.3374
C6 C 0.24978(12) 0.24923(11) 0.4938(5)
H10 H 0.2709 0.2517 0.6729
C7 C 0.16205(11) 0.28402(11) 0.4939(4)
H11 H 0.1386 0.2750 0.3200
C8 C 0.10982(13) 0.23681(12) 0.6823(4)
H12 H 0.1310 0.2456 0.8571
H13 H 0.0529 0.2567 0.6765
C9 C 0.10893(13) 0.14915(12) 0.6290(5)
H14 H 0.0800 0.1213 0.7708
C10 C 0.19467(12) 0.11731(11) 0.6031(4)
C11 C 0.41435(12) 0.31176(12) 0.0083(4)
C12 C 0.15801(13) 0.37325(11) 0.5452(4)
H15 H 0.1941 0.3988 0.4153
C13 C 0.07203(15) 0.40528(13) 0.5021(7)
H16 H 0.0738 0.4627 0.4994
H17 H 0.0360 0.3877 0.6404
H18 H 0.0509 0.3860 0.3386
C14 C 0.1915(2) 0.39637(14) 0.8052(5)
H19 H 0.1885 0.4535 0.8247
H20 H 0.2487 0.3794 0.8193
H21 H 0.1588 0.3712 0.9392
C15 C 0.21911(15) 0.05623(12) 0.7392(5)
H22 H 0.2736 0.0372 0.7224
H23 H 0.1822 0.0314 0.8537
loop_
_geom_bond_atom_site_label_1
_geom_bond_atom_site_label_2
_geom_bond_site_symmetry_1
_geom_bond_site_symmetry_2
O1 H1 1_555 1_555
O2 H2 1_555 1_555
O3 H3 1_555 1_555
O4 C11 1_555 1_555
C1 H4 1_555 1_555
C2 C1 1_555 1_555
H5 C2 1_555 1_555
H6 C2 1_555 1_555
C3 C2 1_555 1_555
H7 C3 1_555 1_555
H8 C3 1_555 1_555
C4 C3 1_555 1_555
C5 C4 1_555 1_555
H9 C5 1_555 1_555
C6 C1 1_555 1_555
H10 C6 1_555 1_555
C7 C6 1_555 1_555
H11 C7 1_555 1_555
C8 C7 1_555 1_555
H12 C8 1_555 1_555
H13 C8 1_555 1_555
C9 O2 1_555 1_555
H14 C9 1_555 1_555
C10 C1 1_555 1_555
C11 O3 1_555 1_555
C12 C7 1_555 1_555
H15 C12 1_555 1_555
C13 C12 1_555 1_555
H16 C13 1_555 1_555
H17 C13 1_555 1_555
H18 C13 1_555 1_555
C14 C12 1_555 1_555
H19 C14 1_555 1_555
H20 C14 1_555 1_555
H21 C14 1_555 1_555
C15 C10 1_555 1_555
H22 C15 1_555 1_555
H23 C15 1_555 1_555
H1A O1 1_555 1_555
C4 C11 1_555 1_555
C5 C6 1_555 1_555
C8 C9 1_555 1_555
C9 C10 1_555 1_555

#END
