
#######################################################################
#
#                 Cambridge Crystallographic Data Centre
#                                CCDC 
#
#######################################################################
#
# If this CIF has been generated from an entry in the Cambridge 
# Structural Database, then it will include bibliographic, chemical, 
# crystal, experimental, refinement or atomic coordinate data resulting 
# from the CCDC's data processing and validation procedures.
#
#######################################################################

data_PEGZAF
_chemical_formula_moiety         'C15 H24 O5'
_chemical_name_systematic        
'5,6-dihydroxy-5-(hydroxymethyl)-8-isopropyl-3,4,4a,5,6,7,8,8a-octahydronaphthalene-2-carboxylic acid'
_symmetry_cell_setting           orthorhombic
_symmetry_space_group_name_H-M   'P 21 21 21'
_symmetry_Int_Tables_number      19
_space_group_name_Hall           'P 2ac 2ab'
loop_
_symmetry_equiv_pos_site_id
_symmetry_equiv_pos_as_xyz
1 x,y,z
2 1/2-x,-y,1/2+z
3 -x,1/2+y,1/2-z
4 1/2+x,1/2-y,-z
_cell_length_a                   5.5709(11)
_cell_length_b                   15.994(3)
_cell_length_c                   16.547(3)
_cell_angle_alpha                90
_cell_angle_beta                 90
_cell_angle_gamma                90
_cell_volume                     1474.35
_exptl_crystal_colour            colorless
_exptl_crystal_description       plate
_cell_formula_units_Z            4
loop_
_atom_site_label
_atom_site_type_symbol
_atom_site_fract_x
_atom_site_fract_y
_atom_site_fract_z
O1 O -0.3623(4) 0.48586(11) 0.42003(11)
H1 H -0.4309 0.5199 0.4511
O2 O 0.0505(3) 0.39430(11) 0.00735(10)
H2 H 0.0137 0.3501 -0.0171
O3 O 0.0889(3) 0.26390(9) 0.10448(10)
H3 H 0.1841 0.2232 0.1042
O4 O 0.5999(3) 0.25120(10) 0.08973(10)
H4 H 0.7496 0.2551 0.0942
C1 C 0.1191(4) 0.38395(13) 0.18868(12)
H5 H -0.0471 0.3937 0.1679
C2 C 0.0888(5) 0.33839(14) 0.26937(13)
H6 H 0.0394 0.2799 0.2593
H7 H 0.2441 0.3374 0.2984
C3 C -0.1000(5) 0.38182(14) 0.32163(13)
H8 H -0.2624 0.3671 0.3020
H9 H -0.0855 0.3623 0.3782
C4 C -0.0675(5) 0.47503(14) 0.31863(13)
C5 C 0.0825(4) 0.51375(13) 0.26816(13)
H10 H 0.0997 0.5726 0.2736
C6 C 0.2264(4) 0.47112(13) 0.20324(12)
H11 H 0.3950 0.4643 0.2229
C7 C 0.2316(5) 0.52054(13) 0.12253(13)
H12 H 0.0633 0.5213 0.1015
C8 C 0.3807(4) 0.47026(14) 0.06193(13)
H13 H 0.3895 0.5016 0.0104
H14 H 0.5462 0.4644 0.0830
C9 C 0.2791(4) 0.38385(14) 0.04536(13)
H15 H 0.3890 0.3533 0.0078
C10 C 0.2471(4) 0.33205(13) 0.12343(12)
C11 C -0.2148(5) 0.52830(15) 0.37316(14)
C12 C 0.3127(5) 0.61304(15) 0.12938(16)
H16 H 0.2252 0.6410 0.1747
C13 C 0.2657(8) 0.66005(18) 0.05018(19)
H17 H 0.2962 0.7198 0.0582
H18 H 0.0983 0.6518 0.0338
H19 H 0.3726 0.6386 0.0080
C14 C 0.4875(4) 0.29772(15) 0.15231(13)
H20 H 0.5930 0.3445 0.1688
H21 H 0.4620 0.2613 0.1999
O5 O -0.229(5) 0.6045(3) 0.3659(16)
C15 C 0.5646(17) 0.6227(9) 0.1645(14)
H22 H 0.6779 0.5890 0.1330
H23 H 0.5651 0.6038 0.2208
H24 H 0.6125 0.6817 0.1622
C16? C 0.5828(17) 0.6225(18) 0.1414(19)
H25? H 0.6655 0.6115 0.0902
H26? H 0.6378 0.5827 0.1823
H27? H 0.6187 0.6796 0.1593
O6? O -0.174(4) 0.6021(6) 0.3849(15)
loop_
_geom_bond_atom_site_label_1
_geom_bond_atom_site_label_2
_geom_bond_site_symmetry_1
_geom_bond_site_symmetry_2
O1 H1 1_555 1_555
O2 H2 1_555 1_555
O3 H3 1_555 1_555
O4 H4 1_555 1_555
C1 H5 1_555 1_555
C2 C1 1_555 1_555
H6 C2 1_555 1_555
H7 C2 1_555 1_555
C3 C2 1_555 1_555
H8 C3 1_555 1_555
H9 C3 1_555 1_555
C4 C3 1_555 1_555
C5 C4 1_555 1_555
H10 C5 1_555 1_555
C6 C1 1_555 1_555
H11 C6 1_555 1_555
C7 C6 1_555 1_555
H12 C7 1_555 1_555
C8 C7 1_555 1_555
H13 C8 1_555 1_555
H14 C8 1_555 1_555
C9 O2 1_555 1_555
H15 C9 1_555 1_555
C10 O3 1_555 1_555
C11 O1 1_555 1_555
C12 C7 1_555 1_555
H16 C12 1_555 1_555
C13 C12 1_555 1_555
H17 C13 1_555 1_555
H18 C13 1_555 1_555
H19 C13 1_555 1_555
C14 O4 1_555 1_555
H20 C14 1_555 1_555
H21 C14 1_555 1_555
O5 C11 1_555 1_555
C15 C12 1_555 1_555
H22 C15 1_555 1_555
H23 C15 1_555 1_555
H24 C15 1_555 1_555
C1 C10 1_555 1_555
C4 C11 1_555 1_555
C5 C6 1_555 1_555
C8 C9 1_555 1_555
C9 C10 1_555 1_555
C10 C14 1_555 1_555

#END
