
#######################################################################
#
#                 Cambridge Crystallographic Data Centre
#                                CCDC 
#
#######################################################################
#
# If this CIF has been generated from an entry in the Cambridge 
# Structural Database, then it will include bibliographic, chemical, 
# crystal, experimental, refinement or atomic coordinate data resulting 
# from the CCDC's data processing and validation procedures.
#
#######################################################################

data_PEHCUB
_chemical_formula_moiety         'C20 H22 Br1 N1 O4 S1'
_chemical_name_systematic        
(-)-3-(4-Bromophenyl)-2-(t-butoxycarbonyl)-N-(p-toluenesulfonato)aziridine
_symmetry_cell_setting           monoclinic
_symmetry_space_group_name_H-M   'P 21'
_symmetry_Int_Tables_number      4
_space_group_name_Hall           'P 2yb'
loop_
_symmetry_equiv_pos_site_id
_symmetry_equiv_pos_as_xyz
1 x,y,z
2 -x,1/2+y,-z
_cell_length_a                   6.1113(10)
_cell_length_b                   20.414(3)
_cell_length_c                   8.4961(13)
_cell_angle_alpha                90
_cell_angle_beta                 92.706(3)
_cell_angle_gamma                90
_cell_volume                     1058.76
_exptl_crystal_colour            colorless
_cell_formula_units_Z            2
_exptl_crystal_recrystallization_method dichloromethane/hexane
loop_
_atom_site_label
_atom_site_type_symbol
_atom_site_fract_x
_atom_site_fract_y
_atom_site_fract_z
Br1 Br 0.19146(17) 0.68312(3) 0.54328(10)
S1 S 0.7411(2) 0.86172(6) -0.05037(14)
O1 O 0.5244(6) 0.84316(17) -0.0999(4)
O2 O 0.8874(7) 0.81262(18) 0.0126(5)
O3 O 0.6711(9) 1.0594(2) 0.1994(6)
O4 O 0.4199(7) 1.05643(17) -0.0016(5)
N1 N 0.7466(7) 0.9231(2) 0.0801(5)
C1 C 0.5546(10) 1.0310(3) 0.1076(7)
C2 C 0.5352(10) 0.9576(2) 0.1004(6)
C3 C 0.6283(9) 0.9178(3) 0.2316(6)
C4 C 0.5228(8) 0.8577(2) 0.2934(5)
C5 C 0.6333(11) 0.8254(3) 0.4201(7)
H1 H 0.7719 0.8395 0.4552
C6 C 0.5382(12) 0.7735(3) 0.4920(8)
H2 H 0.6123 0.7514 0.5741
C7 C 0.3279(12) 0.7542(3) 0.4400(7)
C8 C 0.2198(10) 0.7837(3) 0.3158(7)
H3 H 0.0827 0.7688 0.2796
C9 C 0.3184(10) 0.8364(3) 0.2440(6)
H4 H 0.2441 0.8577 0.1607
C10 C 0.8627(8) 0.9034(2) -0.2067(6)
C11 C 1.0638(10) 0.8834(3) -0.2545(7)
H5 H 1.1348 0.8479 -0.2065
C12 C 1.1588(10) 0.9168(3) -0.3747(7)
H6 H 1.2912 0.9021 -0.4112
C13 C 1.0600(10) 0.9718(3) -0.4418(7)
C14 C 0.8575(10) 0.9909(3) -0.3911(6)
H7 H 0.7874 1.0271 -0.4371
C15 C 0.7589(9) 0.9571(3) -0.2737(6)
H8 H 0.6234 0.9705 -0.2398
C16 C 1.1660(13) 1.0094(4) -0.5716(8)
H9 H 1.2111 1.0517 -0.5330
H10 H 1.0627 1.0146 -0.6594
H11 H 1.2915 0.9857 -0.6047
C17 C 0.3818(12) 1.1287(3) -0.0131(8)
C18 C 0.2687(15) 1.1507(3) 0.1310(9)
H12 H 0.3750 1.1565 0.2167
H13 H 0.1640 1.1181 0.1590
H14 H 0.1947 1.1914 0.1095
C19 C 0.226(2) 1.1330(5) -0.1570(12)
H15 H 0.1560 1.1751 -0.1596
H16 H 0.1177 1.0992 -0.1523
H17 H 0.3071 1.1275 -0.2504
C20 C 0.5891(16) 1.1643(4) -0.0344(12)
H18 H 0.6570 1.1745 0.0668
H19 H 0.5592 1.2041 -0.0915
H20 H 0.6858 1.1373 -0.0923
H21 H 0.717(6) 0.9396(18) 0.311(4)
H22 H 0.398(9) 0.941(3) 0.051(6)
loop_
_geom_bond_atom_site_label_1
_geom_bond_atom_site_label_2
_geom_bond_site_symmetry_1
_geom_bond_site_symmetry_2
Br1 C7 1_555 1_555
S1 O1 1_555 1_555
O2 S1 1_555 1_555
O3 C1 1_555 1_555
O4 C1 1_555 1_555
N1 S1 1_555 1_555
C1 C2 1_555 1_555
C2 N1 1_555 1_555
C3 N1 1_555 1_555
C4 C3 1_555 1_555
C5 C4 1_555 1_555
H1 C5 1_555 1_555
C6 C5 1_555 1_555
H2 C6 1_555 1_555
C7 C6 1_555 1_555
C8 C7 1_555 1_555
H3 C8 1_555 1_555
C9 C4 1_555 1_555
H4 C9 1_555 1_555
C10 S1 1_555 1_555
C11 C10 1_555 1_555
H5 C11 1_555 1_555
C12 C11 1_555 1_555
H6 C12 1_555 1_555
C13 C12 1_555 1_555
C14 C13 1_555 1_555
H7 C14 1_555 1_555
C15 C10 1_555 1_555
H8 C15 1_555 1_555
C16 C13 1_555 1_555
H9 C16 1_555 1_555
H10 C16 1_555 1_555
H11 C16 1_555 1_555
C17 O4 1_555 1_555
C18 C17 1_555 1_555
H12 C18 1_555 1_555
H13 C18 1_555 1_555
H14 C18 1_555 1_555
C19 C17 1_555 1_555
H15 C19 1_555 1_555
H16 C19 1_555 1_555
H17 C19 1_555 1_555
C20 C17 1_555 1_555
H18 C20 1_555 1_555
H19 C20 1_555 1_555
H20 C20 1_555 1_555
H21 C3 1_555 1_555
H22 C2 1_555 1_555
C2 C3 1_555 1_555
C8 C9 1_555 1_555
C14 C15 1_555 1_555

#END
