
#######################################################################
#
#                 Cambridge Crystallographic Data Centre
#                                CCDC 
#
#######################################################################
#
# If this CIF has been generated from an entry in the Cambridge 
# Structural Database, then it will include bibliographic, chemical, 
# crystal, experimental, refinement or atomic coordinate data resulting 
# from the CCDC's data processing and validation procedures.
#
#######################################################################

data_PEHCIR
_chemical_formula_moiety         'C10 H10 N4 O2'
_chemical_name_systematic        
2-methoxy-5-((4H-1,2,4-triazol-4-ylimino)methyl)phenol
_symmetry_cell_setting           monoclinic
_symmetry_space_group_name_H-M   'P 21/c'
_symmetry_Int_Tables_number      14
_space_group_name_Hall           '-P 2ybc'
loop_
_symmetry_equiv_pos_site_id
_symmetry_equiv_pos_as_xyz
1 x,y,z
2 -x,1/2+y,1/2-z
3 -x,-y,-z
4 x,1/2-y,1/2+z
_cell_length_a                   5.4220(11)
_cell_length_b                   10.436(2)
_cell_length_c                   17.944(4)
_cell_angle_alpha                90
_cell_angle_beta                 91.20(3)
_cell_angle_gamma                90
_cell_volume                     1015.12
_exptl_crystal_colour            colorless
_exptl_crystal_description       blocky
_cell_formula_units_Z            4
loop_
_atom_site_label
_atom_site_type_symbol
_atom_site_fract_x
_atom_site_fract_y
_atom_site_fract_z
O1 O -0.0503(4) 0.87693(19) 0.43548(12)
N1 N 1.1040(5) 0.2090(2) 0.29495(15)
C1 C 1.0008(5) 0.3181(3) 0.30950(17)
H1 H 1.0716 0.3978 0.3012
O2 O 0.2870(4) 0.92665(18) 0.33135(12)
H2 H 0.1877 0.9842 0.3457
N2 N 0.9389(5) 0.1133(2) 0.31481(14)
C2 C 0.7465(5) 0.1709(3) 0.34123(17)
H3 H 0.6086 0.1292 0.3594
N3 N 0.7740(4) 0.2990(2) 0.33865(13)
C3 C 0.6151(5) 0.4999(3) 0.34517(15)
H4 H 0.7368 0.5235 0.3121
C4 C 0.4432(5) 0.5954(2) 0.37259(15)
N4 N 0.5983(4) 0.3839(2) 0.36663(13)
C5 C 0.2798(5) 0.5693(3) 0.42858(17)
H5 H 0.2824 0.4893 0.4514
C6 C 0.1123(6) 0.6608(3) 0.45110(17)
H6 H 0.0025 0.6416 0.4886
C7 C 0.1073(5) 0.7800(3) 0.41829(15)
C8 C 0.2774(5) 0.8085(2) 0.36298(15)
C9 C 0.4429(5) 0.7173(2) 0.34081(15)
H7 H 0.5559 0.7371 0.3043
C10 C -0.2200(6) 0.8559(3) 0.49385(17)
H8 H -0.3199 0.9310 0.5000
H9 H -0.1306 0.8383 0.5394
H10 H -0.3239 0.7842 0.4814
loop_
_geom_bond_atom_site_label_1
_geom_bond_atom_site_label_2
_geom_bond_site_symmetry_1
_geom_bond_site_symmetry_2
O1 C7 1_555 1_555
N1 C1 1_555 1_555
C1 H1 1_555 1_555
O2 H2 1_555 1_555
N2 N1 1_555 1_555
C2 N2 1_555 1_555
H3 C2 1_555 1_555
N3 C1 1_555 1_555
C3 H4 1_555 1_555
C4 C3 1_555 1_555
N4 N3 1_555 1_555
C5 C4 1_555 1_555
H5 C5 1_555 1_555
C6 C5 1_555 1_555
H6 C6 1_555 1_555
C7 C6 1_555 1_555
C8 O2 1_555 1_555
C9 C4 1_555 1_555
H7 C9 1_555 1_555
C10 O1 1_555 1_555
H8 C10 1_555 1_555
H9 C10 1_555 1_555
H10 C10 1_555 1_555
C2 N3 1_555 1_555
C3 N4 1_555 1_555
C7 C8 1_555 1_555
C8 C9 1_555 1_555

#END
