
#######################################################################
#
#                 Cambridge Crystallographic Data Centre
#                                CCDC 
#
#######################################################################
#
# If this CIF has been generated from an entry in the Cambridge 
# Structural Database, then it will include bibliographic, chemical, 
# crystal, experimental, refinement or atomic coordinate data resulting 
# from the CCDC's data processing and validation procedures.
#
#######################################################################

data_PEHCOV
_chemical_formula_moiety         'C26 H28 Cl4 N2 O2'
_chemical_name_systematic        
(2R,2'R,3S,3'S)-5,5,5',5'-Tetramethyl-N,N'-bis(2,6-dichlorobenzylidene)-octahydro-2,2'-bifuranyl-3,3'-diamine
_symmetry_cell_setting           monoclinic
_symmetry_space_group_name_H-M   'C 2'
_symmetry_Int_Tables_number      5
_space_group_name_Hall           'C 2y'
loop_
_symmetry_equiv_pos_site_id
_symmetry_equiv_pos_as_xyz
1 x,y,z
2 -x,y,-z
3 1/2+x,1/2+y,z
4 1/2-x,1/2+y,-z
_cell_length_a                   20.193(3)
_cell_length_b                   6.8532(9)
_cell_length_c                   11.2737(14)
_cell_angle_alpha                90
_cell_angle_beta                 120.578(2)
_cell_angle_gamma                90
_cell_volume                     1343.17
_exptl_crystal_colour            colorless
_chemical_melting_point          '197-198 deg.C'
_cell_formula_units_Z            2
_exptl_crystal_recrystallization_method methanol
loop_
_atom_site_label
_atom_site_type_symbol
_atom_site_fract_x
_atom_site_fract_y
_atom_site_fract_z
Cl1 Cl 0.91057(6) 0.7155(2) -0.03387(8)
Cl2 Cl 0.79076(4) 0.68853(17) 0.29569(8)
N1 N 0.95624(11) 0.8804(3) 0.27619(18)
O1 O 1.02902(9) 1.2384(3) 0.40840(16)
C1 C 1.03258(13) 1.0710(4) 0.4860(2)
C2 C 1.03236(13) 0.8998(4) 0.3985(2)
C3 C 1.08726(17) 0.9805(5) 0.3558(3)
C4 C 1.07614(14) 1.1992(6) 0.3474(2)
C5 C 1.1507(3) 1.3100(11) 0.4293(6)
C6 C 1.0303(3) 1.2723(7) 0.1997(4)
C7 C 0.92345(14) 0.7210(4) 0.2486(2)
C8 C 0.84483(13) 0.7026(4) 0.1229(2)
C9 C 0.83246(15) 0.7042(4) -0.0104(2)
C10 C 0.7593(2) 0.6986(5) -0.1237(3)
C11 C 0.69694(18) 0.6922(5) -0.1079(3)
C12 C 0.70628(17) 0.6886(5) 0.0209(3)
C13 C 0.77990(14) 0.6937(4) 0.1326(2)
H1 H 1.0809(13) 1.065(4) 0.573(3)
H2 H 1.0464(14) 0.779(4) 0.443(2)
H3 H 1.0812(15) 0.925(4) 0.279(3)
H4 H 1.1396(17) 0.954(4) 0.424(3)
H5 H 1.179(3) 1.257(10) 0.524(6)
H6 H 1.148(3) 1.443(10) 0.437(6)
H7 H 1.182(3) 1.280(8) 0.398(5)
H8 H 1.019(3) 1.415(9) 0.199(5)
H9 H 1.068(2) 1.258(5) 0.174(3)
H10 H 0.980(4) 1.200(11) 0.151(6)
H11 H 0.9383(15) 0.602(4) 0.309(3)
H12 H 0.757(2) 0.707(7) -0.205(4)
H13 H 0.6472(18) 0.688(5) -0.183(3)
H14 H 0.662(2) 0.693(6) 0.033(3)
Cl1A Cl 1.08943(6) 0.7155(2) 1.03387(8)
Cl2A Cl 1.20924(4) 0.68853(17) 0.70431(8)
N1A N 1.04376(11) 0.8804(3) 0.72381(18)
O1A O 0.97098(9) 1.2384(3) 0.59160(16)
C1A C 0.96742(13) 1.0710(4) 0.5140(2)
C2A C 0.96764(13) 0.8998(4) 0.6015(2)
C3A C 0.91274(17) 0.9805(5) 0.6442(3)
C4A C 0.92386(14) 1.1992(6) 0.6526(2)
C5A C 0.8493(3) 1.3100(11) 0.5707(6)
C6A C 0.9697(3) 1.2723(7) 0.8003(4)
C7A C 1.07655(14) 0.7210(4) 0.7514(2)
C8A C 1.15517(13) 0.7026(4) 0.8771(2)
C9A C 1.16754(15) 0.7042(4) 1.0104(2)
C10A C 1.2407(2) 0.6986(5) 1.1237(3)
C11A C 1.30306(18) 0.6922(5) 1.1079(3)
C12A C 1.29372(17) 0.6886(5) 0.9791(3)
C13A C 1.22010(14) 0.6937(4) 0.8674(2)
H1A H 0.9191(13) 1.065(4) 0.427(3)
H2A H 0.9536(14) 0.779(4) 0.557(2)
H3A H 0.9188(15) 0.925(4) 0.721(3)
H4A H 0.8604(17) 0.954(4) 0.576(3)
H5A H 0.821(3) 1.257(10) 0.476(6)
H6A H 0.852(3) 1.443(10) 0.563(6)
H7A H 0.818(3) 1.280(8) 0.602(5)
H8A H 0.981(3) 1.415(9) 0.801(5)
H9A H 0.932(2) 1.258(5) 0.826(3)
H10A H 1.020(4) 1.200(11) 0.849(6)
H11A H 1.0617(15) 0.602(4) 0.691(3)
H12A H 1.243(2) 0.707(7) 1.205(4)
H13A H 1.3528(18) 0.688(5) 1.183(3)
H14A H 1.338(2) 0.693(6) 0.967(3)
loop_
_geom_bond_atom_site_label_1
_geom_bond_atom_site_label_2
_geom_bond_site_symmetry_1
_geom_bond_site_symmetry_2
Cl1 C9 1_555 1_555
Cl2 C13 1_555 1_555
N1 C2 1_555 1_555
O1 C1 1_555 1_555
C1 C2 1_555 1_555
C2 C3 1_555 1_555
C3 C4 1_555 1_555
C4 O1 1_555 1_555
C5 C4 1_555 1_555
C6 C4 1_555 1_555
C7 N1 1_555 1_555
C8 C7 1_555 1_555
C9 C8 1_555 1_555
C10 C9 1_555 1_555
C11 C10 1_555 1_555
C12 C11 1_555 1_555
C13 C8 1_555 1_555
H1 C1 1_555 1_555
H2 C2 1_555 1_555
H3 C3 1_555 1_555
H4 C3 1_555 1_555
H5 C5 1_555 1_555
H6 C5 1_555 1_555
H7 C5 1_555 1_555
H8 C6 1_555 1_555
H9 C6 1_555 1_555
H10 C6 1_555 1_555
H11 C7 1_555 1_555
H12 C10 1_555 1_555
H13 C11 1_555 1_555
H14 C12 1_555 1_555
Cl1A C9A 1_555 1_555
Cl2A C13A 1_555 1_555
N1A C2A 1_555 1_555
O1A C1A 1_555 1_555
C1A C1 1_555 1_555
C2A C1A 1_555 1_555
C3A C2A 1_555 1_555
C4A O1A 1_555 1_555
C5A C4A 1_555 1_555
C6A C4A 1_555 1_555
C7A N1A 1_555 1_555
C8A C7A 1_555 1_555
C9A C8A 1_555 1_555
C10A C9A 1_555 1_555
C11A C10A 1_555 1_555
C12A C11A 1_555 1_555
C13A C8A 1_555 1_555
H1A C1A 1_555 1_555
H2A C2A 1_555 1_555
H3A C3A 1_555 1_555
H4A C3A 1_555 1_555
H5A C5A 1_555 1_555
H6A C5A 1_555 1_555
H7A C5A 1_555 1_555
H8A C6A 1_555 1_555
H9A C6A 1_555 1_555
H10A C6A 1_555 1_555
H11A C7A 1_555 1_555
H12A C10A 1_555 1_555
H13A C11A 1_555 1_555
H14A C12A 1_555 1_555
C12 C13 1_555 1_555
C3A C4A 1_555 1_555
C12A C13A 1_555 1_555

#END
