
#######################################################################
#
#                 Cambridge Crystallographic Data Centre
#                                CCDC 
#
#######################################################################
#
# If this CIF has been generated from an entry in the Cambridge 
# Structural Database, then it will include bibliographic, chemical, 
# crystal, experimental, refinement or atomic coordinate data resulting 
# from the CCDC's data processing and validation procedures.
#
#######################################################################

data_PEHFIU
_chemical_formula_moiety         'C36 H34 N2 O2'
_chemical_name_systematic        
2-(2-(diphenylmethyl)-1H-indol-3-yl)-3-((4-methoxyphenyl)amino)-5,5-dimethylcyclohex-2-en-1-one
_symmetry_cell_setting           monoclinic
_symmetry_space_group_name_H-M   'C 2/c'
_symmetry_Int_Tables_number      15
_space_group_name_Hall           '-C 2yn'
loop_
_symmetry_equiv_pos_site_id
_symmetry_equiv_pos_as_xyz
1 x,y,z
2 -x,y,1/2-z
3 1/2+x,1/2+y,z
4 1/2-x,1/2+y,1/2-z
5 -x,-y,-z
6 x,-y,1/2+z
7 1/2-x,1/2-y,-z
8 1/2+x,1/2-y,1/2+z
_cell_length_a                   23.463(5)
_cell_length_b                   12.095(2)
_cell_length_c                   20.499(5)
_cell_angle_alpha                90
_cell_angle_beta                 96.456(7)
_cell_angle_gamma                90
_cell_volume                     5780.42
_exptl_crystal_colour            colorless
_exptl_crystal_description       block
_cell_formula_units_Z            8
loop_
_atom_site_label
_atom_site_type_symbol
_atom_site_fract_x
_atom_site_fract_y
_atom_site_fract_z
O1 O 0.28449(14) 0.5276(2) 0.30835(14)
O2 O 0.5430(2) 0.9531(3) 0.6428(2)
N1 N 0.29185(14) 0.8749(3) 0.25633(14)
H1 H 0.2691 0.9283 0.2433
N2 N 0.40085(17) 0.7728(3) 0.43764(15)
H2 H 0.3936 0.8200 0.4065
C1 C 0.33594(17) 0.8382(3) 0.22459(16)
C2 C 0.3539(2) 0.8740(4) 0.16681(19)
H3 H 0.3359 0.9324 0.1433
C3 C 0.3990(3) 0.8207(6) 0.1455(2)
H4 H 0.4119 0.8420 0.1061
C4 C 0.4262(3) 0.7358(6) 0.1808(3)
H5 H 0.4570 0.7008 0.1647
C5 C 0.4092(2) 0.7012(4) 0.2390(2)
H6 H 0.4287 0.6447 0.2628
C6 C 0.36246(17) 0.7520(3) 0.26182(16)
C7 C 0.33243(16) 0.7380(3) 0.31793(15)
C8 C 0.28909(16) 0.8140(3) 0.31226(16)
C9 C 0.24344(17) 0.8346(3) 0.35587(17)
H7 H 0.2469 0.7753 0.3887
C10 C 0.25571(18) 0.9412(4) 0.3933(2)
C11 C 0.2476(2) 1.0440(4) 0.3632(3)
H8 H 0.2318 1.0478 0.3196
C12 C 0.2623(3) 1.1398(5) 0.3967(4)
H9 H 0.2560 1.2078 0.3759
C13 C 0.2858(3) 1.1356(9) 0.4594(5)
H10 H 0.2970 1.2009 0.4811
C14 C 0.2936(3) 1.0364(10) 0.4924(4)
H11 H 0.3087 1.0344 0.5363
C15 C 0.2781(2) 0.9374(6) 0.4574(2)
H12 H 0.2832 0.8696 0.4786
C16 C 0.18407(18) 0.8229(4) 0.3182(2)
C17 C 0.1745(2) 0.7378(5) 0.2736(3)
H13 H 0.2039 0.6883 0.2684
C18 C 0.1233(3) 0.7246(7) 0.2374(4)
H14 H 0.1187 0.6676 0.2068
C19 C 0.0797(3) 0.7906(7) 0.2443(4)
H15 H 0.0446 0.7793 0.2194
C20 C 0.0864(2) 0.8751(6) 0.2881(4)
H16 H 0.0558 0.9222 0.2929
C21 C 0.1392(2) 0.8915(5) 0.3260(2)
H17 H 0.1436 0.9489 0.3563
C22 C 0.34299(16) 0.6527(3) 0.36934(16)
C23 C 0.37698(17) 0.6727(3) 0.42665(16)
C24 C 0.38881(19) 0.5879(3) 0.47860(18)
H18 H 0.3601 0.5934 0.5090
H19 H 0.4259 0.6028 0.5029
C25 C 0.3886(2) 0.4712(3) 0.4513(2)
C26 C 0.3334(2) 0.4552(4) 0.4061(2)
H20 H 0.3361 0.3864 0.3823
H21 H 0.3021 0.4474 0.4329
C27 C 0.31843(18) 0.5459(3) 0.35703(18)
C28 C 0.3920(3) 0.3891(4) 0.5083(3)
H22 H 0.4268 0.4008 0.5367
H23 H 0.3914 0.3150 0.4915
H24 H 0.3597 0.3998 0.5326
C29 C 0.4394(2) 0.4555(4) 0.4136(2)
H25 H 0.4357 0.5030 0.3758
H26 H 0.4411 0.3799 0.3997
H27 H 0.4739 0.4737 0.4412
C30 C 0.4364(2) 0.8116(3) 0.49359(18)
C31 C 0.4164(2) 0.8295(5) 0.5522(2)
H28 H 0.3790 0.8102 0.5580
C32 C 0.4514(3) 0.8762(5) 0.6032(2)
H29 H 0.4370 0.8893 0.6430
C33 C 0.5057(3) 0.9030(4) 0.5963(3)
C34 C 0.5265(2) 0.8816(5) 0.5389(3)
H30 H 0.5647 0.8968 0.5343
C35 C 0.4918(2) 0.8377(4) 0.4874(2)
H31 H 0.5063 0.8255 0.4476
C36 C 0.5303(4) 1.0043(9) 0.6909(4)
H32 H 0.5294 1.0821 0.6815
H33 H 0.5583 0.9898 0.7278
H34 H 0.4931 0.9809 0.7010
loop_
_geom_bond_atom_site_label_1
_geom_bond_atom_site_label_2
_geom_bond_site_symmetry_1
_geom_bond_site_symmetry_2
O1 C27 1_555 1_555
O2 C33 1_555 1_555
N1 H1 1_555 1_555
N2 H2 1_555 1_555
C1 N1 1_555 1_555
C2 C1 1_555 1_555
H3 C2 1_555 1_555
C3 C2 1_555 1_555
H4 C3 1_555 1_555
C4 C3 1_555 1_555
H5 C4 1_555 1_555
C5 C4 1_555 1_555
H6 C5 1_555 1_555
C6 C1 1_555 1_555
C7 C6 1_555 1_555
C8 N1 1_555 1_555
C9 C8 1_555 1_555
H7 C9 1_555 1_555
C10 C9 1_555 1_555
C11 C10 1_555 1_555
H8 C11 1_555 1_555
C12 C11 1_555 1_555
H9 C12 1_555 1_555
C13 C12 1_555 1_555
H10 C13 1_555 1_555
C14 C13 1_555 1_555
H11 C14 1_555 1_555
C15 C10 1_555 1_555
H12 C15 1_555 1_555
C16 C9 1_555 1_555
C17 C16 1_555 1_555
H13 C17 1_555 1_555
C18 C17 1_555 1_555
H14 C18 1_555 1_555
C19 C18 1_555 1_555
H15 C19 1_555 1_555
C20 C19 1_555 1_555
H16 C20 1_555 1_555
C21 C16 1_555 1_555
H17 C21 1_555 1_555
C22 C7 1_555 1_555
C23 N2 1_555 1_555
C24 C23 1_555 1_555
H18 C24 1_555 1_555
H19 C24 1_555 1_555
C25 C24 1_555 1_555
C26 C25 1_555 1_555
H20 C26 1_555 1_555
H21 C26 1_555 1_555
C27 C22 1_555 1_555
C28 C25 1_555 1_555
H22 C28 1_555 1_555
H23 C28 1_555 1_555
H24 C28 1_555 1_555
C29 C25 1_555 1_555
H25 C29 1_555 1_555
H26 C29 1_555 1_555
H27 C29 1_555 1_555
C30 N2 1_555 1_555
C31 C30 1_555 1_555
H28 C31 1_555 1_555
C32 C31 1_555 1_555
H29 C32 1_555 1_555
C33 C32 1_555 1_555
C34 C33 1_555 1_555
H30 C34 1_555 1_555
C35 C30 1_555 1_555
H31 C35 1_555 1_555
C36 O2 1_555 1_555
H32 C36 1_555 1_555
H33 C36 1_555 1_555
H34 C36 1_555 1_555
C5 C6 1_555 1_555
C7 C8 1_555 1_555
C14 C15 1_555 1_555
C20 C21 1_555 1_555
C22 C23 1_555 1_555
C26 C27 1_555 1_555
C34 C35 1_555 1_555

#END
