
#######################################################################
#
#                 Cambridge Crystallographic Data Centre
#                                CCDC 
#
#######################################################################
#
# If this CIF has been generated from an entry in the Cambridge 
# Structural Database, then it will include bibliographic, chemical, 
# crystal, experimental, refinement or atomic coordinate data resulting 
# from the CCDC's data processing and validation procedures.
#
#######################################################################

data_PEHHUH
_chemical_formula_moiety         'C11 H12 Br1 N1 O1 S1'
_chemical_name_systematic        
(5-Bromo-2-hydroxyphenyl)(pyrrolidin-1-yl)methanethione
_symmetry_cell_setting           monoclinic
_symmetry_space_group_name_H-M   'P 21/c'
_symmetry_Int_Tables_number      14
_space_group_name_Hall           '-P 2ybc'
loop_
_symmetry_equiv_pos_site_id
_symmetry_equiv_pos_as_xyz
1 x,y,z
2 -x,1/2+y,1/2-z
3 -x,-y,-z
4 x,1/2-y,1/2+z
_cell_length_a                   10.7661(3)
_cell_length_b                   10.5257(4)
_cell_length_c                   10.6621(4)
_cell_angle_alpha                90
_cell_angle_beta                 102.207(2)
_cell_angle_gamma                90
_cell_volume                     1180.92
_exptl_crystal_colour            yellow
_exptl_crystal_description       prism
_cell_formula_units_Z            4
loop_
_atom_site_label
_atom_site_type_symbol
_atom_site_fract_x
_atom_site_fract_y
_atom_site_fract_z
C1 C -0.2415(4) 0.5054(3) 1.0235(3)
H1 H -0.1517 0.5116 1.0229
H2 H -0.2579 0.4242 1.0598
C2 C -0.3170(4) 0.7178(3) 1.0000(4)
H3 H -0.2413 0.7601 0.9853
H4 H -0.3726 0.7803 1.0263
C3 C -0.2839(6) 0.6152(4) 1.0977(4)
H5 H -0.3571 0.5915 1.1321
H6 H -0.2159 0.6418 1.1677
Br1 Br 0.04711(4) 0.16029(5) 0.69670(6)
S1 S -0.42763(10) 0.46431(8) 0.65726(8)
N1 N -0.3200(3) 0.5218(2) 0.8941(2)
O1 O -0.3855(3) 0.2472(2) 0.9611(2)
H7 H -0.3963 0.1859 1.0050
C4 C -0.3321(3) 0.4383(2) 0.8001(3)
C5 C -0.2570(3) 0.3186(2) 0.8238(3)
C6 C -0.2202(4) 0.1096(3) 0.9176(3)
H8 H -0.2421 0.0454 0.9688
C7 C -0.2892(3) 0.2236(3) 0.9035(3)
C8 C -0.0896(3) 0.1864(3) 0.7807(4)
C9 C -0.1561(3) 0.2989(3) 0.7629(3)
H9 H -0.1337 0.3616 0.7104
C10 C -0.3844(4) 0.6468(3) 0.8809(4)
H10 H -0.4744 0.6378 0.8794
H11 H -0.3740 0.6900 0.8034
C11 C -0.1224(4) 0.0914(3) 0.8583(4)
H12 H -0.0772 0.0155 0.8694
loop_
_geom_bond_atom_site_label_1
_geom_bond_atom_site_label_2
_geom_bond_site_symmetry_1
_geom_bond_site_symmetry_2
C1 H1 1_555 1_555
H2 C1 1_555 1_555
C2 H3 1_555 1_555
H4 C2 1_555 1_555
C3 C1 1_555 1_555
H5 C3 1_555 1_555
H6 C3 1_555 1_555
Br1 C8 1_555 1_555
S1 C4 1_555 1_555
N1 C1 1_555 1_555
O1 H7 1_555 1_555
C4 N1 1_555 1_555
C5 C4 1_555 1_555
C6 H8 1_555 1_555
C7 O1 1_555 1_555
C8 C9 1_555 1_555
C9 C5 1_555 1_555
H9 C9 1_555 1_555
C10 C2 1_555 1_555
H10 C10 1_555 1_555
H11 C10 1_555 1_555
C11 C6 1_555 1_555
H12 C11 1_555 1_555
C2 C3 1_555 1_555
N1 C10 1_555 1_555
C5 C7 1_555 1_555
C6 C7 1_555 1_555
C8 C11 1_555 1_555

#END
