
#######################################################################
#
#                 Cambridge Crystallographic Data Centre
#                                CCDC 
#
#######################################################################
#
# If this CIF has been generated from an entry in the Cambridge 
# Structural Database, then it will include bibliographic, chemical, 
# crystal, experimental, refinement or atomic coordinate data resulting 
# from the CCDC's data processing and validation procedures.
#
#######################################################################

data_PEHRUS
_chemical_formula_moiety         'C44 H59 B1 N1 O4 P1'
_chemical_name_systematic        
'diethyl 4,5-dicyclohexyl-1-[2,6-bis(propan-2-yl)phenyl]-2,2-diphenyl-4,5-dihydro-1H-1,2\l^5^,5-azaphosphaborole-3,4-dicarboxylate unknown solvate'
_symmetry_cell_setting           monoclinic
_symmetry_space_group_name_H-M   'P 21/c'
_symmetry_Int_Tables_number      14
_space_group_name_Hall           '-P 2ybc'
loop_
_symmetry_equiv_pos_site_id
_symmetry_equiv_pos_as_xyz
1 x,y,z
2 -x,1/2+y,1/2-z
3 -x,-y,-z
4 x,1/2-y,1/2+z
_cell_length_a                   18.4589(7)
_cell_length_b                   10.3146(4)
_cell_length_c                   24.4094(9)
_cell_angle_alpha                90
_cell_angle_beta                 104.138(2)
_cell_angle_gamma                90
_cell_volume                     4506.69
_exptl_crystal_colour            colorless
_exptl_crystal_description       plate
_cell_formula_units_Z            4
_chemical_properties_physical    ', Moisture-sensitive'
loop_
_atom_site_label
_atom_site_type_symbol
_atom_site_fract_x
_atom_site_fract_y
_atom_site_fract_z
P1 P 0.64156(9) 0.45777(16) 0.65794(7)
O1 O 0.6865(2) 0.1224(4) 0.70836(17)
O2 O 0.5451(2) 0.1311(4) 0.60773(17)
O3 O 0.5024(2) 0.3374(4) 0.61482(17)
O4 O 0.7344(2) 0.0125(4) 0.64633(17)
N1 N 0.7359(3) 0.4529(4) 0.68015(19)
C1 C 0.6290(3) 0.3100(5) 0.6259(2)
C2 C 0.7787(3) 0.5719(6) 0.7033(3)
C3 C 0.7168(3) 0.2109(6) 0.5684(2)
H1 H 0.7611 0.1554 0.5745
C4 C 0.7025(3) 0.2391(5) 0.6280(2)
C5 C 0.8526(3) 0.2999(6) 0.6881(2)
H2 H 0.8795 0.3815 0.6990
C6 C 0.5580(4) 0.2466(6) 0.6152(2)
C7 C 0.7925(4) 0.6324(6) 0.6046(3)
H3 H 0.7574 0.5601 0.5939
C8 C 0.6527(3) 0.1367(6) 0.5286(2)
H4 H 0.6437 0.0562 0.5464
H5 H 0.6074 0.1882 0.5220
C9 C 0.6092(3) 0.3656(6) 0.7550(3)
H6 H 0.6406 0.2980 0.7504
C10 C 0.5752(3) 0.3629(6) 0.7995(3)
H7 H 0.5831 0.2935 0.8246
C11 C 0.7943(3) 0.5963(6) 0.7617(3)
C12 C 0.5708(3) 0.5854(6) 0.5611(3)
H8 H 0.5649 0.5030 0.5452
C13 C 0.5148(4) 0.5641(6) 0.7682(3)
H9 H 0.4823 0.6299 0.7728
C14 C 0.8361(3) 0.7728(6) 0.6888(3)
H10 H 0.8509 0.8314 0.6647
C15 C 0.6110(3) 0.6002(5) 0.6168(3)
C16 C 0.7093(4) 0.1123(7) 0.6589(3)
C17 C 0.7342(3) 0.3332(6) 0.5392(2)
H11 H 0.7768 0.3766 0.5634
H12 H 0.6918 0.3916 0.5333
C18 C 0.8300(3) 0.7120(6) 0.7817(3)
H13 H 0.8408 0.7293 0.8202
C19 C 0.8007(3) 0.6586(6) 0.6669(3)
C20 C 0.5897(3) 0.8311(6) 0.6080(3)
H14 H 0.5959 0.9140 0.6234
C21 C 0.5396(4) 0.6906(6) 0.5289(3)
H15 H 0.5125 0.6790 0.4918
C22 C 0.6210(3) 0.7258(6) 0.6400(3)
H16 H 0.6487 0.7378 0.6770
C23 C 0.5478(3) 0.5677(6) 0.7234(3)
H17 H 0.5374 0.6356 0.6976
C24 C 0.8624(3) 0.2161(6) 0.7422(3)
H18 H 0.8393 0.2604 0.7687
H19 H 0.8366 0.1343 0.7324
C25 C 0.7516(4) 0.3031(6) 0.4820(3)
H20 H 0.7600 0.3838 0.4641
H21 H 0.7971 0.2523 0.4884
C26 C 0.7771(3) 0.5046(6) 0.8060(2)
H22 H 0.7519 0.4277 0.7867
C27 C 0.8496(3) 0.8007(6) 0.7465(3)
H23 H 0.8717 0.8788 0.7607
C28 C 0.5296(4) 0.4636(6) 0.8064(3)
H24 H 0.5084 0.4638 0.8372
C29 C 0.5489(4) 0.8129(6) 0.5524(3)
H25 H 0.5277 0.8840 0.5309
C30 C 0.6886(4) 0.2292(6) 0.4428(3)
H26 H 0.6445 0.2835 0.4327
H27 H 0.7031 0.2064 0.4084
C31 C 0.9732(4) 0.2022(6) 0.6760(3)
H28 H 0.9958 0.1564 0.6496
H29 H 0.9993 0.2841 0.6851
C32 C 0.7254(4) 0.5684(6) 0.8391(3)
H30 H 0.7504 0.6413 0.8599
H31 H 0.7132 0.5065 0.8648
H32 H 0.6804 0.5971 0.8132
C33 C 0.5970(3) 0.4691(6) 0.7167(3)
C34 C 0.9438(3) 0.1895(6) 0.7708(3)
H33 H 0.9469 0.1349 0.8036
H34 H 0.9691 0.2706 0.7834
C35 C 0.9826(4) 0.1221(6) 0.7296(3)
H35 H 1.0353 0.1114 0.7474
H36 H 0.9610 0.0367 0.7202
C36 C 0.8911(3) 0.2288(6) 0.6478(3)
H37 H 0.8656 0.1474 0.6363
H38 H 0.8877 0.2811 0.6142
C37 C 0.6712(4) 0.1070(6) 0.4718(3)
H39 H 0.7138 0.0491 0.4782
H40 H 0.6291 0.0630 0.4473
C38 C 0.6913(4) 0.0060(6) 0.7428(3)
H41 H 0.7287 -0.0525 0.7350
H42 H 0.6435 -0.0386 0.7344
C39 C 0.7612(4) 0.7490(6) 0.5656(3)
H43 H 0.7155 0.7784 0.5735
H44 H 0.7518 0.7222 0.5268
H45 H 0.7971 0.8182 0.5723
C40 C 0.4269(4) 0.2858(7) 0.6102(3)
H46 H 0.4216 0.2569 0.6469
H47 H 0.4174 0.2128 0.5844
C41 C 0.8671(4) 0.5896(6) 0.5946(3)
H48 H 0.9031 0.6577 0.6058
H49 H 0.8613 0.5708 0.5553
H50 H 0.8841 0.5132 0.6165
C42 C 0.8497(4) 0.4610(6) 0.8478(3)
H51 H 0.8839 0.4282 0.8271
H52 H 0.8386 0.3940 0.8718
H53 H 0.8719 0.5335 0.8704
C43 C 0.3739(4) 0.3924(7) 0.5888(3)
H54 H 0.3829 0.4628 0.6153
H55 H 0.3237 0.3617 0.5840
H56 H 0.3808 0.4218 0.5531
C44 C 0.7125(5) 0.0472(7) 0.8043(3)
H57 H 0.7601 0.0901 0.8123
H58 H 0.7155 -0.0278 0.8280
H59 H 0.6754 0.1056 0.8115
B1 B 0.7671(4) 0.3338(7) 0.6655(3)
loop_
_geom_bond_atom_site_label_1
_geom_bond_atom_site_label_2
_geom_bond_site_symmetry_1
_geom_bond_site_symmetry_2
P1 N1 1_555 1_555
O1 C16 1_555 1_555
O2 C6 1_555 1_555
O3 C6 1_555 1_555
O4 C16 1_555 1_555
N1 C2 1_555 1_555
C1 P1 1_555 1_555
C2 C11 1_555 1_555
C3 H1 1_555 1_555
C4 C1 1_555 1_555
C5 H2 1_555 1_555
C6 C1 1_555 1_555
C7 H3 1_555 1_555
C8 C3 1_555 1_555
H4 C8 1_555 1_555
H5 C8 1_555 1_555
C9 H6 1_555 1_555
C10 C9 1_555 1_555
H7 C10 1_555 1_555
C11 C18 1_555 1_555
C12 H8 1_555 1_555
C13 H9 1_555 1_555
C14 H10 1_555 1_555
C15 P1 1_555 1_555
C16 C4 1_555 1_555
C17 C3 1_555 1_555
H11 C17 1_555 1_555
H12 C17 1_555 1_555
C18 H13 1_555 1_555
C19 C2 1_555 1_555
C20 H14 1_555 1_555
C21 C12 1_555 1_555
H15 C21 1_555 1_555
C22 C15 1_555 1_555
H16 C22 1_555 1_555
C23 C13 1_555 1_555
H17 C23 1_555 1_555
C24 C5 1_555 1_555
H18 C24 1_555 1_555
H19 C24 1_555 1_555
C25 C17 1_555 1_555
H20 C25 1_555 1_555
H21 C25 1_555 1_555
C26 C11 1_555 1_555
H22 C26 1_555 1_555
C27 C14 1_555 1_555
H23 C27 1_555 1_555
C28 C10 1_555 1_555
H24 C28 1_555 1_555
C29 C20 1_555 1_555
H25 C29 1_555 1_555
C30 C25 1_555 1_555
H26 C30 1_555 1_555
H27 C30 1_555 1_555
C31 H28 1_555 1_555
H29 C31 1_555 1_555
C32 C26 1_555 1_555
H30 C32 1_555 1_555
H31 C32 1_555 1_555
H32 C32 1_555 1_555
C33 P1 1_555 1_555
C34 C24 1_555 1_555
H33 C34 1_555 1_555
H34 C34 1_555 1_555
C35 C31 1_555 1_555
H35 C35 1_555 1_555
H36 C35 1_555 1_555
C36 C5 1_555 1_555
H37 C36 1_555 1_555
H38 C36 1_555 1_555
C37 C8 1_555 1_555
H39 C37 1_555 1_555
H40 C37 1_555 1_555
C38 O1 1_555 1_555
H41 C38 1_555 1_555
H42 C38 1_555 1_555
C39 C7 1_555 1_555
H43 C39 1_555 1_555
H44 C39 1_555 1_555
H45 C39 1_555 1_555
C40 O3 1_555 1_555
H46 C40 1_555 1_555
H47 C40 1_555 1_555
C41 C7 1_555 1_555
H48 C41 1_555 1_555
H49 C41 1_555 1_555
H50 C41 1_555 1_555
C42 C26 1_555 1_555
H51 C42 1_555 1_555
H52 C42 1_555 1_555
H53 C42 1_555 1_555
C43 C40 1_555 1_555
H54 C43 1_555 1_555
H55 C43 1_555 1_555
H56 C43 1_555 1_555
C44 C38 1_555 1_555
H57 C44 1_555 1_555
H58 C44 1_555 1_555
H59 C44 1_555 1_555
B1 N1 1_555 1_555
C3 C4 1_555 1_555
C4 B1 1_555 1_555
C5 B1 1_555 1_555
C7 C19 1_555 1_555
C9 C33 1_555 1_555
C12 C15 1_555 1_555
C13 C28 1_555 1_555
C14 C19 1_555 1_555
C18 C27 1_555 1_555
C20 C22 1_555 1_555
C21 C29 1_555 1_555
C23 C33 1_555 1_555
C30 C37 1_555 1_555
C31 C36 1_555 1_555
C34 C35 1_555 1_555

#END
