
#######################################################################
#
#                 Cambridge Crystallographic Data Centre
#                                CCDC 
#
#######################################################################
#
# If this CIF has been generated from an entry in the Cambridge 
# Structural Database, then it will include bibliographic, chemical, 
# crystal, experimental, refinement or atomic coordinate data resulting 
# from the CCDC's data processing and validation procedures.
#
#######################################################################

data_PEHROM
_chemical_formula_moiety         'C36 H49 B1 N1 P1'
_chemical_name_systematic        
'N-(dicyclohexylboranyl)-N-[2,6-di-isopropylphenyl]-P,P-diphenylphosphinous amide'
_symmetry_cell_setting           monoclinic
_symmetry_space_group_name_H-M   'P 21/n'
_symmetry_Int_Tables_number      14
_space_group_name_Hall           '-P 2yn'
loop_
_symmetry_equiv_pos_site_id
_symmetry_equiv_pos_as_xyz
1 x,y,z
2 1/2-x,1/2+y,1/2-z
3 -x,-y,-z
4 1/2+x,1/2-y,1/2+z
_cell_length_a                   17.885(9)
_cell_length_b                   10.312(5)
_cell_length_c                   19.369(10)
_cell_angle_alpha                90
_cell_angle_beta                 115.481(11)
_cell_angle_gamma                90
_cell_volume                     3224.75
_exptl_crystal_colour            colorless
_exptl_crystal_description       block
_cell_formula_units_Z            4
_chemical_properties_physical    ', Moisture-sensitive'
loop_
_atom_site_label
_atom_site_type_symbol
_atom_site_fract_x
_atom_site_fract_y
_atom_site_fract_z
P1 P -0.06904(2) 0.84288(4) 0.75690(2)
N1 N -0.00147(7) 0.94838(11) 0.73930(6)
C1 C -0.14422(9) 0.94397(14) 0.77418(9)
C2 C -0.29119(11) 0.98678(18) 0.73401(12)
H1 H -0.3461 0.9716 0.7002
C3 C -0.19010(12) 1.09604(17) 0.84435(11)
H2 H -0.1777 1.1545 0.8843
C4 C 0.27117(10) 0.97154(17) 0.66391(10)
H3 H 0.3233 1.0087 0.6695
H4 H 0.2604 0.8950 0.6320
C5 C 0.27761(10) 0.93307(18) 0.74300(10)
H5 H 0.2940 1.0081 0.7765
H6 H 0.3200 0.8671 0.7652
C6 C 0.19441(9) 0.88070(16) 0.73737(9)
H7 H 0.1998 0.8634 0.7885
H8 H 0.1822 0.7991 0.7097
C7 C 0.12022(9) 0.97573(14) 0.69643(8)
H9 H 0.1295 1.0533 0.7283
C8 C -0.22750(10) 0.92327(16) 0.72387(10)
H10 H -0.2407 0.8663 0.6831
C9 C 0.07947(13) 0.63902(18) 0.99275(11)
H11 H 0.1084 0.5946 1.0384
C10 C 0.11530(11) 0.65875(16) 0.94202(10)
H12 H 0.1682 0.6273 0.9540
C11 C 0.07194(10) 0.72553(14) 0.87331(9)
H13 H 0.0960 0.7365 0.8396
C12 C -0.00723(10) 0.77624(14) 0.85447(9)
C13 C 0.00489(8) 1.08412(13) 0.76413(8)
C14 C -0.05652(9) 1.17095(14) 0.71543(8)
C15 C -0.12648(9) 1.13005(15) 0.63830(9)
H14 H -0.1337 1.0361 0.6402
C16 C -0.10346(11) 1.15745(18) 0.57131(10)
H15 H -0.0541 1.1104 0.5792
H16 H -0.0940 1.2487 0.5690
H17 H -0.1480 1.1303 0.5241
C17 C -0.21031(10) 1.19427(18) 0.62247(11)
H18 H -0.2077 1.2851 0.6129
H19 H -0.2219 1.1831 0.6661
H20 H -0.2534 1.1545 0.5786
C18 C -0.05204(10) 1.30063(15) 0.73819(9)
H21 H -0.0913 1.3593 0.7065
C19 C 0.00975(10) 1.34376(15) 0.80714(10)
H22 H 0.0109 1.4299 0.8217
C20 C 0.06949(10) 1.25804(15) 0.85390(9)
H23 H 0.1110 1.2878 0.8997
C21 C 0.06903(9) 1.12736(14) 0.83399(8)
C22 C 0.13924(10) 1.04089(15) 0.88777(9)
H24 H 0.1329 0.9557 0.8635
C23 C 0.13555(13) 1.02117(19) 0.96565(10)
H25 H 0.0837 0.9820 0.9573
H26 H 0.1405 1.1036 0.9903
H27 H 0.1802 0.9657 0.9976
C24 C 0.22487(10) 1.09521(18) 0.90090(10)
H28 H 0.2367 1.1713 0.9324
H29 H 0.2244 1.1172 0.8526
H30 H 0.2666 1.0308 0.9259
C25 C 0.01280(9) 0.77281(14) 0.64121(8)
H31 H 0.0493 0.7718 0.6153
C26 C -0.07575(10) 0.78148(15) 0.57497(9)
H32 H -0.1162 0.7762 0.5958
H33 H -0.0826 0.8646 0.5495
C27 C -0.09162(12) 0.67176(16) 0.51636(9)
H34 H -0.1483 0.6768 0.4774
H35 H -0.0551 0.6823 0.4915
C28 C -0.07673(11) 0.53888(15) 0.55526(9)
H36 H -0.0835 0.4718 0.5179
H37 H -0.1175 0.5243 0.5750
C29 C 0.01052(10) 0.52973(15) 0.62103(9)
H38 H 0.0172 0.4462 0.6460
H39 H 0.0513 0.5359 0.6006
C30 C 0.02560(9) 0.63811(14) 0.67981(8)
H40 H 0.0817 0.6317 0.7198
H41 H -0.0123 0.6281 0.7032
C31 C 0.20189(10) 1.06969(16) 0.62581(10)
H42 H 0.1978 1.0908 0.5755
H43 H 0.2151 1.1488 0.6559
C32 C 0.11793(9) 1.01716(16) 0.61800(9)
H44 H 0.1023 0.9430 0.5839
H45 H 0.0760 1.0835 0.5952
C33 C -0.12616(11) 1.03269(15) 0.83485(9)
H46 H -0.0714 1.0490 0.8686
C34 C -0.04284(12) 0.75331(17) 0.90616(10)
H47 H -0.0960 0.7836 0.8943
C35 C 0.00045(14) 0.6861(2) 0.97460(11)
H48 H -0.0237 0.6729 1.0080
B1 B 0.03997(10) 0.90162(15) 0.69377(9)
C36 C -0.27244(12) 1.07207(18) 0.79424(12)
H49 H -0.3148 1.1135 0.8013
loop_
_geom_bond_atom_site_label_1
_geom_bond_atom_site_label_2
_geom_bond_site_symmetry_1
_geom_bond_site_symmetry_2
P1 N1 1_555 1_555
N1 C13 1_555 1_555
C1 P1 1_555 1_555
C2 H1 1_555 1_555
C3 H2 1_555 1_555
C4 H3 1_555 1_555
H4 C4 1_555 1_555
C5 C4 1_555 1_555
H5 C5 1_555 1_555
H6 C5 1_555 1_555
C6 C5 1_555 1_555
H7 C6 1_555 1_555
H8 C6 1_555 1_555
C7 C6 1_555 1_555
H9 C7 1_555 1_555
C8 C1 1_555 1_555
H10 C8 1_555 1_555
C9 H11 1_555 1_555
C10 C9 1_555 1_555
H12 C10 1_555 1_555
C11 C10 1_555 1_555
H13 C11 1_555 1_555
C12 P1 1_555 1_555
C13 C14 1_555 1_555
C14 C15 1_555 1_555
C15 H14 1_555 1_555
C16 C15 1_555 1_555
H15 C16 1_555 1_555
H16 C16 1_555 1_555
H17 C16 1_555 1_555
C17 C15 1_555 1_555
H18 C17 1_555 1_555
H19 C17 1_555 1_555
H20 C17 1_555 1_555
C18 C14 1_555 1_555
H21 C18 1_555 1_555
C19 C18 1_555 1_555
H22 C19 1_555 1_555
C20 C19 1_555 1_555
H23 C20 1_555 1_555
C21 C13 1_555 1_555
C22 C21 1_555 1_555
H24 C22 1_555 1_555
C23 C22 1_555 1_555
H25 C23 1_555 1_555
H26 C23 1_555 1_555
H27 C23 1_555 1_555
C24 C22 1_555 1_555
H28 C24 1_555 1_555
H29 C24 1_555 1_555
H30 C24 1_555 1_555
C25 H31 1_555 1_555
C26 C25 1_555 1_555
H32 C26 1_555 1_555
H33 C26 1_555 1_555
C27 C26 1_555 1_555
H34 C27 1_555 1_555
H35 C27 1_555 1_555
C28 C27 1_555 1_555
H36 C28 1_555 1_555
H37 C28 1_555 1_555
C29 C28 1_555 1_555
H38 C29 1_555 1_555
H39 C29 1_555 1_555
C30 C25 1_555 1_555
H40 C30 1_555 1_555
H41 C30 1_555 1_555
C31 C4 1_555 1_555
H42 C31 1_555 1_555
H43 C31 1_555 1_555
C32 C7 1_555 1_555
H44 C32 1_555 1_555
H45 C32 1_555 1_555
C33 C1 1_555 1_555
H46 C33 1_555 1_555
C34 C12 1_555 1_555
H47 C34 1_555 1_555
C35 C9 1_555 1_555
H48 C35 1_555 1_555
B1 N1 1_555 1_555
C36 C2 1_555 1_555
H49 C36 1_555 1_555
C2 C8 1_555 1_555
C3 C33 1_555 1_555
C3 C36 1_555 1_555
C7 B1 1_555 1_555
C11 C12 1_555 1_555
C20 C21 1_555 1_555
C25 B1 1_555 1_555
C29 C30 1_555 1_555
C31 C32 1_555 1_555
C34 C35 1_555 1_555

#END
