
#######################################################################
#
#                 Cambridge Crystallographic Data Centre
#                                CCDC 
#
#######################################################################
#
# If this CIF has been generated from an entry in the Cambridge 
# Structural Database, then it will include bibliographic, chemical, 
# crystal, experimental, refinement or atomic coordinate data resulting 
# from the CCDC's data processing and validation procedures.
#
#######################################################################

data_PEHSAZ
_chemical_formula_moiety         'C42 H55 B1 N1 O4 P1,C7 H8'
_chemical_name_systematic        
'dimethyl 4,5-dicyclohexyl-1-[2,6-bis(propan-2-yl)phenyl]-2,2-diphenyl-4,5-dihydro-1H-1,2\l^5^,5-azaphosphaborole-3,4-dicarboxylate toluene solvate'
_symmetry_cell_setting           triclinic
_symmetry_space_group_name_H-M   'P -1'
_symmetry_Int_Tables_number      2
_space_group_name_Hall           '-P 1'
loop_
_symmetry_equiv_pos_site_id
_symmetry_equiv_pos_as_xyz
1 x,y,z
2 -x,-y,-z
_cell_length_a                   10.6838(12)
_cell_length_b                   12.1850(12)
_cell_length_c                   17.8138(18)
_cell_angle_alpha                75.008(4)
_cell_angle_beta                 76.864(4)
_cell_angle_gamma                89.922(3)
_cell_volume                     2177.42
_exptl_crystal_colour            colorless
_exptl_crystal_description       block
_cell_formula_units_Z            2
_chemical_properties_physical    ', Moisture-sensitive'
loop_
_atom_site_label
_atom_site_type_symbol
_atom_site_fract_x
_atom_site_fract_y
_atom_site_fract_z
C1 C 0.95967(16) 0.71175(14) 0.60653(10)
C2 C 0.82982(15) 0.47257(14) 0.68103(10)
C3 C 0.83986(16) 0.68588(13) 0.66218(9)
C4 C 0.82248(17) 0.92688(15) 0.70561(10)
H1 H 0.8849 0.8742 0.7117
C5 C 0.38554(16) 0.70654(14) 0.66130(10)
C6 C 0.46227(16) 0.71727(14) 0.71425(10)
C7 C 0.53600(16) 0.46546(14) 0.78196(10)
H2 H 0.4508 0.4958 0.7934
C8 C 0.79244(16) 0.56975(14) 0.71987(10)
C9 C 0.71766(16) 0.90304(14) 0.67652(10)
C10 C 0.84268(16) 0.54531(14) 0.79863(10)
H3 H 0.8176 0.4657 0.8280
C11 C 0.41365(17) 0.76517(14) 0.77869(10)
C12 C 0.71108(16) 0.81502(15) 0.54062(10)
C13 C 0.98933(17) 0.55998(16) 0.78091(10)
H4 H 1.0170 0.6369 0.7487
H5 H 1.0266 0.5081 0.7500
C14 C 0.78198(17) 0.61936(15) 0.85299(10)
H6 H 0.6893 0.6042 0.8677
H7 H 0.8001 0.6989 0.8238
C15 C 0.74347(17) 0.73364(16) 0.49772(11)
H8 H 0.7597 0.6606 0.5242
C16 C 0.26339(17) 0.74908(15) 0.67193(11)
H9 H 0.2119 0.7430 0.6374
C17 C 0.42383(17) 0.64565(15) 0.59559(10)
H10 H 0.5116 0.6212 0.5942
C18 C 0.53118(16) 0.38773(14) 0.72578(10)
H11 H 0.5207 0.4337 0.6745
H12 H 0.6116 0.3507 0.7168
C19 C 0.21722(17) 0.80022(15) 0.73286(12)
H13 H 0.1365 0.8301 0.7380
C20 C 0.8343(2) 1.02877(16) 0.72553(11)
H14 H 0.9033 1.0432 0.7461
C21 C 0.48395(18) 0.76409(16) 0.84427(10)
H15 H 0.5750 0.7531 0.8238
C22 C 0.29133(17) 0.80680(15) 0.78613(11)
H16 H 0.2588 0.8397 0.8277
C23 C 0.68703(19) 0.92417(16) 0.49985(11)
H17 H 0.6666 0.9795 0.5274
C24 C 0.62439(18) 0.98311(15) 0.66788(11)
H18 H 0.5528 0.9677 0.6500
C25 C 0.84907(19) 0.41165(16) 0.56371(11)
H19 H 0.9370 0.3956 0.5639
H20 H 0.8410 0.4400 0.5096
H21 H 0.7949 0.3432 0.5891
C26 C 0.6392(2) 1.08557(16) 0.68611(12)
H22 H 0.5783 1.1395 0.6789
C27 C 1.06108(18) 0.85701(16) 0.48880(11)
H23 H 1.1443 0.8319 0.4949
H24 H 1.0667 0.9381 0.4671
H25 H 1.0322 0.8211 0.4532
C28 C 0.42039(19) 0.72222(17) 0.51310(11)
H26 H 0.3333 0.7409 0.5122
H27 H 0.4527 0.6829 0.4730
H28 H 0.4730 0.7908 0.5024
C29 C 0.33216(18) 0.53953(16) 0.61419(12)
H29 H 0.3276 0.4944 0.6677
H30 H 0.3639 0.4953 0.5772
H31 H 0.2479 0.5628 0.6092
C30 C 0.55553(19) 0.38823(15) 0.86148(11)
H32 H 0.6369 0.3528 0.8518
H33 H 0.5590 0.4341 0.8982
C31 C 0.83278(19) 0.59725(17) 0.92925(11)
H34 H 0.7956 0.6489 0.9603
H35 H 0.8066 0.5201 0.9615
C32 C 0.43343(19) 0.22283(16) 0.84330(11)
H36 H 0.3589 0.1696 0.8673
H37 H 0.5092 0.1794 0.8353
C33 C 0.7437(2) 1.10867(16) 0.71490(11)
H38 H 0.7527 1.1776 0.7270
C34 C 0.41901(17) 0.29725(15) 0.76273(11)
H39 H 0.3384 0.3343 0.7700
H40 H 0.4169 0.2500 0.7267
C35 C 0.9791(2) 0.61390(18) 0.90911(11)
H41 H 1.0051 0.6928 0.8810
H42 H 1.0092 0.5960 0.9581
C36 C 0.7516(2) 0.76080(17) 0.41607(11)
H43 H 0.7737 0.7063 0.3880
C37 C 0.4460(2) 0.29572(16) 0.89942(11)
H44 H 0.4621 0.2474 0.9485
H45 H 0.3657 0.3312 0.9130
C38 C 1.03950(19) 0.53735(18) 0.85718(11)
H46 H 1.0194 0.4583 0.8871
H47 H 1.1324 0.5511 0.8430
C39 C 0.4294(2) 0.66222(17) 0.91587(11)
H48 H 0.3421 0.6740 0.9396
H49 H 0.4804 0.6548 0.9547
H50 H 0.4316 0.5941 0.8982
C40 C 0.6935(2) 0.95045(17) 0.41853(12)
H51 H 0.6756 1.0229 0.3920
C41 C 0.7265(2) 0.86958(18) 0.37640(12)
H52 H 0.7319 0.8881 0.3217
C42 C 0.4763(2) 0.87351(17) 0.87182(12)
H53 H 0.5018 0.9379 0.8261
H54 H 0.5328 0.8712 0.9070
H55 H 0.3895 0.8800 0.8995
P1 P 0.71895(4) 0.77305(3) 0.64516(2)
O1 O 1.04633(11) 0.64934(10) 0.59170(7)
O2 O 0.97146(11) 0.82700(10) 0.56521(7)
O3 O 0.81039(12) 0.49610(10) 0.60672(7)
O4 O 0.86595(12) 0.38236(10) 0.71292(7)
N1 N 0.59348(13) 0.68016(12) 0.70287(8)
B1 B 0.63630(18) 0.57071(16) 0.73779(11)
C43 C 0.9733(2) 0.1246(2) 0.87432(15)
C44 C 1.0211(4) 0.0156(3) 0.89110(17)
H56 H 1.1087 0.0058 0.8762
C45 C 0.8467(3) 0.1351(3) 0.89718(19)
H57 H 0.8160 0.2075 0.8856
C46 C 1.0668(3) 0.2232(3) 0.8315(2)
H58 H 1.0256 0.2812 0.7995
H59 H 1.1386 0.1991 0.7975
H60 H 1.0965 0.2531 0.8696
C47 C 0.8137(6) -0.0692(4) 0.9528(2)
H61 H 0.7622 -0.1358 0.9787
C48 C 0.7571(4) 0.0417(6) 0.9381(2)
H62 H 0.6694 0.0499 0.9543
C49 C 0.9384(6) -0.0723(3) 0.9286(2)
H63 H 0.9721 -0.1436 0.9388
loop_
_geom_bond_atom_site_label_1
_geom_bond_atom_site_label_2
_geom_bond_site_symmetry_1
_geom_bond_site_symmetry_2
C1 C3 1_555 1_555
C2 C8 1_555 1_555
C3 C8 1_555 1_555
C4 H1 1_555 1_555
C5 C6 1_555 1_555
C6 C11 1_555 1_555
C7 H2 1_555 1_555
C8 C10 1_555 1_555
C9 C4 1_555 1_555
C10 H3 1_555 1_555
C11 C21 1_555 1_555
C12 C15 1_555 1_555
C13 C10 1_555 1_555
H4 C13 1_555 1_555
H5 C13 1_555 1_555
C14 C10 1_555 1_555
H6 C14 1_555 1_555
H7 C14 1_555 1_555
C15 H8 1_555 1_555
C16 C5 1_555 1_555
H9 C16 1_555 1_555
C17 C5 1_555 1_555
H10 C17 1_555 1_555
C18 C7 1_555 1_555
H11 C18 1_555 1_555
H12 C18 1_555 1_555
C19 C16 1_555 1_555
H13 C19 1_555 1_555
C20 C4 1_555 1_555
H14 C20 1_555 1_555
C21 H15 1_555 1_555
C22 C11 1_555 1_555
H16 C22 1_555 1_555
C23 C12 1_555 1_555
H17 C23 1_555 1_555
C24 C9 1_555 1_555
H18 C24 1_555 1_555
C25 H19 1_555 1_555
H20 C25 1_555 1_555
H21 C25 1_555 1_555
C26 C24 1_555 1_555
H22 C26 1_555 1_555
C27 H23 1_555 1_555
H24 C27 1_555 1_555
H25 C27 1_555 1_555
C28 C17 1_555 1_555
H26 C28 1_555 1_555
H27 C28 1_555 1_555
H28 C28 1_555 1_555
C29 C17 1_555 1_555
H29 C29 1_555 1_555
H30 C29 1_555 1_555
H31 C29 1_555 1_555
C30 C7 1_555 1_555
H32 C30 1_555 1_555
H33 C30 1_555 1_555
C31 C14 1_555 1_555
H34 C31 1_555 1_555
H35 C31 1_555 1_555
C32 H36 1_555 1_555
H37 C32 1_555 1_555
C33 C20 1_555 1_555
H38 C33 1_555 1_555
C34 C18 1_555 1_555
H39 C34 1_555 1_555
H40 C34 1_555 1_555
C35 C31 1_555 1_555
H41 C35 1_555 1_555
H42 C35 1_555 1_555
C36 C15 1_555 1_555
H43 C36 1_555 1_555
C37 C30 1_555 1_555
H44 C37 1_555 1_555
H45 C37 1_555 1_555
C38 C13 1_555 1_555
H46 C38 1_555 1_555
H47 C38 1_555 1_555
C39 C21 1_555 1_555
H48 C39 1_555 1_555
H49 C39 1_555 1_555
H50 C39 1_555 1_555
C40 C23 1_555 1_555
H51 C40 1_555 1_555
C41 C36 1_555 1_555
H52 C41 1_555 1_555
C42 C21 1_555 1_555
H53 C42 1_555 1_555
H54 C42 1_555 1_555
H55 C42 1_555 1_555
P1 C3 1_555 1_555
O1 C1 1_555 1_555
O2 C1 1_555 1_555
O3 C2 1_555 1_555
O4 C2 1_555 1_555
N1 C6 1_555 1_555
B1 C7 1_555 1_555
C43 C44 1_555 1_555
C44 H56 1_555 1_555
C45 C43 1_555 1_555
H57 C45 1_555 1_555
C46 C43 1_555 1_555
H58 C46 1_555 1_555
H59 C46 1_555 1_555
H60 C46 1_555 1_555
C47 H61 1_555 1_555
C48 C45 1_555 1_555
H62 C48 1_555 1_555
C49 C44 1_555 1_555
H63 C49 1_555 1_555
C8 B1 1_555 1_555
C9 P1 1_555 1_555
C12 P1 1_555 1_555
C19 C22 1_555 1_555
C25 O3 1_555 1_555
C26 C33 1_555 1_555
C27 O2 1_555 1_555
C32 C34 1_555 1_555
C32 C37 1_555 1_555
C35 C38 1_555 1_555
C40 C41 1_555 1_555
P1 N1 1_555 1_555
N1 B1 1_555 1_555
C47 C48 1_555 1_555
C47 C49 1_555 1_555

#END
