
#######################################################################
#
#                 Cambridge Crystallographic Data Centre
#                                CCDC 
#
#######################################################################
#
# If this CIF has been generated from an entry in the Cambridge 
# Structural Database, then it will include bibliographic, chemical, 
# crystal, experimental, refinement or atomic coordinate data resulting 
# from the CCDC's data processing and validation procedures.
#
#######################################################################

data_PEHTIG
_chemical_formula_moiety         'C23 H21 F4 N1 O4'
_chemical_name_systematic        
'(Z)-6-(2,3-Dihydro-2,7-dimethyl-3-oxo-benzo(d)isoxazol-5-yl)-6-(3-fluoro-5-trifluoromethylphenyl)hex-5-enoic acid methyl ester'
_chemical_properties_biological  'no anti-HIV activity'
_symmetry_cell_setting           triclinic
_symmetry_space_group_name_H-M   'P -1'
_symmetry_Int_Tables_number      2
_space_group_name_Hall           '-P 1'
loop_
_symmetry_equiv_pos_site_id
_symmetry_equiv_pos_as_xyz
1 x,y,z
2 -x,-y,-z
_cell_length_a                   8.8822(7)
_cell_length_b                   9.7444(9)
_cell_length_c                   12.9675(17)
_cell_angle_alpha                76.306(4)
_cell_angle_beta                 72.480(6)
_cell_angle_gamma                89.873(5)
_cell_volume                     1036.98
_exptl_crystal_colour            colorless
_exptl_crystal_description       needle
_chemical_melting_point          '97.5-98.5 deg.C'
_cell_formula_units_Z            2
_exptl_crystal_recrystallization_method 'ethyl acetate/hexane'
loop_
_atom_site_label
_atom_site_type_symbol
_atom_site_fract_x
_atom_site_fract_y
_atom_site_fract_z
F1 F 0.51248(11) 0.43740(9) 0.60528(8)
F2 F 0.82823(12) 0.90036(12) 0.42973(8)
F3 F 0.86049(15) 0.92048(17) 0.58102(10)
F4 F 0.69223(16) 1.03845(12) 0.51987(13)
O1 O 0.45837(12) 0.88842(11) 1.19260(9)
O2 O 0.76606(12) 0.70803(12) 1.05674(10)
O3 O 0.04900(14) 0.38066(14) 0.67673(11)
O4 O -0.18222(14) 0.39441(13) 0.63986(11)
N1 N 0.60442(15) 0.82415(14) 1.17674(12)
C1 C 0.64116(17) 0.76428(16) 1.08837(13)
C2 C 0.50460(16) 0.78313(15) 1.04719(12)
C3 C 0.46690(17) 0.74141(15) 0.96162(12)
C4 C 0.32276(17) 0.77726(15) 0.94379(12)
C5 C 0.22418(17) 0.85756(16) 1.01120(13)
C6 C 0.25808(17) 0.89972(15) 1.09699(13)
C7 C 0.40152(17) 0.85825(15) 1.11211(12)
C8 C 0.27149(17) 0.73036(15) 0.85736(12)
C9 C 0.39796(17) 0.70636(15) 0.75840(12)
C10 C 0.51499(17) 0.81370(16) 0.69314(13)
C11 C 0.62746(17) 0.79444(16) 0.59767(12)
C12 C 0.62852(17) 0.66814(16) 0.56538(13)
C13 C 0.51356(18) 0.56305(16) 0.63314(13)
C14 C 0.39964(17) 0.57834(16) 0.72808(13)
C15 C 0.69459(19) 0.84905(17) 1.24650(14)
C16 C 0.15168(18) 0.98569(17) 1.16770(14)
C17 C 0.11752(17) 0.70935(16) 0.86899(13)
C18 C 0.04215(18) 0.66627(16) 0.79168(13)
C19 C -0.06418(19) 0.52914(17) 0.85065(14)
C20 C -0.16553(18) 0.49145(17) 0.78391(14)
C21 C -0.08388(18) 0.41699(16) 0.69601(14)
C22 C -0.1239(2) 0.3187(2) 0.55430(16)
C23 C 0.75104(19) 0.91267(18) 0.53144(14)
H1 H 0.5375 0.6899 0.9166
H2 H 0.1283 0.8843 0.9966
H3 H 0.5178 0.9005 0.7141
H4 H 0.7047 0.6548 0.4998
H5 H 0.3232 0.5025 0.7723
H6 H 0.0461 0.7239 0.9359
H7 H 0.1254 0.6518 0.7254
H8 H -0.0217 0.7426 0.7660
H9 H 0.0031 0.4504 0.8654
H10 H -0.1344 0.5390 0.9236
H11 H -0.2594 0.4305 0.8364
H12 H -0.2039 0.5797 0.7477
H13 H -0.0185 0.3602 0.5061
H14 H -0.1962 0.3255 0.5095
H15 H -0.1174 0.2189 0.5892
H16 H 0.7850 0.7902 1.2381
H17 H 0.6274 0.8248 1.3246
H18 H 0.7329 0.9492 1.2244
H19 H 0.0808 1.0342 1.1282
H20 H 0.2164 1.0559 1.1822
H21 H 0.0887 0.9228 1.2387
loop_
_geom_bond_atom_site_label_1
_geom_bond_atom_site_label_2
_geom_bond_site_symmetry_1
_geom_bond_site_symmetry_2
F1 C13 1_555 1_555
F2 C23 1_555 1_555
F3 C23 1_555 1_555
F4 C23 1_555 1_555
O1 N1 1_555 1_555
O2 C1 1_555 1_555
O3 C21 1_555 1_555
O4 C21 1_555 1_555
N1 C1 1_555 1_555
C1 C2 1_555 1_555
C2 C3 1_555 1_555
C3 C4 1_555 1_555
C4 C5 1_555 1_555
C5 C6 1_555 1_555
C6 C7 1_555 1_555
C7 O1 1_555 1_555
C8 C4 1_555 1_555
C9 C8 1_555 1_555
C10 C9 1_555 1_555
C11 C10 1_555 1_555
C12 C11 1_555 1_555
C13 C12 1_555 1_555
C14 C9 1_555 1_555
C15 N1 1_555 1_555
C16 C6 1_555 1_555
C17 C8 1_555 1_555
C18 C17 1_555 1_555
C19 C18 1_555 1_555
C20 C19 1_555 1_555
C21 C20 1_555 1_555
C22 O4 1_555 1_555
C23 C11 1_555 1_555
H1 C3 1_555 1_555
H2 C5 1_555 1_555
H3 C10 1_555 1_555
H4 C12 1_555 1_555
H5 C14 1_555 1_555
H6 C17 1_555 1_555
H7 C18 1_555 1_555
H8 C18 1_555 1_555
H9 C19 1_555 1_555
H10 C19 1_555 1_555
H11 C20 1_555 1_555
H12 C20 1_555 1_555
H13 C22 1_555 1_555
H14 C22 1_555 1_555
H15 C22 1_555 1_555
H16 C15 1_555 1_555
H17 C15 1_555 1_555
H18 C15 1_555 1_555
H19 C16 1_555 1_555
H20 C16 1_555 1_555
H21 C16 1_555 1_555
C2 C7 1_555 1_555
C13 C14 1_555 1_555

#END
