
#######################################################################
#
#                 Cambridge Crystallographic Data Centre
#                                CCDC 
#
#######################################################################
#
# If this CIF has been generated from an entry in the Cambridge 
# Structural Database, then it will include bibliographic, chemical, 
# crystal, experimental, refinement or atomic coordinate data resulting 
# from the CCDC's data processing and validation procedures.
#
#######################################################################

data_PEHVUU
_chemical_name_common            4,4'-Dibromo-2,2'-thenil
_chemical_formula_moiety         'C10 H4 Br2 O2 S2'
_chemical_name_systematic        1,2-bis(4'-Bromothien-2'-yl)-1,2-ethandione
_chemical_properties_biological  
'potent selective inhibitor of carboxylesterases'
_symmetry_cell_setting           orthorhombic
_symmetry_space_group_name_H-M   'P 21 21 2'
_symmetry_Int_Tables_number      18
_space_group_name_Hall           'P 2 2ab'
loop_
_symmetry_equiv_pos_site_id
_symmetry_equiv_pos_as_xyz
1 x,y,z
2 -x,-y,z
3 1/2-x,1/2+y,-z
4 1/2+x,1/2-y,-z
_cell_length_a                   8.523(2)
_cell_length_b                   16.892(4)
_cell_length_c                   3.8937(9)
_cell_angle_alpha                90
_cell_angle_beta                 90
_cell_angle_gamma                90
_cell_volume                     560.578
_exptl_crystal_colour            yellow
_exptl_crystal_description       needle
_chemical_melting_point          '164-165 deg.C'
_cell_formula_units_Z            2
loop_
_atom_site_label
_atom_site_type_symbol
_atom_site_fract_x
_atom_site_fract_y
_atom_site_fract_z
S1 S 0.91475(9) 0.30795(4) 0.1047(2)
C1 C 0.7334(3) 0.29825(19) 0.2888(8)
H1 H 0.6917 0.2497 0.3722
C2 C 0.7416(3) 0.43291(19) 0.1601(8)
H2 H 0.7044 0.4858 0.1485
C3 C 0.8860(3) 0.40834(17) 0.0423(8)
O1 O 1.1293(3) 0.42572(14) -0.2424(6)
C4 C 1.0108(4) 0.45501(18) -0.1171(8)
C5 C 0.6562(4) 0.36886(19) 0.3008(8)
Br1 Br 0.45281(3) 0.382067(16) 0.48281(8)
S1A S 1.08525(9) 0.69205(4) 0.1047(2)
C1A C 1.2666(3) 0.70175(19) 0.2888(8)
H1A H 1.3083 0.7503 0.3722
C2A C 1.2584(3) 0.56709(19) 0.1601(8)
H2A H 1.2956 0.5142 0.1485
C3A C 1.1140(3) 0.59166(17) 0.0423(8)
O1A O 0.8707(3) 0.57428(14) -0.2424(6)
C4A C 0.9892(4) 0.54499(18) -0.1171(8)
C5A C 1.3438(4) 0.63114(19) 0.3008(8)
Br1A Br 1.54719(3) 0.617933(16) 0.48281(8)
loop_
_geom_bond_atom_site_label_1
_geom_bond_atom_site_label_2
_geom_bond_site_symmetry_1
_geom_bond_site_symmetry_2
S1 C1 1_555 1_555
C1 H1 1_555 1_555
C2 H2 1_555 1_555
C3 S1 1_555 1_555
O1 C4 1_555 1_555
C4 C3 1_555 1_555
C5 C1 1_555 1_555
Br1 C5 1_555 1_555
S1A C1A 1_555 1_555
C1A H1A 1_555 1_555
C2A H2A 1_555 1_555
C3A S1A 1_555 1_555
O1A C4A 1_555 1_555
C4A C4 1_555 1_555
C5A C1A 1_555 1_555
Br1A C5A 1_555 1_555
C2 C3 1_555 1_555
C2 C5 1_555 1_555
C2A C3A 1_555 1_555
C2A C5A 1_555 1_555
C3A C4A 1_555 1_555

#END
