
#######################################################################
#
#                 Cambridge Crystallographic Data Centre
#                                CCDC 
#
#######################################################################
#
# If this CIF has been generated from an entry in the Cambridge 
# Structural Database, then it will include bibliographic, chemical, 
# crystal, experimental, refinement or atomic coordinate data resulting 
# from the CCDC's data processing and validation procedures.
#
#######################################################################

data_PEHXOP
_chemical_name_common            p-Propionylcalix(4)arene
_chemical_formula_moiety         'C40 H40 O8'
_chemical_name_systematic        
5,11,17,23-Tetra-propionyl-25,26,27,28-tetrahydroxypentacyclo(19.3.1.1^3,7^.1^9,13^.1^15,19^)octacosa-1(25),3,5,7(26),9,11,13(27),15,17,19(28),21,23-dodecaene
_symmetry_cell_setting           triclinic
_symmetry_space_group_name_H-M   'P -1'
_symmetry_Int_Tables_number      2
_space_group_name_Hall           '-P 1'
loop_
_symmetry_equiv_pos_site_id
_symmetry_equiv_pos_as_xyz
1 x,y,z
2 -x,-y,-z
_cell_length_a                   9.930(5)
_cell_length_b                   11.838(3)
_cell_length_c                   14.522(7)
_cell_angle_alpha                94.92(3)
_cell_angle_beta                 102.96(4)
_cell_angle_gamma                98.32(3)
_cell_volume                     1633.67
_exptl_crystal_colour            colorless
_cell_formula_units_Z            2
loop_
_atom_site_label
_atom_site_type_symbol
_atom_site_fract_x
_atom_site_fract_y
_atom_site_fract_z
O1 O 0.0684(1) 0.3045(1) 0.4207(1)
O2 O 0.1083(2) 0.3352(1) 0.2445(1)
O3 O 0.0846(2) 0.1072(1) 0.1924(1)
O4 O 0.0310(1) 0.0726(1) 0.3620(1)
O5 O -0.3198(2) 0.6393(1) 0.0490(1)
O6 O -0.4175(3) 0.0115(2) -0.1706(2)
O7 O -0.5798(2) -0.1163(1) 0.3962(1)
O8 O -0.5080(2) 0.4881(2) 0.3824(1)
C1 C 0.0121(2) 0.3870(2) 0.1887(1)
C2 C -0.0430(2) 0.4756(2) 0.2305(1)
C3 C -0.1377(2) 0.5288(1) 0.1724(1)
C4 C -0.1813(2) 0.4950(2) 0.0742(1)
C5 C -0.1258(2) 0.4055(2) 0.0355(1)
C6 C -0.0287(2) 0.3510(2) 0.0903(1)
C7 C 0.0242(2) 0.2516(2) 0.0452(1)
C8 C -0.0647(2) 0.1359(2) 0.0465(1)
C9 C -0.1819(2) 0.0965(2) -0.0256(1)
C10 C -0.2707(2) -0.0062(2) -0.0249(1)
C11 C -0.2367(2) -0.0704(2) 0.0504(1)
C12 C -0.1187(2) -0.0343(2) 0.1237(1)
C13 C -0.0334(2) 0.0694(2) 0.1211(1)
C14 C -0.0864(2) -0.1065(2) 0.2058(1)
C15 C -0.1616(2) -0.0751(1) 0.2835(1)
C16 C -0.2941(2) -0.1319(1) 0.2801(1)
C17 C -0.3693(2) -0.1007(1) 0.3466(1)
C18 C -0.3047(2) -0.0124(1) 0.4191(1)
C19 C -0.1714(2) 0.0467(1) 0.4256(1)
C20 C -0.1013(2) 0.0147(1) 0.3567(1)
C21 C -0.1111(2) 0.1497(2) 0.5012(1)
C22 C -0.1495(2) 0.2596(1) 0.4632(1)
C23 C -0.2814(2) 0.2857(2) 0.4630(1)
C24 C -0.3257(2) 0.3811(2) 0.4233(1)
C25 C -0.2333(2) 0.4521(1) 0.3859(1)
C26 C -0.1014(2) 0.4298(1) 0.3846(1)
C27 C -0.0610(2) 0.3315(1) 0.4224(1)
C28 C -0.0061(2) 0.5076(2) 0.3383(1)
C29 C -0.2859(2) 0.5536(2) 0.0159(1)
C30 C -0.3521(3) 0.5007(2) -0.0857(2)
C31 C -0.4532(4) 0.5638(3) -0.1419(2)
C32 C -0.3982(3) -0.0413(2) -0.1044(2)
C33 C -0.5058(3) -0.1422(2) -0.0986(2)
C34 C -0.6283(3) -0.1727(2) -0.1837(2)
C35 C -0.5157(2) -0.1535(2) 0.3409(1)
C36 C -0.5872(2) -0.2539(2) 0.2662(2)
C37 C -0.7373(3) -0.2920(3) 0.2664(2)
C38 C -0.4717(2) 0.4040(2) 0.4162(1)
C39 C -0.5751(2) 0.3180(2) 0.4464(2)
C40 C -0.6218(3) 0.2078(3) 0.3761(2)
H1 H 0.0801 0.2197 0.3931
H2 H 0.1321 0.1826 0.1935
H3 H 0.1309 0.3517 0.3151
H4 H 0.0090 0.1070 0.2902
loop_
_geom_bond_atom_site_label_1
_geom_bond_atom_site_label_2
_geom_bond_site_symmetry_1
_geom_bond_site_symmetry_2
O1 C27 1_555 1_555
O2 C1 1_555 1_555
O3 C13 1_555 1_555
O4 C20 1_555 1_555
O5 C29 1_555 1_555
O6 C32 1_555 1_555
O7 C35 1_555 1_555
O8 C38 1_555 1_555
C1 C2 1_555 1_555
C2 C3 1_555 1_555
C3 C4 1_555 1_555
C4 C5 1_555 1_555
C5 C6 1_555 1_555
C6 C1 1_555 1_555
C7 C6 1_555 1_555
C8 C7 1_555 1_555
C9 C8 1_555 1_555
C10 C9 1_555 1_555
C11 C10 1_555 1_555
C12 C11 1_555 1_555
C13 C8 1_555 1_555
C14 C12 1_555 1_555
C15 C14 1_555 1_555
C16 C15 1_555 1_555
C17 C16 1_555 1_555
C18 C17 1_555 1_555
C19 C18 1_555 1_555
C20 C15 1_555 1_555
C21 C19 1_555 1_555
C22 C21 1_555 1_555
C23 C22 1_555 1_555
C24 C23 1_555 1_555
C25 C24 1_555 1_555
C26 C25 1_555 1_555
C27 C22 1_555 1_555
C28 C2 1_555 1_555
C29 C4 1_555 1_555
C30 C29 1_555 1_555
C31 C30 1_555 1_555
C32 C10 1_555 1_555
C33 C32 1_555 1_555
C34 C33 1_555 1_555
C35 C17 1_555 1_555
C36 C35 1_555 1_555
C37 C36 1_555 1_555
C38 C24 1_555 1_555
C39 C38 1_555 1_555
C40 C39 1_555 1_555
H1 O1 1_555 1_555
H2 O3 1_555 1_555
H3 O2 1_555 1_555
H4 O4 1_555 1_555
C12 C13 1_555 1_555
C19 C20 1_555 1_555
C26 C27 1_555 1_555
C26 C28 1_555 1_555

#END
