
#######################################################################
#
#                 Cambridge Crystallographic Data Centre
#                                CCDC 
#
#######################################################################
#
# If this CIF has been generated from an entry in the Cambridge 
# Structural Database, then it will include bibliographic, chemical, 
# crystal, experimental, refinement or atomic coordinate data resulting 
# from the CCDC's data processing and validation procedures.
#
#######################################################################

data_PEJDEQ
_chemical_formula_moiety         'C34 H29 F2 N1 O6'
_chemical_name_systematic        
'diisopropyl 4-(4-fluorophenyl)-5-[(4-fluorophenyl)ethynyl]-2-methyl-1,3-dioxo-2,3,6,8-tetrahydrocyclopenta[e]isoindole-7,7(1H)-dicarboxylate'
_symmetry_cell_setting           triclinic
_symmetry_space_group_name_H-M   'P -1'
_symmetry_Int_Tables_number      2
_space_group_name_Hall           '-P 1'
loop_
_symmetry_equiv_pos_site_id
_symmetry_equiv_pos_as_xyz
1 x,y,z
2 -x,-y,-z
_cell_length_a                   10.0453(11)
_cell_length_b                   13.561(3)
_cell_length_c                   13.8814(15)
_cell_angle_alpha                113.863(2)
_cell_angle_beta                 108.6060(10)
_cell_angle_gamma                92.439(2)
_cell_volume                     1606.49
_exptl_crystal_colour            colorless
_exptl_crystal_description       block
_cell_formula_units_Z            2
loop_
_atom_site_label
_atom_site_type_symbol
_atom_site_fract_x
_atom_site_fract_y
_atom_site_fract_z
C1 C 0.3850(4) 0.7312(3) 0.1640(3)
C2 C 0.5268(4) 0.8127(3) 0.2108(4)
H1 H 0.6056 0.7895 0.2528
H2 H 0.5482 0.8192 0.1500
C3 C 0.5013(4) 0.9191(3) 0.2868(3)
C4 C 0.5802(4) 1.0257(3) 0.3293(3)
C5 C 0.5386(4) 1.1178(3) 0.3990(3)
C6 C 0.4185(4) 1.0974(3) 0.4227(3)
C7 C 0.3503(4) 1.1738(4) 0.4937(3)
C8 C 0.2212(4) 0.9983(4) 0.4209(3)
C9 C 0.3429(4) 0.9911(3) 0.3812(3)
C10 C 0.3812(4) 0.8998(3) 0.3120(3)
C11 C 0.3177(5) 0.7818(4) 0.2574(4)
H3 H 0.2140 0.7692 0.2236
H4 H 0.3436 0.7509 0.3113
C12 C 0.2867(4) 0.7256(3) 0.0530(4)
C13 C 0.2729(8) 0.6937(9) -0.1336(6)
H5 H 0.1879 0.7264 -0.1321
C14 C 0.3688(12) 0.7605(12) -0.1512(9)
H6 H 0.3972 0.8334 -0.0901
H7 H 0.3212 0.7637 -0.2215
H8 H 0.4520 0.7289 -0.1538
C15 C 0.2259(13) 0.5772(11) -0.2146(7)
H9 H 0.1396 0.5477 -0.2115
H10 H 0.2994 0.5379 -0.1957
H11 H 0.2079 0.5698 -0.2896
C16 C 0.4093(5) 0.6177(4) 0.1453(4)
C17 C 0.2890(11) 0.4349(7) 0.0829(13)
H12 H 0.3849 0.4187 0.0903
C18 C 0.237(3) 0.4067(13) 0.152(2)
H13 H 0.1548 0.4392 0.1583
H14 H 0.3100 0.4336 0.2264
H15 H 0.2094 0.3282 0.1203
C19 C 0.185(4) 0.3732(10) -0.040(3)
H16 H 0.1782 0.4205 -0.0766
H17 H 0.0917 0.3510 -0.0414
H18 H 0.2184 0.3093 -0.0790
C20 C 0.6990(4) 1.0373(3) 0.2965(3)
C21 C 0.7952(4) 1.0432(3) 0.2648(3)
C22 C 0.9123(4) 1.0532(3) 0.2295(3)
C23 C 0.9867(5) 1.1541(4) 0.2573(4)
H19 H 0.9590 1.2174 0.2985
C24 C 1.1020(5) 1.1639(5) 0.2254(5)
H20 H 1.1547 1.2330 0.2490
C25 C 1.1372(5) 1.0735(5) 0.1606(4)
C26 C 1.0652(5) 0.9702(5) 0.1297(4)
H21 H 1.0927 0.9078 0.0867
C27 C 0.9523(5) 0.9601(4) 0.1630(4)
H22 H 0.9022 0.8906 0.1411
C28 C 0.6169(4) 1.2321(3) 0.4405(3)
C29 C 0.5473(4) 1.3093(4) 0.4135(4)
H23 H 0.4494 1.2905 0.3716
C30 C 0.6200(5) 1.4119(4) 0.4471(4)
H24 H 0.5725 1.4625 0.4279
C31 C 0.7647(6) 1.4395(4) 0.5101(4)
C32 C 0.8380(5) 1.3666(4) 0.5390(4)
H25 H 0.9359 1.3865 0.5813
C33 C 0.7625(4) 1.2620(3) 0.5035(4)
H26 H 0.8105 1.2114 0.5223
C34 C 0.1317(5) 1.1524(5) 0.5416(4)
H27 H 0.1426 1.2303 0.5651
H28 H 0.1500 1.1381 0.6065
H29 H 0.0358 1.1167 0.4889
F1 F 1.28001(15) 1.0853(2) 0.11952(14)
F2 F 0.8579(2) 1.57044(11) 0.55227(17)
N1 N 0.2328(4) 1.1103(3) 0.4874(3)
O1 O 0.1671(4) 0.7419(4) 0.0330(3)
O2 O 0.3476(4) 0.6974(4) -0.0215(3)
O3 O 0.5229(5) 0.5907(4) 0.1611(4)
O4 O 0.2890(4) 0.5493(3) 0.1066(5)
O5 O 0.1297(3) 0.9263(3) 0.4020(3)
O6 O 0.3854(4) 1.2729(3) 0.5518(3)
loop_
_geom_bond_atom_site_label_1
_geom_bond_atom_site_label_2
_geom_bond_site_symmetry_1
_geom_bond_site_symmetry_2
C1 C2 1_555 1_555
C2 H1 1_555 1_555
H2 C2 1_555 1_555
C3 C2 1_555 1_555
C4 C3 1_555 1_555
C5 C4 1_555 1_555
C6 C5 1_555 1_555
C7 C6 1_555 1_555
C8 C9 1_555 1_555
C9 C6 1_555 1_555
C10 C3 1_555 1_555
C11 C1 1_555 1_555
H3 C11 1_555 1_555
H4 C11 1_555 1_555
C12 C1 1_555 1_555
C13 H5 1_555 1_555
C14 C13 1_555 1_555
H6 C14 1_555 1_555
H7 C14 1_555 1_555
H8 C14 1_555 1_555
C15 C13 1_555 1_555
H9 C15 1_555 1_555
H10 C15 1_555 1_555
H11 C15 1_555 1_555
C16 C1 1_555 1_555
C17 H12 1_555 1_555
C18 C17 1_555 1_555
H13 C18 1_555 1_555
H14 C18 1_555 1_555
H15 C18 1_555 1_555
C19 C17 1_555 1_555
H16 C19 1_555 1_555
H17 C19 1_555 1_555
H18 C19 1_555 1_555
C20 C4 1_555 1_555
C21 C20 1_555 1_555
C22 C21 1_555 1_555
C23 C22 1_555 1_555
H19 C23 1_555 1_555
C24 C23 1_555 1_555
H20 C24 1_555 1_555
C25 C24 1_555 1_555
C26 C25 1_555 1_555
H21 C26 1_555 1_555
C27 C22 1_555 1_555
H22 C27 1_555 1_555
C28 C5 1_555 1_555
C29 C28 1_555 1_555
H23 C29 1_555 1_555
C30 C29 1_555 1_555
H24 C30 1_555 1_555
C31 C30 1_555 1_555
C32 C31 1_555 1_555
H25 C32 1_555 1_555
C33 C28 1_555 1_555
H26 C33 1_555 1_555
C34 H27 1_555 1_555
H28 C34 1_555 1_555
H29 C34 1_555 1_555
F1 C25 1_555 1_555
F2 C31 1_555 1_555
N1 C7 1_555 1_555
O1 C12 1_555 1_555
O2 C12 1_555 1_555
O3 C16 1_555 1_555
O4 C16 1_555 1_555
O5 C8 1_555 1_555
O6 C7 1_555 1_555
C8 N1 1_555 1_555
C9 C10 1_555 1_555
C10 C11 1_555 1_555
C13 O2 1_555 1_555
C17 O4 1_555 1_555
C26 C27 1_555 1_555
C32 C33 1_555 1_555
C34 N1 1_555 1_555

#END
