
#######################################################################
#
#                 Cambridge Crystallographic Data Centre
#                                CCDC 
#
#######################################################################
#
# If this CIF has been generated from an entry in the Cambridge 
# Structural Database, then it will include bibliographic, chemical, 
# crystal, experimental, refinement or atomic coordinate data resulting 
# from the CCDC's data processing and validation procedures.
#
#######################################################################

data_PEJNUQ
_chemical_formula_moiety         'C15 H16 F3 N1 O2 S1'
_chemical_name_systematic        
1-(t-butylsulfinyl)-3-(trifluoromethyl)spiro[aziridine-2,2'-inden]-1'(3'H)-one
_symmetry_cell_setting           orthorhombic
_symmetry_space_group_name_H-M   'P 21 21 21'
_symmetry_Int_Tables_number      19
_space_group_name_Hall           'P 2ac 2ab'
loop_
_symmetry_equiv_pos_site_id
_symmetry_equiv_pos_as_xyz
1 x,y,z
2 1/2-x,-y,1/2+z
3 -x,1/2+y,1/2-z
4 1/2+x,1/2-y,-z
_cell_length_a                   6.3686(8)
_cell_length_b                   10.3098(13)
_cell_length_c                   24.479(3)
_cell_angle_alpha                90
_cell_angle_beta                 90
_cell_angle_gamma                90
_cell_volume                     1607.27
_cell_formula_units_Z            4
loop_
_atom_site_label
_atom_site_type_symbol
_atom_site_fract_x
_atom_site_fract_y
_atom_site_fract_z
C1 C 0.3040(9) 0.2372(4) 0.30788(17)
C2 C 0.2575(11) 0.1527(5) 0.26527(19)
H1 H 0.1288 0.1565 0.2474
C3 C 0.4073(14) 0.0634(6) 0.2504(2)
H2 H 0.3804 0.0051 0.2222
C4 C 0.5982(12) 0.0602(5) 0.2773(2)
H3 H 0.6989 0.0004 0.2663
C5 C 0.6443(9) 0.1434(5) 0.3202(2)
H4 H 0.7723 0.1387 0.3384
C6 C 0.4932(8) 0.2341(4) 0.33513(18)
C7 C 0.5055(8) 0.3344(4) 0.37921(17)
H5 H 0.6101 0.3997 0.3707
H6 H 0.5392 0.2953 0.4142
C8 C 0.2878(8) 0.3918(4) 0.37963(17)
C9 C 0.1684(9) 0.3371(5) 0.33127(19)
C10 C 0.1625(9) 0.4263(4) 0.42879(18)
H7 H 0.0101 0.4178 0.4247
C11 C 0.2435(11) 0.4070(5) 0.4852(2)
C12 C 0.1902(9) 0.7802(4) 0.3894(2)
C13 C 0.0506(10) 0.8860(5) 0.3644(3)
H8 H -0.0902 0.8767 0.3778
H9 H 0.0509 0.8778 0.3254
H10 H 0.1039 0.9698 0.3744
C14 C 0.1752(11) 0.7808(6) 0.4511(2)
H11 H 0.2122 0.8651 0.4646
H12 H 0.2697 0.7173 0.4658
H13 H 0.0341 0.7604 0.4619
C15 C 0.4138(9) 0.7941(5) 0.3695(3)
H14 H 0.4646 0.8793 0.3781
H15 H 0.4179 0.7814 0.3306
H16 H 0.5007 0.7304 0.3870
F1 F 0.1266(7) 0.4655(4) 0.52223(12)
F2 F 0.4401(6) 0.4485(3) 0.49258(11)
F3 F 0.2466(6) 0.2807(3) 0.49846(13)
N1 N 0.2577(6) 0.5285(3) 0.39707(13)
O1 O -0.0028(6) 0.3725(4) 0.31622(14)
O2 O -0.1266(6) 0.6123(3) 0.38482(15)
S1 S 0.0842(2) 0.62944(12) 0.36142(5)
loop_
_geom_bond_atom_site_label_1
_geom_bond_atom_site_label_2
_geom_bond_site_symmetry_1
_geom_bond_site_symmetry_2
C1 C2 1_555 1_555
C2 H1 1_555 1_555
C3 C2 1_555 1_555
H2 C3 1_555 1_555
C4 C3 1_555 1_555
H3 C4 1_555 1_555
C5 C4 1_555 1_555
H4 C5 1_555 1_555
C6 C1 1_555 1_555
C7 C6 1_555 1_555
H5 C7 1_555 1_555
H6 C7 1_555 1_555
C8 C7 1_555 1_555
C9 C1 1_555 1_555
C10 C8 1_555 1_555
H7 C10 1_555 1_555
C11 C10 1_555 1_555
C12 C13 1_555 1_555
C13 H8 1_555 1_555
H9 C13 1_555 1_555
H10 C13 1_555 1_555
C14 C12 1_555 1_555
H11 C14 1_555 1_555
H12 C14 1_555 1_555
H13 C14 1_555 1_555
C15 C12 1_555 1_555
H14 C15 1_555 1_555
H15 C15 1_555 1_555
H16 C15 1_555 1_555
F1 C11 1_555 1_555
F2 C11 1_555 1_555
F3 C11 1_555 1_555
N1 C8 1_555 1_555
O1 C9 1_555 1_555
O2 S1 1_555 1_555
S1 C12 1_555 1_555
C5 C6 1_555 1_555
C8 C9 1_555 1_555
C10 N1 1_555 1_555
N1 S1 1_555 1_555

#END
