
#######################################################################
#
#                 Cambridge Crystallographic Data Centre
#                                CCDC 
#
#######################################################################
#
# If this CIF has been generated from an entry in the Cambridge 
# Structural Database, then it will include bibliographic, chemical, 
# crystal, experimental, refinement or atomic coordinate data resulting 
# from the CCDC's data processing and validation procedures.
#
#######################################################################

data_PEJPAY
_chemical_formula_moiety         'C16 H17 F3 N2 O2 S2'
_chemical_name_systematic        
'2-{1-[(t-butylsulfinyl)amino]-2,2,2-trifluoroethyl}-1-oxo-2,3-dihydro-1H-inden-2-yl thiocyanate'
_symmetry_cell_setting           monoclinic
_symmetry_space_group_name_H-M   'P 21'
_symmetry_Int_Tables_number      4
_space_group_name_Hall           'P 2yb'
loop_
_symmetry_equiv_pos_site_id
_symmetry_equiv_pos_as_xyz
1 x,y,z
2 -x,1/2+y,-z
_cell_length_a                   6.517(3)
_cell_length_b                   15.988(6)
_cell_length_c                   9.516(4)
_cell_angle_alpha                90
_cell_angle_beta                 108.271(6)
_cell_angle_gamma                90
_cell_volume                     941.521
_cell_formula_units_Z            2
loop_
_atom_site_label
_atom_site_type_symbol
_atom_site_fract_x
_atom_site_fract_y
_atom_site_fract_z
C1 C 0.6984(7) 0.3645(3) 0.5032(5)
C2 C 0.6023(8) 0.3182(3) 0.5894(5)
H1 H 0.4550 0.3068 0.5567
C3 C 0.7331(10) 0.2896(3) 0.7259(6)
H2 H 0.6712 0.2591 0.7855
C4 C 0.9556(10) 0.3053(3) 0.7763(6)
H3 H 1.0388 0.2853 0.8682
C5 C 1.0533(8) 0.3509(3) 0.6897(5)
H4 H 1.2011 0.3613 0.7215
C6 C 0.9207(6) 0.3801(3) 0.5539(4)
C7 C 0.9811(6) 0.4325(3) 0.4466(4)
C8 C 0.7742(6) 0.4459(2) 0.3113(4)
C9 C 0.5861(6) 0.4050(3) 0.3567(4)
H5 H 0.4839 0.4469 0.3665
H6 H 0.5101 0.3637 0.2843
C10 C 0.7510(5) 0.5383(2) 0.2627(4)
H7 H 0.8930 0.5561 0.2588
C11 C 0.6963(7) 0.5950(3) 0.3764(4)
C12 C 0.4835(7) 0.5938(3) -0.1702(4)
C13 C 0.2479(9) 0.5827(6) -0.1785(7)
H8 H 0.1646 0.5668 -0.2771
H9 H 0.1934 0.6345 -0.1533
H10 H 0.2372 0.5400 -0.1102
C14 C 0.5123(14) 0.6639(4) -0.2715(6)
H11 H 0.6625 0.6691 -0.2630
H12 H 0.4618 0.7156 -0.2430
H13 H 0.4308 0.6511 -0.3721
C15 C 0.5902(11) 0.5140(4) -0.2006(5)
H14 H 0.5288 0.4989 -0.3028
H15 H 0.5664 0.4697 -0.1394
H16 H 0.7426 0.5232 -0.1786
C16 C 1.0115(7) 0.4256(3) 0.1247(4)
F1 F 0.7920(5) 0.5685(2) 0.5152(3)
F2 F 0.4850(4) 0.5977(2) 0.3587(3)
F3 F 0.7585(6) 0.6729(2) 0.3667(3)
N1 N 1.1504(7) 0.4566(4) 0.0950(5)
N2 N 0.5999(5) 0.5509(2) 0.1153(3)
H17 H 0.4849 0.5376 0.1037
O1 O 1.1540(4) 0.4623(2) 0.4543(3)
O2 O 0.5280(8) 0.7077(2) 0.0408(4)
S1 S 0.64210(17) 0.63167(6) 0.01641(10)
S2 S 0.80280(17) 0.37766(6) 0.16193(12)
loop_
_geom_bond_atom_site_label_1
_geom_bond_atom_site_label_2
_geom_bond_site_symmetry_1
_geom_bond_site_symmetry_2
C1 C2 1_555 1_555
C2 H1 1_555 1_555
C3 C2 1_555 1_555
H2 C3 1_555 1_555
C4 C3 1_555 1_555
H3 C4 1_555 1_555
C5 C4 1_555 1_555
H4 C5 1_555 1_555
C6 C1 1_555 1_555
C7 C6 1_555 1_555
C8 C7 1_555 1_555
C9 C1 1_555 1_555
H5 C9 1_555 1_555
H6 C9 1_555 1_555
C10 C8 1_555 1_555
H7 C10 1_555 1_555
C11 C10 1_555 1_555
C12 C13 1_555 1_555
C13 H8 1_555 1_555
H9 C13 1_555 1_555
H10 C13 1_555 1_555
C14 C12 1_555 1_555
H11 C14 1_555 1_555
H12 C14 1_555 1_555
H13 C14 1_555 1_555
C15 C12 1_555 1_555
H14 C15 1_555 1_555
H15 C15 1_555 1_555
H16 C15 1_555 1_555
C16 N1 1_555 1_555
F1 C11 1_555 1_555
F2 C11 1_555 1_555
F3 C11 1_555 1_555
N2 C10 1_555 1_555
H17 N2 1_555 1_555
O1 C7 1_555 1_555
O2 S1 1_555 1_555
S1 C12 1_555 1_555
S2 C8 1_555 1_555
C5 C6 1_555 1_555
C8 C9 1_555 1_555
C16 S2 1_555 1_555
N2 S1 1_555 1_555

#END
