
#######################################################################
#
#                 Cambridge Crystallographic Data Centre
#                                CCDC 
#
#######################################################################
#
# If this CIF has been generated from an entry in the Cambridge 
# Structural Database, then it will include bibliographic, chemical, 
# crystal, experimental, refinement or atomic coordinate data resulting 
# from the CCDC's data processing and validation procedures.
#
#######################################################################

data_PEJVOS
_chemical_formula_moiety         'C10 H14 Br4 N1 O1 1+,Br1 1-'
_chemical_name_systematic        
'2,3-bis(dibromomethyl)-8-oxa-5-azoniaspiro[4.5]dec-2-ene bromide'
_symmetry_cell_setting           monoclinic
_symmetry_space_group_name_H-M   'P 21/n'
_symmetry_Int_Tables_number      14
_space_group_name_Hall           '-P 2yn'
loop_
_symmetry_equiv_pos_site_id
_symmetry_equiv_pos_as_xyz
1 x,y,z
2 1/2-x,1/2+y,1/2-z
3 -x,-y,-z
4 1/2+x,1/2-y,1/2+z
_cell_length_a                   8.1328(16)
_cell_length_b                   12.553(3)
_cell_length_c                   15.083(3)
_cell_angle_alpha                90
_cell_angle_beta                 100.40(3)
_cell_angle_gamma                90
_cell_volume                     1514.54
_exptl_crystal_colour            colorless
_exptl_crystal_description       prism
_cell_formula_units_Z            4
loop_
_atom_site_label
_atom_site_type_symbol
_atom_site_fract_x
_atom_site_fract_y
_atom_site_fract_z
Br1 Br 0.88209(8) 0.09056(5) 0.71700(4)
Br2 Br 0.54657(9) -0.00096(6) 0.27218(5)
Br3 Br 0.73591(9) 0.18371(6) 0.18526(4)
Br4 Br 1.22611(7) 0.10166(5) 0.52075(4)
Br5 Br 1.17899(7) 0.26591(5) 0.35690(5)
N1 N 0.7059(5) 0.2756(4) 0.4744(3)
C1 C 0.6258(7) 0.1960(5) 0.4047(4)
H1 H 0.5640 0.1426 0.4317
H2 H 0.5504 0.2311 0.3564
C2 C 0.7694(6) 0.1472(4) 0.3709(3)
C3 C 0.9138(6) 0.1722(4) 0.4243(3)
C4 C 0.8862(6) 0.2368(5) 0.5028(4)
H3 H 0.9636 0.2962 0.5131
H4 H 0.8986 0.1938 0.5570
C5 C 0.7508(7) 0.0847(5) 0.2867(4)
H5 H 0.8478 0.0379 0.2885
C6 C 1.0825(6) 0.1442(4) 0.4091(3)
H6 H 1.0733 0.0847 0.3665
C7 C 0.7012(9) 0.3848(5) 0.4329(4)
H7 H 0.7741 0.3861 0.3886
H8 H 0.5884 0.4000 0.4020
C8 C 0.7554(10) 0.4695(6) 0.5023(5)
H9 H 0.8729 0.4596 0.5274
H10 H 0.7430 0.5387 0.4733
O1 O 0.6646(6) 0.4679(4) 0.5715(3)
C9 C 0.6833(8) 0.3683(6) 0.6165(4)
H11 H 0.6245 0.3697 0.6670
H12 H 0.8008 0.3555 0.6399
C10 C 0.6154(7) 0.2798(5) 0.5535(4)
H13 H 0.4970 0.2911 0.5319
H14 H 0.6289 0.2124 0.5855
loop_
_geom_bond_atom_site_label_1
_geom_bond_atom_site_label_2
_geom_bond_site_symmetry_1
_geom_bond_site_symmetry_2
Br2 C5 1_555 1_555
Br3 C5 1_555 1_555
Br4 C6 1_555 1_555
Br5 C6 1_555 1_555
N1 C1 1_555 1_555
C1 H1 1_555 1_555
H2 C1 1_555 1_555
C2 C1 1_555 1_555
C3 C2 1_555 1_555
C4 N1 1_555 1_555
H3 C4 1_555 1_555
H4 C4 1_555 1_555
C5 C2 1_555 1_555
H5 C5 1_555 1_555
C6 C3 1_555 1_555
H6 C6 1_555 1_555
C7 N1 1_555 1_555
H7 C7 1_555 1_555
H8 C7 1_555 1_555
C8 C7 1_555 1_555
H9 C8 1_555 1_555
H10 C8 1_555 1_555
O1 C8 1_555 1_555
C9 O1 1_555 1_555
H11 C9 1_555 1_555
H12 C9 1_555 1_555
C10 N1 1_555 1_555
H13 C10 1_555 1_555
H14 C10 1_555 1_555
C3 C4 1_555 1_555
C9 C10 1_555 1_555

#END
