
#######################################################################
#
#                 Cambridge Crystallographic Data Centre
#                                CCDC 
#
#######################################################################
#
# If this CIF has been generated from an entry in the Cambridge 
# Structural Database, then it will include bibliographic, chemical, 
# crystal, experimental, refinement or atomic coordinate data resulting 
# from the CCDC's data processing and validation procedures.
#
#######################################################################

data_PEJWIN
_chemical_formula_moiety         'C10 H16 Br4 N1 1+,Br1 1-'
_chemical_name_systematic        
'3,4-bis(dibromomethyl)-1,1-diethyl-2,5-dihydro-1H-pyrrolium bromide'
_symmetry_cell_setting           triclinic
_symmetry_space_group_name_H-M   'P -1'
_symmetry_Int_Tables_number      2
_space_group_name_Hall           '-P 1'
loop_
_symmetry_equiv_pos_site_id
_symmetry_equiv_pos_as_xyz
1 x,y,z
2 -x,-y,-z
_cell_length_a                   8.8743(18)
_cell_length_b                   9.1199(18)
_cell_length_c                   11.331(2)
_cell_angle_alpha                99.57(3)
_cell_angle_beta                 99.01(3)
_cell_angle_gamma                116.08(3)
_cell_volume                     784.423
_exptl_crystal_colour            colorless
_exptl_crystal_description       prism
_cell_formula_units_Z            2
loop_
_atom_site_label
_atom_site_type_symbol
_atom_site_fract_x
_atom_site_fract_y
_atom_site_fract_z
Br1 Br 0.13122(8) 0.81728(7) 0.31088(5)
Br2 Br 0.38310(8) 0.58968(8) 0.86545(6)
Br3 Br 0.18788(7) 0.71897(7) 1.03467(5)
Br4 Br -0.22404(7) 0.49636(7) 0.48808(5)
Br5 Br -0.28329(8) 0.63400(10) 0.74180(7)
N1 N 0.2704(5) 0.9982(5) 0.7275(4)
C1 C 0.3374(6) 0.9044(6) 0.7999(5)
H1 H 0.4226 0.8851 0.7656
H2 H 0.3903 0.9679 0.8862
C2 C 0.1806(5) 0.7405(5) 0.7875(4)
C3 C 0.0457(6) 0.7195(5) 0.7028(4)
C4 C 0.0890(6) 0.8669(6) 0.6486(4)
H3 H 0.0067 0.9092 0.6542
H4 H 0.0889 0.8361 0.5624
C5 C 0.1825(6) 0.6264(6) 0.8652(4)
H5 H 0.0767 0.5172 0.8306
C6 C -0.1294(6) 0.5721(6) 0.6664(4)
H6 H -0.1235 0.4794 0.6962
C7 C 0.2626(7) 1.1380(6) 0.8144(5)
H7 H 0.3803 1.2225 0.8596
H8 H 0.2139 1.1918 0.7652
C8 C 0.1584(9) 1.0841(8) 0.9067(6)
H9 H 0.0409 1.0012 0.8635
H10 H 0.1591 1.1807 0.9564
H11 H 0.2086 1.0359 0.9592
C9 C 0.3891(7) 1.0721(7) 0.6458(5)
H12 H 0.5073 1.1408 0.6973
H13 H 0.3863 0.9800 0.5869
C10 C 0.3420(9) 1.1779(7) 0.5762(6)
H14 H 0.2198 1.1181 0.5365
H15 H 0.4061 1.2011 0.5147
H16 H 0.3699 1.2826 0.6327
loop_
_geom_bond_atom_site_label_1
_geom_bond_atom_site_label_2
_geom_bond_site_symmetry_1
_geom_bond_site_symmetry_2
Br2 C5 1_555 1_555
Br3 C5 1_555 1_555
Br4 C6 1_555 1_555
Br5 C6 1_555 1_555
N1 C1 1_555 1_555
C1 H1 1_555 1_555
H2 C1 1_555 1_555
C2 C1 1_555 1_555
C3 C2 1_555 1_555
C4 N1 1_555 1_555
H3 C4 1_555 1_555
H4 C4 1_555 1_555
C5 C2 1_555 1_555
H5 C5 1_555 1_555
C6 C3 1_555 1_555
H6 C6 1_555 1_555
C7 N1 1_555 1_555
H7 C7 1_555 1_555
H8 C7 1_555 1_555
C8 C7 1_555 1_555
H9 C8 1_555 1_555
H10 C8 1_555 1_555
H11 C8 1_555 1_555
C9 N1 1_555 1_555
H12 C9 1_555 1_555
H13 C9 1_555 1_555
C10 C9 1_555 1_555
H14 C10 1_555 1_555
H15 C10 1_555 1_555
H16 C10 1_555 1_555
C3 C4 1_555 1_555

#END
