
#######################################################################
#
#                 Cambridge Crystallographic Data Centre
#                                CCDC 
#
#######################################################################
#
# If this CIF has been generated from an entry in the Cambridge 
# Structural Database, then it will include bibliographic, chemical, 
# crystal, experimental, refinement or atomic coordinate data resulting 
# from the CCDC's data processing and validation procedures.
#
#######################################################################

data_PEJWOR
_chemical_formula_moiety         'C18 H15 N1 O4 S4,0.33(C2 H3 N1)'
_chemical_name_systematic        
'6-(1,3-dithiolan-2-ylidene)-7-(1-(1,3-dithiolan-2-ylidene)-2-oxopropyl)-6H-[1,3]dioxolo[4,5-f]indole 5-oxide acetonitrile solvate'
_symmetry_cell_setting           monoclinic
_symmetry_space_group_name_H-M   'P 21/c'
_symmetry_Int_Tables_number      14
_space_group_name_Hall           '-P 2ybc'
loop_
_symmetry_equiv_pos_site_id
_symmetry_equiv_pos_as_xyz
1 x,y,z
2 -x,1/2+y,1/2-z
3 -x,-y,-z
4 x,1/2-y,1/2+z
_cell_length_a                   12.5378(17)
_cell_length_b                   10.4037(14)
_cell_length_c                   17.058(2)
_cell_angle_alpha                90
_cell_angle_beta                 100.618(3)
_cell_angle_gamma                90
_cell_volume                     2186.94
_exptl_crystal_colour            yellow
_exptl_crystal_description       rectangular
_chemical_melting_point          '138-140 deg.C'
_cell_formula_units_Z            4
loop_
_atom_site_label
_atom_site_type_symbol
_atom_site_fract_x
_atom_site_fract_y
_atom_site_fract_z
S1 S 0.57132(11) 1.16545(13) 0.23903(10)
S2 S 0.79750(11) 1.10121(15) 0.22923(11)
S3 S 0.94209(12) 0.74068(18) 0.24510(12)
S4 S 0.70727(12) 0.73495(17) 0.23982(11)
O1 O 0.5687(3) 0.5598(4) -0.0956(3)
O2 O 0.3881(3) 0.6047(4) -0.0958(3)
O3 O 0.4278(3) 1.0073(3) 0.1275(2)
O4 O 0.9751(3) 0.8809(4) 0.1135(3)
N1 N 0.5060(4) 0.9525(5) 0.1079(3)
C1 C 0.4599(5) 0.5277(6) -0.1313(4)
H1 H 0.4484 0.5435 -0.1883
H2 H 0.4465 0.4374 -0.1229
C2 C 0.5613(4) 0.6585(5) -0.0448(3)
C3 C 0.6464(4) 0.7208(5) 0.0008(3)
H3 H 0.7184 0.6995 0.0007
C4 C 0.6157(4) 0.8201(5) 0.0481(3)
C5 C 0.5074(4) 0.8487(5) 0.0501(3)
C6 C 0.4227(4) 0.7815(5) 0.0013(3)
H4 H 0.3502 0.8011 0.0004
C7 C 0.4531(4) 0.6873(5) -0.0442(3)
C8 C 0.6851(3) 0.9007(4) 0.0993(3)
C9 C 0.6216(3) 0.9810(5) 0.1401(3)
C10 C 0.6589(4) 1.0698(5) 0.1945(3)
C11 C 0.6756(5) 1.2338(7) 0.3128(4)
H5 H 0.6525 1.3172 0.3288
H6 H 0.6890 1.1788 0.3595
C12 C 0.7762(5) 1.2478(6) 0.2802(5)
H7 H 0.8372 1.2638 0.3230
H8 H 0.7696 1.3196 0.2434
C13 C 0.7956(4) 0.8638(5) 0.1301(3)
C14 C 0.8799(4) 0.9122(5) 0.0909(4)
C15 C 0.8488(4) 1.0039(6) 0.0215(4)
H9 H 0.8400 1.0888 0.0413
H10 H 0.7819 0.9762 -0.0109
H11 H 0.9049 1.0047 -0.0100
C16 C 0.8151(4) 0.7872(5) 0.1965(3)
C17 C 0.8950(11) 0.6765(16) 0.3362(9)
C18 C 0.7848(9) 0.6243(13) 0.3108(9)
C21 C 0.922(2) 0.502(3) 0.0324(17)
N3 N 0.875(2) 0.405(2) 0.047(2)
C23 C 0.909(3) 0.622(3) -0.009(2)
C19? C 0.898(3) 0.624(3) 0.310(2)
C20? C 0.783(2) 0.685(3) 0.3305(18)
N2? N 0.974(2) 0.526(3) -0.0171(18)
C22? C 0.8792(19) 0.458(3) 0.0936(15)
loop_
_geom_bond_atom_site_label_1
_geom_bond_atom_site_label_2
_geom_bond_site_symmetry_1
_geom_bond_site_symmetry_2
S1 C10 1_555 1_555
S2 C10 1_555 1_555
S3 C16 1_555 1_555
S4 C16 1_555 1_555
O1 C1 1_555 1_555
O2 C1 1_555 1_555
O3 N1 1_555 1_555
O4 C14 1_555 1_555
N1 C5 1_555 1_555
C1 H1 1_555 1_555
H2 C1 1_555 1_555
C2 O1 1_555 1_555
C3 C2 1_555 1_555
H3 C3 1_555 1_555
C4 C3 1_555 1_555
C5 C4 1_555 1_555
C6 C5 1_555 1_555
H4 C6 1_555 1_555
C7 O2 1_555 1_555
C8 C4 1_555 1_555
C9 N1 1_555 1_555
C10 C9 1_555 1_555
C11 S1 1_555 1_555
H5 C11 1_555 1_555
H6 C11 1_555 1_555
C12 S2 1_555 1_555
H7 C12 1_555 1_555
H8 C12 1_555 1_555
C13 C8 1_555 1_555
C14 C13 1_555 1_555
C15 C14 1_555 1_555
H9 C15 1_555 1_555
H10 C15 1_555 1_555
H11 C15 1_555 1_555
C16 C13 1_555 1_555
C17 S3 1_555 1_555
C18 S4 1_555 1_555
C21 N3 1_555 1_555
C23 C21 1_555 1_555
C2 C7 1_555 1_555
C6 C7 1_555 1_555
C8 C9 1_555 1_555
C11 C12 1_555 1_555
C17 C18 1_555 1_555

#END
