
#######################################################################
#
#                 Cambridge Crystallographic Data Centre
#                                CCDC 
#
#######################################################################
#
# If this CIF has been generated from an entry in the Cambridge 
# Structural Database, then it will include bibliographic, chemical, 
# crystal, experimental, refinement or atomic coordinate data resulting 
# from the CCDC's data processing and validation procedures.
#
#######################################################################

data_PEJWAF
_chemical_formula_moiety         'C11 H16 Br4 N1 1+,Br1 1-'
_chemical_name_systematic        
'2,3-bis(dibromomethyl)-5-azoniaspiro[4.5]dec-2-ene bromide'
_symmetry_cell_setting           monoclinic
_symmetry_space_group_name_H-M   'P 21/n'
_symmetry_Int_Tables_number      14
_space_group_name_Hall           '-P 2yn'
loop_
_symmetry_equiv_pos_site_id
_symmetry_equiv_pos_as_xyz
1 x,y,z
2 1/2-x,1/2+y,1/2-z
3 -x,-y,-z
4 1/2+x,1/2-y,1/2+z
_cell_length_a                   8.0673(16)
_cell_length_b                   13.888(3)
_cell_length_c                   14.459(3)
_cell_angle_alpha                90
_cell_angle_beta                 98.20(3)
_cell_angle_gamma                90
_cell_volume                     1603.4
_exptl_crystal_colour            colorless
_exptl_crystal_description       prism
_cell_formula_units_Z            4
loop_
_atom_site_label
_atom_site_type_symbol
_atom_site_fract_x
_atom_site_fract_y
_atom_site_fract_z
Br1 Br 0.12698(8) 0.91600(4) 0.26977(4)
Br2 Br -0.24416(7) 0.90568(5) 0.48393(4)
Br3 Br -0.19259(7) 0.75027(4) 0.64824(4)
Br4 Br 0.44246(8) 0.99924(5) 0.72835(4)
Br5 Br 0.25448(8) 0.83006(5) 0.82198(4)
N1 N 0.2729(5) 0.7463(3) 0.5265(3)
C1 C 0.0995(6) 0.7857(4) 0.4966(4)
H1 H 0.0954 0.8244 0.4404
H2 H 0.0178 0.7343 0.4855
C2 C 0.0697(6) 0.8458(4) 0.5781(3)
C3 C 0.2134(6) 0.8688(4) 0.6300(4)
C4 C 0.3565(6) 0.8245(4) 0.5892(4)
H3 H 0.4392 0.7978 0.6377
H4 H 0.4104 0.8714 0.5536
C5 C -0.1018(6) 0.8665(4) 0.5973(4)
H5 H -0.0976 0.9184 0.6435
C6 C 0.2380(7) 0.9230(4) 0.7183(4)
H6 H 0.1420 0.9657 0.7209
C7 C 0.2646(8) 0.6556(5) 0.5845(4)
H7 H 0.3769 0.6380 0.6126
H8 H 0.1994 0.6685 0.6345
C8 C 0.1876(10) 0.5731(5) 0.5271(5)
H9 H 0.0705 0.5873 0.5062
H10 H 0.1928 0.5159 0.5659
C9 C 0.2730(10) 0.5529(6) 0.4434(5)
H11 H 0.2110 0.5041 0.4048
H12 H 0.3849 0.5285 0.4637
C10 C 0.2832(8) 0.6444(5) 0.3864(4)
H13 H 0.1711 0.6634 0.3591
H14 H 0.3467 0.6312 0.3356
C11 C 0.3657(7) 0.7271(5) 0.4452(4)
H15 H 0.4812 0.7109 0.4680
H16 H 0.3651 0.7846 0.4070
loop_
_geom_bond_atom_site_label_1
_geom_bond_atom_site_label_2
_geom_bond_site_symmetry_1
_geom_bond_site_symmetry_2
Br2 C5 1_555 1_555
Br3 C5 1_555 1_555
Br4 C6 1_555 1_555
Br5 C6 1_555 1_555
N1 C1 1_555 1_555
C1 H1 1_555 1_555
H2 C1 1_555 1_555
C2 C1 1_555 1_555
C3 C2 1_555 1_555
C4 N1 1_555 1_555
H3 C4 1_555 1_555
H4 C4 1_555 1_555
C5 C2 1_555 1_555
H5 C5 1_555 1_555
C6 C3 1_555 1_555
H6 C6 1_555 1_555
C7 N1 1_555 1_555
H7 C7 1_555 1_555
H8 C7 1_555 1_555
C8 C7 1_555 1_555
H9 C8 1_555 1_555
H10 C8 1_555 1_555
C9 C8 1_555 1_555
H11 C9 1_555 1_555
H12 C9 1_555 1_555
C10 C9 1_555 1_555
H13 C10 1_555 1_555
H14 C10 1_555 1_555
C11 N1 1_555 1_555
H15 C11 1_555 1_555
H16 C11 1_555 1_555
C3 C4 1_555 1_555
C10 C11 1_555 1_555

#END
