
#######################################################################
#
#                 Cambridge Crystallographic Data Centre
#                                CCDC 
#
#######################################################################
#
# If this CIF has been generated from an entry in the Cambridge 
# Structural Database, then it will include bibliographic, chemical, 
# crystal, experimental, refinement or atomic coordinate data resulting 
# from the CCDC's data processing and validation procedures.
#
#######################################################################

data_PEJXUY
_chemical_formula_moiety         'C10 H11 N3 O1'
_chemical_name_systematic        
3-isopropyl[1,2,4]triazolo[4,3-a]-6-pyridinecarboxaldehyde
_symmetry_cell_setting           rhombohedral
_symmetry_space_group_name_H-M   'R -3'
_symmetry_Int_Tables_number      148
_space_group_name_Hall           '-P 3*'
loop_
_symmetry_equiv_pos_site_id
_symmetry_equiv_pos_as_xyz
1 x,y,z
2 z,x,y
3 y,z,x
4 -x,-y,-z
5 -z,-x,-y
6 -y,-z,-x
_cell_length_a                   15.132(2)
_cell_length_b                   15.132(2)
_cell_length_c                   15.132(2)
_cell_angle_alpha                117.25
_cell_angle_beta                 117.25
_cell_angle_gamma                117.25
_cell_volume                     1466.22
_exptl_crystal_colour            colorless
_exptl_crystal_description       Prisms
_chemical_melting_point          '180.7-180.8 deg.C'
_cell_formula_units_Z            6
_exptl_crystal_recrystallization_method 'ethyl acetate/hexanes'
loop_
_atom_site_label
_atom_site_type_symbol
_atom_site_fract_x
_atom_site_fract_y
_atom_site_fract_z
N1 N 0.8635(3) 0.6955(3) 0.4299(4)
N2 N 0.8278(4) 0.6347(4) 0.2996(4)
C1 C 0.7825(4) 0.6765(4) 0.2530(4)
N3 N 0.7898(3) 0.7654(3) 0.3520(3)
C2 C 0.8409(4) 0.7725(4) 0.4604(4)
C3 C 0.7324(4) 0.6477(4) 0.1275(4)
H1 H 0.7270 0.5891 0.0600
C4 C 0.6926(4) 0.7057(4) 0.1067(4)
H2 H 0.6574 0.6851 0.0225
C5 C 0.7039(4) 0.7995(4) 0.2130(4)
C6 C 0.7510(4) 0.8267(4) 0.3324(4)
H3 H 0.7571 0.8860 0.4005
C7 C 0.8632(4) 0.8543(4) 0.5883(4)
H4 H 0.9357 0.9741 0.6595
C8 C 0.6771(4) 0.7331(4) 0.4820(4)
H5 H 0.6126 0.7133 0.3972
H6 H 0.6966 0.7935 0.5676
H7 H 0.6045 0.6157 0.4138
C9 C 0.9716(4) 0.8908(4) 0.7257(4)
H8 H 1.0887 0.9684 0.7913
H9 H 0.9020 0.7751 0.6600
H10 H 0.9924 0.9519 0.8125
C10 C 0.6619(4) 0.8640(4) 0.1920(4)
H11 H 0.6650 0.9185 0.2589
O1 O 0.6235(3) 0.8504(3) 0.0925(3)
loop_
_geom_bond_atom_site_label_1
_geom_bond_atom_site_label_2
_geom_bond_site_symmetry_1
_geom_bond_site_symmetry_2
N1 N2 1_555 1_555
N2 C1 1_555 1_555
C1 N3 1_555 1_555
N3 C2 1_555 1_555
C2 N1 1_555 1_555
C3 C1 1_555 1_555
H1 C3 1_555 1_555
C4 C3 1_555 1_555
H2 C4 1_555 1_555
C5 C4 1_555 1_555
C6 N3 1_555 1_555
H3 C6 1_555 1_555
C7 C2 1_555 1_555
H4 C7 1_555 1_555
C8 C7 1_555 1_555
H5 C8 1_555 1_555
H6 C8 1_555 1_555
H7 C8 1_555 1_555
C9 C7 1_555 1_555
H8 C9 1_555 1_555
H9 C9 1_555 1_555
H10 C9 1_555 1_555
C10 C5 1_555 1_555
H11 C10 1_555 1_555
O1 C10 1_555 1_555
C5 C6 1_555 1_555

#END
