
#######################################################################
#
#                 Cambridge Crystallographic Data Centre
#                                CCDC 
#
#######################################################################
#
# If this CIF has been generated from an entry in the Cambridge 
# Structural Database, then it will include bibliographic, chemical, 
# crystal, experimental, refinement or atomic coordinate data resulting 
# from the CCDC's data processing and validation procedures.
#
#######################################################################

data_PEJYUB
_chemical_formula_moiety         'C6 H7 B1 O3'
_chemical_name_systematic        '(4-hydroxyphenyl)boronic acid'
_symmetry_cell_setting           monoclinic
_symmetry_space_group_name_H-M   'P 21/c'
_symmetry_Int_Tables_number      14
_space_group_name_Hall           '-P 2ybc'
loop_
_symmetry_equiv_pos_site_id
_symmetry_equiv_pos_as_xyz
1 x,y,z
2 -x,1/2+y,1/2-z
3 -x,-y,-z
4 x,1/2-y,1/2+z
_cell_length_a                   14.3451(6)
_cell_length_b                   5.0353(2)
_cell_length_c                   17.3021(6)
_cell_angle_alpha                90
_cell_angle_beta                 90.473(4)
_cell_angle_gamma                90
_cell_volume                     1249.72
_exptl_crystal_colour            colorless
_exptl_crystal_description       block
_cell_formula_units_Z            8
loop_
_atom_site_label
_atom_site_type_symbol
_atom_site_fract_x
_atom_site_fract_y
_atom_site_fract_z
O1 O -0.07300(8) 0.5226(2) 0.08547(7)
H1 H -0.1010 0.3808 0.0877
O2 O 0.30849(9) 0.2410(2) 0.28146(7)
H2 H 0.3598 0.2670 0.3013
O3 O 0.32752(8) 0.6974(2) 0.26248(7)
H3 H 0.2948 0.8296 0.2568
C1 C 0.01065(11) 0.5017(3) 0.12534(9)
C2 C 0.02618(11) 0.3009(3) 0.17904(9)
H4 H -0.0195 0.1741 0.1884
C3 C 0.11064(11) 0.2919(3) 0.21848(9)
H5 H 0.1216 0.1548 0.2534
C4 C 0.17981(11) 0.4835(3) 0.20718(9)
C5 C 0.16131(11) 0.6831(3) 0.15272(9)
H6 H 0.2061 0.8131 0.1441
C6 C 0.07827(11) 0.6924(3) 0.11126(9)
H7 H 0.0680 0.8244 0.0746
B1 B 0.27442(12) 0.4743(3) 0.25248(10)
O4 O 0.83857(8) 0.4754(2) 0.58487(7)
H8 H 0.8651 0.6195 0.5841
O5 O 0.47428(9) 0.2393(2) 0.36215(8)
H9 H 0.5083 0.1102 0.3686
O6 O 0.49434(8) 0.6953(2) 0.34262(7)
H10 H 0.4435 0.6709 0.3217
C7 C 0.76298(11) 0.4809(3) 0.53471(9)
C8 C 0.75271(11) 0.6776(3) 0.47917(9)
H11 H 0.7971 0.8111 0.4745
C9 C 0.67515(11) 0.6722(3) 0.43055(9)
H12 H 0.6673 0.8072 0.3944
C10 C 0.60856(10) 0.4701(3) 0.43438(9)
C11 C 0.62225(11) 0.2732(3) 0.49043(9)
H13 H 0.5795 0.1350 0.4939
C12 C 0.69804(11) 0.2782(3) 0.54106(9)
H14 H 0.7051 0.1475 0.5786
B2 B 0.52295(12) 0.4664(4) 0.37805(10)
loop_
_geom_bond_atom_site_label_1
_geom_bond_atom_site_label_2
_geom_bond_site_symmetry_1
_geom_bond_site_symmetry_2
O1 H1 1_555 1_555
O2 H2 1_555 1_555
O3 H3 1_555 1_555
C1 O1 1_555 1_555
C2 C1 1_555 1_555
H4 C2 1_555 1_555
C3 C2 1_555 1_555
H5 C3 1_555 1_555
C4 C3 1_555 1_555
C5 C4 1_555 1_555
H6 C5 1_555 1_555
C6 C1 1_555 1_555
H7 C6 1_555 1_555
B1 O2 1_555 1_555
O4 H8 1_555 1_555
O5 H9 1_555 1_555
O6 H10 1_555 1_555
C7 O4 1_555 1_555
C8 C7 1_555 1_555
H11 C8 1_555 1_555
C9 C8 1_555 1_555
H12 C9 1_555 1_555
C10 C9 1_555 1_555
C11 C10 1_555 1_555
H13 C11 1_555 1_555
C12 C7 1_555 1_555
H14 C12 1_555 1_555
B2 O5 1_555 1_555
O3 B1 1_555 1_555
C4 B1 1_555 1_555
C5 C6 1_555 1_555
O6 B2 1_555 1_555
C10 B2 1_555 1_555
C11 C12 1_555 1_555

#END
