
#######################################################################
#
#                 Cambridge Crystallographic Data Centre
#                                CCDC 
#
#######################################################################
#
# If this CIF has been generated from an entry in the Cambridge 
# Structural Database, then it will include bibliographic, chemical, 
# crystal, experimental, refinement or atomic coordinate data resulting 
# from the CCDC's data processing and validation procedures.
#
#######################################################################

data_PEJYEJ
_chemical_name_common            4-ammonio-3-isopropylaminobenzoate
_chemical_formula_moiety         'C10 H14 N2 O2'
_chemical_name_systematic        '4-amino-3-isopropylaminobenzoic acid'
_symmetry_cell_setting           orthorhombic
_symmetry_space_group_name_H-M   'P 21 21 21'
_symmetry_Int_Tables_number      19
_space_group_name_Hall           'P 2ac 2ab'
loop_
_symmetry_equiv_pos_site_id
_symmetry_equiv_pos_as_xyz
1 x,y,z
2 1/2-x,-y,1/2+z
3 -x,1/2+y,1/2-z
4 1/2+x,1/2-y,-z
_cell_length_a                   6.2628(7)
_cell_length_b                   11.0416(13)
_cell_length_c                   14.4792(16)
_cell_angle_alpha                90
_cell_angle_beta                 90
_cell_angle_gamma                90
_cell_volume                     1001.26
_exptl_crystal_colour            red
_exptl_crystal_description       Prism
_chemical_melting_point          '151.8-152.1 deg.C'
_cell_formula_units_Z            4
_exptl_crystal_recrystallization_method 'ethyl acetate/hexanes'
loop_
_atom_site_label
_atom_site_type_symbol
_atom_site_fract_x
_atom_site_fract_y
_atom_site_fract_z
C1 C -0.1029(3) -0.17910(18) 0.77611(14)
H1 H -0.0112 -0.2463 0.7900
C2 C -0.0537(3) -0.10371(18) 0.70367(14)
H2 H 0.0739 -0.1163 0.6682
C3 C -0.1908(3) -0.00929(18) 0.68248(13)
C4 C -0.3711(3) 0.00979(18) 0.73546(13)
H3 H -0.4670 0.0740 0.7188
C5 C -0.4183(3) -0.06145(18) 0.81245(13)
C6 C -0.2817(3) -0.15945(18) 0.82895(13)
N1 N -0.3260(3) -0.23990(16) 0.90697(12)
H4 H -0.212(4) -0.311(3) 0.9091(17)
H5 H -0.475(5) -0.277(2) 0.9015(17)
H6 H -0.300(4) -0.204(2) 0.9638(19)
N2 N -0.5912(3) -0.03986(15) 0.86912(12)
H7 H -0.586(4) -0.069(2) 0.9311(18)
C7 C -0.6984(3) 0.0781(2) 0.86932(15)
H8 H -0.7390 0.0971 0.8070
C8 C -0.8986(4) 0.0689(2) 0.92684(18)
H9 H -0.9868 0.0047 0.9035
H10 H -0.9755 0.1440 0.9238
H11 H -0.8610 0.0521 0.9898
C9 C -0.5541(4) 0.1781(2) 0.90443(18)
H12 H -0.5190 0.1633 0.9679
H13 H -0.6264 0.2545 0.8993
H14 H -0.4257 0.1801 0.8683
C10 C -0.1394(4) 0.07369(19) 0.60374(14)
O1 O 0.0468(2) 0.07267(13) 0.57292(10)
O2 O -0.2831(2) 0.14210(15) 0.57304(11)
loop_
_geom_bond_atom_site_label_1
_geom_bond_atom_site_label_2
_geom_bond_site_symmetry_1
_geom_bond_site_symmetry_2
C1 H1 1_555 1_555
C2 C1 1_555 1_555
H2 C2 1_555 1_555
C3 C2 1_555 1_555
C4 C3 1_555 1_555
H3 C4 1_555 1_555
C5 C4 1_555 1_555
C6 C1 1_555 1_555
N1 C6 1_555 1_555
H4 N1 1_555 1_555
H5 N1 1_555 1_555
H6 N1 1_555 1_555
N2 C5 1_555 1_555
H7 N2 1_555 1_555
C7 N2 1_555 1_555
H8 C7 1_555 1_555
C8 C7 1_555 1_555
H9 C8 1_555 1_555
H10 C8 1_555 1_555
H11 C8 1_555 1_555
C9 C7 1_555 1_555
H12 C9 1_555 1_555
H13 C9 1_555 1_555
H14 C9 1_555 1_555
C10 C3 1_555 1_555
O1 C10 1_555 1_555
O2 C10 1_555 1_555
C5 C6 1_555 1_555

#END
