
#######################################################################
#
#                 Cambridge Crystallographic Data Centre
#                                CCDC 
#
#######################################################################
#
# If this CIF has been generated from an entry in the Cambridge 
# Structural Database, then it will include bibliographic, chemical, 
# crystal, experimental, refinement or atomic coordinate data resulting 
# from the CCDC's data processing and validation procedures.
#
#######################################################################

data_PEJYOV
_chemical_name_common            
'triphenyl((3-(p-tolyl)quinoxalin-2-yl)methyl)phosphonium bromide'
_chemical_formula_moiety         'C34 H28 N2 P1 1+,Br1 1-'
_chemical_name_systematic        
'((3-(4-methylphenyl)quinoxalin-2-yl)methyl)(triphenyl)phosphonium bromide'
_symmetry_cell_setting           monoclinic
_symmetry_space_group_name_H-M   'P 21/n'
_symmetry_Int_Tables_number      14
_space_group_name_Hall           '-P 2yn'
loop_
_symmetry_equiv_pos_site_id
_symmetry_equiv_pos_as_xyz
1 x,y,z
2 1/2-x,1/2+y,1/2-z
3 -x,-y,-z
4 1/2+x,1/2-y,1/2+z
_cell_length_a                   9.941(2)
_cell_length_b                   17.716(4)
_cell_length_c                   16.858(3)
_cell_angle_alpha                90
_cell_angle_beta                 106.16(3)
_cell_angle_gamma                90
_cell_volume                     2851.63
_exptl_crystal_colour            colorless
_exptl_crystal_description       prism
_cell_formula_units_Z            4
loop_
_atom_site_label
_atom_site_type_symbol
_atom_site_fract_x
_atom_site_fract_y
_atom_site_fract_z
Br1 Br 0.22505(3) 0.06435(2) 0.34441(2)
P1 P 0.55499(6) 0.22235(3) 0.29016(4)
C1 C 0.3805(3) 0.23293(15) 0.30092(17)
H1 H 0.330(2) 0.2468(13) 0.2487(15)
H2 H 0.343(3) 0.1814(16) 0.3160(16)
C2 C 0.3725(2) 0.29073(13) 0.36490(15)
N1 N 0.4828(2) 0.29680(12) 0.42784(13)
C3 C 0.4796(3) 0.34848(15) 0.48761(15)
C4 C 0.5950(3) 0.3566(2) 0.55720(18)
H3 H 0.670(3) 0.3268(17) 0.5612(18)
C5 C 0.5903(4) 0.4072(2) 0.6167(2)
H4 H 0.667(3) 0.4110(17) 0.6634(19)
C6 C 0.4725(4) 0.4524(2) 0.6084(2)
H5 H 0.476(3) 0.4861(19) 0.649(2)
C7 C 0.3604(4) 0.4464(2) 0.5417(2)
H6 H 0.287(3) 0.4777(19) 0.5336(19)
C8 C 0.3602(3) 0.39399(16) 0.47898(17)
N2 N 0.2476(2) 0.38867(13) 0.41102(14)
C9 C 0.2516(2) 0.33796(14) 0.35460(15)
C10 C 0.1336(3) 0.33528(15) 0.27815(15)
C11 C 0.0577(3) 0.27012(17) 0.25166(18)
H7 H 0.081(3) 0.2274(15) 0.2841(15)
C12 C -0.0509(3) 0.2701(2) 0.17905(18)
H8 H -0.099(3) 0.2257(16) 0.1643(17)
C13 C -0.0840(3) 0.33446(19) 0.13103(17)
C14 C -0.2023(4) 0.3347(2) 0.05186(19)
H9 H -0.221949 0.283889 0.032355
H10 H -0.175561 0.364133 0.010881
H11 H -0.284415 0.356312 0.062142
C15 C -0.0054(3) 0.3990(2) 0.1572(2)
H12 H -0.027(3) 0.4450(16) 0.1243(18)
C16 C 0.1015(3) 0.39969(18) 0.22960(18)
H13 H 0.155(3) 0.4440(15) 0.2501(16)
C17 C 0.6260(2) 0.31416(13) 0.28205(14)
C18 C 0.5411(3) 0.36662(16) 0.22920(18)
H14 H 0.447(3) 0.3524(17) 0.2023(19)
C19 C 0.5932(4) 0.43681(18) 0.2192(2)
H15 H 0.538(3) 0.4734(18) 0.1894(18)
C20 C 0.7285(4) 0.45509(17) 0.2604(2)
H16 H 0.765(3) 0.5026(18) 0.2531(18)
C21 C 0.8118(3) 0.40430(18) 0.3128(2)
H17 H 0.900(3) 0.4151(16) 0.3412(18)
C22 C 0.7605(3) 0.33366(16) 0.32472(17)
H18 H 0.816(3) 0.3016(16) 0.3597(17)
C23 C 0.6680(2) 0.16535(13) 0.36807(15)
C24 C 0.8009(3) 0.14812(16) 0.36067(18)
H19 H 0.827(3) 0.1644(14) 0.3168(16)
C25 C 0.8908(4) 0.10386(19) 0.4194(2)
H20 H 0.978(3) 0.0954(18) 0.4120(19)
C26 C 0.8468(4) 0.0752(2) 0.4836(2)
H21 H 0.905(3) 0.0463(17) 0.5276(19)
C27 C 0.7149(4) 0.0898(2) 0.4903(2)
H22 H 0.685(4) 0.072(2) 0.536(2)
C28 C 0.6256(4) 0.13567(18) 0.4330(2)
H23 H 0.542(3) 0.1447(17) 0.4384(18)
C29 C 0.5305(2) 0.17327(14) 0.19383(14)
C30 C 0.5631(3) 0.20477(19) 0.12680(18)
H24 H 0.597(3) 0.2518(18) 0.1297(18)
C31 C 0.5364(4) 0.1651(2) 0.0535(2)
H25 H 0.553(4) 0.187(2) 0.011(2)
C32 C 0.4779(4) 0.0953(2) 0.0476(2)
H26 H 0.461(3) 0.0695(17) 0.001(2)
C33 C 0.4448(3) 0.06324(18) 0.11329(19)
H27 H 0.400(3) 0.0195(16) 0.1098(16)
C34 C 0.4717(3) 0.10140(16) 0.18694(18)
H28 H 0.447(3) 0.0819(18) 0.231(2)
loop_
_geom_bond_atom_site_label_1
_geom_bond_atom_site_label_2
_geom_bond_site_symmetry_1
_geom_bond_site_symmetry_2
P1 C1 1_555 1_555
C1 H1 1_555 1_555
H2 C1 1_555 1_555
C2 C1 1_555 1_555
N1 C2 1_555 1_555
C3 N1 1_555 1_555
C4 C3 1_555 1_555
H3 C4 1_555 1_555
C5 C4 1_555 1_555
H4 C5 1_555 1_555
C6 C5 1_555 1_555
H5 C6 1_555 1_555
C7 C6 1_555 1_555
H6 C7 1_555 1_555
C8 C3 1_555 1_555
N2 C8 1_555 1_555
C9 C2 1_555 1_555
C10 C9 1_555 1_555
C11 C10 1_555 1_555
H7 C11 1_555 1_555
C12 C11 1_555 1_555
H8 C12 1_555 1_555
C13 C12 1_555 1_555
C14 C13 1_555 1_555
H9 C14 1_555 1_555
H10 C14 1_555 1_555
H11 C14 1_555 1_555
C15 C13 1_555 1_555
H12 C15 1_555 1_555
C16 C10 1_555 1_555
H13 C16 1_555 1_555
C17 P1 1_555 1_555
C18 C17 1_555 1_555
H14 C18 1_555 1_555
C19 C18 1_555 1_555
H15 C19 1_555 1_555
C20 C19 1_555 1_555
H16 C20 1_555 1_555
C21 C20 1_555 1_555
H17 C21 1_555 1_555
C22 C17 1_555 1_555
H18 C22 1_555 1_555
C23 P1 1_555 1_555
C24 C23 1_555 1_555
H19 C24 1_555 1_555
C25 C24 1_555 1_555
H20 C25 1_555 1_555
C26 C25 1_555 1_555
H21 C26 1_555 1_555
C27 C26 1_555 1_555
H22 C27 1_555 1_555
C28 C23 1_555 1_555
H23 C28 1_555 1_555
C29 P1 1_555 1_555
C30 C29 1_555 1_555
H24 C30 1_555 1_555
C31 C30 1_555 1_555
H25 C31 1_555 1_555
C32 C31 1_555 1_555
H26 C32 1_555 1_555
C33 C32 1_555 1_555
H27 C33 1_555 1_555
C34 C29 1_555 1_555
H28 C34 1_555 1_555
C7 C8 1_555 1_555
N2 C9 1_555 1_555
C15 C16 1_555 1_555
C21 C22 1_555 1_555
C27 C28 1_555 1_555
C33 C34 1_555 1_555

#END
