
#######################################################################
#
#                 Cambridge Crystallographic Data Centre
#                                CCDC 
#
#######################################################################
#
# If this CIF has been generated from an entry in the Cambridge 
# Structural Database, then it will include bibliographic, chemical, 
# crystal, experimental, refinement or atomic coordinate data resulting 
# from the CCDC's data processing and validation procedures.
#
#######################################################################

data_PEJYUZ
_chemical_formula_moiety         'C12 H16 N3 3+,3(I1 1-),H2 O1'
_chemical_name_systematic        
'bis(pyridinium-2-ylmethyl)ammonium tris(iodide) monohydrate'
_symmetry_cell_setting           triclinic
_symmetry_space_group_name_H-M   'P -1'
_symmetry_Int_Tables_number      2
_space_group_name_Hall           '-P 1'
loop_
_symmetry_equiv_pos_site_id
_symmetry_equiv_pos_as_xyz
1 x,y,z
2 -x,-y,-z
_cell_length_a                   7.9630(10)
_cell_length_b                   9.7470(10)
_cell_length_c                   13.199(2)
_cell_angle_alpha                110.375(3)
_cell_angle_beta                 96.620(3)
_cell_angle_gamma                105.321(3)
_cell_volume                     901.55
_exptl_crystal_colour            colorless
_exptl_crystal_description       prism
_cell_formula_units_Z            2
loop_
_atom_site_label
_atom_site_type_symbol
_atom_site_fract_x
_atom_site_fract_y
_atom_site_fract_z
N1 N 0.1776(4) 0.4555(4) 0.3118(3)
C1 C 0.0132(6) 0.4644(5) 0.2551(4)
N2 N -0.1824(5) 0.3450(4) 0.0733(3)
C2 C -0.0830(5) 0.3217(5) 0.1512(4)
C3 C -0.0888(7) 0.1716(5) 0.1320(4)
C4 C -0.1973(7) 0.0503(5) 0.0354(4)
C5 C -0.2992(7) 0.0797(5) -0.0427(4)
C6 C -0.2890(7) 0.2308(5) -0.0217(4)
C7 C 0.2766(5) 0.5990(5) 0.4153(3)
N3 N 0.2836(5) 0.8320(4) 0.3674(3)
C8 C 0.3663(5) 0.7333(4) 0.3878(3)
C9 C 0.5416(4) 0.7602(4) 0.3858(3)
C10 C 0.6383(5) 0.8764(5) 0.3620(4)
C11 C 0.5577(5) 0.9746(5) 0.3382(4)
C12 C 0.3797(5) 0.9522(4) 0.3416(3)
H1 H 0.25170 0.44139 0.26253
H2 H 0.14792 0.37079 0.33035
H3 H -0.06473 0.47683 0.30538
H4 H 0.04277 0.55263 0.23686
H5 H -0.17701 0.44536 0.08497
H6 H -0.01710 0.15199 0.18513
H7 H -0.20340 -0.05404 0.02236
H8 H -0.37426 -0.00306 -0.10978
H9 H -0.35921 0.25414 -0.07313
H10 H 0.19351 0.62599 0.45861
H11 H 0.36435 0.57794 0.45737
H12 H 0.16443 0.81773 0.37034
H13 H 0.59911 0.69376 0.40211
H14 H 0.76172 0.89015 0.36183
H15 H 0.62335 1.05572 0.31897
H16 H 0.32333 1.02030 0.32634
O1 O 0.3431(5) 0.5331(5) 0.1424(3)
H17 H 0.29718 0.45326 0.07708
H18 H 0.42017 0.51245 0.18816
I1 I 0.06839(3) 0.21833(3) 0.44889(2)
I2 I 0.53928(4) 0.33527(3) 0.28113(2)
I3 I -0.15471(5) 0.72596(3) 0.13199(3)
loop_
_geom_bond_atom_site_label_1
_geom_bond_atom_site_label_2
_geom_bond_site_symmetry_1
_geom_bond_site_symmetry_2
N1 C1 1_555 1_555
C1 C2 1_555 1_555
N2 C2 1_555 1_555
C2 C3 1_555 1_555
C3 C4 1_555 1_555
C4 C5 1_555 1_555
C5 C6 1_555 1_555
C6 N2 1_555 1_555
C7 N1 1_555 1_555
N3 C8 1_555 1_555
C8 C7 1_555 1_555
C9 C8 1_555 1_555
C10 C9 1_555 1_555
C11 C10 1_555 1_555
C12 N3 1_555 1_555
O1 H17 1_555 1_555
H1 N1 1_555 1_555
H2 N1 1_555 1_555
H3 C1 1_555 1_555
H4 C1 1_555 1_555
H5 N2 1_555 1_555
H6 C3 1_555 1_555
H7 C4 1_555 1_555
H8 C5 1_555 1_555
H9 C6 1_555 1_555
H10 C7 1_555 1_555
H11 C7 1_555 1_555
H12 N3 1_555 1_555
H13 C9 1_555 1_555
H14 C10 1_555 1_555
H15 C11 1_555 1_555
H16 C12 1_555 1_555
H18 O1 1_555 1_555
C11 C12 1_555 1_555

#END
