
#######################################################################
#
#                 Cambridge Crystallographic Data Centre
#                                CCDC 
#
#######################################################################
#
# If this CIF has been generated from an entry in the Cambridge 
# Structural Database, then it will include bibliographic, chemical, 
# crystal, experimental, refinement or atomic coordinate data resulting 
# from the CCDC's data processing and validation procedures.
#
#######################################################################

data_PEJYAF
_chemical_formula_moiety         'C10 H11 N3 O1'
_chemical_name_systematic        
2-isopropyl[1,2,4]triazolo[1,5-a]pyridine-6-carbaldehyde
_symmetry_cell_setting           monoclinic
_symmetry_space_group_name_H-M   'P 21/c'
_symmetry_Int_Tables_number      14
_space_group_name_Hall           '-P 2ybc'
loop_
_symmetry_equiv_pos_site_id
_symmetry_equiv_pos_as_xyz
1 x,y,z
2 -x,1/2+y,1/2-z
3 -x,-y,-z
4 x,1/2-y,1/2+z
_cell_length_a                   9.6050(10)
_cell_length_b                   11.8720(10)
_cell_length_c                   8.5560(10)
_cell_angle_alpha                90
_cell_angle_beta                 96.060(10)
_cell_angle_gamma                90
_cell_volume                     970.193
_exptl_crystal_colour            colorless
_exptl_crystal_description       Prisms
_chemical_melting_point          '99.7-99.9 deg.C'
_cell_formula_units_Z            4
_exptl_crystal_recrystallization_method 'ethyl acetate/hexanes'
loop_
_atom_site_label
_atom_site_type_symbol
_atom_site_fract_x
_atom_site_fract_y
_atom_site_fract_z
N1 N -0.0934(3) 0.2711(2) 0.2916(3)
C1 C -0.1540(3) 0.1731(2) 0.3295(4)
N2 N -0.0933(3) 0.0796(2) 0.2838(3)
N3 N 0.0148(2) 0.1215(2) 0.2102(3)
C2 C 0.0136(3) 0.2377(2) 0.2153(3)
C3 C 0.1173(3) 0.2958(3) 0.1451(4)
H1 H 0.1203 0.3766 0.1474
C4 C 0.2135(3) 0.2367(3) 0.0740(4)
H2 H 0.2845 0.2762 0.0249
C5 C 0.2106(3) 0.1167(3) 0.0709(4)
C6 C 0.1110(3) 0.0607(2) 0.1410(4)
H3 H 0.1086 -0.0201 0.1418
C7 C 0.3127(4) 0.0520(3) -0.0081(4)
H4 H 0.3124 -0.0285 0.0030
O1 O 0.3969(3) 0.0928(2) -0.0857(3)
C8 C -0.2826(4) 0.1696(3) 0.4128(4)
H5 H -0.2736 0.2267 0.4927
C9 C -0.3015(4) 0.0573(3) 0.4929(5)
H6 H -0.3236 0.0002 0.4147
H7 H -0.3764 0.0630 0.5584
H8 H -0.2165 0.0376 0.5561
C10 C -0.4106(4) 0.1976(4) 0.3004(5)
H9 H -0.4313 0.1357 0.2295
H10 H -0.3926 0.2639 0.2415
H11 H -0.4890 0.2109 0.3588
loop_
_geom_bond_atom_site_label_1
_geom_bond_atom_site_label_2
_geom_bond_site_symmetry_1
_geom_bond_site_symmetry_2
N1 C1 1_555 1_555
C1 N2 1_555 1_555
N2 N3 1_555 1_555
N3 C2 1_555 1_555
C2 N1 1_555 1_555
C3 C2 1_555 1_555
H1 C3 1_555 1_555
C4 C3 1_555 1_555
H2 C4 1_555 1_555
C5 C4 1_555 1_555
C6 N3 1_555 1_555
H3 C6 1_555 1_555
C7 C5 1_555 1_555
H4 C7 1_555 1_555
O1 C7 1_555 1_555
C8 C1 1_555 1_555
H5 C8 1_555 1_555
C9 C8 1_555 1_555
H6 C9 1_555 1_555
H7 C9 1_555 1_555
H8 C9 1_555 1_555
C10 C8 1_555 1_555
H9 C10 1_555 1_555
H10 C10 1_555 1_555
H11 C10 1_555 1_555
C5 C6 1_555 1_555

#END
