
#######################################################################
#
#                 Cambridge Crystallographic Data Centre
#                                CCDC 
#
#######################################################################
#
# If this CIF has been generated from an entry in the Cambridge 
# Structural Database, then it will include bibliographic, chemical, 
# crystal, experimental, refinement or atomic coordinate data resulting 
# from the CCDC's data processing and validation procedures.
#
#######################################################################

data_PEJZIO
_chemical_formula_moiety         'C12 H15 N3 2+,2(Br1 1-)'
_chemical_name_systematic        
'(pyridinium-2-ylmethyl)(2-pyridylmethyl)ammonium dibromide'
_symmetry_cell_setting           monoclinic
_symmetry_space_group_name_H-M   'C 2/c'
_symmetry_Int_Tables_number      15
_space_group_name_Hall           '-C 2yn'
loop_
_symmetry_equiv_pos_site_id
_symmetry_equiv_pos_as_xyz
1 x,y,z
2 1/2+x,1/2+y,z
3 -x,y,1/2-z
4 1/2-x,1/2+y,1/2-z
5 -x,-y,-z
6 1/2-x,1/2-y,-z
7 x,-y,1/2+z
8 1/2+x,1/2-y,1/2+z
_cell_length_a                   12.6821(8)
_cell_length_b                   9.5185(6)
_cell_length_c                   11.4487(7)
_cell_angle_alpha                90
_cell_angle_beta                 98.297(2)
_cell_angle_gamma                90
_cell_volume                     1367.56
_exptl_crystal_colour            colorless
_exptl_crystal_description       plate
_cell_formula_units_Z            4
loop_
_atom_site_label
_atom_site_type_symbol
_atom_site_fract_x
_atom_site_fract_y
_atom_site_fract_z
Br1 Br 0.829009(13) -0.121867(18) 0.318211(15)
N1 N 1.00000 0.0984(2) 0.25000
C1 C 1.04743(14) 0.18021(17) 0.35742(15)
N2 N 0.95248(12) 0.40296(14) 0.34498(13)
C2 C 0.96933(13) 0.27897(16) 0.40192(14)
C3 C 0.92020(15) 0.2501(2) 0.50009(16)
C4 C 0.85315(16) 0.3509(2) 0.53855(17)
C5 C 0.83668(15) 0.4766(2) 0.47825(17)
C6 C 0.88739(14) 0.49923(18) 0.38033(16)
H1 H 0.944(2) 0.042(3) 0.264(2)
H3 H 1.108(2) 0.232(3) 0.338(2)
H4 H 1.069(2) 0.113(2) 0.415(2)
H5 H 0.942(3) 0.148(3) 0.541(3)
H6 H 0.814(3) 0.332(3) 0.609(3)
H7 H 0.796(2) 0.544(3) 0.503(2)
H8 H 0.877(2) 0.572(3) 0.332(2)
C1B C 0.95257(14) 0.18021(17) 0.14258(15)
N2B N 1.04752(12) 0.40296(14) 0.15502(13)
C2B C 1.03067(13) 0.27897(16) 0.09808(14)
C3B C 1.07980(15) 0.2501(2) -0.00009(16)
C4B C 1.14685(16) 0.3509(2) -0.03855(17)
C5B C 1.16332(15) 0.4766(2) 0.02175(17)
C6B C 1.11261(14) 0.49923(18) 0.11967(16)
H1B H 1.056(2) 0.042(3) 0.236(2)
H3B H 0.892(2) 0.232(3) 0.162(2)
H4B H 0.931(2) 0.113(2) 0.085(2)
H5B H 1.058(3) 0.148(3) -0.041(3)
H6B H 1.186(3) 0.332(3) -0.109(3)
H7B H 1.204(2) 0.544(3) -0.003(2)
H8B H 1.123(2) 0.572(3) 0.168(2)
H2? H 0.980(4) 0.435(6) 0.279(5)
loop_
_geom_bond_atom_site_label_1
_geom_bond_atom_site_label_2
_geom_bond_site_symmetry_1
_geom_bond_site_symmetry_2
N1 C1 1_555 1_555
C1 C2 1_555 1_555
N2 C2 1_555 1_555
C2 C3 1_555 1_555
C3 C4 1_555 1_555
C4 C5 1_555 1_555
C5 C6 1_555 1_555
C6 N2 1_555 1_555
H1 N1 1_555 1_555
H3 C1 1_555 1_555
H4 C1 1_555 1_555
H5 C3 1_555 1_555
H6 C4 1_555 1_555
H7 C5 1_555 1_555
H8 C6 1_555 1_555
C1B N1 1_555 1_555
N2B C2B 1_555 1_555
C2B C1B 1_555 1_555
C3B C2B 1_555 1_555
C4B C3B 1_555 1_555
C5B C4B 1_555 1_555
C6B N2B 1_555 1_555
H1B N1 1_555 1_555
H3B C1B 1_555 1_555
H4B C1B 1_555 1_555
H5B C3B 1_555 1_555
H6B C4B 1_555 1_555
H7B C5B 1_555 1_555
H8B C6B 1_555 1_555
C5B C6B 1_555 1_555

#END
