
#######################################################################
#
#                 Cambridge Crystallographic Data Centre
#                                CCDC 
#
#######################################################################
#
# If this CIF has been generated from an entry in the Cambridge 
# Structural Database, then it will include bibliographic, chemical, 
# crystal, experimental, refinement or atomic coordinate data resulting 
# from the CCDC's data processing and validation procedures.
#
#######################################################################

data_PEJZAG
_chemical_formula_moiety         'C12 H16 N3 3+,3(N1 O3 1-)'
_chemical_name_systematic        'bis(pyridinium-2-ylmethyl)ammonium trinitrate'
_symmetry_cell_setting           monoclinic
_symmetry_space_group_name_H-M   'P 21/c'
_symmetry_Int_Tables_number      14
_space_group_name_Hall           '-P 2ybc'
loop_
_symmetry_equiv_pos_site_id
_symmetry_equiv_pos_as_xyz
1 x,y,z
2 -x,1/2+y,1/2-z
3 -x,-y,-z
4 x,1/2-y,1/2+z
_cell_length_a                   5.6941(9)
_cell_length_b                   14.507(2)
_cell_length_c                   20.189(3)
_cell_angle_alpha                90
_cell_angle_beta                 97.620(3)
_cell_angle_gamma                90
_cell_volume                     1652.97
_exptl_crystal_colour            colorless
_exptl_crystal_description       needle
_cell_formula_units_Z            4
loop_
_atom_site_label
_atom_site_type_symbol
_atom_site_fract_x
_atom_site_fract_y
_atom_site_fract_z
N1 N -0.1500(4) 0.75947(14) 0.09534(10)
N2 N 0.1342(4) 0.55426(16) 0.11608(11)
C1 C -0.1887(5) 0.65889(18) 0.08060(14)
C2 C -0.0546(4) 0.59908(17) 0.13313(12)
C3 C -0.1173(5) 0.5843(2) 0.19549(13)
C4 C 0.0128(6) 0.5236(2) 0.23884(15)
C5 C 0.2064(6) 0.4800(2) 0.21942(15)
C6 C 0.2639(6) 0.4960(2) 0.15755(15)
N3 N 0.0558(4) 0.86427(15) -0.02267(11)
C7 C -0.2653(5) 0.8182(2) 0.03870(13)
C8 C -0.1425(4) 0.81281(17) -0.02223(12)
C9 C -0.2231(5) 0.76278(19) -0.07822(13)
C10 C -0.0988(6) 0.7637(2) -0.13262(14)
C11 C 0.1042(6) 0.8153(2) -0.13054(15)
C12 C 0.1780(5) 0.8663(2) -0.07476(15)
H1 H 0.025(5) 0.769(2) 0.1052(13)
H2 H -0.210(5) 0.7779(19) 0.1358(14)
H3 H -0.136(5) 0.6449(18) 0.0388(14)
H4 H -0.358(5) 0.6496(17) 0.0802(12)
H5 H 0.169(5) 0.559(2) 0.0738(15)
H6 H -0.252(5) 0.618(2) 0.2106(14)
H7 H -0.036(5) 0.510(2) 0.2821(16)
H8 H 0.289(5) 0.439(2) 0.2477(14)
H9 H 0.394(5) 0.4692(19) 0.1418(13)
H10 H -0.269(4) 0.8809(17) 0.0568(11)
H11 H -0.421(4) 0.7966(17) 0.0288(11)
H12 H 0.111(5) 0.9008(18) 0.0142(13)
H13 H -0.361(5) 0.7277(19) -0.0790(13)
H14 H -0.157(5) 0.7293(18) -0.1690(13)
H15 H 0.194(5) 0.819(2) -0.1686(15)
H16 H 0.324(5) 0.906(2) -0.0664(13)
N4 N 0.2826(4) 0.59972(16) -0.03790(11)
O1 O 0.2812(3) 0.67020(13) -0.00276(9)
O2 O 0.2382(5) 0.52464(16) -0.01195(11)
O3 O 0.3229(4) 0.60407(14) -0.09633(9)
N5 N 0.3983(4) 0.77513(14) 0.18771(11)
O4 O 0.3412(3) 0.76111(13) 0.12609(8)
O5 O 0.6158(3) 0.78696(12) 0.20877(9)
O6 O 0.2476(4) 0.77674(15) 0.22571(9)
N6 N 0.2889(4) 0.98867(15) 0.10934(11)
O7 O 0.3656(3) 0.98878(13) 0.05372(9)
O8 O 0.0966(3) 0.94860(13) 0.11395(10)
O9 O 0.3983(3) 1.02923(15) 0.15758(9)
loop_
_geom_bond_atom_site_label_1
_geom_bond_atom_site_label_2
_geom_bond_site_symmetry_1
_geom_bond_site_symmetry_2
N1 C1 1_555 1_555
N2 C2 1_555 1_555
C1 C2 1_555 1_555
C2 C3 1_555 1_555
C3 C4 1_555 1_555
C4 C5 1_555 1_555
C5 C6 1_555 1_555
C6 N2 1_555 1_555
N3 C8 1_555 1_555
C7 N1 1_555 1_555
C8 C7 1_555 1_555
C9 C8 1_555 1_555
C10 C9 1_555 1_555
C11 C10 1_555 1_555
C12 N3 1_555 1_555
H1 N1 1_555 1_555
H2 N1 1_555 1_555
H3 C1 1_555 1_555
H4 C1 1_555 1_555
H5 N2 1_555 1_555
H6 C3 1_555 1_555
H7 C4 1_555 1_555
H8 C5 1_555 1_555
H9 C6 1_555 1_555
H10 C7 1_555 1_555
H11 C7 1_555 1_555
H12 N3 1_555 1_555
H13 C9 1_555 1_555
H14 C10 1_555 1_555
H15 C11 1_555 1_555
H16 C12 1_555 1_555
N4 O1 1_555 1_555
O2 N4 1_555 1_555
O3 N4 1_555 1_555
N5 O4 1_555 1_555
O5 N5 1_555 1_555
O6 N5 1_555 1_555
N6 O7 1_555 1_555
O8 N6 1_555 1_555
O9 N6 1_555 1_555
C11 C12 1_555 1_555

#END
