
#######################################################################
#
#                 Cambridge Crystallographic Data Centre
#                                CCDC 
#
#######################################################################
#
# If this CIF has been generated from an entry in the Cambridge 
# Structural Database, then it will include bibliographic, chemical, 
# crystal, experimental, refinement or atomic coordinate data resulting 
# from the CCDC's data processing and validation procedures.
#
#######################################################################

data_PEJZOW
_chemical_formula_moiety         'C12 H19 B1 O3'
_chemical_name_systematic        '[4-(hexyloxy)phenyl]boronic acid'
_symmetry_cell_setting           triclinic
_symmetry_space_group_name_H-M   'P -1'
_symmetry_Int_Tables_number      2
_space_group_name_Hall           '-P 1'
loop_
_symmetry_equiv_pos_site_id
_symmetry_equiv_pos_as_xyz
1 x,y,z
2 -x,-y,-z
_cell_length_a                   5.0668(13)
_cell_length_b                   10.184(3)
_cell_length_c                   13.252(3)
_cell_angle_alpha                72.888(4)
_cell_angle_beta                 84.617(4)
_cell_angle_gamma                75.928(4)
_cell_volume                     633.741
_exptl_crystal_colour            colorless
_exptl_crystal_description       block
_cell_formula_units_Z            2
loop_
_atom_site_label
_atom_site_type_symbol
_atom_site_fract_x
_atom_site_fract_y
_atom_site_fract_z
B1 B 0.9496(4) -0.3106(2) 0.87752(15)
C1 C 0.9345(3) -0.16986(17) 0.78953(12)
C2 C 0.7601(3) -0.12856(19) 0.70534(13)
H1 H 0.6489 -0.1875 0.7019
C3 C 0.7454(4) -0.0036(2) 0.62673(14)
H2 H 0.6279 0.0198 0.5711
C4 C 0.9049(3) 0.08652(18) 0.63069(13)
C5 C 1.0790(4) 0.04888(19) 0.71370(14)
H3 H 1.1867 0.1092 0.7177
C6 C 1.0942(4) -0.07673(19) 0.79020(14)
H4 H 1.2157 -0.1007 0.8446
C7 C 0.7169(4) 0.26546(19) 0.47549(13)
H5 H 0.5323 0.2765 0.5044
H6 H 0.7429 0.2004 0.4328
C8 C 0.7663(4) 0.40558(19) 0.40985(14)
H7 H 0.9494 0.3914 0.3797
H8 H 0.7549 0.4660 0.4554
C9 C 0.5677(4) 0.47932(19) 0.32182(14)
H9 H 0.3852 0.4967 0.3521
H10 H 0.5743 0.4175 0.2777
C10 C 0.6245(4) 0.6179(2) 0.25351(14)
H11 H 0.6168 0.6794 0.2979
H12 H 0.8084 0.6001 0.2244
C11 C 0.4340(5) 0.6935(2) 0.16474(16)
H13 H 0.2500 0.7115 0.1937
H14 H 0.4419 0.6324 0.1200
C12 C 0.4932(6) 0.8313(2) 0.09772(18)
H15 H 0.4763 0.8945 0.1404
H16 H 0.3660 0.8723 0.0414
H17 H 0.6749 0.8147 0.0686
O1 O 1.1758(2) -0.37780(13) 0.93778(9)
H18 H 1.3059 -0.3450 0.9097
O2 O 0.7339(2) -0.37242(13) 0.89942(10)
H19 H 0.7702 -0.4443 0.9487
O3 O 0.9079(3) 0.21328(13) 0.55861(10)
loop_
_geom_bond_atom_site_label_1
_geom_bond_atom_site_label_2
_geom_bond_site_symmetry_1
_geom_bond_site_symmetry_2
B1 C1 1_555 1_555
C1 C2 1_555 1_555
C2 H1 1_555 1_555
C3 C2 1_555 1_555
H2 C3 1_555 1_555
C4 C3 1_555 1_555
C5 C4 1_555 1_555
H3 C5 1_555 1_555
C6 C1 1_555 1_555
H4 C6 1_555 1_555
C7 H5 1_555 1_555
H6 C7 1_555 1_555
C8 C7 1_555 1_555
H7 C8 1_555 1_555
H8 C8 1_555 1_555
C9 C8 1_555 1_555
H9 C9 1_555 1_555
H10 C9 1_555 1_555
C10 C9 1_555 1_555
H11 C10 1_555 1_555
H12 C10 1_555 1_555
C11 C10 1_555 1_555
H13 C11 1_555 1_555
H14 C11 1_555 1_555
C12 C11 1_555 1_555
H15 C12 1_555 1_555
H16 C12 1_555 1_555
H17 C12 1_555 1_555
O1 B1 1_555 1_555
H18 O1 1_555 1_555
O2 B1 1_555 1_555
H19 O2 1_555 1_555
O3 C4 1_555 1_555
C5 C6 1_555 1_555
C7 O3 1_555 1_555

#END
