
#######################################################################
#
#                 Cambridge Crystallographic Data Centre
#                                CCDC 
#
#######################################################################
#
# If this CIF has been generated from an entry in the Cambridge 
# Structural Database, then it will include bibliographic, chemical, 
# crystal, experimental, refinement or atomic coordinate data resulting 
# from the CCDC's data processing and validation procedures.
#
#######################################################################

data_PEKBAI
_chemical_formula_moiety         'C18 H15 N1 O6'
_chemical_name_systematic        
8-Acetyl-5,7-dihydroxy-3,4a,6-trimethylbenzofuro(3,2-f)-1,2-benzisoxazol-4(4aH)-one
_symmetry_cell_setting           orthorhombic
_symmetry_space_group_name_H-M   'P 21 21 21'
_symmetry_Int_Tables_number      19
_space_group_name_Hall           'P 2ac 2ab'
loop_
_symmetry_equiv_pos_site_id
_symmetry_equiv_pos_as_xyz
1 x,y,z
2 1/2+x,1/2-y,-z
3 -x,1/2+y,1/2-z
4 1/2-x,-y,1/2+z
_cell_length_a                   18.989(2)
_cell_length_b                   20.112(2)
_cell_length_c                   8.219(1)
_cell_angle_alpha                90
_cell_angle_beta                 90
_cell_angle_gamma                90
_cell_volume                     3138.89
_chemical_melting_point          '229-230 deg.C'
_cell_formula_units_Z            8
loop_
_atom_site_label
_atom_site_type_symbol
_atom_site_fract_x
_atom_site_fract_y
_atom_site_fract_z
C1 C 0.0841(2) 0.4685(1) -0.4411(4)
C2 C 0.0365(2) 0.4952(1) -0.5600(4)
C3 C -0.0290(2) 0.4694(2) -0.5827(4)
C4 C -0.0584(2) 0.4117(2) -0.5026(4)
C5 C -0.0164(2) 0.3879(2) -0.3872(4)
O1 O -0.0249(1) 0.3264(1) -0.3153(3)
C6 C 0.0400(2) 0.3098(2) -0.2453(4)
C7 C 0.0541(2) 0.2488(2) -0.1674(4)
C8 C 0.1223(2) 0.2448(1) -0.0974(4)
C9 C 0.1730(2) 0.2944(2) -0.1100(4)
C10 C 0.1543(2) 0.3537(2) -0.1916(4)
C11 C 0.0871(2) 0.3606(1) -0.2573(3)
C12 C 0.0483(1) 0.4207(1) -0.3217(3)
O2 O 0.1456(1) 0.4845(1) -0.4236(3)
C13 C 0.0441(2) 0.5441(2) -0.6852(4)
C14 C 0.1059(2) 0.5867(2) -0.7219(6)
N1 N -0.0123(2) 0.548(32) -0.7733(4)
O3 O -0.0610(1) 0.4998(1) -0.7063(3)
C15 C 0.0049(2) 0.1938(2) -0.1550(5)
O4 O 0.0224(2) 0.1420(1) -0.0827(4)
C16 C -0.0667(3) 0.1966(3) -0.2271(8)
O5 O 0.1411(1) 0.1895(1) -0.0133(3)
C17 C 0.2445(2) 0.2873(2) -0.0360(5)
O6 O 0.2033(1) 0.4018(1) -0.2030(3)
C18 C 0.0262(2) 0.4678(2) -0.1783(4)
H1 H -0.1051 0.3919 -0.5309
H2 H 0.1464 0.5765 -0.6385
H3 H 0.1237 0.5768 -0.8404
H4 H 0.0914 0.6369 -0.7128
H5 H -0.0932 0.1518 -0.2038
H6 H -0.0949 0.2362 -0.1752
H7 H -0.0627 0.2038 -0.3533
H8 H 0.1064 0.1556 -0.0047
H9 H 0.2489 0.2404 0.0190
H10 H 0.2830 0.2921 -0.1270
H11 H 0.2519 0.3245 0.0521
H12 H 0.1907 0.4417 -0.2578
H13 H 0.0711 0.4913 -0.1308
H14 H -0.0091 0.5039 -0.2216
H15 H 0.0018 0.4397 -0.0865
C19 C 0.2570(2) 0.1656(1) 0.6399(4)
C20 C 0.2332(2) 0.1087(1) 0.7270(4)
C21 C 0.1688(2) 0.0809(1) 0.6959(4)
C22 C 0.1172(2) 0.1029(2) 0.5833(5)
C23 C 0.1384(2) 0.1559(1) 0.4972(4)
O7 O 0.0950(1) 0.1950(1) 0.4055(3)
C24 C 0.1303(2) 0.2549(1) 0.3816(4)
C25 C 0.1021(2) 0.3094(1) 0.2963(3)
C26 C 0.1495(2) 0.3631(1) 0.2794(4)
C27 C 0.2172(2) 0.3649(1) 0.3477(4)
C28 C 0.2409(2) 0.3085(1) 0.4294(4)
C29 C 0.1971(2) 0.2533(1) 0.4437(3)
C30 C 0.2121(2) 0.1817(1) 0.4908(3)
O8 O 0.3117(1) 0.1967(1) 0.6663(3)
C31 C 0.2600(2) 0.0738(2) 0.8670(4)
C32 C 0.3266(2) 0.0842(2) 0.9574(5)
N2 N 0.2151(2) 0.0276(2) 0.9116(4)
O9 O 0.1560(2) 0.0318(1) 0.8021(4)
C33 C 0.0319(2) 0.3115(2) 0.2260(4)
O10 O 0.0133(1) 0.3610(1) 0.1457(3)
C34 C -0.0196(2) 0.2566(2) 0.2513(5)
O11 O 0.1304(1) 0.4175(1) 0.1928(3)
C35 C 0.2635(2) 0.4246(2) 0.3268(6)
O12 O 0.3067(1) 0.3089(1) 0.4900(3)
C36 C 0.2505(2) 0.1462(2) 0.3464(4)
H16 H 0.0702 0.0813 0.5696
H17 H 0.3551 0.1231 0.9034
H18 H 0.3152 0.0965 1.0787
H19 H 0.3567 0.0404 0.9542
H20 H -0.0668 0.2679 0.1906
H21 H 0.0012 0.2121 0.2049
H22 H -0.0296 0.2511 0.3762
H23 H 0.0846 0.4163 0.1466
H24 H 0.2361 0.4615 0.2624
H25 H 0.2780 0.4430 0.4416
H26 H 0.3089 0.4111 0.2618
H27 H 0.3229 0.2704 0.5457
H28 H 0.3026 0.1634 0.3389
H29 H 0.2506 0.0946 0.3663
H30 H 0.2241 0.1568 0.2372
loop_
_geom_bond_atom_site_label_1
_geom_bond_atom_site_label_2
_geom_bond_site_symmetry_1
_geom_bond_site_symmetry_2
C1 C2 1_555 1_555
C2 C3 1_555 1_555
C3 C4 1_555 1_555
C4 C5 1_555 1_555
C5 O1 1_555 1_555
O1 C6 1_555 1_555
C6 C7 1_555 1_555
C7 C8 1_555 1_555
C8 C9 1_555 1_555
C9 C10 1_555 1_555
C10 C11 1_555 1_555
C11 C6 1_555 1_555
C12 C1 1_555 1_555
O2 C1 1_555 1_555
C13 C2 1_555 1_555
C14 C13 1_555 1_555
N1 C13 1_555 1_555
O3 C3 1_555 1_555
C15 C7 1_555 1_555
O4 C15 1_555 1_555
C16 C15 1_555 1_555
O5 C8 1_555 1_555
C17 C9 1_555 1_555
O6 C10 1_555 1_555
C18 C12 1_555 1_555
C19 C20 1_555 1_555
C20 C21 1_555 1_555
C21 C22 1_555 1_555
C22 C23 1_555 1_555
C23 O7 1_555 1_555
O7 C24 1_555 1_555
C24 C25 1_555 1_555
C25 C26 1_555 1_555
C26 C27 1_555 1_555
C27 C28 1_555 1_555
C28 C29 1_555 1_555
C29 C24 1_555 1_555
C30 C19 1_555 1_555
O8 C19 1_555 1_555
C31 C20 1_555 1_555
C32 C31 1_555 1_555
N2 C31 1_555 1_555
O9 C21 1_555 1_555
C33 C25 1_555 1_555
O10 C33 1_555 1_555
C34 C33 1_555 1_555
O11 C26 1_555 1_555
C35 C27 1_555 1_555
O12 C28 1_555 1_555
C36 C30 1_555 1_555
H1 C4 1_555 1_555
H2 C14 1_555 1_555
H3 C14 1_555 1_555
H4 C14 1_555 1_555
H5 C16 1_555 1_555
H6 C16 1_555 1_555
H7 C16 1_555 1_555
H8 O5 1_555 1_555
H9 C17 1_555 1_555
H10 C17 1_555 1_555
H11 C17 1_555 1_555
H12 O6 1_555 1_555
H13 C18 1_555 1_555
H14 C18 1_555 1_555
H15 C18 1_555 1_555
H16 C22 1_555 1_555
H17 C32 1_555 1_555
H18 C32 1_555 1_555
H19 C32 1_555 1_555
H20 C34 1_555 1_555
H21 C34 1_555 1_555
H22 C34 1_555 1_555
H23 O11 1_555 1_555
H24 C35 1_555 1_555
H25 C35 1_555 1_555
H26 C35 1_555 1_555
H27 O12 1_555 1_555
H28 C36 1_555 1_555
H29 C36 1_555 1_555
H30 C36 1_555 1_555
C5 C12 1_555 1_555
C11 C12 1_555 1_555
N1 O3 1_555 1_555
C23 C30 1_555 1_555
C29 C30 1_555 1_555
N2 O9 1_555 1_555

#END
