
#######################################################################
#
#                 Cambridge Crystallographic Data Centre
#                                CCDC 
#
#######################################################################
#
# If this CIF has been generated from an entry in the Cambridge 
# Structural Database, then it will include bibliographic, chemical, 
# crystal, experimental, refinement or atomic coordinate data resulting 
# from the CCDC's data processing and validation procedures.
#
#######################################################################

data_PEKBUD
_chemical_name_common            'bis(2-picolyl)ammonium iodide'
_chemical_formula_moiety         'C12 H14 N3 1+,I1 1-'
_chemical_name_systematic        'bis(2-pyridylmethyl)ammonium iodide'
_symmetry_cell_setting           monoclinic
_symmetry_space_group_name_H-M   'P 21/c'
_symmetry_Int_Tables_number      14
_space_group_name_Hall           '-P 2ybc'
loop_
_symmetry_equiv_pos_site_id
_symmetry_equiv_pos_as_xyz
1 x,y,z
2 -x,1/2+y,1/2-z
3 -x,-y,-z
4 x,1/2-y,1/2+z
_cell_length_a                   9.1564(9)
_cell_length_b                   10.8020(10)
_cell_length_c                   13.7230(10)
_cell_angle_alpha                90
_cell_angle_beta                 108.919(2)
_cell_angle_gamma                90
_cell_volume                     1283.98
_exptl_crystal_colour            colorless
_exptl_crystal_description       rhomb
_cell_formula_units_Z            4
loop_
_atom_site_label
_atom_site_type_symbol
_atom_site_fract_x
_atom_site_fract_y
_atom_site_fract_z
N1 N 0.17238(16) 0.24556(14) 0.89451(13)
C1 C 0.0132(2) 0.20268(17) 0.84007(15)
N2 N -0.04586(18) 0.41201(15) 0.87842(12)
C2 C -0.10237(18) 0.30323(17) 0.83603(12)
C3 C -0.2592(2) 0.2813(2) 0.78931(14)
C4 C -0.3625(2) 0.3760(2) 0.78598(17)
C5 C -0.3061(2) 0.4885(2) 0.82999(17)
C6 C -0.1478(2) 0.5033(2) 0.87554(16)
C7 C 0.2925(2) 0.15722(17) 0.89247(16)
N3 N 0.46189(16) 0.31791(13) 0.98991(12)
C8 C 0.45161(18) 0.20431(15) 0.94940(12)
C9 C 0.5799(2) 0.13081(16) 0.95602(14)
C10 C 0.7253(2) 0.1771(2) 1.00778(15)
C11 C 0.7373(2) 0.2949(2) 1.05014(14)
C12 C 0.6042(2) 0.36157(18) 1.03911(15)
H1 H 0.189(4) 0.328(3) 0.871(2)
H2 H 0.189(4) 0.289(4) 0.957(3)
H3 H -0.004(4) 0.130(2) 0.880(3)
H4 H 0.012(3) 0.174(3) 0.777(2)
H5 H -0.287(3) 0.206(2) 0.7661(18)
H6 H -0.469(4) 0.364(2) 0.760(3)
H7 H -0.371(4) 0.561(3) 0.830(2)
H8 H -0.102(3) 0.584(2) 0.9020(18)
H9 H 0.279(5) 0.139(3) 0.818(3)
H10 H 0.281(4) 0.092(4) 0.922(3)
H11 H 0.566(3) 0.048(3) 0.918(2)
H12 H 0.815(3) 0.1272(18) 1.012(2)
H13 H 0.831(3) 0.323(3) 1.080(2)
H14 H 0.619(3) 0.441(3) 1.070(2)
I1 I 0.179190(11) 0.373093(10) 0.646466(8)
loop_
_geom_bond_atom_site_label_1
_geom_bond_atom_site_label_2
_geom_bond_site_symmetry_1
_geom_bond_site_symmetry_2
N1 C1 1_555 1_555
C1 C2 1_555 1_555
N2 C2 1_555 1_555
C2 C3 1_555 1_555
C3 C4 1_555 1_555
C4 C5 1_555 1_555
C5 C6 1_555 1_555
C6 N2 1_555 1_555
C7 N1 1_555 1_555
N3 C8 1_555 1_555
C8 C7 1_555 1_555
C9 C8 1_555 1_555
C10 C9 1_555 1_555
C11 C10 1_555 1_555
C12 N3 1_555 1_555
H1 N1 1_555 1_555
H2 N1 1_555 1_555
H3 C1 1_555 1_555
H4 C1 1_555 1_555
H5 C3 1_555 1_555
H6 C4 1_555 1_555
H7 C5 1_555 1_555
H8 C6 1_555 1_555
H9 C7 1_555 1_555
H10 C7 1_555 1_555
H11 C9 1_555 1_555
H12 C10 1_555 1_555
H13 C11 1_555 1_555
H14 C12 1_555 1_555
C11 C12 1_555 1_555

#END
