
#######################################################################
#
#                 Cambridge Crystallographic Data Centre
#                                CCDC 
#
#######################################################################
#
# If this CIF has been generated from an entry in the Cambridge 
# Structural Database, then it will include bibliographic, chemical, 
# crystal, experimental, refinement or atomic coordinate data resulting 
# from the CCDC's data processing and validation procedures.
#
#######################################################################

data_PEKBAL
_chemical_formula_moiety         'C6 H6 B1 I1 O2'
_chemical_name_systematic        '(4-iodophenyl)boronic acid unknown solvate'
_symmetry_cell_setting           orthorhombic
_symmetry_space_group_name_H-M   'P b c n'
_symmetry_Int_Tables_number      60
_space_group_name_Hall           '-P 2n 2ab'
loop_
_symmetry_equiv_pos_site_id
_symmetry_equiv_pos_as_xyz
1 x,y,z
2 1/2-x,1/2-y,1/2+z
3 1/2+x,1/2-y,-z
4 -x,y,1/2-z
5 -x,-y,-z
6 1/2+x,1/2+y,1/2-z
7 1/2-x,1/2+y,z
8 x,-y,1/2+z
_cell_length_a                   19.5310(10)
_cell_length_b                   18.4544(8)
_cell_length_c                   9.7999(8)
_cell_angle_alpha                90
_cell_angle_beta                 90
_cell_angle_gamma                90
_cell_volume                     3532.21
_exptl_crystal_colour            colorless
_exptl_crystal_description       block
_cell_formula_units_Z            16
loop_
_atom_site_label
_atom_site_type_symbol
_atom_site_fract_x
_atom_site_fract_y
_atom_site_fract_z
I1 I 0.16989(10) 0.23186(10) 0.0244(2)
C1 C 0.3445(13) 0.4205(15) 0.024(3)
B1 B 0.3906(13) 0.4934(15) 0.017(3)
O1 O 0.4142(9) 0.5184(9) -0.1044(16)
H1 H 0.4517 0.5375 -0.0932
O2 O 0.4129(11) 0.5250(11) 0.130(2)
H2 H 0.3957 0.5050 0.1967
C2 C 0.3158(13) 0.3991(15) 0.142(3)
H3 H 0.3281 0.4220 0.2226
C3 C 0.3182(11) 0.3908(12) -0.100(2)
H4 H 0.3328 0.4087 -0.1837
C4 C 0.2724(14) 0.3371(16) -0.095(3)
H5 H 0.2587 0.3162 -0.1765
C5 C 0.2670(14) 0.3423(15) 0.145(3)
H6 H 0.2496 0.3254 0.2274
C6 C 0.2454(11) 0.3117(12) 0.019(2)
I2 I 0.20545(13) 0.54108(14) 0.0308(3)
C7 C 0.0565(13) 0.7545(13) 0.009(2)
O3 O -0.0124(9) 0.8501(9) -0.1188(18)
H7 H 0.0146 0.8810 -0.1454
C8 C 0.1420(16) 0.6353(16) 0.020(3)
O4 O -0.0092(10) 0.8603(11) 0.1175(19)
B2 B 0.0106(14) 0.8213(14) 0.007(3)
C9 C 0.1188(14) 0.6559(15) -0.103(3)
H8 H 0.1304 0.6302 -0.1814
C10 C 0.1222(17) 0.6674(18) 0.140(3)
H9 H 0.1358 0.6487 0.2234
C11 C 0.0820(14) 0.7271(15) 0.132(3)
H10 H 0.0708 0.7510 0.2122
C12 C 0.0763(14) 0.7173(14) -0.111(3)
H11 H 0.0611 0.7336 -0.1953
H12 H -0.028(12) 0.826(13) 0.13(2)
loop_
_geom_bond_atom_site_label_1
_geom_bond_atom_site_label_2
_geom_bond_site_symmetry_1
_geom_bond_site_symmetry_2
I1 C6 1_555 1_555
C1 B1 1_555 1_555
B1 O1 1_555 1_555
O1 H1 1_555 1_555
O2 B1 1_555 1_555
H2 O2 1_555 1_555
C2 C1 1_555 1_555
H3 C2 1_555 1_555
C3 C1 1_555 1_555
H4 C3 1_555 1_555
C4 C3 1_555 1_555
H5 C4 1_555 1_555
C5 C2 1_555 1_555
H6 C5 1_555 1_555
C6 C4 1_555 1_555
I2 C8 1_555 1_555
C7 B2 1_555 1_555
O3 H7 1_555 1_555
C8 C9 1_555 1_555
O4 B2 1_555 1_555
B2 O3 1_555 1_555
C9 H8 1_555 1_555
C10 C8 1_555 1_555
H9 C10 1_555 1_555
C11 C7 1_555 1_555
H10 C11 1_555 1_555
C12 C7 1_555 1_555
H11 C12 1_555 1_555
H12 O4 1_555 1_555
C5 C6 1_555 1_555
C9 C12 1_555 1_555
C10 C11 1_555 1_555

#END
