
#######################################################################
#
#                 Cambridge Crystallographic Data Centre
#                                CCDC 
#
#######################################################################
#
# If this CIF has been generated from an entry in the Cambridge 
# Structural Database, then it will include bibliographic, chemical, 
# crystal, experimental, refinement or atomic coordinate data resulting 
# from the CCDC's data processing and validation procedures.
#
#######################################################################

data_PEKBEN
_chemical_formula_moiety         'C12 H15 N3 2+,Cl1 1-,I3 1-'
_chemical_name_systematic        
'bis(pyridinium-2-ylmethyl)amine chloride tri-iodide'
_symmetry_cell_setting           monoclinic
_symmetry_space_group_name_H-M   'P 21/n'
_symmetry_Int_Tables_number      14
_space_group_name_Hall           '-P 2yn'
loop_
_symmetry_equiv_pos_site_id
_symmetry_equiv_pos_as_xyz
1 x,y,z
2 1/2-x,1/2+y,1/2-z
3 -x,-y,-z
4 1/2+x,1/2-y,1/2+z
_cell_length_a                   6.9146(5)
_cell_length_b                   11.8746(8)
_cell_length_c                   21.9270(10)
_cell_angle_alpha                90
_cell_angle_beta                 94.2260(10)
_cell_angle_gamma                90
_cell_volume                     1795.49
_exptl_crystal_colour            brown
_exptl_crystal_description       plate
_cell_formula_units_Z            4
loop_
_atom_site_label
_atom_site_type_symbol
_atom_site_fract_x
_atom_site_fract_y
_atom_site_fract_z
N1 N -0.1490(4) 0.6648(2) 0.05263(12)
C1 C -0.1350(5) 0.7692(3) 0.01782(15)
N2 N 0.1685(3) 0.6869(2) -0.00996(12)
C2 C 0.0300(4) 0.7628(2) -0.02306(13)
C3 C 0.0476(5) 0.8331(3) -0.07327(15)
C4 C 0.2098(5) 0.8243(3) -0.10632(15)
C5 C 0.3522(5) 0.7449(3) -0.09040(15)
C6 C 0.3275(4) 0.6756(3) -0.04149(14)
C7 C -0.2712(5) 0.6758(3) 0.10329(15)
N3 N -0.0881(4) 0.5131(2) 0.14542(12)
C8 C -0.2490(4) 0.5774(3) 0.14640(13)
C9 C -0.3831(5) 0.5502(3) 0.18788(15)
C10 C -0.3490(5) 0.4598(3) 0.22739(16)
C11 C -0.1815(5) 0.3968(3) 0.22514(17)
C12 C -0.0512(5) 0.4246(3) 0.18321(15)
H1 H -0.188(5) 0.610(3) 0.0262(18)
H2 H -0.100(6) 0.822(4) 0.052(2)
H3 H -0.259(5) 0.787(3) -0.0089(16)
H4 H 0.152(5) 0.644(3) 0.0220(17)
H5 H -0.046(5) 0.885(3) -0.0825(16)
H6 H 0.224(5) 0.874(3) -0.1442(17)
H7 H 0.462(6) 0.742(3) -0.1110(18)
H8 H 0.400(4) 0.616(3) -0.0274(13)
H9 H -0.407(6) 0.682(3) 0.091(2)
H10 H -0.236(5) 0.746(3) 0.1244(16)
H11 H -0.006(5) 0.529(3) 0.1180(17)
H12 H -0.494(6) 0.590(3) 0.1908(18)
H13 H -0.436(6) 0.442(3) 0.2541(18)
H14 H -0.143(6) 0.339(4) 0.251(2)
H15 H 0.061(5) 0.384(3) 0.1792(15)
I1 I 0.15587(3) 0.673466(18) 0.272708(9)
I2 I 0.25043(3) 0.813921(16) 0.167599(9)
I3 I 0.39186(3) 0.947648(17) 0.069202(10)
Cl1 Cl 0.2700(5) 0.4808(3) 0.07202(16)
I4? I 0.300(3) 0.4741(18) 0.0829(9)
loop_
_geom_bond_atom_site_label_1
_geom_bond_atom_site_label_2
_geom_bond_site_symmetry_1
_geom_bond_site_symmetry_2
N1 C1 1_555 1_555
C1 C2 1_555 1_555
N2 C2 1_555 1_555
C2 C3 1_555 1_555
C3 C4 1_555 1_555
C4 C5 1_555 1_555
C5 C6 1_555 1_555
C6 N2 1_555 1_555
C7 N1 1_555 1_555
N3 C8 1_555 1_555
C8 C7 1_555 1_555
C9 C8 1_555 1_555
C10 C9 1_555 1_555
C11 C10 1_555 1_555
C12 N3 1_555 1_555
I1 I2 1_555 1_555
I2 I3 1_555 1_555
H1 N1 1_555 1_555
H2 C1 1_555 1_555
H3 C1 1_555 1_555
H4 N2 1_555 1_555
H5 C3 1_555 1_555
H6 C4 1_555 1_555
H7 C5 1_555 1_555
H8 C6 1_555 1_555
H9 C7 1_555 1_555
H10 C7 1_555 1_555
H11 N3 1_555 1_555
H12 C9 1_555 1_555
H13 C10 1_555 1_555
H14 C11 1_555 1_555
H15 C12 1_555 1_555
C11 C12 1_555 1_555

#END
