
#######################################################################
#
#                 Cambridge Crystallographic Data Centre
#                                CCDC 
#
#######################################################################
#
# If this CIF has been generated from an entry in the Cambridge 
# Structural Database, then it will include bibliographic, chemical, 
# crystal, experimental, refinement or atomic coordinate data resulting 
# from the CCDC's data processing and validation procedures.
#
#######################################################################

data_PEKBIR
_chemical_formula_moiety         'C12 H15 N3 2+,I1 1-,I3 1-'
_chemical_name_systematic        
'bis(pyridinium-2-ylmethyl)amine iodide tri-iodide'
_symmetry_cell_setting           triclinic
_symmetry_space_group_name_H-M   'P -1'
_symmetry_Int_Tables_number      2
_space_group_name_Hall           '-P 1'
loop_
_symmetry_equiv_pos_site_id
_symmetry_equiv_pos_as_xyz
1 x,y,z
2 -x,-y,-z
_cell_length_a                   8.8826(4)
_cell_length_b                   9.0062(4)
_cell_length_c                   11.8512(5)
_cell_angle_alpha                84.6490(10)
_cell_angle_beta                 83.4210(10)
_cell_angle_gamma                89.1820(10)
_cell_volume                     937.724
_exptl_crystal_colour            brown
_exptl_crystal_description       prism
_cell_formula_units_Z            2
loop_
_atom_site_label
_atom_site_type_symbol
_atom_site_fract_x
_atom_site_fract_y
_atom_site_fract_z
N1 N 0.4767(3) 0.4458(3) 0.74002(19)
C1 C 0.4097(3) 0.5015(3) 0.8467(2)
N2 N 0.3986(3) 0.7425(3) 0.7335(2)
C2 C 0.3433(3) 0.6550(3) 0.8262(2)
C3 C 0.2294(3) 0.7125(4) 0.9010(2)
C4 C 0.1791(4) 0.8576(4) 0.8788(3)
C5 C 0.2403(4) 0.9442(3) 0.7818(3)
C6 C 0.3526(4) 0.8840(3) 0.7090(3)
C7 C 0.5630(3) 0.3083(3) 0.7615(2)
N3 N 0.7215(3) 0.3966(3) 0.5871(2)
C8 C 0.6729(3) 0.2795(3) 0.6597(2)
C9 C 0.7310(3) 0.1394(3) 0.6387(3)
C10 C 0.8371(4) 0.1257(4) 0.5465(3)
C11 C 0.8875(4) 0.2502(4) 0.4746(3)
C12 C 0.8255(3) 0.3863(3) 0.4973(2)
H1 H 0.397(6) 0.423(6) 0.683(4)
H2 H 0.486(4) 0.511(4) 0.898(3)
H3 H 0.332(4) 0.441(4) 0.888(3)
H4 H 0.468(5) 0.703(5) 0.689(4)
H5 H 0.195(4) 0.648(4) 0.963(3)
H6 H 0.088(5) 0.877(5) 0.945(4)
H7 H 0.218(6) 1.062(6) 0.763(4)
H8 H 0.399(5) 0.955(5) 0.641(3)
H9 H 0.497(4) 0.217(4) 0.785(3)
H10 H 0.629(4) 0.324(4) 0.830(3)
H11 H 0.672(5) 0.490(5) 0.587(4)
H12 H 0.699(4) 0.049(4) 0.691(3)
H13 H 0.880(4) 0.027(4) 0.530(3)
H14 H 0.964(5) 0.243(5) 0.400(4)
H15 H 0.854(4) 0.498(4) 0.462(3)
I1 I 0.65998(2) 0.76324(2) 0.492214(14)
I2 I 1.02252(2) 0.36996(2) 0.786493(17)
I3 I 0.83492(2) 0.62939(2) 0.850399(14)
I4 I 0.65461(3) 0.87677(2) 0.932773(18)
loop_
_geom_bond_atom_site_label_1
_geom_bond_atom_site_label_2
_geom_bond_site_symmetry_1
_geom_bond_site_symmetry_2
N1 C1 1_555 1_555
C1 C2 1_555 1_555
N2 C2 1_555 1_555
C2 C3 1_555 1_555
C3 C4 1_555 1_555
C4 C5 1_555 1_555
C5 C6 1_555 1_555
C6 N2 1_555 1_555
C7 N1 1_555 1_555
N3 C8 1_555 1_555
C8 C7 1_555 1_555
C9 C8 1_555 1_555
C10 C9 1_555 1_555
C11 C10 1_555 1_555
C12 N3 1_555 1_555
I2 I3 1_555 1_555
I3 I4 1_555 1_555
H1 N1 1_555 1_555
H2 C1 1_555 1_555
H3 C1 1_555 1_555
H4 N2 1_555 1_555
H5 C3 1_555 1_555
H6 C4 1_555 1_555
H7 C5 1_555 1_555
H8 C6 1_555 1_555
H9 C7 1_555 1_555
H10 C7 1_555 1_555
H11 N3 1_555 1_555
H12 C9 1_555 1_555
H13 C10 1_555 1_555
H14 C11 1_555 1_555
H15 C12 1_555 1_555
C11 C12 1_555 1_555

#END
