
#######################################################################
#
#                 Cambridge Crystallographic Data Centre
#                                CCDC 
#
#######################################################################
#
# If this CIF has been generated from an entry in the Cambridge 
# Structural Database, then it will include bibliographic, chemical, 
# crystal, experimental, refinement or atomic coordinate data resulting 
# from the CCDC's data processing and validation procedures.
#
#######################################################################

data_PEKCAM
_chemical_formula_moiety         'C23 H30 O5'
_chemical_name_systematic        
4,6'-dihydroxy-2',5',5',8a'-tetramethyl-3',4',4a',5',6',7',8',8a'-octahydro-2'H,3H-spiro[benzo[1,2-b:5,6-c']difuran-2,1'-naphthalen]-6(8H)-one
_symmetry_cell_setting           orthorhombic
_symmetry_space_group_name_H-M   'P 21 21 21'
_symmetry_Int_Tables_number      19
_space_group_name_Hall           'P 2ac 2ab'
loop_
_symmetry_equiv_pos_site_id
_symmetry_equiv_pos_as_xyz
1 x,y,z
2 1/2-x,-y,1/2+z
3 1/2+x,1/2-y,-z
4 -x,1/2+y,1/2-z
_cell_length_a                   10.88250(10)
_cell_length_b                   13.45840(10)
_cell_length_c                   13.64720(10)
_cell_angle_alpha                90
_cell_angle_beta                 90
_cell_angle_gamma                90
_cell_volume                     1998.78
_exptl_crystal_colour            colorless
_exptl_crystal_description       block
_cell_formula_units_Z            4
loop_
_atom_site_label
_atom_site_type_symbol
_atom_site_fract_x
_atom_site_fract_y
_atom_site_fract_z
O1 O -0.16667(11) -0.61783(8) -0.37578(8)
O2 O -0.03050(12) -0.85359(9) -0.59984(9)
H1 H -0.0134 -0.9129 -0.6027
O3 O -0.47241(12) -0.44850(9) -0.39474(9)
H2 H -0.5094 -0.4193 -0.3511
O4 O -0.35700(12) -0.88459(9) -0.25089(9)
O5 O -0.32785(13) -1.03259(9) -0.32320(10)
C1 C -0.05635(16) -0.64349(12) -0.52779(13)
H3 H -0.0950 -0.6270 -0.5898
H4 H 0.0317 -0.6486 -0.5374
C2 C -0.17267(16) -0.71479(12) -0.40233(12)
C3 C -0.10004(16) -0.83622(13) -0.51912(12)
C4 C -0.10782(15) -0.73778(12) -0.48638(12)
C5 C -0.23004(15) -0.88290(12) -0.38628(12)
C6 C -0.30602(16) -0.94538(13) -0.32183(12)
C7 C -0.28653(15) -0.51461(12) -0.53199(12)
H5 H -0.2672 -0.5474 -0.5934
H6 H -0.3227 -0.5637 -0.4886
C8 C -0.25847(17) -0.23867(12) -0.46854(14)
H7 H -0.1856 -0.2109 -0.4398
H8 H -0.3226 -0.1897 -0.4686
H9 H -0.2414 -0.2588 -0.5346
C9 C -0.29987(16) -0.32961(11) -0.40836(12)
C10 C -0.19884(16) -0.41022(11) -0.39416(12)
H10 H -0.2335 -0.4568 -0.3464
C11 C 0.02834(17) -0.53212(13) -0.39223(13)
H11 H 0.0828 -0.4993 -0.4394
C12 C -0.09223(16) -0.42095(13) -0.56539(13)
H12 H -0.0605 -0.4684 -0.6114
H13 H -0.0253 -0.3857 -0.5355
H14 H -0.1446 -0.3748 -0.5990
C13 C -0.38027(16) -0.43259(14) -0.55120(13)
H15 H -0.3470 -0.3862 -0.5987
H16 H -0.4542 -0.4616 -0.5788
C14 C -0.16655(15) -0.47549(11) -0.48562(11)
C15 C -0.31754(18) -0.78225(13) -0.26378(13)
H17 H -0.2728 -0.7589 -0.2068
H18 H -0.3873 -0.7389 -0.2752
C16 C -0.16269(15) -0.91057(12) -0.46870(13)
H19 H -0.1597 -0.9764 -0.4893
C17 C -0.23640(16) -0.78646(12) -0.35140(12)
C18 C 0.09909(19) -0.61968(15) -0.34764(16)
H20 H 0.0482 -0.6527 -0.3003
H21 H 0.1721 -0.5955 -0.3161
H22 H 0.1213 -0.6656 -0.3985
C19 C -0.41285(15) -0.37691(13) -0.45782(13)
H23 H -0.4718 -0.3243 -0.4739
C20 C -0.34004(18) -0.28975(13) -0.30773(13)
H24 H -0.2759 -0.2491 -0.2808
H25 H -0.3560 -0.3445 -0.2644
H26 H -0.4134 -0.2508 -0.3151
C21 C -0.08788(15) -0.56471(12) -0.44766(11)
C22 C -0.00126(18) -0.45688(14) -0.31138(14)
H27 H -0.0430 -0.4910 -0.2583
H28 H 0.0751 -0.4305 -0.2856
C23 C -0.08121(17) -0.37091(13) -0.34587(14)
H29 H -0.0358 -0.3308 -0.3925
H30 H -0.1025 -0.3292 -0.2904
loop_
_geom_bond_atom_site_label_1
_geom_bond_atom_site_label_2
_geom_bond_site_symmetry_1
_geom_bond_site_symmetry_2
O1 C2 1_555 1_555
O2 H1 1_555 1_555
O3 H2 1_555 1_555
O4 C6 1_555 1_555
O5 C6 1_555 1_555
C1 H3 1_555 1_555
H4 C1 1_555 1_555
C2 C4 1_555 1_555
C3 O2 1_555 1_555
C4 C1 1_555 1_555
C5 C6 1_555 1_555
C7 H5 1_555 1_555
H6 C7 1_555 1_555
C8 H7 1_555 1_555
H8 C8 1_555 1_555
H9 C8 1_555 1_555
C9 C8 1_555 1_555
C10 C9 1_555 1_555
H10 C10 1_555 1_555
C11 H11 1_555 1_555
C12 H12 1_555 1_555
H13 C12 1_555 1_555
H14 C12 1_555 1_555
C13 C7 1_555 1_555
H15 C13 1_555 1_555
H16 C13 1_555 1_555
C14 C7 1_555 1_555
C15 O4 1_555 1_555
H17 C15 1_555 1_555
H18 C15 1_555 1_555
C16 C3 1_555 1_555
H19 C16 1_555 1_555
C17 C2 1_555 1_555
C18 C11 1_555 1_555
H20 C18 1_555 1_555
H21 C18 1_555 1_555
H22 C18 1_555 1_555
C19 O3 1_555 1_555
H23 C19 1_555 1_555
C20 C9 1_555 1_555
H24 C20 1_555 1_555
H25 C20 1_555 1_555
H26 C20 1_555 1_555
C21 O1 1_555 1_555
C22 C11 1_555 1_555
H27 C22 1_555 1_555
H28 C22 1_555 1_555
C23 C10 1_555 1_555
H29 C23 1_555 1_555
H30 C23 1_555 1_555
C1 C21 1_555 1_555
C3 C4 1_555 1_555
C5 C16 1_555 1_555
C5 C17 1_555 1_555
C9 C19 1_555 1_555
C10 C14 1_555 1_555
C11 C21 1_555 1_555
C12 C14 1_555 1_555
C13 C19 1_555 1_555
C14 C21 1_555 1_555
C15 C17 1_555 1_555
C22 C23 1_555 1_555

#END
