
#######################################################################
#
#                 Cambridge Crystallographic Data Centre
#                                CCDC 
#
#######################################################################
#
# If this CIF has been generated from an entry in the Cambridge 
# Structural Database, then it will include bibliographic, chemical, 
# crystal, experimental, refinement or atomic coordinate data resulting 
# from the CCDC's data processing and validation procedures.
#
#######################################################################

data_PEKCUE
_chemical_name_common            '2-picolylammonium perchlorate'
_chemical_formula_moiety         'C6 H9 N2 1+,Cl1 O4 1-'
_chemical_name_systematic        '(2-pyridylmethyl)ammonium perchlorate'
_symmetry_cell_setting           monoclinic
_symmetry_space_group_name_H-M   'P 21/c'
_symmetry_Int_Tables_number      14
_space_group_name_Hall           '-P 2ybc'
loop_
_symmetry_equiv_pos_site_id
_symmetry_equiv_pos_as_xyz
1 x,y,z
2 -x,1/2+y,1/2-z
3 -x,-y,-z
4 x,1/2-y,1/2+z
_cell_length_a                   5.2310(4)
_cell_length_b                   19.530(2)
_cell_length_c                   8.4882(7)
_cell_angle_alpha                90
_cell_angle_beta                 104.788(2)
_cell_angle_gamma                90
_cell_volume                     838.443
_exptl_crystal_colour            colorless
_exptl_crystal_description       plate
_cell_formula_units_Z            4
loop_
_atom_site_label
_atom_site_type_symbol
_atom_site_fract_x
_atom_site_fract_y
_atom_site_fract_z
N1 N 0.0501(2) 0.59706(5) 0.47248(12)
C1 C -0.0974(2) 0.62275(6) 0.56729(14)
C2 C -0.2465(2) 0.57161(6) 0.64166(16)
N2 N -0.0626(2) 0.52001(5) 0.74010(13)
C3 C -0.1125(3) 0.69230(6) 0.59729(15)
C4 C 0.0349(3) 0.73764(7) 0.52973(17)
C5 C 0.1924(3) 0.71167(7) 0.43634(16)
C6 C 0.1922(3) 0.64170(7) 0.40929(16)
H1 H -0.371(4) 0.5453(10) 0.553(2)
H2 H -0.334(3) 0.5916(9) 0.712(2)
H3 H -0.141(4) 0.4965(9) 0.804(2)
H4 H 0.072(4) 0.5396(9) 0.801(2)
H5 H -0.019(4) 0.4885(10) 0.674(2)
H6 H -0.214(3) 0.7065(9) 0.668(2)
H7 H 0.030(3) 0.7859(9) 0.553(2)
H8 H 0.295(4) 0.7412(10) 0.388(2)
H9 H 0.299(4) 0.6234(9) 0.344(2)
Cl1 Cl 0.56559(5) 0.602690(10) 1.06678(4)
O1 O 0.3660(2) 0.60933(5) 0.91396(12)
O2 O 0.5833(2) 0.66522(5) 1.15713(12)
O3 O 0.81719(18) 0.58715(5) 1.03407(12)
O4 O 0.4952(2) 0.54696(5) 1.16085(13)
loop_
_geom_bond_atom_site_label_1
_geom_bond_atom_site_label_2
_geom_bond_site_symmetry_1
_geom_bond_site_symmetry_2
N1 C1 1_555 1_555
C1 C2 1_555 1_555
C2 N2 1_555 1_555
N2 H3 1_555 1_555
C3 C1 1_555 1_555
C4 C3 1_555 1_555
C5 C4 1_555 1_555
C6 N1 1_555 1_555
Cl1 O1 1_555 1_555
O2 Cl1 1_555 1_555
O3 Cl1 1_555 1_555
O4 Cl1 1_555 1_555
H1 C2 1_555 1_555
H2 C2 1_555 1_555
H4 N2 1_555 1_555
H5 N2 1_555 1_555
H6 C3 1_555 1_555
H7 C4 1_555 1_555
H8 C5 1_555 1_555
H9 C6 1_555 1_555
C5 C6 1_555 1_555

#END
