
#######################################################################
#
#                 Cambridge Crystallographic Data Centre
#                                CCDC 
#
#######################################################################
#
# If this CIF has been generated from an entry in the Cambridge 
# Structural Database, then it will include bibliographic, chemical, 
# crystal, experimental, refinement or atomic coordinate data resulting 
# from the CCDC's data processing and validation procedures.
#
#######################################################################

data_PEKDUH
_chemical_formula_moiety         'C21 H34 B1 N1 O4 S2'
_chemical_name_systematic        
4-[(4-methylphenyl)sulfonyl]-5-isopropyl-2-[(4,4,5,5-tetramethyl-1,3,2-dioxaborolan-2-yl)methyl]thiomorpholine
_symmetry_cell_setting           triclinic
_symmetry_space_group_name_H-M   'P 1'
_symmetry_Int_Tables_number      1
_space_group_name_Hall           'P 1'
loop_
_symmetry_equiv_pos_site_id
_symmetry_equiv_pos_as_xyz
1 x,y,z
_cell_length_a                   6.4466(13)
_cell_length_b                   13.706(3)
_cell_length_c                   14.920(3)
_cell_angle_alpha                73.16(3)
_cell_angle_beta                 87.55(3)
_cell_angle_gamma                89.48(3)
_cell_volume                     1260.6
_exptl_crystal_colour            colorless
_exptl_crystal_description       block
_cell_formula_units_Z            2
loop_
_atom_site_label
_atom_site_type_symbol
_atom_site_fract_x
_atom_site_fract_y
_atom_site_fract_z
S1 S 0.4098(2) 0.73628(13) 0.09513(12)
S2 S 0.7602(3) 0.53852(17) 0.34556(15)
O1 O 0.1907(7) 0.7144(5) 0.0908(4)
O2 O 0.4765(9) 0.8403(4) 0.0684(4)
N1 N 0.4795(8) 0.6849(4) 0.2012(4)
C1 C 0.5449(9) 0.6756(5) 0.0222(5)
C2 C 0.6372(10) 0.7328(5) 0.2439(5)
H1 H 0.6849 0.7938 0.1948
C3 C 0.4008(10) 0.5829(6) 0.2527(5)
H2 H 0.2991 0.5623 0.2156
H3 H 0.3311 0.5861 0.3107
O3 O 0.2941(14) 0.3901(5) 0.1838(5)
C4 C 0.5665(12) 0.5048(6) 0.2749(5)
H4 H 0.6341 0.5004 0.2161
C5 C 0.8520(12) 0.6572(7) -0.0663(6)
H5 H 0.9908 0.6732 -0.0832
C6 C 0.7495(10) 0.7005(6) -0.0037(5)
H6 H 0.8183 0.7460 0.0205
C7 C 0.4789(15) 0.3995(6) 0.3290(6)
H7 H 0.3895 0.4068 0.3807
H8 H 0.5933 0.3557 0.3556
C8 C 0.4465(12) 0.6056(7) -0.0121(6)
H9 H 0.3104 0.5858 0.0075
B1 B 0.3553(17) 0.3470(8) 0.2703(7)
O4 O 0.2918(16) 0.2492(5) 0.3012(6)
C9 C 0.8254(12) 0.6630(7) 0.2655(6)
H10 H 0.9296 0.6949 0.2928
H11 H 0.8848 0.6543 0.2075
C10 C 0.5505(14) 0.7703(7) 0.3241(6)
H12 H 0.5069 0.7101 0.3751
C11 C 0.5497(17) 0.5660(8) -0.0746(7)
H13 H 0.4807 0.5203 -0.0984
C12 C 0.7514(16) 0.5908(7) -0.1037(6)
C13 C 0.716(2) 0.8257(11) 0.3615(10)
H14 H 0.8323 0.7815 0.3801
H15 H 0.6584 0.8445 0.4146
H16 H 0.7599 0.8859 0.3134
C14 C 0.187(2) 0.3153(9) 0.1504(9)
C15 C 0.3562(16) 0.8361(9) 0.2947(9)
H17 H 0.2565 0.7983 0.2721
H18 H 0.3944 0.8970 0.2460
H19 H 0.2965 0.8542 0.3478
C16 C -0.080(3) 0.256(3) 0.268(2)
H20 H -0.0835 0.3258 0.2672
H21 H -0.1142 0.2133 0.3305
H22 H -0.1798 0.2442 0.2261
C17 C 0.862(2) 0.5486(11) -0.1778(9)
H23 H 0.7692 0.5040 -0.1962
H24 H 0.9827 0.5113 -0.1520
H25 H 0.9024 0.6040 -0.2316
C18 C 0.212(6) 0.1265(12) 0.2289(18)
H26 H 0.3575 0.1231 0.2135
H27 H 0.1330 0.1112 0.1815
H28 H 0.1792 0.0779 0.2885
C19 C 0.163(3) 0.2255(10) 0.2337(10)
C20 C 0.359(3) 0.2824(18) 0.0811(14)
H29 H 0.3824 0.3382 0.0254
H30 H 0.3088 0.2245 0.0644
H31 H 0.4867 0.2651 0.1127
C21 C 0.034(3) 0.3597(16) 0.0856(17)
H32 H -0.0804 0.3826 0.1177
H33 H -0.0148 0.3099 0.0574
H34 H 0.0928 0.4166 0.0378
S3 S 0.3706(2) 0.33199(13) 0.78724(11)
S4 S 0.0385(3) 0.30529(16) 0.52668(14)
N2 N 0.3020(8) 0.3503(4) 0.6815(4)
O5 O 0.3028(8) 0.4171(4) 0.8165(4)
O6 O 0.5845(7) 0.3063(5) 0.7917(4)
C22 C 0.1462(10) 0.4272(5) 0.6389(5)
H35 H 0.0904 0.4549 0.6885
C23 C 0.3873(11) 0.2842(6) 0.6269(5)
H36 H 0.4890 0.2387 0.6635
H37 H 0.4583 0.3261 0.5705
C24 C 0.2330(10) 0.2261(5) 0.8591(4)
C25 C 0.0248(10) 0.2362(6) 0.8837(5)
H38 H -0.0460 0.2968 0.8590
C26 C 0.2406(12) 0.5169(6) 0.5615(5)
H39 H 0.2828 0.4922 0.5081
C27 C -0.0732(11) 0.1530(7) 0.9460(6)
H40 H -0.2124 0.1593 0.9626
C28 C 0.2220(13) 0.2212(6) 0.5999(5)
H41 H 0.1485 0.1797 0.6569
C29 C 0.3310(13) 0.1346(7) 0.8936(6)
H42 H 0.4680 0.1268 0.8749
C30 C 0.3178(17) 0.1499(6) 0.5455(6)
H43 H 0.2067 0.1222 0.5183
H44 H 0.4070 0.1901 0.4943
C31 C 0.0217(14) 0.0629(7) 0.9845(6)
C32 C -0.0353(11) 0.3761(7) 0.6066(7)
H45 H -0.1336 0.4282 0.5769
H46 H -0.1057 0.3305 0.6614
O7 O 0.4831(15) 0.0451(6) 0.6944(5)
C33 C 0.2267(19) 0.0542(7) 0.9560(8)
H47 H 0.2954 -0.0073 0.9795
C34 C 0.4340(14) 0.5582(7) 0.5949(7)
H48 H 0.4916 0.6137 0.5451
H49 H 0.5352 0.5049 0.6124
H50 H 0.3964 0.5817 0.6480
O8 O 0.5290(17) -0.0132(6) 0.5725(5)
C35 C 0.0911(16) 0.6005(7) 0.5292(8)
H51 H -0.0293 0.5752 0.5073
H52 H 0.1546 0.6537 0.4791
H53 H 0.0506 0.6270 0.5803
B2 B 0.4426(18) 0.0624(7) 0.6042(7)
C36 C -0.092(2) -0.0257(10) 1.0553(10)
H54 H -0.2312 -0.0053 1.0669
H55 H -0.0204 -0.0444 1.1128
H56 H -0.0965 -0.0829 1.0306
C37 C 0.597(2) -0.0481(9) 0.7255(9)
C38 C 0.765(4) -0.0301(17) 0.782(2)
H57 H 0.8661 0.0152 0.7423
H58 H 0.8300 -0.0937 0.8126
H59 H 0.7091 0.0001 0.8284
C39 C 0.434(4) -0.1238(15) 0.7967(15)
H60 H 0.3239 -0.1398 0.7622
H61 H 0.3783 -0.0914 0.8414
H62 H 0.5039 -0.1854 0.8291
C40 C 0.639(2) -0.0804(10) 0.6434(9)
C41 C 0.854(4) -0.071(4) 0.612(2)
H63 H 0.8728 -0.0936 0.5572
H64 H 0.9379 -0.1111 0.6608
H65 H 0.8960 -0.0004 0.5971
C42 C 0.606(8) -0.1833(15) 0.6428(19)
H66 H 0.6469 -0.1902 0.5823
H67 H 0.4614 -0.2003 0.6559
H68 H 0.6869 -0.2285 0.6897
loop_
_geom_bond_atom_site_label_1
_geom_bond_atom_site_label_2
_geom_bond_site_symmetry_1
_geom_bond_site_symmetry_2
S1 O1 1_555 1_555
S2 C4 1_555 1_555
O2 S1 1_555 1_555
N1 S1 1_555 1_555
C1 S1 1_555 1_555
C2 N1 1_555 1_555
H1 C2 1_555 1_555
C3 N1 1_555 1_555
H2 C3 1_555 1_555
H3 C3 1_555 1_555
O3 B1 1_555 1_555
C4 C3 1_555 1_555
H4 C4 1_555 1_555
C5 H5 1_555 1_555
C6 C1 1_555 1_555
H6 C6 1_555 1_555
C7 C4 1_555 1_555
H7 C7 1_555 1_555
H8 C7 1_555 1_555
C8 C1 1_555 1_555
H9 C8 1_555 1_555
B1 C7 1_555 1_555
O4 B1 1_555 1_555
C9 S2 1_555 1_555
H10 C9 1_555 1_555
H11 C9 1_555 1_555
C10 C2 1_555 1_555
H12 C10 1_555 1_555
C11 C8 1_555 1_555
H13 C11 1_555 1_555
C12 C5 1_555 1_555
C13 C10 1_555 1_555
H14 C13 1_555 1_555
H15 C13 1_555 1_555
H16 C13 1_555 1_555
C14 O3 1_555 1_555
C15 C10 1_555 1_555
H17 C15 1_555 1_555
H18 C15 1_555 1_555
H19 C15 1_555 1_555
C16 H20 1_555 1_555
H21 C16 1_555 1_555
H22 C16 1_555 1_555
C17 C12 1_555 1_555
H23 C17 1_555 1_555
H24 C17 1_555 1_555
H25 C17 1_555 1_555
C18 H26 1_555 1_555
H27 C18 1_555 1_555
H28 C18 1_555 1_555
C19 O4 1_555 1_555
C20 C14 1_555 1_555
H29 C20 1_555 1_555
H30 C20 1_555 1_555
H31 C20 1_555 1_555
C21 C14 1_555 1_555
H32 C21 1_555 1_555
H33 C21 1_555 1_555
H34 C21 1_555 1_555
S3 N2 1_555 1_555
S4 C28 1_555 1_555
N2 C22 1_555 1_555
O5 S3 1_555 1_555
O6 S3 1_555 1_555
C22 H35 1_555 1_555
C23 N2 1_555 1_555
H36 C23 1_555 1_555
H37 C23 1_555 1_555
C24 S3 1_555 1_555
C25 C24 1_555 1_555
H38 C25 1_555 1_555
C26 C22 1_555 1_555
H39 C26 1_555 1_555
C27 C25 1_555 1_555
H40 C27 1_555 1_555
C28 C23 1_555 1_555
H41 C28 1_555 1_555
C29 C24 1_555 1_555
H42 C29 1_555 1_555
C30 C28 1_555 1_555
H43 C30 1_555 1_555
H44 C30 1_555 1_555
C31 C27 1_555 1_555
C32 S4 1_555 1_555
H45 C32 1_555 1_555
H46 C32 1_555 1_555
O7 B2 1_555 1_555
C33 C29 1_555 1_555
H47 C33 1_555 1_555
C34 C26 1_555 1_555
H48 C34 1_555 1_555
H49 C34 1_555 1_555
H50 C34 1_555 1_555
O8 B2 1_555 1_555
C35 C26 1_555 1_555
H51 C35 1_555 1_555
H52 C35 1_555 1_555
H53 C35 1_555 1_555
B2 C30 1_555 1_555
C36 C31 1_555 1_555
H54 C36 1_555 1_555
H55 C36 1_555 1_555
H56 C36 1_555 1_555
C37 O7 1_555 1_555
C38 C37 1_555 1_555
H57 C38 1_555 1_555
H58 C38 1_555 1_555
H59 C38 1_555 1_555
C39 C37 1_555 1_555
H60 C39 1_555 1_555
H61 C39 1_555 1_555
H62 C39 1_555 1_555
C40 O8 1_555 1_555
C41 C40 1_555 1_555
H63 C41 1_555 1_555
H64 C41 1_555 1_555
H65 C41 1_555 1_555
C42 C40 1_555 1_555
H66 C42 1_555 1_555
H67 C42 1_555 1_555
H68 C42 1_555 1_555
C2 C9 1_555 1_555
C5 C6 1_555 1_555
C11 C12 1_555 1_555
C14 C19 1_555 1_555
C16 C19 1_555 1_555
C18 C19 1_555 1_555
C22 C32 1_555 1_555
C31 C33 1_555 1_555
C37 C40 1_555 1_555

#END
