
#######################################################################
#
#                 Cambridge Crystallographic Data Centre
#                                CCDC 
#
#######################################################################
#
# If this CIF has been generated from an entry in the Cambridge 
# Structural Database, then it will include bibliographic, chemical, 
# crystal, experimental, refinement or atomic coordinate data resulting 
# from the CCDC's data processing and validation procedures.
#
#######################################################################

data_PEKZOW
_chemical_formula_moiety         
'C34 H34 N10 O8,0.5(C2 H6 O1 S1),O4 S1 2-,2(C16 H36 N1 1+)'
_chemical_name_systematic        
"bis(tetra-n-butylammonium) sulfate 3,3'-cyclohexane-1,2-diylbis(1-(2-(((4-nitrophenyl)carbamoyl)amino)phenyl)urea) dimethyl sulfoxide solvate"
_symmetry_cell_setting           triclinic
_symmetry_space_group_name_H-M   'P 1'
_symmetry_Int_Tables_number      1
_space_group_name_Hall           'P 1'
loop_
_symmetry_equiv_pos_site_id
_symmetry_equiv_pos_as_xyz
1 x,y,z
_cell_length_a                   12.821(3)
_cell_length_b                   16.131(4)
_cell_length_c                   19.300(4)
_cell_angle_alpha                77.453(2)
_cell_angle_beta                 77.365(3)
_cell_angle_gamma                87.544(3)
_cell_volume                     3801.82
_exptl_crystal_colour            yellow
_exptl_crystal_description       block
_cell_formula_units_Z            2
loop_
_atom_site_label
_atom_site_type_symbol
_atom_site_fract_x
_atom_site_fract_y
_atom_site_fract_z
S1 S 0.23125(10) 0.62170(8) 0.83184(6)
O17 O 0.2228(3) 0.6179(2) 0.90991(19)
O18 O 0.1214(3) 0.6137(2) 0.81984(19)
O19 O 0.2961(3) 0.5504(3) 0.8086(2)
O20 O 0.2755(3) 0.7039(2) 0.78956(19)
S2 S 0.37014(10) 0.99498(8) 0.04623(7)
O21 O 0.4828(3) 1.0030(2) 0.0528(2)
O22 O 0.3723(3) 0.9753(3) -0.02541(19)
O23 O 0.3168(3) 1.0761(3) 0.0515(2)
O24 O 0.3178(3) 0.9263(3) 0.1059(2)
S3 S 0.6014(2) 0.4836(2) 0.30222(14)
O25 O 0.4590(11) 0.4893(14) 0.3152(8)
C133 C 0.6104(15) 0.5176(15) 0.2213(7)
H212 H 0.6859 0.5247 0.1968
H213 H 0.5743 0.5726 0.2135
H214 H 0.5767 0.4775 0.2013
C134 C 0.6368(8) 0.3963(5) 0.2965(4)
H215 H 0.5742 0.3605 0.3025
H216 H 0.6762 0.3730 0.3345
H217 H 0.6833 0.3976 0.2487
O1 O 0.0058(5) 0.9094(4) 1.1999(3)
O2 O 0.1345(4) 0.8198(3) 1.2124(2)
O3 O -0.0173(3) 0.8904(3) 0.8572(2)
O4 O 0.1984(4) 0.7169(4) 0.5628(2)
O5 O 0.1814(5) 0.4441(4) 0.6280(3)
O6 O -0.0222(3) 0.3666(2) 0.9961(2)
O7 O -0.0314(5) 0.6333(4) 1.2740(3)
O8 O -0.1419(4) 0.5259(4) 1.3096(3)
N1 N 0.0712(5) 0.8580(3) 1.1781(3)
N2 N 0.0764(4) 0.7780(3) 0.9076(2)
H1 H 0.1130 0.7323 0.8996
N3 N 0.0336(4) 0.7784(3) 0.7988(2)
H2 H 0.0604 0.7269 0.8042
N4 N 0.1629(4) 0.7629(3) 0.6703(3)
H3 H 0.1880 0.7628 0.7093
N5 N 0.3200(4) 0.6943(3) 0.6394(2)
H4 H 0.3349 0.7076 0.6781
N6 N 0.2961(4) 0.5165(3) 0.6690(3)
H5 H 0.3184 0.5246 0.7070
N7 N 0.1632(4) 0.4351(3) 0.7504(3)
H6 H 0.1976 0.4430 0.7832
N8 N 0.0420(4) 0.4502(3) 0.8841(2)
H7 H 0.0811 0.4953 0.8605
N9 N 0.0599(3) 0.4922(3) 0.9884(2)
H8 H 0.1086 0.5276 0.9587
N10 N -0.0712(5) 0.5674(4) 1.2636(3)
C1 C 0.0722(5) 0.8424(4) 1.1063(3)
C2 C 0.1652(5) 0.8061(4) 1.0702(3)
H17 H 0.2265 0.7950 1.0909
C3 C 0.1640(5) 0.7876(4) 1.0044(3)
H18 H 0.2264 0.7648 0.9788
C4 C 0.0747(5) 0.8012(4) 0.9742(3)
C5 C -0.0184(5) 0.8381(4) 1.0109(3)
H19 H -0.0801 0.8495 0.9906
C6 C -0.0153(5) 0.8563(4) 1.0766(3)
H20 H -0.0770 0.8797 1.1024
C7 C 0.0262(5) 0.8199(4) 0.8540(3)
C8 C 0.0002(5) 0.8139(4) 0.7328(3)
C9 C -0.0961(5) 0.8573(4) 0.7318(3)
H21 H -0.1392 0.8667 0.7761
C10 C -0.1302(6) 0.8871(6) 0.6677(4)
H22 H -0.1966 0.9158 0.6684
C11 C -0.0699(6) 0.8755(7) 0.6049(4)
H23 H -0.0931 0.8965 0.5608
C12 C 0.0276(6) 0.8323(6) 0.6036(4)
H24 H 0.0692 0.8230 0.5588
C13 C 0.0639(5) 0.8029(5) 0.6674(3)
C14 C 0.2245(5) 0.7242(5) 0.6194(3)
C15 C 0.3958(5) 0.6428(4) 0.6000(3)
H25 H 0.4523 0.6264 0.6288
C16 C 0.4537(5) 0.6926(5) 0.5243(3)
H26 H 0.4009 0.7121 0.4938
H27 H 0.4893 0.7434 0.5298
C17 C 0.5363(6) 0.6368(5) 0.4874(3)
H28 H 0.5680 0.6685 0.4377
H29 H 0.5944 0.6249 0.5145
C18 C 0.4928(7) 0.5544(5) 0.4824(4)
H30 H 0.4985 0.5348 0.4387
C19 C 0.4374(7) 0.5060(5) 0.5582(4)
H31 H 0.4909 0.4904 0.5888
H32 H 0.4053 0.4530 0.5542
C20 C 0.3496(5) 0.5609(4) 0.5943(3)
H33 H 0.2947 0.5744 0.5639
C21 C 0.2143(5) 0.4644(5) 0.6776(4)
C22 C 0.0644(5) 0.3948(4) 0.7766(3)
C23 C 0.0259(5) 0.3449(4) 0.7353(3)
H34 H 0.0697 0.3362 0.6910
C24 C -0.0744(5) 0.3090(4) 0.7590(3)
H35 H -0.1008 0.2772 0.7305
C25 C -0.1386(5) 0.3199(4) 0.8264(4)
H36 H -0.2082 0.2957 0.8432
C26 C -0.0987(5) 0.3655(3) 0.8667(3)
H37 H -0.1419 0.3730 0.9117
C27 C 0.0026(4) 0.4011(4) 0.8442(3)
C28 C 0.0222(4) 0.4308(4) 0.9597(3)
C29 C 0.0290(4) 0.5035(4) 1.0588(3)
C30 C -0.0488(5) 0.4548(4) 1.1125(3)
H38 H -0.0809 0.4075 1.1032
C31 C -0.0793(5) 0.4773(4) 1.1817(3)
H39 H -0.1301 0.4434 1.2193
C32 C -0.0363(5) 0.5469(4) 1.1942(3)
C33 C 0.0430(5) 0.5955(4) 1.1403(3)
H40 H 0.0753 0.6429 1.1494
C34 C 0.0722(5) 0.5731(4) 1.0747(3)
H41 H 0.1247 0.6066 1.0380
O9 O 0.7143(6) 1.1323(5) -0.4321(3)
O10 O 0.6277(6) 1.0135(5) -0.3972(3)
O11 O 0.6062(3) 1.2608(3) -0.1042(2)
O12 O 0.3702(4) 1.1679(3) 0.2548(2)
O13 O 0.4562(4) 0.9138(4) 0.3137(3)
O14 O 0.6270(4) 0.7316(3) 0.0188(2)
O15 O 0.6530(6) 0.7258(4) -0.3315(3)
O16 O 0.5044(5) 0.7940(4) -0.3435(3)
N11 N 0.6591(6) 1.0779(6) -0.3851(3)
N12 N 0.5434(4) 1.1279(3) -0.0991(3)
H9 H 0.5021 1.0873 -0.0691
N13 N 0.5604(4) 1.1661(3) 0.0044(3)
H10 H 0.5343 1.1150 0.0254
N14 N 0.4161(4) 1.1816(3) 0.1295(2)
H11 H 0.3948 1.1708 0.0920
N15 N 0.2671(4) 1.1092(4) 0.1953(3)
H12 H 0.2515 1.1118 0.1527
N16 N 0.3219(4) 0.9372(3) 0.2519(3)
H13 H 0.2985 0.9294 0.2142
N17 N 0.4677(4) 0.8644(4) 0.2086(3)
H14 H 0.4349 0.8649 0.1729
N18 N 0.5761(4) 0.8401(3) 0.0750(2)
H15 H 0.5412 0.8885 0.0725
N19 N 0.5323(4) 0.8408(3) -0.0337(2)
H16 H 0.4907 0.8841 -0.0258
N20 N 0.5730(5) 0.7662(4) -0.3088(3)
C35 C 0.6260(6) 1.0960(5) -0.3117(3)
C36 C 0.6643(6) 1.1656(5) -0.2948(4)
H42 H 0.7117 1.2033 -0.3318
C37 C 0.6373(5) 1.1827(4) -0.2272(3)
H43 H 0.6616 1.2328 -0.2172
C38 C 0.5696(4) 1.1212(4) -0.1709(3)
C39 C 0.5307(5) 1.0514(4) -0.1893(3)
H44 H 0.4844 1.0125 -0.1526
C40 C 0.5572(5) 1.0370(5) -0.2587(3)
H45 H 0.5301 0.9891 -0.2704
C41 C 0.5738(4) 1.1902(3) -0.0682(3)
C42 C 0.5859(4) 1.2180(3) 0.0488(3)
C43 C 0.6849(5) 1.2599(4) 0.0310(4)
H46 H 0.7344 1.2550 -0.0125
C44 C 0.7120(6) 1.3088(4) 0.0761(4)
H47 H 0.7797 1.3360 0.0647
C45 C 0.6364(6) 1.3163(4) 0.1386(4)
H48 H 0.6532 1.3507 0.1689
C46 C 0.5392(6) 1.2763(4) 0.1578(3)
H49 H 0.4901 1.2823 0.2011
C47 C 0.5131(5) 1.2267(4) 0.1135(3)
C48 C 0.3497(5) 1.1521(4) 0.1972(3)
C49 C 0.1987(5) 1.0572(4) 0.2588(3)
H50 H 0.1460 1.0289 0.2401
C50 C 0.1334(6) 1.1097(5) 0.3095(4)
H51 H 0.0948 1.1548 0.2816
H52 H 0.1817 1.1373 0.3314
C51 C 0.0524(8) 1.0521(6) 0.3701(5)
H53 H 0.0014 1.0273 0.3483
H54 H 0.0114 1.0862 0.4037
C52 C 0.1131(8) 0.9790(5) 0.4133(4)
H55 H 0.1612 1.0034 0.4375
H56 H 0.0610 0.9411 0.4512
C53 C 0.1773(6) 0.9290(4) 0.3611(4)
H57 H 0.1284 0.9023 0.3390
H58 H 0.2164 0.8832 0.3879
C54 C 0.2560(6) 0.9859(4) 0.3018(3)
H59 H 0.3046 1.0122 0.3252
C55 C 0.4176(5) 0.9043(5) 0.2626(3)
C56 C 0.5658(5) 0.8230(5) 0.2049(3)
C57 C 0.6084(6) 0.7900(6) 0.2667(4)
H60 H 0.5702 0.7949 0.3137
C58 C 0.7072(6) 0.7502(6) 0.2576(5)
H61 H 0.7367 0.7289 0.2990
C59 C 0.7626(5) 0.7407(5) 0.1921(4)
H62 H 0.8313 0.7153 0.1876
C60 C 0.7191(5) 0.7685(4) 0.1300(4)
H63 H 0.7561 0.7592 0.0840
C61 C 0.6225(5) 0.8091(4) 0.1372(3)
C62 C 0.5830(4) 0.7998(3) 0.0212(3)
C63 C 0.5435(5) 0.8174(3) -0.1004(3)
C64 C 0.4563(5) 0.8281(3) -0.1331(3)
H64 H 0.3896 0.8459 -0.1083
C65 C 0.4668(5) 0.8127(4) -0.2021(3)
H65 H 0.4085 0.8231 -0.2258
C66 C 0.5629(5) 0.7820(4) -0.2368(3)
C67 C 0.6503(5) 0.7677(4) -0.2017(3)
H66 H 0.7155 0.7452 -0.2243
C68 C 0.6394(5) 0.7866(4) -0.1360(3)
H67 H 0.6986 0.7788 -0.1130
N21 N 0.9544(6) 0.6274(5) 0.4918(3)
C69 C 1.0524(6) 0.6087(5) 0.4323(4)
H68 H 1.0809 0.5521 0.4505
H69 H 1.0263 0.6058 0.3883
C70 C 1.1428(9) 0.6721(6) 0.4108(4)
H70 H 1.1172 0.7278 0.3877
H71 H 1.1660 0.6790 0.4549
C71 C 1.2326(10) 0.6460(13) 0.3611(8)
H72 H 1.2098 0.6424 0.3161
H73 H 1.2544 0.5884 0.3832
C72 C 1.3301(8) 0.7058(5) 0.3411(5)
H74 H 1.3255 0.7493 0.2977
H75 H 1.3958 0.6730 0.3313
H76 H 1.3311 0.7332 0.3816
C73 C 0.9218(9) 0.7212(7) 0.4779(5)
H77 H 0.8589 0.7275 0.5166
H78 H 0.9807 0.7544 0.4846
C74 C 0.8949(10) 0.7629(7) 0.4062(6)
H79 H 0.9608 0.7667 0.3677
H80 H 0.8437 0.7260 0.3951
C75 C 0.8506(11) 0.8449(7) 0.4035(6)
H81 H 0.8384 0.8677 0.3540
H82 H 0.9030 0.8826 0.4123
C76 C 0.7495(9) 0.8473(16) 0.4563(8)
H83 H 0.6903 0.8333 0.4362
H84 H 0.7391 0.9044 0.4665
H85 H 0.7518 0.8060 0.5014
C77 C 0.9926(7) 0.6064(6) 0.5627(4)
H86 H 1.0182 0.5470 0.5703
H87 H 1.0544 0.6436 0.5581
C78 C 0.9130(8) 0.6161(8) 0.6265(4)
H88 H 0.8449 0.5895 0.6264
H89 H 0.9000 0.6771 0.6259
C79 C 0.9505(6) 0.5758(6) 0.6914(4)
H90 H 1.0249 0.5942 0.6867
H91 H 0.9504 0.5134 0.6965
C80 C 0.8782(7) 0.5992(6) 0.7609(6)
H92 H 0.9233 0.6174 0.7899
H93 H 0.8359 0.5495 0.7899
H94 H 0.8301 0.6455 0.7465
C81 C 0.8639(7) 0.5726(7) 0.4911(5)
H95 H 0.7997 0.5870 0.5253
H96 H 0.8483 0.5863 0.4419
C82 C 0.8814(10) 0.4865(10) 0.5096(8)
H97 H 0.8930 0.4715 0.5599
H98 H 0.9468 0.4715 0.4767
C83 C 0.7824(14) 0.4333(6) 0.5041(4)
H99 H 0.7163 0.4574 0.5292
H100 H 0.7794 0.4423 0.4522
C84 C 0.781(2) 0.3362(10) 0.5354(10)
H101 H 0.8438 0.3103 0.5092
H102 H 0.7160 0.3113 0.5297
H103 H 0.7829 0.3256 0.5871
N22 N 0.5088(4) 0.5076(3) 0.9543(2)
C85 C 0.6150(5) 0.4949(4) 0.9750(3)
H104 H 0.6494 0.4447 0.9581
H105 H 0.6030 0.4821 1.0287
C86 C 0.6918(5) 0.5699(4) 0.9450(3)
H106 H 0.6525 0.6232 0.9498
H107 H 0.7216 0.5726 0.8927
C87 C 0.7842(6) 0.5620(5) 0.9857(5)
H108 H 0.7541 0.5579 1.0382
H109 H 0.8241 0.5091 0.9802
C88 C 0.8600(5) 0.6362(4) 0.9580(4)
H110 H 0.8979 0.6356 0.9081
H111 H 0.9118 0.6322 0.9891
H112 H 0.8197 0.6892 0.9586
C89 C 0.5186(5) 0.5308(4) 0.8723(3)
H113 H 0.4458 0.5371 0.8623
H114 H 0.5548 0.5867 0.8533
C90 C 0.5795(5) 0.4672(4) 0.8309(3)
H115 H 0.5438 0.4110 0.8486
H116 H 0.6531 0.4610 0.8393
C91 C 0.5829(6) 0.4980(5) 0.7495(3)
H117 H 0.5089 0.5027 0.7419
H118 H 0.6155 0.5554 0.7331
C92 C 0.6449(7) 0.4406(6) 0.7039(4)
H119 H 0.7175 0.4337 0.7126
H120 H 0.6480 0.4655 0.6524
H121 H 0.6094 0.3850 0.7168
C93 C 0.4509(5) 0.5819(4) 0.9832(3)
H122 H 0.4908 0.6346 0.9568
H123 H 0.3794 0.5868 0.9712
C94 C 0.4365(5) 0.5782(4) 1.0616(3)
H124 H 0.5070 0.5835 1.0734
H125 H 0.4052 0.5225 1.0892
C95 C 0.3641(5) 0.6485(4) 1.0839(3)
H126 H 0.2910 0.6376 1.0789
H127 H 0.3892 0.7029 1.0503
C96 C 0.3596(8) 0.6574(6) 1.1617(4)
H128 H 0.3416 0.6024 1.1950
H129 H 0.3049 0.6991 1.1746
H130 H 0.4293 0.6766 1.1653
C97 C 0.4467(5) 0.4248(4) 0.9876(3)
H131 H 0.4873 0.3786 0.9676
H132 H 0.4431 0.4118 1.0406
C98 C 0.3344(5) 0.4242(4) 0.9755(3)
H133 H 0.3369 0.4300 0.9230
H134 H 0.2945 0.4731 0.9912
C99 C 0.2755(5) 0.3406(4) 1.0185(4)
H135 H 0.2115 0.3341 0.9992
H136 H 0.3232 0.2919 1.0113
C100 C 0.2410(6) 0.3389(5) 1.1002(4)
H137 H 0.3045 0.3377 1.1208
H138 H 0.1973 0.2882 1.1244
H139 H 0.1991 0.3898 1.1074
N23 N 0.5966(6) 0.1223(4) 0.3778(3)
C101 C 0.7082(10) 0.1405(8) 0.3848(7)
H140 H 0.7054 0.1415 0.4363
H141 H 0.7544 0.0923 0.3734
C102 C 0.7609(11) 0.2199(9) 0.3393(10)
H142 H 0.7732 0.2174 0.2873
H143 H 0.7140 0.2689 0.3470
C103 C 0.8625(15) 0.2306(13) 0.3584(16)
H144 H 0.8593 0.1890 0.4049
H145 H 0.9161 0.2081 0.3219
C104 C 0.903(2) 0.2894(14) 0.3659(17)
H146 H 0.9731 0.2983 0.3322
H147 H 0.9130 0.2803 0.4159
H148 H 0.8586 0.3394 0.3558
C105 C 0.5221(10) 0.1944(6) 0.3921(5)
H149 H 0.4518 0.1833 0.3825
H150 H 0.5513 0.2476 0.3583
C106 C 0.5064(10) 0.2061(8) 0.4721(7)
H151 H 0.4882 0.1503 0.5053
H152 H 0.5752 0.2248 0.4791
C107 C 0.4202(14) 0.2697(8) 0.4941(6)
H153 H 0.3561 0.2602 0.4759
H154 H 0.4468 0.3279 0.4704
C108 C 0.3875(13) 0.2626(8) 0.5781(7)
H155 H 0.4163 0.2100 0.6030
H156 H 0.3094 0.2619 0.5934
H157 H 0.4163 0.3114 0.5906
C109 C 0.6000(7) 0.1183(5) 0.2995(4)
H158 H 0.6191 0.1756 0.2690
H159 H 0.5268 0.1055 0.2958
C110 C 0.6756(6) 0.0549(5) 0.2668(4)
H160 H 0.6579 -0.0031 0.2964
H161 H 0.7499 0.0680 0.2679
C111 C 0.6674(7) 0.0577(6) 0.1846(4)
H162 H 0.5961 0.0367 0.1843
H163 H 0.6748 0.1172 0.1568
C112 C 0.7479(7) 0.0073(6) 0.1506(5)
H164 H 0.8175 0.0352 0.1411
H165 H 0.7322 0.0007 0.1046
H166 H 0.7494 -0.0487 0.1827
C113 C 0.5591(9) 0.0384(5) 0.4294(5)
H167 H 0.6014 -0.0078 0.4105
H168 H 0.5758 0.0390 0.4770
C114 C 0.4469(13) 0.0178(6) 0.4414(5)
H169 H 0.4284 0.0221 0.3936
H170 H 0.4045 0.0610 0.4648
C115 C 0.414(2) -0.0688(9) 0.4875(9)
H171 H 0.4175 -0.1088 0.4547
H172 H 0.4678 -0.0877 0.5176
C116 C 0.3340(18) -0.075(2) 0.5242(9)
H173 H 0.2793 -0.0590 0.4953
H174 H 0.3295 -0.0364 0.5579
H175 H 0.3221 -0.1332 0.5517
N24 N 0.1020(4) 0.1139(3) 0.9155(3)
C117 C 0.1598(5) 0.0380(4) 0.8909(4)
H176 H 0.1173 -0.0137 0.9170
H177 H 0.2293 0.0324 0.9058
C118 C 0.1808(6) 0.0404(5) 0.8081(4)
H178 H 0.1118 0.0375 0.7937
H179 H 0.2161 0.0948 0.7809
C119 C 0.2505(5) -0.0321(5) 0.7886(4)
H180 H 0.3204 -0.0274 0.8012
H181 H 0.2168 -0.0862 0.8180
C120 C 0.2678(8) -0.0346(6) 0.7129(5)
H182 H 0.1995 -0.0273 0.6975
H183 H 0.2987 -0.0895 0.7056
H184 H 0.3170 0.0112 0.6842
C121 C 0.1649(5) 0.1957(4) 0.8779(4)
H185 H 0.1638 0.2071 0.8255
H186 H 0.1277 0.2431 0.8979
C122 C 0.2809(5) 0.1954(4) 0.8852(4)
H187 H 0.2837 0.1908 0.9367
H188 H 0.3184 0.1459 0.8688
C123 C 0.3354(6) 0.2767(4) 0.8396(4)
H189 H 0.4029 0.2830 0.8549
H190 H 0.2890 0.3250 0.8500
C124 C 0.3612(7) 0.2826(6) 0.7574(4)
H191 H 0.4150 0.2401 0.7454
H192 H 0.3890 0.3394 0.7325
H193 H 0.2961 0.2721 0.7418
C125 C -0.0074(5) 0.1268(4) 0.8934(4)
H194 H -0.0403 0.1792 0.9073
H195 H 0.0046 0.1356 0.8399
C126 C -0.0854(5) 0.0539(4) 0.9275(3)
H196 H -0.0479 -0.0005 0.9239
H197 H -0.1122 0.0538 0.9797
C127 C -0.1782(5) 0.0606(5) 0.8907(4)
H198 H -0.1511 0.0633 0.8382
H199 H -0.2174 0.1137 0.8963
C128 C -0.2541(5) -0.0142(5) 0.9222(4)
H200 H -0.2189 -0.0658 0.9099
H201 H -0.3183 -0.0038 0.9019
H202 H -0.2743 -0.0214 0.9752
C129 C 0.0887(5) 0.0951(4) 0.9961(4)
H203 H 0.1606 0.0890 1.0075
H204 H 0.0519 0.0396 1.0161
C130 C 0.0274(6) 0.1598(4) 1.0351(4)
H205 H 0.0618 0.2163 1.0151
H206 H -0.0466 0.1639 1.0274
C131 C 0.0255(6) 0.1345(6) 1.1141(4)
H207 H 0.0995 0.1342 1.1216
H208 H -0.0035 0.0761 1.1329
C132 C -0.0438(7) 0.1958(6) 1.1580(5)
H209 H -0.0088 0.2515 1.1453
H210 H -0.0514 0.1724 1.2102
H211 H -0.1146 0.2018 1.1461
loop_
_geom_bond_atom_site_label_1
_geom_bond_atom_site_label_2
_geom_bond_site_symmetry_1
_geom_bond_site_symmetry_2
S1 O17 1_555 1_555
S2 O21 1_555 1_555
S3 O25 1_555 1_555
O1 N1 1_555 1_555
O2 N1 1_555 1_555
O3 C7 1_555 1_555
O4 C14 1_555 1_555
O5 C21 1_555 1_555
O6 C28 1_555 1_555
O7 N10 1_555 1_555
O8 N10 1_555 1_555
O9 N11 1_555 1_555
O10 N11 1_555 1_555
O11 C41 1_555 1_555
O12 C48 1_555 1_555
O13 C55 1_555 1_555
O14 C62 1_555 1_555
O15 N20 1_555 1_555
O16 N20 1_555 1_555
O18 S1 1_555 1_555
O19 S1 1_555 1_555
O20 S1 1_555 1_555
O22 S2 1_555 1_555
O23 S2 1_555 1_555
O24 S2 1_555 1_555
N1 C1 1_555 1_555
N2 H1 1_555 1_555
N3 H2 1_555 1_555
N4 H3 1_555 1_555
N5 H4 1_555 1_555
N6 H5 1_555 1_555
N7 H6 1_555 1_555
N8 H7 1_555 1_555
N9 H8 1_555 1_555
N10 C32 1_555 1_555
N11 C35 1_555 1_555
N12 H9 1_555 1_555
N13 H10 1_555 1_555
N14 H11 1_555 1_555
N15 H12 1_555 1_555
N16 H13 1_555 1_555
N17 H14 1_555 1_555
N18 H15 1_555 1_555
N19 H16 1_555 1_555
N20 C66 1_555 1_555
N21 C69 1_555 1_555
N22 C85 1_555 1_555
N23 C101 1_555 1_555
N24 C117 1_555 1_555
C1 C2 1_555 1_555
C2 H17 1_555 1_555
C3 C2 1_555 1_555
H18 C3 1_555 1_555
C4 N2 1_555 1_555
C5 C4 1_555 1_555
H19 C5 1_555 1_555
C6 C1 1_555 1_555
H20 C6 1_555 1_555
C7 N2 1_555 1_555
C8 N3 1_555 1_555
C9 C8 1_555 1_555
H21 C9 1_555 1_555
C10 C9 1_555 1_555
H22 C10 1_555 1_555
C11 C10 1_555 1_555
H23 C11 1_555 1_555
C12 C11 1_555 1_555
H24 C12 1_555 1_555
C13 N4 1_555 1_555
C14 N4 1_555 1_555
C15 N5 1_555 1_555
H25 C15 1_555 1_555
C16 C15 1_555 1_555
H26 C16 1_555 1_555
H27 C16 1_555 1_555
C17 C16 1_555 1_555
H28 C17 1_555 1_555
H29 C17 1_555 1_555
C18 C17 1_555 1_555
H30 C18 1_555 1_555
C19 C18 1_555 1_555
H31 C19 1_555 1_555
H32 C19 1_555 1_555
C20 N6 1_555 1_555
H33 C20 1_555 1_555
C21 N6 1_555 1_555
C22 N7 1_555 1_555
C23 C22 1_555 1_555
H34 C23 1_555 1_555
C24 C23 1_555 1_555
H35 C24 1_555 1_555
C25 C24 1_555 1_555
H36 C25 1_555 1_555
C26 C25 1_555 1_555
H37 C26 1_555 1_555
C27 N8 1_555 1_555
C28 N8 1_555 1_555
C29 N9 1_555 1_555
C30 C29 1_555 1_555
H38 C30 1_555 1_555
C31 C30 1_555 1_555
H39 C31 1_555 1_555
C32 C31 1_555 1_555
C33 C32 1_555 1_555
H40 C33 1_555 1_555
C34 C29 1_555 1_555
H41 C34 1_555 1_555
C35 C36 1_555 1_555
C36 H42 1_555 1_555
C37 C36 1_555 1_555
H43 C37 1_555 1_555
C38 N12 1_555 1_555
C39 C38 1_555 1_555
H44 C39 1_555 1_555
C40 C35 1_555 1_555
H45 C40 1_555 1_555
C41 N12 1_555 1_555
C42 N13 1_555 1_555
C43 C42 1_555 1_555
H46 C43 1_555 1_555
C44 C43 1_555 1_555
H47 C44 1_555 1_555
C45 C44 1_555 1_555
H48 C45 1_555 1_555
C46 C45 1_555 1_555
H49 C46 1_555 1_555
C47 N14 1_555 1_555
C48 N14 1_555 1_555
C49 N15 1_555 1_555
H50 C49 1_555 1_555
C50 C49 1_555 1_555
H51 C50 1_555 1_555
H52 C50 1_555 1_555
C51 C50 1_555 1_555
H53 C51 1_555 1_555
H54 C51 1_555 1_555
C52 C51 1_555 1_555
H55 C52 1_555 1_555
H56 C52 1_555 1_555
C53 C52 1_555 1_555
H57 C53 1_555 1_555
H58 C53 1_555 1_555
C54 N16 1_555 1_555
H59 C54 1_555 1_555
C55 N16 1_555 1_555
C56 N17 1_555 1_555
C57 C56 1_555 1_555
H60 C57 1_555 1_555
C58 C57 1_555 1_555
H61 C58 1_555 1_555
C59 C58 1_555 1_555
H62 C59 1_555 1_555
C60 C59 1_555 1_555
H63 C60 1_555 1_555
C61 N18 1_555 1_555
C62 N18 1_555 1_555
C63 N19 1_555 1_555
C64 C63 1_555 1_555
H64 C64 1_555 1_555
C65 C64 1_555 1_555
H65 C65 1_555 1_555
C66 C65 1_555 1_555
C67 C66 1_555 1_555
H66 C67 1_555 1_555
C68 C63 1_555 1_555
H67 C68 1_555 1_555
C69 H68 1_555 1_555
H69 C69 1_555 1_555
C70 C69 1_555 1_555
H70 C70 1_555 1_555
H71 C70 1_555 1_555
C71 C70 1_555 1_555
H72 C71 1_555 1_555
H73 C71 1_555 1_555
C72 C71 1_555 1_555
H74 C72 1_555 1_555
H75 C72 1_555 1_555
H76 C72 1_555 1_555
C73 N21 1_555 1_555
H77 C73 1_555 1_555
H78 C73 1_555 1_555
C74 C73 1_555 1_555
H79 C74 1_555 1_555
H80 C74 1_555 1_555
C75 C74 1_555 1_555
H81 C75 1_555 1_555
H82 C75 1_555 1_555
C76 C75 1_555 1_555
H83 C76 1_555 1_555
H84 C76 1_555 1_555
H85 C76 1_555 1_555
C77 N21 1_555 1_555
H86 C77 1_555 1_555
H87 C77 1_555 1_555
C78 C77 1_555 1_555
H88 C78 1_555 1_555
H89 C78 1_555 1_555
C79 C78 1_555 1_555
H90 C79 1_555 1_555
H91 C79 1_555 1_555
C80 C79 1_555 1_555
H92 C80 1_555 1_555
H93 C80 1_555 1_555
H94 C80 1_555 1_555
C81 N21 1_555 1_555
H95 C81 1_555 1_555
H96 C81 1_555 1_555
C82 C81 1_555 1_555
H97 C82 1_555 1_555
H98 C82 1_555 1_555
C83 C82 1_555 1_555
H99 C83 1_555 1_555
H100 C83 1_555 1_555
C84 C83 1_555 1_555
H101 C84 1_555 1_555
H102 C84 1_555 1_555
H103 C84 1_555 1_555
C85 H104 1_555 1_555
H105 C85 1_555 1_555
C86 C85 1_555 1_555
H106 C86 1_555 1_555
H107 C86 1_555 1_555
C87 C86 1_555 1_555
H108 C87 1_555 1_555
H109 C87 1_555 1_555
C88 C87 1_555 1_555
H110 C88 1_555 1_555
H111 C88 1_555 1_555
H112 C88 1_555 1_555
C89 N22 1_555 1_555
H113 C89 1_555 1_555
H114 C89 1_555 1_555
C90 C89 1_555 1_555
H115 C90 1_555 1_555
H116 C90 1_555 1_555
C91 C90 1_555 1_555
H117 C91 1_555 1_555
H118 C91 1_555 1_555
C92 C91 1_555 1_555
H119 C92 1_555 1_555
H120 C92 1_555 1_555
H121 C92 1_555 1_555
C93 N22 1_555 1_555
H122 C93 1_555 1_555
H123 C93 1_555 1_555
C94 C93 1_555 1_555
H124 C94 1_555 1_555
H125 C94 1_555 1_555
C95 C94 1_555 1_555
H126 C95 1_555 1_555
H127 C95 1_555 1_555
C96 C95 1_555 1_555
H128 C96 1_555 1_555
H129 C96 1_555 1_555
H130 C96 1_555 1_555
C97 N22 1_555 1_555
H131 C97 1_555 1_555
H132 C97 1_555 1_555
C98 C97 1_555 1_555
H133 C98 1_555 1_555
H134 C98 1_555 1_555
C99 C98 1_555 1_555
H135 C99 1_555 1_555
H136 C99 1_555 1_555
C100 C99 1_555 1_555
H137 C100 1_555 1_555
H138 C100 1_555 1_555
H139 C100 1_555 1_555
C101 H140 1_555 1_555
H141 C101 1_555 1_555
C102 C101 1_555 1_555
H142 C102 1_555 1_555
H143 C102 1_555 1_555
C103 C102 1_555 1_555
H144 C103 1_555 1_555
H145 C103 1_555 1_555
C104 C103 1_555 1_555
H146 C104 1_555 1_555
H147 C104 1_555 1_555
H148 C104 1_555 1_555
C105 N23 1_555 1_555
H149 C105 1_555 1_555
H150 C105 1_555 1_555
C106 C105 1_555 1_555
H151 C106 1_555 1_555
H152 C106 1_555 1_555
C107 C106 1_555 1_555
H153 C107 1_555 1_555
H154 C107 1_555 1_555
C108 C107 1_555 1_555
H155 C108 1_555 1_555
H156 C108 1_555 1_555
H157 C108 1_555 1_555
C109 N23 1_555 1_555
H158 C109 1_555 1_555
H159 C109 1_555 1_555
C110 C109 1_555 1_555
H160 C110 1_555 1_555
H161 C110 1_555 1_555
C111 C110 1_555 1_555
H162 C111 1_555 1_555
H163 C111 1_555 1_555
C112 C111 1_555 1_555
H164 C112 1_555 1_555
H165 C112 1_555 1_555
H166 C112 1_555 1_555
C113 N23 1_555 1_555
H167 C113 1_555 1_555
H168 C113 1_555 1_555
C114 C113 1_555 1_555
H169 C114 1_555 1_555
H170 C114 1_555 1_555
C115 C114 1_555 1_555
H171 C115 1_555 1_555
H172 C115 1_555 1_555
C116 C115 1_555 1_555
H173 C116 1_555 1_555
H174 C116 1_555 1_555
H175 C116 1_555 1_555
C117 H176 1_555 1_555
H177 C117 1_555 1_555
C118 C117 1_555 1_555
H178 C118 1_555 1_555
H179 C118 1_555 1_555
C119 C118 1_555 1_555
H180 C119 1_555 1_555
H181 C119 1_555 1_555
C120 C119 1_555 1_555
H182 C120 1_555 1_555
H183 C120 1_555 1_555
H184 C120 1_555 1_555
C121 N24 1_555 1_555
H185 C121 1_555 1_555
H186 C121 1_555 1_555
C122 C121 1_555 1_555
H187 C122 1_555 1_555
H188 C122 1_555 1_555
C123 C122 1_555 1_555
H189 C123 1_555 1_555
H190 C123 1_555 1_555
C124 C123 1_555 1_555
H191 C124 1_555 1_555
H192 C124 1_555 1_555
H193 C124 1_555 1_555
C125 N24 1_555 1_555
H194 C125 1_555 1_555
H195 C125 1_555 1_555
C126 C125 1_555 1_555
H196 C126 1_555 1_555
H197 C126 1_555 1_555
C127 C126 1_555 1_555
H198 C127 1_555 1_555
H199 C127 1_555 1_555
C128 C127 1_555 1_555
H200 C128 1_555 1_555
H201 C128 1_555 1_555
H202 C128 1_555 1_555
C129 N24 1_555 1_555
H203 C129 1_555 1_555
H204 C129 1_555 1_555
C130 C129 1_555 1_555
H205 C130 1_555 1_555
H206 C130 1_555 1_555
C131 C130 1_555 1_555
H207 C131 1_555 1_555
H208 C131 1_555 1_555
C132 C131 1_555 1_555
H209 C132 1_555 1_555
H210 C132 1_555 1_555
H211 C132 1_555 1_555
C133 S3 1_555 1_555
H212 C133 1_555 1_555
H213 C133 1_555 1_555
H214 C133 1_555 1_555
C134 S3 1_555 1_555
H215 C134 1_555 1_555
H216 C134 1_555 1_555
H217 C134 1_555 1_555
N3 C7 1_555 1_555
N5 C14 1_555 1_555
N7 C21 1_555 1_555
N9 C28 1_555 1_555
N13 C41 1_555 1_555
N15 C48 1_555 1_555
N17 C55 1_555 1_555
N19 C62 1_555 1_555
C3 C4 1_555 1_555
C5 C6 1_555 1_555
C8 C13 1_555 1_555
C12 C13 1_555 1_555
C15 C20 1_555 1_555
C19 C20 1_555 1_555
C22 C27 1_555 1_555
C26 C27 1_555 1_555
C33 C34 1_555 1_555
C37 C38 1_555 1_555
C39 C40 1_555 1_555
C42 C47 1_555 1_555
C46 C47 1_555 1_555
C49 C54 1_555 1_555
C53 C54 1_555 1_555
C56 C61 1_555 1_555
C60 C61 1_555 1_555
C67 C68 1_555 1_555

#END
