
#######################################################################
#
#                 Cambridge Crystallographic Data Centre
#                                CCDC 
#
#######################################################################
#
# If this CIF has been generated from an entry in the Cambridge 
# Structural Database, then it will include bibliographic, chemical, 
# crystal, experimental, refinement or atomic coordinate data resulting 
# from the CCDC's data processing and validation procedures.
#
#######################################################################

data_PELBAL
_chemical_formula_moiety         'C6 H14 N1 O1 1+,Cl1 1-'
_chemical_name_systematic        '4,4-Dimethylmorpholin-4-ium chloride'
_symmetry_cell_setting           orthorhombic
_symmetry_space_group_name_H-M   'P 21 21 21'
_symmetry_Int_Tables_number      19
_space_group_name_Hall           'P 2ac 2ab'
loop_
_symmetry_equiv_pos_site_id
_symmetry_equiv_pos_as_xyz
1 x,y,z
2 1/2+x,1/2-y,-z
3 -x,1/2+y,1/2-z
4 1/2-x,-y,1/2+z
_cell_length_a                   8.2735(3)
_cell_length_b                   9.7455(4)
_cell_length_c                   9.7543(4)
_cell_angle_alpha                90
_cell_angle_beta                 90
_cell_angle_gamma                90
_cell_volume                     786.483
_exptl_crystal_colour            colorless
_exptl_crystal_description       'irregular chunk'
_cell_formula_units_Z            4
loop_
_atom_site_label
_atom_site_type_symbol
_atom_site_fract_x
_atom_site_fract_y
_atom_site_fract_z
O1 O 0.52276(11) 0.61485(8) 0.33614(8)
N1 N 0.45878(11) 0.42635(8) 0.56146(9)
C1 C 0.54853(14) 0.47044(12) 0.31995(11)
H1 H 0.6640(16) 0.4513(13) 0.3377(13)
H2 H 0.5294(16) 0.4463(13) 0.2291(13)
C2 C 0.43660(14) 0.38914(12) 0.41125(10)
H3 H 0.3262(17) 0.4096(14) 0.3915(12)
H4 H 0.4554(16) 0.2888(13) 0.4042(13)
C3 C 0.44467(15) 0.58095(11) 0.57325(12)
H5 H 0.3341(17) 0.6012(13) 0.5520(14)
H6 H 0.4719(16) 0.6003(13) 0.6644(13)
C4 C 0.55731(16) 0.65320(12) 0.47494(12)
H7 H 0.6718(18) 0.6330(13) 0.4964(12)
H8 H 0.5355(17) 0.7468(14) 0.4822(14)
C5 C 0.61838(13) 0.37576(12) 0.61537(12)
H9 H 0.7055(16) 0.4158(13) 0.5645(14)
H10 H 0.6175(16) 0.2789(14) 0.6052(13)
H11 H 0.6289(16) 0.4027(14) 0.7107(14)
C6 C 0.32728(14) 0.36047(12) 0.64426(11)
H12 H 0.3393(16) 0.2592(14) 0.6355(13)
H13 H 0.3424(18) 0.3851(15) 0.7382(15)
H14 H 0.2225(17) 0.3920(13) 0.6090(13)
Cl1 Cl 0.49069(3) 0.01727(2) 0.55444(2)
loop_
_geom_bond_atom_site_label_1
_geom_bond_atom_site_label_2
_geom_bond_site_symmetry_1
_geom_bond_site_symmetry_2
O1 C1 1_555 1_555
N1 C2 1_555 1_555
C1 H1 1_555 1_555
H2 C1 1_555 1_555
C2 C1 1_555 1_555
H3 C2 1_555 1_555
H4 C2 1_555 1_555
C3 N1 1_555 1_555
H5 C3 1_555 1_555
H6 C3 1_555 1_555
C4 O1 1_555 1_555
H7 C4 1_555 1_555
H8 C4 1_555 1_555
C5 N1 1_555 1_555
H9 C5 1_555 1_555
H10 C5 1_555 1_555
H11 C5 1_555 1_555
C6 N1 1_555 1_555
H12 C6 1_555 1_555
H13 C6 1_555 1_555
H14 C6 1_555 1_555
C3 C4 1_555 1_555

#END
