
#######################################################################
#
#                 Cambridge Crystallographic Data Centre
#                                CCDC 
#
#######################################################################
#
# If this CIF has been generated from an entry in the Cambridge 
# Structural Database, then it will include bibliographic, chemical, 
# crystal, experimental, refinement or atomic coordinate data resulting 
# from the CCDC's data processing and validation procedures.
#
#######################################################################

data_PELLEZ
_chemical_formula_moiety         'C12 H10 Cl2 N2 O2'
_chemical_name_systematic        
'Methyl 3-((4,5-dichloro-1H-imidazol-1-yl)methyl)benzoate'
_symmetry_cell_setting           triclinic
_symmetry_space_group_name_H-M   'P -1'
_symmetry_Int_Tables_number      2
_space_group_name_Hall           '-P 1'
loop_
_symmetry_equiv_pos_site_id
_symmetry_equiv_pos_as_xyz
1 x,y,z
2 -x,-y,-z
_cell_length_a                   7.836(4)
_cell_length_b                   9.003(5)
_cell_length_c                   9.383(5)
_cell_angle_alpha                68.826(8)
_cell_angle_beta                 84.052(9)
_cell_angle_gamma                81.241(8)
_cell_volume                     609.209
_exptl_crystal_colour            colorless
_exptl_crystal_description       block
_cell_formula_units_Z            2
loop_
_atom_site_label
_atom_site_type_symbol
_atom_site_fract_x
_atom_site_fract_y
_atom_site_fract_z
Cl1 Cl 0.76907(6) 0.54688(5) 0.44831(5)
Cl2 Cl 0.63816(6) 0.43588(5) 0.15864(5)
O1 O 1.09407(16) 0.28668(15) 1.12062(15)
O2 O 1.34728(16) 0.13837(16) 1.09919(16)
N1 N 0.64919(18) 0.26146(17) 0.59963(17)
N2 N 0.56639(19) 0.18891(18) 0.41627(17)
C1 C 0.5809(2) 0.1488(2) 0.5646(2)
H1 H 0.5476 0.0523 0.6388
C2 C 0.6818(2) 0.3800(2) 0.4615(2)
C3 C 0.6301(2) 0.3327(2) 0.3528(2)
C4 C 0.6928(2) 0.2529(2) 0.7496(2)
H2 H 0.6240 0.1766 0.8294
H3 H 0.6610 0.3598 0.7590
C5 C 0.8842(2) 0.1995(2) 0.77759(19)
C6 C 0.9540(2) 0.22881(19) 0.8939(2)
H4 H 0.8848 0.2891 0.9483
C7 C 1.1252(2) 0.1700(2) 0.93101(19)
C8 C 1.2269(2) 0.0815(2) 0.8508(2)
H5 H 1.3427 0.0395 0.8770
C9 C 1.1585(2) 0.0551(2) 0.7331(2)
H6 H 1.2281 -0.0032 0.6770
C10 C 0.9875(2) 0.1140(2) 0.6970(2)
H7 H 0.9411 0.0954 0.6162
C11 C 1.2029(2) 0.1950(2) 1.0574(2)
C12 C 1.1581(3) 0.3149(2) 1.2467(2)
H8 H 1.1790 0.2128 1.3318
H9 H 1.0722 0.3884 1.2802
H10 H 1.2663 0.3625 1.2134
loop_
_geom_bond_atom_site_label_1
_geom_bond_atom_site_label_2
_geom_bond_site_symmetry_1
_geom_bond_site_symmetry_2
Cl1 C2 1_555 1_555
Cl2 C3 1_555 1_555
O1 C11 1_555 1_555
O2 C11 1_555 1_555
N1 C1 1_555 1_555
N2 C1 1_555 1_555
C1 H1 1_555 1_555
C2 N1 1_555 1_555
C3 N2 1_555 1_555
C4 N1 1_555 1_555
H2 C4 1_555 1_555
H3 C4 1_555 1_555
C5 C4 1_555 1_555
C6 C5 1_555 1_555
H4 C6 1_555 1_555
C7 C6 1_555 1_555
C8 C7 1_555 1_555
H5 C8 1_555 1_555
C9 C8 1_555 1_555
H6 C9 1_555 1_555
C10 C5 1_555 1_555
H7 C10 1_555 1_555
C11 C7 1_555 1_555
C12 O1 1_555 1_555
H8 C12 1_555 1_555
H9 C12 1_555 1_555
H10 C12 1_555 1_555
C2 C3 1_555 1_555
C9 C10 1_555 1_555

#END
