
#######################################################################
#
#                 Cambridge Crystallographic Data Centre
#                                CCDC 
#
#######################################################################
#
# If this CIF has been generated from an entry in the Cambridge 
# Structural Database, then it will include bibliographic, chemical, 
# crystal, experimental, refinement or atomic coordinate data resulting 
# from the CCDC's data processing and validation procedures.
#
#######################################################################

data_PELLEY
_chemical_formula_moiety         'C12 H8 Cl1 F1 N2 O1,H2 O1'
_chemical_name_systematic        
'N-(4-Fluorophenyl)-2-chloronicotinamide monohydrate'
_symmetry_cell_setting           triclinic
_symmetry_space_group_name_H-M   'P -1'
_symmetry_Int_Tables_number      2
_space_group_name_Hall           '-P 1'
loop_
_symmetry_equiv_pos_site_id
_symmetry_equiv_pos_as_xyz
1 x,y,z
2 -x,-y,-z
_cell_length_a                   6.8033(4)
_cell_length_b                   8.1303(3)
_cell_length_c                   11.5356(6)
_cell_angle_alpha                84.032(3)
_cell_angle_beta                 84.297(2)
_cell_angle_gamma                69.569(3)
_cell_volume                     593.324
_exptl_crystal_colour            colorless
_exptl_crystal_description       plate
_chemical_melting_point          '366-367 K'
_cell_formula_units_Z            2
loop_
_atom_site_label
_atom_site_type_symbol
_atom_site_fract_x
_atom_site_fract_y
_atom_site_fract_z
N1 N 0.7571(3) 0.9978(2) 0.48546(15)
C1 C 0.7752(3) 0.9063(3) 0.58821(17)
Cl1 Cl 0.78295(8) 1.02152(7) 0.70544(5)
C2 C 0.7785(3) 0.7329(2) 0.60679(17)
C3 C 0.7568(3) 0.6539(3) 0.50950(18)
C4 C 0.7400(3) 0.7458(3) 0.40094(18)
C5 C 0.7432(3) 0.9155(3) 0.39284(19)
C6 C 0.8196(3) 0.6272(3) 0.72202(17)
O1 O 0.9775(2) 0.61153(18) 0.77274(12)
N2 N 0.6788(3) 0.5477(2) 0.75786(14)
C7 C 0.6875(3) 0.4219(2) 0.85440(17)
C8 C 0.5108(3) 0.3715(3) 0.87844(18)
C9 C 0.5070(4) 0.2461(3) 0.96891(18)
C10 C 0.6789(4) 0.1759(3) 1.03364(18)
F1 F 0.6761(2) 0.05172(17) 1.12278(11)
C11 C 0.8533(4) 0.2245(3) 1.01359(19)
C12 C 0.8583(3) 0.3489(3) 0.92234(19)
H1 H 0.7534 0.5374 0.5177
H2 H 0.7267 0.6935 0.3336
H3 H 0.7353 0.9775 0.3180
H4 H 0.5606 0.5839 0.7159
H5 H 0.3927 0.4232 0.8327
H6 H 0.3880 0.2098 0.9855
H7 H 0.9689 0.1740 1.0612
H8 H 0.9784 0.3839 0.9066
O2 O 0.3127(2) 0.65660(18) 0.63096(13)
H9 H 0.2798 0.7599 0.5792
H10 H 0.2058 0.6458 0.6689
loop_
_geom_bond_atom_site_label_1
_geom_bond_atom_site_label_2
_geom_bond_site_symmetry_1
_geom_bond_site_symmetry_2
N1 C1 1_555 1_555
C1 Cl1 1_555 1_555
C2 C1 1_555 1_555
C3 C2 1_555 1_555
C4 C3 1_555 1_555
C5 N1 1_555 1_555
C6 C2 1_555 1_555
O1 C6 1_555 1_555
N2 C6 1_555 1_555
C7 N2 1_555 1_555
C8 C7 1_555 1_555
C9 C8 1_555 1_555
C10 C9 1_555 1_555
F1 C10 1_555 1_555
C11 C10 1_555 1_555
C12 C7 1_555 1_555
O2 H9 1_555 1_555
H1 C3 1_555 1_555
H2 C4 1_555 1_555
H3 C5 1_555 1_555
H4 N2 1_555 1_555
H5 C8 1_555 1_555
H6 C9 1_555 1_555
H7 C11 1_555 1_555
H8 C12 1_555 1_555
H10 O2 1_555 1_555
C4 C5 1_555 1_555
C11 C12 1_555 1_555

#END
