
#######################################################################
#
#                 Cambridge Crystallographic Data Centre
#                                CCDC 
#
#######################################################################
#
# If this CIF has been generated from an entry in the Cambridge 
# Structural Database, then it will include bibliographic, chemical, 
# crystal, experimental, refinement or atomic coordinate data resulting 
# from the CCDC's data processing and validation procedures.
#
#######################################################################

data_PELLUO
_chemical_formula_moiety         'C12 H8 Cl1 I1 N2 O1'
_chemical_name_systematic        N-(4-Iodophenyl)-2-chloronicotinamide
_symmetry_cell_setting           orthorhombic
_symmetry_space_group_name_H-M   'P b c a'
_symmetry_Int_Tables_number      61
_space_group_name_Hall           '-P 2ac 2ab'
loop_
_symmetry_equiv_pos_site_id
_symmetry_equiv_pos_as_xyz
1 x,y,z
2 1/2-x,-y,1/2+z
3 1/2+x,1/2-y,-z
4 -x,1/2+y,1/2-z
5 -x,-y,-z
6 1/2+x,y,1/2-z
7 1/2-x,1/2+y,z
8 x,1/2-y,1/2+z
_cell_length_a                   10.6597(2)
_cell_length_b                   25.9833(3)
_cell_length_c                   9.2044(6)
_cell_angle_alpha                90
_cell_angle_beta                 90
_cell_angle_gamma                90
_cell_volume                     2549.38
_exptl_crystal_colour            colorless
_exptl_crystal_description       plate
_chemical_melting_point          '448-450 K'
_cell_formula_units_Z            8
_exptl_crystal_recrystallization_method ethanol
loop_
_atom_site_label
_atom_site_type_symbol
_atom_site_fract_x
_atom_site_fract_y
_atom_site_fract_z
N1 N 0.60356(18) 0.11949(7) 0.62709(19)
C1 C 0.6165(2) 0.16921(8) 0.6038(2)
Cl1 Cl 0.76816(5) 0.19337(2) 0.62506(6)
C2 C 0.5212(2) 0.20242(8) 0.5592(2)
C3 C 0.4040(2) 0.18113(8) 0.5380(2)
C4 C 0.3866(2) 0.12909(8) 0.5640(2)
C5 C 0.4878(2) 0.10011(8) 0.6066(3)
C6 C 0.54567(19) 0.25827(8) 0.5278(2)
O1 O 0.55314(15) 0.27425(5) 0.40199(16)
N2 N 0.55734(17) 0.28802(7) 0.64672(17)
C7 C 0.5942(2) 0.34079(8) 0.6469(2)
C8 C 0.6810(2) 0.35646(8) 0.7503(2)
C9 C 0.7200(2) 0.40740(8) 0.7567(3)
C10 C 0.6721(2) 0.44248(8) 0.6580(2)
I1 I 0.741430(14) 0.518368(5) 0.656374(16)
C11 C 0.5848(2) 0.42725(8) 0.5546(2)
C12 C 0.5448(2) 0.37637(8) 0.5492(2)
H1 H 0.3361 0.2019 0.5059
H2 H 0.3063 0.1138 0.5526
H3 H 0.4754 0.0643 0.6226
H4 H 0.5409 0.2738 0.7313
H5 H 0.7140 0.3321 0.8172
H6 H 0.7788 0.4181 0.8280
H7 H 0.5524 0.4516 0.4875
H8 H 0.4842 0.3660 0.4795
loop_
_geom_bond_atom_site_label_1
_geom_bond_atom_site_label_2
_geom_bond_site_symmetry_1
_geom_bond_site_symmetry_2
N1 C1 1_555 1_555
C1 Cl1 1_555 1_555
C2 C1 1_555 1_555
C3 C2 1_555 1_555
C4 C3 1_555 1_555
C5 N1 1_555 1_555
C6 C2 1_555 1_555
O1 C6 1_555 1_555
N2 C6 1_555 1_555
C7 N2 1_555 1_555
C8 C7 1_555 1_555
C9 C8 1_555 1_555
C10 C9 1_555 1_555
I1 C10 1_555 1_555
C11 C10 1_555 1_555
C12 C7 1_555 1_555
H1 C3 1_555 1_555
H2 C4 1_555 1_555
H3 C5 1_555 1_555
H4 N2 1_555 1_555
H5 C8 1_555 1_555
H6 C9 1_555 1_555
H7 C11 1_555 1_555
H8 C12 1_555 1_555
C4 C5 1_555 1_555
C11 C12 1_555 1_555

#END
