
#######################################################################
#
#                 Cambridge Crystallographic Data Centre
#                                CCDC 
#
#######################################################################
#
# If this CIF has been generated from an entry in the Cambridge 
# Structural Database, then it will include bibliographic, chemical, 
# crystal, experimental, refinement or atomic coordinate data resulting 
# from the CCDC's data processing and validation procedures.
#
#######################################################################

data_PELMOJ
_chemical_formula_moiety         'C14 H10 N4 O4'
_chemical_name_systematic        
(E,E)-1-(3-Nitrophenyl)-4-(4-nitrophenyl)-2,3-diaza-1,3-butadiene
_symmetry_cell_setting           monoclinic
_symmetry_space_group_name_H-M   'C 2/c'
_symmetry_Int_Tables_number      15
_space_group_name_Hall           '-C 2yn'
loop_
_symmetry_equiv_pos_site_id
_symmetry_equiv_pos_as_xyz
1 x,y,z
2 1/2+x,1/2+y,z
3 -x,y,1/2-z
4 1/2-x,1/2+y,1/2-z
5 -x,-y,-z
6 1/2-x,1/2-y,-z
7 x,-y,1/2+z
8 1/2+x,1/2-y,1/2+z
_cell_length_a                   30.865(3)
_cell_length_b                   4.7660(5)
_cell_length_c                   21.736(2)
_cell_angle_alpha                90
_cell_angle_beta                 123.926(2)
_cell_angle_gamma                90
_cell_volume                     2653.09
_exptl_crystal_colour            yellow
_exptl_crystal_description       lath
_chemical_melting_point          '480-483 K'
_cell_formula_units_Z            8
_exptl_crystal_recrystallization_method 1,2-dichloroethane
loop_
_atom_site_label
_atom_site_type_symbol
_atom_site_fract_x
_atom_site_fract_y
_atom_site_fract_z
O1 O 0.47646(6) -0.6159(3) 0.32018(8)
O2 O 0.47144(5) -0.8936(3) 0.39427(8)
O3 O 0.71080(5) 1.3799(3) 0.24123(7)
O4 O 0.78120(5) 1.3094(3) 0.34947(6)
N1 N 0.61784(6) 0.0894(3) 0.41626(8)
N2 N 0.49204(6) -0.6999(3) 0.38204(8)
N3 N 0.65162(6) 0.2929(3) 0.41794(7)
N4 N 0.73536(6) 1.2586(3) 0.30096(7)
C1 C 0.60740(6) -0.2324(3) 0.49114(9)
C2 C 0.56194(6) -0.3538(3) 0.43126(9)
C3 C 0.53815(6) -0.5646(3) 0.44561(9)
C4 C 0.55621(7) -0.6589(4) 0.51591(10)
C5 C 0.60081(7) -0.5358(4) 0.57473(9)
C6 C 0.62627(6) -0.3254(3) 0.56259(9)
C7 C 0.63593(6) -0.0149(3) 0.48018(9)
C8 C 0.65817(6) 0.6351(3) 0.34322(8)
C9 C 0.63189(7) 0.7801(3) 0.27598(9)
C10 C 0.65688(7) 0.9832(3) 0.26155(8)
C11 C 0.70876(6) 1.0414(3) 0.31580(8)
C12 C 0.73586(6) 0.9054(3) 0.38355(8)
C13 C 0.71045(6) 0.7001(3) 0.39661(9)
C14 C 0.63041(7) 0.4180(3) 0.35565(9)
H1 H 0.5478 -0.2925 0.3820
H2 H 0.5386 -0.8036 0.5237
H3 H 0.6142 -0.5958 0.6239
H4 H 0.6570 -0.2436 0.6036
H5 H 0.6685 0.0496 0.5214
H6 H 0.5963 0.7382 0.2397
H7 H 0.6390 1.0808 0.2156
H8 H 0.7711 0.9523 0.4202
H9 H 0.7287 0.6016 0.4424
H10 H 0.5959 0.3691 0.3165
loop_
_geom_bond_atom_site_label_1
_geom_bond_atom_site_label_2
_geom_bond_site_symmetry_1
_geom_bond_site_symmetry_2
O1 N2 1_555 1_555
O2 N2 1_555 1_555
O3 N4 1_555 1_555
O4 N4 1_555 1_555
N1 N3 1_555 1_555
N2 C3 1_555 1_555
N3 C14 1_555 1_555
N4 C11 1_555 1_555
C1 C2 1_555 1_555
C2 C3 1_555 1_555
C3 C4 1_555 1_555
C4 C5 1_555 1_555
C5 C6 1_555 1_555
C6 C1 1_555 1_555
C7 N1 1_555 1_555
C8 C9 1_555 1_555
C9 C10 1_555 1_555
C10 C11 1_555 1_555
C11 C12 1_555 1_555
C12 C13 1_555 1_555
C13 C8 1_555 1_555
C14 C8 1_555 1_555
H1 C2 1_555 1_555
H2 C4 1_555 1_555
H3 C5 1_555 1_555
H4 C6 1_555 1_555
H5 C7 1_555 1_555
H6 C9 1_555 1_555
H7 C10 1_555 1_555
H8 C12 1_555 1_555
H9 C13 1_555 1_555
H10 C14 1_555 1_555
C1 C7 1_555 1_555

#END
