
#######################################################################
#
#                 Cambridge Crystallographic Data Centre
#                                CCDC 
#
#######################################################################
#
# If this CIF has been generated from an entry in the Cambridge 
# Structural Database, then it will include bibliographic, chemical, 
# crystal, experimental, refinement or atomic coordinate data resulting 
# from the CCDC's data processing and validation procedures.
#
#######################################################################

data_PELMEZ
_chemical_formula_moiety         'C13 H8 Cl1 N3 O1'
_chemical_name_systematic        N-(4-Cyanophenyl)-2-chloronicotinamide
_symmetry_cell_setting           triclinic
_symmetry_space_group_name_H-M   'P -1'
_symmetry_Int_Tables_number      2
_space_group_name_Hall           '-P 1'
loop_
_symmetry_equiv_pos_site_id
_symmetry_equiv_pos_as_xyz
1 x,y,z
2 -x,-y,-z
_cell_length_a                   7.2885(3)
_cell_length_b                   7.7607(3)
_cell_length_c                   20.8849(9)
_cell_angle_alpha                96.456(2)
_cell_angle_beta                 92.913(2)
_cell_angle_gamma                91.810(2)
_cell_volume                     1171.49
_exptl_crystal_colour            colorless
_exptl_crystal_description       block
_chemical_melting_point          '445-446 K'
_cell_formula_units_Z            4
_exptl_crystal_recrystallization_method ethanol
loop_
_atom_site_label
_atom_site_type_symbol
_atom_site_fract_x
_atom_site_fract_y
_atom_site_fract_z
N1 N 0.4024(3) 0.5334(3) 0.41399(12)
C1 C 0.5406(4) 0.4277(4) 0.40989(14)
Cl1 Cl 0.74241(10) 0.51557(10) 0.38256(4)
C2 C 0.5387(4) 0.2603(4) 0.42747(14)
C3 C 0.3775(4) 0.2012(4) 0.45139(15)
C4 C 0.2276(4) 0.3077(4) 0.45524(15)
C5 C 0.2475(4) 0.4714(4) 0.43607(15)
C6 C 0.7039(4) 0.1471(4) 0.42314(14)
O1 O 0.7924(3) 0.1170(3) 0.47166(10)
N2 N 0.7375(3) 0.0842(3) 0.36189(12)
C7 C 0.8926(4) -0.0042(4) 0.33945(14)
C8 C 0.9149(4) -0.0138(4) 0.27334(15)
C9 C 1.0691(4) -0.0867(4) 0.24724(15)
C10 C 1.2018(4) -0.1517(4) 0.28771(15)
C11 C 1.3665(4) -0.2196(4) 0.26069(15)
N3 N 1.4970(4) -0.2700(4) 0.23738(14)
C12 C 1.1762(4) -0.1476(4) 0.35319(15)
C13 C 1.0208(4) -0.0761(4) 0.37956(15)
H1 H 0.3693 0.0887 0.4651
H2 H 0.1148 0.2689 0.4706
H3 H 0.1453 0.5443 0.4387
H4 H 0.6517 0.1005 0.3322
H5 H 0.8237 0.0299 0.2460
H6 H 1.0845 -0.0924 0.2022
H7 H 1.2659 -0.1942 0.3803
H8 H 1.0021 -0.0761 0.4242
N4 N -0.5598(3) 1.0705(3) 0.08089(12)
C14 C -0.4236(4) 0.9650(4) 0.08737(14)
Cl2 Cl -0.21001(10) 1.06368(10) 0.11310(4)
C15 C -0.4379(4) 0.7849(4) 0.07404(14)
C16 C -0.6107(4) 0.7128(4) 0.05231(15)
C17 C -0.7567(4) 0.8212(4) 0.04530(15)
C18 C -0.7249(4) 0.9975(4) 0.05984(15)
C19 C -0.2739(4) 0.6719(4) 0.07828(14)
O2 O -0.1832(3) 0.6369(3) 0.03110(10)
N5 N -0.2429(3) 0.6166(3) 0.13691(12)
C20 C -0.0939(4) 0.5220(4) 0.15886(14)
C21 C -0.0933(4) 0.4872(4) 0.22279(15)
C22 C 0.0521(4) 0.4041(4) 0.24920(15)
C23 C 0.1995(4) 0.3559(4) 0.21195(15)
C24 C 0.3543(4) 0.2754(4) 0.23969(15)
N6 N 0.4780(4) 0.2120(4) 0.26268(14)
C25 C 0.1955(4) 0.3863(4) 0.14756(14)
C26 C 0.0501(4) 0.4687(4) 0.12041(14)
H9 H -0.6284 0.5908 0.0424
H10 H -0.8757 0.7748 0.0308
H11 H -0.8248 1.0714 0.0547
H12 H -0.3263 0.6429 0.1651
H13 H -0.1931 0.5208 0.2483
H14 H 0.0516 0.3798 0.2928
H15 H 0.2940 0.3500 0.1218
H16 H 0.0481 0.4887 0.0763
loop_
_geom_bond_atom_site_label_1
_geom_bond_atom_site_label_2
_geom_bond_site_symmetry_1
_geom_bond_site_symmetry_2
N1 C1 1_555 1_555
C1 Cl1 1_555 1_555
C2 C1 1_555 1_555
C3 C2 1_555 1_555
C4 C3 1_555 1_555
C5 N1 1_555 1_555
C6 C2 1_555 1_555
O1 C6 1_555 1_555
N2 C6 1_555 1_555
C7 N2 1_555 1_555
C8 C7 1_555 1_555
C9 C8 1_555 1_555
C10 C9 1_555 1_555
C11 C10 1_555 1_555
N3 C11 1_555 1_555
C12 C10 1_555 1_555
C13 C7 1_555 1_555
N4 C14 1_555 1_555
C14 Cl2 1_555 1_555
C15 C14 1_555 1_555
C16 C15 1_555 1_555
C17 C16 1_555 1_555
C18 N4 1_555 1_555
C19 C15 1_555 1_555
O2 C19 1_555 1_555
N5 C19 1_555 1_555
C20 N5 1_555 1_555
C21 C20 1_555 1_555
C22 C21 1_555 1_555
C23 C22 1_555 1_555
C24 C23 1_555 1_555
N6 C24 1_555 1_555
C25 C23 1_555 1_555
C26 C20 1_555 1_555
H1 C3 1_555 1_555
H2 C4 1_555 1_555
H3 C5 1_555 1_555
H4 N2 1_555 1_555
H5 C8 1_555 1_555
H6 C9 1_555 1_555
H7 C12 1_555 1_555
H8 C13 1_555 1_555
H9 C16 1_555 1_555
H10 C17 1_555 1_555
H11 C18 1_555 1_555
H12 N5 1_555 1_555
H13 C21 1_555 1_555
H14 C22 1_555 1_555
H15 C25 1_555 1_555
H16 C26 1_555 1_555
C4 C5 1_555 1_555
C12 C13 1_555 1_555
C17 C18 1_555 1_555
C25 C26 1_555 1_555

#END
