
#######################################################################
#
#                 Cambridge Crystallographic Data Centre
#                                CCDC 
#
#######################################################################
#
# If this CIF has been generated from an entry in the Cambridge 
# Structural Database, then it will include bibliographic, chemical, 
# crystal, experimental, refinement or atomic coordinate data resulting 
# from the CCDC's data processing and validation procedures.
#
#######################################################################

data_PELMUP
_chemical_formula_moiety         'C14 H10 N4 O4'
_chemical_name_systematic        
(E,E)-1,4-bis(4-Nitrophenyl)-2,3-diaza-1,3-butadiene
_symmetry_cell_setting           monoclinic
_symmetry_space_group_name_H-M   'P 21/n'
_symmetry_Int_Tables_number      14
_space_group_name_Hall           '-P 2yn'
loop_
_symmetry_equiv_pos_site_id
_symmetry_equiv_pos_as_xyz
1 x,y,z
2 1/2-x,1/2+y,1/2-z
3 -x,-y,-z
4 1/2+x,1/2-y,1/2+z
_cell_length_a                   3.7318(2)
_cell_length_b                   7.2442(3)
_cell_length_c                   23.9367(10)
_cell_angle_alpha                90
_cell_angle_beta                 94.053(2)
_cell_angle_gamma                90
_cell_volume                     645.484
_exptl_crystal_colour            yellow
_exptl_crystal_description       lath
_chemical_melting_point          'above 500 K'
_cell_formula_units_Z            2
_exptl_crystal_recrystallization_method 1,2-dichloroethane
loop_
_atom_site_label
_atom_site_type_symbol
_atom_site_fract_x
_atom_site_fract_y
_atom_site_fract_z
O1 O 0.4336(3) 1.28743(16) 0.72674(4)
O2 O 0.1025(3) 1.38990(14) 0.65597(4)
N1 N 0.4502(3) 0.58742(16) 0.50989(5)
N2 N 0.2944(3) 1.27087(17) 0.67923(5)
C1 C 0.4796(4) 0.77966(19) 0.59139(6)
C2 C 0.5886(4) 0.7945(2) 0.64823(5)
C3 C 0.5298(4) 0.95619(19) 0.67713(5)
C4 C 0.3602(3) 1.10060(18) 0.64832(5)
C5 C 0.2477(4) 1.09149(19) 0.59169(6)
C6 C 0.3100(3) 0.92931(19) 0.56356(5)
C7 C 0.5506(4) 0.60798(19) 0.56165(6)
H1 H 0.7037 0.6931 0.6672
H2 H 0.6041 0.9675 0.7158
H3 H 0.1320 1.1933 0.5730
H4 H 0.2368 0.9192 0.5249
H5 H 0.6735 0.5102 0.5813
O1B O 0.5664(3) -0.28743(16) 0.27326(4)
O2B O 0.8975(3) -0.38990(14) 0.34403(4)
N1B N 0.5498(3) 0.41258(16) 0.49011(5)
N2B N 0.7056(3) -0.27087(17) 0.32077(5)
C1B C 0.5204(4) 0.22034(19) 0.40861(6)
C2B C 0.4114(4) 0.2055(2) 0.35177(5)
C3B C 0.4702(4) 0.04381(19) 0.32287(5)
C4B C 0.6398(3) -0.10060(18) 0.35168(5)
C5B C 0.7523(4) -0.09149(19) 0.40831(6)
C6B C 0.6900(3) 0.07069(19) 0.43644(5)
C7B C 0.4494(4) 0.39202(19) 0.43835(6)
H1B H 0.2963 0.3069 0.3328
H2B H 0.3959 0.0325 0.2842
H3B H 0.8680 -0.1933 0.4270
H4B H 0.7632 0.0808 0.4751
H5B H 0.3265 0.4898 0.4187
loop_
_geom_bond_atom_site_label_1
_geom_bond_atom_site_label_2
_geom_bond_site_symmetry_1
_geom_bond_site_symmetry_2
O1 N2 1_555 1_555
O2 N2 1_555 1_555
N1 C7 1_555 1_555
N2 C4 1_555 1_555
C1 C2 1_555 1_555
C2 C3 1_555 1_555
C3 C4 1_555 1_555
C4 C5 1_555 1_555
C5 C6 1_555 1_555
C6 C1 1_555 1_555
C7 C1 1_555 1_555
H1 C2 1_555 1_555
H2 C3 1_555 1_555
H3 C5 1_555 1_555
H4 C6 1_555 1_555
H5 C7 1_555 1_555
O1B N2B 1_555 1_555
O2B N2B 1_555 1_555
N1B N1 1_555 1_555
N2B C4B 1_555 1_555
C1B C2B 1_555 1_555
C2B C3B 1_555 1_555
C3B C4B 1_555 1_555
C4B C5B 1_555 1_555
C5B C6B 1_555 1_555
C6B C1B 1_555 1_555
C7B N1B 1_555 1_555
H1B C2B 1_555 1_555
H2B C3B 1_555 1_555
H3B C5B 1_555 1_555
H4B C6B 1_555 1_555
H5B C7B 1_555 1_555
C1B C7B 1_555 1_555

#END
