
#######################################################################
#
#                 Cambridge Crystallographic Data Centre
#                                CCDC 
#
#######################################################################
#
# If this CIF has been generated from an entry in the Cambridge 
# Structural Database, then it will include bibliographic, chemical, 
# crystal, experimental, refinement or atomic coordinate data resulting 
# from the CCDC's data processing and validation procedures.
#
#######################################################################

data_PELNUS
_chemical_formula_moiety         'C29 H29 N3 O7,H2 O1'
_chemical_name_systematic        
't-butyl {4-methoxy-3-[8-(4-nitrobenzene-1-carbonyl)-2,3,8,8a-tetrahydro-3aH-furo[2,3-b]indol-3a-yl]phenyl}carbamate monohydrate'
_symmetry_cell_setting           monoclinic
_symmetry_space_group_name_H-M   'P 21'
_symmetry_Int_Tables_number      4
_space_group_name_Hall           'P 2yb'
loop_
_symmetry_equiv_pos_site_id
_symmetry_equiv_pos_as_xyz
1 x,y,z
2 -x,1/2+y,-z
_cell_length_a                   13.172(3)
_cell_length_b                   6.6186(8)
_cell_length_c                   16.673(3)
_cell_angle_alpha                90
_cell_angle_beta                 112.481(18)
_cell_angle_gamma                90
_cell_volume                     1343.09
_exptl_crystal_colour            colorless
_exptl_crystal_description       block
_cell_formula_units_Z            2
loop_
_atom_site_label
_atom_site_type_symbol
_atom_site_fract_x
_atom_site_fract_y
_atom_site_fract_z
O1 O 0.60629(18) 0.8163(3) 0.17263(14)
O2 O 0.47927(17) 0.5129(3) 0.27310(14)
O3 O 0.9446(2) 0.5939(5) 0.2714(2)
O4 O 0.7307(3) -0.1899(5) -0.0024(2)
O5 O 0.5711(3) -0.0482(5) -0.0541(2)
O6 O 0.71507(19) 0.2872(3) 0.68741(14)
O7 O 0.81070(19) 0.5536(4) 0.76779(14)
N1 N 0.7832(2) 0.7098(4) 0.27083(18)
N2 N 0.7363(2) 0.5858(4) 0.62628(17)
H1 H 0.770714 0.699208 0.638310
N3 N 0.6667(3) -0.0537(5) -0.0037(2)
C1 C 0.6640(2) 0.7013(5) 0.2485(2)
H2 H 0.637765 0.561300 0.241919
C2 C 0.6457(2) 0.8076(5) 0.3248(2)
C3 C 0.5477(3) 0.9485(5) 0.2786(2)
H3 H 0.478249 0.879844 0.266212
H4 H 0.550540 1.068455 0.312770
C4 C 0.5644(3) 1.0001(5) 0.1955(2)
H5 H 0.495502 1.039249 0.149868
H6 H 0.616687 1.109666 0.205234
C5 C 0.7501(3) 0.9308(5) 0.3644(2)
C6 C 0.8293(3) 0.8647(5) 0.3333(2)
C7 C 0.9323(3) 0.9563(6) 0.3608(2)
H7 H 0.986100 0.910170 0.341890
C8 C 0.9520(3) 1.1187(7) 0.4174(3)
H8 H 1.020210 1.181752 0.436598
C9 C 0.8729(3) 1.1894(6) 0.4461(3)
H9 H 0.887565 1.300877 0.482781
C10 C 0.7718(3) 1.0937(6) 0.4200(2)
H10 H 0.718803 1.139091 0.439976
C11 C 0.6258(2) 0.6624(5) 0.3891(2)
C12 C 0.6899(3) 0.6719(5) 0.4771(2)
H11 H 0.748376 0.762251 0.496379
C13 C 0.6693(2) 0.5496(5) 0.5379(2)
C14 C 0.5827(3) 0.4152(5) 0.5097(2)
H12 H 0.567505 0.333937 0.549233
C15 C 0.5181(3) 0.4024(5) 0.4210(2)
H13 H 0.459968 0.311216 0.401810
C16 C 0.5390(2) 0.5228(5) 0.3616(2)
C17 C 0.3804(3) 0.3960(5) 0.2443(2)
H14 H 0.397815 0.257237 0.260513
H15 H 0.344678 0.405690 0.182307
H16 H 0.332255 0.446580 0.270721
C18 C 0.8438(3) 0.5815(5) 0.2426(2)
C19 C 0.7889(3) 0.4220(5) 0.1766(2)
C20 C 0.6881(3) 0.4417(5) 0.1064(2)
H17 H 0.647879 0.560358 0.099603
C21 C 0.6478(3) 0.2864(6) 0.0472(2)
H18 H 0.580990 0.299107 0.000424
C22 C 0.7096(3) 0.1114(6) 0.0594(2)
C23 C 0.8091(3) 0.0882(6) 0.1268(3)
H19 H 0.848890 -0.030926 0.133257
C24 C 0.8490(3) 0.2448(6) 0.1847(3)
H20 H 0.917137 0.232000 0.229929
C25 C 0.7512(2) 0.4591(5) 0.6933(2)
C26 C 0.8519(3) 0.4432(6) 0.8515(2)
C27 C 0.7563(3) 0.3851(6) 0.8763(3)
H21 H 0.715595 0.504118 0.878229
H22 H 0.783748 0.321768 0.932367
H23 H 0.709084 0.292790 0.834066
C28 C 0.9197(3) 0.2631(7) 0.8456(3)
H24 H 0.871660 0.157157 0.813228
H25 H 0.962927 0.215558 0.902962
H26 H 0.967355 0.302362 0.816878
C29 C 0.9216(3) 0.6015(7) 0.9130(2)
H27 H 0.979432 0.642698 0.894955
H28 H 0.952856 0.546377 0.970605
H29 H 0.876854 0.716223 0.912766
O8 O 0.8335(2) 0.9735(4) 0.64137(18)
H30 H 0.898(4) 1.006(9) 0.670(3)
H31 H 0.785(4) 1.075(9) 0.649(3)
loop_
_geom_bond_atom_site_label_1
_geom_bond_atom_site_label_2
_geom_bond_site_symmetry_1
_geom_bond_site_symmetry_2
O1 C1 1_555 1_555
O2 C16 1_555 1_555
O3 C18 1_555 1_555
O4 N3 1_555 1_555
O5 N3 1_555 1_555
O6 C25 1_555 1_555
O7 C25 1_555 1_555
N1 C1 1_555 1_555
N2 H1 1_555 1_555
N3 C22 1_555 1_555
C1 H2 1_555 1_555
C2 C1 1_555 1_555
C3 C2 1_555 1_555
H3 C3 1_555 1_555
H4 C3 1_555 1_555
C4 O1 1_555 1_555
H5 C4 1_555 1_555
H6 C4 1_555 1_555
C5 C2 1_555 1_555
C6 N1 1_555 1_555
C7 C6 1_555 1_555
H7 C7 1_555 1_555
C8 C7 1_555 1_555
H8 C8 1_555 1_555
C9 C8 1_555 1_555
H9 C9 1_555 1_555
C10 C5 1_555 1_555
H10 C10 1_555 1_555
C11 C2 1_555 1_555
C12 C11 1_555 1_555
H11 C12 1_555 1_555
C13 N2 1_555 1_555
C14 C13 1_555 1_555
H12 C14 1_555 1_555
C15 C14 1_555 1_555
H13 C15 1_555 1_555
C16 C11 1_555 1_555
C17 O2 1_555 1_555
H14 C17 1_555 1_555
H15 C17 1_555 1_555
H16 C17 1_555 1_555
C18 N1 1_555 1_555
C19 C18 1_555 1_555
C20 C19 1_555 1_555
H17 C20 1_555 1_555
C21 C20 1_555 1_555
H18 C21 1_555 1_555
C22 C21 1_555 1_555
C23 C22 1_555 1_555
H19 C23 1_555 1_555
C24 C19 1_555 1_555
H20 C24 1_555 1_555
C25 N2 1_555 1_555
C26 O7 1_555 1_555
C27 C26 1_555 1_555
H21 C27 1_555 1_555
H22 C27 1_555 1_555
H23 C27 1_555 1_555
C28 C26 1_555 1_555
H24 C28 1_555 1_555
H25 C28 1_555 1_555
H26 C28 1_555 1_555
C29 C26 1_555 1_555
H27 C29 1_555 1_555
H28 C29 1_555 1_555
H29 C29 1_555 1_555
O8 H30 1_555 1_555
H31 O8 1_555 1_555
C3 C4 1_555 1_555
C5 C6 1_555 1_555
C9 C10 1_555 1_555
C12 C13 1_555 1_555
C15 C16 1_555 1_555
C23 C24 1_555 1_555

#END
