
#######################################################################
#
#                 Cambridge Crystallographic Data Centre
#                                CCDC 
#
#######################################################################
#
# If this CIF has been generated from an entry in the Cambridge 
# Structural Database, then it will include bibliographic, chemical, 
# crystal, experimental, refinement or atomic coordinate data resulting 
# from the CCDC's data processing and validation procedures.
#
#######################################################################

data_PELNAW
_chemical_name_common            'Penicillin G sulfoxide'
_chemical_formula_moiety         'C16 H18 N2 O5 S1'
_chemical_name_systematic        
'1-Oxo-6-(2-phenylacetylamino)-1-penicillanic acid'
_symmetry_cell_setting           trigonal
_symmetry_space_group_name_H-M   'P 32'
_symmetry_Int_Tables_number      145
_space_group_name_Hall           'P 32'
loop_
_symmetry_equiv_pos_site_id
_symmetry_equiv_pos_as_xyz
1 x,y,z
2 -y,x-y,2/3+z
3 -x+y,-x,1/3+z
_cell_length_a                   11.6285(12)
_cell_length_b                   11.6285(12)
_cell_length_c                   10.894(2)
_cell_angle_alpha                90
_cell_angle_beta                 90
_cell_angle_gamma                120
_cell_volume                     1275.75
_exptl_crystal_colour            colorless
_exptl_crystal_description       block
_chemical_melting_point          'decomposes above 333 K'
_cell_formula_units_Z            3
_exptl_crystal_recrystallization_method methanol
loop_
_atom_site_label
_atom_site_type_symbol
_atom_site_fract_x
_atom_site_fract_y
_atom_site_fract_z
S1 S 0.61963(8) 0.71239(8) 0.25230(7)
O1 O 0.1857(2) 0.3406(2) 0.3183(2)
O2 O 0.4973(2) 0.6873(2) 0.5998(2)
O3 O 0.5680(2) 0.7951(2) 0.3076(2)
O4 O 0.8383(2) 0.6094(3) 0.5536(3)
O5 O 0.9639(2) 0.8287(2) 0.5425(3)
H1 H 1.0149 0.8171 0.5859
N1 N 0.3236(2) 0.5574(2) 0.3515(2)
H2 H 0.3383 0.6373 0.3439
N2 N 0.6173(2) 0.6234(2) 0.4688(2)
C1 C -0.0945(4) 0.4248(4) 0.3437(4)
H3 H -0.0511 0.5038 0.3877
C2 C -0.2271(5) 0.3398(6) 0.3644(5)
H4 H -0.2730 0.3609 0.4216
C3 C -0.2907(5) 0.2239(7) 0.2999(8)
H5 H -0.3810 0.1658 0.3116
C4 C -0.2213(6) 0.1943(5) 0.2190(8)
H6 H -0.2642 0.1135 0.1778
C5 C -0.0892(4) 0.2801(4) 0.1957(5)
H7 H -0.0445 0.2592 0.1370
C6 C -0.0243(3) 0.3963(3) 0.2598(3)
C7 C 0.1212(3) 0.4926(4) 0.2383(3)
H8 H 0.1393 0.4970 0.1510
H9 H 0.1412 0.5803 0.2648
C8 C 0.2113(3) 0.4554(3) 0.3048(3)
C9 C 0.4179(3) 0.5340(3) 0.4132(3)
H10 H 0.3735 0.4426 0.4440
C10 C 0.5522(3) 0.5668(3) 0.3520(3)
H11 H 0.5589 0.4910 0.3217
C11 C 0.5074(3) 0.6279(3) 0.5138(3)
C12 C 0.7512(3) 0.7378(3) 0.4626(3)
H12 H 0.7507 0.8130 0.5027
C13 C 0.8534(3) 0.7144(4) 0.5260(3)
C14 C 0.7842(3) 0.7723(3) 0.3235(3)
C15 C 0.8652(4) 0.9207(4) 0.3011(4)
H13 H 0.9520 0.9549 0.3361
H14 H 0.8217 0.9635 0.3386
H15 H 0.8730 0.9377 0.2144
C16 C 0.8453(3) 0.6975(4) 0.2632(4)
H16 H 0.8420 0.7042 0.1756
H17 H 0.7965 0.6057 0.2869
H18 H 0.9360 0.7352 0.2889
loop_
_geom_bond_atom_site_label_1
_geom_bond_atom_site_label_2
_geom_bond_site_symmetry_1
_geom_bond_site_symmetry_2
S1 O3 1_555 1_555
O1 C8 1_555 1_555
O2 C11 1_555 1_555
O4 C13 1_555 1_555
O5 H1 1_555 1_555
N1 H2 1_555 1_555
N2 C10 1_555 1_555
C1 H3 1_555 1_555
C2 C1 1_555 1_555
H4 C2 1_555 1_555
C3 C2 1_555 1_555
H5 C3 1_555 1_555
C4 C3 1_555 1_555
H6 C4 1_555 1_555
C5 C4 1_555 1_555
H7 C5 1_555 1_555
C6 C1 1_555 1_555
C7 C6 1_555 1_555
H8 C7 1_555 1_555
H9 C7 1_555 1_555
C8 N1 1_555 1_555
C9 N1 1_555 1_555
H10 C9 1_555 1_555
C10 S1 1_555 1_555
H11 C10 1_555 1_555
C11 N2 1_555 1_555
C12 N2 1_555 1_555
H12 C12 1_555 1_555
C13 O5 1_555 1_555
C14 S1 1_555 1_555
C15 C14 1_555 1_555
H13 C15 1_555 1_555
H14 C15 1_555 1_555
H15 C15 1_555 1_555
C16 C14 1_555 1_555
H16 C16 1_555 1_555
H17 C16 1_555 1_555
H18 C16 1_555 1_555
C5 C6 1_555 1_555
C7 C8 1_555 1_555
C9 C10 1_555 1_555
C9 C11 1_555 1_555
C12 C13 1_555 1_555
C12 C14 1_555 1_555

#END
