
#######################################################################
#
#                 Cambridge Crystallographic Data Centre
#                                CCDC 
#
#######################################################################
#
# If this CIF has been generated from an entry in the Cambridge 
# Structural Database, then it will include bibliographic, chemical, 
# crystal, experimental, refinement or atomic coordinate data resulting 
# from the CCDC's data processing and validation procedures.
#
#######################################################################

data_PELPUT
_chemical_formula_moiety         'C36 H27 N1 O1'
_chemical_name_systematic        
2-(4-Methoxyphenyl)-3-(4-(triphenylvinyl)phenyl)acrylonitrile
_symmetry_cell_setting           monoclinic
_symmetry_space_group_name_H-M   'P 21/c'
_symmetry_Int_Tables_number      14
_space_group_name_Hall           '-P 2ybc'
loop_
_symmetry_equiv_pos_site_id
_symmetry_equiv_pos_as_xyz
1 x,y,z
2 -x,1/2+y,1/2-z
3 -x,-y,-z
4 x,1/2-y,1/2+z
_cell_length_a                   26.602(4)
_cell_length_b                   5.8933(9)
_cell_length_c                   17.336(3)
_cell_angle_alpha                90
_cell_angle_beta                 101.602(3)
_cell_angle_gamma                90
_cell_volume                     2662.3
_exptl_crystal_colour            light
_exptl_crystal_description       block
_cell_formula_units_Z            4
loop_
_atom_site_label
_atom_site_type_symbol
_atom_site_fract_x
_atom_site_fract_y
_atom_site_fract_z
C1 C 1.05869(5) 0.5684(2) 1.19818(8)
C2 C 1.04272(5) 0.7332(2) 1.14174(8)
H1 H 1.0631 0.8643 1.1392
C3 C 0.99632(5) 0.7041(2) 1.08873(8)
H2 H 0.9853 0.8178 1.0502
C4 C 0.96561(5) 0.5137(2) 1.09053(7)
C5 C 0.98325(5) 0.3488(2) 1.14775(8)
H3 H 0.9634 0.2158 1.1499
C6 C 1.02885(5) 0.3756(2) 1.20102(8)
H4 H 1.0399 0.2625 1.2397
C7 C 0.91588(5) 0.4896(2) 1.03400(7)
C8 C 0.90437(5) 0.6670(2) 0.97579(8)
C9 C 0.88220(5) 0.3192(2) 1.03640(8)
H5 H 0.8932 0.2120 1.0773
C10 C 0.83197(5) 0.2703(2) 0.98740(7)
C11 C 0.81119(5) 0.3705(2) 0.91470(8)
H6 H 0.8303 0.4823 0.8935
C12 C 0.76311(5) 0.3083(2) 0.87345(8)
H7 H 0.7501 0.3765 0.8238
C13 C 0.73326(5) 0.1484(2) 0.90277(7)
C14 C 0.75373(5) 0.0492(2) 0.97549(8)
H8 H 0.7341 -0.0586 0.9974
C15 C 0.80218(5) 0.1063(2) 1.01571(8)
H9 H 0.8158 0.0322 1.0641
C16 C 0.68034(5) 0.0931(2) 0.85983(7)
C17 C 0.64049(5) 0.1151(2) 0.90897(7)
C18 C 0.63785(5) 0.3121(2) 0.95251(8)
H10 H 0.6608 0.4338 0.9493
C19 C 0.60213(5) 0.3324(3) 1.00042(8)
H11 H 0.6002 0.4687 1.0290
C20 C 0.56921(6) 0.1543(3) 1.00671(8)
H12 H 0.5450 0.1676 1.0400
C21 C 0.57171(6) -0.0429(3) 0.96440(8)
H13 H 0.5493 -0.1655 0.9688
C22 C 0.60686(5) -0.0620(2) 0.91561(8)
H14 H 0.6081 -0.1975 0.8863
C23 C 0.66932(5) 0.0299(2) 0.78327(7)
C24 C 0.70962(5) -0.0285(2) 0.73804(8)
C25 C 0.70528(5) 0.0458(3) 0.66039(8)
H15 H 0.6769 0.1376 0.6370
C26 C 0.74180(6) -0.0125(3) 0.61697(8)
H16 H 0.7383 0.0397 0.5643
C27 C 0.78317(6) -0.1460(3) 0.64996(9)
H17 H 0.8081 -0.1859 0.6201
C28 C 0.78814(6) -0.2218(2) 0.72687(9)
H18 H 0.8166 -0.3136 0.7498
C29 C 0.75172(5) -0.1637(2) 0.77027(8)
H19 H 0.7554 -0.2167 0.8229
C30 C 0.61520(5) 0.0124(2) 0.73840(7)
C31 C 0.59858(5) -0.1809(2) 0.69423(8)
H20 H 0.6219 -0.3019 0.6922
C32 C 0.54816(5) -0.1981(3) 0.65309(8)
H21 H 0.5371 -0.3317 0.6239
C33 C 0.51411(5) -0.0218(3) 0.65446(8)
H22 H 0.4797 -0.0345 0.6264
C34 C 0.53024(5) 0.1732(3) 0.69671(8)
H23 H 0.5071 0.2957 0.6971
C35 C 0.58042(5) 0.1893(2) 0.73853(7)
H24 H 0.5913 0.3231 0.7677
C36 C 1.13292(5) 0.7819(3) 1.25631(9)
H25 H 1.1418 0.8081 1.2049
H26 H 1.1644 0.7670 1.2965
H27 H 1.1127 0.9101 1.2694
N1 N 0.89630(5) 0.8121(2) 0.93092(8)
O1 O 1.10342(4) 0.57796(17) 1.25354(6)
loop_
_geom_bond_atom_site_label_1
_geom_bond_atom_site_label_2
_geom_bond_site_symmetry_1
_geom_bond_site_symmetry_2
C1 C2 1_555 1_555
C2 H1 1_555 1_555
C3 C2 1_555 1_555
H2 C3 1_555 1_555
C4 C3 1_555 1_555
C5 C4 1_555 1_555
H3 C5 1_555 1_555
C6 C1 1_555 1_555
H4 C6 1_555 1_555
C7 C4 1_555 1_555
C8 C7 1_555 1_555
C9 C7 1_555 1_555
H5 C9 1_555 1_555
C10 C9 1_555 1_555
C11 C10 1_555 1_555
H6 C11 1_555 1_555
C12 C11 1_555 1_555
H7 C12 1_555 1_555
C13 C12 1_555 1_555
C14 C13 1_555 1_555
H8 C14 1_555 1_555
C15 C10 1_555 1_555
H9 C15 1_555 1_555
C16 C13 1_555 1_555
C17 C16 1_555 1_555
C18 C17 1_555 1_555
H10 C18 1_555 1_555
C19 C18 1_555 1_555
H11 C19 1_555 1_555
C20 C19 1_555 1_555
H12 C20 1_555 1_555
C21 C20 1_555 1_555
H13 C21 1_555 1_555
C22 C17 1_555 1_555
H14 C22 1_555 1_555
C23 C16 1_555 1_555
C24 C23 1_555 1_555
C25 C24 1_555 1_555
H15 C25 1_555 1_555
C26 C25 1_555 1_555
H16 C26 1_555 1_555
C27 C26 1_555 1_555
H17 C27 1_555 1_555
C28 C27 1_555 1_555
H18 C28 1_555 1_555
C29 C24 1_555 1_555
H19 C29 1_555 1_555
C30 C23 1_555 1_555
C31 C30 1_555 1_555
H20 C31 1_555 1_555
C32 C31 1_555 1_555
H21 C32 1_555 1_555
C33 C32 1_555 1_555
H22 C33 1_555 1_555
C34 C33 1_555 1_555
H23 C34 1_555 1_555
C35 C30 1_555 1_555
H24 C35 1_555 1_555
C36 H25 1_555 1_555
H26 C36 1_555 1_555
H27 C36 1_555 1_555
N1 C8 1_555 1_555
O1 C1 1_555 1_555
C5 C6 1_555 1_555
C14 C15 1_555 1_555
C21 C22 1_555 1_555
C28 C29 1_555 1_555
C34 C35 1_555 1_555
C36 O1 1_555 1_555

#END
