
#######################################################################
#
#                 Cambridge Crystallographic Data Centre
#                                CCDC 
#
#######################################################################
#
# If this CIF has been generated from an entry in the Cambridge 
# Structural Database, then it will include bibliographic, chemical, 
# crystal, experimental, refinement or atomic coordinate data resulting 
# from the CCDC's data processing and validation procedures.
#
#######################################################################

data_PELPAY
_chemical_formula_moiety         'C20 H20 N4 O3'
_chemical_name_systematic        
N'-(2,3-Dimethoxybenzylidene)-5-methyl-1-phenyl-1H-pyrazole-4-carbohydrazide
_symmetry_cell_setting           monoclinic
_symmetry_space_group_name_H-M   'P 21/c'
_symmetry_Int_Tables_number      14
_space_group_name_Hall           '-P 2ybc'
loop_
_symmetry_equiv_pos_site_id
_symmetry_equiv_pos_as_xyz
1 x,y,z
2 -x,1/2+y,1/2-z
3 -x,-y,-z
4 x,1/2-y,1/2+z
_cell_length_a                   6.962(2)
_cell_length_b                   16.343(5)
_cell_length_c                   16.934(5)
_cell_angle_alpha                90
_cell_angle_beta                 101.803(6)
_cell_angle_gamma                90
_cell_volume                     1886.01
_exptl_crystal_colour            colorless
_exptl_crystal_description       prism
_chemical_melting_point          '461 K'
_cell_formula_units_Z            4
_exptl_crystal_recrystallization_method ethanol
loop_
_atom_site_label
_atom_site_type_symbol
_atom_site_fract_x
_atom_site_fract_y
_atom_site_fract_z
O1 O 0.9369(4) 0.10408(16) 0.50956(18)
O2 O 0.5387(4) -0.26845(16) 0.36449(16)
O3 O 0.2444(4) -0.33956(17) 0.26266(17)
N1 N 0.4737(5) 0.26481(18) 0.42658(19)
N2 N 0.3253(5) 0.2096(2) 0.4044(2)
N3 N 0.7389(5) 0.0045(2) 0.4509(2)
H1 H 0.848(6) -0.028(2) 0.463(2)
N4 N 0.5697(5) -0.0229(2) 0.40197(19)
C1 C 0.3015(6) 0.3840(3) 0.4615(3)
H2 H 0.2517 0.3524 0.4984
C2 C 0.2516(7) 0.4656(3) 0.4504(3)
H3 H 0.1672 0.4892 0.4800
C3 C 0.3251(8) 0.5118(3) 0.3963(3)
H4 H 0.2916 0.5668 0.3895
C4 C 0.4478(8) 0.4775(3) 0.3522(3)
H5 H 0.4966 0.5090 0.3150
C5 C 0.4990(7) 0.3964(3) 0.3629(3)
H6 H 0.5833 0.3729 0.3332
C6 C 0.4256(6) 0.3505(2) 0.4173(3)
C7 C 0.8298(6) 0.2778(2) 0.4862(3)
H7 H 0.9325 0.2619 0.4592
H8 H 0.8706 0.2678 0.5430
H9 H 0.8022 0.3350 0.4772
C8 C 0.6496(6) 0.2293(2) 0.4538(2)
C9 C 0.6170(6) 0.1453(2) 0.4463(2)
C10 C 0.4143(6) 0.1387(2) 0.4158(2)
H10 H 0.3497 0.0889 0.4049
C11 C 0.7724(6) 0.0845(2) 0.4701(2)
C12 C 0.5619(6) -0.1002(2) 0.3892(2)
H11 H 0.6665 -0.1333 0.4132
C13 C 0.3914(6) -0.1367(2) 0.3377(2)
C14 C 0.2314(6) -0.0900(2) 0.3000(2)
H12 H 0.2300 -0.0340 0.3095
C15 C 0.0757(7) -0.1259(3) 0.2488(3)
H13 H -0.0302 -0.0939 0.2241
C16 C 0.0741(6) -0.2098(3) 0.2332(3)
H14 H -0.0306 -0.2336 0.1978
C17 C 0.2312(6) -0.2567(2) 0.2713(2)
C18 C 0.3872(6) -0.2201(2) 0.3240(2)
C19 C 0.6734(7) -0.2950(3) 0.3170(3)
H15 H 0.6024 -0.3179 0.2674
H16 H 0.7589 -0.3358 0.3461
H17 H 0.7498 -0.2493 0.3056
C20 C 0.0839(7) -0.3802(3) 0.2118(3)
H18 H -0.0306 -0.3759 0.2349
H19 H 0.1160 -0.4368 0.2070
H20 H 0.0584 -0.3552 0.1594
loop_
_geom_bond_atom_site_label_1
_geom_bond_atom_site_label_2
_geom_bond_site_symmetry_1
_geom_bond_site_symmetry_2
O1 C11 1_555 1_555
O2 C18 1_555 1_555
O3 C17 1_555 1_555
N1 N2 1_555 1_555
N2 C10 1_555 1_555
N3 H1 1_555 1_555
N4 N3 1_555 1_555
C1 H2 1_555 1_555
C2 C1 1_555 1_555
H3 C2 1_555 1_555
C3 C2 1_555 1_555
H4 C3 1_555 1_555
C4 C3 1_555 1_555
H5 C4 1_555 1_555
C5 C4 1_555 1_555
H6 C5 1_555 1_555
C6 N1 1_555 1_555
C7 H7 1_555 1_555
H8 C7 1_555 1_555
H9 C7 1_555 1_555
C8 N1 1_555 1_555
C9 C8 1_555 1_555
C10 C9 1_555 1_555
H10 C10 1_555 1_555
C11 N3 1_555 1_555
C12 N4 1_555 1_555
H11 C12 1_555 1_555
C13 C12 1_555 1_555
C14 C13 1_555 1_555
H12 C14 1_555 1_555
C15 C14 1_555 1_555
H13 C15 1_555 1_555
C16 C15 1_555 1_555
H14 C16 1_555 1_555
C17 C16 1_555 1_555
C18 C13 1_555 1_555
C19 O2 1_555 1_555
H15 C19 1_555 1_555
H16 C19 1_555 1_555
H17 C19 1_555 1_555
C20 O3 1_555 1_555
H18 C20 1_555 1_555
H19 C20 1_555 1_555
H20 C20 1_555 1_555
C1 C6 1_555 1_555
C5 C6 1_555 1_555
C7 C8 1_555 1_555
C9 C11 1_555 1_555
C17 C18 1_555 1_555

#END
