
#######################################################################
#
#                 Cambridge Crystallographic Data Centre
#                                CCDC 
#
#######################################################################
#
# If this CIF has been generated from an entry in the Cambridge 
# Structural Database, then it will include bibliographic, chemical, 
# crystal, experimental, refinement or atomic coordinate data resulting 
# from the CCDC's data processing and validation procedures.
#
#######################################################################

data_PELSEH
_chemical_formula_moiety         'C156 H168 N16,5(C1 H1 Cl3),3(H2 O1)'
_chemical_name_systematic        
'1^2^,1^4^,1^6^,13^2^,13^4^,13^6^,25^2^,25^4^,25^6^,37^2^,37^4^,37^6^-dodecaethyl-4,7,10,16,19,22,28,31,34,40,43,46,51,56,61,66-hexadecaaza-1,13,25,37(1,3,5),2,12,14,24,26,36,38,48,49,58,59,64(1,4)-hexadecabenzenapentacyclo[29.17.5.5^7,25^.5^13,43^.5^19,37^]octahexaconta-3,10,15,22,27,34,39,46,50,56,60,65-dodecaene chloroform unknown solvate trihydrate'
_symmetry_cell_setting           tetragonal
_symmetry_space_group_name_H-M   'I -4'
_symmetry_Int_Tables_number      82
_space_group_name_Hall           'I -4'
loop_
_symmetry_equiv_pos_site_id
_symmetry_equiv_pos_as_xyz
1 x,y,z
2 -x,-y,z
3 y,-x,-z
4 -y,x,-z
5 1/2+x,1/2+y,1/2+z
6 1/2-x,1/2-y,1/2+z
7 1/2+y,1/2-x,1/2-z
8 1/2-y,1/2+x,1/2-z
_cell_length_a                   38.1818(3)
_cell_length_b                   38.1818(3)
_cell_length_c                   25.3228(5)
_cell_angle_alpha                90
_cell_angle_beta                 90
_cell_angle_gamma                90
_cell_volume                     36916.8
_exptl_crystal_colour            colorless
_exptl_crystal_description       block
_cell_formula_units_Z            8
loop_
_atom_site_label
_atom_site_type_symbol
_atom_site_fract_x
_atom_site_fract_y
_atom_site_fract_z
N1 N 0.19581(10) 0.46023(10) 0.81528(15)
N2 N 0.26087(10) 0.45332(9) 0.73891(15)
N3 N 0.14959(11) 0.49679(12) 0.72955(17)
N4 N 0.22343(12) 0.52673(11) 0.86892(17)
N5 N 0.08147(11) 0.83876(11) 0.47940(17)
N6 N 0.07559(10) 0.79119(12) 0.57835(16)
N7 N 0.10865(12) 0.77986(11) 0.40337(17)
N8 N 0.15760(12) 0.86469(13) 0.5042(2)
N9 N 0.48137(13) 0.81932(16) 0.8000(2)
N10 N 0.46747(13) 0.73933(14) 0.8156(2)
N11 N 0.40161(12) 0.83769(13) 0.7966(2)
N12 N 0.49332(12) 0.81385(15) 0.6780(2)
N13 N 0.40752(11) 0.57569(10) 0.21188(14)
N14 N 0.35089(11) 0.53129(10) 0.26789(15)
N15 N 0.45100(11) 0.58756(11) 0.31454(16)
N16 N 0.36791(13) 0.64697(10) 0.22106(15)
C1 C 0.21959(12) 0.43061(11) 0.80595(19)
H1 H 0.2073 0.4085 0.8148
H2 H 0.2400 0.4328 0.8298
C2 C 0.23241(12) 0.42866(12) 0.7493(2)
H3 H 0.2406 0.4046 0.7418
H4 H 0.2127 0.4338 0.7252
C3 C 0.25686(12) 0.47513(11) 0.70194(18)
H5 H 0.2353 0.4749 0.6833
C4 C 0.28360(11) 0.50092(11) 0.68594(16)
C5 C 0.31755(12) 0.50013(12) 0.70378(19)
H6 H 0.3246 0.4825 0.7281
C6 C 0.34208(12) 0.52518(12) 0.68629(18)
H7 H 0.3656 0.5241 0.6985
C7 C 0.33227(11) 0.55133(10) 0.65143(16)
C8 C 0.29810(11) 0.55235(11) 0.63399(17)
H8 H 0.2910 0.5705 0.6107
C9 C 0.27360(12) 0.52702(11) 0.65009(16)
H9 H 0.2504 0.5276 0.6367
C10 C 0.35864(11) 0.57823(11) 0.63193(17)
C11 C 0.37114(10) 0.60375(10) 0.66636(16)
C12 C 0.39519(11) 0.62957(10) 0.64701(17)
C13 C 0.40667(10) 0.62821(11) 0.59480(16)
C14 C 0.39354(11) 0.60241(11) 0.56078(16)
C15 C 0.36965(11) 0.57659(10) 0.57889(16)
C16 C 0.36070(15) 0.60396(14) 0.72433(18)
H10 H 0.3551 0.6283 0.7349
H11 H 0.3392 0.5898 0.7287
C17 C 0.3888(2) 0.5898(2) 0.7607(2)
H12 H 0.3955 0.5662 0.7493
H13 H 0.3798 0.5888 0.7969
H14 H 0.4094 0.6052 0.7595
C18 C 0.43469(14) 0.65390(14) 0.57584(18)
H15 H 0.4288 0.6617 0.5396
H16 H 0.4344 0.6748 0.5990
C19 C 0.47090(15) 0.6386(2) 0.5757(3)
H17 H 0.4716 0.6184 0.5518
H18 H 0.4771 0.6311 0.6115
H19 H 0.4876 0.6564 0.5637
C20 C 0.35705(14) 0.54752(11) 0.54354(17)
H20 H 0.3614 0.5541 0.5063
H21 H 0.3315 0.5446 0.5482
C21 C 0.3752(2) 0.51259(14) 0.5550(2)
H22 H 0.3636 0.4939 0.5351
H23 H 0.3737 0.5075 0.5929
H24 H 0.3998 0.5140 0.5444
C22 C 0.40738(11) 0.65740(11) 0.68371(16)
C23 C 0.44106(12) 0.65848(13) 0.70410(18)
H25 H 0.4573 0.6410 0.6938
C24 C 0.45185(12) 0.68456(13) 0.73938(19)
H26 H 0.4754 0.6850 0.7516
C25 C 0.42801(11) 0.71006(13) 0.75669(17)
C26 C 0.39444(12) 0.70902(12) 0.73601(18)
H27 H 0.3779 0.7261 0.7471
C27 C 0.38409(11) 0.68394(11) 0.69979(18)
H28 H 0.3611 0.6846 0.6856
C28 C 0.43752(13) 0.73720(14) 0.7957(2)
H29 H 0.4202 0.7537 0.8062
C29 C 0.47242(18) 0.76690(19) 0.8562(3)
H30 H 0.4812 0.7561 0.8891
H31 H 0.4496 0.7780 0.8640
C30 C 0.49769(16) 0.79430(19) 0.8381(3)
H32 H 0.5064 0.8074 0.8691
H33 H 0.5180 0.7828 0.8210
C31 C 0.40387(11) 0.60304(11) 0.50320(16)
C32 C 0.42564(12) 0.57715(12) 0.48118(18)
H34 H 0.4342 0.5586 0.5026
C33 C 0.43478(12) 0.57887(12) 0.42732(17)
H35 H 0.4483 0.5605 0.4122
C34 C 0.42454(12) 0.60651(11) 0.39612(17)
C35 C 0.40277(12) 0.63239(12) 0.41832(17)
H36 H 0.3949 0.6514 0.3971
C36 C 0.39266(11) 0.63039(12) 0.47114(18)
H37 H 0.3779 0.6480 0.4855
C37 C 0.43418(12) 0.61069(13) 0.34048(18)
H38 H 0.4276 0.6317 0.3229
C38 C 0.45992(14) 0.59668(14) 0.25987(19)
H39 H 0.4857 0.5972 0.2559
H40 H 0.4508 0.6204 0.2518
C39 C 0.44473(15) 0.57066(13) 0.22110(19)
H41 H 0.4573 0.5728 0.1871
H42 H 0.4486 0.5467 0.2347
C40 C 0.16039(13) 0.45196(13) 0.7972(2)
H43 H 0.1477 0.4392 0.8253
H44 H 0.1617 0.4365 0.7658
C41 C 0.14015(13) 0.48543(15) 0.7830(2)
H45 H 0.1147 0.4809 0.7848
H46 H 0.1458 0.5042 0.8086
C42 C 0.16814(13) 0.52407(13) 0.72555(19)
H47 H 0.1758 0.5356 0.7567
C43 C 0.17812(12) 0.53834(12) 0.67374(18)
C44 C 0.17023(13) 0.52206(13) 0.6268(2)
H48 H 0.1589 0.4999 0.6269
C45 C 0.17887(13) 0.53815(12) 0.57880(18)
H49 H 0.1723 0.5271 0.5467
C46 C 0.19694(12) 0.57015(11) 0.57695(18)
C47 C 0.20554(12) 0.58556(12) 0.62447(17)
H50 H 0.2181 0.6071 0.6243
C48 C 0.19646(11) 0.57059(11) 0.67255(18)
H51 H 0.2025 0.5820 0.7046
C49 C 0.20496(11) 0.58763(10) 0.52547(16)
C50 C 0.18773(12) 0.61943(11) 0.51326(17)
C51 C 0.19625(11) 0.63679(11) 0.46640(16)
C52 C 0.22158(12) 0.62329(10) 0.43101(17)
C53 C 0.23886(11) 0.59154(11) 0.44437(17)
C54 C 0.23027(11) 0.57352(11) 0.49138(16)
C55 C 0.16007(14) 0.63449(14) 0.54936(19)
H52 H 0.1567 0.6595 0.5405
H53 H 0.1686 0.6332 0.5862
C56 C 0.12480(17) 0.6157(2) 0.5457(3)
H54 H 0.1167 0.6158 0.5090
H55 H 0.1076 0.6279 0.5679
H56 H 0.1274 0.5915 0.5579
C57 C 0.22855(13) 0.64087(12) 0.37819(18)
H57 H 0.2286 0.6666 0.3832
H58 H 0.2520 0.6339 0.3654
C58 C 0.20172(16) 0.63148(15) 0.3371(2)
H59 H 0.2077 0.6429 0.3037
H60 H 0.1786 0.6394 0.3488
H61 H 0.2014 0.6060 0.3322
C59 C 0.24861(13) 0.53925(12) 0.50401(19)
H62 H 0.2451 0.5336 0.5418
H63 H 0.2741 0.5420 0.4978
C60 C 0.23477(19) 0.50870(13) 0.4702(2)
H64 H 0.2391 0.5137 0.4328
H65 H 0.2096 0.5059 0.4761
H66 H 0.2469 0.4871 0.4801
C61 C 0.18001(12) 0.67172(11) 0.45488(16)
C62 C 0.20004(12) 0.70222(11) 0.46165(17)
H67 H 0.2237 0.7003 0.4728
C63 C 0.18602(13) 0.73519(12) 0.45239(17)
H68 H 0.2000 0.7554 0.4581
C64 C 0.15176(12) 0.73891(11) 0.43493(16)
C65 C 0.13150(12) 0.70851(12) 0.42778(18)
H69 H 0.1078 0.7104 0.4166
C66 C 0.14592(13) 0.67580(12) 0.43700(17)
H70 H 0.1320 0.6555 0.4309
C67 C 0.13855(13) 0.77418(12) 0.42317(17)
H71 H 0.1532 0.7937 0.4308
C68 C 0.09960(16) 0.81639(14) 0.3926(2)
H72 H 0.0928 0.8188 0.3550
H73 H 0.1204 0.8314 0.3987
C69 C 0.06958(15) 0.82872(14) 0.4276(2)
H74 H 0.0579 0.8489 0.4107
H75 H 0.0521 0.8097 0.4310
C70 C 0.26817(11) 0.57876(11) 0.41023(16)
C71 C 0.26194(13) 0.56164(13) 0.36208(18)
H76 H 0.2385 0.5577 0.3509
C72 C 0.28933(13) 0.55048(13) 0.33076(19)
H77 H 0.2844 0.5399 0.2976
C73 C 0.32405(12) 0.55436(11) 0.34651(17)
C74 C 0.33035(13) 0.57040(12) 0.3957(2)
H78 H 0.3537 0.5730 0.4081
C75 C 0.30269(12) 0.58227(12) 0.42575(18)
H79 H 0.3076 0.5933 0.4585
C76 C 0.35378(13) 0.54224(12) 0.3151(2)
H80 H 0.3764 0.5426 0.3307
C77 C 0.38230(15) 0.51943(12) 0.2410(2)
H81 H 0.3788 0.4952 0.2282
H82 H 0.4022 0.5194 0.2660
C78 C 0.39070(14) 0.54318(12) 0.1945(2)
H83 H 0.4064 0.5307 0.1698
H84 H 0.3688 0.5489 0.1754
C79 C 0.19534(15) 0.46932(13) 0.8720(2)
H85 H 0.1950 0.4475 0.8931
H86 H 0.1737 0.4825 0.8800
C80 C 0.22688(17) 0.49116(13) 0.8878(2)
H87 H 0.2291 0.4913 0.9267
H88 H 0.2484 0.4806 0.8728
C81 C 0.24424(14) 0.53677(13) 0.83307(18)
H89 H 0.2610 0.5206 0.8197
C82 C 0.24355(12) 0.57198(12) 0.81155(19)
C83 C 0.26387(13) 0.58099(12) 0.76780(18)
H90 H 0.2786 0.5637 0.7524
C84 C 0.26330(12) 0.61406(12) 0.74618(18)
H91 H 0.2776 0.6192 0.7165
C85 C 0.24172(11) 0.64026(11) 0.76757(17)
C86 C 0.22144(12) 0.63124(12) 0.8115(2)
H92 H 0.2070 0.6486 0.8273
C87 C 0.22165(13) 0.59857(12) 0.83239(19)
H93 H 0.2068 0.5934 0.8615
C88 C 0.24225(11) 0.67690(11) 0.74627(15)
C89 C 0.27219(11) 0.69815(11) 0.75397(16)
C90 C 0.27235(10) 0.73232(11) 0.73449(16)
C91 C 0.24233(11) 0.74604(11) 0.70765(16)
C92 C 0.21374(11) 0.72387(11) 0.69866(16)
C93 C 0.21318(11) 0.68986(11) 0.71771(16)
C94 C 0.30334(12) 0.68365(12) 0.7833(2)
H94 H 0.3239 0.6986 0.7760
H95 H 0.3085 0.6599 0.7697
C95 C 0.29803(14) 0.68149(15) 0.8430(2)
H96 H 0.2767 0.6681 0.8507
H97 H 0.2958 0.7052 0.8576
H98 H 0.3182 0.6698 0.8592
C96 C 0.24151(13) 0.78452(12) 0.6933(2)
H99 H 0.2236 0.7884 0.6656
H100 H 0.2645 0.7914 0.6785
C97 C 0.23323(16) 0.80757(13) 0.7405(2)
H101 H 0.2330 0.8322 0.7295
H102 H 0.2512 0.8042 0.7678
H103 H 0.2102 0.8012 0.7548
C98 C 0.18075(12) 0.66722(12) 0.7116(2)
H104 H 0.1872 0.6425 0.7180
H105 H 0.1721 0.6691 0.6748
C99 C 0.15143(13) 0.67741(17) 0.7491(3)
H106 H 0.1462 0.7024 0.7450
H107 H 0.1587 0.6728 0.7856
H108 H 0.1305 0.6636 0.7411
C100 C 0.30386(11) 0.75545(11) 0.74014(17)
C101 C 0.32408(12) 0.76378(12) 0.69646(18)
H109 H 0.3183 0.7542 0.6630
C102 C 0.35254(12) 0.78589(14) 0.70110(19)
H110 H 0.3659 0.7915 0.6706
C103 C 0.36199(12) 0.80011(12) 0.7496(2)
C104 C 0.34234(12) 0.79102(13) 0.79357(19)
H111 H 0.3486 0.7999 0.8273
C105 C 0.31371(12) 0.76908(12) 0.78836(18)
H112 H 0.3005 0.7632 0.8189
C106 C 0.39251(13) 0.82366(14) 0.7533(2)
H113 H 0.4057 0.8285 0.7223
C107 C 0.43207(17) 0.86116(18) 0.7941(3)
H114 H 0.4255 0.8847 0.8070
H115 H 0.4401 0.8634 0.7571
C108 C 0.46201(15) 0.84590(18) 0.8289(3)
H116 H 0.4781 0.8650 0.8395
H117 H 0.4519 0.8355 0.8613
C109 C 0.18384(10) 0.73663(11) 0.66476(16)
C110 C 0.16085(11) 0.76320(11) 0.68122(17)
H118 H 0.1638 0.7735 0.7151
C111 C 0.13408(11) 0.77466(12) 0.64917(18)
H119 H 0.1193 0.7931 0.6609
C112 C 0.12836(11) 0.75956(12) 0.59930(16)
C113 C 0.15139(11) 0.73333(12) 0.58294(17)
H120 H 0.1482 0.7228 0.5493
C114 C 0.17903(11) 0.72216(12) 0.61484(17)
H121 H 0.1946 0.7046 0.6024
C115 C 0.09976(11) 0.76998(13) 0.56458(18)
H122 H 0.0991 0.7605 0.5299
C116 C 0.04827(13) 0.79922(17) 0.5393(2)
H123 H 0.0249 0.7971 0.5559
H124 H 0.0496 0.7823 0.5097
C117 C 0.05328(13) 0.83620(16) 0.5185(2)
H125 H 0.0311 0.8443 0.5022
H126 H 0.0586 0.8520 0.5484
C118 C 0.09629(14) 0.87437(14) 0.4790(2)
H127 H 0.0773 0.8916 0.4844
H128 H 0.1070 0.8790 0.4440
C119 C 0.12386(14) 0.87904(18) 0.5217(3)
H129 H 0.1265 0.9042 0.5299
H130 H 0.1162 0.8669 0.5543
C120 C 0.17089(13) 0.84019(15) 0.5292(2)
H131 H 0.1581 0.8308 0.5581
C121 C 0.20534(12) 0.82479(13) 0.51673(19)
C122 C 0.21775(13) 0.79698(13) 0.54611(19)
H132 H 0.2037 0.7876 0.5737
C123 C 0.25060(11) 0.78243(12) 0.53594(17)
H133 H 0.2587 0.7634 0.5569
C124 C 0.27180(12) 0.79542(12) 0.49528(18)
C125 C 0.25898(13) 0.82374(12) 0.46502(19)
H134 H 0.2728 0.8331 0.4372
C126 C 0.22619(12) 0.83803(13) 0.4758(2)
H135 H 0.2178 0.8570 0.4552
C127 C 0.30703(11) 0.77950(11) 0.48468(17)
C128 C 0.33475(12) 0.78731(12) 0.51954(18)
C129 C 0.36718(12) 0.77058(11) 0.51183(18)
C130 C 0.37241(11) 0.74770(12) 0.46907(17)
C131 C 0.34448(11) 0.74021(11) 0.43509(16)
C132 C 0.31113(11) 0.75652(11) 0.44269(16)
C133 C 0.32943(14) 0.81330(15) 0.5644(2)
H136 H 0.3475 0.8093 0.5918
H137 H 0.3062 0.8093 0.5807
C134 C 0.33170(19) 0.85145(17) 0.5449(3)
H138 H 0.3115 0.8566 0.5224
H139 H 0.3533 0.8546 0.5246
H140 H 0.3318 0.8673 0.5753
C135 C 0.40856(12) 0.73195(13) 0.45966(19)
H141 H 0.4062 0.7110 0.4369
H142 H 0.4185 0.7243 0.4939
C136 C 0.43371(14) 0.75790(17) 0.4335(2)
H143 H 0.4221 0.7690 0.4033
H144 H 0.4546 0.7454 0.4212
H145 H 0.4406 0.7759 0.4591
C137 C 0.28207(12) 0.74985(12) 0.40348(19)
H146 H 0.2801 0.7243 0.3973
H147 H 0.2596 0.7580 0.4187
C138 C 0.28801(16) 0.76793(16) 0.3518(2)
H148 H 0.2670 0.7658 0.3299
H149 H 0.3079 0.7570 0.3336
H150 H 0.2931 0.7927 0.3581
C139 C 0.39568(12) 0.77597(12) 0.55151(18)
C140 C 0.40359(12) 0.74894(14) 0.58720(18)
H151 H 0.3909 0.7276 0.5850
C141 C 0.42905(12) 0.75237(13) 0.62509(18)
H152 H 0.4341 0.7334 0.6482
C142 C 0.44771(12) 0.78414(14) 0.62969(19)
C143 C 0.43988(14) 0.81123(14) 0.5948(2)
H153 H 0.4520 0.8329 0.5975
C144 C 0.41520(14) 0.80711(13) 0.5570(2)
H154 H 0.4108 0.8259 0.5333
C145 C 0.47475(12) 0.78622(15) 0.6710(2)
H155 H 0.4786 0.7665 0.6931
C146 C 0.51959(14) 0.8119(2) 0.7206(3)
H156 H 0.5426 0.8197 0.7070
H157 H 0.5219 0.7873 0.7327
C147 C 0.50858(16) 0.8350(2) 0.7667(3)
H158 H 0.5294 0.8400 0.7888
H159 H 0.4998 0.8576 0.7527
C148 C 0.34793(11) 0.71399(10) 0.39154(16)
C149 C 0.36998(11) 0.71952(11) 0.34766(17)
H160 H 0.3840 0.7400 0.3463
C150 C 0.37159(12) 0.69589(11) 0.30689(18)
H161 H 0.3869 0.7002 0.2780
C151 C 0.35080(12) 0.66529(11) 0.30736(17)
C152 C 0.32964(12) 0.65928(11) 0.35072(16)
H162 H 0.3156 0.6387 0.3520
C153 C 0.32862(12) 0.68292(11) 0.39248(18)
H163 H 0.3145 0.6778 0.4223
C154 C 0.35085(13) 0.64051(11) 0.26293(16)
H164 H 0.3379 0.6193 0.2656
C155 C 0.36658(16) 0.62102(14) 0.17832(18)
H165 H 0.3603 0.6327 0.1447
H166 H 0.3484 0.6033 0.1862
C156 C 0.40179(16) 0.60336(13) 0.17276(18)
H167 H 0.4036 0.5931 0.1369
H168 H 0.4205 0.6212 0.1764
Cl1 Cl 0.28090(5) 0.63609(5) 0.53959(7)
Cl2 Cl 0.28981(4) 0.67229(5) 0.63786(6)
Cl3 Cl 0.32800(5) 0.69466(4) 0.54651(7)
C157 C 0.31014(14) 0.65897(14) 0.5792(2)
H169 H 0.3297 0.6427 0.5886
Cl4 Cl 0.36801(11) 0.84098(10) 0.40286(13)
Cl5 Cl 0.42900(10) 0.86537(12) 0.34277(14)
C158 C 0.3935(3) 0.8795(4) 0.3833(8)
Cl6 Cl 0.4174(3) 0.8834(2) 0.4505(4)
Cl8 Cl 0.0898(2) 0.5319(4) 0.3602(5)
Cl9 Cl 0.1139(2) 0.5088(3) 0.4590(3)
Cl10 Cl 0.14647(15) 0.56238(17) 0.4147(3)
C159 C 0.1257(4) 0.5288(4) 0.3946(8)
H170 H 0.1423 0.5129 0.3758
Cl11 Cl 0.07566(15) 0.5249(3) 0.5985(3)
Cl12 Cl 0.04769(13) 0.5068(3) 0.6992(3)
Cl13 Cl 0.08760(16) 0.56871(18) 0.6893(6)
C160 C 0.0814(3) 0.5273(5) 0.6661(8)
H171 H 0.1032 0.5138 0.6744
Cl14 Cl 0.23504(9) 0.87037(5) 0.62181(10)
Cl15 Cl 0.27702(16) 0.92574(13) 0.5951(2)
C161 C 0.2548(2) 0.9064(2) 0.6520(4)
Cl16 Cl 0.2327(2) 0.91468(19) 0.7123(2)
O1 O 0.1896(3) 0.95737(18) 0.5544(4)
H172 H 0.1687 0.9635 0.5644
H173 H 0.1880 0.9415 0.5299
O2 O 0.31616(11) 0.45785(13) 0.82367(17)
H174 H 0.3018 0.4557 0.7972
H175 H 0.3074 0.4475 0.8513
O3 O 0.2939(3) 0.53297(19) 0.1876(4)
H176 H 0.3101 0.5405 0.2090
H177 H 0.2808 0.5504 0.1777
Cl7? Cl 0.36820(13) 0.90311(17) 0.3323(3)
Cl17? Cl 0.2858(3) 0.89675(11) 0.6923(3)
loop_
_geom_bond_atom_site_label_1
_geom_bond_atom_site_label_2
_geom_bond_site_symmetry_1
_geom_bond_site_symmetry_2
N1 C1 1_555 1_555
N2 C2 1_555 1_555
N3 C41 1_555 1_555
N4 C80 1_555 1_555
N5 C69 1_555 1_555
N6 C115 1_555 1_555
N7 C67 1_555 1_555
N8 C119 1_555 1_555
N9 C30 1_555 1_555
N10 C28 1_555 1_555
N11 C106 1_555 1_555
N12 C145 1_555 1_555
N13 C39 1_555 1_555
N14 C76 1_555 1_555
N15 C37 1_555 1_555
N16 C154 1_555 1_555
C1 H1 1_555 1_555
H2 C1 1_555 1_555
C2 C1 1_555 1_555
H3 C2 1_555 1_555
H4 C2 1_555 1_555
C3 N2 1_555 1_555
H5 C3 1_555 1_555
C4 C3 1_555 1_555
C5 C4 1_555 1_555
H6 C5 1_555 1_555
C6 C5 1_555 1_555
H7 C6 1_555 1_555
C7 C6 1_555 1_555
C8 C7 1_555 1_555
H8 C8 1_555 1_555
C9 C4 1_555 1_555
H9 C9 1_555 1_555
C10 C7 1_555 1_555
C11 C10 1_555 1_555
C12 C11 1_555 1_555
C13 C12 1_555 1_555
C14 C13 1_555 1_555
C15 C10 1_555 1_555
C16 C11 1_555 1_555
H10 C16 1_555 1_555
H11 C16 1_555 1_555
C17 C16 1_555 1_555
H12 C17 1_555 1_555
H13 C17 1_555 1_555
H14 C17 1_555 1_555
C18 C13 1_555 1_555
H15 C18 1_555 1_555
H16 C18 1_555 1_555
C19 C18 1_555 1_555
H17 C19 1_555 1_555
H18 C19 1_555 1_555
H19 C19 1_555 1_555
C20 C15 1_555 1_555
H20 C20 1_555 1_555
H21 C20 1_555 1_555
C21 C20 1_555 1_555
H22 C21 1_555 1_555
H23 C21 1_555 1_555
H24 C21 1_555 1_555
C22 C12 1_555 1_555
C23 C22 1_555 1_555
H25 C23 1_555 1_555
C24 C23 1_555 1_555
H26 C24 1_555 1_555
C25 C24 1_555 1_555
C26 C25 1_555 1_555
H27 C26 1_555 1_555
C27 C22 1_555 1_555
H28 C27 1_555 1_555
C28 C25 1_555 1_555
H29 C28 1_555 1_555
C29 N10 1_555 1_555
H30 C29 1_555 1_555
H31 C29 1_555 1_555
C30 C29 1_555 1_555
H32 C30 1_555 1_555
H33 C30 1_555 1_555
C31 C14 1_555 1_555
C32 C31 1_555 1_555
H34 C32 1_555 1_555
C33 C32 1_555 1_555
H35 C33 1_555 1_555
C34 C33 1_555 1_555
C35 C34 1_555 1_555
H36 C35 1_555 1_555
C36 C31 1_555 1_555
H37 C36 1_555 1_555
C37 C34 1_555 1_555
H38 C37 1_555 1_555
C38 N15 1_555 1_555
H39 C38 1_555 1_555
H40 C38 1_555 1_555
C39 C38 1_555 1_555
H41 C39 1_555 1_555
H42 C39 1_555 1_555
C40 N1 1_555 1_555
H43 C40 1_555 1_555
H44 C40 1_555 1_555
C41 C40 1_555 1_555
H45 C41 1_555 1_555
H46 C41 1_555 1_555
C42 N3 1_555 1_555
H47 C42 1_555 1_555
C43 C42 1_555 1_555
C44 C43 1_555 1_555
H48 C44 1_555 1_555
C45 C44 1_555 1_555
H49 C45 1_555 1_555
C46 C45 1_555 1_555
C47 C46 1_555 1_555
H50 C47 1_555 1_555
C48 C43 1_555 1_555
H51 C48 1_555 1_555
C49 C46 1_555 1_555
C50 C49 1_555 1_555
C51 C50 1_555 1_555
C52 C51 1_555 1_555
C53 C52 1_555 1_555
C54 C49 1_555 1_555
C55 C50 1_555 1_555
H52 C55 1_555 1_555
H53 C55 1_555 1_555
C56 C55 1_555 1_555
H54 C56 1_555 1_555
H55 C56 1_555 1_555
H56 C56 1_555 1_555
C57 C52 1_555 1_555
H57 C57 1_555 1_555
H58 C57 1_555 1_555
C58 C57 1_555 1_555
H59 C58 1_555 1_555
H60 C58 1_555 1_555
H61 C58 1_555 1_555
C59 C54 1_555 1_555
H62 C59 1_555 1_555
H63 C59 1_555 1_555
C60 C59 1_555 1_555
H64 C60 1_555 1_555
H65 C60 1_555 1_555
H66 C60 1_555 1_555
C61 C51 1_555 1_555
C62 C61 1_555 1_555
H67 C62 1_555 1_555
C63 C62 1_555 1_555
H68 C63 1_555 1_555
C64 C63 1_555 1_555
C65 C64 1_555 1_555
H69 C65 1_555 1_555
C66 C61 1_555 1_555
H70 C66 1_555 1_555
C67 C64 1_555 1_555
H71 C67 1_555 1_555
C68 N7 1_555 1_555
H72 C68 1_555 1_555
H73 C68 1_555 1_555
C69 C68 1_555 1_555
H74 C69 1_555 1_555
H75 C69 1_555 1_555
C70 C53 1_555 1_555
C71 C70 1_555 1_555
H76 C71 1_555 1_555
C72 C71 1_555 1_555
H77 C72 1_555 1_555
C73 C72 1_555 1_555
C74 C73 1_555 1_555
H78 C74 1_555 1_555
C75 C70 1_555 1_555
H79 C75 1_555 1_555
C76 C73 1_555 1_555
H80 C76 1_555 1_555
C77 N14 1_555 1_555
H81 C77 1_555 1_555
H82 C77 1_555 1_555
C78 N13 1_555 1_555
H83 C78 1_555 1_555
H84 C78 1_555 1_555
C79 N1 1_555 1_555
H85 C79 1_555 1_555
H86 C79 1_555 1_555
C80 C79 1_555 1_555
H87 C80 1_555 1_555
H88 C80 1_555 1_555
C81 N4 1_555 1_555
H89 C81 1_555 1_555
C82 C81 1_555 1_555
C83 C82 1_555 1_555
H90 C83 1_555 1_555
C84 C83 1_555 1_555
H91 C84 1_555 1_555
C85 C84 1_555 1_555
C86 C85 1_555 1_555
H92 C86 1_555 1_555
C87 C82 1_555 1_555
H93 C87 1_555 1_555
C88 C85 1_555 1_555
C89 C88 1_555 1_555
C90 C89 1_555 1_555
C91 C90 1_555 1_555
C92 C91 1_555 1_555
C93 C88 1_555 1_555
C94 C89 1_555 1_555
H94 C94 1_555 1_555
H95 C94 1_555 1_555
C95 C94 1_555 1_555
H96 C95 1_555 1_555
H97 C95 1_555 1_555
H98 C95 1_555 1_555
C96 C91 1_555 1_555
H99 C96 1_555 1_555
H100 C96 1_555 1_555
C97 C96 1_555 1_555
H101 C97 1_555 1_555
H102 C97 1_555 1_555
H103 C97 1_555 1_555
C98 C93 1_555 1_555
H104 C98 1_555 1_555
H105 C98 1_555 1_555
C99 C98 1_555 1_555
H106 C99 1_555 1_555
H107 C99 1_555 1_555
H108 C99 1_555 1_555
C100 C90 1_555 1_555
C101 C100 1_555 1_555
H109 C101 1_555 1_555
C102 C101 1_555 1_555
H110 C102 1_555 1_555
C103 C102 1_555 1_555
C104 C103 1_555 1_555
H111 C104 1_555 1_555
C105 C100 1_555 1_555
H112 C105 1_555 1_555
C106 C103 1_555 1_555
H113 C106 1_555 1_555
C107 N11 1_555 1_555
H114 C107 1_555 1_555
H115 C107 1_555 1_555
C108 N9 1_555 1_555
H116 C108 1_555 1_555
H117 C108 1_555 1_555
C109 C92 1_555 1_555
C110 C109 1_555 1_555
H118 C110 1_555 1_555
C111 C110 1_555 1_555
H119 C111 1_555 1_555
C112 C111 1_555 1_555
C113 C112 1_555 1_555
H120 C113 1_555 1_555
C114 C109 1_555 1_555
H121 C114 1_555 1_555
C115 C112 1_555 1_555
H122 C115 1_555 1_555
C116 N6 1_555 1_555
H123 C116 1_555 1_555
H124 C116 1_555 1_555
C117 N5 1_555 1_555
H125 C117 1_555 1_555
H126 C117 1_555 1_555
C118 N5 1_555 1_555
H127 C118 1_555 1_555
H128 C118 1_555 1_555
C119 C118 1_555 1_555
H129 C119 1_555 1_555
H130 C119 1_555 1_555
C120 N8 1_555 1_555
H131 C120 1_555 1_555
C121 C120 1_555 1_555
C122 C121 1_555 1_555
H132 C122 1_555 1_555
C123 C122 1_555 1_555
H133 C123 1_555 1_555
C124 C123 1_555 1_555
C125 C124 1_555 1_555
H134 C125 1_555 1_555
C126 C121 1_555 1_555
H135 C126 1_555 1_555
C127 C124 1_555 1_555
C128 C127 1_555 1_555
C129 C128 1_555 1_555
C130 C129 1_555 1_555
C131 C130 1_555 1_555
C132 C127 1_555 1_555
C133 C128 1_555 1_555
H136 C133 1_555 1_555
H137 C133 1_555 1_555
C134 C133 1_555 1_555
H138 C134 1_555 1_555
H139 C134 1_555 1_555
H140 C134 1_555 1_555
C135 C130 1_555 1_555
H141 C135 1_555 1_555
H142 C135 1_555 1_555
C136 C135 1_555 1_555
H143 C136 1_555 1_555
H144 C136 1_555 1_555
H145 C136 1_555 1_555
C137 C132 1_555 1_555
H146 C137 1_555 1_555
H147 C137 1_555 1_555
C138 C137 1_555 1_555
H148 C138 1_555 1_555
H149 C138 1_555 1_555
H150 C138 1_555 1_555
C139 C129 1_555 1_555
C140 C139 1_555 1_555
H151 C140 1_555 1_555
C141 C140 1_555 1_555
H152 C141 1_555 1_555
C142 C141 1_555 1_555
C143 C142 1_555 1_555
H153 C143 1_555 1_555
C144 C139 1_555 1_555
H154 C144 1_555 1_555
C145 C142 1_555 1_555
H155 C145 1_555 1_555
C146 N12 1_555 1_555
H156 C146 1_555 1_555
H157 C146 1_555 1_555
C147 N9 1_555 1_555
H158 C147 1_555 1_555
H159 C147 1_555 1_555
C148 C131 1_555 1_555
C149 C148 1_555 1_555
H160 C149 1_555 1_555
C150 C149 1_555 1_555
H161 C150 1_555 1_555
C151 C150 1_555 1_555
C152 C151 1_555 1_555
H162 C152 1_555 1_555
C153 C148 1_555 1_555
H163 C153 1_555 1_555
C154 C151 1_555 1_555
H164 C154 1_555 1_555
C155 N16 1_555 1_555
H165 C155 1_555 1_555
H166 C155 1_555 1_555
C156 N13 1_555 1_555
H167 C156 1_555 1_555
H168 C156 1_555 1_555
Cl1 C157 1_555 1_555
Cl2 C157 1_555 1_555
Cl3 C157 1_555 1_555
C157 H169 1_555 1_555
Cl4 C158 1_555 1_555
Cl5 C158 1_555 1_555
C158 Cl6 1_555 1_555
Cl8 C159 1_555 1_555
Cl9 C159 1_555 1_555
Cl10 C159 1_555 1_555
C159 H170 1_555 1_555
Cl11 C160 1_555 1_555
Cl12 C160 1_555 1_555
Cl13 C160 1_555 1_555
C160 H171 1_555 1_555
Cl14 C161 1_555 1_555
Cl15 C161 1_555 1_555
C161 Cl16 1_555 1_555
O1 H172 1_555 1_555
H173 O1 1_555 1_555
O2 H174 1_555 1_555
H175 O2 1_555 1_555
O3 H176 1_555 1_555
H177 O3 1_555 1_555
C8 C9 1_555 1_555
C14 C15 1_555 1_555
C26 C27 1_555 1_555
C35 C36 1_555 1_555
C47 C48 1_555 1_555
C53 C54 1_555 1_555
C65 C66 1_555 1_555
C74 C75 1_555 1_555
C77 C78 1_555 1_555
C86 C87 1_555 1_555
C92 C93 1_555 1_555
C104 C105 1_555 1_555
C107 C108 1_555 1_555
C113 C114 1_555 1_555
C116 C117 1_555 1_555
C125 C126 1_555 1_555
C131 C132 1_555 1_555
C143 C144 1_555 1_555
C146 C147 1_555 1_555
C152 C153 1_555 1_555
C155 C156 1_555 1_555

#END
