
#######################################################################
#
#                 Cambridge Crystallographic Data Centre
#                                CCDC 
#
#######################################################################
#
# If this CIF has been generated from an entry in the Cambridge 
# Structural Database, then it will include bibliographic, chemical, 
# crystal, experimental, refinement or atomic coordinate data resulting 
# from the CCDC's data processing and validation procedures.
#
#######################################################################

data_PELSAD
_chemical_formula_moiety         'C132 H120 N16,8(C1 H1 Cl3),8(H2 O1)'
_chemical_name_systematic        
'4,7,10,16,19,22,28,31,34,40,43,46,51,56,61,66-hexadecaaza-1,13,25,37(1,3,5),2,12,14,24,26,36,38,48,49,58,59,64(1,4)-hexadecabenzenapentacyclo[29.17.5.5^7,25^.5^13,43^.5^19,37^]octahexaconta-3,10,15,22,27,34,39,46,50,56,60,65-dodecaene chloroform solvate octahydrate'
_symmetry_cell_setting           orthorhombic
_symmetry_space_group_name_H-M   'I 2 2 2'
_symmetry_Int_Tables_number      23
_space_group_name_Hall           'I 2 2'
loop_
_symmetry_equiv_pos_site_id
_symmetry_equiv_pos_as_xyz
1 x,y,z
2 -x,-y,z
3 x,-y,-z
4 -x,y,-z
5 1/2+x,1/2+y,1/2+z
6 1/2-x,1/2-y,1/2+z
7 1/2+x,1/2-y,1/2-z
8 1/2-x,1/2+y,1/2-z
_cell_length_a                   12.6968(7)
_cell_length_b                   19.0866(9)
_cell_length_c                   31.1684(18)
_cell_angle_alpha                90
_cell_angle_beta                 90
_cell_angle_gamma                90
_cell_volume                     7553.31
_exptl_crystal_colour            colorless
_exptl_crystal_description       block
_cell_formula_units_Z            2
loop_
_atom_site_label
_atom_site_type_symbol
_atom_site_fract_x
_atom_site_fract_y
_atom_site_fract_z
N1 N 0.9851(8) 0.1669(4) -0.1949(3)
N2 N 0.7729(7) 0.2171(5) -0.2275(3)
N3 N 1.0497(8) 0.3141(4) -0.1619(4)
N4 N 0.8942(9) 0.1276(5) -0.1056(3)
C1 C 0.9125(9) 0.4354(5) -0.1537(3)
H1 H 0.9404 0.4284 -0.1817
C2 C 0.8500(8) 0.4945(6) -0.1457(3)
H2 H 0.8317 0.5252 -0.1685
C3 C 0.8153(7) 0.5079(5) -0.1048(3)
C4 C 0.8366(9) 0.4600(6) -0.0720(3)
H3 H 0.8104 0.4679 -0.0438
C5 C 0.8967(12) 0.4005(6) -0.0809(4)
H4 H 0.9116 0.3690 -0.0581
C6 C 0.9352(8) 0.3855(5) -0.1209(4)
C7 C 0.9990(10) 0.3246(6) -0.1283(4)
H5 H 1.0027 0.2903 -0.1062
C8 C 1.1160(11) 0.2491(6) -0.1637(5)
H6 H 1.1063 0.2217 -0.1371
H7 H 1.1913 0.2622 -0.1659
C9 C 1.0850(11) 0.2048(6) -0.2023(4)
H8 H 1.0774 0.2354 -0.2277
H9 H 1.1416 0.1706 -0.2083
C10 C 0.9325(11) 0.1494(6) -0.2341(4)
H10 H 0.8831 0.1102 -0.2287
H11 H 0.9851 0.1334 -0.2553
C11 C 0.8710(11) 0.2120(6) -0.2527(4)
H12 H 0.9126 0.2557 -0.2500
H13 H 0.8549 0.2042 -0.2834
C12 C 0.7609(9) 0.2749(6) -0.2072(4)
H14 H 0.8161 0.3084 -0.2083
C13 C 1.0016(12) 0.1043(5) -0.1696(4)
H15 H 1.0608 0.1121 -0.1495
H16 H 1.0211 0.0652 -0.1889
C14 C 0.9039(12) 0.0843(5) -0.1443(4)
H17 H 0.8407 0.0907 -0.1625
H18 H 0.9080 0.0343 -0.1361
C15 C 0.8105(10) 0.1651(6) -0.1018(3)
H19 H 0.7598 0.1650 -0.1242
C16 C 0.7920(9) 0.2080(5) -0.0636(4)
C17 C 0.8668(9) 0.2187(5) -0.0334(4)
H20 H 0.9350 0.1990 -0.0367
C18 C 0.8432(8) 0.2587(5) 0.0026(4)
H21 H 0.8963 0.2671 0.0234
C19 C 0.7443(8) 0.2863(5) 0.0086(3)
C20 C 0.6689(10) 0.2758(8) -0.0229(4)
H22 H 0.6000 0.2939 -0.0188
C21 C 0.6914(10) 0.2404(8) -0.0591(4)
H23 H 0.6409 0.2372 -0.0815
C22 C 0.7203(7) 0.3286(5) 0.0481(3)
C23 C 0.7792(7) 0.3886(5) 0.0582(3)
H24 H 0.8364 0.4026 0.0405
C24 C 0.7520(8) 0.4284(4) 0.0954(3)
C25 C 0.6700(8) 0.4085(5) 0.1194(3)
H25 H 0.6523 0.4357 0.1439
C26 C 0.6086(7) 0.3490(5) 0.1098(3)
C27 C 0.6333(7) 0.3094(5) 0.0730(3)
H26 H 0.5914 0.2702 0.0652
C28 C 0.5156(7) 0.3286(5) 0.1358(3)
C29 C 0.4368(8) 0.3785(6) 0.1451(4)
H27 H 0.4455 0.4256 0.1359
C30 C 0.3471(8) 0.3595(6) 0.1674(3)
H28 H 0.2933 0.3930 0.1726
C31 C 0.3361(8) 0.2924(5) 0.1818(3)
C32 C 0.4112(9) 0.2431(5) 0.1734(3)
H29 H 0.4025 0.1966 0.1837
C33 C 0.5006(8) 0.2608(5) 0.1498(3)
H30 H 0.5515 0.2259 0.1433
N1B N 0.9851(8) 0.8331(4) 0.1949(3)
N2B N 0.7729(7) 0.7829(5) 0.2275(3)
N3B N 1.0497(8) 0.6859(4) 0.1619(4)
N4B N 0.8942(9) 0.8724(5) 0.1056(3)
C1B C 0.9125(9) 0.5646(5) 0.1537(3)
H1B H 0.9404 0.5716 0.1817
C2B C 0.8500(8) 0.5055(6) 0.1457(3)
H2B H 0.8317 0.4748 0.1685
C3B C 0.8153(7) 0.4921(5) 0.1048(3)
C4B C 0.8366(9) 0.5400(6) 0.0720(3)
H3B H 0.8104 0.5321 0.0438
C5B C 0.8967(12) 0.5995(6) 0.0809(4)
H4B H 0.9116 0.6310 0.0581
C6B C 0.9352(8) 0.6145(5) 0.1209(4)
C7B C 0.9990(10) 0.6754(6) 0.1283(4)
H5B H 1.0027 0.7097 0.1062
C8B C 1.1160(11) 0.7509(6) 0.1637(5)
H6B H 1.1063 0.7783 0.1371
H7B H 1.1913 0.7378 0.1659
C9B C 1.0850(11) 0.7952(6) 0.2023(4)
H8B H 1.0774 0.7646 0.2277
H9B H 1.1416 0.8294 0.2083
C10B C 0.9325(11) 0.8506(6) 0.2341(4)
H10B H 0.8831 0.8898 0.2287
H11B H 0.9851 0.8666 0.2553
C11B C 0.8710(11) 0.7880(6) 0.2527(4)
H12B H 0.9126 0.7443 0.2500
H13B H 0.8549 0.7958 0.2834
C12B C 0.7609(9) 0.7251(6) 0.2072(4)
H14B H 0.8161 0.6916 0.2083
C13B C 1.0016(12) 0.8957(5) 0.1696(4)
H15B H 1.0608 0.8879 0.1495
H16B H 1.0211 0.9348 0.1889
C14B C 0.9039(12) 0.9157(5) 0.1443(4)
H17B H 0.8407 0.9093 0.1625
H18B H 0.9080 0.9657 0.1361
C15B C 0.8105(10) 0.8349(6) 0.1018(3)
H19B H 0.7598 0.8350 0.1242
C16B C 0.7920(9) 0.7920(5) 0.0636(4)
C17B C 0.8668(9) 0.7813(5) 0.0334(4)
H20B H 0.9350 0.8010 0.0367
C18B C 0.8432(8) 0.7413(5) -0.0026(4)
H21B H 0.8963 0.7329 -0.0234
C19B C 0.7443(8) 0.7137(5) -0.0086(3)
C20B C 0.6689(10) 0.7242(8) 0.0229(4)
H22B H 0.6000 0.7061 0.0188
C21B C 0.6914(10) 0.7596(8) 0.0591(4)
H23B H 0.6409 0.7628 0.0815
C22B C 0.7203(7) 0.6714(5) -0.0481(3)
C23B C 0.7792(7) 0.6114(5) -0.0582(3)
H24B H 0.8364 0.5974 -0.0405
C24B C 0.7520(8) 0.5716(4) -0.0954(3)
C25B C 0.6700(8) 0.5915(5) -0.1194(3)
H25B H 0.6523 0.5643 -0.1439
C26B C 0.6086(7) 0.6510(5) -0.1098(3)
C27B C 0.6333(7) 0.6906(5) -0.0730(3)
H26B H 0.5914 0.7298 -0.0652
C28B C 0.5156(7) 0.6714(5) -0.1358(3)
C29B C 0.4368(8) 0.6215(6) -0.1451(4)
H27B H 0.4455 0.5744 -0.1359
C30B C 0.3471(8) 0.6405(6) -0.1674(3)
H28B H 0.2933 0.6070 -0.1726
C31B C 0.3361(8) 0.7076(5) -0.1818(3)
C32B C 0.4112(9) 0.7569(5) -0.1734(3)
H29B H 0.4025 0.8034 -0.1837
C33B C 0.5006(8) 0.7392(5) -0.1498(3)
H30B H 0.5515 0.7741 -0.1433
N1C N 0.0149(8) 0.1669(4) 0.1949(3)
N2C N 0.2271(7) 0.2171(5) 0.2275(3)
N3C N -0.0497(8) 0.3141(4) 0.1619(4)
N4C N 0.1058(9) 0.1276(5) 0.1056(3)
C1C C 0.0875(9) 0.4354(5) 0.1537(3)
H1C H 0.0596 0.4284 0.1817
C2C C 0.1500(8) 0.4945(6) 0.1457(3)
H2C H 0.1683 0.5252 0.1685
C3C C 0.1847(7) 0.5079(5) 0.1048(3)
C4C C 0.1634(9) 0.4600(6) 0.0720(3)
H3C H 0.1896 0.4679 0.0438
C5C C 0.1033(12) 0.4005(6) 0.0809(4)
H4C H 0.0884 0.3690 0.0581
C6C C 0.0648(8) 0.3855(5) 0.1209(4)
C7C C 0.0010(10) 0.3246(6) 0.1283(4)
H5C H -0.0027 0.2903 0.1062
C8C C -0.1160(11) 0.2491(6) 0.1637(5)
H6C H -0.1063 0.2217 0.1371
H7C H -0.1913 0.2622 0.1659
C9C C -0.0850(11) 0.2048(6) 0.2023(4)
H8C H -0.0774 0.2354 0.2277
H9C H -0.1416 0.1706 0.2083
C10C C 0.0675(11) 0.1494(6) 0.2341(4)
H10C H 0.1169 0.1102 0.2287
H11C H 0.0149 0.1334 0.2553
C11C C 0.1290(11) 0.2120(6) 0.2527(4)
H12C H 0.0874 0.2557 0.2500
H13C H 0.1451 0.2042 0.2834
C12C C 0.2391(9) 0.2749(6) 0.2072(4)
H14C H 0.1839 0.3084 0.2083
C13C C -0.0016(12) 0.1043(5) 0.1696(4)
H15C H -0.0608 0.1121 0.1495
H16C H -0.0211 0.0652 0.1889
C14C C 0.0961(12) 0.0843(5) 0.1443(4)
H17C H 0.1593 0.0907 0.1625
H18C H 0.0920 0.0343 0.1361
C15C C 0.1895(10) 0.1651(6) 0.1018(3)
H19C H 0.2402 0.1650 0.1242
C16C C 0.2080(9) 0.2080(5) 0.0636(4)
C17C C 0.1332(9) 0.2187(5) 0.0334(4)
H20C H 0.0650 0.1990 0.0367
C18C C 0.1568(8) 0.2587(5) -0.0026(4)
H21C H 0.1037 0.2671 -0.0234
C19C C 0.2557(8) 0.2863(5) -0.0086(3)
C20C C 0.3311(10) 0.2758(8) 0.0229(4)
H22C H 0.4000 0.2939 0.0188
C21C C 0.3086(10) 0.2404(8) 0.0591(4)
H23C H 0.3591 0.2372 0.0815
C22C C 0.2797(7) 0.3286(5) -0.0481(3)
C23C C 0.2208(7) 0.3886(5) -0.0582(3)
H24C H 0.1636 0.4026 -0.0405
C24C C 0.2480(8) 0.4284(4) -0.0954(3)
C25C C 0.3300(8) 0.4085(5) -0.1194(3)
H25C H 0.3477 0.4357 -0.1439
C26C C 0.3914(7) 0.3490(5) -0.1098(3)
C27C C 0.3667(7) 0.3094(5) -0.0730(3)
H26C H 0.4086 0.2702 -0.0652
C28C C 0.4844(7) 0.3286(5) -0.1358(3)
C29C C 0.5632(8) 0.3785(6) -0.1451(4)
H27C H 0.5545 0.4256 -0.1359
C30C C 0.6529(8) 0.3595(6) -0.1674(3)
H28C H 0.7067 0.3930 -0.1726
C31C C 0.6639(8) 0.2924(5) -0.1818(3)
C32C C 0.5888(9) 0.2431(5) -0.1734(3)
H29C H 0.5975 0.1966 -0.1837
C33C C 0.4994(8) 0.2608(5) -0.1498(3)
H30C H 0.4485 0.2259 -0.1433
N1A N 0.0149(8) 0.8331(4) -0.1949(3)
N2A N 0.2271(7) 0.7829(5) -0.2275(3)
N3A N -0.0497(8) 0.6859(4) -0.1619(4)
N4A N 0.1058(9) 0.8724(5) -0.1056(3)
C1A C 0.0875(9) 0.5646(5) -0.1537(3)
H1A H 0.0596 0.5716 -0.1817
C2A C 0.1500(8) 0.5055(6) -0.1457(3)
H2A H 0.1683 0.4748 -0.1685
C3A C 0.1847(7) 0.4921(5) -0.1048(3)
C4A C 0.1634(9) 0.5400(6) -0.0720(3)
H3A H 0.1896 0.5321 -0.0438
C5A C 0.1033(12) 0.5995(6) -0.0809(4)
H4A H 0.0884 0.6310 -0.0581
C6A C 0.0648(8) 0.6145(5) -0.1209(4)
C7A C 0.0010(10) 0.6754(6) -0.1283(4)
H5A H -0.0027 0.7097 -0.1062
C8A C -0.1160(11) 0.7509(6) -0.1637(5)
H6A H -0.1063 0.7783 -0.1371
H7A H -0.1913 0.7378 -0.1659
C9A C -0.0850(11) 0.7952(6) -0.2023(4)
H8A H -0.0774 0.7646 -0.2277
H9A H -0.1416 0.8294 -0.2083
C10A C 0.0675(11) 0.8506(6) -0.2341(4)
H10A H 0.1169 0.8898 -0.2287
H11A H 0.0149 0.8666 -0.2553
C11A C 0.1290(11) 0.7880(6) -0.2527(4)
H12A H 0.0874 0.7443 -0.2500
H13A H 0.1451 0.7958 -0.2834
C12A C 0.2391(9) 0.7251(6) -0.2072(4)
H14A H 0.1839 0.6916 -0.2083
C13A C -0.0016(12) 0.8957(5) -0.1696(4)
H15A H -0.0608 0.8879 -0.1495
H16A H -0.0211 0.9348 -0.1889
C14A C 0.0961(12) 0.9157(5) -0.1443(4)
H17A H 0.1593 0.9093 -0.1625
H18A H 0.0920 0.9657 -0.1361
C15A C 0.1895(10) 0.8349(6) -0.1018(3)
H19A H 0.2402 0.8350 -0.1242
C16A C 0.2080(9) 0.7920(5) -0.0636(4)
C17A C 0.1332(9) 0.7813(5) -0.0334(4)
H20A H 0.0650 0.8010 -0.0367
C18A C 0.1568(8) 0.7413(5) 0.0026(4)
H21A H 0.1037 0.7329 0.0234
C19A C 0.2557(8) 0.7137(5) 0.0086(3)
C20A C 0.3311(10) 0.7242(8) -0.0229(4)
H22A H 0.4000 0.7061 -0.0188
C21A C 0.3086(10) 0.7596(8) -0.0591(4)
H23A H 0.3591 0.7628 -0.0815
C22A C 0.2797(7) 0.6714(5) 0.0481(3)
C23A C 0.2208(7) 0.6114(5) 0.0582(3)
H24A H 0.1636 0.5974 0.0405
C24A C 0.2480(8) 0.5716(4) 0.0954(3)
C25A C 0.3300(8) 0.5915(5) 0.1194(3)
H25A H 0.3477 0.5643 0.1439
C26A C 0.3914(7) 0.6510(5) 0.1098(3)
C27A C 0.3667(7) 0.6906(5) 0.0730(3)
H26A H 0.4086 0.7298 0.0652
C28A C 0.4844(7) 0.6714(5) 0.1358(3)
C29A C 0.5632(8) 0.6215(6) 0.1451(4)
H27A H 0.5545 0.5744 0.1359
C30A C 0.6529(8) 0.6405(6) 0.1674(3)
H28A H 0.7067 0.6070 0.1726
C31A C 0.6639(8) 0.7076(5) 0.1818(3)
C32A C 0.5888(9) 0.7569(5) 0.1734(3)
H29A H 0.5975 0.8034 0.1837
C33A C 0.4994(8) 0.7392(5) 0.1498(3)
H30A H 0.4485 0.7741 0.1433
Cl1 Cl 0.7450(16) 0.1278(6) 0.0971(6)
Cl2 Cl 0.7192(18) -0.0086(4) 0.0576(3)
Cl3 Cl 0.5925(13) 0.1098(5) 0.0390(4)
C34 C 0.721(2) 0.0756(13) 0.0473(8)
H31 H 0.7706 0.0880 0.0236
Cl4 Cl 0.9219(8) 0.4115(4) -0.2783(3)
Cl5 Cl 0.8397(14) 0.5103(10) -0.3372(3)
Cl6 Cl 0.7144(7) 0.4680(3) -0.2641(4)
C35 C 0.834(2) 0.473(2) -0.2835(9)
H32 H 0.8654 0.5118 -0.2658
O1 O 0.5725(11) 0.4501(6) -0.0348(3)
O2 O 0.6342(12) 0.1149(5) -0.2661(4)
loop_
_geom_bond_atom_site_label_1
_geom_bond_atom_site_label_2
_geom_bond_site_symmetry_1
_geom_bond_site_symmetry_2
N1 C9 1_555 1_555
N2 C11 1_555 1_555
N3 C7 1_555 1_555
N4 C14 1_555 1_555
C1 H1 1_555 1_555
C2 C1 1_555 1_555
H2 C2 1_555 1_555
C3 C2 1_555 1_555
C4 C3 1_555 1_555
H3 C4 1_555 1_555
C5 C4 1_555 1_555
H4 C5 1_555 1_555
C6 C1 1_555 1_555
C7 C6 1_555 1_555
H5 C7 1_555 1_555
C8 N3 1_555 1_555
H6 C8 1_555 1_555
H7 C8 1_555 1_555
C9 C8 1_555 1_555
H8 C9 1_555 1_555
H9 C9 1_555 1_555
C10 N1 1_555 1_555
H10 C10 1_555 1_555
H11 C10 1_555 1_555
C11 C10 1_555 1_555
H12 C11 1_555 1_555
H13 C11 1_555 1_555
C12 N2 1_555 1_555
H14 C12 1_555 1_555
C13 N1 1_555 1_555
H15 C13 1_555 1_555
H16 C13 1_555 1_555
C14 C13 1_555 1_555
H17 C14 1_555 1_555
H18 C14 1_555 1_555
C15 N4 1_555 1_555
H19 C15 1_555 1_555
C16 C15 1_555 1_555
C17 C16 1_555 1_555
H20 C17 1_555 1_555
C18 C17 1_555 1_555
H21 C18 1_555 1_555
C19 C18 1_555 1_555
C20 C19 1_555 1_555
H22 C20 1_555 1_555
C21 C16 1_555 1_555
H23 C21 1_555 1_555
C22 C19 1_555 1_555
C23 C22 1_555 1_555
H24 C23 1_555 1_555
C24 C23 1_555 1_555
C25 C24 1_555 1_555
H25 C25 1_555 1_555
C26 C25 1_555 1_555
C27 C22 1_555 1_555
H26 C27 1_555 1_555
C28 C26 1_555 1_555
C29 C28 1_555 1_555
H27 C29 1_555 1_555
C30 C29 1_555 1_555
H28 C30 1_555 1_555
C31 C30 1_555 1_555
C32 C31 1_555 1_555
H29 C32 1_555 1_555
C33 C28 1_555 1_555
H30 C33 1_555 1_555
Cl1 C34 1_555 1_555
Cl2 C34 1_555 1_555
Cl3 C34 1_555 1_555
C34 H31 1_555 1_555
Cl4 C35 1_555 1_555
Cl5 C35 1_555 1_555
Cl6 C35 1_555 1_555
C35 H32 1_555 1_555
N1B C9B 1_555 1_555
N2B C11B 1_555 1_555
N3B C7B 1_555 1_555
N4B C14B 1_555 1_555
C1B H1B 1_555 1_555
C2B C1B 1_555 1_555
H2B C2B 1_555 1_555
C3B C24 1_555 1_555
C4B C3B 1_555 1_555
H3B C4B 1_555 1_555
C5B C4B 1_555 1_555
H4B C5B 1_555 1_555
C6B C1B 1_555 1_555
C7B C6B 1_555 1_555
H5B C7B 1_555 1_555
C8B N3B 1_555 1_555
H6B C8B 1_555 1_555
H7B C8B 1_555 1_555
C9B C8B 1_555 1_555
H8B C9B 1_555 1_555
H9B C9B 1_555 1_555
C10B N1B 1_555 1_555
H10B C10B 1_555 1_555
H11B C10B 1_555 1_555
C11B C10B 1_555 1_555
H12B C11B 1_555 1_555
H13B C11B 1_555 1_555
C12B N2B 1_555 1_555
H14B C12B 1_555 1_555
C13B N1B 1_555 1_555
H15B C13B 1_555 1_555
H16B C13B 1_555 1_555
C14B C13B 1_555 1_555
H17B C14B 1_555 1_555
H18B C14B 1_555 1_555
C15B N4B 1_555 1_555
H19B C15B 1_555 1_555
C16B C15B 1_555 1_555
C17B C16B 1_555 1_555
H20B C17B 1_555 1_555
C18B C17B 1_555 1_555
H21B C18B 1_555 1_555
C19B C18B 1_555 1_555
C20B C19B 1_555 1_555
H22B C20B 1_555 1_555
C21B C16B 1_555 1_555
H23B C21B 1_555 1_555
C22B C19B 1_555 1_555
C23B C22B 1_555 1_555
H24B C23B 1_555 1_555
C24B C3 1_555 1_555
C25B C24B 1_555 1_555
H25B C25B 1_555 1_555
C26B C25B 1_555 1_555
C27B C22B 1_555 1_555
H26B C27B 1_555 1_555
C28B C26B 1_555 1_555
C29B C28B 1_555 1_555
H27B C29B 1_555 1_555
C30B C29B 1_555 1_555
H28B C30B 1_555 1_555
C31B C30B 1_555 1_555
C32B C31B 1_555 1_555
H29B C32B 1_555 1_555
C33B C28B 1_555 1_555
H30B C33B 1_555 1_555
N1C C9C 1_555 1_555
N2C C11C 1_555 1_555
N3C C7C 1_555 1_555
N4C C14C 1_555 1_555
C1C H1C 1_555 1_555
C2C C1C 1_555 1_555
H2C C2C 1_555 1_555
C3C C2C 1_555 1_555
C4C C3C 1_555 1_555
H3C C4C 1_555 1_555
C5C C4C 1_555 1_555
H4C C5C 1_555 1_555
C6C C1C 1_555 1_555
C7C C6C 1_555 1_555
H5C C7C 1_555 1_555
C8C N3C 1_555 1_555
H6C C8C 1_555 1_555
H7C C8C 1_555 1_555
C9C C8C 1_555 1_555
H8C C9C 1_555 1_555
H9C C9C 1_555 1_555
C10C N1C 1_555 1_555
H10C C10C 1_555 1_555
H11C C10C 1_555 1_555
C11C C10C 1_555 1_555
H12C C11C 1_555 1_555
H13C C11C 1_555 1_555
C12C C31 1_555 1_555
H14C C12C 1_555 1_555
C13C N1C 1_555 1_555
H15C C13C 1_555 1_555
H16C C13C 1_555 1_555
C14C C13C 1_555 1_555
H17C C14C 1_555 1_555
H18C C14C 1_555 1_555
C15C N4C 1_555 1_555
H19C C15C 1_555 1_555
C16C C15C 1_555 1_555
C17C C16C 1_555 1_555
H20C C17C 1_555 1_555
C18C C17C 1_555 1_555
H21C C18C 1_555 1_555
C19C C18C 1_555 1_555
C20C C19C 1_555 1_555
H22C C20C 1_555 1_555
C21C C16C 1_555 1_555
H23C C21C 1_555 1_555
C22C C19C 1_555 1_555
C23C C22C 1_555 1_555
H24C C23C 1_555 1_555
C24C C23C 1_555 1_555
C25C C24C 1_555 1_555
H25C C25C 1_555 1_555
C26C C25C 1_555 1_555
C27C C22C 1_555 1_555
H26C C27C 1_555 1_555
C28C C26C 1_555 1_555
C29C C28C 1_555 1_555
H27C C29C 1_555 1_555
C30C C29C 1_555 1_555
H28C C30C 1_555 1_555
C31C C12 1_555 1_555
C32C C31C 1_555 1_555
H29C C32C 1_555 1_555
C33C C28C 1_555 1_555
H30C C33C 1_555 1_555
N1A C9A 1_555 1_555
N2A C11A 1_555 1_555
N3A C7A 1_555 1_555
N4A C14A 1_555 1_555
C1A H1A 1_555 1_555
C2A C1A 1_555 1_555
H2A C2A 1_555 1_555
C3A C24C 1_555 1_555
C4A C3A 1_555 1_555
H3A C4A 1_555 1_555
C5A C4A 1_555 1_555
H4A C5A 1_555 1_555
C6A C1A 1_555 1_555
C7A C6A 1_555 1_555
H5A C7A 1_555 1_555
C8A N3A 1_555 1_555
H6A C8A 1_555 1_555
H7A C8A 1_555 1_555
C9A C8A 1_555 1_555
H8A C9A 1_555 1_555
H9A C9A 1_555 1_555
C10A N1A 1_555 1_555
H10A C10A 1_555 1_555
H11A C10A 1_555 1_555
C11A C10A 1_555 1_555
H12A C11A 1_555 1_555
H13A C11A 1_555 1_555
C12A C31B 1_555 1_555
H14A C12A 1_555 1_555
C13A N1A 1_555 1_555
H15A C13A 1_555 1_555
H16A C13A 1_555 1_555
C14A C13A 1_555 1_555
H17A C14A 1_555 1_555
H18A C14A 1_555 1_555
C15A N4A 1_555 1_555
H19A C15A 1_555 1_555
C16A C15A 1_555 1_555
C17A C16A 1_555 1_555
H20A C17A 1_555 1_555
C18A C17A 1_555 1_555
H21A C18A 1_555 1_555
C19A C18A 1_555 1_555
C20A C19A 1_555 1_555
H22A C20A 1_555 1_555
C21A C16A 1_555 1_555
H23A C21A 1_555 1_555
C22A C19A 1_555 1_555
C23A C22A 1_555 1_555
H24A C23A 1_555 1_555
C24A C3C 1_555 1_555
C25A C24A 1_555 1_555
H25A C25A 1_555 1_555
C26A C25A 1_555 1_555
C27A C22A 1_555 1_555
H26A C27A 1_555 1_555
C28A C26A 1_555 1_555
C29A C28A 1_555 1_555
H27A C29A 1_555 1_555
C30A C29A 1_555 1_555
H28A C30A 1_555 1_555
C31A C12B 1_555 1_555
C32A C31A 1_555 1_555
H29A C32A 1_555 1_555
C33A C28A 1_555 1_555
H30A C33A 1_555 1_555
C5 C6 1_555 1_555
C20 C21 1_555 1_555
C26 C27 1_555 1_555
C32 C33 1_555 1_555
C2B C3B 1_555 1_555
C5B C6B 1_555 1_555
C20B C21B 1_555 1_555
C23B C24B 1_555 1_555
C26B C27B 1_555 1_555
C32B C33B 1_555 1_555
N2C C12C 1_555 1_555
C5C C6C 1_555 1_555
C20C C21C 1_555 1_555
C26C C27C 1_555 1_555
C30C C31C 1_555 1_555
C32C C33C 1_555 1_555
N2A C12A 1_555 1_555
C2A C3A 1_555 1_555
C5A C6A 1_555 1_555
C20A C21A 1_555 1_555
C23A C24A 1_555 1_555
C26A C27A 1_555 1_555
C30A C31A 1_555 1_555
C32A C33A 1_555 1_555

#END
