
#######################################################################
#
#                 Cambridge Crystallographic Data Centre
#                                CCDC 
#
#######################################################################
#
# If this CIF has been generated from an entry in the Cambridge 
# Structural Database, then it will include bibliographic, chemical, 
# crystal, experimental, refinement or atomic coordinate data resulting 
# from the CCDC's data processing and validation procedures.
#
#######################################################################

data_PELSOR
_chemical_formula_moiety         'C156 H168 N16,0.983(P4)'
_chemical_name_systematic        
'1^2^,1^4^,1^6^,13^2^,13^4^,13^6^,25^2^,25^4^,25^6^,37^2^,37^4^,37^6^-dodecaethyl-4,7,10,16,19,22,28,31,34,40,43,46,51,56,61,66-hexadecaaza-1,13,25,37(1,3,5),2,12,14,24,26,36,38,48,49,58,59,64(1,4)-hexadecabenzenapentacyclo[29.17.5.5^7,25^.5^13,43^.5^19,37^]octahexaconta-3,10,15,22,27,34,39,46,50,56,60,65-dodecaene tetraphosphorus unknown solvate'
_symmetry_cell_setting           rhombohedral
_symmetry_space_group_name_H-M   'R 3'
_symmetry_Int_Tables_number      146
_space_group_name_Hall           'R 3'
loop_
_symmetry_equiv_pos_site_id
_symmetry_equiv_pos_as_xyz
1 x,y,z
2 -y,x-y,z
3 -x+y,-x,z
4 2/3+x,1/3+y,1/3+z
5 2/3-y,1/3+x-y,1/3+z
6 2/3-x+y,1/3-x,1/3+z
7 1/3+x,2/3+y,2/3+z
8 1/3-y,2/3+x-y,2/3+z
9 1/3-x+y,2/3-x,2/3+z
_cell_length_a                   19.767(2)
_cell_length_b                   19.767(2)
_cell_length_c                   37.422(4)
_cell_angle_alpha                90
_cell_angle_beta                 90
_cell_angle_gamma                120
_cell_volume                     12663.1
_exptl_crystal_colour            colorless
_exptl_crystal_description       block
_cell_formula_units_Z            3
loop_
_atom_site_label
_atom_site_type_symbol
_atom_site_fract_x
_atom_site_fract_y
_atom_site_fract_z
N1 N 0.3418(3) 1.1397(3) 0.48035(14)
N2 N 0.4084(3) 1.2074(3) 0.55762(14)
N3 N 0.2987(3) 1.0507(3) 0.59714(14)
N4 N 0.3333 0.6667 0.1724(2)
N5 N 0.1769(3) 0.5990(3) 0.21501(12)
N6 N -0.1817(3) 0.3676(3) 0.54843(14)
C1 C 0.1725(3) 0.7733(3) 0.42746(15)
C2 C 0.1819(3) 0.7511(3) 0.39282(15)
C3 C 0.1389(3) 0.6715(3) 0.38255(14)
C4 C 0.0868(3) 0.6135(3) 0.40769(17)
C5 C 0.0799(3) 0.6362(3) 0.44131(16)
C6 C 0.1210(4) 0.7160(4) 0.45180(17)
C7 C 0.1089(4) 0.7416(4) 0.48923(18)
H1 H 0.1002 0.7009 0.5070
H2 H 0.1564 0.7906 0.4963
C8 C 0.0398(4) 0.7543(4) 0.4890(2)
H3 H -0.0074 0.7054 0.4826
H4 H 0.0486 0.7948 0.4716
H5 H 0.0332 0.7708 0.5129
C9 C 0.2372(4) 0.8138(3) 0.36742(16)
H6 H 0.2534 0.7896 0.3486
H7 H 0.2846 0.8515 0.3807
C10 C 0.2005(4) 0.8581(4) 0.34966(17)
H8 H 0.1584 0.8227 0.3336
H9 H 0.2405 0.9022 0.3359
H10 H 0.1794 0.8775 0.3681
C11 C -0.0270(4) 0.5103(4) 0.3719(2)
H11 H -0.0562 0.4540 0.3672
H12 H -0.0086 0.5387 0.3493
H13 H -0.0610 0.5260 0.3840
C12 C 0.0406(4) 0.5288(3) 0.39501(16)
H14 H 0.0764 0.5164 0.3818
H15 H 0.0218 0.4944 0.4162
C13 C 0.2238(4) 0.8574(4) 0.43905(15)
C14 C 0.2986(4) 0.8863(4) 0.44911(16)
H16 H 0.3201 0.8527 0.4489
C15 C 0.3457(4) 0.9633(4) 0.45980(16)
H17 H 0.3987 0.9815 0.4660
C16 C 0.3166(4) 1.0132(4) 0.46146(16)
C17 C 0.2406(4) 0.9876(4) 0.45113(17)
H18 H 0.2200 1.0219 0.4515
C18 C 0.1936(4) 0.9079(4) 0.43985(17)
H19 H 0.1411 0.8892 0.4328
C19 C 0.3671(4) 1.0944(3) 0.47471(15)
H20 H 0.4208 1.1123 0.4790
C20 C 0.3982(4) 1.2190(3) 0.49102(18)
H21 H 0.3984 1.2564 0.4734
H22 H 0.4512 1.2255 0.4917
C21 C 0.3765(4) 1.2366(4) 0.52888(16)
H23 H 0.3982 1.2936 0.5317
H24 H 0.3189 1.2108 0.5312
C22 C 0.3636(3) 1.1937(4) 0.59014(17)
H25 H 0.3526 1.2369 0.5936
H26 H 0.3953 1.1938 0.6107
C23 C 0.2872(3) 1.1169(3) 0.58957(17)
H27 H 0.2513 1.1185 0.6076
H28 H 0.2625 1.1097 0.5658
C24 C 0.2828(3) 1.0009(4) 0.57270(18)
H29 H 0.2633 1.0078 0.5506
C25 C 0.2933(3) 0.9319(3) 0.57727(16)
C26 C 0.3112(4) 0.9142(3) 0.60872(18)
H30 H 0.3156 0.9452 0.6289
C27 C 0.2835(3) 0.8840(3) 0.54850(18)
H31 H 0.2697 0.8953 0.5259
C28 C 0.2930(4) 0.8214(4) 0.55190(17)
H32 H 0.2865 0.7900 0.5315
C29 C 0.3127(3) 0.8012(3) 0.58529(16)
C30 C 0.3240(4) 0.8507(4) 0.61294(17)
H33 H 0.3408 0.8422 0.6354
C31 C 0.0304(4) 0.5768(3) 0.46926(15)
C32 C 0.0636(4) 0.5618(4) 0.49992(17)
H34 H 0.1186 0.5904 0.5034
C33 C 0.0176(3) 0.5071(3) 0.52424(16)
H35 H 0.0416 0.4994 0.5446
C34 C -0.0591(4) 0.4641(4) 0.52082(17)
C35 C -0.0955(4) 0.4762(4) 0.49122(18)
H36 H -0.1507 0.4465 0.4886
C36 C -0.0509(4) 0.5310(4) 0.46634(17)
H37 H -0.0760 0.5384 0.4463
C37 C 0.1538(3) 0.6481(3) 0.34720(15)
C38 C 0.2014(3) 0.6151(3) 0.34357(15)
H38 H 0.2259 0.6078 0.3639
C39 C 0.2123(3) 0.5929(3) 0.30984(15)
H39 H 0.2428 0.5681 0.3080
C40 C 0.1820(3) 0.6043(3) 0.27926(15)
C41 C 0.1315(3) 0.6353(3) 0.28273(17)
H40 H 0.1062 0.6404 0.2622
C42 C 0.1185(4) 0.6584(3) 0.31621(15)
H41 H 0.0860 0.6810 0.3182
C43 C 0.1979(3) 0.5831(3) 0.24485(17)
H42 H 0.2258 0.5555 0.2441
C44 C 0.1948(3) 0.5704(4) 0.18142(15)
H43 H 0.2160 0.5358 0.1874
H44 H 0.1461 0.5394 0.1676
C45 C 0.2526(3) 0.6366(4) 0.15912(16)
H45 H 0.2490 0.6189 0.1341
H46 H 0.2400 0.6792 0.1595
C46 C -0.1070(4) 0.4061(3) 0.54892(17)
H47 H -0.0807 0.3974 0.5681
C47 C -0.2215(4) 0.3132(3) 0.57736(19)
H48 H -0.2609 0.3240 0.5880
H49 H -0.1834 0.3200 0.5962
C48 C 0.4909(3) 1.2615(4) 0.56344(17)
H50 H 0.4967 1.3018 0.5808
H51 H 0.5149 1.2882 0.5407
C49 C 0.3233(3) 0.7328(4) 0.58816(16)
C50 C 0.1771(4) 0.6474(4) 0.5887(2)
H52 H 0.1391 0.5939 0.5807
H53 H 0.1752 0.6845 0.5716
C51 C 0.1520(5) 0.6611(5) 0.6266(2)
H54 H 0.1030 0.6619 0.6246
H55 H 0.1928 0.7113 0.6362
H56 H 0.1446 0.6189 0.6427
C52 C 0.2578(4) 0.6573(4) 0.58811(16)
N1A N -0.1397(3) 0.2021(4) 0.48035(14)
N2A N -0.2074(3) 0.2010(4) 0.55762(14)
N3A N -0.0507(3) 0.2480(4) 0.59714(14)
N5A N 0.4010(3) 0.5779(4) 0.21501(12)
N6A N 0.6324(3) 0.4507(4) 0.54843(14)
C1A C 0.2267(3) 0.3992(4) 0.42746(15)
C2A C 0.2489(3) 0.4308(4) 0.39282(15)
C3A C 0.3285(3) 0.4674(4) 0.38255(14)
C4A C 0.3865(3) 0.4733(4) 0.40769(17)
C5A C 0.3638(3) 0.4437(4) 0.44131(16)
C6A C 0.2840(4) 0.4050(6) 0.45180(17)
C7A C 0.2584(4) 0.3673(6) 0.48923(18)
H1A H 0.2991 0.3993 0.5070
H2A H 0.2094 0.3658 0.4963
C8A C 0.2457(4) 0.2855(6) 0.4890(2)
H3A H 0.2946 0.2872 0.4826
H4A H 0.2052 0.2538 0.4716
H5A H 0.2292 0.2624 0.5129
C9A C 0.1862(3) 0.4234(5) 0.36742(16)
H6A H 0.2104 0.4638 0.3486
H7A H 0.1485 0.4331 0.3807
C10A C 0.1419(4) 0.3424(6) 0.34966(17)
H8A H 0.1773 0.3357 0.3336
H9A H 0.0978 0.3383 0.3359
H10A H 0.1225 0.3019 0.3681
C11A C 0.4897(4) 0.4627(6) 0.3719(2)
H11A H 0.5460 0.4898 0.3672
H12A H 0.4613 0.4527 0.3493
H13A H 0.4740 0.4130 0.3840
C12A C 0.4712(3) 0.5118(5) 0.39501(16)
H14A H 0.4836 0.5600 0.3818
H15A H 0.5056 0.5274 0.4162
C13A C 0.1426(4) 0.3664(6) 0.43905(15)
C14A C 0.1137(4) 0.4123(6) 0.44911(16)
H16A H 0.1473 0.4674 0.4489
C15A C 0.0367(4) 0.3824(6) 0.45980(16)
H17A H 0.0185 0.4172 0.4660
C16A C -0.0132(4) 0.3034(6) 0.46146(16)
C17A C 0.0124(4) 0.2530(6) 0.45113(17)
H18A H -0.0219 0.1981 0.4515
C18A C 0.0921(4) 0.2857(6) 0.43985(17)
H19A H 0.1108 0.2519 0.4328
C19A C -0.0944(3) 0.2727(5) 0.47471(15)
H20A H -0.1123 0.3085 0.4790
C20A C -0.2190(3) 0.1792(5) 0.49102(18)
H21A H -0.2564 0.1420 0.4734
H22A H -0.2255 0.2257 0.4917
C21A C -0.2366(4) 0.1399(6) 0.52888(16)
H23A H -0.2936 0.1046 0.5317
H24A H -0.2108 0.1081 0.5312
C22A C -0.1937(4) 0.1699(5) 0.59014(17)
H25A H -0.2369 0.1157 0.5936
H26A H -0.1938 0.2015 0.6107
C23A C -0.1169(3) 0.1703(4) 0.58957(17)
H27A H -0.1185 0.1328 0.6076
H28A H -0.1097 0.1528 0.5658
C24A C -0.0009(4) 0.2819(5) 0.57270(18)
H29A H -0.0078 0.2555 0.5506
C25A C 0.0681(3) 0.3614(4) 0.57727(16)
C26A C 0.0858(3) 0.3970(5) 0.60872(18)
H30A H 0.0548 0.3704 0.6289
C27A C 0.1160(3) 0.3995(4) 0.54850(18)
H31A H 0.1047 0.3744 0.5259
C28A C 0.1786(4) 0.4716(6) 0.55190(17)
H32A H 0.2100 0.4965 0.5315
C29A C 0.1988(3) 0.5115(4) 0.58529(16)
C30A C 0.1493(4) 0.4733(6) 0.61294(17)
H33A H 0.1578 0.4986 0.6354
C31A C 0.4232(3) 0.4536(5) 0.46926(15)
C32A C 0.4382(4) 0.5018(6) 0.49992(17)
H34A H 0.4096 0.5282 0.5034
C33A C 0.4929(3) 0.5105(4) 0.52424(16)
H35A H 0.5006 0.5422 0.5446
C34A C 0.5359(4) 0.4768(6) 0.52082(17)
C35A C 0.5238(4) 0.4283(6) 0.49122(18)
H36A H 0.5535 0.4028 0.4886
C36A C 0.4690(4) 0.4181(6) 0.46634(17)
H37A H 0.4616 0.3856 0.4463
C37A C 0.3519(3) 0.5057(4) 0.34720(15)
C38A C 0.3849(3) 0.5863(4) 0.34357(15)
H38A H 0.3922 0.6181 0.3639
C39A C 0.4071(3) 0.6194(4) 0.30984(15)
H39A H 0.4319 0.6747 0.3080
C40A C 0.3957(3) 0.5777(4) 0.27926(15)
C41A C 0.3647(3) 0.4962(4) 0.28273(17)
H40A H 0.3596 0.4658 0.2622
C42A C 0.3416(3) 0.4601(5) 0.31621(15)
H41A H 0.3190 0.4050 0.3182
C43A C 0.4169(3) 0.6148(4) 0.24485(17)
H42A H 0.4445 0.6703 0.2441
C44A C 0.4296(4) 0.6244(5) 0.18142(15)
H43A H 0.4642 0.6802 0.1874
H44A H 0.4606 0.6067 0.1676
C45A C 0.3634(4) 0.6160(5) 0.15912(16)
H45A H 0.3811 0.6301 0.1341
H46A H 0.3208 0.5608 0.1595
C46A C 0.5939(3) 0.4869(5) 0.54892(17)
H47A H 0.6026 0.5219 0.5681
C47A C 0.6868(3) 0.4653(5) 0.57736(19)
H48A H 0.6760 0.4151 0.5880
H49A H 0.6800 0.4966 0.5962
C48A C -0.2615(4) 0.2294(5) 0.56344(17)
H50A H -0.3018 0.1949 0.5808
H51A H -0.2882 0.2267 0.5407
C49A C 0.2672(4) 0.5905(5) 0.58816(16)
C50A C 0.3526(4) 0.5297(6) 0.5887(2)
H52A H 0.4061 0.5452 0.5807
H53A H 0.3155 0.4907 0.5716
C51A C 0.3389(5) 0.4909(7) 0.6266(2)
H54A H 0.3381 0.4411 0.6246
H55A H 0.2887 0.4815 0.6362
H56A H 0.3811 0.5257 0.6427
C52A C 0.3427(4) 0.6005(6) 0.58811(16)
N1B N 0.7979(4) 0.6582(3) 0.48035(14)
N2B N 0.7990(4) 0.5916(3) 0.55762(14)
N3B N 0.7520(4) 0.7013(3) 0.59714(14)
N5B N 0.4221(4) 0.8231(3) 0.21501(12)
N6B N 0.5493(4) 1.1817(3) 0.54843(14)
C1B C 0.6008(4) 0.8275(3) 0.42746(15)
C2B C 0.5692(4) 0.8181(3) 0.39282(15)
C3B C 0.5326(4) 0.8611(3) 0.38255(14)
C4B C 0.5267(4) 0.9132(3) 0.40769(17)
C5B C 0.5563(4) 0.9201(3) 0.44131(16)
C6B C 0.5950(6) 0.8790(4) 0.45180(17)
C7B C 0.6327(6) 0.8911(4) 0.48923(18)
H1B H 0.6007 0.8998 0.5070
H2B H 0.6342 0.8436 0.4963
C8B C 0.7145(6) 0.9602(4) 0.4890(2)
H3B H 0.7128 1.0074 0.4826
H4B H 0.7462 0.9514 0.4716
H5B H 0.7376 0.9668 0.5129
C9B C 0.5766(5) 0.7628(4) 0.36742(16)
H6B H 0.5362 0.7466 0.3486
H7B H 0.5669 0.7154 0.3807
C10B C 0.6576(6) 0.7995(4) 0.34966(17)
H8B H 0.6643 0.8416 0.3336
H9B H 0.6617 0.7595 0.3359
H10B H 0.6981 0.8206 0.3681
C11B C 0.5373(6) 1.0270(4) 0.3719(2)
H11B H 0.5102 1.0562 0.3672
H12B H 0.5473 1.0086 0.3493
H13B H 0.5870 1.0610 0.3840
C12B C 0.4882(5) 0.9594(4) 0.39501(16)
H14B H 0.4400 0.9236 0.3818
H15B H 0.4726 0.9782 0.4162
C13B C 0.6336(6) 0.7762(4) 0.43905(15)
C14B C 0.5877(6) 0.7014(4) 0.44911(16)
H16B H 0.5326 0.6799 0.4489
C15B C 0.6176(6) 0.6543(4) 0.45980(16)
H17B H 0.5828 0.6013 0.4660
C16B C 0.6966(6) 0.6834(4) 0.46146(16)
C17B C 0.7470(6) 0.7594(4) 0.45113(17)
H18B H 0.8019 0.7800 0.4515
C18B C 0.7143(6) 0.8064(4) 0.43985(17)
H19B H 0.7481 0.8589 0.4328
C19B C 0.7273(5) 0.6329(4) 0.47471(15)
H20B H 0.6915 0.5792 0.4790
C20B C 0.8208(5) 0.6018(4) 0.49102(18)
H21B H 0.8580 0.6016 0.4734
H22B H 0.7743 0.5488 0.4917
C21B C 0.8601(6) 0.6235(4) 0.52888(16)
H23B H 0.8954 0.6018 0.5317
H24B H 0.8919 0.6811 0.5312
C22B C 0.8301(5) 0.6364(3) 0.59014(17)
H25B H 0.8843 0.6474 0.5936
H26B H 0.7985 0.6047 0.6107
C23B C 0.8297(4) 0.7128(3) 0.58957(17)
H27B H 0.8672 0.7487 0.6076
H28B H 0.8472 0.7375 0.5658
C24B C 0.7181(5) 0.7172(3) 0.57270(18)
H29B H 0.7445 0.7367 0.5506
C25B C 0.6386(4) 0.7067(3) 0.57727(16)
C26B C 0.6030(5) 0.6888(4) 0.60872(18)
H30B H 0.6296 0.6844 0.6289
C27B C 0.6005(4) 0.7165(3) 0.54850(18)
H31B H 0.6256 0.7303 0.5259
C28B C 0.5284(6) 0.7070(4) 0.55190(17)
H32B H 0.5035 0.7135 0.5315
C29B C 0.4885(4) 0.6873(3) 0.58529(16)
C30B C 0.5267(6) 0.6760(4) 0.61294(17)
H33B H 0.5014 0.6592 0.6354
C31B C 0.5464(5) 0.9696(4) 0.46926(15)
C32B C 0.4982(6) 0.9364(4) 0.49992(17)
H34B H 0.4718 0.8814 0.5034
C33B C 0.4895(4) 0.9824(3) 0.52424(16)
H35B H 0.4578 0.9584 0.5446
C34B C 0.5232(6) 1.0591(4) 0.52082(17)
C35B C 0.5717(6) 1.0955(4) 0.49122(18)
H36B H 0.5972 1.1507 0.4886
C36B C 0.5819(6) 1.0509(4) 0.46634(17)
H37B H 0.6144 1.0760 0.4463
C37B C 0.4943(4) 0.8462(3) 0.34720(15)
C38B C 0.4137(4) 0.7986(3) 0.34357(15)
H38B H 0.3819 0.7741 0.3639
C39B C 0.3806(4) 0.7877(3) 0.30984(15)
H39B H 0.3253 0.7572 0.3080
C40B C 0.4223(4) 0.8180(3) 0.27926(15)
C41B C 0.5038(4) 0.8685(3) 0.28273(17)
H40B H 0.5342 0.8938 0.2622
C42B C 0.5399(5) 0.8815(4) 0.31621(15)
H41B H 0.5950 0.9140 0.3182
C43B C 0.3852(4) 0.8021(3) 0.24485(17)
H42B H 0.3297 0.7742 0.2441
C44B C 0.3756(5) 0.8052(3) 0.18142(15)
H43B H 0.3198 0.7840 0.1874
H44B H 0.3933 0.8539 0.1676
C45B C 0.3840(5) 0.7474(3) 0.15912(16)
H45B H 0.3699 0.7510 0.1341
H46B H 0.4392 0.7600 0.1595
C46B C 0.5131(5) 1.1070(4) 0.54892(17)
H47B H 0.4781 1.0807 0.5681
C47B C 0.5347(5) 1.2215(4) 0.57736(19)
H48B H 0.5849 1.2609 0.5880
H49B H 0.5034 1.1834 0.5962
C48B C 0.7706(5) 0.5091(3) 0.56344(17)
H50B H 0.8051 0.5033 0.5808
H51B H 0.7733 0.4851 0.5407
C49B C 0.4095(5) 0.6767(3) 0.58816(16)
C50B C 0.4703(6) 0.8229(4) 0.5887(2)
H52B H 0.4548 0.8609 0.5807
H53B H 0.5093 0.8248 0.5716
C51B C 0.5091(7) 0.8480(5) 0.6266(2)
H54B H 0.5589 0.8970 0.6246
H55B H 0.5185 0.8072 0.6362
H56B H 0.4743 0.8554 0.6427
C52B C 0.3995(6) 0.7422(4) 0.58811(16)
P1 P 0.3333 0.6667 0.49600(8)
P2 P 0.27066(11) 0.66795(11) 0.44851(6)
P2A P 0.33205(11) 0.60271(16) 0.44851(6)
P2B P 0.39729(16) 0.72934(11) 0.44851(6)
loop_
_geom_bond_atom_site_label_1
_geom_bond_atom_site_label_2
_geom_bond_site_symmetry_1
_geom_bond_site_symmetry_2
N1 C19 1_555 1_555
N2 C21 1_555 1_555
N3 C23 1_555 1_555
N4 C45 1_555 1_555
N5 C43 1_555 1_555
N6 C46 1_555 1_555
C1 C2 1_555 1_555
C2 C3 1_555 1_555
C3 C4 1_555 1_555
C4 C5 1_555 1_555
C5 C6 1_555 1_555
C6 C1 1_555 1_555
C7 C6 1_555 1_555
H1 C7 1_555 1_555
H2 C7 1_555 1_555
C8 C7 1_555 1_555
H3 C8 1_555 1_555
H4 C8 1_555 1_555
H5 C8 1_555 1_555
C9 C2 1_555 1_555
H6 C9 1_555 1_555
H7 C9 1_555 1_555
C10 C9 1_555 1_555
H8 C10 1_555 1_555
H9 C10 1_555 1_555
H10 C10 1_555 1_555
C11 H11 1_555 1_555
H12 C11 1_555 1_555
H13 C11 1_555 1_555
C12 C4 1_555 1_555
H14 C12 1_555 1_555
H15 C12 1_555 1_555
C13 C1 1_555 1_555
C14 C13 1_555 1_555
H16 C14 1_555 1_555
C15 C14 1_555 1_555
H17 C15 1_555 1_555
C16 C15 1_555 1_555
C17 C16 1_555 1_555
H18 C17 1_555 1_555
C18 C13 1_555 1_555
H19 C18 1_555 1_555
C19 C16 1_555 1_555
H20 C19 1_555 1_555
C20 N1 1_555 1_555
H21 C20 1_555 1_555
H22 C20 1_555 1_555
C21 C20 1_555 1_555
H23 C21 1_555 1_555
H24 C21 1_555 1_555
C22 N2 1_555 1_555
H25 C22 1_555 1_555
H26 C22 1_555 1_555
C23 C22 1_555 1_555
H27 C23 1_555 1_555
H28 C23 1_555 1_555
C24 N3 1_555 1_555
H29 C24 1_555 1_555
C25 C24 1_555 1_555
C26 C25 1_555 1_555
H30 C26 1_555 1_555
C27 C25 1_555 1_555
H31 C27 1_555 1_555
C28 C27 1_555 1_555
H32 C28 1_555 1_555
C29 C28 1_555 1_555
C30 C26 1_555 1_555
H33 C30 1_555 1_555
C31 C5 1_555 1_555
C32 C31 1_555 1_555
H34 C32 1_555 1_555
C33 C32 1_555 1_555
H35 C33 1_555 1_555
C34 C33 1_555 1_555
C35 C34 1_555 1_555
H36 C35 1_555 1_555
C36 C31 1_555 1_555
H37 C36 1_555 1_555
C37 C3 1_555 1_555
C38 C37 1_555 1_555
H38 C38 1_555 1_555
C39 C38 1_555 1_555
H39 C39 1_555 1_555
C40 C39 1_555 1_555
C41 C40 1_555 1_555
H40 C41 1_555 1_555
C42 C37 1_555 1_555
H41 C42 1_555 1_555
C43 C40 1_555 1_555
H42 C43 1_555 1_555
C44 N5 1_555 1_555
H43 C44 1_555 1_555
H44 C44 1_555 1_555
C45 C44 1_555 1_555
H45 C45 1_555 1_555
H46 C45 1_555 1_555
C46 C34 1_555 1_555
H47 C46 1_555 1_555
C47 N6 1_555 1_555
H48 C47 1_555 1_555
H49 C47 1_555 1_555
C48 N2 1_555 1_555
H50 C48 1_555 1_555
H51 C48 1_555 1_555
C49 C29 1_555 1_555
C50 H52 1_555 1_555
H53 C50 1_555 1_555
C51 C50 1_555 1_555
H54 C51 1_555 1_555
H55 C51 1_555 1_555
H56 C51 1_555 1_555
C52 C49 1_555 1_555
P1 P2 1_555 1_555
P2 P2A 1_555 1_555
N1A C19A 1_555 1_555
N2A C21A 1_555 1_555
N3A C23A 1_555 1_555
N5A C43A 1_555 1_555
N6A C46A 1_555 1_555
C1A C2A 1_555 1_555
C2A C3A 1_555 1_555
C3A C4A 1_555 1_555
C4A C5A 1_555 1_555
C5A C6A 1_555 1_555
C6A C1A 1_555 1_555
C7A C6A 1_555 1_555
H1A C7A 1_555 1_555
H2A C7A 1_555 1_555
C8A C7A 1_555 1_555
H3A C8A 1_555 1_555
H4A C8A 1_555 1_555
H5A C8A 1_555 1_555
C9A C2A 1_555 1_555
H6A C9A 1_555 1_555
H7A C9A 1_555 1_555
C10A C9A 1_555 1_555
H8A C10A 1_555 1_555
H9A C10A 1_555 1_555
H10A C10A 1_555 1_555
C11A H11A 1_555 1_555
H12A C11A 1_555 1_555
H13A C11A 1_555 1_555
C12A C4A 1_555 1_555
H14A C12A 1_555 1_555
H15A C12A 1_555 1_555
C13A C1A 1_555 1_555
C14A C13A 1_555 1_555
H16A C14A 1_555 1_555
C15A C14A 1_555 1_555
H17A C15A 1_555 1_555
C16A C15A 1_555 1_555
C17A C16A 1_555 1_555
H18A C17A 1_555 1_555
C18A C13A 1_555 1_555
H19A C18A 1_555 1_555
C19A C16A 1_555 1_555
H20A C19A 1_555 1_555
C20A N1A 1_555 1_555
H21A C20A 1_555 1_555
H22A C20A 1_555 1_555
C21A C20A 1_555 1_555
H23A C21A 1_555 1_555
H24A C21A 1_555 1_555
C22A N2A 1_555 1_555
H25A C22A 1_555 1_555
H26A C22A 1_555 1_555
C23A C22A 1_555 1_555
H27A C23A 1_555 1_555
H28A C23A 1_555 1_555
C24A N3A 1_555 1_555
H29A C24A 1_555 1_555
C25A C24A 1_555 1_555
C26A C25A 1_555 1_555
H30A C26A 1_555 1_555
C27A C25A 1_555 1_555
H31A C27A 1_555 1_555
C28A C27A 1_555 1_555
H32A C28A 1_555 1_555
C29A C28A 1_555 1_555
C30A C26A 1_555 1_555
H33A C30A 1_555 1_555
C31A C5A 1_555 1_555
C32A C31A 1_555 1_555
H34A C32A 1_555 1_555
C33A C32A 1_555 1_555
H35A C33A 1_555 1_555
C34A C33A 1_555 1_555
C35A C34A 1_555 1_555
H36A C35A 1_555 1_555
C36A C31A 1_555 1_555
H37A C36A 1_555 1_555
C37A C3A 1_555 1_555
C38A C37A 1_555 1_555
H38A C38A 1_555 1_555
C39A C38A 1_555 1_555
H39A C39A 1_555 1_555
C40A C39A 1_555 1_555
C41A C40A 1_555 1_555
H40A C41A 1_555 1_555
C42A C37A 1_555 1_555
H41A C42A 1_555 1_555
C43A C40A 1_555 1_555
H42A C43A 1_555 1_555
C44A N5A 1_555 1_555
H43A C44A 1_555 1_555
H44A C44A 1_555 1_555
C45A N4 1_555 1_555
H45A C45A 1_555 1_555
H46A C45A 1_555 1_555
C46A C34A 1_555 1_555
H47A C46A 1_555 1_555
C47A N6A 1_555 1_555
H48A C47A 1_555 1_555
H49A C47A 1_555 1_555
C48A C47 1_555 1_555
H50A C48A 1_555 1_555
H51A C48A 1_555 1_555
C49A C52 1_555 1_555
C50A H52A 1_555 1_555
H53A C50A 1_555 1_555
C51A C50A 1_555 1_555
H54A C51A 1_555 1_555
H55A C51A 1_555 1_555
H56A C51A 1_555 1_555
C52A C49A 1_555 1_555
N1B C19B 1_555 1_555
N2B C21B 1_555 1_555
N3B C23B 1_555 1_555
N5B C43B 1_555 1_555
N6B C46B 1_555 1_555
C1B C2B 1_555 1_555
C2B C3B 1_555 1_555
C3B C4B 1_555 1_555
C4B C5B 1_555 1_555
C5B C6B 1_555 1_555
C6B C1B 1_555 1_555
C7B C6B 1_555 1_555
H1B C7B 1_555 1_555
H2B C7B 1_555 1_555
C8B C7B 1_555 1_555
H3B C8B 1_555 1_555
H4B C8B 1_555 1_555
H5B C8B 1_555 1_555
C9B C2B 1_555 1_555
H6B C9B 1_555 1_555
H7B C9B 1_555 1_555
C10B C9B 1_555 1_555
H8B C10B 1_555 1_555
H9B C10B 1_555 1_555
H10B C10B 1_555 1_555
C11B H11B 1_555 1_555
H12B C11B 1_555 1_555
H13B C11B 1_555 1_555
C12B C4B 1_555 1_555
H14B C12B 1_555 1_555
H15B C12B 1_555 1_555
C13B C1B 1_555 1_555
C14B C13B 1_555 1_555
H16B C14B 1_555 1_555
C15B C14B 1_555 1_555
H17B C15B 1_555 1_555
C16B C15B 1_555 1_555
C17B C16B 1_555 1_555
H18B C17B 1_555 1_555
C18B C13B 1_555 1_555
H19B C18B 1_555 1_555
C19B C16B 1_555 1_555
H20B C19B 1_555 1_555
C20B N1B 1_555 1_555
H21B C20B 1_555 1_555
H22B C20B 1_555 1_555
C21B C20B 1_555 1_555
H23B C21B 1_555 1_555
H24B C21B 1_555 1_555
C22B N2B 1_555 1_555
H25B C22B 1_555 1_555
H26B C22B 1_555 1_555
C23B C22B 1_555 1_555
H27B C23B 1_555 1_555
H28B C23B 1_555 1_555
C24B N3B 1_555 1_555
H29B C24B 1_555 1_555
C25B C24B 1_555 1_555
C26B C25B 1_555 1_555
H30B C26B 1_555 1_555
C27B C25B 1_555 1_555
H31B C27B 1_555 1_555
C28B C27B 1_555 1_555
H32B C28B 1_555 1_555
C29B C28B 1_555 1_555
C30B C26B 1_555 1_555
H33B C30B 1_555 1_555
C31B C5B 1_555 1_555
C32B C31B 1_555 1_555
H34B C32B 1_555 1_555
C33B C32B 1_555 1_555
H35B C33B 1_555 1_555
C34B C33B 1_555 1_555
C35B C34B 1_555 1_555
H36B C35B 1_555 1_555
C36B C31B 1_555 1_555
H37B C36B 1_555 1_555
C37B C3B 1_555 1_555
C38B C37B 1_555 1_555
H38B C38B 1_555 1_555
C39B C38B 1_555 1_555
H39B C39B 1_555 1_555
C40B C39B 1_555 1_555
C41B C40B 1_555 1_555
H40B C41B 1_555 1_555
C42B C37B 1_555 1_555
H41B C42B 1_555 1_555
C43B C40B 1_555 1_555
H42B C43B 1_555 1_555
C44B N5B 1_555 1_555
H43B C44B 1_555 1_555
H44B C44B 1_555 1_555
C45B N4 1_555 1_555
H45B C45B 1_555 1_555
H46B C45B 1_555 1_555
C46B C34B 1_555 1_555
H47B C46B 1_555 1_555
C47B C48 1_555 1_555
H48B C47B 1_555 1_555
H49B C47B 1_555 1_555
C48B C47A 1_555 1_555
H50B C48B 1_555 1_555
H51B C48B 1_555 1_555
C49B C52A 1_555 1_555
C50B H52B 1_555 1_555
H53B C50B 1_555 1_555
C51B C50B 1_555 1_555
H54B C51B 1_555 1_555
H55B C51B 1_555 1_555
H56B C51B 1_555 1_555
C52B C49 1_555 1_555
P2A P1 1_555 1_555
P2B P1 1_555 1_555
C11 C12 1_555 1_555
C17 C18 1_555 1_555
C29 C30 1_555 1_555
C35 C36 1_555 1_555
C41 C42 1_555 1_555
C50 C52 1_555 1_555
P2 P2B 1_555 1_555
N2A C48A 1_555 1_555
C11A C12A 1_555 1_555
C17A C18A 1_555 1_555
C29A C30A 1_555 1_555
C29A C49A 1_555 1_555
C35A C36A 1_555 1_555
C41A C42A 1_555 1_555
C44A C45A 1_555 1_555
C50A C52A 1_555 1_555
N2B C48B 1_555 1_555
N6B C47B 1_555 1_555
C11B C12B 1_555 1_555
C17B C18B 1_555 1_555
C29B C30B 1_555 1_555
C29B C49B 1_555 1_555
C35B C36B 1_555 1_555
C41B C42B 1_555 1_555
C44B C45B 1_555 1_555
C49B C52B 1_555 1_555
C50B C52B 1_555 1_555
P2A P2B 1_555 1_555

#END
