
#######################################################################
#
#                 Cambridge Crystallographic Data Centre
#                                CCDC 
#
#######################################################################
#
# If this CIF has been generated from an entry in the Cambridge 
# Structural Database, then it will include bibliographic, chemical, 
# crystal, experimental, refinement or atomic coordinate data resulting 
# from the CCDC's data processing and validation procedures.
#
#######################################################################

data_PELVIO
_chemical_formula_moiety         'C306 H426 Mg24 N10 O116'
_chemical_name_systematic        
'hexakis(\m-proline)-hexakis(\m-2,8,14,20-tetrabutyl-5,11,17,23-tetrahydroxy-4,6,10,12,16,18,22,24-octaoxidopyrogallol[4]arene)-octacosaaqua-tetrakis(N,N-dimethylformamide)-tetracosa-magnesium unknown solvate'
_symmetry_cell_setting           monoclinic
_symmetry_space_group_name_H-M   'C 2'
_symmetry_Int_Tables_number      5
_space_group_name_Hall           'C 2y'
loop_
_symmetry_equiv_pos_site_id
_symmetry_equiv_pos_as_xyz
1 x,y,z
2 -x,y,-z
3 1/2+x,1/2+y,z
4 1/2-x,1/2+y,-z
_cell_length_a                   28.261(6)
_cell_length_b                   36.059(7)
_cell_length_c                   21.798(4)
_cell_angle_alpha                90
_cell_angle_beta                 117.95(3)
_cell_angle_gamma                90
_cell_volume                     19622.5
_exptl_crystal_colour            blue
_exptl_crystal_description       block
_cell_formula_units_Z            2
loop_
_atom_site_label
_atom_site_type_symbol
_atom_site_fract_x
_atom_site_fract_y
_atom_site_fract_z
Mg1 Mg 0.58643(11) 0.69299(7) 0.49948(13)
Mg2 Mg 0.41348(10) 0.28748(7) 0.50095(12)
Mg3 Mg 0.57186(12) 0.54244(7) 0.24412(14)
Mg4 Mg 0.71868(15) 0.63956(10) 0.59595(16)
Mg5 Mg 0.27469(15) 0.49121(9) 0.13176(15)
Mg6 Mg 0.64280(13) 0.63872(10) 0.40162(16)
Mg7 Mg 0.7697(2) 0.43809(8) 0.7569(2)
Mg8 Mg 0.63987(16) 0.34296(11) 0.40002(16)
Mg9 Mg 0.55733(13) 0.49062(10) 0.8594(2)
Mg10 Mg 0.7829(3) 0.54369(9) 0.7695(3)
Mg11 Mg 0.57147(15) 0.43793(9) 0.2407(2)
O1 O 0.5880(2) 0.64574(14) 0.3005(3)
O2 O 0.4853(2) 0.26712(16) 0.5793(3)
O3 O 0.4251(2) 0.71320(16) 0.4213(3)
O4 O 0.3442(2) 0.67379(16) 0.4197(3)
O5 O 0.6995(3) 0.45008(15) 0.9095(3)
O6 O 0.7834(3) 0.60671(16) 0.6170(3)
O7 O 0.6906(2) 0.60840(17) 0.3726(3)
O8 O 0.6527(3) 0.55541(16) 0.2848(4)
O9 O 0.3760(3) 0.23698(16) 0.4975(4)
O10 O 0.3881(3) 0.53158(17) 0.0924(4)
O11 O 0.7360(2) 0.33465(15) 0.6957(2)
O12 O 0.6958(3) 0.35312(18) 0.4975(3)
O13 O 0.5903(2) 0.66881(16) 0.4177(3)
O14 O 0.5724(2) 0.26880(14) 0.5784(3)
O15 O 0.4050(2) 0.30574(19) 0.5814(3)
O16 O 0.2281(3) 0.59836(15) 0.2100(4)
O17 O 0.8120(3) 0.55524(16) 0.7019(3)
O18 O 0.8105(3) 0.42488(15) 0.7046(4)
C1 C 0.5773(3) 0.24065(19) 0.7041(3)
H1 H 0.5609 0.2269 0.6590
O19 O 0.2625(2) 0.64886(14) 0.3027(3)
O20 O 0.7801(2) 0.37392(15) 0.6187(3)
O21 O 0.4500(3) 0.38435(16) 0.7862(3)
O22 O 0.6870(2) 0.37446(15) 0.3739(3)
C2 C 0.2973(3) 0.5985(2) 0.0783(4)
O23 O 0.5135(2) 0.71197(16) 0.4216(3)
C3 C 0.8184(3) 0.5628(2) 0.4918(5)
H2 H 0.8449 0.5472 0.4902
O24 O 0.7685(2) 0.38387(17) 0.7836(3)
O25 O 0.6532(2) 0.3108(2) 0.5791(3)
O26 O 0.5502(2) 0.59640(16) 0.2132(3)
O27 O 0.2446(5) 0.5355(2) 0.1602(6)
C4 C 0.2260(3) 0.7008(2) 0.1079(4)
H3 H 0.2205 0.7243 0.1272
H4 H 0.2538 0.7052 0.0931
C5 C 0.4652(3) 0.7040(2) 0.2332(4)
H5 H 0.4363 0.7116 0.1902
O28 O 0.4125(2) 0.33262(17) 0.7016(3)
C6 C 0.2587(3) 0.6339(2) 0.1425(4)
O29 O 0.6817(3) 0.6893(2) 0.3887(5)
C7 C 0.5060(3) 0.68131(18) 0.2325(4)
C8 C 0.2988(3) 0.6721(2) 0.2974(4)
C9 C 0.3420(3) 0.6825(2) 0.3588(4)
C10 C 0.8242(3) 0.5732(2) 0.5561(5)
C11 C 0.4973(3) 0.5988(2) 0.1688(4)
O30 O 0.7038(3) 0.63064(18) 0.4971(3)
O31 O 0.6008(3) 0.48898(19) 0.2661(4)
C12 C 0.3812(3) 0.70575(19) 0.3579(3)
O32 O 0.7427(4) 0.44769(17) 0.8240(4)
C13 C 0.4688(4) 0.63245(19) 0.1399(4)
O33 O 0.6211(3) 0.74349(18) 0.4914(4)
O34 O 0.6128(3) 0.44877(17) 0.9073(3)
C14 C 0.5027(3) 0.6678(2) 0.1622(4)
H6 H 0.5398 0.6609 0.1717
O35 O 0.6515(3) 0.42487(15) 0.2906(3)
C15 C 0.7397(4) 0.5240(2) 0.3401(4)
O36 O 0.8647(6) 0.5432(3) 0.8532(6)
C16 C 0.2460(3) 0.6706(2) 0.1652(4)
H7 H 0.2160 0.6658 0.1764
C17 C 0.5450(3) 0.6692(2) 0.2913(4)
C18 C 0.7751(3) 0.5743(2) 0.4287(4)
C19 C 0.5331(3) 0.26440(19) 0.7050(4)
O37 O 0.4531(3) 0.3407(2) 0.5051(5)
C20 C 0.3770(3) 0.71822(18) 0.2932(3)
C21 C 0.4895(3) 0.27563(19) 0.6436(4)
O38 O 0.6174(5) 0.5871(3) 0.4261(7)
C22 C 0.2836(3) 0.6326(2) 0.0986(4)
H8 H 0.2911 0.6552 0.0826
C23 C 0.6831(4) 0.5241(2) 0.3065(5)
O39 O 0.5778(4) 0.5453(3) 0.3414(4)
O40 O 0.7677(4) 0.6888(2) 0.6053(5)
O41 O 0.7874(4) 0.4910(2) 0.7407(5)
C24 C 0.7674(4) 0.41838(18) 0.3573(4)
H9 H 0.7440 0.3998 0.3220
O42 O 0.2961(3) 0.53237(16) 0.0827(3)
C25 C 0.7069(3) 0.29919(17) 0.7661(4)
O43 O 0.5065(4) 0.4468(2) 0.8191(7)
C26 C 0.7350(4) 0.4156(2) 0.8491(5)
C27 C 0.3329(3) 0.70647(19) 0.2325(4)
H10 H 0.3294 0.7145 0.1891
O44 O 0.6679(5) 0.5965(3) 0.5862(6)
C28 C 0.7359(3) 0.5965(2) 0.4313(4)
C29 C 0.5857(3) 0.3495(2) 0.9034(3)
H11 H 0.6037 0.3267 0.9215
O45 O 0.5577(4) 0.4295(2) 0.3318(5)
C30 C 0.7813(3) 0.3850(2) 0.5577(4)
C31 C 0.7546(3) 0.3111(2) 0.8328(4)
H12 H 0.7842 0.3171 0.8215
C32 C 0.8688(4) 0.5617(2) 0.6226(5)
H13 H 0.8727 0.5806 0.6582
C33 C 0.3258(4) 0.5981(2) 0.0326(4)
H14 H 0.3171 0.5737 0.0079
C34 C 0.3056(4) 0.6283(2) -0.0242(4)
H15 H 0.2659 0.6288 -0.0469
H16 H 0.3187 0.6527 -0.0019
C35 C 0.5181(5) 0.7321(3) 0.1246(6)
H17 H 0.5026 0.7495 0.0849
H18 H 0.5166 0.7443 0.1642
C36 C 0.7829(4) 0.5963(2) 0.5568(5)
C37 C 0.4485(3) 0.2968(2) 0.6427(4)
C38 C 0.6198(3) 0.26527(17) 0.7031(4)
O46 O 0.4917(3) 0.53413(19) 0.1880(4)
C39 C 0.7491(3) 0.3817(2) 0.8299(4)
C40 C 0.5084(3) 0.7028(2) 0.3572(4)
C41 C 0.6651(3) 0.27573(19) 0.7642(4)
H19 H 0.6684 0.2668 0.8071
C42 C 0.6158(4) 0.3820(2) 0.9215(3)
C43 C 0.7410(3) 0.6084(2) 0.4955(4)
C44 C 0.3856(4) 0.5992(2) 0.0767(5)
C45 C 0.4662(3) 0.71546(18) 0.2943(4)
C46 C 0.7005(3) 0.31141(19) 0.7024(4)
C47 C 0.2943(3) 0.6836(2) 0.2333(3)
N1 N 0.6243(4) 0.7943(2) 0.4330(5)
C48 C 0.7114(3) 0.4159(2) 0.8946(4)
C49 C 0.4160(4) 0.6320(2) 0.0966(4)
H20 H 0.3984 0.6549 0.0785
C50 C 0.6768(3) 0.38332(19) 0.9677(3)
H21 H 0.6853 0.4083 0.9903
C51 C 0.4035(4) 0.7700(2) 0.2362(4)
H22 H 0.3752 0.7849 0.2391
H23 H 0.3873 0.7575 0.1904
C52 C 0.8543(3) 0.4558(2) 0.6454(4)
C53 C 0.5978(4) 0.2106(2) 0.7628(5)
H24 H 0.6262 0.1958 0.7599
H25 H 0.6141 0.2232 0.8084
O47 O 0.1981(4) 0.4864(4) 0.0383(5)
C54 C 0.1730(4) 0.6897(3) 0.0437(4)
H26 H 0.1806 0.6706 0.0169
H27 H 0.1486 0.6785 0.0597
C55 C 0.7328(3) 0.3850(2) 0.4319(4)
C56 C 0.6145(3) 0.2781(2) 0.6414(4)
C57 C 0.4504(3) 0.3095(2) 0.7035(4)
C58 C 0.2499(4) 0.6022(3) 0.1656(5)
C59 C 0.8199(4) 0.4190(3) 0.3568(5)
H28 H 0.8439 0.4365 0.3931
H29 H 0.8142 0.4288 0.3114
C60 C 0.6547(3) 0.4909(3) 0.2918(4)
C61 C 0.4675(4) 0.5654(2) 0.1531(5)
C62 C 0.4823(4) 0.6978(2) 0.1052(5)
H30 H 0.4797 0.6870 0.0620
H31 H 0.4458 0.7054 0.0956
C63 C 0.6562(2) 0.30003(19) 0.6385(4)
C64 C 0.8684(3) 0.4899(2) 0.6261(4)
H32 H 0.8864 0.4896 0.5986
C65 C 0.8276(4) 0.5230(3) 0.6836(4)
C66 C 0.9224(4) 0.4196(3) 0.6234(6)
H33 H 0.9215 0.4393 0.5914
H34 H 0.9256 0.3956 0.6035
C67 C 0.5298(3) 0.3487(2) 0.8595(3)
C68 C 0.4126(4) 0.5659(3) 0.1079(4)
C69 C 0.8274(3) 0.4560(2) 0.6823(5)
C70 C 0.4092(5) 0.5476(3) 0.2996(6)
H35 H 0.4074 0.5438 0.3439
C71 C 0.5169(4) 0.2822(2) 0.8954(4)
H36 H 0.5544 0.2753 0.9083
H37 H 0.5166 0.2932 0.9367
C72 C 0.7739(3) 0.4062(2) 0.4286(4)
C73 C 0.5500(4) 0.6807(2) 0.3578(4)
C74 C 0.7363(3) 0.3735(2) 0.4954(5)
C75 C 0.6110(4) 0.7589(3) 0.4368(5)
C76 C 0.5875(4) 0.4163(2) 0.8941(5)
C77 C 0.8232(4) 0.5594(2) 0.3548(6)
H38 H 0.8423 0.5832 0.3719
H39 H 0.8464 0.5393 0.3850
O48 O 0.6998(4) 0.5415(3) 0.6849(6)
N2 N 0.4677(6) 0.5526(4) 0.3112(7)
H40 H 0.4706 0.5443 0.2737
H41 H 0.4911 0.5398 0.3494
C78 C 0.7174(3) 0.3493(2) 0.9016(3)
H42 H 0.7109 0.3266 0.9184
C79 C 0.8132(4) 0.4904(3) 0.7037(4)
C80 C 0.8567(4) 0.5239(2) 0.6462(4)
C81 C 0.7687(4) 0.5603(3) 0.3600(5)
H43 H 0.7451 0.5786 0.3244
C82 C 0.5348(3) 0.27666(16) 0.7690(3)
H44 H 0.5643 0.2696 0.8119
C83 C 0.8207(3) 0.40644(17) 0.5549(4)
C84 C 0.7650(3) 0.4888(2) 0.3553(3)
H45 H 0.8030 0.4879 0.3779
O49 O 0.5785(4) 0.3809(3) 0.4019(4)
C85 C 0.4948(3) 0.2983(2) 0.7694(3)
O50 O 0.5538(6) 0.6402(3) 0.5076(6)
C86 C 0.8701(3) 0.4199(2) 0.6243(4)
H46 H 0.8738 0.4013 0.6604
C87 C 0.2837(5) 0.5661(3) 0.0995(6)
C88 C 0.1449(5) 0.7224(3) -0.0037(6)
H47 H 0.1115 0.7134 -0.0434
H48 H 0.1346 0.7404 0.0223
C89 C 0.4973(3) 0.3116(2) 0.8365(4)
H49 H 0.4598 0.3179 0.8257
O51 O 0.5394(5) 0.4944(4) 0.9432(8)
O52 O 0.4200(4) 0.4937(5) 0.2288(4)
C90 C 0.7376(4) 0.4560(2) 0.3394(4)
C91 C 0.6828(4) 0.4568(2) 0.3066(5)
C92 C 0.7400(3) 0.3472(2) 0.8576(3)
C93 C 0.2586(5) 0.5665(3) 0.1422(6)
C94 C 0.9238(4) 0.5596(3) 0.6201(5)
H50 H 0.9203 0.5410 0.5849
H51 H 0.9302 0.5839 0.6042
C95 C 0.4486(5) 0.7963(3) 0.2412(7)
H52 H 0.4625 0.8109 0.2846
H53 H 0.4785 0.7815 0.2423
C96 C 0.9717(4) 0.4248(3) 0.6913(7)
H54 H 0.9678 0.4478 0.7131
H55 H 0.9745 0.4039 0.7223
O53 O 0.5797(9) 0.5356(4) 0.1449(7)
C97 C 0.8266(5) 0.2394(3) 1.0292(6)
H56 H 0.8476 0.2186 1.0580
H57 H 0.8195 0.2571 1.0579
H58 H 0.7926 0.2302 0.9921
C98 C 0.7753(4) 0.2817(2) 0.8887(4)
H59 H 0.7477 0.2767 0.9034
H60 H 0.7811 0.2585 0.8689
C99 C 0.5330(4) 0.4154(3) 0.8460(5)
C100 C 0.4235(3) 0.7402(2) 0.2937(4)
H61 H 0.4403 0.7540 0.3388
C101 C 0.4510(7) 0.3664(3) 0.3087(9)
H62 H 0.4576 0.3586 0.2698
H63 H 0.4592 0.3453 0.3410
C102 C 0.1773(6) 0.7424(3) -0.0317(5)
H64 H 0.1562 0.7629 -0.0614
H65 H 0.2100 0.7522 0.0070
H66 H 0.1868 0.7251 -0.0588
C103 C 0.6076(5) 0.5541(4) 0.4042(7)
C104 C 0.4005(6) 0.3765(4) 0.2847(9)
H67 H 0.3895 0.3746 0.3215
H68 H 0.3767 0.3607 0.2451
O54 O 0.3406(3) 0.5060(3) 0.2227(5)
C105 C 0.6981(4) 0.3539(3) 1.0276(5)
H69 H 0.6778 0.3563 1.0542
H70 H 0.6915 0.3287 1.0072
C106 C 0.8262(4) 0.2920(3) 0.9508(5)
H71 H 0.8181 0.3100 0.9789
H72 H 0.8499 0.3045 0.9352
C107 C 0.7560(4) 0.3583(3) 1.0757(4)
H73 H 0.7646 0.3851 1.0814
H74 H 0.7764 0.3469 1.0540
C108 C 0.5043(4) 0.3814(3) 0.8315(5)
O55 O 0.6621(6) 0.3963(4) 0.5966(6)
C109 C 0.5744(6) 0.7266(4) 0.1431(9)
H75 H 0.5756 0.7122 0.1051
H76 H 0.5904 0.7107 0.1851
C110 C 0.8176(3) 0.4159(2) 0.4935(5)
H77 H 0.8461 0.4299 0.4935
O56 O 0.6890(5) 0.2967(3) 0.3913(7)
C111 C 0.7035(4) 0.3814(2) 0.9229(4)
N3 N 0.6150(5) 0.4857(3) 0.4242(6)
H78 H 0.6033 0.4869 0.3776
H79 H 0.5875 0.4777 0.4315
O57 O 0.5743(6) 0.4456(3) 0.1499(6)
C112 C 0.5546(6) 0.1846(3) 0.7590(7)
H80 H 0.5382 0.1719 0.7134
H81 H 0.5262 0.1993 0.7622
C113 C 0.8571(4) 0.2580(3) 0.9982(5)
H82 H 0.8649 0.2398 0.9701
H83 H 0.8918 0.2667 1.0359
C114 C 0.3425(14) 0.1671(6) 0.4941(11)
H84 H 0.3292 0.1415 0.4865
H85 H 0.3817 0.1669 0.5196
H86 H 0.3283 0.1804 0.5211
C115 C 0.5465(5) 0.4045(4) 0.3630(6)
C116 C 0.6957(6) 0.5187(4) 0.4926(11)
H87 H 0.7097 0.5275 0.4612
H88 H 0.7118 0.5340 0.5353
N4 N 0.3254(7) 0.1849(5) 0.4289(9)
C117 C 0.4839(5) 0.2486(3) 0.8755(5)
H89 H 0.4940 0.2327 0.8464
H90 H 0.4458 0.2555 0.8476
C118 C 0.9718(5) 0.5500(4) 0.6870(9)
H91 H 0.9683 0.5624 0.7253
H92 H 0.9716 0.5229 0.6943
C119 C 0.387(3) 0.5109(18) 0.246(3)
C120 C 0.6336(5) 0.5227(4) 0.4562(7)
H93 H 0.6226 0.5257 0.4934
C121 C 0.6617(8) 0.4596(5) 0.4576(11)
H94 H 0.6699 0.4487 0.4220
H95 H 0.6533 0.4393 0.4813
C122 C 0.480(2) 0.5966(17) 0.322(3)
H96 H 0.5060 0.6022 0.3706
H97 H 0.4938 0.6059 0.2908
C123 C 0.3453(8) 0.2247(9) 0.4388(14)
C124 C 0.4763(14) 0.8411(5) 0.174(2)
H98 H 0.4624 0.8579 0.1338
H99 H 0.4983 0.8551 0.2163
H100 H 0.4982 0.8218 0.1677
C125 C 0.6130(8) 0.8103(4) 0.3683(8)
H101 H 0.6253 0.8361 0.3753
H102 H 0.6316 0.7963 0.3474
H103 H 0.5743 0.8095 0.3373
C126 C 0.3845(7) 0.5854(4) 0.2637(8)
H104 H 0.3757 0.5851 0.2141
H105 H 0.3517 0.5913 0.2674
C127 C 0.3230(8) 0.6226(6) -0.0785(9)
H106 H 0.3624 0.6194 -0.0540
H107 H 0.3077 0.5986 -0.1015
C128 C 0.7091(7) 0.4814(4) 0.5094(15)
H108 H 0.7157 0.4762 0.5573
H109 H 0.7418 0.4750 0.5057
N5 N 0.4510(6) 0.4302(3) 0.3033(7)
H110 H 0.4508 0.4486 0.3317
H111 H 0.4648 0.4398 0.2765
O58 O 0.8542(10) 0.4382(6) 0.8535(10)
C129 C 0.4873(6) 0.4000(5) 0.3472(9)
H112 H 0.4874 0.4017 0.3930
C130 C 0.4273(10) 0.8222(6) 0.1796(18)
H113 H 0.4049 0.8416 0.1852
H114 H 0.4048 0.8082 0.1365
C131 C 1.0727(17) 0.4088(16) 0.719(3)
H115 H 1.0895 0.4129 0.7689
H116 H 1.0673 0.3821 0.7090
C132 C 0.3980(8) 0.4193(6) 0.2599(9)
H117 H 0.3888 0.4210 0.2103
H118 H 0.3722 0.4341 0.2685
C133 C 0.532(2) 0.1359(16) 0.824(3)
H119 H 0.5464 0.1174 0.8611
H120 H 0.5109 0.1543 0.8345
H121 H 0.5081 0.1236 0.7798
C134 C 0.4287(7) 0.6126(5) 0.3044(15)
H122 H 0.4237 0.6353 0.2764
H123 H 0.4273 0.6197 0.3474
C135 C 0.4916(9) 0.2259(6) 0.9421(8)
H124 H 0.5288 0.2167 0.9670
C136 C 0.8489(8) 0.3807(4) 0.3694(9)
H125 H 0.8683 0.3758 0.4199
H126 H 0.8216 0.3610 0.3477
C137 C 0.7573(9) 0.3005(7) 1.1451(13)
H127 H 0.7712 0.2917 1.1929
H128 H 0.7181 0.2989 1.1213
H129 H 0.7717 0.2850 1.1207
C138 C 0.7747(8) 0.3417(6) 1.1455(9)
H130 H 0.7608 0.3568 1.1714
H131 H 0.8143 0.3430 1.1709
C139 C 0.655(2) 0.8191(17) 0.492(3)
H132 H 0.6588 0.8434 0.4750
H133 H 0.6354 0.8220 0.5193
H134 H 0.6901 0.8084 0.5216
C140 C 0.6100(10) 0.7589(7) 0.1568(11)
H135 H 0.6462 0.7504 0.1684
H136 H 0.5963 0.7747 0.1154
H137 H 0.6112 0.7732 0.1958
C141 C 0.452(2) 0.1925(13) 0.923(3)
H138 H 0.4583 0.1794 0.9654
H139 H 0.4152 0.2016 0.8991
H140 H 0.4584 0.1755 0.8923
C142 C 0.336(2) 0.6370(16) -0.183(3)
H141 H 0.3275 0.6555 -0.2193
H142 H 0.3749 0.6347 -0.1550
H143 H 0.3207 0.6130 -0.2038
C143 C 0.3108(11) 0.6498(10) -0.1334(12)
H144 H 0.3258 0.6742 -0.1125
H145 H 0.2715 0.6525 -0.1614
C144 C 0.2909(9) 0.1691(6) 0.3560(11)
H146 H 0.2858 0.1881 0.3212
H147 H 0.3089 0.1475 0.3490
H148 H 0.2560 0.1616 0.3511
C145 C 0.865(2) 0.3548(16) 0.268(3)
H149 H 0.8924 0.3547 0.2525
H150 H 0.8572 0.3293 0.2759
H151 H 0.8323 0.3664 0.2324
C146 C 1.0702(13) 0.5502(9) 0.766(2)
H152 H 1.0649 0.5637 0.8009
H153 H 1.0695 0.5234 0.7731
C147 C 1.0247(15) 0.5604(17) 0.692(2)
H154 H 1.0255 0.5873 0.6842
H155 H 1.0301 0.5470 0.6563
C148 C 0.5760(10) 0.1548(5) 0.8178(14)
H156 H 0.5972 0.1361 0.8079
H157 H 0.6000 0.1668 0.8626
C149 C 1.0226(5) 0.4270(6) 0.6863(13)
H158 H 1.0106 0.4233 0.6362
H159 H 1.0324 0.4536 0.6950
C150 C 0.887(2) 0.3786(16) 0.341(3)
H160 H 0.9207 0.3670 0.3763
C151 C 0.8133(7) 0.5527(5) 0.2791(11)
H161 H 0.7933 0.5292 0.2616
H162 H 0.7908 0.5731 0.2491
C152 C 0.846(4) 0.544(3) 0.192(3)
H163 H 0.8775 0.5427 0.1853
H164 H 0.8254 0.5211 0.1772
H165 H 0.8232 0.5650 0.1653
C153 C 0.8642(11) 0.5509(11) 0.2741(18)
H166 H 0.8869 0.5301 0.3024
H167 H 0.8847 0.5743 0.2904
Mg12 Mg 0.70548(13) 0.35205(10) 0.59460(15)
Mg1A Mg 0.41357(11) 0.69299(7) 0.50052(13)
Mg2A Mg 0.58652(10) 0.28748(7) 0.49905(12)
Mg3A Mg 0.42814(12) 0.54244(7) 0.75588(14)
Mg4A Mg 0.28132(15) 0.63956(10) 0.40405(16)
Mg5A Mg 0.72531(15) 0.49121(9) 0.86824(15)
Mg6A Mg 0.35720(13) 0.63872(10) 0.59838(16)
Mg7A Mg 0.2303(2) 0.43809(8) 0.2431(2)
Mg8A Mg 0.36013(16) 0.34296(11) 0.59998(16)
Mg9A Mg 0.44267(13) 0.49062(10) 0.1406(2)
Mg10A Mg 0.2171(3) 0.54369(9) 0.2305(3)
Mg11A Mg 0.42853(15) 0.43793(9) 0.7593(2)
O1A O 0.4120(2) 0.64574(14) 0.6995(3)
O2A O 0.5147(2) 0.26712(16) 0.4207(3)
O3A O 0.5749(2) 0.71320(16) 0.5787(3)
O4A O 0.6558(2) 0.67379(16) 0.5803(3)
O5A O 0.3005(3) 0.45008(15) 0.0905(3)
O6A O 0.2166(3) 0.60671(16) 0.3830(3)
O7A O 0.3094(2) 0.60840(17) 0.6274(3)
O8A O 0.3473(3) 0.55541(16) 0.7152(4)
O9A O 0.6240(3) 0.23698(16) 0.5025(4)
O10A O 0.6119(3) 0.53158(17) 0.9076(4)
O11A O 0.2640(2) 0.33465(15) 0.3043(2)
O12A O 0.3042(3) 0.35312(18) 0.5025(3)
O13A O 0.4097(2) 0.66881(16) 0.5823(3)
O14A O 0.4276(2) 0.26880(14) 0.4216(3)
O15A O 0.5950(2) 0.30574(19) 0.4186(3)
O16A O 0.7719(3) 0.59836(15) 0.7900(4)
O17A O 0.1880(3) 0.55524(16) 0.2981(3)
O18A O 0.1895(3) 0.42488(15) 0.2954(4)
C1A C 0.4227(3) 0.24065(19) 0.2959(3)
H1A H 0.4391 0.2269 0.3410
O19A O 0.7375(2) 0.64886(14) 0.6973(3)
O20A O 0.2199(2) 0.37392(15) 0.3813(3)
O21A O 0.5500(3) 0.38435(16) 0.2138(3)
O22A O 0.3130(2) 0.37446(15) 0.6261(3)
C2A C 0.7027(3) 0.5985(2) 0.9217(4)
O23A O 0.4865(2) 0.71197(16) 0.5784(3)
C3A C 0.1816(3) 0.5628(2) 0.5082(5)
H2A H 0.1551 0.5472 0.5098
O24A O 0.2315(2) 0.38387(17) 0.2164(3)
O25A O 0.3468(2) 0.3108(2) 0.4209(3)
O26A O 0.4498(2) 0.59640(16) 0.7868(3)
O27A O 0.7554(5) 0.5355(2) 0.8398(6)
C4A C 0.7740(3) 0.7008(2) 0.8921(4)
H3A H 0.7795 0.7243 0.8728
H4A H 0.7462 0.7052 0.9069
C5A C 0.5348(3) 0.7040(2) 0.7668(4)
H5A H 0.5637 0.7116 0.8098
O28A O 0.5875(2) 0.33262(17) 0.2984(3)
C6A C 0.7413(3) 0.6339(2) 0.8575(4)
O29A O 0.3183(3) 0.6893(2) 0.6113(5)
C7A C 0.4940(3) 0.68131(18) 0.7675(4)
C8A C 0.7012(3) 0.6721(2) 0.7026(4)
C9A C 0.6580(3) 0.6825(2) 0.6412(4)
C10A C 0.1758(3) 0.5732(2) 0.4439(5)
C11A C 0.5027(3) 0.5988(2) 0.8312(4)
O30A O 0.2962(3) 0.63064(18) 0.5029(3)
O31A O 0.3992(3) 0.48898(19) 0.7339(4)
C12A C 0.6188(3) 0.70575(19) 0.6421(3)
O32A O 0.2573(4) 0.44769(17) 0.1760(4)
C13A C 0.5312(4) 0.63245(19) 0.8601(4)
O33A O 0.3789(3) 0.74349(18) 0.5086(4)
O34A O 0.3872(3) 0.44877(17) 0.0927(3)
C14A C 0.4973(3) 0.6678(2) 0.8378(4)
H6A H 0.4602 0.6609 0.8283
O35A O 0.3485(3) 0.42487(15) 0.7094(3)
C15A C 0.2603(4) 0.5240(2) 0.6599(4)
O36A O 0.1353(6) 0.5432(3) 0.1468(6)
C16A C 0.7540(3) 0.6706(2) 0.8348(4)
H7A H 0.7840 0.6658 0.8236
C17A C 0.4550(3) 0.6692(2) 0.7087(4)
C18A C 0.2249(3) 0.5743(2) 0.5713(4)
C19A C 0.4669(3) 0.26440(19) 0.2950(4)
O37A O 0.5469(3) 0.3407(2) 0.4949(5)
C20A C 0.6230(3) 0.71822(18) 0.7068(3)
C21A C 0.5105(3) 0.27563(19) 0.3564(4)
O38A O 0.3826(5) 0.5871(3) 0.5739(7)
C22A C 0.7164(3) 0.6326(2) 0.9014(4)
H8A H 0.7089 0.6552 0.9174
C23A C 0.3169(4) 0.5241(2) 0.6935(5)
O39A O 0.4222(4) 0.5453(3) 0.6586(4)
O40A O 0.2323(4) 0.6888(2) 0.3947(5)
O41A O 0.2126(4) 0.4910(2) 0.2593(5)
C24A C 0.2326(4) 0.41838(18) 0.6427(4)
H9A H 0.2560 0.3998 0.6780
O42A O 0.7039(3) 0.53237(16) 0.9173(3)
C25A C 0.2931(3) 0.29919(17) 0.2339(4)
O43A O 0.4935(4) 0.4468(2) 0.1809(7)
C26A C 0.2650(4) 0.4156(2) 0.1509(5)
C27A C 0.6671(3) 0.70647(19) 0.7675(4)
H10A H 0.6706 0.7145 0.8109
O44A O 0.3321(5) 0.5965(3) 0.4138(6)
C28A C 0.2641(3) 0.5965(2) 0.5687(4)
C29A C 0.4143(3) 0.3495(2) 0.0966(3)
H11A H 0.3963 0.3267 0.0785
O45A O 0.4423(4) 0.4295(2) 0.6682(5)
C30A C 0.2187(3) 0.3850(2) 0.4423(4)
C31A C 0.2454(3) 0.3111(2) 0.1672(4)
H12A H 0.2158 0.3171 0.1785
C32A C 0.1312(4) 0.5617(2) 0.3774(5)
H13A H 0.1273 0.5806 0.3418
C33A C 0.6742(4) 0.5981(2) 0.9674(4)
H14A H 0.6829 0.5737 0.9921
C34A C 0.6944(4) 0.6283(2) 1.0242(4)
H15A H 0.7341 0.6288 1.0469
H16A H 0.6813 0.6527 1.0019
C35A C 0.4819(5) 0.7321(3) 0.8754(6)
H17A H 0.4974 0.7495 0.9151
H18A H 0.4834 0.7443 0.8358
C36A C 0.2171(4) 0.5963(2) 0.4432(5)
C37A C 0.5515(3) 0.2968(2) 0.3573(4)
C38A C 0.3802(3) 0.26527(17) 0.2969(4)
O46A O 0.5083(3) 0.53413(19) 0.8120(4)
C39A C 0.2509(3) 0.3817(2) 0.1701(4)
C40A C 0.4916(3) 0.7028(2) 0.6428(4)
C41A C 0.3349(3) 0.27573(19) 0.2358(4)
H19A H 0.3316 0.2668 0.1929
C42A C 0.3842(4) 0.3820(2) 0.0785(3)
C43A C 0.2590(3) 0.6084(2) 0.5045(4)
C44A C 0.6144(4) 0.5992(2) 0.9233(5)
C45A C 0.5338(3) 0.71546(18) 0.7057(4)
C46A C 0.2995(3) 0.31141(19) 0.2976(4)
C47A C 0.7057(3) 0.6836(2) 0.7667(3)
N1A N 0.3757(4) 0.7943(2) 0.5670(5)
C48A C 0.2886(3) 0.4159(2) 0.1054(4)
C49A C 0.5840(4) 0.6320(2) 0.9034(4)
H20A H 0.6016 0.6549 0.9215
C50A C 0.3232(3) 0.38332(19) 0.0323(3)
H21A H 0.3147 0.4083 0.0097
C51A C 0.5965(4) 0.7700(2) 0.7638(4)
H22A H 0.6248 0.7849 0.7609
H23A H 0.6127 0.7575 0.8096
C52A C 0.1457(3) 0.4558(2) 0.3546(4)
C53A C 0.4022(4) 0.2106(2) 0.2372(5)
H24A H 0.3738 0.1958 0.2401
H25A H 0.3859 0.2232 0.1916
O47A O 0.8019(4) 0.4864(4) 0.9617(5)
C54A C 0.8270(4) 0.6897(3) 0.9563(4)
H26A H 0.8194 0.6706 0.9831
H27A H 0.8514 0.6785 0.9403
C55A C 0.2672(3) 0.3850(2) 0.5681(4)
C56A C 0.3855(3) 0.2781(2) 0.3586(4)
C57A C 0.5496(3) 0.3095(2) 0.2965(4)
C58A C 0.7501(4) 0.6022(3) 0.8344(5)
C59A C 0.1801(4) 0.4190(3) 0.6432(5)
H28A H 0.1561 0.4365 0.6069
H29A H 0.1858 0.4288 0.6886
C60A C 0.3453(3) 0.4909(3) 0.7082(4)
C61A C 0.5325(4) 0.5654(2) 0.8469(5)
C62A C 0.5177(4) 0.6978(2) 0.8948(5)
H30A H 0.5203 0.6870 0.9380
H31A H 0.5542 0.7054 0.9044
C63A C 0.3438(2) 0.30003(19) 0.3615(4)
C64A C 0.1316(3) 0.4899(2) 0.3739(4)
H32A H 0.1136 0.4896 0.4014
C65A C 0.1724(4) 0.5230(3) 0.3164(4)
C66A C 0.0776(4) 0.4196(3) 0.3766(6)
H33A H 0.0785 0.4393 0.4086
H34A H 0.0744 0.3956 0.3965
C67A C 0.4702(3) 0.3487(2) 0.1405(3)
C68A C 0.5874(4) 0.5659(3) 0.8921(4)
C69A C 0.1726(3) 0.4560(2) 0.3177(5)
C70A C 0.5908(5) 0.5476(3) 0.7004(6)
H35A H 0.5926 0.5438 0.6561
C71A C 0.4831(4) 0.2822(2) 0.1046(4)
H36A H 0.4456 0.2753 0.0917
H37A H 0.4834 0.2932 0.0633
C72A C 0.2261(3) 0.4062(2) 0.5714(4)
C73A C 0.4500(4) 0.6807(2) 0.6422(4)
C74A C 0.2637(3) 0.3735(2) 0.5046(5)
C75A C 0.3890(4) 0.7589(3) 0.5632(5)
C76A C 0.4125(4) 0.4163(2) 0.1059(5)
C77A C 0.1768(4) 0.5594(2) 0.6452(6)
H38A H 0.1577 0.5832 0.6281
H39A H 0.1536 0.5393 0.6150
O48A O 0.3002(4) 0.5415(3) 0.3151(6)
N2A N 0.5323(6) 0.5526(4) 0.6888(7)
H40A H 0.5294 0.5443 0.7263
H41A H 0.5089 0.5398 0.6506
C78A C 0.2826(3) 0.3493(2) 0.0984(3)
H42A H 0.2891 0.3266 0.0816
C79A C 0.1868(4) 0.4904(3) 0.2963(4)
C80A C 0.1433(4) 0.5239(2) 0.3538(4)
C81A C 0.2313(4) 0.5603(3) 0.6400(5)
H43A H 0.2549 0.5786 0.6756
C82A C 0.4652(3) 0.27666(16) 0.2310(3)
H44A H 0.4357 0.2696 0.1881
C83A C 0.1793(3) 0.40644(17) 0.4451(4)
C84A C 0.2350(3) 0.4888(2) 0.6447(3)
H45A H 0.1970 0.4879 0.6221
O49A O 0.4215(4) 0.3809(3) 0.5981(4)
C85A C 0.5052(3) 0.2983(2) 0.2306(3)
O50A O 0.4462(6) 0.6402(3) 0.4924(6)
C86A C 0.1299(3) 0.4199(2) 0.3757(4)
H46A H 0.1262 0.4013 0.3396
C87A C 0.7163(5) 0.5661(3) 0.9005(6)
C88A C 0.8551(5) 0.7224(3) 1.0037(6)
H47A H 0.8885 0.7134 1.0434
H48A H 0.8654 0.7404 0.9777
C89A C 0.5027(3) 0.3116(2) 0.1635(4)
H49A H 0.5402 0.3179 0.1743
O51A O 0.4606(5) 0.4944(4) 0.0568(8)
O52A O 0.5800(4) 0.4937(5) 0.7712(4)
C90A C 0.2624(4) 0.4560(2) 0.6606(4)
C91A C 0.3172(4) 0.4568(2) 0.6934(5)
C92A C 0.2600(3) 0.3472(2) 0.1424(3)
C93A C 0.7414(5) 0.5665(3) 0.8578(6)
C94A C 0.0762(4) 0.5596(3) 0.3799(5)
H50A H 0.0797 0.5410 0.4151
H51A H 0.0698 0.5839 0.3958
C95A C 0.5514(5) 0.7963(3) 0.7588(7)
H52A H 0.5375 0.8109 0.7154
H53A H 0.5215 0.7815 0.7577
C96A C 0.0283(4) 0.4248(3) 0.3087(7)
H54A H 0.0322 0.4478 0.2869
H55A H 0.0255 0.4039 0.2777
O53A O 0.4203(9) 0.5356(4) 0.8551(7)
C97A C 0.1734(5) 0.2394(3) -0.0292(6)
H56A H 0.1524 0.2186 -0.0580
H57A H 0.1805 0.2571 -0.0579
H58A H 0.2074 0.2302 0.0079
C98A C 0.2247(4) 0.2817(2) 0.1113(4)
H59A H 0.2523 0.2767 0.0966
H60A H 0.2189 0.2585 0.1311
C99A C 0.4670(4) 0.4154(3) 0.1540(5)
C100A C 0.5765(3) 0.7402(2) 0.7063(4)
H61A H 0.5597 0.7540 0.6612
C101A C 0.5490(7) 0.3664(3) 0.6913(9)
H62A H 0.5424 0.3586 0.7302
H63A H 0.5408 0.3453 0.6590
C102A C 0.8227(6) 0.7424(3) 1.0317(5)
H64A H 0.8438 0.7629 1.0614
H65A H 0.7900 0.7522 0.9930
H66A H 0.8132 0.7251 1.0588
C103A C 0.3924(5) 0.5541(4) 0.5958(7)
C104A C 0.5995(6) 0.3765(4) 0.7153(9)
H67A H 0.6105 0.3746 0.6785
H68A H 0.6233 0.3607 0.7549
O54A O 0.6594(3) 0.5060(3) 0.7773(5)
C105A C 0.3019(4) 0.3539(3) -0.0276(5)
H69A H 0.3222 0.3563 -0.0542
H70A H 0.3085 0.3287 -0.0072
C106A C 0.1738(4) 0.2920(3) 0.0492(5)
H71A H 0.1819 0.3100 0.0211
H72A H 0.1501 0.3045 0.0648
C107A C 0.2440(4) 0.3583(3) -0.0757(4)
H73A H 0.2354 0.3851 -0.0814
H74A H 0.2236 0.3469 -0.0540
C108A C 0.4957(4) 0.3814(3) 0.1685(5)
O55A O 0.3379(6) 0.3963(4) 0.4034(6)
C109A C 0.4256(6) 0.7266(4) 0.8569(9)
H75A H 0.4244 0.7122 0.8949
H76A H 0.4096 0.7107 0.8149
C110A C 0.1824(3) 0.4159(2) 0.5065(5)
H77A H 0.1539 0.4299 0.5065
O56A O 0.3110(5) 0.2967(3) 0.6087(7)
C111A C 0.2965(4) 0.3814(2) 0.0771(4)
N3A N 0.3850(5) 0.4857(3) 0.5758(6)
H78A H 0.3967 0.4869 0.6224
H79A H 0.4125 0.4777 0.5685
O57A O 0.4257(6) 0.4456(3) 0.8501(6)
C112A C 0.4454(6) 0.1846(3) 0.2410(7)
H80A H 0.4618 0.1719 0.2866
H81A H 0.4738 0.1993 0.2378
C113A C 0.1429(4) 0.2580(3) 0.0018(5)
H82A H 0.1351 0.2398 0.0299
H83A H 0.1082 0.2667 -0.0359
C114A C 0.6575(14) 0.1671(6) 0.5059(11)
H84A H 0.6708 0.1415 0.5135
H85A H 0.6183 0.1669 0.4804
H86A H 0.6717 0.1804 0.4789
C115A C 0.4535(5) 0.4045(4) 0.6370(6)
C116A C 0.3043(6) 0.5187(4) 0.5074(11)
H87A H 0.2903 0.5275 0.5388
H88A H 0.2882 0.5340 0.4647
N4A N 0.6746(7) 0.1849(5) 0.5711(9)
C117A C 0.5161(5) 0.2486(3) 0.1245(5)
H89A H 0.5060 0.2327 0.1536
H90A H 0.5542 0.2555 0.1524
C118A C 0.0282(5) 0.5500(4) 0.3130(9)
H91A H 0.0317 0.5624 0.2747
H92A H 0.0284 0.5229 0.3057
C119A C 0.613(3) 0.5109(18) 0.754(3)
C120A C 0.3664(5) 0.5227(4) 0.5438(7)
H93A H 0.3774 0.5257 0.5066
C121A C 0.3383(8) 0.4596(5) 0.5424(11)
H94A H 0.3301 0.4487 0.5780
H95A H 0.3467 0.4393 0.5187
C122A C 0.520(2) 0.5966(17) 0.678(3)
H96A H 0.4940 0.6022 0.6294
H97A H 0.5062 0.6059 0.7092
C123A C 0.6547(8) 0.2247(9) 0.5612(14)
C124A C 0.5237(14) 0.8411(5) 0.826(2)
H98A H 0.5376 0.8579 0.8662
H99A H 0.5017 0.8551 0.7837
H100A H 0.5018 0.8218 0.8323
C125A C 0.3870(8) 0.8103(4) 0.6317(8)
H101A H 0.3747 0.8361 0.6247
H102A H 0.3684 0.7963 0.6526
H103A H 0.4257 0.8095 0.6627
C126A C 0.6155(7) 0.5854(4) 0.7363(8)
H104A H 0.6243 0.5851 0.7859
H105A H 0.6483 0.5913 0.7326
C127A C 0.6770(8) 0.6226(6) 1.0785(9)
H106A H 0.6376 0.6194 1.0540
H107A H 0.6923 0.5986 1.1015
C128A C 0.2909(7) 0.4814(4) 0.4906(15)
H108A H 0.2843 0.4762 0.4427
H109A H 0.2582 0.4750 0.4943
N5A N 0.5490(6) 0.4302(3) 0.6967(7)
H110A H 0.5492 0.4486 0.6683
H111A H 0.5352 0.4398 0.7235
O58A O 0.1458(10) 0.4382(6) 0.1465(10)
C129A C 0.5127(6) 0.4000(5) 0.6528(9)
H112A H 0.5126 0.4017 0.6070
C130A C 0.5727(10) 0.8222(6) 0.8204(18)
H113A H 0.5951 0.8416 0.8148
H114A H 0.5952 0.8082 0.8635
C131A C -0.0727(17) 0.4088(16) 0.281(3)
H115A H -0.0895 0.4129 0.2311
H116A H -0.0673 0.3821 0.2910
C132A C 0.6020(8) 0.4193(6) 0.7401(9)
H117A H 0.6112 0.4210 0.7897
H118A H 0.6278 0.4341 0.7315
C133A C 0.468(2) 0.1359(16) 0.176(3)
H119A H 0.4536 0.1174 0.1389
H120A H 0.4891 0.1543 0.1655
H121A H 0.4919 0.1236 0.2202
C134A C 0.5713(7) 0.6126(5) 0.6956(15)
H122A H 0.5763 0.6353 0.7236
H123A H 0.5727 0.6197 0.6526
C135A C 0.5084(9) 0.2259(6) 0.0579(8)
H124A H 0.4712 0.2167 0.0330
C136A C 0.1511(8) 0.3807(4) 0.6306(9)
H125A H 0.1317 0.3758 0.5801
H126A H 0.1784 0.3610 0.6523
C137A C 0.2427(9) 0.3005(7) -0.1451(13)
H127A H 0.2288 0.2917 -0.1929
H128A H 0.2819 0.2989 -0.1213
H129A H 0.2283 0.2850 -0.1207
C138A C 0.2253(8) 0.3417(6) -0.1455(9)
H130A H 0.2392 0.3568 -0.1714
H131A H 0.1857 0.3430 -0.1709
C139A C 0.345(2) 0.8191(17) 0.508(3)
H132A H 0.3412 0.8434 0.5250
H133A H 0.3646 0.8220 0.4807
H134A H 0.3099 0.8084 0.4784
C140A C 0.3900(10) 0.7589(7) 0.8432(11)
H135A H 0.3538 0.7504 0.8316
H136A H 0.4037 0.7747 0.8846
H137A H 0.3888 0.7732 0.8042
C141A C 0.548(2) 0.1925(13) 0.077(3)
H138A H 0.5417 0.1794 0.0346
H139A H 0.5848 0.2016 0.1009
H140A H 0.5416 0.1755 0.1077
C142A C 0.664(2) 0.6370(16) 1.183(3)
H141A H 0.6725 0.6555 1.2193
H142A H 0.6251 0.6347 1.1550
H143A H 0.6793 0.6130 1.2038
C143A C 0.6892(11) 0.6498(10) 1.1334(12)
H144A H 0.6742 0.6742 1.1125
H145A H 0.7285 0.6525 1.1614
C144A C 0.7091(9) 0.1691(6) 0.6440(11)
H146A H 0.7142 0.1881 0.6788
H147A H 0.6911 0.1475 0.6510
H148A H 0.7440 0.1616 0.6489
C145A C 0.135(2) 0.3548(16) 0.732(3)
H149A H 0.1076 0.3547 0.7475
H150A H 0.1428 0.3293 0.7241
H151A H 0.1677 0.3664 0.7676
C146A C -0.0702(13) 0.5502(9) 0.234(2)
H152A H -0.0649 0.5637 0.1991
H153A H -0.0695 0.5234 0.2269
C147A C -0.0247(15) 0.5604(17) 0.308(2)
H154A H -0.0255 0.5873 0.3158
H155A H -0.0301 0.5470 0.3437
C148A C 0.4240(10) 0.1548(5) 0.1822(14)
H156A H 0.4028 0.1361 0.1921
H157A H 0.4000 0.1668 0.1374
C149A C -0.0226(5) 0.4270(6) 0.3137(13)
H158A H -0.0106 0.4233 0.3638
H159A H -0.0324 0.4536 0.3050
C150A C 0.113(2) 0.3786(16) 0.659(3)
H160A H 0.0793 0.3670 0.6237
C151A C 0.1867(7) 0.5527(5) 0.7209(11)
H161A H 0.2067 0.5292 0.7384
H162A H 0.2092 0.5731 0.7509
C152A C 0.154(4) 0.544(3) 0.808(3)
H163A H 0.1225 0.5427 0.8147
H164A H 0.1746 0.5211 0.8228
H165A H 0.1768 0.5650 0.8347
C153A C 0.1358(11) 0.5509(11) 0.7259(18)
H166A H 0.1131 0.5301 0.6976
H167A H 0.1153 0.5743 0.7096
Mg12A Mg 0.29452(13) 0.35205(10) 0.40540(15)
C154? C 0.8567(10) 0.5951(7) 0.3806(12)
H168? H 0.8620 0.6013 0.4276
H169? H 0.8924 0.5911 0.3835
C155? C 0.865(4) 0.661(2) 0.356(6)
H170? H 0.8478 0.6821 0.3250
H171? H 0.8725 0.6678 0.4035
H172? H 0.8994 0.6558 0.3562
C156? C 0.829(4) 0.6269(18) 0.332(5)
H173? H 0.7944 0.6323 0.3313
H174? H 0.8213 0.6202 0.2838
C157? C 0.8232(4) 0.5594(2) 0.3548(6)
H175? H 0.8451 0.5381 0.3823
H176? H 0.8146 0.5551 0.3058
H177? H 1.1049 0.5570 0.7688
H178? H 1.0959 0.4186 0.7003
H179? H 0.8958 0.4041 0.3328
H180? H 0.4857 0.2427 0.9738
loop_
_geom_bond_atom_site_label_1
_geom_bond_atom_site_label_2
_geom_bond_site_symmetry_1
_geom_bond_site_symmetry_2
Mg1 O13 1_555 1_555
Mg2 O2 1_555 1_555
Mg3 O8 1_555 1_555
Mg4 O6 1_555 1_555
Mg5 O27 1_555 1_555
Mg6 O1 1_555 1_555
Mg7 O18 1_555 1_555
Mg8 O12 1_555 1_555
Mg9 O34 1_555 1_555
Mg10 O17 1_555 1_555
Mg11 O31 1_555 1_555
O1 C17 1_555 1_555
O2 C21 1_555 1_555
O3 C12 1_555 1_555
O4 C9 1_555 1_555
O5 C48 1_555 1_555
O6 C36 1_555 1_555
O7 Mg6 1_555 1_555
O8 C23 1_555 1_555
O9 Mg2 1_555 1_555
O10 C68 1_555 1_555
O11 C46 1_555 1_555
O12 C74 1_555 1_555
O13 Mg6 1_555 1_555
O14 C56 1_555 1_555
O15 Mg2 1_555 1_555
O16 C58 1_555 1_555
O17 C65 1_555 1_555
O18 C69 1_555 1_555
C1 H1 1_555 1_555
O19 C8 1_555 1_555
O20 C30 1_555 1_555
O21 C108 1_555 1_555
O22 Mg8 1_555 1_555
C2 C22 1_555 1_555
O23 Mg1 1_555 1_555
C3 H2 1_555 1_555
O24 Mg7 1_555 1_555
O25 C63 1_555 1_555
O26 Mg3 1_555 1_555
O27 C93 1_555 1_555
C4 H3 1_555 1_555
H4 C4 1_555 1_555
C5 H5 1_555 1_555
O28 C57 1_555 1_555
C6 C16 1_555 1_555
O29 Mg6 1_555 1_555
C7 C5 1_555 1_555
C8 C9 1_555 1_555
C9 C12 1_555 1_555
C10 C3 1_555 1_555
C11 O26 1_555 1_555
O30 Mg4 1_555 1_555
O31 Mg3 1_555 1_555
C12 C20 1_555 1_555
O32 Mg7 1_555 1_555
C13 C11 1_555 1_555
O33 Mg1 1_555 1_555
O34 C76 1_555 1_555
C14 C7 1_555 1_555
H6 C14 1_555 1_555
O35 Mg11 1_555 1_555
C15 C23 1_555 1_555
O36 Mg10 1_555 1_555
C16 C4 1_555 1_555
H7 C16 1_555 1_555
C17 C7 1_555 1_555
C18 C3 1_555 1_555
C19 C1 1_555 1_555
O37 Mg2 1_555 1_555
C20 C27 1_555 1_555
C21 C19 1_555 1_555
O38 Mg6 1_555 1_555
C22 C6 1_555 1_555
H8 C22 1_555 1_555
C23 C60 1_555 1_555
O39 Mg3 1_555 1_555
O40 Mg4 1_555 1_555
O41 Mg7 1_555 1_555
C24 H9 1_555 1_555
O42 Mg5 1_555 1_555
C25 C31 1_555 1_555
O43 Mg9 1_555 1_555
C26 O32 1_555 1_555
C27 H10 1_555 1_555
O44 Mg4 1_555 1_555
C28 O7 1_555 1_555
C29 H11 1_555 1_555
O45 Mg11 1_555 1_555
C30 C74 1_555 1_555
C31 H12 1_555 1_555
C32 C10 1_555 1_555
H13 C32 1_555 1_555
C33 C2 1_555 1_555
H14 C33 1_555 1_555
C34 C33 1_555 1_555
H15 C34 1_555 1_555
H16 C34 1_555 1_555
C35 H17 1_555 1_555
H18 C35 1_555 1_555
C36 C10 1_555 1_555
C37 O15 1_555 1_555
C38 C1 1_555 1_555
O46 Mg3 1_555 1_555
C39 O24 1_555 1_555
C40 O23 1_555 1_555
C41 C25 1_555 1_555
H19 C41 1_555 1_555
C42 C29 1_555 1_555
C43 O30 1_555 1_555
C44 C33 1_555 1_555
C45 C5 1_555 1_555
C46 C25 1_555 1_555
C47 C8 1_555 1_555
N1 C75 1_555 1_555
C48 C26 1_555 1_555
C49 C13 1_555 1_555
H20 C49 1_555 1_555
C50 C42 1_555 1_555
H21 C50 1_555 1_555
C51 H22 1_555 1_555
H23 C51 1_555 1_555
C52 C64 1_555 1_555
C53 C1 1_555 1_555
H24 C53 1_555 1_555
H25 C53 1_555 1_555
O47 Mg5 1_555 1_555
C54 C4 1_555 1_555
H26 C54 1_555 1_555
H27 C54 1_555 1_555
C55 O22 1_555 1_555
C56 C38 1_555 1_555
C57 C37 1_555 1_555
C58 C6 1_555 1_555
C59 C24 1_555 1_555
H28 C59 1_555 1_555
H29 C59 1_555 1_555
C60 O31 1_555 1_555
C61 C11 1_555 1_555
C62 C14 1_555 1_555
H30 C62 1_555 1_555
H31 C62 1_555 1_555
C63 C46 1_555 1_555
C64 H32 1_555 1_555
C65 C79 1_555 1_555
C66 H33 1_555 1_555
H34 C66 1_555 1_555
C67 C29 1_555 1_555
C68 C44 1_555 1_555
C69 C52 1_555 1_555
C70 H35 1_555 1_555
C71 H36 1_555 1_555
H37 C71 1_555 1_555
C72 C24 1_555 1_555
C73 O13 1_555 1_555
C74 C55 1_555 1_555
C75 O33 1_555 1_555
C76 C42 1_555 1_555
C77 H38 1_555 1_555
H39 C77 1_555 1_555
O48 Mg10 1_555 1_555
N2 C70 1_555 1_555
H40 N2 1_555 1_555
H41 N2 1_555 1_555
C78 H42 1_555 1_555
C79 O41 1_555 1_555
C80 C32 1_555 1_555
C81 C15 1_555 1_555
H43 C81 1_555 1_555
C82 C19 1_555 1_555
H44 C82 1_555 1_555
C83 C30 1_555 1_555
C84 C15 1_555 1_555
H45 C84 1_555 1_555
O49 Mg8 1_555 1_555
C85 C57 1_555 1_555
O50 Mg1 1_555 1_555
C86 C52 1_555 1_555
H46 C86 1_555 1_555
C87 C2 1_555 1_555
C88 C54 1_555 1_555
H47 C88 1_555 1_555
H48 C88 1_555 1_555
C89 C67 1_555 1_555
H49 C89 1_555 1_555
O51 Mg9 1_555 1_555
O52 C119 1_555 1_555
C90 C24 1_555 1_555
C91 O35 1_555 1_555
C92 C31 1_555 1_555
C93 C58 1_555 1_555
C94 C32 1_555 1_555
H50 C94 1_555 1_555
H51 C94 1_555 1_555
C95 C51 1_555 1_555
H52 C95 1_555 1_555
H53 C95 1_555 1_555
C96 C66 1_555 1_555
H54 C96 1_555 1_555
H55 C96 1_555 1_555
O53 Mg3 1_555 1_555
C97 H56 1_555 1_555
H57 C97 1_555 1_555
H58 C97 1_555 1_555
C98 C31 1_555 1_555
H59 C98 1_555 1_555
H60 C98 1_555 1_555
C99 O43 1_555 1_555
C100 C20 1_555 1_555
H61 C100 1_555 1_555
C101 H62 1_555 1_555
H63 C101 1_555 1_555
C102 C88 1_555 1_555
H64 C102 1_555 1_555
H65 C102 1_555 1_555
H66 C102 1_555 1_555
C103 O38 1_555 1_555
C104 C101 1_555 1_555
H67 C104 1_555 1_555
H68 C104 1_555 1_555
O54 Mg5 1_555 1_555
C105 C50 1_555 1_555
H69 C105 1_555 1_555
H70 C105 1_555 1_555
C106 C98 1_555 1_555
H71 C106 1_555 1_555
H72 C106 1_555 1_555
C107 C105 1_555 1_555
H73 C107 1_555 1_555
H74 C107 1_555 1_555
C108 C67 1_555 1_555
O55 Mg12 1_555 1_555
C109 C35 1_555 1_555
H75 C109 1_555 1_555
H76 C109 1_555 1_555
C110 C72 1_555 1_555
H77 C110 1_555 1_555
O56 Mg8 1_555 1_555
C111 C48 1_555 1_555
N3 H78 1_555 1_555
H79 N3 1_555 1_555
O57 Mg11 1_555 1_555
C112 C53 1_555 1_555
H80 C112 1_555 1_555
H81 C112 1_555 1_555
C113 C97 1_555 1_555
H82 C113 1_555 1_555
H83 C113 1_555 1_555
C114 H84 1_555 1_555
H85 C114 1_555 1_555
H86 C114 1_555 1_555
C115 O45 1_555 1_555
C116 H87 1_555 1_555
H88 C116 1_555 1_555
N4 C114 1_555 1_555
C117 C71 1_555 1_555
H89 C117 1_555 1_555
H90 C117 1_555 1_555
C118 C94 1_555 1_555
H91 C118 1_555 1_555
H92 C118 1_555 1_555
C119 C70 1_555 1_555
C120 C103 1_555 1_555
H93 C120 1_555 1_555
C121 N3 1_555 1_555
H94 C121 1_555 1_555
H95 C121 1_555 1_555
C122 N2 1_555 1_555
H96 C122 1_555 1_555
H97 C122 1_555 1_555
C123 O9 1_555 1_555
C124 H98 1_555 1_555
H99 C124 1_555 1_555
H100 C124 1_555 1_555
C125 N1 1_555 1_555
H101 C125 1_555 1_555
H102 C125 1_555 1_555
H103 C125 1_555 1_555
C126 C70 1_555 1_555
H104 C126 1_555 1_555
H105 C126 1_555 1_555
C127 C34 1_555 1_555
H106 C127 1_555 1_555
H107 C127 1_555 1_555
C128 C116 1_555 1_555
H108 C128 1_555 1_555
H109 C128 1_555 1_555
N5 H110 1_555 1_555
H111 N5 1_555 1_555
O58 Mg7 1_555 1_555
C129 C101 1_555 1_555
H112 C129 1_555 1_555
C130 C95 1_555 1_555
H113 C130 1_555 1_555
H114 C130 1_555 1_555
C131 H115 1_555 1_555
H116 C131 1_555 1_555
C132 C104 1_555 1_555
H117 C132 1_555 1_555
H118 C132 1_555 1_555
C133 H119 1_555 1_555
H120 C133 1_555 1_555
H121 C133 1_555 1_555
C134 C122 1_555 1_555
H122 C134 1_555 1_555
H123 C134 1_555 1_555
C135 C117 1_555 1_555
H124 C135 1_555 1_555
C136 C59 1_555 1_555
H125 C136 1_555 1_555
H126 C136 1_555 1_555
C137 H127 1_555 1_555
H128 C137 1_555 1_555
H129 C137 1_555 1_555
C138 C107 1_555 1_555
H130 C138 1_555 1_555
H131 C138 1_555 1_555
C139 N1 1_555 1_555
H132 C139 1_555 1_555
H133 C139 1_555 1_555
H134 C139 1_555 1_555
C140 C109 1_555 1_555
H135 C140 1_555 1_555
H136 C140 1_555 1_555
H137 C140 1_555 1_555
C141 C135 1_555 1_555
H138 C141 1_555 1_555
H139 C141 1_555 1_555
H140 C141 1_555 1_555
C142 H141 1_555 1_555
H142 C142 1_555 1_555
H143 C142 1_555 1_555
C143 C127 1_555 1_555
H144 C143 1_555 1_555
H145 C143 1_555 1_555
C144 N4 1_555 1_555
H146 C144 1_555 1_555
H147 C144 1_555 1_555
H148 C144 1_555 1_555
C145 H149 1_555 1_555
H150 C145 1_555 1_555
H151 C145 1_555 1_555
C146 H152 1_555 1_555
H153 C146 1_555 1_555
C147 C118 1_555 1_555
H154 C147 1_555 1_555
H155 C147 1_555 1_555
C148 C112 1_555 1_555
H156 C148 1_555 1_555
H157 C148 1_555 1_555
C149 C96 1_555 1_555
H158 C149 1_555 1_555
H159 C149 1_555 1_555
C150 C136 1_555 1_555
H160 C150 1_555 1_555
C151 C77 1_555 1_555
H161 C151 1_555 1_555
H162 C151 1_555 1_555
C152 H163 1_555 1_555
H164 C152 1_555 1_555
H165 C152 1_555 1_555
C153 C151 1_555 1_555
H166 C153 1_555 1_555
H167 C153 1_555 1_555
Mg12 O11 1_555 1_555
Mg1A O3 1_555 1_555
Mg2A O14 1_555 1_555
Mg3A O8A 1_555 1_555
Mg4A O4 1_555 1_555
Mg5A O5 1_555 1_555
Mg6A O1A 1_555 1_555
Mg7A O18A 1_555 1_555
Mg8A O15 1_555 1_555
Mg9A O10 1_555 1_555
Mg10A O16 1_555 1_555
Mg11A O21 1_555 1_555
O1A C17A 1_555 1_555
O2A Mg2A 1_555 1_555
O3A Mg1 1_555 1_555
O4A Mg1 1_555 1_555
O5A Mg5 1_555 1_555
O6A Mg4A 1_555 1_555
O7A Mg6A 1_555 1_555
O8A C23A 1_555 1_555
O9A Mg2A 1_555 1_555
O10A Mg9 1_555 1_555
O11A C46A 1_555 1_555
O12A Mg8A 1_555 1_555
O13A Mg1A 1_555 1_555
O14A Mg2 1_555 1_555
O15A Mg8 1_555 1_555
O16A Mg10 1_555 1_555
O17A Mg10A 1_555 1_555
O18A C69A 1_555 1_555
C1A H1A 1_555 1_555
O19A Mg4 1_555 1_555
O20A C30A 1_555 1_555
O21A Mg11 1_555 1_555
O22A Mg8A 1_555 1_555
C2A C22A 1_555 1_555
O23A Mg1A 1_555 1_555
C3A H2A 1_555 1_555
O24A Mg7A 1_555 1_555
O25A Mg2 1_555 1_555
O26A Mg3A 1_555 1_555
O27A Mg10 1_555 1_555
C4A H3A 1_555 1_555
H4A C4A 1_555 1_555
C5A H5A 1_555 1_555
O28A Mg8 1_555 1_555
C6A C16A 1_555 1_555
O29A Mg6A 1_555 1_555
C7A C5A 1_555 1_555
C8A O19A 1_555 1_555
C9A O4A 1_555 1_555
C10A C3A 1_555 1_555
C11A O26A 1_555 1_555
O30A Mg4A 1_555 1_555
O31A Mg3A 1_555 1_555
C12A O3A 1_555 1_555
O32A Mg5 1_555 1_555
C13A C11A 1_555 1_555
O33A Mg1A 1_555 1_555
O34A Mg9A 1_555 1_555
C14A C7A 1_555 1_555
H6A C14A 1_555 1_555
O35A Mg11A 1_555 1_555
C15A C23A 1_555 1_555
O36A Mg10A 1_555 1_555
C16A C4A 1_555 1_555
H7A C16A 1_555 1_555
C17A C7A 1_555 1_555
C18A C3A 1_555 1_555
C19A C1A 1_555 1_555
O37A Mg2A 1_555 1_555
C20A C12A 1_555 1_555
C21A O2A 1_555 1_555
O38A Mg6A 1_555 1_555
C22A C6A 1_555 1_555
H8A C22A 1_555 1_555
C23A C60A 1_555 1_555
O39A Mg3A 1_555 1_555
O40A Mg4A 1_555 1_555
O41A Mg7A 1_555 1_555
C24A H9A 1_555 1_555
O42A Mg5A 1_555 1_555
C25A C31A 1_555 1_555
O43A Mg11 1_555 1_555
C26A O32A 1_555 1_555
C27A C20A 1_555 1_555
H10A C27A 1_555 1_555
O44A Mg4A 1_555 1_555
C28A O7A 1_555 1_555
C29A H11A 1_555 1_555
O45A Mg11A 1_555 1_555
C30A C74A 1_555 1_555
C31A H12A 1_555 1_555
C32A C10A 1_555 1_555
H13A C32A 1_555 1_555
C33A C2A 1_555 1_555
H14A C33A 1_555 1_555
C34A C33A 1_555 1_555
H15A C34A 1_555 1_555
H16A C34A 1_555 1_555
C35A H17A 1_555 1_555
H18A C35A 1_555 1_555
C36A O6A 1_555 1_555
C37A O15A 1_555 1_555
C38A C1A 1_555 1_555
O46A Mg9 1_555 1_555
C39A O24A 1_555 1_555
C40A O23A 1_555 1_555
C41A C25A 1_555 1_555
H19A C41A 1_555 1_555
C42A C29A 1_555 1_555
C43A O30A 1_555 1_555
C44A C33A 1_555 1_555
C45A C5A 1_555 1_555
C46A C25A 1_555 1_555
C47A C8A 1_555 1_555
N1A C75A 1_555 1_555
C48A O5A 1_555 1_555
C49A C13A 1_555 1_555
H20A C49A 1_555 1_555
C50A C42A 1_555 1_555
H21A C50A 1_555 1_555
C51A H22A 1_555 1_555
H23A C51A 1_555 1_555
C52A C64A 1_555 1_555
C53A C1A 1_555 1_555
H24A C53A 1_555 1_555
H25A C53A 1_555 1_555
O47A Mg5A 1_555 1_555
C54A C4A 1_555 1_555
H26A C54A 1_555 1_555
H27A C54A 1_555 1_555
C55A O22A 1_555 1_555
C56A O14A 1_555 1_555
C57A O28A 1_555 1_555
C58A O16A 1_555 1_555
C59A C24A 1_555 1_555
H28A C59A 1_555 1_555
H29A C59A 1_555 1_555
C60A O31A 1_555 1_555
C61A C11A 1_555 1_555
C62A C14A 1_555 1_555
H30A C62A 1_555 1_555
H31A C62A 1_555 1_555
C63A O25A 1_555 1_555
C64A H32A 1_555 1_555
C65A O17A 1_555 1_555
C66A H33A 1_555 1_555
H34A C66A 1_555 1_555
C67A C29A 1_555 1_555
C68A O10A 1_555 1_555
C69A C52A 1_555 1_555
C70A H35A 1_555 1_555
C71A H36A 1_555 1_555
H37A C71A 1_555 1_555
C72A C24A 1_555 1_555
C73A O13A 1_555 1_555
C74A O12A 1_555 1_555
C75A O33A 1_555 1_555
C76A O34A 1_555 1_555
C77A H38A 1_555 1_555
H39A C77A 1_555 1_555
O48A Mg10A 1_555 1_555
N2A C70A 1_555 1_555
H40A N2A 1_555 1_555
H41A N2A 1_555 1_555
C78A H42A 1_555 1_555
C79A O41A 1_555 1_555
C80A C32A 1_555 1_555
C81A C15A 1_555 1_555
H43A C81A 1_555 1_555
C82A C19A 1_555 1_555
H44A C82A 1_555 1_555
C83A C30A 1_555 1_555
C84A C15A 1_555 1_555
H45A C84A 1_555 1_555
O49A Mg8A 1_555 1_555
C85A C57A 1_555 1_555
O50A Mg1A 1_555 1_555
C86A C52A 1_555 1_555
H46A C86A 1_555 1_555
C87A C2A 1_555 1_555
C88A C54A 1_555 1_555
H47A C88A 1_555 1_555
H48A C88A 1_555 1_555
C89A C67A 1_555 1_555
H49A C89A 1_555 1_555
O51A Mg9A 1_555 1_555
O52A Mg9 1_555 1_555
C90A C24A 1_555 1_555
C91A O35A 1_555 1_555
C92A C31A 1_555 1_555
C93A O27A 1_555 1_555
C94A C32A 1_555 1_555
H50A C94A 1_555 1_555
H51A C94A 1_555 1_555
C95A C51A 1_555 1_555
H52A C95A 1_555 1_555
H53A C95A 1_555 1_555
C96A C66A 1_555 1_555
H54A C96A 1_555 1_555
H55A C96A 1_555 1_555
O53A Mg3A 1_555 1_555
C97A H56A 1_555 1_555
H57A C97A 1_555 1_555
H58A C97A 1_555 1_555
C98A C31A 1_555 1_555
H59A C98A 1_555 1_555
H60A C98A 1_555 1_555
C99A O43A 1_555 1_555
C100A C20A 1_555 1_555
H61A C100A 1_555 1_555
C101A H62A 1_555 1_555
H63A C101A 1_555 1_555
C102A C88A 1_555 1_555
H64A C102A 1_555 1_555
H65A C102A 1_555 1_555
H66A C102A 1_555 1_555
C103A O38A 1_555 1_555
C104A C101A 1_555 1_555
H67A C104A 1_555 1_555
H68A C104A 1_555 1_555
O54A Mg5A 1_555 1_555
C105A C50A 1_555 1_555
H69A C105A 1_555 1_555
H70A C105A 1_555 1_555
C106A C98A 1_555 1_555
H71A C106A 1_555 1_555
H72A C106A 1_555 1_555
C107A C105A 1_555 1_555
H73A C107A 1_555 1_555
H74A C107A 1_555 1_555
C108A O21A 1_555 1_555
O55A Mg12A 1_555 1_555
C109A C35A 1_555 1_555
H75A C109A 1_555 1_555
H76A C109A 1_555 1_555
C110A C72A 1_555 1_555
H77A C110A 1_555 1_555
O56A Mg8A 1_555 1_555
C111A C48A 1_555 1_555
N3A H78A 1_555 1_555
H79A N3A 1_555 1_555
O57A Mg11A 1_555 1_555
C112A C53A 1_555 1_555
H80A C112A 1_555 1_555
H81A C112A 1_555 1_555
C113A C97A 1_555 1_555
H82A C113A 1_555 1_555
H83A C113A 1_555 1_555
C114A H84A 1_555 1_555
H85A C114A 1_555 1_555
H86A C114A 1_555 1_555
C115A O45A 1_555 1_555
C116A H87A 1_555 1_555
H88A C116A 1_555 1_555
N4A C114A 1_555 1_555
C117A C71A 1_555 1_555
H89A C117A 1_555 1_555
H90A C117A 1_555 1_555
C118A C94A 1_555 1_555
H91A C118A 1_555 1_555
H92A C118A 1_555 1_555
C119A C70A 1_555 1_555
C120A C103A 1_555 1_555
H93A C120A 1_555 1_555
C121A N3A 1_555 1_555
H94A C121A 1_555 1_555
H95A C121A 1_555 1_555
C122A N2A 1_555 1_555
H96A C122A 1_555 1_555
H97A C122A 1_555 1_555
C123A O9A 1_555 1_555
C124A H98A 1_555 1_555
H99A C124A 1_555 1_555
H100A C124A 1_555 1_555
C125A N1A 1_555 1_555
H101A C125A 1_555 1_555
H102A C125A 1_555 1_555
H103A C125A 1_555 1_555
C126A C70A 1_555 1_555
H104A C126A 1_555 1_555
H105A C126A 1_555 1_555
C127A C34A 1_555 1_555
H106A C127A 1_555 1_555
H107A C127A 1_555 1_555
C128A C116A 1_555 1_555
H108A C128A 1_555 1_555
H109A C128A 1_555 1_555
N5A H110A 1_555 1_555
H111A N5A 1_555 1_555
O58A Mg7A 1_555 1_555
C129A C101A 1_555 1_555
H112A C129A 1_555 1_555
C130A C95A 1_555 1_555
H113A C130A 1_555 1_555
H114A C130A 1_555 1_555
C131A H115A 1_555 1_555
H116A C131A 1_555 1_555
C132A C104A 1_555 1_555
H117A C132A 1_555 1_555
H118A C132A 1_555 1_555
C133A H119A 1_555 1_555
H120A C133A 1_555 1_555
H121A C133A 1_555 1_555
C134A C122A 1_555 1_555
H122A C134A 1_555 1_555
H123A C134A 1_555 1_555
C135A C117A 1_555 1_555
H124A C135A 1_555 1_555
C136A C59A 1_555 1_555
H125A C136A 1_555 1_555
H126A C136A 1_555 1_555
C137A H127A 1_555 1_555
H128A C137A 1_555 1_555
H129A C137A 1_555 1_555
C138A C107A 1_555 1_555
H130A C138A 1_555 1_555
H131A C138A 1_555 1_555
C139A N1A 1_555 1_555
H132A C139A 1_555 1_555
H133A C139A 1_555 1_555
H134A C139A 1_555 1_555
C140A C109A 1_555 1_555
H135A C140A 1_555 1_555
H136A C140A 1_555 1_555
H137A C140A 1_555 1_555
C141A C135A 1_555 1_555
H138A C141A 1_555 1_555
H139A C141A 1_555 1_555
H140A C141A 1_555 1_555
C142A H141A 1_555 1_555
H142A C142A 1_555 1_555
H143A C142A 1_555 1_555
C143A C127A 1_555 1_555
H144A C143A 1_555 1_555
H145A C143A 1_555 1_555
C144A N4A 1_555 1_555
H146A C144A 1_555 1_555
H147A C144A 1_555 1_555
H148A C144A 1_555 1_555
C145A H149A 1_555 1_555
H150A C145A 1_555 1_555
H151A C145A 1_555 1_555
C146A H152A 1_555 1_555
H153A C146A 1_555 1_555
C147A C118A 1_555 1_555
H154A C147A 1_555 1_555
H155A C147A 1_555 1_555
C148A C112A 1_555 1_555
H156A C148A 1_555 1_555
H157A C148A 1_555 1_555
C149A C96A 1_555 1_555
H158A C149A 1_555 1_555
H159A C149A 1_555 1_555
C150A C136A 1_555 1_555
H160A C150A 1_555 1_555
C151A C77A 1_555 1_555
H161A C151A 1_555 1_555
H162A C151A 1_555 1_555
C152A H163A 1_555 1_555
H164A C152A 1_555 1_555
H165A C152A 1_555 1_555
C153A C151A 1_555 1_555
H166A C153A 1_555 1_555
H167A C153A 1_555 1_555
Mg12A O11A 1_555 1_555
Mg4 O4A 1_555 1_555
Mg6 O30 1_555 1_555
Mg10 O41 1_555 1_555
O4 Mg1A 1_555 1_555
O12 Mg12 1_555 1_555
O19 Mg4A 1_555 1_555
O20 Mg12 1_555 1_555
O25 Mg12 1_555 1_555
O25 Mg2A 1_555 1_555
O27 Mg10A 1_555 1_555
O28 Mg8A 1_555 1_555
O32 Mg5A 1_555 1_555
C13 C14 1_555 1_555
C16 C47 1_555 1_555
C17 C73 1_555 1_555
C18 C28 1_555 1_555
C18 C81 1_555 1_555
C21 C37 1_555 1_555
O39 C103 1_555 1_555
O42 C87 1_555 1_555
O43 Mg11A 1_555 1_555
C26 C39 1_555 1_555
C27 C47 1_555 1_555
C28 C43 1_555 1_555
C35 C62 1_555 1_555
C36 C43 1_555 1_555
C38 C41 1_555 1_555
O46 C61 1_555 1_555
O46 Mg9A 1_555 1_555
C39 C92 1_555 1_555
C40 C45 1_555 1_555
C40 C73 1_555 1_555
C44 C49 1_555 1_555
C45 C100 1_555 1_555
C50 C111 1_555 1_555
C51 C100 1_555 1_555
C55 C72 1_555 1_555
C56 C63 1_555 1_555
C60 C91 1_555 1_555
C61 C68 1_555 1_555
C64 C80 1_555 1_555
C65 C80 1_555 1_555
C66 C86 1_555 1_555
C69 C79 1_555 1_555
C71 C89 1_555 1_555
C76 C99 1_555 1_555
C77 C81 1_555 1_555
C78 C92 1_555 1_555
C78 C111 1_555 1_555
C82 C85 1_555 1_555
C83 C86 1_555 1_555
C83 C110 1_555 1_555
C84 C90 1_555 1_555
O49 C115 1_555 1_555
C85 C89 1_555 1_555
C87 C93 1_555 1_555
O52 Mg9A 1_555 1_555
C90 C91 1_555 1_555
C99 C108 1_555 1_555
O54 C119 1_555 1_555
C106 C113 1_555 1_555
N3 C120 1_555 1_555
C115 C129 1_555 1_555
C116 C120 1_555 1_555
N4 C123 1_555 1_555
C121 C128 1_555 1_555
C124 C130 1_555 1_555
C126 C134 1_555 1_555
N5 C129 1_555 1_555
N5 C132 1_555 1_555
C131 C149 1_555 1_555
C133 C148 1_555 1_555
C137 C138 1_555 1_555
C142 C143 1_555 1_555
C145 C150 1_555 1_555
C146 C147 1_555 1_555
C152 C153 1_555 1_555
Mg2A O15A 1_555 1_555
Mg3A O46A 1_555 1_555
Mg5A O27A 1_555 1_555
Mg6A O13A 1_555 1_555
Mg6A O30A 1_555 1_555
Mg7A O32A 1_555 1_555
Mg9A O43A 1_555 1_555
Mg10A O41A 1_555 1_555
Mg11A O31A 1_555 1_555
O12A Mg12A 1_555 1_555
O20A Mg12A 1_555 1_555
O25A Mg12A 1_555 1_555
C6A C58A 1_555 1_555
C8A C9A 1_555 1_555
C9A C12A 1_555 1_555
C10A C36A 1_555 1_555
C13A C14A 1_555 1_555
C16A C47A 1_555 1_555
C17A C73A 1_555 1_555
C18A C28A 1_555 1_555
C18A C81A 1_555 1_555
C19A C21A 1_555 1_555
C21A C37A 1_555 1_555
O39A C103A 1_555 1_555
O42A C87A 1_555 1_555
C26A C39A 1_555 1_555
C26A C48A 1_555 1_555
C27A C47A 1_555 1_555
C28A C43A 1_555 1_555
C35A C62A 1_555 1_555
C36A C43A 1_555 1_555
C37A C57A 1_555 1_555
C38A C41A 1_555 1_555
C38A C56A 1_555 1_555
O46A C61A 1_555 1_555
C39A C92A 1_555 1_555
C40A C45A 1_555 1_555
C40A C73A 1_555 1_555
C42A C76A 1_555 1_555
C44A C49A 1_555 1_555
C44A C68A 1_555 1_555
C45A C100A 1_555 1_555
C46A C63A 1_555 1_555
C50A C111A 1_555 1_555
C51A C100A 1_555 1_555
C55A C72A 1_555 1_555
C55A C74A 1_555 1_555
C56A C63A 1_555 1_555
C58A C93A 1_555 1_555
C60A C91A 1_555 1_555
C61A C68A 1_555 1_555
C64A C80A 1_555 1_555
C65A C79A 1_555 1_555
C65A C80A 1_555 1_555
C66A C86A 1_555 1_555
C67A C108A 1_555 1_555
C69A C79A 1_555 1_555
C71A C89A 1_555 1_555
C76A C99A 1_555 1_555
C77A C81A 1_555 1_555
C78A C92A 1_555 1_555
C78A C111A 1_555 1_555
C82A C85A 1_555 1_555
C83A C86A 1_555 1_555
C83A C110A 1_555 1_555
C84A C90A 1_555 1_555
O49A C115A 1_555 1_555
C85A C89A 1_555 1_555
C87A C93A 1_555 1_555
O52A C119A 1_555 1_555
C90A C91A 1_555 1_555
C99A C108A 1_555 1_555
O54A C119A 1_555 1_555
C106A C113A 1_555 1_555
N3A C120A 1_555 1_555
C115A C129A 1_555 1_555
C116A C120A 1_555 1_555
N4A C123A 1_555 1_555
C121A C128A 1_555 1_555
C124A C130A 1_555 1_555
C126A C134A 1_555 1_555
N5A C129A 1_555 1_555
N5A C132A 1_555 1_555
C131A C149A 1_555 1_555
C133A C148A 1_555 1_555
C137A C138A 1_555 1_555
C142A C143A 1_555 1_555
C145A C150A 1_555 1_555
C146A C147A 1_555 1_555
C152A C153A 1_555 1_555

#END
