
#######################################################################
#
#                 Cambridge Crystallographic Data Centre
#                                CCDC 
#
#######################################################################
#
# If this CIF has been generated from an entry in the Cambridge 
# Structural Database, then it will include bibliographic, chemical, 
# crystal, experimental, refinement or atomic coordinate data resulting 
# from the CCDC's data processing and validation procedures.
#
#######################################################################

data_PELWIM
_chemical_formula_moiety         'C12 H18 N6 O8,H2 O1'
_chemical_name_systematic        
"6,6'-Diazido-6,6'-dideoxy-1',2-anhydrosucrose monohydrate"
_symmetry_cell_setting           monoclinic
_symmetry_space_group_name_H-M   'P 21'
_symmetry_Int_Tables_number      4
_space_group_name_Hall           'P 2yb'
loop_
_symmetry_equiv_pos_site_id
_symmetry_equiv_pos_as_xyz
1 x,y,z
2 -x,1/2+y,-z
_cell_length_a                   10.71(2)
_cell_length_b                   6.270(7)
_cell_length_c                   13.23(2)
_cell_angle_alpha                90
_cell_angle_beta                 103.9(1)
_cell_angle_gamma                90
_cell_volume                     862.401
_exptl_crystal_colour            colorless
_cell_formula_units_Z            2
loop_
_atom_site_label
_atom_site_type_symbol
_atom_site_fract_x
_atom_site_fract_y
_atom_site_fract_z
O1 O 0.7805(5) 0.0000 0.1705(5)
C1 C 0.6966(9) -0.1315(20) 0.2116(7)
C2 C 0.7668(8) -0.3022(20) 0.2833(7)
C3 C 0.8863(10) -0.2195(21) 0.3638(8)
O2 O 0.9628(6) -0.3967(16) 0.4092(5)
C4 C 0.9665(8) -0.0759(20) 0.3102(8)
O3 O 1.0686(6) 0.0136(16) 0.3895(5)
C5 C 0.8850(8) 0.0903(20) 0.2462(7)
C6 C 0.9552(9) 0.2400(20) 0.1848(8)
N1 N 1.0174(8) 0.0988(22) 0.1172(8)
N2 N 0.9583(11) 0.0847(23) 0.0287(11)
N3 N 0.9128(16) 0.0648(28) -0.0588(12)
O4 O 0.6311(5) 0.0175(14) 0.2665(4)
O5 O 0.6774(5) -0.4125(15) 0.3313(5)
C7 C 0.6088(9) -0.2665(19) 0.3833(8)
C8 C 0.5426(8) -0.0910(18) 0.3136(7)
C9 C 0.4826(8) 0.0816(20) 0.3702(7)
O6 O 0.5750(6) 0.2382(15) 0.4232(5)
C10 C 0.3714(8) 0.1662(19) 0.2878(7)
O7 O 0.2630(6) 0.2140(16) 0.3269(6)
C11 C 0.3384(8) -0.0122(19) 0.2063(8)
O8 O 0.4372(6) -0.1749(15) 0.2385(5)
C12 C 0.3320(9) 0.0675(22) 0.1001(7)
N4 N 0.2929(10) -0.0954(22) 0.0167(8)
N5 N 0.3655(10) -0.2549(26) 0.0279(6)
N6 N 0.4233(11) -0.4082(28) 0.0228(9)
H1 H 0.6353 -0.1964 0.1550
H2 H 0.7989 -0.4049 0.2420
H3 H 0.8574 -0.1393 0.4156
H4 H 0.9509 -0.4179 0.4696
H5 H 1.0035 -0.1627 0.2652
H6 H 1.0418 0.0292 0.4445
H7 H 0.8482 0.1730 0.2929
H8 H 0.8956 0.3386 0.1433
H9 H 1.0206 0.3191 0.2324
H10 H 0.5459 -0.3457 0.4086
H11 H 0.6677 -0.2036 0.4420
H12 H 0.4476 0.0124 0.4220
H13 H 0.5907 0.3259 0.3789
H14 H 0.3975 0.2907 0.2560
H15 H 0.2672 0.3426 0.3477
H16 H 0.2570 -0.0734 0.2086
H17 H 0.2714 0.1829 0.0856
H18 H 0.4150 0.1226 0.0979
O9 O 1.2337(7) -0.3964(18) 0.4012(6)
loop_
_geom_bond_atom_site_label_1
_geom_bond_atom_site_label_2
_geom_bond_site_symmetry_1
_geom_bond_site_symmetry_2
O1 C1 1_555 1_555
C1 C2 1_555 1_555
C2 C3 1_555 1_555
C3 O2 1_555 1_555
O2 H4 1_555 1_555
C4 C3 1_555 1_555
O3 C4 1_555 1_555
C5 O1 1_555 1_555
C6 C5 1_555 1_555
N1 C6 1_555 1_555
N2 N1 1_555 1_555
N3 N2 1_555 1_555
O4 C1 1_555 1_555
O5 C2 1_555 1_555
C7 O5 1_555 1_555
C8 O4 1_555 1_555
C9 C8 1_555 1_555
O6 C9 1_555 1_555
C10 C9 1_555 1_555
O7 C10 1_555 1_555
C11 C10 1_555 1_555
O8 C8 1_555 1_555
C12 C11 1_555 1_555
N4 C12 1_555 1_555
N5 N4 1_555 1_555
N6 N5 1_555 1_555
H1 C1 1_555 1_555
H2 C2 1_555 1_555
H3 C3 1_555 1_555
H5 C4 1_555 1_555
H6 O3 1_555 1_555
H7 C5 1_555 1_555
H8 C6 1_555 1_555
H9 C6 1_555 1_555
H10 C7 1_555 1_555
H11 C7 1_555 1_555
H12 C9 1_555 1_555
H13 O6 1_555 1_555
H14 C10 1_555 1_555
H15 O7 1_555 1_555
H16 C11 1_555 1_555
H17 C12 1_555 1_555
H18 C12 1_555 1_555
C4 C5 1_555 1_555
C7 C8 1_555 1_555
C11 O8 1_555 1_555

#END
