
#######################################################################
#
#                 Cambridge Crystallographic Data Centre
#                                CCDC 
#
#######################################################################
#
# If this CIF has been generated from an entry in the Cambridge 
# Structural Database, then it will include bibliographic, chemical, 
# crystal, experimental, refinement or atomic coordinate data resulting 
# from the CCDC's data processing and validation procedures.
#
#######################################################################

data_PELWUY
_chemical_formula_moiety         'C19 H20 Br1 N3 O3'
_chemical_name_systematic        
't-Butyl 11,12,13,13a-tetrahydro-8-bromo-9-oxo-9H-imidazo(1,5-a)pyrrolo (2,1-c)(1,4)benzodiazepine-1-carboxylate'
_symmetry_cell_setting           orthorhombic
_symmetry_space_group_name_H-M   'P 21 21 21'
_symmetry_Int_Tables_number      19
_space_group_name_Hall           'P 2ac 2ab'
loop_
_symmetry_equiv_pos_site_id
_symmetry_equiv_pos_as_xyz
1 x,y,z
2 1/2+x,1/2-y,-z
3 -x,1/2+y,1/2-z
4 1/2-x,-y,1/2+z
_cell_length_a                   9.299(2)
_cell_length_b                   9.584(2)
_cell_length_c                   19.736(8)
_cell_angle_alpha                90
_cell_angle_beta                 90
_cell_angle_gamma                90
_cell_volume                     1758.9
_exptl_crystal_colour            colorless
_cell_formula_units_Z            4
loop_
_atom_site_label
_atom_site_type_symbol
_atom_site_fract_x
_atom_site_fract_y
_atom_site_fract_z
C1 C 0.9505(6) 0.9229(5) 0.5085(2)
N1 N 0.8148(5) 0.9023(4) 0.4802(2)
C2 C 0.7256(7) 0.8981(5) 0.5305(2)
N2 N 0.7927(5) 0.9153(4) 0.5915(2)
C3 C 0.7250(6) 0.9345(5) 0.6550(2)
C4 C 0.6052(6) 1.0220(5) 0.6578(3)
C5 C 0.5370(7) 1.0468(6) 0.7186(3)
C6 C 0.5892(7) 0.9867(6) 0.7775(3)
C7 C 0.7061(7) 0.8982(5) 0.7740(3)
C8 C 0.7768(6) 0.8673(5) 0.7138(2)
C9 C 0.8967(6) 0.7623(5) 0.7108(2)
N3 N 1.0169(5) 0.8005(4) 0.6785(2)
C10 C 1.1495(6) 0.7158(5) 0.6836(3)
C11 C 1.2656(6) 0.8225(5) 0.6725(2)
C12 C 1.2015(5) 0.9154(5) 0.6182(3)
C13 C 1.0414(5) 0.9291(4) 0.6375(2)
C14 C 0.9396(5) 0.9282(5) 0.5785(2)
O1 O 0.8835(4) 0.6489(3) 0.7390(2)
C15 C 1.0702(6) 0.9405(5) 0.4612(2)
O2 O 1.0865(4) 0.8679(4) 0.4117(2)
O3 O 1.1547(4) 1.0481(3) 0.4780(2)
C16 C 1.2880(6) 1.0789(5) 0.4391(2)
C17 C 1.3487(8) 1.2053(7) 0.4759(3)
C18 C 1.2528(7) 1.1158(6) 0.3659(2)
C19 C 1.3890(6) 0.9558(6) 0.4443(3)
Br1 Br 0.7712(1) 0.8224(1) 0.8575(1)
H1 H 0.6238 0.8843 0.5255
H2 H 0.5701 1.0653 0.6172
H3 H 0.4534 1.1055 0.7201
H4 H 0.5445 1.0065 0.8203
H5 H 1.1579 0.6733 0.7275
H6 H 1.1521 0.6448 0.6493
H7 H 1.2845 0.8742 0.7132
H8 H 1.3529 0.7795 0.6571
H9 H 1.2473 1.0052 0.6182
H10 H 1.2115 0.8733 0.5743
H11 H 1.0235 1.0164 0.6598
H12 H 1.4310 1.2392 0.4516
H13 H 1.3778 1.1746 0.5201
H14 H 1.2793 1.2789 0.4802
H15 H 1.3319 1.1614 0.3437
H16 H 1.1710 1.1769 0.3662
H17 H 1.2291 1.0318 0.3419
H18 H 1.4813 0.9899 0.4302
H19 H 1.3609 0.8793 0.4159
H20 H 1.3944 0.9249 0.4905
loop_
_geom_bond_atom_site_label_1
_geom_bond_atom_site_label_2
_geom_bond_site_symmetry_1
_geom_bond_site_symmetry_2
C1 N1 1_555 1_555
N1 C2 1_555 1_555
C2 N2 1_555 1_555
N2 C3 1_555 1_555
C3 C4 1_555 1_555
C4 C5 1_555 1_555
C5 C6 1_555 1_555
C6 C7 1_555 1_555
C7 C8 1_555 1_555
C8 C3 1_555 1_555
C9 C8 1_555 1_555
N3 C9 1_555 1_555
C10 N3 1_555 1_555
C11 C10 1_555 1_555
C12 C11 1_555 1_555
C13 N3 1_555 1_555
C14 C1 1_555 1_555
O1 C9 1_555 1_555
C15 C1 1_555 1_555
O2 C15 1_555 1_555
O3 C15 1_555 1_555
C16 O3 1_555 1_555
C17 C16 1_555 1_555
C18 C16 1_555 1_555
C19 C16 1_555 1_555
Br1 C7 1_555 1_555
H1 C2 1_555 1_555
H2 C4 1_555 1_555
H3 C5 1_555 1_555
H4 C6 1_555 1_555
H5 C10 1_555 1_555
H6 C10 1_555 1_555
H7 C11 1_555 1_555
H8 C11 1_555 1_555
H9 C12 1_555 1_555
H10 C12 1_555 1_555
H11 C13 1_555 1_555
H12 C17 1_555 1_555
H13 C17 1_555 1_555
H14 C17 1_555 1_555
H15 C18 1_555 1_555
H16 C18 1_555 1_555
H17 C18 1_555 1_555
H18 C19 1_555 1_555
H19 C19 1_555 1_555
H20 C19 1_555 1_555
N2 C14 1_555 1_555
C12 C13 1_555 1_555
C13 C14 1_555 1_555

#END
