
#######################################################################
#
#                 Cambridge Crystallographic Data Centre
#                                CCDC 
#
#######################################################################
#
# If this CIF has been generated from an entry in the Cambridge 
# Structural Database, then it will include bibliographic, chemical, 
# crystal, experimental, refinement or atomic coordinate data resulting 
# from the CCDC's data processing and validation procedures.
#
#######################################################################

data_PELXAF
_chemical_formula_moiety         'C17 H17 N3 O3'
_chemical_name_systematic        
'Ethyl 11,12,13,13a-tetrahydro-9-oxo-9H-imidazo(1,5-a)pyrrolo(2,1-c)(1,4)benzodiazepine-1-carboxylate'
_symmetry_cell_setting           orthorhombic
_symmetry_space_group_name_H-M   'P 21 21 21'
_symmetry_Int_Tables_number      19
_space_group_name_Hall           'P 2ac 2ab'
loop_
_symmetry_equiv_pos_site_id
_symmetry_equiv_pos_as_xyz
1 x,y,z
2 1/2+x,1/2-y,-z
3 -x,1/2+y,1/2-z
4 1/2-x,-y,1/2+z
_cell_length_a                   13.964(4)
_cell_length_b                   7.702(3)
_cell_length_c                   33.776(12)
_cell_angle_alpha                90
_cell_angle_beta                 90
_cell_angle_gamma                90
_cell_volume                     3632.63
_exptl_crystal_colour            colorless
_cell_formula_units_Z            8
loop_
_atom_site_label
_atom_site_type_symbol
_atom_site_fract_x
_atom_site_fract_y
_atom_site_fract_z
C1 C 0.3594(11) 0.9912(22) 0.5881(4)
C2 C 0.2952(11) 1.0346(2) 0.5722(4)
N1 N 0.4430(9) 0.9281(18) 0.5942(4)
C3 C 0.4191(11) 0.9207(4) 0.5472(3)
N2 N 0.3385(9) 0.9619(3) 0.5228(4)
C14 C 0.2001(12) 1.1252(5) 0.5488(5)
C15 C 0.3276(15) 1.0691(5) 0.6210(5)
C16 C 0.3722(21) 1.1017(8) 0.7086(8)
C17 C 0.4643(25) 1.1526(9) 0.7136(9)
O1 O 0.3836(10) 1.0372(4) 0.6641(4)
O2 O 0.2737(13) 1.1276(5) 0.6631(5)
H1 H 0.4706 0.8657 0.5332
H12 H 0.2116 1.2092 0.5284
H13 H 0.3361 1.0194 0.7239
H14 H 0.3420 1.2135 0.7101
H15 H 0.4643 1.1897 0.7407
H16 H 0.4996 1.2343 0.6978
H17 H 0.4938 1.0403 0.7116
C4 C 0.3032(11) 0.9187(4) 0.4660(5)
C5 C 0.4142(12) 1.0170(5) 0.4767(5)
C6 C 0.3678(14) 0.9887(6) 0.4418(6)
C7 C 0.3165(15) 0.8927(6) 0.4256(6)
C8 C 0.2488(15) 0.8750(6) 0.4370(6)
C9 C 0.2337(12) 0.8916(5) 0.4811(5)
C10 C 0.1546(14) 0.8059(5) 0.5137(5)
N3 N 0.1467(10) 0.8912(4) 0.5515(4)
C11 C 0.0613(16) 0.8769(6) 0.5664(6)
C12 C 0.0788(20) 0.9907(8) 0.6055(8)
O3 O 0.1167(11) 0.6777(4) 0.4991(4)
H2 H 0.4736 1.0626 0.4864
H3 H 0.4172 1.0198 0.4233
H4 H 0.3067 0.8818 0.3975
H5 H 0.1901 0.8288 0.4266
H6 H 0.0031 0.8866 0.5515
H7 H 0.0648 0.7640 0.5784
H8 H 0.1060 0.9428 0.6292
H9 H 0.0159 1.0349 0.6111
C13 C 0.1358(16) 1.1906(6) 0.5927(6)
H10 H 0.0981 1.2798 0.5804
H11 H 0.1714 1.2394 0.6143
C18 C 0.6611(15) 0.4342(6) 0.6703(6)
C19 C 0.6201(12) 0.3791(5) 0.6330(5)
N4 N 0.6330(12) 0.5980(5) 0.6708(6)
C20 C 0.5724(15) 0.6367(6) 0.6663(4)
N5 N 0.5378(10) 0.4832(4) 0.6285(4)
C21 C 0.4536(12) 0.4960(6) 0.6086(5)
C22 C 0.3548(14) 0.5301(6) 0.6015(6)
C23 C 0.2838(15) 0.5707(6) 0.5842(6)
C24 C 0.2886(18) 0.5045(6) 0.5669(7)
C25 C 0.3935(14) 0.4079(6) 0.5379(6)
C26 C 0.4752(13) 0.4180(6) 0.5703(5)
C27 C 0.5665(13) 0.3327(5) 0.5648(5)
N6 N 0.6328(10) 0.2327(4) 0.5713(4)
C28 C 0.7239(14) 0.1772(6) 0.5616(6)
C29 C 0.7546(15) 0.0738(6) 0.5947(6)
C30 C 0.6800(12) 0.0587(5) 0.6314(5)
C31 C 0.6136(13) 0.2444(5) 0.6147(5)
C32 C 0.7607(18) 0.3791(7) 0.6873(7)
C33 C 0.8055(42) 0.3750(17) 0.7660(17)
O4 O 0.7371(18) 0.4346(7) 0.7291(7)
O5 O 0.7890(17) 0.2338(7) 0.6827(7)
O6 O 0.5869(9) 0.3094(4) 0.5195(4)
H18 H 0.5351 0.7414 0.6658
H19 H 0.3451 0.5756 0.6277
H20 H 0.2221 0.6142 0.5918
H21 H 0.2384 0.5190 0.5477
H22 H 0.3985 0.3496 0.5128
H23 H 0.7082 0.0819 0.5444
H24 H 0.7646 0.2573 0.5478
H25 H 0.7988 0.1587 0.6047
H26 H 0.7877 -0.0335 0.5902
H27 H 0.6517 -0.0537 0.6276
H28 H 0.7021 0.0691 0.6582
H29 H 0.5506 0.2046 0.6215
H30 H 0.8267 0.4681 0.7828
H31 H 0.8598 0.3227 0.7533
C34 C 0.7727(44) 0.1468(16) 0.8004(16)
H32 H 0.8208 0.1105 0.8189
H33 H 0.7522 0.0488 0.7850
H34 H 0.7191 0.1941 0.8145
loop_
_geom_bond_atom_site_label_1
_geom_bond_atom_site_label_2
_geom_bond_site_symmetry_1
_geom_bond_site_symmetry_2
C1 C2 1_555 1_555
C2 C14 1_555 1_555
N1 C1 1_555 1_555
C3 C1 1_555 1_555
N2 C3 1_555 1_555
C4 C6 1_555 1_555
C5 C6 1_555 1_555
C6 C7 1_555 1_555
C7 C4 1_555 1_555
C8 C4 1_555 1_555
C9 C4 1_555 1_555
C10 C9 1_555 1_555
N3 C10 1_555 1_555
C11 N3 1_555 1_555
C12 C11 1_555 1_555
C13 H10 1_555 1_555
C14 H12 1_555 1_555
C15 C1 1_555 1_555
C16 C17 1_555 1_555
C17 H15 1_555 1_555
O1 C15 1_555 1_555
O2 C15 1_555 1_555
O3 C10 1_555 1_555
C18 C19 1_555 1_555
C19 N5 1_555 1_555
N4 C18 1_555 1_555
C20 N4 1_555 1_555
N5 C21 1_555 1_555
C21 C22 1_555 1_555
C22 C23 1_555 1_555
C23 C24 1_555 1_555
C24 C22 1_555 1_555
C25 C26 1_555 1_555
C26 C21 1_555 1_555
C27 C26 1_555 1_555
N6 C27 1_555 1_555
C28 N6 1_555 1_555
C29 C28 1_555 1_555
C30 C29 1_555 1_555
C31 C19 1_555 1_555
C32 C18 1_555 1_555
C33 O4 1_555 1_555
C34 H32 1_555 1_555
O4 C32 1_555 1_555
O5 C32 1_555 1_555
O6 C27 1_555 1_555
H1 C3 1_555 1_555
H2 C5 1_555 1_555
H3 C6 1_555 1_555
H4 C7 1_555 1_555
H5 C8 1_555 1_555
H6 C11 1_555 1_555
H7 C11 1_555 1_555
H8 C12 1_555 1_555
H9 C12 1_555 1_555
H11 C13 1_555 1_555
H13 C16 1_555 1_555
H14 C16 1_555 1_555
H16 C17 1_555 1_555
H17 C17 1_555 1_555
H18 C20 1_555 1_555
H19 C22 1_555 1_555
H20 C23 1_555 1_555
H21 C24 1_555 1_555
H22 C25 1_555 1_555
H23 C28 1_555 1_555
H24 C28 1_555 1_555
H25 C29 1_555 1_555
H26 C29 1_555 1_555
H27 C30 1_555 1_555
H28 C30 1_555 1_555
H29 C31 1_555 1_555
H30 C33 1_555 1_555
H31 C33 1_555 1_555
H33 C34 1_555 1_555
H34 C34 1_555 1_555
C2 C15 1_555 1_555
N1 C3 1_555 1_555
C7 C8 1_555 1_555
C8 C9 1_555 1_555
C16 O1 1_555 1_555
O1 O2 1_555 1_555
N6 C31 1_555 1_555

#END
