
#######################################################################
#
#                 Cambridge Crystallographic Data Centre
#                                CCDC 
#
#######################################################################
#
# If this CIF has been generated from an entry in the Cambridge 
# Structural Database, then it will include bibliographic, chemical, 
# crystal, experimental, refinement or atomic coordinate data resulting 
# from the CCDC's data processing and validation procedures.
#
#######################################################################

data_PELYAG
_chemical_formula_moiety         'C51 H52 N2 O8 S2,C3 H6 O1'
_chemical_name_systematic        
'29-Phenyl-29-dinaphtho-13,16-ditosyl-(1,7,10,19,13,16)-tetraoxadiaza-cycloheneicosane acetone solvate'
_symmetry_cell_setting           orthorhombic
_symmetry_space_group_name_H-M   'P b c a'
_symmetry_Int_Tables_number      61
_space_group_name_Hall           '-P 2ac 2ab'
loop_
_symmetry_equiv_pos_site_id
_symmetry_equiv_pos_as_xyz
1 x,y,z
2 1/2-x,1/2+y,z
3 x,1/2-y,1/2+z
4 1/2-x,-y,1/2+z
5 -x,-y,-z
6 1/2+x,1/2-y,-z
7 -x,1/2+y,1/2-z
8 1/2+x,y,1/2-z
_cell_length_a                   47.058(11)
_cell_length_b                   16.194(5)
_cell_length_c                   12.944(5)
_cell_angle_alpha                90
_cell_angle_beta                 90
_cell_angle_gamma                90
_cell_volume                     9864.07
_exptl_crystal_colour            colorless
_chemical_melting_point          '202-206 deg.C'
_cell_formula_units_Z            8
loop_
_atom_site_label
_atom_site_type_symbol
_atom_site_fract_x
_atom_site_fract_y
_atom_site_fract_z
O1 O 0.44862(8) 0.0199(2) -0.0055(3)
C1 C 0.46345(13) 0.0815(3) 0.0511(5)
C2 C 0.45633(13) 0.1647(4) 0.0096(5)
O2 O 0.43071(8) 0.1977(2) 0.0511(3)
C3 C 0.40528(13) 0.1645(4) 0.0093(5)
C4 C 0.38126(13) 0.2086(4) 0.0603(5)
N1 N 0.35383(10) 0.1822(2) 0.0199(3)
C5 C 0.34074(13) 0.1071(3) 0.0586(4)
C6 C 0.32621(13) 0.1189(4) 0.1605(4)
N2 N 0.31383(10) 0.0419(2) 0.2009(3)
C7 C 0.32652(14) 0.0068(4) 0.2949(4)
C8 C 0.34911(15) -0.0576(4) 0.2707(5)
O3 O 0.37216(9) -0.0181(2) 0.2238(3)
C9 C 0.39535(15) -0.0708(4) 0.1998(5)
C10 C 0.39200(15) -0.1176(4) 0.1045(5)
O4 O 0.39334(8) -0.0620(2) 0.0173(3)
C11 C 0.38152(12) -0.0929(3) -0.0742(4)
C12 C 0.39844(11) -0.1056(3) -0.1593(4)
C13 C 0.43083(11) -0.0939(3) -0.1609(4)
C14 C 0.44643(11) -0.1181(3) -0.0611(4)
C15 C 0.45515(12) -0.0615(3) 0.0101(4)
C16 C 0.46976(12) -0.0852(3) 0.0997(4)
C17 C 0.47607(13) -0.1655(4) 0.1178(5)
C18 C 0.46835(12) -0.2267(3) 0.0454(4)
C19 C 0.47550(14) -0.3117(3) 0.0598(5)
C20 C 0.46823(16) -0.3695(4) -0.0097(6)
C21 C 0.45288(16) -0.3452(5) -0.0967(5)
C22 C 0.44582(13) -0.2663(4) -0.1152(4)
C23 C 0.45265(11) -0.2024(3) -0.0448(4)
C24 C 0.35200(14) -0.1025(4) -0.0784(5)
C25 C 0.33883(14) -0.1272(4) -0.1643(5)
C26 C 0.35483(15) -0.1419(4) -0.2543(5)
C27 C 0.34166(14) -0.1682(4) -0.3492(5)
C28 C 0.35729(18) -0.1790(4) -0.4361(5)
C29 C 0.38563(17) -0.1646(4) -0.4358(5)
C30 C 0.39927(14) -0.1390(3) -0.3475(5)
C31 C 0.38408(14) -0.1289(3) -0.2530(5)
C32 C 0.44041(12) -0.0148(3) -0.2119(4)
C33 C 0.46819(13) -0.0104(3) -0.2478(4)
C34 C 0.47765(14) 0.0562(4) -0.3007(4)
C35 C 0.45960(16) 0.1227(4) -0.3187(5)
C36 C 0.43172(15) 0.1187(5) -0.2850(5)
C37 C 0.42292(14) 0.0512(3) -0.2319(4)
S1 S 0.33494(4) 0.23988(10) -0.05599(12)
O5 O 0.35279(12) 0.3076(2) -0.0864(3)
O6 O 0.30776(11) 0.2575(3) -0.0094(3)
C38 C 0.32803(12) 0.1768(3) -0.1626(4)
C39 C 0.30172(14) 0.1496(5) -0.1829(5)
C40 C 0.29635(16) 0.1005(5) -0.2702(5)
C41 C 0.31723(15) 0.0803(4) -0.3361(4)
C42 C 0.34425(14) 0.1069(5) -0.3139(5)
C43 C 0.34988(15) 0.1556(4) -0.2290(4)
C44 C 0.3110(2) 0.0273(5) -0.4328(5)
S2 S 0.28063(4) 0.02443(10) 0.17547(12)
O7 O 0.27467(10) -0.0563(2) 0.2124(4)
O8 O 0.27633(10) 0.0459(3) 0.0690(3)
C45 C 0.26118(12) 0.0962(3) 0.2503(4)
C46 C 0.25338(14) 0.0762(4) 0.3507(4)
C47 C 0.24015(14) 0.1368(4) 0.4098(5)
C48 C 0.23362(14) 0.2140(4) 0.3717(7)
C49 C 0.24057(15) 0.2295(4) 0.2705(7)
C50 C 0.25410(14) 0.1714(4) 0.2087(5)
C51 C 0.21940(19) 0.2807(6) 0.4392(7)
H1 H 0.4580 0.0786 0.1225
H2 H 0.4835 0.0723 0.0451
H3 H 0.4542 0.1605 -0.0640
H4 H 0.4716 0.2018 0.0254
H5 H 0.4047 0.1734 -0.0640
H6 H 0.4042 0.1064 0.0234
H7 H 0.3834 0.2668 0.0488
H8 H 0.3818 0.1975 0.1331
H9 H 0.3269 0.0887 0.0091
H10 H 0.3552 0.0657 0.0664
H11 H 0.3113 0.1587 0.1522
H12 H 0.3399 0.1393 0.2094
H13 H 0.3350 0.0507 0.3340
H14 H 0.3118 -0.0186 0.3352
H15 H 0.3415 -0.0986 0.2250
H16 H 0.3553 -0.0835 0.3336
H17 H 0.4121 -0.0375 0.1939
H18 H 0.3976 -0.1093 0.2556
H19 H 0.3739 -0.1451 0.1049
H20 H 0.4069 -0.1578 0.0991
H21 H 0.4375 -0.1358 -0.2075
H22 H 0.4754 -0.0441 0.1490
H23 H 0.4859 -0.1811 0.1799
H24 H 0.4857 -0.3282 0.1205
H25 H 0.4734 -0.4264 -0.0002
H26 H 0.4470 -0.3864 -0.1456
H27 H 0.4359 -0.2526 -0.1778
H28 H 0.3410 -0.0911 -0.0176
H29 H 0.3186 -0.1346 -0.1648
H30 H 0.3216 -0.1783 -0.3507
H31 H 0.3482 -0.1972 -0.4985
H32 H 0.3964 -0.1721 -0.4982
H33 H 0.4193 -0.1279 -0.3493
H34 H 0.4808 -0.0558 -0.2352
H35 H 0.4969 0.0578 -0.3256
H36 H 0.4664 0.1709 -0.3541
H37 H 0.4188 0.1631 -0.2989
H38 H 0.4036 0.0493 -0.2077
H39 H 0.2864 0.1641 -0.1375
H40 H 0.2774 0.0809 -0.2831
H41 H 0.3596 0.0913 -0.3587
H42 H 0.3689 0.1746 -0.2159
H43 H 0.2570 0.0222 0.3784
H44 H 0.2353 0.1244 0.4802
H45 H 0.2359 0.2823 0.2415
H46 H 0.2584 0.1837 0.1379
O9 O 0.04624(18) 0.5463(5) 0.3339(6)
C52 C 0.0631(4) 0.5891(5) 0.3659(8)
C53 C 0.0887(2) 0.5411(5) 0.4559(6)
C54 C 0.0709(4) 0.6659(6) 0.3279(10)
loop_
_geom_bond_atom_site_label_1
_geom_bond_atom_site_label_2
_geom_bond_site_symmetry_1
_geom_bond_site_symmetry_2
O1 C1 1_555 1_555
C1 C2 1_555 1_555
C2 O2 1_555 1_555
O2 C3 1_555 1_555
C3 C4 1_555 1_555
C4 N1 1_555 1_555
N1 C5 1_555 1_555
C5 C6 1_555 1_555
C6 N2 1_555 1_555
N2 C7 1_555 1_555
C7 C8 1_555 1_555
C8 O3 1_555 1_555
O3 C9 1_555 1_555
C9 C10 1_555 1_555
C10 O4 1_555 1_555
O4 C11 1_555 1_555
C11 C12 1_555 1_555
C12 C13 1_555 1_555
C13 C14 1_555 1_555
C14 C15 1_555 1_555
C15 O1 1_555 1_555
C16 C15 1_555 1_555
C17 C16 1_555 1_555
C18 C17 1_555 1_555
C19 C18 1_555 1_555
C20 C19 1_555 1_555
C21 C20 1_555 1_555
C22 C21 1_555 1_555
C23 C14 1_555 1_555
C24 C11 1_555 1_555
C25 C24 1_555 1_555
C26 C25 1_555 1_555
C27 C26 1_555 1_555
C28 C27 1_555 1_555
C29 C28 1_555 1_555
C30 C29 1_555 1_555
C31 C12 1_555 1_555
C32 C13 1_555 1_555
C33 C32 1_555 1_555
C34 C33 1_555 1_555
C35 C34 1_555 1_555
C36 C35 1_555 1_555
C37 C32 1_555 1_555
S1 N1 1_555 1_555
O5 S1 1_555 1_555
O6 S1 1_555 1_555
C38 S1 1_555 1_555
C39 C38 1_555 1_555
C40 C39 1_555 1_555
C41 C40 1_555 1_555
C42 C41 1_555 1_555
C43 C38 1_555 1_555
C44 C41 1_555 1_555
S2 N2 1_555 1_555
O7 S2 1_555 1_555
O8 S2 1_555 1_555
C45 S2 1_555 1_555
C46 C45 1_555 1_555
C47 C46 1_555 1_555
C48 C47 1_555 1_555
C49 C48 1_555 1_555
C50 C45 1_555 1_555
C51 C48 1_555 1_555
O9 C52 1_555 1_555
C52 C53 1_555 1_555
C54 C52 1_555 1_555
H1 C1 1_555 1_555
H2 C1 1_555 1_555
H3 C2 1_555 1_555
H4 C2 1_555 1_555
H5 C3 1_555 1_555
H6 C3 1_555 1_555
H7 C4 1_555 1_555
H8 C4 1_555 1_555
H9 C5 1_555 1_555
H10 C5 1_555 1_555
H11 C6 1_555 1_555
H12 C6 1_555 1_555
H13 C7 1_555 1_555
H14 C7 1_555 1_555
H15 C8 1_555 1_555
H16 C8 1_555 1_555
H17 C9 1_555 1_555
H18 C9 1_555 1_555
H19 C10 1_555 1_555
H20 C10 1_555 1_555
H21 C13 1_555 1_555
H22 C16 1_555 1_555
H23 C17 1_555 1_555
H24 C19 1_555 1_555
H25 C20 1_555 1_555
H26 C21 1_555 1_555
H27 C22 1_555 1_555
H28 C24 1_555 1_555
H29 C25 1_555 1_555
H30 C27 1_555 1_555
H31 C28 1_555 1_555
H32 C29 1_555 1_555
H33 C30 1_555 1_555
H34 C33 1_555 1_555
H35 C34 1_555 1_555
H36 C35 1_555 1_555
H37 C36 1_555 1_555
H38 C37 1_555 1_555
H39 C39 1_555 1_555
H40 C40 1_555 1_555
H41 C42 1_555 1_555
H42 C43 1_555 1_555
H43 C46 1_555 1_555
H44 C47 1_555 1_555
H45 C49 1_555 1_555
H46 C50 1_555 1_555
C18 C23 1_555 1_555
C22 C23 1_555 1_555
C26 C31 1_555 1_555
C30 C31 1_555 1_555
C36 C37 1_555 1_555
C42 C43 1_555 1_555
C49 C50 1_555 1_555

#END
