
#######################################################################
#
#                 Cambridge Crystallographic Data Centre
#                                CCDC 
#
#######################################################################
#
# If this CIF has been generated from an entry in the Cambridge 
# Structural Database, then it will include bibliographic, chemical, 
# crystal, experimental, refinement or atomic coordinate data resulting 
# from the CCDC's data processing and validation procedures.
#
#######################################################################

data_PEMJEX
_chemical_compound_source        
'Diaporthe phaseolorum, grown on the submerged rotten leaves of Kandelia candel'
_chemical_formula_moiety         'C10 H10 O3'
_chemical_name_systematic        7-Hydroxy-4,6-dimethyl-3H-isobenzofuran-1-one
_chemical_properties_biological  
'cytotoxicity towards the Raji cell line, antioxidant activity as a scavenger of 2,2-diphenyl-1,4-phthalazinedione radicals and moderate activity against Penicillium avellaneum'
_symmetry_cell_setting           orthorhombic
_symmetry_space_group_name_H-M   'P b c a'
_symmetry_Int_Tables_number      61
_space_group_name_Hall           '-P 2ac 2ab'
loop_
_symmetry_equiv_pos_site_id
_symmetry_equiv_pos_as_xyz
1 x,y,z
2 1/2-x,-y,1/2+z
3 -x,1/2+y,1/2-z
4 1/2+x,1/2-y,-z
5 -x,-y,-z
6 1/2+x,y,1/2-z
7 x,1/2-y,1/2+z
8 1/2-x,1/2+y,z
_cell_length_a                   14.362(5)
_cell_length_b                   8.220(3)
_cell_length_c                   14.360(2)
_cell_angle_alpha                90
_cell_angle_beta                 90
_cell_angle_gamma                90
_cell_volume                     1695.28
_exptl_crystal_colour            colorless
_exptl_crystal_description       chunk
_cell_formula_units_Z            8
_exptl_crystal_recrystallization_method 'ethyl acetate'
loop_
_atom_site_label
_atom_site_type_symbol
_atom_site_fract_x
_atom_site_fract_y
_atom_site_fract_z
O1 O -0.01139(15) 0.10792(19) 0.41702(13)
C1 C 0.01894(16) 0.2376(3) 0.39665(15)
O2 O 0.00197(12) 0.30531(18) 0.31362(10)
C2 C 0.07657(13) 0.3470(2) 0.44961(14)
O3 O 0.09450(11) 0.19702(17) 0.59115(11)
H1 H 0.0617 0.1326 0.5624
C3 C 0.11031(13) 0.3286(2) 0.53837(14)
C4 C 0.16383(14) 0.4537(3) 0.57452(15)
C5 C 0.17852(14) 0.5892(3) 0.52042(16)
H2 H 0.2140 0.6729 0.5457
C6 C 0.14476(14) 0.6102(2) 0.43185(15)
C7 C 0.09345(13) 0.4832(2) 0.39740(14)
C8 C 0.04661(17) 0.4612(3) 0.30713(15)
H3 H 0.0011 0.5466 0.2967
H4 H 0.0914 0.4626 0.2566
C9 C 0.20502(18) 0.4407(3) 0.66937(17)
H5 H 0.2161 0.5478 0.6937
H6 H 0.2628 0.3823 0.6660
H7 H 0.1627 0.3837 0.7095
C10 C 0.16237(19) 0.7624(3) 0.37762(19)
H8 H 0.1258 0.7610 0.3217
H9 H 0.2272 0.7689 0.3618
H10 H 0.1454 0.8551 0.4146
loop_
_geom_bond_atom_site_label_1
_geom_bond_atom_site_label_2
_geom_bond_site_symmetry_1
_geom_bond_site_symmetry_2
O1 C1 1_555 1_555
C1 O2 1_555 1_555
O2 C8 1_555 1_555
C2 C1 1_555 1_555
O3 H1 1_555 1_555
C3 C2 1_555 1_555
C4 C3 1_555 1_555
C5 C4 1_555 1_555
H2 C5 1_555 1_555
C6 C5 1_555 1_555
C7 C2 1_555 1_555
C8 C7 1_555 1_555
H3 C8 1_555 1_555
H4 C8 1_555 1_555
C9 C4 1_555 1_555
H5 C9 1_555 1_555
H6 C9 1_555 1_555
H7 C9 1_555 1_555
C10 C6 1_555 1_555
H8 C10 1_555 1_555
H9 C10 1_555 1_555
H10 C10 1_555 1_555
O3 C3 1_555 1_555
C6 C7 1_555 1_555

#END
