
#######################################################################
#
#                 Cambridge Crystallographic Data Centre
#                                CCDC 
#
#######################################################################
#
# If this CIF has been generated from an entry in the Cambridge 
# Structural Database, then it will include bibliographic, chemical, 
# crystal, experimental, refinement or atomic coordinate data resulting 
# from the CCDC's data processing and validation procedures.
#
#######################################################################

data_PEMLOJ
_chemical_formula_moiety         'C16 H20 N2 S4'
_chemical_name_systematic        
2,2'-(p-Phenylenedimethylenedithio)bis(4,5-dihydro-1,3-thiazine)
_symmetry_cell_setting           monoclinic
_symmetry_space_group_name_H-M   'P 21/c'
_symmetry_Int_Tables_number      14
_space_group_name_Hall           '-P 2ybc'
loop_
_symmetry_equiv_pos_site_id
_symmetry_equiv_pos_as_xyz
1 x,y,z
2 -x,1/2+y,1/2-z
3 -x,-y,-z
4 x,1/2-y,1/2+z
_cell_length_a                   14.280(3)
_cell_length_b                   5.1581(13)
_cell_length_c                   12.250(3)
_cell_angle_alpha                90
_cell_angle_beta                 103.782(4)
_cell_angle_gamma                90
_cell_volume                     876.328
_exptl_crystal_colour            colorless
_exptl_crystal_description       block
_chemical_melting_point          '350-351 K'
_cell_formula_units_Z            2
_exptl_crystal_recrystallization_method ethanol/water
loop_
_atom_site_label
_atom_site_type_symbol
_atom_site_fract_x
_atom_site_fract_y
_atom_site_fract_z
S1 S 0.41283(6) 0.4649(2) 0.28955(8)
S2 S 0.26197(6) 0.76755(18) 0.15633(7)
N1 N 0.22700(17) 0.4544(5) 0.3153(2)
C1 C 0.4261(2) 0.2208(7) 0.3970(3)
H1 H 0.4138 0.0514 0.3621
H2 H 0.4918 0.2224 0.4424
C2 C 0.3583(3) 0.2668(8) 0.4701(3)
H3 H 0.3731 0.4332 0.5071
H4 H 0.3683 0.1342 0.5279
C3 C 0.2548(2) 0.2647(7) 0.4076(3)
H5 H 0.2392 0.0925 0.3767
H6 H 0.2156 0.2957 0.4609
C4 C 0.28865(19) 0.5359(6) 0.2663(2)
C5 C 0.1360(2) 0.8401(7) 0.1472(3)
H7 H 0.1245 0.8308 0.2220
H8 H 0.1232 1.0168 0.1207
C6 C 0.0663(2) 0.6634(6) 0.0712(2)
C7 C 0.0113(2) 0.4874(7) 0.1143(2)
H9 H 0.0185 0.4774 0.1916
C8 C 0.0539(2) 0.6736(7) -0.0447(3)
H10 H 0.0899 0.7903 -0.0758
S1B S -0.41283(6) 0.5351(2) -0.28955(8)
S2B S -0.26197(6) 0.23245(18) -0.15633(7)
N1B N -0.22700(17) 0.5456(5) -0.3153(2)
C1B C -0.4261(2) 0.7792(7) -0.3970(3)
H1B H -0.4138 0.9486 -0.3621
H2B H -0.4918 0.7776 -0.4424
C2B C -0.3583(3) 0.7332(8) -0.4701(3)
H3B H -0.3731 0.5668 -0.5071
H4B H -0.3683 0.8658 -0.5279
C3B C -0.2548(2) 0.7353(7) -0.4076(3)
H5B H -0.2392 0.9075 -0.3767
H6B H -0.2156 0.7043 -0.4609
C4B C -0.28865(19) 0.4641(6) -0.2663(2)
C5B C -0.1360(2) 0.1599(7) -0.1472(3)
H7B H -0.1245 0.1692 -0.2220
H8B H -0.1232 -0.0168 -0.1207
C6B C -0.0663(2) 0.3366(6) -0.0712(2)
C7B C -0.0113(2) 0.5126(7) -0.1143(2)
H9B H -0.0185 0.5226 -0.1916
C8B C -0.0539(2) 0.3264(7) 0.0447(3)
H10B H -0.0899 0.2097 0.0758
loop_
_geom_bond_atom_site_label_1
_geom_bond_atom_site_label_2
_geom_bond_site_symmetry_1
_geom_bond_site_symmetry_2
S1 C1 1_555 1_555
S2 C4 1_555 1_555
N1 C3 1_555 1_555
C1 H1 1_555 1_555
H2 C1 1_555 1_555
C2 C1 1_555 1_555
H3 C2 1_555 1_555
H4 C2 1_555 1_555
C3 C2 1_555 1_555
H5 C3 1_555 1_555
H6 C3 1_555 1_555
C4 S1 1_555 1_555
C5 S2 1_555 1_555
H7 C5 1_555 1_555
H8 C5 1_555 1_555
C6 C5 1_555 1_555
C7 C6 1_555 1_555
H9 C7 1_555 1_555
C8 C6 1_555 1_555
H10 C8 1_555 1_555
S1B C1B 1_555 1_555
S2B C4B 1_555 1_555
N1B C3B 1_555 1_555
C1B H1B 1_555 1_555
H2B C1B 1_555 1_555
C2B C1B 1_555 1_555
H3B C2B 1_555 1_555
H4B C2B 1_555 1_555
C3B C2B 1_555 1_555
H5B C3B 1_555 1_555
H6B C3B 1_555 1_555
C4B S1B 1_555 1_555
C5B S2B 1_555 1_555
H7B C5B 1_555 1_555
H8B C5B 1_555 1_555
C6B C5B 1_555 1_555
C7B C8 1_555 1_555
H9B C7B 1_555 1_555
C8B C7 1_555 1_555
H10B C8B 1_555 1_555
N1 C4 1_555 1_555
N1B C4B 1_555 1_555
C6B C7B 1_555 1_555
C6B C8B 1_555 1_555

#END
