
#######################################################################
#
#                 Cambridge Crystallographic Data Centre
#                                CCDC 
#
#######################################################################
#
# If this CIF has been generated from an entry in the Cambridge 
# Structural Database, then it will include bibliographic, chemical, 
# crystal, experimental, refinement or atomic coordinate data resulting 
# from the CCDC's data processing and validation procedures.
#
#######################################################################

data_PEMMUQ
_chemical_formula_moiety         'C10 H10 Br2 O2'
_chemical_name_systematic        1-(2,2-Dibromovinyl)-3,5-dimethoxybenzene
_symmetry_cell_setting           monoclinic
_symmetry_space_group_name_H-M   'P 21/n'
_symmetry_Int_Tables_number      14
_space_group_name_Hall           '-P 2yn'
loop_
_symmetry_equiv_pos_site_id
_symmetry_equiv_pos_as_xyz
1 x,y,z
2 1/2-x,1/2+y,1/2-z
3 -x,-y,-z
4 1/2+x,1/2-y,1/2+z
_cell_length_a                   4.129(2)
_cell_length_b                   11.192(6)
_cell_length_c                   25.732(15)
_cell_angle_alpha                90
_cell_angle_beta                 92.274(10)
_cell_angle_gamma                90
_cell_volume                     1188.18
_exptl_crystal_colour            colorless
_exptl_crystal_description       block
_chemical_melting_point          '345 K'
_cell_formula_units_Z            4
_exptl_crystal_recrystallization_method 'ethyl acetate/hexane'
loop_
_atom_site_label
_atom_site_type_symbol
_atom_site_fract_x
_atom_site_fract_y
_atom_site_fract_z
Br1 Br 0.6528(3) 0.66784(10) 0.20443(5)
Br2 Br 0.3449(3) 0.40741(10) 0.22553(4)
O1 O 0.051(2) 0.3094(7) -0.0342(3)
O2 O 0.497(2) 0.0420(6) 0.1005(3)
C1 C 0.512(2) 0.5157(9) 0.1750(4)
C2 C 0.543(3) 0.4929(10) 0.1230(4)
H1 H 0.6288 0.5540 0.1033
C3 C 0.451(3) 0.3786(9) 0.0943(4)
C4 C 0.301(3) 0.3912(9) 0.0442(4)
H2 H 0.2620 0.4670 0.0304
C5 C 0.208(3) 0.2878(9) 0.0148(4)
C6 C 0.273(3) 0.1721(10) 0.0350(4)
H3 H 0.2106 0.1046 0.0160
C7 C 0.434(3) 0.1605(9) 0.0842(4)
C8 C 0.527(3) 0.2618(10) 0.1142(4)
H4 H 0.6367 0.2528 0.1463
C9 C -0.067(3) 0.2056(11) -0.0643(5)
H5 H 0.1122 0.1548 -0.0720
H6 H -0.1718 0.2323 -0.0962
H7 H -0.2190 0.1618 -0.0444
C10 C 0.663(3) 0.0253(11) 0.1518(4)
H8 H 0.8838 0.0518 0.1503
H9 H 0.6598 -0.0578 0.1611
H10 H 0.5543 0.0709 0.1775
loop_
_geom_bond_atom_site_label_1
_geom_bond_atom_site_label_2
_geom_bond_site_symmetry_1
_geom_bond_site_symmetry_2
Br1 C1 1_555 1_555
Br2 C1 1_555 1_555
O1 C5 1_555 1_555
O2 C7 1_555 1_555
C1 C2 1_555 1_555
C2 H1 1_555 1_555
C3 C2 1_555 1_555
C4 C3 1_555 1_555
H2 C4 1_555 1_555
C5 C4 1_555 1_555
C6 C5 1_555 1_555
H3 C6 1_555 1_555
C7 C6 1_555 1_555
C8 C3 1_555 1_555
H4 C8 1_555 1_555
C9 O1 1_555 1_555
H5 C9 1_555 1_555
H6 C9 1_555 1_555
H7 C9 1_555 1_555
C10 O2 1_555 1_555
H8 C10 1_555 1_555
H9 C10 1_555 1_555
H10 C10 1_555 1_555
C7 C8 1_555 1_555

#END
