
#######################################################################
#
#                 Cambridge Crystallographic Data Centre
#                                CCDC 
#
#######################################################################
#
# If this CIF has been generated from an entry in the Cambridge 
# Structural Database, then it will include bibliographic, chemical, 
# crystal, experimental, refinement or atomic coordinate data resulting 
# from the CCDC's data processing and validation procedures.
#
#######################################################################

data_PEMNAY
_chemical_formula_moiety         'C28 H28 Si2'
_chemical_name_systematic        
Dicyclopenta[de,mn]tetracene-2,8-diylbis(trimethylsilane)
_symmetry_cell_setting           monoclinic
_symmetry_space_group_name_H-M   'P 21/n'
_symmetry_Int_Tables_number      14
_space_group_name_Hall           '-P 2yn'
loop_
_symmetry_equiv_pos_site_id
_symmetry_equiv_pos_as_xyz
1 x,y,z
2 1/2-x,1/2+y,1/2-z
3 -x,-y,-z
4 1/2+x,1/2-y,1/2+z
_cell_length_a                   7.0979(9)
_cell_length_b                   13.6258(16)
_cell_length_c                   25.324(3)
_cell_angle_alpha                90
_cell_angle_beta                 92.031(2)
_cell_angle_gamma                90
_cell_volume                     2447.66
_exptl_crystal_colour            black
_exptl_crystal_description       prism
_cell_formula_units_Z            4
loop_
_atom_site_label
_atom_site_type_symbol
_atom_site_fract_x
_atom_site_fract_y
_atom_site_fract_z
Si1 Si 0.78928(8) 0.12286(4) 0.09546(2)
C1 C 0.4830(2) 0.51974(11) -0.02676(6)
C2 C 0.5185(2) 0.46291(12) -0.07198(6)
H1 H 0.4954 0.4903 -0.1061
C3 C 0.5871(2) 0.36715(12) -0.06737(6)
C4 C 0.6324(2) 0.30123(13) -0.10912(7)
H2 H 0.6161 0.3213 -0.1449
C5 C 0.6993(2) 0.20930(13) -0.09735(7)
H3 H 0.7279 0.1666 -0.1256
C6 C 0.7279(2) 0.17472(13) -0.04451(7)
H4 H 0.7741 0.1103 -0.0380
C7 C 0.6880(2) 0.23546(12) -0.00334(7)
C8 C 0.7020(2) 0.22850(12) 0.05510(7)
C9 C 0.6408(2) 0.31690(12) 0.07380(7)
H5 H 0.6346 0.3333 0.1102
C10 C 0.5861(2) 0.38273(12) 0.03018(6)
C11 C 0.6172(2) 0.33109(11) -0.01594(7)
C12 C 1.0410(3) 0.09753(18) 0.08077(10)
H6 H 1.1188 0.1541 0.0914
H7 H 1.0518 0.0859 0.0428
H8 H 1.0844 0.0393 0.1004
C13 C 0.7702(4) 0.15483(17) 0.16664(8)
H9 H 0.8384 0.2161 0.1741
H10 H 0.8249 0.1020 0.1885
H11 H 0.6371 0.1633 0.1747
C14 C 0.6459(4) 0.01145(17) 0.07942(11)
H12 H 0.6912 -0.0435 0.1013
H13 H 0.6576 -0.0051 0.0420
H14 H 0.5133 0.0245 0.0865
Si1B Si 0.21072(8) 0.87714(4) -0.09546(2)
C1B C 0.5170(2) 0.48026(11) 0.02676(6)
C2B C 0.4815(2) 0.53709(12) 0.07198(6)
H1B H 0.5046 0.5097 0.1061
C3B C 0.4129(2) 0.63285(12) 0.06737(6)
C4B C 0.3676(2) 0.69877(13) 0.10912(7)
H2B H 0.3839 0.6787 0.1449
C5B C 0.3007(2) 0.79070(13) 0.09735(7)
H3B H 0.2721 0.8334 0.1256
C6B C 0.2721(2) 0.82528(13) 0.04451(7)
H4B H 0.2259 0.8897 0.0380
C7B C 0.3120(2) 0.76454(12) 0.00334(7)
C8B C 0.2980(2) 0.77150(12) -0.05510(7)
C9B C 0.3592(2) 0.68310(12) -0.07380(7)
H5B H 0.3654 0.6667 -0.1102
C10B C 0.4139(2) 0.61727(12) -0.03018(6)
C11B C 0.3828(2) 0.66891(11) 0.01594(7)
C12B C -0.0410(3) 0.90247(18) -0.08077(10)
H6B H -0.1188 0.8459 -0.0914
H7B H -0.0518 0.9141 -0.0428
H8B H -0.0844 0.9607 -0.1004
C13B C 0.2298(4) 0.84517(17) -0.16664(8)
H9B H 0.1616 0.7839 -0.1741
H10B H 0.1751 0.8980 -0.1885
H11B H 0.3629 0.8367 -0.1747
C14B C 0.3541(4) 0.98855(17) -0.07942(11)
H12B H 0.3088 1.0435 -0.1013
H13B H 0.3424 1.0051 -0.0420
H14B H 0.4867 0.9755 -0.0865
Si2 Si 0.85264(8) 0.59075(4) -0.22992(2)
C15 C 1.0365(2) 0.45830(11) 0.01563(6)
C16 C 1.1007(2) 0.37194(11) -0.00912(6)
H15 H 1.1467 0.3189 0.0120
C17 C 1.0973(2) 0.36365(11) -0.06403(6)
C18 C 1.1562(2) 0.28163(13) -0.09484(7)
H16 H 1.2046 0.2244 -0.0778
C19 C 1.1429(2) 0.28583(13) -0.14868(7)
H17 H 1.1841 0.2309 -0.1683
C20 C 1.0701(2) 0.36885(13) -0.17679(7)
H18 H 1.0636 0.3690 -0.2143
C21 C 1.0093(2) 0.44857(12) -0.14907(6)
C22 C 0.9209(2) 0.54463(13) -0.16278(7)
C23 C 0.8942(2) 0.59160(12) -0.11586(6)
H19 H 0.8400 0.6550 -0.1127
C24 C 0.9605(2) 0.53082(11) -0.07115(6)
C25 C 1.0274(2) 0.44452(12) -0.09287(6)
C26 C 0.7310(4) 0.71025(18) -0.22409(10)
H20 H 0.8146 0.7570 -0.2055
H21 H 0.6160 0.7015 -0.2043
H22 H 0.6979 0.7355 -0.2594
C27 C 1.0683(4) 0.6062(2) -0.26891(9)
H23 H 1.1528 0.6537 -0.2512
H24 H 1.0327 0.6301 -0.3044
H25 H 1.1329 0.5429 -0.2717
C28 C 0.6898(4) 0.5023(2) -0.26414(10)
H26 H 0.7577 0.4414 -0.2713
H27 H 0.6422 0.5309 -0.2975
H28 H 0.5838 0.4881 -0.2416
Si2B Si 1.14736(8) 0.40925(4) 0.22992(2)
C15B C 0.9635(2) 0.54170(11) -0.01563(6)
C16B C 0.8993(2) 0.62806(11) 0.00912(6)
H15B H 0.8533 0.6811 -0.0120
C17B C 0.9027(2) 0.63635(11) 0.06403(6)
C18B C 0.8438(2) 0.71837(13) 0.09484(7)
H16B H 0.7954 0.7756 0.0778
C19B C 0.8571(2) 0.71417(13) 0.14868(7)
H17B H 0.8159 0.7691 0.1683
C20B C 0.9299(2) 0.63115(13) 0.17679(7)
H18B H 0.9364 0.6310 0.2143
C21B C 0.9907(2) 0.55143(12) 0.14907(6)
C22B C 1.0791(2) 0.45537(13) 0.16278(7)
C23B C 1.1058(2) 0.40840(12) 0.11586(6)
H19B H 1.1600 0.3450 0.1127
C24B C 1.0395(2) 0.46918(11) 0.07115(6)
C25B C 0.9726(2) 0.55548(12) 0.09287(6)
C26B C 1.2690(4) 0.28975(18) 0.22409(10)
H20B H 1.1854 0.2430 0.2055
H21B H 1.3840 0.2985 0.2043
H22B H 1.3021 0.2645 0.2594
C27B C 0.9317(4) 0.3938(2) 0.26891(9)
H23B H 0.8472 0.3463 0.2512
H24B H 0.9673 0.3699 0.3044
H25B H 0.8671 0.4571 0.2717
C28B C 1.3102(4) 0.4977(2) 0.26414(10)
H26B H 1.2423 0.5586 0.2713
H27B H 1.3578 0.4691 0.2975
H28B H 1.4162 0.5119 0.2416
loop_
_geom_bond_atom_site_label_1
_geom_bond_atom_site_label_2
_geom_bond_site_symmetry_1
_geom_bond_site_symmetry_2
Si1 C8 1_555 1_555
C1 C2 1_555 1_555
C2 H1 1_555 1_555
C3 C2 1_555 1_555
C4 C3 1_555 1_555
H2 C4 1_555 1_555
C5 C4 1_555 1_555
H3 C5 1_555 1_555
C6 C5 1_555 1_555
H4 C6 1_555 1_555
C7 C6 1_555 1_555
C8 C7 1_555 1_555
C9 C8 1_555 1_555
H5 C9 1_555 1_555
C10 C9 1_555 1_555
C11 C3 1_555 1_555
C12 Si1 1_555 1_555
H6 C12 1_555 1_555
H7 C12 1_555 1_555
H8 C12 1_555 1_555
C13 Si1 1_555 1_555
H9 C13 1_555 1_555
H10 C13 1_555 1_555
H11 C13 1_555 1_555
C14 Si1 1_555 1_555
H12 C14 1_555 1_555
H13 C14 1_555 1_555
H14 C14 1_555 1_555
Si2 C22 1_555 1_555
C15 C16 1_555 1_555
C16 H15 1_555 1_555
C17 C16 1_555 1_555
C18 C17 1_555 1_555
H16 C18 1_555 1_555
C19 C18 1_555 1_555
H17 C19 1_555 1_555
C20 C19 1_555 1_555
H18 C20 1_555 1_555
C21 C20 1_555 1_555
C22 C21 1_555 1_555
C23 C22 1_555 1_555
H19 C23 1_555 1_555
C24 C23 1_555 1_555
C25 C17 1_555 1_555
C26 Si2 1_555 1_555
H20 C26 1_555 1_555
H21 C26 1_555 1_555
H22 C26 1_555 1_555
C27 Si2 1_555 1_555
H23 C27 1_555 1_555
H24 C27 1_555 1_555
H25 C27 1_555 1_555
C28 Si2 1_555 1_555
H26 C28 1_555 1_555
H27 C28 1_555 1_555
H28 C28 1_555 1_555
Si1B C8B 1_555 1_555
C1B C1 1_555 1_555
C2B C1B 1_555 1_555
H1B C2B 1_555 1_555
C3B C2B 1_555 1_555
C4B C3B 1_555 1_555
H2B C4B 1_555 1_555
C5B C4B 1_555 1_555
H3B C5B 1_555 1_555
C6B C5B 1_555 1_555
H4B C6B 1_555 1_555
C7B C6B 1_555 1_555
C8B C7B 1_555 1_555
C9B C8B 1_555 1_555
H5B C9B 1_555 1_555
C10B C1 1_555 1_555
C11B C3B 1_555 1_555
C12B Si1B 1_555 1_555
H6B C12B 1_555 1_555
H7B C12B 1_555 1_555
H8B C12B 1_555 1_555
C13B Si1B 1_555 1_555
H9B C13B 1_555 1_555
H10B C13B 1_555 1_555
H11B C13B 1_555 1_555
C14B Si1B 1_555 1_555
H12B C14B 1_555 1_555
H13B C14B 1_555 1_555
H14B C14B 1_555 1_555
Si2B C22B 1_555 1_555
C15B C15 1_555 1_555
C16B C15B 1_555 1_555
H15B C16B 1_555 1_555
C17B C16B 1_555 1_555
C18B C17B 1_555 1_555
H16B C18B 1_555 1_555
C19B C18B 1_555 1_555
H17B C19B 1_555 1_555
C20B C19B 1_555 1_555
H18B C20B 1_555 1_555
C21B C20B 1_555 1_555
C22B C21B 1_555 1_555
C23B C22B 1_555 1_555
H19B C23B 1_555 1_555
C24B C15 1_555 1_555
C25B C17B 1_555 1_555
C26B Si2B 1_555 1_555
H20B C26B 1_555 1_555
H21B C26B 1_555 1_555
H22B C26B 1_555 1_555
C27B Si2B 1_555 1_555
H23B C27B 1_555 1_555
H24B C27B 1_555 1_555
H25B C27B 1_555 1_555
C28B Si2B 1_555 1_555
H26B C28B 1_555 1_555
H27B C28B 1_555 1_555
H28B C28B 1_555 1_555
C7 C11 1_555 1_555
C10 C11 1_555 1_555
C10 C1B 1_555 1_555
C21 C25 1_555 1_555
C24 C25 1_555 1_555
C24 C15B 1_555 1_555
C7B C11B 1_555 1_555
C9B C10B 1_555 1_555
C10B C11B 1_555 1_555
C21B C25B 1_555 1_555
C23B C24B 1_555 1_555
C24B C25B 1_555 1_555

#END
