
#######################################################################
#
#                 Cambridge Crystallographic Data Centre
#                                CCDC 
#
#######################################################################
#
# If this CIF has been generated from an entry in the Cambridge 
# Structural Database, then it will include bibliographic, chemical, 
# crystal, experimental, refinement or atomic coordinate data resulting 
# from the CCDC's data processing and validation procedures.
#
#######################################################################

data_PEMTEJ
_chemical_compound_source        'Penicillium chrysogenum MT-12'
_chemical_name_common            'Chrysogenolide E methanol solvate'
_chemical_formula_moiety         'C24 H26 O8,C1 H4 O1'
_chemical_name_systematic        
"12c'-hydroxy-1',4a',10',10',11b'-pentamethyl-2a',4a',5',5a',10',11a',11b',12c'-octahydro-8'H-spiro[oxirane-2,6'-[2,3,9,12]tetraoxabenzo[5,6]cyclohepta[1,2,3-bc]cyclopenta[fg]acenaphthylene]-4',8'(1'H)-dione methanol solvate"
_symmetry_cell_setting           orthorhombic
_symmetry_space_group_name_H-M   'P 21 21 21'
_symmetry_Int_Tables_number      19
_space_group_name_Hall           'P 2ac 2ab'
loop_
_symmetry_equiv_pos_site_id
_symmetry_equiv_pos_as_xyz
1 x,y,z
2 1/2-x,-y,1/2+z
3 1/2+x,1/2-y,-z
4 -x,1/2+y,1/2-z
_cell_length_a                   11.13099(17)
_cell_length_b                   13.5853(2)
_cell_length_c                   15.1823(3)
_cell_angle_alpha                90
_cell_angle_beta                 90
_cell_angle_gamma                90
_cell_volume                     2295.83
_exptl_crystal_colour            colorless
_exptl_crystal_description       plate
_chemical_melting_point          '466-468 K'
_cell_formula_units_Z            4
_chemical_properties_physical    ', Heat-sensitive,Oxygen-sensitive'
_exptl_crystal_recrystallization_method methanol/water
loop_
_atom_site_label
_atom_site_type_symbol
_atom_site_fract_x
_atom_site_fract_y
_atom_site_fract_z
O1 O -0.28397(14) -0.18059(11) -0.14946(11)
O2 O -0.10769(15) -0.25441(12) 0.08586(10)
O3 O -0.03796(14) -0.31759(11) -0.04729(10)
O4 O -0.61206(14) 0.15560(11) -0.15638(10)
O5 O -0.21049(15) 0.19434(11) -0.00275(11)
O6 O 0.09488(13) -0.10518(12) -0.04127(10)
H1 H 0.1100 -0.1299 -0.0907
O7 O -0.20925(16) -0.15139(13) 0.17310(11)
O8 O -0.54881(15) 0.30406(12) -0.19406(11)
C1 C -0.11849(19) -0.12619(16) -0.07657(14)
C2 C -0.67535(19) -0.01067(16) -0.14956(16)
H2 H -0.6456 -0.0232 -0.2092
H3 H -0.7574 0.0152 -0.1527
H4 H -0.6751 -0.0722 -0.1159
C3 C -0.12112(19) 0.01157(16) 0.06124(15)
H5 H -0.0627 0.0611 0.0400
H6 H -0.1510 0.0341 0.1193
C4 C -0.1341(2) -0.16386(17) 0.11679(15)
C5 C -0.38773(19) 0.12293(16) -0.07498(14)
C6 C -0.17936(18) -0.20233(17) -0.10714(14)
C7 C -0.4211(2) 0.21298(16) -0.10091(15)
H7 H -0.3736 0.2681 -0.0846
C8 C -0.1123(2) 0.04497(17) -0.14574(15)
H8 H -0.0793 0.0144 -0.1990
H9 H -0.0463 0.0689 -0.1088
H10 H -0.1641 0.1002 -0.1623
C9 C -0.46114(19) 0.03885(16) -0.10538(14)
C10 C -0.22765(19) 0.00849(15) -0.00336(14)
H11 H -0.2882 -0.0386 0.0209
C11 C -0.41854(19) -0.04516(16) -0.13773(14)
H12 H -0.4766 -0.0937 -0.1525
C12 C -0.28741(19) 0.10899(16) -0.00957(14)
C13 C -0.5298(2) 0.22843(16) -0.15412(14)
C14 C -0.01877(19) -0.13842(15) -0.01191(14)
C15 C -0.0158(2) -0.24742(17) 0.01664(14)
H13 H 0.0644 -0.2614 0.0436
C16 C -0.18614(19) -0.03164(15) -0.09419(14)
C17 C -0.6390(2) 0.08159(17) -0.01052(15)
H14 H -0.7247 0.0980 -0.0116
H15 H -0.5939 0.1362 0.0157
H16 H -0.6267 0.0219 0.0246
C18 C -0.1295(2) -0.36008(17) -0.18368(16)
H17 H -0.1145 -0.4302 -0.1734
H18 H -0.0602 -0.3309 -0.2137
H19 H -0.2012 -0.3524 -0.2205
C19 C -0.2936(2) 0.17560(16) 0.06765(16)
H20 H -0.3644 0.2193 0.0729
H21 H -0.2608 0.1514 0.1243
C20 C -0.1492(2) -0.30841(16) -0.09595(15)
H22 H -0.2153 -0.3420 -0.0629
C21 C -0.5949(2) 0.06386(16) -0.10460(15)
C22 C -0.2897(2) -0.07256(15) -0.15378(14)
H23 H -0.2704 -0.0534 -0.2158
C23 C -0.0552(2) -0.08609(16) 0.07402(15)
C24 C 0.0515(2) -0.07067(18) 0.13685(15)
H24 H 0.0233 -0.0394 0.1912
H25 H 0.1114 -0.0284 0.1085
H26 H 0.0879 -0.1345 0.1509
O9 O 0.12794(15) -0.19565(13) -0.20131(11)
H27 H 0.1777 -0.2418 -0.1966
C25 C 0.1242(3) -0.1632(2) -0.28955(17)
H28 H 0.0563 -0.1182 -0.2974
H29 H 0.1146 -0.2200 -0.3287
H30 H 0.1992 -0.1289 -0.3038
loop_
_geom_bond_atom_site_label_1
_geom_bond_atom_site_label_2
_geom_bond_site_symmetry_1
_geom_bond_site_symmetry_2
O1 C6 1_555 1_555
O2 C4 1_555 1_555
O3 C15 1_555 1_555
O4 C13 1_555 1_555
O5 C12 1_555 1_555
O6 H1 1_555 1_555
O7 C4 1_555 1_555
O8 C13 1_555 1_555
C1 C6 1_555 1_555
C2 H2 1_555 1_555
H3 C2 1_555 1_555
H4 C2 1_555 1_555
C3 H5 1_555 1_555
H6 C3 1_555 1_555
C4 C23 1_555 1_555
C5 C7 1_555 1_555
C6 C20 1_555 1_555
C7 H7 1_555 1_555
C8 H8 1_555 1_555
H9 C8 1_555 1_555
H10 C8 1_555 1_555
C9 C5 1_555 1_555
C10 C3 1_555 1_555
H11 C10 1_555 1_555
C11 C9 1_555 1_555
H12 C11 1_555 1_555
C12 C5 1_555 1_555
C13 C7 1_555 1_555
C14 O6 1_555 1_555
C15 O2 1_555 1_555
H13 C15 1_555 1_555
C16 C1 1_555 1_555
C17 H14 1_555 1_555
H15 C17 1_555 1_555
H16 C17 1_555 1_555
C18 H17 1_555 1_555
H18 C18 1_555 1_555
H19 C18 1_555 1_555
C19 O5 1_555 1_555
H20 C19 1_555 1_555
H21 C19 1_555 1_555
C20 O3 1_555 1_555
H22 C20 1_555 1_555
C21 O4 1_555 1_555
C22 O1 1_555 1_555
H23 C22 1_555 1_555
C23 C3 1_555 1_555
C24 C23 1_555 1_555
H24 C24 1_555 1_555
H25 C24 1_555 1_555
H26 C24 1_555 1_555
O9 H27 1_555 1_555
C25 O9 1_555 1_555
H28 C25 1_555 1_555
H29 C25 1_555 1_555
H30 C25 1_555 1_555
C1 C14 1_555 1_555
C2 C21 1_555 1_555
C8 C16 1_555 1_555
C9 C21 1_555 1_555
C10 C12 1_555 1_555
C10 C16 1_555 1_555
C11 C22 1_555 1_555
C12 C19 1_555 1_555
C14 C15 1_555 1_555
C14 C23 1_555 1_555
C16 C22 1_555 1_555
C17 C21 1_555 1_555
C18 C20 1_555 1_555

#END
