
#######################################################################
#
#                 Cambridge Crystallographic Data Centre
#                                CCDC 
#
#######################################################################
#
# If this CIF has been generated from an entry in the Cambridge 
# Structural Database, then it will include bibliographic, chemical, 
# crystal, experimental, refinement or atomic coordinate data resulting 
# from the CCDC's data processing and validation procedures.
#
#######################################################################

data_PEMTIN
_chemical_compound_source        'Penicillium chrysogenum MT-12'
_chemical_name_common            'Chrysogenolide E'
_chemical_formula_moiety         'C26 H32 O9'
_chemical_name_systematic        
"methyl 7-hydroxy-2,5a,7,11,11,13a-hexamethyl-1,5,9-trioxo-1,2,3a,5a,6,6a,7,9,11,13,13a,13c-dodecahydrofuro[4,3,2-ij]pyrano[4',3':4,5]cyclohepta[1,2-f][2]benzopyran-13b(5H)-carboxylate"
_symmetry_cell_setting           orthorhombic
_symmetry_space_group_name_H-M   'P 21 21 21'
_symmetry_Int_Tables_number      19
_space_group_name_Hall           'P 2ac 2ab'
loop_
_symmetry_equiv_pos_site_id
_symmetry_equiv_pos_as_xyz
1 x,y,z
2 1/2-x,-y,1/2+z
3 1/2+x,1/2-y,-z
4 -x,1/2+y,1/2-z
_cell_length_a                   8.0067(6)
_cell_length_b                   13.4932(13)
_cell_length_c                   21.8279(14)
_cell_angle_alpha                90
_cell_angle_beta                 90
_cell_angle_gamma                90
_cell_volume                     2358.2
_exptl_crystal_colour            colorless
_exptl_crystal_description       plate
_chemical_melting_point          '500-502 K'
_cell_formula_units_Z            4
_chemical_properties_physical    ', Heat-sensitive,Oxygen-sensitive'
loop_
_atom_site_label
_atom_site_type_symbol
_atom_site_fract_x
_atom_site_fract_y
_atom_site_fract_z
O1 O 0.3974(2) 0.37460(14) 0.17173(9)
O2 O 0.9923(2) 0.43696(14) 0.19404(9)
H1 H 1.0929 0.4297 0.1888
O3 O 1.2860(2) 0.28539(15) 0.44130(10)
O4 O 1.1840(2) 0.52472(14) 0.33797(8)
O5 O 0.3930(3) 0.21428(16) 0.15241(10)
O6 O 1.1927(2) 0.42803(15) 0.48949(8)
O7 O 0.7621(3) 0.46550(15) 0.47253(9)
O8 O 1.3373(3) 0.22098(15) 0.34847(10)
O9 O 0.9174(3) 0.59035(15) 0.43511(9)
C1 C 1.0006(3) 0.2602(2) 0.18807(12)
H2 H 0.9827 0.2670 0.1448
H3 H 0.9493 0.2001 0.2022
H4 H 1.1183 0.2580 0.1963
C2 C 0.6487(3) 0.45154(19) 0.21555(11)
C3 C 0.5026(3) 0.46635(19) 0.17218(12)
C4 C 0.7362(3) 0.3564(2) 0.20735(11)
C5 C 0.8648(3) 0.41563(19) 0.33339(12)
C6 C 0.6963(3) 0.3669(2) 0.35133(12)
H5 H 0.6245 0.4158 0.3694
H6 H 0.7161 0.3147 0.3803
H7 H 0.6439 0.3402 0.3154
C7 C 1.2604(3) 0.4839(2) 0.43925(12)
H8 H 1.3640 0.4516 0.4261
C8 C 1.0030(4) 0.1417(2) 0.41467(13)
H9 H 0.8845 0.1379 0.4208
H10 H 1.0589 0.1368 0.4535
H11 H 1.0382 0.0883 0.3886
C9 C 0.3805(3) 0.5466(2) 0.19077(13)
H12 H 0.2867 0.5461 0.1634
H13 H 0.4348 0.6099 0.1889
H14 H 0.3426 0.5345 0.2318
C10 C 0.4732(3) 0.2858(2) 0.16814(12)
C11 C 1.1467(3) 0.3320(2) 0.47198(12)
H15 H 1.1179 0.2936 0.5086
C12 C 1.0472(3) 0.2419(2) 0.38416(12)
C13 C 1.1406(3) 0.48506(19) 0.38469(12)
C14 C 0.8705(3) 0.4957(2) 0.43965(12)
C15 C 0.9791(3) 0.2426(2) 0.31856(12)
H16 H 1.0497 0.2013 0.2930
H17 H 0.8679 0.2140 0.3185
C16 C 0.9994(3) 0.32855(19) 0.42651(11)
H18 H 0.8977 0.3108 0.4490
C17 C 0.8288(3) 0.51732(18) 0.30305(12)
H19 H 0.8028 0.5646 0.3352
H20 H 0.9302 0.5398 0.2831
C18 C 1.3046(4) 0.5865(2) 0.46308(14)
H21 H 1.2052 0.6190 0.4773
H22 H 1.3538 0.6248 0.4307
H23 H 1.3826 0.5806 0.4963
C19 C 0.9710(3) 0.34676(18) 0.29101(11)
H24 H 1.0852 0.3726 0.2932
C20 C 0.9234(3) 0.34842(19) 0.22129(12)
C21 C 0.6517(3) 0.2796(2) 0.18357(12)
H25 H 0.7079 0.2203 0.1766
C22 C 0.6903(3) 0.51955(19) 0.25703(12)
H26 H 0.6243 0.5762 0.2575
C23 C 0.5632(4) 0.4825(2) 0.10659(12)
H27 H 0.6389 0.4304 0.0955
H28 H 0.6194 0.5452 0.1038
H29 H 0.4693 0.4821 0.0792
C24 C 0.9713(3) 0.43071(19) 0.39429(11)
C25 C 1.2375(4) 0.2475(2) 0.38578(13)
C26 C 0.8220(4) 0.6631(2) 0.46935(14)
H30 H 0.7757 0.7110 0.4416
H31 H 0.8938 0.6959 0.4981
H32 H 0.7332 0.6305 0.4910
loop_
_geom_bond_atom_site_label_1
_geom_bond_atom_site_label_2
_geom_bond_site_symmetry_1
_geom_bond_site_symmetry_2
O1 C3 1_555 1_555
O2 H1 1_555 1_555
O3 C11 1_555 1_555
O4 C13 1_555 1_555
O5 C10 1_555 1_555
O6 C7 1_555 1_555
O7 C14 1_555 1_555
O8 C25 1_555 1_555
O9 C14 1_555 1_555
C1 H2 1_555 1_555
H3 C1 1_555 1_555
H4 C1 1_555 1_555
C2 C3 1_555 1_555
C3 C9 1_555 1_555
C4 C2 1_555 1_555
C5 C6 1_555 1_555
C6 H5 1_555 1_555
H6 C6 1_555 1_555
H7 C6 1_555 1_555
C7 H8 1_555 1_555
C8 H9 1_555 1_555
H10 C8 1_555 1_555
H11 C8 1_555 1_555
C9 H12 1_555 1_555
H13 C9 1_555 1_555
H14 C9 1_555 1_555
C10 O1 1_555 1_555
C11 O6 1_555 1_555
H15 C11 1_555 1_555
C12 C8 1_555 1_555
C13 C7 1_555 1_555
C14 C24 1_555 1_555
C15 C12 1_555 1_555
H16 C15 1_555 1_555
H17 C15 1_555 1_555
C16 C11 1_555 1_555
H18 C16 1_555 1_555
C17 C5 1_555 1_555
H19 C17 1_555 1_555
H20 C17 1_555 1_555
C18 C7 1_555 1_555
H21 C18 1_555 1_555
H22 C18 1_555 1_555
H23 C18 1_555 1_555
C19 C5 1_555 1_555
H24 C19 1_555 1_555
C20 O2 1_555 1_555
C21 C4 1_555 1_555
H25 C21 1_555 1_555
C22 C2 1_555 1_555
H26 C22 1_555 1_555
C23 C3 1_555 1_555
H27 C23 1_555 1_555
H28 C23 1_555 1_555
H29 C23 1_555 1_555
C24 C5 1_555 1_555
C25 O3 1_555 1_555
C26 O9 1_555 1_555
H30 C26 1_555 1_555
H31 C26 1_555 1_555
H32 C26 1_555 1_555
C1 C20 1_555 1_555
C4 C20 1_555 1_555
C10 C21 1_555 1_555
C12 C16 1_555 1_555
C12 C25 1_555 1_555
C13 C24 1_555 1_555
C15 C19 1_555 1_555
C16 C24 1_555 1_555
C17 C22 1_555 1_555
C19 C20 1_555 1_555

#END
