
#######################################################################
#
#                 Cambridge Crystallographic Data Centre
#                                CCDC 
#
#######################################################################
#
# If this CIF has been generated from an entry in the Cambridge 
# Structural Database, then it will include bibliographic, chemical, 
# crystal, experimental, refinement or atomic coordinate data resulting 
# from the CCDC's data processing and validation procedures.
#
#######################################################################

data_PEMVOS
_chemical_formula_moiety         'C14 H24 N4 O2 S2'
_chemical_name_systematic        
19,20-Dithio-4,13-dioxa-1,7,10,16-tetra-azatricyclo-(14.2.1.1^7,10^)eicosane
_symmetry_cell_setting           triclinic
_symmetry_space_group_name_H-M   'P -1'
_symmetry_Int_Tables_number      2
_space_group_name_Hall           '-P 1'
loop_
_symmetry_equiv_pos_site_id
_symmetry_equiv_pos_as_xyz
1 x,y,z
2 -x,-y,-z
_cell_length_a                   6.9554(6)
_cell_length_b                   7.8297(11)
_cell_length_c                   8.1242(13)
_cell_angle_alpha                79.27(1)
_cell_angle_beta                 75.50(1)
_cell_angle_gamma                84.37(1)
_cell_volume                     420.234
_exptl_crystal_colour            colorless
_chemical_melting_point          '246-247 deg.C'
_cell_formula_units_Z            1
loop_
_atom_site_label
_atom_site_type_symbol
_atom_site_fract_x
_atom_site_fract_y
_atom_site_fract_z
S1 S 0.71812(8) 0.76954(7) 0.14466(7)
O1 O 0.15050(21) 0.77239(17) 0.57658(17)
N1 N 0.58907(23) 0.44309(20) 0.23198(21)
N2 N 0.35121(22) 0.64877(19) 0.26287(20)
C1 C 0.54914(26) 0.61674(24) 0.21495(22)
C2 C 0.40531(31) 0.35138(27) 0.27609(29)
C3 C 0.24876(29) 0.48868(27) 0.33491(28)
C4 C 0.25052(29) 0.81926(26) 0.27137(26)
C5 C 0.25069(29) 0.88765(24) 0.43126(27)
C6 C 0.16928(32) 0.80528(25) 0.73788(26)
C7 C 0.77816(30) 0.36171(25) 0.15443(25)
H1 H 0.3838 0.3129 0.1782
H2 H 0.4072 0.2547 0.3659
H3 H 0.2097 0.4738 0.4572
H4 H 0.1353 0.4865 0.2903
H5 H 0.3150 0.8986 0.1744
H6 H 0.1165 0.8119 0.2668
H7 H 0.1845 0.9998 0.4286
H8 H 0.3838 0.8953 0.4382
H9 H 0.0469 0.8548 0.7964
H10 H 0.2710 0.8842 0.7190
H11 H 0.7719 0.3381 0.0454
H12 H 0.8793 0.4404 0.1389
C7A C 0.22184(30) 0.63829(25) 0.84557(25)
C6A C 0.83072(32) 0.19472(25) 0.26212(26)
N1A N 0.41093(23) 0.55691(20) 0.76802(21)
H11A H 0.2281 0.6619 0.9546
H12A H 0.1207 0.5596 0.8611
O1A O 0.84950(21) 0.22761(17) 0.42342(17)
H9A H 0.9531 0.1452 0.2036
H10A H 0.7290 0.1158 0.2810
C1A C 0.45086(26) 0.38326(24) 0.78505(22)
C2A C 0.59469(31) 0.64862(27) 0.72391(29)
C5A C 0.74931(29) 0.11235(24) 0.56874(27)
S1A S 0.28188(8) 0.23046(7) 0.85534(7)
N2A N 0.64879(22) 0.35123(19) 0.73713(20)
C3A C 0.75124(29) 0.51132(27) 0.66509(28)
H1A H 0.6162 0.6871 0.8218
H2A H 0.5928 0.7453 0.6341
C4A C 0.74948(29) 0.18074(26) 0.72863(26)
H7A H 0.8155 0.0002 0.5714
H8A H 0.6162 0.1047 0.5618
H3A H 0.7903 0.5262 0.5428
H4A H 0.8647 0.5135 0.7097
H5A H 0.6850 0.1014 0.8256
H6A H 0.8835 0.1881 0.7332
loop_
_geom_bond_atom_site_label_1
_geom_bond_atom_site_label_2
_geom_bond_site_symmetry_1
_geom_bond_site_symmetry_2
S1 C1 1_555 1_555
O1 C5 1_555 1_555
N1 C1 1_555 1_555
N2 C1 1_555 1_555
C2 N1 1_555 1_555
C3 N2 1_555 1_555
C4 N2 1_555 1_555
C5 C4 1_555 1_555
C6 O1 1_555 1_555
C7 N1 1_555 1_555
H1 C2 1_555 1_555
H2 C2 1_555 1_555
H3 C3 1_555 1_555
H4 C3 1_555 1_555
H5 C4 1_555 1_555
H6 C4 1_555 1_555
H7 C5 1_555 1_555
H8 C5 1_555 1_555
H9 C6 1_555 1_555
H10 C6 1_555 1_555
H11 C7 1_555 1_555
H12 C7 1_555 1_555
C7A C6 1_555 1_555
C6A C7 1_555 1_555
N1A C7A 1_555 1_555
H11A C7A 1_555 1_555
H12A C7A 1_555 1_555
O1A C6A 1_555 1_555
H9A C6A 1_555 1_555
H10A C6A 1_555 1_555
C1A N1A 1_555 1_555
C2A N1A 1_555 1_555
C5A O1A 1_555 1_555
S1A C1A 1_555 1_555
N2A C1A 1_555 1_555
C3A C2A 1_555 1_555
H1A C2A 1_555 1_555
H2A C2A 1_555 1_555
C4A C5A 1_555 1_555
H7A C5A 1_555 1_555
H8A C5A 1_555 1_555
H3A C3A 1_555 1_555
H4A C3A 1_555 1_555
H5A C4A 1_555 1_555
H6A C4A 1_555 1_555
C2 C3 1_555 1_555
N2A C3A 1_555 1_555
N2A C4A 1_555 1_555

#END
