
#######################################################################
#
#                 Cambridge Crystallographic Data Centre
#                                CCDC 
#
#######################################################################
#
# If this CIF has been generated from an entry in the Cambridge 
# Structural Database, then it will include bibliographic, chemical, 
# crystal, experimental, refinement or atomic coordinate data resulting 
# from the CCDC's data processing and validation procedures.
#
#######################################################################

data_PEMZUE
_chemical_formula_moiety         'C41 H25 N1 O1'
_chemical_name_systematic        
1,2,5,6-Tetraphenylnaphtho[1,2,3-de]chromene-4-carbonitrile
_symmetry_cell_setting           triclinic
_symmetry_space_group_name_H-M   'P -1'
_symmetry_Int_Tables_number      2
_space_group_name_Hall           '-P 1'
loop_
_symmetry_equiv_pos_site_id
_symmetry_equiv_pos_as_xyz
1 x,y,z
2 -x,-y,-z
_cell_length_a                   10.942(2)
_cell_length_b                   11.548(2)
_cell_length_c                   12.952(4)
_cell_angle_alpha                113.694(13)
_cell_angle_beta                 95.72(3)
_cell_angle_gamma                104.366(19)
_cell_volume                     1414.63
_exptl_crystal_colour            colorless
_exptl_crystal_description       prism
_cell_formula_units_Z            2
loop_
_atom_site_label
_atom_site_type_symbol
_atom_site_fract_x
_atom_site_fract_y
_atom_site_fract_z
O1 O -0.03533(10) 0.76508(10) 0.12373(9)
N1 N 0.03450(14) 0.85836(15) 0.41081(12)
C1 C -0.08206(14) 0.67339(15) 0.00804(13)
C2 C -0.03976(14) 0.69998(15) -0.07700(13)
C3 C 0.05716(14) 0.82749(15) -0.04809(12)
C4 C 0.09544(14) 0.87744(15) -0.12937(12)
C5 C 0.02859(15) 0.82050(15) -0.24730(13)
H1 H -0.0485 0.7467 -0.2753
C6 C 0.07329(16) 0.87008(16) -0.32063(13)
H2 H 0.0276 0.8291 -0.3991
C7 C 0.18558(16) 0.98056(16) -0.28259(14)
H3 H 0.2165 1.0121 -0.3355
C8 C 0.24922(16) 1.04163(16) -0.17048(13)
H4 H 0.3235 1.1179 -0.1446
C9 C 0.20662(15) 0.99340(15) -0.08965(13)
C10 C 0.27502(15) 1.05863(15) 0.02552(13)
H5 H 0.3506 1.1330 0.0485
C11 C 0.23533(14) 1.01742(14) 0.10782(12)
C12 C 0.12190(14) 0.90487(14) 0.06968(12)
C13 C 0.07456(14) 0.86943(14) 0.15427(12)
C14 C 0.13600(14) 0.93966(14) 0.26986(12)
C15 C 0.08044(15) 0.89447(15) 0.34864(13)
C16 C 0.25397(15) 1.04651(14) 0.30702(12)
C17 C 0.31947(15) 1.11660(15) 0.43296(13)
C18 C 0.25409(17) 1.17829(15) 0.51405(13)
H6 H 0.1679 1.1743 0.4889
C19 C 0.31192(19) 1.24540(17) 0.63075(14)
H7 H 0.2664 1.2889 0.6848
C20 C 0.4349(2) 1.24912(17) 0.66838(16)
H8 H 0.4746 1.2944 0.7486
C21 C 0.50086(18) 1.18680(18) 0.58923(17)
H9 H 0.5860 1.1889 0.6154
C22 C 0.44373(16) 1.12049(17) 0.47081(15)
H10 H 0.4900 1.0784 0.4168
C23 C 0.30427(14) 1.08409(14) 0.22769(12)
C24 C 0.42778(14) 1.19445(14) 0.26235(12)
C25 C 0.43710(15) 1.32554(15) 0.33462(12)
H11 H 0.3648 1.3445 0.3644
C26 C 0.55040(15) 1.42797(15) 0.36321(13)
H12 H 0.5551 1.5172 0.4111
C27 C 0.65707(15) 1.40122(16) 0.32245(13)
H13 H 0.7351 1.4719 0.3424
C28 C 0.65007(16) 1.27144(17) 0.25265(14)
H14 H 0.7238 1.2526 0.2257
C29 C 0.53587(15) 1.16910(16) 0.22213(14)
H15 H 0.5312 1.0803 0.1730
C30 C -0.18125(15) 0.55376(15) -0.00063(13)
C31 C -0.18809(15) 0.42407(16) -0.07621(14)
H16 H -0.1284 0.4099 -0.1249
C32 C -0.28238(16) 0.31624(16) -0.07971(14)
H17 H -0.2874 0.2283 -0.1316
C33 C -0.36898(16) 0.33495(17) -0.00889(14)
H18 H -0.4329 0.2605 -0.0116
C34 C -0.36186(17) 0.46369(18) 0.06638(15)
H19 H -0.4209 0.4774 0.1157
C35 C -0.26955(16) 0.57143(17) 0.06982(13)
H20 H -0.2661 0.6591 0.1210
C36 C -0.08365(15) 0.59177(15) -0.19849(13)
C37 C 0.00633(15) 0.53603(15) -0.25149(14)
H21 H 0.0930 0.5643 -0.2095
C38 C -0.03079(17) 0.43957(16) -0.36532(14)
H22 H 0.0306 0.4016 -0.4011
C39 C -0.15654(17) 0.39803(16) -0.42735(14)
H23 H -0.1811 0.3332 -0.5060
C40 C -0.24582(16) 0.45101(16) -0.37467(14)
H24 H -0.3326 0.4215 -0.4169
C41 C -0.21031(15) 0.54744(16) -0.26011(13)
H25 H -0.2729 0.5829 -0.2241
loop_
_geom_bond_atom_site_label_1
_geom_bond_atom_site_label_2
_geom_bond_site_symmetry_1
_geom_bond_site_symmetry_2
O1 C1 1_555 1_555
N1 C15 1_555 1_555
C1 C2 1_555 1_555
C2 C3 1_555 1_555
C3 C4 1_555 1_555
C4 C5 1_555 1_555
C5 H1 1_555 1_555
C6 C5 1_555 1_555
H2 C6 1_555 1_555
C7 C6 1_555 1_555
H3 C7 1_555 1_555
C8 C7 1_555 1_555
H4 C8 1_555 1_555
C9 C4 1_555 1_555
C10 C9 1_555 1_555
H5 C10 1_555 1_555
C11 C10 1_555 1_555
C12 C3 1_555 1_555
C13 O1 1_555 1_555
C14 C13 1_555 1_555
C15 C14 1_555 1_555
C16 C14 1_555 1_555
C17 C16 1_555 1_555
C18 C17 1_555 1_555
H6 C18 1_555 1_555
C19 C18 1_555 1_555
H7 C19 1_555 1_555
C20 C19 1_555 1_555
H8 C20 1_555 1_555
C21 C20 1_555 1_555
H9 C21 1_555 1_555
C22 C17 1_555 1_555
H10 C22 1_555 1_555
C23 C11 1_555 1_555
C24 C23 1_555 1_555
C25 C24 1_555 1_555
H11 C25 1_555 1_555
C26 C25 1_555 1_555
H12 C26 1_555 1_555
C27 C26 1_555 1_555
H13 C27 1_555 1_555
C28 C27 1_555 1_555
H14 C28 1_555 1_555
C29 C24 1_555 1_555
H15 C29 1_555 1_555
C30 C1 1_555 1_555
C31 C30 1_555 1_555
H16 C31 1_555 1_555
C32 C31 1_555 1_555
H17 C32 1_555 1_555
C33 C32 1_555 1_555
H18 C33 1_555 1_555
C34 C33 1_555 1_555
H19 C34 1_555 1_555
C35 C30 1_555 1_555
H20 C35 1_555 1_555
C36 C2 1_555 1_555
C37 C36 1_555 1_555
H21 C37 1_555 1_555
C38 C37 1_555 1_555
H22 C38 1_555 1_555
C39 C38 1_555 1_555
H23 C39 1_555 1_555
C40 C39 1_555 1_555
H24 C40 1_555 1_555
C41 C36 1_555 1_555
H25 C41 1_555 1_555
C8 C9 1_555 1_555
C11 C12 1_555 1_555
C12 C13 1_555 1_555
C16 C23 1_555 1_555
C21 C22 1_555 1_555
C28 C29 1_555 1_555
C34 C35 1_555 1_555
C40 C41 1_555 1_555

#END
