
#######################################################################
#
#                 Cambridge Crystallographic Data Centre
#                                CCDC 
#
#######################################################################
#
# If this CIF has been generated from an entry in the Cambridge 
# Structural Database, then it will include bibliographic, chemical, 
# crystal, experimental, refinement or atomic coordinate data resulting 
# from the CCDC's data processing and validation procedures.
#
#######################################################################

data_PENBAN
_chemical_formula_moiety         'C27 H19 N1 O1'
_chemical_name_systematic        
3,7-Dimethyl-2,8-diphenylbenzo[de]chromene-9-carbonitrile
_symmetry_cell_setting           monoclinic
_symmetry_space_group_name_H-M   'C 2'
_symmetry_Int_Tables_number      5
_space_group_name_Hall           'C 2y'
loop_
_symmetry_equiv_pos_site_id
_symmetry_equiv_pos_as_xyz
1 x,y,z
2 -x,y,-z
3 1/2+x,1/2+y,z
4 1/2-x,1/2+y,-z
_cell_length_a                   19.948(19)
_cell_length_b                   5.519(5)
_cell_length_c                   20.221(19)
_cell_angle_alpha                90
_cell_angle_beta                 118.718(7)
_cell_angle_gamma                90
_cell_volume                     1952.36
_exptl_crystal_colour            colorless
_exptl_crystal_description       prism
_cell_formula_units_Z            4
loop_
_atom_site_label
_atom_site_type_symbol
_atom_site_fract_x
_atom_site_fract_y
_atom_site_fract_z
O1 O 0.27972(6) 0.7551(2) 0.18300(6)
N1 N 0.46402(8) 0.7771(3) 0.22115(8)
C1 C 0.43109(9) 0.6764(4) 0.24653(9)
C2 C 0.38713(9) 0.5489(3) 0.27481(9)
C3 C 0.42168(9) 0.3762(3) 0.33468(9)
C4 C 0.37572(9) 0.2357(3) 0.35381(9)
C5 C 0.29445(9) 0.2730(3) 0.31630(9)
C6 C 0.24395(9) 0.1396(4) 0.33302(9)
H1 H 0.2637 0.0161 0.3703
C7 C 0.16680(9) 0.1853(4) 0.29629(9)
H2 H 0.1341 0.0914 0.3082
C8 C 0.13533(9) 0.3670(3) 0.24174(9)
H3 H 0.0818 0.3956 0.2173
C9 C 0.18145(9) 0.5052(3) 0.22297(9)
C10 C 0.26155(9) 0.4562(3) 0.26022(9)
C11 C 0.30913(9) 0.5891(3) 0.23982(9)
C12 C 0.20132(9) 0.8075(3) 0.14689(9)
C13 C 0.15328(9) 0.6968(4) 0.16645(9)
C14 C 0.06990(9) 0.7696(4) 0.13393(10)
H4 H 0.0612 0.9234 0.1068
H5 H 0.0574 0.7886 0.1749
H6 H 0.0373 0.6438 0.0991
C15 C 0.18580(9) 0.9931(3) 0.08839(9)
C16 C 0.11818(9) 0.9862(3) 0.01917(9)
H7 H 0.0823 0.8596 0.0091
C17 C 0.10353(10) 1.1640(4) -0.03467(10)
H8 H 0.0571 1.1595 -0.0810
C18 C 0.15533(10) 1.3467(4) -0.02190(10)
H9 H 0.1445 1.4686 -0.0589
C19 C 0.22362(10) 1.3512(4) 0.04558(10)
H10 H 0.2600 1.4753 0.0546
C20 C 0.23866(9) 1.1745(4) 0.09987(9)
H11 H 0.2858 1.1776 0.1455
C21 C 0.50795(9) 0.3626(3) 0.37706(9)
C22 C 0.54758(10) 0.5258(4) 0.43503(11)
H12 H 0.5204 0.6442 0.4468
C23 C 0.62714(10) 0.5173(4) 0.47625(11)
H13 H 0.6537 0.6299 0.5160
C24 C 0.66750(9) 0.3474(4) 0.45992(10)
H14 H 0.7217 0.3412 0.4885
C25 C 0.62905(10) 0.1873(4) 0.40214(10)
H15 H 0.6566 0.0706 0.3902
C26 C 0.54913(10) 0.1957(4) 0.36065(10)
H16 H 0.5229 0.0842 0.3205
C27 C 0.40875(10) 0.0420(4) 0.41387(10)
H17 H 0.4643 0.0352 0.4342
H18 H 0.3863 -0.1152 0.3918
H19 H 0.3970 0.0806 0.4545
loop_
_geom_bond_atom_site_label_1
_geom_bond_atom_site_label_2
_geom_bond_site_symmetry_1
_geom_bond_site_symmetry_2
O1 C11 1_555 1_555
N1 C1 1_555 1_555
C1 C2 1_555 1_555
C2 C3 1_555 1_555
C3 C4 1_555 1_555
C4 C5 1_555 1_555
C5 C6 1_555 1_555
C6 H1 1_555 1_555
C7 C6 1_555 1_555
H2 C7 1_555 1_555
C8 C7 1_555 1_555
H3 C8 1_555 1_555
C9 C8 1_555 1_555
C10 C5 1_555 1_555
C11 C2 1_555 1_555
C12 O1 1_555 1_555
C13 C9 1_555 1_555
C14 C13 1_555 1_555
H4 C14 1_555 1_555
H5 C14 1_555 1_555
H6 C14 1_555 1_555
C15 C12 1_555 1_555
C16 C15 1_555 1_555
H7 C16 1_555 1_555
C17 C16 1_555 1_555
H8 C17 1_555 1_555
C18 C17 1_555 1_555
H9 C18 1_555 1_555
C19 C18 1_555 1_555
H10 C19 1_555 1_555
C20 C15 1_555 1_555
H11 C20 1_555 1_555
C21 C3 1_555 1_555
C22 C21 1_555 1_555
H12 C22 1_555 1_555
C23 C22 1_555 1_555
H13 C23 1_555 1_555
C24 C23 1_555 1_555
H14 C24 1_555 1_555
C25 C24 1_555 1_555
H15 C25 1_555 1_555
C26 C21 1_555 1_555
H16 C26 1_555 1_555
C27 C4 1_555 1_555
H17 C27 1_555 1_555
H18 C27 1_555 1_555
H19 C27 1_555 1_555
C9 C10 1_555 1_555
C10 C11 1_555 1_555
C12 C13 1_555 1_555
C19 C20 1_555 1_555
C25 C26 1_555 1_555

#END
