
#######################################################################
#
#                 Cambridge Crystallographic Data Centre
#                                CCDC 
#
#######################################################################
#
# If this CIF has been generated from an entry in the Cambridge 
# Structural Database, then it will include bibliographic, chemical, 
# crystal, experimental, refinement or atomic coordinate data resulting 
# from the CCDC's data processing and validation procedures.
#
#######################################################################

data_PENCES
_chemical_formula_moiety         'C40 H68 B2 O6 Si2'
_chemical_name_systematic        
(4,8-bis(4,4,5,5-tetramethyl-1,3,2-dioxaborolan-2-yl)furo[2,3-f][1]benzofuran-2,6-diyl)bis(triisopropylsilane)
_symmetry_cell_setting           triclinic
_symmetry_space_group_name_H-M   'P -1'
_symmetry_Int_Tables_number      2
_space_group_name_Hall           '-P 1'
loop_
_symmetry_equiv_pos_site_id
_symmetry_equiv_pos_as_xyz
1 x,y,z
2 -x,-y,-z
_cell_length_a                   7.7423(18)
_cell_length_b                   11.828(3)
_cell_length_c                   12.677(3)
_cell_angle_alpha                73.699(7)
_cell_angle_beta                 86.956(7)
_cell_angle_gamma                83.755(7)
_cell_volume                     1107.32
_exptl_crystal_colour            colorless
_exptl_crystal_description       block
_cell_formula_units_Z            1
loop_
_atom_site_label
_atom_site_type_symbol
_atom_site_fract_x
_atom_site_fract_y
_atom_site_fract_z
C1 C 0.5370(3) 0.40718(17) -0.05778(15)
C2 C 0.6178(3) 0.51037(17) -0.08148(15)
C3 C 0.5875(3) 0.60130(17) -0.02873(15)
C4 C 0.7064(3) 0.68675(18) -0.08099(17)
H1 H 0.7178 0.7572 -0.0643
C5 C 0.7989(3) 0.64610(18) -0.15902(17)
C6 C 1.1669(3) 0.5791(2) -0.2375(2)
H2 H 1.2214 0.5837 -0.1710
C7 C 1.1235(4) 0.4533(3) -0.2134(4)
H3 H 1.0663 0.4435 -0.2752
H4 H 1.0479 0.4354 -0.1496
H5 H 1.2284 0.4007 -0.2000
C8 C 1.3057(5) 0.6036(4) -0.3270(4)
H6 H 1.4000 0.5421 -0.3099
H7 H 1.3476 0.6785 -0.3322
H8 H 1.2576 0.6058 -0.3959
C9 C 0.8807(4) 0.7352(3) -0.4023(2)
H9 H 0.9701 0.7703 -0.4554
C10 C 0.8333(6) 0.6263(4) -0.4344(3)
H10 H 0.7536 0.5849 -0.3804
H11 H 0.9367 0.5746 -0.4379
H12 H 0.7800 0.6515 -0.5050
C11 C 0.7248(5) 0.8298(4) -0.4136(3)
H13 H 0.6880 0.8549 -0.4884
H14 H 0.7582 0.8964 -0.3931
H15 H 0.6309 0.7971 -0.3663
C12 C 1.0416(3) 0.8375(2) -0.2373(2)
H16 H 0.9326 0.8853 -0.2295
C13 C 1.1354(5) 0.8154(3) -0.1301(3)
H17 H 1.2462 0.7716 -0.1344
H18 H 1.0670 0.7708 -0.0706
H19 H 1.1521 0.8897 -0.1176
C14 C 1.1423(5) 0.9144(3) -0.3328(3)
H20 H 1.1662 0.9847 -0.3150
H21 H 1.0742 0.9357 -0.3979
H22 H 1.2498 0.8709 -0.3456
C15 C 0.5678(16) 0.1556(9) -0.1785(11)
C16 C 0.6131(14) 0.0196(6) -0.1345(7)
H23 H 0.6981 0.0032 -0.0783
H24 H 0.6591 -0.0114 -0.1936
H25 H 0.5100 -0.0171 -0.1042
C17 C 0.4007(10) 0.1696(9) -0.2468(8)
H26 H 0.3087 0.1342 -0.1995
H27 H 0.4246 0.1310 -0.3041
H28 H 0.3663 0.2521 -0.2789
C18 C 0.718(2) 0.2246(18) -0.2399(13)
C19 C 0.8917(8) 0.1677(8) -0.1957(10)
H29 H 0.8870 0.1480 -0.1169
H30 H 0.9781 0.2218 -0.2236
H31 H 0.9214 0.0971 -0.2185
C20 C 0.718(2) 0.2429(8) -0.3633(7)
H32 H 0.8006 0.2975 -0.3982
H33 H 0.6043 0.2741 -0.3906
H34 H 0.7495 0.1685 -0.3792
O1 O 0.74452(19) 0.53816(12) -0.16125(11)
O2 O 0.507(2) 0.2136(12) -0.0969(15)
O3 O 0.670(2) 0.3379(14) -0.2177(12)
B1 B 0.5800(3) 0.3121(2) -0.12135(19)
Si1 Si 0.97677(7) 0.69831(5) -0.26202(5)
C1A C 0.4630(3) 0.59282(17) 0.05778(15)
C2A C 0.3822(3) 0.48963(17) 0.08148(15)
C3A C 0.4125(3) 0.39870(17) 0.02873(15)
C4A C 0.2936(3) 0.31325(18) 0.08099(17)
H1A H 0.2822 0.2428 0.0643
C5A C 0.2011(3) 0.35390(18) 0.15902(17)
C6A C -0.1669(3) 0.4209(2) 0.2375(2)
H2A H -0.2214 0.4163 0.1710
C7A C -0.1235(4) 0.5467(3) 0.2134(4)
H3A H -0.0663 0.5565 0.2752
H4A H -0.0479 0.5646 0.1496
H5A H -0.2284 0.5993 0.2000
C8A C -0.3057(5) 0.3964(4) 0.3270(4)
H6A H -0.4000 0.4579 0.3099
H7A H -0.3476 0.3215 0.3322
H8A H -0.2576 0.3942 0.3959
C9A C 0.1193(4) 0.2648(3) 0.4023(2)
H9A H 0.0299 0.2297 0.4554
C10A C 0.1667(6) 0.3737(4) 0.4344(3)
H10A H 0.2464 0.4151 0.3804
H11A H 0.0633 0.4254 0.4379
H12A H 0.2200 0.3485 0.5050
C11A C 0.2752(5) 0.1702(4) 0.4136(3)
H13A H 0.3120 0.1451 0.4884
H14A H 0.2418 0.1036 0.3931
H15A H 0.3691 0.2029 0.3663
C12A C -0.0416(3) 0.1625(2) 0.2373(2)
H16A H 0.0674 0.1147 0.2295
C13A C -0.1354(5) 0.1846(3) 0.1301(3)
H17A H -0.2462 0.2284 0.1344
H18A H -0.0670 0.2292 0.0706
H19A H -0.1521 0.1103 0.1176
C14A C -0.1423(5) 0.0856(3) 0.3328(3)
H20A H -0.1662 0.0153 0.3150
H21A H -0.0742 0.0643 0.3979
H22A H -0.2498 0.1291 0.3456
C15A C 0.4322(16) 0.8444(9) 0.1785(11)
C16A C 0.3869(14) 0.9804(6) 0.1345(7)
H23A H 0.3019 0.9968 0.0783
H24A H 0.3409 1.0114 0.1936
H25A H 0.4900 1.0171 0.1042
C17A C 0.5993(10) 0.8304(9) 0.2468(8)
H26A H 0.6913 0.8658 0.1995
H27A H 0.5754 0.8690 0.3041
H28A H 0.6337 0.7479 0.2789
C18A C 0.282(2) 0.7754(18) 0.2399(13)
C19A C 0.1083(8) 0.8323(8) 0.1957(10)
H29A H 0.1130 0.8520 0.1169
H30A H 0.0219 0.7782 0.2236
H31A H 0.0786 0.9029 0.2185
C20A C 0.282(2) 0.7571(8) 0.3633(7)
H32A H 0.1994 0.7025 0.3982
H33A H 0.3957 0.7259 0.3906
H34A H 0.2505 0.8315 0.3792
O1A O 0.25548(19) 0.46184(12) 0.16125(11)
O2A O 0.493(2) 0.7864(12) 0.0969(15)
O3A O 0.330(2) 0.6621(14) 0.2177(12)
B1A B 0.4200(3) 0.6879(2) 0.12135(19)
Si1A Si 0.02323(7) 0.30169(5) 0.26202(5)
C21? C 0.603(3) 0.1282(14) -0.1703(18)
C22? C 0.768(2) 0.0610(12) -0.0970(8)
C23? C 0.495(3) 0.0577(15) -0.1888(16)
C24? C 0.679(3) 0.223(3) -0.257(2)
C25? C 0.8543(16) 0.2106(12) -0.3120(11)
C26? C 0.539(2) 0.2792(13) -0.3510(10)
H35? H 0.7278 0.0116 -0.0283
H36? H 0.8359 0.1185 -0.0833
H37? H 0.8383 0.0130 -0.1358
H38? H 0.4559 0.0077 -0.1200
H39? H 0.5529 0.0096 -0.2321
H40? H 0.3965 0.1043 -0.2276
H41? H 0.8695 0.2810 -0.3704
H42? H 0.8621 0.1437 -0.3414
H43? H 0.9433 0.1990 -0.2590
H44? H 0.4268 0.2907 -0.3175
H45? H 0.5343 0.2265 -0.3960
H46? H 0.5722 0.3539 -0.3958
O4? O 0.538(3) 0.1933(18) -0.089(2)
O5? O 0.702(3) 0.320(2) -0.2046(19)
loop_
_geom_bond_atom_site_label_1
_geom_bond_atom_site_label_2
_geom_bond_site_symmetry_1
_geom_bond_site_symmetry_2
C1 C2 1_555 1_555
C2 C3 1_555 1_555
C3 C4 1_555 1_555
C4 H1 1_555 1_555
C5 C4 1_555 1_555
C6 H2 1_555 1_555
C7 C6 1_555 1_555
H3 C7 1_555 1_555
H4 C7 1_555 1_555
H5 C7 1_555 1_555
C8 C6 1_555 1_555
H6 C8 1_555 1_555
H7 C8 1_555 1_555
H8 C8 1_555 1_555
C9 H9 1_555 1_555
C10 C9 1_555 1_555
H10 C10 1_555 1_555
H11 C10 1_555 1_555
H12 C10 1_555 1_555
C11 C9 1_555 1_555
H13 C11 1_555 1_555
H14 C11 1_555 1_555
H15 C11 1_555 1_555
C12 H16 1_555 1_555
C13 C12 1_555 1_555
H17 C13 1_555 1_555
H18 C13 1_555 1_555
H19 C13 1_555 1_555
C14 C12 1_555 1_555
H20 C14 1_555 1_555
H21 C14 1_555 1_555
H22 C14 1_555 1_555
C15 C16 1_555 1_555
C16 H23 1_555 1_555
H24 C16 1_555 1_555
H25 C16 1_555 1_555
C17 C15 1_555 1_555
H26 C17 1_555 1_555
H27 C17 1_555 1_555
H28 C17 1_555 1_555
C18 C15 1_555 1_555
C19 C18 1_555 1_555
H29 C19 1_555 1_555
H30 C19 1_555 1_555
H31 C19 1_555 1_555
C20 C18 1_555 1_555
H32 C20 1_555 1_555
H33 C20 1_555 1_555
H34 C20 1_555 1_555
O1 C2 1_555 1_555
O2 C15 1_555 1_555
O3 C18 1_555 1_555
B1 C1 1_555 1_555
Si1 C5 1_555 1_555
C1A C3 1_555 1_555
C2A C1A 1_555 1_555
C3A C1 1_555 1_555
C4A C3A 1_555 1_555
H1A C4A 1_555 1_555
C5A C4A 1_555 1_555
C6A H2A 1_555 1_555
C7A C6A 1_555 1_555
H3A C7A 1_555 1_555
H4A C7A 1_555 1_555
H5A C7A 1_555 1_555
C8A C6A 1_555 1_555
H6A C8A 1_555 1_555
H7A C8A 1_555 1_555
H8A C8A 1_555 1_555
C9A H9A 1_555 1_555
C10A C9A 1_555 1_555
H10A C10A 1_555 1_555
H11A C10A 1_555 1_555
H12A C10A 1_555 1_555
C11A C9A 1_555 1_555
H13A C11A 1_555 1_555
H14A C11A 1_555 1_555
H15A C11A 1_555 1_555
C12A H16A 1_555 1_555
C13A C12A 1_555 1_555
H17A C13A 1_555 1_555
H18A C13A 1_555 1_555
H19A C13A 1_555 1_555
C14A C12A 1_555 1_555
H20A C14A 1_555 1_555
H21A C14A 1_555 1_555
H22A C14A 1_555 1_555
C15A C16A 1_555 1_555
C16A H23A 1_555 1_555
H24A C16A 1_555 1_555
H25A C16A 1_555 1_555
C17A C15A 1_555 1_555
H26A C17A 1_555 1_555
H27A C17A 1_555 1_555
H28A C17A 1_555 1_555
C18A C15A 1_555 1_555
C19A C18A 1_555 1_555
H29A C19A 1_555 1_555
H30A C19A 1_555 1_555
H31A C19A 1_555 1_555
C20A C18A 1_555 1_555
H32A C20A 1_555 1_555
H33A C20A 1_555 1_555
H34A C20A 1_555 1_555
O1A C2A 1_555 1_555
O2A C15A 1_555 1_555
O3A C18A 1_555 1_555
B1A C1A 1_555 1_555
Si1A C5A 1_555 1_555
C5 O1 1_555 1_555
C6 Si1 1_555 1_555
C9 Si1 1_555 1_555
C12 Si1 1_555 1_555
O2 B1 1_555 1_555
O3 B1 1_555 1_555
C2A C3A 1_555 1_555
C5A O1A 1_555 1_555
C6A Si1A 1_555 1_555
C9A Si1A 1_555 1_555
C12A Si1A 1_555 1_555
O2A B1A 1_555 1_555
O3A B1A 1_555 1_555

#END
