
#######################################################################
#
#                 Cambridge Crystallographic Data Centre
#                                CCDC 
#
#######################################################################
#
# If this CIF has been generated from an entry in the Cambridge 
# Structural Database, then it will include bibliographic, chemical, 
# crystal, experimental, refinement or atomic coordinate data resulting 
# from the CCDC's data processing and validation procedures.
#
#######################################################################

data_PENCAO
_chemical_compound_source        'cones of Pseudolarix amabilis'
_chemical_name_common            'Pseudolaridimer A'
_chemical_formula_moiety         'C51 H80 O5'
_chemical_name_systematic        
'Methyl 4-(2-(2-hydroxy-2,5,5,8a-tetramethyldecahydronaphthalen-1-yl)ethyl)-1-methyl-6-(3-(3a,6,6,12a-tetramethyl-7-oxotetradecahydro-1H-cyclopenta[a]cyclopropa[e]phenanthren-1-yl)butanoyl)cyclohex-3-ene-1-carboxylate'
_symmetry_cell_setting           monoclinic
_symmetry_space_group_name_H-M   'P 21'
_symmetry_Int_Tables_number      4
_space_group_name_Hall           'P 2yb'
loop_
_symmetry_equiv_pos_site_id
_symmetry_equiv_pos_as_xyz
1 x,y,z
2 -x,1/2+y,-z
_cell_length_a                   13.1680(2)
_cell_length_b                   7.53090(10)
_cell_length_c                   22.7458(4)
_cell_angle_alpha                90
_cell_angle_beta                 104.5700(10)
_cell_angle_gamma                90
_cell_volume                     2183.09
_exptl_crystal_colour            colorless
_exptl_crystal_description       block
_cell_formula_units_Z            2
loop_
_atom_site_label
_atom_site_type_symbol
_atom_site_fract_x
_atom_site_fract_y
_atom_site_fract_z
O1 O 1.47293(13) 0.9421(3) -0.16683(8)
O2 O 0.82941(11) 0.8063(3) 0.22279(7)
O3 O 0.94973(17) 0.5693(3) 0.43855(8)
O4 O 0.84935(14) 0.3346(3) 0.40448(7)
O5 O 0.53539(12) 1.2924(3) 0.28484(7)
H1 H 0.5226 1.3317 0.2492
C1 C 1.34506(19) 1.0582(3) -0.05101(10)
H2 H 1.4149 1.0653 -0.0219
H3 H 1.3013 1.1565 -0.0420
C2 C 1.3571(2) 1.0770(4) -0.11624(11)
H4 H 1.2868 1.0948 -0.1441
H5 H 1.3994 1.1843 -0.1185
C3 C 1.40817(17) 0.9198(4) -0.13765(9)
C4 C 1.37372(17) 0.7334(3) -0.12398(9)
C5 C 1.35980(16) 0.7283(3) -0.05752(9)
H6 H 1.4317 0.7480 -0.0307
C6 C 1.3256(2) 0.5479(3) -0.03894(11)
H7 H 1.3766 0.4557 -0.0436
H8 H 1.2561 0.5161 -0.0654
C7 C 1.3196(2) 0.5569(4) 0.02767(11)
H9 H 1.3094 0.4360 0.0423
H10 H 1.3864 0.6043 0.0531
C8 C 1.22904(17) 0.6759(3) 0.03390(10)
H11 H 1.1636 0.6178 0.0096
C9 C 1.23260(15) 0.8626(3) 0.00521(9)
C10 C 1.29400(16) 0.8813(3) -0.04378(9)
C11 C 1.23114(17) 1.0253(3) 0.04527(10)
H12 H 1.2045 1.1272 0.0183
H13 H 1.3045 1.0528 0.0670
C12 C 1.16554(16) 1.0134(3) 0.09322(9)
H14 H 1.2081 1.0602 0.1324
H15 H 1.1029 1.0901 0.0801
C13 C 1.12967(15) 0.8244(3) 0.10330(9)
C14 C 1.21714(17) 0.6877(3) 0.09949(10)
C15 C 1.1776(2) 0.5167(4) 0.12211(11)
H16 H 1.2366 0.4356 0.1396
H17 H 1.1274 0.4549 0.0886
C16 C 1.12258(19) 0.5780(4) 0.17160(11)
H18 H 1.0518 0.5245 0.1642
H19 H 1.1641 0.5411 0.2123
C17 C 1.11433(16) 0.7824(3) 0.16783(9)
H20 H 1.1770 0.8309 0.1980
C18 C 1.02694(17) 0.7875(4) 0.05472(10)
H21 H 0.9716 0.8663 0.0613
H22 H 1.0060 0.6636 0.0577
H23 H 1.0379 0.8090 0.0143
C19 C 1.17553(16) 0.8761(3) -0.06155(9)
H24 H 1.1413 0.7676 -0.0819
H25 H 1.1379 0.9881 -0.0757
C20 C 1.01680(17) 0.8555(4) 0.18521(10)
H26 H 0.9530 0.8049 0.1566
C21 C 1.0092(2) 1.0584(4) 0.18205(12)
H27 H 0.9492 1.0976 0.1970
H28 H 0.9996 1.0971 0.1399
H29 H 1.0738 1.1103 0.2073
C22 C 1.01710(16) 0.7975(4) 0.24993(10)
H30 H 1.0518 0.6802 0.2579
H31 H 1.0597 0.8832 0.2789
C23 C 0.90871(16) 0.7843(3) 0.26232(9)
C24 C 0.90691(15) 0.7376(3) 0.32731(9)
H32 H 0.9804 0.7460 0.3531
C25 C 0.86972(16) 0.5429(3) 0.33012(9)
C26 C 0.89354(16) 0.4882(3) 0.39724(10)
C27 C 0.93289(17) 0.4141(3) 0.30063(10)
H33 H 0.9116 0.2918 0.3062
H34 H 1.0079 0.4282 0.3198
H35 H 0.9194 0.4401 0.2571
C28 C 1.32355(17) 0.7348(4) 0.14399(9)
H36 H 1.3144 0.7434 0.1854
H37 H 1.3485 0.8488 0.1323
H38 H 1.3750 0.6419 0.1425
C29 C 1.4546(2) 0.5969(4) -0.13194(12)
H39 H 1.4671 0.6097 -0.1724
H40 H 1.4282 0.4772 -0.1276
H41 H 1.5203 0.6160 -0.1010
C30 C 1.26966(19) 0.6970(4) -0.17222(10)
H42 H 1.2821 0.7021 -0.2129
H43 H 1.2176 0.7869 -0.1688
H44 H 1.2434 0.5789 -0.1655
C31 C 0.8799(2) 0.2583(4) 0.46487(11)
H45 H 0.9535 0.2207 0.4737
H46 H 0.8355 0.1554 0.4670
H47 H 0.8715 0.3472 0.4947
C32 C 0.43754(17) 0.9487(4) 0.44244(10)
H48 H 0.4647 0.8330 0.4325
H49 H 0.4980 1.0194 0.4654
C33 C 0.36261(19) 0.9164(4) 0.48286(11)
H50 H 0.3059 0.8352 0.4619
H51 H 0.4012 0.8585 0.5210
C34 C 0.31478(19) 1.0892(4) 0.49777(10)
H52 H 0.3712 1.1640 0.5228
H53 H 0.2645 1.0620 0.5224
C35 C 0.25757(17) 1.1958(4) 0.44140(10)
C36 C 0.33545(16) 1.2202(3) 0.40029(9)
H54 H 0.3959 1.2865 0.4265
C37 C 0.29490(18) 1.3431(4) 0.34581(11)
H55 H 0.2399 1.2815 0.3148
H56 H 0.2634 1.4507 0.3590
C38 C 0.38518(18) 1.3963(4) 0.31849(11)
H57 H 0.4376 1.4642 0.3490
H58 H 0.3580 1.4750 0.2832
C39 C 0.43909(16) 1.2349(3) 0.29796(9)
C40 C 0.47499(16) 1.1042(3) 0.35147(9)
H59 H 0.5263 1.1726 0.3833
C41 C 0.38577(15) 1.0470(3) 0.38263(9)
C42 C 0.53886(16) 0.9457(3) 0.33526(10)
H60 H 0.5199 0.8363 0.3542
H61 H 0.5189 0.9283 0.2907
C43 C 0.65724(17) 0.9724(4) 0.35621(10)
H62 H 0.6750 1.0851 0.3387
H63 H 0.6766 0.9860 0.4009
C44 C 0.72391(16) 0.8260(3) 0.33971(9)
C45 C 0.68661(15) 0.6700(3) 0.31671(9)
H64 H 0.6136 0.6485 0.3108
C46 C 0.75216(16) 0.5258(3) 0.29949(9)
H65 H 0.7422 0.5274 0.2549
H66 H 0.7270 0.4096 0.3105
C47 C 0.83938(16) 0.8702(3) 0.35246(10)
H67 H 0.8679 0.8785 0.3970
H68 H 0.8466 0.9888 0.3352
C48 C 0.36762(17) 1.1592(4) 0.23947(10)
H69 H 0.3648 1.2422 0.2059
H70 H 0.2968 1.1422 0.2450
H71 H 0.3955 1.0450 0.2301
C49 C 0.15347(17) 1.1047(4) 0.40993(11)
H72 H 0.1039 1.1162 0.4354
H73 H 0.1662 0.9787 0.4038
H74 H 0.1240 1.1613 0.3705
C50 C 0.2301(2) 1.3779(5) 0.46358(13)
H75 H 0.1988 1.3618 0.4980
H76 H 0.1800 1.4386 0.4305
H77 H 0.2940 1.4495 0.4764
C51 C 0.30673(17) 0.9213(4) 0.34077(10)
H78 H 0.3432 0.8505 0.3163
H79 H 0.2514 0.9915 0.3139
H80 H 0.2755 0.8421 0.3656
loop_
_geom_bond_atom_site_label_1
_geom_bond_atom_site_label_2
_geom_bond_site_symmetry_1
_geom_bond_site_symmetry_2
O1 C3 1_555 1_555
O2 C23 1_555 1_555
O3 C26 1_555 1_555
O4 C26 1_555 1_555
O5 H1 1_555 1_555
C1 H2 1_555 1_555
H3 C1 1_555 1_555
C2 C1 1_555 1_555
H4 C2 1_555 1_555
H5 C2 1_555 1_555
C3 C2 1_555 1_555
C4 C3 1_555 1_555
C5 C4 1_555 1_555
H6 C5 1_555 1_555
C6 C5 1_555 1_555
H7 C6 1_555 1_555
H8 C6 1_555 1_555
C7 C6 1_555 1_555
H9 C7 1_555 1_555
H10 C7 1_555 1_555
C8 C7 1_555 1_555
H11 C8 1_555 1_555
C9 C8 1_555 1_555
C10 C1 1_555 1_555
C11 C9 1_555 1_555
H12 C11 1_555 1_555
H13 C11 1_555 1_555
C12 C11 1_555 1_555
H14 C12 1_555 1_555
H15 C12 1_555 1_555
C13 C12 1_555 1_555
C14 C8 1_555 1_555
C15 C14 1_555 1_555
H16 C15 1_555 1_555
H17 C15 1_555 1_555
C16 C15 1_555 1_555
H18 C16 1_555 1_555
H19 C16 1_555 1_555
C17 C13 1_555 1_555
H20 C17 1_555 1_555
C18 C13 1_555 1_555
H21 C18 1_555 1_555
H22 C18 1_555 1_555
H23 C18 1_555 1_555
C19 C9 1_555 1_555
H24 C19 1_555 1_555
H25 C19 1_555 1_555
C20 C17 1_555 1_555
H26 C20 1_555 1_555
C21 C20 1_555 1_555
H27 C21 1_555 1_555
H28 C21 1_555 1_555
H29 C21 1_555 1_555
C22 C20 1_555 1_555
H30 C22 1_555 1_555
H31 C22 1_555 1_555
C23 C22 1_555 1_555
C24 C23 1_555 1_555
H32 C24 1_555 1_555
C25 C24 1_555 1_555
C26 C25 1_555 1_555
C27 C25 1_555 1_555
H33 C27 1_555 1_555
H34 C27 1_555 1_555
H35 C27 1_555 1_555
C28 C14 1_555 1_555
H36 C28 1_555 1_555
H37 C28 1_555 1_555
H38 C28 1_555 1_555
C29 C4 1_555 1_555
H39 C29 1_555 1_555
H40 C29 1_555 1_555
H41 C29 1_555 1_555
C30 C4 1_555 1_555
H42 C30 1_555 1_555
H43 C30 1_555 1_555
H44 C30 1_555 1_555
C31 O4 1_555 1_555
H45 C31 1_555 1_555
H46 C31 1_555 1_555
H47 C31 1_555 1_555
C32 H48 1_555 1_555
H49 C32 1_555 1_555
C33 C32 1_555 1_555
H50 C33 1_555 1_555
H51 C33 1_555 1_555
C34 C33 1_555 1_555
H52 C34 1_555 1_555
H53 C34 1_555 1_555
C35 C34 1_555 1_555
C36 C35 1_555 1_555
H54 C36 1_555 1_555
C37 C36 1_555 1_555
H55 C37 1_555 1_555
H56 C37 1_555 1_555
C38 C37 1_555 1_555
H57 C38 1_555 1_555
H58 C38 1_555 1_555
C39 O5 1_555 1_555
C40 C39 1_555 1_555
H59 C40 1_555 1_555
C41 C32 1_555 1_555
C42 C40 1_555 1_555
H60 C42 1_555 1_555
H61 C42 1_555 1_555
C43 C42 1_555 1_555
H62 C43 1_555 1_555
H63 C43 1_555 1_555
C44 C43 1_555 1_555
C45 C44 1_555 1_555
H64 C45 1_555 1_555
C46 C25 1_555 1_555
H65 C46 1_555 1_555
H66 C46 1_555 1_555
C47 C24 1_555 1_555
H67 C47 1_555 1_555
H68 C47 1_555 1_555
C48 C39 1_555 1_555
H69 C48 1_555 1_555
H70 C48 1_555 1_555
H71 C48 1_555 1_555
C49 C35 1_555 1_555
H72 C49 1_555 1_555
H73 C49 1_555 1_555
H74 C49 1_555 1_555
C50 C35 1_555 1_555
H75 C50 1_555 1_555
H76 C50 1_555 1_555
H77 C50 1_555 1_555
C51 C41 1_555 1_555
H78 C51 1_555 1_555
H79 C51 1_555 1_555
H80 C51 1_555 1_555
C5 C10 1_555 1_555
C9 C10 1_555 1_555
C10 C19 1_555 1_555
C13 C14 1_555 1_555
C16 C17 1_555 1_555
C36 C41 1_555 1_555
C38 C39 1_555 1_555
C40 C41 1_555 1_555
C44 C47 1_555 1_555
C45 C46 1_555 1_555

#END
