
#######################################################################
#
#                 Cambridge Crystallographic Data Centre
#                                CCDC 
#
#######################################################################
#
# If this CIF has been generated from an entry in the Cambridge 
# Structural Database, then it will include bibliographic, chemical, 
# crystal, experimental, refinement or atomic coordinate data resulting 
# from the CCDC's data processing and validation procedures.
#
#######################################################################

data_PENGUM
_chemical_formula_moiety         'C17 H28 N2 O6'
_chemical_name_systematic        
'Diethyl 8-(1,3-dioxolan-2-yl)-7,7-dimethyl-3,4-diazabicyclo[4.2.0]octane-3,4-dicarboxylate'
_symmetry_cell_setting           monoclinic
_symmetry_space_group_name_H-M   'P 21/n'
_symmetry_Int_Tables_number      14
_space_group_name_Hall           '-P 2yn'
loop_
_symmetry_equiv_pos_site_id
_symmetry_equiv_pos_as_xyz
1 x,y,z
2 1/2-x,1/2+y,1/2-z
3 -x,-y,-z
4 1/2+x,1/2-y,1/2+z
_cell_length_a                   8.0126(10)
_cell_length_b                   10.3020(13)
_cell_length_c                   21.980(3)
_cell_angle_alpha                90
_cell_angle_beta                 93.013(1)
_cell_angle_gamma                90
_cell_volume                     1811.85
_exptl_crystal_colour            colorless
_exptl_crystal_description       plate
_cell_formula_units_Z            4
loop_
_atom_site_label
_atom_site_type_symbol
_atom_site_fract_x
_atom_site_fract_y
_atom_site_fract_z
O1 O 0.28925(17) 0.29263(15) 0.36046(6)
O2 O 0.08599(16) 0.16868(15) 0.31398(6)
O3 O -0.14610(15) 0.29423(13) 0.14256(6)
O4 O 0.00142(15) 0.41781(12) 0.07901(6)
O5 O 0.40677(15) 0.22927(12) 0.00701(5)
O6 O 0.13975(14) 0.16075(13) 0.01145(5)
N1 N 0.11848(17) 0.24066(14) 0.12203(6)
N2 N 0.26073(16) 0.26852(14) 0.09061(6)
C1 C 0.5012(2) 0.24462(16) 0.24190(7)
C2 C 0.3128(2) 0.23231(16) 0.25539(7)
H1 H 0.2547 0.3151 0.2435
C3 C 0.2921(2) 0.13534(16) 0.20205(7)
H2 H 0.3207 0.0462 0.2173
C4 C 0.4506(2) 0.19770(16) 0.17575(7)
H3 H 0.5297 0.1326 0.1596
C5 C 0.5821(2) 0.37686(18) 0.25075(8)
H4 H 0.5986 0.3952 0.2944
H5 H 0.5096 0.4434 0.2315
H6 H 0.6905 0.3774 0.2320
C6 C 0.6110(2) 0.1437(2) 0.27496(9)
H7 H 0.6195 0.1636 0.3186
H8 H 0.7227 0.1451 0.2588
H9 H 0.5615 0.0574 0.2687
C7 C 0.2595(2) 0.19187(18) 0.31700(8)
H10 H 0.3207 0.1115 0.3306
C8 C 0.1427(3) 0.3105(2) 0.39241(10)
H11 H 0.0901 0.3952 0.3820
H12 H 0.1680 0.3070 0.4370
C9 C 0.0304(3) 0.2004(2) 0.37206(9)
H13 H 0.0432 0.1257 0.4003
H14 H -0.0882 0.2278 0.3694
C10 C 0.1320(2) 0.12893(17) 0.16252(7)
H15 H 0.1305 0.0482 0.1381
H16 H 0.0352 0.1271 0.1887
C11 C 0.4040(2) 0.30607(17) 0.13064(7)
H17 H 0.3766 0.3857 0.1532
H18 H 0.5006 0.3254 0.1058
C12 C -0.0201(2) 0.31679(17) 0.11638(8)
C13 C -0.1467(2) 0.49648(19) 0.06598(10)
H19 H -0.1126 0.5852 0.0546
H20 H -0.2112 0.5029 0.1031
C14 C -0.2551(2) 0.4395(2) 0.01535(9)
H21 H -0.3494 0.4978 0.0056
H22 H -0.2972 0.3550 0.0280
H23 H -0.1896 0.4285 -0.0207
C15 C 0.2797(2) 0.21813(16) 0.03395(7)
C16 C 0.1462(2) 0.1120(2) -0.05051(8)
H24 H 0.2076 0.1747 -0.0751
H25 H 0.0311 0.1046 -0.0688
C17 C 0.2301(2) -0.0176(2) -0.05250(9)
H26 H 0.2290 -0.0482 -0.0947
H27 H 0.1702 -0.0798 -0.0279
H28 H 0.3458 -0.0097 -0.0362
loop_
_geom_bond_atom_site_label_1
_geom_bond_atom_site_label_2
_geom_bond_site_symmetry_1
_geom_bond_site_symmetry_2
O1 C7 1_555 1_555
O2 C7 1_555 1_555
O3 C12 1_555 1_555
O4 C12 1_555 1_555
O5 C15 1_555 1_555
O6 C15 1_555 1_555
N1 N2 1_555 1_555
N2 C11 1_555 1_555
C1 C2 1_555 1_555
C2 H1 1_555 1_555
C3 C2 1_555 1_555
H2 C3 1_555 1_555
C4 C1 1_555 1_555
H3 C4 1_555 1_555
C5 C1 1_555 1_555
H4 C5 1_555 1_555
H5 C5 1_555 1_555
H6 C5 1_555 1_555
C6 C1 1_555 1_555
H7 C6 1_555 1_555
H8 C6 1_555 1_555
H9 C6 1_555 1_555
C7 C2 1_555 1_555
H10 C7 1_555 1_555
C8 O1 1_555 1_555
H11 C8 1_555 1_555
H12 C8 1_555 1_555
C9 O2 1_555 1_555
H13 C9 1_555 1_555
H14 C9 1_555 1_555
C10 N1 1_555 1_555
H15 C10 1_555 1_555
H16 C10 1_555 1_555
C11 C4 1_555 1_555
H17 C11 1_555 1_555
H18 C11 1_555 1_555
C12 N1 1_555 1_555
C13 O4 1_555 1_555
H19 C13 1_555 1_555
H20 C13 1_555 1_555
C14 C13 1_555 1_555
H21 C14 1_555 1_555
H22 C14 1_555 1_555
H23 C14 1_555 1_555
C15 N2 1_555 1_555
C16 O6 1_555 1_555
H24 C16 1_555 1_555
H25 C16 1_555 1_555
C17 C16 1_555 1_555
H26 C17 1_555 1_555
H27 C17 1_555 1_555
H28 C17 1_555 1_555
C3 C4 1_555 1_555
C3 C10 1_555 1_555
C8 C9 1_555 1_555

#END
