
#######################################################################
#
#                 Cambridge Crystallographic Data Centre
#                                CCDC 
#
#######################################################################
#
# If this CIF has been generated from an entry in the Cambridge 
# Structural Database, then it will include bibliographic, chemical, 
# crystal, experimental, refinement or atomic coordinate data resulting 
# from the CCDC's data processing and validation procedures.
#
#######################################################################

data_PENTAN10
_chemical_formula_moiety         'C5 H12'
_chemical_name_systematic        n-Pentane
_symmetry_cell_setting           orthorhombic
_symmetry_space_group_name_H-M   'P b c n'
_symmetry_Int_Tables_number      60
_space_group_name_Hall           '-P 2n 2ab'
loop_
_symmetry_equiv_pos_site_id
_symmetry_equiv_pos_as_xyz
1 x,y,z
2 1/2-x,1/2-y,1/2+z
3 1/2+x,1/2-y,-z
4 -x,y,1/2-z
5 -x,-y,-z
6 1/2+x,1/2+y,1/2-z
7 1/2-x,1/2+y,z
8 x,-y,1/2+z
_cell_length_a                   4.100(20)
_cell_length_b                   9.076(18)
_cell_length_c                   14.859(12)
_cell_angle_alpha                90
_cell_angle_beta                 90
_cell_angle_gamma                90
_cell_volume                     552.927
_chemical_melting_point          -131.5deg.C
_cell_formula_units_Z            4
loop_
_atom_site_label
_atom_site_type_symbol
_atom_site_fract_x
_atom_site_fract_y
_atom_site_fract_z
C1 C -0.19590 0.13250 0.08780
C2 C -0.09230 0.03740 0.16850
C3 C 0.00000 0.13130 0.25000
H1 H -0.25500 0.07390 0.03840
H2 H 0.01500 0.19860 0.06160
H3 H -0.44300 0.20290 0.10150
H4 H 0.09000 -0.02900 0.15210
H5 H -0.29700 -0.02940 0.18970
H6 H 0.22700 0.19830 0.22830
C2C C 0.09230 0.03740 0.33150
H6C H -0.22700 0.19830 0.27170
C1C C 0.19590 0.13250 0.41220
H4C H -0.09000 -0.02900 0.34790
H5C H 0.29700 -0.02940 0.31030
H1C H 0.25500 0.07390 0.46160
H2C H -0.01500 0.19860 0.43840
H3C H 0.44300 0.20290 0.39850
loop_
_geom_bond_atom_site_label_1
_geom_bond_atom_site_label_2
_geom_bond_site_symmetry_1
_geom_bond_site_symmetry_2
C1 C2 1_555 1_555
C2 C3 1_555 1_555
C3 H6 1_555 1_555
H1 C1 1_555 1_555
H2 C1 1_555 1_555
H3 C1 1_555 1_555
H4 C2 1_555 1_555
H5 C2 1_555 1_555
C2C C3 1_555 1_555
H6C C3 1_555 1_555
C1C C2C 1_555 1_555
H4C C2C 1_555 1_555
H5C C2C 1_555 1_555
H1C C1C 1_555 1_555
H2C C1C 1_555 1_555
H3C C1C 1_555 1_555

#END
