
#######################################################################
#
#                 Cambridge Crystallographic Data Centre
#                                CCDC 
#
#######################################################################
#
# If this CIF has been generated from an entry in the Cambridge 
# Structural Database, then it will include bibliographic, chemical, 
# crystal, experimental, refinement or atomic coordinate data resulting 
# from the CCDC's data processing and validation procedures.
#
#######################################################################

data_PENYEP
_chemical_formula_moiety         'C14 H10 Br1 N1 S1'
_chemical_name_systematic        2-[(4-bromophenyl)methyl]-1,3-benzothiazole
_symmetry_cell_setting           triclinic
_symmetry_space_group_name_H-M   'P -1'
_symmetry_Int_Tables_number      2
_space_group_name_Hall           '-P 1'
loop_
_symmetry_equiv_pos_site_id
_symmetry_equiv_pos_as_xyz
1 x,y,z
2 -x,-y,-z
_cell_length_a                   6.6340(3)
_cell_length_b                   9.3287(3)
_cell_length_c                   9.7895(2)
_cell_angle_alpha                82.039(2)
_cell_angle_beta                 85.191(3)
_cell_angle_gamma                89.175(3)
_cell_volume                     597.886
_exptl_crystal_colour            colorless
_exptl_crystal_description       block
_cell_formula_units_Z            2
loop_
_atom_site_label
_atom_site_type_symbol
_atom_site_fract_x
_atom_site_fract_y
_atom_site_fract_z
Br1 Br -0.15015(4) 0.69927(2) -0.08419(2)
S1 S 0.20436(9) 0.79456(6) 0.58897(5)
N1 N 0.5460(3) 0.7949(2) 0.43926(19)
C1 C 0.3725(3) 0.8593(2) 0.4470(2)
C2 C -0.1120(4) 0.8115(2) 0.1683(2)
H1 H -0.246862 0.784783 0.188854
C3 C 0.1936(4) 0.9140(2) 0.2328(2)
C4 C 0.5570(4) 0.6841(2) 0.5496(2)
C5 C 0.3844(4) 0.6670(2) 0.6432(2)
C6 C 0.3071(4) 0.9777(2) 0.3386(2)
H2 H 0.424955 1.029647 0.292548
H3 H 0.220457 1.045776 0.382374
C7 C -0.0097(4) 0.7883(2) 0.0433(2)
C8 C 0.3738(4) 0.5612(2) 0.7593(2)
H4 H 0.258647 0.550632 0.820871
C9 C 0.2921(4) 0.8887(2) 0.1073(2)
H5 H 0.427748 0.913415 0.087363
C10 C -0.0087(4) 0.8754(2) 0.2619(2)
H6 H -0.076051 0.892600 0.345321
C11 C 0.5408(4) 0.4724(3) 0.7794(3)
H7 H 0.538035 0.401312 0.856184
C12 C 0.7234(4) 0.5922(3) 0.5710(3)
H8 H 0.838091 0.601255 0.508943
C13 C 0.7136(4) 0.4874(3) 0.6865(3)
H9 H 0.823609 0.426183 0.702436
C14 C 0.1908(4) 0.8267(2) 0.0111(2)
H10 H 0.256899 0.811500 -0.073346
loop_
_geom_bond_atom_site_label_1
_geom_bond_atom_site_label_2
_geom_bond_site_symmetry_1
_geom_bond_site_symmetry_2
Br1 C7 1_555 1_555
S1 C1 1_555 1_555
N1 C1 1_555 1_555
C1 C6 1_555 1_555
C2 H1 1_555 1_555
C3 C6 1_555 1_555
C4 N1 1_555 1_555
C5 S1 1_555 1_555
C6 H2 1_555 1_555
H3 C6 1_555 1_555
C7 C2 1_555 1_555
C8 C5 1_555 1_555
H4 C8 1_555 1_555
C9 C3 1_555 1_555
H5 C9 1_555 1_555
C10 C2 1_555 1_555
H6 C10 1_555 1_555
C11 C8 1_555 1_555
H7 C11 1_555 1_555
C12 C4 1_555 1_555
H8 C12 1_555 1_555
C13 C11 1_555 1_555
H9 C13 1_555 1_555
C14 C7 1_555 1_555
H10 C14 1_555 1_555
C3 C10 1_555 1_555
C4 C5 1_555 1_555
C9 C14 1_555 1_555
C12 C13 1_555 1_555

#END
