
#######################################################################
#
#                 Cambridge Crystallographic Data Centre
#                                CCDC 
#
#######################################################################
#
# If this CIF has been generated from an entry in the Cambridge 
# Structural Database, then it will include bibliographic, chemical, 
# crystal, experimental, refinement or atomic coordinate data resulting 
# from the CCDC's data processing and validation procedures.
#
#######################################################################

data_PEPDOE
_chemical_compound_source        'fruiting bodies of Lactarius mitissimus'
_chemical_name_common            'Mitissimol A'
_chemical_formula_moiety         'C15 H22 O2'
_chemical_name_systematic        3E,6E,10E-humulatrien-1\a-ol-5-one
_symmetry_cell_setting           orthorhombic
_symmetry_space_group_name_H-M   'P 21 21 21'
_symmetry_Int_Tables_number      19
_space_group_name_Hall           'P 2ac 2ab'
loop_
_symmetry_equiv_pos_site_id
_symmetry_equiv_pos_as_xyz
1 x,y,z
2 1/2-x,-y,1/2+z
3 -x,1/2+y,1/2-z
4 1/2+x,1/2-y,-z
_cell_length_a                   9.1505
_cell_length_b                   9.5977
_cell_length_c                   16.152
_cell_angle_alpha                90
_cell_angle_beta                 90
_cell_angle_gamma                90
_cell_volume                     1418.53
_exptl_crystal_colour            colorless
_chemical_melting_point          '169-171 deg.C'
_cell_formula_units_Z            4
_exptl_crystal_recrystallization_method methanol
loop_
_atom_site_label
_atom_site_type_symbol
_atom_site_fract_x
_atom_site_fract_y
_atom_site_fract_z
O1 O -0.02454 0.7361 0.11537
H1 H -0.099 0.738 0.1436
O2 O 0.7283 0.7379 0.21721
C1 C 0.0974 0.7035 0.1666
H2 H 0.0814 0.6109 0.1905
C2 C 0.2341 0.6959 0.10904
C3 C 0.3641 0.6947 0.16619
H3 H 0.3531 0.6397 0.2132
C4 C 0.4913 0.7591 0.16045
H4 H 0.5142 0.8078 0.1124
C5 C 0.5978 0.7548 0.22932
C6 C 0.5393 0.7645 0.31376
C7 C 0.4268 0.8505 0.32658
H5 H 0.4008 0.9049 0.2813
C8 C 0.3376 0.8725 0.40117
H6 H 0.3707 0.9552 0.4301
H7 H 0.3477 0.7934 0.4382
C9 C 0.1773 0.8896 0.37578
H8 H 0.1161 0.8863 0.4248
H9 H 0.164 0.9799 0.3499
C10 C 0.1303 0.7771 0.3164
C11 C 0.1166 0.8043 0.23572
H10 H 0.1194 0.8978 0.2209
C12 C 0.229 0.5601 0.05881
H11 H 0.1409 0.5577 0.0266
H12 H 0.2307 0.4819 0.0959
H13 H 0.312 0.5559 0.0226
C13 C 0.2374 0.8203 0.05031
H14 H 0.3258 0.818 0.0183
H15 H 0.2339 0.9051 0.0818
H16 H 0.1547 0.8162 0.0139
C14 C 0.6151 0.6816 0.3795
H17 H 0.5902 0.7182 0.4329
H18 H 0.7189 0.6875 0.3716
H19 H 0.5849 0.586 0.376
C15 C 0.117 0.6336 0.35217
H20 H 0.0867 0.5699 0.3097
H21 H 0.046 0.6341 0.3959
H22 H 0.2099 0.6048 0.3738
loop_
_geom_bond_atom_site_label_1
_geom_bond_atom_site_label_2
_geom_bond_site_symmetry_1
_geom_bond_site_symmetry_2
O1 H1 1_555 1_555
O2 C5 1_555 1_555
C1 O1 1_555 1_555
H2 C1 1_555 1_555
C2 C1 1_555 1_555
C3 C2 1_555 1_555
H3 C3 1_555 1_555
C4 C3 1_555 1_555
H4 C4 1_555 1_555
C5 C4 1_555 1_555
C6 C5 1_555 1_555
C7 C6 1_555 1_555
H5 C7 1_555 1_555
C8 C7 1_555 1_555
H6 C8 1_555 1_555
H7 C8 1_555 1_555
C9 C8 1_555 1_555
H8 C9 1_555 1_555
H9 C9 1_555 1_555
C10 C9 1_555 1_555
C11 C1 1_555 1_555
H10 C11 1_555 1_555
C12 C2 1_555 1_555
H11 C12 1_555 1_555
H12 C12 1_555 1_555
H13 C12 1_555 1_555
C13 C2 1_555 1_555
H14 C13 1_555 1_555
H15 C13 1_555 1_555
H16 C13 1_555 1_555
C14 C6 1_555 1_555
H17 C14 1_555 1_555
H18 C14 1_555 1_555
H19 C14 1_555 1_555
C15 C10 1_555 1_555
H20 C15 1_555 1_555
H21 C15 1_555 1_555
H22 C15 1_555 1_555
C10 C11 1_555 1_555

#END
