
#######################################################################
#
#                 Cambridge Crystallographic Data Centre
#                                CCDC 
#
#######################################################################
#
# If this CIF has been generated from an entry in the Cambridge 
# Structural Database, then it will include bibliographic, chemical, 
# crystal, experimental, refinement or atomic coordinate data resulting 
# from the CCDC's data processing and validation procedures.
#
#######################################################################

data_PEPHAW
_chemical_formula_moiety         'C34 H40 N2 O5'
_chemical_name_systematic        
5,5-diethyl-1,3-bis(2-(3-methyl-3-phenylcyclobutyl)-2-oxoethyl)pyrimidine-2,4,6(1H,3H,5H)-trione
_symmetry_cell_setting           monoclinic
_symmetry_space_group_name_H-M   'C 2/c'
_symmetry_Int_Tables_number      15
_space_group_name_Hall           '-C 2yn'
loop_
_symmetry_equiv_pos_site_id
_symmetry_equiv_pos_as_xyz
1 x,y,z
2 -x,y,1/2-z
3 1/2+x,1/2+y,z
4 1/2-x,1/2+y,1/2-z
5 -x,-y,-z
6 x,-y,1/2+z
7 1/2-x,1/2-y,-z
8 1/2+x,1/2-y,1/2+z
_cell_length_a                   24.172(4)
_cell_length_b                   11.4711(18)
_cell_length_c                   11.4176(17)
_cell_angle_alpha                90
_cell_angle_beta                 101.788(5)
_cell_angle_gamma                90
_cell_volume                     3099.1
_exptl_crystal_colour            colorless
_exptl_crystal_description       prism
_cell_formula_units_Z            4
loop_
_atom_site_label
_atom_site_type_symbol
_atom_site_fract_x
_atom_site_fract_y
_atom_site_fract_z
C1 C 0.40104(6) 0.97015(16) 0.15308(15)
H1 H 0.4112 0.8949 0.1249
H2 H 0.3783 1.0110 0.0857
C2 C 0.5000 0.9739(2) 0.2500
C3 C 0.44779(7) 1.15660(15) 0.19986(15)
C4 C 0.5000 1.2274(2) 0.2500
C5 C 0.51291(9) 1.30465(18) 0.14752(17)
H3 H 0.4805 1.3541 0.1183
H4 H 0.5447 1.3549 0.1795
C6 C 0.52650(9) 1.2363(2) 0.04321(17)
H5 H 0.4949 1.1877 0.0094
H6 H 0.5592 1.1885 0.0708
H7 H 0.5340 1.2894 -0.0166
N1 N 0.45238(5) 1.03699(12) 0.19822(12)
O1 O 0.38255(6) 0.98547(14) 0.34903(11)
O2 O 0.40285(5) 1.20279(13) 0.16009(13)
O3 O 0.5000 0.86892(15) 0.2500
C7 C 0.15710(8) 1.08303(17) 0.12349(17)
H8 H 0.1742 1.0962 0.0588
C8 C 0.11352(9) 1.15525(19) 0.1408(2)
H9 H 0.1015 1.2159 0.0876
C9 C 0.08824(8) 1.13739(19) 0.2360(2)
H10 H 0.0588 1.1853 0.2475
C10 C 0.10650(8) 1.04912(19) 0.3140(2)
H11 H 0.0899 1.0376 0.3797
C11 C 0.14953(8) 0.97667(17) 0.29607(18)
H12 H 0.1612 0.9162 0.3497
C12 C 0.17559(6) 0.99181(13) 0.20051(14)
C13 C 0.22096(6) 0.90846(14) 0.18049(14)
C14 C 0.19388(8) 0.79619(17) 0.1232(2)
H13 H 0.2229 0.7434 0.1104
H14 H 0.1695 0.8141 0.0479
H15 H 0.1722 0.7605 0.1752
C15 C 0.26935(7) 0.88292(16) 0.28914(16)
H16 H 0.2745 0.9432 0.3500
H17 H 0.2671 0.8065 0.3242
C16 C 0.26623(7) 0.95560(17) 0.11435(15)
H18 H 0.2620 0.9275 0.0328
H19 H 0.2704 1.0397 0.1179
C17 C 0.31149(6) 0.88988(15) 0.20517(15)
H20 H 0.3181 0.8123 0.1748
C18 C 0.36642(6) 0.95183(15) 0.24798(15)
C1A C 0.59896(6) 0.97015(16) 0.34692(15)
H1A H 0.5888 0.8949 0.3751
H2A H 0.6217 1.0110 0.4143
C3A C 0.55221(7) 1.15660(15) 0.30014(15)
C5A C 0.48709(9) 1.30465(18) 0.35248(17)
H3A H 0.5195 1.3541 0.3817
H4A H 0.4553 1.3549 0.3205
C6A C 0.47350(9) 1.2363(2) 0.45679(17)
H5A H 0.5051 1.1877 0.4906
H6A H 0.4408 1.1885 0.4292
H7A H 0.4660 1.2894 0.5166
N1A N 0.54762(5) 1.03699(12) 0.30178(12)
O1A O 0.61745(6) 0.98547(14) 0.15097(11)
O2A O 0.59715(5) 1.20279(13) 0.33991(13)
C7A C 0.84290(8) 1.08303(17) 0.37651(17)
H8A H 0.8258 1.0962 0.4412
C8A C 0.88648(9) 1.15525(19) 0.3592(2)
H9A H 0.8985 1.2159 0.4124
C9A C 0.91176(8) 1.13739(19) 0.2640(2)
H10A H 0.9412 1.1853 0.2525
C10A C 0.89350(8) 1.04912(19) 0.1860(2)
H11A H 0.9101 1.0376 0.1203
C11A C 0.85047(8) 0.97667(17) 0.20393(18)
H12A H 0.8388 0.9162 0.1503
C12A C 0.82441(6) 0.99181(13) 0.29949(14)
C13A C 0.77904(6) 0.90846(14) 0.31951(14)
C14A C 0.80612(8) 0.79619(17) 0.3768(2)
H13A H 0.7771 0.7434 0.3896
H14A H 0.8305 0.8141 0.4521
H15A H 0.8278 0.7605 0.3248
C15A C 0.73065(7) 0.88292(16) 0.21086(16)
H16A H 0.7255 0.9432 0.1500
H17A H 0.7329 0.8065 0.1758
C16A C 0.73377(7) 0.95560(17) 0.38565(15)
H18A H 0.7380 0.9275 0.4672
H19A H 0.7296 1.0397 0.3821
C17A C 0.68851(6) 0.88988(15) 0.29483(15)
H20A H 0.6819 0.8123 0.3252
C18A C 0.63358(6) 0.95183(15) 0.25202(15)
loop_
_geom_bond_atom_site_label_1
_geom_bond_atom_site_label_2
_geom_bond_site_symmetry_1
_geom_bond_site_symmetry_2
C1 H1 1_555 1_555
H2 C1 1_555 1_555
C2 N1 1_555 1_555
C3 C4 1_555 1_555
C4 C5 1_555 1_555
C5 H3 1_555 1_555
H4 C5 1_555 1_555
C6 C5 1_555 1_555
H5 C6 1_555 1_555
H6 C6 1_555 1_555
H7 C6 1_555 1_555
N1 C1 1_555 1_555
O1 C18 1_555 1_555
O2 C3 1_555 1_555
O3 C2 1_555 1_555
C7 H8 1_555 1_555
C8 C7 1_555 1_555
H9 C8 1_555 1_555
C9 C8 1_555 1_555
H10 C9 1_555 1_555
C10 C9 1_555 1_555
H11 C10 1_555 1_555
C11 C10 1_555 1_555
H12 C11 1_555 1_555
C12 C7 1_555 1_555
C13 C12 1_555 1_555
C14 C13 1_555 1_555
H13 C14 1_555 1_555
H14 C14 1_555 1_555
H15 C14 1_555 1_555
C15 C13 1_555 1_555
H16 C15 1_555 1_555
H17 C15 1_555 1_555
C16 C13 1_555 1_555
H18 C16 1_555 1_555
H19 C16 1_555 1_555
C17 C15 1_555 1_555
H20 C17 1_555 1_555
C18 C1 1_555 1_555
C1A H1A 1_555 1_555
H2A C1A 1_555 1_555
C3A C4 1_555 1_555
C5A C4 1_555 1_555
H3A C5A 1_555 1_555
H4A C5A 1_555 1_555
C6A C5A 1_555 1_555
H5A C6A 1_555 1_555
H6A C6A 1_555 1_555
H7A C6A 1_555 1_555
N1A C2 1_555 1_555
O1A C18A 1_555 1_555
O2A C3A 1_555 1_555
C7A H8A 1_555 1_555
C8A C7A 1_555 1_555
H9A C8A 1_555 1_555
C9A C8A 1_555 1_555
H10A C9A 1_555 1_555
C10A C9A 1_555 1_555
H11A C10A 1_555 1_555
C11A C10A 1_555 1_555
H12A C11A 1_555 1_555
C12A C7A 1_555 1_555
C13A C12A 1_555 1_555
C14A C13A 1_555 1_555
H13A C14A 1_555 1_555
H14A C14A 1_555 1_555
H15A C14A 1_555 1_555
C15A C13A 1_555 1_555
H16A C15A 1_555 1_555
H17A C15A 1_555 1_555
C16A C13A 1_555 1_555
H18A C16A 1_555 1_555
H19A C16A 1_555 1_555
C17A C15A 1_555 1_555
H20A C17A 1_555 1_555
C18A C1A 1_555 1_555
C3 N1 1_555 1_555
C11 C12 1_555 1_555
C16 C17 1_555 1_555
C17 C18 1_555 1_555
C1A N1A 1_555 1_555
C3A N1A 1_555 1_555
C11A C12A 1_555 1_555
C16A C17A 1_555 1_555
C17A C18A 1_555 1_555

#END
