
#######################################################################
#
#                 Cambridge Crystallographic Data Centre
#                                CCDC 
#
#######################################################################
#
# If this CIF has been generated from an entry in the Cambridge 
# Structural Database, then it will include bibliographic, chemical, 
# crystal, experimental, refinement or atomic coordinate data resulting 
# from the CCDC's data processing and validation procedures.
#
#######################################################################

data_PEPJIF
_chemical_formula_moiety         'C21 H14 Br1 N5 O2'
_chemical_name_systematic        
2-(1-(4-Bromophenyl)-5-(2-hydroxyphenyl)-1H-pyrazol-4-yl)pyrrolo[2,1-f][1,2,4]triazin-4(3H)-one
_symmetry_cell_setting           triclinic
_symmetry_space_group_name_H-M   'P -1'
_symmetry_Int_Tables_number      2
_space_group_name_Hall           '-P 1'
loop_
_symmetry_equiv_pos_site_id
_symmetry_equiv_pos_as_xyz
1 x,y,z
2 -x,-y,-z
_cell_length_a                   7.0998(5)
_cell_length_b                   10.4533(7)
_cell_length_c                   14.2795(10)
_cell_angle_alpha                103.513(5)
_cell_angle_beta                 104.362(4)
_cell_angle_gamma                101.119(4)
_cell_volume                     962.194
_exptl_crystal_colour            colorless
_cell_formula_units_Z            2
loop_
_atom_site_label
_atom_site_type_symbol
_atom_site_fract_x
_atom_site_fract_y
_atom_site_fract_z
Br1 Br 0.30449(5) 1.20028(3) 0.22432(4)
O1 O -0.1004(4) 0.2257(2) 0.43266(15)
O2 O 0.0459(3) 0.5850(2) 0.39939(15)
H1 H 0.067(6) 0.637(4) 0.453(3)
N1 N -0.2929(3) 0.0570(2) 0.16720(16)
N2 N -0.2686(3) 0.1629(2) 0.12552(16)
N3 N -0.0466(3) 0.6002(2) 0.13484(16)
N4 N -0.2300(4) 0.5442(2) 0.06122(18)
N5 N -0.1344(3) 0.3034(2) 0.29480(16)
H2 H -0.0846 0.3861 0.3336
C1 C -0.3712(5) -0.1515(3) 0.1795(2)
H3 H -0.4175 -0.2459 0.1624
C2 C -0.3733(4) -0.0763(3) 0.1125(2)
H4 H -0.4212 -0.1105 0.0423
C3 C -0.1900(4) 0.2827(3) 0.19172(19)
C4 C -0.1625(4) 0.4020(3) 0.15559(19)
C5 C -0.0007(4) 0.5171(3) 0.19312(18)
C6 C 0.0518(4) 0.7404(3) 0.1523(2)
C7 C 0.0570(5) 0.7897(3) 0.0717(2)
H5 H 0.0079 0.7321 0.0056
C8 C 0.1380(5) 0.9279(3) 0.0926(3)
H6 H 0.1452 0.9662 0.0406
C9 C 0.2079(4) 1.0077(3) 0.1915(3)
C10 C -0.2971(4) 0.4254(3) 0.0743(2)
H7 H -0.4197 0.3636 0.0343
C11 C -0.2388(4) 0.0675(3) 0.2698(2)
C12 C -0.2878(5) -0.0621(3) 0.2777(2)
H8 H -0.2690 -0.0861 0.3374
C13 C -0.1530(4) 0.2012(3) 0.3397(2)
C14 C 0.1983(4) 0.5514(2) 0.27014(19)
C15 C 0.3698(4) 0.5500(3) 0.2399(2)
H9 H 0.3573 0.5220 0.1714
C16 C 0.5586(4) 0.5896(3) 0.3107(3)
H10 H 0.6727 0.5883 0.2900
C17 C 0.5766(4) 0.6309(4) 0.4120(3)
H11 H 0.7039 0.6594 0.4597
C18 C 0.4087(4) 0.6307(3) 0.4440(2)
H12 H 0.4223 0.6572 0.5128
C19 C 0.2192(4) 0.5908(3) 0.3729(2)
C20 C 0.1252(4) 0.8151(2) 0.24762(18)
H13 H 0.1224 0.7761 0.2997
C21 C 0.2031(5) 0.9477(3) 0.2670(2)
H14 H 0.2564 1.0020 0.3341
loop_
_geom_bond_atom_site_label_1
_geom_bond_atom_site_label_2
_geom_bond_site_symmetry_1
_geom_bond_site_symmetry_2
Br1 C9 1_555 1_555
O1 C13 1_555 1_555
O2 H1 1_555 1_555
N1 N2 1_555 1_555
N2 C3 1_555 1_555
N3 N4 1_555 1_555
N4 C10 1_555 1_555
N5 H2 1_555 1_555
C1 H3 1_555 1_555
C2 N1 1_555 1_555
H4 C2 1_555 1_555
C3 N5 1_555 1_555
C4 C3 1_555 1_555
C5 N3 1_555 1_555
C6 N3 1_555 1_555
C7 C6 1_555 1_555
H5 C7 1_555 1_555
C8 C7 1_555 1_555
H6 C8 1_555 1_555
C9 C8 1_555 1_555
C10 C4 1_555 1_555
H7 C10 1_555 1_555
C11 N1 1_555 1_555
C12 C1 1_555 1_555
H8 C12 1_555 1_555
C13 N5 1_555 1_555
C14 C5 1_555 1_555
C15 C14 1_555 1_555
H9 C15 1_555 1_555
C16 C15 1_555 1_555
H10 C16 1_555 1_555
C17 C16 1_555 1_555
H11 C17 1_555 1_555
C18 C17 1_555 1_555
H12 C18 1_555 1_555
C19 O2 1_555 1_555
C20 C6 1_555 1_555
H13 C20 1_555 1_555
C21 C9 1_555 1_555
H14 C21 1_555 1_555
C1 C2 1_555 1_555
C4 C5 1_555 1_555
C11 C12 1_555 1_555
C11 C13 1_555 1_555
C14 C19 1_555 1_555
C18 C19 1_555 1_555
C20 C21 1_555 1_555

#END
