
#######################################################################
#
#                 Cambridge Crystallographic Data Centre
#                                CCDC 
#
#######################################################################
#
# If this CIF has been generated from an entry in the Cambridge 
# Structural Database, then it will include bibliographic, chemical, 
# crystal, experimental, refinement or atomic coordinate data resulting 
# from the CCDC's data processing and validation procedures.
#
#######################################################################

data_PEPJUS
_chemical_name_common            'phyllobutyrolactone A'
_chemical_formula_moiety         'C16 H12 O3'
_chemical_name_systematic        3-hydroxy-4,5-diphenylfuran-2(5H)-one
_symmetry_cell_setting           monoclinic
_symmetry_space_group_name_H-M   'P 21/n'
_symmetry_Int_Tables_number      14
_space_group_name_Hall           '-P 2yn'
loop_
_symmetry_equiv_pos_site_id
_symmetry_equiv_pos_as_xyz
1 x,y,z
2 1/2-x,1/2+y,1/2-z
3 -x,-y,-z
4 1/2+x,1/2-y,1/2+z
_cell_length_a                   12.9476(11)
_cell_length_b                   6.0211(4)
_cell_length_c                   17.3302(14)
_cell_angle_alpha                90
_cell_angle_beta                 109.597(9)
_cell_angle_gamma                90
_cell_volume                     1272.78
_exptl_crystal_colour            colorless
_cell_formula_units_Z            4
_exptl_crystal_recrystallization_method methanol
loop_
_atom_site_label
_atom_site_type_symbol
_atom_site_fract_x
_atom_site_fract_y
_atom_site_fract_z
O1 O 0.60070(10) 0.2295(2) 0.07569(7)
H1 H 0.5677 0.3476 0.0638
O2 O 0.58239(9) 0.1078(2) -0.12895(7)
O3 O 0.50376(11) 0.4003(2) -0.09167(8)
C1 C 0.67151(13) -0.0393(3) 0.00254(10)
C2 C 0.75465(14) -0.0720(3) -0.11259(10)
C3 C 0.76802(16) -0.1261(3) 0.14943(11)
H2 H 0.7425 0.0068 0.1636
C4 C 0.61361(13) 0.1406(3) 0.00834(10)
C5 C 0.78035(15) -0.3840(3) 0.04820(11)
H3 H 0.7635 -0.4257 -0.0063
C6 C 0.55929(13) 0.2346(3) -0.07330(10)
C7 C 0.65375(14) -0.0758(3) -0.08753(10)
H4 H 0.6150 -0.2166 -0.1050
C8 C 0.74027(13) -0.1847(3) 0.06704(10)
C9 C 0.83034(17) 0.0969(3) -0.08762(13)
H5 H 0.8213 0.2068 -0.0527
C10 C 0.84464(17) -0.5206(3) 0.10914(13)
H6 H 0.8703 -0.6539 0.0954
C11 C 0.87123(17) -0.4616(4) 0.19026(13)
H7 H 0.9145 -0.5546 0.2312
C12 C 0.77037(17) -0.2353(4) -0.16362(12)
H8 H 0.7200 -0.3506 -0.1808
C13 C 0.8607(2) -0.2282(4) -0.18927(15)
H9 H 0.8713 -0.3397 -0.2230
C14 C 0.83319(17) -0.2640(4) 0.21013(11)
H10 H 0.8514 -0.2227 0.2648
C15 C 0.92013(19) 0.1038(4) -0.11439(16)
H11 H 0.9708 0.2188 -0.0978
C16 C 0.93402(19) -0.0591(4) -0.16540(15)
H12 H 0.9938 -0.0538 -0.1837
loop_
_geom_bond_atom_site_label_1
_geom_bond_atom_site_label_2
_geom_bond_site_symmetry_1
_geom_bond_site_symmetry_2
O1 H1 1_555 1_555
O2 C6 1_555 1_555
O3 C6 1_555 1_555
C1 C4 1_555 1_555
C2 C7 1_555 1_555
C3 H2 1_555 1_555
C4 O1 1_555 1_555
C5 H3 1_555 1_555
C6 C4 1_555 1_555
C7 O2 1_555 1_555
H4 C7 1_555 1_555
C8 C1 1_555 1_555
C9 C2 1_555 1_555
H5 C9 1_555 1_555
C10 C5 1_555 1_555
H6 C10 1_555 1_555
C11 C10 1_555 1_555
H7 C11 1_555 1_555
C12 C2 1_555 1_555
H8 C12 1_555 1_555
C13 C12 1_555 1_555
H9 C13 1_555 1_555
C14 C3 1_555 1_555
H10 C14 1_555 1_555
C15 C9 1_555 1_555
H11 C15 1_555 1_555
C16 C13 1_555 1_555
H12 C16 1_555 1_555
C1 C7 1_555 1_555
C3 C8 1_555 1_555
C5 C8 1_555 1_555
C11 C14 1_555 1_555
C15 C16 1_555 1_555

#END
