
#######################################################################
#
#                 Cambridge Crystallographic Data Centre
#                                CCDC 
#
#######################################################################
#
# If this CIF has been generated from an entry in the Cambridge 
# Structural Database, then it will include bibliographic, chemical, 
# crystal, experimental, refinement or atomic coordinate data resulting 
# from the CCDC's data processing and validation procedures.
#
#######################################################################

data_PEPNEG
_chemical_compound_source        
'Isolated from the stems of Mappianthus iodoides Hand.-Mazz.'
_chemical_name_common            'mappianine D unknown solvate'
_chemical_formula_moiety         'C21 H22 N2 O5'
_chemical_name_systematic        
'16-carboxy-19-methyl-16,17-didehydro-18-oxayohimban-4-ium-5-carboxylate unknown solvate'
_symmetry_cell_setting           triclinic
_symmetry_space_group_name_H-M   'P 1'
_symmetry_Int_Tables_number      1
_space_group_name_Hall           'P 1'
loop_
_symmetry_equiv_pos_site_id
_symmetry_equiv_pos_as_xyz
1 x,y,z
_cell_length_a                   9.3382(12)
_cell_length_b                   10.0396(13)
_cell_length_c                   12.9638(17)
_cell_angle_alpha                104.377(2)
_cell_angle_beta                 97.664(2)
_cell_angle_gamma                103.889(2)
_cell_volume                     1118.57
_exptl_crystal_colour            colorless
_exptl_crystal_description       block
_cell_formula_units_Z            2
loop_
_atom_site_label
_atom_site_type_symbol
_atom_site_fract_x
_atom_site_fract_y
_atom_site_fract_z
O1 O -0.8478(4) -0.5210(3) 0.6938(3)
O2 O -1.1181(4) -0.9230(4) 0.5460(3)
H1 H -1.138488 -1.010485 0.531765
O3 O -1.0088(5) -0.9510(4) 0.4022(3)
O4 O -0.2866(4) -0.1726(4) 0.4344(4)
O5 O -0.4646(4) -0.1555(4) 0.5310(3)
N1 N -0.9253(4) -0.6155(4) 0.1579(3)
H2 H -0.984982 -0.694023 0.160367
N2 N -0.6374(4) -0.4286(4) 0.4178(3)
H3 H -0.698455 -0.366319 0.445632
C1 C -0.9392(5) -0.5529(5) 0.0761(4)
C2 C -1.0461(6) -0.6002(6) -0.0219(4)
H4 H -1.122423 -0.685922 -0.039605
C3 C -1.0342(7) -0.5158(7) -0.0909(4)
H5 H -1.106611 -0.541850 -0.154521
C4 C -0.9139(8) -0.3904(7) -0.0664(5)
H6 H -0.906419 -0.337375 -0.115959
C5 C -0.8053(7) -0.3430(6) 0.0297(5)
H7 H -0.726398 -0.259550 0.045211
C6 C -0.8200(6) -0.4266(5) 0.1024(4)
C7 C -0.7295(5) -0.4146(5) 0.2050(4)
C8 C -0.7986(5) -0.5307(4) 0.2363(3)
C9 C -0.7409(5) -0.5667(4) 0.3350(3)
H8 H -0.681046 -0.633350 0.314975
C10 C -0.5191(5) -0.3483(5) 0.3680(4)
H9 H -0.459516 -0.411045 0.338167
C11 C -0.5955(6) -0.2984(6) 0.2753(5)
H10 H -0.626514 -0.214425 0.307178
H11 H -0.523426 -0.271974 0.231334
C12 C -0.8638(4) -0.6351(4) 0.3870(3)
H12 H -0.931251 -0.720807 0.333916
H13 H -0.921962 -0.568946 0.409377
C13 C -0.7976(4) -0.6750(4) 0.4865(3)
H14 H -0.750240 -0.750920 0.461041
C14 C -0.6757(4) -0.5453(4) 0.5685(3)
H15 H -0.619610 -0.583360 0.618019
C15 C -0.5623(5) -0.4707(5) 0.5103(4)
H16 H -0.492721 -0.385470 0.562545
H17 H -0.504299 -0.534641 0.482178
C16 C -0.7461(5) -0.4440(4) 0.6372(4)
H18 H -0.804502 -0.405454 0.589496
C17 C -0.9310(5) -0.6539(5) 0.6386(4)
H19 H -1.006016 -0.696811 0.670338
C18 C -0.9179(5) -0.7307(4) 0.5440(3)
C19 C -1.0197(5) -0.8782(5) 0.4919(3)
C20 C -0.6379(7) -0.3223(6) 0.7248(5)
H20 H -0.692481 -0.272376 0.770758
H21 H -0.578773 -0.257592 0.692746
H22 H -0.572588 -0.358306 0.767278
C21 C -0.4160(5) -0.2153(5) 0.4521(4)
O6 O -0.9028(4) -1.1426(3) -0.3524(3)
O7 O -1.2336(4) -1.3312(4) -0.2121(3)
H23 H -1.214906 -1.386192 -0.178328
O8 O -1.1785(5) -1.1386(4) -0.0712(4)
O9 O -0.4280(5) -0.6643(5) -0.1759(4)
O10 O -0.3977(4) -0.4371(4) -0.0838(4)
N3 N -0.6547(5) -0.8736(4) 0.1884(3)
H24 H -0.735868 -0.940369 0.181443
N4 N -0.6403(4) -0.7629(4) -0.0667(3)
H25 H -0.583807 -0.830264 -0.093566
C22 C -0.5384(6) -0.8243(6) 0.2745(4)
C23 C -0.5210(7) -0.8612(7) 0.3699(5)
H26 H -0.595286 -0.932526 0.382000
C24 C -0.3881(8) -0.7884(8) 0.4483(5)
H27 H -0.373876 -0.810874 0.513651
C25 C -0.2761(7) -0.6812(8) 0.4284(5)
H28 H -0.188771 -0.633927 0.481399
C26 C -0.2922(7) -0.6442(7) 0.3324(5)
H29 H -0.217307 -0.573312 0.320396
C27 C -0.4244(6) -0.7167(6) 0.2541(4)
C28 C -0.4838(5) -0.7039(5) 0.1486(4)
C29 C -0.6235(5) -0.8006(4) 0.1133(3)
C30 C -0.4147(5) -0.6137(6) 0.0837(4)
H30 H -0.333929 -0.648100 0.057206
H31 H -0.371218 -0.515837 0.129863
C31 C -0.5303(5) -0.6156(4) -0.0140(4)
H32 H -0.586427 -0.547078 0.011027
C32 C -0.7312(5) -0.8185(4) 0.0105(3)
H33 H -0.797657 -0.757908 0.028831
C33 C -0.7516(5) -0.7604(5) -0.1619(4)
H34 H -0.696818 -0.724154 -0.212399
H35 H -0.809552 -0.695479 -0.135786
C34 C -0.8606(5) -0.9110(4) -0.2224(3)
H36 H -0.938112 -0.898053 -0.274795
C35 C -0.9415(4) -0.9780(4) -0.1443(4)
H37 H -1.010099 -0.922552 -0.119566
C36 C -0.8294(5) -0.9707(5) -0.0447(4)
H38 H -0.883837 -1.005832 0.006392
H39 H -0.766180 -1.032049 -0.066579
C37 C -1.0339(5) -1.1275(4) -0.2054(4)
C38 C -1.0134(5) -1.1967(5) -0.3028(4)
H40 H -1.078812 -1.287363 -0.338622
C39 C -0.7853(5) -1.0138(5) -0.2870(3)
H41 H -0.717064 -1.039662 -0.236220
C40 C -0.7003(6) -0.9611(6) -0.3674(4)
H42 H -0.671327 -1.038296 -0.411337
H43 H -0.611793 -0.884192 -0.328568
H44 H -0.763749 -0.927258 -0.413139
C41 C -1.1549(5) -1.1982(5) -0.1569(4)
C42 C -0.4451(5) -0.5703(5) -0.1021(4)
loop_
_geom_bond_atom_site_label_1
_geom_bond_atom_site_label_2
_geom_bond_site_symmetry_1
_geom_bond_site_symmetry_2
O1 C16 1_555 1_555
O2 H1 1_555 1_555
O3 C19 1_555 1_555
O4 C21 1_555 1_555
O5 C21 1_555 1_555
N1 H2 1_555 1_555
N2 H3 1_555 1_555
C1 N1 1_555 1_555
C2 C1 1_555 1_555
H4 C2 1_555 1_555
C3 C2 1_555 1_555
H5 C3 1_555 1_555
C4 C3 1_555 1_555
H6 C4 1_555 1_555
C5 C4 1_555 1_555
H7 C5 1_555 1_555
C6 C1 1_555 1_555
C7 C6 1_555 1_555
C8 N1 1_555 1_555
C9 N2 1_555 1_555
H8 C9 1_555 1_555
C10 N2 1_555 1_555
H9 C10 1_555 1_555
C11 C7 1_555 1_555
H10 C11 1_555 1_555
H11 C11 1_555 1_555
C12 C9 1_555 1_555
H12 C12 1_555 1_555
H13 C12 1_555 1_555
C13 C12 1_555 1_555
H14 C13 1_555 1_555
C14 C13 1_555 1_555
H15 C14 1_555 1_555
C15 N2 1_555 1_555
H16 C15 1_555 1_555
H17 C15 1_555 1_555
C16 C14 1_555 1_555
H18 C16 1_555 1_555
C17 O1 1_555 1_555
H19 C17 1_555 1_555
C18 C13 1_555 1_555
C19 O2 1_555 1_555
C20 C16 1_555 1_555
H20 C20 1_555 1_555
H21 C20 1_555 1_555
H22 C20 1_555 1_555
C21 C10 1_555 1_555
O6 C38 1_555 1_555
O7 H23 1_555 1_555
O8 C41 1_555 1_555
O9 C42 1_555 1_555
O10 C42 1_555 1_555
N3 H24 1_555 1_555
N4 H25 1_555 1_555
C22 N3 1_555 1_555
C23 C22 1_555 1_555
H26 C23 1_555 1_555
C24 C23 1_555 1_555
H27 C24 1_555 1_555
C25 C24 1_555 1_555
H28 C25 1_555 1_555
C26 C25 1_555 1_555
H29 C26 1_555 1_555
C27 C22 1_555 1_555
C28 C27 1_555 1_555
C29 N3 1_555 1_555
C30 C28 1_555 1_555
H30 C30 1_555 1_555
H31 C30 1_555 1_555
C31 N4 1_555 1_555
H32 C31 1_555 1_555
C32 N4 1_555 1_555
H33 C32 1_555 1_555
C33 N4 1_555 1_555
H34 C33 1_555 1_555
H35 C33 1_555 1_555
C34 C33 1_555 1_555
H36 C34 1_555 1_555
C35 C34 1_555 1_555
H37 C35 1_555 1_555
C36 C32 1_555 1_555
H38 C36 1_555 1_555
H39 C36 1_555 1_555
C37 C35 1_555 1_555
C38 C37 1_555 1_555
H40 C38 1_555 1_555
C39 O6 1_555 1_555
H41 C39 1_555 1_555
C40 C39 1_555 1_555
H42 C40 1_555 1_555
H43 C40 1_555 1_555
H44 C40 1_555 1_555
C41 O7 1_555 1_555
C42 C31 1_555 1_555
C5 C6 1_555 1_555
C7 C8 1_555 1_555
C8 C9 1_555 1_555
C10 C11 1_555 1_555
C14 C15 1_555 1_555
C17 C18 1_555 1_555
C18 C19 1_555 1_555
C26 C27 1_555 1_555
C28 C29 1_555 1_555
C29 C32 1_555 1_555
C30 C31 1_555 1_555
C34 C39 1_555 1_555
C35 C36 1_555 1_555
C37 C41 1_555 1_555

#END
