
#######################################################################
#
#                 Cambridge Crystallographic Data Centre
#                                CCDC 
#
#######################################################################
#
# If this CIF has been generated from an entry in the Cambridge 
# Structural Database, then it will include bibliographic, chemical, 
# crystal, experimental, refinement or atomic coordinate data resulting 
# from the CCDC's data processing and validation procedures.
#
#######################################################################

data_PEPNAC
_chemical_compound_source        
'Isolated from the stems of Mappianthus iodoides Hand.-Mazz.'
_chemical_name_common            'mappianine C'
_chemical_formula_moiety         'C22 H24 N2 O6'
_chemical_name_systematic        
4-hydroxy-16-(methoxycarbonyl)-19-methyl-16,17-didehydro-18-oxayohimban-4-ium-5-carboxylate
_symmetry_cell_setting           orthorhombic
_symmetry_space_group_name_H-M   'P 21 21 21'
_symmetry_Int_Tables_number      19
_space_group_name_Hall           'P 2ac 2ab'
loop_
_symmetry_equiv_pos_site_id
_symmetry_equiv_pos_as_xyz
1 x,y,z
2 1/2-x,-y,1/2+z
3 -x,1/2+y,1/2-z
4 1/2+x,1/2-y,-z
_cell_length_a                   9.04660(10)
_cell_length_b                   17.40390(10)
_cell_length_c                   24.2510(2)
_cell_angle_alpha                90
_cell_angle_beta                 90
_cell_angle_gamma                90
_cell_volume                     3818.23
_exptl_crystal_colour            colorless
_exptl_crystal_description       block
_cell_formula_units_Z            8
loop_
_atom_site_label
_atom_site_type_symbol
_atom_site_fract_x
_atom_site_fract_y
_atom_site_fract_z
O1 O 0.84260(14) 0.80082(7) 0.72415(5)
H1 H 0.832105 0.754360 0.728200
O2 O 0.70024(16) 0.86069(8) 0.55521(6)
O3 O 0.87702(16) 1.09957(8) 0.62271(6)
O4 O 0.66581(16) 1.08884(8) 0.57429(6)
O5 O 0.92010(18) 0.66507(8) 0.72986(6)
O6 O 1.15909(19) 0.63452(8) 0.72887(7)
N1 N 0.99148(17) 0.81687(9) 0.70979(6)
N2 N 1.01792(18) 0.99026(9) 0.80067(6)
H2 H 1.000142 1.031785 0.782627
C1 C 1.0394(2) 0.98459(11) 0.85667(7)
C2 C 1.0299(2) 0.91778(10) 0.77872(7)
C3 C 1.0589(2) 0.86513(10) 0.81879(7)
C4 C 1.0649(2) 0.90673(10) 0.87002(7)
C5 C 1.0724(2) 0.78121(10) 0.80666(8)
H3 H 0.983851 0.755033 0.819188
H4 H 1.155743 0.760346 0.826862
C6 C 0.7986(2) 0.97583(11) 0.59348(7)
C7 C 0.7875(2) 1.06012(11) 0.59846(7)
C8 C 0.7062(2) 0.93770(11) 0.56012(8)
H5 H 0.641372 0.966549 0.538750
C9 C 0.9203(2) 0.93596(10) 0.62509(7)
H6 H 1.014718 0.958041 0.613227
C10 C 0.9064(2) 0.94839(10) 0.68734(7)
H7 H 0.918882 1.002521 0.695637
H8 H 0.808342 0.933189 0.699329
C11 C 0.7644(2) 0.81979(10) 0.60184(7)
H9 H 0.705689 0.829892 0.635019
C12 C 1.0386(2) 1.04264(11) 0.89659(8)
H10 H 1.022107 1.093744 0.887212
C13 C 1.0578(2) 0.68058(11) 0.73276(8)
C14 C 1.0939(2) 0.76603(10) 0.74484(7)
H11 H 1.196970 0.776424 0.734847
C15 C 1.0163(2) 0.80113(10) 0.64921(7)
H12 H 0.996137 0.747283 0.642143
H13 H 1.119640 0.810234 0.640766
C16 C 0.7554(2) 0.73528(11) 0.58752(8)
H14 H 0.663462 0.725065 0.569139
H15 H 0.760892 0.705287 0.620679
H16 H 0.836018 0.721882 0.563656
C17 C 0.9217(2) 0.84964(10) 0.61029(7)
H17 H 0.969594 0.846196 0.574131
C18 C 1.0214(2) 0.90206(10) 0.71852(7)
H18 H 1.118267 0.913707 0.702476
C19 C 1.0894(2) 0.88610(11) 0.92513(8)
H19 H 1.105754 0.835114 0.934856
C20 C 1.0632(2) 1.02072(12) 0.95042(8)
H20 H 1.063066 1.057926 0.977944
C21 C 0.6443(3) 1.17109(12) 0.58004(9)
H21 H 0.569058 1.187842 0.554857
H22 H 0.735205 1.197247 0.571938
H23 H 0.614527 1.182597 0.617122
C22 C 1.0885(3) 0.94346(12) 0.96484(8)
H24 H 1.104980 0.930686 1.001567
O7 O 0.62331(14) 0.49029(7) 0.68716(5)
H25 H 0.652899 0.534593 0.683914
O8 O 0.48227(17) 0.43555(8) 0.52049(5)
O9 O 0.25785(16) 0.23128(7) 0.61677(6)
O10 O 0.59900(16) 0.63299(7) 0.69663(6)
O11 O 0.30000(19) 0.21845(8) 0.52594(6)
O12 O 0.48925(19) 0.67851(8) 0.77286(6)
N3 N 0.52109(17) 0.31051(8) 0.78968(6)
H26 H 0.494991 0.270515 0.771268
N4 N 0.47483(17) 0.49086(8) 0.70629(6)
C23 C 0.5822(2) 0.31091(10) 0.84167(7)
C24 C 0.5599(2) 0.43464(10) 0.81204(7)
C25 C 0.5093(2) 0.38543(10) 0.77251(7)
C26 C 0.6090(2) 0.38832(10) 0.85723(7)
C27 C 0.6710(2) 0.40368(10) 0.90914(7)
H27 H 0.690336 0.453904 0.920065
C28 C 0.3734(2) 0.46666(10) 0.60952(7)
H28 H 0.286939 0.481634 0.587664
C29 C 0.3660(2) 0.33513(10) 0.57175(7)
C30 C 0.4327(2) 0.40828(9) 0.72044(7)
H29 H 0.326403 0.408031 0.728173
C31 C 0.6754(2) 0.26625(11) 0.92777(8)
H30 H 0.697989 0.226455 0.951940
C32 C 0.6154(2) 0.24936(10) 0.87671(8)
H31 H 0.597774 0.198861 0.866039
C33 C 0.7029(2) 0.34265(11) 0.94372(7)
H32 H 0.743354 0.352357 0.978282
C34 C 0.3513(2) 0.38149(10) 0.62402(7)
H33 H 0.250027 0.375238 0.637605
C35 C 0.4239(2) 0.36514(11) 0.52579(8)
H34 H 0.423650 0.334195 0.494520
C36 C 0.4572(2) 0.35673(10) 0.67039(7)
H35 H 0.438745 0.303576 0.680240
H36 H 0.558743 0.361059 0.657918
C37 C 0.5648(2) 0.51919(10) 0.80380(7)
H37 H 0.665884 0.534681 0.796514
H38 H 0.532980 0.544473 0.837418
C38 C 0.5075(2) 0.47728(10) 0.57174(7)
H39 H 0.595830 0.456868 0.589984
C39 C 0.3059(2) 0.25707(11) 0.56754(8)
C40 C 0.5210(2) 0.62682(10) 0.73982(8)
C41 C 0.3711(2) 0.51740(10) 0.66093(7)
H40 H 0.397520 0.569389 0.650431
H41 H 0.271124 0.518700 0.675395
C42 C 0.4660(2) 0.54566(10) 0.75587(7)
H42 H 0.363310 0.548917 0.768559
C43 C 0.5357(3) 0.55935(12) 0.55414(8)
H43 H 0.606084 0.559941 0.524508
H44 H 0.574178 0.588000 0.584771
H45 H 0.444815 0.582191 0.541962
C44 C 0.2044(3) 0.15307(11) 0.61685(9)
H46 H 0.120191 0.149061 0.592936
H47 H 0.176424 0.138799 0.653636
H48 H 0.281073 0.119377 0.604033
loop_
_geom_bond_atom_site_label_1
_geom_bond_atom_site_label_2
_geom_bond_site_symmetry_1
_geom_bond_site_symmetry_2
O1 H1 1_555 1_555
O2 C8 1_555 1_555
O3 C7 1_555 1_555
O4 C7 1_555 1_555
O5 C13 1_555 1_555
O6 C13 1_555 1_555
N1 O1 1_555 1_555
N2 H2 1_555 1_555
C1 N2 1_555 1_555
C2 N2 1_555 1_555
C3 C2 1_555 1_555
C4 C1 1_555 1_555
C5 C3 1_555 1_555
H3 C5 1_555 1_555
H4 C5 1_555 1_555
C6 C7 1_555 1_555
C8 C6 1_555 1_555
H5 C8 1_555 1_555
C9 C6 1_555 1_555
H6 C9 1_555 1_555
C10 C9 1_555 1_555
H7 C10 1_555 1_555
H8 C10 1_555 1_555
C11 O2 1_555 1_555
H9 C11 1_555 1_555
C12 C1 1_555 1_555
H10 C12 1_555 1_555
C13 C14 1_555 1_555
C14 N1 1_555 1_555
H11 C14 1_555 1_555
C15 N1 1_555 1_555
H12 C15 1_555 1_555
H13 C15 1_555 1_555
C16 C11 1_555 1_555
H14 C16 1_555 1_555
H15 C16 1_555 1_555
H16 C16 1_555 1_555
C17 C9 1_555 1_555
H17 C17 1_555 1_555
C18 N1 1_555 1_555
H18 C18 1_555 1_555
C19 C4 1_555 1_555
H19 C19 1_555 1_555
C20 C12 1_555 1_555
H20 C20 1_555 1_555
C21 O4 1_555 1_555
H21 C21 1_555 1_555
H22 C21 1_555 1_555
H23 C21 1_555 1_555
C22 C19 1_555 1_555
H24 C22 1_555 1_555
O7 H25 1_555 1_555
O8 C35 1_555 1_555
O9 C39 1_555 1_555
O10 C40 1_555 1_555
O11 C39 1_555 1_555
O12 C40 1_555 1_555
N3 H26 1_555 1_555
N4 O7 1_555 1_555
C23 N3 1_555 1_555
C24 C25 1_555 1_555
C25 N3 1_555 1_555
C26 C23 1_555 1_555
C27 C26 1_555 1_555
H27 C27 1_555 1_555
C28 H28 1_555 1_555
C29 C34 1_555 1_555
C30 N4 1_555 1_555
H29 C30 1_555 1_555
C31 H30 1_555 1_555
C32 C23 1_555 1_555
H31 C32 1_555 1_555
C33 C27 1_555 1_555
H32 C33 1_555 1_555
C34 C28 1_555 1_555
H33 C34 1_555 1_555
C35 C29 1_555 1_555
H34 C35 1_555 1_555
C36 C30 1_555 1_555
H35 C36 1_555 1_555
H36 C36 1_555 1_555
C37 C24 1_555 1_555
H37 C37 1_555 1_555
H38 C37 1_555 1_555
C38 O8 1_555 1_555
H39 C38 1_555 1_555
C39 C29 1_555 1_555
C40 C42 1_555 1_555
C41 N4 1_555 1_555
H40 C41 1_555 1_555
H41 C41 1_555 1_555
C42 N4 1_555 1_555
H42 C42 1_555 1_555
C43 C38 1_555 1_555
H43 C43 1_555 1_555
H44 C43 1_555 1_555
H45 C43 1_555 1_555
C44 O9 1_555 1_555
H46 C44 1_555 1_555
H47 C44 1_555 1_555
H48 C44 1_555 1_555
C2 C18 1_555 1_555
C3 C4 1_555 1_555
C5 C14 1_555 1_555
C10 C18 1_555 1_555
C11 C17 1_555 1_555
C15 C17 1_555 1_555
C20 C22 1_555 1_555
C24 C26 1_555 1_555
C25 C30 1_555 1_555
C28 C38 1_555 1_555
C28 C41 1_555 1_555
C31 C32 1_555 1_555
C31 C33 1_555 1_555
C34 C36 1_555 1_555
C37 C42 1_555 1_555

#END
