
#######################################################################
#
#                 Cambridge Crystallographic Data Centre
#                                CCDC 
#
#######################################################################
#
# If this CIF has been generated from an entry in the Cambridge 
# Structural Database, then it will include bibliographic, chemical, 
# crystal, experimental, refinement or atomic coordinate data resulting 
# from the CCDC's data processing and validation procedures.
#
#######################################################################

data_PEPSOS
_chemical_formula_moiety         'C57 H57 N3 O6 S3'
_chemical_name_systematic        
5,13,32-Tritosyl-5,13,32-triazaheptacyclo(15.13.3.2^9,24^.1^3,29^.1^7,11^.1^15,19^.1^22,26^)nonatriaconta-1,3(36),7,9,11(37),15,17,19(38),22,24,26(39),29-dodecaene
_symmetry_cell_setting           triclinic
_symmetry_space_group_name_H-M   'P -1'
_symmetry_Int_Tables_number      2
_space_group_name_Hall           '-P 1'
loop_
_symmetry_equiv_pos_site_id
_symmetry_equiv_pos_as_xyz
1 x,y,z
2 -x,-y,-z
_cell_length_a                   9.620(1)
_cell_length_b                   14.127(1)
_cell_length_c                   19.715(1)
_cell_angle_alpha                79.85(1)
_cell_angle_beta                 87.07(1)
_cell_angle_gamma                70.50(1)
_cell_volume                     2486.01
_exptl_crystal_colour            colorless
_chemical_melting_point          'above 350 deg.C'
_cell_formula_units_Z            2
loop_
_atom_site_label
_atom_site_type_symbol
_atom_site_fract_x
_atom_site_fract_y
_atom_site_fract_z
S1 S 0.2213(3) 0.8693(2) 0.2165(2)
S2 S 0.4441(3) 0.2388(2) 0.5144(2)
S3 S 0.4500(3) 0.2752(2) 0.0362(1)
O1 O 0.1583(6) 0.8915(4) 0.2820(3)
O2 O 0.1430(6) 0.9231(4) 0.1544(3)
O3 O 0.3779(8) 0.3420(5) 0.5259(3)
O4 O 0.3974(6) 0.1581(5) 0.5528(3)
O5 O 0.3931(6) 0.3815(5) 0.0065(3)
O6 O 0.4125(6) 0.2009(5) 0.0070(3)
N1 N 0.2496(7) 0.7480(5) 0.2174(4)
N2 N 0.4161(7) 0.2399(5) 0.4331(4)
N3 N 0.3949(6) 0.2650(5) 0.1177(3)
C1 C 0.2855(10) 0.7139(6) 0.1503(5)
C2 C 0.3421(9) 0.6813(6) 0.2759(5)
C3 C 0.2866(11) 0.5951(7) 0.3107(5)
C4 C 0.3882(9) 0.4988(7) 0.3295(4)
C5 C 0.3437(10) 0.4217(6) 0.3676(5)
C6 C 0.1976(10) 0.4426(6) 0.3879(4)
C7 C 0.0957(9) 0.5410(7) 0.3717(5)
C8 C 0.1420(11) 0.6157(6) 0.3314(5)
C9 C 0.4591(9) 0.3161(6) 0.3839(4)
C10 C 0.4565(10) 0.1389(7) 0.4109(5)
C11 C 0.3720(12) 0.1444(7) 0.3468(7)
C12 C 0.4378(11) 0.1449(6) 0.2833(7)
C13 C 0.3598(11) 0.1541(6) 0.2238(6)
C14 C 0.2159(11) 0.1577(6) 0.2300(6)
C15 C 0.1463(10) 0.1526(6) 0.2934(6)
C16 C 0.2250(11) 0.1480(6) 0.3518(5)
C17 C 0.4368(9) 0.1599(7) 0.1554(5)
C18 C 0.4182(9) 0.3403(6) 0.1554(4)
C19 C 0.3041(10) 0.4450(7) 0.1413(4)
C20 C 0.3435(10) 0.5276(7) 0.1500(4)
C21 C 0.2380(11) 0.6242(7) 0.1444(5)
C22 C 0.0943(10) 0.6360(7) 0.1278(4)
C23 C 0.0535(10) 0.5548(7) 0.1159(5)
C24 C 0.1607(10) 0.4610(6) 0.1252(4)
C25 C -0.0575(9) 0.5658(6) 0.4000(4)
C26 C -0.1350(9) 0.4881(7) 0.4009(5)
C27 C -0.1515(9) 0.4622(8) 0.3304(6)
C28 C -0.1354(9) 0.3638(8) 0.3241(5)
C29 C -0.1471(9) 0.3381(7) 0.2602(7)
C30 C -0.1778(9) 0.4138(9) 0.2034(5)
C31 C -0.1947(10) 0.5128(8) 0.2091(6)
C32 C -0.1821(9) 0.5354(7) 0.2718(6)
C33 C -0.1266(10) 0.2284(7) 0.2545(5)
C34 C -0.0086(9) 0.1458(6) 0.2998(5)
C35 C -0.2195(10) 0.5927(7) 0.1454(5)
C36 C -0.0986(9) 0.5719(6) 0.0909(4)
C37 C 0.3949(9) 0.8825(6) 0.2122(6)
C38 C 0.4651(10) 0.8818(6) 0.2718(5)
C39 C 0.6083(11) 0.8854(6) 0.2685(5)
C40 C 0.6827(10) 0.8890(7) 0.2066(7)
C41 C 0.6124(11) 0.8889(7) 0.1488(6)
C42 C 0.4700(10) 0.8854(6) 0.1508(5)
C43 C 0.8364(9) 0.8944(7) 0.2049(5)
C44 C 0.6326(9) 0.2065(8) 0.5268(4)
C45 C 0.6966(15) 0.2802(9) 0.5268(5)
C46 C 0.8469(18) 0.2500(1) 0.5394(6)
C47 C 0.9348(13) 0.1515(12) 0.5537(6)
C48 C 0.8674(11) 0.0786(8) 0.5539(5)
C49 C 0.7191(11) 0.1049(7) 0.5406(5)
C50 C 1.0950(11) 0.1186(10) 0.5726(6)
C51 C 0.6413(9) 0.2376(8) 0.0383(4)
C52 C 0.7265(11) 0.1364(8) 0.0458(5)
C53 C 0.8794(11) 0.1077(7) 0.0474(5)
C54 C 0.9507(11) 0.1788(10) 0.0416(5)
C55 C 0.8620(12) 0.2817(9) 0.0359(5)
C56 C 0.7107(11) 0.3102(7) 0.0336(5)
C57 C 1.1165(9) 0.1461(8) 0.0395(5)
H1 H 0.3900 0.6949 0.1430
H2 H 0.2372 0.7699 0.1149
H3 H 0.3437 0.7232 0.3091
H4 H 0.4412 0.6520 0.2606
H5 H 0.4896 0.4855 0.3163
H6 H 0.1666 0.3890 0.4136
H7 H 0.0717 0.6823 0.3175
H8 H 0.4865 0.2906 0.3414
H9 H 0.5445 0.3237 0.4023
H10 H 0.4360 0.0909 0.4475
H11 H 0.5602 0.1159 0.4015
H12 H 0.5407 0.1377 0.2800
H13 H 0.1600 0.1642 0.1894
H14 H 0.1782 0.1477 0.3960
H15 H 0.5416 0.1338 0.1626
H16 H 0.4107 0.1186 0.1278
H17 H 0.5125 0.3468 0.1424
H18 H 0.4210 0.3152 0.2041
H19 H 0.4439 0.5191 0.1602
H20 H 0.0205 0.7022 0.1239
H21 H 0.1323 0.4038 0.1196
H22 H -0.1178 0.6278 0.3725
H23 H -0.0538 0.5792 0.4458
H24 H -0.2312 0.5118 0.4207
H25 H -0.0783 0.4269 0.4303
H26 H -0.1160 0.3117 0.3643
H27 H -0.1853 0.3970 0.1589
H28 H -0.1936 0.6044 0.2755
H29 H -0.0977 0.2196 0.2080
H30 H -0.2198 0.2175 0.2621
H31 H -0.0408 0.1509 0.3463
H32 H -0.0034 0.0796 0.2917
H33 H -0.2274 0.6566 0.1584
H34 H -0.3119 0.5999 0.1251
H35 H -0.0970 0.5110 0.0750
H36 H -0.1217 0.6263 0.0521
H37 H 0.4134 0.8803 0.3147
H38 H 0.6591 0.8845 0.3095
H39 H 0.6631 0.8912 0.1056
H40 H 0.4208 0.8847 0.1098
H41 H 0.8739 0.8972 0.1588
H42 H 0.8356 0.9538 0.2224
H43 H 0.8981 0.8345 0.2337
H44 H 0.6378 0.3510 0.5187
H45 H 0.8945 0.3005 0.5361
H46 H 0.9255 0.0078 0.5652
H47 H 0.6746 0.0539 0.5384
H48 H 1.1260 0.1771 0.5700
H49 H 1.1098 0.0810 0.6187
H50 H 1.1519 0.0760 0.5412
H51 H 0.6791 0.0859 0.0483
H52 H 0.9378 0.0369 0.0526
H53 H 0.9095 0.3320 0.0347
H54 H 0.6522 0.3810 0.0274
H55 H 1.1575 0.0733 0.0438
H56 H 1.1451 0.1773 -0.0038
H57 H 1.1523 0.1679 0.0765
loop_
_geom_bond_atom_site_label_1
_geom_bond_atom_site_label_2
_geom_bond_site_symmetry_1
_geom_bond_site_symmetry_2
S1 O1 1_555 1_555
S2 O3 1_555 1_555
S3 O5 1_555 1_555
O2 S1 1_555 1_555
O4 S2 1_555 1_555
O6 S3 1_555 1_555
N1 S1 1_555 1_555
N2 S2 1_555 1_555
N3 S3 1_555 1_555
C1 N1 1_555 1_555
C2 N1 1_555 1_555
C3 C2 1_555 1_555
C4 C3 1_555 1_555
C5 C4 1_555 1_555
C6 C5 1_555 1_555
C7 C6 1_555 1_555
C8 C3 1_555 1_555
C9 N2 1_555 1_555
C10 N2 1_555 1_555
C11 C10 1_555 1_555
C12 C11 1_555 1_555
C13 C12 1_555 1_555
C14 C13 1_555 1_555
C15 C14 1_555 1_555
C16 C11 1_555 1_555
C17 N3 1_555 1_555
C18 N3 1_555 1_555
C19 C18 1_555 1_555
C20 C19 1_555 1_555
C21 C1 1_555 1_555
C22 C21 1_555 1_555
C23 C22 1_555 1_555
C24 C19 1_555 1_555
C25 C7 1_555 1_555
C26 C25 1_555 1_555
C27 C26 1_555 1_555
C28 C27 1_555 1_555
C29 C28 1_555 1_555
C30 C29 1_555 1_555
C31 C30 1_555 1_555
C32 C27 1_555 1_555
C33 C29 1_555 1_555
C34 C15 1_555 1_555
C35 C31 1_555 1_555
C36 C23 1_555 1_555
C37 S1 1_555 1_555
C38 C37 1_555 1_555
C39 C38 1_555 1_555
C40 C39 1_555 1_555
C41 C40 1_555 1_555
C42 C37 1_555 1_555
C43 C40 1_555 1_555
C44 S2 1_555 1_555
C45 C44 1_555 1_555
C46 C45 1_555 1_555
C47 C46 1_555 1_555
C48 C47 1_555 1_555
C49 C44 1_555 1_555
C50 C47 1_555 1_555
C51 S3 1_555 1_555
C52 C51 1_555 1_555
C53 C52 1_555 1_555
C54 C53 1_555 1_555
C55 C54 1_555 1_555
C56 C51 1_555 1_555
C57 C54 1_555 1_555
H1 C1 1_555 1_555
H2 C1 1_555 1_555
H3 C2 1_555 1_555
H4 C2 1_555 1_555
H5 C4 1_555 1_555
H6 C6 1_555 1_555
H7 C8 1_555 1_555
H8 C9 1_555 1_555
H9 C9 1_555 1_555
H10 C10 1_555 1_555
H11 C10 1_555 1_555
H12 C12 1_555 1_555
H13 C14 1_555 1_555
H14 C16 1_555 1_555
H15 C17 1_555 1_555
H16 C17 1_555 1_555
H17 C18 1_555 1_555
H18 C18 1_555 1_555
H19 C20 1_555 1_555
H20 C22 1_555 1_555
H21 C24 1_555 1_555
H22 C25 1_555 1_555
H23 C25 1_555 1_555
H24 C26 1_555 1_555
H25 C26 1_555 1_555
H26 C28 1_555 1_555
H27 C30 1_555 1_555
H28 C32 1_555 1_555
H29 C33 1_555 1_555
H30 C33 1_555 1_555
H31 C34 1_555 1_555
H32 C34 1_555 1_555
H33 C35 1_555 1_555
H34 C35 1_555 1_555
H35 C36 1_555 1_555
H36 C36 1_555 1_555
H37 C38 1_555 1_555
H38 C39 1_555 1_555
H39 C41 1_555 1_555
H40 C42 1_555 1_555
H41 C43 1_555 1_555
H42 C43 1_555 1_555
H43 C43 1_555 1_555
H44 C45 1_555 1_555
H45 C46 1_555 1_555
H46 C48 1_555 1_555
H47 C49 1_555 1_555
H48 C50 1_555 1_555
H49 C50 1_555 1_555
H50 C50 1_555 1_555
H51 C52 1_555 1_555
H52 C53 1_555 1_555
H53 C55 1_555 1_555
H54 C56 1_555 1_555
H55 C57 1_555 1_555
H56 C57 1_555 1_555
H57 C57 1_555 1_555
C5 C9 1_555 1_555
C7 C8 1_555 1_555
C13 C17 1_555 1_555
C15 C16 1_555 1_555
C20 C21 1_555 1_555
C23 C24 1_555 1_555
C31 C32 1_555 1_555
C33 C34 1_555 1_555
C35 C36 1_555 1_555
C41 C42 1_555 1_555
C48 C49 1_555 1_555
C55 C56 1_555 1_555

#END
