
#######################################################################
#
#                 Cambridge Crystallographic Data Centre
#                                CCDC 
#
#######################################################################
#
# If this CIF has been generated from an entry in the Cambridge 
# Structural Database, then it will include bibliographic, chemical, 
# crystal, experimental, refinement or atomic coordinate data resulting 
# from the CCDC's data processing and validation procedures.
#
#######################################################################

data_PEPSOT
_chemical_formula_moiety         'C14 H11 N3 O1'
_chemical_name_systematic        2-azido-1-(1,1'-biphenyl-4-yl)ethanone
_symmetry_cell_setting           orthorhombic
_symmetry_space_group_name_H-M   'P b c a'
_symmetry_Int_Tables_number      61
_space_group_name_Hall           '-P 2ac 2ab'
loop_
_symmetry_equiv_pos_site_id
_symmetry_equiv_pos_as_xyz
1 x,y,z
2 1/2-x,-y,1/2+z
3 -x,1/2+y,1/2-z
4 1/2+x,1/2-y,-z
5 -x,-y,-z
6 1/2+x,y,1/2-z
7 x,1/2-y,1/2+z
8 1/2-x,1/2+y,z
_cell_length_a                   10.5307(9)
_cell_length_b                   7.9709(7)
_cell_length_c                   29.396(3)
_cell_angle_alpha                90
_cell_angle_beta                 90
_cell_angle_gamma                90
_cell_volume                     2467.48
_exptl_crystal_colour            colorless
_exptl_crystal_description       'rectangular blocks'
_cell_formula_units_Z            8
loop_
_atom_site_label
_atom_site_type_symbol
_atom_site_fract_x
_atom_site_fract_y
_atom_site_fract_z
O1 O 0.10340(12) 0.1713(2) 0.50902(5)
N1 N 0.2655(2) 0.3088(3) 0.57043(7)
N2 N 0.2046(2) 0.2245(3) 0.59736(7)
N3 N 0.1468(3) 0.1634(4) 0.62520(8)
C1 C 0.3158(2) 0.2180(3) 0.53118(6)
H1 H 0.3638 0.1219 0.54192
H2 H 0.3740 0.2907 0.51490
C2 C 0.2146(2) 0.1578(2) 0.49862(6)
C3 C 0.25526(15) 0.0796(2) 0.45529(6)
C4 C 0.3824(2) 0.0689(2) 0.44259(6)
H3 H 0.4450 0.1116 0.46168
C5 C 0.4161(2) -0.0046(2) 0.40187(6)
H4 H 0.5015 -0.0106 0.39399
C6 C 0.3257(2) -0.0698(2) 0.37227(6)
C7 C 0.1984(2) -0.0577(2) 0.38512(6)
H5 H 0.1358 -0.0994 0.36588
C8 C 0.1641(2) 0.0147(2) 0.42564(6)
H6 H 0.0786 0.0206 0.43349
C9 C 0.3642(2) -0.1485(2) 0.32875(6)
C10 C 0.4740(2) -0.2456(3) 0.32587(8)
H7 H 0.5235 -0.2622 0.35167
C11 C 0.5096(3) -0.3166(3) 0.28545(10)
H8 H 0.5832 -0.3811 0.28413
C12 C 0.4388(3) -0.2941(4) 0.24703(10)
H9 H 0.4640 -0.3429 0.21975
C13 C 0.3300(3) -0.1993(3) 0.24884(8)
H10 H 0.2819 -0.1831 0.22269
C14 C 0.2918(2) -0.1276(3) 0.28956(6)
H11 H 0.2173 -0.0650 0.29069
loop_
_geom_bond_atom_site_label_1
_geom_bond_atom_site_label_2
_geom_bond_site_symmetry_1
_geom_bond_site_symmetry_2
O1 C2 1_555 1_555
N1 N2 1_555 1_555
N2 N3 1_555 1_555
C1 N1 1_555 1_555
H1 C1 1_555 1_555
H2 C1 1_555 1_555
C2 C1 1_555 1_555
C3 C2 1_555 1_555
C4 C3 1_555 1_555
H3 C4 1_555 1_555
C5 C4 1_555 1_555
H4 C5 1_555 1_555
C6 C5 1_555 1_555
C7 C6 1_555 1_555
H5 C7 1_555 1_555
C8 C3 1_555 1_555
H6 C8 1_555 1_555
C9 C6 1_555 1_555
C10 C9 1_555 1_555
H7 C10 1_555 1_555
C11 C10 1_555 1_555
H8 C11 1_555 1_555
C12 C11 1_555 1_555
H9 C12 1_555 1_555
C13 C12 1_555 1_555
H10 C13 1_555 1_555
C14 C9 1_555 1_555
H11 C14 1_555 1_555
C7 C8 1_555 1_555
C13 C14 1_555 1_555

#END
