
#######################################################################
#
#                 Cambridge Crystallographic Data Centre
#                                CCDC 
#
#######################################################################
#
# If this CIF has been generated from an entry in the Cambridge 
# Structural Database, then it will include bibliographic, chemical, 
# crystal, experimental, refinement or atomic coordinate data resulting 
# from the CCDC's data processing and validation procedures.
#
#######################################################################

data_PEPSIN
_chemical_formula_moiety         'C8 H6 Br1 N3 O1'
_chemical_name_systematic        2-azido-1-(4-bromophenyl)ethanone
_symmetry_cell_setting           triclinic
_symmetry_space_group_name_H-M   'P -1'
_symmetry_Int_Tables_number      2
_space_group_name_Hall           '-P 1'
loop_
_symmetry_equiv_pos_site_id
_symmetry_equiv_pos_as_xyz
1 x,y,z
2 -x,-y,-z
_cell_length_a                   9.2953(3)
_cell_length_b                   10.7596(3)
_cell_length_c                   10.7786(2)
_cell_angle_alpha                93.6740(10)
_cell_angle_beta                 110.3140(10)
_cell_angle_gamma                111.8760(10)
_cell_volume                     914.696
_exptl_crystal_colour            colorless
_exptl_crystal_description       plate
_cell_formula_units_Z            4
loop_
_atom_site_label
_atom_site_type_symbol
_atom_site_fract_x
_atom_site_fract_y
_atom_site_fract_z
Br1 Br 1.31947(4) 0.80373(3) 0.36219(4)
O1 O 0.6788(3) 0.1689(2) 0.0196(3)
N1 N 0.7773(4) -0.0264(3) -0.0475(3)
N2 N 0.6467(4) -0.0615(3) -0.1507(3)
N3 N 0.5242(4) -0.1116(3) -0.2431(4)
C1 C 1.1681(4) 0.6219(3) 0.2578(3)
C2 C 0.9967(4) 0.5791(3) 0.2240(3)
H1 H 0.9554 0.6386 0.2492
C3 C 0.8883(4) 0.4462(3) 0.1520(3)
H2 H 0.7727 0.4162 0.1284
C4 C 0.9487(4) 0.3565(3) 0.1141(3)
C5 C 1.1217(4) 0.4038(3) 0.1478(3)
H3 H 1.1638 0.3452 0.1219
C6 C 1.2321(4) 0.5375(3) 0.2198(3)
H4 H 1.3475 0.5691 0.2417
C7 C 0.8276(4) 0.2124(3) 0.0409(3)
C8 C 0.8934(4) 0.1191(3) -0.0073(3)
H5 H 0.9186 0.1467 -0.0840
H6 H 0.9986 0.1311 0.0647
Br2 Br 1.33262(4) 0.53390(3) 0.60383(4)
O2 O 0.9377(3) -0.1311(2) 0.2436(2)
N4 N 0.5996(4) -0.2661(3) 0.1794(3)
N5 N 0.6034(4) -0.3050(3) 0.0715(3)
N6 N 0.5918(4) -0.3554(3) -0.0287(4)
C9 C 1.1900(4) 0.3521(3) 0.4996(3)
C10 C 1.0181(4) 0.3056(3) 0.4565(3)
H7 H 0.9718 0.3632 0.4770
C11 C 0.9143(3) 0.1729(3) 0.3827(3)
H8 H 0.7976 0.1415 0.3529
C12 C 0.9823(3) 0.0849(3) 0.3521(3)
C13 C 1.1570(4) 0.1358(3) 0.3956(3)
H9 H 1.2043 0.0795 0.3743
C14 C 1.2614(4) 0.2687(3) 0.4702(3)
H10 H 1.3782 0.3015 0.5000
C15 C 0.8756(4) -0.0603(3) 0.2739(3)
C16 C 0.6867(4) -0.1161(3) 0.2325(3)
H11 H 0.6642 -0.0935 0.3103
H12 H 0.6408 -0.0717 0.1634
loop_
_geom_bond_atom_site_label_1
_geom_bond_atom_site_label_2
_geom_bond_site_symmetry_1
_geom_bond_site_symmetry_2
Br1 C1 1_555 1_555
O1 C7 1_555 1_555
N1 N2 1_555 1_555
N2 N3 1_555 1_555
C1 C2 1_555 1_555
C2 H1 1_555 1_555
C3 C2 1_555 1_555
H2 C3 1_555 1_555
C4 C3 1_555 1_555
C5 C4 1_555 1_555
H3 C5 1_555 1_555
C6 C1 1_555 1_555
H4 C6 1_555 1_555
C7 C4 1_555 1_555
C8 N1 1_555 1_555
H5 C8 1_555 1_555
H6 C8 1_555 1_555
Br2 C9 1_555 1_555
O2 C15 1_555 1_555
N4 N5 1_555 1_555
N5 N6 1_555 1_555
C9 C10 1_555 1_555
C10 H7 1_555 1_555
C11 C10 1_555 1_555
H8 C11 1_555 1_555
C12 C11 1_555 1_555
C13 C12 1_555 1_555
H9 C13 1_555 1_555
C14 C9 1_555 1_555
H10 C14 1_555 1_555
C15 C12 1_555 1_555
C16 N4 1_555 1_555
H11 C16 1_555 1_555
H12 C16 1_555 1_555
C5 C6 1_555 1_555
C7 C8 1_555 1_555
C13 C14 1_555 1_555
C15 C16 1_555 1_555

#END
