
#######################################################################
#
#                 Cambridge Crystallographic Data Centre
#                                CCDC 
#
#######################################################################
#
# If this CIF has been generated from an entry in the Cambridge 
# Structural Database, then it will include bibliographic, chemical, 
# crystal, experimental, refinement or atomic coordinate data resulting 
# from the CCDC's data processing and validation procedures.
#
#######################################################################

data_PEPVEO
_chemical_formula_moiety         '2(C29 H35 N1 O2),C3 H8 O1'
_chemical_name_systematic        
'11-(4-(dimethylamino)phenyl)-17-hydroxy-13-methyl-17-(prop-1-yn-1-yl)-1,2,6,7,8,11,12,13,14,15,16,17-dodecahydro-3H-cyclopenta[a]phenanthren-3-one propan-1-ol solvate'
_symmetry_cell_setting           orthorhombic
_symmetry_space_group_name_H-M   'P 21 21 21'
_symmetry_Int_Tables_number      19
_space_group_name_Hall           'P 2ac 2ab'
loop_
_symmetry_equiv_pos_site_id
_symmetry_equiv_pos_as_xyz
1 x,y,z
2 1/2-x,-y,1/2+z
3 1/2+x,1/2-y,-z
4 -x,1/2+y,1/2-z
_cell_length_a                   11.80349(8)
_cell_length_b                   16.53399(12)
_cell_length_c                   25.65123(18)
_cell_angle_alpha                90
_cell_angle_beta                 90
_cell_angle_gamma                90
_cell_volume                     5006.06
_exptl_crystal_colour            colorless
_exptl_crystal_description       block
_cell_formula_units_Z            4
loop_
_atom_site_label
_atom_site_type_symbol
_atom_site_fract_x
_atom_site_fract_y
_atom_site_fract_z
O1 O 0.61013(14) 0.85952(11) 0.19853(7)
O2 O -0.26196(12) 0.75538(10) 0.12444(6)
H1 H -0.2802 0.7736 0.1530
N1 N -0.02807(17) 1.21761(13) 0.05233(9)
C1 C 0.04329(18) 0.99462(12) 0.12792(8)
C2 C 0.10377(19) 1.11093(13) 0.07700(9)
H2 H 0.1616 1.1378 0.0595
C3 C -0.03052(17) 0.85687(12) 0.16435(8)
H3 H -0.0116 0.8192 0.1920
H4 H -0.0954 0.8882 0.1758
C4 C 0.35536(18) 0.80358(13) 0.13175(8)
C5 C -0.12073(18) 0.86201(13) 0.07391(8)
H5 H -0.1866 0.8876 0.0884
H6 H -0.1427 0.8291 0.0448
H7 H -0.0682 0.9027 0.0625
C6 C 0.13573(18) 0.82464(12) 0.08042(8)
H8 H 0.1032 0.8646 0.0565
C7 C 0.43532(18) 0.93323(13) 0.19541(9)
H9 H 0.4430 0.9738 0.1683
H10 H 0.4594 0.9573 0.2281
C8 C 0.27235(18) 0.86188(12) 0.15201(8)
C9 C -0.06408(17) 0.80868(12) 0.11566(7)
C10 C 0.04132(17) 0.76484(12) 0.09518(8)
H11 H 0.0704 0.7318 0.1239
C11 C -0.14461(17) 0.73489(13) 0.12498(8)
C12 C 0.31109(19) 0.90816(14) 0.19978(8)
H12 H 0.3011 0.8746 0.2305
H13 H 0.2645 0.9561 0.2040
C13 C 0.51078(19) 0.86233(14) 0.18290(9)
C14 C 0.12603(18) 1.03689(13) 0.10069(9)
H14 H 0.1984 1.0151 0.0982
C15 C 0.16826(17) 0.86880(12) 0.13054(7)
C16 C 0.07132(17) 0.91513(12) 0.15600(8)
H15 H 0.0979 0.9302 0.1909
C17 C -0.00461(19) 0.70633(14) 0.05422(9)
H16 H 0.0453 0.6602 0.0500
H17 H -0.0136 0.7330 0.0208
C18 C -0.12098(19) 0.68017(13) 0.07671(8)
H18 H -0.1190 0.6237 0.0870
H19 H -0.1800 0.6871 0.0508
C19 C -0.11750(18) 0.69071(13) 0.17361(8)
C20 C -0.00407(18) 1.14561(13) 0.07908(9)
C21 C 0.46347(19) 0.80112(14) 0.14903(9)
H20 H 0.5093 0.7583 0.1387
C22 C 0.0634(2) 1.27008(14) 0.03749(9)
H21 H 0.1053 1.2856 0.0680
H22 H 0.0333 1.3175 0.0209
H23 H 0.1126 1.2422 0.0137
C23 C 0.23721(19) 0.78609(14) 0.05334(9)
H24 H 0.2108 0.7475 0.0276
H25 H 0.2803 0.8276 0.0354
C24 C 0.3130(2) 0.74344(14) 0.09230(9)
H26 H 0.2708 0.7010 0.1098
H27 H 0.3766 0.7189 0.0744
C25 C -0.1013(2) 0.65009(15) 0.21127(10)
C26 C -0.06255(18) 1.03147(13) 0.13153(9)
H28 H -0.1193 1.0059 0.1505
C27 C -0.08630(19) 1.10470(13) 0.10787(9)
H29 H -0.1583 1.1270 0.1112
C28 C -0.1361(2) 1.25686(16) 0.06284(11)
H30 H -0.1967 1.2231 0.0506
H31 H -0.1387 1.3080 0.0451
H32 H -0.1440 1.2654 0.0997
C29 C -0.0877(3) 0.59738(19) 0.25649(12)
H33 H -0.1200 0.5454 0.2491
H34 H -0.1256 0.6208 0.2860
H35 H -0.0086 0.5913 0.2642
O3 O 0.76557(12) 0.48186(10) 0.11524(6)
H36 H 0.7823 0.4610 0.1432
O4 O -0.11206(15) 0.38684(12) 0.19247(8)
C30 C 0.33030(18) 0.37718(12) 0.12475(8)
C31 C 0.50859(19) 0.53463(13) 0.04578(8)
H37 H 0.4615 0.5821 0.0410
H38 H 0.5147 0.5062 0.0128
C32 C 0.53064(17) 0.38792(12) 0.15849(8)
H39 H 0.5139 0.4269 0.1857
H40 H 0.5947 0.3558 0.1700
C33 C 0.36343(17) 0.42119(12) 0.07484(8)
H41 H 0.3942 0.3806 0.0508
C34 C 0.22538(18) 0.38300(12) 0.14567(8)
C35 C 0.56414(16) 0.43347(12) 0.10919(8)
C36 C 0.14248(19) 0.44207(13) 0.12564(9)
C37 C 0.45180(17) 0.24960(12) 0.12543(8)
C38 C 0.06095(18) 0.31185(14) 0.18886(8)
H42 H 0.0521 0.2713 0.1619
H43 H 0.0367 0.2881 0.2216
C39 C 0.45986(17) 0.47907(12) 0.08845(8)
H44 H 0.4327 0.5140 0.1167
C40 C -0.01334(19) 0.38310(15) 0.17647(9)
C41 C 0.18652(19) 0.33540(14) 0.19292(9)
H45 H 0.1980 0.3677 0.2241
H46 H 0.2320 0.2868 0.1961
C42 C 0.39860(19) 0.13809(14) 0.06857(10)
H47 H 0.3481 0.1170 0.0443
C43 C 0.03460(19) 0.44447(14) 0.14262(9)
H48 H -0.0112 0.4873 0.1322
C44 C 0.26307(19) 0.46100(14) 0.04771(9)
H49 H 0.2201 0.4203 0.0290
H50 H 0.2904 0.5003 0.0226
C45 C 0.62603(18) 0.55277(13) 0.16395(9)
C46 C 0.61541(19) 0.37600(13) 0.06806(9)
H51 H 0.6774 0.3467 0.0832
H52 H 0.6422 0.4070 0.0389
H53 H 0.5585 0.3386 0.0565
C47 C 0.1862(2) 0.50293(14) 0.08716(10)
H54 H 0.2283 0.5447 0.1053
H55 H 0.1232 0.5283 0.0692
C48 C 0.64898(17) 0.50587(13) 0.11617(8)
N2 N 0.5102(2) 0.01484(14) 0.06442(13)
C49 C 0.37884(18) 0.21450(13) 0.08955(9)
H56 H 0.3147 0.2429 0.0792
C50 C 0.42615(17) 0.33115(12) 0.15141(8)
H57 H 0.3991 0.3186 0.1866
C51 C 0.6162(2) -0.02542(15) 0.07358(11)
H58 H 0.6150 -0.0777 0.0573
H59 H 0.6275 -0.0317 0.1104
H60 H 0.6768 0.0062 0.0592
C52 C 0.62682(19) 0.55816(14) 0.06678(9)
H61 H 0.6287 0.6152 0.0756
H62 H 0.6844 0.5477 0.0406
C53 C 0.54628(19) 0.20427(14) 0.13957(9)
H63 H 0.5973 0.2261 0.1633
C54 C 0.4376(2) -0.01629(16) 0.02451(12)
H64 H 0.4397 0.0190 -0.0052
H65 H 0.3614 -0.0195 0.0375
H66 H 0.4629 -0.0692 0.0145
C55 C 0.49307(19) 0.09250(14) 0.08339(10)
C56 C 0.5671(2) 0.12774(14) 0.11954(10)
H67 H 0.6311 0.0994 0.1303
C57 C 0.6134(2) 0.59476(14) 0.20113(9)
C58 C 0.6027(3) 0.64868(18) 0.24622(11)
H68 H 0.6522 0.6942 0.2419
H69 H 0.6231 0.6199 0.2773
H70 H 0.5259 0.6672 0.2490
C59 C 0.7917(4) 1.1839(2) 0.24806(16)
H71 H 0.8292 1.1649 0.2172
H72 H 0.8414 1.2193 0.2670
H73 H 0.7243 1.2128 0.2384
C60 C 0.6913(4) 1.0483(2) 0.26013(15)
H74 H 0.6790 1.0092 0.2877
H75 H 0.6179 1.0711 0.2515
C61 C 0.7607(4) 1.1136(3) 0.28164(18)
H76 H 0.8307 1.0896 0.2940
H77 H 0.7214 1.1347 0.3119
O5 O 0.7290(3) 1.00716(19) 0.21747(12)
H78 H 0.6956 0.9638 0.2153
loop_
_geom_bond_atom_site_label_1
_geom_bond_atom_site_label_2
_geom_bond_site_symmetry_1
_geom_bond_site_symmetry_2
O1 C13 1_555 1_555
O2 H1 1_555 1_555
N1 C20 1_555 1_555
C1 C14 1_555 1_555
C2 H2 1_555 1_555
C3 H3 1_555 1_555
H4 C3 1_555 1_555
C4 C8 1_555 1_555
C5 H5 1_555 1_555
H6 C5 1_555 1_555
H7 C5 1_555 1_555
C6 H8 1_555 1_555
C7 H9 1_555 1_555
H10 C7 1_555 1_555
C8 C12 1_555 1_555
C9 C3 1_555 1_555
C10 C6 1_555 1_555
H11 C10 1_555 1_555
C11 O2 1_555 1_555
C12 C7 1_555 1_555
H12 C12 1_555 1_555
H13 C12 1_555 1_555
C13 C7 1_555 1_555
C14 C2 1_555 1_555
H14 C14 1_555 1_555
C15 C6 1_555 1_555
C16 C1 1_555 1_555
H15 C16 1_555 1_555
C17 C10 1_555 1_555
H16 C17 1_555 1_555
H17 C17 1_555 1_555
C18 C11 1_555 1_555
H18 C18 1_555 1_555
H19 C18 1_555 1_555
C19 C11 1_555 1_555
C20 C2 1_555 1_555
C21 C4 1_555 1_555
H20 C21 1_555 1_555
C22 N1 1_555 1_555
H21 C22 1_555 1_555
H22 C22 1_555 1_555
H23 C22 1_555 1_555
C23 C6 1_555 1_555
H24 C23 1_555 1_555
H25 C23 1_555 1_555
C24 C4 1_555 1_555
H26 C24 1_555 1_555
H27 C24 1_555 1_555
C25 C19 1_555 1_555
C26 C1 1_555 1_555
H28 C26 1_555 1_555
C27 C20 1_555 1_555
H29 C27 1_555 1_555
C28 N1 1_555 1_555
H30 C28 1_555 1_555
H31 C28 1_555 1_555
H32 C28 1_555 1_555
C29 C25 1_555 1_555
H33 C29 1_555 1_555
H34 C29 1_555 1_555
H35 C29 1_555 1_555
O3 H36 1_555 1_555
O4 C40 1_555 1_555
C30 C33 1_555 1_555
C31 H37 1_555 1_555
H38 C31 1_555 1_555
C32 H39 1_555 1_555
H40 C32 1_555 1_555
C33 H41 1_555 1_555
C34 C30 1_555 1_555
C35 C32 1_555 1_555
C36 C34 1_555 1_555
C37 C49 1_555 1_555
C38 H42 1_555 1_555
H43 C38 1_555 1_555
C39 C31 1_555 1_555
H44 C39 1_555 1_555
C40 C38 1_555 1_555
C41 C34 1_555 1_555
H45 C41 1_555 1_555
H46 C41 1_555 1_555
C42 H47 1_555 1_555
C43 C36 1_555 1_555
H48 C43 1_555 1_555
C44 C33 1_555 1_555
H49 C44 1_555 1_555
H50 C44 1_555 1_555
C45 C48 1_555 1_555
C46 C35 1_555 1_555
H51 C46 1_555 1_555
H52 C46 1_555 1_555
H53 C46 1_555 1_555
C47 C36 1_555 1_555
H54 C47 1_555 1_555
H55 C47 1_555 1_555
C48 O3 1_555 1_555
N2 C51 1_555 1_555
C49 C42 1_555 1_555
H56 C49 1_555 1_555
C50 C30 1_555 1_555
H57 C50 1_555 1_555
C51 H58 1_555 1_555
H59 C51 1_555 1_555
H60 C51 1_555 1_555
C52 C31 1_555 1_555
H61 C52 1_555 1_555
H62 C52 1_555 1_555
C53 C37 1_555 1_555
H63 C53 1_555 1_555
C54 N2 1_555 1_555
H64 C54 1_555 1_555
H65 C54 1_555 1_555
H66 C54 1_555 1_555
C55 C42 1_555 1_555
C56 C53 1_555 1_555
H67 C56 1_555 1_555
C57 C45 1_555 1_555
C58 C57 1_555 1_555
H68 C58 1_555 1_555
H69 C58 1_555 1_555
H70 C58 1_555 1_555
C59 H71 1_555 1_555
H72 C59 1_555 1_555
H73 C59 1_555 1_555
C60 H74 1_555 1_555
H75 C60 1_555 1_555
C61 C59 1_555 1_555
H76 C61 1_555 1_555
H77 C61 1_555 1_555
O5 C60 1_555 1_555
H78 O5 1_555 1_555
C3 C16 1_555 1_555
C5 C9 1_555 1_555
C8 C15 1_555 1_555
C9 C10 1_555 1_555
C9 C11 1_555 1_555
C13 C21 1_555 1_555
C15 C16 1_555 1_555
C17 C18 1_555 1_555
C23 C24 1_555 1_555
C26 C27 1_555 1_555
C32 C50 1_555 1_555
C33 C39 1_555 1_555
C35 C39 1_555 1_555
C35 C48 1_555 1_555
C37 C50 1_555 1_555
C38 C41 1_555 1_555
C40 C43 1_555 1_555
C44 C47 1_555 1_555
C48 C52 1_555 1_555
N2 C55 1_555 1_555
C55 C56 1_555 1_555
C60 C61 1_555 1_555

#END
