
#######################################################################
#
#                 Cambridge Crystallographic Data Centre
#                                CCDC 
#
#######################################################################
#
# If this CIF has been generated from an entry in the Cambridge 
# Structural Database, then it will include bibliographic, chemical, 
# crystal, experimental, refinement or atomic coordinate data resulting 
# from the CCDC's data processing and validation procedures.
#
#######################################################################

data_PEPVOY
_chemical_formula_moiety         'C20 H24 O2,C1 H3 N1 O1'
_chemical_name_systematic        
'19-norpregna-1,3,5(10)-trien-20-yne-3,17-diol formamide solvate'
_symmetry_cell_setting           orthorhombic
_symmetry_space_group_name_H-M   'P 21 21 21'
_symmetry_Int_Tables_number      19
_space_group_name_Hall           'P 2ac 2ab'
loop_
_symmetry_equiv_pos_site_id
_symmetry_equiv_pos_as_xyz
1 x,y,z
2 1/2-x,-y,1/2+z
3 1/2+x,1/2-y,-z
4 -x,1/2+y,1/2-z
_cell_length_a                   7.77971(8)
_cell_length_b                   18.98204(19)
_cell_length_c                   24.4280(2)
_cell_angle_alpha                90
_cell_angle_beta                 90
_cell_angle_gamma                90
_cell_volume                     3607.4
_exptl_crystal_colour            colorless
_exptl_crystal_description       needle
_cell_formula_units_Z            8
loop_
_atom_site_label
_atom_site_type_symbol
_atom_site_fract_x
_atom_site_fract_y
_atom_site_fract_z
O1 O 0.39621(13) 0.68292(5) 0.20440(4)
H1 H 0.3203 0.6849 0.2277
O2 O 0.90674(14) 0.58871(6) -0.20683(4)
H2 H 0.8378 0.5988 -0.2310
C1 C 0.66945(18) 0.59661(7) -0.05286(5)
C2 C 0.65763(19) 0.61280(7) -0.15111(5)
H3 H 0.5967 0.6262 -0.1822
C3 C 0.30740(18) 0.62464(8) -0.04332(5)
H4 H 0.1986 0.6494 -0.0406
H5 H 0.2846 0.5744 -0.0416
C4 C 0.39422(19) 0.64264(8) -0.09733(5)
H6 H 0.3291 0.6219 -0.1271
H7 H 0.3936 0.6934 -0.1022
C5 C 0.57768(19) 0.61627(7) -0.09987(5)
C6 C 0.58497(18) 0.59889(7) 0.00366(5)
H8 H 0.5444 0.5509 0.0109
C7 C 0.33683(17) 0.64041(7) 0.05951(5)
H9 H 0.3070 0.5907 0.0647
C8 C 0.45619(18) 0.66068(7) 0.10706(5)
C9 C 0.9156(2) 0.56864(8) -0.11077(6)
H10 H 1.0275 0.5519 -0.1141
C10 C 0.42372(17) 0.64596(7) 0.00381(5)
H11 H 0.4597 0.6949 -0.0018
C11 C 0.17311(19) 0.68286(8) 0.07057(5)
H12 H 0.0731 0.6591 0.0557
H13 H 0.1810 0.7295 0.0545
C12 C 0.83756(19) 0.57251(7) -0.05988(5)
H14 H 0.8996 0.5585 -0.0292
C13 C 0.82467(19) 0.58996(7) -0.15645(5)
C14 C 0.16270(19) 0.68730(8) 0.13397(5)
H15 H 0.0616 0.6629 0.1473
H16 H 0.1574 0.7360 0.1458
C15 C 0.32900(18) 0.65145(7) 0.15552(5)
C16 C 0.61584(18) 0.61387(8) 0.10665(5)
H17 H 0.5829 0.5656 0.1143
H18 H 0.6943 0.6291 0.1351
C17 C 0.5101(2) 0.73854(8) 0.10437(6)
H19 H 0.5633 0.7479 0.0697
H20 H 0.5902 0.7484 0.1333
H21 H 0.4105 0.7679 0.1085
C18 C 0.29401(19) 0.57608(8) 0.16649(5)
C19 C 0.70680(18) 0.61741(8) 0.05078(5)
H22 H 0.7517 0.6645 0.0452
H23 H 0.8031 0.5849 0.0507
C20 C 0.2631(2) 0.51639(9) 0.17699(6)
H24 H 0.2388 0.4696 0.1852
O3 O 0.14891(14) 0.68424(5) 0.28698(4)
O4 O -0.31703(14) 0.59670(6) 0.70922(4)
H25 H -0.4199 0.6062 0.7091
C21 C -0.28203(19) 0.57888(7) 0.55983(5)
H26 H -0.3486 0.5649 0.5301
C22 C -0.08800(19) 0.61934(8) 0.64802(5)
H27 H -0.0222 0.6328 0.6780
C23 C 0.20331(17) 0.63814(7) 0.43256(5)
H28 H 0.2236 0.5876 0.4278
C24 C -0.01590(18) 0.62195(8) 0.59580(5)
C25 C -0.35307(19) 0.57588(7) 0.61194(5)
H29 H -0.4648 0.5598 0.6170
C26 C 0.12659(17) 0.64754(7) 0.48929(5)
H30 H 0.0948 0.6972 0.4938
C27 C 0.08067(18) 0.66090(7) 0.38633(5)
C28 C -0.03724(18) 0.60289(7) 0.49278(5)
H31 H -0.0022 0.5543 0.4850
C29 C -0.25510(19) 0.59722(8) 0.65604(6)
C30 C -0.16552(18) 0.62310(8) 0.44771(5)
H32 H -0.2054 0.6709 0.4539
H33 H -0.2643 0.5920 0.4496
C31 C 0.0402(2) 0.73979(8) 0.38872(6)
H34 H -0.0124 0.7508 0.4232
H35 H -0.0370 0.7518 0.3595
H36 H 0.1448 0.7662 0.3849
C32 C 0.19858(18) 0.64732(7) 0.33589(5)
C33 C -0.08539(18) 0.61827(8) 0.39030(5)
H37 H -0.0613 0.5693 0.3818
H38 H -0.1670 0.6357 0.3635
C34 C 0.24780(18) 0.62718(8) 0.53571(5)
H39 H 0.2688 0.5768 0.5349
H40 H 0.3570 0.6512 0.5313
C35 C 0.37205(19) 0.67543(9) 0.41835(6)
H41 H 0.4698 0.6497 0.4328
H42 H 0.3736 0.7229 0.4329
C36 C 0.16703(19) 0.64772(8) 0.59015(5)
H43 H 0.2355 0.6283 0.6197
H44 H 0.1686 0.6986 0.5936
C37 C 0.20949(18) 0.57149(8) 0.32286(5)
C38 C 0.37520(18) 0.67633(8) 0.35502(5)
H45 H 0.4677 0.6469 0.3414
H46 H 0.3921 0.7239 0.3416
C39 C 0.2163(2) 0.51135(8) 0.30965(6)
H47 H 0.2216 0.4642 0.2993
C40 C -0.11460(18) 0.60212(7) 0.55040(5)
H48 H 0.058(3) 0.6653(9) 0.2741(7)
O5 O 0.84511(14) 0.64126(5) 0.24498(4)
C41 C 0.78652(19) 0.58254(8) 0.25505(6)
H49 H 0.8634 0.5477 0.2659
N1 N 0.62397(17) 0.56537(7) 0.25156(5)
H50 H 0.5739 0.5959 0.2404
H51 H 0.583(3) 0.5217(11) 0.2584(8)
O6 O 1.35669(13) 0.62717(5) -0.26788(4)
N2 N 1.1767(2) 0.71090(8) -0.23693(6)
H52 H 1.1204 0.6798 -0.2308
C42 C 1.3225(2) 0.68909(8) -0.25785(5)
H53 H 1.4058 0.7228 -0.2656
H54 H 1.164(3) 0.7543(14) -0.2330(10)
loop_
_geom_bond_atom_site_label_1
_geom_bond_atom_site_label_2
_geom_bond_site_symmetry_1
_geom_bond_site_symmetry_2
O1 H1 1_555 1_555
O2 H2 1_555 1_555
C1 C5 1_555 1_555
C2 H3 1_555 1_555
C3 H4 1_555 1_555
H5 C3 1_555 1_555
C4 C3 1_555 1_555
H6 C4 1_555 1_555
H7 C4 1_555 1_555
C5 C2 1_555 1_555
C6 C1 1_555 1_555
H8 C6 1_555 1_555
C7 H9 1_555 1_555
C8 C7 1_555 1_555
C9 H10 1_555 1_555
C10 C3 1_555 1_555
H11 C10 1_555 1_555
C11 C7 1_555 1_555
H12 C11 1_555 1_555
H13 C11 1_555 1_555
C12 C1 1_555 1_555
H14 C12 1_555 1_555
C13 O2 1_555 1_555
C14 C11 1_555 1_555
H15 C14 1_555 1_555
H16 C14 1_555 1_555
C15 O1 1_555 1_555
C16 C8 1_555 1_555
H17 C16 1_555 1_555
H18 C16 1_555 1_555
C17 C8 1_555 1_555
H19 C17 1_555 1_555
H20 C17 1_555 1_555
H21 C17 1_555 1_555
C18 C15 1_555 1_555
C19 C6 1_555 1_555
H22 C19 1_555 1_555
H23 C19 1_555 1_555
C20 C18 1_555 1_555
H24 C20 1_555 1_555
O3 C32 1_555 1_555
O4 H25 1_555 1_555
C21 H26 1_555 1_555
C22 H27 1_555 1_555
C23 H28 1_555 1_555
C24 C22 1_555 1_555
C25 C21 1_555 1_555
H29 C25 1_555 1_555
C26 C23 1_555 1_555
H30 C26 1_555 1_555
C27 C23 1_555 1_555
C28 C26 1_555 1_555
H31 C28 1_555 1_555
C29 O4 1_555 1_555
C30 C28 1_555 1_555
H32 C30 1_555 1_555
H33 C30 1_555 1_555
C31 C27 1_555 1_555
H34 C31 1_555 1_555
H35 C31 1_555 1_555
H36 C31 1_555 1_555
C32 C27 1_555 1_555
C33 C27 1_555 1_555
H37 C33 1_555 1_555
H38 C33 1_555 1_555
C34 C26 1_555 1_555
H39 C34 1_555 1_555
H40 C34 1_555 1_555
C35 C23 1_555 1_555
H41 C35 1_555 1_555
H42 C35 1_555 1_555
C36 C24 1_555 1_555
H43 C36 1_555 1_555
H44 C36 1_555 1_555
C37 C32 1_555 1_555
C38 C32 1_555 1_555
H45 C38 1_555 1_555
H46 C38 1_555 1_555
C39 C37 1_555 1_555
H47 C39 1_555 1_555
C40 C21 1_555 1_555
H48 O3 1_555 1_555
O5 C41 1_555 1_555
C41 H49 1_555 1_555
N1 C41 1_555 1_555
H50 N1 1_555 1_555
H51 N1 1_555 1_555
O6 C42 1_555 1_555
N2 H52 1_555 1_555
C42 N2 1_555 1_555
H53 C42 1_555 1_555
H54 N2 1_555 1_555
C2 C13 1_555 1_555
C4 C5 1_555 1_555
C6 C10 1_555 1_555
C7 C10 1_555 1_555
C8 C15 1_555 1_555
C9 C12 1_555 1_555
C9 C13 1_555 1_555
C14 C15 1_555 1_555
C16 C19 1_555 1_555
C22 C29 1_555 1_555
C24 C40 1_555 1_555
C25 C29 1_555 1_555
C28 C40 1_555 1_555
C30 C33 1_555 1_555
C34 C36 1_555 1_555
C35 C38 1_555 1_555

#END
