
#######################################################################
#
#                 Cambridge Crystallographic Data Centre
#                                CCDC 
#
#######################################################################
#
# If this CIF has been generated from an entry in the Cambridge 
# Structural Database, then it will include bibliographic, chemical, 
# crystal, experimental, refinement or atomic coordinate data resulting 
# from the CCDC's data processing and validation procedures.
#
#######################################################################

data_PEPXEQ
_chemical_formula_moiety         'C70 H84 Mg1 N4 Si2'
_chemical_name_systematic        
(5,15-bis((4-hexylphenyl)ethynyl)-10,20-bis((triisopropylsilyl)ethynyl)porphyrinato)-magnesium
_symmetry_cell_setting           triclinic
_symmetry_space_group_name_H-M   'P -1'
_symmetry_Int_Tables_number      2
_space_group_name_Hall           '-P 1'
loop_
_symmetry_equiv_pos_site_id
_symmetry_equiv_pos_as_xyz
1 x,y,z
2 -x,-y,-z
_cell_length_a                   8.4747(5)
_cell_length_b                   13.7672(8)
_cell_length_c                   13.9878(8)
_cell_angle_alpha                82.573(3)
_cell_angle_beta                 83.187(3)
_cell_angle_gamma                82.072(3)
_cell_volume                     1594.37
_exptl_crystal_colour            green
_exptl_crystal_description       prism
_cell_formula_units_Z            1
loop_
_atom_site_label
_atom_site_type_symbol
_atom_site_fract_x
_atom_site_fract_y
_atom_site_fract_z
Si1 Si 0.2825(2) 0.26433(15) -0.48795(13)
Mg1 Mg 0.0000 0.5000 0.0000
N1 N 0.1950(5) 0.5029(3) -0.1017(3)
N2 N 0.1060(5) 0.5804(3) 0.0814(3)
C1 C 0.2165(7) 0.4574(4) -0.1861(4)
C2 C 0.3688(7) 0.4764(5) -0.2378(4)
H1 H 0.4135 0.4541 -0.2962
C3 C 0.4335(7) 0.5325(5) -0.1849(4)
H2 H 0.5312 0.5571 -0.2007
C4 C 0.3263(6) 0.5476(4) -0.1006(4)
C5 C 0.3550(6) 0.6013(4) -0.0258(4)
C6 C 0.2505(6) 0.6163(4) 0.0582(4)
C7 C 0.2769(7) 0.6723(5) 0.1336(5)
H3 H 0.3674 0.7029 0.1358
C8 C 0.1507(7) 0.6728(5) 0.1994(4)
H4 H 0.1362 0.7044 0.2553
C9 C 0.0414(7) 0.6163(4) 0.1688(4)
C10 C 0.1080(7) 0.4024(4) -0.2151(4)
C11 C 0.5004(7) 0.6432(4) -0.0376(4)
C12 C 0.6253(7) 0.6780(4) -0.0487(4)
C13 C 0.7727(7) 0.7187(4) -0.0616(5)
C14 C 0.8844(8) 0.7042(5) -0.1404(5)
H5 H 0.8631 0.6653 -0.1858
C15 C 1.0251(8) 0.7447(6) -0.1541(6)
H6 H 1.0969 0.7324 -0.2081
C16 C 1.0615(8) 0.8015(6) -0.0916(7)
C17 C 0.9526(10) 0.8183(5) -0.0118(6)
H7 H 0.9752 0.8595 0.0311
C18 C 0.8124(7) 0.7766(5) 0.0064(5)
H8 H 0.7447 0.7862 0.0627
C19 C 1.2183(10) 0.8488(7) -0.1041(8)
H9 H 1.2464 0.8570 -0.0406
H10 H 1.3035 0.8044 -0.1338
C20 C 1.2081(13) 0.9404(9) -0.1607(8)
H11 H 1.1057 0.9763 -0.1400
H12 H 1.2026 0.9275 -0.2267
C21 C 1.3307(18) 1.0100(11) -0.1653(12)
H13 H 1.3169 1.0569 -0.2226
H14 H 1.3031 1.0469 -0.1098
C22 C 1.4988(18) 0.9749(10) -0.1675(12)
H15 H 1.5338 0.9402 -0.2239
H16 H 1.5197 0.9297 -0.1099
C23 C 1.758(2) 1.0362(12) -0.2013(12)
H17 H 1.7813 0.9658 -0.1878
H18 H 1.8226 1.0678 -0.1660
H19 H 1.7804 1.0552 -0.2695
C24 C 1.589(2) 1.0659(10) -0.1719(12)
H20 H 1.5464 1.1186 -0.2182
H21 H 1.5772 1.0897 -0.1088
C25 C 0.1571(7) 0.3563(5) -0.3026(5)
C26 C 0.2061(8) 0.3194(5) -0.3752(5)
C27 C 0.5089(12) 0.2467(11) -0.4993(9)
H22 H 0.5141 0.1770 -0.4725
C28 C 0.5886(10) 0.2234(9) -0.5926(7)
H23 H 0.5588 0.2759 -0.6417
H24 H 0.5573 0.1630 -0.6073
H25 H 0.7025 0.2158 -0.5905
C29 C 0.5876(12) 0.2701(12) -0.4286(11)
H26 H 0.6469 0.3241 -0.4535
H27 H 0.6599 0.2140 -0.4064
H28 H 0.5118 0.2889 -0.3755
C30 C 0.2115(12) 0.3558(7) -0.5894(5)
H29 H 0.2593 0.3304 -0.6499
C31 C 0.2674(15) 0.4545(8) -0.5893(8)
H30 H 0.1923 0.5052 -0.6182
H31 H 0.3705 0.4555 -0.6259
H32 H 0.2752 0.4658 -0.5239
C32 C 0.0278(15) 0.3654(11) -0.5902(8)
H33 H -0.0225 0.3635 -0.5249
H34 H 0.0004 0.3118 -0.6199
H35 H -0.0085 0.4269 -0.6264
C33 C 0.2072(14) 0.1437(9) -0.4853(9)
H36 H 0.3008 0.1049 -0.4582
C34 C 0.0927(17) 0.1152(9) -0.4014(8)
H37 H -0.0089 0.1109 -0.4234
H38 H 0.0796 0.1640 -0.3569
H39 H 0.1330 0.0523 -0.3694
C35 C 0.2273(16) 0.0945(9) -0.5748(8)
H40 H 0.3041 0.1244 -0.6213
H41 H 0.1264 0.1013 -0.6013
H42 H 0.2643 0.0257 -0.5598
Si1A Si -0.2825(2) 0.73567(15) 0.48795(13)
N1A N -0.1950(5) 0.4971(3) 0.1017(3)
N2A N -0.1060(5) 0.4196(3) -0.0814(3)
C1A C -0.2165(7) 0.5426(4) 0.1861(4)
C2A C -0.3688(7) 0.5236(5) 0.2378(4)
H1A H -0.4135 0.5459 0.2962
C3A C -0.4335(7) 0.4675(5) 0.1849(4)
H2A H -0.5312 0.4429 0.2007
C4A C -0.3263(6) 0.4524(4) 0.1006(4)
C5A C -0.3550(6) 0.3987(4) 0.0258(4)
C6A C -0.2505(6) 0.3837(4) -0.0582(4)
C7A C -0.2769(7) 0.3277(5) -0.1336(5)
H3A H -0.3674 0.2971 -0.1358
C8A C -0.1507(7) 0.3272(5) -0.1994(4)
H4A H -0.1362 0.2956 -0.2553
C9A C -0.0414(7) 0.3837(4) -0.1688(4)
C10A C -0.1080(7) 0.5976(4) 0.2151(4)
C11A C -0.5004(7) 0.3568(4) 0.0376(4)
C12A C -0.6253(7) 0.3220(4) 0.0487(4)
C13A C -0.7727(7) 0.2813(4) 0.0616(5)
C14A C -0.8844(8) 0.2958(5) 0.1404(5)
H5A H -0.8631 0.3347 0.1858
C15A C -1.0251(8) 0.2553(6) 0.1541(6)
H6A H -1.0969 0.2676 0.2081
C16A C -1.0615(8) 0.1985(6) 0.0916(7)
C17A C -0.9526(10) 0.1817(5) 0.0118(6)
H7A H -0.9752 0.1405 -0.0311
C18A C -0.8124(7) 0.2234(5) -0.0064(5)
H8A H -0.7447 0.2138 -0.0627
C19A C -1.2183(10) 0.1512(7) 0.1041(8)
H9A H -1.2464 0.1430 0.0406
H10A H -1.3035 0.1956 0.1338
C20A C -1.2081(13) 0.0596(9) 0.1607(8)
H11A H -1.1057 0.0237 0.1400
H12A H -1.2026 0.0725 0.2267
C21A C -1.3307(18) -0.0100(11) 0.1653(12)
H13A H -1.3169 -0.0569 0.2226
H14A H -1.3031 -0.0469 0.1098
C22A C -1.4988(18) 0.0251(10) 0.1675(12)
H15A H -1.5338 0.0598 0.2239
H16A H -1.5197 0.0703 0.1099
C23A C -1.758(2) -0.0362(12) 0.2013(12)
H17A H -1.7813 0.0342 0.1878
H18A H -1.8226 -0.0678 0.1660
H19A H -1.7804 -0.0552 0.2695
C24A C -1.589(2) -0.0659(10) 0.1719(12)
H20A H -1.5464 -0.1186 0.2182
H21A H -1.5772 -0.0897 0.1088
C25A C -0.1571(7) 0.6437(5) 0.3026(5)
C26A C -0.2061(8) 0.6806(5) 0.3752(5)
C27A C -0.5089(12) 0.7533(11) 0.4993(9)
H22A H -0.5141 0.8230 0.4725
C28A C -0.5886(10) 0.7766(9) 0.5926(7)
H23A H -0.5588 0.7241 0.6417
H24A H -0.5573 0.8370 0.6073
H25A H -0.7025 0.7842 0.5905
C29A C -0.5876(12) 0.7299(12) 0.4286(11)
H26A H -0.6469 0.6759 0.4535
H27A H -0.6599 0.7860 0.4064
H28A H -0.5118 0.7111 0.3755
C30A C -0.2115(12) 0.6442(7) 0.5894(5)
H29A H -0.2593 0.6696 0.6499
C31A C -0.2674(15) 0.5455(8) 0.5893(8)
H30A H -0.1923 0.4948 0.6182
H31A H -0.3705 0.5445 0.6259
H32A H -0.2752 0.5342 0.5239
C32A C -0.0278(15) 0.6346(11) 0.5902(8)
H33A H 0.0225 0.6365 0.5249
H34A H -0.0004 0.6882 0.6199
H35A H 0.0085 0.5731 0.6264
C33A C -0.2072(14) 0.8563(9) 0.4853(9)
H36A H -0.3008 0.8951 0.4582
C34A C -0.0927(17) 0.8848(9) 0.4014(8)
H37A H 0.0089 0.8891 0.4234
H38A H -0.0796 0.8360 0.3569
H39A H -0.1330 0.9477 0.3694
C35A C -0.2273(16) 0.9055(9) 0.5748(8)
H40A H -0.3041 0.8756 0.6213
H41A H -0.1264 0.8987 0.6013
H42A H -0.2643 0.9743 0.5598
loop_
_geom_bond_atom_site_label_1
_geom_bond_atom_site_label_2
_geom_bond_site_symmetry_1
_geom_bond_site_symmetry_2
Si1 C26 1_555 1_555
Mg1 N1 1_555 1_555
N1 C1 1_555 1_555
N2 Mg1 1_555 1_555
C1 C2 1_555 1_555
C2 H1 1_555 1_555
C3 C2 1_555 1_555
H2 C3 1_555 1_555
C4 N1 1_555 1_555
C5 C4 1_555 1_555
C6 N2 1_555 1_555
C7 C6 1_555 1_555
H3 C7 1_555 1_555
C8 C7 1_555 1_555
H4 C8 1_555 1_555
C9 N2 1_555 1_555
C10 C1 1_555 1_555
C11 C5 1_555 1_555
C12 C11 1_555 1_555
C13 C12 1_555 1_555
C14 C13 1_555 1_555
H5 C14 1_555 1_555
C15 C14 1_555 1_555
H6 C15 1_555 1_555
C16 C15 1_555 1_555
C17 C16 1_555 1_555
H7 C17 1_555 1_555
C18 C13 1_555 1_555
H8 C18 1_555 1_555
C19 C16 1_555 1_555
H9 C19 1_555 1_555
H10 C19 1_555 1_555
C20 C19 1_555 1_555
H11 C20 1_555 1_555
H12 C20 1_555 1_555
C21 C20 1_555 1_555
H13 C21 1_555 1_555
H14 C21 1_555 1_555
C22 C21 1_555 1_555
H15 C22 1_555 1_555
H16 C22 1_555 1_555
C23 H17 1_555 1_555
H18 C23 1_555 1_555
H19 C23 1_555 1_555
C24 C22 1_555 1_555
H20 C24 1_555 1_555
H21 C24 1_555 1_555
C25 C10 1_555 1_555
C26 C25 1_555 1_555
C27 Si1 1_555 1_555
H22 C27 1_555 1_555
C28 C27 1_555 1_555
H23 C28 1_555 1_555
H24 C28 1_555 1_555
H25 C28 1_555 1_555
C29 C27 1_555 1_555
H26 C29 1_555 1_555
H27 C29 1_555 1_555
H28 C29 1_555 1_555
C30 Si1 1_555 1_555
H29 C30 1_555 1_555
C31 C30 1_555 1_555
H30 C31 1_555 1_555
H31 C31 1_555 1_555
H32 C31 1_555 1_555
C32 C30 1_555 1_555
H33 C32 1_555 1_555
H34 C32 1_555 1_555
H35 C32 1_555 1_555
C33 Si1 1_555 1_555
H36 C33 1_555 1_555
C34 C33 1_555 1_555
H37 C34 1_555 1_555
H38 C34 1_555 1_555
H39 C34 1_555 1_555
C35 C33 1_555 1_555
H40 C35 1_555 1_555
H41 C35 1_555 1_555
H42 C35 1_555 1_555
Si1A C26A 1_555 1_555
N1A Mg1 1_555 1_555
N2A Mg1 1_555 1_555
C1A N1A 1_555 1_555
C2A C1A 1_555 1_555
H1A C2A 1_555 1_555
C3A C2A 1_555 1_555
H2A C3A 1_555 1_555
C4A N1A 1_555 1_555
C5A C4A 1_555 1_555
C6A N2A 1_555 1_555
C7A C6A 1_555 1_555
H3A C7A 1_555 1_555
C8A C7A 1_555 1_555
H4A C8A 1_555 1_555
C9A C10 1_555 1_555
C10A C9 1_555 1_555
C11A C5A 1_555 1_555
C12A C11A 1_555 1_555
C13A C12A 1_555 1_555
C14A C13A 1_555 1_555
H5A C14A 1_555 1_555
C15A C14A 1_555 1_555
H6A C15A 1_555 1_555
C16A C15A 1_555 1_555
C17A C16A 1_555 1_555
H7A C17A 1_555 1_555
C18A C13A 1_555 1_555
H8A C18A 1_555 1_555
C19A C16A 1_555 1_555
H9A C19A 1_555 1_555
H10A C19A 1_555 1_555
C20A C19A 1_555 1_555
H11A C20A 1_555 1_555
H12A C20A 1_555 1_555
C21A C20A 1_555 1_555
H13A C21A 1_555 1_555
H14A C21A 1_555 1_555
C22A C21A 1_555 1_555
H15A C22A 1_555 1_555
H16A C22A 1_555 1_555
C23A H17A 1_555 1_555
H18A C23A 1_555 1_555
H19A C23A 1_555 1_555
C24A C22A 1_555 1_555
H20A C24A 1_555 1_555
H21A C24A 1_555 1_555
C25A C10A 1_555 1_555
C26A C25A 1_555 1_555
C27A Si1A 1_555 1_555
H22A C27A 1_555 1_555
C28A C27A 1_555 1_555
H23A C28A 1_555 1_555
H24A C28A 1_555 1_555
H25A C28A 1_555 1_555
C29A C27A 1_555 1_555
H26A C29A 1_555 1_555
H27A C29A 1_555 1_555
H28A C29A 1_555 1_555
C30A Si1A 1_555 1_555
H29A C30A 1_555 1_555
C31A C30A 1_555 1_555
H30A C31A 1_555 1_555
H31A C31A 1_555 1_555
H32A C31A 1_555 1_555
C32A C30A 1_555 1_555
H33A C32A 1_555 1_555
H34A C32A 1_555 1_555
H35A C32A 1_555 1_555
C33A Si1A 1_555 1_555
H36A C33A 1_555 1_555
C34A C33A 1_555 1_555
H37A C34A 1_555 1_555
H38A C34A 1_555 1_555
H39A C34A 1_555 1_555
C35A C33A 1_555 1_555
H40A C35A 1_555 1_555
H41A C35A 1_555 1_555
H42A C35A 1_555 1_555
C3 C4 1_555 1_555
C5 C6 1_555 1_555
C8 C9 1_555 1_555
C17 C18 1_555 1_555
C23 C24 1_555 1_555
N2A C9A 1_555 1_555
C1A C10A 1_555 1_555
C3A C4A 1_555 1_555
C5A C6A 1_555 1_555
C8A C9A 1_555 1_555
C17A C18A 1_555 1_555
C23A C24A 1_555 1_555

#END
