
#######################################################################
#
#                 Cambridge Crystallographic Data Centre
#                                CCDC 
#
#######################################################################
#
# If this CIF has been generated from an entry in the Cambridge 
# Structural Database, then it will include bibliographic, chemical, 
# crystal, experimental, refinement or atomic coordinate data resulting 
# from the CCDC's data processing and validation procedures.
#
#######################################################################

data_PEQBUL
_chemical_formula_moiety         'C15 H15 N15,C3 H7 N1 O1,H2 O1'
_chemical_name_systematic        
'1,4,5,6,9,10,11,14,15,16,19,20,21,24,25-pentadecaazahexacyclo[21.2.1.1^3,6^.1^8,11^.1^13,16^.1^18,21^]triaconta-3(30),4,8(29),9,13(28),14,18(27),19,23(26),24-decaene N,N-dimethylformamide solvate monohydrate'
_symmetry_cell_setting           monoclinic
_symmetry_space_group_name_H-M   'P 21/c'
_symmetry_Int_Tables_number      14
_space_group_name_Hall           '-P 2ybc'
loop_
_symmetry_equiv_pos_site_id
_symmetry_equiv_pos_as_xyz
1 x,y,z
2 -x,1/2+y,1/2-z
3 -x,-y,-z
4 x,1/2-y,1/2+z
_cell_length_a                   16.625(3)
_cell_length_b                   13.626(3)
_cell_length_c                   10.320(2)
_cell_angle_alpha                90
_cell_angle_beta                 92.77(3)
_cell_angle_gamma                90
_cell_volume                     2335.08
_exptl_crystal_colour            colorless
_exptl_crystal_description       plate
_cell_formula_units_Z            4
loop_
_atom_site_label
_atom_site_type_symbol
_atom_site_fract_x
_atom_site_fract_y
_atom_site_fract_z
C1 C 0.43397(14) 0.6450(2) 0.3063(3)
H1 H 0.4332 0.6381 0.3978
C2 C 0.47280(12) 0.58787(18) 0.2222(3)
N1 N 0.39663(11) 0.71393(15) 0.2315(2)
N2 N 0.41216(13) 0.69973(18) 0.1057(2)
N3 N 0.45875(14) 0.62149(19) 0.1004(3)
C3 C 0.52189(16) 0.4988(2) 0.2491(6)
H2 H 0.5589 0.5107 0.3255
H3 H 0.5549 0.4850 0.1740
C4 C 0.43765(14) 0.3478(2) 0.1870(3)
H4 H 0.4438 0.3455 0.0960
C5 C 0.39360(12) 0.28710(16) 0.2603(2)
N4 N 0.47072(12) 0.41244(17) 0.2742(3)
N5 N 0.44719(15) 0.39270(19) 0.3939(3)
N6 N 0.40036(13) 0.31523(18) 0.3858(2)
C6 C 0.34342(14) 0.2019(2) 0.2199(3)
H5 H 0.3554 0.1831 0.1302
H6 H 0.3570 0.1455 0.2773
C7 C 0.21521(14) 0.2533(2) 0.3274(3)
H7 H 0.2358 0.2655 0.4133
C8 C 0.13746(12) 0.2617(2) 0.2815(2)
N7 N 0.25677(12) 0.22424(18) 0.2257(2)
N8 N 0.20596(15) 0.2127(2) 0.1233(3)
N9 N 0.13296(14) 0.2364(2) 0.1568(3)
C9 C 0.06580(13) 0.2926(2) 0.3515(3)
H8 H 0.0170 0.2624 0.3096
H9 H 0.0711 0.2687 0.4420
C10 C 0.09865(13) 0.4690(2) 0.4207(2)
H10 H 0.1425 0.4587 0.4816
C11 C 0.06489(11) 0.5566(2) 0.3839(2)
N10 N 0.05633(11) 0.3999(2) 0.3519(2)
N11 N -0.00165(12) 0.4444(2) 0.2764(2)
N12 N 0.00361(12) 0.5397(2) 0.2953(2)
C12 C 0.08474(13) 0.6574(2) 0.4268(3)
H11 H 0.1013 0.6563 0.5202
H12 H 0.0359 0.6987 0.4161
C13 C 0.22872(13) 0.7162(2) 0.3901(3)
H13 H 0.2556 0.6977 0.4696
C14 C 0.26071(12) 0.76215(17) 0.2884(2)
N13 N 0.14983(11) 0.70215(18) 0.3539(2)
N14 N 0.13500(12) 0.7391(2) 0.2345(2)
N15 N 0.20246(13) 0.7757(2) 0.1944(2)
C15 C 0.34438(13) 0.79480(18) 0.2711(3)
H14 H 0.3441 0.8471 0.2044
H15 H 0.3667 0.8230 0.3536
C16 C 0.21197(18) 0.5029(2) 0.8512(4)
H16 H 0.1675 0.5054 0.7899
C17 C 0.2569(2) 0.5017(4) 1.0809(5)
H17 H 0.3095 0.4915 1.0440
H18 H 0.2457 0.4473 1.1395
H19 H 0.2574 0.5636 1.1292
C18 C 0.11320(17) 0.5105(3) 1.0159(3)
H20 H 0.0771 0.5130 0.9380
H21 H 0.1058 0.5697 1.0680
H22 H 0.1008 0.4524 1.0671
N16 N 0.19569(13) 0.50542(19) 0.9782(3)
O1 O 0.27949(14) 0.49778(17) 0.8087(3)
O2 O 0.2990(2) 0.5171(3) 0.5365(4)
loop_
_geom_bond_atom_site_label_1
_geom_bond_atom_site_label_2
_geom_bond_site_symmetry_1
_geom_bond_site_symmetry_2
C1 H1 1_555 1_555
C2 C1 1_555 1_555
N1 C1 1_555 1_555
N2 N1 1_555 1_555
N3 C2 1_555 1_555
C3 C2 1_555 1_555
H2 C3 1_555 1_555
H3 C3 1_555 1_555
C4 H4 1_555 1_555
C5 C4 1_555 1_555
N4 C3 1_555 1_555
N5 N4 1_555 1_555
N6 C5 1_555 1_555
C6 C5 1_555 1_555
H5 C6 1_555 1_555
H6 C6 1_555 1_555
C7 H7 1_555 1_555
C8 C7 1_555 1_555
N7 C6 1_555 1_555
N8 N7 1_555 1_555
N9 C8 1_555 1_555
C9 C8 1_555 1_555
H8 C9 1_555 1_555
H9 C9 1_555 1_555
C10 H10 1_555 1_555
C11 C10 1_555 1_555
N10 C9 1_555 1_555
N11 N10 1_555 1_555
N12 C11 1_555 1_555
C12 C11 1_555 1_555
H11 C12 1_555 1_555
H12 C12 1_555 1_555
C13 H13 1_555 1_555
C14 C13 1_555 1_555
N13 C12 1_555 1_555
N14 N13 1_555 1_555
N15 C14 1_555 1_555
C15 N1 1_555 1_555
H14 C15 1_555 1_555
H15 C15 1_555 1_555
C16 H16 1_555 1_555
C17 H17 1_555 1_555
H18 C17 1_555 1_555
H19 C17 1_555 1_555
C18 H20 1_555 1_555
H21 C18 1_555 1_555
H22 C18 1_555 1_555
N16 C16 1_555 1_555
O1 C16 1_555 1_555
N2 N3 1_555 1_555
C4 N4 1_555 1_555
N5 N6 1_555 1_555
C7 N7 1_555 1_555
N8 N9 1_555 1_555
C10 N10 1_555 1_555
N11 N12 1_555 1_555
C13 N13 1_555 1_555
C14 C15 1_555 1_555
N14 N15 1_555 1_555
C17 N16 1_555 1_555
C18 N16 1_555 1_555

#END
