
#######################################################################
#
#                 Cambridge Crystallographic Data Centre
#                                CCDC 
#
#######################################################################
#
# If this CIF has been generated from an entry in the Cambridge 
# Structural Database, then it will include bibliographic, chemical, 
# crystal, experimental, refinement or atomic coordinate data resulting 
# from the CCDC's data processing and validation procedures.
#
#######################################################################

data_PEQCUM
_chemical_formula_moiety         'C18 H22 O2'
_chemical_name_systematic        
3,3',4,4',6,6'-hexamethyl[1,1'-biphenyl]-2,2'-diol
_symmetry_cell_setting           orthorhombic
_symmetry_space_group_name_H-M   'P 21 21 2'
_symmetry_Int_Tables_number      18
_space_group_name_Hall           'P 2 2ab'
loop_
_symmetry_equiv_pos_site_id
_symmetry_equiv_pos_as_xyz
1 x,y,z
2 1/2+x,1/2-y,-z
3 1/2-x,1/2+y,-z
4 -x,-y,z
_cell_length_a                   16.2248(16)
_cell_length_b                   21.607(2)
_cell_length_c                   8.7927(8)
_cell_angle_alpha                90
_cell_angle_beta                 90
_cell_angle_gamma                90
_cell_volume                     3082.45
_exptl_crystal_description       plate
_cell_formula_units_Z            8
loop_
_atom_site_label
_atom_site_type_symbol
_atom_site_fract_x
_atom_site_fract_y
_atom_site_fract_z
C1 C 0.36300(8) 0.21134(6) 0.71112(16)
C2 C 0.30129(8) 0.23557(7) 0.80394(16)
C3 C 0.26496(9) 0.19610(7) 0.91091(16)
C4 C 0.29254(9) 0.13533(7) 0.92284(17)
H1 H 0.2689 0.1098 0.9960
C5 C 0.35392(10) 0.11117(7) 0.83009(18)
C6 C 0.38928(9) 0.14969(6) 0.71935(17)
C7 C 0.45184(9) 0.12642(6) 0.60825(19)
C8 C 0.53451(10) 0.12072(7) 0.6509(2)
C9 C 0.59492(10) 0.09778(7) 0.5525(2)
C10 C 0.57110(10) 0.08026(7) 0.4069(2)
C11 C 0.48925(10) 0.08628(7) 0.3635(2)
H2 H 0.4741 0.0743 0.2658
C12 C 0.42923(9) 0.10949(7) 0.4600(2)
C13 C 0.27604(9) 0.30200(7) 0.78587(18)
H3 H 0.2225 0.3080 0.8298
H4 H 0.2743 0.3123 0.6797
H5 H 0.3152 0.3282 0.8365
C14 C 0.19677(10) 0.21831(9) 1.01299(19)
H6 H 0.1489 0.2274 0.9530
H7 H 0.2142 0.2550 1.0655
H8 H 0.1837 0.1867 1.0857
C15 C 0.38201(13) 0.04510(8) 0.8459(3)
H9 H 0.4362 0.0442 0.8897
H10 H 0.3833 0.0259 0.7475
H11 H 0.3445 0.0231 0.9106
C16 C 0.68312(11) 0.09294(10) 0.6073(3)
H12 H 0.7032 0.0518 0.5896
H13 H 0.6854 0.1019 0.7141
H14 H 0.7167 0.1220 0.5529
C17 C 0.63310(12) 0.05594(9) 0.2939(3)
H15 H 0.6756 0.0862 0.2788
H16 H 0.6061 0.0478 0.1988
H17 H 0.6570 0.0184 0.3321
C18 C 0.34176(10) 0.11682(9) 0.4064(2)
H18 H 0.3369 0.1014 0.3044
H19 H 0.3269 0.1598 0.4086
H20 H 0.3056 0.0939 0.4721
O1 O 0.39804(6) 0.25141(4) 0.60855(12)
H21 H 0.4289 0.2322 0.5517
O2 O 0.55903(7) 0.13781(7) 0.79466(16)
H22 H 0.5186 0.1481 0.8446
C19 C 0.54367(8) 0.38286(6) 0.75044(15)
C20 C 0.57276(8) 0.42279(6) 0.86420(15)
C21 C 0.62295(8) 0.47214(6) 0.82088(16)
C22 C 0.64288(8) 0.48040(6) 0.66863(16)
H23 H 0.6752 0.5141 0.6409
C23 C 0.61606(8) 0.43989(6) 0.55638(15)
C24 C 0.56544(8) 0.39023(6) 0.59784(15)
C25 C 0.53754(8) 0.34397(6) 0.48230(14)
C26 C 0.46740(8) 0.35660(6) 0.39495(15)
C27 C 0.43989(8) 0.31695(7) 0.27992(15)
C28 C 0.48490(9) 0.26308(6) 0.25324(16)
C29 C 0.55279(9) 0.24917(7) 0.34333(16)
H24 H 0.5809 0.2123 0.3265
C30 C 0.58016(8) 0.28874(6) 0.45823(15)
C31 C 0.55145(10) 0.41055(8) 1.02775(17)
H25 H 0.5099 0.3790 1.0331
H26 H 0.5311 0.4479 1.0736
H27 H 0.5998 0.3970 1.0811
C32 C 0.65612(10) 0.51676(7) 0.93731(19)
H28 H 0.6995 0.5409 0.8928
H29 H 0.6773 0.4941 1.0227
H30 H 0.6127 0.5437 0.9706
C33 C 0.64169(10) 0.44838(7) 0.39328(16)
H31 H 0.6800 0.4821 0.3862
H32 H 0.5940 0.4573 0.3324
H33 H 0.6674 0.4112 0.3572
C34 C 0.36403(10) 0.33251(8) 0.1903(2)
H34 H 0.3189 0.3076 0.2251
H35 H 0.3738 0.3245 0.0844
H36 H 0.3509 0.3755 0.2040
C35 C 0.46213(12) 0.22029(8) 0.12396(19)
H37 H 0.4071 0.2051 0.1390
H38 H 0.4999 0.1861 0.1212
H39 H 0.4649 0.2425 0.0295
C36 C 0.65357(10) 0.27195(7) 0.55278(19)
H40 H 0.6355 0.2540 0.6469
H41 H 0.6854 0.3085 0.5734
H42 H 0.6869 0.2426 0.4987
O3 O 0.49379(6) 0.33536(5) 0.79630(11)
H43 H 0.4762 0.3170 0.7215
O4 O 0.42267(7) 0.40930(5) 0.41863(13)
H44 H 0.4420 0.4284 0.4910
loop_
_geom_bond_atom_site_label_1
_geom_bond_atom_site_label_2
_geom_bond_site_symmetry_1
_geom_bond_site_symmetry_2
C1 C2 1_555 1_555
C2 C3 1_555 1_555
C3 C4 1_555 1_555
C4 H1 1_555 1_555
C5 C4 1_555 1_555
C6 C1 1_555 1_555
C7 C6 1_555 1_555
C8 C7 1_555 1_555
C9 C8 1_555 1_555
C10 C9 1_555 1_555
C11 C10 1_555 1_555
H2 C11 1_555 1_555
C12 C7 1_555 1_555
C13 C2 1_555 1_555
H3 C13 1_555 1_555
H4 C13 1_555 1_555
H5 C13 1_555 1_555
C14 C3 1_555 1_555
H6 C14 1_555 1_555
H7 C14 1_555 1_555
H8 C14 1_555 1_555
C15 C5 1_555 1_555
H9 C15 1_555 1_555
H10 C15 1_555 1_555
H11 C15 1_555 1_555
C16 C9 1_555 1_555
H12 C16 1_555 1_555
H13 C16 1_555 1_555
H14 C16 1_555 1_555
C17 C10 1_555 1_555
H15 C17 1_555 1_555
H16 C17 1_555 1_555
H17 C17 1_555 1_555
C18 C12 1_555 1_555
H18 C18 1_555 1_555
H19 C18 1_555 1_555
H20 C18 1_555 1_555
O1 C1 1_555 1_555
H21 O1 1_555 1_555
O2 C8 1_555 1_555
H22 O2 1_555 1_555
C19 C20 1_555 1_555
C20 C21 1_555 1_555
C21 C22 1_555 1_555
C22 H23 1_555 1_555
C23 C22 1_555 1_555
C24 C19 1_555 1_555
C25 C24 1_555 1_555
C26 C25 1_555 1_555
C27 C26 1_555 1_555
C28 C27 1_555 1_555
C29 C28 1_555 1_555
H24 C29 1_555 1_555
C30 C25 1_555 1_555
C31 C20 1_555 1_555
H25 C31 1_555 1_555
H26 C31 1_555 1_555
H27 C31 1_555 1_555
C32 C21 1_555 1_555
H28 C32 1_555 1_555
H29 C32 1_555 1_555
H30 C32 1_555 1_555
C33 C23 1_555 1_555
H31 C33 1_555 1_555
H32 C33 1_555 1_555
H33 C33 1_555 1_555
C34 C27 1_555 1_555
H34 C34 1_555 1_555
H35 C34 1_555 1_555
H36 C34 1_555 1_555
C35 C28 1_555 1_555
H37 C35 1_555 1_555
H38 C35 1_555 1_555
H39 C35 1_555 1_555
C36 C30 1_555 1_555
H40 C36 1_555 1_555
H41 C36 1_555 1_555
H42 C36 1_555 1_555
O3 C19 1_555 1_555
H43 O3 1_555 1_555
O4 C26 1_555 1_555
H44 O4 1_555 1_555
C5 C6 1_555 1_555
C11 C12 1_555 1_555
C23 C24 1_555 1_555
C29 C30 1_555 1_555

#END
