
#######################################################################
#
#                 Cambridge Crystallographic Data Centre
#                                CCDC 
#
#######################################################################
#
# If this CIF has been generated from an entry in the Cambridge 
# Structural Database, then it will include bibliographic, chemical, 
# crystal, experimental, refinement or atomic coordinate data resulting 
# from the CCDC's data processing and validation procedures.
#
#######################################################################

data_PEQCIA
_chemical_formula_moiety         'C25 H21 N1 O5'
_chemical_name_systematic        
'2-hydroxy-2-(1-phenylprop-2-en-1-yl)-2,3-dihydro-1H-inden-1-yl 4-nitrobenzoate unknown solvate'
_symmetry_cell_setting           rhombohedral
_symmetry_space_group_name_H-M   'R 3'
_symmetry_Int_Tables_number      146
_space_group_name_Hall           'R 3'
loop_
_symmetry_equiv_pos_site_id
_symmetry_equiv_pos_as_xyz
1 x,y,z
2 -y,x-y,z
3 -x+y,-x,z
4 2/3+x,1/3+y,1/3+z
5 2/3-y,1/3+x-y,1/3+z
6 2/3-x+y,1/3-x,1/3+z
7 1/3+x,2/3+y,2/3+z
8 1/3-y,2/3+x-y,2/3+z
9 1/3-x+y,2/3-x,2/3+z
_cell_length_a                   31.8047(10)
_cell_length_b                   31.8047(10)
_cell_length_c                   11.8143(5)
_cell_angle_alpha                90
_cell_angle_beta                 90
_cell_angle_gamma                120
_cell_volume                     10349.5
_exptl_crystal_colour            colorless
_exptl_crystal_description       block
_cell_formula_units_Z            18
loop_
_atom_site_label
_atom_site_type_symbol
_atom_site_fract_x
_atom_site_fract_y
_atom_site_fract_z
O1 O 0.28749(12) 0.49754(14) 0.4482(4)
N1 N 0.31233(13) 0.54096(17) 0.4516(5)
C1 C 0.36535(14) 0.56296(15) 0.4647(4)
O2 O 0.29613(17) 0.5676(2) 0.4326(8)
C2 C 0.38483(13) 0.53302(13) 0.4694(3)
H1 H 0.3646 0.4987 0.4672
O3 O 0.53753(10) 0.60245(10) 0.4937(4)
C3 C 0.43448(13) 0.55407(12) 0.4775(3)
H2 H 0.4490 0.5342 0.4800
O4 O 0.54040(8) 0.67424(8) 0.4804(2)
C4 C 0.46359(12) 0.60452(12) 0.4820(3)
O5 O 0.65962(8) 0.76882(9) 0.5578(2)
H3 H 0.6766 0.7987 0.5444
C5 C 0.44283(14) 0.63360(15) 0.4781(4)
H4 H 0.4627 0.6679 0.4820
C6 C 0.39308(16) 0.61262(17) 0.4686(6)
H5 H 0.3783 0.6322 0.4647
C7 C 0.51761(13) 0.62583(12) 0.4864(3)
C8 C 0.59354(12) 0.70051(12) 0.4794(3)
H6 H 0.6073 0.6835 0.5240
C9 C 0.61050(11) 0.70877(12) 0.3585(3)
C10 C 0.61536(13) 0.67775(13) 0.2837(3)
H7 H 0.6090 0.6466 0.3076
C11 C 0.62942(16) 0.69300(16) 0.1754(4)
H8 H 0.6322 0.6719 0.1230
C12 C 0.63973(18) 0.73884(18) 0.1402(4)
H9 H 0.6503 0.7490 0.0648
C13 C 0.63465(15) 0.76979(16) 0.2142(3)
H10 H 0.6412 0.8009 0.1898
C14 C 0.61998(12) 0.75466(13) 0.3240(3)
C15 C 0.61005(12) 0.78014(12) 0.4188(3)
H11 H 0.5782 0.7781 0.4089
H12 H 0.6357 0.8147 0.4233
C16 C 0.61031(11) 0.75218(12) 0.5250(3)
C17 C 0.57981(12) 0.75372(13) 0.6244(3)
H13 H 0.5467 0.7437 0.5943
C18 C 0.57735(17) 0.82900(16) 0.6734(4)
H14 H 0.5451 0.8146 0.6456
H15 H 0.5927 0.8610 0.7036
C19 C 0.60070(14) 0.80469(14) 0.6703(3)
H16 H 0.6329 0.8202 0.6989
C20 C 0.57363(16) 0.71885(14) 0.7194(3)
C21 C 0.5277(2) 0.6830(2) 0.7530(5)
H17 H 0.4995 0.6800 0.7175
C22 C 0.5235(4) 0.6508(3) 0.8416(7)
H18 H 0.4922 0.6255 0.8631
C23 C 0.5634(4) 0.6553(2) 0.8966(6)
H19 H 0.5600 0.6339 0.9566
C24 C 0.6067(3) 0.6900(2) 0.8643(4)
H20 H 0.6345 0.6933 0.9019
C25 C 0.61286(19) 0.72164(17) 0.7778(4)
H21 H 0.6448 0.7460 0.7575
N2 N 0.91772(16) 0.86102(17) 0.5234(6)
O6 O 0.90956(15) 0.82192(15) 0.5494(4)
O7 O 0.9576(2) 0.8922(3) 0.4970(10)
O8 O 0.78084(8) 0.95133(8) 0.51244(19)
O9 O 0.72166(9) 0.87343(9) 0.5186(2)
O10 O 0.73095(9) 1.02550(10) 0.4136(2)
H22 H 0.7176 1.0059 0.3600
C26 C 0.87847(16) 0.87241(17) 0.5178(4)
C27 C 0.83151(14) 0.83414(14) 0.5217(3)
H23 H 0.8248 0.8015 0.5264
C28 C 0.79448(13) 0.84507(12) 0.5186(3)
H24 H 0.7616 0.8196 0.5199
C29 C 0.80500(12) 0.89295(12) 0.5137(3)
C30 C 0.85287(14) 0.93054(14) 0.5080(5)
H25 H 0.8601 0.9633 0.5033
C31 C 0.88966(16) 0.91971(17) 0.5093(6)
H26 H 0.9226 0.9449 0.5043
C32 C 0.76439(12) 0.90376(12) 0.5147(3)
C33 C 0.74447(11) 0.96674(12) 0.5093(3)
H27 H 0.7151 0.9438 0.4647
C34 C 0.76907(12) 1.01892(12) 0.4608(3)
C35 C 0.79056(13) 1.05201(12) 0.5659(3)
H28 H 0.8248 1.0607 0.5783
H29 H 0.7889 1.0821 0.5576
C36 C 0.80703(13) 1.02970(14) 0.3681(3)
H30 H 0.8354 1.0304 0.4065
C37 C 0.82562(17) 1.08003(17) 0.3182(4)
H31 H 0.8019 1.0863 0.2864
C38 C 0.8693(2) 1.11457(19) 0.3143(5)
H32 H 0.8945 1.1103 0.3449
H33 H 0.8767 1.1447 0.2808
C39 C 0.79125(14) 0.99183(15) 0.2752(3)
C40 C 0.8237(2) 0.9767(2) 0.2422(5)
H34 H 0.8545 0.9902 0.2784
C41 C 0.8122(3) 0.9428(3) 0.1591(6)
H35 H 0.8348 0.9330 0.1379
C42 C 0.7671(2) 0.9226(3) 0.1049(5)
H36 H 0.7588 0.8987 0.0479
C43 C 0.73497(19) 0.9378(2) 0.1351(4)
H37 H 0.7044 0.9245 0.0982
C44 C 0.74717(16) 0.97257(19) 0.2197(4)
C45 C 0.75870(12) 1.02122(13) 0.6614(3)
C46 C 0.75475(14) 1.03476(15) 0.7710(4)
H38 H 0.7733 1.0677 0.7941
C47 C 0.72356(16) 0.99965(16) 0.8454(4)
H39 H 0.7209 1.0085 0.9208
C48 C 0.69580(16) 0.95127(17) 0.8118(4)
H40 H 0.6739 0.9276 0.8636
C49 C 0.70014(13) 0.93770(14) 0.7035(3)
H41 H 0.6817 0.9047 0.6806
C50 C 0.73176(12) 0.97282(12) 0.6286(3)
loop_
_geom_bond_atom_site_label_1
_geom_bond_atom_site_label_2
_geom_bond_site_symmetry_1
_geom_bond_site_symmetry_2
O1 N1 1_555 1_555
N1 C1 1_555 1_555
C1 C2 1_555 1_555
O2 N1 1_555 1_555
C2 H1 1_555 1_555
O3 C7 1_555 1_555
C3 C2 1_555 1_555
H2 C3 1_555 1_555
O4 C7 1_555 1_555
C4 C3 1_555 1_555
O5 H3 1_555 1_555
C5 C4 1_555 1_555
H4 C5 1_555 1_555
C6 C1 1_555 1_555
H5 C6 1_555 1_555
C7 C4 1_555 1_555
C8 O4 1_555 1_555
H6 C8 1_555 1_555
C9 C8 1_555 1_555
C10 C9 1_555 1_555
H7 C10 1_555 1_555
C11 C10 1_555 1_555
H8 C11 1_555 1_555
C12 C11 1_555 1_555
H9 C12 1_555 1_555
C13 C12 1_555 1_555
H10 C13 1_555 1_555
C14 C9 1_555 1_555
C15 C14 1_555 1_555
H11 C15 1_555 1_555
H12 C15 1_555 1_555
C16 O5 1_555 1_555
C17 C16 1_555 1_555
H13 C17 1_555 1_555
C18 H14 1_555 1_555
H15 C18 1_555 1_555
C19 C17 1_555 1_555
H16 C19 1_555 1_555
C20 C17 1_555 1_555
C21 C20 1_555 1_555
H17 C21 1_555 1_555
C22 C21 1_555 1_555
H18 C22 1_555 1_555
C23 C22 1_555 1_555
H19 C23 1_555 1_555
C24 C23 1_555 1_555
H20 C24 1_555 1_555
C25 C20 1_555 1_555
H21 C25 1_555 1_555
N2 O6 1_555 1_555
O7 N2 1_555 1_555
O8 C32 1_555 1_555
O9 C32 1_555 1_555
O10 H22 1_555 1_555
C26 N2 1_555 1_555
C27 C26 1_555 1_555
H23 C27 1_555 1_555
C28 C27 1_555 1_555
H24 C28 1_555 1_555
C29 C28 1_555 1_555
C30 C29 1_555 1_555
H25 C30 1_555 1_555
C31 C26 1_555 1_555
H26 C31 1_555 1_555
C32 C29 1_555 1_555
C33 O8 1_555 1_555
H27 C33 1_555 1_555
C34 O10 1_555 1_555
C35 C34 1_555 1_555
H28 C35 1_555 1_555
H29 C35 1_555 1_555
C36 C34 1_555 1_555
H30 C36 1_555 1_555
C37 C36 1_555 1_555
H31 C37 1_555 1_555
C38 C37 1_555 1_555
H32 C38 1_555 1_555
H33 C38 1_555 1_555
C39 C36 1_555 1_555
C40 C39 1_555 1_555
H34 C40 1_555 1_555
C41 C40 1_555 1_555
H35 C41 1_555 1_555
C42 C41 1_555 1_555
H36 C42 1_555 1_555
C43 C42 1_555 1_555
H37 C43 1_555 1_555
C44 C39 1_555 1_555
C45 C35 1_555 1_555
C46 C45 1_555 1_555
H38 C46 1_555 1_555
C47 C46 1_555 1_555
H39 C47 1_555 1_555
C48 C47 1_555 1_555
H40 C48 1_555 1_555
C49 C48 1_555 1_555
H41 C49 1_555 1_555
C50 C33 1_555 1_555
C5 C6 1_555 1_555
C8 C16 1_555 1_555
C13 C14 1_555 1_555
C15 C16 1_555 1_555
C18 C19 1_555 1_555
C24 C25 1_555 1_555
C30 C31 1_555 1_555
C33 C34 1_555 1_555
C43 C44 1_555 1_555
C45 C50 1_555 1_555
C49 C50 1_555 1_555

#END
