
#######################################################################
#
#                 Cambridge Crystallographic Data Centre
#                                CCDC 
#
#######################################################################
#
# If this CIF has been generated from an entry in the Cambridge 
# Structural Database, then it will include bibliographic, chemical, 
# crystal, experimental, refinement or atomic coordinate data resulting 
# from the CCDC's data processing and validation procedures.
#
#######################################################################

data_PEQCOG
_chemical_formula_moiety         'C19 H18 O2'
_chemical_name_systematic        
2-hydroxy-2-(1-phenylprop-2-en-1-yl)-3,4-dihydronaphthalen-1(2H)-one
_symmetry_cell_setting           orthorhombic
_symmetry_space_group_name_H-M   'P 21 21 21'
_symmetry_Int_Tables_number      19
_space_group_name_Hall           'P 2ac 2ab'
loop_
_symmetry_equiv_pos_site_id
_symmetry_equiv_pos_as_xyz
1 x,y,z
2 1/2-x,-y,1/2+z
3 -x,1/2+y,1/2-z
4 1/2+x,1/2-y,-z
_cell_length_a                   5.8811(2)
_cell_length_b                   13.6299(4)
_cell_length_c                   18.7137(6)
_cell_angle_alpha                90
_cell_angle_beta                 90
_cell_angle_gamma                90
_cell_volume                     1500.07
_exptl_crystal_colour            colorless
_exptl_crystal_description       block
_cell_formula_units_Z            4
loop_
_atom_site_label
_atom_site_type_symbol
_atom_site_fract_x
_atom_site_fract_y
_atom_site_fract_z
C1 C 0.6231(3) 0.44879(14) 0.50878(10)
H1 H 0.7185 0.4904 0.5363
O1 O 0.9937(2) 0.53652(10) 0.43521(7)
C2 C 0.8336(3) 0.50964(12) 0.32067(9)
O2 O 1.0511(2) 0.54082(10) 0.29669(8)
H2 H 1.1215 0.5673 0.3306
C3 C 0.7813(3) 0.40904(13) 0.28874(10)
H3 H 0.7804 0.4141 0.2360
H4 H 0.9030 0.3625 0.3024
C4 C 0.5535(3) 0.36915(12) 0.31383(9)
H5 H 0.4302 0.4043 0.2885
H6 H 0.5431 0.2989 0.3008
C5 C 0.5173(3) 0.37948(11) 0.39355(9)
C6 C 0.6554(3) 0.44136(11) 0.43497(9)
C7 C 0.8400(3) 0.49895(11) 0.40115(9)
C8 C 0.3465(3) 0.32737(13) 0.42803(11)
H7 H 0.2496 0.2857 0.4010
C9 C 0.3152(4) 0.33527(15) 0.50104(12)
H8 H 0.1979 0.2988 0.5236
C10 C 0.4538(4) 0.39603(15) 0.54159(10)
H9 H 0.4316 0.4011 0.5917
C11 C 0.6499(3) 0.58765(11) 0.29957(8)
H10 H 0.4979 0.5584 0.3105
C12 C 0.6589(3) 0.60480(13) 0.21984(9)
H11 H 0.7908 0.6353 0.2008
C13 C 0.6693(3) 0.68179(11) 0.34264(8)
C14 C 0.5108(3) 0.70200(12) 0.39562(9)
H12 H 0.3912 0.6567 0.4044
C15 C 0.5239(3) 0.78754(12) 0.43622(10)
H13 H 0.4132 0.8003 0.4720
C16 C 0.6971(3) 0.85353(13) 0.42447(10)
H14 H 0.7063 0.9120 0.4519
C17 C 0.8577(4) 0.83405(14) 0.37242(11)
H15 H 0.9783 0.8791 0.3645
C18 C 0.8439(3) 0.74936(13) 0.33178(10)
H16 H 0.9550 0.7371 0.2960
C19 C 0.4971(4) 0.58045(14) 0.17526(10)
H17 H 0.3628 0.5498 0.1925
H18 H 0.5140 0.5934 0.1257
loop_
_geom_bond_atom_site_label_1
_geom_bond_atom_site_label_2
_geom_bond_site_symmetry_1
_geom_bond_site_symmetry_2
C1 H1 1_555 1_555
O1 C7 1_555 1_555
C2 O2 1_555 1_555
O2 H2 1_555 1_555
C3 C2 1_555 1_555
H3 C3 1_555 1_555
H4 C3 1_555 1_555
C4 C3 1_555 1_555
H5 C4 1_555 1_555
H6 C4 1_555 1_555
C5 C4 1_555 1_555
C6 C1 1_555 1_555
C7 C2 1_555 1_555
C8 C5 1_555 1_555
H7 C8 1_555 1_555
C9 C8 1_555 1_555
H8 C9 1_555 1_555
C10 C1 1_555 1_555
H9 C10 1_555 1_555
C11 C2 1_555 1_555
H10 C11 1_555 1_555
C12 C11 1_555 1_555
H11 C12 1_555 1_555
C13 C11 1_555 1_555
C14 C13 1_555 1_555
H12 C14 1_555 1_555
C15 C14 1_555 1_555
H13 C15 1_555 1_555
C16 C15 1_555 1_555
H14 C16 1_555 1_555
C17 C16 1_555 1_555
H15 C17 1_555 1_555
C18 C13 1_555 1_555
H16 C18 1_555 1_555
C19 C12 1_555 1_555
H17 C19 1_555 1_555
H18 C19 1_555 1_555
C5 C6 1_555 1_555
C6 C7 1_555 1_555
C9 C10 1_555 1_555
C17 C18 1_555 1_555

#END
