
#######################################################################
#
#                 Cambridge Crystallographic Data Centre
#                                CCDC 
#
#######################################################################
#
# If this CIF has been generated from an entry in the Cambridge 
# Structural Database, then it will include bibliographic, chemical, 
# crystal, experimental, refinement or atomic coordinate data resulting 
# from the CCDC's data processing and validation procedures.
#
#######################################################################

data_PEQDUM
_chemical_formula_moiety         'C20 H18 N2 O2'
_chemical_name_systematic        
2-(1-Amino-1-phenylprop-1-en-2-yl)-5-methyl-4-phenyl-6H-1,3-oxazin-6-one
_symmetry_cell_setting           monoclinic
_symmetry_space_group_name_H-M   'P 21/c'
_symmetry_Int_Tables_number      14
_space_group_name_Hall           '-P 2ybc'
loop_
_symmetry_equiv_pos_site_id
_symmetry_equiv_pos_as_xyz
1 x,y,z
2 -x,1/2+y,1/2-z
3 -x,-y,-z
4 x,1/2-y,1/2+z
_cell_length_a                   8.936(4)
_cell_length_b                   7.703(3)
_cell_length_c                   23.997(9)
_cell_angle_alpha                90
_cell_angle_beta                 100.239(7)
_cell_angle_gamma                90
_cell_volume                     1625.5
_exptl_crystal_colour            'pale yellow'
_exptl_crystal_description       plate
_cell_formula_units_Z            4
loop_
_atom_site_label
_atom_site_type_symbol
_atom_site_fract_x
_atom_site_fract_y
_atom_site_fract_z
C1 C 0.2893(3) 0.7719(4) -0.02005(11)
C2 C 0.3342(3) 0.8344(3) -0.07144(10)
C3 C 0.4863(3) 0.8383(3) -0.07295(10)
C4 C 0.5545(3) 0.7286(3) 0.01771(10)
C5 C 0.2071(3) 0.8952(4) -0.11640(12)
H1 H 0.2455 0.9774 -0.1405
H2 H 0.1303 0.9496 -0.0990
H3 H 0.1640 0.7978 -0.1386
C6 C 0.5516(3) 0.8960(3) -0.12289(10)
C7 C 0.4876(3) 0.8484(4) -0.17796(11)
H4 H 0.3998 0.7812 -0.1843
C8 C 0.5531(4) 0.8999(5) -0.22334(12)
H5 H 0.5100 0.8661 -0.2599
C9 C 0.6824(4) 1.0013(4) -0.21441(13)
H6 H 0.7246 1.0396 -0.2450
C10 C 0.7485(4) 1.0452(4) -0.16029(13)
H7 H 0.8376 1.1103 -0.1542
C11 C 0.6845(3) 0.9940(4) -0.11506(12)
H8 H 0.7307 1.0253 -0.0786
C12 C 0.6547(3) 0.6664(3) 0.06681(10)
C13 C 0.5818(3) 0.5969(4) 0.11465(11)
H9 H 0.6516 0.5204 0.1378
H10 H 0.4909 0.5343 0.0992
H11 H 0.5567 0.6918 0.1372
C14 C 0.8110(3) 0.6681(3) 0.06901(10)
C15 C 0.9230(3) 0.6063(4) 0.11881(10)
C16 C 1.0430(3) 0.5014(4) 0.11030(13)
H12 H 1.0506 0.4676 0.0737
C17 C 1.1514(4) 0.4460(4) 0.15503(14)
H13 H 1.2301 0.3740 0.1485
C18 C 1.1428(4) 0.4976(4) 0.20934(14)
H14 H 1.2159 0.4608 0.2396
C19 C 1.0259(4) 0.6034(5) 0.21881(12)
H15 H 1.0202 0.6383 0.2555
C20 C 0.9169(3) 0.6579(4) 0.17400(11)
H16 H 0.8385 0.7299 0.1808
N1 N 0.5962(2) 0.7869(3) -0.02808(8)
N2 N 0.8763(3) 0.7231(4) 0.02599(10)
H17 H 0.812(4) 0.758(4) -0.0060(14)
H18 H 0.981(3) 0.725(4) 0.0268(11)
O1 O 0.40390(19) 0.7184(3) 0.02231(7)
O2 O 0.1614(2) 0.7637(3) -0.01095(8)
loop_
_geom_bond_atom_site_label_1
_geom_bond_atom_site_label_2
_geom_bond_site_symmetry_1
_geom_bond_site_symmetry_2
C1 C2 1_555 1_555
C2 C3 1_555 1_555
C3 C6 1_555 1_555
C4 C12 1_555 1_555
C5 C2 1_555 1_555
H1 C5 1_555 1_555
H2 C5 1_555 1_555
H3 C5 1_555 1_555
C6 C7 1_555 1_555
C7 H4 1_555 1_555
C8 C7 1_555 1_555
H5 C8 1_555 1_555
C9 C8 1_555 1_555
H6 C9 1_555 1_555
C10 C9 1_555 1_555
H7 C10 1_555 1_555
C11 C6 1_555 1_555
H8 C11 1_555 1_555
C12 C13 1_555 1_555
C13 H9 1_555 1_555
H10 C13 1_555 1_555
H11 C13 1_555 1_555
C14 C12 1_555 1_555
C15 C14 1_555 1_555
C16 C15 1_555 1_555
H12 C16 1_555 1_555
C17 C16 1_555 1_555
H13 C17 1_555 1_555
C18 C17 1_555 1_555
H14 C18 1_555 1_555
C19 C18 1_555 1_555
H15 C19 1_555 1_555
C20 C15 1_555 1_555
H16 C20 1_555 1_555
N1 C3 1_555 1_555
N2 C14 1_555 1_555
H17 N2 1_555 1_555
H18 N2 1_555 1_555
O1 C1 1_555 1_555
O2 C1 1_555 1_555
C4 N1 1_555 1_555
C4 O1 1_555 1_555
C10 C11 1_555 1_555
C19 C20 1_555 1_555

#END
