
#######################################################################
#
#                 Cambridge Crystallographic Data Centre
#                                CCDC 
#
#######################################################################
#
# If this CIF has been generated from an entry in the Cambridge 
# Structural Database, then it will include bibliographic, chemical, 
# crystal, experimental, refinement or atomic coordinate data resulting 
# from the CCDC's data processing and validation procedures.
#
#######################################################################

data_PEQDOG
_chemical_formula_moiety         'C24 H18 N2 O1'
_chemical_name_systematic        
2,6-Diphenyl-5-(1-phenylvinyl)pyrimidin-4(3H)-one
_symmetry_cell_setting           monoclinic
_symmetry_space_group_name_H-M   'P 21/c'
_symmetry_Int_Tables_number      14
_space_group_name_Hall           '-P 2ybc'
loop_
_symmetry_equiv_pos_site_id
_symmetry_equiv_pos_as_xyz
1 x,y,z
2 -x,1/2+y,1/2-z
3 -x,-y,-z
4 x,1/2-y,1/2+z
_cell_length_a                   6.713(4)
_cell_length_b                   20.949(11)
_cell_length_c                   13.223(7)
_cell_angle_alpha                90
_cell_angle_beta                 100.980(9)
_cell_angle_gamma                90
_cell_volume                     1825.52
_exptl_crystal_colour            'pale yellow'
_exptl_crystal_description       block
_cell_formula_units_Z            4
loop_
_atom_site_label
_atom_site_type_symbol
_atom_site_fract_x
_atom_site_fract_y
_atom_site_fract_z
C1 C 0.29864(19) 0.50466(6) 0.09990(11)
C2 C 0.16230(19) 0.50892(6) 0.17158(11)
C3 C 0.06774(19) 0.56675(6) 0.17941(11)
C4 C 0.20652(19) 0.61372(6) 0.05187(11)
C5 C 0.1187(2) 0.44955(6) 0.22558(12)
C6 C -0.0722(2) 0.42988(7) 0.21625(13)
H1 H -0.1020 0.3923 0.2507
H2 H -0.1788 0.4534 0.1752
C7 C 0.2913(2) 0.41450(7) 0.28893(12)
C8 C 0.4694(2) 0.44616(9) 0.33207(14)
H3 H 0.4819 0.4905 0.3198
C9 C 0.6291(3) 0.41371(11) 0.39282(15)
H4 H 0.7497 0.4361 0.4215
C10 C 0.6151(3) 0.35007(11) 0.41181(17)
H5 H 0.7251 0.3281 0.4532
C11 C 0.4404(4) 0.31818(10) 0.37041(16)
H6 H 0.4297 0.2739 0.3838
C12 C 0.2790(3) 0.34944(8) 0.30932(15)
H7 H 0.1593 0.3264 0.2812
C13 C -0.06936(19) 0.57952(6) 0.25288(12)
C14 C -0.0187(2) 0.56437(7) 0.35618(12)
H8 H 0.1061 0.5434 0.3819
C15 C -0.1473(2) 0.57941(8) 0.42221(14)
H9 H -0.1099 0.5694 0.4934
C16 C -0.3320(2) 0.60924(8) 0.38498(16)
H10 H -0.4217 0.6190 0.4304
C17 C -0.3842(2) 0.62452(8) 0.28230(16)
H11 H -0.5106 0.6446 0.2566
C18 C -0.2534(2) 0.61076(7) 0.21653(13)
H12 H -0.2885 0.6226 0.1460
C19 C 0.2180(2) 0.66708(6) -0.01955(12)
C20 C 0.3834(2) 0.67670(7) -0.06709(13)
H13 H 0.4997 0.6501 -0.0503
C21 C 0.3781(2) 0.72490(7) -0.13859(13)
H14 H 0.4922 0.7319 -0.1701
C22 C 0.2078(2) 0.76312(7) -0.16485(14)
H15 H 0.2034 0.7952 -0.2161
C23 C 0.0447(2) 0.75472(7) -0.11673(13)
H16 H -0.0708 0.7816 -0.1336
C24 C 0.0494(2) 0.70734(6) -0.04422(13)
H17 H -0.0627 0.7019 -0.0107
N1 N 0.08685(16) 0.61859(5) 0.11817(10)
N2 N 0.31656(16) 0.55974(5) 0.04435(9)
H18 H 0.4032 0.5599 0.0021
O1 O 0.39453(15) 0.45618(4) 0.08381(9)
loop_
_geom_bond_atom_site_label_1
_geom_bond_atom_site_label_2
_geom_bond_site_symmetry_1
_geom_bond_site_symmetry_2
C1 C2 1_555 1_555
C2 C3 1_555 1_555
C3 C13 1_555 1_555
C4 C19 1_555 1_555
C5 C2 1_555 1_555
C6 C5 1_555 1_555
H1 C6 1_555 1_555
H2 C6 1_555 1_555
C7 C5 1_555 1_555
C8 C7 1_555 1_555
H3 C8 1_555 1_555
C9 C8 1_555 1_555
H4 C9 1_555 1_555
C10 C9 1_555 1_555
H5 C10 1_555 1_555
C11 C10 1_555 1_555
H6 C11 1_555 1_555
C12 C7 1_555 1_555
H7 C12 1_555 1_555
C13 C14 1_555 1_555
C14 H8 1_555 1_555
C15 C14 1_555 1_555
H9 C15 1_555 1_555
C16 C15 1_555 1_555
H10 C16 1_555 1_555
C17 C16 1_555 1_555
H11 C17 1_555 1_555
C18 C13 1_555 1_555
H12 C18 1_555 1_555
C19 C20 1_555 1_555
C20 H13 1_555 1_555
C21 C20 1_555 1_555
H14 C21 1_555 1_555
C22 C21 1_555 1_555
H15 C22 1_555 1_555
C23 C22 1_555 1_555
H16 C23 1_555 1_555
C24 C19 1_555 1_555
H17 C24 1_555 1_555
N1 C3 1_555 1_555
N2 C1 1_555 1_555
H18 N2 1_555 1_555
O1 C1 1_555 1_555
C4 N1 1_555 1_555
C4 N2 1_555 1_555
C11 C12 1_555 1_555
C17 C18 1_555 1_555
C23 C24 1_555 1_555

#END
