
#######################################################################
#
#                 Cambridge Crystallographic Data Centre
#                                CCDC 
#
#######################################################################
#
# If this CIF has been generated from an entry in the Cambridge 
# Structural Database, then it will include bibliographic, chemical, 
# crystal, experimental, refinement or atomic coordinate data resulting 
# from the CCDC's data processing and validation procedures.
#
#######################################################################

data_PEQDAT
_chemical_formula_moiety         'C18 H15 Br1 O2'
_chemical_name_systematic        
5-bromo-2-hydroxy-2-(1-phenylprop-2-en-1-yl)-2,3-dihydro-1H-inden-1-one
_symmetry_cell_setting           orthorhombic
_symmetry_space_group_name_H-M   'P 21 21 21'
_symmetry_Int_Tables_number      19
_space_group_name_Hall           'P 2ac 2ab'
loop_
_symmetry_equiv_pos_site_id
_symmetry_equiv_pos_as_xyz
1 x,y,z
2 1/2-x,-y,1/2+z
3 -x,1/2+y,1/2-z
4 1/2+x,1/2-y,-z
_cell_length_a                   8.6567(2)
_cell_length_b                   13.8347(4)
_cell_length_c                   25.4021(6)
_cell_angle_alpha                90
_cell_angle_beta                 90
_cell_angle_gamma                90
_cell_volume                     3042.23
_exptl_crystal_colour            colorless
_exptl_crystal_description       block
_cell_formula_units_Z            8
loop_
_atom_site_label
_atom_site_type_symbol
_atom_site_fract_x
_atom_site_fract_y
_atom_site_fract_z
Br1 Br 1.25347(7) 0.44466(5) 0.81724(2)
O1 O 0.7487(5) 0.4225(3) 0.60342(14)
C1 C 0.8855(5) 0.4353(4) 0.6859(2)
O2 O 0.4899(4) 0.4269(3) 0.67634(16)
H1 H 0.463(5) 0.425(4) 0.649(2)
C2 C 1.0351(6) 0.4009(4) 0.6753(3)
H2 H 1.0620 0.3777 0.6413
C3 C 1.1411(6) 0.4019(4) 0.7154(2)
H3 H 1.2428 0.3783 0.7097
C4 C 1.0983(6) 0.4377(4) 0.7643(2)
C5 C 0.6185(5) 0.4904(4) 0.6801(2)
C6 C 0.6736(6) 0.4925(4) 0.7383(2)
H4 H 0.6594 0.5575 0.7538
H5 H 0.6157 0.4449 0.7597
C7 C 0.8431(6) 0.4663(4) 0.7357(2)
C8 C 0.9511(6) 0.4699(4) 0.7758(2)
H6 H 0.9252 0.4936 0.8097
C9 C 0.7554(7) 0.4454(4) 0.6498(2)
C10 C 0.5789(6) 0.5922(4) 0.6580(2)
H7 H 0.5474 0.5824 0.6206
C11 C 0.7191(6) 0.6562(4) 0.6568(3)
H8 H 0.7635 0.6739 0.6896
C12 C 0.7847(7) 0.6894(5) 0.6141(3)
H9 H 0.7437 0.6733 0.5806
H10 H 0.8734 0.7296 0.6167
C13 C 0.2914(6) 0.6132(4) 0.6700(2)
H11 H 0.2770 0.5725 0.6402
C14 C 0.4400(6) 0.6361(4) 0.6859(2)
C15 C 0.1638(8) 0.6481(4) 0.6965(3)
H12 H 0.0632 0.6318 0.6845
C16 C 0.1802(8) 0.7059(4) 0.7400(3)
H13 H 0.0922 0.7280 0.7587
C17 C 0.3274(8) 0.7315(4) 0.7560(2)
H14 H 0.3407 0.7725 0.7857
C18 C 0.4555(7) 0.6976(5) 0.7290(2)
H15 H 0.5558 0.7166 0.7401
Br2 Br -0.16571(7) 0.31185(5) 0.36633(3)
O3 O 0.3285(4) 0.4206(3) 0.57598(14)
O4 O 0.5927(4) 0.3789(3) 0.50879(16)
H16 H 0.6169 0.3952 0.5395
C19 C 0.2427(6) 0.3752(3) 0.4430(2)
C20 C 0.1374(6) 0.3520(4) 0.4037(2)
H17 H 0.1679 0.3475 0.3678
C21 C -0.0137(6) 0.3359(4) 0.4190(2)
C22 C -0.0632(6) 0.3395(4) 0.4715(2)
H18 H -0.1677 0.3264 0.4804
C23 C 0.0424(6) 0.3625(4) 0.5098(2)
H19 H 0.0126 0.3650 0.5458
C24 C 0.1941(6) 0.3820(4) 0.4950(2)
C25 C 0.3249(6) 0.4123(4) 0.5280(2)
C26 C 0.4640(5) 0.4333(4) 0.4921(2)
C27 C 0.4131(6) 0.3962(4) 0.4373(2)
H20 H 0.4311 0.4459 0.4100
H21 H 0.4705 0.3369 0.4277
C28 C 0.4989(5) 0.5434(4) 0.4937(2)
H22 H 0.5271 0.5580 0.5310
C29 C 0.3581(6) 0.6033(4) 0.4822(2)
H23 H 0.3094 0.5950 0.4490
C30 C 0.2978(7) 0.6663(4) 0.5149(3)
H24 H 0.3435 0.6764 0.5485
H25 H 0.2084 0.7017 0.5051
C31 C 0.6398(6) 0.5713(4) 0.4609(2)
C32 C 0.6279(6) 0.6094(4) 0.4102(2)
H26 H 0.5288 0.6180 0.3948
C33 C 0.7586(8) 0.6349(4) 0.3820(2)
H27 H 0.7481 0.6602 0.3474
C34 C 0.9017(7) 0.6241(4) 0.4032(3)
H28 H 0.9906 0.6430 0.3838
C35 C 0.9171(7) 0.5854(4) 0.4530(3)
H29 H 1.0168 0.5763 0.4677
C36 C 0.7865(6) 0.5597(4) 0.4815(2)
H30 H 0.7982 0.5336 0.5158
loop_
_geom_bond_atom_site_label_1
_geom_bond_atom_site_label_2
_geom_bond_site_symmetry_1
_geom_bond_site_symmetry_2
Br1 C4 1_555 1_555
O1 C9 1_555 1_555
C1 C2 1_555 1_555
O2 H1 1_555 1_555
C2 H2 1_555 1_555
C3 C2 1_555 1_555
H3 C3 1_555 1_555
C4 C3 1_555 1_555
C5 O2 1_555 1_555
C6 C5 1_555 1_555
H4 C6 1_555 1_555
H5 C6 1_555 1_555
C7 C1 1_555 1_555
C8 C4 1_555 1_555
H6 C8 1_555 1_555
C9 C1 1_555 1_555
C10 C5 1_555 1_555
H7 C10 1_555 1_555
C11 C10 1_555 1_555
H8 C11 1_555 1_555
C12 C11 1_555 1_555
H9 C12 1_555 1_555
H10 C12 1_555 1_555
C13 H11 1_555 1_555
C14 C10 1_555 1_555
C15 C13 1_555 1_555
H12 C15 1_555 1_555
C16 C15 1_555 1_555
H13 C16 1_555 1_555
C17 C16 1_555 1_555
H14 C17 1_555 1_555
C18 C14 1_555 1_555
H15 C18 1_555 1_555
Br2 C21 1_555 1_555
O3 C25 1_555 1_555
O4 H16 1_555 1_555
C19 C20 1_555 1_555
C20 H17 1_555 1_555
C21 C20 1_555 1_555
C22 C21 1_555 1_555
H18 C22 1_555 1_555
C23 C22 1_555 1_555
H19 C23 1_555 1_555
C24 C19 1_555 1_555
C25 C24 1_555 1_555
C26 O4 1_555 1_555
C27 C19 1_555 1_555
H20 C27 1_555 1_555
H21 C27 1_555 1_555
C28 C26 1_555 1_555
H22 C28 1_555 1_555
C29 C28 1_555 1_555
H23 C29 1_555 1_555
C30 C29 1_555 1_555
H24 C30 1_555 1_555
H25 C30 1_555 1_555
C31 C28 1_555 1_555
C32 C31 1_555 1_555
H26 C32 1_555 1_555
C33 C32 1_555 1_555
H27 C33 1_555 1_555
C34 C33 1_555 1_555
H28 C34 1_555 1_555
C35 C34 1_555 1_555
H29 C35 1_555 1_555
C36 C31 1_555 1_555
H30 C36 1_555 1_555
C5 C9 1_555 1_555
C6 C7 1_555 1_555
C7 C8 1_555 1_555
C13 C14 1_555 1_555
C17 C18 1_555 1_555
C23 C24 1_555 1_555
C25 C26 1_555 1_555
C26 C27 1_555 1_555
C35 C36 1_555 1_555

#END
