
#######################################################################
#
#                 Cambridge Crystallographic Data Centre
#                                CCDC 
#
#######################################################################
#
# If this CIF has been generated from an entry in the Cambridge 
# Structural Database, then it will include bibliographic, chemical, 
# crystal, experimental, refinement or atomic coordinate data resulting 
# from the CCDC's data processing and validation procedures.
#
#######################################################################

data_PEQGAW
_chemical_formula_moiety         'C34 H40 F6 N6 O4'
_chemical_name_systematic        
'(1r,4r)-4-(((2R,4r,6S)-4-((3,5-bis(trifluoromethyl)benzyl)(5-(1-methyl-1H-pyrazol-4-yl)pyrimidin-2-yl)amino)-2,6-diethylpiperidine-1-carbonyl)oxy)cyclohexane-1-carboxylic acid'
_chemical_properties_biological  
'cholesteryl ester transfer protein (CETP) inhibitor'
_symmetry_cell_setting           monoclinic
_symmetry_space_group_name_H-M   'P 21/c'
_symmetry_Int_Tables_number      14
_space_group_name_Hall           '-P 2ybc'
loop_
_symmetry_equiv_pos_site_id
_symmetry_equiv_pos_as_xyz
1 x,y,z
2 -x,1/2+y,1/2-z
3 -x,-y,-z
4 x,1/2-y,1/2+z
_cell_length_a                   12.992(5)
_cell_length_b                   24.943(9)
_cell_length_c                   10.778(4)
_cell_angle_alpha                90
_cell_angle_beta                 101.17(2)
_cell_angle_gamma                90
_cell_volume                     3426.55
_exptl_crystal_colour            colorless
_exptl_crystal_description       rod
_cell_formula_units_Z            4
loop_
_atom_site_label
_atom_site_type_symbol
_atom_site_fract_x
_atom_site_fract_y
_atom_site_fract_z
N1 N 0.64363(8) 0.30496(4) 0.89223(11)
C1 C 0.66648(10) 0.35539(5) 0.83131(13)
H1 H 0.6692 0.3847 0.8952
C2 C 0.77087(10) 0.35555(5) 0.78697(13)
H2 H 0.7655 0.3340 0.7088
H3 H 0.8265 0.3398 0.8528
C3 C 0.79763(10) 0.41410(6) 0.76150(14)
H4 H 0.8313 0.4299 0.8447
N2 N 0.70006(9) 0.44512(4) 0.71555(11)
C4 C 0.60956(11) 0.41622(6) 0.63936(13)
H5 H 0.5492 0.4418 0.6244
C5 C 0.57872(11) 0.36936(6) 0.71883(14)
H6 H 0.5147 0.3792 0.7506
H7 H 0.5623 0.3374 0.6642
C6 C 0.62767(12) 0.39847(6) 0.50965(14)
H8 H 0.6891 0.3742 0.5215
H9 H 0.5658 0.3779 0.4667
C7 C 0.64634(14) 0.44470(7) 0.42485(16)
H10 H 0.5847 0.4682 0.4096
H11 H 0.6585 0.4306 0.3441
H12 H 0.7079 0.4652 0.4662
C8 C 0.87703(11) 0.41906(6) 0.67425(15)
H13 H 0.9369 0.3949 0.7053
H14 H 0.8435 0.4069 0.5885
C9 C 0.91851(13) 0.47563(7) 0.66539(18)
H15 H 0.8603 0.4996 0.6303
H16 H 0.9702 0.4757 0.6102
H17 H 0.9517 0.4881 0.7499
C10 C 0.67619(11) 0.48923(5) 0.77832(13)
O1 O 0.59183(8) 0.51237(4) 0.75826(10)
O2 O 0.75831(7) 0.50600(4) 0.86755(10)
C11 C 0.73283(11) 0.54179(6) 0.96382(14)
H18 H 0.6864 0.5712 0.9223
C12 C 0.83537(13) 0.56516(8) 1.03111(18)
H19 H 0.8681 0.5859 0.9707
H20 H 0.8840 0.5360 1.0662
C13 C 0.81577(14) 0.60190(8) 1.13824(18)
H21 H 0.8835 0.6164 1.1838
H22 H 0.7713 0.6325 1.1019
C14 C 0.76177(12) 0.57184(6) 1.23126(15)
H23 H 0.8087 0.5422 1.2708
C15 C 0.65875(13) 0.54777(6) 1.16083(14)
H24 H 0.6101 0.5770 1.1260
H25 H 0.6257 0.5268 1.2207
C16 C 0.67718(13) 0.51130(6) 1.05302(15)
H26 H 0.7202 0.4801 1.0883
H27 H 0.6091 0.4978 1.0060
C17 C 0.74087(11) 0.60912(6) 1.33414(14)
O3 O 0.69043(8) 0.65012(4) 1.31305(10)
O4 O 0.78327(10) 0.59294(5) 1.44951(10)
H28 H 0.7646 0.6135 1.5028
C18 C 0.57523(10) 0.30717(5) 0.97529(12)
N3 N 0.52997(9) 0.26118(5) 1.00149(11)
C19 C 0.46258(10) 0.26507(6) 1.07999(13)
H29 H 0.4270 0.2335 1.0975
C20 C 0.44133(10) 0.31272(6) 1.13787(13)
C21 C 0.49622(11) 0.35714(6) 1.10711(13)
H30 H 0.4863 0.3905 1.1458
N4 N 0.56194(9) 0.35543(5) 1.02645(11)
C22 C 0.37079(11) 0.31500(6) 1.22933(13)
C23 C 0.31993(11) 0.27253(6) 1.27362(13)
H31 H 0.3221 0.2361 1.2485
N5 N 0.26691(9) 0.29223(5) 1.35870(11)
N6 N 0.28003(10) 0.34582(5) 1.37356(12)
C24 C 0.34352(12) 0.35968(6) 1.29561(14)
H32 H 0.3673 0.3952 1.2861
C25 C 0.20141(12) 0.26325(7) 1.43053(15)
H33 H 0.1274 0.2710 1.3961
H34 H 0.2185 0.2745 1.5193
H35 H 0.2140 0.2247 1.4247
C26 C 0.65473(10) 0.25490(5) 0.82616(13)
H36 H 0.6470 0.2627 0.7347
H37 H 0.5967 0.2306 0.8367
C27 C 0.75783(10) 0.22590(5) 0.87020(12)
C28 C 0.78307(10) 0.18364(5) 0.79643(13)
H38 H 0.7354 0.1735 0.7217
C29 C 0.87710(11) 0.15642(5) 0.83141(13)
C30 C 0.94770(11) 0.16986(5) 0.94142(13)
H39 H 1.0118 0.1509 0.9657
C31 C 0.92205(10) 0.21161(5) 1.01444(13)
C32 C 0.82786(10) 0.23951(5) 0.97969(13)
H40 H 0.8116 0.2680 1.0313
C33 C 0.99672(11) 0.22899(6) 1.13152(13)
F1 F 0.95306(7) 0.22755(4) 1.23452(8)
F2 F 1.03020(8) 0.27917(4) 1.12252(9)
F3 F 1.08252(6) 0.19831(4) 1.15810(8)
C34 C 0.90367(12) 0.11135(6) 0.75046(15)
F4 F 1.00631(8) 0.10756(4) 0.75299(11)
F5 F 0.85757(9) 0.11693(5) 0.62888(10)
F6 F 0.87349(9) 0.06390(4) 0.78765(12)
loop_
_geom_bond_atom_site_label_1
_geom_bond_atom_site_label_2
_geom_bond_site_symmetry_1
_geom_bond_site_symmetry_2
N1 C1 1_555 1_555
C1 H1 1_555 1_555
C2 C1 1_555 1_555
H2 C2 1_555 1_555
H3 C2 1_555 1_555
C3 C2 1_555 1_555
H4 C3 1_555 1_555
N2 C3 1_555 1_555
C4 N2 1_555 1_555
H5 C4 1_555 1_555
C5 C1 1_555 1_555
H6 C5 1_555 1_555
H7 C5 1_555 1_555
C6 C4 1_555 1_555
H8 C6 1_555 1_555
H9 C6 1_555 1_555
C7 C6 1_555 1_555
H10 C7 1_555 1_555
H11 C7 1_555 1_555
H12 C7 1_555 1_555
C8 C3 1_555 1_555
H13 C8 1_555 1_555
H14 C8 1_555 1_555
C9 C8 1_555 1_555
H15 C9 1_555 1_555
H16 C9 1_555 1_555
H17 C9 1_555 1_555
C10 N2 1_555 1_555
O1 C10 1_555 1_555
O2 C10 1_555 1_555
C11 O2 1_555 1_555
H18 C11 1_555 1_555
C12 C11 1_555 1_555
H19 C12 1_555 1_555
H20 C12 1_555 1_555
C13 C12 1_555 1_555
H21 C13 1_555 1_555
H22 C13 1_555 1_555
C14 C13 1_555 1_555
H23 C14 1_555 1_555
C15 C14 1_555 1_555
H24 C15 1_555 1_555
H25 C15 1_555 1_555
C16 C11 1_555 1_555
H26 C16 1_555 1_555
H27 C16 1_555 1_555
C17 C14 1_555 1_555
O3 C17 1_555 1_555
O4 C17 1_555 1_555
H28 O4 1_555 1_555
C18 N1 1_555 1_555
N3 C18 1_555 1_555
C19 N3 1_555 1_555
H29 C19 1_555 1_555
C20 C19 1_555 1_555
C21 C20 1_555 1_555
H30 C21 1_555 1_555
N4 C18 1_555 1_555
C22 C20 1_555 1_555
C23 C22 1_555 1_555
H31 C23 1_555 1_555
N5 C23 1_555 1_555
N6 N5 1_555 1_555
C24 C22 1_555 1_555
H32 C24 1_555 1_555
C25 N5 1_555 1_555
H33 C25 1_555 1_555
H34 C25 1_555 1_555
H35 C25 1_555 1_555
C26 N1 1_555 1_555
H36 C26 1_555 1_555
H37 C26 1_555 1_555
C27 C26 1_555 1_555
C28 C27 1_555 1_555
H38 C28 1_555 1_555
C29 C28 1_555 1_555
C30 C29 1_555 1_555
H39 C30 1_555 1_555
C31 C30 1_555 1_555
C32 C27 1_555 1_555
H40 C32 1_555 1_555
C33 C31 1_555 1_555
F1 C33 1_555 1_555
F2 C33 1_555 1_555
F3 C33 1_555 1_555
C34 C29 1_555 1_555
F4 C34 1_555 1_555
F5 C34 1_555 1_555
F6 C34 1_555 1_555
C4 C5 1_555 1_555
C15 C16 1_555 1_555
C21 N4 1_555 1_555
N6 C24 1_555 1_555
C31 C32 1_555 1_555

#END
