
#######################################################################
#
#                 Cambridge Crystallographic Data Centre
#                                CCDC 
#
#######################################################################
#
# If this CIF has been generated from an entry in the Cambridge 
# Structural Database, then it will include bibliographic, chemical, 
# crystal, experimental, refinement or atomic coordinate data resulting 
# from the CCDC's data processing and validation procedures.
#
#######################################################################

data_PEQJEC
_chemical_formula_moiety         'C24 H28 O5'
_chemical_name_systematic        
't-Butyl 2-((2,2-diphenyl-1,3-dioxolan-4-yl)(hydroxy)methyl)but-3-enoate'
_symmetry_cell_setting           monoclinic
_symmetry_space_group_name_H-M   'P 21/n'
_symmetry_Int_Tables_number      14
_space_group_name_Hall           '-P 2yn'
loop_
_symmetry_equiv_pos_site_id
_symmetry_equiv_pos_as_xyz
1 x,y,z
2 1/2-x,1/2+y,1/2-z
3 -x,-y,-z
4 1/2+x,1/2-y,1/2+z
_cell_length_a                   7.9353(2)
_cell_length_b                   17.7258(4)
_cell_length_c                   15.3911(11)
_cell_angle_alpha                90
_cell_angle_beta                 98.985(7)
_cell_angle_gamma                90
_cell_volume                     2138.34
_exptl_crystal_colour            colorless
_exptl_crystal_description       chunk
_cell_formula_units_Z            4
loop_
_atom_site_label
_atom_site_type_symbol
_atom_site_fract_x
_atom_site_fract_y
_atom_site_fract_z
O1 O 0.44290(11) 0.28539(5) 0.51129(6)
O2 O 0.65689(13) 0.19995(6) 0.50808(7)
O3 O 0.64458(12) 0.41822(5) 0.50226(6)
O4 O 0.54918(12) 0.54412(5) 0.36286(7)
O5 O 0.80488(11) 0.50409(5) 0.33401(6)
C1 C 0.49685(17) 0.21120(7) 0.53838(9)
C2 C 0.51787(17) 0.30332(7) 0.43537(8)
C3 C 0.68595(18) 0.26086(8) 0.45241(10)
C4 C 0.53081(17) 0.38877(7) 0.42966(8)
C5 C 0.60004(17) 0.41110(7) 0.34545(8)
C6 C 0.64616(17) 0.49449(7) 0.34974(8)
C7 C 0.88348(19) 0.57984(8) 0.33059(11)
C8 C 0.7852(3) 0.62428(12) 0.25583(16)
C9 C 1.0600(2) 0.56036(10) 0.31188(13)
C10 C 0.8929(3) 0.61786(11) 0.41899(15)
C11 C 0.47160(19) 0.39673(8) 0.26396(9)
C12 C 0.4965(3) 0.35169(10) 0.20012(10)
C13 C 0.52686(16) 0.20973(7) 0.63859(9)
C14 C 0.60115(19) 0.27209(8) 0.68415(10)
C15 C 0.6328(2) 0.27272(8) 0.77484(10)
C16 C 0.59200(18) 0.21052(8) 0.82177(9)
C17 C 0.52049(18) 0.14801(8) 0.77734(9)
C18 C 0.48682(17) 0.14747(8) 0.68600(9)
C19 C 0.36576(18) 0.15359(7) 0.49652(8)
C20 C 0.4110(2) 0.09035(8) 0.45240(9)
C21 C 0.2861(2) 0.03890(9) 0.41706(10)
C22 C 0.1177(2) 0.04991(9) 0.42535(10)
C23 C 0.0722(2) 0.11272(9) 0.46938(10)
C24 C 0.19555(19) 0.16391(8) 0.50504(9)
H1 H 0.4469 0.2836 0.3824
H2 H 0.5915 0.4281 0.5425
H3 H 0.7031 0.3816 0.3417
H4 H 0.7171 0.2424 0.3978
H5 H 0.7765 0.2932 0.4811
H6 H 0.4175 0.4110 0.4287
H7 H 0.3675 0.4217 0.2589
H8 H 0.6299 0.3139 0.6531
H9 H 0.6816 0.3150 0.8045
H10 H 0.6127 0.2109 0.8829
H11 H 0.4945 0.1058 0.8087
H12 H 0.4373 0.1052 0.6566
H13 H 0.7754 0.5952 0.2027
H14 H 0.8443 0.6705 0.2484
H15 H 0.6734 0.6354 0.2688
H16 H 0.5245 0.0823 0.4464
H17 H 0.3169 -0.0034 0.3875
H18 H 0.0352 0.0153 0.4015
H19 H -0.0414 0.1206 0.4751
H20 H 0.1641 0.2058 0.5351
H21 H 1.1178 0.5298 0.3588
H22 H 1.1236 0.6059 0.3075
H23 H 1.0507 0.5330 0.2575
H24 H 0.7803 0.6321 0.4281
H25 H 0.9633 0.6620 0.4206
H26 H 0.9411 0.5836 0.4645
H27 H 0.5991 0.3258 0.2030
H28 H 0.4115 0.3455 0.1517
loop_
_geom_bond_atom_site_label_1
_geom_bond_atom_site_label_2
_geom_bond_site_symmetry_1
_geom_bond_site_symmetry_2
O1 C1 1_555 1_555
O2 C1 1_555 1_555
O3 C4 1_555 1_555
O4 C6 1_555 1_555
O5 C6 1_555 1_555
C1 C13 1_555 1_555
C2 O1 1_555 1_555
C3 O2 1_555 1_555
C4 C2 1_555 1_555
C5 C4 1_555 1_555
C6 C5 1_555 1_555
C7 O5 1_555 1_555
C8 C7 1_555 1_555
C9 C7 1_555 1_555
C10 C7 1_555 1_555
C11 C5 1_555 1_555
C12 C11 1_555 1_555
C13 C14 1_555 1_555
C14 C15 1_555 1_555
C15 C16 1_555 1_555
C16 C17 1_555 1_555
C17 C18 1_555 1_555
C18 C13 1_555 1_555
C19 C1 1_555 1_555
C20 C19 1_555 1_555
C21 C20 1_555 1_555
C22 C21 1_555 1_555
C23 C22 1_555 1_555
C24 C19 1_555 1_555
H1 C2 1_555 1_555
H2 O3 1_555 1_555
H3 C5 1_555 1_555
H4 C3 1_555 1_555
H5 C3 1_555 1_555
H6 C4 1_555 1_555
H7 C11 1_555 1_555
H8 C14 1_555 1_555
H9 C15 1_555 1_555
H10 C16 1_555 1_555
H11 C17 1_555 1_555
H12 C18 1_555 1_555
H13 C8 1_555 1_555
H14 C8 1_555 1_555
H15 C8 1_555 1_555
H16 C20 1_555 1_555
H17 C21 1_555 1_555
H18 C22 1_555 1_555
H19 C23 1_555 1_555
H20 C24 1_555 1_555
H21 C9 1_555 1_555
H22 C9 1_555 1_555
H23 C9 1_555 1_555
H24 C10 1_555 1_555
H25 C10 1_555 1_555
H26 C10 1_555 1_555
H27 C12 1_555 1_555
H28 C12 1_555 1_555
C2 C3 1_555 1_555
C23 C24 1_555 1_555

#END
