
#######################################################################
#
#                 Cambridge Crystallographic Data Centre
#                                CCDC 
#
#######################################################################
#
# If this CIF has been generated from an entry in the Cambridge 
# Structural Database, then it will include bibliographic, chemical, 
# crystal, experimental, refinement or atomic coordinate data resulting 
# from the CCDC's data processing and validation procedures.
#
#######################################################################

data_PEQKOM
_chemical_formula_moiety         'C11 H18 O3'
_chemical_name_systematic        
2-(Allyloxy)-2-(1-hydroxyprop-2-en-1-yl)tetrahydro-2H-pyran
_symmetry_cell_setting           rhombohedral
_symmetry_space_group_name_H-M   'R -3'
_symmetry_Int_Tables_number      148
_space_group_name_Hall           '-R 3'
loop_
_symmetry_equiv_pos_site_id
_symmetry_equiv_pos_as_xyz
1 x,y,z
2 -y,x-y,z
3 -x+y,-x,z
4 1/3+x,2/3+y,2/3+z
5 1/3-y,2/3+x-y,2/3+z
6 1/3-x+y,2/3-x,2/3+z
7 2/3+x,1/3+y,1/3+z
8 2/3-y,1/3+x-y,1/3+z
9 2/3-x+y,1/3-x,1/3+z
10 -x,-y,-z
11 y,-x+y,-z
12 x-y,x,-z
13 2/3-x,1/3-y,1/3-z
14 2/3+y,1/3-x+y,1/3-z
15 2/3+x-y,1/3+x,1/3-z
16 1/3-x,2/3-y,2/3-z
17 1/3+y,2/3-x+y,2/3-z
18 1/3+x-y,2/3+x,2/3-z
_cell_length_a                   25.432(3)
_cell_length_b                   25.432(3)
_cell_length_c                   9.036(2)
_cell_angle_alpha                90
_cell_angle_beta                 90
_cell_angle_gamma                120.00
_cell_volume                     5061.37
_exptl_crystal_colour            colorless
_exptl_crystal_description       block
_cell_formula_units_Z            18
loop_
_atom_site_label
_atom_site_type_symbol
_atom_site_fract_x
_atom_site_fract_y
_atom_site_fract_z
O1 O 0.23120(6) 0.01913(6) 0.25680(16)
O2 O 0.17534(6) -0.03611(6) 0.46297(14)
O3 O 0.11022(6) 0.02356(6) 0.44639(14)
H1 H 0.1072 0.0529 0.4783
C1 C 0.17380(8) -0.00789(8) 0.3286(2)
C2 C 0.24950(10) -0.02414(10) 0.2151(3)
H2 H 0.2540 -0.0437 0.3052
H3 H 0.2894 -0.0026 0.1651
C3 C 0.20364(11) -0.07236(11) 0.1129(3)
H4 H 0.2170 -0.1018 0.0875
H5 H 0.2006 -0.0533 0.0201
C4 C 0.14188(10) -0.10527(10) 0.1884(2)
H6 H 0.1437 -0.1278 0.2757
H7 H 0.1111 -0.1347 0.1191
C5 C 0.12439(9) -0.05849(9) 0.2364(2)
H8 H 0.1165 -0.0407 0.1474
H9 H 0.0864 -0.0790 0.2949
C6 C 0.21713(9) 0.00263(9) 0.5726(2)
H10 H 0.1989 0.0230 0.6289
H11 H 0.2545 0.0344 0.5241
C7 C 0.23261(10) -0.03336(10) 0.6756(2)
H12 H 0.2583 -0.0122 0.7567
C8 C 0.21420(11) -0.09137(11) 0.6652(3)
H13 H 0.1884 -0.1145 0.5860
H14 H 0.2266 -0.1103 0.7368
C9 C 0.16264(8) 0.04563(8) 0.3552(2)
H15 H 0.1981 0.0778 0.4112
C10 C 0.15643(10) 0.07293(9) 0.2136(2)
H16 H 0.1901 0.0899 0.1479
C11 C 0.10784(12) 0.07509(11) 0.1739(2)
H17 H 0.0733 0.0586 0.2368
H18 H 0.1073 0.0931 0.0823
loop_
_geom_bond_atom_site_label_1
_geom_bond_atom_site_label_2
_geom_bond_site_symmetry_1
_geom_bond_site_symmetry_2
O1 C1 1_555 1_555
O2 C1 1_555 1_555
O3 H1 1_555 1_555
C1 C5 1_555 1_555
C2 O1 1_555 1_555
H2 C2 1_555 1_555
H3 C2 1_555 1_555
C3 C2 1_555 1_555
H4 C3 1_555 1_555
H5 C3 1_555 1_555
C4 C3 1_555 1_555
H6 C4 1_555 1_555
H7 C4 1_555 1_555
C5 C4 1_555 1_555
H8 C5 1_555 1_555
H9 C5 1_555 1_555
C6 O2 1_555 1_555
H10 C6 1_555 1_555
H11 C6 1_555 1_555
C7 C6 1_555 1_555
H12 C7 1_555 1_555
C8 C7 1_555 1_555
H13 C8 1_555 1_555
H14 C8 1_555 1_555
C9 O3 1_555 1_555
H15 C9 1_555 1_555
C10 C9 1_555 1_555
H16 C10 1_555 1_555
C11 C10 1_555 1_555
H17 C11 1_555 1_555
H18 C11 1_555 1_555
C1 C9 1_555 1_555

#END
