
#######################################################################
#
#                 Cambridge Crystallographic Data Centre
#                                CCDC 
#
#######################################################################
#
# If this CIF has been generated from an entry in the Cambridge 
# Structural Database, then it will include bibliographic, chemical, 
# crystal, experimental, refinement or atomic coordinate data resulting 
# from the CCDC's data processing and validation procedures.
#
#######################################################################

data_PEQNUW
_chemical_formula_moiety         'C20 H16 Cl4 S4 Si2'
_chemical_name_systematic        
2,5,9,12-Tetrachloro-7,7,14,14-tetramethyl-7,14-dihydrotristhieno[2',3':7,8;3'',2'':4,5;3''',2''':9,10][1,6]disilecino[2,3-b]thiophene
_symmetry_cell_setting           monoclinic
_symmetry_space_group_name_H-M   'P 21/n'
_symmetry_Int_Tables_number      14
_space_group_name_Hall           '-P 2yn'
loop_
_symmetry_equiv_pos_site_id
_symmetry_equiv_pos_as_xyz
1 x,y,z
2 1/2-x,1/2+y,1/2-z
3 -x,-y,-z
4 1/2+x,1/2-y,1/2+z
_cell_length_a                   10.456(2)
_cell_length_b                   18.845(4)
_cell_length_c                   13.655(3)
_cell_angle_alpha                90
_cell_angle_beta                 106.440(2)
_cell_angle_gamma                90
_cell_volume                     2580.62
_exptl_crystal_colour            colorless
_exptl_crystal_description       block
_cell_formula_units_Z            4
loop_
_atom_site_label
_atom_site_type_symbol
_atom_site_fract_x
_atom_site_fract_y
_atom_site_fract_z
S1 S 0.64229(9) 0.21958(5) 0.38097(7)
Si1 Si 0.81108(9) 0.35842(5) 0.41008(7)
S2 S 1.07735(9) 0.43334(4) 0.41183(7)
S3 S 0.99719(10) 0.09928(5) 0.47336(8)
S4 S 1.09339(11) 0.29846(5) 0.16070(8)
Si2 Si 1.09958(10) 0.17104(5) 0.30427(8)
Cl1 Cl 0.56587(11) 0.07665(5) 0.29012(9)
Cl2 Cl 0.89962(12) 0.10350(6) 0.65814(10)
Cl3 Cl 1.36937(11) 0.43645(6) 0.43817(9)
Cl4 Cl 0.97065(16) 0.42648(6) 0.04654(10)
C1 C 0.9964(3) 0.35787(16) 0.4364(2)
C2 C 0.7496(3) 0.27440(16) 0.3399(2)
C3 C 0.7876(3) 0.24112(16) 0.2631(2)
C4 C 1.0877(3) 0.30422(16) 0.4679(2)
C5 C 0.8836(3) 0.27299(16) 0.2133(2)
C6 C 1.0561(3) 0.17435(16) 0.4281(3)
C7 C 0.9993(3) 0.21404(18) 0.5725(3)
H1 H 0.9900 0.2465 0.6213
C8 C 1.0090(3) 0.24547(16) 0.2248(2)
C9 C 0.7310(3) 0.17292(16) 0.2378(2)
H2 H 0.7472 0.1440 0.1874
C10 C 1.0504(3) 0.23109(16) 0.4891(2)
C11 C 0.9662(3) 0.14499(19) 0.5716(3)
C12 C 1.2208(3) 0.32415(18) 0.4735(2)
H3 H 1.2939 0.2940 0.4946
C13 C 0.6508(3) 0.15503(16) 0.2955(3)
C14 C 0.8561(4) 0.33520(17) 0.1528(2)
H4 H 0.7758 0.3598 0.1376
C15 C 0.9614(4) 0.35402(18) 0.1202(3)
C16 C 1.2280(3) 0.39188(18) 0.4447(3)
C17 C 0.7444(4) 0.43988(18) 0.3368(3)
H5 H 0.7710 0.4410 0.2750
H6 H 0.7790 0.4809 0.3773
H7 H 0.6489 0.4398 0.3202
C18 C 0.7604(4) 0.3587(2) 0.5301(3)
H8 H 0.6656 0.3648 0.5141
H9 H 0.8042 0.3971 0.5729
H10 H 0.7854 0.3145 0.5652
C19 C 1.2794(4) 0.1842(2) 0.3207(3)
H11 H 1.2988 0.1746 0.2574
H12 H 1.3297 0.1524 0.3723
H13 H 1.3032 0.2323 0.3410
C20 C 1.0478(5) 0.0838(2) 0.2430(3)
H14 H 0.9580 0.0738 0.2435
H15 H 1.1062 0.0475 0.2799
H16 H 1.0522 0.0851 0.1737
loop_
_geom_bond_atom_site_label_1
_geom_bond_atom_site_label_2
_geom_bond_site_symmetry_1
_geom_bond_site_symmetry_2
S1 C2 1_555 1_555
Si1 C1 1_555 1_555
S2 C1 1_555 1_555
S3 C6 1_555 1_555
S4 C8 1_555 1_555
Si2 C6 1_555 1_555
Cl1 C13 1_555 1_555
Cl2 C11 1_555 1_555
Cl3 C16 1_555 1_555
Cl4 C15 1_555 1_555
C1 C4 1_555 1_555
C2 Si1 1_555 1_555
C3 C2 1_555 1_555
C4 C10 1_555 1_555
C5 C3 1_555 1_555
C6 C10 1_555 1_555
C7 H1 1_555 1_555
C8 Si2 1_555 1_555
C9 C3 1_555 1_555
H2 C9 1_555 1_555
C10 C7 1_555 1_555
C11 S3 1_555 1_555
C12 C4 1_555 1_555
H3 C12 1_555 1_555
C13 S1 1_555 1_555
C14 C5 1_555 1_555
H4 C14 1_555 1_555
C15 S4 1_555 1_555
C16 S2 1_555 1_555
C17 Si1 1_555 1_555
H5 C17 1_555 1_555
H6 C17 1_555 1_555
H7 C17 1_555 1_555
C18 Si1 1_555 1_555
H8 C18 1_555 1_555
H9 C18 1_555 1_555
H10 C18 1_555 1_555
C19 Si2 1_555 1_555
H11 C19 1_555 1_555
H12 C19 1_555 1_555
H13 C19 1_555 1_555
C20 Si2 1_555 1_555
H14 C20 1_555 1_555
H15 C20 1_555 1_555
H16 C20 1_555 1_555
C5 C8 1_555 1_555
C7 C11 1_555 1_555
C9 C13 1_555 1_555
C12 C16 1_555 1_555
C14 C15 1_555 1_555

#END
