
#######################################################################
#
#                 Cambridge Crystallographic Data Centre
#                                CCDC 
#
#######################################################################
#
# If this CIF has been generated from an entry in the Cambridge 
# Structural Database, then it will include bibliographic, chemical, 
# crystal, experimental, refinement or atomic coordinate data resulting 
# from the CCDC's data processing and validation procedures.
#
#######################################################################

data_PEQQEK
_chemical_formula_moiety         'C28 H19 N1 O2 S2'
_chemical_name_systematic        
3,4-bis(1-benzothiophen-3-yl)-1-[(4-methylphenyl)methyl]-1H-pyrrole-2,5-dione
_symmetry_cell_setting           monoclinic
_symmetry_space_group_name_H-M   'P 21/n'
_symmetry_Int_Tables_number      14
_space_group_name_Hall           '-P 2yn'
loop_
_symmetry_equiv_pos_site_id
_symmetry_equiv_pos_as_xyz
1 x,y,z
2 1/2-x,1/2+y,1/2-z
3 -x,-y,-z
4 1/2+x,1/2-y,1/2+z
_cell_length_a                   10.46787(15)
_cell_length_b                   10.74851(15)
_cell_length_c                   20.0903(3)
_cell_angle_alpha                90
_cell_angle_beta                 96.0770(13)
_cell_angle_gamma                90
_cell_volume                     2247.74
_exptl_crystal_colour            orange
_exptl_crystal_description       Prism
_cell_formula_units_Z            4
loop_
_atom_site_label
_atom_site_type_symbol
_atom_site_fract_x
_atom_site_fract_y
_atom_site_fract_z
S1 S 0.08782(5) 0.84733(4) 0.06423(2)
S2 S -0.25990(4) 0.40753(5) 0.20881(2)
O1 O 0.25594(13) 0.48077(13) 0.00274(6)
O2 O 0.09580(14) 0.16068(11) 0.11474(7)
N1 N 0.19733(13) 0.29908(13) 0.05118(7)
C1 C 0.08998(14) 0.68367(15) 0.16012(8)
C2 C 0.10119(15) 0.61496(15) 0.09896(8)
C3 C 0.06865(15) 0.38438(15) 0.12660(8)
C4 C -0.03377(15) 0.38073(14) 0.17086(8)
C5 C -0.03347(15) 0.30776(14) 0.23144(8)
C6 C 0.09172(17) 0.64201(16) 0.22627(8)
C7 C 0.08269(16) 0.81285(16) 0.14829(9)
C8 C 0.07624(19) 0.89845(17) 0.19990(10)
C9 C 0.0771(2) 0.85415(18) 0.26387(10)
C10 C -0.15335(16) 0.31185(16) 0.25657(8)
C11 C 0.11969(15) 0.26583(15) 0.10015(8)
C12 C 0.39127(16) 0.17338(16) 0.03765(8)
C13 C 0.49353(18) 0.25485(17) 0.03443(9)
C14 C 0.61549(19) 0.22105(19) 0.05973(10)
C15 C -0.14709(16) 0.43923(17) 0.15521(9)
C16 C 0.10266(17) 0.69287(17) 0.04547(9)
C17 C 0.64082(18) 0.10652(18) 0.09002(9)
C18 C 0.11646(14) 0.48058(15) 0.09347(7)
C19 C 0.06624(18) 0.24217(16) 0.26742(9)
C20 C 0.25742(17) 0.20875(18) 0.00930(9)
C21 C -0.1771(2) 0.24627(17) 0.31401(9)
C22 C 0.19888(15) 0.42602(16) 0.04343(8)
C23 C 0.0435(2) 0.18089(18) 0.32540(9)
C24 C 0.41594(17) 0.05854(16) 0.06759(9)
C25 C 0.53849(18) 0.02600(17) 0.09342(9)
C26 C 0.0846(2) 0.72724(18) 0.27713(9)
C27 C -0.0778(2) 0.18117(18) 0.34741(9)
C28 C 0.7755(2) 0.0708(2) 0.11756(13)
H1 H 0.07149(19) 0.98338(17) 0.19116(10)
H2 H 0.0725(2) 0.90981(18) 0.29898(10)
H3 H 0.0849(2) 0.69935(18) 0.32097(9)
H4 H 0.09762(17) 0.55743(16) 0.23587(8)
H5 H 0.14730(18) 0.23979(16) 0.25246(9)
H6 H 0.1104(2) 0.13887(18) 0.35003(9)
H7 H -0.0918(2) 0.13631(18) 0.38555(9)
H8 H -0.2581(2) 0.24681(17) 0.32912(9)
H9 H 0.34883(17) 0.00268(16) 0.07029(9)
H10 H 0.55277(18) -0.05143(17) 0.11350(9)
H11 H 0.68286(19) 0.27637(19) 0.05648(10)
H12 H 0.47920(18) 0.33281(17) 0.01499(9)
H13 H -0.16260(16) 0.49205(17) 0.11858(9)
H14 H 0.11101(17) 0.66451(17) 0.00241(9)
H15 H 0.20470(17) 0.13441(18) 0.00465(9)
H16 H 0.26046(17) 0.24385(18) -0.03499(9)
H17 H 0.8361(2) 0.1201(12) 0.0964(7)
H18 H 0.7866(6) 0.0854(17) 0.1650(2)
H19 H 0.7894(6) -0.0157(5) 0.1089(8)
loop_
_geom_bond_atom_site_label_1
_geom_bond_atom_site_label_2
_geom_bond_site_symmetry_1
_geom_bond_site_symmetry_2
S1 C7 1_555 1_555
S2 C10 1_555 1_555
O1 C22 1_555 1_555
O2 C11 1_555 1_555
N1 C11 1_555 1_555
C1 C2 1_555 1_555
C2 C16 1_555 1_555
C3 C4 1_555 1_555
C4 C5 1_555 1_555
C5 C10 1_555 1_555
C6 C1 1_555 1_555
C7 C1 1_555 1_555
C8 C7 1_555 1_555
C9 C8 1_555 1_555
C10 C21 1_555 1_555
C11 C3 1_555 1_555
C12 C13 1_555 1_555
C13 C14 1_555 1_555
C14 C17 1_555 1_555
C15 S2 1_555 1_555
C16 S1 1_555 1_555
C17 C25 1_555 1_555
C18 C2 1_555 1_555
C19 C5 1_555 1_555
C20 N1 1_555 1_555
C21 C27 1_555 1_555
C22 N1 1_555 1_555
C23 C19 1_555 1_555
C24 C12 1_555 1_555
C25 C24 1_555 1_555
C26 C6 1_555 1_555
C27 C23 1_555 1_555
C28 C17 1_555 1_555
H1 C8 1_555 1_555
H2 C9 1_555 1_555
H3 C26 1_555 1_555
H4 C6 1_555 1_555
H5 C19 1_555 1_555
H6 C23 1_555 1_555
H7 C27 1_555 1_555
H8 C21 1_555 1_555
H9 C24 1_555 1_555
H10 C25 1_555 1_555
H11 C14 1_555 1_555
H12 C13 1_555 1_555
H13 C15 1_555 1_555
H14 C16 1_555 1_555
H15 C20 1_555 1_555
H16 C20 1_555 1_555
H17 C28 1_555 1_555
H18 C28 1_555 1_555
H19 C28 1_555 1_555
C3 C18 1_555 1_555
C4 C15 1_555 1_555
C9 C26 1_555 1_555
C12 C20 1_555 1_555
C18 C22 1_555 1_555

#END
