
#######################################################################
#
#                 Cambridge Crystallographic Data Centre
#                                CCDC 
#
#######################################################################
#
# If this CIF has been generated from an entry in the Cambridge 
# Structural Database, then it will include bibliographic, chemical, 
# crystal, experimental, refinement or atomic coordinate data resulting 
# from the CCDC's data processing and validation procedures.
#
#######################################################################

data_PEQQOU
_chemical_formula_moiety         'C28 H19 N1 O2 S2'
_chemical_name_systematic        
3,4-bis(1-benzothiophen-2-yl)-1-[(4-methylphenyl)methyl]-1H-pyrrole-2,5-dione
_symmetry_cell_setting           monoclinic
_symmetry_space_group_name_H-M   'P 21'
_symmetry_Int_Tables_number      4
_space_group_name_Hall           'P 2yb'
loop_
_symmetry_equiv_pos_site_id
_symmetry_equiv_pos_as_xyz
1 x,y,z
2 -x,1/2+y,-z
_cell_length_a                   12.116(8)
_cell_length_b                   6.081(4)
_cell_length_c                   14.925(10)
_cell_angle_alpha                90
_cell_angle_beta                 91.203(9)
_cell_angle_gamma                90
_cell_volume                     1099.39
_exptl_crystal_colour            colorless
_exptl_crystal_description       Prism
_cell_formula_units_Z            2
loop_
_atom_site_label
_atom_site_type_symbol
_atom_site_fract_x
_atom_site_fract_y
_atom_site_fract_z
S1 S 0.76381(13) 0.2651(2) 0.05113(10)
S2 S 0.94825(14) -0.2965(3) 0.14335(10)
N1 N 0.8282(4) 0.2950(8) 0.3640(3)
O1 O 0.7104(4) 0.4578(7) 0.2602(3)
C1 C 0.5919(4) -0.2592(10) -0.0203(3)
H1 H 0.5730 -0.3907 0.0073
C2 C 1.0705(5) -0.4911(10) 0.2651(4)
C3 C 0.5555(5) -0.2117(11) -0.1065(4)
H2 H 0.5090 -0.3107 -0.1361
C4 C 0.6870(4) 0.0928(9) -0.0186(3)
C5 C 1.0413(5) -0.5029(9) 0.1750(4)
C6 C 0.8261(5) 0.4633(10) 0.4336(4)
H3 H 0.8246 0.6067 0.4052
H4 H 0.8939 0.4536 0.4692
C7 C 0.6583(4) -0.1033(9) 0.0245(4)
C8 C 1.1418(5) -0.6530(11) 0.3003(5)
H5 H 1.1634 -0.6492 0.3604
O2 O 0.9519(4) 0.0550(8) 0.4312(3)
C9 C 0.7602(4) 0.0715(9) 0.1374(3)
C10 C 0.7741(5) 0.3147(10) 0.2807(4)
C11 C 0.8858(5) 0.0005(9) 0.2754(3)
C12 C 0.8108(5) 0.1190(9) 0.2267(4)
C13 C 0.7028(4) -0.1102(9) 0.1141(3)
H6 H 0.6929 -0.2287 0.1525
C14 C 1.0227(4) -0.3046(9) 0.3117(4)
H7 H 1.0375 -0.2662 0.3711
C15 C 0.8966(5) 0.1116(10) 0.3665(4)
C16 C 0.7103(5) 0.2610(11) 0.5453(4)
H8 H 0.7554 0.1388 0.5381
C17 C 1.0798(5) -0.6701(11) 0.1178(5)
H9 H 1.0592 -0.6759 0.0575
C18 C 0.5555(5) 0.4303(12) 0.6192(4)
C19 C 0.9511(4) -0.1923(9) 0.2529(4)
C20 C 0.5864(6) -0.0211(12) -0.1499(4)
H10 H 0.5630 0.0028 -0.2089
C21 C 0.7288(5) 0.4467(9) 0.4961(4)
C22 C 1.1492(6) -0.8238(12) 0.1562(6)
H11 H 1.1768 -0.9364 0.1209
C23 C 0.6510(5) 0.1327(11) -0.1070(4)
H12 H 0.6708 0.2616 -0.1361
C24 C 1.1792(6) -0.8148(12) 0.2463(6)
H13 H 1.2259 -0.9221 0.2702
C25 C 0.4630(6) 0.4185(14) 0.6856(5)
H14 H 0.4931 0.4299 0.7455
H15 H 0.4249 0.2809 0.6789
H16 H 0.4123 0.5373 0.6747
C26 C 0.5741(6) 0.6146(12) 0.5693(4)
H17 H 0.5285 0.7360 0.5763
C27 C 0.6580(6) 0.6258(10) 0.5092(4)
H18 H 0.6681 0.7543 0.4767
C28 C 0.6253(6) 0.2527(12) 0.6057(4)
H19 H 0.6145 0.1242 0.6381
loop_
_geom_bond_atom_site_label_1
_geom_bond_atom_site_label_2
_geom_bond_site_symmetry_1
_geom_bond_site_symmetry_2
S1 C4 1_555 1_555
S2 C5 1_555 1_555
N1 C6 1_555 1_555
O1 C10 1_555 1_555
C1 H1 1_555 1_555
C2 C5 1_555 1_555
C3 C1 1_555 1_555
H2 C3 1_555 1_555
C4 C7 1_555 1_555
C5 C17 1_555 1_555
C6 H3 1_555 1_555
H4 C6 1_555 1_555
C7 C1 1_555 1_555
C8 C2 1_555 1_555
H5 C8 1_555 1_555
O2 C15 1_555 1_555
C9 S1 1_555 1_555
C10 N1 1_555 1_555
C11 C12 1_555 1_555
C12 C9 1_555 1_555
C13 C7 1_555 1_555
H6 C13 1_555 1_555
C14 C2 1_555 1_555
H7 C14 1_555 1_555
C15 N1 1_555 1_555
C16 H8 1_555 1_555
C17 H9 1_555 1_555
C18 C25 1_555 1_555
C19 S2 1_555 1_555
C20 C3 1_555 1_555
H10 C20 1_555 1_555
C21 C6 1_555 1_555
C22 C17 1_555 1_555
H11 C22 1_555 1_555
C23 C4 1_555 1_555
H12 C23 1_555 1_555
C24 C8 1_555 1_555
H13 C24 1_555 1_555
C25 H14 1_555 1_555
H15 C25 1_555 1_555
H16 C25 1_555 1_555
C26 C18 1_555 1_555
H17 C26 1_555 1_555
C27 C21 1_555 1_555
H18 C27 1_555 1_555
C28 C16 1_555 1_555
H19 C28 1_555 1_555
C9 C13 1_555 1_555
C10 C12 1_555 1_555
C11 C15 1_555 1_555
C11 C19 1_555 1_555
C14 C19 1_555 1_555
C16 C21 1_555 1_555
C18 C28 1_555 1_555
C20 C23 1_555 1_555
C22 C24 1_555 1_555
C26 C27 1_555 1_555

#END
