
#######################################################################
#
#                 Cambridge Crystallographic Data Centre
#                                CCDC 
#
#######################################################################
#
# If this CIF has been generated from an entry in the Cambridge 
# Structural Database, then it will include bibliographic, chemical, 
# crystal, experimental, refinement or atomic coordinate data resulting 
# from the CCDC's data processing and validation procedures.
#
#######################################################################

data_PEQQIO
_chemical_formula_moiety         'C28 H19 N1 O4'
_chemical_name_systematic        
3,4-bis(1-benzofuran-3-yl)-1-[(4-methylphenyl)methyl]-1H-pyrrole-2,5-dione
_symmetry_cell_setting           triclinic
_symmetry_space_group_name_H-M   'P -1'
_symmetry_Int_Tables_number      2
_space_group_name_Hall           '-P 1'
loop_
_symmetry_equiv_pos_site_id
_symmetry_equiv_pos_as_xyz
1 x,y,z
2 -x,-y,-z
_cell_length_a                   9.9552(3)
_cell_length_b                   12.0622(3)
_cell_length_c                   19.7548(5)
_cell_angle_alpha                76.307(2)
_cell_angle_beta                 84.586(2)
_cell_angle_gamma                69.467(3)
_cell_volume                     2158.18
_exptl_crystal_colour            green
_exptl_crystal_description       Prism
_cell_formula_units_Z            4
loop_
_atom_site_label
_atom_site_type_symbol
_atom_site_fract_x
_atom_site_fract_y
_atom_site_fract_z
O1 O 0.09547(11) 0.10913(9) 0.39257(5)
O2 O 0.39066(12) -0.08131(11) 0.25870(5)
C1 C 0.12038(14) 0.12171(11) 0.27608(6)
C2 C -0.02618(14) 0.19287(11) 0.29085(6)
O3 O 0.27351(15) 0.10854(12) 0.03451(5)
C3 C 0.18466(15) 0.07386(13) 0.33901(7)
H1 H 0.27947(15) 0.02247(13) 0.34500(7)
C4 C -0.03366(15) 0.18315(12) 0.36260(7)
C5 C 0.45842(15) -0.21019(15) 0.11068(7)
C6 C 0.19183(14) 0.10028(12) 0.21044(6)
C7 C 0.32547(15) -0.00799(14) 0.20967(7)
C8 C 0.16080(15) 0.15909(13) 0.14358(7)
N1 N 0.36368(13) -0.00927(12) 0.14086(6)
C9 C -0.15310(17) 0.23952(15) 0.39884(8)
H2 H -0.15250(17) 0.23088(15) 0.44687(8)
C10 C 0.05431(17) 0.27453(14) 0.11316(7)
C11 C 0.01668(16) 0.38906(14) 0.13383(8)
C12 C -0.15158(14) 0.26039(13) 0.25329(7)
H3 H -0.15368(14) 0.26638(13) 0.20556(7)
C13 C -0.27328(17) 0.30928(15) 0.36016(9)
H4 H -0.35610(17) 0.35109(15) 0.38203(9)
C14 C 0.26797(17) 0.08754(14) 0.09735(7)
C15 C 0.06187(19) 0.43007(16) 0.18505(10)
H5 H 0.13118(19) 0.37739(16) 0.21708(10)
C16 C -0.27257(16) 0.31813(14) 0.28875(9)
H6 H -0.35618(16) 0.36439(14) 0.26401(9)
C17 C 0.41460(19) -0.21716(16) 0.04810(8)
H7 H 0.40509(19) -0.15305(16) 0.00979(8)
O4 O -0.11582(18) 0.41430(15) 0.04054(7)
C18 C 0.4702(2) -0.30688(18) 0.16663(8)
H8 H 0.4987(2) -0.30468(18) 0.20964(8)
C19 C 0.39805(19) -0.41527(17) 0.09625(10)
C20 C 0.48972(17) -0.10085(16) 0.11811(9)
H9 H 0.56564(17) -0.12603(16) 0.15165(9)
H10 H 0.52382(17) -0.06481(16) 0.07369(9)
C21 C -0.1040(3) 0.6300(2) 0.14007(17)
H11 H -0.1434(3) 0.7109(2) 0.14311(17)
C22 C 0.3846(2) -0.31693(18) 0.04112(9)
H12 H 0.3546(2) -0.31831(18) -0.00176(9)
C23 C -0.0880(2) 0.47132(17) 0.08782(10)
C24 C -0.1513(3) 0.5923(2) 0.08954(15)
H13 H -0.2220(3) 0.6451(2) 0.05824(15)
C25 C 0.4400(2) -0.40659(19) 0.15918(10)
H14 H 0.4480(2) -0.47013(19) 0.19769(10)
C26 C 0.0005(2) 0.55091(18) 0.18657(14)
H15 H 0.0303(2) 0.58018(18) 0.21985(14)
C27 C -0.0256(2) 0.29749(19) 0.05708(9)
H16 H -0.0199(2) 0.23949(19) 0.03215(9)
C28 C 0.3685(3) -0.5255(2) 0.08854(14)
H17 H 0.2668(3) -0.5089(7) 0.0897(11)
H18 H 0.407(2) -0.5455(12) 0.0449(5)
H19 H 0.412(2) -0.5924(6) 0.1261(6)
O5 O -0.03763(11) -0.23436(10) 0.45554(5)
C29 C -0.20432(12) -0.20509(11) 0.37636(6)
O6 O -0.41169(13) 0.07741(10) 0.48157(5)
C30 C -0.38714(13) 0.08048(10) 0.30451(6)
O7 O -0.60693(11) 0.24952(10) 0.26718(6)
C31 C -0.33238(14) 0.06220(11) 0.23576(6)
N2 N -0.54276(12) 0.18319(10) 0.38221(6)
O8 O -0.33626(14) 0.08661(11) 0.11873(5)
C32 C -0.27481(15) -0.24417(12) 0.33411(7)
H20 H -0.35402(15) -0.19028(12) 0.30823(7)
C33 C -0.66703(13) 0.38478(12) 0.41224(7)
C34 C -0.19042(14) -0.00545(11) 0.21224(6)
C35 C -0.52473(14) 0.18188(12) 0.31241(7)
C36 C -0.66002(14) 0.41743(12) 0.47366(7)
H21 H -0.65285(14) 0.36085(12) 0.51554(7)
C37 C -0.33671(13) 0.02360(11) 0.36912(6)
C38 C -0.22429(13) -0.09096(11) 0.39420(6)
C39 C -0.08797(13) -0.28920(12) 0.41486(7)
C40 C -0.42977(15) 0.09326(11) 0.42018(7)
C41 C -0.41085(18) 0.11502(14) 0.17712(7)
H22 H -0.50610(18) 0.16559(14) 0.17680(7)
C42 C -0.05692(15) -0.07458(13) 0.24185(8)
H23 H -0.04331(15) -0.08665(13) 0.28933(8)
C43 C -0.67674(18) 0.47116(14) 0.35051(8)
H24 H -0.68283(18) 0.45182(14) 0.30830(8)
C44 C -0.20074(18) 0.01218(14) 0.14054(7)
C45 C -0.03416(16) -0.41023(13) 0.41232(8)
H25 H 0.04546(16) -0.46421(13) 0.43787(8)
C46 C -0.66343(16) 0.53262(13) 0.47429(8)
H26 H -0.66065(16) 0.55263(13) 0.51668(8)
C47 C -0.67087(16) 0.61875(13) 0.41326(8)
C48 C -0.12392(16) -0.11566(14) 0.44201(7)
H27 H -0.11453(16) -0.05799(14) 0.46346(7)
C49 C -0.67741(19) 0.58515(14) 0.35141(8)
H28 H -0.68238(19) 0.64118(14) 0.30947(8)
C50 C -0.22331(18) -0.36545(14) 0.33188(9)
H29 H -0.26908(18) -0.39360(14) 0.30422(9)
C51 C -0.10436(19) -0.44648(14) 0.37014(9)
H30 H -0.07175(19) -0.52740(14) 0.36696(9)
C52 C -0.67068(16) 0.26114(14) 0.41271(9)
H31 H -0.75414(16) 0.27066(14) 0.38726(9)
H32 H -0.68199(16) 0.22079(14) 0.46048(9)
C53 C 0.0384(2) -0.10729(18) 0.12807(10)
H33 H 0.1159(2) -0.14355(18) 0.10115(10)
C54 C 0.05467(18) -0.12475(16) 0.19911(10)
H34 H 0.14370(18) -0.17183(16) 0.21867(10)
C55 C -0.0904(2) -0.03717(18) 0.09694(9)
H35 H -0.1029(2) -0.02365(18) 0.04924(9)
C56 C -0.6740(2) 0.74419(16) 0.41350(12)
H36 H -0.7701(4) 0.8003(3) 0.4052(9)
H37 H -0.6429(17) 0.7448(4) 0.4579(3)
H38 H -0.6112(14) 0.7676(6) 0.3775(6)
loop_
_geom_bond_atom_site_label_1
_geom_bond_atom_site_label_2
_geom_bond_site_symmetry_1
_geom_bond_site_symmetry_2
O1 C3 1_555 1_555
O2 C7 1_555 1_555
C1 C2 1_555 1_555
C2 C4 1_555 1_555
O3 C14 1_555 1_555
C3 C1 1_555 1_555
H1 C3 1_555 1_555
C4 O1 1_555 1_555
C5 C17 1_555 1_555
C6 C1 1_555 1_555
C7 C6 1_555 1_555
C8 C6 1_555 1_555
N1 C7 1_555 1_555
C9 C4 1_555 1_555
H2 C9 1_555 1_555
C10 C8 1_555 1_555
C11 C10 1_555 1_555
C12 C2 1_555 1_555
H3 C12 1_555 1_555
C13 C9 1_555 1_555
H4 C13 1_555 1_555
C14 C8 1_555 1_555
C15 C11 1_555 1_555
H5 C15 1_555 1_555
C16 C12 1_555 1_555
H6 C16 1_555 1_555
C17 H7 1_555 1_555
O4 C23 1_555 1_555
C18 C5 1_555 1_555
H8 C18 1_555 1_555
C19 C22 1_555 1_555
C20 C5 1_555 1_555
H9 C20 1_555 1_555
H10 C20 1_555 1_555
C21 H11 1_555 1_555
C22 C17 1_555 1_555
H12 C22 1_555 1_555
C23 C11 1_555 1_555
C24 C21 1_555 1_555
H13 C24 1_555 1_555
C25 C18 1_555 1_555
H14 C25 1_555 1_555
C26 C15 1_555 1_555
H15 C26 1_555 1_555
C27 C10 1_555 1_555
H16 C27 1_555 1_555
C28 C19 1_555 1_555
H17 C28 1_555 1_555
H18 C28 1_555 1_555
H19 C28 1_555 1_555
O5 C39 1_555 1_555
C29 C32 1_555 1_555
O6 C40 1_555 1_555
C30 C31 1_555 1_555
O7 C35 1_555 1_555
C31 C34 1_555 1_555
N2 C35 1_555 1_555
O8 C41 1_555 1_555
C32 H20 1_555 1_555
C33 C36 1_555 1_555
C34 C42 1_555 1_555
C35 C30 1_555 1_555
C36 H21 1_555 1_555
C37 C30 1_555 1_555
C38 C29 1_555 1_555
C39 C29 1_555 1_555
C40 N2 1_555 1_555
C41 C31 1_555 1_555
H22 C41 1_555 1_555
C42 H23 1_555 1_555
C43 C33 1_555 1_555
H24 C43 1_555 1_555
C44 O8 1_555 1_555
C45 C39 1_555 1_555
H25 C45 1_555 1_555
C46 C36 1_555 1_555
H26 C46 1_555 1_555
C47 C46 1_555 1_555
C48 O5 1_555 1_555
H27 C48 1_555 1_555
C49 C43 1_555 1_555
H28 C49 1_555 1_555
C50 C32 1_555 1_555
H29 C50 1_555 1_555
C51 C45 1_555 1_555
H30 C51 1_555 1_555
C52 N2 1_555 1_555
H31 C52 1_555 1_555
H32 C52 1_555 1_555
C53 H33 1_555 1_555
C54 C42 1_555 1_555
H34 C54 1_555 1_555
C55 C44 1_555 1_555
H35 C55 1_555 1_555
C56 C47 1_555 1_555
H36 C56 1_555 1_555
H37 C56 1_555 1_555
H38 C56 1_555 1_555
N1 C14 1_555 1_555
N1 C20 1_555 1_555
C13 C16 1_555 1_555
O4 C27 1_555 1_555
C19 C25 1_555 1_555
C21 C26 1_555 1_555
C23 C24 1_555 1_555
C33 C52 1_555 1_555
C34 C44 1_555 1_555
C37 C38 1_555 1_555
C37 C40 1_555 1_555
C38 C48 1_555 1_555
C47 C49 1_555 1_555
C50 C51 1_555 1_555
C53 C54 1_555 1_555
C53 C55 1_555 1_555

#END
