
#######################################################################
#
#                 Cambridge Crystallographic Data Centre
#                                CCDC 
#
#######################################################################
#
# If this CIF has been generated from an entry in the Cambridge 
# Structural Database, then it will include bibliographic, chemical, 
# crystal, experimental, refinement or atomic coordinate data resulting 
# from the CCDC's data processing and validation procedures.
#
#######################################################################

data_PEQVOY
_chemical_formula_moiety         'C19 H5 F15'
_chemical_name_systematic        
1,3,6,7,9-pentakis(Trifluoromethyl)phenanthrene
_symmetry_cell_setting           monoclinic
_symmetry_space_group_name_H-M   'P 21/c'
_symmetry_Int_Tables_number      14
_space_group_name_Hall           '-P 2ybc'
loop_
_symmetry_equiv_pos_site_id
_symmetry_equiv_pos_as_xyz
1 x,y,z
2 -x,1/2+y,1/2-z
3 -x,-y,-z
4 x,1/2-y,1/2+z
_cell_length_a                   18.3324(10)
_cell_length_b                   4.9815(3)
_cell_length_c                   19.5381(9)
_cell_angle_alpha                90
_cell_angle_beta                 102.809(3)
_cell_angle_gamma                90
_cell_volume                     1739.87
_exptl_crystal_colour            colorless
_exptl_crystal_description       needle
_cell_formula_units_Z            4
loop_
_atom_site_label
_atom_site_type_symbol
_atom_site_fract_x
_atom_site_fract_y
_atom_site_fract_z
F1 F 0.1011(3) 1.126(2) 0.5145(3)
F2 F 0.0487(3) 0.7963(10) 0.4620(4)
F3 F 0.0572(4) 1.1415(16) 0.4063(4)
C1 C 0.29996(9) 0.9145(3) 0.46674(8)
C2 C 0.23354(9) 0.9984(3) 0.48147(8)
H1 H 0.2336 1.1213 0.5173
C3 C 0.16592(9) 0.8971(3) 0.44204(9)
C4 C 0.16488(9) 0.7101(3) 0.39013(8)
H2 H 0.1194 0.6419 0.3655
C5 C 0.16619(9) 0.2966(3) 0.28272(8)
H3 H 0.1214 0.3361 0.2955
C6 C 0.16541(9) 0.1174(3) 0.22903(8)
C7 C 0.23378(9) 0.0484(3) 0.21091(8)
C8 C 0.29925(9) 0.1634(3) 0.24691(9)
H4 H 0.3441 0.1153 0.2354
C9 C 0.36842(9) 0.4802(3) 0.33819(9)
C10 C 0.36863(9) 0.6552(3) 0.39112(9)
H5 H 0.4137 0.7286 0.4151
C11 C 0.30045(9) 0.7303(3) 0.41117(8)
C12 C 0.23198(9) 0.6205(3) 0.37384(8)
C13 C 0.23243(8) 0.4229(3) 0.31923(8)
C14 C 0.30030(9) 0.3532(3) 0.30106(8)
C15 C 0.37224(10) 1.0127(4) 0.51313(9)
C16 C 0.09320(10) 0.9940(4) 0.45662(9)
C17 C 0.09045(9) 0.0051(3) 0.19178(9)
C18 C 0.23915(10) -0.1386(3) 0.15128(9)
C19 C 0.44157(9) 0.4128(4) 0.31895(9)
F4 F 0.41512(6) 1.1479(2) 0.47728(6)
F5 F 0.41352(6) 0.8088(2) 0.54469(6)
F6 F 0.36015(6) 1.1771(3) 0.56341(6)
F7 F 0.03349(6) 0.1463(2) 0.20672(6)
F8 F 0.08141(6) 0.0063(2) 0.12246(5)
F9 F 0.08081(6) -0.2485(2) 0.21143(6)
F10 F 0.21898(7) -0.0163(2) 0.08880(5)
F11 F 0.19617(6) -0.3571(2) 0.14847(6)
F12 F 0.30903(6) -0.2270(3) 0.15641(6)
F13 F 0.43958(6) 0.4657(3) 0.25133(6)
F14 F 0.45817(6) 0.1511(2) 0.32907(6)
F15 F 0.49896(6) 0.5504(2) 0.35664(6)
F16? F 0.0650(7) 0.831(2) 0.4934(9)
F17? F 0.0998(5) 1.2233(19) 0.4890(8)
F18? F 0.0430(5) 1.042(3) 0.4005(3)
loop_
_geom_bond_atom_site_label_1
_geom_bond_atom_site_label_2
_geom_bond_site_symmetry_1
_geom_bond_site_symmetry_2
F1 C16 1_555 1_555
F2 C16 1_555 1_555
F3 C16 1_555 1_555
C1 C2 1_555 1_555
C2 H1 1_555 1_555
C3 C2 1_555 1_555
C4 C3 1_555 1_555
H2 C4 1_555 1_555
C5 H3 1_555 1_555
C6 C5 1_555 1_555
C7 C6 1_555 1_555
C8 C7 1_555 1_555
H4 C8 1_555 1_555
C9 C10 1_555 1_555
C10 H5 1_555 1_555
C11 C1 1_555 1_555
C12 C4 1_555 1_555
C13 C5 1_555 1_555
C14 C8 1_555 1_555
C15 C1 1_555 1_555
C16 C3 1_555 1_555
C17 C6 1_555 1_555
C18 C7 1_555 1_555
C19 C9 1_555 1_555
F4 C15 1_555 1_555
F5 C15 1_555 1_555
F6 C15 1_555 1_555
F7 C17 1_555 1_555
F8 C17 1_555 1_555
F9 C17 1_555 1_555
F10 C18 1_555 1_555
F11 C18 1_555 1_555
F12 C18 1_555 1_555
F13 C19 1_555 1_555
F14 C19 1_555 1_555
F15 C19 1_555 1_555
C9 C14 1_555 1_555
C10 C11 1_555 1_555
C11 C12 1_555 1_555
C12 C13 1_555 1_555
C13 C14 1_555 1_555

#END
