
#######################################################################
#
#                 Cambridge Crystallographic Data Centre
#                                CCDC 
#
#######################################################################
#
# If this CIF has been generated from an entry in the Cambridge 
# Structural Database, then it will include bibliographic, chemical, 
# crystal, experimental, refinement or atomic coordinate data resulting 
# from the CCDC's data processing and validation procedures.
#
#######################################################################

data_PEQVEO
_chemical_formula_moiety         'C24 H6 F18'
_chemical_name_systematic        
1,3,6,7,10,11-hexakis(Trifluoromethyl)triphenylene
_symmetry_cell_setting           triclinic
_symmetry_space_group_name_H-M   'P -1'
_symmetry_Int_Tables_number      2
_space_group_name_Hall           '-P 1'
loop_
_symmetry_equiv_pos_site_id
_symmetry_equiv_pos_as_xyz
1 x,y,z
2 -x,-y,-z
_cell_length_a                   9.7331(7)
_cell_length_b                   10.3747(7)
_cell_length_c                   12.4103(9)
_cell_angle_alpha                110.570(4)
_cell_angle_beta                 102.087(4)
_cell_angle_gamma                102.718(4)
_cell_volume                     1086.61
_exptl_crystal_colour            colorless
_exptl_crystal_description       rod
_cell_formula_units_Z            2
loop_
_atom_site_label
_atom_site_type_symbol
_atom_site_fract_x
_atom_site_fract_y
_atom_site_fract_z
C1 C 0.32047(16) 0.79746(16) 0.94017(13)
C2 C 0.37807(16) 0.92234(16) 1.05834(13)
C3 C 0.20090(16) 1.03170(16) 0.98195(13)
C4 C 0.53992(16) 1.04197(16) 1.26812(13)
C5 C 0.31338(16) 1.03349(16) 1.08146(13)
C6 C 0.18805(17) 0.53584(16) 0.73405(14)
H1 H 0.1420 0.4466 0.6675
C7 C 0.13934(16) 0.90848(16) 0.87045(13)
C8 C 0.04379(17) 0.92019(17) 0.77470(14)
H2 H 0.0052 0.8411 0.6995
C9 C 0.18842(16) 0.77996(16) 0.85365(13)
C10 C 0.06337(17) 1.16474(17) 0.89939(14)
C11 C 0.16056(17) 1.15721(16) 0.99371(14)
H3 H 0.2010 1.2380 1.0678
C12 C 0.36101(16) 1.14547(16) 1.19848(13)
H4 H 0.3164 1.2178 1.2137
C13 C 0.49238(16) 0.93041(16) 1.15396(13)
H5 H 0.5371 0.8582 1.1395
C14 C 0.39050(17) 0.69015(17) 0.91502(14)
H6 H 0.4804 0.7050 0.9694
C15 C 0.32764(18) 0.56357(17) 0.81097(14)
C16 C 0.47182(16) 1.15159(16) 1.29160(13)
C17 C 0.11698(17) 0.63977(16) 0.75554(13)
C18 C 0.66082(17) 1.03656(17) 1.36389(14)
C19 C 0.00463(17) 1.04327(17) 0.78702(14)
C20 C -0.04263(18) 0.58604(17) 0.67554(14)
C21 C 0.51507(18) 1.28014(18) 1.41295(14)
C22 C 0.02813(19) 1.30560(18) 0.92423(16)
C23 C -0.0946(2) 1.04298(19) 0.67485(15)
C24 C 0.4055(2) 0.45162(18) 0.78666(16)
F1 F 0.72636(11) 0.94029(11) 1.31527(9)
F2 F -0.05984(11) 0.61241(11) 0.57559(8)
F3 F -0.13025(10) 0.64459(11) 0.73468(9)
F4 F 0.76883(11) 1.16574(11) 1.42596(9)
F5 F 0.60946(12) 0.99899(13) 1.44358(9)
F6 F -0.10012(11) 0.44228(11) 0.63641(10)
F7 F 0.63823(11) 1.38308(11) 1.42872(9)
F8 F 0.35202(14) 0.35165(12) 0.67427(10)
F9 F 0.54216(12) 1.24546(12) 1.50674(9)
F10 F 0.03316(13) 1.35148(12) 0.83744(10)
F11 F -0.20262(12) 1.09818(13) 0.69863(10)
F12 F 0.40929(12) 1.34238(12) 1.42033(9)
F13 F -0.10644(13) 1.29304(13) 0.93644(12)
F14 F -0.16142(15) 0.90818(13) 0.58878(10)
F15 F -0.01988(14) 1.11899(14) 0.62702(11)
F16 F 0.12408(16) 1.41288(12) 1.02702(11)
F17 F 0.39322(19) 0.38026(15) 0.85744(12)
F18 F 0.54979(14) 0.51052(14) 0.80946(17)
loop_
_geom_bond_atom_site_label_1
_geom_bond_atom_site_label_2
_geom_bond_site_symmetry_1
_geom_bond_site_symmetry_2
C1 C2 1_555 1_555
C2 C5 1_555 1_555
C3 C5 1_555 1_555
C4 C13 1_555 1_555
C5 C12 1_555 1_555
C6 H1 1_555 1_555
C7 C3 1_555 1_555
C8 C7 1_555 1_555
H2 C8 1_555 1_555
C9 C1 1_555 1_555
C10 C11 1_555 1_555
C11 C3 1_555 1_555
H3 C11 1_555 1_555
C12 H4 1_555 1_555
C13 C2 1_555 1_555
H5 C13 1_555 1_555
C14 C1 1_555 1_555
H6 C14 1_555 1_555
C15 C6 1_555 1_555
C16 C4 1_555 1_555
C17 C6 1_555 1_555
C18 C4 1_555 1_555
C19 C8 1_555 1_555
C20 C17 1_555 1_555
C21 C16 1_555 1_555
C22 C10 1_555 1_555
C23 C19 1_555 1_555
C24 C15 1_555 1_555
F1 C18 1_555 1_555
F2 C20 1_555 1_555
F3 C20 1_555 1_555
F4 C18 1_555 1_555
F5 C18 1_555 1_555
F6 C20 1_555 1_555
F7 C21 1_555 1_555
F8 C24 1_555 1_555
F9 C21 1_555 1_555
F10 C22 1_555 1_555
F11 C23 1_555 1_555
F12 C21 1_555 1_555
F13 C22 1_555 1_555
F14 C23 1_555 1_555
F15 C23 1_555 1_555
F16 C22 1_555 1_555
F17 C24 1_555 1_555
F18 C24 1_555 1_555
C7 C9 1_555 1_555
C9 C17 1_555 1_555
C10 C19 1_555 1_555
C12 C16 1_555 1_555
C14 C15 1_555 1_555

#END
