
#######################################################################
#
#                 Cambridge Crystallographic Data Centre
#                                CCDC 
#
#######################################################################
#
# If this CIF has been generated from an entry in the Cambridge 
# Structural Database, then it will include bibliographic, chemical, 
# crystal, experimental, refinement or atomic coordinate data resulting 
# from the CCDC's data processing and validation procedures.
#
#######################################################################

data_PERBEV
_chemical_formula_moiety         'C16 H16 O1'
_chemical_name_systematic        
11,11-Dimethyl-3-oxatetracyclo[10.2.1.0^2,10^.0^4,9^]pentadeca-2(10),4,6,8,13-pentaene
_symmetry_cell_setting           monoclinic
_symmetry_space_group_name_H-M   'P 21/n'
_symmetry_Int_Tables_number      14
_space_group_name_Hall           '-P 2yn'
loop_
_symmetry_equiv_pos_site_id
_symmetry_equiv_pos_as_xyz
1 x,y,z
2 1/2-x,1/2+y,1/2-z
3 -x,-y,-z
4 1/2+x,1/2-y,1/2+z
_cell_length_a                   9.913(4)
_cell_length_b                   9.057(4)
_cell_length_c                   14.529(6)
_cell_angle_alpha                90
_cell_angle_beta                 108.426(4)
_cell_angle_gamma                90
_cell_volume                     1237.57
_exptl_crystal_colour            colorless
_exptl_crystal_description       block
_cell_formula_units_Z            4
loop_
_atom_site_label
_atom_site_type_symbol
_atom_site_fract_x
_atom_site_fract_y
_atom_site_fract_z
C1 C 1.0498(5) -0.1560(5) 0.2167(3)
C2 C 1.1264(6) -0.2859(5) 0.2389(5)
H1 H 1.1230 -0.3573 0.1922
C3 C 1.2078(6) -0.3032(7) 0.3343(5)
H2 H 1.2622 -0.3882 0.3530
C4 C 1.2103(6) -0.1976(7) 0.4023(4)
H3 H 1.2662 -0.2132 0.4663
C5 C 1.1327(5) -0.0687(6) 0.3790(3)
H4 H 1.1359 0.0016 0.4263
C6 C 1.0492(4) -0.0465(5) 0.2827(3)
C7 C 0.9533(5) 0.0650(5) 0.2285(3)
C8 C 0.9073(6) 0.0162(5) 0.1374(3)
C9 C 0.9046(5) 0.2125(5) 0.2574(4)
C10 C 0.7987(7) 0.2823(6) 0.1658(5)
H5 H 0.7561 0.3701 0.1849
C11 C 0.8584(10) 0.3208(12) 0.0977(8)
H6 H 0.8959 0.4142 0.0950
C12 C 0.8591(9) 0.2329(11) 0.0457(6)
H7 H 0.9021 0.2463 -0.0021
C13 C 0.7894(11) 0.0938(7) 0.0549(4)
H8 H 0.7444 0.0373 -0.0045
C14 C 0.6804(5) 0.1783(7) 0.1100(5)
H9 H 0.6004 0.2289 0.0648
H10 H 0.6484 0.1126 0.1516
C15 C 0.8309(7) 0.1903(7) 0.3350(5)
H11 H 0.7520 0.1241 0.3107
H12 H 0.7974 0.2837 0.3502
H13 H 0.8974 0.1493 0.3924
C16 C 1.0341(6) 0.3131(6) 0.2995(4)
H14 H 1.0996 0.2666 0.3552
H15 H 1.0037 0.4057 0.3182
H16 H 1.0801 0.3298 0.2514
O1 O 0.9633(4) -0.1199(4) 0.1256(2)
loop_
_geom_bond_atom_site_label_1
_geom_bond_atom_site_label_2
_geom_bond_site_symmetry_1
_geom_bond_site_symmetry_2
C1 C2 1_555 1_555
C2 H1 1_555 1_555
C3 C2 1_555 1_555
H2 C3 1_555 1_555
C4 C3 1_555 1_555
H3 C4 1_555 1_555
C5 C4 1_555 1_555
H4 C5 1_555 1_555
C6 C1 1_555 1_555
C7 C6 1_555 1_555
C8 C7 1_555 1_555
C9 C7 1_555 1_555
C10 C9 1_555 1_555
H5 C10 1_555 1_555
C11 C10 1_555 1_555
H6 C11 1_555 1_555
C12 C11 1_555 1_555
H7 C12 1_555 1_555
C13 C8 1_555 1_555
H8 C13 1_555 1_555
C14 C10 1_555 1_555
H9 C14 1_555 1_555
H10 C14 1_555 1_555
C15 C9 1_555 1_555
H11 C15 1_555 1_555
H12 C15 1_555 1_555
H13 C15 1_555 1_555
C16 C9 1_555 1_555
H14 C16 1_555 1_555
H15 C16 1_555 1_555
H16 C16 1_555 1_555
O1 C1 1_555 1_555
C5 C6 1_555 1_555
C8 O1 1_555 1_555
C12 C13 1_555 1_555
C13 C14 1_555 1_555

#END
