
#######################################################################
#
#                 Cambridge Crystallographic Data Centre
#                                CCDC 
#
#######################################################################
#
# If this CIF has been generated from an entry in the Cambridge 
# Structural Database, then it will include bibliographic, chemical, 
# crystal, experimental, refinement or atomic coordinate data resulting 
# from the CCDC's data processing and validation procedures.
#
#######################################################################

data_PERCOG
_chemical_formula_moiety         'C6 F1 I5'
_chemical_name_systematic        1-Fluoro-2,3,4,5,6-pentaiodobenzene
_symmetry_cell_setting           triclinic
_symmetry_space_group_name_H-M   'P -1'
_symmetry_Int_Tables_number      2
_space_group_name_Hall           '-P 1'
loop_
_symmetry_equiv_pos_site_id
_symmetry_equiv_pos_as_xyz
1 x,y,z
2 -x,-y,-z
_cell_length_a                   8.5263(3)
_cell_length_b                   9.0042(3)
_cell_length_c                   15.9132(6)
_cell_angle_alpha                96.8430(10)
_cell_angle_beta                 105.5000(10)
_cell_angle_gamma                90.0580(10)
_cell_volume                     1168.19
_exptl_crystal_colour            colorless
_exptl_crystal_description       needle
_cell_formula_units_Z            4
loop_
_atom_site_label
_atom_site_type_symbol
_atom_site_fract_x
_atom_site_fract_y
_atom_site_fract_z
F1 F 0.7606(4) 0.7654(4) 0.9496(2)
I1 I 0.50877(5) 0.58277(6) 0.79962(3)
I2 I 0.48370(5) 0.21271(5) 0.85871(3)
I3 I 0.74600(5) 0.12711(4) 1.05772(2)
I4 I 0.99424(5) 0.41622(5) 1.20304(3)
I5 I 1.00188(5) 0.77897(5) 1.13252(3)
C1 C 0.7568(8) 0.6285(7) 0.9756(4)
C2 C 0.6488(8) 0.5199(7) 0.9185(4)
C3 C 0.6433(7) 0.3781(7) 0.9447(4)
C4 C 0.7414(7) 0.3462(7) 1.0237(4)
C5 C 0.8478(7) 0.4586(7) 1.0802(4)
C6 C 0.8521(7) 0.6004(7) 1.0538(4)
F2 F 0.6913(4) 1.2666(4) 0.4535(2)
I6 I 0.79348(5) 1.08600(5) 0.30296(3)
I7 I 0.87319(5) 0.71420(5) 0.36138(3)
I8 I 0.79948(5) 0.62648(4) 0.55846(2)
I9 I 0.70558(5) 0.91738(5) 0.70603(3)
I10 I 0.63330(5) 1.28025(5) 0.63652(3)
C7 C 0.7213(7) 1.1290(7) 0.4769(4)
C8 C 0.7711(7) 1.0216(7) 0.4213(4)
C9 C 0.8001(7) 0.8785(7) 0.4456(4)
C10 C 0.7770(7) 0.8460(7) 0.5281(4)
C11 C 0.7320(7) 0.9593(7) 0.5839(4)
C12 C 0.7020(7) 1.1030(7) 0.5595(4)
loop_
_geom_bond_atom_site_label_1
_geom_bond_atom_site_label_2
_geom_bond_site_symmetry_1
_geom_bond_site_symmetry_2
F1 C1 1_555 1_555
I1 C2 1_555 1_555
I2 C3 1_555 1_555
I3 C4 1_555 1_555
I4 C5 1_555 1_555
I5 C6 1_555 1_555
C1 C2 1_555 1_555
C2 C3 1_555 1_555
C3 C4 1_555 1_555
C4 C5 1_555 1_555
C5 C6 1_555 1_555
C6 C1 1_555 1_555
F2 C7 1_555 1_555
I6 C8 1_555 1_555
I7 C9 1_555 1_555
I8 C10 1_555 1_555
I9 C11 1_555 1_555
I10 C12 1_555 1_555
C7 C8 1_555 1_555
C8 C9 1_555 1_555
C9 C10 1_555 1_555
C10 C11 1_555 1_555
C11 C12 1_555 1_555
C12 C7 1_555 1_555

#END
