
#######################################################################
#
#                 Cambridge Crystallographic Data Centre
#                                CCDC 
#
#######################################################################
#
# If this CIF has been generated from an entry in the Cambridge 
# Structural Database, then it will include bibliographic, chemical, 
# crystal, experimental, refinement or atomic coordinate data resulting 
# from the CCDC's data processing and validation procedures.
#
#######################################################################

data_PERCAR
_chemical_formula_moiety         'C18 H13 N3,H2 O1'
_chemical_name_systematic        
'4-Methyl-N-(4,5-diazafluorenylidene)benzenamine monohydrate'
_symmetry_cell_setting           triclinic
_symmetry_space_group_name_H-M   'P -1'
_symmetry_Int_Tables_number      2
_space_group_name_Hall           '-P 1'
loop_
_symmetry_equiv_pos_site_id
_symmetry_equiv_pos_as_xyz
1 x,y,z
2 -x,-y,-z
_cell_length_a                   7.6239(15)
_cell_length_b                   8.6259(17)
_cell_length_c                   11.086(2)
_cell_angle_alpha                77.68(3)
_cell_angle_beta                 86.66(3)
_cell_angle_gamma                86.49(3)
_cell_volume                     710.159
_exptl_crystal_colour            'pale yellow'
_exptl_crystal_description       needle
_cell_formula_units_Z            2
loop_
_atom_site_label
_atom_site_type_symbol
_atom_site_fract_x
_atom_site_fract_y
_atom_site_fract_z
C1 C 0.0167(7) 0.7178(8) 0.5670(4)
H1 H 0.1151 0.6859 0.6185
H2 H -0.0623 0.6327 0.5793
H3 H -0.0439 0.8098 0.5884
C2 C 0.0812(6) 0.7571(5) 0.4333(4)
C3 C -0.0188(6) 0.8602(6) 0.3429(4)
H4 H -0.1249 0.9068 0.3666
C4 C 0.0384(6) 0.8926(5) 0.2206(4)
H5 H -0.0273 0.9633 0.1629
C5 C 0.1938(5) 0.8203(4) 0.1828(3)
C6 C 0.2949(5) 0.7230(4) 0.2703(3)
H6 H 0.4020 0.6782 0.2464
C7 C 0.2379(5) 0.6914(5) 0.3937(3)
H7 H 0.3070 0.6243 0.4513
N1 N 0.2532(4) 0.8587(3) 0.0573(3)
C8 C 0.5152(5) 0.7762(5) -0.3583(3)
H8 H 0.5658 0.7755 -0.4366
C9 C 0.5081(5) 0.9193(5) -0.3167(3)
H9 H 0.5545 1.0094 -0.3668
C10 C 0.4328(5) 0.9265(4) -0.2024(3)
H10 H 0.4273 1.0201 -0.1731
C11 C 0.3658(4) 0.7888(4) -0.1329(3)
C12 C 0.2839(4) 0.7521(4) -0.0063(3)
C13 C 0.2493(4) 0.5797(3) 0.0184(3)
C14 C 0.1697(4) 0.4768(4) 0.1170(3)
H11 H 0.1267 0.5109 0.1877
C15 C 0.1570(4) 0.3202(4) 0.1056(3)
H12 H 0.1038 0.2474 0.1692
C16 C 0.2230(5) 0.2737(4) 0.0007(3)
H13 H 0.2162 0.1673 -0.0024
C17 C 0.3071(4) 0.5193(3) -0.0860(3)
C18 C 0.3817(4) 0.6503(4) -0.1812(3)
N2 N 0.4532(4) 0.6401(3) -0.2916(3)
N3 N 0.2973(4) 0.3704(3) -0.0985(3)
O1 O 0.3358(18) 0.3476(16) 0.6213(11)
H14 H 0.2594 0.3569 0.5683
H15 H 0.3551 0.4332 0.6429
loop_
_geom_bond_atom_site_label_1
_geom_bond_atom_site_label_2
_geom_bond_site_symmetry_1
_geom_bond_site_symmetry_2
C1 H1 1_555 1_555
H2 C1 1_555 1_555
H3 C1 1_555 1_555
C2 C1 1_555 1_555
C3 C2 1_555 1_555
H4 C3 1_555 1_555
C4 C3 1_555 1_555
H5 C4 1_555 1_555
C5 C4 1_555 1_555
C6 C5 1_555 1_555
H6 C6 1_555 1_555
C7 C2 1_555 1_555
H7 C7 1_555 1_555
N1 C5 1_555 1_555
C8 H8 1_555 1_555
C9 C8 1_555 1_555
H9 C9 1_555 1_555
C10 C9 1_555 1_555
H10 C10 1_555 1_555
C11 C10 1_555 1_555
C12 N1 1_555 1_555
C13 C12 1_555 1_555
C14 C13 1_555 1_555
H11 C14 1_555 1_555
C15 C14 1_555 1_555
H12 C15 1_555 1_555
C16 C15 1_555 1_555
H13 C16 1_555 1_555
C17 C13 1_555 1_555
C18 C11 1_555 1_555
N2 C8 1_555 1_555
N3 C16 1_555 1_555
O1 H14 1_555 1_555
H15 O1 1_555 1_555
C6 C7 1_555 1_555
C11 C12 1_555 1_555
C17 C18 1_555 1_555
C17 N3 1_555 1_555
C18 N2 1_555 1_555

#END
