
#######################################################################
#
#                 Cambridge Crystallographic Data Centre
#                                CCDC 
#
#######################################################################
#
# If this CIF has been generated from an entry in the Cambridge 
# Structural Database, then it will include bibliographic, chemical, 
# crystal, experimental, refinement or atomic coordinate data resulting 
# from the CCDC's data processing and validation procedures.
#
#######################################################################

data_PERCUM
_chemical_formula_moiety         'C6 F2 I4'
_chemical_name_systematic        1,4-Difluoro-2,3,5,6-tetraiodobenzene
_symmetry_cell_setting           monoclinic
_symmetry_space_group_name_H-M   'P 21/n'
_symmetry_Int_Tables_number      14
_space_group_name_Hall           '-P 2yn'
loop_
_symmetry_equiv_pos_site_id
_symmetry_equiv_pos_as_xyz
1 x,y,z
2 1/2-x,1/2+y,1/2-z
3 -x,-y,-z
4 1/2+x,1/2-y,1/2+z
_cell_length_a                   7.7983(5)
_cell_length_b                   5.2394(3)
_cell_length_c                   13.2812(8)
_cell_angle_alpha                90
_cell_angle_beta                 101.625(3)
_cell_angle_gamma                90
_cell_volume                     531.518
_exptl_crystal_colour            colorless
_exptl_crystal_description       block
_cell_formula_units_Z            2
loop_
_atom_site_label
_atom_site_type_symbol
_atom_site_fract_x
_atom_site_fract_y
_atom_site_fract_z
C1 C 0.6231(3) 0.3251(5) 0.05202(19)
C2 C 0.6591(3) 0.4750(5) -0.0271(2)
C3 C 0.4612(3) 0.3512(5) 0.07961(19)
F1 F 0.8151(2) 0.4543(3) -0.05403(13)
I1 I 0.81582(2) 0.07115(3) 0.124415(14)
I2 I 0.38524(2) 0.12845(3) 0.193455(13)
C1B C 0.3769(3) 0.6749(5) -0.05202(19)
C2B C 0.3409(3) 0.5250(5) 0.0271(2)
C3B C 0.5388(3) 0.6488(5) -0.07961(19)
F1B F 0.1849(2) 0.5457(3) 0.05403(13)
I1B I 0.18418(2) 0.92885(3) -0.124415(14)
I2B I 0.61476(2) 0.87155(3) -0.193455(13)
loop_
_geom_bond_atom_site_label_1
_geom_bond_atom_site_label_2
_geom_bond_site_symmetry_1
_geom_bond_site_symmetry_2
C1 C2 1_555 1_555
C2 F1 1_555 1_555
C3 C1 1_555 1_555
I1 C1 1_555 1_555
I2 C3 1_555 1_555
C1B C2B 1_555 1_555
C2B C3 1_555 1_555
C3B C2 1_555 1_555
F1B C2B 1_555 1_555
I1B C1B 1_555 1_555
I2B C3B 1_555 1_555
C1B C3B 1_555 1_555

#END
