
#######################################################################
#
#                 Cambridge Crystallographic Data Centre
#                                CCDC 
#
#######################################################################
#
# If this CIF has been generated from an entry in the Cambridge 
# Structural Database, then it will include bibliographic, chemical, 
# crystal, experimental, refinement or atomic coordinate data resulting 
# from the CCDC's data processing and validation procedures.
#
#######################################################################

data_PERHOM
_chemical_formula_moiety         'C19 H13 Cl1 F3 N3 O2'
_chemical_name_systematic        
3-{2-(4-chlorophenyl)-5-oxo-6-[4-(trifluoromethyl)phenyl]-5,6-dihydro-4H-1,3,4-oxadiazin-4-yl}propanenitrile
_symmetry_cell_setting           monoclinic
_symmetry_space_group_name_H-M   'P 21/n'
_symmetry_Int_Tables_number      14
_space_group_name_Hall           '-P 2yn'
loop_
_symmetry_equiv_pos_site_id
_symmetry_equiv_pos_as_xyz
1 x,y,z
2 1/2-x,1/2+y,1/2-z
3 -x,-y,-z
4 1/2+x,1/2-y,1/2+z
_cell_length_a                   5.77529(12)
_cell_length_b                   22.1018(5)
_cell_length_c                   14.0999(3)
_cell_angle_alpha                90
_cell_angle_beta                 101.1816(19)
_cell_angle_gamma                90
_cell_volume                     1765.61
_exptl_crystal_colour            colorless
_exptl_crystal_description       plate
_cell_formula_units_Z            4
loop_
_atom_site_label
_atom_site_type_symbol
_atom_site_fract_x
_atom_site_fract_y
_atom_site_fract_z
Cl1 Cl 1.20278(9) 0.94045(3) 0.66349(4)
O1 O 0.2658(3) 0.77024(7) 0.49050(12)
F1 F 0.0677(19) 0.4559(3) 0.3589(7)
O2 O -0.2994(3) 0.75023(7) 0.33181(12)
N1 N -0.0507(3) 0.83002(8) 0.35378(12)
F2 F 0.209(2) 0.4912(6) 0.2465(7)
N2 N 0.1585(3) 0.85817(8) 0.39913(12)
N3 N 0.2445(3) 0.82654(9) 0.15053(14)
F3 F 0.4359(15) 0.4762(5) 0.3784(14)
C1 C 0.1728(4) 0.55869(10) 0.37179(15)
C2 C 0.5229(4) 0.85484(9) 0.51141(14)
C3 C 0.2983(4) 0.82757(9) 0.46218(14)
C4 C 0.5806(4) 0.91366(10) 0.48837(15)
H1 H 0.4787 0.9352 0.4411
C5 C 0.0559(4) 0.83472(9) 0.16196(15)
C6 C -0.0183(4) 0.57153(10) 0.41466(15)
H2 H -0.1202 0.5407 0.4250
C7 C 0.0431(4) 0.74010(10) 0.45626(16)
H3 H -0.0398 0.7372 0.5105
C8 C 0.3238(4) 0.60495(11) 0.35583(16)
H4 H 0.4522 0.5964 0.3272
C9 C -0.0572(4) 0.62997(10) 0.44194(15)
H5 H -0.1848 0.6384 0.4712
C10 C 0.0925(4) 0.67634(10) 0.42605(15)
C11 C 0.7889(4) 0.94006(10) 0.53549(15)
H6 H 0.8263 0.9795 0.5209
C12 C -0.1967(4) 0.86598(10) 0.27855(15)
H7 H -0.1438 0.9077 0.2842
H8 H -0.3590 0.8650 0.2875
C13 C 0.9411(4) 0.90702(10) 0.60477(15)
C14 C -0.1167(4) 0.77367(10) 0.37450(16)
C15 C 0.8881(4) 0.84874(10) 0.62834(16)
H9 H 0.9922 0.8271 0.6746
C16 C 0.2832(4) 0.66371(10) 0.38261(16)
H10 H 0.3836 0.6947 0.3715
C17 C 0.6768(4) 0.82284(10) 0.58196(16)
H11 H 0.6381 0.7838 0.5982
C18 C 0.2202(4) 0.49581(11) 0.34240(17)
C19 C -0.1853(4) 0.84242(11) 0.17738(15)
H12 H -0.2666 0.8038 0.1676
H13 H -0.2677 0.8705 0.1296
F4? F 0.268(5) 0.4914(7) 0.2560(14)
F5? F 0.035(2) 0.4592(5) 0.3484(8)
F6? F 0.388(5) 0.4701(8) 0.4125(17)
loop_
_geom_bond_atom_site_label_1
_geom_bond_atom_site_label_2
_geom_bond_site_symmetry_1
_geom_bond_site_symmetry_2
Cl1 C13 1_555 1_555
O1 C3 1_555 1_555
F1 C18 1_555 1_555
O2 C14 1_555 1_555
N1 N2 1_555 1_555
F2 C18 1_555 1_555
N2 C3 1_555 1_555
N3 C5 1_555 1_555
F3 C18 1_555 1_555
C1 C6 1_555 1_555
C2 C3 1_555 1_555
C4 C2 1_555 1_555
H1 C4 1_555 1_555
C5 C19 1_555 1_555
C6 H2 1_555 1_555
C7 O1 1_555 1_555
H3 C7 1_555 1_555
C8 C1 1_555 1_555
H4 C8 1_555 1_555
C9 C6 1_555 1_555
H5 C9 1_555 1_555
C10 C7 1_555 1_555
C11 C4 1_555 1_555
H6 C11 1_555 1_555
C12 N1 1_555 1_555
H7 C12 1_555 1_555
H8 C12 1_555 1_555
C13 C11 1_555 1_555
C14 N1 1_555 1_555
C15 C13 1_555 1_555
H9 C15 1_555 1_555
C16 C8 1_555 1_555
H10 C16 1_555 1_555
C17 C2 1_555 1_555
H11 C17 1_555 1_555
C18 C1 1_555 1_555
C19 C12 1_555 1_555
H12 C19 1_555 1_555
H13 C19 1_555 1_555
C7 C14 1_555 1_555
C9 C10 1_555 1_555
C10 C16 1_555 1_555
C15 C17 1_555 1_555

#END
