
#######################################################################
#
#                 Cambridge Crystallographic Data Centre
#                                CCDC 
#
#######################################################################
#
# If this CIF has been generated from an entry in the Cambridge 
# Structural Database, then it will include bibliographic, chemical, 
# crystal, experimental, refinement or atomic coordinate data resulting 
# from the CCDC's data processing and validation procedures.
#
#######################################################################

data_PERHIG
_chemical_formula_moiety         'C11 H8 Cl1 N3 O2'
_chemical_name_systematic        
3-[5-(4-chlorophenyl)-2-oxo-1,3,4-oxadiazol-3(2H)-yl]propanenitrile
_symmetry_cell_setting           triclinic
_symmetry_space_group_name_H-M   'P -1'
_symmetry_Int_Tables_number      2
_space_group_name_Hall           '-P 1'
loop_
_symmetry_equiv_pos_site_id
_symmetry_equiv_pos_as_xyz
1 x,y,z
2 -x,-y,-z
_cell_length_a                   5.7810(2)
_cell_length_b                   8.5176(3)
_cell_length_c                   11.7466(4)
_cell_angle_alpha                102.453(3)
_cell_angle_beta                 90.500(2)
_cell_angle_gamma                98.113(2)
_cell_volume                     558.686
_exptl_crystal_colour            colorless
_exptl_crystal_description       block
_cell_formula_units_Z            2
loop_
_atom_site_label
_atom_site_type_symbol
_atom_site_fract_x
_atom_site_fract_y
_atom_site_fract_z
Cl1 Cl 0.71235(8) 1.00580(5) 0.67963(3)
O1 O 0.10481(17) 0.38641(13) 0.28769(9)
O2 O -0.1032(2) 0.16774(15) 0.16142(11)
N1 N 0.4350(2) 0.40906(14) 0.19289(11)
N2 N 0.2741(2) 0.28269(15) 0.13139(11)
N3 N -0.1021(4) 0.3189(3) -0.11388(19)
C1 C 0.4181(2) 0.59914(16) 0.38076(12)
C2 C 0.2816(3) 0.65087(18) 0.47405(13)
H1 H 0.1277 0.6011 0.4744
C3 C 0.3710(3) 0.77546(19) 0.56664(13)
H2 H 0.2794 0.8089 0.6295
C4 C 0.5980(3) 0.84889(17) 0.56401(12)
C5 C 0.7375(3) 0.80016(19) 0.47167(14)
H3 H 0.8903 0.8518 0.4712
C6 C 0.6487(2) 0.67489(19) 0.38074(13)
H4 H 0.7423 0.6404 0.3190
C7 C 0.0719(3) 0.26462(18) 0.18667(13)
C8 C 0.3272(2) 0.46618(17) 0.28415(12)
C9 C 0.3344(3) 0.17890(19) 0.02461(14)
H5 H 0.2326 0.0754 0.0120
H6 H 0.4938 0.1584 0.0329
C10 C 0.3129(3) 0.2522(2) -0.08092(15)
H7 H 0.4238 0.3513 -0.0709
H8 H 0.3538 0.1769 -0.1496
C11 C 0.0789(3) 0.2892(2) -0.09990(15)
loop_
_geom_bond_atom_site_label_1
_geom_bond_atom_site_label_2
_geom_bond_site_symmetry_1
_geom_bond_site_symmetry_2
Cl1 C4 1_555 1_555
O1 C7 1_555 1_555
O2 C7 1_555 1_555
N1 N2 1_555 1_555
N2 C7 1_555 1_555
N3 C11 1_555 1_555
C1 C2 1_555 1_555
C2 H1 1_555 1_555
C3 C2 1_555 1_555
H2 C3 1_555 1_555
C4 C3 1_555 1_555
C5 C4 1_555 1_555
H3 C5 1_555 1_555
C6 C1 1_555 1_555
H4 C6 1_555 1_555
C8 O1 1_555 1_555
C9 N2 1_555 1_555
H5 C9 1_555 1_555
H6 C9 1_555 1_555
C10 C9 1_555 1_555
H7 C10 1_555 1_555
H8 C10 1_555 1_555
C11 C10 1_555 1_555
N1 C8 1_555 1_555
C1 C8 1_555 1_555
C5 C6 1_555 1_555

#END
