
#######################################################################
#
#                 Cambridge Crystallographic Data Centre
#                                CCDC 
#
#######################################################################
#
# If this CIF has been generated from an entry in the Cambridge 
# Structural Database, then it will include bibliographic, chemical, 
# crystal, experimental, refinement or atomic coordinate data resulting 
# from the CCDC's data processing and validation procedures.
#
#######################################################################

data_PERKIH
_chemical_name_common            
'2-methylmercapto-cdelta$2!-1,3-diazacycloheptane hydroiodide'
_chemical_formula_moiety         'C6 H13 N2 S1 1+,I1 1-'
_chemical_name_systematic        
'2-(methylthio)-4,5,6,7-tetrahydro-1H-1,3-diazepin-3-ium iodide'
_symmetry_cell_setting           orthorhombic
_symmetry_space_group_name_H-M   'P 21 21 21'
_symmetry_Int_Tables_number      19
_space_group_name_Hall           'P 2ac 2ab'
loop_
_symmetry_equiv_pos_site_id
_symmetry_equiv_pos_as_xyz
1 x,y,z
2 1/2-x,-y,1/2+z
3 -x,1/2+y,1/2-z
4 1/2+x,1/2-y,-z
_cell_length_a                   8.924(3)
_cell_length_b                   10.537(3)
_cell_length_c                   11.061(3)
_cell_angle_alpha                90
_cell_angle_beta                 90
_cell_angle_gamma                90
_cell_volume                     1040.09
_exptl_crystal_colour            colorless
_exptl_crystal_description       block
_cell_formula_units_Z            4
loop_
_atom_site_label
_atom_site_type_symbol
_atom_site_fract_x
_atom_site_fract_y
_atom_site_fract_z
I1 I 0.300415(15) 0.844712(15) 0.193810(14)
S1 S 0.28303(7) 0.79527(6) -0.20380(6)
C1 C 0.3008(3) 0.6529(2) -0.12361(19)
N1 N 0.1734(2) 0.5897(2) -0.1102(2)
H1 H 0.0918 0.6344 -0.1038
N2 N 0.4319(2) 0.6097(2) -0.08539(19)
H2 H 0.5109 0.6343 -0.1251
C2 C 0.2252(3) 0.3868(3) 0.0042(3)
H3 H 0.1924 0.2980 0.0061
H4 H 0.1877 0.4282 0.0775
C3 C 0.3956(3) 0.3908(3) 0.0048(2)
H5 H 0.4328 0.3387 0.0718
H6 H 0.4331 0.3539 -0.0707
C4 C 0.1574(3) 0.4510(3) -0.1051(3)
H7 H 0.2035 0.4149 -0.1777
H8 H 0.0504 0.4304 -0.1076
C5 C 0.4569(3) 0.5240(3) 0.0179(2)
H9 H 0.4118 0.5625 0.0898
H10 H 0.5650 0.5182 0.0323
C6 C 0.4388(3) 0.8886(3) -0.1495(2)
H11 H 0.4383 0.9708 -0.1889
H12 H 0.5319 0.8451 -0.1675
H13 H 0.4298 0.9000 -0.0627
loop_
_geom_bond_atom_site_label_1
_geom_bond_atom_site_label_2
_geom_bond_site_symmetry_1
_geom_bond_site_symmetry_2
S1 C1 1_555 1_555
C1 N1 1_555 1_555
N1 H1 1_555 1_555
N2 C1 1_555 1_555
H2 N2 1_555 1_555
C2 H3 1_555 1_555
H4 C2 1_555 1_555
C3 C2 1_555 1_555
H5 C3 1_555 1_555
H6 C3 1_555 1_555
C4 N1 1_555 1_555
H7 C4 1_555 1_555
H8 C4 1_555 1_555
C5 N2 1_555 1_555
H9 C5 1_555 1_555
H10 C5 1_555 1_555
C6 S1 1_555 1_555
H11 C6 1_555 1_555
H12 C6 1_555 1_555
H13 C6 1_555 1_555
C2 C4 1_555 1_555
C3 C5 1_555 1_555

#END
