
#######################################################################
#
#                 Cambridge Crystallographic Data Centre
#                                CCDC 
#
#######################################################################
#
# If this CIF has been generated from an entry in the Cambridge 
# Structural Database, then it will include bibliographic, chemical, 
# crystal, experimental, refinement or atomic coordinate data resulting 
# from the CCDC's data processing and validation procedures.
#
#######################################################################

data_PERKUT
_chemical_formula_moiety         'C8 H15 N3'
_chemical_name_systematic        1,6,8-triazabicyclo[5.4.0]undec-7-ene
_symmetry_cell_setting           monoclinic
_symmetry_space_group_name_H-M   'P 21/c'
_symmetry_Int_Tables_number      14
_space_group_name_Hall           '-P 2ybc'
loop_
_symmetry_equiv_pos_site_id
_symmetry_equiv_pos_as_xyz
1 x,y,z
2 -x,1/2+y,1/2-z
3 -x,-y,-z
4 x,1/2-y,1/2+z
_cell_length_a                   16.595(3)
_cell_length_b                   10.949(2)
_cell_length_c                   9.8457(18)
_cell_angle_alpha                90
_cell_angle_beta                 103.995(3)
_cell_angle_gamma                90
_cell_volume                     1735.85
_exptl_crystal_colour            colorless
_exptl_crystal_description       needle
_cell_formula_units_Z            8
loop_
_atom_site_label
_atom_site_type_symbol
_atom_site_fract_x
_atom_site_fract_y
_atom_site_fract_z
N1 N 0.45205(8) 0.92962(12) 0.13967(13)
H1 H 0.4332 0.9059 0.0535
N2 N 0.58920(8) 0.95331(14) 0.13832(14)
N3 N 0.55228(8) 0.86144(13) 0.33281(15)
C1 C 0.53524(9) 0.91552(14) 0.20360(15)
C2 C 0.39523(10) 0.98402(16) 0.21520(17)
H2 H 0.3498 1.0240 0.1476
H3 H 0.4250 1.0472 0.2783
C3 C 0.63773(11) 0.84961(17) 0.41296(18)
H4 H 0.6565 0.7655 0.4062
H5 H 0.6409 0.8671 0.5117
C4 C 0.35872(11) 0.89314(18) 0.29984(19)
H6 H 0.3164 0.9343 0.3375
H7 H 0.3313 0.8276 0.2378
C5 C 0.69373(11) 0.93554(18) 0.36026(18)
H8 H 0.7519 0.9149 0.4019
H9 H 0.6840 1.0195 0.3867
C6 C 0.67586(11) 0.9249(2) 0.20308(19)
H10 H 0.7119 0.9812 0.1676
H11 H 0.6883 0.8417 0.1777
C7 C 0.49315(11) 0.77630(17) 0.3715(2)
H12 H 0.5234 0.7231 0.4467
H13 H 0.4693 0.7245 0.2906
C8 C 0.42294(11) 0.83764(18) 0.41954(19)
H14 H 0.3959 0.7773 0.4673
H15 H 0.4460 0.9019 0.4871
N4 N 0.06731(8) 0.86345(12) 0.99100(14)
H16 H 0.0667 0.8888 1.0745
N5 N -0.06947(8) 0.89322(12) 0.87706(14)
C9 C -0.00503(9) 0.82316(13) 0.90113(15)
C10 C -0.14635(10) 0.84095(15) 0.79297(18)
H17 H -0.1848 0.9068 0.7529
H18 H -0.1727 0.7911 0.8527
N6 N -0.00135(8) 0.70926(13) 0.84591(15)
C11 C -0.07090(10) 0.66145(15) 0.74031(18)
H19 H -0.1009 0.6013 0.7831
H20 H -0.0502 0.6201 0.6672
C12 C -0.12919(11) 0.76246(16) 0.67582(17)
H21 H -0.1812 0.7280 0.6200
H22 H -0.1041 0.8121 0.6142
C13 C 0.14486(10) 0.86353(16) 0.9457(2)
H23 H 0.1803 0.9296 0.9939
H24 H 0.1324 0.8807 0.8451
C14 C 0.06093(12) 0.61982(15) 0.9139(2)
H25 H 0.0416 0.5382 0.8803
H26 H 0.0652 0.6219 1.0149
C15 C 0.14640(11) 0.63934(17) 0.8893(2)
H27 H 0.1411 0.6552 0.7896
H28 H 0.1790 0.5645 0.9139
C16 C 0.19228(11) 0.74455(18) 0.9737(2)
H29 H 0.2024 0.7250 1.0736
H30 H 0.2463 0.7545 0.9513
loop_
_geom_bond_atom_site_label_1
_geom_bond_atom_site_label_2
_geom_bond_site_symmetry_1
_geom_bond_site_symmetry_2
N1 H1 1_555 1_555
N2 C1 1_555 1_555
N3 C1 1_555 1_555
C1 N1 1_555 1_555
C2 N1 1_555 1_555
H2 C2 1_555 1_555
H3 C2 1_555 1_555
C3 N3 1_555 1_555
H4 C3 1_555 1_555
H5 C3 1_555 1_555
C4 C2 1_555 1_555
H6 C4 1_555 1_555
H7 C4 1_555 1_555
C5 C3 1_555 1_555
H8 C5 1_555 1_555
H9 C5 1_555 1_555
C6 N2 1_555 1_555
H10 C6 1_555 1_555
H11 C6 1_555 1_555
C7 N3 1_555 1_555
H12 C7 1_555 1_555
H13 C7 1_555 1_555
C8 C4 1_555 1_555
H14 C8 1_555 1_555
H15 C8 1_555 1_555
N4 H16 1_555 1_555
N5 C9 1_555 1_555
C9 N4 1_555 1_555
C10 N5 1_555 1_555
H17 C10 1_555 1_555
H18 C10 1_555 1_555
N6 C9 1_555 1_555
C11 N6 1_555 1_555
H19 C11 1_555 1_555
H20 C11 1_555 1_555
C12 C10 1_555 1_555
H21 C12 1_555 1_555
H22 C12 1_555 1_555
C13 N4 1_555 1_555
H23 C13 1_555 1_555
H24 C13 1_555 1_555
C14 N6 1_555 1_555
H25 C14 1_555 1_555
H26 C14 1_555 1_555
C15 C14 1_555 1_555
H27 C15 1_555 1_555
H28 C15 1_555 1_555
C16 C13 1_555 1_555
H29 C16 1_555 1_555
H30 C16 1_555 1_555
C5 C6 1_555 1_555
C7 C8 1_555 1_555
C11 C12 1_555 1_555
C15 C16 1_555 1_555

#END
