
#######################################################################
#
#                 Cambridge Crystallographic Data Centre
#                                CCDC 
#
#######################################################################
#
# If this CIF has been generated from an entry in the Cambridge 
# Structural Database, then it will include bibliographic, chemical, 
# crystal, experimental, refinement or atomic coordinate data resulting 
# from the CCDC's data processing and validation procedures.
#
#######################################################################

data_PERKON
_chemical_name_common            
'2-(gamma-hyroxypropylamino)-cdelta$2!-1,3-diazacycloheptene hydroiodide'
_chemical_formula_moiety         'C8 H18 N3 O1 1+,I1 1-'
_chemical_name_systematic        
'2-[(3-hydroxypropyl)amino]-4,5,6,7-tetrahydro-1H-1,3-diazepin-3-ium iodide'
_symmetry_cell_setting           triclinic
_symmetry_space_group_name_H-M   'P -1'
_symmetry_Int_Tables_number      2
_space_group_name_Hall           '-P 1'
loop_
_symmetry_equiv_pos_site_id
_symmetry_equiv_pos_as_xyz
1 x,y,z
2 -x,-y,-z
_cell_length_a                   9.4816(12)
_cell_length_b                   9.6131(13)
_cell_length_c                   14.5230(19)
_cell_angle_alpha                98.683(2)
_cell_angle_beta                 91.420(2)
_cell_angle_gamma                115.187(2)
_cell_volume                     1178.27
_exptl_crystal_colour            colorless
_exptl_crystal_description       needle
_cell_formula_units_Z            4
_exptl_crystal_recrystallization_method ethanol/ether
loop_
_atom_site_label
_atom_site_type_symbol
_atom_site_fract_x
_atom_site_fract_y
_atom_site_fract_z
I1 I 0.19116(3) 0.96331(3) 0.197312(19)
I2 I 0.57954(3) 0.59791(4) 0.31009(2)
N1 N 0.1250(4) 0.6882(4) 0.3891(2)
H1 H 0.2145 0.7037 0.4165
N2 N -0.0671(4) 0.5455(4) 0.2647(2)
H2 H -0.1431 0.5321 0.3000
C1 C 0.0391(5) 0.7669(5) 0.4375(3)
H3 H -0.0254 0.7849 0.3913
H4 H 0.1138 0.8688 0.4724
C2 C 0.0768(4) 0.5941(4) 0.3059(3)
N3 N 0.1762(4) 0.5432(4) 0.2637(2)
H5 H 0.2749 0.6079 0.2672
O1 O -0.0300(3) 0.8894(4) 0.62326(19)
H6 H -0.0732 0.9378 0.6537
C3 C -0.1130(5) 0.3570(5) 0.1147(3)
H7 H -0.1587 0.3343 0.0498
H8 H -0.1829 0.2747 0.1467
C4 C -0.1452(5) 0.7578(5) 0.5608(3)
H9 H -0.2006 0.7929 0.5187
H10 H -0.2220 0.6877 0.5966
C5 C 0.1244(5) 0.3841(5) 0.2124(3)
H11 H 0.0510 0.3116 0.2485
H12 H 0.2154 0.3609 0.2081
C6 C -0.0654(5) 0.6725(5) 0.5047(3)
H13 H -0.1452 0.5740 0.4690
H14 H -0.0021 0.6472 0.5477
C7 C -0.1041(5) 0.5134(5) 0.1623(3)
H15 H -0.0240 0.5969 0.1358
H16 H -0.2048 0.5155 0.1484
C8 C 0.0462(5) 0.3533(6) 0.1149(3)
H17 H 0.0328 0.2508 0.0824
H18 H 0.1145 0.4321 0.0803
C9 C 0.3150(4) 1.0518(5) 0.8050(2)
N4 N 0.4579(9) 1.0948(15) 0.8472(11)
H19 H 0.4995 1.0296 0.8372
N5 N 0.2134(4) 1.0931(4) 0.8506(2)
H20 H 0.1470 1.1114 0.8179
N6 N 0.2728(6) 0.9759(5) 0.7164(2)
H21 H 0.1739 0.9359 0.6965
C10 C 0.5478(6) 1.2435(6) 0.9086(3)
H22 H 0.5401 1.3264 0.8800
H23 H 0.6582 1.2632 0.9135
C11 C 0.4958(16) 1.2529(11) 1.0061(7)
H24 H 0.5733 1.3479 1.0462
H25 H 0.4912 1.1631 1.0322
C12 C 0.3365(13) 1.2549(14) 1.0068(5)
H26 H 0.3106 1.2661 1.0716
H27 H 0.3416 1.3458 0.9817
C13 C 0.2081(6) 1.1089(6) 0.9501(3)
H28 H 0.2132 1.0180 0.9700
H29 H 0.1069 1.1068 0.9646
C14 C 0.3788(6) 0.9541(5) 0.6499(3)
H30 H 0.4846 1.0380 0.6682
H31 H 0.3446 0.9623 0.5875
C15 C 0.3838(6) 0.7978(5) 0.6453(3)
H32 H 0.4238 0.7922 0.7068
H33 H 0.2771 0.7142 0.6306
C16 C 0.4854(6) 0.7712(7) 0.5729(4)
H34 H 0.5897 0.8595 0.5834
H35 H 0.4972 0.6764 0.5787
O2 O 0.4167(7) 0.7555(7) 0.4821(3)
H36 H 0.4725 0.7396 0.4426
N7? N 0.444(6) 1.066(11) 0.854(7)
H37? H 0.5138 1.0525 0.8211
N8? N 0.2134(4) 1.0931(4) 0.8506(2)
H38? H 0.1140 1.0307 0.8389
N9? N 0.255(4) 0.928(2) 0.7356(15)
H39? H 0.1563 0.8937 0.7155
C17? C 0.485(3) 1.107(4) 0.9706(19)
H40? H 0.4048 1.0232 0.9969
H41? H 0.5853 1.1031 0.9844
C18? C 0.497(10) 1.261(6) 1.021(6)
H42? H 0.5720 1.3453 0.9928
H43? H 0.5382 1.2770 1.0866
C19? C 0.343(9) 1.275(11) 1.021(3)
H44? H 0.2718 1.1984 1.0557
H45? H 0.3626 1.3789 1.0532
C20? C 0.264(3) 1.247(4) 0.9235(19)
H46? H 0.3338 1.3322 0.8932
H47? H 0.1694 1.2634 0.9320
C21? C 0.339(3) 0.850(3) 0.6925(19)
H48? H 0.2655 0.7468 0.6588
H49? H 0.4026 0.8349 0.7409
C22? C 0.444(4) 0.938(3) 0.626(2)
H50? H 0.5236 1.0382 0.6599
H51? H 0.3828 0.9590 0.5793
C23? C 0.522(4) 0.843(4) 0.578(3)
H52? H 0.5587 0.7965 0.6232
H53? H 0.6112 0.9080 0.5474
O3? O 0.392(5) 0.713(5) 0.504(3)
H54? H 0.4268 0.6536 0.4775
loop_
_geom_bond_atom_site_label_1
_geom_bond_atom_site_label_2
_geom_bond_site_symmetry_1
_geom_bond_site_symmetry_2
N1 H1 1_555 1_555
N2 H2 1_555 1_555
C1 N1 1_555 1_555
H3 C1 1_555 1_555
H4 C1 1_555 1_555
C2 N1 1_555 1_555
N3 C2 1_555 1_555
H5 N3 1_555 1_555
O1 H6 1_555 1_555
C3 H7 1_555 1_555
H8 C3 1_555 1_555
C4 O1 1_555 1_555
H9 C4 1_555 1_555
H10 C4 1_555 1_555
C5 N3 1_555 1_555
H11 C5 1_555 1_555
H12 C5 1_555 1_555
C6 C1 1_555 1_555
H13 C6 1_555 1_555
H14 C6 1_555 1_555
C7 N2 1_555 1_555
H15 C7 1_555 1_555
H16 C7 1_555 1_555
C8 C3 1_555 1_555
H17 C8 1_555 1_555
H18 C8 1_555 1_555
C9 N4 1_555 1_555
N4 H19 1_555 1_555
N5 C9 1_555 1_555
H20 N5 1_555 1_555
N6 C9 1_555 1_555
H21 N6 1_555 1_555
C10 N4 1_555 1_555
H22 C10 1_555 1_555
H23 C10 1_555 1_555
C11 C10 1_555 1_555
H24 C11 1_555 1_555
H25 C11 1_555 1_555
C12 C11 1_555 1_555
H26 C12 1_555 1_555
H27 C12 1_555 1_555
C13 N5 1_555 1_555
H28 C13 1_555 1_555
H29 C13 1_555 1_555
C14 N6 1_555 1_555
H30 C14 1_555 1_555
H31 C14 1_555 1_555
C15 C14 1_555 1_555
H32 C15 1_555 1_555
H33 C15 1_555 1_555
C16 C15 1_555 1_555
H34 C16 1_555 1_555
H35 C16 1_555 1_555
O2 C16 1_555 1_555
H36 O2 1_555 1_555
N2 C2 1_555 1_555
C3 C7 1_555 1_555
C4 C6 1_555 1_555
C5 C8 1_555 1_555
C12 C13 1_555 1_555

#END
