
#######################################################################
#
#                 Cambridge Crystallographic Data Centre
#                                CCDC 
#
#######################################################################
#
# If this CIF has been generated from an entry in the Cambridge 
# Structural Database, then it will include bibliographic, chemical, 
# crystal, experimental, refinement or atomic coordinate data resulting 
# from the CCDC's data processing and validation procedures.
#
#######################################################################

data_PERLOQ
_chemical_formula_moiety         'C26 H18 N4,C6 F4 I2,2(C1 H1 Cl3)'
_chemical_name_systematic        
"4,4',4'',4'''-benzene-1,2,4,5-tetrayltetrapyridine 1,2,4,5-tetrafluoro-3,6-diiodobenzene chloroform solvate"
_symmetry_cell_setting           monoclinic
_symmetry_space_group_name_H-M   'P 21/n'
_symmetry_Int_Tables_number      14
_space_group_name_Hall           '-P 2yn'
loop_
_symmetry_equiv_pos_site_id
_symmetry_equiv_pos_as_xyz
1 x,y,z
2 1/2-x,1/2+y,1/2-z
3 -x,-y,-z
4 1/2+x,1/2-y,1/2+z
_cell_length_a                   7.823(3)
_cell_length_b                   18.885(6)
_cell_length_c                   13.228(4)
_cell_angle_alpha                90
_cell_angle_beta                 96.566(4)
_cell_angle_gamma                90
_cell_volume                     1941.45
_exptl_crystal_colour            colorless
_exptl_crystal_description       block
_cell_formula_units_Z            2
loop_
_atom_site_label
_atom_site_type_symbol
_atom_site_fract_x
_atom_site_fract_y
_atom_site_fract_z
C1 C 0.3278(8) 0.1386(3) 0.5185(4)
H1 H 0.2164 0.1595 0.5287
Cl1 Cl 0.4375(3) 0.11881(18) 0.63685(16)
Cl2 Cl 0.4374(5) 0.19750(18) 0.4503(3)
Cl3 Cl 0.2915(5) 0.06115(14) 0.4513(2)
C3 C 0.4135(5) 0.3735(2) 0.1517(3)
H3 H 0.3468 0.3821 0.0901
C4 C 0.4083(5) 0.42227(19) 0.2294(3)
H4 H 0.3388 0.4622 0.2198
C5 C 0.5078(5) 0.41094(18) 0.3220(2)
C6 C 0.6067(5) 0.3501(2) 0.3313(3)
H5 H 0.6753 0.3403 0.3918
C7 C 0.6026(6) 0.3040(2) 0.2498(3)
H6 H 0.6689 0.2631 0.2580
C8 C 0.7074(7) 0.5913(3) 0.1670(4)
H7 H 0.7884 0.5753 0.1260
C9 C 0.6778(5) 0.5501(2) 0.2488(3)
H8 H 0.7360 0.5076 0.2614
C10 C 0.5592(5) 0.57321(19) 0.3126(3)
C11 C 0.4769(6) 0.6367(2) 0.2884(3)
H9 H 0.3962 0.6543 0.3283
C12 C 0.5170(8) 0.6739(2) 0.2030(4)
H10 H 0.4611 0.7167 0.1881
C13 C 0.5060(4) 0.45955(19) 0.4111(2)
C14 C 0.5263(5) 0.53302(19) 0.4062(3)
C15 C 0.4816(5) 0.42829(18) 0.5040(3)
H11 H 0.4700 0.3793 0.5065
N1 N 0.5096(5) 0.31460(17) 0.1605(3)
N2 N 0.6289(7) 0.6524(3) 0.1420(3)
C3B C 0.5865(5) 0.6265(2) 0.8483(3)
H3B H 0.6532 0.6179 0.9099
C4B C 0.5917(5) 0.57773(19) 0.7706(3)
H4B H 0.6612 0.5378 0.7802
C5B C 0.4922(5) 0.58906(18) 0.6780(2)
C6B C 0.3933(5) 0.6499(2) 0.6687(3)
H5B H 0.3247 0.6597 0.6082
C7B C 0.3974(6) 0.6960(2) 0.7502(3)
H6B H 0.3311 0.7369 0.7420
C8B C 0.2926(7) 0.4087(3) 0.8330(4)
H7B H 0.2116 0.4247 0.8740
C9B C 0.3222(5) 0.4499(2) 0.7512(3)
H8B H 0.2640 0.4924 0.7386
C10B C 0.4408(5) 0.42679(19) 0.6874(3)
C11B C 0.5231(6) 0.3633(2) 0.7116(3)
H9B H 0.6038 0.3457 0.6717
C12B C 0.4830(8) 0.3261(2) 0.7970(4)
H10B H 0.5389 0.2833 0.8119
C13B C 0.4940(4) 0.54045(19) 0.5889(2)
C14B C 0.4737(5) 0.46698(19) 0.5938(3)
C15B C 0.5184(5) 0.57171(18) 0.4960(3)
H11B H 0.5300 0.6207 0.4935
N1B N 0.4904(5) 0.68540(17) 0.8395(3)
N2B N 0.3711(7) 0.3476(3) 0.8580(3)
C16 C 0.5076(5) 0.92783(18) 0.9741(3)
C17 C 0.5524(5) 0.98015(19) 0.9095(3)
C18 C 0.4557(5) 0.9490(2) 1.0658(3)
F1 F 0.6035(3) 0.96315(12) 0.81814(16)
F2 F 0.4117(3) 0.90044(12) 1.13232(17)
I1 I 0.51049(3) 0.820593(12) 0.93241(2)
C16B C 0.4924(5) 1.07217(18) 1.0259(3)
C17B C 0.4476(5) 1.01985(19) 1.0905(3)
C18B C 0.5443(5) 1.0510(2) 0.9342(3)
F1B F 0.3965(3) 1.03685(12) 1.18186(16)
F2B F 0.5883(3) 1.09956(12) 0.86768(17)
I1B I 0.48951(3) 1.179407(12) 1.06759(2)
C2? C 0.333(3) 0.1467(10) 0.5082(13)
H2? H 0.2176 0.1671 0.5069
Cl4? Cl 0.476(2) 0.1962(11) 0.5885(14)
Cl5? Cl 0.393(4) 0.1471(14) 0.3867(12)
Cl6? Cl 0.330(4) 0.0606(9) 0.5518(16)
loop_
_geom_bond_atom_site_label_1
_geom_bond_atom_site_label_2
_geom_bond_site_symmetry_1
_geom_bond_site_symmetry_2
C1 H1 1_555 1_555
Cl1 C1 1_555 1_555
Cl2 C1 1_555 1_555
Cl3 C1 1_555 1_555
C3 H3 1_555 1_555
C4 C3 1_555 1_555
H4 C4 1_555 1_555
C5 C4 1_555 1_555
C6 C5 1_555 1_555
H5 C6 1_555 1_555
C7 C6 1_555 1_555
H6 C7 1_555 1_555
C8 H7 1_555 1_555
C9 C8 1_555 1_555
H8 C9 1_555 1_555
C10 C9 1_555 1_555
C11 C10 1_555 1_555
H9 C11 1_555 1_555
C12 C11 1_555 1_555
H10 C12 1_555 1_555
C13 C5 1_555 1_555
C14 C10 1_555 1_555
C15 C13 1_555 1_555
H11 C15 1_555 1_555
N1 C3 1_555 1_555
N2 C8 1_555 1_555
C16 C17 1_555 1_555
C17 F1 1_555 1_555
C18 C16 1_555 1_555
F2 C18 1_555 1_555
I1 C16 1_555 1_555
C3B H3B 1_555 1_555
C4B C3B 1_555 1_555
H4B C4B 1_555 1_555
C5B C4B 1_555 1_555
C6B C5B 1_555 1_555
H5B C6B 1_555 1_555
C7B C6B 1_555 1_555
H6B C7B 1_555 1_555
C8B H7B 1_555 1_555
C9B C8B 1_555 1_555
H8B C9B 1_555 1_555
C10B C9B 1_555 1_555
C11B C10B 1_555 1_555
H9B C11B 1_555 1_555
C12B C11B 1_555 1_555
H10B C12B 1_555 1_555
C13B C5B 1_555 1_555
C14B C15 1_555 1_555
C15B C14 1_555 1_555
H11B C15B 1_555 1_555
N1B C3B 1_555 1_555
N2B C8B 1_555 1_555
C16B C17B 1_555 1_555
C17B C18 1_555 1_555
C18B C17 1_555 1_555
F1B C17B 1_555 1_555
F2B C18B 1_555 1_555
I1B C16B 1_555 1_555
C7 N1 1_555 1_555
C12 N2 1_555 1_555
C13 C14 1_555 1_555
C7B N1B 1_555 1_555
C10B C14B 1_555 1_555
C12B N2B 1_555 1_555
C13B C14B 1_555 1_555
C13B C15B 1_555 1_555
C16B C18B 1_555 1_555

#END
