
#######################################################################
#
#                 Cambridge Crystallographic Data Centre
#                                CCDC 
#
#######################################################################
#
# If this CIF has been generated from an entry in the Cambridge 
# Structural Database, then it will include bibliographic, chemical, 
# crystal, experimental, refinement or atomic coordinate data resulting 
# from the CCDC's data processing and validation procedures.
#
#######################################################################

data_PERNEG
_chemical_formula_moiety         'C18 H28 O4'
_chemical_name_systematic        
(2'S*,6'R*,3R*)-1-(furan-2-yl)-3-hydroxy-3-(2'-methyl-6'-pentyltetrahydropyran-2'-yl)propan-1-one
_symmetry_cell_setting           monoclinic
_symmetry_space_group_name_H-M   'C c'
_symmetry_Int_Tables_number      9
_space_group_name_Hall           'C -2yc'
loop_
_symmetry_equiv_pos_site_id
_symmetry_equiv_pos_as_xyz
1 x,y,z
2 x,-y,1/2+z
3 1/2+x,1/2+y,z
4 1/2+x,1/2-y,1/2+z
_cell_length_a                   20.8896(7)
_cell_length_b                   8.0132(4)
_cell_length_c                   11.0490(4)
_cell_angle_alpha                90
_cell_angle_beta                 111.737(3)
_cell_angle_gamma                90
_cell_volume                     1718.01
_exptl_crystal_colour            colorless
_chemical_melting_point          '58-61 deg.C'
_cell_formula_units_Z            4
loop_
_atom_site_label
_atom_site_type_symbol
_atom_site_fract_x
_atom_site_fract_y
_atom_site_fract_z
O1 O 0.73267(9) 0.6914(2) 0.13395(17)
O2 O 0.73266(11) 0.3613(2) -0.09694(19)
H1 H 0.7398 0.3679 -0.1668
C1 C 0.63808(15) 0.6200(4) -0.0692(3)
H2 H 0.6235 0.5364 -0.1403
H3 H 0.6014 0.6273 -0.0328
C2 C 0.88653(15) 0.4610(4) 0.0325(3)
O3 O 1.00770(11) 0.3858(3) 0.0860(2)
C3 C 0.74350(14) 0.8504(3) 0.0834(3)
H4 H 0.7779 0.8355 0.0409
C4 C 0.82929(15) 0.4715(4) 0.0852(3)
H5 H 0.8404 0.5609 0.1517
H6 H 0.8269 0.3648 0.1285
C5 C 0.75903(13) 0.5073(3) -0.0202(2)
H7 H 0.7639 0.5985 -0.0779
C6 C 0.67710(15) 0.9164(4) -0.0173(3)
H8 H 0.6866 1.0213 -0.0549
H9 H 0.6440 0.9416 0.0252
O4 O 0.87751(12) 0.4961(3) -0.0806(2)
C7 C 0.70507(13) 0.5601(3) 0.0381(2)
C8 C 0.77430(15) 0.9661(4) 0.2001(3)
H10 H 0.7714 1.0824 0.1683
H11 H 0.7463 0.9585 0.2551
C9 C 0.84862(16) 0.9276(4) 0.2833(3)
H12 H 0.8514 0.8113 0.3150
H13 H 0.8766 0.9349 0.2280
C10 C 0.87979(17) 1.0419(4) 0.3992(3)
H14 H 0.8714 1.1590 0.3688
H15 H 0.8559 1.0234 0.4605
C11 C 0.69046(15) 0.4179(4) 0.1151(3)
H16 H 0.6716 0.3228 0.0571
H17 H 0.6570 0.4548 0.1525
H18 H 0.7333 0.3846 0.1852
C12 C 0.95345(15) 0.4062(4) 0.1255(3)
C13 C 0.64553(15) 0.7891(4) -0.1257(3)
H19 H 0.5997 0.8287 -0.1846
H20 H 0.6752 0.7776 -0.1773
C14 C 0.97270(16) 0.3650(4) 0.2529(3)
H21 H 0.9448 0.3689 0.3039
C15 C 1.04252(17) 0.3149(5) 0.2951(3)
H22 H 1.0705 0.2786 0.3802
C16 C 0.95594(18) 1.0181(4) 0.4714(3)
H23 H 0.9797 1.0338 0.4096
H24 H 0.9642 0.9017 0.5035
C17 C 0.98807(19) 1.1351(6) 0.5862(4)
H25 H 1.0374 1.1107 0.6281
H26 H 0.9657 1.1193 0.6492
H27 H 0.9819 1.2508 0.5554
C18 C 1.06174(17) 0.3283(4) 0.1928(3)
H28 H 1.1063 0.3020 0.1938
loop_
_geom_bond_atom_site_label_1
_geom_bond_atom_site_label_2
_geom_bond_site_symmetry_1
_geom_bond_site_symmetry_2
O1 C3 1_555 1_555
O2 H1 1_555 1_555
C1 H2 1_555 1_555
H3 C1 1_555 1_555
C2 C4 1_555 1_555
O3 C12 1_555 1_555
C3 H4 1_555 1_555
C4 H5 1_555 1_555
H6 C4 1_555 1_555
C5 O2 1_555 1_555
H7 C5 1_555 1_555
C6 C3 1_555 1_555
H8 C6 1_555 1_555
H9 C6 1_555 1_555
O4 C2 1_555 1_555
C7 O1 1_555 1_555
C8 C3 1_555 1_555
H10 C8 1_555 1_555
H11 C8 1_555 1_555
C9 C8 1_555 1_555
H12 C9 1_555 1_555
H13 C9 1_555 1_555
C10 C9 1_555 1_555
H14 C10 1_555 1_555
H15 C10 1_555 1_555
C11 C7 1_555 1_555
H16 C11 1_555 1_555
H17 C11 1_555 1_555
H18 C11 1_555 1_555
C12 C2 1_555 1_555
C13 C1 1_555 1_555
H19 C13 1_555 1_555
H20 C13 1_555 1_555
C14 C12 1_555 1_555
H21 C14 1_555 1_555
C15 C14 1_555 1_555
H22 C15 1_555 1_555
C16 C10 1_555 1_555
H23 C16 1_555 1_555
H24 C16 1_555 1_555
C17 C16 1_555 1_555
H25 C17 1_555 1_555
H26 C17 1_555 1_555
H27 C17 1_555 1_555
C18 O3 1_555 1_555
H28 C18 1_555 1_555
C1 C7 1_555 1_555
C4 C5 1_555 1_555
C5 C7 1_555 1_555
C6 C13 1_555 1_555
C15 C18 1_555 1_555

#END
