
#######################################################################
#
#                 Cambridge Crystallographic Data Centre
#                                CCDC 
#
#######################################################################
#
# If this CIF has been generated from an entry in the Cambridge 
# Structural Database, then it will include bibliographic, chemical, 
# crystal, experimental, refinement or atomic coordinate data resulting 
# from the CCDC's data processing and validation procedures.
#
#######################################################################

data_PERQAH
_chemical_formula_moiety         'C16 H9 N1 O2'
_chemical_name_systematic        9-ethynyl-10-nitroanthracene
_symmetry_cell_setting           monoclinic
_symmetry_space_group_name_H-M   'P 21'
_symmetry_Int_Tables_number      4
_space_group_name_Hall           'P 2yb'
loop_
_symmetry_equiv_pos_site_id
_symmetry_equiv_pos_as_xyz
1 x,y,z
2 -x,1/2+y,-z
_cell_length_a                   3.86591(12)
_cell_length_b                   16.1913(5)
_cell_length_c                   9.0929(3)
_cell_angle_alpha                90
_cell_angle_beta                 100.696(3)
_cell_angle_gamma                90
_cell_volume                     559.273
_exptl_crystal_colour            yellow
_exptl_crystal_description       needle
_cell_formula_units_Z            2
loop_
_atom_site_label
_atom_site_type_symbol
_atom_site_fract_x
_atom_site_fract_y
_atom_site_fract_z
C1 C 0.2404(4) 0.41024(11) 0.5174(2)
C2 C 0.5530(5) 0.50808(12) 0.7029(2)
C3 C -0.0755(5) 0.31482(13) 0.3345(2)
H1 H -0.1667 0.3011 0.2356
C4 C 0.5165(5) 0.45242(11) 0.8222(2)
C5 C 0.2086(5) 0.35310(11) 0.6347(2)
N1 N 0.3463(4) 0.31469(11) 0.90088(17)
C6 C 0.4518(5) 0.54293(12) 0.4359(2)
C7 C 0.8589(5) 0.60564(14) 0.8845(2)
H2 H 0.9730 0.6559 0.9065
C8 C 0.3539(5) 0.37622(11) 0.7821(2)
C9 C 0.4161(5) 0.48605(12) 0.5531(2)
C10 C 0.8194(5) 0.55119(14) 1.0020(2)
H3 H 0.9070 0.5663 1.1005
C11 C -0.1164(5) 0.25942(12) 0.4513(2)
H4 H -0.2388 0.2102 0.4283
C12 C 0.0961(5) 0.38783(12) 0.3664(2)
H5 H 0.1199 0.4236 0.2890
C13 C 0.0220(5) 0.27764(12) 0.5969(2)
H6 H -0.0054 0.2406 0.6721
C14 C 0.7313(5) 0.58496(12) 0.7398(2)
H7 H 0.7600 0.6212 0.6637
C15 C 0.6551(5) 0.47694(13) 0.9732(2)
H8 H 0.6328 0.4419 1.0519
O1 O 0.2026(4) 0.33273(11) 1.00554(15)
O2 O 0.4932(4) 0.24844(10) 0.89002(16)
C16 C 0.4834(5) 0.59131(14) 0.3409(2)
H9 H 0.5081 0.6292 0.2666
loop_
_geom_bond_atom_site_label_1
_geom_bond_atom_site_label_2
_geom_bond_site_symmetry_1
_geom_bond_site_symmetry_2
C1 C5 1_555 1_555
C2 C4 1_555 1_555
C3 H1 1_555 1_555
C4 C8 1_555 1_555
C5 C8 1_555 1_555
N1 C8 1_555 1_555
C6 C9 1_555 1_555
C7 H2 1_555 1_555
C9 C1 1_555 1_555
C10 C7 1_555 1_555
H3 C10 1_555 1_555
C11 C3 1_555 1_555
H4 C11 1_555 1_555
C12 C1 1_555 1_555
H5 C12 1_555 1_555
C13 C5 1_555 1_555
H6 C13 1_555 1_555
C14 C2 1_555 1_555
H7 C14 1_555 1_555
C15 C4 1_555 1_555
H8 C15 1_555 1_555
O1 N1 1_555 1_555
O2 N1 1_555 1_555
C16 C6 1_555 1_555
H9 C16 1_555 1_555
C2 C9 1_555 1_555
C3 C12 1_555 1_555
C7 C14 1_555 1_555
C10 C15 1_555 1_555
C11 C13 1_555 1_555

#END
