
#######################################################################
#
#                 Cambridge Crystallographic Data Centre
#                                CCDC 
#
#######################################################################
#
# If this CIF has been generated from an entry in the Cambridge 
# Structural Database, then it will include bibliographic, chemical, 
# crystal, experimental, refinement or atomic coordinate data resulting 
# from the CCDC's data processing and validation procedures.
#
#######################################################################

data_PERWIV
_chemical_formula_moiety         'C6 H14 N2 2+,2(C2 F3 O2 1-)'
_chemical_name_systematic        
'1,4-diazoniabicyclo[2.2.2]octane bis(trifluoroacetate)'
_symmetry_cell_setting           triclinic
_symmetry_space_group_name_H-M   'P -1'
_symmetry_Int_Tables_number      2
_space_group_name_Hall           '-P 1'
loop_
_symmetry_equiv_pos_site_id
_symmetry_equiv_pos_as_xyz
1 x,y,z
2 -x,-y,-z
_cell_length_a                   7.339(3)
_cell_length_b                   9.614(3)
_cell_length_c                   10.245(4)
_cell_angle_alpha                87.831(4)
_cell_angle_beta                 72.008(4)
_cell_angle_gamma                73.459(3)
_cell_volume                     658.063
_exptl_crystal_colour            colorless
_exptl_crystal_description       needle
_cell_formula_units_Z            2
loop_
_atom_site_label
_atom_site_type_symbol
_atom_site_fract_x
_atom_site_fract_y
_atom_site_fract_z
F1 F 0.2572(3) 0.8996(2) 0.72061(19)
F2 F 0.3652(3) 1.0855(2) 0.7172(2)
O1 O 0.6222(4) 0.7353(2) 0.5746(2)
F3 F 0.4442(3) 0.9086(3) 0.84334(19)
O2 O 0.7219(3) 0.9380(2) 0.5533(2)
C1 C 0.4161(5) 0.9397(3) 0.7206(3)
C2 C 0.6068(5) 0.8622(3) 0.6026(3)
F4 F -0.0073(3) 0.8488(2) 0.9831(2)
O3 O 0.1636(3) 0.5645(3) 0.7408(2)
O4 O 0.2919(3) 0.5985(2) 0.9066(2)
F5 F -0.1544(4) 0.6821(3) 1.0175(3)
F6 F -0.1367(3) 0.8033(3) 0.8354(2)
C3 C 0.1610(4) 0.6229(3) 0.8456(3)
C4 C -0.0341(5) 0.7417(3) 0.9208(3)
N1 N -0.0581(4) 1.2265(3) 0.6256(3)
N2 N -0.3798(4) 1.4005(3) 0.7599(3)
C5 C -0.3583(5) 1.2591(3) 0.8257(3)
H1 H -0.4666 1.2205 0.8249
H2 H -0.3642 1.2721 0.9204
C6 C -0.1564(5) 1.1529(3) 0.7456(3)
H3 H -0.0722 1.1244 0.8045
H4 H -0.1770 1.0662 0.7146
C7 C -0.2131(5) 1.4603(3) 0.7602(3)
H5 H -0.2105 1.4700 0.8535
H6 H -0.2320 1.5555 0.7224
C8 C -0.3809(5) 1.3842(4) 0.6154(3)
H7 H -0.3890 1.4763 0.5723
H8 H -0.4958 1.3536 0.6152
C9 C -0.1883(5) 1.2705(4) 0.5367(3)
H9 H -0.2192 1.1865 0.5097
H10 H -0.1195 1.3106 0.4541
C10 C -0.0172(5) 1.3560(4) 0.6731(4)
H11 H 0.0450 1.4044 0.5943
H12 H 0.0739 1.3257 0.7269
H13 H 0.040(7) 1.179(6) 0.573(5)
H14 H -0.478(7) 1.458(5) 0.801(4)
loop_
_geom_bond_atom_site_label_1
_geom_bond_atom_site_label_2
_geom_bond_site_symmetry_1
_geom_bond_site_symmetry_2
F1 C1 1_555 1_555
F2 C1 1_555 1_555
O1 C2 1_555 1_555
F3 C1 1_555 1_555
O2 C2 1_555 1_555
C1 C2 1_555 1_555
F4 C4 1_555 1_555
O3 C3 1_555 1_555
O4 C3 1_555 1_555
F5 C4 1_555 1_555
F6 C4 1_555 1_555
C3 C4 1_555 1_555
N1 C6 1_555 1_555
N2 C5 1_555 1_555
C5 H1 1_555 1_555
H2 C5 1_555 1_555
C6 C5 1_555 1_555
H3 C6 1_555 1_555
H4 C6 1_555 1_555
C7 N2 1_555 1_555
H5 C7 1_555 1_555
H6 C7 1_555 1_555
C8 N2 1_555 1_555
H7 C8 1_555 1_555
H8 C8 1_555 1_555
C9 N1 1_555 1_555
H9 C9 1_555 1_555
H10 C9 1_555 1_555
C10 N1 1_555 1_555
H11 C10 1_555 1_555
H12 C10 1_555 1_555
H13 N1 1_555 1_555
H14 N2 1_555 1_555
C7 C10 1_555 1_555
C8 C9 1_555 1_555

#END
