
#######################################################################
#
#                 Cambridge Crystallographic Data Centre
#                                CCDC 
#
#######################################################################
#
# If this CIF has been generated from an entry in the Cambridge 
# Structural Database, then it will include bibliographic, chemical, 
# crystal, experimental, refinement or atomic coordinate data resulting 
# from the CCDC's data processing and validation procedures.
#
#######################################################################

data_PERWUH01
_chemical_formula_moiety         'C6 H13 N2 1+,C2 F3 O2 1-'
_chemical_name_systematic        
'4-aza-1-azoniabicyclo[2.2.2]octane trifluoroacetate'
_symmetry_cell_setting           orthorhombic
_symmetry_space_group_name_H-M   'P n m a'
_symmetry_Int_Tables_number      62
_space_group_name_Hall           '-P 2ac 2n'
loop_
_symmetry_equiv_pos_site_id
_symmetry_equiv_pos_as_xyz
1 x,y,z
2 1/2-x,-y,1/2+z
3 1/2+x,1/2-y,1/2-z
4 -x,1/2+y,-z
5 -x,-y,-z
6 1/2+x,y,1/2-z
7 1/2-x,1/2+y,1/2+z
8 x,1/2-y,z
_cell_length_a                   6.117(5)
_cell_length_b                   8.749(7)
_cell_length_c                   19.240(14)
_cell_angle_alpha                90
_cell_angle_beta                 90
_cell_angle_gamma                90
_cell_volume                     1029.68
_exptl_crystal_colour            colorless
_exptl_crystal_description       Block
_cell_formula_units_Z            4
loop_
_atom_site_label
_atom_site_type_symbol
_atom_site_fract_x
_atom_site_fract_y
_atom_site_fract_z
C5 C 0.5376(7) 0.2500 0.3471(2)
F1 F 0.3215(7) 0.2500 0.3632(3)
O1 O 0.7854(11) 0.3332(9) 0.4325(3)
O2 O 0.6401(16) 0.1019(7) 0.4388(4)
C6 C 0.6714(9) 0.2211(6) 0.4133(2)
F2 F 0.5249(16) 0.1224(4) 0.3150(4)
O1G O 0.7854(11) 0.1668(9) 0.4325(3)
O2G O 0.6401(16) 0.3981(7) 0.4388(4)
C6G C 0.6714(9) 0.2789(6) 0.4133(2)
F2G F 0.5249(16) 0.3776(4) 0.3150(4)
N1 N 0.9355(4) 0.2500 0.56218(13)
N2 N 1.0391(5) 0.2500 0.68872(13)
C1 C 1.2352(5) 0.2500 0.64534(18)
H1 H 1.3222 0.1603 0.6560
C2 C 1.1779(6) 0.2500 0.56788(18)
H2 H 1.2381 0.3400 0.5455
C3 C 0.9089(4) 0.1149(3) 0.67246(12)
H3 H 0.7776 0.1150 0.7007
H4 H 0.9921 0.0238 0.6839
C4 C 0.8457(4) 0.1103(3) 0.59604(13)
H5 H 0.9054 0.0195 0.5742
H6 H 0.6878 0.1079 0.5913
H7 H 0.899(7) 0.2500 0.518(2)
H1G H 1.3222 0.3397 0.6560
H2G H 1.2381 0.1600 0.5455
C3G C 0.9089(4) 0.3851(3) 0.67246(12)
H3G H 0.7776 0.3850 0.7007
H4G H 0.9921 0.4762 0.6839
C4G C 0.8457(4) 0.3897(3) 0.59604(13)
H5G H 0.9054 0.4805 0.5742
H6G H 0.6878 0.3921 0.5913
H8? H 1.3222 0.1603 0.6560
H9? H 1.2381 0.3400 0.5455
F3? F 0.646(4) 0.175(3) 0.2981(5)
loop_
_geom_bond_atom_site_label_1
_geom_bond_atom_site_label_2
_geom_bond_site_symmetry_1
_geom_bond_site_symmetry_2
N1 C2 1_555 1_555
N2 C1 1_555 1_555
C1 H1 1_555 1_555
C2 C1 1_555 1_555
H2 C2 1_555 1_555
C3 N2 1_555 1_555
H3 C3 1_555 1_555
H4 C3 1_555 1_555
C4 N1 1_555 1_555
H5 C4 1_555 1_555
H6 C4 1_555 1_555
H7 N1 1_555 1_555
C5 F1 1_555 1_555
O1 C6 1_555 1_555
O2 C6 1_555 1_555
C6 C5 1_555 1_555
F2 C5 1_555 1_555
H1G C1 1_555 1_555
H2G C2 1_555 1_555
C3G N2 1_555 1_555
H3G C3G 1_555 1_555
H4G C3G 1_555 1_555
C4G N1 1_555 1_555
H5G C4G 1_555 1_555
H6G C4G 1_555 1_555
O1G O1 1_555 1_555
O2G O1 1_555 1_555
C6G C5 1_555 1_555
F2G C5 1_555 1_555
C3 C4 1_555 1_555
O1 C6G 1_555 1_555
O2 O1G 1_555 1_555
O2 C6G 1_555 1_555
C6 O1G 1_555 1_555
C6 O2G 1_555 1_555
C3G C4G 1_555 1_555
O1G C6G 1_555 1_555
O2G C6G 1_555 1_555

#END
