
#######################################################################
#
#                 Cambridge Crystallographic Data Centre
#                                CCDC 
#
#######################################################################
#
# If this CIF has been generated from an entry in the Cambridge 
# Structural Database, then it will include bibliographic, chemical, 
# crystal, experimental, refinement or atomic coordinate data resulting 
# from the CCDC's data processing and validation procedures.
#
#######################################################################

data_PERWUH
_chemical_formula_moiety         'C6 H13 N2 1+,C2 F3 O2 1-'
_chemical_name_systematic        
'4-aza-1-azoniabicyclo[2.2.2]octane trifluoroacetate'
_symmetry_cell_setting           orthorhombic
_symmetry_space_group_name_H-M   'P 21 21 21'
_symmetry_Int_Tables_number      19
_space_group_name_Hall           'P 2ac 2ab'
loop_
_symmetry_equiv_pos_site_id
_symmetry_equiv_pos_as_xyz
1 x,y,z
2 1/2-x,-y,1/2+z
3 1/2+x,1/2-y,-z
4 -x,1/2+y,1/2-z
_cell_length_a                   6.059(3)
_cell_length_b                   8.532(4)
_cell_length_c                   18.905(8)
_cell_angle_alpha                90
_cell_angle_beta                 90
_cell_angle_gamma                90
_cell_volume                     977.301
_exptl_crystal_colour            colorless
_exptl_crystal_description       block
_cell_formula_units_Z            4
loop_
_atom_site_label
_atom_site_type_symbol
_atom_site_fract_x
_atom_site_fract_y
_atom_site_fract_z
N1 N 0.0400(3) 0.7443(2) 0.19008(9)
N2 N -0.0611(3) 0.7432(2) 0.06052(9)
C1 C -0.2045(3) 0.7610(3) 0.18331(11)
H1 H -0.2521 0.8654 0.2003
H2 H -0.2804 0.6798 0.2118
C2 C 0.0673(4) 0.8837(3) 0.07710(11)
H3 H -0.0258 0.9778 0.0701
H4 H 0.1947 0.8910 0.0445
C3 C -0.2616(3) 0.7414(3) 0.10401(12)
H5 H -0.3406 0.6411 0.0969
H6 H -0.3606 0.8275 0.0890
C4 C 0.0705(4) 0.6038(3) 0.07725(11)
H7 H 0.2131 0.6091 0.0518
H8 H -0.0087 0.5089 0.0611
C5 C 0.1134(4) 0.5922(2) 0.15732(11)
H9 H 0.0293 0.5036 0.1777
H10 H 0.2723 0.5747 0.1665
C6 C 0.1512(4) 0.8792(3) 0.15429(11)
H11 H 0.3133 0.8652 0.1552
H12 H 0.1145 0.9784 0.1788
H13 H 0.082(5) 0.741(4) 0.2317(19)
F1 F 0.7071(3) 0.7489(3) 0.38364(11)
O1 O 0.1987(3) 0.6873(2) 0.32157(9)
O2 O 0.3967(3) 0.9056(2) 0.30384(9)
C7 C 0.4889(4) 0.7478(3) 0.40091(14)
F2 F 0.4608(4) 0.6061(2) 0.42768(11)
C8 C 0.3462(4) 0.7833(2) 0.33528(11)
F3 F 0.4674(5) 0.8531(3) 0.44989(11)
loop_
_geom_bond_atom_site_label_1
_geom_bond_atom_site_label_2
_geom_bond_site_symmetry_1
_geom_bond_site_symmetry_2
N1 C1 1_555 1_555
N2 C2 1_555 1_555
C1 H1 1_555 1_555
H2 C1 1_555 1_555
C2 H3 1_555 1_555
H4 C2 1_555 1_555
C3 N2 1_555 1_555
H5 C3 1_555 1_555
H6 C3 1_555 1_555
C4 N2 1_555 1_555
H7 C4 1_555 1_555
H8 C4 1_555 1_555
C5 N1 1_555 1_555
H9 C5 1_555 1_555
H10 C5 1_555 1_555
C6 N1 1_555 1_555
H11 C6 1_555 1_555
H12 C6 1_555 1_555
H13 N1 1_555 1_555
F1 C7 1_555 1_555
O1 C8 1_555 1_555
O2 C8 1_555 1_555
C7 F2 1_555 1_555
C8 C7 1_555 1_555
F3 C7 1_555 1_555
C1 C3 1_555 1_555
C2 C6 1_555 1_555
C4 C5 1_555 1_555

#END
