
#######################################################################
#
#                 Cambridge Crystallographic Data Centre
#                                CCDC 
#
#######################################################################
#
# If this CIF has been generated from an entry in the Cambridge 
# Structural Database, then it will include bibliographic, chemical, 
# crystal, experimental, refinement or atomic coordinate data resulting 
# from the CCDC's data processing and validation procedures.
#
#######################################################################

data_PERXOZ
_chemical_formula_moiety         'C9 H21 N2 1+,C6 H2 N3 O7 1-'
_chemical_name_systematic        
'cis-1,2-bis(N,N-Dimethylamino)cyclopentane picrate'
_symmetry_cell_setting           monoclinic
_symmetry_space_group_name_H-M   'C 2/c'
_symmetry_Int_Tables_number      15
_space_group_name_Hall           '-C 2yn'
loop_
_symmetry_equiv_pos_site_id
_symmetry_equiv_pos_as_xyz
1 x,y,z
2 1/2+x,1/2+y,z
3 -x,y,1/2-z
4 1/2-x,1/2+y,1/2-z
5 -x,-y,-z
6 1/2-x,1/2-y,-z
7 x,-y,1/2+z
8 1/2+x,1/2-y,1/2+z
_cell_length_a                   20.751(3)
_cell_length_b                   11.968(3)
_cell_length_c                   16.590(2)
_cell_angle_alpha                90
_cell_angle_beta                 112.36(1)
_cell_angle_gamma                90
_cell_volume                     3810.31
_exptl_crystal_colour            yellow-orange
_cell_formula_units_Z            8
loop_
_atom_site_label
_atom_site_type_symbol
_atom_site_fract_x
_atom_site_fract_y
_atom_site_fract_z
O1 O 0.5611(2) 0.2149(3) 0.5768(2)
O2 O 0.6605(2) 0.0584(4) 0.6627(3)
O3 O 0.6306(2) -0.0226(4) 0.7596(3)
O4 O 0.4075(3) -0.2093(4) 0.6274(4)
O5 O 0.3215(3) -0.1178(5) 0.5342(3)
O6 O 0.3801(3) 0.2170(4) 0.4008(4)
O7 O 0.4334(3) 0.3254(4) 0.5056(3)
N3 N 0.6165(3) 0.0242(5) 0.6894(4)
N4 N 0.3829(4) -0.1288(5) 0.5815(4)
N5 N 0.4192(3) 0.2333(5) 0.4755(4)
C10 C 0.5226(3) 0.1371(5) 0.5811(3)
C11 C 0.5436(3) 0.0385(5) 0.6340(3)
C12 C 0.4987(3) -0.0445(5) 0.6361(3)
C13 C 0.4295(3) -0.0373(5) 0.5825(4)
C14 C 0.4040(3) 0.0539(5) 0.5292(4)
C15 C 0.4487(3) 0.1377(5) 0.5308(3)
H1 H 0.5138 -0.1084 0.6754
H2 H 0.3547 0.0583 0.4908
N1 N 0.6722(3) 0.3512(4) 0.6415(3)
N2 N 0.6634(2) 0.2765(5) 0.7993(3)
C1 C 0.6741(4) 0.4360(6) 0.7077(4)
C2 C 0.6917(3) 0.3877(6) 0.7989(4)
C3 C 0.6681(6) 0.4829(9) 0.8433(6)
C4 C 0.6086(5) 0.5428(9) 0.775(1)
C5 C 0.6057(4) 0.4988(6) 0.6852(5)
C6 C 0.6530(4) 0.4017(6) 0.5540(4)
C7 C 0.7392(3) 0.2890(6) 0.6655(5)
C8 C 0.7043(4) 0.2154(8) 0.8786(5)
C9 C 0.5898(3) 0.2724(6) 0.7876(4)
H3 H 0.638(3) 0.299(5) 0.637(3)
H4 H 0.7102 0.4907 0.7111
H5 H 0.7426 0.3824 0.8270
H6 H 0.6527 0.4523 0.8878
H7 H 0.7068 0.5349 0.8706
H8 H 0.5648 0.5263 0.7817
H9 H 0.6168 0.6236 0.7789
H10 H 0.6026 0.5609 0.6454
H11 H 0.5659 0.4487 0.6587
H12 H 0.6895 0.4540 0.5546
H13 H 0.6480 0.3428 0.5111
H14 H 0.6087 0.4418 0.5385
H15 H 0.7512 0.2548 0.7231
H16 H 0.7342 0.2305 0.6222
H17 H 0.7762 0.3408 0.6670
H18 H 0.6885 0.1376 0.8732
H19 H 0.7537 0.2176 0.8870
H20 H 0.6982 0.2501 0.9287
H21 H 0.5839 0.3071 0.8379
H22 H 0.5618 0.3128 0.7344
H23 H 0.5744 0.1943 0.7827
loop_
_geom_bond_atom_site_label_1
_geom_bond_atom_site_label_2
_geom_bond_site_symmetry_1
_geom_bond_site_symmetry_2
O1 C10 1_555 1_555
O2 N3 1_555 1_555
O3 N3 1_555 1_555
O4 N4 1_555 1_555
O5 N4 1_555 1_555
O6 N5 1_555 1_555
O7 N5 1_555 1_555
N1 C1 1_555 1_555
N2 C2 1_555 1_555
N3 C11 1_555 1_555
N4 C13 1_555 1_555
N5 C15 1_555 1_555
C1 C2 1_555 1_555
C2 C3 1_555 1_555
C3 C4 1_555 1_555
C4 C5 1_555 1_555
C5 C1 1_555 1_555
C6 N1 1_555 1_555
C7 N1 1_555 1_555
C8 N2 1_555 1_555
C9 N2 1_555 1_555
C10 C11 1_555 1_555
C11 C12 1_555 1_555
C12 C13 1_555 1_555
C13 C14 1_555 1_555
C14 C15 1_555 1_555
C15 C10 1_555 1_555
H1 C12 1_555 1_555
H2 C14 1_555 1_555
H3 N1 1_555 1_555
H4 C1 1_555 1_555
H5 C2 1_555 1_555
H6 C3 1_555 1_555
H7 C3 1_555 1_555
H8 C4 1_555 1_555
H9 C4 1_555 1_555
H10 C5 1_555 1_555
H11 C5 1_555 1_555
H12 C6 1_555 1_555
H13 C6 1_555 1_555
H14 C6 1_555 1_555
H15 C7 1_555 1_555
H16 C7 1_555 1_555
H17 C7 1_555 1_555
H18 C8 1_555 1_555
H19 C8 1_555 1_555
H20 C8 1_555 1_555
H21 C9 1_555 1_555
H22 C9 1_555 1_555
H23 C9 1_555 1_555

#END
