
#######################################################################
#
#                 Cambridge Crystallographic Data Centre
#                                CCDC 
#
#######################################################################
#
# If this CIF has been generated from an entry in the Cambridge 
# Structural Database, then it will include bibliographic, chemical, 
# crystal, experimental, refinement or atomic coordinate data resulting 
# from the CCDC's data processing and validation procedures.
#
#######################################################################

data_PERXOC
_chemical_formula_moiety         'C56 H36 N4'
_chemical_name_systematic        
2,2'-(ethene-1,2-diyldi-4,1-phenylene)bis(1-phenyl-1H-phenanthro[9,10-d]imidazole)
_symmetry_cell_setting           monoclinic
_symmetry_space_group_name_H-M   'C 2/c'
_symmetry_Int_Tables_number      15
_space_group_name_Hall           '-C 2yn'
loop_
_symmetry_equiv_pos_site_id
_symmetry_equiv_pos_as_xyz
1 x,y,z
2 -x,y,1/2-z
3 1/2+x,1/2+y,z
4 1/2-x,1/2+y,1/2-z
5 -x,-y,-z
6 x,-y,1/2+z
7 1/2-x,1/2-y,-z
8 1/2+x,1/2-y,1/2+z
_cell_length_a                   34.1698(7)
_cell_length_b                   6.68180(10)
_cell_length_c                   19.1391(3)
_cell_angle_alpha                90
_cell_angle_beta                 110.8500(10)
_cell_angle_gamma                90
_cell_volume                     4083.61
_exptl_crystal_colour            colorless
_cell_formula_units_Z            4
loop_
_atom_site_label
_atom_site_type_symbol
_atom_site_fract_x
_atom_site_fract_y
_atom_site_fract_z
C1 C 0.10714(5) 0.7486(2) 0.12530(9)
C2 C 0.14647(5) 0.9945(2) 0.19211(9)
C3 C 0.16990(5) 1.1363(2) 0.24768(9)
C4 C 0.17110(6) 1.1393(3) 0.32199(10)
H1 H 0.1554 1.0468 0.3372
C5 C 0.19509(6) 1.2770(3) 0.37231(11)
H2 H 0.1955 1.2779 0.4211
C6 C 0.21870(6) 1.4147(3) 0.35028(12)
H3 H 0.2348 1.5083 0.3844
C7 C 0.21837(6) 1.4136(3) 0.27871(11)
H4 H 0.2345 1.5070 0.2651
C8 C 0.19429(5) 1.2754(2) 0.22473(9)
C9 C 0.19527(5) 1.2712(2) 0.14874(10)
C10 C 0.21673(6) 1.4144(3) 0.12230(11)
H5 H 0.2312 1.5165 0.1540
C11 C 0.21691(7) 1.4072(3) 0.05092(12)
H6 H 0.2314 1.5041 0.0350
C12 C 0.19577(6) 1.2578(3) 0.00222(11)
H7 H 0.1959 1.2546 -0.0463
C13 C 0.17464(6) 1.1148(3) 0.02558(10)
H8 H 0.1606 1.0135 -0.0071
C14 C 0.17395(5) 1.1194(2) 0.09827(9)
C15 C 0.15009(5) 0.9788(2) 0.12321(9)
C16 C 0.10033(6) 0.8116(3) 0.24920(10)
C17 C 0.07298(7) 0.9495(4) 0.25875(13)
H9 H 0.0668 1.0664 0.2305
C18 C 0.05475(10) 0.9105(7) 0.3116(2)
H10 H 0.0363 1.0023 0.3193
C19 C 0.06399(15) 0.7358(10) 0.3525(2)
H11 H 0.0514 0.7091 0.3874
C20 C 0.09133(14) 0.6030(7) 0.34194(18)
H12 H 0.0975 0.4858 0.3700
C21 C 0.10986(8) 0.6390(4) 0.29073(12)
H13 H 0.1287 0.5476 0.2840
C22 C 0.07895(5) 0.5750(2) 0.10346(9)
C23 C 0.04216(6) 0.5542(2) 0.11842(10)
H14 H 0.0347 0.6518 0.1460
C24 C 0.01668(6) 0.3900(2) 0.09255(10)
H15 H -0.0079 0.3792 0.1028
C25 C 0.02688(5) 0.2399(2) 0.05153(9)
C26 C 0.06419(5) 0.2599(2) 0.03829(10)
H16 H 0.0722 0.1596 0.0125
C27 C 0.08944(5) 0.4254(2) 0.06269(9)
H17 H 0.1138 0.4372 0.0518
C28 C -0.00230(6) 0.0735(2) 0.02155(10)
H18 H -0.0263 0.0707 0.0339
N1 N 0.11811(4) 0.84632(18) 0.19314(7)
N2 N 0.12594(4) 0.82497(19) 0.08218(8)
C1D C -0.10714(5) -0.7486(2) -0.12530(9)
C2D C -0.14647(5) -0.9945(2) -0.19211(9)
C3D C -0.16990(5) -1.1363(2) -0.24768(9)
C4D C -0.17110(6) -1.1393(3) -0.32199(10)
H1D H -0.1554 -1.0468 -0.3372
C5D C -0.19509(6) -1.2770(3) -0.37231(11)
H2D H -0.1955 -1.2779 -0.4211
C6D C -0.21870(6) -1.4147(3) -0.35028(12)
H3D H -0.2348 -1.5083 -0.3844
C7D C -0.21837(6) -1.4136(3) -0.27871(11)
H4D H -0.2345 -1.5070 -0.2651
C8D C -0.19429(5) -1.2754(2) -0.22473(9)
C9D C -0.19527(5) -1.2712(2) -0.14874(10)
C10D C -0.21673(6) -1.4144(3) -0.12230(11)
H5D H -0.2312 -1.5165 -0.1540
C11D C -0.21691(7) -1.4072(3) -0.05092(12)
H6D H -0.2314 -1.5041 -0.0350
C12D C -0.19577(6) -1.2578(3) -0.00222(11)
H7D H -0.1959 -1.2546 0.0463
C13D C -0.17464(6) -1.1148(3) -0.02558(10)
H8D H -0.1606 -1.0135 0.0071
C14D C -0.17395(5) -1.1194(2) -0.09827(9)
C15D C -0.15009(5) -0.9788(2) -0.12321(9)
C16D C -0.10033(6) -0.8116(3) -0.24920(10)
C17D C -0.07298(7) -0.9495(4) -0.25875(13)
H9D H -0.0668 -1.0664 -0.2305
C18D C -0.05475(10) -0.9105(7) -0.3116(2)
H10D H -0.0363 -1.0023 -0.3193
C19D C -0.06399(15) -0.7358(10) -0.3525(2)
H11D H -0.0514 -0.7091 -0.3874
C20D C -0.09133(14) -0.6030(7) -0.34194(18)
H12D H -0.0975 -0.4858 -0.3700
C21D C -0.10986(8) -0.6390(4) -0.29073(12)
H13D H -0.1287 -0.5476 -0.2840
C22D C -0.07895(5) -0.5750(2) -0.10346(9)
C23D C -0.04216(6) -0.5542(2) -0.11842(10)
H14D H -0.0347 -0.6518 -0.1460
C24D C -0.01668(6) -0.3900(2) -0.09255(10)
H15D H 0.0079 -0.3792 -0.1028
C25D C -0.02688(5) -0.2399(2) -0.05153(9)
C26D C -0.06419(5) -0.2599(2) -0.03829(10)
H16D H -0.0722 -0.1596 -0.0125
C27D C -0.08944(5) -0.4254(2) -0.06269(9)
H17D H -0.1138 -0.4372 -0.0518
C28D C 0.00230(6) -0.0735(2) -0.02155(10)
H18D H 0.0263 -0.0707 -0.0339
N1D N -0.11811(4) -0.84632(18) -0.19314(7)
N2D N -0.12594(4) -0.82497(19) -0.08218(8)
loop_
_geom_bond_atom_site_label_1
_geom_bond_atom_site_label_2
_geom_bond_site_symmetry_1
_geom_bond_site_symmetry_2
C1 C22 1_555 1_555
C2 C3 1_555 1_555
C3 C4 1_555 1_555
C4 H1 1_555 1_555
C5 C4 1_555 1_555
H2 C5 1_555 1_555
C6 C5 1_555 1_555
H3 C6 1_555 1_555
C7 C6 1_555 1_555
H4 C7 1_555 1_555
C8 C3 1_555 1_555
C9 C8 1_555 1_555
C10 C9 1_555 1_555
H5 C10 1_555 1_555
C11 C10 1_555 1_555
H6 C11 1_555 1_555
C12 C11 1_555 1_555
H7 C12 1_555 1_555
C13 C12 1_555 1_555
H8 C13 1_555 1_555
C14 C9 1_555 1_555
C15 C2 1_555 1_555
C16 C17 1_555 1_555
C17 H9 1_555 1_555
C18 C17 1_555 1_555
H10 C18 1_555 1_555
C19 C18 1_555 1_555
H11 C19 1_555 1_555
C20 C19 1_555 1_555
H12 C20 1_555 1_555
C21 C16 1_555 1_555
H13 C21 1_555 1_555
C22 C23 1_555 1_555
C23 H14 1_555 1_555
C24 C23 1_555 1_555
H15 C24 1_555 1_555
C25 C24 1_555 1_555
C26 C25 1_555 1_555
H16 C26 1_555 1_555
C27 C22 1_555 1_555
H17 C27 1_555 1_555
C28 C25 1_555 1_555
H18 C28 1_555 1_555
N1 C1 1_555 1_555
N2 C1 1_555 1_555
C1D C22D 1_555 1_555
C2D C3D 1_555 1_555
C3D C4D 1_555 1_555
C4D H1D 1_555 1_555
C5D C4D 1_555 1_555
H2D C5D 1_555 1_555
C6D C5D 1_555 1_555
H3D C6D 1_555 1_555
C7D C6D 1_555 1_555
H4D C7D 1_555 1_555
C8D C3D 1_555 1_555
C9D C8D 1_555 1_555
C10D C9D 1_555 1_555
H5D C10D 1_555 1_555
C11D C10D 1_555 1_555
H6D C11D 1_555 1_555
C12D C11D 1_555 1_555
H7D C12D 1_555 1_555
C13D C12D 1_555 1_555
H8D C13D 1_555 1_555
C14D C9D 1_555 1_555
C15D C2D 1_555 1_555
C16D C17D 1_555 1_555
C17D H9D 1_555 1_555
C18D C17D 1_555 1_555
H10D C18D 1_555 1_555
C19D C18D 1_555 1_555
H11D C19D 1_555 1_555
C20D C19D 1_555 1_555
H12D C20D 1_555 1_555
C21D C16D 1_555 1_555
H13D C21D 1_555 1_555
C22D C23D 1_555 1_555
C23D H14D 1_555 1_555
C24D C23D 1_555 1_555
H15D C24D 1_555 1_555
C25D C24D 1_555 1_555
C26D C25D 1_555 1_555
H16D C26D 1_555 1_555
C27D C22D 1_555 1_555
H17D C27D 1_555 1_555
C28D C28 1_555 1_555
H18D C28D 1_555 1_555
N1D C1D 1_555 1_555
N2D C1D 1_555 1_555
C2 N1 1_555 1_555
C7 C8 1_555 1_555
C13 C14 1_555 1_555
C14 C15 1_555 1_555
C15 N2 1_555 1_555
C16 N1 1_555 1_555
C20 C21 1_555 1_555
C26 C27 1_555 1_555
C2D N1D 1_555 1_555
C7D C8D 1_555 1_555
C13D C14D 1_555 1_555
C14D C15D 1_555 1_555
C15D N2D 1_555 1_555
C16D N1D 1_555 1_555
C20D C21D 1_555 1_555
C25D C28D 1_555 1_555
C26D C27D 1_555 1_555

#END
