
#######################################################################
#
#                 Cambridge Crystallographic Data Centre
#                                CCDC 
#
#######################################################################
#
# If this CIF has been generated from an entry in the Cambridge 
# Structural Database, then it will include bibliographic, chemical, 
# crystal, experimental, refinement or atomic coordinate data resulting 
# from the CCDC's data processing and validation procedures.
#
#######################################################################

data_PESCOF
_chemical_compound_source        'Conospermum sp'
_chemical_formula_moiety         'C27 H23 Br1 O5'
_chemical_name_systematic        'Teretifolione B p-bromobenzoate'
_symmetry_cell_setting           orthorhombic
_symmetry_space_group_name_H-M   'P 21 21 21'
_symmetry_Int_Tables_number      19
_space_group_name_Hall           'P 2ac 2ab'
loop_
_symmetry_equiv_pos_site_id
_symmetry_equiv_pos_as_xyz
1 x,y,z
2 1/2+x,1/2-y,-z
3 -x,1/2+y,1/2-z
4 1/2-x,-y,1/2+z
_cell_length_a                   6.112(2)
_cell_length_b                   15.534(10)
_cell_length_c                   24.468(14)
_cell_angle_alpha                90
_cell_angle_beta                 90
_cell_angle_gamma                90
_cell_volume                     2323.09
_exptl_crystal_colour            colorless
_cell_formula_units_Z            4
loop_
_atom_site_label
_atom_site_type_symbol
_atom_site_fract_x
_atom_site_fract_y
_atom_site_fract_z
Br1 Br 0.0472(3) 0.9374(1) 0.0364(1)
O1 O 0.6036(18) 0.6149(7) 0.1612(4)
O2 O 0.8520(20) 0.6436(9) 0.0960(5)
O3 O 0.9439(20) 0.6748(7) 0.2177(3)
O4 O 0.8469(22) 0.3381(8) 0.1980(5)
O5 O 1.5992(18) 0.5312(7) 0.3211(4)
C1 C 0.9343(30) 0.5986(11) 0.2150(5)
C2 C 0.7531(32) 0.5580(15) 0.1837(6)
C3 C 0.7209(29) 0.4756(14) 0.1810(7)
C4 C 0.8779(37) 0.4132(13) 0.2055(7)
C5 C 1.0659(32) 0.4486(10) 0.2342(6)
C6 C 1.2041(33) 0.3915(11) 0.2594(6)
C7 C 1.3838(31) 0.4191(10) 0.2884(6)
C8 C 1.4154(32) 0.5055(11) 0.2937(6)
C9 C 1.2784(30) 0.5686(11) 0.2702(5)
C10 C 1.0998(31) 0.5384(9) 0.2411(6)
C11 C 1.3388(22) 0.6577(9) 0.2799(6)
C12 C 1.4783(24) 0.6799(9) 0.3168(6)
C13 C 1.5910(26) 0.6133(11) 0.3526(6)
C14 C 1.4525(25) 0.5930(8) 0.4037(5)
C15 C 1.4067(25) 0.6716(9) 0.4403(5)
C16 C 1.2765(26) 0.6443(10) 0.4892(7)
C17 C 1.3534(30) 0.6179(11) 0.5361(8)
C18 C 1.2111(26) 0.5891(11) 0.5827(6)
C19 C 1.5920(28) 0.6116(10) 0.5485(6)
C20 C 1.8268(24) 0.6363(10) 0.3666(6)
C21 C 0.6814(39) 0.6589(13) 0.1166(7)
C22 C 0.5240(42) 0.7289(10) 0.1006(6)
C23 C 0.5819(27) 0.7800(11) 0.0564(6)
C24 C 0.4422(34) 0.8428(10) 0.0377(6)
C25 C 0.2417(34) 0.8548(10) 0.0641(7)
C26 C 0.1882(33) 0.8036(11) 0.1087(7)
C27 C 0.3276(38) 0.7402(13) 0.1260(7)
H1 H 0.5939 0.4635 0.1627
H2 H 1.1756 0.3309 0.2563
H3 H 1.4823 0.3786 0.3048
H4 H 1.2736 0.7004 0.2567
H5 H 1.5064 0.7400 0.3224
H6 H 1.5282 0.5506 0.4250
H7 H 1.3155 0.5685 0.3926
H8 H 1.3261 0.7139 0.4200
H9 H 1.5421 0.6970 0.4518
H10 H 1.1203 0.6462 0.4857
H11 H 1.0602 0.5940 0.5723
H12 H 1.2435 0.5302 0.5915
H13 H 1.2386 0.6247 0.6140
H14 H 1.6752 0.6307 0.5175
H15 H 1.6246 0.6475 0.5794
H16 H 1.6295 0.5531 0.5569
H17 H 1.8895 0.5912 0.3884
H18 H 1.9100 0.6429 0.3336
H19 H 1.8291 0.6892 0.3868
H20 H 0.7208 0.7719 0.0388
H21 H 0.4803 0.8779 0.0068
H22 H 0.0528 0.8124 0.1277
H23 H 0.2879 0.7032 0.1558
loop_
_geom_bond_atom_site_label_1
_geom_bond_atom_site_label_2
_geom_bond_site_symmetry_1
_geom_bond_site_symmetry_2
Br1 C25 1_555 1_555
O1 C2 1_555 1_555
O2 C21 1_555 1_555
O3 C1 1_555 1_555
O4 C4 1_555 1_555
O5 C8 1_555 1_555
C1 C2 1_555 1_555
C2 C3 1_555 1_555
C3 C4 1_555 1_555
C4 C5 1_555 1_555
C5 C6 1_555 1_555
C6 C7 1_555 1_555
C7 C8 1_555 1_555
C8 C9 1_555 1_555
C9 C10 1_555 1_555
C10 C1 1_555 1_555
C11 C9 1_555 1_555
C12 C11 1_555 1_555
C13 O5 1_555 1_555
C14 C13 1_555 1_555
C15 C14 1_555 1_555
C16 C15 1_555 1_555
C17 C16 1_555 1_555
C18 C17 1_555 1_555
C19 C17 1_555 1_555
C20 C13 1_555 1_555
C21 O1 1_555 1_555
C22 C21 1_555 1_555
C23 C22 1_555 1_555
C24 C23 1_555 1_555
C25 C24 1_555 1_555
C26 C25 1_555 1_555
C27 C22 1_555 1_555
H1 C3 1_555 1_555
H2 C6 1_555 1_555
H3 C7 1_555 1_555
H4 C11 1_555 1_555
H5 C12 1_555 1_555
H6 C14 1_555 1_555
H7 C14 1_555 1_555
H8 C15 1_555 1_555
H9 C15 1_555 1_555
H10 C16 1_555 1_555
H11 C18 1_555 1_555
H12 C18 1_555 1_555
H13 C18 1_555 1_555
H14 C19 1_555 1_555
H15 C19 1_555 1_555
H16 C19 1_555 1_555
H17 C20 1_555 1_555
H18 C20 1_555 1_555
H19 C20 1_555 1_555
H20 C23 1_555 1_555
H21 C24 1_555 1_555
H22 C26 1_555 1_555
H23 C27 1_555 1_555
C5 C10 1_555 1_555
C12 C13 1_555 1_555
C26 C27 1_555 1_555

#END
