
#######################################################################
#
#                 Cambridge Crystallographic Data Centre
#                                CCDC 
#
#######################################################################
#
# If this CIF has been generated from an entry in the Cambridge 
# Structural Database, then it will include bibliographic, chemical, 
# crystal, experimental, refinement or atomic coordinate data resulting 
# from the CCDC's data processing and validation procedures.
#
#######################################################################

data_PESDUP
_chemical_formula_moiety         'C32 H30 N2 O6'
_chemical_name_systematic        
"ethyl 4'-(2-ethoxy-2-oxoethylidene)-4,7-dimethyl-2,5'-dioxo-1,1'-diphenyl-1,2-dihydrospiro[indole-3,3'-pyrrolidine]-2'-carboxylate"
_symmetry_cell_setting           monoclinic
_symmetry_space_group_name_H-M   'P 21/c'
_symmetry_Int_Tables_number      14
_space_group_name_Hall           '-P 2ybc'
loop_
_symmetry_equiv_pos_site_id
_symmetry_equiv_pos_as_xyz
1 x,y,z
2 -x,1/2+y,1/2-z
3 -x,-y,-z
4 x,1/2-y,1/2+z
_cell_length_a                   11.8901(4)
_cell_length_b                   11.3330(3)
_cell_length_c                   20.1674(6)
_cell_angle_alpha                90
_cell_angle_beta                 92.262(2)
_cell_angle_gamma                90
_cell_volume                     2715.45
_exptl_crystal_colour            'light yellow'
_exptl_crystal_description       block
_cell_formula_units_Z            4
loop_
_atom_site_label
_atom_site_type_symbol
_atom_site_fract_x
_atom_site_fract_y
_atom_site_fract_z
O1 O 0.36060(18) 0.17634(18) 0.35052(11)
O2 O 0.3429(2) 0.36188(18) 0.38619(11)
O3 O 0.05915(19) 0.29562(18) 0.19259(11)
O4 O 0.39683(17) 0.52140(19) 0.25156(10)
O5 O 0.24580(19) 0.63933(19) 0.13722(10)
O6 O 0.23781(17) 0.76222(17) 0.22489(10)
N1 N 0.35587(18) 0.61071(18) 0.35059(10)
N2 N 0.07741(18) 0.49901(19) 0.19356(11)
C1 C 0.4780(3) 0.0342(3) 0.40328(19)
H1 H 0.4142 -0.0140 0.4126
H2 H 0.5367 0.0212 0.4366
H3 H 0.5049 0.0138 0.3605
C2 C 0.4456(3) 0.1561(3) 0.4035(2)
H4 H 0.5108 0.2055 0.3967
H5 H 0.4155 0.1764 0.4460
C3 C 0.3164(3) 0.2841(3) 0.34805(16)
C4 C 0.2306(2) 0.2938(3) 0.29404(14)
H6 H 0.2071 0.2240 0.2736
C5 C 0.1832(2) 0.3930(2) 0.27156(13)
C6 C 0.2037(2) 0.5208(2) 0.29063(12)
C7 C 0.3310(2) 0.5495(2) 0.29301(14)
C8 C 0.4715(2) 0.6366(2) 0.36974(13)
C9 C 0.5233(2) 0.7331(3) 0.34403(14)
H7 H 0.4846 0.7814 0.3137
C10 C 0.6334(3) 0.7586(3) 0.36329(17)
H8 H 0.6684 0.8247 0.3461
C11 C 0.6913(3) 0.6873(3) 0.40746(17)
H9 H 0.7655 0.7045 0.4202
C12 C 0.1001(2) 0.3861(3) 0.21505(14)
C13 C 0.1373(2) 0.5889(2) 0.23277(12)
H10 H 0.0819 0.6408 0.2525
C14 C 0.1692(2) 0.5619(2) 0.35840(13)
C15 C 0.0653(2) 0.5570(2) 0.38644(14)
C16 C -0.0370(2) 0.5019(3) 0.35246(15)
H11 H -0.0698 0.5565 0.3209
H12 H -0.0910 0.4827 0.3849
H13 H -0.0154 0.4313 0.3299
C17 C 0.0572(3) 0.6095(3) 0.44882(15)
H14 H -0.0112 0.6075 0.4697
C18 C 0.1475(3) 0.6637(2) 0.47987(14)
H15 H 0.1380 0.6969 0.5215
C19 C 0.2531(2) 0.6719(2) 0.45248(13)
C20 C 0.2607(2) 0.6178(2) 0.39097(13)
C21 C 0.6394(3) 0.5907(3) 0.43278(17)
H16 H 0.6786 0.5424 0.4630
C22 C 0.5294(3) 0.5641(3) 0.41393(15)
H17 H 0.4947 0.4978 0.4309
C23 C 0.3468(3) 0.7373(3) 0.48873(15)
H18 H 0.4028 0.6821 0.5047
H19 H 0.3172 0.7793 0.5255
H20 H 0.3801 0.7922 0.4591
C24 C 0.2136(2) 0.6635(3) 0.19097(15)
C25 C 0.3149(3) 0.8461(3) 0.19616(17)
H21 H 0.2903 0.8655 0.1510
H22 H 0.3902 0.8134 0.1956
C26 C 0.3135(3) 0.9534(3) 0.23901(19)
H23 H 0.2396 0.9876 0.2368
H24 H 0.3670 1.0097 0.2237
H25 H 0.3331 0.9318 0.2840
C27 C 0.0004(2) 0.5316(2) 0.14069(13)
C28 C -0.0502(3) 0.4491(3) 0.09937(17)
H26 H -0.0362 0.3692 0.1063
C29 C -0.1220(3) 0.4847(3) 0.04748(19)
H27 H -0.1561 0.4282 0.0200
C30 C -0.1435(3) 0.6015(4) 0.03604(17)
H28 H -0.1908 0.6243 0.0005
C31 C -0.0952(3) 0.6842(3) 0.07697(16)
H29 H -0.1104 0.7638 0.0698
C32 C -0.0234(3) 0.6500(3) 0.12941(15)
H30 H 0.0090 0.7070 0.1573
loop_
_geom_bond_atom_site_label_1
_geom_bond_atom_site_label_2
_geom_bond_site_symmetry_1
_geom_bond_site_symmetry_2
O1 C2 1_555 1_555
O2 C3 1_555 1_555
O3 C12 1_555 1_555
O4 C7 1_555 1_555
O5 C24 1_555 1_555
O6 C24 1_555 1_555
N1 C7 1_555 1_555
N2 C12 1_555 1_555
C1 H1 1_555 1_555
H2 C1 1_555 1_555
H3 C1 1_555 1_555
C2 C1 1_555 1_555
H4 C2 1_555 1_555
H5 C2 1_555 1_555
C3 O1 1_555 1_555
C4 C3 1_555 1_555
H6 C4 1_555 1_555
C5 C4 1_555 1_555
C6 C5 1_555 1_555
C7 C6 1_555 1_555
C8 N1 1_555 1_555
C9 C8 1_555 1_555
H7 C9 1_555 1_555
C10 C9 1_555 1_555
H8 C10 1_555 1_555
C11 C10 1_555 1_555
H9 C11 1_555 1_555
C12 C5 1_555 1_555
C13 N2 1_555 1_555
H10 C13 1_555 1_555
C14 C6 1_555 1_555
C15 C14 1_555 1_555
C16 C15 1_555 1_555
H11 C16 1_555 1_555
H12 C16 1_555 1_555
H13 C16 1_555 1_555
C17 C15 1_555 1_555
H14 C17 1_555 1_555
C18 C17 1_555 1_555
H15 C18 1_555 1_555
C19 C18 1_555 1_555
C20 N1 1_555 1_555
C21 C11 1_555 1_555
H16 C21 1_555 1_555
C22 C8 1_555 1_555
H17 C22 1_555 1_555
C23 C19 1_555 1_555
H18 C23 1_555 1_555
H19 C23 1_555 1_555
H20 C23 1_555 1_555
C24 C13 1_555 1_555
C25 O6 1_555 1_555
H21 C25 1_555 1_555
H22 C25 1_555 1_555
C26 C25 1_555 1_555
H23 C26 1_555 1_555
H24 C26 1_555 1_555
H25 C26 1_555 1_555
C27 N2 1_555 1_555
C28 C27 1_555 1_555
H26 C28 1_555 1_555
C29 C28 1_555 1_555
H27 C29 1_555 1_555
C30 C29 1_555 1_555
H28 C30 1_555 1_555
C31 C30 1_555 1_555
H29 C31 1_555 1_555
C32 C27 1_555 1_555
H30 C32 1_555 1_555
C6 C13 1_555 1_555
C14 C20 1_555 1_555
C19 C20 1_555 1_555
C21 C22 1_555 1_555
C31 C32 1_555 1_555

#END
