
#######################################################################
#
#                 Cambridge Crystallographic Data Centre
#                                CCDC 
#
#######################################################################
#
# If this CIF has been generated from an entry in the Cambridge 
# Structural Database, then it will include bibliographic, chemical, 
# crystal, experimental, refinement or atomic coordinate data resulting 
# from the CCDC's data processing and validation procedures.
#
#######################################################################

data_PESMEF10
_chemical_formula_moiety         'C28 H38 Li1 N5'
_chemical_name_systematic        
(bis(2-(Dimethylamino)ethyl)amine)-(N.N'-diphenylbenzamidine)-lithium
_symmetry_cell_setting           monoclinic
_symmetry_space_group_name_H-M   'P 21/c'
_symmetry_Int_Tables_number      14
_space_group_name_Hall           '-P 2ybc'
loop_
_symmetry_equiv_pos_site_id
_symmetry_equiv_pos_as_xyz
1 x,y,z
2 -x,1/2+y,1/2-z
3 -x,-y,-z
4 x,1/2-y,1/2+z
_cell_length_a                   11.873(2)
_cell_length_b                   18.103(4)
_cell_length_c                   12.774(3)
_cell_angle_alpha                90
_cell_angle_beta                 90.08(3)
_cell_angle_gamma                90
_cell_volume                     2745.6
_exptl_crystal_colour            'pale yellow'
_chemical_melting_point          151-153deg.C
_cell_formula_units_Z            4
_chemical_properties_physical    Air-sensitive
loop_
_atom_site_label
_atom_site_type_symbol
_atom_site_fract_x
_atom_site_fract_y
_atom_site_fract_z
Li1 Li 0.2221(4) 0.5397(3) 0.2632(4)
C1 C 0.3666(5) 0.4248(2) 0.3735(4)
C2 C 0.2920(4) 0.5202(2) 0.4819(3)
N1 N 0.2678(3) 0.4703(2) 0.3942(2)
C3 C -0.0338(4) 0.5018(3) 0.2960(6)
C4 C 0.0565(3) 0.4451(2) 0.1474(4)
N2 N 0.0702(3) 0.4667(2) 0.2592(3)
C5 C 0.1633(4) 0.4409(2) 0.0889(3)
C6 C 0.3492(3) 0.4892(2) 0.0693(3)
C7 C 0.1945(3) 0.5692(2) 0.0433(3)
N3 N 0.2330(2) 0.5057(1) 0.1032(2)
C8 C 0.1674(5) 0.4251(3) 0.4167(4)
C9 C 0.1052(5) 0.4037(3) 0.3204(4)
C10 C 0.3198(3) 0.7496(2) 0.3026(2)
C11 C 0.4045(3) 0.7698(2) 0.3721(2)
C12 C 0.4392(3) 0.8425(2) 0.3802(3)
C13 C 0.3913(3) 0.8962(2) 0.3169(3)
C14 C 0.3083(3) 0.8768(2) 0.2483(3)
C15 C 0.2706(3) 0.8042(2) 0.2412(3)
N4 N 0.1794(2) 0.6483(1) 0.2973(2)
C16 C 0.1008(3) 0.6887(2) 0.3554(2)
C17 C 0.1236(3) 0.7184(2) 0.4544(2)
C18 C 0.0416(3) 0.7529(2) 0.5124(3)
C19 C -0.0675(3) 0.7585(2) 0.4739(3)
C20 C -0.0920(3) 0.7299(2) 0.3762(3)
C21 C -0.0094(3) 0.6960(2) 0.3182(3)
N5 N 0.3622(2) 0.6181(1) 0.2658(2)
C22 C 0.4715(3) 0.6363(2) 0.2343(2)
C23 C 0.5616(3) 0.5986(2) 0.2797(3)
C24 C 0.6713(3) 0.6121(2) 0.2508(3)
C25 C 0.6956(3) 0.6634(2) 0.1743(3)
C26 C 0.6083(3) 0.7001(2) 0.1265(3)
C27 C 0.4977(3) 0.6873(2) 0.1551(3)
C28 C 0.2865(2) 0.6701(2) 0.2894(2)
H1 H 0.3855(15) 0.3962(12) 0.4362(8)
H2 H 0.4303(8) 0.4566(3) 0.3549(22)
H3 H 0.3505(9) 0.3910(11) 0.3154(15)
H4 H 0.3069(23) 0.4912(2) 0.5452(6)
H5 H 0.2270(10) 0.5525(10) 0.4939(14)
H6 H 0.3582(14) 0.5503(11) 0.4653(9)
H7 H -0.0943(7) 0.4651(5) 0.2983(22)
H8 H -0.0548(13) 0.5418(11) 0.2480(12)
H9 H -0.0217(8) 0.5221(14) 0.3662(10)
H10 H 0.0189(3) 0.3963(2) 0.1444(4)
H11 H 0.0064(3) 0.4813(2) 0.1126(4)
H12 H 0.2057(4) 0.3968(2) 0.1121(3)
H13 H 0.1465(4) 0.4350(2) 0.0134(3)
H14 H 0.3491(5) 0.4760(15) -0.0051(6)
H15 H 0.3789(9) 0.4478(10) 0.1104(15)
H16 H 0.3967(6) 0.5328(5) 0.0802(20)
H17 H 0.1957(22) 0.5572(6) -0.0315(3)
H18 H 0.2444(14) 0.6113(5) 0.0567(17)
H19 H 0.1176(9) 0.5818(9) 0.0643(15)
H20 H 0.1164(5) 0.4533(3) 0.4631(4)
H21 H 0.1907(5) 0.3799(3) 0.4545(4)
H22 H 0.1539(5) 0.3717(3) 0.2770(4)
H23 H 0.0378(5) 0.3747(3) 0.3403(4)
H24 H 0.4391(3) 0.7332(2) 0.4147(2)
H25 H 0.4960(3) 0.8557(2) 0.4292(3)
H26 H 0.4159(3) 0.9460(2) 0.3213(3)
H27 H 0.2758(3) 0.9135(2) 0.2046(3)
H28 H 0.2112(3) 0.7920(2) 0.1944(3)
H29 H 0.1976(3) 0.7147(2) 0.4822(2)
H30 H 0.0596(3) 0.7730(2) 0.5791(3)
H31 H -0.1245(3) 0.7818(2) 0.5142(3)
H32 H -0.1664(3) 0.7336(2) 0.3491(3)
H33 H -0.0277(3) 0.6771(2) 0.2509(3)
H34 H 0.5469(3) 0.5626(2) 0.3320(3)
H35 H 0.7308(3) 0.5859(2) 0.2838(3)
H36 H 0.7714(3) 0.6732(2) 0.1550(3)
H37 H 0.6241(3) 0.7349(2) 0.0728(3)
H38 H 0.4387(3) 0.7133(2) 0.1209(3)
loop_
_geom_bond_atom_site_label_1
_geom_bond_atom_site_label_2
_geom_bond_site_symmetry_1
_geom_bond_site_symmetry_2
Li1 N1 1_555 1_555
C1 N1 1_555 1_555
C2 N1 1_555 1_555
N1 C8 1_555 1_555
C3 N2 1_555 1_555
C4 N2 1_555 1_555
N2 Li1 1_555 1_555
C5 C4 1_555 1_555
C6 N3 1_555 1_555
C7 N3 1_555 1_555
N3 Li1 1_555 1_555
C8 C9 1_555 1_555
C9 N2 1_555 1_555
C10 C11 1_555 1_555
C11 C12 1_555 1_555
C12 C13 1_555 1_555
C13 C14 1_555 1_555
C14 C15 1_555 1_555
C15 C10 1_555 1_555
N4 Li1 1_555 1_555
C16 N4 1_555 1_555
C17 C16 1_555 1_555
C18 C17 1_555 1_555
C19 C18 1_555 1_555
C20 C19 1_555 1_555
C21 C16 1_555 1_555
N5 Li1 1_555 1_555
C22 N5 1_555 1_555
C23 C22 1_555 1_555
C24 C23 1_555 1_555
C25 C24 1_555 1_555
C26 C25 1_555 1_555
C27 C22 1_555 1_555
C28 C10 1_555 1_555
H1 C1 1_555 1_555
H2 C1 1_555 1_555
H3 C1 1_555 1_555
H4 C2 1_555 1_555
H5 C2 1_555 1_555
H6 C2 1_555 1_555
H7 C3 1_555 1_555
H8 C3 1_555 1_555
H9 C3 1_555 1_555
H10 C4 1_555 1_555
H11 C4 1_555 1_555
H12 C5 1_555 1_555
H13 C5 1_555 1_555
H14 C6 1_555 1_555
H15 C6 1_555 1_555
H16 C6 1_555 1_555
H17 C7 1_555 1_555
H18 C7 1_555 1_555
H19 C7 1_555 1_555
H20 C8 1_555 1_555
H21 C8 1_555 1_555
H22 C9 1_555 1_555
H23 C9 1_555 1_555
H24 C11 1_555 1_555
H25 C12 1_555 1_555
H26 C13 1_555 1_555
H27 C14 1_555 1_555
H28 C15 1_555 1_555
H29 C17 1_555 1_555
H30 C18 1_555 1_555
H31 C19 1_555 1_555
H32 C20 1_555 1_555
H33 C21 1_555 1_555
H34 C23 1_555 1_555
H35 C24 1_555 1_555
H36 C25 1_555 1_555
H37 C26 1_555 1_555
H38 C27 1_555 1_555
C5 N3 1_555 1_555
N4 C28 1_555 1_555
C20 C21 1_555 1_555
N5 C28 1_555 1_555
C26 C27 1_555 1_555

#END
