
#######################################################################
#
#                 Cambridge Crystallographic Data Centre
#                                CCDC 
#
#######################################################################
#
# If this CIF has been generated from an entry in the Cambridge 
# Structural Database, then it will include bibliographic, chemical, 
# crystal, experimental, refinement or atomic coordinate data resulting 
# from the CCDC's data processing and validation procedures.
#
#######################################################################

data_PESNUZ
_chemical_formula_moiety         'C42 H36 N2 O2 S1'
_chemical_name_systematic        
10,10'-[sulfonylbis(3,1-phenylene)]bis(9,9-dimethyl-9,10-dihydroacridine)
_symmetry_cell_setting           monoclinic
_symmetry_space_group_name_H-M   'P 21/n'
_symmetry_Int_Tables_number      14
_space_group_name_Hall           '-P 2yn'
loop_
_symmetry_equiv_pos_site_id
_symmetry_equiv_pos_as_xyz
1 x,y,z
2 1/2-x,1/2+y,1/2-z
3 -x,-y,-z
4 1/2+x,1/2-y,1/2+z
_cell_length_a                   11.8166(4)
_cell_length_b                   13.7769(5)
_cell_length_c                   20.1278(8)
_cell_angle_alpha                90
_cell_angle_beta                 94.096(3)
_cell_angle_gamma                90
_cell_volume                     3268.36
_exptl_crystal_colour            colorless
_exptl_crystal_description       block
_cell_formula_units_Z            4
loop_
_atom_site_label
_atom_site_type_symbol
_atom_site_fract_x
_atom_site_fract_y
_atom_site_fract_z
S1 S 0.30269(4) 0.25880(4) 0.18454(2)
O1 O 0.37696(12) 0.17723(10) 0.19705(7)
O2 O 0.18173(11) 0.24535(11) 0.18262(7)
N1 N 0.60263(14) 0.45440(13) 0.32508(8)
N2 N 0.23615(15) 0.50841(13) -0.00725(8)
C1 C 0.63991(18) 0.43360(15) 0.39180(10)
C2 C 0.5644(2) 0.39678(18) 0.43593(11)
H1 H 0.4893 0.3848 0.4212
C3 C 0.6011(2) 0.3784(2) 0.50086(12)
H2 H 0.5506 0.3542 0.5302
C4 C 0.7121(2) 0.3956(2) 0.52283(12)
H3 H 0.7364 0.3840 0.5671
C5 C 0.7871(2) 0.42994(19) 0.47927(11)
H4 H 0.8621 0.4409 0.4947
C6 C 0.75434(18) 0.44877(16) 0.41272(10)
C7 C 0.83864(18) 0.47651(16) 0.36241(10)
C8 C 0.77924(18) 0.53700(15) 0.30699(10)
C9 C 0.8372(2) 0.60248(17) 0.26928(11)
H5 H 0.9133 0.6148 0.2811
C10 C 0.7854(2) 0.64958(18) 0.21503(12)
H6 H 0.8261 0.6935 0.1910
C11 C 0.6727(2) 0.63129(17) 0.19656(11)
H7 H 0.6377 0.6620 0.1594
C12 C 0.6119(2) 0.56762(16) 0.23295(10)
H8 H 0.5357 0.5562 0.2207
C13 C 0.66426(18) 0.52020(15) 0.28807(9)
C14 C 0.8812(2) 0.38265(19) 0.33106(12)
H9 H 0.8180 0.3479 0.3099
H10 H 0.9184 0.3428 0.3652
H11 H 0.9338 0.3986 0.2985
C15 C 0.9416(2) 0.5290(2) 0.39654(13)
H12 H 0.9930 0.5469 0.3638
H13 H 0.9796 0.4867 0.4288
H14 H 0.9167 0.5863 0.4184
C16 C 0.48496(18) 0.43967(16) 0.30488(10)
C17 C 0.4030(2) 0.50280(18) 0.32436(11)
H15 H 0.4244 0.5556 0.3512
C18 C 0.2898(2) 0.48887(18) 0.30464(11)
H16 H 0.2352 0.5311 0.3190
C19 C 0.25821(18) 0.41175(16) 0.26346(10)
H17 H 0.1823 0.4016 0.2497
C20 C 0.34082(16) 0.35011(15) 0.24304(9)
C21 C 0.45466(17) 0.36251(15) 0.26378(9)
H18 H 0.5092 0.3196 0.2502
C22 C 0.33735(16) 0.31227(15) 0.10862(9)
C23 C 0.43342(17) 0.28127(17) 0.07965(10)
H19 H 0.4779 0.2319 0.0992
C24 C 0.46266(19) 0.32428(18) 0.02149(11)
H20 H 0.5264 0.3033 0.0010
C25 C 0.39660(18) 0.39896(17) -0.00634(10)
H21 H 0.4169 0.4284 -0.0453
C26 C 0.30082(17) 0.43033(16) 0.02315(9)
C27 C 0.26952(16) 0.38614(15) 0.08083(9)
H22 H 0.2044 0.4055 0.1005
C28 C 0.14332(16) 0.48769(16) -0.05359(9)
C29 C 0.09222(18) 0.39708(17) -0.05594(10)
H23 H 0.1201 0.3480 -0.0276
C30 C -0.00040(18) 0.37950(17) -0.10048(10)
H24 H -0.0349 0.3188 -0.1019
C31 C -0.04128(18) 0.45200(18) -0.14268(10)
H25 H -0.1035 0.4405 -0.1726
C32 C 0.01049(17) 0.54201(17) -0.14046(10)
H26 H -0.0180 0.5906 -0.1691
C33 C 0.10409(16) 0.56200(16) -0.09659(9)
C34 C 0.17044(17) 0.65660(16) -0.09716(9)
C35 C 0.21336(17) 0.68029(16) -0.02542(10)
C36 C 0.22386(19) 0.77390(18) -0.00059(11)
H27 H 0.1963 0.8253 -0.0270
C37 C 0.2742(2) 0.79325(19) 0.06247(12)
H28 H 0.2804 0.8567 0.0780
C38 C 0.3152(2) 0.71719(19) 0.10186(11)
H29 H 0.3502 0.7297 0.1438
C39 C 0.30455(18) 0.62295(17) 0.07948(10)
H30 H 0.3319 0.5720 0.1064
C40 C 0.25231(17) 0.60411(16) 0.01598(9)
C41 C 0.27557(18) 0.63984(18) -0.13755(10)
H31 H 0.3229 0.5907 -0.1162
H32 H 0.3176 0.6992 -0.1397
H33 H 0.2512 0.6192 -0.1818
C42 C 0.1011(2) 0.73898(17) -0.13030(11)
H34 H 0.0804 0.7224 -0.1759
H35 H 0.1455 0.7974 -0.1287
H36 H 0.0338 0.7490 -0.1072
loop_
_geom_bond_atom_site_label_1
_geom_bond_atom_site_label_2
_geom_bond_site_symmetry_1
_geom_bond_site_symmetry_2
S1 O1 1_555 1_555
O2 S1 1_555 1_555
N1 C1 1_555 1_555
N2 C26 1_555 1_555
C1 C2 1_555 1_555
C2 H1 1_555 1_555
C3 C2 1_555 1_555
H2 C3 1_555 1_555
C4 C3 1_555 1_555
H3 C4 1_555 1_555
C5 C4 1_555 1_555
H4 C5 1_555 1_555
C6 C1 1_555 1_555
C7 C6 1_555 1_555
C8 C7 1_555 1_555
C9 C8 1_555 1_555
H5 C9 1_555 1_555
C10 C9 1_555 1_555
H6 C10 1_555 1_555
C11 C10 1_555 1_555
H7 C11 1_555 1_555
C12 C11 1_555 1_555
H8 C12 1_555 1_555
C13 N1 1_555 1_555
C14 C7 1_555 1_555
H9 C14 1_555 1_555
H10 C14 1_555 1_555
H11 C14 1_555 1_555
C15 C7 1_555 1_555
H12 C15 1_555 1_555
H13 C15 1_555 1_555
H14 C15 1_555 1_555
C16 N1 1_555 1_555
C17 C16 1_555 1_555
H15 C17 1_555 1_555
C18 C17 1_555 1_555
H16 C18 1_555 1_555
C19 C18 1_555 1_555
H17 C19 1_555 1_555
C20 S1 1_555 1_555
C21 C16 1_555 1_555
H18 C21 1_555 1_555
C22 S1 1_555 1_555
C23 C22 1_555 1_555
H19 C23 1_555 1_555
C24 C23 1_555 1_555
H20 C24 1_555 1_555
C25 C24 1_555 1_555
H21 C25 1_555 1_555
C26 C25 1_555 1_555
C27 C22 1_555 1_555
H22 C27 1_555 1_555
C28 N2 1_555 1_555
C29 C28 1_555 1_555
H23 C29 1_555 1_555
C30 C29 1_555 1_555
H24 C30 1_555 1_555
C31 C30 1_555 1_555
H25 C31 1_555 1_555
C32 C31 1_555 1_555
H26 C32 1_555 1_555
C33 C28 1_555 1_555
C34 C33 1_555 1_555
C35 C34 1_555 1_555
C36 C35 1_555 1_555
H27 C36 1_555 1_555
C37 C36 1_555 1_555
H28 C37 1_555 1_555
C38 C37 1_555 1_555
H29 C38 1_555 1_555
C39 C38 1_555 1_555
H30 C39 1_555 1_555
C40 N2 1_555 1_555
C41 C34 1_555 1_555
H31 C41 1_555 1_555
H32 C41 1_555 1_555
H33 C41 1_555 1_555
C42 C34 1_555 1_555
H34 C42 1_555 1_555
H35 C42 1_555 1_555
H36 C42 1_555 1_555
C5 C6 1_555 1_555
C8 C13 1_555 1_555
C12 C13 1_555 1_555
C19 C20 1_555 1_555
C20 C21 1_555 1_555
C26 C27 1_555 1_555
C32 C33 1_555 1_555
C35 C40 1_555 1_555
C39 C40 1_555 1_555

#END
