
#######################################################################
#
#                 Cambridge Crystallographic Data Centre
#                                CCDC 
#
#######################################################################
#
# If this CIF has been generated from an entry in the Cambridge 
# Structural Database, then it will include bibliographic, chemical, 
# crystal, experimental, refinement or atomic coordinate data resulting 
# from the CCDC's data processing and validation procedures.
#
#######################################################################

data_PESPEK
_chemical_formula_moiety         'C30 H44 S4 Si4'
_chemical_name_systematic        
(Ethene-1,1,2,2-tetrayltetrathiene-5,2-diyl)tetrakis(trimethylsilane)
_symmetry_cell_setting           monoclinic
_symmetry_space_group_name_H-M   'P 21/n'
_symmetry_Int_Tables_number      14
_space_group_name_Hall           '-P 2yn'
loop_
_symmetry_equiv_pos_site_id
_symmetry_equiv_pos_as_xyz
1 x,y,z
2 1/2-x,1/2+y,1/2-z
3 -x,-y,-z
4 1/2+x,1/2-y,1/2+z
_cell_length_a                   10.779(6)
_cell_length_b                   6.217(4)
_cell_length_c                   27.444(16)
_cell_angle_alpha                90
_cell_angle_beta                 93.000(6)
_cell_angle_gamma                90
_cell_volume                     1836.59
_exptl_crystal_colour            colorless
_exptl_crystal_description       block
_cell_formula_units_Z            2
loop_
_atom_site_label
_atom_site_type_symbol
_atom_site_fract_x
_atom_site_fract_y
_atom_site_fract_z
S1 S 0.26872(13) 1.1172(4) 1.02821(5)
S2 S -0.01307(16) 0.8411(4) 0.89562(5)
Si1 Si 0.50380(14) 1.1443(4) 1.09979(6)
Si2 Si 0.01164(16) 0.5347(4) 0.80519(6)
C1 C 0.0437(5) 0.6089(13) 0.8706(2)
C2 C 0.1586(5) 0.9189(14) 1.02980(18)
C3 C 0.0512(5) 0.7882(15) 0.95342(18)
C4 C 0.0465(5) 0.9304(13) 0.99558(18)
C5 C 0.3075(5) 0.8202(15) 1.0887(2)
H1 H 0.3427 0.7327 1.1132
C6 C 0.3618(5) 1.0061(14) 1.07426(19)
C7 C 0.1934(5) 0.7714(14) 1.0634(2)
H2 H 0.1470 0.6491 1.0695
C8 C -0.1330(7) 0.3768(19) 0.7995(3)
H3 H -0.1497 0.3373 0.7660
H4 H -0.2006 0.4616 0.8104
H5 H -0.1241 0.2493 0.8191
C9 C 0.1124(6) 0.5979(15) 0.9518(2)
H6 H 0.1546 0.5386 0.9790
C10 C 0.1074(6) 0.4966(16) 0.9057(2)
H7 H 0.1445 0.3645 0.9000
C11 C 0.5519(7) 1.3453(18) 1.0549(3)
H8 H 0.5683 1.2744 1.0248
H9 H 0.6258 1.4170 1.0674
H10 H 0.4867 1.4488 1.0492
C12 C 0.4642(9) 1.281(2) 1.1572(3)
H11 H 0.3944 1.3740 1.1508
H12 H 0.5341 1.3633 1.1696
H13 H 0.4437 1.1745 1.1809
C13 C 0.1457(7) 0.376(2) 0.7867(3)
H14 H 0.1514 0.2456 0.8056
H15 H 0.2204 0.4580 0.7923
H16 H 0.1349 0.3404 0.7527
C14 C 0.6275(7) 0.9432(16) 1.1135(3)
H17 H 0.5962 0.8317 1.1337
H18 H 0.6971 1.0119 1.1303
H19 H 0.6533 0.8817 1.0836
C15 C -0.0063(12) 0.7793(19) 0.7669(3)
H20 H 0.0671 0.8662 0.7710
H21 H -0.0769 0.8601 0.7766
H22 H -0.0186 0.7385 0.7333
S1B S -0.26872(13) 0.8828(4) 0.97179(5)
S2B S 0.01307(16) 1.1589(4) 1.10438(5)
Si1B Si -0.50380(14) 0.8557(4) 0.90021(6)
Si2B Si -0.01164(16) 1.4653(4) 1.19481(6)
C1B C -0.0437(5) 1.3911(13) 1.1294(2)
C2B C -0.1586(5) 1.0811(14) 0.97020(18)
C3B C -0.0512(5) 1.2118(15) 1.04658(18)
C4B C -0.0465(5) 1.0696(13) 1.00442(18)
C5B C -0.3075(5) 1.1798(15) 0.9113(2)
H1B H -0.3427 1.2673 0.8868
C6B C -0.3618(5) 0.9939(14) 0.92574(19)
C7B C -0.1934(5) 1.2286(14) 0.9366(2)
H2B H -0.1470 1.3509 0.9305
C8B C 0.1330(7) 1.6232(19) 1.2005(3)
H3B H 0.1497 1.6627 1.2340
H4B H 0.2006 1.5384 1.1896
H5B H 0.1241 1.7507 1.1809
C9B C -0.1124(6) 1.4021(15) 1.0482(2)
H6B H -0.1546 1.4614 1.0210
C10B C -0.1074(6) 1.5034(16) 1.0943(2)
H7B H -0.1445 1.6355 1.1000
C11B C -0.5519(7) 0.6547(18) 0.9451(3)
H8B H -0.5683 0.7256 0.9752
H9B H -0.6258 0.5830 0.9326
H10B H -0.4867 0.5512 0.9508
C12B C -0.4642(9) 0.719(2) 0.8428(3)
H11B H -0.3944 0.6260 0.8492
H12B H -0.5341 0.6367 0.8304
H13B H -0.4437 0.8255 0.8191
C13B C -0.1457(7) 1.624(2) 1.2133(3)
H14B H -0.1514 1.7544 1.1944
H15B H -0.2204 1.5420 1.2077
H16B H -0.1349 1.6596 1.2473
C14B C -0.6275(7) 1.0568(16) 0.8865(3)
H17B H -0.5962 1.1683 0.8663
H18B H -0.6971 0.9881 0.8697
H19B H -0.6533 1.1183 0.9164
C15B C 0.0063(12) 1.2207(19) 1.2331(3)
H20B H -0.0671 1.1338 1.2290
H21B H 0.0769 1.1399 1.2234
H22B H 0.0186 1.2615 1.2667
loop_
_geom_bond_atom_site_label_1
_geom_bond_atom_site_label_2
_geom_bond_site_symmetry_1
_geom_bond_site_symmetry_2
S1 C2 1_555 1_555
S2 C1 1_555 1_555
Si1 C6 1_555 1_555
Si2 C1 1_555 1_555
C1 C10 1_555 1_555
C2 C4 1_555 1_555
C3 S2 1_555 1_555
C4 C3 1_555 1_555
C5 H1 1_555 1_555
C6 S1 1_555 1_555
C7 C2 1_555 1_555
H2 C7 1_555 1_555
C8 Si2 1_555 1_555
H3 C8 1_555 1_555
H4 C8 1_555 1_555
H5 C8 1_555 1_555
C9 C3 1_555 1_555
H6 C9 1_555 1_555
C10 C9 1_555 1_555
H7 C10 1_555 1_555
C11 Si1 1_555 1_555
H8 C11 1_555 1_555
H9 C11 1_555 1_555
H10 C11 1_555 1_555
C12 Si1 1_555 1_555
H11 C12 1_555 1_555
H12 C12 1_555 1_555
H13 C12 1_555 1_555
C13 Si2 1_555 1_555
H14 C13 1_555 1_555
H15 C13 1_555 1_555
H16 C13 1_555 1_555
C14 Si1 1_555 1_555
H17 C14 1_555 1_555
H18 C14 1_555 1_555
H19 C14 1_555 1_555
C15 Si2 1_555 1_555
H20 C15 1_555 1_555
H21 C15 1_555 1_555
H22 C15 1_555 1_555
S1B C2B 1_555 1_555
S2B C1B 1_555 1_555
Si1B C6B 1_555 1_555
Si2B C1B 1_555 1_555
C1B C10B 1_555 1_555
C2B C4B 1_555 1_555
C3B S2B 1_555 1_555
C4B C4 1_555 1_555
C5B H1B 1_555 1_555
C6B S1B 1_555 1_555
C7B C2B 1_555 1_555
H2B C7B 1_555 1_555
C8B Si2B 1_555 1_555
H3B C8B 1_555 1_555
H4B C8B 1_555 1_555
H5B C8B 1_555 1_555
C9B C3B 1_555 1_555
H6B C9B 1_555 1_555
C10B C9B 1_555 1_555
H7B C10B 1_555 1_555
C11B Si1B 1_555 1_555
H8B C11B 1_555 1_555
H9B C11B 1_555 1_555
H10B C11B 1_555 1_555
C12B Si1B 1_555 1_555
H11B C12B 1_555 1_555
H12B C12B 1_555 1_555
H13B C12B 1_555 1_555
C13B Si2B 1_555 1_555
H14B C13B 1_555 1_555
H15B C13B 1_555 1_555
H16B C13B 1_555 1_555
C14B Si1B 1_555 1_555
H17B C14B 1_555 1_555
H18B C14B 1_555 1_555
H19B C14B 1_555 1_555
C15B Si2B 1_555 1_555
H20B C15B 1_555 1_555
H21B C15B 1_555 1_555
H22B C15B 1_555 1_555
C5 C6 1_555 1_555
C5 C7 1_555 1_555
C3B C4B 1_555 1_555
C5B C6B 1_555 1_555
C5B C7B 1_555 1_555

#END
