
#######################################################################
#
#                 Cambridge Crystallographic Data Centre
#                                CCDC 
#
#######################################################################
#
# If this CIF has been generated from an entry in the Cambridge 
# Structural Database, then it will include bibliographic, chemical, 
# crystal, experimental, refinement or atomic coordinate data resulting 
# from the CCDC's data processing and validation procedures.
#
#######################################################################

data_PESPAH
_chemical_formula_moiety         'C21 H26 Br1 N1 O2'
_chemical_name_systematic        
5-bromo-3-butyl-3-(cyclohexylethynyl)-2-methoxy-2,3-dihydro-1H-isoindol-1-one
_symmetry_cell_setting           monoclinic
_symmetry_space_group_name_H-M   'P 21'
_symmetry_Int_Tables_number      4
_space_group_name_Hall           'P 2yb'
loop_
_symmetry_equiv_pos_site_id
_symmetry_equiv_pos_as_xyz
1 x,y,z
2 -x,1/2+y,-z
_cell_length_a                   11.0685(3)
_cell_length_b                   7.1301(2)
_cell_length_c                   13.4202(4)
_cell_angle_alpha                90
_cell_angle_beta                 107.989(3)
_cell_angle_gamma                90
_cell_volume                     1007.34
_exptl_crystal_colour            colorless
_exptl_crystal_description       strip
_cell_formula_units_Z            2
loop_
_atom_site_label
_atom_site_type_symbol
_atom_site_fract_x
_atom_site_fract_y
_atom_site_fract_z
Br1 Br -0.22520(4) 0.32297(10) 0.52521(4)
C1 C -0.1111(5) 0.5196(8) 0.5891(4)
C2 C -0.1297(5) 0.6933(8) 0.5410(4)
H1 H -0.1965 0.7128 0.4798
C3 C -0.0464(4) 0.8387(11) 0.5860(3)
H2 H -0.0567 0.9575 0.5560
C4 C 0.0522(4) 0.8013(10) 0.6767(3)
C5 C 0.0685(4) 0.6242(7) 0.7222(4)
C6 C -0.0123(5) 0.4787(7) 0.6799(4)
H3 H -0.0016 0.3599 0.7100
C7 C 0.1544(5) 0.9281(8) 0.7366(4)
C8 C 0.1863(5) 0.6227(8) 0.8192(4)
C9 C 0.3307(7) 0.9979(10) 0.9675(5)
H4 H 0.2749 1.1010 0.9393
H5 H 0.4135 1.0449 1.0052
H6 H 0.2978 0.9268 1.0141
C10 C 0.1538(5) 0.5645(7) 0.9137(4)
C11 C 0.1279(5) 0.5096(8) 0.9887(4)
C12 C 0.0958(5) 0.4490(8) 1.0822(4)
H7 H 0.0052 0.4178 1.0611
C13 C 0.1716(6) 0.2745(8) 1.1319(4)
H8 H 0.1389 0.2270 1.1863
H9 H 0.1602 0.1777 1.0790
C14 C 0.3127(5) 0.3165(15) 1.1792(4)
H10 H 0.3481 0.3496 1.1238
H11 H 0.3563 0.2053 1.2140
C15 C 0.3342(7) 0.4771(12) 1.2576(5)
H12 H 0.3079 0.4381 1.3170
H13 H 0.4240 0.5066 1.2830
C16 C 0.2608(7) 0.6506(11) 1.2092(5)
H14 H 0.2937 0.6980 1.1550
H15 H 0.2727 0.7470 1.2624
C17 C 0.1202(6) 0.6095(9) 1.1623(4)
H16 H 0.0770 0.7215 1.1283
H17 H 0.0852 0.5762 1.2179
C18 C 0.2936(5) 0.4987(8) 0.8053(4)
H18 H 0.3677 0.5132 0.8665
H19 H 0.2671 0.3686 0.8025
C19 C 0.3315(5) 0.5415(8) 0.7084(4)
H20 H 0.3668 0.6670 0.7142
H21 H 0.2565 0.5384 0.6474
C20 C 0.4288(5) 0.4024(9) 0.6931(4)
H22 H 0.5046 0.4078 0.7534
H23 H 0.3943 0.2766 0.6892
C21 C 0.4647(6) 0.4414(11) 0.5947(5)
H24 H 0.3902 0.4343 0.5346
H25 H 0.5256 0.3500 0.5883
H26 H 0.5010 0.5645 0.5990
N1 N 0.2188(3) 0.8236(9) 0.8233(3)
O1 O 0.1773(4) 1.0868(6) 0.7171(3)
O2 O 0.3397(4) 0.8789(5) 0.8832(3)
loop_
_geom_bond_atom_site_label_1
_geom_bond_atom_site_label_2
_geom_bond_site_symmetry_1
_geom_bond_site_symmetry_2
Br1 C1 1_555 1_555
C1 C2 1_555 1_555
C2 H1 1_555 1_555
C3 C2 1_555 1_555
H2 C3 1_555 1_555
C4 C3 1_555 1_555
C5 C4 1_555 1_555
C6 C1 1_555 1_555
H3 C6 1_555 1_555
C7 C4 1_555 1_555
C8 C5 1_555 1_555
C9 H4 1_555 1_555
H5 C9 1_555 1_555
H6 C9 1_555 1_555
C10 C8 1_555 1_555
C11 C10 1_555 1_555
C12 C11 1_555 1_555
H7 C12 1_555 1_555
C13 C12 1_555 1_555
H8 C13 1_555 1_555
H9 C13 1_555 1_555
C14 C13 1_555 1_555
H10 C14 1_555 1_555
H11 C14 1_555 1_555
C15 C14 1_555 1_555
H12 C15 1_555 1_555
H13 C15 1_555 1_555
C16 C15 1_555 1_555
H14 C16 1_555 1_555
H15 C16 1_555 1_555
C17 C12 1_555 1_555
H16 C17 1_555 1_555
H17 C17 1_555 1_555
C18 C8 1_555 1_555
H18 C18 1_555 1_555
H19 C18 1_555 1_555
C19 C18 1_555 1_555
H20 C19 1_555 1_555
H21 C19 1_555 1_555
C20 C19 1_555 1_555
H22 C20 1_555 1_555
H23 C20 1_555 1_555
C21 C20 1_555 1_555
H24 C21 1_555 1_555
H25 C21 1_555 1_555
H26 C21 1_555 1_555
N1 C7 1_555 1_555
O1 C7 1_555 1_555
O2 C9 1_555 1_555
C5 C6 1_555 1_555
C8 N1 1_555 1_555
C16 C17 1_555 1_555
N1 O2 1_555 1_555

#END
