
#######################################################################
#
#                 Cambridge Crystallographic Data Centre
#                                CCDC 
#
#######################################################################
#
# If this CIF has been generated from an entry in the Cambridge 
# Structural Database, then it will include bibliographic, chemical, 
# crystal, experimental, refinement or atomic coordinate data resulting 
# from the CCDC's data processing and validation procedures.
#
#######################################################################

data_PESSIQ02
_chemical_formula_moiety         'C14 H16 N2 O2 S1'
_chemical_name_systematic        
'Ethyl 6-methyl-4-phenyl-2-thioxo-1,2,3,4-tetrahydropyrimidine-5-carboxylate'
_symmetry_cell_setting           triclinic
_symmetry_space_group_name_H-M   'P -1'
_symmetry_Int_Tables_number      2
_space_group_name_Hall           '-P 1'
loop_
_symmetry_equiv_pos_site_id
_symmetry_equiv_pos_as_xyz
1 x,y,z
2 -x,-y,-z
_cell_length_a                   7.379(2)
_cell_length_b                   9.505(3)
_cell_length_c                   11.068(3)
_cell_angle_alpha                69.794(4)
_cell_angle_beta                 89.860(4)
_cell_angle_gamma                69.931(4)
_cell_volume                     678.312
_exptl_crystal_colour            colorless
_exptl_crystal_description       block
_cell_formula_units_Z            2
loop_
_atom_site_label
_atom_site_type_symbol
_atom_site_fract_x
_atom_site_fract_y
_atom_site_fract_z
C1 C 0.5987(3) 1.0716(3) 0.7108(2)
H1 H 0.5559 1.0783 0.7885
C2 C 0.5089(4) 1.1953(3) 0.5958(3)
H2 H 0.4062 1.2856 0.5959
C3 C 0.5706(4) 1.1862(3) 0.4795(3)
H3 H 0.5095 1.2703 0.4015
C4 C 0.7211(4) 1.0539(3) 0.4797(2)
H4 H 0.7620 1.0474 0.4016
C5 C 0.8136(4) 0.9290(3) 0.5956(2)
H5 H 0.9170 0.8396 0.5948
C6 C 0.7534(3) 0.9359(3) 0.7126(2)
C7 C 0.8528(3) 0.8013(3) 0.8425(2)
H6 H 0.7516 0.7833 0.8966
C8 C 0.9732(3) 0.6434(3) 0.8290(2)
C9 C 0.8566(3) 0.5543(3) 0.8064(2)
C10 C 0.8430(4) 0.3615(3) 0.7171(3)
H7 H 0.7140 0.4311 0.6710
H8 H 0.8297 0.2831 0.7971
C11 C 0.9600(5) 0.2795(4) 0.6364(4)
H9 H 0.9718 0.3583 0.5577
H10 H 0.8974 0.2158 0.6157
H11 H 1.0871 0.2111 0.6832
C12 C 1.1661(3) 0.6013(3) 0.8306(2)
C13 C 1.3087(3) 0.4569(3) 0.8128(3)
H12 H 1.2605 0.3704 0.8403
H13 H 1.4311 0.4247 0.8639
H14 H 1.3263 0.4826 0.7229
C14 C 1.1666(3) 0.8160(3) 0.9020(2)
N1 N 0.9784(3) 0.8492(2) 0.90942(19)
H15 H 0.9260 0.9030 0.9571
N2 N 1.2549(3) 0.6991(2) 0.85420(18)
H16 H 1.3724 0.6845 0.8375
O1 O 0.6946(2) 0.5723(2) 0.83556(18)
O2 O 0.9445(2) 0.4558(2) 0.74538(19)
S1 S 1.29671(9) 0.90535(8) 0.95158(7)
loop_
_geom_bond_atom_site_label_1
_geom_bond_atom_site_label_2
_geom_bond_site_symmetry_1
_geom_bond_site_symmetry_2
C1 H1 1_555 1_555
C2 C1 1_555 1_555
H2 C2 1_555 1_555
C3 C2 1_555 1_555
H3 C3 1_555 1_555
C4 C3 1_555 1_555
H4 C4 1_555 1_555
C5 C4 1_555 1_555
H5 C5 1_555 1_555
C6 C1 1_555 1_555
C7 C6 1_555 1_555
H6 C7 1_555 1_555
C8 C7 1_555 1_555
C9 C8 1_555 1_555
C10 H7 1_555 1_555
H8 C10 1_555 1_555
C11 C10 1_555 1_555
H9 C11 1_555 1_555
H10 C11 1_555 1_555
H11 C11 1_555 1_555
C12 C8 1_555 1_555
C13 C12 1_555 1_555
H12 C13 1_555 1_555
H13 C13 1_555 1_555
H14 C13 1_555 1_555
C14 N1 1_555 1_555
N1 C7 1_555 1_555
H15 N1 1_555 1_555
N2 C12 1_555 1_555
H16 N2 1_555 1_555
O1 C9 1_555 1_555
O2 C9 1_555 1_555
S1 C14 1_555 1_555
C5 C6 1_555 1_555
C10 O2 1_555 1_555
C14 N2 1_555 1_555

#END
