
#######################################################################
#
#                 Cambridge Crystallographic Data Centre
#                                CCDC 
#
#######################################################################
#
# If this CIF has been generated from an entry in the Cambridge 
# Structural Database, then it will include bibliographic, chemical, 
# crystal, experimental, refinement or atomic coordinate data resulting 
# from the CCDC's data processing and validation procedures.
#
#######################################################################

data_PESSIQ
_chemical_formula_moiety         'C14 H16 N2 O2 S1'
_chemical_name_systematic        
'Ethyl 6-methyl-4-phenyl-2-thioxo-1,2,3,4-tetrahydropyrimidine-5-carboxylate'
_chemical_properties_biological  'potential pharmacological activity'
_symmetry_cell_setting           triclinic
_symmetry_space_group_name_H-M   'P -1'
_symmetry_Int_Tables_number      2
_space_group_name_Hall           '-P 1'
loop_
_symmetry_equiv_pos_site_id
_symmetry_equiv_pos_as_xyz
1 x,y,z
2 -x,-y,-z
_cell_length_a                   7.3730(15)
_cell_length_b                   9.5000(19)
_cell_length_c                   11.059(2)
_cell_angle_alpha                69.78(3)
_cell_angle_beta                 89.91(3)
_cell_angle_gamma                69.89(3)
_cell_volume                     676.488
_exptl_crystal_colour            yellow
_exptl_crystal_description       block
_cell_formula_units_Z            2
_exptl_crystal_recrystallization_method ethanol/acetone
loop_
_atom_site_label
_atom_site_type_symbol
_atom_site_fract_x
_atom_site_fract_y
_atom_site_fract_z
S1 S 0.20336(15) 0.09428(14) 0.54877(11)
O1 O 0.8056(4) 0.4283(4) 0.6638(3)
O2 O 0.5557(4) 0.5441(4) 0.7550(3)
N1 N 0.5210(4) 0.1505(4) 0.5904(3)
H1 H 0.5734 0.0962 0.5429
N2 N 0.2451(5) 0.3010(4) 0.6457(3)
H2 H 0.1278 0.3152 0.6630
C1 C 0.5400(8) 0.7199(7) 0.8642(6)
H3 H 0.6026 0.7829 0.8862
H4 H 0.5274 0.6405 0.9423
H5 H 0.4130 0.7891 0.8170
C2 C 0.6576(7) 0.6391(6) 0.7830(5)
H6 H 0.6699 0.7180 0.7030
H7 H 0.7871 0.5697 0.8290
C3 C 0.6437(6) 0.4460(5) 0.6939(4)
C4 C 0.5269(5) 0.3567(5) 0.6711(4)
C5 C 0.3328(5) 0.3996(5) 0.6688(4)
C6 C 0.1911(6) 0.5436(5) 0.6875(5)
H8 H 0.2592 0.6069 0.7029
H9 H 0.1254 0.5094 0.7608
H10 H 0.0973 0.6072 0.6109
C7 C 0.3322(6) 0.1845(5) 0.5980(3)
C8 C 0.6473(5) 0.1992(5) 0.6575(4)
H11 H 0.7484 0.2174 0.6032
C9 C 0.7469(5) 0.0645(5) 0.7871(4)
C10 C 0.6885(6) 0.0700(5) 0.9052(4)
H12 H 0.5853 0.1596 0.9062
C11 C 0.7795(7) -0.0537(5) 1.0205(4)
H13 H 0.7385 -0.0472 1.0986
C12 C 0.9304(7) -0.1866(6) 1.0204(4)
H14 H 0.9923 -0.2706 1.0984
C13 C 0.9907(6) -0.1961(6) 0.9044(5)
H15 H 1.0925 -0.2871 0.9042
C14 C 0.9011(6) -0.0719(5) 0.7895(4)
H16 H 0.9440 -0.0788 0.7118
loop_
_geom_bond_atom_site_label_1
_geom_bond_atom_site_label_2
_geom_bond_site_symmetry_1
_geom_bond_site_symmetry_2
S1 C7 1_555 1_555
O1 C3 1_555 1_555
O2 C2 1_555 1_555
N1 H1 1_555 1_555
N2 H2 1_555 1_555
C1 H3 1_555 1_555
H4 C1 1_555 1_555
H5 C1 1_555 1_555
C2 C1 1_555 1_555
H6 C2 1_555 1_555
H7 C2 1_555 1_555
C3 O2 1_555 1_555
C4 C3 1_555 1_555
C5 N2 1_555 1_555
C6 C5 1_555 1_555
H8 C6 1_555 1_555
H9 C6 1_555 1_555
H10 C6 1_555 1_555
C7 N1 1_555 1_555
C8 N1 1_555 1_555
H11 C8 1_555 1_555
C9 C8 1_555 1_555
C10 C9 1_555 1_555
H12 C10 1_555 1_555
C11 C10 1_555 1_555
H13 C11 1_555 1_555
C12 C11 1_555 1_555
H14 C12 1_555 1_555
C13 C12 1_555 1_555
H15 C13 1_555 1_555
C14 C9 1_555 1_555
H16 C14 1_555 1_555
N2 C7 1_555 1_555
C4 C5 1_555 1_555
C4 C8 1_555 1_555
C13 C14 1_555 1_555

#END
