
#######################################################################
#
#                 Cambridge Crystallographic Data Centre
#                                CCDC 
#
#######################################################################
#
# If this CIF has been generated from an entry in the Cambridge 
# Structural Database, then it will include bibliographic, chemical, 
# crystal, experimental, refinement or atomic coordinate data resulting 
# from the CCDC's data processing and validation procedures.
#
#######################################################################

data_PESTAJ
_chemical_formula_moiety         'C4 H7 N2 1+,H4 B5 O10 1-'
_chemical_name_systematic        
'2-Methylimidazolium tetrahydroxyhexaoxopentaborate'
_symmetry_cell_setting           monoclinic
_symmetry_space_group_name_H-M   'P 21/c'
_symmetry_Int_Tables_number      14
_space_group_name_Hall           '-P 2ybc'
loop_
_symmetry_equiv_pos_site_id
_symmetry_equiv_pos_as_xyz
1 x,y,z
2 -x,1/2+y,1/2-z
3 -x,-y,-z
4 x,1/2-y,1/2+z
_cell_length_a                   8.4513(16)
_cell_length_b                   11.458(2)
_cell_length_c                   14.026(3)
_cell_angle_alpha                90
_cell_angle_beta                 90.682(4)
_cell_angle_gamma                90
_cell_volume                     1358.11
_exptl_crystal_colour            colorless
_exptl_crystal_description       block
_cell_formula_units_Z            4
loop_
_atom_site_label
_atom_site_type_symbol
_atom_site_fract_x
_atom_site_fract_y
_atom_site_fract_z
O1 O 0.44188(16) -0.06890(12) 0.25202(10)
O2 O 0.47233(16) 0.13956(12) 0.23470(10)
O3 O 0.61630(19) 0.03610(12) 0.35396(11)
O4 O 0.6078(2) -0.16586(13) 0.36318(13)
H1 H 0.5769 -0.2227 0.3327
O5 O 0.6518(2) 0.23582(13) 0.33873(13)
H2 H 0.6235 0.2915 0.3060
O6 O 0.21499(16) 0.05309(13) 0.22935(10)
O7 O 0.39844(16) 0.02207(12) 0.10148(10)
O8 O 0.12344(18) 0.01392(19) 0.07322(11)
O9 O -0.05589(18) 0.05788(18) 0.19528(11)
H3 H -0.1167 0.0485 0.1499
O10 O 0.29385(19) -0.02364(19) -0.05142(11)
H4 H 0.3886 -0.0293 -0.0625
B1 B 0.3787(3) 0.0372(2) 0.20454(17)
B2 B 0.5533(3) -0.0669(2) 0.32113(18)
B3 B 0.5781(3) 0.1379(2) 0.30746(18)
B4 B 0.0953(3) 0.0425(2) 0.16624(18)
B5 B 0.2740(3) 0.0040(2) 0.04178(18)
N1 N -0.1140(3) 0.1843(2) 0.4730(2)
H5 H -0.1776 0.2051 0.4296
N2 N 0.0958(3) 0.1575(2) 0.55155(17)
H6 H 0.1937 0.1620 0.5774
C1 C 0.0372(3) 0.1985(2) 0.47304(19)
C2 C -0.1553(5) 0.1301(4) 0.5578(3)
H7 H -0.2568 0.1099 0.5765
C3 C -0.0250(5) 0.1130(4) 0.6057(3)
H8 H -0.0151 0.0775 0.6651
C4 C 0.1276(5) 0.2502(3) 0.3953(2)
H9 H 0.0901 0.2197 0.3354
H10 H 0.2377 0.2315 0.4035
H11 H 0.1145 0.3334 0.3959
loop_
_geom_bond_atom_site_label_1
_geom_bond_atom_site_label_2
_geom_bond_site_symmetry_1
_geom_bond_site_symmetry_2
O1 B1 1_555 1_555
O2 B1 1_555 1_555
O3 B2 1_555 1_555
O4 H1 1_555 1_555
O5 H2 1_555 1_555
O6 B1 1_555 1_555
O7 B1 1_555 1_555
O8 B4 1_555 1_555
O9 H3 1_555 1_555
O10 H4 1_555 1_555
B2 O1 1_555 1_555
B3 O2 1_555 1_555
B4 O6 1_555 1_555
B5 O7 1_555 1_555
N1 H5 1_555 1_555
N2 H6 1_555 1_555
C1 N1 1_555 1_555
C2 N1 1_555 1_555
H7 C2 1_555 1_555
C3 N2 1_555 1_555
H8 C3 1_555 1_555
C4 C1 1_555 1_555
H9 C4 1_555 1_555
H10 C4 1_555 1_555
H11 C4 1_555 1_555
O3 B3 1_555 1_555
O4 B2 1_555 1_555
O5 B3 1_555 1_555
O8 B5 1_555 1_555
O9 B4 1_555 1_555
O10 B5 1_555 1_555
N2 C1 1_555 1_555
C2 C3 1_555 1_555

#END
