
#######################################################################
#
#                 Cambridge Crystallographic Data Centre
#                                CCDC 
#
#######################################################################
#
# If this CIF has been generated from an entry in the Cambridge 
# Structural Database, then it will include bibliographic, chemical, 
# crystal, experimental, refinement or atomic coordinate data resulting 
# from the CCDC's data processing and validation procedures.
#
#######################################################################

data_PESWAN
_chemical_formula_moiety         'C18 H15 N1 O5'
_chemical_name_systematic        7-Methoxy-8-((4-nitrobenzyl)oxy)-2-naphthol
_symmetry_cell_setting           monoclinic
_symmetry_space_group_name_H-M   'P 21/c'
_symmetry_Int_Tables_number      14
_space_group_name_Hall           '-P 2ybc'
loop_
_symmetry_equiv_pos_site_id
_symmetry_equiv_pos_as_xyz
1 x,y,z
2 -x,1/2+y,1/2-z
3 -x,-y,-z
4 x,1/2-y,1/2+z
_cell_length_a                   8.6976(7)
_cell_length_b                   22.816(2)
_cell_length_c                   7.4313(6)
_cell_angle_alpha                90
_cell_angle_beta                 93.851(3)
_cell_angle_gamma                90
_cell_volume                     1471.37
_exptl_crystal_colour            colorless
_exptl_crystal_description       tabular
_cell_formula_units_Z            4
loop_
_atom_site_label
_atom_site_type_symbol
_atom_site_fract_x
_atom_site_fract_y
_atom_site_fract_z
C1 C 0.51425(18) 0.35290(7) 0.3883(2)
C2 C 0.66795(18) 0.35677(7) 0.4423(2)
H1 H 0.7390 0.3714 0.3616
C3 C 0.72081(18) 0.33886(6) 0.6190(2)
C4 C 0.87864(17) 0.34099(7) 0.6810(2)
C5 C 1.06858(18) 0.41161(7) 0.6203(2)
H2 H 1.1516 0.4002 0.7111
H3 H 0.9995 0.4394 0.6776
C6 C 1.13737(17) 0.44072(7) 0.4630(2)
C7 C 1.26144(18) 0.47856(7) 0.4993(2)
H4 H 1.3024 0.4835 0.6201
C8 C 1.32583(18) 0.50907(7) 0.3621(2)
H5 H 1.4099 0.5351 0.3871
C9 C 1.26430(17) 0.50062(7) 0.1874(2)
C10 C 0.40629(18) 0.33092(7) 0.5062(2)
H6 H 0.3004 0.3282 0.4666
C11 C 0.45466(18) 0.31371(7) 0.6765(2)
H7 H 0.3815 0.2993 0.7550
C12 C 0.61259(18) 0.31691(7) 0.7385(2)
C13 C 0.66512(19) 0.29866(7) 0.9132(2)
H8 H 0.5927 0.2848 0.9935
C14 C 0.81819(19) 0.30047(7) 0.9697(2)
H9 H 0.8511 0.2880 1.0881
C15 C 0.92735(18) 0.32095(7) 0.8514(2)
C16 C 1.13727(19) 0.29226(8) 1.0584(2)
H10 H 1.0935 0.3109 1.1622
H11 H 1.2500 0.2946 1.0722
H12 H 1.1055 0.2511 1.0519
C17 C 1.14266(18) 0.46267(7) 0.1453(2)
H13 H 1.1038 0.4572 0.0239
C18 C 1.07921(17) 0.43288(7) 0.2854(2)
H14 H 0.9953 0.4069 0.2598
N1 N 1.32888(16) 0.53424(6) 0.04285(18)
O1 O 0.45266(13) 0.36928(5) 0.22181(15)
H15 H 0.5224 0.3831 0.1614
O2 O 0.98299(12) 0.36050(5) 0.56040(14)
O3 O 1.08289(13) 0.32183(5) 0.89611(15)
O4 O 1.45292(14) 0.55951(5) 0.07513(16)
O5 O 1.25545(15) 0.53693(6) -0.10441(16)
loop_
_geom_bond_atom_site_label_1
_geom_bond_atom_site_label_2
_geom_bond_site_symmetry_1
_geom_bond_site_symmetry_2
C1 C2 1_555 1_555
C2 H1 1_555 1_555
C3 C2 1_555 1_555
C4 C3 1_555 1_555
C5 H2 1_555 1_555
H3 C5 1_555 1_555
C6 C5 1_555 1_555
C7 C6 1_555 1_555
H4 C7 1_555 1_555
C8 C7 1_555 1_555
H5 C8 1_555 1_555
C9 C8 1_555 1_555
C10 C1 1_555 1_555
H6 C10 1_555 1_555
C11 C10 1_555 1_555
H7 C11 1_555 1_555
C12 C3 1_555 1_555
C13 C12 1_555 1_555
H8 C13 1_555 1_555
C14 C13 1_555 1_555
H9 C14 1_555 1_555
C15 C4 1_555 1_555
C16 H10 1_555 1_555
H11 C16 1_555 1_555
H12 C16 1_555 1_555
C17 C9 1_555 1_555
H13 C17 1_555 1_555
C18 C6 1_555 1_555
H14 C18 1_555 1_555
N1 C9 1_555 1_555
O1 C1 1_555 1_555
H15 O1 1_555 1_555
O2 C4 1_555 1_555
O3 C15 1_555 1_555
O4 N1 1_555 1_555
O5 N1 1_555 1_555
C5 O2 1_555 1_555
C11 C12 1_555 1_555
C14 C15 1_555 1_555
C16 O3 1_555 1_555
C17 C18 1_555 1_555

#END
