
#######################################################################
#
#                 Cambridge Crystallographic Data Centre
#                                CCDC 
#
#######################################################################
#
# If this CIF has been generated from an entry in the Cambridge 
# Structural Database, then it will include bibliographic, chemical, 
# crystal, experimental, refinement or atomic coordinate data resulting 
# from the CCDC's data processing and validation procedures.
#
#######################################################################

data_PESXUJ
_chemical_formula_moiety         'C74 H68 N2'
_chemical_name_systematic        
N^9^,N^9^,N^10^,N^10^-tetrakis[4-(2-phenylpropan-2-yl)phenyl]anthracene-9,10-diamine
_symmetry_cell_setting           triclinic
_symmetry_space_group_name_H-M   'P -1'
_symmetry_Int_Tables_number      2
_space_group_name_Hall           '-P 1'
loop_
_symmetry_equiv_pos_site_id
_symmetry_equiv_pos_as_xyz
1 x,y,z
2 -x,-y,-z
_cell_length_a                   6.7069(13)
_cell_length_b                   14.160(3)
_cell_length_c                   15.576(3)
_cell_angle_alpha                101.74(3)
_cell_angle_beta                 98.42(3)
_cell_angle_gamma                100.97(3)
_cell_volume                     1395.21
_exptl_crystal_colour            yellow
_exptl_crystal_description       block
_cell_formula_units_Z            1
loop_
_atom_site_label
_atom_site_type_symbol
_atom_site_fract_x
_atom_site_fract_y
_atom_site_fract_z
N1 N 0.0534(2) 0.94614(10) 0.66610(9)
C1 C 0.0269(3) 0.97247(11) 0.58199(10)
C2 C -0.1675(2) 0.94062(11) 0.52461(10)
C3 C -0.3385(3) 0.87901(12) 0.54575(13)
H1 H -0.3237 0.8605 0.6013
C4 C -0.5222(3) 0.84645(14) 0.48744(15)
H2 H -0.6339 0.8043 0.5020
C5 C -0.5490(3) 0.87472(14) 0.40527(15)
H3 H -0.6791 0.8520 0.3655
C6 C -0.3921(3) 0.93358(13) 0.38261(12)
H4 H -0.4132 0.9519 0.3272
C7 C -0.1945(2) 0.96868(11) 0.44097(10)
C8 C -0.0007(3) 1.00424(12) 0.74011(10)
C9 C 0.0109(3) 1.10494(12) 0.74771(11)
H5 H 0.0605 1.1354 0.7036
C10 C -0.0490(3) 1.16128(13) 0.81899(12)
H6 H -0.0382 1.2299 0.8228
C11 C -0.1244(3) 1.12051(13) 0.88496(11)
C12 C -0.1339(3) 1.02011(13) 0.87713(11)
H7 H -0.1838 0.9898 0.9213
C13 C -0.0725(3) 0.96263(12) 0.80661(11)
H8 H -0.0796 0.8944 0.8038
C14 C -0.1798(3) 1.18571(14) 0.96511(12)
C15 C 0.0211(5) 1.2286(2) 1.03545(15)
H9 H 0.0838 1.1745 1.0479
H10 H -0.0105 1.2648 1.0906
H11 H 0.1180 1.2738 1.0126
C16 C -0.3396(5) 1.12616(19) 1.00648(17)
H12 H -0.4610 1.0908 0.9601
H13 H -0.3816 1.1713 1.0534
H14 H -0.2783 1.0783 1.0324
C17 C -0.2748(3) 1.26783(13) 0.93663(12)
C18 C -0.4389(3) 1.24332(16) 0.86444(14)
H15 H -0.4871 1.1762 0.8320
C19 C -0.5336(4) 1.3143(2) 0.83875(17)
H16 H -0.6447 1.2955 0.7888
C20 C -0.4689(4) 1.41134(19) 0.88455(18)
H17 H -0.5348 1.4599 0.8668
C21 C -0.3080(4) 1.43777(16) 0.95637(18)
H18 H -0.2623 1.5050 0.9886
C22 C -0.2108(3) 1.36644(14) 0.98237(14)
H19 H -0.0991 1.3858 1.0322
C23 C 0.1434(3) 0.86433(11) 0.67394(10)
C24 C 0.3039(3) 0.87185(12) 0.74380(11)
H20 H 0.3521 0.9320 0.7885
C25 C 0.3952(3) 0.79255(13) 0.74931(12)
H21 H 0.5052 0.7996 0.7978
C26 C 0.3299(3) 0.70344(12) 0.68587(11)
C27 C 0.1674(3) 0.69615(12) 0.61643(11)
H22 H 0.1185 0.6357 0.5722
C28 C 0.0751(3) 0.77468(12) 0.61005(11)
H23 H -0.0356 0.7674 0.5618
C29 C 0.4308(3) 0.61470(13) 0.68802(13)
C30 C 0.5993(3) 0.63437(15) 0.77098(17)
H24 H 0.7082 0.6917 0.7717
H25 H 0.6587 0.5761 0.7698
H26 H 0.5393 0.6479 0.8246
C31 C 0.5231(13) 0.5939(5) 0.6020(5)
H27 H 0.4119 0.5775 0.5493
H28 H 0.5904 0.5382 0.6018
H29 H 0.6251 0.6530 0.6007
C32 C 0.2648(3) 0.52435(13) 0.68853(12)
C33 C 0.1448(7) 0.5375(3) 0.7576(3)
H30 H 0.1733 0.5999 0.7990
C34 C -0.0110(5) 0.4619(3) 0.7653(3)
H31 H -0.0879 0.4730 0.8115
C35 C -0.0553(6) 0.3693(3) 0.7052(3)
H32 H -0.1636 0.3176 0.7096
C36 C 0.0595(9) 0.3539(3) 0.6395(3)
H33 H 0.0334 0.2907 0.5993
C37 C 0.2147(8) 0.4313(3) 0.6321(3)
H34 H 0.2901 0.4191 0.5855
N1A N -0.0534(2) 1.05386(10) 0.33390(9)
C1A C -0.0269(3) 1.02753(11) 0.41801(10)
C2A C 0.1675(2) 1.05938(11) 0.47539(10)
C3A C 0.3385(3) 1.12099(12) 0.45425(13)
H1A H 0.3237 1.1395 0.3987
C4A C 0.5222(3) 1.15355(14) 0.51256(15)
H2A H 0.6339 1.1957 0.4980
C5A C 0.5490(3) 1.12528(14) 0.59473(15)
H3A H 0.6791 1.1480 0.6345
C6A C 0.3921(3) 1.06642(13) 0.61739(12)
H4A H 0.4132 1.0481 0.6728
C7A C 0.1945(2) 1.03132(11) 0.55903(10)
C8A C 0.0007(3) 0.99576(12) 0.25989(10)
C9A C -0.0109(3) 0.89506(12) 0.25229(11)
H5A H -0.0605 0.8646 0.2964
C10A C 0.0490(3) 0.83872(13) 0.18101(12)
H6A H 0.0382 0.7701 0.1772
C11A C 0.1244(3) 0.87949(13) 0.11504(11)
C12A C 0.1339(3) 0.97989(13) 0.12287(11)
H7A H 0.1838 1.0102 0.0787
C13A C 0.0725(3) 1.03737(12) 0.19339(11)
H8A H 0.0796 1.1056 0.1962
C14A C 0.1798(3) 0.81429(14) 0.03489(12)
C15A C -0.0211(5) 0.7714(2) -0.03545(15)
H9A H -0.0838 0.8255 -0.0479
H10A H 0.0105 0.7352 -0.0906
H11A H -0.1180 0.7262 -0.0126
C16A C 0.3396(5) 0.87384(19) -0.00648(17)
H12A H 0.4610 0.9092 0.0399
H13A H 0.3816 0.8287 -0.0534
H14A H 0.2783 0.9217 -0.0324
C17A C 0.2748(3) 0.73217(13) 0.06337(12)
C18A C 0.4389(3) 0.75668(16) 0.13556(14)
H15A H 0.4871 0.8238 0.1680
C19A C 0.5336(4) 0.6857(2) 0.16125(17)
H16A H 0.6447 0.7045 0.2112
C20A C 0.4689(4) 0.58866(19) 0.11545(18)
H17A H 0.5348 0.5401 0.1332
C21A C 0.3080(4) 0.56223(16) 0.04363(18)
H18A H 0.2623 0.4950 0.0114
C22A C 0.2108(3) 0.63356(14) 0.01763(14)
H19A H 0.0991 0.6142 -0.0322
C23A C -0.1434(3) 1.13567(11) 0.32606(10)
C24A C -0.3039(3) 1.12815(12) 0.25620(11)
H20A H -0.3521 1.0680 0.2115
C25A C -0.3952(3) 1.20745(13) 0.25069(12)
H21A H -0.5052 1.2004 0.2022
C26A C -0.3299(3) 1.29656(12) 0.31413(11)
C27A C -0.1674(3) 1.30385(12) 0.38357(11)
H22A H -0.1185 1.3643 0.4278
C28A C -0.0751(3) 1.22532(12) 0.38995(11)
H23A H 0.0356 1.2326 0.4382
C29A C -0.4308(3) 1.38530(13) 0.31198(13)
C30A C -0.5993(3) 1.36563(15) 0.22902(17)
H24A H -0.7082 1.3083 0.2283
H25A H -0.6587 1.4239 0.2302
H26A H -0.5393 1.3521 0.1754
C31A C -0.5231(13) 1.4061(5) 0.3980(5)
H27A H -0.4119 1.4225 0.4507
H28A H -0.5904 1.4618 0.3982
H29A H -0.6251 1.3470 0.3993
C32A C -0.2648(3) 1.47565(13) 0.31147(12)
C33A C -0.1448(7) 1.4625(3) 0.2424(3)
H30A H -0.1733 1.4001 0.2010
C34A C 0.0110(5) 1.5381(3) 0.2347(3)
H31A H 0.0879 1.5270 0.1885
C35A C 0.0553(6) 1.6307(3) 0.2948(3)
H32A H 0.1636 1.6824 0.2904
C36A C -0.0595(9) 1.6461(3) 0.3605(3)
H33A H -0.0334 1.7093 0.4007
C37A C -0.2147(8) 1.5687(3) 0.3679(3)
H34A H -0.2901 1.5809 0.4145
C38? C 0.1084(18) 0.5234(10) 0.7268(9)
H35? H 0.0828 0.5841 0.7568
C39? C -0.0245(17) 0.4343(9) 0.7251(9)
H36? H -0.1338 0.4323 0.7577
C40? C 0.0084(19) 0.3494(8) 0.6745(9)
H37? H -0.0880 0.2888 0.6689
C41? C 0.174(2) 0.3471(7) 0.6313(6)
H38? H 0.1930 0.2862 0.5985
C42? C 0.3124(19) 0.4355(7) 0.6368(7)
H39? H 0.4297 0.4383 0.6090
C43? C 0.592(5) 0.621(2) 0.629(2)
H40? H 0.5237 0.6145 0.5674
H41? H 0.6648 0.5675 0.6312
H42? H 0.6915 0.6850 0.6506
loop_
_geom_bond_atom_site_label_1
_geom_bond_atom_site_label_2
_geom_bond_site_symmetry_1
_geom_bond_site_symmetry_2
N1 C1 1_555 1_555
C1 C2 1_555 1_555
C2 C3 1_555 1_555
C3 H1 1_555 1_555
C4 C3 1_555 1_555
H2 C4 1_555 1_555
C5 C4 1_555 1_555
H3 C5 1_555 1_555
C6 C5 1_555 1_555
H4 C6 1_555 1_555
C7 C2 1_555 1_555
C8 N1 1_555 1_555
C9 C8 1_555 1_555
H5 C9 1_555 1_555
C10 C9 1_555 1_555
H6 C10 1_555 1_555
C11 C10 1_555 1_555
C12 C11 1_555 1_555
H7 C12 1_555 1_555
C13 C8 1_555 1_555
H8 C13 1_555 1_555
C14 C11 1_555 1_555
C15 C14 1_555 1_555
H9 C15 1_555 1_555
H10 C15 1_555 1_555
H11 C15 1_555 1_555
C16 C14 1_555 1_555
H12 C16 1_555 1_555
H13 C16 1_555 1_555
H14 C16 1_555 1_555
C17 C14 1_555 1_555
C18 C17 1_555 1_555
H15 C18 1_555 1_555
C19 C18 1_555 1_555
H16 C19 1_555 1_555
C20 C19 1_555 1_555
H17 C20 1_555 1_555
C21 C20 1_555 1_555
H18 C21 1_555 1_555
C22 C17 1_555 1_555
H19 C22 1_555 1_555
C23 N1 1_555 1_555
C24 C23 1_555 1_555
H20 C24 1_555 1_555
C25 C24 1_555 1_555
H21 C25 1_555 1_555
C26 C25 1_555 1_555
C27 C26 1_555 1_555
H22 C27 1_555 1_555
C28 C23 1_555 1_555
H23 C28 1_555 1_555
C29 C26 1_555 1_555
C30 C29 1_555 1_555
H24 C30 1_555 1_555
H25 C30 1_555 1_555
H26 C30 1_555 1_555
C31 C29 1_555 1_555
H27 C31 1_555 1_555
H28 C31 1_555 1_555
H29 C31 1_555 1_555
C32 C29 1_555 1_555
C33 C32 1_555 1_555
H30 C33 1_555 1_555
C34 C33 1_555 1_555
H31 C34 1_555 1_555
C35 C34 1_555 1_555
H32 C35 1_555 1_555
C36 C35 1_555 1_555
H33 C36 1_555 1_555
C37 C32 1_555 1_555
H34 C37 1_555 1_555
N1A C1A 1_555 1_555
C1A C7 1_555 1_555
C2A C1A 1_555 1_555
C3A C2A 1_555 1_555
H1A C3A 1_555 1_555
C4A C3A 1_555 1_555
H2A C4A 1_555 1_555
C5A C4A 1_555 1_555
H3A C5A 1_555 1_555
C6A C5A 1_555 1_555
H4A C6A 1_555 1_555
C7A C1 1_555 1_555
C8A N1A 1_555 1_555
C9A C8A 1_555 1_555
H5A C9A 1_555 1_555
C10A C9A 1_555 1_555
H6A C10A 1_555 1_555
C11A C10A 1_555 1_555
C12A C11A 1_555 1_555
H7A C12A 1_555 1_555
C13A C8A 1_555 1_555
H8A C13A 1_555 1_555
C14A C11A 1_555 1_555
C15A C14A 1_555 1_555
H9A C15A 1_555 1_555
H10A C15A 1_555 1_555
H11A C15A 1_555 1_555
C16A C14A 1_555 1_555
H12A C16A 1_555 1_555
H13A C16A 1_555 1_555
H14A C16A 1_555 1_555
C17A C14A 1_555 1_555
C18A C17A 1_555 1_555
H15A C18A 1_555 1_555
C19A C18A 1_555 1_555
H16A C19A 1_555 1_555
C20A C19A 1_555 1_555
H17A C20A 1_555 1_555
C21A C20A 1_555 1_555
H18A C21A 1_555 1_555
C22A C17A 1_555 1_555
H19A C22A 1_555 1_555
C23A N1A 1_555 1_555
C24A C23A 1_555 1_555
H20A C24A 1_555 1_555
C25A C24A 1_555 1_555
H21A C25A 1_555 1_555
C26A C25A 1_555 1_555
C27A C26A 1_555 1_555
H22A C27A 1_555 1_555
C28A C23A 1_555 1_555
H23A C28A 1_555 1_555
C29A C26A 1_555 1_555
C30A C29A 1_555 1_555
H24A C30A 1_555 1_555
H25A C30A 1_555 1_555
H26A C30A 1_555 1_555
C31A C29A 1_555 1_555
H27A C31A 1_555 1_555
H28A C31A 1_555 1_555
H29A C31A 1_555 1_555
C32A C29A 1_555 1_555
C33A C32A 1_555 1_555
H30A C33A 1_555 1_555
C34A C33A 1_555 1_555
H31A C34A 1_555 1_555
C35A C34A 1_555 1_555
H32A C35A 1_555 1_555
C36A C35A 1_555 1_555
H33A C36A 1_555 1_555
C37A C32A 1_555 1_555
H34A C37A 1_555 1_555
C6 C7 1_555 1_555
C12 C13 1_555 1_555
C21 C22 1_555 1_555
C27 C28 1_555 1_555
C36 C37 1_555 1_555
C2A C7A 1_555 1_555
C6A C7A 1_555 1_555
C12A C13A 1_555 1_555
C21A C22A 1_555 1_555
C27A C28A 1_555 1_555
C36A C37A 1_555 1_555

#END
