
#######################################################################
#
#                 Cambridge Crystallographic Data Centre
#                                CCDC 
#
#######################################################################
#
# If this CIF has been generated from an entry in the Cambridge 
# Structural Database, then it will include bibliographic, chemical, 
# crystal, experimental, refinement or atomic coordinate data resulting 
# from the CCDC's data processing and validation procedures.
#
#######################################################################

data_PESXET
_chemical_formula_moiety         'C38 H28 N2'
_chemical_name_systematic        
N^9^,N^9^,N^10^,N^10^-tetraphenylanthracene-9,10-diamine
_symmetry_cell_setting           triclinic
_symmetry_space_group_name_H-M   'P -1'
_symmetry_Int_Tables_number      2
_space_group_name_Hall           '-P 1'
loop_
_symmetry_equiv_pos_site_id
_symmetry_equiv_pos_as_xyz
1 x,y,z
2 -x,-y,-z
_cell_length_a                   8.8181(18)
_cell_length_b                   11.679(2)
_cell_length_c                   12.913(3)
_cell_angle_alpha                87.58(3)
_cell_angle_beta                 89.28(3)
_cell_angle_gamma                89.54(3)
_cell_volume                     1328.54
_exptl_crystal_colour            yellow
_exptl_crystal_description       block
_cell_formula_units_Z            2
loop_
_atom_site_label
_atom_site_type_symbol
_atom_site_fract_x
_atom_site_fract_y
_atom_site_fract_z
N1 N 0.83777(19) 0.17456(14) 0.10328(13)
C1 C 0.9160(2) 0.27810(17) 0.12090(15)
C2 C 1.0681(2) 0.27422(18) 0.14907(17)
H1 H 1.1193 0.2025 0.1561
C3 C 1.1450(3) 0.37442(19) 0.16690(18)
H2 H 1.2486 0.3709 0.1863
C4 C 1.0716(3) 0.47979(19) 0.15652(18)
H3 H 1.1241 0.5483 0.1695
C5 C 0.9207(3) 0.48403(18) 0.12699(17)
H4 H 0.8700 0.5559 0.1196
C6 C 0.8439(3) 0.38489(18) 0.10836(16)
H5 H 0.7413 0.3890 0.0868
C7 C 0.6912(2) 0.15139(17) 0.14375(15)
C8 C 0.6105(2) 0.05952(18) 0.10814(16)
H6 H 0.6531 0.0146 0.0553
C9 C 0.4680(2) 0.0328(2) 0.14911(17)
H7 H 0.4148 -0.0309 0.1246
C10 C 0.4028(2) 0.0976(2) 0.22504(17)
H8 H 0.3048 0.0797 0.2522
C11 C 0.4825(3) 0.1893(2) 0.26098(18)
H9 H 0.4384 0.2345 0.3131
C12 C 0.6258(2) 0.21613(19) 0.22212(16)
H10 H 0.6797 0.2784 0.2486
C13 C 0.9195(2) 0.08635(17) 0.05144(15)
C14 C 0.9788(2) -0.00793(16) 0.10956(15)
C15 C 0.9612(2) -0.02013(17) 0.21971(15)
H11 H 0.9069 0.0368 0.2557
C16 C 1.0207(2) -0.11172(18) 0.27374(16)
H12 H 1.0048 -0.1194 0.3466
C17 C 1.1065(3) -0.19592(18) 0.22237(17)
H13 H 1.1503 -0.2581 0.2615
C18 C 1.1267(2) -0.18858(17) 0.11738(16)
H14 H 1.1843 -0.2458 0.0841
C19 C 1.0618(2) -0.09524(17) 0.05682(15)
N1A N 1.16223(19) -0.17456(14) -0.10328(13)
C1A C 1.0840(2) -0.27810(17) -0.12090(15)
C2A C 0.9319(2) -0.27422(18) -0.14907(17)
H1A H 0.8807 -0.2025 -0.1561
C3A C 0.8550(3) -0.37442(19) -0.16690(18)
H2A H 0.7514 -0.3709 -0.1863
C4A C 0.9284(3) -0.47979(19) -0.15652(18)
H3A H 0.8759 -0.5483 -0.1695
C5A C 1.0793(3) -0.48403(18) -0.12699(17)
H4A H 1.1300 -0.5559 -0.1196
C6A C 1.1561(3) -0.38489(18) -0.10836(16)
H5A H 1.2587 -0.3890 -0.0868
C7A C 1.3088(2) -0.15139(17) -0.14375(15)
C8A C 1.3895(2) -0.05952(18) -0.10814(16)
H6A H 1.3469 -0.0146 -0.0553
C9A C 1.5320(2) -0.0328(2) -0.14911(17)
H7A H 1.5852 0.0309 -0.1246
C10A C 1.5972(2) -0.0976(2) -0.22504(17)
H8A H 1.6952 -0.0797 -0.2522
C11A C 1.5175(3) -0.1893(2) -0.26098(18)
H9A H 1.5616 -0.2345 -0.3131
C12A C 1.3742(2) -0.21613(19) -0.22212(16)
H10A H 1.3203 -0.2784 -0.2486
C13A C 1.0805(2) -0.08635(17) -0.05144(15)
C14A C 1.0212(2) 0.00793(16) -0.10956(15)
C15A C 1.0388(2) 0.02013(17) -0.21971(15)
H11A H 1.0931 -0.0368 -0.2557
C16A C 0.9793(2) 0.11172(18) -0.27374(16)
H12A H 0.9952 0.1194 -0.3466
C17A C 0.8935(3) 0.19592(18) -0.22237(17)
H13A H 0.8497 0.2581 -0.2615
C18A C 0.8733(2) 0.18858(17) -0.11738(16)
H14A H 0.8157 0.2458 -0.0841
C19A C 0.9382(2) 0.09524(17) -0.05682(15)
N2 N 0.60076(19) 0.68390(14) 0.36670(13)
C20 C 0.6634(2) 0.77951(16) 0.41532(15)
C21 C 0.6225(2) 0.89098(17) 0.38509(16)
H15 H 0.5542 0.9042 0.3295
C22 C 0.6808(3) 0.98287(18) 0.43561(17)
H16 H 0.6541 1.0589 0.4135
C23 C 0.7779(3) 0.96454(19) 0.51833(17)
H17 H 0.8175 1.0276 0.5531
C24 C 0.8169(2) 0.85313(19) 0.55003(16)
H18 H 0.8822 0.8400 0.6073
C25 C 0.7612(2) 0.76122(18) 0.49862(16)
H19 H 0.7896 0.6853 0.5201
C26 C 0.5495(2) 0.59055(16) 0.43282(15)
C27 C 0.4109(2) 0.60120(17) 0.48749(15)
C28 C 0.6390(2) 0.49065(16) 0.44398(15)
C29 C 0.7815(2) 0.47903(18) 0.39100(16)
H20 H 0.8161 0.5393 0.3452
C30 C 0.8678(2) 0.38321(19) 0.40528(17)
H21 H 0.9621 0.3770 0.3695
C31 C 0.8184(2) 0.29230(19) 0.47314(18)
H22 H 0.8798 0.2255 0.4823
C32 C 0.6842(2) 0.29962(18) 0.52518(17)
H23 H 0.6531 0.2380 0.5707
C33 C 0.5840(2) 0.68001(16) 0.25825(15)
C34 C 0.4820(2) 0.60339(18) 0.21712(16)
H24 H 0.4231 0.5547 0.2622
C35 C 0.4667(3) 0.59827(19) 0.11057(17)
H25 H 0.3980 0.5451 0.0837
C36 C 0.5495(3) 0.66899(19) 0.04274(16)
H26 H 0.5367 0.6660 -0.0300
C37 C 0.6520(2) 0.74455(18) 0.08345(16)
H27 H 0.7106 0.7930 0.0379
C38 C 0.6695(2) 0.74993(17) 0.18939(16)
H28 H 0.7404 0.8018 0.2157
N2A N 0.39924(19) 0.31610(14) 0.63330(13)
C20A C 0.3366(2) 0.22049(16) 0.58468(15)
C21A C 0.3775(2) 0.10902(17) 0.61491(16)
H15A H 0.4458 0.0958 0.6705
C22A C 0.3192(3) 0.01713(18) 0.56439(17)
H16A H 0.3459 -0.0589 0.5865
C23A C 0.2221(3) 0.03546(19) 0.48167(17)
H17A H 0.1825 -0.0276 0.4469
C24A C 0.1831(2) 0.14687(19) 0.44997(16)
H18A H 0.1178 0.1600 0.3927
C25A C 0.2388(2) 0.23878(18) 0.50138(16)
H19A H 0.2104 0.3147 0.4799
C26A C 0.4505(2) 0.40945(16) 0.56718(15)
C27A C 0.5891(2) 0.39880(17) 0.51251(15)
C28A C 0.3610(2) 0.50935(16) 0.55602(15)
C29A C 0.2185(2) 0.52097(18) 0.60900(16)
H20A H 0.1839 0.4607 0.6548
C30A C 0.1322(2) 0.61679(19) 0.59472(17)
H21A H 0.0379 0.6230 0.6305
C31A C 0.1816(2) 0.70770(19) 0.52686(18)
H22A H 0.1202 0.7745 0.5177
C32A C 0.3158(2) 0.70038(18) 0.47482(17)
H23A H 0.3469 0.7620 0.4293
C33A C 0.4160(2) 0.31999(16) 0.74175(15)
C34A C 0.5180(2) 0.39661(18) 0.78288(16)
H24A H 0.5769 0.4453 0.7378
C35A C 0.5333(3) 0.40173(19) 0.88943(17)
H25A H 0.6020 0.4549 0.9163
C36A C 0.4505(3) 0.33101(19) 0.95726(16)
H26A H 0.4633 0.3340 1.0300
C37A C 0.3480(2) 0.25545(18) 0.91655(16)
H27A H 0.2894 0.2070 0.9621
C38A C 0.3305(2) 0.25007(17) 0.81061(16)
H28A H 0.2596 0.1982 0.7843
loop_
_geom_bond_atom_site_label_1
_geom_bond_atom_site_label_2
_geom_bond_site_symmetry_1
_geom_bond_site_symmetry_2
N1 C1 1_555 1_555
C1 C2 1_555 1_555
C2 H1 1_555 1_555
C3 C2 1_555 1_555
H2 C3 1_555 1_555
C4 C3 1_555 1_555
H3 C4 1_555 1_555
C5 C4 1_555 1_555
H4 C5 1_555 1_555
C6 C1 1_555 1_555
H5 C6 1_555 1_555
C7 N1 1_555 1_555
C8 C7 1_555 1_555
H6 C8 1_555 1_555
C9 C8 1_555 1_555
H7 C9 1_555 1_555
C10 C9 1_555 1_555
H8 C10 1_555 1_555
C11 C10 1_555 1_555
H9 C11 1_555 1_555
C12 C7 1_555 1_555
H10 C12 1_555 1_555
C13 N1 1_555 1_555
C14 C13 1_555 1_555
C15 C14 1_555 1_555
H11 C15 1_555 1_555
C16 C15 1_555 1_555
H12 C16 1_555 1_555
C17 C16 1_555 1_555
H13 C17 1_555 1_555
C18 C17 1_555 1_555
H14 C18 1_555 1_555
C19 C14 1_555 1_555
N2 C20 1_555 1_555
C20 C21 1_555 1_555
C21 H15 1_555 1_555
C22 C21 1_555 1_555
H16 C22 1_555 1_555
C23 C22 1_555 1_555
H17 C23 1_555 1_555
C24 C23 1_555 1_555
H18 C24 1_555 1_555
C25 C20 1_555 1_555
H19 C25 1_555 1_555
C26 N2 1_555 1_555
C27 C26 1_555 1_555
C28 C26 1_555 1_555
C29 C28 1_555 1_555
H20 C29 1_555 1_555
C30 C29 1_555 1_555
H21 C30 1_555 1_555
C31 C30 1_555 1_555
H22 C31 1_555 1_555
C32 C31 1_555 1_555
H23 C32 1_555 1_555
C33 N2 1_555 1_555
C34 C33 1_555 1_555
H24 C34 1_555 1_555
C35 C34 1_555 1_555
H25 C35 1_555 1_555
C36 C35 1_555 1_555
H26 C36 1_555 1_555
C37 C36 1_555 1_555
H27 C37 1_555 1_555
C38 C33 1_555 1_555
H28 C38 1_555 1_555
N1A C1A 1_555 1_555
C1A C2A 1_555 1_555
C2A H1A 1_555 1_555
C3A C2A 1_555 1_555
H2A C3A 1_555 1_555
C4A C3A 1_555 1_555
H3A C4A 1_555 1_555
C5A C4A 1_555 1_555
H4A C5A 1_555 1_555
C6A C1A 1_555 1_555
H5A C6A 1_555 1_555
C7A N1A 1_555 1_555
C8A C7A 1_555 1_555
H6A C8A 1_555 1_555
C9A C8A 1_555 1_555
H7A C9A 1_555 1_555
C10A C9A 1_555 1_555
H8A C10A 1_555 1_555
C11A C10A 1_555 1_555
H9A C11A 1_555 1_555
C12A C7A 1_555 1_555
H10A C12A 1_555 1_555
C13A C19 1_555 1_555
C14A C13A 1_555 1_555
C15A C14A 1_555 1_555
H11A C15A 1_555 1_555
C16A C15A 1_555 1_555
H12A C16A 1_555 1_555
C17A C16A 1_555 1_555
H13A C17A 1_555 1_555
C18A C17A 1_555 1_555
H14A C18A 1_555 1_555
C19A C13 1_555 1_555
N2A C20A 1_555 1_555
C20A C21A 1_555 1_555
C21A H15A 1_555 1_555
C22A C21A 1_555 1_555
H16A C22A 1_555 1_555
C23A C22A 1_555 1_555
H17A C23A 1_555 1_555
C24A C23A 1_555 1_555
H18A C24A 1_555 1_555
C25A C20A 1_555 1_555
H19A C25A 1_555 1_555
C26A N2A 1_555 1_555
C27A C28 1_555 1_555
C28A C27 1_555 1_555
C29A C28A 1_555 1_555
H20A C29A 1_555 1_555
C30A C29A 1_555 1_555
H21A C30A 1_555 1_555
C31A C30A 1_555 1_555
H22A C31A 1_555 1_555
C32A C27 1_555 1_555
H23A C32A 1_555 1_555
C33A N2A 1_555 1_555
C34A C33A 1_555 1_555
H24A C34A 1_555 1_555
C35A C34A 1_555 1_555
H25A C35A 1_555 1_555
C36A C35A 1_555 1_555
H26A C36A 1_555 1_555
C37A C36A 1_555 1_555
H27A C37A 1_555 1_555
C38A C33A 1_555 1_555
H28A C38A 1_555 1_555
C5 C6 1_555 1_555
C11 C12 1_555 1_555
C18 C19 1_555 1_555
C24 C25 1_555 1_555
C32 C27A 1_555 1_555
C37 C38 1_555 1_555
N1A C13A 1_555 1_555
C5A C6A 1_555 1_555
C11A C12A 1_555 1_555
C14A C19A 1_555 1_555
C18A C19A 1_555 1_555
C24A C25A 1_555 1_555
C26A C27A 1_555 1_555
C26A C28A 1_555 1_555
C31A C32A 1_555 1_555
C37A C38A 1_555 1_555

#END
