
#######################################################################
#
#                 Cambridge Crystallographic Data Centre
#                                CCDC 
#
#######################################################################
#
# If this CIF has been generated from an entry in the Cambridge 
# Structural Database, then it will include bibliographic, chemical, 
# crystal, experimental, refinement or atomic coordinate data resulting 
# from the CCDC's data processing and validation procedures.
#
#######################################################################

data_PESYUK
_chemical_formula_moiety         'C20 H14 O2,C10 H14 N2 O2'
_chemical_name_systematic        
"octahydro-5H,10H-dipyrrolo[1,2-a:1',2'-d]pyrazine-5,10-dione 1,1'-binaphthalene-2,2'-diol"
_symmetry_cell_setting           orthorhombic
_symmetry_space_group_name_H-M   'P 21 21 21'
_symmetry_Int_Tables_number      19
_space_group_name_Hall           'P 2ac 2ab'
loop_
_symmetry_equiv_pos_site_id
_symmetry_equiv_pos_as_xyz
1 x,y,z
2 1/2-x,-y,1/2+z
3 -x,1/2+y,1/2-z
4 1/2+x,1/2-y,-z
_cell_length_a                   8.9956(7)
_cell_length_b                   22.6041(16)
_cell_length_c                   23.9340(17)
_cell_angle_alpha                90
_cell_angle_beta                 90
_cell_angle_gamma                90
_cell_volume                     4866.68
_exptl_crystal_description       block
_cell_formula_units_Z            8
loop_
_atom_site_label
_atom_site_type_symbol
_atom_site_fract_x
_atom_site_fract_y
_atom_site_fract_z
C1 C 0.9456(3) 0.78333(11) 0.19609(10)
H1 H 0.9038 0.8162 0.2134
C2 C 1.0956(3) 0.77714(11) 0.19383(10)
H2 H 1.1557 0.8060 0.2098
C3 C 1.1622(3) 0.72815(11) 0.16787(10)
C4 C 1.3185(3) 0.72057(13) 0.16530(11)
H3 H 1.3801 0.7488 0.1815
C5 C 1.3803(3) 0.67276(15) 0.13958(12)
H4 H 1.4832 0.6688 0.1380
C6 C 1.2893(3) 0.62981(14) 0.11562(11)
H5 H 1.3318 0.5970 0.0984
C7 C 1.1388(3) 0.63541(12) 0.11715(10)
H6 H 1.0800 0.6064 0.1007
C8 C 1.0694(3) 0.68456(11) 0.14331(10)
C9 C 0.9121(3) 0.69121(10) 0.14528(10)
C10 C 0.8531(3) 0.73973(11) 0.17201(10)
C11 C 0.8124(3) 0.64611(10) 0.11972(10)
C12 C 0.7772(3) 0.59572(11) 0.14851(11)
C13 C 0.6876(4) 0.55154(12) 0.12436(12)
H7 H 0.6682 0.5169 0.1441
C14 C 0.6297(3) 0.55893(12) 0.07287(13)
H8 H 0.5708 0.5292 0.0576
C15 C 0.6567(3) 0.61091(11) 0.04172(10)
C16 C 0.5908(3) 0.62122(15) -0.01087(12)
H9 H 0.5284 0.5928 -0.0263
C17 C 0.6174(4) 0.67207(16) -0.03910(12)
H10 H 0.5703 0.6789 -0.0731
C18 C 0.7151(4) 0.71434(14) -0.01746(11)
H11 H 0.7355 0.7485 -0.0378
C19 C 0.7807(3) 0.70586(12) 0.03330(10)
H12 H 0.8460 0.7342 0.0471
C20 C 0.7508(3) 0.65448(10) 0.06521(9)
O1 O 0.7027(2) 0.74394(7) 0.17512(8)
H13 H 0.6794 0.7778 0.1839
O2 O 0.8271(3) 0.58425(8) 0.20125(8)
H14 H 0.8582 0.6149 0.2154
C21 C 0.2295(3) 0.40421(11) 0.15088(11)
C22 C 0.2683(3) 0.35543(10) 0.12065(10)
C23 C 0.2114(3) 0.34880(11) 0.06519(10)
C24 C 0.2408(3) 0.29874(12) 0.03213(10)
H15 H 0.3036 0.2694 0.0457
C25 C 0.1781(4) 0.29251(14) -0.01983(11)
H16 H 0.1976 0.2587 -0.0408
C26 C 0.0852(4) 0.33644(16) -0.04152(12)
H17 H 0.0425 0.3316 -0.0766
C27 C 0.0573(3) 0.38615(15) -0.01155(12)
H18 H -0.0023 0.4157 -0.0268
C28 C 0.1178(3) 0.39367(12) 0.04277(11)
C29 C 0.0869(3) 0.44358(12) 0.07545(13)
H19 H 0.0290 0.4738 0.0605
C30 C 0.1389(4) 0.44897(13) 0.12805(13)
H20 H 0.1151 0.4822 0.1492
C31 C 0.3669(3) 0.30921(10) 0.14601(9)
C32 C 0.5244(3) 0.31479(11) 0.14257(10)
C33 C 0.5937(3) 0.36274(13) 0.11534(10)
H21 H 0.5356 0.3918 0.0987
C34 C 0.7449(3) 0.36709(15) 0.11301(11)
H22 H 0.7881 0.3991 0.0949
C35 C 0.8356(3) 0.32417(16) 0.13748(13)
H23 H 0.9385 0.3274 0.1352
C36 C 0.7729(3) 0.27790(14) 0.16453(11)
H24 H 0.8338 0.2499 0.1815
C37 C 0.6165(3) 0.27110(12) 0.16755(10)
C38 C 0.5477(3) 0.22352(12) 0.19534(11)
H25 H 0.6067 0.1948 0.2121
C39 C 0.3973(3) 0.21841(11) 0.19834(10)
H26 H 0.3544 0.1864 0.2166
C40 C 0.3072(3) 0.26184(10) 0.17369(10)
O3 O 0.2749(3) 0.41307(9) 0.20486(8)
H27 H 0.3216 0.3841 0.2157
O4 O 0.1557(2) 0.25870(8) 0.17730(8)
H28 H 0.1314 0.2260 0.1889
C41 C 0.8346(4) 0.09603(15) 0.18362(13)
H29 H 0.7620 0.1249 0.1700
C42 C 0.7886(3) 0.08447(12) 0.24206(12)
H30 H 0.7597 0.1207 0.2609
H31 H 0.8675 0.0655 0.2631
C43 C 0.6575(4) 0.04360(16) 0.23437(14)
H32 H 0.5671 0.0657 0.2269
H33 H 0.6426 0.0189 0.2670
C44 C 0.7041(6) 0.00661(19) 0.18343(18)
H34 H 0.7541 -0.0293 0.1952
H35 H 0.6180 -0.0041 0.1613
C45 C 0.8529(3) 0.03309(13) 0.10018(12)
C46 C 0.9320(3) 0.08336(13) 0.07722(12)
H36 H 0.8545 0.1110 0.0652
C47 C 1.0287(4) 0.07530(14) 0.02799(11)
H37 H 0.9712 0.0764 -0.0063
H38 H 1.0817 0.0380 0.0300
C48 C 1.1348(4) 0.12687(15) 0.03101(12)
H39 H 1.0924 0.1617 0.0135
H40 H 1.2282 0.1174 0.0128
C49 C 1.1576(4) 0.13690(16) 0.09297(12)
H41 H 1.2421 0.1145 0.1067
H42 H 1.1731 0.1785 0.1010
C50 C 0.9769(3) 0.12277(11) 0.17158(12)
N1 N 0.8005(3) 0.04247(10) 0.15264(11)
N2 N 1.0216(3) 0.11611(11) 0.11739(10)
O5 O 1.0453(2) 0.15094(8) 0.20749(7)
O6 O 0.8311(3) -0.01210(10) 0.07446(11)
C51 C 0.4850(3) 0.87162(10) 0.17411(10)
C52 C 0.4959(3) 0.86380(11) 0.11169(10)
H43 H 0.4327 0.8305 0.1005
C53 C 0.6503(4) 0.85449(13) 0.08807(11)
H44 H 0.6791 0.8132 0.0900
H45 H 0.7232 0.8782 0.1079
C54 C 0.6346(4) 0.87473(14) 0.02799(11)
H46 H 0.7305 0.8856 0.0125
H47 H 0.5913 0.8438 0.0051
C55 C 0.5331(3) 0.92770(14) 0.03093(11)
H48 H 0.5896 0.9641 0.0337
H49 H 0.4688 0.9297 -0.0015
C56 C 0.3406(3) 0.95296(12) 0.10005(11)
C57 C 0.2621(3) 0.93036(11) 0.15199(11)
H50 H 0.1892 0.9003 0.1409
C58 C 0.1860(4) 0.97549(15) 0.18847(14)
H51 H 0.0862 0.9837 0.1753
H52 H 0.2419 1.0122 0.1897
C59 C 0.1831(4) 0.94581(14) 0.24538(12)
H53 H 0.1701 0.9747 0.2750
H54 H 0.1039 0.9168 0.2476
C60 C 0.3341(3) 0.91647(12) 0.24913(11)
H55 H 0.4071 0.9430 0.2654
H56 H 0.3295 0.8806 0.2713
N3 N 0.4472(3) 0.91697(9) 0.08193(8)
N4 N 0.3696(2) 0.90327(9) 0.19083(8)
O7 O 0.3056(3) 0.99910(9) 0.07731(10)
O8 O 0.5747(2) 0.84858(7) 0.20673(7)
loop_
_geom_bond_atom_site_label_1
_geom_bond_atom_site_label_2
_geom_bond_site_symmetry_1
_geom_bond_site_symmetry_2
C1 H1 1_555 1_555
C2 C1 1_555 1_555
H2 C2 1_555 1_555
C3 C2 1_555 1_555
C4 C3 1_555 1_555
H3 C4 1_555 1_555
C5 C4 1_555 1_555
H4 C5 1_555 1_555
C6 C5 1_555 1_555
H5 C6 1_555 1_555
C7 C6 1_555 1_555
H6 C7 1_555 1_555
C8 C3 1_555 1_555
C9 C8 1_555 1_555
C10 C1 1_555 1_555
C11 C9 1_555 1_555
C12 C11 1_555 1_555
C13 C12 1_555 1_555
H7 C13 1_555 1_555
C14 C13 1_555 1_555
H8 C14 1_555 1_555
C15 C14 1_555 1_555
C16 C15 1_555 1_555
H9 C16 1_555 1_555
C17 C16 1_555 1_555
H10 C17 1_555 1_555
C18 C17 1_555 1_555
H11 C18 1_555 1_555
C19 C18 1_555 1_555
H12 C19 1_555 1_555
C20 C11 1_555 1_555
O1 C10 1_555 1_555
H13 O1 1_555 1_555
O2 C12 1_555 1_555
H14 O2 1_555 1_555
C21 C22 1_555 1_555
C22 C23 1_555 1_555
C23 C24 1_555 1_555
C24 H15 1_555 1_555
C25 C24 1_555 1_555
H16 C25 1_555 1_555
C26 C25 1_555 1_555
H17 C26 1_555 1_555
C27 C26 1_555 1_555
H18 C27 1_555 1_555
C28 C23 1_555 1_555
C29 C28 1_555 1_555
H19 C29 1_555 1_555
C30 C21 1_555 1_555
H20 C30 1_555 1_555
C31 C22 1_555 1_555
C32 C31 1_555 1_555
C33 C32 1_555 1_555
H21 C33 1_555 1_555
C34 C33 1_555 1_555
H22 C34 1_555 1_555
C35 C34 1_555 1_555
H23 C35 1_555 1_555
C36 C35 1_555 1_555
H24 C36 1_555 1_555
C37 C32 1_555 1_555
C38 C37 1_555 1_555
H25 C38 1_555 1_555
C39 C38 1_555 1_555
H26 C39 1_555 1_555
C40 C31 1_555 1_555
O3 C21 1_555 1_555
H27 O3 1_555 1_555
O4 C40 1_555 1_555
H28 O4 1_555 1_555
C41 H29 1_555 1_555
C42 C41 1_555 1_555
H30 C42 1_555 1_555
H31 C42 1_555 1_555
C43 C42 1_555 1_555
H32 C43 1_555 1_555
H33 C43 1_555 1_555
C44 C43 1_555 1_555
H34 C44 1_555 1_555
H35 C44 1_555 1_555
C45 C46 1_555 1_555
C46 H36 1_555 1_555
C47 C46 1_555 1_555
H37 C47 1_555 1_555
H38 C47 1_555 1_555
C48 C47 1_555 1_555
H39 C48 1_555 1_555
H40 C48 1_555 1_555
C49 C48 1_555 1_555
H41 C49 1_555 1_555
H42 C49 1_555 1_555
C50 C41 1_555 1_555
N1 C41 1_555 1_555
N2 C46 1_555 1_555
O5 C50 1_555 1_555
O6 C45 1_555 1_555
C51 C52 1_555 1_555
C52 H43 1_555 1_555
C53 C52 1_555 1_555
H44 C53 1_555 1_555
H45 C53 1_555 1_555
C54 C53 1_555 1_555
H46 C54 1_555 1_555
H47 C54 1_555 1_555
C55 C54 1_555 1_555
H48 C55 1_555 1_555
H49 C55 1_555 1_555
C56 C57 1_555 1_555
C57 H50 1_555 1_555
C58 C57 1_555 1_555
H51 C58 1_555 1_555
H52 C58 1_555 1_555
C59 C58 1_555 1_555
H53 C59 1_555 1_555
H54 C59 1_555 1_555
C60 C59 1_555 1_555
H55 C60 1_555 1_555
H56 C60 1_555 1_555
N3 C52 1_555 1_555
N4 C51 1_555 1_555
O7 C56 1_555 1_555
O8 C51 1_555 1_555
C7 C8 1_555 1_555
C9 C10 1_555 1_555
C15 C20 1_555 1_555
C19 C20 1_555 1_555
C27 C28 1_555 1_555
C29 C30 1_555 1_555
C36 C37 1_555 1_555
C39 C40 1_555 1_555
C44 N1 1_555 1_555
C45 N1 1_555 1_555
C49 N2 1_555 1_555
C50 N2 1_555 1_555
C55 N3 1_555 1_555
C56 N3 1_555 1_555
C57 N4 1_555 1_555
C60 N4 1_555 1_555

#END
