
#######################################################################
#
#                 Cambridge Crystallographic Data Centre
#                                CCDC 
#
#######################################################################
#
# If this CIF has been generated from an entry in the Cambridge 
# Structural Database, then it will include bibliographic, chemical, 
# crystal, experimental, refinement or atomic coordinate data resulting 
# from the CCDC's data processing and validation procedures.
#
#######################################################################

data_PESZAQ
_chemical_formula_moiety         'C21 H16 O2'
_chemical_name_systematic        
9-Phenyl-8,10-dioxatetracyclo[7.7.1.0^2,7^.0^11,16^]heptadeca-2,4,6,11,13,15-hexaene
_symmetry_cell_setting           orthorhombic
_symmetry_space_group_name_H-M   'P c a 21'
_symmetry_Int_Tables_number      29
_space_group_name_Hall           'P 2c -2ac'
loop_
_symmetry_equiv_pos_site_id
_symmetry_equiv_pos_as_xyz
1 x,y,z
2 -x,-y,1/2+z
3 1/2+x,-y,z
4 1/2-x,y,1/2+z
_cell_length_a                   17.1797(15)
_cell_length_b                   6.1625(5)
_cell_length_c                   14.8950(12)
_cell_angle_alpha                90
_cell_angle_beta                 90
_cell_angle_gamma                90
_cell_volume                     1576.93
_exptl_crystal_colour            colorless
_exptl_crystal_description       prismatic
_cell_formula_units_Z            4
loop_
_atom_site_label
_atom_site_type_symbol
_atom_site_fract_x
_atom_site_fract_y
_atom_site_fract_z
O1 O 0.40458(9) 0.35736(19) 0.68162(9)
O2 O 0.52406(7) 0.35544(19) 0.75160(11)
C1 C 0.39968(11) 0.2101(3) 0.61225(14)
C2 C 0.36080(14) 0.2800(4) 0.53605(16)
H1 H 0.3388 0.4178 0.5338
C3 C 0.35533(16) 0.1410(5) 0.46344(17)
H2 H 0.3295 0.1864 0.4119
C4 C 0.38728(18) -0.0622(6) 0.4663(2)
H3 H 0.3838 -0.1534 0.4168
C5 C 0.42464(16) -0.1309(4) 0.54302(18)
H4 H 0.4460 -0.2695 0.5449
C6 C 0.43091(12) 0.0033(3) 0.61756(15)
C7 C 0.47195(12) -0.0646(3) 0.70232(16)
H5 H 0.4663 -0.2213 0.7112
C8 C 0.43540(13) 0.0569(3) 0.78042(14)
H6 H 0.3808 0.0194 0.7858
H7 H 0.4614 0.0190 0.8361
C9 C 0.44421(10) 0.2971(3) 0.76192(13)
C10 C 0.57755(12) 0.2026(3) 0.72474(14)
C11 C 0.55644(11) -0.0049(3) 0.69881(15)
C12 C 0.61454(17) -0.1460(4) 0.6708(2)
H8 H 0.6015 -0.2853 0.6520
C13 C 0.69140(17) -0.0819(5) 0.6706(2)
H9 H 0.7299 -0.1782 0.6521
C14 C 0.71141(14) 0.1237(5) 0.69761(19)
H10 H 0.7634 0.1661 0.6973
C15 C 0.65488(12) 0.2676(4) 0.72526(16)
H11 H 0.6684 0.4065 0.7440
C16 C 0.41115(11) 0.4395(3) 0.83538(13)
C17 C 0.33256(14) 0.4760(4) 0.83894(17)
H12 H 0.3002 0.4157 0.7955
C18 C 0.30104(17) 0.6013(5) 0.9063(2)
H13 H 0.2476 0.6242 0.9084
C19 C 0.3480(2) 0.6920(4) 0.96999(18)
H14 H 0.3266 0.7771 1.0153
C20 C 0.42590(19) 0.6576(4) 0.96693(18)
H15 H 0.4580 0.7183 1.0105
C21 C 0.45758(14) 0.5330(4) 0.89954(16)
H16 H 0.5112 0.5120 0.8975
loop_
_geom_bond_atom_site_label_1
_geom_bond_atom_site_label_2
_geom_bond_site_symmetry_1
_geom_bond_site_symmetry_2
O1 C1 1_555 1_555
O2 C9 1_555 1_555
C1 C2 1_555 1_555
C2 H1 1_555 1_555
C3 C2 1_555 1_555
H2 C3 1_555 1_555
C4 C3 1_555 1_555
H3 C4 1_555 1_555
C5 C4 1_555 1_555
H4 C5 1_555 1_555
C6 C1 1_555 1_555
C7 C6 1_555 1_555
H5 C7 1_555 1_555
C8 C7 1_555 1_555
H6 C8 1_555 1_555
H7 C8 1_555 1_555
C9 O1 1_555 1_555
C10 O2 1_555 1_555
C11 C7 1_555 1_555
C12 C11 1_555 1_555
H8 C12 1_555 1_555
C13 C12 1_555 1_555
H9 C13 1_555 1_555
C14 C13 1_555 1_555
H10 C14 1_555 1_555
C15 C10 1_555 1_555
H11 C15 1_555 1_555
C16 C9 1_555 1_555
C17 C16 1_555 1_555
H12 C17 1_555 1_555
C18 C17 1_555 1_555
H13 C18 1_555 1_555
C19 C18 1_555 1_555
H14 C19 1_555 1_555
C20 C19 1_555 1_555
H15 C20 1_555 1_555
C21 C16 1_555 1_555
H16 C21 1_555 1_555
C5 C6 1_555 1_555
C8 C9 1_555 1_555
C10 C11 1_555 1_555
C14 C15 1_555 1_555
C20 C21 1_555 1_555

#END
