
#######################################################################
#
#                 Cambridge Crystallographic Data Centre
#                                CCDC 
#
#######################################################################
#
# If this CIF has been generated from an entry in the Cambridge 
# Structural Database, then it will include bibliographic, chemical, 
# crystal, experimental, refinement or atomic coordinate data resulting 
# from the CCDC's data processing and validation procedures.
#
#######################################################################

data_PETBIC
_chemical_formula_moiety         'C55 H56 Br2 N6'
_chemical_name_systematic        
"3,9-bis(4-bromophenyl)-6,6-bis(2-ethylhexyl)-1,11-diphenyl-6,11-dihydro-1H-fluoreno[2,3-e:7,6-e']bis[1,2,4]triazine diradicaloid"
_symmetry_cell_setting           monoclinic
_symmetry_space_group_name_H-M   'C 2/c'
_symmetry_Int_Tables_number      15
_space_group_name_Hall           '-C 2yn'
loop_
_symmetry_equiv_pos_site_id
_symmetry_equiv_pos_as_xyz
1 x,y,z
2 -x,y,1/2-z
3 1/2+x,1/2+y,z
4 1/2-x,1/2+y,1/2-z
5 -x,-y,-z
6 x,-y,1/2+z
7 1/2-x,1/2-y,-z
8 1/2+x,1/2-y,1/2+z
_cell_length_a                   25.890(4)
_cell_length_b                   17.934(2)
_cell_length_c                   10.2092(13)
_cell_angle_alpha                90
_cell_angle_beta                 100.306(8)
_cell_angle_gamma                90
_cell_volume                     4663.77
_exptl_crystal_colour            black
_exptl_crystal_description       plate
_cell_formula_units_Z            4
loop_
_atom_site_label
_atom_site_type_symbol
_atom_site_fract_x
_atom_site_fract_y
_atom_site_fract_z
Br1 Br 0.32538(6) 0.20747(12) 0.09318(16)
C1 C 0.2760(6) 0.2267(10) 0.2006(14)
C2 C 0.2503(6) 0.1656(10) 0.2475(16)
H1 H 0.2586 0.1156 0.2284
C3 C 0.2102(7) 0.1833(10) 0.3272(17)
H2 H 0.1901 0.1439 0.3548
C4 C 0.2008(5) 0.2533(9) 0.3625(13)
C5 C 0.2294(7) 0.3121(11) 0.3155(16)
H3 H 0.2231 0.3622 0.3381
C6 C 0.2670(6) 0.2966(9) 0.2361(16)
H4 H 0.2864 0.3364 0.2071
C7 C 0.1612(6) 0.2686(9) 0.4443(13)
C8 C 0.0854(7) 0.2998(8) 0.5907(14)
C9 C 0.0993(5) 0.2220(8) 0.5612(13)
C10 C 0.0743(7) 0.1660(8) 0.6198(14)
H5 H 0.0856 0.1161 0.6111
C11 C 0.0329(6) 0.1782(7) 0.6918(12)
C12 C 0.0195(5) 0.2551(8) 0.7076(13)
C13 C 0.0459(5) 0.3129(7) 0.6621(12)
H6 H 0.0368 0.3627 0.6799
C14 C 0.1038(6) 0.4319(6) 0.5498(12)
C15 C 0.0907(8) 0.5815(6) 0.5695(19)
C16 C 0.0000 0.1273(9) 0.7500
C17 C 0.1142(9) 0.4655(9) 0.6754(13)
C18 C 0.1097(11) 0.5414(10) 0.6822(16)
C19 C 0.0887(12) 0.5491(9) 0.4469(16)
C20 C 0.0929(10) 0.4718(9) 0.4430(14)
N1 N 0.1369(5) 0.2090(7) 0.4932(13)
N2 N 0.1502(4) 0.3365(8) 0.4613(11)
N3 N 0.1135(4) 0.3525(6) 0.5394(9)
C21 C 0.0701(7) 0.1189(10) 0.9505(16)
C22 C 0.1097(6) 0.0656(15) 1.0291(17)
C23 C 0.1924(9) -0.0005(16) 1.022(3)
C24 C 0.0328(6) 0.0742(7) 0.8487(12)
C25 C -0.0050(11) 0.035(2) 0.923(3)
C26 C 0.1535(8) 0.0552(14) 0.951(2)
Br1A Br -0.32538(6) 0.20747(12) 1.40682(16)
C1A C -0.2760(6) 0.2267(10) 1.2994(14)
C2A C -0.2503(6) 0.1656(10) 1.2525(16)
H1A H -0.2586 0.1156 1.2716
C3A C -0.2102(7) 0.1833(10) 1.1728(17)
H2A H -0.1901 0.1439 1.1452
C4A C -0.2008(5) 0.2533(9) 1.1375(13)
C5A C -0.2294(7) 0.3121(11) 1.1845(16)
H3A H -0.2231 0.3622 1.1619
C6A C -0.2670(6) 0.2966(9) 1.2639(16)
H4A H -0.2864 0.3364 1.2929
C7A C -0.1612(6) 0.2686(9) 1.0557(13)
C8A C -0.0854(7) 0.2998(8) 0.9093(14)
C9A C -0.0993(5) 0.2220(8) 0.9388(13)
C10A C -0.0743(7) 0.1660(8) 0.8802(14)
H5A H -0.0856 0.1161 0.8889
C11A C -0.0329(6) 0.1782(7) 0.8082(12)
C12A C -0.0195(5) 0.2551(8) 0.7924(13)
C13A C -0.0459(5) 0.3129(7) 0.8379(12)
H6A H -0.0368 0.3627 0.8201
C14A C -0.1038(6) 0.4319(6) 0.9502(12)
C15A C -0.0907(8) 0.5815(6) 0.9305(19)
C17A C -0.1142(9) 0.4655(9) 0.8246(13)
C18A C -0.1097(11) 0.5414(10) 0.8178(16)
C19A C -0.0887(12) 0.5491(9) 1.0531(16)
C20A C -0.0929(10) 0.4718(9) 1.0570(14)
N1A N -0.1369(5) 0.2090(7) 1.0068(13)
N2A N -0.1502(4) 0.3365(8) 1.0387(11)
N3A N -0.1135(4) 0.3525(6) 0.9606(9)
C21A C -0.0701(7) 0.1189(10) 0.5495(16)
C22A C -0.1097(6) 0.0656(15) 0.4709(17)
C23A C -0.1924(9) -0.0005(16) 0.478(3)
C24A C -0.0328(6) 0.0742(7) 0.6513(12)
C25A C 0.0050(11) 0.035(2) 0.577(3)
C26A C -0.1535(8) 0.0552(14) 0.549(2)
C27? C 0.1458(6) 0.4756(10) 0.599(2)
C28? C 0.1393(8) 0.5511(10) 0.606(3)
C29? C 0.0494(8) 0.5386(11) 0.509(3)
C30? C 0.0551(6) 0.4622(10) 0.510(3)
C31? C 0.0274(10) 0.0936(10) 0.8791(11)
C32? C 0.0095(13) 0.135(2) 0.9924(11)
C33? C 0.0540(19) 0.136(2) 1.109(2)
C34? C 0.0858(7) 0.106(4) 0.891(3)
C35? C 0.061(2) 0.213(3) 1.167(4)
C36? C 0.082(3) 0.263(3) 1.069(7)
C37? C 0.107(4) 0.13(3) 1.030(18)
C38? C 0.006(6) 0.062(9) 1.066(6)
loop_
_geom_bond_atom_site_label_1
_geom_bond_atom_site_label_2
_geom_bond_site_symmetry_1
_geom_bond_site_symmetry_2
Br1 C1 1_555 1_555
C1 C2 1_555 1_555
C2 H1 1_555 1_555
C3 C2 1_555 1_555
H2 C3 1_555 1_555
C4 C3 1_555 1_555
C5 C4 1_555 1_555
H3 C5 1_555 1_555
C6 C1 1_555 1_555
H4 C6 1_555 1_555
C7 C4 1_555 1_555
C8 C9 1_555 1_555
C9 C10 1_555 1_555
C10 H5 1_555 1_555
C11 C10 1_555 1_555
C12 C11 1_555 1_555
C13 C8 1_555 1_555
H6 C13 1_555 1_555
C14 C17 1_555 1_555
C15 C18 1_555 1_555
C16 C11 1_555 1_555
C17 C18 1_555 1_555
C19 C15 1_555 1_555
C20 C14 1_555 1_555
N1 C7 1_555 1_555
N2 C7 1_555 1_555
N3 C8 1_555 1_555
C21 C22 1_555 1_555
C22 C26 1_555 1_555
C23 C26 1_555 1_555
C24 C16 1_555 1_555
C25 C24 1_555 1_555
Br1A C1A 1_555 1_555
C1A C2A 1_555 1_555
C2A H1A 1_555 1_555
C3A C2A 1_555 1_555
H2A C3A 1_555 1_555
C4A C3A 1_555 1_555
C5A C4A 1_555 1_555
H3A C5A 1_555 1_555
C6A C1A 1_555 1_555
H4A C6A 1_555 1_555
C7A C4A 1_555 1_555
C8A C9A 1_555 1_555
C9A C10A 1_555 1_555
C10A H5A 1_555 1_555
C11A C16 1_555 1_555
C12A C12 1_555 1_555
C13A C8A 1_555 1_555
H6A C13A 1_555 1_555
C14A C17A 1_555 1_555
C15A C18A 1_555 1_555
C17A C18A 1_555 1_555
C19A C15A 1_555 1_555
C20A C14A 1_555 1_555
N1A C7A 1_555 1_555
N2A C7A 1_555 1_555
N3A C8A 1_555 1_555
C21A C22A 1_555 1_555
C22A C26A 1_555 1_555
C23A C26A 1_555 1_555
C24A C16 1_555 1_555
C25A C24A 1_555 1_555
C5 C6 1_555 1_555
C9 N1 1_555 1_555
C12 C13 1_555 1_555
C14 N3 1_555 1_555
C19 C20 1_555 1_555
N2 N3 1_555 1_555
C21 C24 1_555 1_555
C5A C6A 1_555 1_555
C9A N1A 1_555 1_555
C10A C11A 1_555 1_555
C11A C12A 1_555 1_555
C12A C13A 1_555 1_555
C14A N3A 1_555 1_555
C19A C20A 1_555 1_555
N2A N3A 1_555 1_555
C21A C24A 1_555 1_555

#END
