
#######################################################################
#
#                 Cambridge Crystallographic Data Centre
#                                CCDC 
#
#######################################################################
#
# If this CIF has been generated from an entry in the Cambridge 
# Structural Database, then it will include bibliographic, chemical, 
# crystal, experimental, refinement or atomic coordinate data resulting 
# from the CCDC's data processing and validation procedures.
#
#######################################################################

data_PETFOM
_chemical_formula_moiety         'C54 H46 O8'
_chemical_name_systematic        
'benzene-1,2,4,5-tetrayltetrakis(methylene) tetrakis(5-phenylpenta-2,4-dienoate)'
_symmetry_cell_setting           triclinic
_symmetry_space_group_name_H-M   'P -1'
_symmetry_Int_Tables_number      2
_space_group_name_Hall           '-P 1'
loop_
_symmetry_equiv_pos_site_id
_symmetry_equiv_pos_as_xyz
1 x,y,z
2 -x,-y,-z
_cell_length_a                   5.8334(2)
_cell_length_b                   14.4688(5)
_cell_length_c                   14.4800(5)
_cell_angle_alpha                119.6010(10)
_cell_angle_beta                 90.053(2)
_cell_angle_gamma                95.149(2)
_cell_volume                     1056.9
_exptl_crystal_colour            colorless
_exptl_crystal_description       Needle
_cell_formula_units_Z            1
loop_
_atom_site_label
_atom_site_type_symbol
_atom_site_fract_x
_atom_site_fract_y
_atom_site_fract_z
O1 O 0.56979(14) 0.71570(7) 0.26833(6)
O2 O 0.47447(14) 0.50522(7) 0.26045(6)
O3 O 0.83584(15) 0.80133(7) 0.40471(7)
O4 O 0.11366(17) 0.42223(9) 0.21170(8)
C1 C -0.1455(2) 1.20021(10) 0.94122(11)
H1 H -0.2401 1.2450 0.9924
C2 C 0.0468(2) 1.16965(10) 0.97157(10)
H2 H 0.0810 1.1938 1.0431
C3 C 0.1878(2) 1.10294(10) 0.89496(9)
H3 H 0.3168 1.0830 0.9157
C4 C 0.13852(19) 1.06521(9) 0.78654(9)
C5 C 0.2990(2) 0.99901(9) 0.70966(9)
H4 H 0.4344 0.9914 0.7380
C6 C 0.2740(2) 0.94803(9) 0.60312(9)
H5 H 0.1360 0.9482 0.5710
C7 C 0.4569(2) 0.89284(9) 0.53725(9)
H6 H 0.5952 0.8960 0.5712
C8 C 0.4412(2) 0.83758(9) 0.43103(9)
H7 H 0.3039 0.8318 0.3950
C9 C 0.6389(2) 0.78571(9) 0.37041(9)
C10 C 0.74361(19) 0.65064(9) 0.20190(9)
H8 H 0.8126 0.6147 0.2348
H9 H 0.8642 0.6947 0.1913
C11 C 0.61999(18) 0.57057(8) 0.09776(8)
C12 C 0.59603(19) 0.59823(8) 0.01933(9)
H10 H 0.6616 0.6648 0.0324
C13 C 0.52237(18) 0.46989(8) 0.07816(8)
C14 C -0.0564(2) 1.09661(10) 0.75752(10)
H11 H -0.0927 1.0722 0.6861
C15 C -0.1962(2) 1.16392(11) 0.83450(11)
H12 H -0.3247 1.1848 0.8143
C16 C -0.5428(2) 0.86141(11) 0.85987(11)
H13 H -0.6003 0.9055 0.9256
C17 C -0.6714(2) 0.76806(11) 0.78713(11)
H14 H -0.8166 0.7497 0.8035
C18 C -0.5841(2) 0.70179(11) 0.68992(11)
H15 H -0.6716 0.6390 0.6414
C19 C -0.3664(2) 0.72775(10) 0.66341(10)
C20 C -0.2398(2) 0.82332(10) 0.73737(10)
H16 H -0.0957 0.8427 0.7210
C21 C -0.3272(3) 0.88929(11) 0.83463(11)
H17 H -0.2413 0.9525 0.8833
C22 C -0.2818(2) 0.65326(11) 0.56072(11)
H18 H -0.3800 0.5920 0.5177
C23 C -0.0792(2) 0.66286(10) 0.52124(10)
H19 H 0.0221 0.7241 0.5606
C24 C -0.0137(2) 0.58085(10) 0.41933(10)
H20 H -0.1237 0.5240 0.3779
C25 C 0.1935(2) 0.58090(10) 0.38043(10)
H21 H 0.3060 0.6371 0.4203
C26 C 0.2481(2) 0.49410(10) 0.27587(9)
C27 C 0.5504(2) 0.43143(9) 0.15660(9)
H22 H 0.4621 0.3623 0.1300
H23 H 0.7113 0.4224 0.1631
O1A O 0.43021(14) 0.28430(7) -0.26833(6)
O2A O 0.52553(14) 0.49478(7) -0.26045(6)
O3A O 0.16416(15) 0.19867(7) -0.40471(7)
O4A O 0.88634(17) 0.57777(9) -0.21170(8)
C1A C 1.1455(2) -0.20021(10) -0.94122(11)
H1A H 1.2401 -0.2450 -0.9924
C2A C 0.9532(2) -0.16965(10) -0.97157(10)
H2A H 0.9190 -0.1938 -1.0431
C3A C 0.8122(2) -0.10294(10) -0.89496(9)
H3A H 0.6832 -0.0830 -0.9157
C4A C 0.86148(19) -0.06521(9) -0.78654(9)
C5A C 0.7010(2) 0.00099(9) -0.70966(9)
H4A H 0.5656 0.0086 -0.7380
C6A C 0.7260(2) 0.05197(9) -0.60312(9)
H5A H 0.8640 0.0518 -0.5710
C7A C 0.5431(2) 0.10716(9) -0.53725(9)
H6A H 0.4048 0.1040 -0.5712
C8A C 0.5588(2) 0.16242(9) -0.43103(9)
H7A H 0.6961 0.1682 -0.3950
C9A C 0.3611(2) 0.21429(9) -0.37041(9)
C10A C 0.25639(19) 0.34936(9) -0.20190(9)
H8A H 0.1874 0.3853 -0.2348
H9A H 0.1358 0.3053 -0.1913
C11A C 0.38001(18) 0.42943(8) -0.09776(8)
C12A C 0.40397(19) 0.40177(8) -0.01933(9)
H10A H 0.3384 0.3352 -0.0324
C13A C 0.47763(18) 0.53011(8) -0.07816(8)
C14A C 1.0564(2) -0.09661(10) -0.75752(10)
H11A H 1.0927 -0.0722 -0.6861
C15A C 1.1962(2) -0.16392(11) -0.83450(11)
H12A H 1.3247 -0.1848 -0.8143
C16A C 1.5428(2) 0.13859(11) -0.85987(11)
H13A H 1.6003 0.0945 -0.9256
C17A C 1.6714(2) 0.23194(11) -0.78713(11)
H14A H 1.8166 0.2503 -0.8035
C18A C 1.5841(2) 0.29821(11) -0.68992(11)
H15A H 1.6716 0.3610 -0.6414
C19A C 1.3664(2) 0.27225(10) -0.66341(10)
C20A C 1.2398(2) 0.17668(10) -0.73737(10)
H16A H 1.0957 0.1573 -0.7210
C21A C 1.3272(3) 0.11071(11) -0.83463(11)
H17A H 1.2413 0.0475 -0.8833
C22A C 1.2818(2) 0.34674(11) -0.56072(11)
H18A H 1.3800 0.4080 -0.5177
C23A C 1.0792(2) 0.33714(10) -0.52124(10)
H19A H 0.9779 0.2759 -0.5606
C24A C 1.0137(2) 0.41915(10) -0.41933(10)
H20A H 1.1237 0.4760 -0.3779
C25A C 0.8065(2) 0.41910(10) -0.38043(10)
H21A H 0.6940 0.3629 -0.4203
C26A C 0.7519(2) 0.50590(10) -0.27587(9)
C27A C 0.4496(2) 0.56857(9) -0.15660(9)
H22A H 0.5379 0.6377 -0.1300
H23A H 0.2887 0.5776 -0.1631
loop_
_geom_bond_atom_site_label_1
_geom_bond_atom_site_label_2
_geom_bond_site_symmetry_1
_geom_bond_site_symmetry_2
O1 C9 1_555 1_555
O2 C26 1_555 1_555
O3 C9 1_555 1_555
O4 C26 1_555 1_555
C1 H1 1_555 1_555
C2 C1 1_555 1_555
H2 C2 1_555 1_555
C3 C2 1_555 1_555
H3 C3 1_555 1_555
C4 C3 1_555 1_555
C5 C4 1_555 1_555
H4 C5 1_555 1_555
C6 C5 1_555 1_555
H5 C6 1_555 1_555
C7 C6 1_555 1_555
H6 C7 1_555 1_555
C8 C7 1_555 1_555
H7 C8 1_555 1_555
C9 C8 1_555 1_555
C10 O1 1_555 1_555
H8 C10 1_555 1_555
H9 C10 1_555 1_555
C11 C10 1_555 1_555
C12 C11 1_555 1_555
H10 C12 1_555 1_555
C13 C11 1_555 1_555
C14 C4 1_555 1_555
H11 C14 1_555 1_555
C15 C1 1_555 1_555
H12 C15 1_555 1_555
C16 H13 1_555 1_555
C17 C16 1_555 1_555
H14 C17 1_555 1_555
C18 C17 1_555 1_555
H15 C18 1_555 1_555
C19 C18 1_555 1_555
C20 C19 1_555 1_555
H16 C20 1_555 1_555
C21 C16 1_555 1_555
H17 C21 1_555 1_555
C22 C19 1_555 1_555
H18 C22 1_555 1_555
C23 C22 1_555 1_555
H19 C23 1_555 1_555
C24 C23 1_555 1_555
H20 C24 1_555 1_555
C25 C24 1_555 1_555
H21 C25 1_555 1_555
C26 C25 1_555 1_555
C27 O2 1_555 1_555
H22 C27 1_555 1_555
H23 C27 1_555 1_555
O1A C9A 1_555 1_555
O2A C26A 1_555 1_555
O3A C9A 1_555 1_555
O4A C26A 1_555 1_555
C1A H1A 1_555 1_555
C2A C1A 1_555 1_555
H2A C2A 1_555 1_555
C3A C2A 1_555 1_555
H3A C3A 1_555 1_555
C4A C3A 1_555 1_555
C5A C4A 1_555 1_555
H4A C5A 1_555 1_555
C6A C5A 1_555 1_555
H5A C6A 1_555 1_555
C7A C6A 1_555 1_555
H6A C7A 1_555 1_555
C8A C7A 1_555 1_555
H7A C8A 1_555 1_555
C9A C8A 1_555 1_555
C10A O1A 1_555 1_555
H8A C10A 1_555 1_555
H9A C10A 1_555 1_555
C11A C10A 1_555 1_555
C12A C13 1_555 1_555
H10A C12A 1_555 1_555
C13A C12 1_555 1_555
C14A C4A 1_555 1_555
H11A C14A 1_555 1_555
C15A C1A 1_555 1_555
H12A C15A 1_555 1_555
C16A H13A 1_555 1_555
C17A C16A 1_555 1_555
H14A C17A 1_555 1_555
C18A C17A 1_555 1_555
H15A C18A 1_555 1_555
C19A C18A 1_555 1_555
C20A C19A 1_555 1_555
H16A C20A 1_555 1_555
C21A C16A 1_555 1_555
H17A C21A 1_555 1_555
C22A C19A 1_555 1_555
H18A C22A 1_555 1_555
C23A C22A 1_555 1_555
H19A C23A 1_555 1_555
C24A C23A 1_555 1_555
H20A C24A 1_555 1_555
C25A C24A 1_555 1_555
H21A C25A 1_555 1_555
C26A C25A 1_555 1_555
C27A O2A 1_555 1_555
H22A C27A 1_555 1_555
H23A C27A 1_555 1_555
C13 C27 1_555 1_555
C14 C15 1_555 1_555
C20 C21 1_555 1_555
C11A C12A 1_555 1_555
C11A C13A 1_555 1_555
C13A C27A 1_555 1_555
C14A C15A 1_555 1_555
C20A C21A 1_555 1_555

#END
