
#######################################################################
#
#                 Cambridge Crystallographic Data Centre
#                                CCDC 
#
#######################################################################
#
# If this CIF has been generated from an entry in the Cambridge 
# Structural Database, then it will include bibliographic, chemical, 
# crystal, experimental, refinement or atomic coordinate data resulting 
# from the CCDC's data processing and validation procedures.
#
#######################################################################

data_PETKEG
_chemical_formula_moiety         'C8 H8 F1 N1 O1'
_chemical_name_systematic        3-Fluoro-N-methylbenzamide
_symmetry_cell_setting           orthorhombic
_symmetry_space_group_name_H-M   'P b c a'
_symmetry_Int_Tables_number      61
_space_group_name_Hall           '-P 2ac 2ab'
loop_
_symmetry_equiv_pos_site_id
_symmetry_equiv_pos_as_xyz
1 x,y,z
2 1/2+x,1/2-y,-z
3 -x,1/2+y,1/2-z
4 1/2-x,-y,1/2+z
5 -x,-y,-z
6 1/2-x,1/2+y,z
7 x,1/2-y,1/2+z
8 1/2+x,y,1/2-z
_cell_length_a                   9.7830(6)
_cell_length_b                   9.5402(6)
_cell_length_c                   15.4045(9)
_cell_angle_alpha                90
_cell_angle_beta                 90
_cell_angle_gamma                90
_cell_volume                     1437.73
_exptl_crystal_colour            colorless
_exptl_crystal_description       Needles
_cell_formula_units_Z            8
loop_
_atom_site_label
_atom_site_type_symbol
_atom_site_fract_x
_atom_site_fract_y
_atom_site_fract_z
F1 F 0.27215(10) 1.20866(11) 0.70249(7)
O1 O 0.23334(10) 0.81835(11) 0.48856(7)
N1 N 0.44467(13) 0.72569(14) 0.47812(8)
H1 H 0.5288 0.7242 0.4982
C1 C 0.40373(14) 0.91039(15) 0.58315(10)
C2 C 0.31564(15) 1.01665(15) 0.61059(10)
H2 H 0.2285 1.0282 0.5844
C3 C 0.35764(15) 1.10458(16) 0.67650(10)
C4 C 0.48197(16) 1.09190(17) 0.71764(10)
H3 H 0.5074 1.1536 0.7633
C5 C 0.56898(16) 0.98580(17) 0.69013(11)
H4 H 0.6555 0.9748 0.7172
C6 C 0.53132(15) 0.89575(16) 0.62361(10)
H5 H 0.5922 0.8239 0.6054
C7 C 0.35426(14) 0.81443(15) 0.51285(10)
C8 C 0.40701(16) 0.63161(18) 0.40781(11)
H6 H 0.3489 0.5564 0.4305
H7 H 0.4898 0.5910 0.3823
H8 H 0.3570 0.6840 0.3633
loop_
_geom_bond_atom_site_label_1
_geom_bond_atom_site_label_2
_geom_bond_site_symmetry_1
_geom_bond_site_symmetry_2
F1 C3 1_555 1_555
O1 C7 1_555 1_555
N1 H1 1_555 1_555
C1 C2 1_555 1_555
C2 H2 1_555 1_555
C3 C2 1_555 1_555
C4 C3 1_555 1_555
H3 C4 1_555 1_555
C5 C4 1_555 1_555
H4 C5 1_555 1_555
C6 C1 1_555 1_555
H5 C6 1_555 1_555
C7 N1 1_555 1_555
C8 N1 1_555 1_555
H6 C8 1_555 1_555
H7 C8 1_555 1_555
H8 C8 1_555 1_555
C1 C7 1_555 1_555
C5 C6 1_555 1_555

#END
