
#######################################################################
#
#                 Cambridge Crystallographic Data Centre
#                                CCDC 
#
#######################################################################
#
# If this CIF has been generated from an entry in the Cambridge 
# Structural Database, then it will include bibliographic, chemical, 
# crystal, experimental, refinement or atomic coordinate data resulting 
# from the CCDC's data processing and validation procedures.
#
#######################################################################

data_PETKAC
_chemical_formula_moiety         'C8 H8 F1 N1 O1'
_chemical_name_systematic        4-Fluoro-N-methylbenzamide
_symmetry_cell_setting           orthorhombic
_symmetry_space_group_name_H-M   'P b c a'
_symmetry_Int_Tables_number      61
_space_group_name_Hall           '-P 2ac 2ab'
loop_
_symmetry_equiv_pos_site_id
_symmetry_equiv_pos_as_xyz
1 x,y,z
2 1/2+x,1/2-y,-z
3 -x,1/2+y,1/2-z
4 1/2-x,-y,1/2+z
5 -x,-y,-z
6 1/2-x,1/2+y,z
7 x,1/2-y,1/2+z
8 1/2+x,y,1/2-z
_cell_length_a                   10.9014(5)
_cell_length_b                   9.9282(4)
_cell_length_c                   13.3080(6)
_cell_angle_alpha                90
_cell_angle_beta                 90
_cell_angle_gamma                90
_cell_volume                     1440.34
_exptl_crystal_colour            colorless
_exptl_crystal_description       'small thin plate'
_cell_formula_units_Z            8
loop_
_atom_site_label
_atom_site_type_symbol
_atom_site_fract_x
_atom_site_fract_y
_atom_site_fract_z
N1 N 0.21988(9) 0.98010(10) 0.38056(7)
H1 H 0.2371 1.0666 0.3786
O1 O 0.29077(8) 0.76783(8) 0.38256(7)
F1 F 0.79859(7) 1.06754(8) 0.36405(6)
C1 C 0.43945(11) 0.94272(11) 0.37272(8)
C2 C 0.53404(11) 0.85498(12) 0.39859(9)
H2 H 0.5150 0.7653 0.4180
C3 C 0.65537(11) 0.89630(12) 0.39648(9)
H3 H 0.7197 0.8368 0.4151
C4 C 0.67984(11) 1.02613(12) 0.36659(8)
C5 C 0.58956(11) 1.11571(12) 0.33867(9)
H4 H 0.6098 1.2043 0.3173
C6 C 0.46849(11) 1.07354(11) 0.34251(9)
H5 H 0.4048 1.1341 0.3245
C7 C 0.31081(10) 0.89048(11) 0.37877(8)
C8 C 0.09303(11) 0.93715(12) 0.38561(9)
H6 H 0.0711 0.8902 0.3234
H7 H 0.0400 1.0160 0.3941
H8 H 0.0822 0.8761 0.4428
loop_
_geom_bond_atom_site_label_1
_geom_bond_atom_site_label_2
_geom_bond_site_symmetry_1
_geom_bond_site_symmetry_2
N1 H1 1_555 1_555
O1 C7 1_555 1_555
F1 C4 1_555 1_555
C1 C2 1_555 1_555
C2 H2 1_555 1_555
C3 C2 1_555 1_555
H3 C3 1_555 1_555
C4 C3 1_555 1_555
C5 C4 1_555 1_555
H4 C5 1_555 1_555
C6 C1 1_555 1_555
H5 C6 1_555 1_555
C7 N1 1_555 1_555
C8 N1 1_555 1_555
H6 C8 1_555 1_555
H7 C8 1_555 1_555
H8 C8 1_555 1_555
C1 C7 1_555 1_555
C5 C6 1_555 1_555

#END
