
#######################################################################
#
#                 Cambridge Crystallographic Data Centre
#                                CCDC 
#
#######################################################################
#
# If this CIF has been generated from an entry in the Cambridge 
# Structural Database, then it will include bibliographic, chemical, 
# crystal, experimental, refinement or atomic coordinate data resulting 
# from the CCDC's data processing and validation procedures.
#
#######################################################################

data_PETNIN
_chemical_formula_moiety         'C10 H8 N4,C7 H2 F4 I1 N1 O1'
_chemical_name_systematic        
"N-Hydroxy-1-(2,3,5,6-tetrafluoro-4-iodophenyl)methanimine 4,4'-diazene-1,2-diyldipyridine"
_symmetry_cell_setting           monoclinic
_symmetry_space_group_name_H-M   'C 2/c'
_symmetry_Int_Tables_number      15
_space_group_name_Hall           '-C 2yn'
loop_
_symmetry_equiv_pos_site_id
_symmetry_equiv_pos_as_xyz
1 x,y,z
2 -x,y,1/2-z
3 1/2+x,1/2+y,z
4 1/2-x,1/2+y,1/2-z
5 -x,-y,-z
6 x,-y,1/2+z
7 1/2-x,1/2-y,-z
8 1/2+x,1/2-y,1/2+z
_cell_length_a                   17.6282(7)
_cell_length_b                   6.3167(3)
_cell_length_c                   31.7318(14)
_cell_angle_alpha                90
_cell_angle_beta                 96.518(2)
_cell_angle_gamma                90
_cell_volume                     3510.56
_exptl_crystal_colour            orange
_exptl_crystal_description       plate
_cell_formula_units_Z            8
loop_
_atom_site_label
_atom_site_type_symbol
_atom_site_fract_x
_atom_site_fract_y
_atom_site_fract_z
N1 N 0.69588(8) 0.5108(2) 0.21526(5)
C1 C 0.74795(10) 0.5603(3) 0.18921(6)
H1 H 0.7685 0.6995 0.1906
C2 C 0.77328(9) 0.4210(2) 0.16066(5)
H2 H 0.8100 0.4628 0.1426
C3 C 0.74367(8) 0.2177(3) 0.15904(5)
N2 N 0.76434(8) 0.0582(2) 0.13054(5)
C4 C 0.69153(9) 0.1602(3) 0.18647(5)
H3 H 0.6717 0.0204 0.1865
C5 C 0.66910(9) 0.3121(3) 0.21388(6)
H4 H 0.6330 0.2738 0.2326
N3 N 0.86401(8) -0.3125(2) 0.01388(5)
C6 C 0.81156(10) -0.3636(3) 0.03939(6)
H5 H 0.7895 -0.5009 0.0368
C7 C 0.78768(9) -0.2283(3) 0.06929(5)
H6 H 0.7499 -0.2703 0.0867
C8 C 0.82058(9) -0.0284(3) 0.07322(5)
N4 N 0.80119(8) 0.1290(2) 0.10237(5)
C9 C 0.87433(9) 0.0291(3) 0.04645(6)
H7 H 0.8967 0.1661 0.0480
C10 C 0.89419(10) -0.1191(3) 0.01757(6)
H8 H 0.9313 -0.0810 -0.0006
C11 C 0.50959(9) 0.5161(3) 0.33929(5)
C12 C 0.53901(8) 0.3158(3) 0.34950(5)
F1 F 0.59527(6) 0.23616(16) 0.32932(4)
C13 C 0.51264(8) 0.1922(2) 0.38045(5)
F2 F 0.54624(5) 0.00380(16) 0.38893(3)
C14 C 0.45447(8) 0.2589(2) 0.40321(5)
I1 I 0.414643(5) 0.072635(16) 0.450479(3)
C15 C 0.42431(9) 0.4567(3) 0.39310(5)
F3 F 0.36721(6) 0.53166(16) 0.41355(3)
C16 C 0.45076(9) 0.5802(2) 0.36216(5)
F4 F 0.41784(5) 0.77011(15) 0.35378(3)
C17 C 0.53701(9) 0.6589(3) 0.30805(5)
H9 H 0.5155 0.7964 0.3042
N5 N 0.58941(8) 0.6011(2) 0.28597(5)
O1 O 0.60776(7) 0.7608(2) 0.25895(4)
H10 H 0.6380(13) 0.699(4) 0.2455(7)
loop_
_geom_bond_atom_site_label_1
_geom_bond_atom_site_label_2
_geom_bond_site_symmetry_1
_geom_bond_site_symmetry_2
N1 C1 1_555 1_555
C1 H1 1_555 1_555
C2 C1 1_555 1_555
H2 C2 1_555 1_555
C3 C2 1_555 1_555
N2 C3 1_555 1_555
C4 C3 1_555 1_555
H3 C4 1_555 1_555
C5 N1 1_555 1_555
H4 C5 1_555 1_555
N3 C6 1_555 1_555
C6 H5 1_555 1_555
C7 C6 1_555 1_555
H6 C7 1_555 1_555
C8 C7 1_555 1_555
N4 N2 1_555 1_555
C9 C8 1_555 1_555
H7 C9 1_555 1_555
C10 N3 1_555 1_555
H8 C10 1_555 1_555
C11 C12 1_555 1_555
C12 F1 1_555 1_555
C13 C12 1_555 1_555
F2 C13 1_555 1_555
C14 C13 1_555 1_555
I1 C14 1_555 1_555
C15 C14 1_555 1_555
F3 C15 1_555 1_555
C16 C11 1_555 1_555
F4 C16 1_555 1_555
C17 C11 1_555 1_555
H9 C17 1_555 1_555
N5 C17 1_555 1_555
O1 N5 1_555 1_555
H10 O1 1_555 1_555
C4 C5 1_555 1_555
C8 N4 1_555 1_555
C9 C10 1_555 1_555
C15 C16 1_555 1_555

#END
