
#######################################################################
#
#                 Cambridge Crystallographic Data Centre
#                                CCDC 
#
#######################################################################
#
# If this CIF has been generated from an entry in the Cambridge 
# Structural Database, then it will include bibliographic, chemical, 
# crystal, experimental, refinement or atomic coordinate data resulting 
# from the CCDC's data processing and validation procedures.
#
#######################################################################

data_PETPIN
_chemical_formula_moiety         'C28 H78 B8 N4 Na2 Si4'
_chemical_name_systematic        
bis((\m~2~-bis(\m~2~-Hydrido)-nido-2,3-bis(trimethylsilyl)-2,3-dicarbahexaborane(5))-N,N,N',N'-tetramethylethylenediamine-sodium)
_symmetry_cell_setting           monoclinic
_symmetry_space_group_name_H-M   'P 21/n'
_symmetry_Int_Tables_number      14
_space_group_name_Hall           '-P 2yn'
loop_
_symmetry_equiv_pos_site_id
_symmetry_equiv_pos_as_xyz
1 x,y,z
2 1/2-x,1/2+y,1/2-z
3 -x,-y,-z
4 1/2+x,1/2-y,1/2+z
_cell_length_a                   11.411(4)
_cell_length_b                   12.271(4)
_cell_length_c                   17.769(7)
_cell_angle_alpha                90
_cell_angle_beta                 104.43(3)
_cell_angle_gamma                90
_cell_volume                     2409.6
_exptl_crystal_colour            colorless
_cell_formula_units_Z            2
loop_
_atom_site_label
_atom_site_type_symbol
_atom_site_fract_x
_atom_site_fract_y
_atom_site_fract_z
Na1 Na 1.0849(2) 0.1293(1) 0.0675(1)
Si1 Si 0.7345(1) 0.2107(1) 0.0439(1)
Si2 Si 0.8758(1) 0.1660(1) 0.2630(1)
C1 C 0.8503(4) 0.1091(3) 0.0946(2)
C2 C 0.9072(4) 0.0916(3) 0.1788(2)
B1 B 0.9714(5) -0.0189(5) 0.1918(4)
B2 B 0.9425(5) -0.0825(5) 0.0995(3)
B3 B 0.8673(5) 0.0135(5) 0.0433(3)
B4 B 0.8274(5) -0.0164(5) 0.1322(3)
C3 C 0.7303(6) 0.3447(5) 0.0922(3)
C4 C 0.5818(4) 0.1475(5) 0.0229(3)
C5 C 0.7703(5) 0.2466(5) -0.0495(3)
C6 C 0.9449(5) 0.3055(4) 0.2715(3)
C7 C 0.7110(4) 0.1721(5) 0.2596(3)
C8 C 0.9500(5) 0.0934(5) 0.3549(3)
N1 N 1.1816(4) 0.3120(3) 0.0631(3)
N2 N 1.2744(3) 0.1329(3) 0.1802(2)
C9 C 1.2756(6) 0.3218(5) 0.1345(4)
C10 C 1.3411(5) 0.2263(5) 0.1641(4)
C11 C 1.0977(7) 0.3991(6) 0.0620(5)
C12 C 1.2302(8) 0.3221(6) -0.0036(4)
C13 C 1.2503(6) 0.1420(6) 0.2557(3)
C14 C 1.3488(5) 0.0372(5) 0.1815(4)
H1 H 1.0335(40) -0.0393(34) 0.1395(25)
H2 H 1.0095(38) -0.0534(35) 0.2450(25)
H3 H 0.9630(36) -0.1672(38) 0.0899(22)
H4 H 1.1917(35) -0.0040(32) 0.0121(23)
H5 H 0.7455(34) -0.0462(28) 0.1415(20)
H6 H 0.8091 0.3775 0.1026
H7 H 0.7081 0.3335 0.1403
H8 H 0.6734 0.3919 0.0593
H9 H 0.5839 0.0788 -0.0026
H10 H 0.5237 0.1944 -0.0101
H11 H 0.5593 0.1360 0.0708
H12 H 0.8488 0.2799 -0.0388
H13 H 0.7109 0.2969 -0.0776
H14 H 0.7700 0.1821 -0.0800
H15 H 1.0295 0.2994 0.2737
H16 H 0.9350 0.3401 0.3180
H17 H 0.9058 0.3484 0.2272
H18 H 0.6790 0.0994 0.2553
H19 H 0.6700 0.2139 0.2151
H20 H 0.6992 0.2056 0.3059
H21 H 1.0355 0.0889 0.3597
H22 H 0.9170 0.0213 0.3533
H23 H 0.9356 0.1321 0.3987
H24 H 1.3311 0.3773 0.1272
H25 H 1.2389 0.3470 0.1743
H26 H 1.4012 0.2448 0.2106
H27 H 1.3829 0.2041 0.1261
H28 H 1.1381 0.4673 0.0601
H29 H 1.0711 0.3953 0.1091
H30 H 1.0292 0.3936 0.0181
H31 H 1.2669 0.3922 -0.0051
H32 H 1.1667 0.3120 -0.0500
H33 H 1.2900 0.2662 -0.0003
H34 H 1.3249 0.1423 0.2953
H35 H 1.2007 0.0826 0.2647
H36 H 1.2085 0.2096 0.2572
H37 H 1.4187 0.0414 0.2246
H38 H 1.3740 0.0325 0.1339
H39 H 1.3024 -0.0263 0.1868
Na1B Na 0.9151(2) -0.1293(1) -0.0675(1)
C1B C 1.1497(4) -0.1091(3) -0.0946(2)
Si1B Si 1.2655(1) -0.2107(1) -0.0439(1)
C3B C 1.2697(6) -0.3447(5) -0.0922(3)
H6B H 1.1909 -0.3775 -0.1026
H7B H 1.2919 -0.3335 -0.1403
H8B H 1.3266 -0.3919 -0.0593
C4B C 1.4182(4) -0.1475(5) -0.0229(3)
H9B H 1.4161 -0.0788 0.0026
H10B H 1.4763 -0.1944 0.0101
H11B H 1.4407 -0.1360 -0.0708
C5B C 1.2297(5) -0.2466(5) 0.0495(3)
H12B H 1.1512 -0.2799 0.0388
H13B H 1.2891 -0.2969 0.0776
H14B H 1.2300 -0.1821 0.0800
C2B C 1.0928(4) -0.0916(3) -0.1788(2)
B2B B 1.0575(5) 0.0825(5) -0.0995(3)
B3B B 1.1327(5) -0.0135(5) -0.0433(3)
N1B N 0.8184(4) -0.3120(3) -0.0631(3)
C9B C 0.7244(6) -0.3218(5) -0.1345(4)
C10B C 0.6589(5) -0.2263(5) -0.1641(4)
N2B N 0.7256(3) -0.1329(3) -0.1802(2)
H1B H 0.9665(40) 0.0393(34) -0.1395(25)
B1B B 1.0286(5) 0.0189(5) -0.1918(4)
Si2B Si 1.1242(1) -0.1660(1) -0.2630(1)
C6B C 1.0551(5) -0.3055(4) -0.2715(3)
H15B H 0.9705 -0.2994 -0.2737
H16B H 1.0650 -0.3401 -0.3180
H17B H 1.0942 -0.3484 -0.2272
C7B C 1.2890(4) -0.1721(5) -0.2596(3)
H18B H 1.3210 -0.0994 -0.2553
H19B H 1.3300 -0.2139 -0.2151
H20B H 1.3008 -0.2056 -0.3059
C8B C 1.0500(5) -0.0934(5) -0.3549(3)
H21B H 0.9645 -0.0889 -0.3597
H22B H 1.0830 -0.0213 -0.3533
H23B H 1.0644 -0.1321 -0.3987
B4B B 1.1726(5) 0.0164(5) -0.1322(3)
H3B H 1.0370(36) 0.1672(38) -0.0899(22)
H4B H 0.8083(35) 0.0040(32) -0.0121(23)
H5B H 1.2545(34) 0.0462(28) -0.1415(20)
H2B H 0.9905(38) 0.0534(35) -0.2450(25)
C13B C 0.7497(6) -0.1420(6) -0.2557(3)
H34B H 0.6751 -0.1423 -0.2953
H35B H 0.7993 -0.0826 -0.2647
H36B H 0.7915 -0.2096 -0.2572
C14B C 0.6512(5) -0.0372(5) -0.1815(4)
H37B H 0.5813 -0.0414 -0.2246
H38B H 0.6260 -0.0325 -0.1339
H39B H 0.6976 0.0263 -0.1868
H26B H 0.5988 -0.2448 -0.2106
H27B H 0.6171 -0.2041 -0.1261
H24B H 0.6689 -0.3773 -0.1272
H25B H 0.7611 -0.3470 -0.1743
C11B C 0.9023(7) -0.3991(6) -0.0620(5)
H28B H 0.8619 -0.4673 -0.0601
H29B H 0.9289 -0.3953 -0.1091
H30B H 0.9708 -0.3936 -0.0181
C12B C 0.7698(8) -0.3221(6) 0.0036(4)
H31B H 0.7331 -0.3922 0.0051
H32B H 0.8333 -0.3120 0.0500
H33B H 0.7100 -0.2662 0.0003
loop_
_geom_bond_atom_site_label_1
_geom_bond_atom_site_label_2
_geom_bond_site_symmetry_1
_geom_bond_site_symmetry_2
Na1 C1 1_555 1_555
Si1 C1 1_555 1_555
Si2 C2 1_555 1_555
C1 C2 1_555 1_555
C2 Na1 1_555 1_555
B1 C2 1_555 1_555
B2 B1 1_555 1_555
B3 Na1 1_555 1_555
B4 C1 1_555 1_555
C3 Si1 1_555 1_555
C4 Si1 1_555 1_555
C5 Si1 1_555 1_555
C6 Si2 1_555 1_555
C7 Si2 1_555 1_555
C8 Si2 1_555 1_555
N1 Na1 1_555 1_555
N2 Na1 1_555 1_555
C9 N1 1_555 1_555
C10 N2 1_555 1_555
C11 N1 1_555 1_555
C12 N1 1_555 1_555
C13 N2 1_555 1_555
C14 N2 1_555 1_555
H1 Na1 1_555 1_555
H2 B1 1_555 1_555
H3 B2 1_555 1_555
H4 Na1 1_555 1_555
H5 B4 1_555 1_555
H6 C3 1_555 1_555
H7 C3 1_555 1_555
H8 C3 1_555 1_555
H9 C4 1_555 1_555
H10 C4 1_555 1_555
H11 C4 1_555 1_555
H12 C5 1_555 1_555
H13 C5 1_555 1_555
H14 C5 1_555 1_555
H15 C6 1_555 1_555
H16 C6 1_555 1_555
H17 C6 1_555 1_555
H18 C7 1_555 1_555
H19 C7 1_555 1_555
H20 C7 1_555 1_555
H21 C8 1_555 1_555
H22 C8 1_555 1_555
H23 C8 1_555 1_555
H24 C9 1_555 1_555
H25 C9 1_555 1_555
H26 C10 1_555 1_555
H27 C10 1_555 1_555
H28 C11 1_555 1_555
H29 C11 1_555 1_555
H30 C11 1_555 1_555
H31 C12 1_555 1_555
H32 C12 1_555 1_555
H33 C12 1_555 1_555
H34 C13 1_555 1_555
H35 C13 1_555 1_555
H36 C13 1_555 1_555
H37 C14 1_555 1_555
H38 C14 1_555 1_555
H39 C14 1_555 1_555
Na1B H3 1_555 1_555
C1B Na1B 1_555 1_555
Si1B C1B 1_555 1_555
C3B Si1B 1_555 1_555
H6B C3B 1_555 1_555
H7B C3B 1_555 1_555
H8B C3B 1_555 1_555
C4B Si1B 1_555 1_555
H9B C4B 1_555 1_555
H10B C4B 1_555 1_555
H11B C4B 1_555 1_555
C5B Si1B 1_555 1_555
H12B C5B 1_555 1_555
H13B C5B 1_555 1_555
H14B C5B 1_555 1_555
C2B Na1B 1_555 1_555
B2B B3B 1_555 1_555
B3B H4 1_555 1_555
N1B Na1B 1_555 1_555
C9B N1B 1_555 1_555
C10B C9B 1_555 1_555
N2B Na1B 1_555 1_555
H1B Na1B 1_555 1_555
B1B C2B 1_555 1_555
Si2B C2B 1_555 1_555
C6B Si2B 1_555 1_555
H15B C6B 1_555 1_555
H16B C6B 1_555 1_555
H17B C6B 1_555 1_555
C7B Si2B 1_555 1_555
H18B C7B 1_555 1_555
H19B C7B 1_555 1_555
H20B C7B 1_555 1_555
C8B Si2B 1_555 1_555
H21B C8B 1_555 1_555
H22B C8B 1_555 1_555
H23B C8B 1_555 1_555
B4B C1B 1_555 1_555
H3B Na1 1_555 1_555
H4B B3 1_555 1_555
H5B B4B 1_555 1_555
H2B B1B 1_555 1_555
C13B N2B 1_555 1_555
H34B C13B 1_555 1_555
H35B C13B 1_555 1_555
H36B C13B 1_555 1_555
C14B N2B 1_555 1_555
H37B C14B 1_555 1_555
H38B C14B 1_555 1_555
H39B C14B 1_555 1_555
H26B C10B 1_555 1_555
H27B C10B 1_555 1_555
H24B C9B 1_555 1_555
H25B C9B 1_555 1_555
C11B N1B 1_555 1_555
H28B C11B 1_555 1_555
H29B C11B 1_555 1_555
H30B C11B 1_555 1_555
C12B N1B 1_555 1_555
H31B C12B 1_555 1_555
H32B C12B 1_555 1_555
H33B C12B 1_555 1_555
C1 B3 1_555 1_555
C2 B4 1_555 1_555
B1 H1 1_555 1_555
B1 B4 1_555 1_555
B2 B3 1_555 1_555
B2 B4 1_555 1_555
B2 H1 1_555 1_555
B3 B4 1_555 1_555
C9 C10 1_555 1_555
Na1B B3B 1_555 1_555
Na1B H4B 1_555 1_555
C1B C2B 1_555 1_555
C1B B3B 1_555 1_555
C2B B4B 1_555 1_555
B2B H3B 1_555 1_555
B2B B1B 1_555 1_555
B2B B4B 1_555 1_555
B2B H1B 1_555 1_555
B3B B4B 1_555 1_555
C10B N2B 1_555 1_555
H1B B1B 1_555 1_555
B1B B4B 1_555 1_555

#END
