
#######################################################################
#
#                 Cambridge Crystallographic Data Centre
#                                CCDC 
#
#######################################################################
#
# If this CIF has been generated from an entry in the Cambridge 
# Structural Database, then it will include bibliographic, chemical, 
# crystal, experimental, refinement or atomic coordinate data resulting 
# from the CCDC's data processing and validation procedures.
#
#######################################################################

data_PETPEL
_chemical_formula_moiety         'C10 H9 N4 1+,C7 F4 I1 O2 1-'
_chemical_name_systematic        
"4,4'-diazene-1,2-diyldipyridinium 4-iodo-2,3,5,6-tetrafluorobenzoate"
_symmetry_cell_setting           triclinic
_symmetry_space_group_name_H-M   'P 1'
_symmetry_Int_Tables_number      1
_space_group_name_Hall           'P 1'
loop_
_symmetry_equiv_pos_site_id
_symmetry_equiv_pos_as_xyz
1 x,y,z
_cell_length_a                   6.2112(8)
_cell_length_b                   8.1879(11)
_cell_length_c                   8.9824(12)
_cell_angle_alpha                84.843(3)
_cell_angle_beta                 70.837(3)
_cell_angle_gamma                77.402(3)
_cell_volume                     421.031
_exptl_crystal_colour            bronze
_exptl_crystal_description       plate
_cell_formula_units_Z            1
loop_
_atom_site_label
_atom_site_type_symbol
_atom_site_fract_x
_atom_site_fract_y
_atom_site_fract_z
N1 N 0.5934(9) 0.4231(6) 0.2876(6)
H1 H 0.5017 0.5016 0.2506
C1 C 0.8251(11) 0.4033(7) 0.2275(6)
H2 H 0.8875 0.4760 0.1435
C2 C 0.9776(9) 0.2845(6) 0.2801(6)
H3 H 1.1411 0.2745 0.2345
C3 C 0.8816(8) 0.1780(5) 0.4046(5)
C4 C 0.6412(9) 0.1966(6) 0.4713(6)
H4 H 0.5736 0.1282 0.5577
C5 C 0.5050(10) 0.3201(7) 0.4055(7)
H5 H 0.3407 0.3320 0.4463
N2 N 1.0456(10) 0.0509(7) 0.4556(6)
N3 N 1.4205(10) -0.4211(6) 0.7092(6)
C6 C 1.1926(11) -0.4073(6) 0.7698(6)
H6 H 1.1343 -0.4835 0.8516
C7 C 1.0322(9) -0.2854(6) 0.7189(5)
H7 H 0.8693 -0.2789 0.7642
C8 C 1.1215(8) -0.1754(5) 0.6004(5)
C9 C 1.3604(10) -0.1904(6) 0.5348(6)
H8 H 1.4236 -0.1156 0.4531
C10 C 1.5045(10) -0.3158(7) 0.5901(7)
H9 H 1.6681 -0.3285 0.5429
N4 N 0.9589(8) -0.0555(5) 0.5493(5)
C11 C -0.1804(11) 1.1345(10) -0.0429(9)
C12 C 0.0602(12) 1.1050(11) -0.1171(9)
C13 C 0.2074(12) 0.9736(9) -0.0654(8)
C14 C 0.1261(11) 0.8724(9) 0.0651(8)
C15 C -0.1101(11) 0.9081(9) 0.1360(8)
C16 C -0.2601(12) 1.0306(10) 0.0866(9)
C17 C -0.3524(11) 1.2688(9) -0.0879(9)
O1 O -0.2511(8) 1.3703(6) -0.2139(6)
O2 O -0.5608(8) 1.2813(6) -0.0381(5)
I1 I 0.34067(5) 0.68247(4) 0.14867(4)
F1 F 0.1539(8) 1.1931(12) -0.2465(11)
F2 F 0.4387(15) 0.9525(15) -0.1413(10)
F3 F -0.2051(10) 0.8116(15) 0.2619(12)
F4 F -0.4864(15) 1.0460(17) 0.1716(12)
C18? C 2.1832(17) -1.1297(14) 1.0434(12)
C19? C 1.9457(17) -1.1031(15) 1.1176(13)
C20? C 1.785(2) -0.9787(16) 1.0621(14)
C21? C 1.8707(18) -0.8783(15) 0.9348(14)
C22? C 2.1098(19) -0.9059(16) 0.8636(14)
C23? C 2.2604(19) -1.0261(14) 0.9127(12)
C24? C 2.3514(17) -1.2508(15) 1.0998(13)
O3? O 2.2732(14) -1.3393(10) 1.2315(10)
O4? O 2.5622(12) -1.3056(9) 1.0142(8)
I2? I 1.65973(11) -0.68317(9) 0.85183(9)
F5? F 1.853(2) -1.189(3) 1.248(2)
F6? F 1.559(3) -0.946(3) 1.142(2)
F7? F 2.2160(17) -0.813(2) 0.736(2)
F8? F 2.486(3) -1.044(3) 0.8256(19)
H10? H 1.5154 -0.4973 0.7457
loop_
_geom_bond_atom_site_label_1
_geom_bond_atom_site_label_2
_geom_bond_site_symmetry_1
_geom_bond_site_symmetry_2
N1 H1 1_555 1_555
C1 N1 1_555 1_555
H2 C1 1_555 1_555
C2 C1 1_555 1_555
H3 C2 1_555 1_555
C3 C2 1_555 1_555
C4 C3 1_555 1_555
H4 C4 1_555 1_555
C5 N1 1_555 1_555
H5 C5 1_555 1_555
N2 C3 1_555 1_555
N3 C6 1_555 1_555
C6 H6 1_555 1_555
C7 C6 1_555 1_555
H7 C7 1_555 1_555
C8 C7 1_555 1_555
C9 C8 1_555 1_555
H8 C9 1_555 1_555
C10 N3 1_555 1_555
H9 C10 1_555 1_555
N4 N2 1_555 1_555
C11 C12 1_555 1_555
C12 C13 1_555 1_555
C13 C14 1_555 1_555
C14 C15 1_555 1_555
C15 C16 1_555 1_555
C16 C11 1_555 1_555
C17 C11 1_555 1_555
O1 C17 1_555 1_555
O2 C17 1_555 1_555
I1 C14 1_555 1_555
F1 C12 1_555 1_555
F2 C13 1_555 1_555
F3 C15 1_555 1_555
F4 C16 1_555 1_555
C4 C5 1_555 1_555
C8 N4 1_555 1_555
C9 C10 1_555 1_555

#END
