
#######################################################################
#
#                 Cambridge Crystallographic Data Centre
#                                CCDC 
#
#######################################################################
#
# If this CIF has been generated from an entry in the Cambridge 
# Structural Database, then it will include bibliographic, chemical, 
# crystal, experimental, refinement or atomic coordinate data resulting 
# from the CCDC's data processing and validation procedures.
#
#######################################################################

data_PETPAH
_chemical_formula_moiety         'C10 H8 N4,C7 H1 Br1 F4 O2'
_chemical_name_systematic        
"4-Bromo-2,3,5,6-tetrafluorobenzoic acid 4,4'-diazene-1,2-diyldipyridine"
_symmetry_cell_setting           triclinic
_symmetry_space_group_name_H-M   'P -1'
_symmetry_Int_Tables_number      2
_space_group_name_Hall           '-P 1'
loop_
_symmetry_equiv_pos_site_id
_symmetry_equiv_pos_as_xyz
1 x,y,z
2 -x,-y,-z
_cell_length_a                   10.1601(6)
_cell_length_b                   13.4584(8)
_cell_length_c                   14.4512(10)
_cell_angle_alpha                112.181(4)
_cell_angle_beta                 90.560(4)
_cell_angle_gamma                111.547(4)
_cell_volume                     1676.47
_cell_formula_units_Z            4
loop_
_atom_site_label
_atom_site_type_symbol
_atom_site_fract_x
_atom_site_fract_y
_atom_site_fract_z
N1 N 0.8898(14) 0.3918(8) 0.3801(10)
C1 C 0.9643(17) 0.4108(11) 0.3081(12)
H1 H 0.9844 0.4822 0.3013
C2 C 1.0125(14) 0.3328(8) 0.2444(8)
H2 H 1.0605 0.3478 0.1921
C3 C 0.9906(11) 0.2314(8) 0.2569(8)
C4 C 0.9152(16) 0.2085(12) 0.3310(13)
H3 H 0.8983 0.1392 0.3409
C5 C 0.8645(19) 0.2928(12) 0.3914(12)
H4 H 0.8105 0.2784 0.4417
N2 N 1.0447(10) 0.1450(7) 0.1997(6)
N3 N 1.2788(11) -0.0638(10) -0.0528(9)
C6 C 1.204(2) -0.0892(14) 0.0162(15)
H5 H 1.1894 -0.1616 0.0195
C7 C 1.1465(19) -0.0210(13) 0.0822(11)
H6 H 1.0927 -0.0451 0.1290
C8 C 1.1699(15) 0.0874(9) 0.0785(9)
C9 C 1.2507(17) 0.1179(11) 0.0098(12)
H7 H 1.2726 0.1917 0.0074
C10 C 1.299(2) 0.0385(14) -0.0554(12)
H8 H 1.3497 0.0581 -0.1051
N4 N 1.1148(9) 0.1720(6) 0.1398(6)
Br1 Br 0.41943(13) 0.81015(10) 0.81724(8)
C21 C 0.6339(10) 0.5772(6) 0.6045(7)
C22 C 0.5427(10) 0.5375(6) 0.6656(6)
C23 C 0.4802(8) 0.6078(6) 0.7287(5)
C24 C 0.5088(9) 0.7179(6) 0.7307(6)
C25 C 0.6000(10) 0.7577(5) 0.6696(7)
C26 C 0.6625(9) 0.6873(5) 0.6065(6)
C27 C 0.703(2) 0.5003(14) 0.5400(15)
O1 O 0.7805(9) 0.5357(7) 0.4819(6)
H17 H 0.8315 0.4972 0.4621
O2 O 0.6881(9) 0.4052(6) 0.5429(6)
F1 F 0.5045(10) 0.4315(6) 0.6632(6)
F2 F 0.3808(16) 0.5635(9) 0.7785(11)
F3 F 0.6313(13) 0.8637(7) 0.6734(11)
F4 F 0.756(4) 0.7343(13) 0.557(3)
N9 N 0.6658(9) 0.1811(9) 0.7222(7)
C35 C 0.5601(11) 0.0820(11) 0.7156(10)
H19 H 0.5728 0.0476 0.7597
C36 C 0.4352(16) 0.0285(16) 0.6483(17)
H20 H 0.3617 -0.0407 0.6472
C37 C 0.4157(11) 0.0751(12) 0.5818(9)
C38 C 0.5213(12) 0.1793(14) 0.5873(14)
H21 H 0.5099 0.2149 0.5440
C39 C 0.6467(13) 0.2296(12) 0.6607(10)
H22 H 0.7204 0.3011 0.6664
N10 N 0.2902(9) 0.0312(7) 0.5068(7)
N11 N -0.1783(13) -0.2027(10) 0.2860(12)
C40 C -0.071(2) -0.104(2) 0.294(2)
H23 H -0.0830 -0.0699 0.2501
C41 C 0.0545(18) -0.0501(15) 0.3603(18)
H24 H 0.1265 0.0208 0.3635
C42 C 0.0745(12) -0.1025(12) 0.4242(11)
C43 C -0.0319(15) -0.2075(16) 0.4140(16)
H25 H -0.0203 -0.2474 0.4534
C44 C -0.1553(13) -0.2526(15) 0.3448(16)
H26 H -0.2291 -0.3243 0.3387
N12 N 0.1990(9) -0.0597(8) 0.5009(7)
Br3 Br 1.55757(12) 0.67026(10) 1.15425(8)
C55 C 1.1157(10) 0.4453(7) 0.9314(10)
C56 C 1.1923(12) 0.5621(8) 0.9493(13)
C57 C 1.3248(12) 0.6261(7) 1.0131(12)
C58 C 1.3786(10) 0.5775(7) 1.0653(10)
C59 C 1.3004(14) 0.4621(9) 1.0496(14)
C60 C 1.1697(8) 0.3970(7) 0.9841(8)
C61 C 0.9806(17) 0.3746(13) 0.8541(14)
O5 O 0.8972(8) 0.2796(6) 0.8560(6)
H35 H 0.8227 0.2498 0.8126
O6 O 0.9480(8) 0.4084(7) 0.7915(6)
F9 F 1.1440(11) 0.6172(6) 0.9081(5)
F10 F 1.393(2) 0.7401(9) 1.0332(19)
F11 F 1.350(2) 0.4128(11) 1.0976(19)
F12 F 1.1047(11) 0.2872(7) 0.9713(10)
N5? N 0.865(6) 0.363(4) 0.389(5)
C11? C 0.878(8) 0.267(6) 0.389(5)
H9? H 0.8346 0.2365 0.4353
C12? C 0.951(8) 0.213(4) 0.325(5)
H10? H 0.9500 0.1408 0.3222
C13? C 1.028(4) 0.263(2) 0.264(3)
C14? C 1.029(6) 0.368(3) 0.269(4)
H11? H 1.0904 0.4108 0.2361
C15? C 0.933(7) 0.409(5) 0.327(5)
H12? H 0.9162 0.4717 0.3211
N6? N 1.085(4) 0.205(2) 0.178(2)
N7? N 1.311(5) -0.044(4) -0.033(4)
C16? C 1.299(9) 0.052(6) -0.032(6)
H13? H 1.3526 0.0877 -0.0730
C17? C 1.217(7) 0.104(5) 0.024(4)
H14? H 1.2043 0.1667 0.0163
C18? C 1.152(6) 0.060(3) 0.094(3)
C19? C 1.160(8) -0.041(5) 0.092(5)
H15? H 1.1171 -0.0737 0.1382
C20? C 1.231(9) -0.093(5) 0.022(6)
H16? H 1.2222 -0.1695 0.0123
N8? N 1.080(3) 0.112(2) 0.173(2)
Br2? Br 0.7325(8) 0.4968(5) 0.5189(5)
C28? C 0.496(3) 0.7170(19) 0.721(3)
C29? C 0.621(4) 0.7706(16) 0.689(3)
C30? C 0.689(4) 0.7036(15) 0.628(4)
C31? C 0.645(3) 0.5863(14) 0.611(3)
C32? C 0.521(4) 0.5333(18) 0.643(4)
C33? C 0.451(3) 0.5995(19) 0.702(3)
C34? C 0.426(3) 0.792(2) 0.787(2)
O3? O 0.394(3) 0.7785(19) 0.8668(15)
H18? H 0.3584 0.8258 0.8991
O4? O 0.427(3) 0.8807(17) 0.7775(17)
F5? F 0.660(6) 0.878(3) 0.693(6)
F6? F 0.773(15) 0.745(5) 0.569(10)
F7? F 0.480(4) 0.423(2) 0.631(4)
F8? F 0.361(8) 0.551(3) 0.753(6)
N13? N 0.687(3) 0.197(6) 0.696(4)
C45? C 0.627(5) 0.227(6) 0.634(6)
H27? H 0.6847 0.2926 0.6208
C46? C 0.486(6) 0.169(6) 0.589(7)
H28? H 0.4456 0.1970 0.5501
C47? C 0.403(4) 0.068(4) 0.600(4)
C48? C 0.463(6) 0.031(7) 0.661(8)
H29? H 0.4113 -0.0411 0.6662
C49? C 0.604(4) 0.106(6) 0.715(5)
H30? H 0.6415 0.0905 0.7663
N14? N 0.265(4) -0.017(3) 0.539(3)
N15? N -0.165(7) -0.224(6) 0.277(6)
C50? C -0.120(8) -0.251(7) 0.347(8)
H31? H -0.1787 -0.3232 0.3497
C51? C 0.002(7) -0.183(7) 0.417(8)
H32? H 0.0292 -0.2065 0.4654
C52? C 0.089(6) -0.075(5) 0.414(6)
C53? C 0.034(8) -0.038(6) 0.351(8)
H33? H 0.0829 0.0383 0.3531
C54? C -0.094(11) -0.115(8) 0.285(10)
H34? H -0.1331 -0.0886 0.2441
N16? N 0.229(4) 0.007(4) 0.474(3)
Br4? Br 0.9453(7) 0.3463(6) 0.8377(6)
C62? C 1.377(4) 0.593(3) 1.066(4)
C63? C 1.310(6) 0.475(3) 1.048(6)
C64? C 1.193(4) 0.400(3) 0.971(4)
C65? C 1.129(4) 0.445(2) 0.920(5)
C66? C 1.192(5) 0.563(3) 0.941(5)
C67? C 1.313(5) 0.637(2) 1.015(5)
C68? C 1.527(3) 0.662(3) 1.126(4)
O7? O 1.567(3) 0.626(3) 1.185(2)
H36? H 1.6499 0.6744 1.2172
O8? O 1.614(3) 0.746(2) 1.112(3)
F13? F 1.365(10) 0.425(5) 1.092(9)
F14? F 1.127(6) 0.288(3) 0.958(6)
F15? F 1.149(5) 0.604(2) 0.881(4)
F16? F 1.376(9) 0.744(4) 1.021(9)
loop_
_geom_bond_atom_site_label_1
_geom_bond_atom_site_label_2
_geom_bond_site_symmetry_1
_geom_bond_site_symmetry_2
N1 C1 1_555 1_555
C1 H1 1_555 1_555
C2 C1 1_555 1_555
H2 C2 1_555 1_555
C3 C2 1_555 1_555
C4 C3 1_555 1_555
H3 C4 1_555 1_555
C5 N1 1_555 1_555
H4 C5 1_555 1_555
N2 C3 1_555 1_555
N3 C6 1_555 1_555
C6 H5 1_555 1_555
C7 C6 1_555 1_555
H6 C7 1_555 1_555
C8 C7 1_555 1_555
C9 C8 1_555 1_555
H7 C9 1_555 1_555
C10 N3 1_555 1_555
H8 C10 1_555 1_555
N4 N2 1_555 1_555
Br1 C24 1_555 1_555
C21 C22 1_555 1_555
C22 C23 1_555 1_555
C23 C24 1_555 1_555
C24 C25 1_555 1_555
C25 C26 1_555 1_555
C26 C21 1_555 1_555
C27 C21 1_555 1_555
O1 C27 1_555 1_555
H17 O1 1_555 1_555
O2 C27 1_555 1_555
F1 C22 1_555 1_555
F2 C23 1_555 1_555
F3 C25 1_555 1_555
F4 C26 1_555 1_555
N9 C35 1_555 1_555
C35 H19 1_555 1_555
C36 C35 1_555 1_555
H20 C36 1_555 1_555
C37 C36 1_555 1_555
C38 C37 1_555 1_555
H21 C38 1_555 1_555
C39 N9 1_555 1_555
H22 C39 1_555 1_555
N10 C37 1_555 1_555
N11 C40 1_555 1_555
C40 H23 1_555 1_555
C41 C40 1_555 1_555
H24 C41 1_555 1_555
C42 C41 1_555 1_555
C43 C42 1_555 1_555
H25 C43 1_555 1_555
C44 N11 1_555 1_555
H26 C44 1_555 1_555
N12 N10 1_555 1_555
Br3 C58 1_555 1_555
C55 C56 1_555 1_555
C56 C57 1_555 1_555
C57 C58 1_555 1_555
C58 C59 1_555 1_555
C59 C60 1_555 1_555
C60 C55 1_555 1_555
C61 C55 1_555 1_555
O5 C61 1_555 1_555
H35 O5 1_555 1_555
O6 C61 1_555 1_555
F9 C56 1_555 1_555
F10 C57 1_555 1_555
F11 C59 1_555 1_555
F12 C60 1_555 1_555
C4 C5 1_555 1_555
C8 N4 1_555 1_555
C9 C10 1_555 1_555
C38 C39 1_555 1_555
C42 N12 1_555 1_555
C43 C44 1_555 1_555

#END
