
#######################################################################
#
#                 Cambridge Crystallographic Data Centre
#                                CCDC 
#
#######################################################################
#
# If this CIF has been generated from an entry in the Cambridge 
# Structural Database, then it will include bibliographic, chemical, 
# crystal, experimental, refinement or atomic coordinate data resulting 
# from the CCDC's data processing and validation procedures.
#
#######################################################################

data_PETPIP
_chemical_formula_moiety         'C10 H8 N4,2(C7 H2 Br1 F4 N1 O1)'
_chemical_name_systematic        
"1-(4-Bromo-2,3,5,6-tetrafluorophenyl)-N-hydroxymethanimine 3,3'-diazene-1,2-diyldipyridine"
_symmetry_cell_setting           triclinic
_symmetry_space_group_name_H-M   'P -1'
_symmetry_Int_Tables_number      2
_space_group_name_Hall           '-P 1'
loop_
_symmetry_equiv_pos_site_id
_symmetry_equiv_pos_as_xyz
1 x,y,z
2 -x,-y,-z
_cell_length_a                   8.3500(8)
_cell_length_b                   8.3646(8)
_cell_length_c                   9.8996(10)
_cell_angle_alpha                105.765(3)
_cell_angle_beta                 103.151(3)
_cell_angle_gamma                99.733(3)
_cell_volume                     628
_exptl_crystal_colour            orange
_exptl_crystal_description       plate
_cell_formula_units_Z            1
loop_
_atom_site_label
_atom_site_type_symbol
_atom_site_fract_x
_atom_site_fract_y
_atom_site_fract_z
Br1 Br 0.69484(3) 1.09011(3) 0.90003(3)
C1 C 0.6696(3) 0.6372(3) 0.4834(3)
C2 C 0.5453(3) 0.7296(3) 0.4859(3)
F1 F 0.4097(2) 0.6899(2) 0.36964(18)
C3 C 0.5542(3) 0.8624(3) 0.6080(3)
F2 F 0.4273(2) 0.9416(2) 0.60229(18)
C4 C 0.6875(3) 0.9127(3) 0.7349(3)
C5 C 0.8119(3) 0.8207(3) 0.7362(3)
F3 F 0.9424(2) 0.8600(2) 0.85587(18)
C6 C 0.8022(3) 0.6887(3) 0.6135(3)
F4 F 0.9270(2) 0.6049(2) 0.62079(19)
C7 C 0.6678(3) 0.4923(3) 0.3602(3)
H1 H 0.7564 0.4346 0.3694
N1 N 0.5480(3) 0.4427(3) 0.2403(3)
O1 O 0.5707(3) 0.3020(3) 0.1405(2)
H2 H 0.492(5) 0.288(5) 0.079(4)
N2 N 0.2842(3) 0.2591(3) -0.0736(3)
C8 C 0.2229(3) 0.1320(4) -0.2009(3)
H3 H 0.2720 0.0365 -0.2143
C9 C 0.0910(3) 0.1324(4) -0.3147(3)
N3 N 0.0465(3) -0.0109(3) -0.4453(3)
C10 C 0.0128(4) 0.2682(4) -0.2939(3)
H4 H -0.0795 0.2713 -0.3689
C11 C 0.0736(4) 0.3980(4) -0.1609(3)
H5 H 0.0225 0.4918 -0.1425
C12 C 0.2095(4) 0.3907(4) -0.0544(3)
H6 H 0.2517 0.4823 0.0358
N2A N -0.2842(3) -0.2591(3) -0.9264(3)
C8A C -0.2229(3) -0.1320(4) -0.7991(3)
H3A H -0.2720 -0.0365 -0.7857
C9A C -0.0910(3) -0.1324(4) -0.6853(3)
N3A N -0.0465(3) 0.0109(3) -0.5547(3)
C10A C -0.0128(4) -0.2682(4) -0.7061(3)
H4A H 0.0795 -0.2713 -0.6311
C11A C -0.0736(4) -0.3980(4) -0.8391(3)
H5A H -0.0225 -0.4918 -0.8575
C12A C -0.2095(4) -0.3907(4) -0.9456(3)
H6A H -0.2517 -0.4823 -1.0358
loop_
_geom_bond_atom_site_label_1
_geom_bond_atom_site_label_2
_geom_bond_site_symmetry_1
_geom_bond_site_symmetry_2
Br1 C4 1_555 1_555
C1 C2 1_555 1_555
C2 F1 1_555 1_555
C3 C2 1_555 1_555
F2 C3 1_555 1_555
C4 C3 1_555 1_555
C5 C4 1_555 1_555
F3 C5 1_555 1_555
C6 C1 1_555 1_555
F4 C6 1_555 1_555
C7 C1 1_555 1_555
H1 C7 1_555 1_555
N1 C7 1_555 1_555
O1 N1 1_555 1_555
H2 O1 1_555 1_555
N2 C8 1_555 1_555
C8 H3 1_555 1_555
C9 C8 1_555 1_555
N3 C9 1_555 1_555
C10 C9 1_555 1_555
H4 C10 1_555 1_555
C11 C10 1_555 1_555
H5 C11 1_555 1_555
C12 N2 1_555 1_555
H6 C12 1_555 1_555
N2A C8A 1_555 1_555
C8A H3A 1_555 1_555
C9A C8A 1_555 1_555
N3A N3 1_555 1_555
C10A C9A 1_555 1_555
H4A C10A 1_555 1_555
C11A C10A 1_555 1_555
H5A C11A 1_555 1_555
C12A N2A 1_555 1_555
H6A C12A 1_555 1_555
C5 C6 1_555 1_555
C11 C12 1_555 1_555
C9A N3A 1_555 1_555
C11A C12A 1_555 1_555

#END
