
#######################################################################
#
#                 Cambridge Crystallographic Data Centre
#                                CCDC 
#
#######################################################################
#
# If this CIF has been generated from an entry in the Cambridge 
# Structural Database, then it will include bibliographic, chemical, 
# crystal, experimental, refinement or atomic coordinate data resulting 
# from the CCDC's data processing and validation procedures.
#
#######################################################################

data_PETQIQ
_chemical_formula_moiety         'C10 H10 N4 2+,2(C7 F4 I1 O2 1-)'
_chemical_name_systematic        
"3,3'-diazene-1,2-diyldipyridinium bis(4-iodo-2,3,5,6-tetrafluorobenzoate)"
_symmetry_cell_setting           monoclinic
_symmetry_space_group_name_H-M   'P 21/c'
_symmetry_Int_Tables_number      14
_space_group_name_Hall           '-P 2ybc'
loop_
_symmetry_equiv_pos_site_id
_symmetry_equiv_pos_as_xyz
1 x,y,z
2 -x,1/2+y,1/2-z
3 -x,-y,-z
4 x,1/2-y,1/2+z
_cell_length_a                   4.9020(3)
_cell_length_b                   21.4561(12)
_cell_length_c                   12.1298(7)
_cell_angle_alpha                90
_cell_angle_beta                 100.151(2)
_cell_angle_gamma                90
_cell_volume                     1255.82
_exptl_crystal_colour            orange
_exptl_crystal_description       rod
_cell_formula_units_Z            2
loop_
_atom_site_label
_atom_site_type_symbol
_atom_site_fract_x
_atom_site_fract_y
_atom_site_fract_z
N1 N -0.0676(3) 0.01018(7) 0.74150(13)
H1 H 0.095(5) 0.0424(11) 0.7007(19)
C1 C -0.1425(4) 0.02582(8) 0.83839(15)
H2 H -0.0653 0.0621 0.8766
C2 C -0.3301(3) -0.00962(8) 0.88449(15)
N2 N -0.3986(3) 0.01357(7) 0.98623(13)
C3 C -0.4335(4) -0.06410(9) 0.83147(16)
H3 H -0.5590 -0.0896 0.8626
C4 C -0.3497(4) -0.08047(9) 0.73222(17)
H4 H -0.4147 -0.1178 0.6945
C5 C -0.1699(4) -0.04163(9) 0.68874(16)
H5 H -0.1176 -0.0521 0.6193
N1B N -0.9324(3) -0.01018(7) 1.25850(13)
H1B H -1.095(5) -0.0424(11) 1.2993(19)
C1B C -0.8575(4) -0.02582(8) 1.16161(15)
H2B H -0.9347 -0.0621 1.1234
C2B C -0.6699(3) 0.00962(8) 1.11551(15)
N2B N -0.6014(3) -0.01357(7) 1.01377(13)
C3B C -0.5665(4) 0.06410(9) 1.16853(16)
H3B H -0.4410 0.0896 1.1374
C4B C -0.6503(4) 0.08047(9) 1.26778(17)
H4B H -0.5853 0.1178 1.3055
C5B C -0.8301(4) 0.04163(9) 1.31126(16)
H5B H -0.8824 0.0521 1.3807
I1 I 1.13019(2) 0.297628(5) 0.463087(9)
C6 C 0.5658(4) 0.16044(8) 0.65628(15)
C7 C 0.6296(4) 0.22116(9) 0.69268(17)
C8 C 0.7966(5) 0.25910(9) 0.64181(17)
C9 C 0.9061(4) 0.23925(9) 0.55036(15)
C10 C 0.8456(4) 0.17893(9) 0.51396(15)
C11 C 0.6807(4) 0.14055(8) 0.56519(15)
C12 C 0.3839(4) 0.11942(10) 0.71323(17)
O1 O 0.2475(3) 0.07789(7) 0.64712(12)
O2 O 0.3710(3) 0.12583(6) 0.81155(11)
F1 F 0.5178(3) 0.24600(5) 0.77546(11)
F2 F 0.8437(4) 0.31747(6) 0.68031(11)
F3 F 0.9486(4) 0.15663(6) 0.42678(12)
F4 F 0.6419(3) 0.08250(5) 0.52545(11)
I2? I 0.3175(19) 0.0992(4) 0.6929(8)
C13? C 0.904(14) 0.2491(18) 0.543(5)
C14? C 0.869(18) 0.188(2) 0.502(5)
C15? C 0.747(12) 0.1429(16) 0.557(5)
C16? C 0.612(13) 0.1578(18) 0.645(5)
C17? C 0.647(19) 0.218(2) 0.687(6)
C18? C 0.798(19) 0.261(2) 0.640(6)
C19? C 1.094(11) 0.2937(16) 0.498(5)
O3? O 1.013(13) 0.3515(16) 0.499(6)
O4? O 1.269(11) 0.274(2) 0.447(6)
F5? F 0.99(2) 0.170(3) 0.417(7)
F6? F 0.699(19) 0.087(2) 0.507(7)
F7? F 0.56(2) 0.232(2) 0.782(6)
F8? F 0.87(3) 0.313(4) 0.700(9)
loop_
_geom_bond_atom_site_label_1
_geom_bond_atom_site_label_2
_geom_bond_site_symmetry_1
_geom_bond_site_symmetry_2
N1 H1 1_555 1_555
C1 N1 1_555 1_555
H2 C1 1_555 1_555
C2 C1 1_555 1_555
N2 C2 1_555 1_555
C3 C2 1_555 1_555
H3 C3 1_555 1_555
C4 C3 1_555 1_555
H4 C4 1_555 1_555
C5 N1 1_555 1_555
H5 C5 1_555 1_555
I1 C9 1_555 1_555
C6 C7 1_555 1_555
C7 C8 1_555 1_555
C8 C9 1_555 1_555
C9 C10 1_555 1_555
C10 C11 1_555 1_555
C11 C6 1_555 1_555
C12 C6 1_555 1_555
O1 C12 1_555 1_555
O2 C12 1_555 1_555
F1 C7 1_555 1_555
F2 C8 1_555 1_555
F3 C10 1_555 1_555
F4 C11 1_555 1_555
N1B H1B 1_555 1_555
C1B N1B 1_555 1_555
H2B C1B 1_555 1_555
C2B C1B 1_555 1_555
N2B N2 1_555 1_555
C3B C2B 1_555 1_555
H3B C3B 1_555 1_555
C4B C3B 1_555 1_555
H4B C4B 1_555 1_555
C5B N1B 1_555 1_555
H5B C5B 1_555 1_555
C4 C5 1_555 1_555
C2B N2B 1_555 1_555
C4B C5B 1_555 1_555

#END
