
#######################################################################
#
#                 Cambridge Crystallographic Data Centre
#                                CCDC 
#
#######################################################################
#
# If this CIF has been generated from an entry in the Cambridge 
# Structural Database, then it will include bibliographic, chemical, 
# crystal, experimental, refinement or atomic coordinate data resulting 
# from the CCDC's data processing and validation procedures.
#
#######################################################################

data_PETTUG
_chemical_formula_moiety         'C30 H44 B10 N2 O1 Si1'
_chemical_name_systematic        
(1,2-dicarba-closo-dodecaboranyl)(diphenyl(oxy)methyl)(N,N'-di-t-butylbenzamidinato)silane
_symmetry_cell_setting           monoclinic
_symmetry_space_group_name_H-M   'P 21/c'
_symmetry_Int_Tables_number      14
_space_group_name_Hall           '-P 2ybc'
loop_
_symmetry_equiv_pos_site_id
_symmetry_equiv_pos_as_xyz
1 x,y,z
2 -x,1/2+y,1/2-z
3 -x,-y,-z
4 x,1/2-y,1/2+z
_cell_length_a                   10.2243(19)
_cell_length_b                   15.043(3)
_cell_length_c                   22.362(4)
_cell_angle_alpha                90
_cell_angle_beta                 94.468(4)
_cell_angle_gamma                90
_cell_volume                     3428.92
_exptl_crystal_colour            colorless
_exptl_crystal_description       block
_cell_formula_units_Z            4
loop_
_atom_site_label
_atom_site_type_symbol
_atom_site_fract_x
_atom_site_fract_y
_atom_site_fract_z
Si1 Si 0.28259(9) 0.24338(6) 0.41431(3)
O1 O 0.4205(2) 0.21393(14) 0.38561(9)
N1 N 0.1633(2) 0.18231(16) 0.36143(10)
N2 N 0.1438(2) 0.31768(16) 0.39058(10)
C1 C 0.2496(3) 0.1907(2) 0.49113(12)
C2 C 0.3704(3) 0.1778(2) 0.54537(13)
H1 H 0.4711 0.1973 0.5371
C3 C 0.1669(3) 0.1041(2) 0.32033(13)
C4 C 0.2670(4) 0.0380(2) 0.34901(15)
H2 H 0.2389 0.0182 0.3868
H3 H 0.3510 0.0665 0.3554
H4 H 0.2739 -0.0121 0.3229
C5 C 0.2117(4) 0.1344(3) 0.26020(14)
H5 H 0.1489 0.1756 0.2419
H6 H 0.2187 0.0839 0.2345
H7 H 0.2956 0.1630 0.2664
C6 C 0.0339(4) 0.0570(2) 0.31147(16)
H8 H 0.0072 0.0380 0.3497
H9 H 0.0414 0.0062 0.2860
H10 H -0.0303 0.0972 0.2932
C7 C 0.0877(3) 0.2538(2) 0.35469(12)
C8 C -0.0376(3) 0.2618(2) 0.31576(13)
C9 C -0.0393(4) 0.2991(2) 0.25905(13)
H11 H 0.0375 0.3213 0.2450
C10 C -0.1562(5) 0.3031(3) 0.22354(17)
H12 H -0.1580 0.3274 0.1852
C11 C -0.2691(5) 0.2715(3) 0.2448(2)
H13 H -0.3473 0.2745 0.2207
C12 C -0.2688(4) 0.2355(3) 0.3011(2)
H14 H -0.3465 0.2151 0.3153
C13 C -0.1525(4) 0.2295(3) 0.33658(17)
H15 H -0.1513 0.2039 0.3745
C14 C 0.0958(4) 0.4108(2) 0.39991(14)
C15 C 0.1219(4) 0.4688(2) 0.34622(16)
H16 H 0.0711 0.4475 0.3112
H17 H 0.2135 0.4663 0.3395
H18 H 0.0978 0.5291 0.3541
C16 C -0.0506(4) 0.4138(3) 0.4105(2)
H19 H -0.1010 0.3913 0.3758
H20 H -0.0759 0.4741 0.4177
H21 H -0.0664 0.3780 0.4447
C17 C 0.1746(4) 0.4473(2) 0.45539(15)
H22 H 0.1582 0.4117 0.4896
H23 H 0.1488 0.5075 0.4622
H24 H 0.2665 0.4455 0.4492
C18 C 0.4465(3) 0.3024(2) 0.41639(13)
C19 C 0.4698(3) 0.3739(2) 0.37130(13)
C20 C 0.5361(4) 0.4525(3) 0.38652(16)
H25 H 0.5720 0.4605 0.4256
C21 C 0.5498(5) 0.5190(3) 0.34451(19)
H26 H 0.5926 0.5716 0.3561
C22 C 0.5007(4) 0.5082(3) 0.28598(18)
H27 H 0.5093 0.5530 0.2579
C23 C 0.4392(4) 0.4307(3) 0.26990(16)
H28 H 0.4072 0.4222 0.2302
C24 C 0.4236(4) 0.3644(3) 0.31125(15)
H29 H 0.3812 0.3121 0.2989
C25 C 0.5540(3) 0.2930(2) 0.46621(13)
C26 C 0.6413(3) 0.2221(3) 0.46670(16)
H30 H 0.6351 0.1816 0.4352
C27 C 0.7365(4) 0.2109(3) 0.51276(18)
H31 H 0.7939 0.1631 0.5120
C28 C 0.7479(4) 0.2688(3) 0.55941(19)
H32 H 0.8137 0.2611 0.5901
C29 C 0.6610(4) 0.3394(3) 0.56122(16)
H33 H 0.6670 0.3781 0.5938
C30 C 0.5642(4) 0.3527(2) 0.51417(14)
H34 H 0.5072 0.4008 0.5149
B1 B 0.2600(4) 0.2607(3) 0.55342(15)
H35 H 0.2820 0.3322 0.5509
B2 B 0.1078(4) 0.2142(3) 0.52439(16)
H36 H 0.0288 0.2559 0.5032
B3 B 0.1385(4) 0.1060(3) 0.49788(16)
H37 H 0.0793 0.0772 0.4595
B4 B 0.3092(4) 0.0855(3) 0.50919(16)
H38 H 0.3625 0.0447 0.4783
B5 B 0.3206(4) 0.1950(3) 0.61520(16)
H39 H 0.3812 0.2243 0.6530
B6 B 0.1502(4) 0.2162(3) 0.60300(16)
H40 H 0.0983 0.2592 0.6331
B7 B 0.0751(4) 0.1196(3) 0.56892(16)
H41 H -0.0254 0.0995 0.5771
B8 B 0.1997(4) 0.0401(3) 0.55955(17)
H42 H 0.1804 -0.0317 0.5615
B9 B 0.3509(4) 0.0864(3) 0.58855(17)
H43 H 0.4311 0.0452 0.6092
B10 B 0.2071(4) 0.1080(3) 0.62510(17)
H44 H 0.1925 0.0805 0.6697
loop_
_geom_bond_atom_site_label_1
_geom_bond_atom_site_label_2
_geom_bond_site_symmetry_1
_geom_bond_site_symmetry_2
Si1 O1 1_555 1_555
O1 C18 1_555 1_555
N1 Si1 1_555 1_555
N2 Si1 1_555 1_555
C1 Si1 1_555 1_555
C2 C1 1_555 1_555
H1 C2 1_555 1_555
C3 N1 1_555 1_555
C4 C3 1_555 1_555
H2 C4 1_555 1_555
H3 C4 1_555 1_555
H4 C4 1_555 1_555
C5 C3 1_555 1_555
H5 C5 1_555 1_555
H6 C5 1_555 1_555
H7 C5 1_555 1_555
C6 C3 1_555 1_555
H8 C6 1_555 1_555
H9 C6 1_555 1_555
H10 C6 1_555 1_555
C7 N1 1_555 1_555
C8 C7 1_555 1_555
C9 C8 1_555 1_555
H11 C9 1_555 1_555
C10 C9 1_555 1_555
H12 C10 1_555 1_555
C11 C10 1_555 1_555
H13 C11 1_555 1_555
C12 C11 1_555 1_555
H14 C12 1_555 1_555
C13 C8 1_555 1_555
H15 C13 1_555 1_555
C14 N2 1_555 1_555
C15 C14 1_555 1_555
H16 C15 1_555 1_555
H17 C15 1_555 1_555
H18 C15 1_555 1_555
C16 C14 1_555 1_555
H19 C16 1_555 1_555
H20 C16 1_555 1_555
H21 C16 1_555 1_555
C17 C14 1_555 1_555
H22 C17 1_555 1_555
H23 C17 1_555 1_555
H24 C17 1_555 1_555
C18 Si1 1_555 1_555
C19 C18 1_555 1_555
C20 C19 1_555 1_555
H25 C20 1_555 1_555
C21 C20 1_555 1_555
H26 C21 1_555 1_555
C22 C21 1_555 1_555
H27 C22 1_555 1_555
C23 C22 1_555 1_555
H28 C23 1_555 1_555
C24 C19 1_555 1_555
H29 C24 1_555 1_555
C25 C18 1_555 1_555
C26 C25 1_555 1_555
H30 C26 1_555 1_555
C27 C26 1_555 1_555
H31 C27 1_555 1_555
C28 C27 1_555 1_555
H32 C28 1_555 1_555
C29 C28 1_555 1_555
H33 C29 1_555 1_555
C30 C25 1_555 1_555
H34 C30 1_555 1_555
B1 C1 1_555 1_555
H35 B1 1_555 1_555
B2 C1 1_555 1_555
H36 B2 1_555 1_555
B3 C1 1_555 1_555
H37 B3 1_555 1_555
B4 C1 1_555 1_555
H38 B4 1_555 1_555
B5 C2 1_555 1_555
H39 B5 1_555 1_555
B6 B1 1_555 1_555
H40 B6 1_555 1_555
B7 B2 1_555 1_555
H41 B7 1_555 1_555
B8 B3 1_555 1_555
H42 B8 1_555 1_555
B9 C2 1_555 1_555
H43 B9 1_555 1_555
B10 B5 1_555 1_555
H44 B10 1_555 1_555
N2 C7 1_555 1_555
C2 B1 1_555 1_555
C2 B4 1_555 1_555
C12 C13 1_555 1_555
C23 C24 1_555 1_555
C29 C30 1_555 1_555
B1 B2 1_555 1_555
B1 B5 1_555 1_555
B2 B3 1_555 1_555
B2 B6 1_555 1_555
B3 B4 1_555 1_555
B3 B7 1_555 1_555
B4 B8 1_555 1_555
B4 B9 1_555 1_555
B5 B6 1_555 1_555
B5 B9 1_555 1_555
B6 B7 1_555 1_555
B6 B10 1_555 1_555
B7 B8 1_555 1_555
B7 B10 1_555 1_555
B8 B9 1_555 1_555
B8 B10 1_555 1_555
B9 B10 1_555 1_555

#END
