
#######################################################################
#
#                 Cambridge Crystallographic Data Centre
#                                CCDC 
#
#######################################################################
#
# If this CIF has been generated from an entry in the Cambridge 
# Structural Database, then it will include bibliographic, chemical, 
# crystal, experimental, refinement or atomic coordinate data resulting 
# from the CCDC's data processing and validation procedures.
#
#######################################################################

data_PETTIS
_chemical_formula_moiety         'C34 H48 Cl1 F2 N4 O2 1+,H2 O4 P1 1-,H3 O4 P1'
_chemical_name_systematic        
'1-(2-(1-(N-Acetyl-N-isopropylamino)ethyl)-5-chloro-4-methylphenyl)-4-((N-t-butyl-3-(2,4-difluorphenyl)-1-piperidinio-4-yl)carbonyl)piperazine phosphate phosphoric acid'
_symmetry_cell_setting           monoclinic
_symmetry_space_group_name_H-M   'P 21'
_symmetry_Int_Tables_number      4
_space_group_name_Hall           'P 2yb'
loop_
_symmetry_equiv_pos_site_id
_symmetry_equiv_pos_as_xyz
1 x,y,z
2 -x,1/2+y,-z
_cell_length_a                   8.901(5)
_cell_length_b                   10.995(6)
_cell_length_c                   21.876(12)
_cell_angle_alpha                90
_cell_angle_beta                 100.157(9)
_cell_angle_gamma                90
_cell_volume                     2107.38
_exptl_crystal_colour            colorless
_exptl_crystal_description       plate
_chemical_melting_point          'about 235 deg.C'
_cell_formula_units_Z            2
_exptl_crystal_recrystallization_method methanol/water
loop_
_atom_site_label
_atom_site_type_symbol
_atom_site_fract_x
_atom_site_fract_y
_atom_site_fract_z
C1 C 1.0044(6) 0.5904(7) 0.7499(3)
C2 C 0.9664(10) 0.6679(11) 0.7023(4)
C3 C 0.9713(14) 0.6316(16) 0.6384(5)
H1 H 0.9450 0.6850 0.6052
C4 C 1.0145(17) 0.5205(19) 0.6305(7)
C5 C 1.0529(11) 0.4401(16) 0.6754(7)
H2 H 1.0792 0.3621 0.6648
C6 C 1.0562(9) 0.4671(10) 0.7394(5)
H3 H 1.0880 0.4119 0.7713
C7 C 1.0004(6) 0.6296(5) 0.8161(2)
H4 H 0.9612 0.7130 0.8150
C8 C 0.8962(6) 0.5482(5) 0.8487(3)
H5 H 0.9286 0.4631 0.8480
C9 C 0.9056(6) 0.5921(5) 0.9169(2)
H6 H 0.8580 0.6715 0.9169
H7 H 0.8490 0.5362 0.9387
C10 C 1.0696(6) 0.6001(5) 0.9514(3)
H8 H 1.0701 0.6324 0.9927
H9 H 1.1134 0.5192 0.9558
C11 C 1.1630(6) 0.6291(5) 0.8543(3)
H10 H 1.2020 0.5466 0.8575
H11 H 1.2293 0.6777 0.8332
C12 C 1.3309(6) 0.7042(5) 0.9551(3)
C13 C 1.4203(8) 0.5848(7) 0.9642(4)
H12 H 1.3614 0.5247 0.9813
H13 H 1.5151 0.5977 0.9921
H14 H 1.4406 0.5569 0.9249
C14 C 1.4082(7) 0.7942(7) 0.9167(4)
H15 H 1.4450 0.7513 0.8841
H16 H 1.4922 0.8330 0.9431
H17 H 1.3356 0.8547 0.8989
C15 C 1.3157(8) 0.7643(8) 1.0154(3)
H18 H 1.2390 0.8265 1.0078
H19 H 1.4116 0.8001 1.0336
H20 H 1.2868 0.7048 1.0433
C16 C 0.7322(6) 0.5611(4) 0.8157(2)
C17 C 0.4948(7) 0.4783(5) 0.7588(3)
H21 H 0.4644 0.5631 0.7583
H22 H 0.4210 0.4312 0.7765
C18 C 0.4964(7) 0.4366(5) 0.6941(3)
H23 H 0.3946 0.4438 0.6698
H24 H 0.5641 0.4882 0.6754
C19 C 0.6982(8) 0.2941(6) 0.7324(3)
H25 H 0.7737 0.3406 0.7153
H26 H 0.7273 0.2090 0.7330
C20 C 0.6940(7) 0.3364(5) 0.7974(3)
H27 H 0.6229 0.2866 0.8154
H28 H 0.7943 0.3275 0.8228
C21 C 0.5378(8) 0.2638(6) 0.6313(3)
C22 C 0.6467(9) 0.2876(7) 0.5946(3)
H29 H 0.7306 0.3358 0.6101
C23 C 0.6321(10) 0.2411(8) 0.5358(3)
C24 C 0.5114(12) 0.1737(8) 0.5092(3)
C25 C 0.4023(11) 0.1492(8) 0.5457(3)
H30 H 0.3187 0.1019 0.5287
C26 C 0.4104(8) 0.1906(6) 0.6055(3)
C27 C 0.4907(16) 0.1194(11) 0.4439(4)
H31 H 0.5557 0.0497 0.4441
H32 H 0.5171 0.1791 0.4156
H33 H 0.3862 0.0953 0.4309
C28 C 0.2908(7) 0.1622(7) 0.6460(3)
H34 H 0.2726 0.2381 0.6670
C29 C 0.1367(9) 0.1217(9) 0.6097(4)
H35 H 0.1478 0.0445 0.5905
H36 H 0.1004 0.1808 0.5783
H37 H 0.0648 0.1143 0.6375
C30 C 0.4042(9) -0.0449(7) 0.6723(3)
H38 H 0.3688 -0.0442 0.6272
C31 C 0.5737(10) -0.0581(9) 0.6810(4)
H39 H 0.6156 0.0079 0.6607
H40 H 0.5987 -0.1339 0.6635
H41 H 0.6156 -0.0568 0.7246
C32 C 0.3258(15) -0.1561(9) 0.6967(6)
H42 H 0.3747 -0.1739 0.7385
H43 H 0.3343 -0.2252 0.6707
H44 H 0.2200 -0.1382 0.6961
C33 C 0.3520(7) 0.1058(6) 0.7543(3)
C34 C 0.4317(12) 0.0286(8) 0.8068(4)
H45 H 0.5126 -0.0161 0.7934
H46 H 0.3600 -0.0272 0.8195
H47 H 0.4734 0.0798 0.8412
Cl1 Cl 0.7755(4) 0.2797(3) 0.49193(12)
F1 F 0.9263(9) 0.7751(7) 0.7120(3)
F2 F 1.0194(12) 0.4901(13) 0.5696(4)
N1 N 1.1653(5) 0.6793(4) 0.9183(2)
H48 H 1.1175 0.7528 0.9132
N2 N 0.6466(5) 0.4640(4) 0.7969(2)
N3 N 0.5475(6) 0.3099(4) 0.6931(2)
N4 N 0.3539(6) 0.0749(5) 0.6953(2)
O1 O 0.6746(5) 0.6648(4) 0.8079(2)
O2 O 0.2899(6) 0.2028(5) 0.7672(2)
P1 P 0.86020(16) 0.94346(13) 0.88501(8)
O3 O 1.0225(5) 0.9132(3) 0.9028(2)
O4 O 0.7874(6) 0.8841(5) 0.8226(2)
H49 H 0.7209 0.8361 0.8286
O5 O 0.7592(6) 0.8993(7) 0.9305(3)
H50 H 0.8118 0.8636 0.9595
O6 O 0.8288(5) 1.0787(4) 0.8771(3)
P2 P 0.1678(2) 0.23096(13) 0.91404(8)
O7 O 0.2182(5) 0.0993(4) 0.9303(2)
H51 H 0.1427 0.0559 0.9288
O8 O 0.2858(6) 0.2866(5) 0.8781(2)
H52 H 0.2682 0.2630 0.8420
O9 O 0.0198(6) 0.2308(6) 0.8727(6)
H53 H -0.0069 0.1605 0.8643
O10 O 0.1761(15) 0.3058(7) 0.9705(4)
loop_
_geom_bond_atom_site_label_1
_geom_bond_atom_site_label_2
_geom_bond_site_symmetry_1
_geom_bond_site_symmetry_2
C1 C2 1_555 1_555
C2 C3 1_555 1_555
C3 H1 1_555 1_555
C4 C3 1_555 1_555
C5 C4 1_555 1_555
H2 C5 1_555 1_555
C6 C1 1_555 1_555
H3 C6 1_555 1_555
C7 C1 1_555 1_555
H4 C7 1_555 1_555
C8 C7 1_555 1_555
H5 C8 1_555 1_555
C9 C8 1_555 1_555
H6 C9 1_555 1_555
H7 C9 1_555 1_555
C10 C9 1_555 1_555
H8 C10 1_555 1_555
H9 C10 1_555 1_555
C11 C7 1_555 1_555
H10 C11 1_555 1_555
H11 C11 1_555 1_555
C12 C13 1_555 1_555
C13 H12 1_555 1_555
H13 C13 1_555 1_555
H14 C13 1_555 1_555
C14 C12 1_555 1_555
H15 C14 1_555 1_555
H16 C14 1_555 1_555
H17 C14 1_555 1_555
C15 C12 1_555 1_555
H18 C15 1_555 1_555
H19 C15 1_555 1_555
H20 C15 1_555 1_555
C16 C8 1_555 1_555
C17 H21 1_555 1_555
H22 C17 1_555 1_555
C18 C17 1_555 1_555
H23 C18 1_555 1_555
H24 C18 1_555 1_555
C19 H25 1_555 1_555
H26 C19 1_555 1_555
C20 C19 1_555 1_555
H27 C20 1_555 1_555
H28 C20 1_555 1_555
C21 C22 1_555 1_555
C22 H29 1_555 1_555
C23 C22 1_555 1_555
C24 C23 1_555 1_555
C25 C24 1_555 1_555
H30 C25 1_555 1_555
C26 C21 1_555 1_555
C27 C24 1_555 1_555
H31 C27 1_555 1_555
H32 C27 1_555 1_555
H33 C27 1_555 1_555
C28 C26 1_555 1_555
H34 C28 1_555 1_555
C29 C28 1_555 1_555
H35 C29 1_555 1_555
H36 C29 1_555 1_555
H37 C29 1_555 1_555
C30 H38 1_555 1_555
C31 C30 1_555 1_555
H39 C31 1_555 1_555
H40 C31 1_555 1_555
H41 C31 1_555 1_555
C32 C30 1_555 1_555
H42 C32 1_555 1_555
H43 C32 1_555 1_555
H44 C32 1_555 1_555
C33 C34 1_555 1_555
C34 H45 1_555 1_555
H46 C34 1_555 1_555
H47 C34 1_555 1_555
Cl1 C23 1_555 1_555
F1 C2 1_555 1_555
F2 C4 1_555 1_555
N1 C10 1_555 1_555
H48 N1 1_555 1_555
N2 C16 1_555 1_555
N3 C18 1_555 1_555
N4 C28 1_555 1_555
O1 C16 1_555 1_555
O2 C33 1_555 1_555
P1 O3 1_555 1_555
O4 P1 1_555 1_555
H49 O4 1_555 1_555
O5 P1 1_555 1_555
H50 O5 1_555 1_555
O6 P1 1_555 1_555
P2 O7 1_555 1_555
O7 H51 1_555 1_555
O8 P2 1_555 1_555
H52 O8 1_555 1_555
O9 P2 1_555 1_555
H53 O9 1_555 1_555
O10 P2 1_555 1_555
C5 C6 1_555 1_555
C11 N1 1_555 1_555
C12 N1 1_555 1_555
C17 N2 1_555 1_555
C19 N3 1_555 1_555
C20 N2 1_555 1_555
C21 N3 1_555 1_555
C25 C26 1_555 1_555
C30 N4 1_555 1_555
C33 N4 1_555 1_555

#END
