
#######################################################################
#
#                 Cambridge Crystallographic Data Centre
#                                CCDC 
#
#######################################################################
#
# If this CIF has been generated from an entry in the Cambridge 
# Structural Database, then it will include bibliographic, chemical, 
# crystal, experimental, refinement or atomic coordinate data resulting 
# from the CCDC's data processing and validation procedures.
#
#######################################################################

data_PEVHOO
_chemical_formula_moiety         'C21 H27 Cl1 O3 S1'
_chemical_name_systematic        
7'-(4-Chlorobenzenesulfanylmethyl)-7'-methylspiro(adamantane-2,3'-(1,2,4-trioxepane))
_symmetry_cell_setting           monoclinic
_symmetry_space_group_name_H-M   'P 21/n'
_symmetry_Int_Tables_number      14
_space_group_name_Hall           '-P 2yn'
loop_
_symmetry_equiv_pos_site_id
_symmetry_equiv_pos_as_xyz
1 x,y,z
2 1/2-x,1/2+y,1/2-z
3 -x,-y,-z
4 1/2+x,1/2-y,1/2+z
_cell_length_a                   16.611(4)
_cell_length_b                   6.4146(14)
_cell_length_c                   19.132(4)
_cell_angle_alpha                90
_cell_angle_beta                 109.927(4)
_cell_angle_gamma                90
_cell_volume                     1916.52
_exptl_crystal_colour            colorless
_exptl_crystal_description       block
_cell_formula_units_Z            4
loop_
_atom_site_label
_atom_site_type_symbol
_atom_site_fract_x
_atom_site_fract_y
_atom_site_fract_z
C1 C 0.77126(11) 0.3401(3) 0.09026(11)
C2 C 0.80003(12) 0.2660(3) 0.03477(11)
H1 H 0.7879 0.1270 0.0172
C3 C 0.84686(12) 0.3975(3) 0.00502(10)
H2 H 0.8676 0.3465 -0.0323
C4 C 0.86370(11) 0.6034(3) 0.02943(10)
C5 C 0.83228(12) 0.6765(3) 0.08446(10)
H3 H 0.8424 0.8170 0.1009
C6 C 0.78654(12) 0.5453(3) 0.11517(11)
H4 H 0.7660 0.5950 0.1527
C7 C 0.92363(11) 0.6922(3) -0.09192(10)
H5 H 0.9802 0.7140 -0.0974
H6 H 0.9116 0.5407 -0.0963
C8 C 0.85506(11) 0.8046(3) -0.15618(10)
C9 C 0.76468(12) 0.7732(4) -0.15408(11)
H7 H 0.7233 0.8426 -0.1970
H8 H 0.7610 0.8330 -0.1081
H9 H 0.7518 0.6238 -0.1558
C10 C 0.94915(11) 1.0911(3) -0.18628(10)
H10 H 0.9620 1.2419 -0.1791
H11 H 1.0008 1.0131 -0.1562
O1 O 0.92881(8) 1.0390(2) -0.26339(7)
C11 C 0.95041(11) 0.8345(3) -0.27882(9)
C12 C 1.04708(11) 0.8109(3) -0.26692(10)
H12 H 1.0816 0.8366 -0.2135
C13 C 1.07051(11) 0.9733(3) -0.31633(10)
H13 H 1.0591 1.1154 -0.3018
H14 H 1.1322 0.9630 -0.3093
C14 C 1.01701(12) 0.9342(3) -0.39872(10)
H15 H 1.0324 1.0398 -0.4305
C15 C 0.92052(12) 0.9518(3) -0.40988(10)
H16 H 0.8862 0.9269 -0.4627
H17 H 0.9076 1.0938 -0.3965
C16 C 0.89662(11) 0.7898(3) -0.36054(10)
H18 H 0.8343 0.8013 -0.3676
C17 C 1.06595(11) 0.5900(3) -0.28971(10)
H19 H 1.1277 0.5768 -0.2824
H20 H 1.0514 0.4847 -0.2581
C18 C 1.01261(11) 0.5511(3) -0.37197(10)
H21 H 1.0250 0.4081 -0.3866
C19 C 0.91667(12) 0.5679(3) -0.38165(10)
H22 H 0.8815 0.5379 -0.4339
H23 H 0.9022 0.4641 -0.3495
C20 C 1.03571(12) 0.7136(3) -0.42126(10)
H24 H 1.0971 0.7014 -0.4153
H25 H 1.0016 0.6881 -0.4741
O2 O 0.85022(8) 0.6999(2) -0.22563(7)
O3 O 0.93863(8) 0.6870(2) -0.22689(7)
C21 C 0.87449(11) 1.0377(3) -0.15974(10)
H26 H 0.8223 1.1068 -0.1933
H27 H 0.8867 1.0980 -0.1095
S1 S 0.93002(3) 0.77707(8) 0.00075(2)
Cl1 Cl 0.71475(3) 0.17260(9) 0.12903(3)
loop_
_geom_bond_atom_site_label_1
_geom_bond_atom_site_label_2
_geom_bond_site_symmetry_1
_geom_bond_site_symmetry_2
C1 C2 1_555 1_555
C2 H1 1_555 1_555
C3 C2 1_555 1_555
H2 C3 1_555 1_555
C4 C3 1_555 1_555
C5 C4 1_555 1_555
H3 C5 1_555 1_555
C6 C1 1_555 1_555
H4 C6 1_555 1_555
C7 H5 1_555 1_555
H6 C7 1_555 1_555
C8 C7 1_555 1_555
C9 C8 1_555 1_555
H7 C9 1_555 1_555
H8 C9 1_555 1_555
H9 C9 1_555 1_555
C10 H10 1_555 1_555
H11 C10 1_555 1_555
O1 C10 1_555 1_555
C11 O1 1_555 1_555
C12 C11 1_555 1_555
H12 C12 1_555 1_555
C13 C12 1_555 1_555
H13 C13 1_555 1_555
H14 C13 1_555 1_555
C14 C13 1_555 1_555
H15 C14 1_555 1_555
C15 C14 1_555 1_555
H16 C15 1_555 1_555
H17 C15 1_555 1_555
C16 C11 1_555 1_555
H18 C16 1_555 1_555
C17 C12 1_555 1_555
H19 C17 1_555 1_555
H20 C17 1_555 1_555
C18 C17 1_555 1_555
H21 C18 1_555 1_555
C19 C16 1_555 1_555
H22 C19 1_555 1_555
H23 C19 1_555 1_555
C20 C14 1_555 1_555
H24 C20 1_555 1_555
H25 C20 1_555 1_555
O2 C8 1_555 1_555
O3 C11 1_555 1_555
C21 C8 1_555 1_555
H26 C21 1_555 1_555
H27 C21 1_555 1_555
S1 C4 1_555 1_555
Cl1 C1 1_555 1_555
C5 C6 1_555 1_555
C7 S1 1_555 1_555
C10 C21 1_555 1_555
C15 C16 1_555 1_555
C18 C19 1_555 1_555
C18 C20 1_555 1_555
O2 O3 1_555 1_555

#END
