
#######################################################################
#
#                 Cambridge Crystallographic Data Centre
#                                CCDC 
#
#######################################################################
#
# If this CIF has been generated from an entry in the Cambridge 
# Structural Database, then it will include bibliographic, chemical, 
# crystal, experimental, refinement or atomic coordinate data resulting 
# from the CCDC's data processing and validation procedures.
#
#######################################################################

data_PEVKIK
_chemical_formula_moiety         'C17 H14 O1,2(C6 H3 N3 O6)'
_chemical_name_systematic        
'Dibenzylideneacetone bis(1,3,5-trinitrobenzene)'
_symmetry_cell_setting           monoclinic
_symmetry_space_group_name_H-M   'P 21'
_symmetry_Int_Tables_number      4
_space_group_name_Hall           'P 2yb'
loop_
_symmetry_equiv_pos_site_id
_symmetry_equiv_pos_as_xyz
1 x,y,z
2 -x,1/2+y,-z
_cell_length_a                   7.092(2)
_cell_length_b                   27.927(4)
_cell_length_c                   7.569(2)
_cell_angle_alpha                90
_cell_angle_beta                 96.67(2)
_cell_angle_gamma                90
_cell_volume                     1488.96
_exptl_crystal_colour            yellow
_chemical_melting_point          '125-127 deg.C'
_cell_formula_units_Z            2
loop_
_atom_site_label
_atom_site_type_symbol
_atom_site_fract_x
_atom_site_fract_y
_atom_site_fract_z
C1 C 0.3426(5) 0.1212(1) 0.5139(6)
C2 C 0.3538(6) 0.0741(1) 0.4697(7)
C3 C 0.4257(6) 0.0431(1) 0.6010(6)
C4 C 0.4801(6) 0.0578(2) 0.7733(7)
C5 C 0.4598(5) 0.1055(2) 0.8091(6)
C6 C 0.3960(5) 0.1387(2) 0.6819(6)
N1 N 0.5090(6) 0.1229(2) 0.9936(6)
N2 N 0.2679(6) 0.1561(2) 0.3769(7)
N3 N 0.4488(6) -0.0073(1) 0.5554(7)
O1 O 0.5263(6) 0.1657(2) 1.0160(6)
O2 O 0.5232(7) 0.0930(2) 1.1080(6)
O3 O 0.5361(6) -0.0328(1) 0.6654(6)
O4 O 0.3772(7) -0.0206(1) 0.4103(7)
O5 O 0.2876(7) 0.1983(1) 0.4123(6)
O6 O 0.1885(5) 0.1410(1) 0.2395(5)
H1 H 0.312(7) 0.066(2) 0.363(8)
H2 H 0.509(6) 0.032(2) 0.863(7)
H3 H 0.395(5) 0.174(1) 0.717(5)
C7 C 0.7663(6) 0.3949(2) 0.0538(7)
C8 C 0.6925(5) 0.3827(1) -0.1163(7)
C9 C 0.6736(5) 0.3345(2) -0.1502(6)
C10 C 0.7206(6) 0.2997(2) -0.0261(7)
C11 C 0.7925(6) 0.3143(2) 0.1394(6)
C12 C 0.8172(6) 0.3616(2) 0.1836(7)
N4 N 0.7913(7) 0.4465(2) 0.0983(7)
N5 N 0.8454(6) 0.2779(2) 0.2786(7)
N6 N 0.5954(6) 0.3199(2) -0.3343(6)
O7 O 0.5766(6) 0.2772(2) -0.3624(5)
O8 O 0.5561(7) 0.3511(2) -0.4420(6)
O9 O 0.8159(7) 0.2368(2) 0.2361(7)
O10 O 0.9211(6) 0.2921(2) 0.4203(6)
O11 O 0.8799(7) 0.4556(2) 0.2440(7)
O12 O 0.7274(7) 0.4755(1) -0.0075(7)
H4 H 0.645(6) 0.405(2) -0.222(7)
H5 H 0.710(5) 0.269(2) -0.051(5)
H6 H 0.871(6) 0.372(2) 0.306(7)
C13 C 0.2236(5) 0.3619(1) 0.9579(6)
C14 C 0.1771(6) 0.3294(2) 0.8245(8)
C15 C 0.1884(6) 0.2811(2) 0.8539(9)
C16 C 0.2465(6) 0.2638(2) 1.0209(8)
C17 C 0.2968(6) 0.2948(2) 1.1570(8)
C18 C 0.2853(6) 0.3440(1) 1.1284(7)
C19 C 0.2123(5) 0.4135(1) 0.9334(7)
C20 C 0.1634(6) 0.4381(2) 0.7852(7)
C21 C 0.1586(6) 0.4905(1) 0.7851(6)
C22 C 0.1246(5) 0.5157(1) 0.6143(6)
C23 C 0.1365(5) 0.5629(1) 0.6041(6)
C24 C 0.1133(5) 0.5936(1) 0.4471(5)
C25 C 0.1463(6) 0.6424(1) 0.4678(7)
C26 C 0.1202(6) 0.6726(1) 0.3244(7)
C27 C 0.0643(6) 0.6549(2) 0.1584(7)
C28 C 0.0336(6) 0.6067(1) 0.1343(7)
C29 C 0.0577(5) 0.5758(1) 0.2778(6)
O13 O 0.1841(5) 0.5130 0.9272(5)
H7 H 0.146(5) 0.337(1) 0.733(5)
H8 H 0.158(6) 0.264(2) 0.757(7)
H9 H 0.255(5) 0.230(2) 1.033(5)
H10 H 0.334(5) 0.284(1) 1.263(6)
H11 H 0.319(5) 0.364(2) 1.217(6)
H12 H 0.236(5) 0.430(1) 1.038(6)
H13 H 0.126(5) 0.426(1) 0.679(6)
H14 H 0.092(3) 0.497(1) 0.502(5)
H15 H 0.175(5) 0.577(1) 0.710(6)
H16 H 0.191(5) 0.653(1) 0.583(6)
H17 H 0.142(5) 0.703(1) 0.338(5)
H18 H 0.042(5) 0.676(1) 0.063(5)
H19 H -0.013(6) 0.593(2) 0.008(7)
H20 H 0.033(5) 0.539(1) 0.253(5)
loop_
_geom_bond_atom_site_label_1
_geom_bond_atom_site_label_2
_geom_bond_site_symmetry_1
_geom_bond_site_symmetry_2
C1 C2 1_555 1_555
C2 C3 1_555 1_555
C3 C4 1_555 1_555
C4 C5 1_555 1_555
C5 C6 1_555 1_555
C6 C1 1_555 1_555
N1 C5 1_555 1_555
N2 C1 1_555 1_555
N3 C3 1_555 1_555
O1 N1 1_555 1_555
O2 N1 1_555 1_555
O3 N3 1_555 1_555
O4 N3 1_555 1_555
O5 N2 1_555 1_555
O6 N2 1_555 1_555
H1 C2 1_555 1_555
H2 C4 1_555 1_555
H3 C6 1_555 1_555
C7 C8 1_555 1_555
C8 C9 1_555 1_555
C9 C10 1_555 1_555
C10 C11 1_555 1_555
C11 C12 1_555 1_555
C12 C7 1_555 1_555
N4 C7 1_555 1_555
N5 C11 1_555 1_555
N6 C9 1_555 1_555
O7 N6 1_555 1_555
O8 N6 1_555 1_555
O9 N5 1_555 1_555
O10 N5 1_555 1_555
O11 N4 1_555 1_555
O12 N4 1_555 1_555
H4 C8 1_555 1_555
H5 C10 1_555 1_555
H6 C12 1_555 1_555
C13 C14 1_555 1_555
C14 C15 1_555 1_555
C15 C16 1_555 1_555
C16 C17 1_555 1_555
C17 C18 1_555 1_555
C18 C13 1_555 1_555
C19 C13 1_555 1_555
C20 C19 1_555 1_555
C21 C20 1_555 1_555
C22 C21 1_555 1_555
C23 C22 1_555 1_555
C24 C23 1_555 1_555
C25 C24 1_555 1_555
C26 C25 1_555 1_555
C27 C26 1_555 1_555
C28 C27 1_555 1_555
C29 C24 1_555 1_555
O13 C21 1_555 1_555
H7 C14 1_555 1_555
H8 C15 1_555 1_555
H9 C16 1_555 1_555
H10 C17 1_555 1_555
H11 C18 1_555 1_555
H12 C19 1_555 1_555
H13 C20 1_555 1_555
H14 C22 1_555 1_555
H15 C23 1_555 1_555
H16 C25 1_555 1_555
H17 C26 1_555 1_555
H18 C27 1_555 1_555
H19 C28 1_555 1_555
H20 C29 1_555 1_555
C28 C29 1_555 1_555

#END
