
#######################################################################
#
#                 Cambridge Crystallographic Data Centre
#                                CCDC 
#
#######################################################################
#
# If this CIF has been generated from an entry in the Cambridge 
# Structural Database, then it will include bibliographic, chemical, 
# crystal, experimental, refinement or atomic coordinate data resulting 
# from the CCDC's data processing and validation procedures.
#
#######################################################################

data_PEVNAG
_chemical_formula_moiety         'C25 H22'
_chemical_name_systematic        1-(2-Methyl-1-phenylpropenyl)-3-phenylindene
_symmetry_cell_setting           triclinic
_symmetry_space_group_name_H-M   'P -1'
_symmetry_Int_Tables_number      2
_space_group_name_Hall           '-P 1'
loop_
_symmetry_equiv_pos_site_id
_symmetry_equiv_pos_as_xyz
1 x,y,z
2 -x,-y,-z
_cell_length_a                   8.1168(19)
_cell_length_b                   10.068(2)
_cell_length_c                   11.493(3)
_cell_angle_alpha                93.001(4)
_cell_angle_beta                 98.563(4)
_cell_angle_gamma                98.080(4)
_cell_volume                     916.938
_exptl_crystal_colour            colorless
_exptl_crystal_description       prismatic
_cell_formula_units_Z            2
loop_
_atom_site_label
_atom_site_type_symbol
_atom_site_fract_x
_atom_site_fract_y
_atom_site_fract_z
C1 C 0.3427(3) 0.6623(3) 0.4395(2)
H1 H 0.3637 0.6172 0.3718
C2 C 0.1854(3) 0.6394(3) 0.4739(2)
H2 H 0.1000 0.5791 0.4282
C3 C 0.1532(3) 0.7045(3) 0.5748(3)
H3 H 0.0469 0.6870 0.5966
C4 C 0.2770(3) 0.7952(3) 0.6436(2)
H4 H 0.2552 0.8383 0.7120
C5 C 0.4332(3) 0.8209(2) 0.6096(2)
C6 C 0.4685(3) 0.7538(2) 0.50777(19)
C7 C 0.6423(3) 0.8070(2) 0.49276(19)
C8 C 0.7060(3) 0.9029(2) 0.5789(2)
H5 H 0.8142 0.9508 0.5868
C9 C 0.5838(3) 0.9247(2) 0.6615(2)
C10 C 0.6514(3) 0.9170(2) 0.79112(19)
C11 C 0.6698(3) 1.0193(2) 0.8731(2)
C12 C 0.7434(4) 1.0095(3) 0.9988(2)
H6 H 0.7574 0.9179 1.0112
H7 H 0.6692 1.0383 1.0494
H8 H 0.8510 1.0659 1.0167
C13 C 0.6242(4) 1.1561(3) 0.8475(3)
H9 H 0.7183 1.2108 0.8237
H10 H 0.5958 1.1981 0.9172
H11 H 0.5293 1.1464 0.7852
C14 C 0.7063(3) 0.7852(2) 0.82042(19)
C15 C 0.8682(4) 0.7618(3) 0.8139(2)
H12 H 0.9437 0.8289 0.7897
C16 C 0.9211(4) 0.6422(3) 0.8423(3)
H13 H 1.0316 0.6300 0.8383
C17 C 0.8123(4) 0.5412(3) 0.8762(3)
H14 H 0.8479 0.4601 0.8952
C18 C 0.6510(4) 0.5603(3) 0.8820(3)
H15 H 0.5760 0.4913 0.9043
C19 C 0.5976(4) 0.6811(3) 0.8551(3)
H16 H 0.4872 0.6927 0.8603
C20 C 0.7270(3) 0.7681(2) 0.39321(19)
C21 C 0.7003(3) 0.6371(3) 0.3416(2)
H17 H 0.6313 0.5703 0.3720
C22 C 0.7758(4) 0.6057(3) 0.2453(3)
H18 H 0.7560 0.5181 0.2108
C23 C 0.8800(4) 0.7033(3) 0.2004(3)
H19 H 0.9282 0.6823 0.1345
C24 C 0.9122(4) 0.8311(3) 0.2530(2)
H20 H 0.9858 0.8963 0.2246
C25 C 0.8361(3) 0.8639(3) 0.3481(2)
H21 H 0.8581 0.9515 0.3826
H22 H 0.550(3) 1.013(3) 0.652(2)
loop_
_geom_bond_atom_site_label_1
_geom_bond_atom_site_label_2
_geom_bond_site_symmetry_1
_geom_bond_site_symmetry_2
C1 H1 1_555 1_555
C2 C1 1_555 1_555
H2 C2 1_555 1_555
C3 C2 1_555 1_555
H3 C3 1_555 1_555
C4 C3 1_555 1_555
H4 C4 1_555 1_555
C5 C4 1_555 1_555
C6 C1 1_555 1_555
C7 C6 1_555 1_555
C8 C7 1_555 1_555
H5 C8 1_555 1_555
C9 C5 1_555 1_555
C10 C9 1_555 1_555
C11 C10 1_555 1_555
C12 C11 1_555 1_555
H6 C12 1_555 1_555
H7 C12 1_555 1_555
H8 C12 1_555 1_555
C13 C11 1_555 1_555
H9 C13 1_555 1_555
H10 C13 1_555 1_555
H11 C13 1_555 1_555
C14 C10 1_555 1_555
C15 C14 1_555 1_555
H12 C15 1_555 1_555
C16 C15 1_555 1_555
H13 C16 1_555 1_555
C17 C16 1_555 1_555
H14 C17 1_555 1_555
C18 C17 1_555 1_555
H15 C18 1_555 1_555
C19 C14 1_555 1_555
H16 C19 1_555 1_555
C20 C7 1_555 1_555
C21 C20 1_555 1_555
H17 C21 1_555 1_555
C22 C21 1_555 1_555
H18 C22 1_555 1_555
C23 C22 1_555 1_555
H19 C23 1_555 1_555
C24 C23 1_555 1_555
H20 C24 1_555 1_555
C25 C20 1_555 1_555
H21 C25 1_555 1_555
H22 C9 1_555 1_555
C5 C6 1_555 1_555
C8 C9 1_555 1_555
C18 C19 1_555 1_555
C24 C25 1_555 1_555

#END
