
#######################################################################
#
#                 Cambridge Crystallographic Data Centre
#                                CCDC 
#
#######################################################################
#
# If this CIF has been generated from an entry in the Cambridge 
# Structural Database, then it will include bibliographic, chemical, 
# crystal, experimental, refinement or atomic coordinate data resulting 
# from the CCDC's data processing and validation procedures.
#
#######################################################################

data_PEVPIR
_chemical_formula_moiety         'C14 H12 Br2 O2'
_chemical_name_systematic        'Ethyl 5,8-dibromo-3-methyl-2-naphthoate'
_symmetry_cell_setting           triclinic
_symmetry_space_group_name_H-M   'P -1'
_symmetry_Int_Tables_number      2
_space_group_name_Hall           '-P 1'
loop_
_symmetry_equiv_pos_site_id
_symmetry_equiv_pos_as_xyz
1 x,y,z
2 -x,-y,-z
_cell_length_a                   8.366(3)
_cell_length_b                   8.940(3)
_cell_length_c                   9.697(3)
_cell_angle_alpha                74.904(4)
_cell_angle_beta                 80.910(4)
_cell_angle_gamma                71.519(4)
_cell_volume                     661.862
_exptl_crystal_colour            colorless
_exptl_crystal_description       block
_cell_formula_units_Z            2
loop_
_atom_site_label
_atom_site_type_symbol
_atom_site_fract_x
_atom_site_fract_y
_atom_site_fract_z
Br1 Br 1.35003(8) -0.01657(8) 0.20804(7)
Br2 Br 1.21920(10) -0.10045(9) 0.90406(7)
C1 C 1.3095(7) -0.0323(7) 0.4078(6)
C2 C 1.4113(7) -0.1597(7) 0.4958(7)
H1 H 1.4993 -0.2348 0.4570
C3 C 1.3833(8) -0.1774(8) 0.6446(7)
H2 H 1.4529 -0.2646 0.7043
C4 C 1.2558(7) -0.0686(7) 0.7025(6)
C5 C 1.1478(7) 0.0675(7) 0.6147(6)
C6 C 1.1759(7) 0.0865(6) 0.4630(6)
C7 C 1.0691(7) 0.2213(7) 0.3741(7)
H3 H 1.0877 0.2364 0.2750
C8 C 0.9382(7) 0.3300(7) 0.4338(7)
C9 C 0.9055(7) 0.3117(7) 0.5840(7)
C10 C 1.0115(7) 0.1830(8) 0.6698(7)
H4 H 0.9926 0.1713 0.7687
C11 C 0.7623(8) 0.4248(8) 0.6557(8)
H5 H 0.6565 0.4137 0.6401
H6 H 0.7648 0.5343 0.6159
H7 H 0.7745 0.3983 0.7567
C12 C 0.8279(8) 0.4682(8) 0.3339(8)
C13 C 0.8046(10) 0.6327(9) 0.0951(9)
H8 H 0.7415 0.7216 0.1398
H9 H 0.8812 0.6713 0.0182
C14 C 0.6872(13) 0.5773(11) 0.0363(11)
H10 H 0.7479 0.4798 0.0046
H11 H 0.6373 0.6595 -0.0432
H12 H 0.6000 0.5565 0.1092
O1 O 0.6884(7) 0.5451(7) 0.3678(6)
O2 O 0.9022(6) 0.4989(6) 0.2016(5)
loop_
_geom_bond_atom_site_label_1
_geom_bond_atom_site_label_2
_geom_bond_site_symmetry_1
_geom_bond_site_symmetry_2
Br1 C1 1_555 1_555
Br2 C4 1_555 1_555
C1 C2 1_555 1_555
C2 H1 1_555 1_555
C3 C2 1_555 1_555
H2 C3 1_555 1_555
C4 C3 1_555 1_555
C5 C4 1_555 1_555
C6 C1 1_555 1_555
C7 C6 1_555 1_555
H3 C7 1_555 1_555
C8 C7 1_555 1_555
C9 C8 1_555 1_555
C10 C5 1_555 1_555
H4 C10 1_555 1_555
C11 C9 1_555 1_555
H5 C11 1_555 1_555
H6 C11 1_555 1_555
H7 C11 1_555 1_555
C12 C8 1_555 1_555
C13 H8 1_555 1_555
H9 C13 1_555 1_555
C14 C13 1_555 1_555
H10 C14 1_555 1_555
H11 C14 1_555 1_555
H12 C14 1_555 1_555
O1 C12 1_555 1_555
O2 C12 1_555 1_555
C5 C6 1_555 1_555
C9 C10 1_555 1_555
C13 O2 1_555 1_555

#END
