
#######################################################################
#
#                 Cambridge Crystallographic Data Centre
#                                CCDC 
#
#######################################################################
#
# If this CIF has been generated from an entry in the Cambridge 
# Structural Database, then it will include bibliographic, chemical, 
# crystal, experimental, refinement or atomic coordinate data resulting 
# from the CCDC's data processing and validation procedures.
#
#######################################################################

data_PEVPAJ
_chemical_formula_moiety         'C22 H20 Br2 O5'
_chemical_name_systematic        
'Ethyl 5,8-dibromo-3-(3,4,5-trimethoxyphenyl)-2-naphthoate'
_symmetry_cell_setting           monoclinic
_symmetry_space_group_name_H-M   'C 2/c'
_symmetry_Int_Tables_number      15
_space_group_name_Hall           '-C 2yn'
loop_
_symmetry_equiv_pos_site_id
_symmetry_equiv_pos_as_xyz
1 x,y,z
2 -x,y,1/2-z
3 1/2+x,1/2+y,z
4 1/2-x,1/2+y,1/2-z
5 -x,-y,-z
6 x,-y,1/2+z
7 1/2-x,1/2-y,-z
8 1/2+x,1/2-y,1/2+z
_cell_length_a                   31.646(3)
_cell_length_b                   6.9207(7)
_cell_length_c                   19.584(2)
_cell_angle_alpha                90
_cell_angle_beta                 102.150(2)
_cell_angle_gamma                90
_cell_volume                     4193.06
_cell_formula_units_Z            8
loop_
_atom_site_label
_atom_site_type_symbol
_atom_site_fract_x
_atom_site_fract_y
_atom_site_fract_z
Br1 Br 0.307626(13) 0.80415(6) 0.59591(2)
Br2 Br 0.261701(14) 0.79512(6) 0.907032(18)
C1 C 0.24762(10) 0.7949(4) 0.68841(17)
C2 C 0.29196(11) 0.7960(5) 0.68423(19)
C3 C 0.32413(12) 0.7902(5) 0.7422(2)
H1 H 0.3528 0.7894 0.7377
C4 C 0.31448(12) 0.7855(5) 0.8084(2)
H2 H 0.3367 0.7792 0.8478
C5 C 0.27255(11) 0.7900(5) 0.81548(17)
C6 C 0.23753(11) 0.7895(4) 0.75681(17)
C7 C 0.19379(10) 0.7846(4) 0.76105(17)
H3 H 0.1868 0.7811 0.8048
C8 C 0.16120(11) 0.7847(4) 0.70294(16)
C9 C 0.17090(10) 0.7902(4) 0.63474(16)
C10 C 0.21323(11) 0.7947(4) 0.62926(16)
H4 H 0.2196 0.7978 0.5850
C11 C 0.13659(11) 0.7788(5) 0.57068(16)
C12 C 0.13427(10) 0.9200(5) 0.52010(15)
H5 H 0.1537 1.0226 0.5271
C13 C 0.10280(10) 0.9086(5) 0.45850(15)
C14 C 0.07380(11) 0.7540(5) 0.44820(17)
C15 C 0.07631(10) 0.6145(5) 0.49923(16)
C16 C 0.10730(10) 0.6266(5) 0.56081(16)
H6 H 0.1085 0.5333 0.5953
C17 C 0.12845(15) 1.1981(5) 0.4140(2)
H7 H 0.1260 1.2712 0.4547
H8 H 0.1222 1.2800 0.3736
H9 H 0.1573 1.1483 0.4197
C18 C 0.05419(15) 0.6327(8) 0.33365(19)
H10 H 0.0823 0.6723 0.3278
H11 H 0.0335 0.6524 0.2907
H12 H 0.0549 0.4983 0.3460
C19 C 0.04678(13) 0.3244(6) 0.5351(2)
H13 H 0.0741 0.2586 0.5452
H14 H 0.0241 0.2331 0.5184
H15 H 0.0418 0.3849 0.5768
C20 C 0.11582(11) 0.7842(5) 0.71274(17)
C21 C 0.04906(13) 0.9558(7) 0.6913(3)
H16 H 0.0402 1.0902 0.6876
H17 H 0.0461 0.9086 0.7367
C22 C 0.02065(15) 0.8420(9) 0.6358(3)
H18 H 0.0237 0.8883 0.5908
H19 H -0.0089 0.8558 0.6401
H20 H 0.0288 0.7082 0.6404
O1 O 0.09846(8) 1.0412(4) 0.40532(12)
O2 O 0.04209(8) 0.7445(4) 0.38777(13)
O3 O 0.04725(8) 0.4667(4) 0.48347(12)
O4 O 0.10098(9) 0.6591(5) 0.74270(16)
O5 O 0.09422(7) 0.9411(4) 0.68545(13)
loop_
_geom_bond_atom_site_label_1
_geom_bond_atom_site_label_2
_geom_bond_site_symmetry_1
_geom_bond_site_symmetry_2
Br1 C2 1_555 1_555
Br2 C5 1_555 1_555
C1 C2 1_555 1_555
C2 C3 1_555 1_555
C3 H1 1_555 1_555
C4 C3 1_555 1_555
H2 C4 1_555 1_555
C5 C4 1_555 1_555
C6 C1 1_555 1_555
C7 C6 1_555 1_555
H3 C7 1_555 1_555
C8 C7 1_555 1_555
C9 C8 1_555 1_555
C10 C1 1_555 1_555
H4 C10 1_555 1_555
C11 C9 1_555 1_555
C12 C11 1_555 1_555
H5 C12 1_555 1_555
C13 C12 1_555 1_555
C14 C13 1_555 1_555
C15 C14 1_555 1_555
C16 C11 1_555 1_555
H6 C16 1_555 1_555
C17 H7 1_555 1_555
H8 C17 1_555 1_555
H9 C17 1_555 1_555
C18 H10 1_555 1_555
H11 C18 1_555 1_555
H12 C18 1_555 1_555
C19 H13 1_555 1_555
H14 C19 1_555 1_555
H15 C19 1_555 1_555
C20 C8 1_555 1_555
C21 H16 1_555 1_555
H17 C21 1_555 1_555
C22 C21 1_555 1_555
H18 C22 1_555 1_555
H19 C22 1_555 1_555
H20 C22 1_555 1_555
O1 C13 1_555 1_555
O2 C14 1_555 1_555
O3 C15 1_555 1_555
O4 C20 1_555 1_555
O5 C20 1_555 1_555
C5 C6 1_555 1_555
C9 C10 1_555 1_555
C15 C16 1_555 1_555
C17 O1 1_555 1_555
C18 O2 1_555 1_555
C19 O3 1_555 1_555
C21 O5 1_555 1_555

#END
