
#######################################################################
#
#                 Cambridge Crystallographic Data Centre
#                                CCDC 
#
#######################################################################
#
# If this CIF has been generated from an entry in the Cambridge 
# Structural Database, then it will include bibliographic, chemical, 
# crystal, experimental, refinement or atomic coordinate data resulting 
# from the CCDC's data processing and validation procedures.
#
#######################################################################

data_PEVPEN
_chemical_formula_moiety         'C23 H14 Br2 O1'
_chemical_name_systematic        
(5,8-Dibromo-3-phenyl-2-naphthyl)(phenyl)methanone
_symmetry_cell_setting           triclinic
_symmetry_space_group_name_H-M   'P -1'
_symmetry_Int_Tables_number      2
_space_group_name_Hall           '-P 1'
loop_
_symmetry_equiv_pos_site_id
_symmetry_equiv_pos_as_xyz
1 x,y,z
2 -x,-y,-z
_cell_length_a                   9.9684(14)
_cell_length_b                   10.5486(15)
_cell_length_c                   10.7325(17)
_cell_angle_alpha                109.747(2)
_cell_angle_beta                 98.305(2)
_cell_angle_gamma                112.538(2)
_cell_volume                     931.075
_exptl_crystal_description       block
_cell_formula_units_Z            2
loop_
_atom_site_label
_atom_site_type_symbol
_atom_site_fract_x
_atom_site_fract_y
_atom_site_fract_z
Br1 Br 1.02751(7) -0.08349(7) 0.65675(5)
Br2 Br 1.36213(6) 0.38611(7) 1.31931(5)
C1 C 1.0436(4) 0.1317(5) 0.9185(4)
C2 C 1.1159(5) 0.0487(5) 0.8485(5)
C3 C 1.2525(5) 0.0659(6) 0.9191(5)
H1 H 1.2969 0.0092 0.8729
C4 C 1.3245(5) 0.1663(6) 1.0575(5)
H2 H 1.4181 0.1782 1.1037
C5 C 1.2592(5) 0.2494(5) 1.1285(5)
C6 C 1.1166(4) 0.2344(4) 1.0600(4)
C7 C 1.0485(4) 0.3194(5) 1.1275(4)
H3 H 1.0979 0.3877 1.2210
C8 C 0.9124(4) 0.3064(4) 1.0620(4)
C9 C 0.8373(4) 0.2000(5) 0.9181(4)
C10 C 0.9026(5) 0.1180(5) 0.8495(4)
H4 H 0.8538 0.0517 0.7554
C11 C 0.8488(4) 0.4026(5) 1.1396(4)
C12 C 0.7896(5) 0.4784(5) 1.0816(5)
H5 H 0.7856 0.4647 0.9906
C13 C 0.7372(6) 0.5732(6) 1.1578(6)
H6 H 0.6965 0.6209 1.1170
C14 C 0.7449(7) 0.5975(6) 1.2939(6)
H7 H 0.7104 0.6620 1.3452
C15 C 0.8052(7) 0.5240(6) 1.3543(6)
H8 H 0.8125 0.5404 1.4464
C16 C 0.8533(6) 0.4277(6) 1.2764(5)
H9 H 0.8904 0.3773 1.3165
C17 C 0.6788(5) 0.1643(5) 0.8437(4)
C18 C 0.6507(5) 0.1917(5) 0.7168(4)
C19 C 0.5029(5) 0.1560(5) 0.6491(5)
H10 H 0.4240 0.1199 0.6848
C20 C 0.4735(6) 0.1743(6) 0.5281(5)
H11 H 0.3740 0.1491 0.4824
C21 C 0.5868(7) 0.2284(6) 0.4741(5)
H12 H 0.5654 0.2398 0.3924
C22 C 0.7355(6) 0.2662(6) 0.5441(5)
H13 H 0.8144 0.3032 0.5088
C23 C 0.7663(5) 0.2495(5) 0.6639(4)
H14 H 0.8664 0.2773 0.7105
O1 O 0.5753(4) 0.1116(5) 0.8886(4)
loop_
_geom_bond_atom_site_label_1
_geom_bond_atom_site_label_2
_geom_bond_site_symmetry_1
_geom_bond_site_symmetry_2
Br1 C2 1_555 1_555
Br2 C5 1_555 1_555
C1 C2 1_555 1_555
C2 C3 1_555 1_555
C3 H1 1_555 1_555
C4 C3 1_555 1_555
H2 C4 1_555 1_555
C5 C4 1_555 1_555
C6 C1 1_555 1_555
C7 C6 1_555 1_555
H3 C7 1_555 1_555
C8 C7 1_555 1_555
C9 C8 1_555 1_555
C10 C1 1_555 1_555
H4 C10 1_555 1_555
C11 C8 1_555 1_555
C12 C11 1_555 1_555
H5 C12 1_555 1_555
C13 C12 1_555 1_555
H6 C13 1_555 1_555
C14 C13 1_555 1_555
H7 C14 1_555 1_555
C15 C14 1_555 1_555
H8 C15 1_555 1_555
C16 C11 1_555 1_555
H9 C16 1_555 1_555
C17 C9 1_555 1_555
C18 C17 1_555 1_555
C19 C18 1_555 1_555
H10 C19 1_555 1_555
C20 C19 1_555 1_555
H11 C20 1_555 1_555
C21 C20 1_555 1_555
H12 C21 1_555 1_555
C22 C21 1_555 1_555
H13 C22 1_555 1_555
C23 C18 1_555 1_555
H14 C23 1_555 1_555
O1 C17 1_555 1_555
C5 C6 1_555 1_555
C9 C10 1_555 1_555
C15 C16 1_555 1_555
C22 C23 1_555 1_555

#END
