
#######################################################################
#
#                 Cambridge Crystallographic Data Centre
#                                CCDC 
#
#######################################################################
#
# If this CIF has been generated from an entry in the Cambridge 
# Structural Database, then it will include bibliographic, chemical, 
# crystal, experimental, refinement or atomic coordinate data resulting 
# from the CCDC's data processing and validation procedures.
#
#######################################################################

data_PEVVIX
_chemical_formula_moiety         'C27 H39 B1 N2 O2'
_chemical_name_systematic        
(1,3-bis(1-(2-methoxyphenyl)-2,2-dimethylpropyl)-1H-imidazol-2-ylidene)trihydridoborate
_symmetry_cell_setting           monoclinic
_symmetry_space_group_name_H-M   'P 21'
_symmetry_Int_Tables_number      4
_space_group_name_Hall           'P 2yb'
loop_
_symmetry_equiv_pos_site_id
_symmetry_equiv_pos_as_xyz
1 x,y,z
2 -x,1/2+y,-z
_cell_length_a                   12.55564(15)
_cell_length_b                   14.24537(18)
_cell_length_c                   14.6874(2)
_cell_angle_alpha                90
_cell_angle_beta                 98.7154(12)
_cell_angle_gamma                90
_cell_volume                     2596.65
_exptl_crystal_colour            white
_exptl_crystal_description       platelet
_cell_formula_units_Z            4
loop_
_atom_site_label
_atom_site_type_symbol
_atom_site_fract_x
_atom_site_fract_y
_atom_site_fract_z
N1 N 1.05950(13) -0.05334(11) 1.00673(13)
N2 N 0.88748(13) -0.05897(11) 1.00773(13)
O1 O 0.64248(12) -0.24578(12) 0.96200(13)
O2 O 1.30924(14) -0.20433(12) 1.11431(14)
C1 C 0.97628(14) -0.11355(14) 1.01271(14)
C2 C 0.70637(15) -0.09695(14) 0.92304(15)
C3 C 1.17205(15) -0.08382(14) 1.00731(15)
H1 H 1.1709 -0.1537 1.0137
C4 C 1.02108(17) 0.03778(14) 0.99792(17)
H2 H 1.0625 0.0927 0.9922
C5 C 0.77994(15) -0.09723(14) 1.01598(15)
H3 H 0.7918 -0.1648 1.0330
C6 C 1.24622(15) -0.04874(15) 1.09194(15)
C7 C 0.70510(18) -0.02517(16) 0.85830(17)
H4 H 0.7530 0.0263 0.8717
C8 C 1.25162(17) 0.04478(17) 1.12059(16)
H5 H 1.2074 0.0899 1.0854
C9 C 0.91478(17) 0.03417(14) 0.99889(17)
H6 H 0.8669 0.0861 0.9943
C10 C 0.63566(16) -0.17321(15) 0.89976(16)
C11 C 1.31425(16) -0.11298(17) 1.14621(17)
C12 C 0.73165(19) -0.05119(19) 1.09768(17)
C13 C 0.6362(2) -0.02650(19) 0.77492(19)
H7 H 0.6369 0.0236 0.7323
C14 C 1.21169(17) -0.06485(18) 0.91307(16)
C15 C 0.5666(2) -0.1010(2) 0.75445(19)
H8 H 0.5188 -0.1022 0.6978
C16 C 1.38084(19) -0.0842(2) 1.22444(19)
H9 H 1.4253 -0.1286 1.2604
C17 C 1.31988(18) 0.0741(2) 1.19930(17)
H10 H 1.3224 0.1383 1.2169
C18 C 0.56655(18) -0.17414(18) 0.81653(18)
H11 H 0.5187 -0.2255 0.8020
C19 C 1.3833(2) 0.0093(2) 1.25096(18)
H12 H 1.4292 0.0286 1.3052
C20 C 0.55080(17) -0.30488(18) 0.9592(2)
H13 H 0.5436 -0.3440 0.9037
H14 H 0.4861 -0.2662 0.9580
H15 H 0.5596 -0.3452 1.0139
C21 C 1.2237(2) 0.0393(2) 0.89006(19)
H16 H 1.1527 0.0693 0.8812
H17 H 1.2557 0.0449 0.8334
H18 H 1.2705 0.0701 0.9408
C22 C 1.3207(2) -0.1136(3) 0.9169(2)
H19 H 1.3730 -0.0844 0.9648
H20 H 1.3457 -0.1073 0.8572
H21 H 1.3132 -0.1802 0.9312
C23 C 1.1322(2) -0.1108(2) 0.8370(2)
H22 H 1.1287 -0.1784 0.8488
H23 H 1.1562 -0.1004 0.7774
H24 H 1.0606 -0.0831 0.8361
B1 B 0.9789(2) -0.22567(17) 1.0232(2)
C24 C 0.8189(2) -0.0511(3) 1.1831(2)
H25 H 0.8533 -0.1130 1.1901
H26 H 0.7860 -0.0369 1.2379
H27 H 0.8732 -0.0033 1.1758
C25 C 1.3827(2) -0.2697(2) 1.1614(2)
H28 H 1.3731 -0.3308 1.1306
H29 H 1.3694 -0.2759 1.2251
H30 H 1.4566 -0.2476 1.1609
C26 C 0.6389(2) -0.1135(3) 1.1196(2)
H31 H 0.5814 -0.1145 1.0665
H32 H 0.6108 -0.0882 1.1733
H33 H 0.6655 -0.1774 1.1330
C27 C 0.6865(3) 0.0477(2) 1.0782(2)
H34 H 0.7452 0.0906 1.0698
H35 H 0.6522 0.0690 1.1303
H36 H 0.6331 0.0469 1.0222
H37 H 0.921(3) -0.256(3) 0.972(3)
H38 H 1.058(4) -0.250(3) 1.027(3)
H39 H 0.961(4) -0.239(3) 1.092(3)
N3 N 0.43871(13) 0.18286(11) 0.49882(13)
N4 N 0.61026(13) 0.17882(11) 0.49378(12)
O3 O 0.18118(14) 0.02977(12) 0.40296(13)
O4 O 0.85361(13) -0.00951(12) 0.53378(14)
C28 C 0.32645(15) 0.15190(14) 0.50070(15)
H40 H 0.3281 0.0819 0.4966
C29 C 0.25026(15) 0.18410(15) 0.41584(15)
C30 C 0.52201(14) 0.12334(13) 0.49206(14)
C31 C 0.78957(15) 0.13715(15) 0.57738(15)
C32 C 0.17846(16) 0.11925(16) 0.36760(16)
C33 C 0.71756(15) 0.14168(14) 0.48425(15)
H41 H 0.7055 0.0750 0.4639
C34 C 0.58237(17) 0.27202(14) 0.50335(17)
H42 H 0.6295 0.3245 0.5070
C35 C 0.47611(17) 0.27412(15) 0.50649(17)
H43 H 0.4342 0.3286 0.5128
C36 C 0.79021(18) 0.20691(17) 0.64429(17)
H44 H 0.7429 0.2589 0.6320
C37 C 0.25044(19) 0.27445(17) 0.37924(18)
H45 H 0.2983 0.3200 0.4099
C38 C 0.8576(2) 0.2025(2) 0.72775(18)
H46 H 0.8566 0.2513 0.7717
C39 C 0.85895(17) 0.06011(16) 0.59867(17)
C40 C 0.11305(19) 0.2356(2) 0.25429(19)
H47 H 0.0669 0.2528 0.1995
C41 C 0.29010(18) 0.17407(18) 0.59577(17)
C42 C 0.76731(18) 0.19189(19) 0.40537(16)
C43 C 0.9258(2) 0.1276(2) 0.74695(19)
H48 H 0.9726 0.1246 0.8041
C44 C 0.1827(2) 0.29994(19) 0.29923(19)
H49 H 0.1849 0.3620 0.2759
B2 B 0.52461(19) 0.01045(16) 0.48982(19)
C45 C 0.9267(2) 0.0558(2) 0.6827(2)
H50 H 0.9736 0.0037 0.6963
C46 C 0.10979(18) 0.14502(19) 0.28872(18)
H51 H 0.0604 0.1007 0.2581
C47 C 0.3735(2) 0.1338(3) 0.6720(2)
H52 H 0.3807 0.0661 0.6625
H53 H 0.3502 0.1449 0.7319
H54 H 0.4431 0.1644 0.6707
C48 C 0.94479(19) -0.06939(18) 0.5373(2)
H55 H 0.9374 -0.1081 0.4815
H56 H 0.9495 -0.1101 0.5915
H57 H 1.0103 -0.0313 0.5412
C49 C 0.6813(2) 0.1946(3) 0.31913(19)
H58 H 0.6515 0.1316 0.3065
H59 H 0.7140 0.2164 0.2664
H60 H 0.6235 0.2377 0.3295
C50 C 0.1244(2) -0.04062(19) 0.3473(2)
H61 H 0.1476 -0.0407 0.2865
H62 H 0.0469 -0.0278 0.3404
H63 H 0.1393 -0.1020 0.3765
C51 C 0.8617(2) 0.1314(3) 0.3839(2)
H64 H 0.9198 0.1326 0.4366
H65 H 0.8883 0.1565 0.3294
H66 H 0.8372 0.0667 0.3720
C52 C 0.1830(2) 0.1238(3) 0.5976(2)
H67 H 0.1286 0.1490 0.5487
H68 H 0.1595 0.1338 0.6575
H69 H 0.1921 0.0565 0.5876
C53 C 0.2754(3) 0.2791(2) 0.6143(2)
H70 H 0.3458 0.3102 0.6230
H71 H 0.2419 0.2867 0.6699
H72 H 0.2291 0.3074 0.5617
C54 C 0.8118(3) 0.2900(2) 0.4293(2)
H73 H 0.7521 0.3330 0.4349
H74 H 0.8509 0.3122 0.3806
H75 H 0.8608 0.2879 0.4879
H76 H 0.578(2) -0.013(2) 0.552(2)
H77 H 0.557(3) -0.015(3) 0.425(2)
H78 H 0.440(3) -0.016(3) 0.481(3)
loop_
_geom_bond_atom_site_label_1
_geom_bond_atom_site_label_2
_geom_bond_site_symmetry_1
_geom_bond_site_symmetry_2
N1 C1 1_555 1_555
N2 C1 1_555 1_555
O1 C10 1_555 1_555
O2 C11 1_555 1_555
C1 B1 1_555 1_555
C2 C5 1_555 1_555
C3 N1 1_555 1_555
H1 C3 1_555 1_555
C4 N1 1_555 1_555
H2 C4 1_555 1_555
C5 N2 1_555 1_555
H3 C5 1_555 1_555
C6 C3 1_555 1_555
C7 C2 1_555 1_555
H4 C7 1_555 1_555
C8 C6 1_555 1_555
H5 C8 1_555 1_555
C9 N2 1_555 1_555
H6 C9 1_555 1_555
C10 C2 1_555 1_555
C11 C6 1_555 1_555
C12 C5 1_555 1_555
C13 C7 1_555 1_555
H7 C13 1_555 1_555
C14 C3 1_555 1_555
C15 C13 1_555 1_555
H8 C15 1_555 1_555
C16 C11 1_555 1_555
H9 C16 1_555 1_555
C17 C8 1_555 1_555
H10 C17 1_555 1_555
C18 C10 1_555 1_555
H11 C18 1_555 1_555
C19 C16 1_555 1_555
H12 C19 1_555 1_555
C20 O1 1_555 1_555
H13 C20 1_555 1_555
H14 C20 1_555 1_555
H15 C20 1_555 1_555
C21 C14 1_555 1_555
H16 C21 1_555 1_555
H17 C21 1_555 1_555
H18 C21 1_555 1_555
C22 C14 1_555 1_555
H19 C22 1_555 1_555
H20 C22 1_555 1_555
H21 C22 1_555 1_555
C23 C14 1_555 1_555
H22 C23 1_555 1_555
H23 C23 1_555 1_555
H24 C23 1_555 1_555
B1 H37 1_555 1_555
C24 C12 1_555 1_555
H25 C24 1_555 1_555
H26 C24 1_555 1_555
H27 C24 1_555 1_555
C25 O2 1_555 1_555
H28 C25 1_555 1_555
H29 C25 1_555 1_555
H30 C25 1_555 1_555
C26 C12 1_555 1_555
H31 C26 1_555 1_555
H32 C26 1_555 1_555
H33 C26 1_555 1_555
C27 C12 1_555 1_555
H34 C27 1_555 1_555
H35 C27 1_555 1_555
H36 C27 1_555 1_555
H38 B1 1_555 1_555
H39 B1 1_555 1_555
N3 C28 1_555 1_555
N4 C30 1_555 1_555
O3 C32 1_555 1_555
O4 C39 1_555 1_555
C28 H40 1_555 1_555
C29 C28 1_555 1_555
C30 N3 1_555 1_555
C31 C33 1_555 1_555
C32 C29 1_555 1_555
C33 N4 1_555 1_555
H41 C33 1_555 1_555
C34 N4 1_555 1_555
H42 C34 1_555 1_555
C35 N3 1_555 1_555
H43 C35 1_555 1_555
C36 C31 1_555 1_555
H44 C36 1_555 1_555
C37 C29 1_555 1_555
H45 C37 1_555 1_555
C38 C36 1_555 1_555
H46 C38 1_555 1_555
C39 C31 1_555 1_555
C40 H47 1_555 1_555
C41 C28 1_555 1_555
C42 C33 1_555 1_555
C43 C38 1_555 1_555
H48 C43 1_555 1_555
C44 C37 1_555 1_555
H49 C44 1_555 1_555
B2 C30 1_555 1_555
C45 C39 1_555 1_555
H50 C45 1_555 1_555
C46 C32 1_555 1_555
H51 C46 1_555 1_555
C47 C41 1_555 1_555
H52 C47 1_555 1_555
H53 C47 1_555 1_555
H54 C47 1_555 1_555
C48 O4 1_555 1_555
H55 C48 1_555 1_555
H56 C48 1_555 1_555
H57 C48 1_555 1_555
C49 C42 1_555 1_555
H58 C49 1_555 1_555
H59 C49 1_555 1_555
H60 C49 1_555 1_555
C50 O3 1_555 1_555
H61 C50 1_555 1_555
H62 C50 1_555 1_555
H63 C50 1_555 1_555
C51 C42 1_555 1_555
H64 C51 1_555 1_555
H65 C51 1_555 1_555
H66 C51 1_555 1_555
C52 C41 1_555 1_555
H67 C52 1_555 1_555
H68 C52 1_555 1_555
H69 C52 1_555 1_555
C53 C41 1_555 1_555
H70 C53 1_555 1_555
H71 C53 1_555 1_555
H72 C53 1_555 1_555
C54 C42 1_555 1_555
H73 C54 1_555 1_555
H74 C54 1_555 1_555
H75 C54 1_555 1_555
H76 B2 1_555 1_555
H77 B2 1_555 1_555
H78 B2 1_555 1_555
C4 C9 1_555 1_555
C15 C18 1_555 1_555
C17 C19 1_555 1_555
C34 C35 1_555 1_555
C40 C44 1_555 1_555
C40 C46 1_555 1_555
C43 C45 1_555 1_555

#END
