
#######################################################################
#
#                 Cambridge Crystallographic Data Centre
#                                CCDC 
#
#######################################################################
#
# If this CIF has been generated from an entry in the Cambridge 
# Structural Database, then it will include bibliographic, chemical, 
# crystal, experimental, refinement or atomic coordinate data resulting 
# from the CCDC's data processing and validation procedures.
#
#######################################################################

data_PEVVUH
_chemical_compound_source        'from Litsea cassiaefolia(Lauraceae)'
_chemical_name_common            Isocurcumol
_chemical_formula_moiety         'C15 H24 O2'
_chemical_name_systematic        
(3S-(3\a,3a\a,5\b,6\a,8a\a))-3,8-Dimethyl-5-(1-methylethyl)-2,3,4,5,6,8a-hexahydro-1H-3a,6-epoxyazulen-6-ol
_symmetry_cell_setting           orthorhombic
_symmetry_space_group_name_H-M   'P 21 21 21'
_symmetry_Int_Tables_number      19
_space_group_name_Hall           'P 2ac 2ab'
loop_
_symmetry_equiv_pos_site_id
_symmetry_equiv_pos_as_xyz
1 x,y,z
2 1/2+x,1/2-y,-z
3 -x,1/2+y,1/2-z
4 1/2-x,-y,1/2+z
_cell_length_a                   21.967(5)
_cell_length_b                   13.254(3)
_cell_length_c                   9.793(5)
_cell_angle_alpha                90
_cell_angle_beta                 90
_cell_angle_gamma                90
_cell_volume                     2851.24
_chemical_melting_point          '106-107 deg.C'
_cell_formula_units_Z            8
loop_
_atom_site_label
_atom_site_type_symbol
_atom_site_fract_x
_atom_site_fract_y
_atom_site_fract_z
C1 C 0.5290(2) 0.6353(4) 0.5463(5)
C2 C 0.4945(2) 0.7085(5) 0.4522(6)
C3 C 0.4707(2) 0.7926(5) 0.5458(7)
C4 C 0.4873(2) 0.7637(4) 0.6906(6)
C5 C 0.5426(2) 0.6973(3) 0.6767(5)
O1 O 0.5954(1) 0.7599(2) 0.6425(3)
C6 C 0.5650(2) 0.6369(4) 0.7989(6)
C7 C 0.6347(2) 0.6401(3) 0.7909(5)
C8 C 0.6454(2) 0.6882(3) 0.6504(5)
O2 O 0.6995(1) 0.7441(2) 0.6506(4)
C9 C 0.6391(2) 0.6169(4) 0.5362(6)
C10 C 0.5856(2) 0.5894(4) 0.4849(5)
C11 C 0.6651(2) 0.5397(4) 0.8222(6)
C12 C 0.7346(3) 0.5426(6) 0.799(1)
C13 C 0.6515(3) 0.5062(5) 0.9681(7)
C14 C 0.5765(4) 0.5193(7) 0.3654(8)
C15 C 0.4932(3) 0.8514(4) 0.7890(7)
H1 H 0.498(2) 0.577(3) 0.577(4)
H2 H 0.462(2) 0.674(3) 0.401(5)
H3 H 0.522(2) 0.736(4) 0.370(7)
H4 H 0.428(3) 0.807(4) 0.545(6)
H5 H 0.494(2) 0.857(4) 0.518(5)
H6 H 0.458(2) 0.721(4) 0.732(5)
H7 H 0.552(2) 0.576(3) 0.789(4)
H8 H 0.550(2) 0.663(3) 0.900(4)
H9 H 0.648(2) 0.690(3) 0.851(4)
H10 H 0.701(3) 0.777(5) 0.538(7)
H11 H 0.676(2) 0.586(3) 0.506(5)
H12 H 0.647(2) 0.491(3) 0.771(4)
H13 H 0.754(2) 0.589(4) 0.865(6)
H14 H 0.751(2) 0.477(4) 0.811(5)
H15 H 0.740(3) 0.564(5) 0.709(7)
H16 H 0.605(2) 0.515(3) 0.984(4)
H17 H 0.667(2) 0.444(4) 0.971(6)
H18 H 0.670(2) 0.558(4) 1.043(6)
H19 H 0.610(3) 0.482(5) 0.365(8)
H20 H 0.552(4) 0.454(7) 0.42(1)
H21 H 0.549(2) 0.559(4) 0.299(6)
H22 H 0.453(2) 0.886(3) 0.799(5)
H23 H 0.511(2) 0.841(4) 0.882(6)
H24 H 0.533(2) 0.910(4) 0.732(5)
C16 C 0.7029(2) 0.8614(4) 0.2091(6)
C17 C 0.7322(3) 0.7559(4) 0.2150(8)
C18 C 0.7915(3) 0.7679(5) 0.2925(9)
C19 C 0.8004(2) 0.8801(4) 0.3147(5)
C20 C 0.7359(2) 0.9220(3) 0.3184(4)
O3 O 0.7080(1) 0.8990(2) 0.4503(3)
C21 C 0.7276(2) 1.0368(3) 0.3074(5)
C22 C 0.6738(2) 1.0616(3) 0.4042(5)
C23 C 0.6515(2) 0.9568(3) 0.4429(4)
O4 O 0.6262(1) 0.9579(2) 0.5744(3)
C24 C 0.6119(2) 0.9083(4) 0.3390(6)
C25 C 0.6347(2) 0.8639(4) 0.2279(5)
C26 C 0.6273(2) 1.1343(3) 0.3459(6)
C27 C 0.5718(3) 1.1488(6) 0.4365(9)
C28 C 0.6558(3) 1.2355(4) 0.3150(9)
C29 C 0.5966(3) 0.8139(7) 0.1207(8)
C30 C 0.8400(3) 0.9073(7) 0.4345(8)
H25 H 0.691(2) 1.095(3) 0.498(4)
H26 H 0.615(2) 0.901(3) 0.595(4)
H27 H 0.571(2) 0.910(3) 0.347(5)
H28 H 0.712(2) 0.896(3) 0.112(4)
H29 H 0.733(2) 0.730(4) 0.113(6)
H30 H 0.705(2) 0.707(3) 0.281(5)
H31 H 0.821(2) 0.734(4) 0.238(6)
H32 H 0.791(3) 0.740(5) 0.387(7)
H33 H 0.816(2) 0.911(3) 0.220(4)
H34 H 0.721(2) 1.055(3) 0.217(5)
H35 H 0.767(2) 1.071(3) 0.348(5)
H36 H 0.614(2) 1.109(3) 0.246(4)
H37 H 0.553(2) 1.090(3) 0.477(5)
H38 H 0.583(2) 1.176(4) 0.515(6)
H39 H 0.541(3) 1.204(5) 0.379(7)
H40 H 0.626(3) 1.275(4) 0.249(6)
H41 H 0.662(2) 1.269(4) 0.409(6)
H42 H 0.694(3) 1.232(5) 0.267(6)
H43 H 0.602(3) 0.748(5) 0.137(8)
H44 H 0.555(2) 0.828(3) 0.118(5)
H45 H 0.613(3) 0.842(4) 0.021(6)
H46 H 0.885(3) 0.889(5) 0.435(7)
H47 H 0.844(2) 0.978(4) 0.468(6)
H48 H 0.829(3) 0.879(5) 0.518(6)
loop_
_geom_bond_atom_site_label_1
_geom_bond_atom_site_label_2
_geom_bond_site_symmetry_1
_geom_bond_site_symmetry_2
C1 C2 1_555 1_555
C2 C3 1_555 1_555
C3 C4 1_555 1_555
C4 C5 1_555 1_555
C5 C1 1_555 1_555
O1 C5 1_555 1_555
C6 C5 1_555 1_555
C7 C6 1_555 1_555
C8 O1 1_555 1_555
O2 C8 1_555 1_555
C9 C8 1_555 1_555
C10 C1 1_555 1_555
C11 C7 1_555 1_555
C12 C11 1_555 1_555
C13 C11 1_555 1_555
C14 C10 1_555 1_555
C15 C4 1_555 1_555
H1 C1 1_555 1_555
H2 C2 1_555 1_555
H3 C2 1_555 1_555
H4 C3 1_555 1_555
H5 C3 1_555 1_555
H6 C4 1_555 1_555
H7 C6 1_555 1_555
H8 C6 1_555 1_555
H9 C7 1_555 1_555
H10 O2 1_555 1_555
H11 C9 1_555 1_555
H12 C11 1_555 1_555
H13 C12 1_555 1_555
H14 C12 1_555 1_555
H15 C12 1_555 1_555
H16 C13 1_555 1_555
H17 C13 1_555 1_555
H18 C13 1_555 1_555
H19 C14 1_555 1_555
H20 C14 1_555 1_555
H21 C14 1_555 1_555
H22 C15 1_555 1_555
H23 C15 1_555 1_555
H24 C15 1_555 1_555
C16 C17 1_555 1_555
C17 C18 1_555 1_555
C18 C19 1_555 1_555
C19 C20 1_555 1_555
C20 C16 1_555 1_555
O3 C20 1_555 1_555
C21 C20 1_555 1_555
C22 C21 1_555 1_555
C23 O3 1_555 1_555
O4 C23 1_555 1_555
C24 C23 1_555 1_555
C25 C16 1_555 1_555
C26 C22 1_555 1_555
C27 C26 1_555 1_555
C28 C26 1_555 1_555
C29 C25 1_555 1_555
C30 C19 1_555 1_555
H25 C22 1_555 1_555
H26 O4 1_555 1_555
H27 C24 1_555 1_555
H28 C16 1_555 1_555
H29 C17 1_555 1_555
H30 C17 1_555 1_555
H31 C18 1_555 1_555
H32 C18 1_555 1_555
H33 C19 1_555 1_555
H34 C21 1_555 1_555
H35 C21 1_555 1_555
H36 C26 1_555 1_555
H37 C27 1_555 1_555
H38 C27 1_555 1_555
H39 C27 1_555 1_555
H40 C28 1_555 1_555
H41 C28 1_555 1_555
H42 C28 1_555 1_555
H43 C29 1_555 1_555
H44 C29 1_555 1_555
H45 C29 1_555 1_555
H46 C30 1_555 1_555
H47 C30 1_555 1_555
H48 C30 1_555 1_555
C7 C8 1_555 1_555
C9 C10 1_555 1_555
C22 C23 1_555 1_555
C24 C25 1_555 1_555

#END
