
#######################################################################
#
#                 Cambridge Crystallographic Data Centre
#                                CCDC 
#
#######################################################################
#
# If this CIF has been generated from an entry in the Cambridge 
# Structural Database, then it will include bibliographic, chemical, 
# crystal, experimental, refinement or atomic coordinate data resulting 
# from the CCDC's data processing and validation procedures.
#
#######################################################################

data_PEVYIB
_chemical_formula_moiety         'C38 H28 Cl1 N1 O3 S1'
_chemical_name_systematic        
1-(7-(4-chlorophenyl)-5-((4-methylphenyl)sulfonyl)-12-phenyl-5,6-dihydrobenzo[j]phenanthridin-10-yl)ethan-1-one
_symmetry_cell_setting           monoclinic
_symmetry_space_group_name_H-M   'P 21/n'
_symmetry_Int_Tables_number      14
_space_group_name_Hall           '-P 2yn'
loop_
_symmetry_equiv_pos_site_id
_symmetry_equiv_pos_as_xyz
1 x,y,z
2 1/2-x,1/2+y,1/2-z
3 -x,-y,-z
4 1/2+x,1/2-y,1/2+z
_cell_length_a                   13.1712(11)
_cell_length_b                   10.8790(9)
_cell_length_c                   21.0852(18)
_cell_angle_alpha                90
_cell_angle_beta                 95.9290(10)
_cell_angle_gamma                90
_cell_volume                     3005.13
_exptl_crystal_colour            colorless
_exptl_crystal_description       block
_cell_formula_units_Z            4
loop_
_atom_site_label
_atom_site_type_symbol
_atom_site_fract_x
_atom_site_fract_y
_atom_site_fract_z
C1 C 0.81547(18) 0.1508(2) 0.09707(11)
Cl1 Cl 1.04333(7) 0.90708(8) 0.22752(3)
N1 N 0.71254(16) 0.31713(17) 0.16531(8)
O1 O 0.77186(17) 0.11870(18) 0.21145(8)
S1 S 0.80471(5) 0.21496(6) 0.17270(3)
C2 C 0.8747(2) 0.2085(3) 0.05566(13)
H1 H 0.9080 0.2818 0.0670
O2 O 0.89584(15) 0.28189(19) 0.19262(9)
C3 C 0.8835(2) 0.1554(3) -0.00298(14)
H2 H 0.9228 0.1946 -0.0311
O3 O 0.78907(17) 0.4647(2) -0.24392(9)
C4 C 0.8360(2) 0.0461(3) -0.02114(13)
C5 C 0.7769(2) -0.0081(3) 0.02076(13)
H3 H 0.7431 -0.0811 0.0093
C6 C 0.7664(2) 0.0431(2) 0.07973(12)
H4 H 0.7262 0.0046 0.1075
C7 C 0.8456(3) -0.0083(4) -0.08602(16)
H5 H 0.8148 -0.0884 -0.0886
H6 H 0.9165 -0.0151 -0.0925
H7 H 0.8116 0.0439 -0.1182
C8 C 0.61378(19) 0.2813(2) 0.13595(10)
C9 C 0.5499(2) 0.2088(2) 0.16796(12)
H8 H 0.5740 0.1725 0.2065
C10 C 0.4510(2) 0.1905(2) 0.14276(13)
H9 H 0.4077 0.1414 0.1640
C11 C 0.4156(2) 0.2458(2) 0.08528(13)
H10 H 0.3475 0.2370 0.0693
C12 C 0.48058(19) 0.3133(2) 0.05179(11)
H11 H 0.4562 0.3485 0.0130
C13 C 0.58253(18) 0.3296(2) 0.07536(10)
C14 C 0.65728(17) 0.40085(19) 0.04193(10)
C15 C 0.66009(17) 0.4017(2) -0.02388(10)
C16 C 0.73268(17) 0.4786(2) -0.05046(10)
C17 C 0.74291(17) 0.4798(2) -0.11701(10)
H12 H 0.7062 0.4233 -0.1434
C18 C 0.80537(18) 0.5619(2) -0.14328(11)
C19 C 0.86158(19) 0.6468(2) -0.10432(11)
H13 H 0.9012 0.7054 -0.1224
C20 C 0.85860(18) 0.6441(2) -0.03994(11)
H14 H 0.8987 0.6990 -0.0145
C21 C 0.79593(17) 0.5598(2) -0.01104(10)
C22 C 0.79532(17) 0.5521(2) 0.05670(10)
C23 C 0.73061(17) 0.4704(2) 0.08152(10)
C24 C 0.73526(19) 0.4466(2) 0.15239(10)
H15 H 0.8028 0.4669 0.1724
H16 H 0.6864 0.4990 0.1707
C25 C 0.59130(17) 0.3212(2) -0.06627(10)
C26 C 0.52664(18) 0.3686(2) -0.11655(10)
H17 H 0.5255 0.4528 -0.1242
C27 C 0.4637(2) 0.2915(3) -0.15539(11)
H18 H 0.4216 0.3242 -0.1894
C28 C 0.4632(2) 0.1674(3) -0.14406(13)
H19 H 0.4203 0.1160 -0.1699
C29 C 0.5262(2) 0.1197(3) -0.09440(14)
H20 H 0.5258 0.0356 -0.0864
C30 C 0.5905(2) 0.1955(2) -0.05619(12)
H21 H 0.6339 0.1616 -0.0232
C31 C 0.86011(18) 0.6366(2) 0.09984(10)
C32 C 0.8131(2) 0.7296(2) 0.13103(11)
H22 H 0.7425 0.7372 0.1252
C33 C 0.8695(2) 0.8111(2) 0.17068(12)
H23 H 0.8368 0.8727 0.1914
C34 C 0.9730(2) 0.8010(2) 0.17932(11)
C35 C 1.0218(2) 0.7084(3) 0.15092(13)
H24 H 1.0923 0.7001 0.1583
C36 C 0.96531(19) 0.6270(3) 0.11111(13)
H25 H 0.9987 0.5644 0.0915
C37 C 0.8105(2) 0.5585(3) -0.21445(12)
C38 C 0.8404(3) 0.6732(3) -0.24655(14)
H26 H 0.8315 0.6618 -0.2919
H27 H 0.9106 0.6917 -0.2332
H28 H 0.7982 0.7400 -0.2352
loop_
_geom_bond_atom_site_label_1
_geom_bond_atom_site_label_2
_geom_bond_site_symmetry_1
_geom_bond_site_symmetry_2
C1 S1 1_555 1_555
Cl1 C34 1_555 1_555
N1 S1 1_555 1_555
O1 S1 1_555 1_555
S1 O2 1_555 1_555
C2 C1 1_555 1_555
H1 C2 1_555 1_555
C3 C2 1_555 1_555
H2 C3 1_555 1_555
O3 C37 1_555 1_555
C4 C3 1_555 1_555
C5 C4 1_555 1_555
H3 C5 1_555 1_555
C6 C1 1_555 1_555
H4 C6 1_555 1_555
C7 C4 1_555 1_555
H5 C7 1_555 1_555
H6 C7 1_555 1_555
H7 C7 1_555 1_555
C8 N1 1_555 1_555
C9 C8 1_555 1_555
H8 C9 1_555 1_555
C10 C9 1_555 1_555
H9 C10 1_555 1_555
C11 C10 1_555 1_555
H10 C11 1_555 1_555
C12 C11 1_555 1_555
H11 C12 1_555 1_555
C13 C8 1_555 1_555
C14 C13 1_555 1_555
C15 C14 1_555 1_555
C16 C15 1_555 1_555
C17 C16 1_555 1_555
H12 C17 1_555 1_555
C18 C17 1_555 1_555
C19 C18 1_555 1_555
H13 C19 1_555 1_555
C20 C19 1_555 1_555
H14 C20 1_555 1_555
C21 C16 1_555 1_555
C22 C21 1_555 1_555
C23 C14 1_555 1_555
C24 N1 1_555 1_555
H15 C24 1_555 1_555
H16 C24 1_555 1_555
C25 C15 1_555 1_555
C26 C25 1_555 1_555
H17 C26 1_555 1_555
C27 C26 1_555 1_555
H18 C27 1_555 1_555
C28 C27 1_555 1_555
H19 C28 1_555 1_555
C29 C28 1_555 1_555
H20 C29 1_555 1_555
C30 C25 1_555 1_555
H21 C30 1_555 1_555
C31 C22 1_555 1_555
C32 C31 1_555 1_555
H22 C32 1_555 1_555
C33 C32 1_555 1_555
H23 C33 1_555 1_555
C34 C33 1_555 1_555
C35 C34 1_555 1_555
H24 C35 1_555 1_555
C36 C31 1_555 1_555
H25 C36 1_555 1_555
C37 C18 1_555 1_555
C38 C37 1_555 1_555
H26 C38 1_555 1_555
H27 C38 1_555 1_555
H28 C38 1_555 1_555
C5 C6 1_555 1_555
C12 C13 1_555 1_555
C20 C21 1_555 1_555
C22 C23 1_555 1_555
C23 C24 1_555 1_555
C29 C30 1_555 1_555
C35 C36 1_555 1_555

#END
