
#######################################################################
#
#                 Cambridge Crystallographic Data Centre
#                                CCDC 
#
#######################################################################
#
# If this CIF has been generated from an entry in the Cambridge 
# Structural Database, then it will include bibliographic, chemical, 
# crystal, experimental, refinement or atomic coordinate data resulting 
# from the CCDC's data processing and validation procedures.
#
#######################################################################

data_PEWGAB
_chemical_formula_moiety         'C18 H8 O1 S4'
_chemical_name_systematic        
5H-Spiro[thieno[3,2-g][1]benzothiophene-4,4'-thieno[3',2':4,5]cyclopenta[1,2-b]thiophen]-5-one
_symmetry_cell_setting           triclinic
_symmetry_space_group_name_H-M   'P -1'
_symmetry_Int_Tables_number      2
_space_group_name_Hall           '-P 1'
loop_
_symmetry_equiv_pos_site_id
_symmetry_equiv_pos_as_xyz
1 x,y,z
2 -x,-y,-z
_cell_length_a                   8.2077(5)
_cell_length_b                   8.5363(11)
_cell_length_c                   12.7152(16)
_cell_angle_alpha                101.520(11)
_cell_angle_beta                 90.573(8)
_cell_angle_gamma                112.804(10)
_cell_volume                     800.916
_exptl_crystal_colour            'yellow orange'
_exptl_crystal_description       block
_cell_formula_units_Z            2
loop_
_atom_site_label
_atom_site_type_symbol
_atom_site_fract_x
_atom_site_fract_y
_atom_site_fract_z
C1 C 0.3547(3) 0.7675(3) 0.2490(2)
C2 C 0.52850(16) 0.78637(15) 0.30721(16)
C3 C 0.61847(18) 0.67611(18) 0.31220(18)
H1 H 0.5773 0.5598 0.2761
C4 C 0.7732(2) 0.76291(17) 0.3768(2)
H2 H 0.8512 0.7122 0.3896
S1 S 0.81035(9) 0.97545(9) 0.43254(7)
C5 C 0.61525(18) 0.95064(19) 0.36784(18)
C6 C 0.51425(16) 1.05312(14) 0.35626(17)
S2 S 0.52819(10) 1.26136(9) 0.40225(7)
C7 C 0.3323(2) 1.21170(16) 0.3284(2)
H3 H 0.2817 1.2919 0.3274
C8 C 0.25745(17) 1.04333(19) 0.27106(19)
H4 H 0.1510 0.9951 0.2270
C9 C 0.3644(2) 0.95187(19) 0.28786(18)
C10 C 0.3576(3) 0.7146(2) 0.12738(11)
C11 C 0.4590(4) 0.8225(2) 0.06051(14)
H5 H 0.5291 0.9408 0.0837
C12 C 0.4402(4) 0.7299(2) -0.04225(15)
H6 H 0.5037 0.7762 -0.0968
S3 S 0.2874(2) 0.51915(16) -0.06133(7)
C13 C 0.2531(3) 0.5505(2) 0.07241(12)
C14 C 0.1278(3) 0.42561(19) 0.12605(12)
S4 S -0.00567(18) 0.21376(13) 0.06692(8)
C15 C -0.0964(4) 0.1833(2) 0.18559(15)
H7 H -0.1823 0.0778 0.1937
C16 C -0.0305(4) 0.3286(3) 0.26724(15)
H8 H -0.0659 0.3346 0.3367
C17 C 0.0994(4) 0.4693(2) 0.23167(14)
C18 C 0.1990(4) 0.6425(3) 0.29817(17)
O1 O 0.1663(4) 0.6823(4) 0.38984(19)
C19? C 0.2012(6) 0.6073(4) 0.27965(18)
C20? C 0.1524(7) 0.6053(5) 0.38581(19)
H9? H 0.2089 0.6945 0.4458
C21? C 0.0116(7) 0.4554(5) 0.3883(2)
H10? H -0.0430 0.4325 0.4504
S5? S -0.0553(4) 0.3125(3) 0.26517(17)
C22? C 0.1076(7) 0.4554(5) 0.2075(2)
C23? C 0.1457(6) 0.4297(4) 0.09539(17)
S6? S 0.0378(4) 0.2448(3) -0.00275(16)
C24? C 0.1644(8) 0.3397(5) -0.0969(2)
H11? H 0.1551 0.2823 -0.1684
C25? C 0.2804(8) 0.5078(5) -0.0569(2)
H12? H 0.3570 0.5789 -0.0975
C26? C 0.2679(8) 0.5594(4) 0.0551(2)
C27? C 0.3719(9) 0.7299(5) 0.1233(3)
O2? O 0.4968(9) 0.8347(7) 0.0910(5)
loop_
_geom_bond_atom_site_label_1
_geom_bond_atom_site_label_2
_geom_bond_site_symmetry_1
_geom_bond_site_symmetry_2
C1 C2 1_555 1_555
C2 C3 1_555 1_555
C3 H1 1_555 1_555
C4 C3 1_555 1_555
H2 C4 1_555 1_555
S1 C4 1_555 1_555
C5 C2 1_555 1_555
C6 C5 1_555 1_555
S2 C6 1_555 1_555
C7 S2 1_555 1_555
H3 C7 1_555 1_555
C8 C7 1_555 1_555
H4 C8 1_555 1_555
C9 C1 1_555 1_555
C10 C1 1_555 1_555
C11 C10 1_555 1_555
H5 C11 1_555 1_555
C12 C11 1_555 1_555
H6 C12 1_555 1_555
S3 C12 1_555 1_555
C13 C10 1_555 1_555
C14 C13 1_555 1_555
S4 C14 1_555 1_555
C15 S4 1_555 1_555
H7 C15 1_555 1_555
C16 C15 1_555 1_555
H8 C16 1_555 1_555
C17 C14 1_555 1_555
C18 C1 1_555 1_555
O1 C18 1_555 1_555
S1 C5 1_555 1_555
C6 C9 1_555 1_555
C8 C9 1_555 1_555
S3 C13 1_555 1_555
C16 C17 1_555 1_555
C17 C18 1_555 1_555

#END
