
#######################################################################
#
#                 Cambridge Crystallographic Data Centre
#                                CCDC 
#
#######################################################################
#
# If this CIF has been generated from an entry in the Cambridge 
# Structural Database, then it will include bibliographic, chemical, 
# crystal, experimental, refinement or atomic coordinate data resulting 
# from the CCDC's data processing and validation procedures.
#
#######################################################################

data_PEWGON
_chemical_formula_moiety         'C21 H21 Br1 N2 O5 S1'
_chemical_name_systematic        
'Ethyl (5-bromo-2-methyl-8-p-toluenesulfonamidoquinolyl-6-oxy) acetate'
_symmetry_cell_setting           triclinic
_symmetry_space_group_name_H-M   'P -1'
_symmetry_Int_Tables_number      2
_space_group_name_Hall           '-P 1'
loop_
_symmetry_equiv_pos_site_id
_symmetry_equiv_pos_as_xyz
1 x,y,z
2 -x,-y,-z
_cell_length_a                   9.760(2)
_cell_length_b                   14.144(2)
_cell_length_c                   8.262(2)
_cell_angle_alpha                91.68(1)
_cell_angle_beta                 104.27(1)
_cell_angle_gamma                73.45(1)
_cell_volume                     1058.52
_exptl_crystal_colour            colorless
_chemical_melting_point          '433-435 K'
_cell_formula_units_Z            2
loop_
_atom_site_label
_atom_site_type_symbol
_atom_site_fract_x
_atom_site_fract_y
_atom_site_fract_z
Br1 Br -0.36670(5) 0.43814(4) 0.39902(7)
S1 S 0.34584(12) 0.12559(8) 0.35424(15)
O1 O -0.22307(33) 0.22213(22) 0.43250(46)
O2 O -0.05363(54) 0.21367(28) 0.75405(54)
O3 O 0.02777(35) 0.04916(22) 0.75211(44)
O4 O 0.46295(36) 0.10839(24) 0.27132(45)
O5 O 0.28483(34) 0.04770(21) 0.37718(42)
N1 N 0.13040(39) 0.41117(26) 0.22376(46)
N2 N 0.21303(39) 0.21528(25) 0.23948(48)
H1 H 0.25450 0.25710 0.20700
C1 C 0.09151(52) 0.50844(33) 0.20745(57)
C2 C 0.19443(56) 0.55350(36) 0.14979(66)
H2 H 0.15460(56) 0.62482(36) 0.14247(66)
H3 H 0.20451(56) 0.52994(36) 0.04067(66)
H4 H 0.29039(56) 0.53493(36) 0.22883(66)
C3 C -0.04015(53) 0.56750(34) 0.24490(62)
H5 H -0.06478(53) 0.63886(34) 0.23406(62)
C4 C -0.13066(52) 0.52605(32) 0.29463(59)
H6 H -0.22068(52) 0.56715(32) 0.31917(59)
C5 C -0.09525(46) 0.42163(30) 0.31135(53)
C6 C -0.18034(45) 0.36814(33) 0.36265(56)
C7 C -0.13403(46) 0.26811(31) 0.38412(58)
C8 C -0.00141(49) 0.21518(32) 0.34454(62)
H7 H 0.03059(49) 0.14365(32) 0.35571(62)
C9 C 0.08303(47) 0.26366(31) 0.29148(56)
C10 C 0.03820(47) 0.36815(31) 0.27652(55)
C11 C -0.15740(52) 0.13018(33) 0.52182(66)
H8 H -0.23515(52) 0.10486(33) 0.54001(66)
H9 H -0.10084(52) 0.08477(33) 0.45579(66)
C12 C -0.05693(56) 0.13750(35) 0.68710(67)
C13 C 0.12876(59) 0.04686(42) 0.91725(69)
H10 H 0.18082(59) 0.09609(42) 0.91879(69)
H11 H 0.07368(59) 0.06015(42) 1.00243(69)
C14 C 0.23381(67) -0.05324(50) 0.94946(85)
H12 H 0.30205(67) -0.05677(50) 1.05812(85)
H13 H 0.28819(67) -0.06618(50) 0.86361(85)
H14 H 0.18105(67) -0.10212(50) 0.94725(85)
C15 C 0.39819(45) 0.17545(30) 0.54821(59)
C16 C 0.48021(51) 0.24179(37) 0.56076(69)
H15 H 0.51113(51) 0.25828(37) 0.46493(69)
C17 C 0.51715(55) 0.28375(37) 0.71222(76)
H16 H 0.57552(55) 0.32982(37) 0.72247(76)
C18 C 0.47387(54) 0.26188(37) 0.85016(69)
C19 C 0.51197(75) 0.31116(49) 1.01387(78)
H17 H 0.56999(75) 0.35490(49) 1.00258(78)
H18 H 0.56903(75) 0.26054(49) 1.10045(78)
H19 H 0.42254(75) 0.34880(49) 1.04386(78)
C20 C 0.39196(61) 0.19674(43) 0.83317(71)
H20 H 0.35894(61) 0.18170(43) 0.92832(71)
C21 C 0.35460(55) 0.15210(38) 0.68520(66)
H21 H 0.29825(55) 0.10491(38) 0.67703(66)
loop_
_geom_bond_atom_site_label_1
_geom_bond_atom_site_label_2
_geom_bond_site_symmetry_1
_geom_bond_site_symmetry_2
Br1 C6 1_555 1_555
S1 O4 1_555 1_555
O1 C7 1_555 1_555
O2 C12 1_555 1_555
O3 C12 1_555 1_555
O5 S1 1_555 1_555
N1 C1 1_555 1_555
N2 S1 1_555 1_555
H1 N2 1_555 1_555
C1 C2 1_555 1_555
C2 H2 1_555 1_555
H3 C2 1_555 1_555
H4 C2 1_555 1_555
C3 C1 1_555 1_555
H5 C3 1_555 1_555
C4 C3 1_555 1_555
H6 C4 1_555 1_555
C5 C4 1_555 1_555
C6 C5 1_555 1_555
C7 C6 1_555 1_555
C8 C7 1_555 1_555
H7 C8 1_555 1_555
C9 N2 1_555 1_555
C10 N1 1_555 1_555
C11 O1 1_555 1_555
H8 C11 1_555 1_555
H9 C11 1_555 1_555
C12 C11 1_555 1_555
C13 O3 1_555 1_555
H10 C13 1_555 1_555
H11 C13 1_555 1_555
C14 C13 1_555 1_555
H12 C14 1_555 1_555
H13 C14 1_555 1_555
H14 C14 1_555 1_555
C15 S1 1_555 1_555
C16 C15 1_555 1_555
H15 C16 1_555 1_555
C17 C16 1_555 1_555
H16 C17 1_555 1_555
C18 C17 1_555 1_555
C19 C18 1_555 1_555
H17 C19 1_555 1_555
H18 C19 1_555 1_555
H19 C19 1_555 1_555
C20 C18 1_555 1_555
H20 C20 1_555 1_555
C21 C15 1_555 1_555
H21 C21 1_555 1_555
C5 C10 1_555 1_555
C8 C9 1_555 1_555
C9 C10 1_555 1_555
C20 C21 1_555 1_555

#END
