
#######################################################################
#
#                 Cambridge Crystallographic Data Centre
#                                CCDC 
#
#######################################################################
#
# If this CIF has been generated from an entry in the Cambridge 
# Structural Database, then it will include bibliographic, chemical, 
# crystal, experimental, refinement or atomic coordinate data resulting 
# from the CCDC's data processing and validation procedures.
#
#######################################################################

data_PEWHIJ
_chemical_formula_moiety         'C45 H35 N5 O2,3(C6 H6),H2 O1'
_chemical_name_systematic        
'3,13-Dioxa-1(2,9)-1,10-phenanthrolina-7(5,2),8(2,6),9(2,5)-tripyridina-2,14(1,4)-dibenzenacyclotetradecaphane benzene solvate monohydrate'
_symmetry_cell_setting           triclinic
_symmetry_space_group_name_H-M   'P -1'
_symmetry_Int_Tables_number      2
_space_group_name_Hall           '-P 1'
loop_
_symmetry_equiv_pos_site_id
_symmetry_equiv_pos_as_xyz
1 x,y,z
2 -x,-y,-z
_cell_length_a                   13.780(3)
_cell_length_b                   14.884(4)
_cell_length_c                   13.558(3)
_cell_angle_alpha                111.75(5)
_cell_angle_beta                 101.65(5)
_cell_angle_gamma                91.29(5)
_cell_volume                     2515.07
_exptl_crystal_colour            colorless
_exptl_crystal_description       prism
_cell_formula_units_Z            2
loop_
_atom_site_label
_atom_site_type_symbol
_atom_site_fract_x
_atom_site_fract_y
_atom_site_fract_z
N1 N 0.33218(13) -0.13134(13) 0.47600(15)
C1 C 0.32330(17) -0.21540(16) 0.48858(19)
C2 C 0.37015(19) -0.29610(18) 0.4340(2)
H1 H 0.3639 -0.3545 0.4464
C3 C 0.42454(19) -0.28946(18) 0.3632(2)
H2 H 0.4556 -0.3439 0.3249
C4 C 0.43484(17) -0.20236(17) 0.34671(19)
C5 C 0.49053(18) -0.19266(19) 0.2729(2)
H3 H 0.5210 -0.2465 0.2324
C6 C 0.50031(18) -0.1079(2) 0.2602(2)
H4 H 0.5380 -0.1026 0.2107
C7 C 0.45527(16) -0.02576(17) 0.31941(18)
C8 C 0.46518(17) 0.06345(18) 0.3077(2)
H5 H 0.5037 0.0708 0.2598
C9 C 0.41963(17) 0.13953(18) 0.36480(19)
H6 H 0.4268 0.2005 0.3580
C10 C 0.36171(16) 0.12676(16) 0.43410(18)
N2 N 0.35182(13) 0.04361(13) 0.44849(14)
C11 C 0.39824(16) -0.03213(16) 0.39234(18)
C12 C 0.38762(16) -0.12374(16) 0.40665(18)
C13 C 0.30920(16) 0.20801(16) 0.49455(18)
C14 C 0.28285(19) 0.28119(17) 0.4564(2)
H7 H 0.2985 0.2786 0.3903
C15 C 0.2347(2) 0.35695(18) 0.5123(2)
H8 H 0.2166 0.4054 0.4841
C16 C 0.21257(18) 0.36294(16) 0.6096(2)
C17 C 0.23658(17) 0.29073(16) 0.64850(19)
H9 H 0.2210 0.2936 0.7147
C18 C 0.28369(16) 0.21397(16) 0.59011(19)
H10 H 0.2989 0.1640 0.6166
O1 O 0.16511(14) 0.44163(12) 0.65842(14)
C19 C 0.1543(2) 0.46173(17) 0.7671(2)
H11 H 0.2204 0.4770 0.8181
H12 H 0.1187 0.4048 0.7706
C20 C 0.09490(19) 0.54809(17) 0.7963(2)
H13 H 0.1293 0.6024 0.7869
H14 H 0.0928 0.5694 0.8742
C21 C -0.01166(19) 0.52665(17) 0.7276(2)
H15 H -0.0407 0.5888 0.7375
H16 H -0.0104 0.4941 0.6497
C22 C -0.07663(18) 0.46302(16) 0.7577(2)
C23 C -0.1283(2) 0.50323(18) 0.8385(2)
H17 H -0.1264 0.5721 0.8682
N3 N -0.18056(17) 0.45370(14) 0.87842(18)
C24 C -0.18414(18) 0.35661(16) 0.83512(19)
C25 C -0.13944(18) 0.30886(17) 0.75010(19)
H18 H -0.1463 0.2398 0.7182
C26 C -0.08489(19) 0.36211(17) 0.7120(2)
H19 H -0.0530 0.3299 0.6544
C27 C -0.23618(17) 0.30180(16) 0.88481(19)
C28 C -0.29692(19) 0.34490(18) 0.9557(2)
H20 H -0.3096 0.4107 0.9715
C29 C -0.3383(2) 0.29069(19) 1.0026(2)
H21 H -0.3798 0.3187 1.0516
C30 C -0.31898(19) 0.19514(18) 0.9780(2)
H22 H -0.3465 0.1569 1.0103
C31 C -0.25890(17) 0.15600(16) 0.90549(19)
N4 N -0.21807(14) 0.20862(13) 0.85932(15)
C32 C -0.23020(16) 0.05522(16) 0.87738(18)
N5 N -0.24936(14) 0.00855(14) 0.94029(16)
C33 C -0.21380(18) -0.07746(17) 0.9238(2)
H23 H -0.2266 -0.1103 0.9688
C34 C -0.15994(17) -0.12242(16) 0.84659(19)
C35 C -0.14745(17) -0.07559(16) 0.77777(19)
H24 H -0.1152 -0.1051 0.7198
C36 C -0.18204(17) 0.01398(16) 0.79386(18)
H25 H -0.1728 0.0469 0.7478
C37 C -0.11447(18) -0.21385(16) 0.8429(2)
H26 H -0.1167 -0.2558 0.7660
H27 H -0.1545 -0.2497 0.8722
C38 C -0.00622(18) -0.19375(18) 0.9084(2)
H28 H -0.0028 -0.1433 0.9817
H29 H 0.0143 -0.2539 0.9180
C39 C 0.06637(18) -0.16046(17) 0.85631(19)
H30 H 0.0461 -0.1016 0.8436
H31 H 0.1341 -0.1448 0.9043
O2 O 0.06551(13) -0.23862(11) 0.75493(13)
C40 C 0.13261(18) -0.22832(16) 0.69676(19)
C41 C 0.18961(18) -0.14255(16) 0.7193(2)
H32 H 0.1865 -0.0861 0.7810
C42 C 0.25111(17) -0.13944(16) 0.6516(2)
H33 H 0.2884 -0.0796 0.6663
C43 C 0.26001(17) -0.22106(16) 0.56259(19)
C44 C 0.20410(19) -0.30763(17) 0.5443(2)
H34 H 0.2100 -0.3653 0.4854
C45 C 0.1408(2) -0.31136(17) 0.6095(2)
H35 H 0.1027 -0.3708 0.5947
C46 C 0.4266(3) 0.6903(3) 0.7471(3)
H36 H 0.3713 0.7260 0.7616
C47 C 0.5214(4) 0.7326(3) 0.8026(3)
H37 H 0.5323 0.7968 0.8566
C48 C 0.6011(3) 0.6795(4) 0.7780(4)
H38 H 0.6676 0.7072 0.8147
C49 C 0.5827(4) 0.5868(4) 0.7003(4)
H39 H 0.6366 0.5500 0.6828
C50 C 0.4881(4) 0.5476(3) 0.6484(3)
H40 H 0.4759 0.4832 0.5946
C51 C 0.4117(3) 0.5988(3) 0.6725(3)
H41 H 0.3455 0.5700 0.6360
C52 C 0.0628(2) 0.1834(2) 0.8204(2)
H42 H -0.0073 0.1698 0.7938
C53 C 0.1030(2) 0.2732(2) 0.8984(2)
H43 H 0.0608 0.3220 0.9244
C54 C 0.2046(2) 0.29217(19) 0.9387(2)
H44 H 0.2329 0.3540 0.9926
C55 C 0.2648(2) 0.22080(19) 0.9000(2)
H45 H 0.3348 0.2333 0.9284
C56 C 0.2248(2) 0.13160(19) 0.8208(2)
H46 H 0.2669 0.0830 0.7939
C57 C 0.1236(3) 0.1134(2) 0.7810(2)
H47 H 0.0955 0.0521 0.7260
C58 C 0.4702(2) 0.48564(19) 0.8920(2)
H48 H 0.4499 0.4761 0.8172
C59 C 0.5462(2) 0.55714(19) 0.9601(2)
H49 H 0.5781 0.5967 0.9323
C60 C 0.4247(2) 0.42920(18) 0.9317(2)
H50 H 0.3725 0.3801 0.8848
C58A C 0.5298(2) 0.51436(19) 1.1080(2)
H48A H 0.5501 0.5239 1.1828
C59A C 0.4538(2) 0.44286(19) 1.0399(2)
H49A H 0.4219 0.4033 1.0677
C60A C 0.5753(2) 0.57080(18) 1.0683(2)
H50A H 0.6275 0.6199 1.1152
C61 C 0.0939(2) -0.0031(4) 0.4811(2)
H51 H 0.1592 -0.0054 0.4681
C62 C 0.0454(3) 0.0769(3) 0.4897(3)
H52 H 0.0768 0.1309 0.4824
C63 C 0.0478(3) -0.0801(3) 0.4912(3)
H53 H 0.0811 -0.1365 0.4848
C61A C -0.0939(2) 0.0031(4) 0.5189(2)
H51A H -0.1592 0.0054 0.5319
C62A C -0.0454(3) -0.0769(3) 0.5103(3)
H52A H -0.0768 -0.1309 0.5176
C63A C -0.0478(3) 0.0801(3) 0.5088(3)
H53A H -0.0811 0.1365 0.5152
O3 O 0.4028(2) 0.9968(2) 0.9342(2)
loop_
_geom_bond_atom_site_label_1
_geom_bond_atom_site_label_2
_geom_bond_site_symmetry_1
_geom_bond_site_symmetry_2
N1 C1 1_555 1_555
C1 C2 1_555 1_555
C2 H1 1_555 1_555
C3 C2 1_555 1_555
H2 C3 1_555 1_555
C4 C3 1_555 1_555
C5 C4 1_555 1_555
H3 C5 1_555 1_555
C6 C5 1_555 1_555
H4 C6 1_555 1_555
C7 C6 1_555 1_555
C8 C7 1_555 1_555
H5 C8 1_555 1_555
C9 C8 1_555 1_555
H6 C9 1_555 1_555
C10 C9 1_555 1_555
N2 C10 1_555 1_555
C11 C7 1_555 1_555
C12 N1 1_555 1_555
C13 C10 1_555 1_555
C14 C13 1_555 1_555
H7 C14 1_555 1_555
C15 C14 1_555 1_555
H8 C15 1_555 1_555
C16 C15 1_555 1_555
C17 C16 1_555 1_555
H9 C17 1_555 1_555
C18 C13 1_555 1_555
H10 C18 1_555 1_555
O1 C16 1_555 1_555
C19 O1 1_555 1_555
H11 C19 1_555 1_555
H12 C19 1_555 1_555
C20 C19 1_555 1_555
H13 C20 1_555 1_555
H14 C20 1_555 1_555
C21 C20 1_555 1_555
H15 C21 1_555 1_555
H16 C21 1_555 1_555
C22 C21 1_555 1_555
C23 C22 1_555 1_555
H17 C23 1_555 1_555
N3 C23 1_555 1_555
C24 N3 1_555 1_555
C25 C24 1_555 1_555
H18 C25 1_555 1_555
C26 C22 1_555 1_555
H19 C26 1_555 1_555
C27 C24 1_555 1_555
C28 C27 1_555 1_555
H20 C28 1_555 1_555
C29 C28 1_555 1_555
H21 C29 1_555 1_555
C30 C29 1_555 1_555
H22 C30 1_555 1_555
C31 C30 1_555 1_555
N4 C27 1_555 1_555
C32 C31 1_555 1_555
N5 C32 1_555 1_555
C33 N5 1_555 1_555
H23 C33 1_555 1_555
C34 C33 1_555 1_555
C35 C34 1_555 1_555
H24 C35 1_555 1_555
C36 C32 1_555 1_555
H25 C36 1_555 1_555
C37 C34 1_555 1_555
H26 C37 1_555 1_555
H27 C37 1_555 1_555
C38 C37 1_555 1_555
H28 C38 1_555 1_555
H29 C38 1_555 1_555
C39 C38 1_555 1_555
H30 C39 1_555 1_555
H31 C39 1_555 1_555
O2 C39 1_555 1_555
C40 O2 1_555 1_555
C41 C40 1_555 1_555
H32 C41 1_555 1_555
C42 C41 1_555 1_555
H33 C42 1_555 1_555
C43 C1 1_555 1_555
C44 C43 1_555 1_555
H34 C44 1_555 1_555
C45 C40 1_555 1_555
H35 C45 1_555 1_555
C46 H36 1_555 1_555
C47 C46 1_555 1_555
H37 C47 1_555 1_555
C48 C47 1_555 1_555
H38 C48 1_555 1_555
C49 C48 1_555 1_555
H39 C49 1_555 1_555
C50 C49 1_555 1_555
H40 C50 1_555 1_555
C51 C46 1_555 1_555
H41 C51 1_555 1_555
C52 H42 1_555 1_555
C53 C52 1_555 1_555
H43 C53 1_555 1_555
C54 C53 1_555 1_555
H44 C54 1_555 1_555
C55 C54 1_555 1_555
H45 C55 1_555 1_555
C56 C55 1_555 1_555
H46 C56 1_555 1_555
C57 C52 1_555 1_555
H47 C57 1_555 1_555
C58 H48 1_555 1_555
C59 C58 1_555 1_555
H49 C59 1_555 1_555
C60 C58 1_555 1_555
H50 C60 1_555 1_555
C61 H51 1_555 1_555
C62 C61 1_555 1_555
H52 C62 1_555 1_555
C63 C61 1_555 1_555
H53 C63 1_555 1_555
C58A H48A 1_555 1_555
C59A C60 1_555 1_555
H49A C59A 1_555 1_555
C60A C59 1_555 1_555
H50A C60A 1_555 1_555
C61A H51A 1_555 1_555
C62A C63 1_555 1_555
H52A C62A 1_555 1_555
C63A C62 1_555 1_555
H53A C63A 1_555 1_555
C4 C12 1_555 1_555
N2 C11 1_555 1_555
C11 C12 1_555 1_555
C17 C18 1_555 1_555
C25 C26 1_555 1_555
C31 N4 1_555 1_555
C35 C36 1_555 1_555
C42 C43 1_555 1_555
C44 C45 1_555 1_555
C50 C51 1_555 1_555
C56 C57 1_555 1_555
C58A C59A 1_555 1_555
C58A C60A 1_555 1_555
C61A C62A 1_555 1_555
C61A C63A 1_555 1_555

#END
