
#######################################################################
#
#                 Cambridge Crystallographic Data Centre
#                                CCDC 
#
#######################################################################
#
# If this CIF has been generated from an entry in the Cambridge 
# Structural Database, then it will include bibliographic, chemical, 
# crystal, experimental, refinement or atomic coordinate data resulting 
# from the CCDC's data processing and validation procedures.
#
#######################################################################

data_PEWNIO
_chemical_formula_moiety         'C21 H19 N5 O7'
_chemical_name_systematic        
2,2-Diphenyl-1-(5-acetonyl-2,4,6-trinitro-1,3-cyclohexadienyl)hydrazine
_symmetry_cell_setting           monoclinic
_symmetry_space_group_name_H-M   'P 21/c'
_symmetry_Int_Tables_number      14
_space_group_name_Hall           '-P 2ybc'
loop_
_symmetry_equiv_pos_site_id
_symmetry_equiv_pos_as_xyz
1 x,y,z
2 -x,1/2+y,1/2-z
3 -x,-y,-z
4 x,1/2-y,1/2+z
_cell_length_a                   9.254(3)
_cell_length_b                   13.531(3)
_cell_length_c                   17.391(5)
_cell_angle_alpha                90
_cell_angle_beta                 106.18(2)
_cell_angle_gamma                90
_cell_volume                     2091.38
_exptl_crystal_colour            'dark orange'
_chemical_melting_point          '150-153 deg.C (dec)'
_cell_formula_units_Z            4
loop_
_atom_site_label
_atom_site_type_symbol
_atom_site_fract_x
_atom_site_fract_y
_atom_site_fract_z
C1 C 0.4415(2) 0.3117(1) 0.1245(1)
C2 C 0.3151(2) 0.2924(1) 0.0620(1)
C3 C 0.2248(2) 0.3721(1) 0.0181(1)
C4 C 0.2353(2) 0.4620(1) 0.0498(1)
C5 C 0.3283(7) 0.4811(1) 0.1338(1)
C6 C 0.4695(2) 0.4182(1) 0.1502(1)
C7 C 0.6482(2) 0.2931(1) 0.3010(1)
C8 C 0.5324(2) 0.2495(2) 0.3240(1)
C9 C 0.5116(3) 0.2738(2) 0.3976(1)
C10 C 0.6021(3) 0.3418(2) 0.4461(2)
C11 C 0.7171(3) 0.3847(2) 0.4234(1)
C12 C 0.7413(3) 0.3616(2) 0.3499(1)
C13 C 0.8080(2) 0.2394(1) 0.2145(1)
C14 C 0.8356(2) 0.2432(2) 0.1399(1)
C15 C 0.9695(2) 0.2094(2) 0.1305(1)
C16 C 1.0783(2) 0.1712(2) 0.1943(1)
C17 C 1.0517(2) 0.1680(2) 0.2681(2)
C18 C 0.9192(2) 0.2016(2) 0.2795(1)
C19 C 0.2391(2) 0.4555(2) 0.1937(1)
C20 C 0.3054(2) 0.4941(1) 0.2764(1)
C21 C 0.2281(3) 0.4685(2) 0.3379(1)
N1 N 0.2768(2) 0.1951(1) 0.0325(1)
N2 N 0.1529(2) 0.5426(1) 0.0046(1)
N3 N 0.5750(2) 0.4622(1) 0.1058(1)
N4 N 0.5418(2) 0.2453(1) 0.1638(1)
N5 N 0.6703(2) 0.2761(1) 0.2234(1)
O1 O 0.3576(2) 0.1260(1) 0.0652(1)
O2 O 0.1641(2) 0.1835(1) -0.0243(1)
O3 O 0.1549(2) 0.6224(1) 0.0388(1)
O4 O 0.0842(1) 0.5289(1) -0.0661(1)
O5 O 0.4177(2) 0.5463(1) 0.2916(1)
O6 O 0.6327(2) 0.5408(1) 0.1304(1)
O7 O 0.5921(1) 0.4187(1) 0.0484(1)
H1 H 0.148(2) 0.358(1) -0.034(1)
H2 H 0.375(2) 0.549(2) 0.139(2)
H3 H 0.151(3) 0.484(2) 0.176(2)
H4 H 0.226(2) 0.382(1) 0.197(1)
H5 H 0.127(5) 0.507(3) 0.320(3)
H6 H 0.239(5) 0.396(4) 0.343(4)
H7 H 0.302(3) 0.484(2) 0.391(2)
H8 H 0.516(2) 0.424(1) 0.205(1)
H9 H 0.514(3) 0.173(2) 0.148(2)
H10 H 0.485(3) 0.195(2) 0.291(2)
H11 H 0.403(3) 0.233(2) 0.410(2)
H12 H 0.596(3) 0.367(2) 0.498(2)
H13 H 0.789(3) 0.436(2) 0.462(2)
H14 H 0.813(2) 0.392(2) 0.331(2)
H15 H 0.746(3) 0.273(1) 0.096(1)
H16 H 0.974(2) 0.212(2) 0.079(2)
H17 H 1.182(3) 0.147(2) 0.189(2)
H18 H 1.115(3) 0.144(2) 0.307(2)
H19 H 0.901(3) 0.198(2) 0.338(2)
loop_
_geom_bond_atom_site_label_1
_geom_bond_atom_site_label_2
_geom_bond_site_symmetry_1
_geom_bond_site_symmetry_2
C1 C2 1_555 1_555
C2 C3 1_555 1_555
C3 C4 1_555 1_555
C4 C5 1_555 1_555
C5 C6 1_555 1_555
C6 C1 1_555 1_555
C7 C8 1_555 1_555
C8 C9 1_555 1_555
C9 C10 1_555 1_555
C10 C11 1_555 1_555
C11 C12 1_555 1_555
C12 C7 1_555 1_555
C13 C14 1_555 1_555
C14 C15 1_555 1_555
C15 C16 1_555 1_555
C16 C17 1_555 1_555
C17 C18 1_555 1_555
C18 C13 1_555 1_555
C19 C5 1_555 1_555
C20 C19 1_555 1_555
C21 C20 1_555 1_555
N1 C2 1_555 1_555
N2 C4 1_555 1_555
N3 C6 1_555 1_555
N4 C1 1_555 1_555
N5 C7 1_555 1_555
O1 N1 1_555 1_555
O2 N1 1_555 1_555
O3 N2 1_555 1_555
O4 N2 1_555 1_555
O5 C20 1_555 1_555
O6 N3 1_555 1_555
O7 N3 1_555 1_555
H1 C3 1_555 1_555
H2 C5 1_555 1_555
H3 C19 1_555 1_555
H4 C19 1_555 1_555
H5 C21 1_555 1_555
H6 C21 1_555 1_555
H7 C21 1_555 1_555
H8 C6 1_555 1_555
H9 N4 1_555 1_555
H10 C8 1_555 1_555
H11 C9 1_555 1_555
H12 C10 1_555 1_555
H13 C11 1_555 1_555
H14 C12 1_555 1_555
H15 C14 1_555 1_555
H16 C15 1_555 1_555
H17 C16 1_555 1_555
H18 C17 1_555 1_555
H19 C18 1_555 1_555
C13 N5 1_555 1_555
N4 N5 1_555 1_555

#END
