
#######################################################################
#
#                 Cambridge Crystallographic Data Centre
#                                CCDC 
#
#######################################################################
#
# If this CIF has been generated from an entry in the Cambridge 
# Structural Database, then it will include bibliographic, chemical, 
# crystal, experimental, refinement or atomic coordinate data resulting 
# from the CCDC's data processing and validation procedures.
#
#######################################################################

data_PEWNOV
_chemical_formula_moiety         'C15 H20 O6'
_chemical_name_systematic        3'-formyl-benzo-15-crown-5
_symmetry_cell_setting           orthorhombic
_symmetry_space_group_name_H-M   'P 21 21 21'
_symmetry_Int_Tables_number      19
_space_group_name_Hall           'P 2ac 2ab'
loop_
_symmetry_equiv_pos_site_id
_symmetry_equiv_pos_as_xyz
1 x,y,z
2 1/2-x,-y,1/2+z
3 -x,1/2+y,1/2-z
4 1/2+x,1/2-y,-z
_cell_length_a                   7.5235(9)
_cell_length_b                   9.4590(10)
_cell_length_c                   21.3518(2)
_cell_angle_alpha                90
_cell_angle_beta                 90
_cell_angle_gamma                90
_cell_volume                     1519.5
_exptl_crystal_colour            colorless
_exptl_crystal_description       block
_cell_formula_units_Z            4
_exptl_crystal_recrystallization_method ethanol
loop_
_atom_site_label
_atom_site_type_symbol
_atom_site_fract_x
_atom_site_fract_y
_atom_site_fract_z
O1 O -0.2308(5) 0.8620(5) 1.16780(18)
O2 O -0.0684(4) 0.6733(3) 1.00810(11)
O3 O -0.3006(4) 0.4745(4) 0.88961(13)
O4 O -0.0563(4) 0.2934(4) 0.82714(14)
O5 O 0.1926(4) 0.2132(4) 0.92223(14)
O6 O 0.1670(4) 0.4578(3) 1.00665(13)
C1 C -0.1800(7) 0.8031(6) 1.1210(2)
H1 H -0.2286 0.8312 1.0830
C2 C -0.0458(6) 0.6897(5) 1.12016(19)
C3 C 0.0323(7) 0.6459(6) 1.17596(19)
H2 H 0.0023 0.6901 1.2134
C4 C 0.1543(7) 0.5368(6) 1.1759(2)
H3 H 0.2046 0.5071 1.2134
C5 C 0.2025(6) 0.4710(5) 1.1204(2)
H4 H 0.2845 0.3975 1.1209
C6 C 0.1280(6) 0.5151(5) 1.06390(19)
C7 C 0.0016(5) 0.6250(4) 1.06390(18)
C8 C -0.1998(6) 0.5803(5) 0.98128(18)
H5 H -0.3181 0.6165 0.9898
H6 H -0.1901 0.4871 0.9999
C9 C -0.1705(6) 0.5707(6) 0.91158(19)
H7 H -0.1855 0.6626 0.8921
H8 H -0.0519 0.5362 0.9025
C10 C -0.3012(7) 0.4522(7) 0.82342(19)
H9 H -0.3427 0.5381 0.8033
H10 H -0.3861 0.3781 0.8139
C11 C -0.1252(7) 0.4125(6) 0.7953(2)
H11 H -0.1401 0.3906 0.7512
H12 H -0.0430 0.4911 0.7988
C12 C 0.1243(7) 0.2653(6) 0.8128(2)
H13 H 0.1921 0.3525 0.8142
H14 H 0.1334 0.2266 0.7709
C13 C 0.1984(7) 0.1618(7) 0.8593(2)
H15 H 0.1312 0.0744 0.8569
H16 H 0.3206 0.1407 0.8484
C14 C 0.3295(6) 0.3094(6) 0.9369(2)
H17 H 0.3234 0.3902 0.9089
H18 H 0.4441 0.2642 0.9313
C15 C 0.3101(7) 0.3580(6) 1.0037(2)
H19 H 0.2849 0.2778 1.0306
H20 H 0.4195 0.4018 1.0178
loop_
_geom_bond_atom_site_label_1
_geom_bond_atom_site_label_2
_geom_bond_site_symmetry_1
_geom_bond_site_symmetry_2
O1 C1 1_555 1_555
O2 C7 1_555 1_555
O3 C9 1_555 1_555
O4 C11 1_555 1_555
O5 C13 1_555 1_555
O6 C6 1_555 1_555
C1 H1 1_555 1_555
C2 C1 1_555 1_555
C3 C2 1_555 1_555
H2 C3 1_555 1_555
C4 C3 1_555 1_555
H3 C4 1_555 1_555
C5 C4 1_555 1_555
H4 C5 1_555 1_555
C6 C5 1_555 1_555
C7 C2 1_555 1_555
C8 O2 1_555 1_555
H5 C8 1_555 1_555
H6 C8 1_555 1_555
C9 C8 1_555 1_555
H7 C9 1_555 1_555
H8 C9 1_555 1_555
C10 O3 1_555 1_555
H9 C10 1_555 1_555
H10 C10 1_555 1_555
C11 C10 1_555 1_555
H11 C11 1_555 1_555
H12 C11 1_555 1_555
C12 O4 1_555 1_555
H13 C12 1_555 1_555
H14 C12 1_555 1_555
C13 C12 1_555 1_555
H15 C13 1_555 1_555
H16 C13 1_555 1_555
C14 O5 1_555 1_555
H17 C14 1_555 1_555
H18 C14 1_555 1_555
C15 O6 1_555 1_555
H19 C15 1_555 1_555
H20 C15 1_555 1_555
C6 C7 1_555 1_555
C14 C15 1_555 1_555

#END
