
#######################################################################
#
#                 Cambridge Crystallographic Data Centre
#                                CCDC 
#
#######################################################################
#
# If this CIF has been generated from an entry in the Cambridge 
# Structural Database, then it will include bibliographic, chemical, 
# crystal, experimental, refinement or atomic coordinate data resulting 
# from the CCDC's data processing and validation procedures.
#
#######################################################################

data_PEWPEO
_chemical_formula_moiety         'C21 H19 N1'
_chemical_name_systematic        9-Ethyl-2-methyl-4-phenyl-9H-carbazole
_symmetry_cell_setting           monoclinic
_symmetry_space_group_name_H-M   'P 21'
_symmetry_Int_Tables_number      4
_space_group_name_Hall           'P 2yb'
loop_
_symmetry_equiv_pos_site_id
_symmetry_equiv_pos_as_xyz
1 x,y,z
2 -x,1/2+y,-z
_cell_length_a                   8.9461(6)
_cell_length_b                   8.9810(6)
_cell_length_c                   20.0010(13)
_cell_angle_alpha                90
_cell_angle_beta                 90.115(5)
_cell_angle_gamma                90
_cell_volume                     1606.98
_exptl_crystal_colour            colorless
_exptl_crystal_description       block
_cell_formula_units_Z            4
loop_
_atom_site_label
_atom_site_type_symbol
_atom_site_fract_x
_atom_site_fract_y
_atom_site_fract_z
N1 N 0.8892(2) 0.7866(3) 0.50537(10)
C1 C 0.9055(3) 0.8016(3) 0.57425(12)
C2 C 1.0126(3) 0.8771(3) 0.60962(14)
H1 H 1.0913 0.9242 0.5879
C3 C 1.0007(3) 0.8814(3) 0.67841(14)
H2 H 1.0721 0.9326 0.7033
C4 C 0.8839(3) 0.8106(3) 0.71084(13)
H3 H 0.8770 0.8157 0.7572
C5 C 0.7782(3) 0.7328(3) 0.67511(11)
H4 H 0.7015 0.6839 0.6975
C6 C 0.7854(2) 0.7271(3) 0.60597(11)
C7 C 0.6951(2) 0.6624(3) 0.55343(10)
C8 C 0.7632(3) 0.7015(3) 0.49231(11)
C9 C 0.7044(3) 0.6599(3) 0.43083(12)
H5 H 0.7516 0.6869 0.3913
C10 C 0.5739(3) 0.5774(3) 0.42983(13)
C11 C 0.5041(3) 0.5396(3) 0.48963(13)
H6 H 0.4160 0.4847 0.4879
C12 C 0.5600(3) 0.5802(3) 0.55163(12)
C13 C 0.4759(3) 0.5414(3) 0.61345(12)
C14 C 0.5338(3) 0.4471(3) 0.66188(13)
H7 H 0.6299 0.4094 0.6567
C15 C 0.4524(3) 0.4080(4) 0.71735(13)
H8 H 0.4932 0.3444 0.7492
C16 C 0.3114(3) 0.4629(4) 0.72561(14)
H9 H 0.2555 0.4363 0.7629
C17 C 0.2525(3) 0.5573(4) 0.67875(16)
H10 H 0.1568 0.5957 0.6845
C18 C 0.3336(3) 0.5951(4) 0.62375(14)
H11 H 0.2918 0.6591 0.5923
C19 C 0.5087(4) 0.5254(4) 0.36381(14)
H12 H 0.5698 0.5609 0.3278
H13 H 0.4092 0.5638 0.3589
H14 H 0.5059 0.4185 0.3630
C20 C 0.9890(3) 0.8509(3) 0.45577(13)
H15 H 1.0169 0.9503 0.4700
H16 H 0.9356 0.8599 0.4137
C21 C 1.1274(3) 0.7623(4) 0.44457(15)
H17 H 1.1794 0.7498 0.4862
H18 H 1.1907 0.8136 0.4135
H19 H 1.1013 0.6664 0.4268
N2 N 0.6689(2) 0.8057(2) 1.00779(9)
C22 C 0.6058(2) 0.8180(3) 0.94446(11)
C23 C 0.5091(3) 0.9244(3) 0.92015(13)
H20 H 0.4793 1.0043 0.9465
C24 C 0.4576(3) 0.9087(4) 0.85534(14)
H21 H 0.3924 0.9794 0.8379
C25 C 0.5009(3) 0.7908(4) 0.81628(13)
H22 H 0.4647 0.7832 0.7728
C26 C 0.5974(2) 0.6829(3) 0.84040(11)
H23 H 0.6252 0.6029 0.8136
C27 C 0.6522(2) 0.6959(3) 0.90525(11)
C28 C 0.7469(2) 0.6053(3) 0.94763(10)
C29 C 0.7540(2) 0.6772(3) 1.01044(10)
C30 C 0.8304(2) 0.6170(3) 1.06424(11)
H24 H 0.8373 0.6686 1.1044
C31 C 0.8962(2) 0.4791(3) 1.05714(11)
C32 C 0.8883(2) 0.4065(3) 0.99570(11)
H25 H 0.9326 0.3132 0.9917
C33 C 0.8175(2) 0.4669(3) 0.94018(10)
C34 C 0.8191(2) 0.3860(3) 0.87500(11)
C35 C 0.8887(3) 0.4465(3) 0.81902(12)
H26 H 0.9308 0.5411 0.8214
C36 C 0.8954(3) 0.3675(4) 0.76052(13)
H27 H 0.9433 0.4087 0.7237
C37 C 0.8328(3) 0.2290(4) 0.75548(14)
H28 H 0.8382 0.1758 0.7157
C38 C 0.7621(3) 0.1701(3) 0.80992(14)
H29 H 0.7176 0.0768 0.8068
C39 C 0.7559(3) 0.2467(3) 0.86892(12)
H30 H 0.7084 0.2041 0.9055
C40 C 0.9737(3) 0.4053(4) 1.11487(13)
H31 H 1.0758 0.3856 1.1032
H32 H 0.9242 0.3134 1.1252
H33 H 0.9707 0.4698 1.1531
C41 C 0.6389(3) 0.9064(3) 1.06385(12)
H34 H 0.6475 0.8509 1.1053
H35 H 0.5368 0.9421 1.0604
C42 C 0.7408(3) 1.0362(4) 1.06681(16)
H36 H 0.7311 1.0935 1.0265
H37 H 0.8421 1.0021 1.0713
H38 H 0.7154 1.0972 1.1045
loop_
_geom_bond_atom_site_label_1
_geom_bond_atom_site_label_2
_geom_bond_site_symmetry_1
_geom_bond_site_symmetry_2
N1 C1 1_555 1_555
C1 C2 1_555 1_555
C2 H1 1_555 1_555
C3 C2 1_555 1_555
H2 C3 1_555 1_555
C4 C3 1_555 1_555
H3 C4 1_555 1_555
C5 C4 1_555 1_555
H4 C5 1_555 1_555
C6 C1 1_555 1_555
C7 C6 1_555 1_555
C8 N1 1_555 1_555
C9 C8 1_555 1_555
H5 C9 1_555 1_555
C10 C9 1_555 1_555
C11 C10 1_555 1_555
H6 C11 1_555 1_555
C12 C7 1_555 1_555
C13 C12 1_555 1_555
C14 C13 1_555 1_555
H7 C14 1_555 1_555
C15 C14 1_555 1_555
H8 C15 1_555 1_555
C16 C15 1_555 1_555
H9 C16 1_555 1_555
C17 C16 1_555 1_555
H10 C17 1_555 1_555
C18 C13 1_555 1_555
H11 C18 1_555 1_555
C19 C10 1_555 1_555
H12 C19 1_555 1_555
H13 C19 1_555 1_555
H14 C19 1_555 1_555
C20 N1 1_555 1_555
H15 C20 1_555 1_555
H16 C20 1_555 1_555
C21 C20 1_555 1_555
H17 C21 1_555 1_555
H18 C21 1_555 1_555
H19 C21 1_555 1_555
N2 C22 1_555 1_555
C22 C23 1_555 1_555
C23 H20 1_555 1_555
C24 C23 1_555 1_555
H21 C24 1_555 1_555
C25 C24 1_555 1_555
H22 C25 1_555 1_555
C26 C25 1_555 1_555
H23 C26 1_555 1_555
C27 C22 1_555 1_555
C28 C27 1_555 1_555
C29 N2 1_555 1_555
C30 C29 1_555 1_555
H24 C30 1_555 1_555
C31 C30 1_555 1_555
C32 C31 1_555 1_555
H25 C32 1_555 1_555
C33 C28 1_555 1_555
C34 C33 1_555 1_555
C35 C34 1_555 1_555
H26 C35 1_555 1_555
C36 C35 1_555 1_555
H27 C36 1_555 1_555
C37 C36 1_555 1_555
H28 C37 1_555 1_555
C38 C37 1_555 1_555
H29 C38 1_555 1_555
C39 C34 1_555 1_555
H30 C39 1_555 1_555
C40 C31 1_555 1_555
H31 C40 1_555 1_555
H32 C40 1_555 1_555
H33 C40 1_555 1_555
C41 N2 1_555 1_555
H34 C41 1_555 1_555
H35 C41 1_555 1_555
C42 C41 1_555 1_555
H36 C42 1_555 1_555
H37 C42 1_555 1_555
H38 C42 1_555 1_555
C5 C6 1_555 1_555
C7 C8 1_555 1_555
C11 C12 1_555 1_555
C17 C18 1_555 1_555
C26 C27 1_555 1_555
C28 C29 1_555 1_555
C32 C33 1_555 1_555
C38 C39 1_555 1_555

#END
