
#######################################################################
#
#                 Cambridge Crystallographic Data Centre
#                                CCDC 
#
#######################################################################
#
# If this CIF has been generated from an entry in the Cambridge 
# Structural Database, then it will include bibliographic, chemical, 
# crystal, experimental, refinement or atomic coordinate data resulting 
# from the CCDC's data processing and validation procedures.
#
#######################################################################

data_PEWPOY
_chemical_formula_moiety         'C32 H16 N4'
_chemical_name_systematic        
2,2'-(2,6-Diphenylanthracene-9,10-diylidene)dimalononitrile
_symmetry_cell_setting           monoclinic
_symmetry_space_group_name_H-M   'P 21/c'
_symmetry_Int_Tables_number      14
_space_group_name_Hall           '-P 2ybc'
loop_
_symmetry_equiv_pos_site_id
_symmetry_equiv_pos_as_xyz
1 x,y,z
2 -x,1/2+y,1/2-z
3 -x,-y,-z
4 x,1/2-y,1/2+z
_cell_length_a                   18.945(4)
_cell_length_b                   9.0720(18)
_cell_length_c                   14.608(3)
_cell_angle_alpha                90
_cell_angle_beta                 111.45(3)
_cell_angle_gamma                90
_cell_volume                     2336.77
_exptl_crystal_colour            yellow
_exptl_crystal_description       block
_cell_formula_units_Z            4
loop_
_atom_site_label
_atom_site_type_symbol
_atom_site_fract_x
_atom_site_fract_y
_atom_site_fract_z
N1 N 0.3136(2) 0.5695(4) 0.1165(3)
N2 N 0.1153(2) 0.6978(4) 0.1668(3)
N3 N 0.3520(2) -0.1654(4) 0.3620(3)
N4 N 0.1498(2) -0.1024(4) 0.4078(3)
C1 C 0.6051(2) 0.4033(5) 0.3787(3)
H1 H 0.6088 0.3006 0.3924
C2 C 0.6653(2) 0.4754(6) 0.3655(3)
H2 H 0.7093 0.4211 0.3699
C3 C 0.6624(3) 0.6229(6) 0.3465(3)
H3 H 0.7038 0.6711 0.3370
C4 C 0.5982(3) 0.7017(6) 0.3411(3)
H4 H 0.5955 0.8046 0.3283
C5 C 0.5377(2) 0.6297(5) 0.3546(3)
H5 H 0.4943 0.6847 0.3518
C6 C 0.5399(2) 0.4776(4) 0.3722(2)
C7 C 0.4739(2) 0.3995(4) 0.3825(2)
C8 C 0.4804(2) 0.2583(4) 0.4236(3)
H6 H 0.5286 0.2114 0.4476
C9 C 0.4182(2) 0.1859(4) 0.4299(3)
H7 H 0.4246 0.0912 0.4596
C10 C 0.34659(19) 0.2487(4) 0.3939(2)
C11 C 0.33885(18) 0.3904(4) 0.3516(2)
C12 C 0.40230(19) 0.4641(4) 0.3484(2)
H8 H 0.3966 0.5611 0.3221
C13 C 0.27840(19) 0.1803(4) 0.4018(2)
C14 C 0.26606(19) 0.0313(4) 0.3949(2)
C15 C 0.3167(2) -0.0733(4) 0.3771(3)
C16 C 0.1999(2) -0.0386(4) 0.4021(3)
C17 C 0.26315(19) 0.4609(3) 0.3165(3)
C18 C 0.2397(2) 0.5481(4) 0.2343(3)
C19 C 0.2831(2) 0.5608(4) 0.1713(3)
C20 C 0.1692(2) 0.6277(4) 0.1977(3)
C21 C 0.22347(19) 0.2860(3) 0.4173(2)
C22 C 0.18293(18) 0.2531(4) 0.4768(3)
H9 H 0.1874 0.1573 0.5047
C23 C 0.13571(19) 0.3557(4) 0.4971(3)
C24 C 0.1288(2) 0.4943(4) 0.4537(3)
H10 H 0.0969 0.5661 0.4660
C25 C 0.1678(2) 0.5287(4) 0.3931(3)
H11 H 0.1614 0.6234 0.3634
C26 C 0.21627(19) 0.4274(4) 0.3745(3)
C27 C 0.09819(19) 0.3195(4) 0.5675(3)
C28 C 0.0714(2) 0.1775(4) 0.5733(3)
H12 H 0.0766 0.1023 0.5310
C29 C 0.0375(2) 0.1455(5) 0.6400(3)
H13 H 0.0196 0.0485 0.6430
C30 C 0.0293(2) 0.2528(5) 0.7022(3)
H14 H 0.0056 0.2300 0.7476
C31 C 0.0555(2) 0.3919(5) 0.6982(3)
H15 H 0.0506 0.4654 0.7418
C32 C 0.0892(2) 0.4270(4) 0.6305(3)
H16 H 0.1062 0.5247 0.6274
loop_
_geom_bond_atom_site_label_1
_geom_bond_atom_site_label_2
_geom_bond_site_symmetry_1
_geom_bond_site_symmetry_2
N1 C19 1_555 1_555
N2 C20 1_555 1_555
N3 C15 1_555 1_555
N4 C16 1_555 1_555
C1 H1 1_555 1_555
C2 C1 1_555 1_555
H2 C2 1_555 1_555
C3 C2 1_555 1_555
H3 C3 1_555 1_555
C4 C3 1_555 1_555
H4 C4 1_555 1_555
C5 C4 1_555 1_555
H5 C5 1_555 1_555
C6 C1 1_555 1_555
C7 C6 1_555 1_555
C8 C7 1_555 1_555
H6 C8 1_555 1_555
C9 C8 1_555 1_555
H7 C9 1_555 1_555
C10 C9 1_555 1_555
C11 C10 1_555 1_555
C12 C7 1_555 1_555
H8 C12 1_555 1_555
C13 C10 1_555 1_555
C14 C13 1_555 1_555
C15 C14 1_555 1_555
C16 C14 1_555 1_555
C17 C11 1_555 1_555
C18 C17 1_555 1_555
C19 C18 1_555 1_555
C20 C18 1_555 1_555
C21 C13 1_555 1_555
C22 C21 1_555 1_555
H9 C22 1_555 1_555
C23 C22 1_555 1_555
C24 C23 1_555 1_555
H10 C24 1_555 1_555
C25 C24 1_555 1_555
H11 C25 1_555 1_555
C26 C17 1_555 1_555
C27 C23 1_555 1_555
C28 C27 1_555 1_555
H12 C28 1_555 1_555
C29 C28 1_555 1_555
H13 C29 1_555 1_555
C30 C29 1_555 1_555
H14 C30 1_555 1_555
C31 C30 1_555 1_555
H15 C31 1_555 1_555
C32 C27 1_555 1_555
H16 C32 1_555 1_555
C5 C6 1_555 1_555
C11 C12 1_555 1_555
C21 C26 1_555 1_555
C25 C26 1_555 1_555
C31 C32 1_555 1_555

#END
