
#######################################################################
#
#                 Cambridge Crystallographic Data Centre
#                                CCDC 
#
#######################################################################
#
# If this CIF has been generated from an entry in the Cambridge 
# Structural Database, then it will include bibliographic, chemical, 
# crystal, experimental, refinement or atomic coordinate data resulting 
# from the CCDC's data processing and validation procedures.
#
#######################################################################

data_PEWSES
_chemical_formula_moiety         'C14 H11 Cl1 O2'
_chemical_name_systematic        
5-chloro-4'-methoxy[1,1'-biphenyl]-2-carbaldehyde
_symmetry_cell_setting           monoclinic
_symmetry_space_group_name_H-M   'P 21/c'
_symmetry_Int_Tables_number      14
_space_group_name_Hall           '-P 2ybc'
loop_
_symmetry_equiv_pos_site_id
_symmetry_equiv_pos_as_xyz
1 x,y,z
2 -x,1/2+y,1/2-z
3 -x,-y,-z
4 x,1/2-y,1/2+z
_cell_length_a                   14.931(6)
_cell_length_b                   10.574(4)
_cell_length_c                   7.676(3)
_cell_angle_alpha                90
_cell_angle_beta                 96.992(7)
_cell_angle_gamma                90
_cell_volume                     1202.88
_exptl_crystal_colour            yellow
_exptl_crystal_description       block
_cell_formula_units_Z            4
loop_
_atom_site_label
_atom_site_type_symbol
_atom_site_fract_x
_atom_site_fract_y
_atom_site_fract_z
Cl1 Cl 0.48379(5) -0.29230(9) 0.23393(11)
O1 O 0.83980(12) 0.37897(16) 0.1694(3)
O2 O 0.90829(13) -0.29537(18) 0.0260(3)
C1 C 0.62450(17) -0.1467(3) 0.1714(3)
H1 H 0.5877 -0.0790 0.1933
C2 C 0.59243(18) -0.2681(3) 0.1787(3)
C3 C 0.64484(19) -0.3719(3) 0.1470(3)
H2 H 0.6227 -0.4537 0.1545
C4 C 0.73056(18) -0.3509(2) 0.1039(3)
H3 H 0.7665 -0.4194 0.0815
C5 C 0.76434(17) -0.2287(2) 0.0933(3)
C6 C 0.71186(16) -0.1240(2) 0.1313(3)
C7 C 0.74788(16) 0.0071(2) 0.1383(3)
C8 C 0.69831(17) 0.1079(2) 0.0584(3)
H4 H 0.6420 0.0925 -0.0039
C9 C 0.73091(18) 0.2294(2) 0.0699(4)
H5 H 0.6968 0.2950 0.0150
C10 C 0.81456(17) 0.2550(2) 0.1632(3)
C11 C 0.86538(17) 0.1567(2) 0.2444(3)
H6 H 0.9217 0.1726 0.3067
C12 C 0.83138(16) 0.0351(2) 0.2316(3)
H7 H 0.8654 -0.0303 0.2872
C13 C 0.85296(18) -0.2128(3) 0.0295(4)
H8 H 0.8671 -0.1332 -0.0110
C14 C 0.92840(19) 0.4085(3) 0.2502(4)
H9 H 0.9337 0.3865 0.3724
H10 H 0.9393 0.4974 0.2387
H11 H 0.9719 0.3616 0.1941
loop_
_geom_bond_atom_site_label_1
_geom_bond_atom_site_label_2
_geom_bond_site_symmetry_1
_geom_bond_site_symmetry_2
Cl1 C2 1_555 1_555
O1 C10 1_555 1_555
O2 C13 1_555 1_555
C1 H1 1_555 1_555
C2 C1 1_555 1_555
C3 C2 1_555 1_555
H2 C3 1_555 1_555
C4 C3 1_555 1_555
H3 C4 1_555 1_555
C5 C4 1_555 1_555
C6 C1 1_555 1_555
C7 C6 1_555 1_555
C8 C7 1_555 1_555
H4 C8 1_555 1_555
C9 C8 1_555 1_555
H5 C9 1_555 1_555
C10 C9 1_555 1_555
C11 C10 1_555 1_555
H6 C11 1_555 1_555
C12 C7 1_555 1_555
H7 C12 1_555 1_555
C13 C5 1_555 1_555
H8 C13 1_555 1_555
C14 O1 1_555 1_555
H9 C14 1_555 1_555
H10 C14 1_555 1_555
H11 C14 1_555 1_555
C5 C6 1_555 1_555
C11 C12 1_555 1_555

#END
