
#######################################################################
#
#                 Cambridge Crystallographic Data Centre
#                                CCDC 
#
#######################################################################
#
# If this CIF has been generated from an entry in the Cambridge 
# Structural Database, then it will include bibliographic, chemical, 
# crystal, experimental, refinement or atomic coordinate data resulting 
# from the CCDC's data processing and validation procedures.
#
#######################################################################

data_PEWSUH
_chemical_formula_moiety         'C15 H20 O6'
_chemical_name_systematic        
'Methyl 4-butyl-2-methoxy-5-(3-methoxy-3-oxoprop-1-en-1-yl)-3-furoate'
_symmetry_cell_setting           triclinic
_symmetry_space_group_name_H-M   'P -1'
_symmetry_Int_Tables_number      2
_space_group_name_Hall           '-P 1'
loop_
_symmetry_equiv_pos_site_id
_symmetry_equiv_pos_as_xyz
1 x,y,z
2 -x,-y,-z
_cell_length_a                   7.828(9)
_cell_length_b                   8.903(11)
_cell_length_c                   12.329(14)
_cell_angle_alpha                108.86(2)
_cell_angle_beta                 99.53(2)
_cell_angle_gamma                97.72(2)
_cell_volume                     785.475
_cell_formula_units_Z            2
loop_
_atom_site_label
_atom_site_type_symbol
_atom_site_fract_x
_atom_site_fract_y
_atom_site_fract_z
O1 O 0.2794(3) 0.0804(3) 0.01510(18)
O2 O 0.0187(4) -0.3640(3) 0.1560(2)
O3 O 0.3955(4) 0.2963(3) -0.0309(2)
O4 O 0.0506(4) -0.1274(3) 0.3044(2)
O5 O 0.4481(4) 0.1828(3) -0.2615(2)
C1 C 0.3392(4) 0.1367(4) -0.0638(3)
C2 C 0.1373(5) -0.1159(4) 0.1351(3)
H1 H 0.1672 -0.0042 0.1736
C3 C 0.1629(4) -0.1793(4) 0.0265(3)
H2 H 0.1316 -0.2914 -0.0092
O6 O 0.3904(4) -0.0852(4) -0.3589(2)
C4 C 0.3371(5) 0.0153(4) -0.1662(3)
C5 C 0.0632(5) -0.2183(5) 0.1949(3)
C6 C 0.2340(5) -0.0911(4) -0.0406(3)
C7 C 0.2664(4) -0.1329(4) -0.1502(3)
C8 C 0.2281(5) -0.3023(4) -0.2403(3)
H3 H 0.2117 -0.3802 -0.2013
H4 H 0.3288 -0.3187 -0.2760
C9 C 0.3923(5) 0.0277(5) -0.2718(4)
C10 C -0.1106(5) -0.3455(4) -0.2963(3)
H5 H -0.1044 -0.2488 -0.2294
H6 H -0.1249 -0.4375 -0.2705
C11 C 0.0623(5) -0.3327(4) -0.3368(3)
H7 H 0.0723 -0.2451 -0.3675
H8 H 0.0583 -0.4322 -0.4007
C12 C 0.3513(6) 0.4009(4) 0.0733(3)
H9 H 0.2252 0.3895 0.0613
H10 H 0.4043 0.5114 0.0884
H11 H 0.3951 0.3712 0.1393
C13 C -0.0149(6) -0.2142(5) 0.3751(3)
H12 H -0.1226 -0.2896 0.3304
H13 H -0.0371 -0.1386 0.4444
H14 H 0.0717 -0.2718 0.3975
C14 C 0.5077(6) 0.2052(5) -0.3619(3)
H15 H 0.4108 0.1646 -0.4294
H16 H 0.6010 0.1473 -0.3778
H17 H 0.5506 0.3184 -0.3447
C15 C -0.2723(6) -0.3652(6) -0.3921(4)
H18 H -0.2783 -0.4597 -0.4593
H19 H -0.2626 -0.2713 -0.4147
H20 H -0.3774 -0.3769 -0.3626
loop_
_geom_bond_atom_site_label_1
_geom_bond_atom_site_label_2
_geom_bond_site_symmetry_1
_geom_bond_site_symmetry_2
O1 C1 1_555 1_555
O2 C5 1_555 1_555
O3 C1 1_555 1_555
O4 C5 1_555 1_555
O5 C9 1_555 1_555
C1 C4 1_555 1_555
C2 H1 1_555 1_555
C3 C2 1_555 1_555
H2 C3 1_555 1_555
O6 C9 1_555 1_555
C4 C7 1_555 1_555
C5 C2 1_555 1_555
C6 O1 1_555 1_555
C7 C6 1_555 1_555
C8 C7 1_555 1_555
H3 C8 1_555 1_555
H4 C8 1_555 1_555
C9 C4 1_555 1_555
C10 H5 1_555 1_555
H6 C10 1_555 1_555
C11 C8 1_555 1_555
H7 C11 1_555 1_555
H8 C11 1_555 1_555
C12 O3 1_555 1_555
H9 C12 1_555 1_555
H10 C12 1_555 1_555
H11 C12 1_555 1_555
C13 O4 1_555 1_555
H12 C13 1_555 1_555
H13 C13 1_555 1_555
H14 C13 1_555 1_555
C14 O5 1_555 1_555
H15 C14 1_555 1_555
H16 C14 1_555 1_555
H17 C14 1_555 1_555
C15 C10 1_555 1_555
H18 C15 1_555 1_555
H19 C15 1_555 1_555
H20 C15 1_555 1_555
C3 C6 1_555 1_555
C10 C11 1_555 1_555

#END
