
#######################################################################
#
#                 Cambridge Crystallographic Data Centre
#                                CCDC 
#
#######################################################################
#
# If this CIF has been generated from an entry in the Cambridge 
# Structural Database, then it will include bibliographic, chemical, 
# crystal, experimental, refinement or atomic coordinate data resulting 
# from the CCDC's data processing and validation procedures.
#
#######################################################################

data_PEWSIW
_chemical_formula_moiety         'C14 H11 Br1 O2'
_chemical_name_systematic        
5-bromo-4'-methoxy[1,1'-biphenyl]-2-carbaldehyde
_symmetry_cell_setting           monoclinic
_symmetry_space_group_name_H-M   'P 21/c'
_symmetry_Int_Tables_number      14
_space_group_name_Hall           '-P 2ybc'
loop_
_symmetry_equiv_pos_site_id
_symmetry_equiv_pos_as_xyz
1 x,y,z
2 -x,1/2+y,1/2-z
3 -x,-y,-z
4 x,1/2-y,1/2+z
_cell_length_a                   15.091(3)
_cell_length_b                   10.597(2)
_cell_length_c                   7.7203(17)
_cell_angle_alpha                90
_cell_angle_beta                 96.912(4)
_cell_angle_gamma                90
_cell_volume                     1225.65
_exptl_crystal_colour            yellow
_exptl_crystal_description       block
_cell_formula_units_Z            4
loop_
_atom_site_label
_atom_site_type_symbol
_atom_site_fract_x
_atom_site_fract_y
_atom_site_fract_z
Br1 Br 0.48251(3) 0.19643(4) 0.23557(5)
O1 O 0.91263(19) 0.2035(2) 0.0240(4)
O2 O 0.83957(16) 0.8741(2) 0.1689(3)
C1 C 0.6307(2) 0.3466(3) 0.1713(4)
H1 H 0.5941 0.4134 0.1951
C2 C 0.5998(2) 0.2245(3) 0.1765(4)
C3 C 0.6524(3) 0.1226(3) 0.1443(4)
H2 H 0.6312 0.0406 0.1517
C4 C 0.7368(3) 0.1448(3) 0.1010(4)
H3 H 0.7725 0.0768 0.0776
C5 C 0.7699(2) 0.2669(3) 0.0916(4)
C6 C 0.7164(2) 0.3703(3) 0.1304(4)
C7 C 0.7512(2) 0.5024(3) 0.1374(4)
C8 C 0.7015(2) 0.6011(3) 0.0568(4)
H4 H 0.6461 0.5847 -0.0059
C9 C 0.7335(2) 0.7230(3) 0.0692(5)
H5 H 0.6999 0.7879 0.0133
C10 C 0.8148(2) 0.7500(3) 0.1632(4)
C11 C 0.8666(2) 0.6528(3) 0.2445(4)
H6 H 0.9222 0.6693 0.3062
C12 C 0.8329(2) 0.5310(3) 0.2309(4)
H7 H 0.8665 0.4660 0.2867
C13 C 0.8569(3) 0.2850(3) 0.0288(5)
H8 H 0.8701 0.3651 -0.0102
C14 C 0.9265(3) 0.9054(3) 0.2511(5)
H9 H 0.9308 0.8846 0.3728
H10 H 0.9367 0.9942 0.2383
H11 H 0.9704 0.8587 0.1975
loop_
_geom_bond_atom_site_label_1
_geom_bond_atom_site_label_2
_geom_bond_site_symmetry_1
_geom_bond_site_symmetry_2
Br1 C2 1_555 1_555
O1 C13 1_555 1_555
O2 C10 1_555 1_555
C1 H1 1_555 1_555
C2 C1 1_555 1_555
C3 C2 1_555 1_555
H2 C3 1_555 1_555
C4 C3 1_555 1_555
H3 C4 1_555 1_555
C5 C4 1_555 1_555
C6 C1 1_555 1_555
C7 C6 1_555 1_555
C8 C7 1_555 1_555
H4 C8 1_555 1_555
C9 C8 1_555 1_555
H5 C9 1_555 1_555
C10 C9 1_555 1_555
C11 C10 1_555 1_555
H6 C11 1_555 1_555
C12 C7 1_555 1_555
H7 C12 1_555 1_555
C13 C5 1_555 1_555
H8 C13 1_555 1_555
C14 O2 1_555 1_555
H9 C14 1_555 1_555
H10 C14 1_555 1_555
H11 C14 1_555 1_555
C5 C6 1_555 1_555
C11 C12 1_555 1_555

#END
