
#######################################################################
#
#                 Cambridge Crystallographic Data Centre
#                                CCDC 
#
#######################################################################
#
# If this CIF has been generated from an entry in the Cambridge 
# Structural Database, then it will include bibliographic, chemical, 
# crystal, experimental, refinement or atomic coordinate data resulting 
# from the CCDC's data processing and validation procedures.
#
#######################################################################

data_PEWVOF
_chemical_formula_moiety         'C18 H18 Cl1 N3 O2'
_chemical_name_systematic        
't-butyl 2-(4-chlorophenyl)-1-(4-cyanophenyl)hydrazine-1-carboxylate'
_symmetry_cell_setting           triclinic
_symmetry_space_group_name_H-M   'P -1'
_symmetry_Int_Tables_number      2
_space_group_name_Hall           '-P 1'
loop_
_symmetry_equiv_pos_site_id
_symmetry_equiv_pos_as_xyz
1 x,y,z
2 -x,-y,-z
_cell_length_a                   7.805(2)
_cell_length_b                   9.051(3)
_cell_length_c                   13.102(4)
_cell_angle_alpha                95.178(6)
_cell_angle_beta                 96.506(5)
_cell_angle_gamma                91.578(5)
_cell_volume                     915.185
_exptl_crystal_colour            white
_exptl_crystal_description       Block
_cell_formula_units_Z            2
loop_
_atom_site_label
_atom_site_type_symbol
_atom_site_fract_x
_atom_site_fract_y
_atom_site_fract_z
Cl1 Cl 0.0548(3) 0.8003(2) 0.30958(11)
N1 N 0.2513(4) 0.8728(4) 0.7611(3)
H1 H 0.2979 0.9561 0.7889
N2 N 0.2180(4) 0.7594(4) 0.8219(3)
N3 N -0.4596(6) 0.8677(5) 1.0989(4)
O1 O 0.4354(3) 0.6465(3) 0.7565(2)
O2 O 0.2699(4) 0.5188(3) 0.8519(3)
C1 C 0.0932(5) 0.7392(5) 0.6081(3)
H2 H 0.0450 0.6738 0.6488
C2 C 0.0477(6) 0.7236(5) 0.5028(4)
H3 H -0.0297 0.6477 0.4730
C3 C 0.1159(7) 0.8190(6) 0.4423(4)
C4 C 0.2309(8) 0.9298(6) 0.4850(4)
H4 H 0.2781 0.9939 0.4431
C5 C 0.2776(6) 0.9469(5) 0.5912(4)
H5 H 0.3549 1.0233 0.6205
C6 C 0.2082(5) 0.8494(4) 0.6541(3)
C7 C 0.0767(5) 0.7786(4) 0.8825(3)
C8 C -0.0474(5) 0.8783(4) 0.8540(3)
H6 H -0.0384 0.9304 0.7967
C9 C -0.1847(5) 0.9000(4) 0.9111(3)
H7 H -0.2679 0.9672 0.8923
C10 C -0.1988(5) 0.8226(4) 0.9958(3)
C11 C -0.0749(5) 0.7247(4) 1.0241(3)
H8 H -0.0844 0.6725 1.0813
C12 C 0.0639(5) 0.7031(5) 0.9685(3)
H9 H 0.1484 0.6379 0.9889
C13 C -0.3459(6) 0.8464(5) 1.0529(4)
C14 C 0.3075(5) 0.6287(5) 0.8137(3)
C15 C 0.5412(5) 0.5187(5) 0.7272(3)
C16 C 0.6472(6) 0.4715(6) 0.8216(4)
H10 H 0.5720 0.4313 0.8661
H11 H 0.7118 0.5559 0.8577
H12 H 0.7252 0.3973 0.8010
C17 C 0.4264(6) 0.3950(6) 0.6681(4)
H13 H 0.3581 0.4331 0.6114
H14 H 0.3518 0.3553 0.7132
H15 H 0.4965 0.3179 0.6422
C18 C 0.6530(7) 0.5882(6) 0.6550(5)
H16 H 0.7331 0.5173 0.6322
H17 H 0.7154 0.6740 0.6908
H18 H 0.5811 0.6173 0.5963
loop_
_geom_bond_atom_site_label_1
_geom_bond_atom_site_label_2
_geom_bond_site_symmetry_1
_geom_bond_site_symmetry_2
Cl1 C3 1_555 1_555
N1 H1 1_555 1_555
N2 N1 1_555 1_555
N3 C13 1_555 1_555
O1 C14 1_555 1_555
O2 C14 1_555 1_555
C1 H2 1_555 1_555
C2 C1 1_555 1_555
H3 C2 1_555 1_555
C3 C2 1_555 1_555
C4 C3 1_555 1_555
H4 C4 1_555 1_555
C5 C4 1_555 1_555
H5 C5 1_555 1_555
C6 N1 1_555 1_555
C7 N2 1_555 1_555
C8 C7 1_555 1_555
H6 C8 1_555 1_555
C9 C8 1_555 1_555
H7 C9 1_555 1_555
C10 C9 1_555 1_555
C11 C10 1_555 1_555
H8 C11 1_555 1_555
C12 C7 1_555 1_555
H9 C12 1_555 1_555
C13 C10 1_555 1_555
C14 N2 1_555 1_555
C15 O1 1_555 1_555
C16 C15 1_555 1_555
H10 C16 1_555 1_555
H11 C16 1_555 1_555
H12 C16 1_555 1_555
C17 C15 1_555 1_555
H13 C17 1_555 1_555
H14 C17 1_555 1_555
H15 C17 1_555 1_555
C18 C15 1_555 1_555
H16 C18 1_555 1_555
H17 C18 1_555 1_555
H18 C18 1_555 1_555
C1 C6 1_555 1_555
C5 C6 1_555 1_555
C11 C12 1_555 1_555

#END
