
#######################################################################
#
#                 Cambridge Crystallographic Data Centre
#                                CCDC 
#
#######################################################################
#
# If this CIF has been generated from an entry in the Cambridge 
# Structural Database, then it will include bibliographic, chemical, 
# crystal, experimental, refinement or atomic coordinate data resulting 
# from the CCDC's data processing and validation procedures.
#
#######################################################################

data_PEWVUL
_chemical_formula_moiety         'C17 H19 Cl1 N2 O2'
_chemical_name_systematic        
't-butyl 1-(4-chlorophenyl)-2-phenylhydrazine-1-carboxylate'
_symmetry_cell_setting           monoclinic
_symmetry_space_group_name_H-M   'P 21/n'
_symmetry_Int_Tables_number      14
_space_group_name_Hall           '-P 2yn'
loop_
_symmetry_equiv_pos_site_id
_symmetry_equiv_pos_as_xyz
1 x,y,z
2 1/2-x,1/2+y,1/2-z
3 -x,-y,-z
4 1/2+x,1/2-y,1/2+z
_cell_length_a                   6.445(3)
_cell_length_b                   15.349(6)
_cell_length_c                   16.597(6)
_cell_angle_alpha                90
_cell_angle_beta                 91.799(7)
_cell_angle_gamma                90
_cell_volume                     1641.04
_exptl_crystal_colour            white
_exptl_crystal_description       block
_cell_formula_units_Z            4
loop_
_atom_site_label
_atom_site_type_symbol
_atom_site_fract_x
_atom_site_fract_y
_atom_site_fract_z
Cl1 Cl 0.17575(12) 0.79585(4) 0.50817(5)
N1 N 0.4963(3) 0.45537(11) 0.62751(11)
N2 N 0.6987(3) 0.45852(11) 0.66050(11)
H1 H 0.8052 0.4600 0.6306
O1 O 0.5109(2) 0.31622(9) 0.66163(10)
O2 O 0.2049(3) 0.37016(10) 0.61417(10)
C1 C 0.4742(4) 0.68620(15) 0.56564(15)
H2 H 0.5634 0.7338 0.5644
C2 C 0.5460(4) 0.60682(15) 0.59380(13)
H3 H 0.6838 0.6012 0.6114
C3 C 0.4150(3) 0.53547(13) 0.59614(12)
C4 C 0.2112(4) 0.54553(15) 0.56814(15)
H4 H 0.1208 0.4983 0.5684
C5 C 0.1422(4) 0.62504(15) 0.53997(15)
H5 H 0.0056 0.6310 0.5211
C6 C 0.2717(4) 0.69506(14) 0.53944(13)
C7 C 0.7190(3) 0.45906(12) 0.74519(13)
C8 C 0.9086(4) 0.43608(16) 0.78020(16)
H6 H 1.0167 0.4189 0.7479
C9 C 0.9378(5) 0.43850(18) 0.86264(19)
H7 H 1.0656 0.4227 0.8858
C10 C 0.7804(5) 0.4640(2) 0.91072(18)
H8 H 0.8005 0.4653 0.9664
C11 C 0.5929(5) 0.48759(18) 0.87628(16)
H9 H 0.4859 0.5054 0.9088
C12 C 0.5616(4) 0.48518(15) 0.79367(14)
H10 H 0.4337 0.5013 0.7708
C13 C 0.3864(4) 0.37815(14) 0.63320(12)
C14 C 0.4298(4) 0.23118(15) 0.68955(15)
C15 C 0.6233(5) 0.19005(18) 0.7262(2)
H11 H 0.7286 0.1877 0.6866
H12 H 0.5922 0.1321 0.7438
H13 H 0.6721 0.2242 0.7714
C16 C 0.2690(6) 0.2464(2) 0.7518(2)
H14 H 0.3229 0.2862 0.7919
H15 H 0.2351 0.1921 0.7768
H16 H 0.1465 0.2708 0.7263
C17 C 0.3459(5) 0.17949(18) 0.61907(18)
H17 H 0.2261 0.2084 0.5959
H18 H 0.3075 0.1224 0.6368
H19 H 0.4503 0.1747 0.5793
loop_
_geom_bond_atom_site_label_1
_geom_bond_atom_site_label_2
_geom_bond_site_symmetry_1
_geom_bond_site_symmetry_2
Cl1 C6 1_555 1_555
N1 N2 1_555 1_555
N2 H1 1_555 1_555
O1 C13 1_555 1_555
O2 C13 1_555 1_555
C1 H2 1_555 1_555
C2 C1 1_555 1_555
H3 C2 1_555 1_555
C3 N1 1_555 1_555
C4 C3 1_555 1_555
H4 C4 1_555 1_555
C5 C4 1_555 1_555
H5 C5 1_555 1_555
C6 C1 1_555 1_555
C7 N2 1_555 1_555
C8 C7 1_555 1_555
H6 C8 1_555 1_555
C9 C8 1_555 1_555
H7 C9 1_555 1_555
C10 C9 1_555 1_555
H8 C10 1_555 1_555
C11 C10 1_555 1_555
H9 C11 1_555 1_555
C12 C7 1_555 1_555
H10 C12 1_555 1_555
C13 N1 1_555 1_555
C14 O1 1_555 1_555
C15 C14 1_555 1_555
H11 C15 1_555 1_555
H12 C15 1_555 1_555
H13 C15 1_555 1_555
C16 C14 1_555 1_555
H14 C16 1_555 1_555
H15 C16 1_555 1_555
H16 C16 1_555 1_555
C17 C14 1_555 1_555
H17 C17 1_555 1_555
H18 C17 1_555 1_555
H19 C17 1_555 1_555
C2 C3 1_555 1_555
C5 C6 1_555 1_555
C11 C12 1_555 1_555

#END
