
#######################################################################
#
#                 Cambridge Crystallographic Data Centre
#                                CCDC 
#
#######################################################################
#
# If this CIF has been generated from an entry in the Cambridge 
# Structural Database, then it will include bibliographic, chemical, 
# crystal, experimental, refinement or atomic coordinate data resulting 
# from the CCDC's data processing and validation procedures.
#
#######################################################################

data_PEWXOG
_chemical_formula_moiety         'C25 H19 Cl1 O3'
_chemical_name_systematic        
5-(1-(4-Chlorophenyl)-3-oxo-3-phenylpropyl)-5-phenylfuran-2(5H)-one
_symmetry_cell_setting           orthorhombic
_symmetry_space_group_name_H-M   'P c a 21'
_symmetry_Int_Tables_number      29
_space_group_name_Hall           'P 2c -2ac'
loop_
_symmetry_equiv_pos_site_id
_symmetry_equiv_pos_as_xyz
1 x,y,z
2 -x,-y,1/2+z
3 1/2-x,y,1/2+z
4 1/2+x,-y,z
_cell_length_a                   13.204(5)
_cell_length_b                   13.981(2)
_cell_length_c                   21.907(5)
_cell_angle_alpha                90
_cell_angle_beta                 90
_cell_angle_gamma                90
_cell_volume                     4044.14
_exptl_crystal_colour            'dark yellow'
_exptl_crystal_description       block
_cell_formula_units_Z            8
loop_
_atom_site_label
_atom_site_type_symbol
_atom_site_fract_x
_atom_site_fract_y
_atom_site_fract_z
Cl1 Cl 0.84217(14) 0.03132(16) 0.88732(9)
O1 O 0.4678(3) -0.0424(2) 0.67736(16)
O2 O 0.4977(3) -0.1950(3) 0.70150(19)
C1 C 0.5203(4) 0.0348(3) 0.6463(2)
O3 O 0.4987(3) 0.2927(3) 0.75046(19)
C2 C 0.7520(5) 0.0532(4) 0.8315(3)
C3 C 0.5258(5) -0.1235(4) 0.6778(3)
C4 C 0.3375(4) 0.2588(3) 0.7932(2)
C5 C 0.4284(4) 0.2379(4) 0.7541(2)
C6 C 0.5321(4) 0.1175(3) 0.6930(2)
H1 H 0.5591 0.1729 0.6709
C7 C 0.4618(4) 0.0657(4) 0.5909(2)
C8 C 0.6542(5) 0.0233(4) 0.8396(3)
H2 H 0.6358 -0.0104 0.8745
C9 C 0.1684(5) 0.2327(4) 0.8255(3)
H3 H 0.1087 0.1975 0.8233
C10 C 0.7803(4) 0.1019(4) 0.7800(2)
H4 H 0.8471 0.1216 0.7748
C11 C 0.6208(4) -0.1007(4) 0.6461(3)
H5 H 0.6739 -0.1431 0.6395
C12 C 0.4282(4) 0.1456(3) 0.7175(2)
H6 H 0.3819 0.1526 0.6834
H7 H 0.4029 0.0943 0.7431
C13 C 0.2503(5) 0.2065(4) 0.7906(3)
H8 H 0.2464 0.1532 0.7653
C14 C 0.7085(4) 0.1213(3) 0.7359(2)
H9 H 0.7275 0.1538 0.7007
C15 C 0.3574(5) 0.1274(5) 0.4878(3)
H10 H 0.3230 0.1468 0.4529
C16 C 0.6190(5) -0.0099(4) 0.6284(3)
H11 H 0.6712 0.0212 0.6079
C17 C 0.6073(4) 0.0930(3) 0.7432(2)
C18 C 0.3436(5) 0.3361(4) 0.8315(3)
H12 H 0.4028 0.3721 0.8335
C19 C 0.4476(6) 0.1683(5) 0.5031(3)
H13 H 0.4737 0.2177 0.4794
C20 C 0.1740(5) 0.3098(4) 0.8633(3)
H14 H 0.1179 0.3276 0.8862
C21 C 0.3182(4) 0.0571(5) 0.5246(3)
H15 H 0.2555 0.0304 0.5153
C22 C 0.3709(4) 0.0257(4) 0.5753(3)
H16 H 0.3441 -0.0233 0.5991
C23 C 0.5830(4) 0.0441(4) 0.7949(3)
H17 H 0.5165 0.0240 0.8005
C24 C 0.5001(5) 0.1366(4) 0.5535(3)
H18 H 0.5627 0.1636 0.5626
C25 C 0.2604(5) 0.3603(5) 0.8675(3)
H19 H 0.2646 0.4115 0.8945
O4 O 0.2856(3) 0.4676(2) 0.67119(16)
C26 C 0.1084(5) 0.5070(4) 0.5061(3)
H20 H 0.1320 0.4711 0.4733
C27 C 0.1413(4) 0.5933(3) 0.6004(2)
C28 C 0.4698(6) 0.8261(5) 0.4536(4)
H21 H 0.4604 0.8599 0.4175
C29 C 0.5642(6) 0.7936(5) 0.4684(3)
H22 H 0.6188 0.8068 0.4430
C30 C 0.2746(6) 0.6664(5) 0.8499(3)
H23 H 0.2375 0.7033 0.8773
C31 C 0.4236(5) 0.5915(5) 0.8209(4)
H24 H 0.4916 0.5774 0.8273
O5 O 0.2669(3) 0.3139(3) 0.64703(19)
O6 O 0.2400(3) 0.7934(2) 0.5840(2)
C32 C 0.1755(4) 0.5395(4) 0.5509(3)
H25 H 0.2440 0.5251 0.5477
C33 C 0.1296(5) 0.4917(4) 0.7150(3)
H26 H 0.0734 0.5204 0.7329
C34 C 0.0381(4) 0.6120(4) 0.6036(3)
H27 H 0.0128 0.6464 0.6366
C35 C 0.0080(5) 0.5284(4) 0.5112(3)
C36 C 0.2312(5) 0.3837(4) 0.6692(3)
C37 C 0.2259(4) 0.5431(3) 0.7001(2)
C38 C 0.2122(4) 0.6224(3) 0.6511(2)
H28 H 0.1804 0.6768 0.6718
C39 C -0.0273(4) 0.5807(4) 0.5592(3)
H29 H -0.0959 0.5953 0.5618
C40 C 0.3161(4) 0.6573(3) 0.6291(3)
H30 H 0.3557 0.6762 0.6644
H31 H 0.3510 0.6042 0.6097
C41 C 0.2789(4) 0.5793(4) 0.7565(2)
C42 C 0.1345(4) 0.4017(4) 0.6997(2)
H32 H 0.0845 0.3563 0.7070
C43 C 0.3996(4) 0.7565(3) 0.5445(2)
C44 C 0.3125(4) 0.7401(4) 0.5847(3)
C45 C 0.4963(4) 0.7220(4) 0.5579(3)
H33 H 0.5058 0.6849 0.5927
C46 C 0.2273(5) 0.6359(4) 0.7977(3)
H34 H 0.1605 0.6532 0.7901
C47 C 0.5786(5) 0.7416(4) 0.5206(3)
H35 H 0.6428 0.7197 0.5309
C48 C 0.3773(4) 0.5574(5) 0.7688(3)
H36 H 0.4136 0.5192 0.7419
C49 C 0.3879(6) 0.8093(4) 0.4915(3)
H37 H 0.3246 0.8338 0.4814
C50 C 0.3730(5) 0.6458(5) 0.8639(3)
H38 H 0.4036 0.6667 0.8998
Cl2 Cl -0.07595(14) 0.48560(12) 0.45655(9)
loop_
_geom_bond_atom_site_label_1
_geom_bond_atom_site_label_2
_geom_bond_site_symmetry_1
_geom_bond_site_symmetry_2
Cl1 C2 1_555 1_555
O1 C1 1_555 1_555
O2 C3 1_555 1_555
C1 C6 1_555 1_555
O3 C5 1_555 1_555
C2 C8 1_555 1_555
C3 O1 1_555 1_555
C4 C5 1_555 1_555
C5 C12 1_555 1_555
C6 H1 1_555 1_555
C7 C1 1_555 1_555
C8 H2 1_555 1_555
C9 H3 1_555 1_555
C10 C2 1_555 1_555
H4 C10 1_555 1_555
C11 C3 1_555 1_555
H5 C11 1_555 1_555
C12 C6 1_555 1_555
H6 C12 1_555 1_555
H7 C12 1_555 1_555
C13 C4 1_555 1_555
H8 C13 1_555 1_555
C14 C10 1_555 1_555
H9 C14 1_555 1_555
C15 H10 1_555 1_555
C16 C1 1_555 1_555
H11 C16 1_555 1_555
C17 C6 1_555 1_555
C18 C4 1_555 1_555
H12 C18 1_555 1_555
C19 C15 1_555 1_555
H13 C19 1_555 1_555
C20 C9 1_555 1_555
H14 C20 1_555 1_555
C21 C15 1_555 1_555
H15 C21 1_555 1_555
C22 C7 1_555 1_555
H16 C22 1_555 1_555
C23 C8 1_555 1_555
H17 C23 1_555 1_555
C24 C7 1_555 1_555
H18 C24 1_555 1_555
C25 C18 1_555 1_555
H19 C25 1_555 1_555
O4 C36 1_555 1_555
C26 H20 1_555 1_555
C27 C32 1_555 1_555
C28 H21 1_555 1_555
C29 C28 1_555 1_555
H22 C29 1_555 1_555
C30 H23 1_555 1_555
C31 H24 1_555 1_555
O5 C36 1_555 1_555
O6 C44 1_555 1_555
C32 C26 1_555 1_555
H25 C32 1_555 1_555
C33 H26 1_555 1_555
C34 C27 1_555 1_555
H27 C34 1_555 1_555
C35 C26 1_555 1_555
C36 C42 1_555 1_555
C37 O4 1_555 1_555
C38 C27 1_555 1_555
H28 C38 1_555 1_555
C39 C34 1_555 1_555
H29 C39 1_555 1_555
C40 C38 1_555 1_555
H30 C40 1_555 1_555
H31 C40 1_555 1_555
C41 C37 1_555 1_555
C42 C33 1_555 1_555
H32 C42 1_555 1_555
C43 C44 1_555 1_555
C44 C40 1_555 1_555
C45 C43 1_555 1_555
H33 C45 1_555 1_555
C46 C30 1_555 1_555
H34 C46 1_555 1_555
C47 C29 1_555 1_555
H35 C47 1_555 1_555
C48 C31 1_555 1_555
H36 C48 1_555 1_555
C49 C28 1_555 1_555
H37 C49 1_555 1_555
C50 C30 1_555 1_555
H38 C50 1_555 1_555
Cl2 C35 1_555 1_555
C9 C13 1_555 1_555
C11 C16 1_555 1_555
C14 C17 1_555 1_555
C17 C23 1_555 1_555
C19 C24 1_555 1_555
C20 C25 1_555 1_555
C21 C22 1_555 1_555
C31 C50 1_555 1_555
C33 C37 1_555 1_555
C35 C39 1_555 1_555
C37 C38 1_555 1_555
C41 C46 1_555 1_555
C41 C48 1_555 1_555
C43 C49 1_555 1_555
C45 C47 1_555 1_555

#END
