
#######################################################################
#
#                 Cambridge Crystallographic Data Centre
#                                CCDC 
#
#######################################################################
#
# If this CIF has been generated from an entry in the Cambridge 
# Structural Database, then it will include bibliographic, chemical, 
# crystal, experimental, refinement or atomic coordinate data resulting 
# from the CCDC's data processing and validation procedures.
#
#######################################################################

data_PEWYAR
_chemical_formula_moiety         'C16 H15 F5 N1 O3 P1'
_chemical_name_systematic        
'Dimethyl \a-(N-pentafluorophenylamino)-4-methylbenzylphosphonate'
_symmetry_cell_setting           triclinic
_symmetry_space_group_name_H-M   'P -1'
_symmetry_Int_Tables_number      2
_space_group_name_Hall           '-P 1'
loop_
_symmetry_equiv_pos_site_id
_symmetry_equiv_pos_as_xyz
1 x,y,z
2 -x,-y,-z
_cell_length_a                   9.65(5)
_cell_length_b                   10.74(6)
_cell_length_c                   9.25(7)
_cell_angle_alpha                83.67(6)
_cell_angle_beta                 97.40(6)
_cell_angle_gamma                113.57(4)
_cell_volume                     869.558
_exptl_crystal_colour            colorless
_chemical_melting_point          103-104deg.C
_cell_formula_units_Z            2
loop_
_atom_site_label
_atom_site_type_symbol
_atom_site_fract_x
_atom_site_fract_y
_atom_site_fract_z
P1 P 0.7213(1) 0.9207(1) 0.0723(1)
O1 O 0.5660(2) 0.8907(2) 0.1012(2)
O2 O 0.8502(2) 1.0167(2) 0.1790(2)
O3 O 0.7626(2) 0.7917(2) 0.0793(2)
C1 C 0.6906(3) 0.9165(3) -0.2270(3)
C2 C 0.5522(4) 0.9120(4) -0.2932(4)
C3 C 0.4796(4) 0.8261(4) -0.4061(4)
C4 C 0.5400(4) 0.7441(3) -0.4545(3)
C5 C 0.6774(4) 0.7472(3) -0.3850(4)
C6 C 0.7534(4) 0.8343(3) -0.2732(4)
C7 C 0.7726(3) 1.0089(3) -0.1038(3)
C8 C 0.4604(7) 0.6567(5) -0.5821(5)
C9 C 0.8334(6) 1.0157(6) 0.3295(5)
C10 C 0.6482(7) 0.6587(4) 0.0565(8)
N1 N 0.7467(3) 1.1339(2) -0.1108(3)
F1 F 0.7380(2) 1.3660(2) -0.0314(2)
F2 F 0.9138(3) 1.6146(2) -0.1395(3)
F3 F 1.1175(3) 1.6405(2) -0.3306(3)
F4 F 1.1368(3) 1.4143(3) -0.4145(3)
F5 F 0.9528(2) 1.1687(2) -0.3236(2)
C11 C 0.8399(3) 1.2557(2) -0.1685(3)
C12 C 0.8352(3) 1.3766(3) -0.1280(3)
C13 C 0.9245(4) 1.5021(3) -0.1805(4)
C14 C 1.0312(4) 1.5188(4) -0.2774(5)
C15 C 1.0382(4) 1.4028(4) -0.3188(4)
C16 C 0.9428(3) 1.2760(3) -0.2682(3)
loop_
_geom_bond_atom_site_label_1
_geom_bond_atom_site_label_2
_geom_bond_site_symmetry_1
_geom_bond_site_symmetry_2
P1 O1 1_555 1_555
O2 P1 1_555 1_555
O3 P1 1_555 1_555
C1 C2 1_555 1_555
C2 C3 1_555 1_555
C3 C4 1_555 1_555
C4 C5 1_555 1_555
C5 C6 1_555 1_555
C6 C1 1_555 1_555
C7 P1 1_555 1_555
C8 C4 1_555 1_555
C9 O2 1_555 1_555
C10 O3 1_555 1_555
N1 C7 1_555 1_555
F1 C12 1_555 1_555
F2 C13 1_555 1_555
F3 C14 1_555 1_555
F4 C15 1_555 1_555
F5 C16 1_555 1_555
C11 N1 1_555 1_555
C12 C11 1_555 1_555
C13 C12 1_555 1_555
C14 C13 1_555 1_555
C15 C14 1_555 1_555
C16 C11 1_555 1_555
C1 C7 1_555 1_555
C15 C16 1_555 1_555

#END
