
#######################################################################
#
#                 Cambridge Crystallographic Data Centre
#                                CCDC 
#
#######################################################################
#
# If this CIF has been generated from an entry in the Cambridge 
# Structural Database, then it will include bibliographic, chemical, 
# crystal, experimental, refinement or atomic coordinate data resulting 
# from the CCDC's data processing and validation procedures.
#
#######################################################################

data_PEXBID
_chemical_formula_moiety         'C28 H37 N5 O8,2(H2 O1)'
_chemical_name_systematic        
'1,7-bis((N-Benzylcarbamoyl)methyl)-1,4,7-triazaheptane-1,4,7-triacetic acid dihydrate'
_symmetry_cell_setting           monoclinic
_symmetry_space_group_name_H-M   'P 21/a'
_symmetry_Int_Tables_number      14
_space_group_name_Hall           '-P 2yab'
loop_
_symmetry_equiv_pos_site_id
_symmetry_equiv_pos_as_xyz
1 x,y,z
2 1/2-x,1/2+y,-z
3 -x,-y,-z
4 1/2+x,1/2-y,z
_cell_length_a                   18.019(5)
_cell_length_b                   7.204(1)
_cell_length_c                   24.288(7)
_cell_angle_alpha                90
_cell_angle_beta                 99.26(2)
_cell_angle_gamma                90
_cell_volume                     3111.71
_exptl_crystal_colour            colorless
_cell_formula_units_Z            4
loop_
_atom_site_label
_atom_site_type_symbol
_atom_site_fract_x
_atom_site_fract_y
_atom_site_fract_z
O1 O 0.9431(1) 0.0819(3) 0.2764(1)
O2 O 0.6135(1) -0.0785(63) 0.2022(1)
O3 O 0.6478(1) -0.2322(4) 0.2815(1)
O4 O 0.8235(1) 0.4061(3) 0.1294(1)
O5 O 0.8225(1) 0.5371(3) 0.0463(1)
O6 O 0.4193(1) 0.5599(4) 0.0759(1)
O7 O 0.4565(1) 0.8534(4) 0.0721(1)
O8 O 0.6829(1) 0.3583(3) 0.2044(1)
N1 N 0.8345(2) 0.2394(5) 0.2647(1)
N2 N 0.7671(1) -0.0336(4) 0.1912(1)
N3 N 0.6970(1) 0.2056(4) 0.0949(1)
N4 N 0.5724(1) 0.4506(4) 0.1137(1)
N5 N 0.5976(1) 0.3308(4) 0.2622(1)
C1 C 0.8415(2) 0.3406(9) 0.3636(2)
C2 C 0.8351(3) 0.1673(10) 0.3838(2)
C3 C 0.8194(5) 0.1371(12) 0.4367(4)
C4 C 0.8137(5) 0.2810(20) 0.4700(4)
C5 C 0.8191(6) 0.4570(16) 0.4512(4)
C6 C 0.8333(3) 0.4876(9) 0.3990(3)
C7 C 0.8608(2) 0.3774(6) 0.3072(2)
C8 C 0.8783(2) 0.1055(5) 0.2513(2)
C9 C 0.8488(2) -0.0135(5) 0.2024(2)
C10 C 0.7439(2) -0.1570(5) 0.2325(1)
C11 C 0.6614(2) -0.1477(6) 0.2360(2)
C12 C 0.7437(2) -0.1035(5) 0.1345(2)
C13 C 0.7471(2) 0.0402(5) 0.0906(1)
C14 C 0.7191(2) 0.3584(5) 0.0587(1)
C15 C 0.7953(2) 0.4379(5) 0.0810(2)
C16 C 0.6149(2) 0.1505(5) 0.0812(1)
C17 C 0.5599(2) 0.3090(5) 0.0706(1)
C18 C 0.5508(2) 0.6362(5) 0.0957(1)
C19 C 0.4677(2) 0.6741(6) 0.0803(1)
C20 C 0.5513(2) 0.3965(5) 0.1665(1)
C21 C 0.6169(2) 0.3612(5) 0.2124(2)
C22 C 0.6520(2) 0.2997(5) 0.3124(2)
C23 C 0.6132(2) 0.2835(7) 0.3622(2)
C24 C 0.5883(3) 0.1174(8) 0.3785(2)
C25 C 0.5493(4) 0.1019(11) 0.4223(3)
C26 C 0.5358(4) 0.2532(17) 0.4498(3)
C27 C 0.5586(5) 0.4225(11) 0.4355(3)
C28 C 0.5991(3) 0.4369(8) 0.3914(2)
O9 O 0.4920(2) 0.2351(4) 0.7084(1)
O10 O 0.5512(2) 0.0249(5) 0.7985(1)
loop_
_geom_bond_atom_site_label_1
_geom_bond_atom_site_label_2
_geom_bond_site_symmetry_1
_geom_bond_site_symmetry_2
O1 C8 1_555 1_555
O2 C11 1_555 1_555
O3 C11 1_555 1_555
O4 C15 1_555 1_555
O5 C15 1_555 1_555
O6 C19 1_555 1_555
O7 C19 1_555 1_555
O8 C21 1_555 1_555
N1 C7 1_555 1_555
N2 C9 1_555 1_555
N3 C13 1_555 1_555
N4 C17 1_555 1_555
N5 C21 1_555 1_555
C1 C2 1_555 1_555
C2 C3 1_555 1_555
C3 C4 1_555 1_555
C4 C5 1_555 1_555
C5 C6 1_555 1_555
C6 C1 1_555 1_555
C7 C1 1_555 1_555
C8 N1 1_555 1_555
C9 C8 1_555 1_555
C10 N2 1_555 1_555
C11 C10 1_555 1_555
C12 N2 1_555 1_555
C13 C12 1_555 1_555
C14 N3 1_555 1_555
C15 C14 1_555 1_555
C16 N3 1_555 1_555
C17 C16 1_555 1_555
C18 N4 1_555 1_555
C19 C18 1_555 1_555
C20 N4 1_555 1_555
C21 C20 1_555 1_555
C22 N5 1_555 1_555
C23 C22 1_555 1_555
C24 C23 1_555 1_555
C25 C24 1_555 1_555
C26 C25 1_555 1_555
C27 C26 1_555 1_555
C28 C23 1_555 1_555
C27 C28 1_555 1_555

#END
