
#######################################################################
#
#                 Cambridge Crystallographic Data Centre
#                                CCDC 
#
#######################################################################
#
# If this CIF has been generated from an entry in the Cambridge 
# Structural Database, then it will include bibliographic, chemical, 
# crystal, experimental, refinement or atomic coordinate data resulting 
# from the CCDC's data processing and validation procedures.
#
#######################################################################

data_PEXCAX
_chemical_formula_moiety         'C24 H33 N1 O4'
_chemical_name_systematic        
9,22-Dihydroxy-19-methoxy-4,16-dimethyl-3-oxo-2-azabicyclo[16.3.1]docosa-1(22),4,6,15,18,20-hexaene
_symmetry_cell_setting           triclinic
_symmetry_space_group_name_H-M   'P -1'
_symmetry_Int_Tables_number      2
_space_group_name_Hall           '-P 1'
loop_
_symmetry_equiv_pos_site_id
_symmetry_equiv_pos_as_xyz
1 x,y,z
2 -x,-y,-z
_cell_length_a                   8.8832(12)
_cell_length_b                   10.3813(15)
_cell_length_c                   12.0879(17)
_cell_angle_alpha                81.631(2)
_cell_angle_beta                 81.670(2)
_cell_angle_gamma                78.225(2)
_cell_volume                     1072
_exptl_crystal_colour            colorless
_exptl_crystal_description       prism
_chemical_melting_point          185-187deg.C
_cell_formula_units_Z            2
loop_
_atom_site_label
_atom_site_type_symbol
_atom_site_fract_x
_atom_site_fract_y
_atom_site_fract_z
O1 O 0.4144(2) -0.25082(19) 1.13998(15)
H1 H 0.5139(19) -0.261(3) 1.169(3)
C1 C 0.3327(3) -0.3454(2) 1.1935(2)
C2 C 0.3249(3) -0.3850(2) 1.3089(2)
C3 C 0.2322(3) -0.4788(3) 1.3546(2)
O2 O 0.2284(2) -0.51245(19) 1.46974(15)
C4 C 0.1493(3) -0.5297(3) 1.2879(2)
H2 H 0.0876 -0.5934 1.3207
C5 C 0.1566(3) -0.4873(3) 1.1726(2)
H3 H 0.0988 -0.5210 1.1269
C6 C 0.2485(3) -0.3959(3) 1.1252(2)
N1 N 0.2606(3) -0.3411(2) 1.01040(18)
H4 H 0.317(3) -0.267(2) 0.995(3)
C7 C 0.2298(3) -0.3899(3) 0.9201(2)
O3 O 0.1898(2) -0.49760(19) 0.92519(16)
C8 C 0.2491(3) -0.3016(3) 0.8113(2)
C9 C 0.2027(3) -0.1691(3) 0.8088(2)
H5 H 0.1569 -0.1372 0.8780
C10 C 0.2153(3) -0.0704(3) 0.7114(2)
H6 H 0.2594 -0.1011 0.6414
C11 C 0.1697(3) 0.0607(3) 0.7125(2)
H7 H 0.1860 0.1146 0.6429
C12 C 0.0954(3) 0.1312(3) 0.8123(2)
H8 H 0.0289 0.0759 0.8625
H9 H 0.0289 0.2157 0.7862
C13 C 0.2184(5) 0.1600(4) 0.8787(3)
H10 H 0.3052 0.0822 0.8713
O4 O 0.2840(2) 0.27037(19) 0.82061(16)
H11 H 0.227(5) 0.354(3) 0.847(4)
C14 C 0.1772(5) 0.1587(5) 0.9969(3)
H12 H 0.1371 0.0764 1.0256
H13 H 0.0907 0.2340 1.0097
C15 C 0.3020(4) 0.1669(3) 1.0674(3)
H14 H 0.4012 0.1133 1.0378
H15 H 0.3160 0.2600 1.0607
C16 C 0.2631(4) 0.1180(4) 1.1898(3)
H16 H 0.1585 0.1651 1.2166
H17 H 0.2596 0.0225 1.1968
C17 C 0.3758(3) 0.1374(3) 1.2646(2)
H18 H 0.3614 0.2330 1.2722
H19 H 0.4825 0.1093 1.2283
C18 C 0.3579(4) 0.0596(3) 1.3832(2)
H20 H 0.4192 0.0904 1.4328
H21 H 0.2478 0.0769 1.4157
C19 C 0.4119(3) -0.0868(3) 1.3781(2)
H22 H 0.5194 -0.1140 1.3559
C20 C 0.3302(3) -0.1833(3) 1.4005(2)
C21 C 0.4087(3) -0.3246(3) 1.3831(2)
H23 H 0.5167 -0.3250 1.3481
H24 H 0.4121 -0.3795 1.4572
C22 C 0.1730(4) -0.6298(3) 1.5176(2)
H25 H 0.0642 -0.6202 1.5058
H26 H 0.1819 -0.6448 1.5986
H27 H 0.2347 -0.7054 1.4816
C23 C 0.3140(4) -0.3732(3) 0.7104(2)
H28 H 0.2414 -0.4272 0.6971
H29 H 0.4133 -0.4306 0.7242
H30 H 0.3296 -0.3085 0.6442
C24 C 0.1592(3) -0.1644(3) 1.4398(3)
H31 H 0.1212 -0.0730 1.4566
H32 H 0.1408 -0.2257 1.5079
H33 H 0.1043 -0.1820 1.3805
loop_
_geom_bond_atom_site_label_1
_geom_bond_atom_site_label_2
_geom_bond_site_symmetry_1
_geom_bond_site_symmetry_2
O1 H1 1_555 1_555
C1 O1 1_555 1_555
C2 C1 1_555 1_555
C3 C2 1_555 1_555
O2 C3 1_555 1_555
C4 C3 1_555 1_555
H2 C4 1_555 1_555
C5 C4 1_555 1_555
H3 C5 1_555 1_555
C6 C1 1_555 1_555
N1 C6 1_555 1_555
H4 N1 1_555 1_555
C7 N1 1_555 1_555
O3 C7 1_555 1_555
C8 C7 1_555 1_555
C9 C8 1_555 1_555
H5 C9 1_555 1_555
C10 C9 1_555 1_555
H6 C10 1_555 1_555
C11 C10 1_555 1_555
H7 C11 1_555 1_555
C12 C11 1_555 1_555
H8 C12 1_555 1_555
H9 C12 1_555 1_555
C13 C12 1_555 1_555
H10 C13 1_555 1_555
O4 C13 1_555 1_555
H11 O4 1_555 1_555
C14 C13 1_555 1_555
H12 C14 1_555 1_555
H13 C14 1_555 1_555
C15 C14 1_555 1_555
H14 C15 1_555 1_555
H15 C15 1_555 1_555
C16 C15 1_555 1_555
H16 C16 1_555 1_555
H17 C16 1_555 1_555
C17 C16 1_555 1_555
H18 C17 1_555 1_555
H19 C17 1_555 1_555
C18 C17 1_555 1_555
H20 C18 1_555 1_555
H21 C18 1_555 1_555
C19 C18 1_555 1_555
H22 C19 1_555 1_555
C20 C19 1_555 1_555
C21 C2 1_555 1_555
H23 C21 1_555 1_555
H24 C21 1_555 1_555
C22 O2 1_555 1_555
H25 C22 1_555 1_555
H26 C22 1_555 1_555
H27 C22 1_555 1_555
C23 C8 1_555 1_555
H28 C23 1_555 1_555
H29 C23 1_555 1_555
H30 C23 1_555 1_555
C24 C20 1_555 1_555
H31 C24 1_555 1_555
H32 C24 1_555 1_555
H33 C24 1_555 1_555
C5 C6 1_555 1_555
C20 C21 1_555 1_555

#END
