
#######################################################################
#
#                 Cambridge Crystallographic Data Centre
#                                CCDC 
#
#######################################################################
#
# If this CIF has been generated from an entry in the Cambridge 
# Structural Database, then it will include bibliographic, chemical, 
# crystal, experimental, refinement or atomic coordinate data resulting 
# from the CCDC's data processing and validation procedures.
#
#######################################################################

data_PEXLUC
_chemical_formula_moiety         'C22 H22 Cl1 N1 O4'
_chemical_name_systematic        
'diethyl 5-(4-chlorophenyl)-1-phenyl-4,5-dihydro-1H-pyrrole-2,3-dicarboxylate'
_symmetry_cell_setting           monoclinic
_symmetry_space_group_name_H-M   'P 21/c'
_symmetry_Int_Tables_number      14
_space_group_name_Hall           '-P 2ybc'
loop_
_symmetry_equiv_pos_site_id
_symmetry_equiv_pos_as_xyz
1 x,y,z
2 -x,1/2+y,1/2-z
3 -x,-y,-z
4 x,1/2-y,1/2+z
_cell_length_a                   18.8892(11)
_cell_length_b                   9.8336(6)
_cell_length_c                   22.5375(14)
_cell_angle_alpha                90
_cell_angle_beta                 103.490(2)
_cell_angle_gamma                90
_cell_volume                     4070.82
_exptl_crystal_colour            colorless
_exptl_crystal_description       block
_cell_formula_units_Z            8
loop_
_atom_site_label
_atom_site_type_symbol
_atom_site_fract_x
_atom_site_fract_y
_atom_site_fract_z
Cl1 Cl 1.02474(4) 0.23706(6) 1.03064(2)
N1 N 0.75015(9) 0.24681(19) 0.78145(8)
O1 O 0.61332(8) 0.04194(16) 0.71206(7)
O2 O 0.68437(9) 0.06869(16) 0.60616(7)
O3 O 0.59951(8) 0.26685(16) 0.69293(7)
O4 O 0.80501(9) 0.03956(18) 0.61789(7)
C1 C 0.71810(11) 0.1779(2) 0.72899(9)
C2 C 0.91451(11) 0.3824(2) 0.87028(9)
H1 H 0.9092 0.4654 0.8499
C3 C 0.95986(12) 0.3732(2) 0.92825(9)
H2 H 0.9846 0.4495 0.9469
C4 C 0.76649(11) 0.1411(2) 0.69685(9)
C5 C 0.82664(11) 0.2808(2) 0.77989(9)
H3 H 0.8283 0.3740 0.7649
C6 C 0.74611(12) 0.0801(2) 0.63670(9)
C7 C 0.71456(11) 0.2985(2) 0.82500(9)
C8 C 0.88596(11) 0.1459(2) 0.87354(10)
H4 H 0.8610 0.0694 0.8553
C9 C 0.93134(12) 0.1354(2) 0.93104(10)
H5 H 0.9373 0.0525 0.9514
C10 C 0.84176(11) 0.1810(2) 0.73160(10)
H6 H 0.8686 0.2248 0.7051
H7 H 0.8689 0.1024 0.7506
C11 C 0.87707(10) 0.2695(2) 0.84244(9)
C12 C 0.73066(12) 0.4276(2) 0.84918(10)
H8 H 0.7650 0.4809 0.8365
C13 C 0.96775(12) 0.2494(2) 0.95793(9)
C14 C 0.66417(13) 0.2190(3) 0.84509(11)
H9 H 0.6542 0.1311 0.8302
C15 C 0.53523(13) 0.0180(3) 0.69151(13)
H10 H 0.5123 0.0961 0.6685
H11 H 0.5267 -0.0606 0.6648
C16 C 0.69563(14) 0.4774(3) 0.89220(11)
H12 H 0.7068 0.5639 0.9084
C17 C 0.64437(16) 0.3997(3) 0.91124(13)
H13 H 0.6206 0.4336 0.9399
C18 C 0.78856(16) -0.0168(3) 0.55638(11)
H14 H 0.7657 -0.1053 0.5559
H15 H 0.7557 0.0428 0.5286
C19 C 0.62884(16) 0.2715(3) 0.88744(13)
H16 H 0.5940 0.2191 0.9000
C20 C 0.50352(15) -0.0048(4) 0.74298(16)
H17 H 0.5324 -0.0697 0.7700
H18 H 0.4549 -0.0392 0.7289
H19 H 0.5021 0.0793 0.7643
C21 C 0.85679(18) -0.0290(4) 0.53832(15)
H20 H 0.8777 0.0596 0.5371
H21 H 0.8484 -0.0699 0.4986
H22 H 0.8896 -0.0848 0.5672
C22 C 0.63648(11) 0.1687(2) 0.70894(9)
Cl2 Cl 0.54659(4) 0.21671(7) 0.53383(3)
N2 N 0.25247(9) 0.37870(18) 0.31448(7)
C23 C 0.21260(10) 0.3092(2) 0.26505(8)
O5 O 0.11256(7) 0.17103(15) 0.26632(6)
O6 O 0.27984(8) 0.17253(17) 0.14123(6)
O7 O 0.09060(8) 0.39032(15) 0.23862(6)
O8 O 0.16135(8) 0.18080(17) 0.14480(7)
C24 C 0.38272(10) 0.3541(2) 0.36579(8)
C25 C 0.32893(10) 0.3956(2) 0.30806(8)
H23 H 0.3373 0.4906 0.2985
C26 C 0.13120(11) 0.2961(2) 0.25454(8)
C27 C 0.44141(11) 0.4359(2) 0.39148(9)
H24 H 0.4471 0.5196 0.3739
C28 C 0.49183(11) 0.3936(2) 0.44339(9)
H25 H 0.5314 0.4484 0.4606
C29 C 0.22476(11) 0.2028(2) 0.16822(9)
C30 C 0.25320(11) 0.2669(2) 0.22668(9)
C31 C 0.03429(11) 0.1448(2) 0.25734(10)
H26 H 0.0113 0.2221 0.2719
H27 H 0.0270 0.0658 0.2810
C32 C 0.33169(11) 0.3044(2) 0.25257(9)
H28 H 0.3515 0.3537 0.2229
H29 H 0.3611 0.2239 0.2653
C33 C 0.37480(11) 0.2296(2) 0.39269(9)
H30 H 0.3354 0.1743 0.3756
C34 C 0.26171(12) 0.5620(2) 0.38792(9)
H31 H 0.3010 0.5973 0.3746
C35 C 0.22754(11) 0.4436(2) 0.36172(8)
C36 C 0.42450(12) 0.1866(2) 0.44436(9)
H32 H 0.4189 0.1031 0.4621
C37 C 0.23721(14) 0.6270(2) 0.43377(10)
H33 H 0.2607 0.7052 0.4515
C38 C 0.48262(11) 0.2697(2) 0.46919(9)
C39 C -0.00071(12) 0.1205(3) 0.19130(11)
H34 H 0.0008 0.2027 0.1686
H35 H -0.0504 0.0935 0.1873
H36 H 0.0251 0.0499 0.1758
C40 C 0.17838(14) 0.5772(3) 0.45353(10)
H37 H 0.1611 0.6232 0.4833
C41 C 0.25927(14) 0.1188(3) 0.07972(10)
H38 H 0.2209 0.1736 0.0548
H39 H 0.2418 0.0261 0.0802
C42 C 0.17011(11) 0.3899(3) 0.38348(9)
H40 H 0.1484 0.3086 0.3678
C43 C 0.14551(13) 0.4584(3) 0.42868(10)
H41 H 0.1063 0.4238 0.4424
C44 C 0.32587(15) 0.1227(3) 0.05452(12)
H42 H 0.3423 0.2149 0.0539
H43 H 0.3145 0.0869 0.0138
H44 H 0.3635 0.0687 0.0797
loop_
_geom_bond_atom_site_label_1
_geom_bond_atom_site_label_2
_geom_bond_site_symmetry_1
_geom_bond_site_symmetry_2
Cl1 C13 1_555 1_555
N1 C1 1_555 1_555
O1 C15 1_555 1_555
O2 C6 1_555 1_555
O3 C22 1_555 1_555
O4 C6 1_555 1_555
C1 C4 1_555 1_555
C2 H1 1_555 1_555
C3 C2 1_555 1_555
H2 C3 1_555 1_555
C4 C6 1_555 1_555
C5 N1 1_555 1_555
H3 C5 1_555 1_555
C7 N1 1_555 1_555
C8 H4 1_555 1_555
C9 C8 1_555 1_555
H5 C9 1_555 1_555
C10 C4 1_555 1_555
H6 C10 1_555 1_555
H7 C10 1_555 1_555
C11 C2 1_555 1_555
C12 C7 1_555 1_555
H8 C12 1_555 1_555
C13 C3 1_555 1_555
C14 C7 1_555 1_555
H9 C14 1_555 1_555
C15 H10 1_555 1_555
H11 C15 1_555 1_555
C16 C12 1_555 1_555
H12 C16 1_555 1_555
C17 C16 1_555 1_555
H13 C17 1_555 1_555
C18 O4 1_555 1_555
H14 C18 1_555 1_555
H15 C18 1_555 1_555
C19 C14 1_555 1_555
H16 C19 1_555 1_555
C20 C15 1_555 1_555
H17 C20 1_555 1_555
H18 C20 1_555 1_555
H19 C20 1_555 1_555
C21 C18 1_555 1_555
H20 C21 1_555 1_555
H21 C21 1_555 1_555
H22 C21 1_555 1_555
C22 O1 1_555 1_555
Cl2 C38 1_555 1_555
N2 C23 1_555 1_555
C23 C26 1_555 1_555
O5 C26 1_555 1_555
O6 C29 1_555 1_555
O7 C26 1_555 1_555
O8 C29 1_555 1_555
C24 C25 1_555 1_555
C25 N2 1_555 1_555
H23 C25 1_555 1_555
C27 C24 1_555 1_555
H24 C27 1_555 1_555
C28 C27 1_555 1_555
H25 C28 1_555 1_555
C29 C30 1_555 1_555
C30 C23 1_555 1_555
C31 O5 1_555 1_555
H26 C31 1_555 1_555
H27 C31 1_555 1_555
C32 C25 1_555 1_555
H28 C32 1_555 1_555
H29 C32 1_555 1_555
C33 C24 1_555 1_555
H30 C33 1_555 1_555
C34 H31 1_555 1_555
C35 N2 1_555 1_555
C36 C33 1_555 1_555
H32 C36 1_555 1_555
C37 C34 1_555 1_555
H33 C37 1_555 1_555
C38 C28 1_555 1_555
C39 C31 1_555 1_555
H34 C39 1_555 1_555
H35 C39 1_555 1_555
H36 C39 1_555 1_555
C40 C37 1_555 1_555
H37 C40 1_555 1_555
C41 O6 1_555 1_555
H38 C41 1_555 1_555
H39 C41 1_555 1_555
C42 C35 1_555 1_555
H40 C42 1_555 1_555
C43 C40 1_555 1_555
H41 C43 1_555 1_555
C44 C41 1_555 1_555
H42 C44 1_555 1_555
H43 C44 1_555 1_555
H44 C44 1_555 1_555
C1 C22 1_555 1_555
C5 C10 1_555 1_555
C5 C11 1_555 1_555
C8 C11 1_555 1_555
C9 C13 1_555 1_555
C17 C19 1_555 1_555
C30 C32 1_555 1_555
C34 C35 1_555 1_555
C36 C38 1_555 1_555
C42 C43 1_555 1_555

#END
