
#######################################################################
#
#                 Cambridge Crystallographic Data Centre
#                                CCDC 
#
#######################################################################
#
# If this CIF has been generated from an entry in the Cambridge 
# Structural Database, then it will include bibliographic, chemical, 
# crystal, experimental, refinement or atomic coordinate data resulting 
# from the CCDC's data processing and validation procedures.
#
#######################################################################

data_PEXNAK
_chemical_formula_moiety         'C18 H25 N1 O2 S1 Si1'
_chemical_name_systematic        
2-(t-butylsulfinyl)-3-(3-(trimethylsilyl)prop-2-yn-1-yl)-2,3-dihydro-1H-isoindol-1-one
_symmetry_cell_setting           orthorhombic
_symmetry_space_group_name_H-M   'P 21 21 21'
_symmetry_Int_Tables_number      19
_space_group_name_Hall           'P 2ac 2ab'
loop_
_symmetry_equiv_pos_site_id
_symmetry_equiv_pos_as_xyz
1 x,y,z
2 1/2-x,-y,1/2+z
3 -x,1/2+y,1/2-z
4 1/2+x,1/2-y,-z
_cell_length_a                   9.1561(3)
_cell_length_b                   14.3912(5)
_cell_length_c                   15.7272(6)
_cell_angle_alpha                90
_cell_angle_beta                 90
_cell_angle_gamma                90
_cell_volume                     2072.33
_cell_formula_units_Z            4
loop_
_atom_site_label
_atom_site_type_symbol
_atom_site_fract_x
_atom_site_fract_y
_atom_site_fract_z
S1 S 0.04596(11) 0.33207(8) 0.10271(7)
Si1 Si 0.4756(2) 0.40421(11) 0.40146(9)
N1 N 0.2129(3) 0.37662(18) 0.13117(19)
O1 O 0.1201(4) 0.5181(2) 0.1741(3)
O2 O 0.0786(4) 0.2639(3) 0.0358(2)
C1 C 0.4438(4) 0.2975(2) 0.2375(2)
C2 C 0.4200(4) 0.2641(2) 0.1504(2)
H1 H 0.3564 0.2102 0.1514
H2 H 0.5125 0.2455 0.1255
C3 C 0.3508(4) 0.3405(2) 0.0964(2)
H3 H 0.3363 0.3186 0.0380
C4 C 0.3716(5) 0.4998(2) 0.1315(3)
C5 C 0.4461(4) 0.4258(2) 0.0968(2)
C6 C 0.2228(5) 0.4719(3) 0.1492(2)
C7 C 0.4593(5) 0.3341(3) 0.3045(3)
C8 C 0.4422(7) 0.5850(3) 0.1452(3)
H4 H 0.3915 0.6350 0.1683
C9 C 0.5851(7) 0.5934(3) 0.1244(4)
H5 H 0.6328 0.6495 0.1336
C10 C 0.5928(6) 0.4343(3) 0.0745(4)
H6 H 0.6432 0.3847 0.0505
C11 C -0.0121(5) 0.2651(4) 0.1962(3)
C12 C 0.6617(7) 0.5187(4) 0.0890(4)
H7 H 0.7598 0.5257 0.0751
C13 C 0.0837(6) 0.1851(6) 0.2151(6)
H8 H 0.0401 0.1478 0.2589
H9 H 0.1771 0.2072 0.2341
H10 H 0.0962 0.1484 0.1647
C14 C 0.5066(12) 0.3332(5) 0.4938(4)
H11 H 0.4252 0.2921 0.5018
H12 H 0.5172 0.3722 0.5429
H13 H 0.5940 0.2974 0.4860
C15 C -0.1649(7) 0.2341(7) 0.1716(6)
H14 H -0.1591 0.1903 0.1256
H15 H -0.2210 0.2870 0.1540
H16 H -0.2113 0.2053 0.2196
C16 C 0.6179(15) 0.4909(5) 0.3850(5)
H17 H 0.6167 0.5346 0.4311
H18 H 0.6005 0.5229 0.3324
H19 H 0.7113 0.4607 0.3828
C17 C -0.0124(12) 0.3332(8) 0.2713(5)
H20 H -0.0736 0.3093 0.3158
H21 H -0.0492 0.3923 0.2529
H22 H 0.0854 0.3406 0.2923
C18 C 0.3062(16) 0.4732(10) 0.4124(7)
H23 H 0.2257 0.4324 0.4242
H24 H 0.2879 0.5062 0.3605
H25 H 0.3170 0.5167 0.4582
loop_
_geom_bond_atom_site_label_1
_geom_bond_atom_site_label_2
_geom_bond_site_symmetry_1
_geom_bond_site_symmetry_2
S1 N1 1_555 1_555
Si1 C7 1_555 1_555
N1 C3 1_555 1_555
O1 C6 1_555 1_555
O2 S1 1_555 1_555
C1 C2 1_555 1_555
C2 H1 1_555 1_555
H2 C2 1_555 1_555
C3 C2 1_555 1_555
H3 C3 1_555 1_555
C4 C5 1_555 1_555
C5 C3 1_555 1_555
C6 N1 1_555 1_555
C7 C1 1_555 1_555
C8 C4 1_555 1_555
H4 C8 1_555 1_555
C9 C8 1_555 1_555
H5 C9 1_555 1_555
C10 C5 1_555 1_555
H6 C10 1_555 1_555
C11 S1 1_555 1_555
C12 C9 1_555 1_555
H7 C12 1_555 1_555
C13 C11 1_555 1_555
H8 C13 1_555 1_555
H9 C13 1_555 1_555
H10 C13 1_555 1_555
C14 Si1 1_555 1_555
H11 C14 1_555 1_555
H12 C14 1_555 1_555
H13 C14 1_555 1_555
C15 C11 1_555 1_555
H14 C15 1_555 1_555
H15 C15 1_555 1_555
H16 C15 1_555 1_555
C16 Si1 1_555 1_555
H17 C16 1_555 1_555
H18 C16 1_555 1_555
H19 C16 1_555 1_555
C17 C11 1_555 1_555
H20 C17 1_555 1_555
H21 C17 1_555 1_555
H22 C17 1_555 1_555
C18 Si1 1_555 1_555
H23 C18 1_555 1_555
H24 C18 1_555 1_555
H25 C18 1_555 1_555
C4 C6 1_555 1_555
C10 C12 1_555 1_555

#END
