
#######################################################################
#
#                 Cambridge Crystallographic Data Centre
#                                CCDC 
#
#######################################################################
#
# If this CIF has been generated from an entry in the Cambridge 
# Structural Database, then it will include bibliographic, chemical, 
# crystal, experimental, refinement or atomic coordinate data resulting 
# from the CCDC's data processing and validation procedures.
#
#######################################################################

data_PEXQIU
_chemical_formula_moiety         'C24 H24 F1 N1 O2 S1'
_chemical_name_systematic        
5-Fluoro-1-((4-methylphenyl)sulfonyl)-3,3-diphenylpiperidine
_symmetry_cell_setting           tetragonal
_symmetry_space_group_name_H-M   'P 41'
_symmetry_Int_Tables_number      76
_space_group_name_Hall           'P 4w'
loop_
_symmetry_equiv_pos_site_id
_symmetry_equiv_pos_as_xyz
1 x,y,z
2 -y,x,1/4+z
3 -x,-y,1/2+z
4 y,-x,3/4+z
_cell_length_a                   13.95747(12)
_cell_length_b                   13.95747(12)
_cell_length_c                   10.56916(11)
_cell_angle_alpha                90
_cell_angle_beta                 90
_cell_angle_gamma                90
_cell_volume                     2058.99
_exptl_crystal_colour            colorless
_exptl_crystal_description       prism
_cell_formula_units_Z            4
loop_
_atom_site_label
_atom_site_type_symbol
_atom_site_fract_x
_atom_site_fract_y
_atom_site_fract_z
S1 S 0.03402(2) 0.44803(2) 0.05786(3)
F1 F 0.13831(9) 0.11115(7) -0.00434(9)
O1 O 0.04665(8) 0.52015(7) 0.15281(11)
O2 O 0.07105(8) 0.46306(8) -0.06735(10)
N1 N 0.08571(9) 0.35011(9) 0.11219(11)
C1 C 0.06918(10) 0.32593(10) 0.24630(12)
H1 H 0.0056 0.2953 0.2560
H2 H 0.0699 0.3851 0.2980
C2 C 0.14850(9) 0.25664(9) 0.29275(13)
C3 C 0.14148(11) 0.16677(10) 0.20725(13)
H3 H 0.1921 0.1205 0.2312
H4 H 0.0785 0.1355 0.2198
C4 C 0.15299(12) 0.19414(10) 0.06943(15)
H5 H 0.2187 0.2202 0.0543
C5 C 0.07830(12) 0.26632(11) 0.02807(14)
H6 H 0.0897 0.2857 -0.0608
H7 H 0.0135 0.2379 0.0340
C6 C -0.08825(9) 0.42007(9) 0.04482(14)
C7 C -0.14669(11) 0.42537(11) 0.15176(15)
H8 H -0.1222 0.4489 0.2297
C8 C -0.24148(12) 0.39564(12) 0.14217(17)
H9 H -0.2819 0.3988 0.2144
C9 C -0.27819(11) 0.36121(11) 0.02818(18)
C10 C -0.21859(12) 0.35655(12) -0.07697(16)
H10 H -0.2431 0.3330 -0.1548
C11 C -0.12352(11) 0.38598(11) -0.06975(14)
H11 H -0.0832 0.3828 -0.1421
C12 C -0.38177(14) 0.32968(17) 0.0187(3)
H12 H -0.4238 0.3850 0.0317
H13 H -0.3950 0.2812 0.0835
H14 H -0.3936 0.3024 -0.0653
C13 C 0.12781(10) 0.23209(10) 0.43143(13)
C14 C 0.12410(12) 0.13827(11) 0.47450(15)
H15 H 0.1308 0.0871 0.4159
C15 C 0.11067(13) 0.11790(12) 0.60237(15)
H16 H 0.1084 0.0532 0.6302
C16 C 0.10075(11) 0.19133(12) 0.68866(14)
H17 H 0.0932 0.1775 0.7761
C17 C 0.10179(13) 0.28510(12) 0.64719(15)
H18 H 0.0923 0.3358 0.7058
C18 C 0.11667(12) 0.30548(11) 0.52039(14)
H19 H 0.1193 0.3704 0.4934
C19 C 0.24873(10) 0.30174(10) 0.28676(13)
C20 C 0.33075(11) 0.24437(12) 0.28277(17)
H20 H 0.3240 0.1766 0.2814
C21 C 0.42119(12) 0.28406(14) 0.28080(19)
H21 H 0.4758 0.2435 0.2763
C22 C 0.43317(12) 0.38228(14) 0.28534(19)
H22 H 0.4955 0.4095 0.2829
C23 C 0.35328(12) 0.44016(12) 0.29343(18)
H23 H 0.3609 0.5076 0.2996
C24 C 0.26196(11) 0.40087(10) 0.29270(17)
H24 H 0.2077 0.4419 0.2963
loop_
_geom_bond_atom_site_label_1
_geom_bond_atom_site_label_2
_geom_bond_site_symmetry_1
_geom_bond_site_symmetry_2
S1 O1 1_555 1_555
F1 C4 1_555 1_555
O2 S1 1_555 1_555
N1 S1 1_555 1_555
C1 N1 1_555 1_555
H1 C1 1_555 1_555
H2 C1 1_555 1_555
C2 C1 1_555 1_555
C3 C2 1_555 1_555
H3 C3 1_555 1_555
H4 C3 1_555 1_555
C4 C3 1_555 1_555
H5 C4 1_555 1_555
C5 N1 1_555 1_555
H6 C5 1_555 1_555
H7 C5 1_555 1_555
C6 S1 1_555 1_555
C7 C6 1_555 1_555
H8 C7 1_555 1_555
C8 C7 1_555 1_555
H9 C8 1_555 1_555
C9 C8 1_555 1_555
C10 C9 1_555 1_555
H10 C10 1_555 1_555
C11 C6 1_555 1_555
H11 C11 1_555 1_555
C12 C9 1_555 1_555
H12 C12 1_555 1_555
H13 C12 1_555 1_555
H14 C12 1_555 1_555
C13 C2 1_555 1_555
C14 C13 1_555 1_555
H15 C14 1_555 1_555
C15 C14 1_555 1_555
H16 C15 1_555 1_555
C16 C15 1_555 1_555
H17 C16 1_555 1_555
C17 C16 1_555 1_555
H18 C17 1_555 1_555
C18 C13 1_555 1_555
H19 C18 1_555 1_555
C19 C2 1_555 1_555
C20 C19 1_555 1_555
H20 C20 1_555 1_555
C21 C20 1_555 1_555
H21 C21 1_555 1_555
C22 C21 1_555 1_555
H22 C22 1_555 1_555
C23 C22 1_555 1_555
H23 C23 1_555 1_555
C24 C19 1_555 1_555
H24 C24 1_555 1_555
C4 C5 1_555 1_555
C10 C11 1_555 1_555
C17 C18 1_555 1_555
C23 C24 1_555 1_555

#END
