
#######################################################################
#
#                 Cambridge Crystallographic Data Centre
#                                CCDC 
#
#######################################################################
#
# If this CIF has been generated from an entry in the Cambridge 
# Structural Database, then it will include bibliographic, chemical, 
# crystal, experimental, refinement or atomic coordinate data resulting 
# from the CCDC's data processing and validation procedures.
#
#######################################################################

data_PEXROC
_chemical_compound_source        
'fruits of Melia toosendan Sieb. et Zucc. (Meliaceae)'
_chemical_name_common            'Toosenoside A oxonium chloride'
_chemical_formula_moiety         'H3 O1 1+,C15 H26 O9,Cl1 1-'
_chemical_name_systematic        
'oxonium 2-methyl-2-((3,4,5-trihydroxy-6-(((3-methylbutanoyl)oxy)methyl)tetrahydro-2H-pyran-2-yl)oxy)propanoic acid chloride'
_symmetry_cell_setting           monoclinic
_symmetry_space_group_name_H-M   'P 21'
_symmetry_Int_Tables_number      4
_space_group_name_Hall           'P 2yb'
loop_
_symmetry_equiv_pos_site_id
_symmetry_equiv_pos_as_xyz
1 x,y,z
2 -x,1/2+y,-z
_cell_length_a                   6.5200(4)
_cell_length_b                   9.2885(5)
_cell_length_c                   15.6938(9)
_cell_angle_alpha                90
_cell_angle_beta                 94.103(6)
_cell_angle_gamma                90
_cell_volume                     947.997
_exptl_crystal_colour            colorless
_exptl_crystal_description       block
_chemical_melting_point          '146-147 deg.C'
_cell_formula_units_Z            2
loop_
_atom_site_label
_atom_site_type_symbol
_atom_site_fract_x
_atom_site_fract_y
_atom_site_fract_z
Cl1 Cl -1.1349(3) -0.3413(3) -0.34967(15)
O1 O -0.5629(6) -0.7670(4) -0.2738(2)
O2 O -0.2213(6) -0.5757(4) -0.4123(2)
H1 H -0.2772 -0.5701 -0.4606
O3 O -0.1948(6) -0.8700(5) -0.4676(2)
H2 H -0.2066 -0.8522 -0.5189
O4 O -0.5444(6) -1.0450(4) -0.4393(2)
H3 H -0.5269 -1.1242 -0.4169
O5 O -0.9058(6) -0.9275(4) -0.2367(3)
O6 O -1.0255(15) -1.1518(8) -0.2184(8)
O7 O -0.4216(6) -0.5447(4) -0.2583(2)
O8 O -0.7915(5) -0.3535(5) -0.3580(2)
H4 H -0.8269 -0.4378 -0.3643
O9 O -0.4694(6) -0.2767(4) -0.3449(2)
C1 C -0.4853(8) -0.6463(5) -0.3189(3)
H5 H -0.5944 -0.6062 -0.3581
C2 C -0.3065(8) -0.6939(5) -0.3683(3)
H6 H -0.1991 -0.7305 -0.3270
C3 C -0.3701(8) -0.8164(5) -0.4282(3)
H7 H -0.4694 -0.7797 -0.4728
C4 C -0.4702(8) -0.9358(6) -0.3810(3)
H8 H -0.3677 -0.9782 -0.3397
C5 C -0.6470(8) -0.8744(5) -0.3326(3)
H9 H -0.7505 -0.8308 -0.3730
C6 C -0.7442(9) -0.9896(6) -0.2819(4)
H10 H -0.7996 -1.0647 -0.3199
H11 H -0.6418 -1.0323 -0.2417
C7 C -1.0279(10) -1.0210(7) -0.2006(4)
C8 C -1.1801(10) -0.9508(8) -0.1471(4)
H12 H -1.2268 -1.0227 -0.1081
H13 H -1.2982 -0.9230 -0.1846
C9 C -1.1110(12) -0.8185(9) -0.0943(4)
H14 H -1.0644 -0.7443 -0.1329
C10 C -1.2965(15) -0.7617(13) -0.0513(6)
H15 H -1.4135 -0.7586 -0.0920
H16 H -1.2677 -0.6665 -0.0297
H17 H -1.3255 -0.8241 -0.0048
C11 C -0.9332(16) -0.8582(16) -0.0304(7)
H18 H -0.9759 -0.9331 0.0066
H19 H -0.8925 -0.7751 0.0031
H20 H -0.8191 -0.8913 -0.0605
C12 C -0.5734(8) -0.4390(6) -0.2375(3)
C13 C -0.6171(8) -0.3483(6) -0.3196(3)
C14 C -0.4691(11) -0.3477(8) -0.1677(3)
H21 H -0.4513 -0.4030 -0.1160
H22 H -0.5525 -0.2649 -0.1581
H23 H -0.3373 -0.3170 -0.1845
C15 C -0.7705(10) -0.5070(7) -0.2081(4)
H24 H -0.8418 -0.5560 -0.2552
H25 H -0.8573 -0.4330 -0.1876
H26 H -0.7360 -0.5744 -0.1630
O11 O -0.8689(8) -0.6838(5) -0.5303(3)
H27 H -0.8034 -0.6817 -0.4815
H28 H -0.8686 -0.6005 -0.5526
H29 H -0.988(6) -0.706(14) -0.524(7)
O10? O -0.959(5) -1.131(3) -0.176(2)
loop_
_geom_bond_atom_site_label_1
_geom_bond_atom_site_label_2
_geom_bond_site_symmetry_1
_geom_bond_site_symmetry_2
O1 C1 1_555 1_555
O2 H1 1_555 1_555
O3 H2 1_555 1_555
O4 H3 1_555 1_555
O5 C6 1_555 1_555
O6 C7 1_555 1_555
O7 C1 1_555 1_555
O8 H4 1_555 1_555
O9 C13 1_555 1_555
C1 H5 1_555 1_555
C2 O2 1_555 1_555
H6 C2 1_555 1_555
C3 O3 1_555 1_555
H7 C3 1_555 1_555
C4 O4 1_555 1_555
H8 C4 1_555 1_555
C5 O1 1_555 1_555
H9 C5 1_555 1_555
C6 C5 1_555 1_555
H10 C6 1_555 1_555
H11 C6 1_555 1_555
C7 O5 1_555 1_555
C8 C7 1_555 1_555
H12 C8 1_555 1_555
H13 C8 1_555 1_555
C9 C8 1_555 1_555
H14 C9 1_555 1_555
C10 C9 1_555 1_555
H15 C10 1_555 1_555
H16 C10 1_555 1_555
H17 C10 1_555 1_555
C11 C9 1_555 1_555
H18 C11 1_555 1_555
H19 C11 1_555 1_555
H20 C11 1_555 1_555
C12 O7 1_555 1_555
C13 O8 1_555 1_555
C14 C12 1_555 1_555
H21 C14 1_555 1_555
H22 C14 1_555 1_555
H23 C14 1_555 1_555
C15 C12 1_555 1_555
H24 C15 1_555 1_555
H25 C15 1_555 1_555
H26 C15 1_555 1_555
O11 H27 1_555 1_555
H28 O11 1_555 1_555
H29 O11 1_555 1_555
C1 C2 1_555 1_555
C2 C3 1_555 1_555
C3 C4 1_555 1_555
C4 C5 1_555 1_555
C12 C13 1_555 1_555

#END
