
#######################################################################
#
#                 Cambridge Crystallographic Data Centre
#                                CCDC 
#
#######################################################################
#
# If this CIF has been generated from an entry in the Cambridge 
# Structural Database, then it will include bibliographic, chemical, 
# crystal, experimental, refinement or atomic coordinate data resulting 
# from the CCDC's data processing and validation procedures.
#
#######################################################################

data_PEXRUI
_chemical_formula_moiety         'C30 H48 O4'
_chemical_name_systematic        '3,25-dihydroxyolean-12-en-28-oic acid'
_symmetry_cell_setting           orthorhombic
_symmetry_space_group_name_H-M   'P 21 21 21'
_symmetry_Int_Tables_number      19
_space_group_name_Hall           'P 2ac 2ab'
loop_
_symmetry_equiv_pos_site_id
_symmetry_equiv_pos_as_xyz
1 x,y,z
2 1/2-x,-y,1/2+z
3 -x,1/2+y,1/2-z
4 1/2+x,1/2-y,-z
_cell_length_a                   12.2744(12)
_cell_length_b                   13.7679(13)
_cell_length_c                   15.5493(14)
_cell_angle_alpha                90
_cell_angle_beta                 90
_cell_angle_gamma                90
_cell_volume                     2627.72
_exptl_crystal_colour            yellow
_exptl_crystal_description       block
_cell_formula_units_Z            4
loop_
_atom_site_label
_atom_site_type_symbol
_atom_site_fract_x
_atom_site_fract_y
_atom_site_fract_z
O1 O 0.62866(14) 1.35325(13) 0.02692(12)
H1 H 0.6135 1.3899 0.0667
O2 O 0.46743(14) 1.28965(12) 0.06000(10)
O3 O 0.56476(13) 0.86897(11) 0.27799(9)
H2 H 0.5681 0.8410 0.3245
O4 O 0.58392(14) 0.49255(9) 0.14201(10)
H3 H 0.5271 0.4753 0.1652
C1 C 0.54647(17) 1.29570(14) 0.01189(13)
C2 C 0.55284(15) 1.24284(13) -0.07360(12)
C3 C 0.53048(19) 1.32349(14) -0.14121(13)
H4 H 0.4685 1.3617 -0.1224
H5 H 0.5931 1.3664 -0.1437
C4 C 0.50777(18) 1.28492(16) -0.23075(13)
H6 H 0.5733 1.2543 -0.2527
H7 H 0.4906 1.3391 -0.2682
C5 C 0.41458(17) 1.21185(16) -0.23421(12)
C6 C 0.30551(19) 1.2589(2) -0.21314(17)
H8 H 0.2495 1.2102 -0.2130
H9 H 0.2889 1.3072 -0.2557
H10 H 0.3094 1.2888 -0.1575
C7 C 0.4078(2) 1.1688(2) -0.32484(15)
H11 H 0.4759 1.1384 -0.3391
H12 H 0.3927 1.2195 -0.3654
H13 H 0.3506 1.1213 -0.3268
C8 C 0.44236(18) 1.13032(15) -0.17128(12)
H14 H 0.5063 1.0965 -0.1923
H15 H 0.3826 1.0842 -0.1707
C9 C 0.46432(15) 1.16362(13) -0.07818(11)
H16 H 0.3967 1.1933 -0.0573
C10 C 0.48871(15) 1.07763(13) -0.01866(11)
C11 C 0.60361(15) 1.03529(13) -0.01592(11)
C12 C 0.68744(15) 1.11947(14) -0.01722(13)
H17 H 0.6882 1.1501 0.0390
H18 H 0.7593 1.0925 -0.0272
C13 C 0.66549(15) 1.19709(13) -0.08486(12)
H19 H 0.6705 1.1683 -0.1416
H20 H 0.7207 1.2473 -0.0807
C14 C 0.62352(18) 0.97289(15) -0.09753(12)
H21 H 0.5650 0.9273 -0.1043
H22 H 0.6911 0.9384 -0.0917
H23 H 0.6268 1.0144 -0.1471
C15 C 0.61804(15) 0.97164(13) 0.06874(11)
C16 C 0.61735(18) 1.03743(14) 0.14869(12)
H24 H 0.6058 0.9986 0.1992
H25 H 0.5598 1.0843 0.1436
H26 H 0.6860 1.0705 0.1532
C17 C 0.52005(14) 0.89887(12) 0.07172(11)
H27 H 0.5134 0.8750 0.0126
C18 C 0.41563(16) 0.95686(14) 0.08699(12)
H28 H 0.3531 0.9150 0.0778
H29 H 0.4139 0.9790 0.1462
C19 C 0.40803(16) 1.04237(14) 0.02847(12)
H30 H 0.3410 1.0736 0.0247
C20 C 0.72750(16) 0.91674(14) 0.06852(13)
H31 H 0.7406 0.8913 0.0113
H32 H 0.7855 0.9622 0.0816
C21 C 0.73215(16) 0.83298(14) 0.13291(13)
H33 H 0.8026 0.8013 0.1296
H34 H 0.7228 0.8578 0.1908
C22 C 0.52817(15) 0.80437(12) 0.12819(11)
C23 C 0.49285(17) 0.81777(14) 0.22252(12)
H35 H 0.4234 0.8513 0.2227
H36 H 0.4807 0.7539 0.2470
C24 C 0.64247(15) 0.76024(13) 0.11263(12)
H37 H 0.6462 0.7534 0.0500
C25 C 0.66290(16) 0.65504(14) 0.14623(12)
C26 C 0.67203(18) 0.64727(15) 0.24406(13)
H38 H 0.6008 0.6524 0.2692
H39 H 0.7174 0.6988 0.2653
H40 H 0.7036 0.5858 0.2591
C27 C 0.76989(19) 0.61822(16) 0.10806(16)
H41 H 0.7763 0.5497 0.1181
H42 H 0.8298 0.6513 0.1348
H43 H 0.7708 0.6306 0.0473
C28 C 0.57147(18) 0.59069(13) 0.10974(13)
H44 H 0.5818 0.5879 0.0473
C29 C 0.45818(17) 0.62756(14) 0.12529(14)
H45 H 0.4429 0.6260 0.1865
H46 H 0.4064 0.5852 0.0968
C30 C 0.44360(16) 0.73131(14) 0.09197(13)
H47 H 0.3711 0.7536 0.1069
H48 H 0.4490 0.7307 0.0297
loop_
_geom_bond_atom_site_label_1
_geom_bond_atom_site_label_2
_geom_bond_site_symmetry_1
_geom_bond_site_symmetry_2
O1 H1 1_555 1_555
O2 C1 1_555 1_555
O3 H2 1_555 1_555
O4 H3 1_555 1_555
C1 O1 1_555 1_555
C2 C1 1_555 1_555
C3 C2 1_555 1_555
H4 C3 1_555 1_555
H5 C3 1_555 1_555
C4 C3 1_555 1_555
H6 C4 1_555 1_555
H7 C4 1_555 1_555
C5 C4 1_555 1_555
C6 C5 1_555 1_555
H8 C6 1_555 1_555
H9 C6 1_555 1_555
H10 C6 1_555 1_555
C7 C5 1_555 1_555
H11 C7 1_555 1_555
H12 C7 1_555 1_555
H13 C7 1_555 1_555
C8 C5 1_555 1_555
H14 C8 1_555 1_555
H15 C8 1_555 1_555
C9 C2 1_555 1_555
H16 C9 1_555 1_555
C10 C9 1_555 1_555
C11 C10 1_555 1_555
C12 C11 1_555 1_555
H17 C12 1_555 1_555
H18 C12 1_555 1_555
C13 C2 1_555 1_555
H19 C13 1_555 1_555
H20 C13 1_555 1_555
C14 C11 1_555 1_555
H21 C14 1_555 1_555
H22 C14 1_555 1_555
H23 C14 1_555 1_555
C15 C11 1_555 1_555
C16 C15 1_555 1_555
H24 C16 1_555 1_555
H25 C16 1_555 1_555
H26 C16 1_555 1_555
C17 C15 1_555 1_555
H27 C17 1_555 1_555
C18 C17 1_555 1_555
H28 C18 1_555 1_555
H29 C18 1_555 1_555
C19 C10 1_555 1_555
H30 C19 1_555 1_555
C20 C15 1_555 1_555
H31 C20 1_555 1_555
H32 C20 1_555 1_555
C21 C20 1_555 1_555
H33 C21 1_555 1_555
H34 C21 1_555 1_555
C22 C17 1_555 1_555
C23 O3 1_555 1_555
H35 C23 1_555 1_555
H36 C23 1_555 1_555
C24 C21 1_555 1_555
H37 C24 1_555 1_555
C25 C24 1_555 1_555
C26 C25 1_555 1_555
H38 C26 1_555 1_555
H39 C26 1_555 1_555
H40 C26 1_555 1_555
C27 C25 1_555 1_555
H41 C27 1_555 1_555
H42 C27 1_555 1_555
H43 C27 1_555 1_555
C28 O4 1_555 1_555
H44 C28 1_555 1_555
C29 C28 1_555 1_555
H45 C29 1_555 1_555
H46 C29 1_555 1_555
C30 C22 1_555 1_555
H47 C30 1_555 1_555
H48 C30 1_555 1_555
C8 C9 1_555 1_555
C12 C13 1_555 1_555
C18 C19 1_555 1_555
C22 C23 1_555 1_555
C22 C24 1_555 1_555
C25 C28 1_555 1_555
C29 C30 1_555 1_555

#END
