
#######################################################################
#
#                 Cambridge Crystallographic Data Centre
#                                CCDC 
#
#######################################################################
#
# If this CIF has been generated from an entry in the Cambridge 
# Structural Database, then it will include bibliographic, chemical, 
# crystal, experimental, refinement or atomic coordinate data resulting 
# from the CCDC's data processing and validation procedures.
#
#######################################################################

data_PEXSAP
_chemical_compound_source        
'roots of Arnebia euchroma (Royle) Jonst. (Boraginaceae)'
_chemical_name_common            'arnebinone B'
_chemical_formula_moiety         'C17 H18 O4'
_chemical_name_systematic        
4-methoxy-9-methyl-15-oxatricyclo[11.2.1.0^2,7^]hexadeca-2(7),4,9,13(16)-tetraene-3,6-dione
_chemical_properties_biological  'cytotoxic activity'
_symmetry_cell_setting           orthorhombic
_symmetry_space_group_name_H-M   'P 21 21 21'
_symmetry_Int_Tables_number      19
_space_group_name_Hall           'P 2ac 2ab'
loop_
_symmetry_equiv_pos_site_id
_symmetry_equiv_pos_as_xyz
1 x,y,z
2 1/2-x,-y,1/2+z
3 1/2+x,1/2-y,-z
4 -x,1/2+y,1/2-z
_cell_length_a                   8.1753(4)
_cell_length_b                   9.7373(5)
_cell_length_c                   18.6797(8)
_cell_angle_alpha                90
_cell_angle_beta                 90
_cell_angle_gamma                90
_cell_volume                     1487
_cell_formula_units_Z            4
loop_
_atom_site_label
_atom_site_type_symbol
_atom_site_fract_x
_atom_site_fract_y
_atom_site_fract_z
C1 C -0.7295(3) -0.1583(3) -0.19817(14)
C2 C -0.5713(4) -0.0805(3) -0.20950(15)
H1 H -0.5620 -0.0113 -0.1717
C3 C -0.5572(4) -0.0109(3) -0.27827(14)
H2 H -0.6304 0.0547 -0.2951
C4 C -0.4255(4) -0.0539(3) -0.31370(15)
C5 C -0.3362(4) -0.1500(3) -0.26799(16)
H3 H -0.3212 -0.2371 -0.2923
H4 H -0.2294 -0.1132 -0.2559
C6 C -0.3939(4) -0.0394(4) -0.39145(16)
H5 H -0.2771 -0.0414 -0.4005
H6 H -0.4366 0.0476 -0.4085
C7 C -0.4784(4) -0.1591(4) -0.43108(17)
H7 H -0.4451 -0.1580 -0.4809
H8 H -0.4422 -0.2453 -0.4104
C8 C -0.6628(4) -0.1515(4) -0.42712(16)
H9 H -0.7125 -0.1040 -0.4644
C9 C -0.7639(4) -0.2021(3) -0.37883(15)
C10 C -0.7122(3) -0.2905(3) -0.31576(13)
H10 H -0.5943 -0.2849 -0.3109
H11 H -0.7395 -0.3853 -0.3263
C11 C -0.7894(3) -0.2521(3) -0.24451(14)
C12 C -0.9421(4) -0.3259(3) -0.22511(15)
C13 C -1.0303(4) -0.2905(4) -0.16188(16)
H12 H -1.1265 -0.3370 -0.1509
C14 C -0.9768(4) -0.1908(4) -0.11782(15)
C15 C -0.8198(4) -0.1234(3) -0.13261(14)
C16 C -0.9458(4) -0.1785(4) -0.38521(16)
H13 H -0.9842 -0.1301 -0.3437
H14 H -1.0009 -0.2653 -0.3887
H15 H -0.9680 -0.1250 -0.4273
C17 C -1.2122(5) -0.1999(7) -0.0438(2)
H16 H -1.2632 -0.1461 -0.0069
H17 H -1.2020 -0.2933 -0.0279
H18 H -1.2781 -0.1969 -0.0863
O1 O -0.4314(2) -0.1679(2) -0.20547(11)
O2 O -0.7671(3) -0.0363(3) -0.08994(12)
O3 O -0.9943(3) -0.4207(2) -0.26443(12)
O4 O -1.0511(3) -0.1445(3) -0.05919(11)
loop_
_geom_bond_atom_site_label_1
_geom_bond_atom_site_label_2
_geom_bond_site_symmetry_1
_geom_bond_site_symmetry_2
C1 C2 1_555 1_555
C2 H1 1_555 1_555
C3 C2 1_555 1_555
H2 C3 1_555 1_555
C4 C3 1_555 1_555
C5 C4 1_555 1_555
H3 C5 1_555 1_555
H4 C5 1_555 1_555
C6 C4 1_555 1_555
H5 C6 1_555 1_555
H6 C6 1_555 1_555
C7 C6 1_555 1_555
H7 C7 1_555 1_555
H8 C7 1_555 1_555
C8 C7 1_555 1_555
H9 C8 1_555 1_555
C9 C8 1_555 1_555
C10 C9 1_555 1_555
H10 C10 1_555 1_555
H11 C10 1_555 1_555
C11 C1 1_555 1_555
C12 C11 1_555 1_555
C13 C12 1_555 1_555
H12 C13 1_555 1_555
C14 C13 1_555 1_555
C15 C1 1_555 1_555
C16 C9 1_555 1_555
H13 C16 1_555 1_555
H14 C16 1_555 1_555
H15 C16 1_555 1_555
C17 H16 1_555 1_555
H17 C17 1_555 1_555
H18 C17 1_555 1_555
O1 C2 1_555 1_555
O2 C15 1_555 1_555
O3 C12 1_555 1_555
O4 C14 1_555 1_555
C5 O1 1_555 1_555
C10 C11 1_555 1_555
C14 C15 1_555 1_555
C17 O4 1_555 1_555

#END
