
#######################################################################
#
#                 Cambridge Crystallographic Data Centre
#                                CCDC 
#
#######################################################################
#
# If this CIF has been generated from an entry in the Cambridge 
# Structural Database, then it will include bibliographic, chemical, 
# crystal, experimental, refinement or atomic coordinate data resulting 
# from the CCDC's data processing and validation procedures.
#
#######################################################################

data_PEXVIA
_chemical_formula_moiety         'C10 H9 Br1 F1 N1 O4 S1'
_chemical_name_systematic        
'(6-bromo-2-methoxy-3-oxo-2,3-dihydro-1H-isoindol-1-yl)methanesulfonyl fluoride'
_symmetry_cell_setting           monoclinic
_symmetry_space_group_name_H-M   'P 21/n'
_symmetry_Int_Tables_number      14
_space_group_name_Hall           '-P 2yn'
loop_
_symmetry_equiv_pos_site_id
_symmetry_equiv_pos_as_xyz
1 x,y,z
2 1/2-x,1/2+y,1/2-z
3 -x,-y,-z
4 1/2+x,1/2-y,1/2+z
_cell_length_a                   8.7382(6)
_cell_length_b                   5.8569(4)
_cell_length_c                   23.8346(18)
_cell_angle_alpha                90
_cell_angle_beta                 91.1410(10)
_cell_angle_gamma                90
_cell_volume                     1219.58
_cell_formula_units_Z            4
loop_
_atom_site_label
_atom_site_type_symbol
_atom_site_fract_x
_atom_site_fract_y
_atom_site_fract_z
Br1 Br 0.90870(5) 1.32231(8) 0.04779(2)
F1 F 0.5730(5) 0.8440(5) 0.29553(12)
N1 N 0.3051(3) 0.8412(5) 0.13453(14)
O1 O 0.3187(3) 0.5201(5) 0.07939(12)
O2 O 0.1812(3) 0.7716(5) 0.16576(11)
O3 O 0.7010(4) 0.8309(7) 0.21164(17)
O4 O 0.4784(5) 0.6005(5) 0.2246(2)
S1 S 0.55278(13) 0.80470(18) 0.23424(5)
C1 C 0.3683(4) 0.7039(7) 0.09554(16)
C2 C 0.5057(4) 0.8308(6) 0.07800(15)
C3 C 0.6088(4) 0.7808(7) 0.03664(16)
H1 H 0.5976 0.6494 0.0150
C4 C 0.7281(4) 0.9281(7) 0.02800(16)
H2 H 0.7998 0.8969 0.0007
C5 C 0.7406(4) 1.1222(7) 0.06012(16)
C6 C 0.6396(4) 1.1778(6) 0.10158(15)
H3 H 0.6510 1.3101 0.1228
C7 C 0.5212(4) 1.0285(6) 0.11003(14)
C8 C 0.3923(4) 1.0412(6) 0.15151(15)
H4 H 0.3312 1.1783 0.1438
C9 C 0.4404(4) 1.0394(6) 0.21325(15)
H5 H 0.3489 1.0419 0.2356
H6 H 0.4972 1.1781 0.2214
C10 C 0.0420(5) 0.8374(8) 0.1382(2)
H7 H 0.0428 0.9992 0.1317
H8 H -0.0428 0.7988 0.1614
H9 H 0.0322 0.7587 0.1030
loop_
_geom_bond_atom_site_label_1
_geom_bond_atom_site_label_2
_geom_bond_site_symmetry_1
_geom_bond_site_symmetry_2
Br1 C5 1_555 1_555
F1 S1 1_555 1_555
N1 O2 1_555 1_555
O1 C1 1_555 1_555
O2 C10 1_555 1_555
O3 S1 1_555 1_555
O4 S1 1_555 1_555
S1 C9 1_555 1_555
C1 N1 1_555 1_555
C2 C1 1_555 1_555
C3 C2 1_555 1_555
H1 C3 1_555 1_555
C4 C3 1_555 1_555
H2 C4 1_555 1_555
C5 C4 1_555 1_555
C6 C5 1_555 1_555
H3 C6 1_555 1_555
C7 C2 1_555 1_555
C8 N1 1_555 1_555
H4 C8 1_555 1_555
C9 C8 1_555 1_555
H5 C9 1_555 1_555
H6 C9 1_555 1_555
C10 H7 1_555 1_555
H8 C10 1_555 1_555
H9 C10 1_555 1_555
C6 C7 1_555 1_555
C7 C8 1_555 1_555

#END
