
#######################################################################
#
#                 Cambridge Crystallographic Data Centre
#                                CCDC 
#
#######################################################################
#
# If this CIF has been generated from an entry in the Cambridge 
# Structural Database, then it will include bibliographic, chemical, 
# crystal, experimental, refinement or atomic coordinate data resulting 
# from the CCDC's data processing and validation procedures.
#
#######################################################################

data_PEXWIZ
_chemical_formula_moiety         'C18 H26 N2 O4 2+,2(N1 O3 1-)'
_chemical_name_systematic        
"6,6'-Dimethoxy-2,2'-(ethane-1,2-diyldiiminiodimethylene)diphenol dinitrate"
_symmetry_cell_setting           triclinic
_symmetry_space_group_name_H-M   'P -1'
_symmetry_Int_Tables_number      2
_space_group_name_Hall           '-P 1'
loop_
_symmetry_equiv_pos_site_id
_symmetry_equiv_pos_as_xyz
1 x,y,z
2 -x,-y,-z
_cell_length_a                   11.799(11)
_cell_length_b                   12.417(11)
_cell_length_c                   16.354(15)
_cell_angle_alpha                109.127(12)
_cell_angle_beta                 110.774(12)
_cell_angle_gamma                90.582(13)
_cell_volume                     2094.78
_exptl_crystal_colour            colorless
_exptl_crystal_description       block
_cell_formula_units_Z            4
_exptl_crystal_recrystallization_method methanol
loop_
_atom_site_label
_atom_site_type_symbol
_atom_site_fract_x
_atom_site_fract_y
_atom_site_fract_z
N1 N 0.5189(6) 0.7388(5) 0.5943(4)
H1 H 0.5164 0.6623 0.5811
H2 H 0.4636 0.7628 0.6201
N2 N 0.3347(6) 0.7228(5) 0.3487(4)
H3 H 0.3553 0.7983 0.3618
H4 H 0.2532 0.7053 0.3167
O1 O 0.7542(5) 0.6163(4) 0.6966(3)
H9 H 0.7921 0.5678 0.7142
O2 O 0.8547(5) 0.6042(4) 0.8649(4)
O3 O 0.5301(5) 0.8542(5) 0.3069(3)
H10 H 0.5663 0.9099 0.3055
O4 O 0.5165(6) 0.9135(5) 0.1594(4)
C1 C 0.6444(7) 0.7990(7) 0.6616(5)
H13 H 0.7032 0.7696 0.6338
H14 H 0.6475 0.8804 0.6710
C2 C 0.6817(7) 0.7858(7) 0.7529(5)
C3 C 0.7425(7) 0.6979(6) 0.7701(5)
C4 C 0.7924(7) 0.6952(6) 0.8593(5)
C5 C 0.7781(7) 0.7776(7) 0.9324(5)
H15 H 0.8114 0.7757 0.9926
C6 C 0.7107(9) 0.8660(8) 0.9138(6)
H16 H 0.6961 0.9220 0.9615
C7 C 0.6670(8) 0.8689(8) 0.8251(7)
H17 H 0.6262 0.9295 0.8141
C8 C 0.9398(9) 0.6173(7) 0.9565(6)
H18 H 0.9885 0.6918 0.9846
H19 H 0.9922 0.5587 0.9520
H20 H 0.8959 0.6100 0.9942
C9 C 0.3974(9) 0.6551(7) 0.2881(6)
H21 H 0.4841 0.6648 0.3255
H22 H 0.3657 0.5741 0.2662
C10 C 0.3822(8) 0.6883(7) 0.2067(6)
C11 C 0.4547(7) 0.7900(6) 0.2200(5)
C12 C 0.4419(8) 0.8137(7) 0.1430(5)
C13 C 0.3658(9) 0.7525(8) 0.0565(6)
H23 H 0.3603 0.7743 0.0061
C14 C 0.2975(10) 0.6579(9) 0.0452(6)
H24 H 0.2436 0.6138 -0.0148
C15 C 0.3029(8) 0.6230(7) 0.1171(6)
H25 H 0.2542 0.5565 0.1062
C16 C 0.5412(10) 0.9394(9) 0.0899(8)
H26 H 0.5559 0.8711 0.0483
H27 H 0.6123 0.9968 0.1183
H28 H 0.4723 0.9683 0.0553
C17 C 0.4885(7) 0.7646(6) 0.5067(5)
H29 H 0.5498 0.7410 0.4802
H30 H 0.4891 0.8469 0.5209
C18 C 0.3645(7) 0.7022(6) 0.4371(5)
H31 H 0.3631 0.6202 0.4250
H32 H 0.3030 0.7279 0.4629
N3 N 0.0257(5) 0.4290(4) 0.3887(4)
H5 H 0.0852 0.3940 0.4176
H6 H 0.0541 0.4601 0.3560
O5 O 0.0724(5) 0.1920(4) 0.3726(3)
H11 H 0.1156 0.1423 0.3810
O6 O 0.1111(5) 0.0074(4) 0.2509(3)
C19 C -0.0843(7) 0.3390(6) 0.3211(5)
H33 H -0.1156 0.3059 0.3563
H34 H -0.1481 0.3763 0.2892
C20 C -0.0569(7) 0.2454(5) 0.2506(5)
C21 C 0.0196(7) 0.1727(6) 0.2799(5)
C22 C 0.0374(7) 0.0765(5) 0.2142(5)
C23 C -0.0183(8) 0.0602(7) 0.1205(5)
H35 H -0.0057 -0.0022 0.0758
C24 C -0.0918(9) 0.1361(6) 0.0941(5)
H36 H -0.1315 0.1240 0.0309
C25 C -0.1085(8) 0.2298(6) 0.1589(5)
H37 H -0.1556 0.2831 0.1397
C26 C 0.1258(9) -0.0968(6) 0.1876(6)
H38 H 0.0470 -0.1415 0.1475
H39 H 0.1753 -0.1401 0.2222
H40 H 0.1651 -0.0790 0.1504
C27 C 0.0002(7) 0.5221(5) 0.4602(5)
H41 H -0.0787 0.5446 0.4323
H42 H 0.0624 0.5887 0.4859
N3A N -0.0257(5) 0.5710(4) 0.6113(4)
H5A H -0.0852 0.6060 0.5824
H6A H -0.0541 0.5399 0.6440
O5A O -0.0724(5) 0.8080(4) 0.6274(3)
H11A H -0.1156 0.8577 0.6190
O6A O -0.1111(5) 0.9926(4) 0.7491(3)
C19A C 0.0843(7) 0.6610(6) 0.6789(5)
H33A H 0.1156 0.6941 0.6437
H34A H 0.1481 0.6237 0.7108
C20A C 0.0569(7) 0.7546(5) 0.7494(5)
C21A C -0.0196(7) 0.8273(6) 0.7201(5)
C22A C -0.0374(7) 0.9235(5) 0.7858(5)
C23A C 0.0183(8) 0.9398(7) 0.8795(5)
H35A H 0.0057 1.0022 0.9242
C24A C 0.0918(9) 0.8639(6) 0.9059(5)
H36A H 0.1315 0.8760 0.9691
C25A C 0.1085(8) 0.7702(6) 0.8411(5)
H37A H 0.1556 0.7169 0.8603
C26A C -0.1258(9) 1.0968(6) 0.8124(6)
H38A H -0.0470 1.1415 0.8525
H39A H -0.1753 1.1401 0.7778
H40A H -0.1651 1.0790 0.8496
C27A C -0.0002(7) 0.4779(5) 0.5398(5)
H41A H 0.0787 0.4554 0.5677
H42A H -0.0624 0.4113 0.5141
N4 N 0.1406(5) 0.0679(5) 0.6078(4)
H7 H 0.1717 0.1069 0.5810
H8 H 0.2008 0.0338 0.6370
O7 O 0.1993(5) 0.3000(4) 0.6228(3)
H12 H 0.2306 0.3504 0.6120
O8 O 0.3653(5) 0.4862(4) 0.7399(4)
C28 C 0.1031(7) 0.1516(6) 0.6790(5)
H43 H 0.0352 0.1856 0.6476
H44 H 0.0745 0.1107 0.7110
C29 C 0.2035(7) 0.2452(6) 0.7494(5)
C30 C 0.2449(7) 0.3225(6) 0.7177(4)
C31 C 0.3305(7) 0.4161(6) 0.7787(5)
C32 C 0.3722(8) 0.4352(6) 0.8719(5)
H45 H 0.4281 0.5001 0.9145
C33 C 0.3304(9) 0.3563(7) 0.9031(5)
H46 H 0.3601 0.3681 0.9667
C34 C 0.2479(8) 0.2642(6) 0.8423(6)
H47 H 0.2207 0.2126 0.8640
C35 C 0.4429(9) 0.5900(6) 0.7973(6)
H48 H 0.4196 0.6265 0.8494
H49 H 0.4365 0.6398 0.7621
H50 H 0.5259 0.5750 0.8198
C36 C 0.0406(7) -0.0229(6) 0.5330(5)
H51 H 0.0755 -0.0851 0.5005
H52 H -0.0056 -0.0540 0.5609
N4A N -0.1406(5) -0.0679(5) 0.3922(4)
H7A H -0.1717 -0.1069 0.4190
H8A H -0.2008 -0.0338 0.3630
O7A O -0.1993(5) -0.3000(4) 0.3772(3)
H12A H -0.2306 -0.3504 0.3880
O8A O -0.3653(5) -0.4862(4) 0.2601(4)
C28A C -0.1031(7) -0.1516(6) 0.3210(5)
H43A H -0.0352 -0.1856 0.3524
H44A H -0.0745 -0.1107 0.2890
C29A C -0.2035(7) -0.2452(6) 0.2506(5)
C30A C -0.2449(7) -0.3225(6) 0.2823(4)
C31A C -0.3305(7) -0.4161(6) 0.2213(5)
C32A C -0.3722(8) -0.4352(6) 0.1281(5)
H45A H -0.4281 -0.5001 0.0855
C33A C -0.3304(9) -0.3563(7) 0.0969(5)
H46A H -0.3601 -0.3681 0.0333
C34A C -0.2479(8) -0.2642(6) 0.1577(6)
H47A H -0.2207 -0.2126 0.1360
C35A C -0.4429(9) -0.5900(6) 0.2027(6)
H48A H -0.4196 -0.6265 0.1506
H49A H -0.4365 -0.6398 0.2379
H50A H -0.5259 -0.5750 0.1802
C36A C -0.0406(7) 0.0229(6) 0.4670(5)
H51A H -0.0755 0.0851 0.4995
H52A H 0.0056 0.0540 0.4391
N5 N 0.3349(8) 0.4903(6) 0.5464(4)
O9 O 0.4475(6) 0.4982(5) 0.5700(5)
O10 O 0.2844(6) 0.5760(6) 0.5482(5)
O11 O 0.2713(5) 0.3932(5) 0.5171(4)
N6 N 0.0356(8) 0.5768(6) 0.2387(5)
O12 O 0.1162(6) 0.5673(5) 0.3113(4)
O13 O 0.0671(7) 0.6451(6) 0.2085(5)
O14 O -0.0631(7) 0.5209(6) 0.2025(5)
N7 N 0.6806(8) 0.1149(8) 0.3150(6)
O15 O 0.6318(7) 0.1918(6) 0.2922(6)
O16 O 0.7665(7) 0.0797(6) 0.2917(6)
O17 O 0.6487(7) 0.0780(6) 0.3672(5)
N8 N 0.2673(7) 0.9825(6) 0.4298(5)
O18 O 0.2456(5) 1.0842(4) 0.4670(4)
O19 O 0.3568(6) 0.9693(5) 0.4077(4)
O20 O 0.1970(6) 0.8976(6) 0.4135(5)
loop_
_geom_bond_atom_site_label_1
_geom_bond_atom_site_label_2
_geom_bond_site_symmetry_1
_geom_bond_site_symmetry_2
N1 H1 1_555 1_555
H2 N1 1_555 1_555
N2 H3 1_555 1_555
H4 N2 1_555 1_555
N3 H5 1_555 1_555
H6 N3 1_555 1_555
N4 H7 1_555 1_555
H8 N4 1_555 1_555
N5 O9 1_555 1_555
N6 O12 1_555 1_555
N7 O15 1_555 1_555
N8 O18 1_555 1_555
O1 H9 1_555 1_555
O2 C4 1_555 1_555
O3 H10 1_555 1_555
O4 C12 1_555 1_555
O5 H11 1_555 1_555
O6 C22 1_555 1_555
O7 H12 1_555 1_555
O8 C31 1_555 1_555
O10 N5 1_555 1_555
O11 N5 1_555 1_555
O13 N6 1_555 1_555
O14 N6 1_555 1_555
O16 N7 1_555 1_555
O17 N7 1_555 1_555
O19 N8 1_555 1_555
O20 N8 1_555 1_555
C1 N1 1_555 1_555
H13 C1 1_555 1_555
H14 C1 1_555 1_555
C2 C1 1_555 1_555
C3 O1 1_555 1_555
C4 C3 1_555 1_555
C5 C4 1_555 1_555
H15 C5 1_555 1_555
C6 C5 1_555 1_555
H16 C6 1_555 1_555
C7 C2 1_555 1_555
H17 C7 1_555 1_555
C8 O2 1_555 1_555
H18 C8 1_555 1_555
H19 C8 1_555 1_555
H20 C8 1_555 1_555
C9 N2 1_555 1_555
H21 C9 1_555 1_555
H22 C9 1_555 1_555
C10 C9 1_555 1_555
C11 O3 1_555 1_555
C12 C11 1_555 1_555
C13 C12 1_555 1_555
H23 C13 1_555 1_555
C14 C13 1_555 1_555
H24 C14 1_555 1_555
C15 C10 1_555 1_555
H25 C15 1_555 1_555
C16 O4 1_555 1_555
H26 C16 1_555 1_555
H27 C16 1_555 1_555
H28 C16 1_555 1_555
C17 N1 1_555 1_555
H29 C17 1_555 1_555
H30 C17 1_555 1_555
C18 N2 1_555 1_555
H31 C18 1_555 1_555
H32 C18 1_555 1_555
C19 N3 1_555 1_555
H33 C19 1_555 1_555
H34 C19 1_555 1_555
C20 C19 1_555 1_555
C21 O5 1_555 1_555
C22 C21 1_555 1_555
C23 C22 1_555 1_555
H35 C23 1_555 1_555
C24 C23 1_555 1_555
H36 C24 1_555 1_555
C25 C20 1_555 1_555
H37 C25 1_555 1_555
C26 O6 1_555 1_555
H38 C26 1_555 1_555
H39 C26 1_555 1_555
H40 C26 1_555 1_555
C27 N3 1_555 1_555
H41 C27 1_555 1_555
H42 C27 1_555 1_555
C28 N4 1_555 1_555
H43 C28 1_555 1_555
H44 C28 1_555 1_555
C29 C28 1_555 1_555
C30 O7 1_555 1_555
C31 C30 1_555 1_555
C32 C31 1_555 1_555
H45 C32 1_555 1_555
C33 C32 1_555 1_555
H46 C33 1_555 1_555
C34 C29 1_555 1_555
H47 C34 1_555 1_555
C35 O8 1_555 1_555
H48 C35 1_555 1_555
H49 C35 1_555 1_555
H50 C35 1_555 1_555
C36 N4 1_555 1_555
H51 C36 1_555 1_555
H52 C36 1_555 1_555
N3A H5A 1_555 1_555
H6A N3A 1_555 1_555
N4A H7A 1_555 1_555
H8A N4A 1_555 1_555
O5A H11A 1_555 1_555
O6A C22A 1_555 1_555
O7A H12A 1_555 1_555
O8A C31A 1_555 1_555
C19A N3A 1_555 1_555
H33A C19A 1_555 1_555
H34A C19A 1_555 1_555
C20A C19A 1_555 1_555
C21A O5A 1_555 1_555
C22A C21A 1_555 1_555
C23A C22A 1_555 1_555
H35A C23A 1_555 1_555
C24A C23A 1_555 1_555
H36A C24A 1_555 1_555
C25A C20A 1_555 1_555
H37A C25A 1_555 1_555
C26A O6A 1_555 1_555
H38A C26A 1_555 1_555
H39A C26A 1_555 1_555
H40A C26A 1_555 1_555
C27A C27 1_555 1_555
H41A C27A 1_555 1_555
H42A C27A 1_555 1_555
C28A N4A 1_555 1_555
H43A C28A 1_555 1_555
H44A C28A 1_555 1_555
C29A C28A 1_555 1_555
C30A O7A 1_555 1_555
C31A C30A 1_555 1_555
C32A C31A 1_555 1_555
H45A C32A 1_555 1_555
C33A C32A 1_555 1_555
H46A C33A 1_555 1_555
C34A C29A 1_555 1_555
H47A C34A 1_555 1_555
C35A O8A 1_555 1_555
H48A C35A 1_555 1_555
H49A C35A 1_555 1_555
H50A C35A 1_555 1_555
C36A C36 1_555 1_555
H51A C36A 1_555 1_555
H52A C36A 1_555 1_555
C2 C3 1_555 1_555
C6 C7 1_555 1_555
C10 C11 1_555 1_555
C14 C15 1_555 1_555
C17 C18 1_555 1_555
C20 C21 1_555 1_555
C24 C25 1_555 1_555
C29 C30 1_555 1_555
C33 C34 1_555 1_555
N3A C27A 1_555 1_555
N4A C36A 1_555 1_555
C20A C21A 1_555 1_555
C24A C25A 1_555 1_555
C29A C30A 1_555 1_555
C33A C34A 1_555 1_555

#END
