
#######################################################################
#
#                 Cambridge Crystallographic Data Centre
#                                CCDC 
#
#######################################################################
#
# If this CIF has been generated from an entry in the Cambridge 
# Structural Database, then it will include bibliographic, chemical, 
# crystal, experimental, refinement or atomic coordinate data resulting 
# from the CCDC's data processing and validation procedures.
#
#######################################################################

data_PEXXUM
_chemical_formula_moiety         'C15 H14 N4 O3'
_chemical_name_systematic        
2-(1-(4,6-Dimethoxypyrimidin-2-yl)-1H-pyrazol-3-yl)phenol
_symmetry_cell_setting           monoclinic
_symmetry_space_group_name_H-M   'P 21/c'
_symmetry_Int_Tables_number      14
_space_group_name_Hall           '-P 2ybc'
loop_
_symmetry_equiv_pos_site_id
_symmetry_equiv_pos_as_xyz
1 x,y,z
2 -x,1/2+y,1/2-z
3 -x,-y,-z
4 x,1/2-y,1/2+z
_cell_length_a                   8.1971(9)
_cell_length_b                   11.1416(12)
_cell_length_c                   16.0917(17)
_cell_angle_alpha                90
_cell_angle_beta                 98.538(2)
_cell_angle_gamma                90
_cell_volume                     1453.35
_exptl_crystal_colour            colorless
_exptl_crystal_description       block
_cell_formula_units_Z            4
_exptl_crystal_recrystallization_method ethanol
loop_
_atom_site_label
_atom_site_type_symbol
_atom_site_fract_x
_atom_site_fract_y
_atom_site_fract_z
C1 C 0.83483(16) 1.00477(12) 0.20485(9)
C2 C 0.8679(2) 1.00802(14) 0.12309(9)
H1 H 0.8219 0.9505 0.0847
C3 C 0.9684(2) 1.09584(15) 0.09804(10)
H2 H 0.9895 1.0972 0.0428
C4 C 1.0379(2) 1.18145(15) 0.15383(10)
H3 H 1.1060 1.2404 0.1367
C5 C 1.00556(18) 1.17887(13) 0.23538(9)
H4 H 1.0524 1.2370 0.2730
C6 C 0.90436(15) 1.09137(11) 0.26308(8)
C7 C 0.87191(15) 1.09078(11) 0.35027(8)
C8 C 0.91157(19) 1.17756(13) 0.41369(9)
H5 H 0.9662 1.2500 0.4094
C9 C 0.85406(19) 1.13403(13) 0.48200(9)
H6 H 0.8615 1.1710 0.5342
C10 C 0.70677(15) 0.94864(12) 0.51187(8)
C11 C 0.62651(17) 0.91921(15) 0.63674(9)
C12 C 0.56543(19) 0.80805(15) 0.61089(10)
H7 H 0.5160 0.7578 0.6460
C13 C 0.58179(16) 0.77577(14) 0.53024(10)
C14 C 0.5368(3) 0.63359(18) 0.41830(12)
H8 H 0.4711 0.6865 0.3798
H9 H 0.4984 0.5527 0.4087
H10 H 0.6501 0.6387 0.4098
C15 C 0.6806(3) 1.06875(18) 0.74267(12)
H11 H 0.7960 1.0701 0.7382
H12 H 0.6662 1.0816 0.8001
H13 H 0.6250 1.1310 0.7082
N1 N 0.79398(14) 0.99908(10) 0.37895(7)
N2 N 0.78345(13) 1.02624(10) 0.46026(7)
N3 N 0.65384(13) 0.84499(10) 0.47836(7)
N4 N 0.69900(14) 0.99199(11) 0.58764(7)
O1 O 0.73365(14) 0.91672(9) 0.22533(7)
H14 H 0.731(3) 0.9221(18) 0.2823(13)
O2 O 0.52302(15) 0.66788(10) 0.50283(8)
O3 O 0.61234(14) 0.95427(12) 0.71498(7)
loop_
_geom_bond_atom_site_label_1
_geom_bond_atom_site_label_2
_geom_bond_site_symmetry_1
_geom_bond_site_symmetry_2
C1 C2 1_555 1_555
C2 H1 1_555 1_555
C3 C2 1_555 1_555
H2 C3 1_555 1_555
C4 C3 1_555 1_555
H3 C4 1_555 1_555
C5 C4 1_555 1_555
H4 C5 1_555 1_555
C6 C1 1_555 1_555
C7 C6 1_555 1_555
C8 C7 1_555 1_555
H5 C8 1_555 1_555
C9 C8 1_555 1_555
H6 C9 1_555 1_555
C10 N2 1_555 1_555
C11 C12 1_555 1_555
C12 H7 1_555 1_555
C13 C12 1_555 1_555
C14 H8 1_555 1_555
H9 C14 1_555 1_555
H10 C14 1_555 1_555
C15 H11 1_555 1_555
H12 C15 1_555 1_555
H13 C15 1_555 1_555
N1 C7 1_555 1_555
N2 C9 1_555 1_555
N3 C10 1_555 1_555
N4 C10 1_555 1_555
O1 C1 1_555 1_555
H14 O1 1_555 1_555
O2 C13 1_555 1_555
O3 C11 1_555 1_555
C5 C6 1_555 1_555
C11 N4 1_555 1_555
C13 N3 1_555 1_555
C14 O2 1_555 1_555
C15 O3 1_555 1_555
N1 N2 1_555 1_555

#END
