
#######################################################################
#
#                 Cambridge Crystallographic Data Centre
#                                CCDC 
#
#######################################################################
#
# If this CIF has been generated from an entry in the Cambridge 
# Structural Database, then it will include bibliographic, chemical, 
# crystal, experimental, refinement or atomic coordinate data resulting 
# from the CCDC's data processing and validation procedures.
#
#######################################################################

data_PEXXUO
_chemical_formula_moiety         'C28 H24 N1 O3 P1 S1'
_chemical_name_systematic        
2-[(diphenylphosphoryl)methyl]-1-[(4-methylphenyl)sulfonyl]-1H-indole
_symmetry_cell_setting           monoclinic
_symmetry_space_group_name_H-M   'P 21/c'
_symmetry_Int_Tables_number      14
_space_group_name_Hall           '-P 2ybc'
loop_
_symmetry_equiv_pos_site_id
_symmetry_equiv_pos_as_xyz
1 x,y,z
2 -x,1/2+y,1/2-z
3 -x,-y,-z
4 x,1/2-y,1/2+z
_cell_length_a                   17.966(4)
_cell_length_b                   13.056(3)
_cell_length_c                   11.101(3)
_cell_angle_alpha                90
_cell_angle_beta                 106.658(4)
_cell_angle_gamma                90
_cell_volume                     2494.62
_exptl_crystal_colour            colorless
_exptl_crystal_description       'rectangular prism'
_cell_formula_units_Z            4
loop_
_atom_site_label
_atom_site_type_symbol
_atom_site_fract_x
_atom_site_fract_y
_atom_site_fract_z
C1 C 0.26513(12) 0.62197(18) 0.6268(2)
C2 C 0.24103(14) 0.5366(2) 0.5614(3)
H1 H 0.212732 0.534240 0.476949
C3 C 0.26516(15) 0.4499(2) 0.6402(3)
C4 C 0.30473(14) 0.4864(2) 0.7588(3)
C5 C 0.33368(18) 0.4216(2) 0.8602(4)
H2 H 0.359902 0.447179 0.939192
C6 C 0.3224(2) 0.3191(3) 0.8402(5)
H3 H 0.339776 0.273933 0.907175
C7 C 0.2855(2) 0.2809(3) 0.7217(5)
H4 H 0.280697 0.210388 0.709851
C8 C 0.2557(2) 0.3450(2) 0.6212(4)
H5 H 0.229903 0.318732 0.542424
C9 C 0.45564(13) 0.62144(18) 0.7689(2)
C10 C 0.46483(15) 0.6736(2) 0.6661(3)
H6 H 0.433995 0.730287 0.634895
C11 C 0.51922(18) 0.6418(2) 0.6103(3)
H7 H 0.524496 0.676813 0.540234
C12 C 0.56640(16) 0.5593(2) 0.6551(3)
C13 C 0.55637(18) 0.5083(2) 0.7567(3)
H8 H 0.587705 0.452127 0.788266
C14 C 0.50108(17) 0.5380(2) 0.8134(3)
H9 H 0.494666 0.501405 0.881634
C15 C 0.6275(2) 0.5261(2) 0.5961(4)
H10 H 0.620673 0.561920 0.518177
H11 H 0.623195 0.453737 0.580490
H12 H 0.677925 0.541383 0.651884
C16 C 0.24486(13) 0.72872(17) 0.5840(2)
H13 H 0.229150 0.730977 0.492868
H14 H 0.290143 0.772217 0.614508
C17 C 0.08069(13) 0.70668(17) 0.5597(2)
C18 C 0.03457(17) 0.66339(19) 0.6265(3)
H15 H 0.050105 0.666133 0.713894
C19 C -0.03437(18) 0.6162(2) 0.5643(3)
H16 H -0.065649 0.588283 0.609763
C20 C -0.05664(17) 0.6103(2) 0.4369(4)
H17 H -0.103118 0.578170 0.395337
C21 C -0.01170(17) 0.6508(2) 0.3700(3)
H18 H -0.027186 0.646208 0.282756
C22 C 0.05705(15) 0.6989(2) 0.4310(3)
H19 H 0.087787 0.726371 0.384417
C23 C 0.15023(14) 0.90574(17) 0.5846(2)
C24 C 0.16801(18) 0.9409(2) 0.4795(3)
H20 H 0.191131 0.897111 0.434752
C25 C 0.1519(2) 1.0404(2) 0.4401(3)
H21 H 0.164693 1.063709 0.369469
C26 C 0.1174(2) 1.1044(2) 0.5036(4)
H22 H 0.106369 1.171547 0.476333
C27 C 0.0991(3) 1.0706(3) 0.6070(4)
H23 H 0.075481 1.114713 0.650687
C28 C 0.1153(2) 0.9707(2) 0.6478(3)
H24 H 0.102312 0.947865 0.718511
N1 N 0.30501(11) 0.59488(14) 0.75283(19)
O1 O 0.40071(11) 0.61971(15) 0.96086(17)
O2 O 0.36814(10) 0.76461(12) 0.81454(17)
O3 O 0.18097(10) 0.76930(14) 0.77896(15)
S1 S 0.38354(4) 0.65882(5) 0.83641(6)
P1 P 0.16674(4) 0.77628(5) 0.64144(6)
loop_
_geom_bond_atom_site_label_1
_geom_bond_atom_site_label_2
_geom_bond_site_symmetry_1
_geom_bond_site_symmetry_2
C1 C2 1_555 1_555
C2 H1 1_555 1_555
C3 C2 1_555 1_555
C4 C3 1_555 1_555
C5 C4 1_555 1_555
H2 C5 1_555 1_555
C6 C5 1_555 1_555
H3 C6 1_555 1_555
C7 C6 1_555 1_555
H4 C7 1_555 1_555
C8 C3 1_555 1_555
H5 C8 1_555 1_555
C9 C10 1_555 1_555
C10 H6 1_555 1_555
C11 C10 1_555 1_555
H7 C11 1_555 1_555
C12 C11 1_555 1_555
C13 C12 1_555 1_555
H8 C13 1_555 1_555
C14 C9 1_555 1_555
H9 C14 1_555 1_555
C15 C12 1_555 1_555
H10 C15 1_555 1_555
H11 C15 1_555 1_555
H12 C15 1_555 1_555
C16 C1 1_555 1_555
H13 C16 1_555 1_555
H14 C16 1_555 1_555
C17 C18 1_555 1_555
C18 H15 1_555 1_555
C19 C18 1_555 1_555
H16 C19 1_555 1_555
C20 C19 1_555 1_555
H17 C20 1_555 1_555
C21 C20 1_555 1_555
H18 C21 1_555 1_555
C22 C17 1_555 1_555
H19 C22 1_555 1_555
C23 C24 1_555 1_555
C24 H20 1_555 1_555
C25 C24 1_555 1_555
H21 C25 1_555 1_555
C26 C25 1_555 1_555
H22 C26 1_555 1_555
C27 C26 1_555 1_555
H23 C27 1_555 1_555
C28 C23 1_555 1_555
H24 C28 1_555 1_555
N1 C1 1_555 1_555
O1 S1 1_555 1_555
O2 S1 1_555 1_555
O3 P1 1_555 1_555
S1 C9 1_555 1_555
P1 C16 1_555 1_555
C4 N1 1_555 1_555
C7 C8 1_555 1_555
C13 C14 1_555 1_555
C17 P1 1_555 1_555
C21 C22 1_555 1_555
C23 P1 1_555 1_555
C27 C28 1_555 1_555
N1 S1 1_555 1_555

#END
