
#######################################################################
#
#                 Cambridge Crystallographic Data Centre
#                                CCDC 
#
#######################################################################
#
# If this CIF has been generated from an entry in the Cambridge 
# Structural Database, then it will include bibliographic, chemical, 
# crystal, experimental, refinement or atomic coordinate data resulting 
# from the CCDC's data processing and validation procedures.
#
#######################################################################

data_PEXYAV
_chemical_formula_moiety         'C15 H18 N6 O1 2+,2(F6 P1 1-)'
_chemical_name_systematic        
"4,4'-{carbonylbis[(hydrazin-2-yl-1-ylidene)methylylidene]}bis(1-methylpyridin-1-ium) dihexafluorophosphate"
_symmetry_cell_setting           monoclinic
_symmetry_space_group_name_H-M   'P 21/c'
_symmetry_Int_Tables_number      14
_space_group_name_Hall           '-P 2ybc'
loop_
_symmetry_equiv_pos_site_id
_symmetry_equiv_pos_as_xyz
1 x,y,z
2 -x,1/2+y,1/2-z
3 -x,-y,-z
4 x,1/2-y,1/2+z
_cell_length_a                   6.1886(6)
_cell_length_b                   14.4194(15)
_cell_length_c                   25.629(3)
_cell_angle_alpha                90
_cell_angle_beta                 93.506(10)
_cell_angle_gamma                90
_cell_volume                     2282.75
_exptl_crystal_colour            yellow
_exptl_crystal_description       needle
_cell_formula_units_Z            4
loop_
_atom_site_label
_atom_site_type_symbol
_atom_site_fract_x
_atom_site_fract_y
_atom_site_fract_z
P1 P 0.1001(2) 0.29953(11) 0.31440(6)
F1 F 0.1179(9) 0.3960(3) 0.3379(3)
F2 F 0.1617(9) 0.2550(4) 0.37000(18)
F3 F 0.3578(7) 0.2994(4) 0.3087(2)
F4 F 0.0492(16) 0.3322(4) 0.2590(3)
F5 F -0.1415(8) 0.2901(5) 0.3212(3)
F6 F 0.0988(7) 0.1956(3) 0.2892(2)
P2 P -0.2975(3) 0.44502(11) 0.10962(6)
F7 F -0.1266(10) 0.3736(4) 0.1292(4)
F8 F -0.1064(8) 0.5072(4) 0.0934(2)
F9 F -0.2898(13) 0.4917(6) 0.1627(3)
F10 F -0.4911(8) 0.3815(4) 0.1257(2)
F11 F -0.3044(12) 0.3957(7) 0.0574(3)
F12 F -0.4652(9) 0.5150(4) 0.0892(3)
O1 O 0.5269(6) 0.6627(3) 0.44207(17)
N1 N -0.6026(7) 0.5606(3) 0.24911(18)
N2 N 0.0467(7) 0.6231(3) 0.36793(16)
N3 N 0.2057(7) 0.6677(3) 0.39653(18)
H1 H 0.196030 0.726591 0.401142
N4 N 0.3767(7) 0.5277(3) 0.41078(17)
H2 H 0.269182 0.501673 0.393715
N5 N 0.5472(7) 0.4768(3) 0.43112(17)
N6 N 1.0271(7) 0.2130(3) 0.48469(17)
C1 C -0.4518(9) 0.6860(4) 0.2968(2)
H3 H -0.458239 0.748219 0.306172
C2 C -0.6083(9) 0.6491(4) 0.2631(2)
H4 H -0.720596 0.686616 0.249675
C3 C -0.4461(9) 0.5051(4) 0.2699(2)
H5 H -0.446440 0.442526 0.261084
C4 C -0.2886(9) 0.5385(4) 0.3032(2)
H6 H -0.181161 0.499043 0.317186
C5 C -0.2858(8) 0.6318(3) 0.31692(19)
C6 C -0.1105(8) 0.6720(4) 0.3499(2)
H7 H -0.113978 0.734828 0.357947
C7 C 0.3822(8) 0.6209(4) 0.4183(2)
C8 C 0.5372(9) 0.3903(4) 0.4224(2)
H8 H 0.420274 0.365492 0.402600
C9 C 0.7115(8) 0.3295(4) 0.44380(19)
C10 C 0.6967(9) 0.2352(4) 0.4360(2)
H9 H 0.578760 0.210733 0.416381
C11 C 0.8561(9) 0.1767(4) 0.4571(2)
H10 H 0.845072 0.112972 0.452160
C12 C 1.0462(9) 0.3048(4) 0.4919(2)
H11 H 1.165621 0.328365 0.511413
C13 C 0.8931(9) 0.3637(4) 0.4711(2)
H12 H 0.910719 0.427357 0.475326
C14 C -0.7731(10) 0.5235(5) 0.2116(3)
H13 H -0.719917 0.522039 0.177178
H14 H -0.898665 0.562625 0.211472
H15 H -0.811073 0.461855 0.221792
C15 C 1.1961(10) 0.1496(5) 0.5081(3)
H16 H 1.130026 0.104779 0.529771
H17 H 1.301183 0.184812 0.528788
H18 H 1.266020 0.118174 0.480686
loop_
_geom_bond_atom_site_label_1
_geom_bond_atom_site_label_2
_geom_bond_site_symmetry_1
_geom_bond_site_symmetry_2
P1 F1 1_555 1_555
F2 P1 1_555 1_555
F3 P1 1_555 1_555
F4 P1 1_555 1_555
F5 P1 1_555 1_555
F6 P1 1_555 1_555
P2 F7 1_555 1_555
F8 P2 1_555 1_555
F9 P2 1_555 1_555
F10 P2 1_555 1_555
F11 P2 1_555 1_555
F12 P2 1_555 1_555
O1 C7 1_555 1_555
N1 C2 1_555 1_555
N2 N3 1_555 1_555
N3 H1 1_555 1_555
N4 H2 1_555 1_555
N5 N4 1_555 1_555
N6 C11 1_555 1_555
C1 H3 1_555 1_555
C2 C1 1_555 1_555
H4 C2 1_555 1_555
C3 N1 1_555 1_555
H5 C3 1_555 1_555
C4 C3 1_555 1_555
H6 C4 1_555 1_555
C5 C1 1_555 1_555
C6 N2 1_555 1_555
H7 C6 1_555 1_555
C7 N3 1_555 1_555
C8 N5 1_555 1_555
H8 C8 1_555 1_555
C9 C8 1_555 1_555
C10 C9 1_555 1_555
H9 C10 1_555 1_555
C11 C10 1_555 1_555
H10 C11 1_555 1_555
C12 N6 1_555 1_555
H11 C12 1_555 1_555
C13 C9 1_555 1_555
H12 C13 1_555 1_555
C14 N1 1_555 1_555
H13 C14 1_555 1_555
H14 C14 1_555 1_555
H15 C14 1_555 1_555
C15 N6 1_555 1_555
H16 C15 1_555 1_555
H17 C15 1_555 1_555
H18 C15 1_555 1_555
N4 C7 1_555 1_555
C4 C5 1_555 1_555
C5 C6 1_555 1_555
C12 C13 1_555 1_555

#END
