
#######################################################################
#
#                 Cambridge Crystallographic Data Centre
#                                CCDC 
#
#######################################################################
#
# If this CIF has been generated from an entry in the Cambridge 
# Structural Database, then it will include bibliographic, chemical, 
# crystal, experimental, refinement or atomic coordinate data resulting 
# from the CCDC's data processing and validation procedures.
#
#######################################################################

data_PEXYAU
_chemical_formula_moiety         'C6 F2 I4'
_chemical_name_systematic        1,3-Difluoro-2,4,5,6-tetraiodobenzene
_symmetry_cell_setting           monoclinic
_symmetry_space_group_name_H-M   'P 21'
_symmetry_Int_Tables_number      4
_space_group_name_Hall           'P 2yb'
loop_
_symmetry_equiv_pos_site_id
_symmetry_equiv_pos_as_xyz
1 x,y,z
2 -x,1/2+y,-z
_cell_length_a                   8.9948(8)
_cell_length_b                   4.3318(3)
_cell_length_c                   13.7958(12)
_cell_angle_alpha                90
_cell_angle_beta                 101.428(7)
_cell_angle_gamma                90
_cell_volume                     526.878
_exptl_crystal_colour            colorless
_exptl_crystal_description       needle
_cell_formula_units_Z            2
loop_
_atom_site_label
_atom_site_type_symbol
_atom_site_fract_x
_atom_site_fract_y
_atom_site_fract_z
C1 C 0.9187(11) 0.718(2) 0.7513(8)
C2 C 0.8035(12) 0.554(3) 0.6878(7)
C3 C 0.6629(11) 0.515(3) 0.7141(7)
C4 C 0.6381(12) 0.630(3) 0.8025(8)
C5 C 0.7487(11) 0.801(3) 0.8649(8)
C6 C 0.8840(13) 0.837(3) 0.8368(8)
F1 F 0.5028(7) 0.5971(18) 0.8273(5)
F2 F 0.9922(7) 1.0097(19) 0.8972(5)
I1 I 1.13677(7) 0.78270(19) 0.72634(5)
I2 I 0.84069(7) 0.38848(19) 0.55243(5)
I3 I 0.47999(7) 0.28025(17) 0.62599(5)
I4 I 0.70598(9) 0.9879(2) 0.99588(5)
loop_
_geom_bond_atom_site_label_1
_geom_bond_atom_site_label_2
_geom_bond_site_symmetry_1
_geom_bond_site_symmetry_2
C1 C2 1_555 1_555
C2 C3 1_555 1_555
C3 C4 1_555 1_555
C4 C5 1_555 1_555
C5 C6 1_555 1_555
C6 C1 1_555 1_555
F1 C4 1_555 1_555
F2 C6 1_555 1_555
I1 C1 1_555 1_555
I2 C2 1_555 1_555
I3 C3 1_555 1_555
I4 C5 1_555 1_555

#END
