
#######################################################################
#
#                 Cambridge Crystallographic Data Centre
#                                CCDC 
#
#######################################################################
#
# If this CIF has been generated from an entry in the Cambridge 
# Structural Database, then it will include bibliographic, chemical, 
# crystal, experimental, refinement or atomic coordinate data resulting 
# from the CCDC's data processing and validation procedures.
#
#######################################################################

data_PEXZIC
_chemical_formula_moiety         'C17 H13 Br2 N1 O3'
_chemical_name_systematic        
2-(2,3-bis(Bromomethyl)-4-methoxyphenyl)-2,3-dihydro-1H-isoindole-1,3-dione
_symmetry_cell_setting           triclinic
_symmetry_space_group_name_H-M   'P -1'
_symmetry_Int_Tables_number      2
_space_group_name_Hall           '-P 1'
loop_
_symmetry_equiv_pos_site_id
_symmetry_equiv_pos_as_xyz
1 x,y,z
2 -x,-y,-z
_cell_length_a                   8.7439(11)
_cell_length_b                   8.7491(12)
_cell_length_c                   11.0206(15)
_cell_angle_alpha                83.426(2)
_cell_angle_beta                 86.704(2)
_cell_angle_gamma                80.736(2)
_cell_volume                     825.966
_exptl_crystal_colour            colorless
_exptl_crystal_description       block
_cell_formula_units_Z            2
_exptl_crystal_recrystallization_method dichloromethane
loop_
_atom_site_label
_atom_site_type_symbol
_atom_site_fract_x
_atom_site_fract_y
_atom_site_fract_z
Br1 Br 1.00614(4) 0.52729(5) 0.26155(4)
Br2 Br 0.89205(5) 0.18200(4) 0.49864(4)
C1 C 0.3425(5) 0.1412(5) 0.4182(4)
H1 H 0.2509 0.2176 0.4080
H2 H 0.3243 0.0631 0.4837
H3 H 0.3675 0.0933 0.3439
C2 C 0.5120(4) 0.3310(4) 0.3669(3)
C3 C 0.4427(4) 0.3852(4) 0.2571(3)
H4 H 0.3630 0.3389 0.2321
C4 C 0.4929(4) 0.5081(4) 0.1852(3)
H5 H 0.4452 0.5461 0.1122
C5 C 0.6138(4) 0.5760(4) 0.2202(3)
C6 C 0.6874(4) 0.5210(4) 0.3299(3)
C7 C 0.6343(4) 0.3983(4) 0.4045(3)
C8 C 0.8217(4) 0.5909(4) 0.3636(3)
H6 H 0.8434 0.5582 0.4488
H7 H 0.7957 0.7035 0.3536
C9 C 0.7055(4) 0.3329(4) 0.5235(3)
H8 H 0.6307 0.2826 0.5756
H9 H 0.7317 0.4169 0.5645
N1 N 0.6633(4) 0.7028(3) 0.1428(3)
C10 C 0.6340(5) 0.8583(4) 0.1695(4)
C11 C 0.7085(5) 0.9473(4) 0.0669(4)
C12 C 0.7219(5) 1.1034(5) 0.0492(5)
H10 H 0.6791 1.1706 0.1061
C13 C 0.8001(6) 1.1565(6) -0.0544(6)
H11 H 0.8096 1.2615 -0.0682
C14 C 0.8652(7) 1.0569(6) -0.1386(5)
H12 H 0.9179 1.0958 -0.2081
C15 C 0.8530(6) 0.8971(6) -0.1209(4)
H13 H 0.8968 0.8288 -0.1767
C16 C 0.7725(5) 0.8476(4) -0.0165(3)
C17 C 0.7417(4) 0.6886(4) 0.0294(3)
O1 O 0.4677(3) 0.2143(3) 0.4460(2)
O2 O 0.5671(4) 0.9021(3) 0.2597(3)
O3 O 0.7720(3) 0.5687(3) -0.0177(2)
loop_
_geom_bond_atom_site_label_1
_geom_bond_atom_site_label_2
_geom_bond_site_symmetry_1
_geom_bond_site_symmetry_2
Br1 C8 1_555 1_555
Br2 C9 1_555 1_555
C1 H1 1_555 1_555
H2 C1 1_555 1_555
H3 C1 1_555 1_555
C2 C3 1_555 1_555
C3 H4 1_555 1_555
C4 C3 1_555 1_555
H5 C4 1_555 1_555
C5 C4 1_555 1_555
C6 C5 1_555 1_555
C7 C2 1_555 1_555
C8 C6 1_555 1_555
H6 C8 1_555 1_555
H7 C8 1_555 1_555
C9 C7 1_555 1_555
H8 C9 1_555 1_555
H9 C9 1_555 1_555
N1 C5 1_555 1_555
C10 N1 1_555 1_555
C11 C10 1_555 1_555
C12 C11 1_555 1_555
H10 C12 1_555 1_555
C13 C12 1_555 1_555
H11 C13 1_555 1_555
C14 C13 1_555 1_555
H12 C14 1_555 1_555
C15 C14 1_555 1_555
H13 C15 1_555 1_555
C16 C11 1_555 1_555
C17 N1 1_555 1_555
O1 C1 1_555 1_555
O2 C10 1_555 1_555
O3 C17 1_555 1_555
C2 O1 1_555 1_555
C6 C7 1_555 1_555
C15 C16 1_555 1_555
C16 C17 1_555 1_555

#END
