
#######################################################################
#
#                 Cambridge Crystallographic Data Centre
#                                CCDC 
#
#######################################################################
#
# If this CIF has been generated from an entry in the Cambridge 
# Structural Database, then it will include bibliographic, chemical, 
# crystal, experimental, refinement or atomic coordinate data resulting 
# from the CCDC's data processing and validation procedures.
#
#######################################################################

data_PEYFEF
_chemical_formula_moiety         'C18 H12 Cl3 N3'
_chemical_name_systematic        1,3,5-Trichloro-2,4,6-tripyrrol-1-ylbenzene
_symmetry_cell_setting           triclinic
_symmetry_space_group_name_H-M   'P -1'
_symmetry_Int_Tables_number      2
_space_group_name_Hall           '-P 1'
loop_
_symmetry_equiv_pos_site_id
_symmetry_equiv_pos_as_xyz
1 x,y,z
2 -x,-y,-z
_cell_length_a                   11.167(3)
_cell_length_b                   11.534(3)
_cell_length_c                   15.799(3)
_cell_angle_alpha                86.02(2)
_cell_angle_beta                 69.58(2)
_cell_angle_gamma                65.19(2)
_cell_volume                     1723.92
_exptl_crystal_colour            colorless
_cell_formula_units_Z            4
_exptl_crystal_recrystallization_method benzene
loop_
_atom_site_label
_atom_site_type_symbol
_atom_site_fract_x
_atom_site_fract_y
_atom_site_fract_z
Cl1 Cl 0.84155(5) -0.08739(5) 0.46285(3)
Cl3 Cl 0.49257(5) 0.18103(5) 0.78499(3)
Cl5 Cl 0.38770(6) 0.35259(5) 0.48135(3)
N1 N 0.74388(18) -0.03516(16) 0.66182(11)
N3 N 0.33516(17) 0.36559(15) 0.67904(11)
N5 N 0.64508(18) 0.11543(16) 0.38708(11)
C1 C 0.6935(2) 0.04332(18) 0.52507(12)
C3 C 0.6593(2) 0.05758(18) 0.61887(12)
C5 C 0.5392(2) 0.16439(18) 0.66907(12)
C7 C 0.45644(19) 0.25736(17) 0.62703(12)
C9 C 0.4919(2) 0.24029(18) 0.53337(13)
C11 C 0.6101(2) 0.13284(18) 0.48165(12)
C13 C 0.8478(3) -0.0258(3) 0.68476(17)
H1 H 0.8723 0.0448 0.6771
C15 C 0.9090(3) -0.1365(3) 0.72042(18)
H3 H 0.9835 -0.1566 0.7429
C17 C 0.8428(3) -0.2160(3) 0.71827(18)
H5 H 0.8649 -0.2994 0.7386
C19 C 0.7415(3) -0.1522(2) 0.68194(17)
H7 H 0.6802 -0.1829 0.6722
C21 C 0.3328(2) 0.47954(19) 0.70277(14)
H9 H 0.4113 0.5003 0.6863
C23 C 0.1967(2) 0.5572(2) 0.75440(14)
H11 H 0.1636 0.6420 0.7799
C25 C 0.1148(2) 0.4895(2) 0.76308(16)
H13 H 0.0165 0.5197 0.7960
C27 C 0.2018(2) 0.3721(2) 0.71564(17)
H15 H 0.1744 0.3066 0.7092
C29 C 0.6265(2) 0.0284(2) 0.34371(14)
H17 H 0.5871 -0.0291 0.3721
C31 C 0.6747(2) 0.0391(2) 0.25277(14)
H19 H 0.6740 -0.0089 0.2065
C33 C 0.7255(2) 0.1341(2) 0.24008(14)
H21 H 0.7660 0.1613 0.1834
C35 C 0.7064(2) 0.1805(2) 0.32327(14)
H23 H 0.7310 0.2457 0.3349
Cl2 Cl 0.00492(5) 0.81058(4) 0.22548(3)
Cl4 Cl 0.28166(5) 0.46654(5) -0.06605(3)
Cl6 Cl 0.43543(5) 0.36464(5) 0.22889(3)
N2 N 0.05879(17) 0.70632(15) 0.04152(11)
N4 N 0.45487(17) 0.30480(15) 0.04198(11)
N6 N 0.19296(17) 0.61323(16) 0.31071(10)
C2 C 0.13169(19) 0.66150(17) 0.17401(12)
C4 C 0.14965(19) 0.62593(17) 0.08622(12)
C6 C 0.25683(19) 0.50699(18) 0.04350(12)
C8 C 0.3450(2) 0.42335(17) 0.08702(12)
C10 C 0.3233(2) 0.46138(18) 0.17544(12)
C12 C 0.2155(2) 0.57862(18) 0.22015(12)
C14 C -0.0493(2) 0.6864(2) 0.03189(15)
H2 H -0.0788 0.6215 0.0572
C16 C -0.1062(2) 0.7760(2) -0.02015(16)
H4 H -0.1826 0.7850 -0.0378
C18 C -0.0311(2) 0.8536(2) -0.04344(15)
H6 H -0.0483 0.9242 -0.0793
C20 C 0.0699(2) 0.8088(2) -0.00518(14)
H8 H 0.1363 0.8423 -0.0098
C22 C 0.5685(2) 0.29021(19) -0.03632(13)
H10 H 0.5856 0.3575 -0.0688
C24 C 0.6512(2) 0.1623(2) -0.05847(15)
H12 H 0.7363 0.1243 -0.1090
C26 C 0.5870(2) 0.0959(2) 0.00784(16)
H14 H 0.6217 0.0055 0.0095
C28 C 0.4670(2) 0.18491(19) 0.06855(15)
H16 H 0.4030 0.1676 0.1200
C30 C 0.2650(2) 0.6666(2) 0.33627(15)
H18 H 0.3360 0.6901 0.2967
C32 C 0.2167(3) 0.6803(2) 0.42882(15)
H20 H 0.2476 0.7156 0.4651
C34 C 0.1133(2) 0.6330(2) 0.46100(14)
H22 H 0.0620 0.6303 0.5228
C36 C 0.0999(2) 0.5916(2) 0.38713(13)
H24 H 0.0377 0.5547 0.3883
loop_
_geom_bond_atom_site_label_1
_geom_bond_atom_site_label_2
_geom_bond_site_symmetry_1
_geom_bond_site_symmetry_2
Cl1 C1 1_555 1_555
Cl2 C2 1_555 1_555
Cl3 C5 1_555 1_555
Cl4 C6 1_555 1_555
Cl5 C9 1_555 1_555
Cl6 C10 1_555 1_555
N1 C3 1_555 1_555
N2 C4 1_555 1_555
N3 C7 1_555 1_555
N4 C8 1_555 1_555
N5 C11 1_555 1_555
N6 C12 1_555 1_555
C1 C3 1_555 1_555
C2 C4 1_555 1_555
C3 C5 1_555 1_555
C4 C6 1_555 1_555
C5 C7 1_555 1_555
C6 C8 1_555 1_555
C7 C9 1_555 1_555
C8 C10 1_555 1_555
C9 C11 1_555 1_555
C10 C12 1_555 1_555
C11 C1 1_555 1_555
C12 C2 1_555 1_555
C13 N1 1_555 1_555
H1 C13 1_555 1_555
C14 N2 1_555 1_555
H2 C14 1_555 1_555
C15 C13 1_555 1_555
H3 C15 1_555 1_555
C16 C14 1_555 1_555
H4 C16 1_555 1_555
C17 C15 1_555 1_555
H5 C17 1_555 1_555
C18 C16 1_555 1_555
H6 C18 1_555 1_555
C19 N1 1_555 1_555
H7 C19 1_555 1_555
C20 N2 1_555 1_555
H8 C20 1_555 1_555
C21 N3 1_555 1_555
H9 C21 1_555 1_555
C22 N4 1_555 1_555
H10 C22 1_555 1_555
C23 C21 1_555 1_555
H11 C23 1_555 1_555
C24 C22 1_555 1_555
H12 C24 1_555 1_555
C25 C23 1_555 1_555
H13 C25 1_555 1_555
C26 C24 1_555 1_555
H14 C26 1_555 1_555
C27 N3 1_555 1_555
H15 C27 1_555 1_555
C28 N4 1_555 1_555
H16 C28 1_555 1_555
C29 N5 1_555 1_555
H17 C29 1_555 1_555
C30 N6 1_555 1_555
H18 C30 1_555 1_555
C31 C29 1_555 1_555
H19 C31 1_555 1_555
C32 C30 1_555 1_555
H20 C32 1_555 1_555
C33 C31 1_555 1_555
H21 C33 1_555 1_555
C34 C32 1_555 1_555
H22 C34 1_555 1_555
C35 N5 1_555 1_555
H23 C35 1_555 1_555
C36 N6 1_555 1_555
H24 C36 1_555 1_555
C17 C19 1_555 1_555
C18 C20 1_555 1_555
C25 C27 1_555 1_555
C26 C28 1_555 1_555
C33 C35 1_555 1_555
C34 C36 1_555 1_555

#END
