
#######################################################################
#
#                 Cambridge Crystallographic Data Centre
#                                CCDC 
#
#######################################################################
#
# If this CIF has been generated from an entry in the Cambridge 
# Structural Database, then it will include bibliographic, chemical, 
# crystal, experimental, refinement or atomic coordinate data resulting 
# from the CCDC's data processing and validation procedures.
#
#######################################################################

data_PEYGIK02
_chemical_formula_moiety         'C20 H18 N4 O1'
_chemical_name_systematic        
4-((1H-Indol-3-ylmethylene)amino)-1,5-dimethyl-2-phenyl-1,2-dihydro-3H-pyrazol-3-one
_symmetry_cell_setting           orthorhombic
_symmetry_space_group_name_H-M   'P 21 21 21'
_symmetry_Int_Tables_number      19
_space_group_name_Hall           'P 2ac 2ab'
loop_
_symmetry_equiv_pos_site_id
_symmetry_equiv_pos_as_xyz
1 x,y,z
2 1/2-x,-y,1/2+z
3 -x,1/2+y,1/2-z
4 1/2+x,1/2-y,-z
_cell_length_a                   6.8679(8)
_cell_length_b                   15.7680(19)
_cell_length_c                   16.498(2)
_cell_angle_alpha                90
_cell_angle_beta                 90
_cell_angle_gamma                90
_cell_volume                     1786.62
_exptl_crystal_colour            yellow
_exptl_crystal_description       block
_cell_formula_units_Z            4
loop_
_atom_site_label
_atom_site_type_symbol
_atom_site_fract_x
_atom_site_fract_y
_atom_site_fract_z
C1 C 0.0498(3) 0.64120(14) 0.23630(14)
H1 H -0.0619 0.6713 0.2499
C2 C 0.2031(3) 0.67352(12) 0.19324(11)
C3 C 0.3421(3) 0.60495(11) 0.18569(11)
C4 C 0.5240(3) 0.59652(13) 0.14998(12)
H2 H 0.5805 0.6417 0.1224
C5 C 0.6194(4) 0.51976(14) 0.15624(15)
H3 H 0.7409 0.5132 0.1321
C6 C 0.5372(5) 0.45184(15) 0.19801(17)
H4 H 0.6059 0.4012 0.2020
C7 C 0.3584(4) 0.45803(13) 0.23306(13)
H5 H 0.3033 0.4123 0.2603
C8 C 0.2608(4) 0.53512(12) 0.22664(11)
C9 C 0.2193(3) 0.75900(11) 0.16437(11)
H6 H 0.1171 0.7967 0.1725
C10 C 0.3931(3) 0.86665(10) 0.09897(10)
C11 C 0.2648(3) 0.93801(11) 0.10492(11)
C12 C 0.5607(3) 0.89363(11) 0.06269(11)
C13 C 0.7360(3) 0.84260(12) 0.04165(13)
H7 H 0.7498 0.8401 -0.0162
H8 H 0.7218 0.7862 0.0628
H9 H 0.8495 0.8686 0.0648
C14 C 0.6467(4) 1.01968(15) -0.01980(14)
H10 H 0.7770 0.9984 -0.0251
H11 H 0.6507 1.0797 -0.0103
H12 H 0.5755 1.0085 -0.0687
C15 C 0.3239(3) 1.09180(11) 0.08108(11)
C16 C 0.1605(3) 1.12815(14) 0.04888(14)
H13 H 0.0773 1.0964 0.0164
C17 C 0.1193(4) 1.21276(14) 0.06489(15)
H14 H 0.0075 1.2375 0.0436
C18 C 0.2422(4) 1.25959(13) 0.11166(13)
H15 H 0.2147 1.3163 0.1223
C19 C 0.4052(4) 1.22314(13) 0.14275(14)
H16 H 0.4895 1.2552 0.1745
C20 C 0.4470(4) 1.13887(12) 0.12767(13)
H17 H 0.5587 1.1144 0.1492
N1 N 0.0837(3) 0.55874(12) 0.25648(11)
H18 H 0.0060 0.5268 0.2836
N2 N 0.3728(2) 0.78398(9) 0.12751(9)
N3 N 0.3615(2) 1.00410(9) 0.06636(10)
N4 N 0.5513(2) 0.97813(9) 0.04775(9)
O1 O 0.10220(19) 0.94616(8) 0.13736(9)
loop_
_geom_bond_atom_site_label_1
_geom_bond_atom_site_label_2
_geom_bond_site_symmetry_1
_geom_bond_site_symmetry_2
C1 H1 1_555 1_555
C2 C1 1_555 1_555
C3 C2 1_555 1_555
C4 C3 1_555 1_555
H2 C4 1_555 1_555
C5 C4 1_555 1_555
H3 C5 1_555 1_555
C6 C5 1_555 1_555
H4 C6 1_555 1_555
C7 C6 1_555 1_555
H5 C7 1_555 1_555
C8 C3 1_555 1_555
C9 C2 1_555 1_555
H6 C9 1_555 1_555
C10 C11 1_555 1_555
C11 N3 1_555 1_555
C12 C10 1_555 1_555
C13 C12 1_555 1_555
H7 C13 1_555 1_555
H8 C13 1_555 1_555
H9 C13 1_555 1_555
C14 H10 1_555 1_555
H11 C14 1_555 1_555
H12 C14 1_555 1_555
C15 C16 1_555 1_555
C16 H13 1_555 1_555
C17 C16 1_555 1_555
H14 C17 1_555 1_555
C18 C17 1_555 1_555
H15 C18 1_555 1_555
C19 C18 1_555 1_555
H16 C19 1_555 1_555
C20 C15 1_555 1_555
H17 C20 1_555 1_555
N1 C1 1_555 1_555
H18 N1 1_555 1_555
N2 C9 1_555 1_555
N3 C15 1_555 1_555
N4 C12 1_555 1_555
O1 C11 1_555 1_555
C7 C8 1_555 1_555
C8 N1 1_555 1_555
C10 N2 1_555 1_555
C14 N4 1_555 1_555
C19 C20 1_555 1_555
N3 N4 1_555 1_555

#END
