
#######################################################################
#
#                 Cambridge Crystallographic Data Centre
#                                CCDC 
#
#######################################################################
#
# If this CIF has been generated from an entry in the Cambridge 
# Structural Database, then it will include bibliographic, chemical, 
# crystal, experimental, refinement or atomic coordinate data resulting 
# from the CCDC's data processing and validation procedures.
#
#######################################################################

data_PEYJAE
_chemical_formula_moiety         'C17 H26 N2 O2'
_chemical_name_systematic        
(11S)-10-(3-Methoxycarbonyl-4,5-dihydropyrazol-3-yl)-3,7-dimethyl-bicyclo(4.4.0)dec-2-ene
_symmetry_cell_setting           orthorhombic
_symmetry_space_group_name_H-M   'P 21 21 21'
_symmetry_Int_Tables_number      19
_space_group_name_Hall           'P 2ac 2ab'
loop_
_symmetry_equiv_pos_site_id
_symmetry_equiv_pos_as_xyz
1 x,y,z
2 1/2+x,1/2-y,-z
3 -x,1/2+y,1/2-z
4 1/2-x,-y,1/2+z
_cell_length_a                   9.254(2)
_cell_length_b                   9.963(1)
_cell_length_c                   18.413(2)
_cell_angle_alpha                90
_cell_angle_beta                 90
_cell_angle_gamma                90
_cell_volume                     1697.63
_chemical_melting_point          '90.0-91.5 deg.C'
_cell_formula_units_Z            4
loop_
_atom_site_label
_atom_site_type_symbol
_atom_site_fract_x
_atom_site_fract_y
_atom_site_fract_z
C1 C 0.7832(3) 0.8759(3) -0.0057(2)
C2 C 0.7897(4) 0.9764(3) -0.0672(2)
C3 C 0.9382(5) 1.0389(3) -0.0748(2)
C4 C 1.0033(4) 1.0777(3) -0.0029(2)
C5 C 0.9473(4) 1.0362(3) 0.0589(2)
C6 C 0.8143(3) 0.9501(3) 0.0657(1)
C7 C 0.8113(3) 0.8511(3) 0.1303(1)
C8 C 0.9143(3) 0.7344(3) 0.1179(2)
C9 C 0.8768(3) 0.6625(3) 0.0476(2)
C10 C 0.8842(3) 0.7551(3) -0.0172(1)
C11 C 0.8297(3) 0.9135(3) 0.2067(1)
C12 C 0.7270(4) 1.0318(3) 0.2178(1)
C13 C 0.9834(4) 0.9449(3) 0.2326(2)
C14 C 0.8508(4) 0.6774(4) -0.0865(2)
C15 C 1.1335(5) 1.1676(4) -0.0060(2)
C16 C 0.4827(5) 1.1002(4) 0.2181(2)
C17 C 0.9914(4) 0.8747(3) 0.3046(2)
N1 N 0.8632(3) 0.7882(3) 0.3100(1)
N2 N 0.7768(3) 0.8062(3) 0.2597(1)
O1 O 0.7642(3) 1.1411(2) 0.2359(2)
O2 O 0.5914(3) 0.9963(2) 0.2073(1)
loop_
_geom_bond_atom_site_label_1
_geom_bond_atom_site_label_2
_geom_bond_site_symmetry_1
_geom_bond_site_symmetry_2
C1 C2 1_555 1_555
C2 C3 1_555 1_555
C3 C4 1_555 1_555
C4 C5 1_555 1_555
C5 C6 1_555 1_555
C6 C1 1_555 1_555
C7 C6 1_555 1_555
C8 C7 1_555 1_555
C9 C8 1_555 1_555
C10 C1 1_555 1_555
C11 C7 1_555 1_555
C12 C11 1_555 1_555
C13 C11 1_555 1_555
C14 C10 1_555 1_555
C15 C4 1_555 1_555
C16 O2 1_555 1_555
C17 C13 1_555 1_555
N1 C17 1_555 1_555
N2 C11 1_555 1_555
O1 C12 1_555 1_555
O2 C12 1_555 1_555
C9 C10 1_555 1_555
N1 N2 1_555 1_555

#END
