
#######################################################################
#
#                 Cambridge Crystallographic Data Centre
#                                CCDC 
#
#######################################################################
#
# If this CIF has been generated from an entry in the Cambridge 
# Structural Database, then it will include bibliographic, chemical, 
# crystal, experimental, refinement or atomic coordinate data resulting 
# from the CCDC's data processing and validation procedures.
#
#######################################################################

data_PEYLIQ
_chemical_name_common            
2,3-bis((2,6-Dimethyl-4-(naphthalen-1-yl)phenyl)imino)butane
_chemical_formula_moiety         'C40 H36 N2'
_chemical_name_systematic        
N,N'-Butane-2,3-diylidenebis(2,6-dimethyl-4-(1-naphthyl)aniline)
_symmetry_cell_setting           monoclinic
_symmetry_space_group_name_H-M   'P 21/c'
_symmetry_Int_Tables_number      14
_space_group_name_Hall           '-P 2ybc'
loop_
_symmetry_equiv_pos_site_id
_symmetry_equiv_pos_as_xyz
1 x,y,z
2 -x,1/2+y,1/2-z
3 -x,-y,-z
4 x,1/2-y,1/2+z
_cell_length_a                   11.214(7)
_cell_length_b                   9.274(6)
_cell_length_c                   15.628(9)
_cell_angle_alpha                90
_cell_angle_beta                 102.811(7)
_cell_angle_gamma                90
_cell_volume                     1584.83
_exptl_crystal_colour            yellow
_exptl_crystal_description       block
_cell_formula_units_Z            2
loop_
_atom_site_label
_atom_site_type_symbol
_atom_site_fract_x
_atom_site_fract_y
_atom_site_fract_z
C1 C 0.2958(2) 0.6453(3) 1.06299(19)
C2 C 0.3107(3) 0.6904(3) 1.1494(2)
C3 C 0.2083(3) 0.7195(4) 1.1815(2)
H1 H 0.2183 0.7492 1.2395
C4 C 0.0915(3) 0.7058(3) 1.1305(2)
C5 C 0.0795(2) 0.6613(3) 1.0441(2)
H2 H 0.0015 0.6518 1.0087
C6 C 0.1799(2) 0.6306(3) 1.00890(19)
C7 C 0.4372(3) 0.7071(5) 1.2073(2)
H3 H 0.4308 0.7457 1.2631
H4 H 0.4844 0.7714 1.1798
H5 H 0.4766 0.6147 1.2157
C8 C 0.1645(3) 0.5891(4) 0.91425(19)
H6 H 0.2115 0.6533 0.8864
H7 H 0.0797 0.5956 0.8853
H8 H 0.1926 0.4920 0.9105
C9 C -0.0154(3) 0.7337(3) 1.1715(2)
C10 C -0.0211(3) 0.6678(4) 1.2483(2)
H9 H 0.0428 0.6070 1.2741
C11 C -0.1167(4) 0.6860(5) 1.2902(2)
H10 H -0.1174 0.6375 1.3422
C12 C -0.2124(4) 0.7793(5) 1.2527(3)
H11 H -0.2770 0.7944 1.2801
C13 C -0.2104(3) 0.8491(4) 1.1745(3)
C14 C -0.3034(3) 0.9446(4) 1.1353(3)
H12 H -0.3682 0.9597 1.1624
C15 C -0.3032(3) 1.0162(4) 1.0596(4)
H13 H -0.3671 1.0777 1.0349
C16 C -0.2068(3) 0.9958(4) 1.0202(3)
H14 H -0.2056 1.0460 0.9689
C17 C -0.1135(3) 0.9053(3) 1.0531(2)
H15 H -0.0503 0.8940 1.0239
C18 C -0.1105(3) 0.8268(3) 1.1322(2)
C19 C 0.4453(2) 0.5024(3) 1.01942(18)
C20 C 0.3963(3) 0.3635(3) 1.0459(2)
H16 H 0.3310 0.3831 1.0749
H17 H 0.4604 0.3124 1.0852
H18 H 0.3661 0.3058 0.9947
N1 N 0.40091(19) 0.6267(3) 1.02733(15)
C1B C 0.7042(2) 0.3547(3) 0.93701(19)
C2B C 0.6893(3) 0.3096(3) 0.8506(2)
C3B C 0.7917(3) 0.2805(4) 0.8185(2)
H1B H 0.7817 0.2508 0.7605
C4B C 0.9085(3) 0.2942(3) 0.8695(2)
C5B C 0.9205(2) 0.3387(3) 0.9559(2)
H2B H 0.9985 0.3482 0.9913
C6B C 0.8201(2) 0.3694(3) 0.99110(19)
C7B C 0.5628(3) 0.2929(5) 0.7927(2)
H3B H 0.5692 0.2543 0.7369
H4B H 0.5156 0.2286 0.8202
H5B H 0.5234 0.3853 0.7843
C8B C 0.8355(3) 0.4109(4) 1.08575(19)
H6B H 0.7885 0.3467 1.1136
H7B H 0.9203 0.4044 1.1147
H8B H 0.8074 0.5080 1.0895
C9B C 1.0154(3) 0.2663(3) 0.8285(2)
C10B C 1.0211(3) 0.3322(4) 0.7517(2)
H9B H 0.9572 0.3930 0.7259
C11B C 1.1167(4) 0.3140(5) 0.7098(2)
H10B H 1.1174 0.3625 0.6578
C12B C 1.2124(4) 0.2207(5) 0.7473(3)
H11B H 1.2770 0.2056 0.7199
C13B C 1.2104(3) 0.1509(4) 0.8255(3)
C14B C 1.3034(3) 0.0554(4) 0.8647(3)
H12B H 1.3682 0.0403 0.8376
C15B C 1.3032(3) -0.0162(4) 0.9404(4)
H13B H 1.3671 -0.0777 0.9651
C16B C 1.2068(3) 0.0042(4) 0.9798(3)
H14B H 1.2056 -0.0460 1.0311
C17B C 1.1135(3) 0.0947(3) 0.9469(2)
H15B H 1.0503 0.1060 0.9761
C18B C 1.1105(3) 0.1732(3) 0.8678(2)
C19B C 0.5547(2) 0.4976(3) 0.98058(18)
C20B C 0.6037(3) 0.6365(3) 0.9541(2)
H16B H 0.6690 0.6169 0.9251
H17B H 0.5396 0.6876 0.9148
H18B H 0.6339 0.6942 1.0053
N1B N 0.59909(19) 0.3733(3) 0.97267(15)
loop_
_geom_bond_atom_site_label_1
_geom_bond_atom_site_label_2
_geom_bond_site_symmetry_1
_geom_bond_site_symmetry_2
C1 C2 1_555 1_555
C2 C3 1_555 1_555
C3 H1 1_555 1_555
C4 C3 1_555 1_555
C5 C4 1_555 1_555
H2 C5 1_555 1_555
C6 C1 1_555 1_555
C7 C2 1_555 1_555
H3 C7 1_555 1_555
H4 C7 1_555 1_555
H5 C7 1_555 1_555
C8 C6 1_555 1_555
H6 C8 1_555 1_555
H7 C8 1_555 1_555
H8 C8 1_555 1_555
C9 C4 1_555 1_555
C10 C9 1_555 1_555
H9 C10 1_555 1_555
C11 C10 1_555 1_555
H10 C11 1_555 1_555
C12 C11 1_555 1_555
H11 C12 1_555 1_555
C13 C12 1_555 1_555
C14 C13 1_555 1_555
H12 C14 1_555 1_555
C15 C14 1_555 1_555
H13 C15 1_555 1_555
C16 C15 1_555 1_555
H14 C16 1_555 1_555
C17 C16 1_555 1_555
H15 C17 1_555 1_555
C18 C9 1_555 1_555
C19 C20 1_555 1_555
C20 H16 1_555 1_555
H17 C20 1_555 1_555
H18 C20 1_555 1_555
N1 C1 1_555 1_555
C1B C2B 1_555 1_555
C2B C3B 1_555 1_555
C3B H1B 1_555 1_555
C4B C3B 1_555 1_555
C5B C4B 1_555 1_555
H2B C5B 1_555 1_555
C6B C1B 1_555 1_555
C7B C2B 1_555 1_555
H3B C7B 1_555 1_555
H4B C7B 1_555 1_555
H5B C7B 1_555 1_555
C8B C6B 1_555 1_555
H6B C8B 1_555 1_555
H7B C8B 1_555 1_555
H8B C8B 1_555 1_555
C9B C4B 1_555 1_555
C10B C9B 1_555 1_555
H9B C10B 1_555 1_555
C11B C10B 1_555 1_555
H10B C11B 1_555 1_555
C12B C11B 1_555 1_555
H11B C12B 1_555 1_555
C13B C12B 1_555 1_555
C14B C13B 1_555 1_555
H12B C14B 1_555 1_555
C15B C14B 1_555 1_555
H13B C15B 1_555 1_555
C16B C15B 1_555 1_555
H14B C16B 1_555 1_555
C17B C16B 1_555 1_555
H15B C17B 1_555 1_555
C18B C9B 1_555 1_555
C19B C19 1_555 1_555
C20B C19B 1_555 1_555
H16B C20B 1_555 1_555
H17B C20B 1_555 1_555
H18B C20B 1_555 1_555
N1B C1B 1_555 1_555
C5 C6 1_555 1_555
C13 C18 1_555 1_555
C17 C18 1_555 1_555
C19 N1 1_555 1_555
C5B C6B 1_555 1_555
C13B C18B 1_555 1_555
C17B C18B 1_555 1_555
C19B N1B 1_555 1_555

#END
