
#######################################################################
#
#                 Cambridge Crystallographic Data Centre
#                                CCDC 
#
#######################################################################
#
# If this CIF has been generated from an entry in the Cambridge 
# Structural Database, then it will include bibliographic, chemical, 
# crystal, experimental, refinement or atomic coordinate data resulting 
# from the CCDC's data processing and validation procedures.
#
#######################################################################

data_PEYLAJ
_chemical_formula_moiety         'C5 H8 B1 N3'
_chemical_name_systematic        
(cyano)(dihydrido)(1-methyl-1H-imidazole)boron
_symmetry_cell_setting           monoclinic
_symmetry_space_group_name_H-M   'P 21/c'
_symmetry_Int_Tables_number      14
_space_group_name_Hall           '-P 2ybc'
loop_
_symmetry_equiv_pos_site_id
_symmetry_equiv_pos_as_xyz
1 x,y,z
2 -x,1/2+y,1/2-z
3 -x,-y,-z
4 x,1/2-y,1/2+z
_cell_length_a                   6.7229(13)
_cell_length_b                   14.770(3)
_cell_length_c                   7.1182(13)
_cell_angle_alpha                90
_cell_angle_beta                 93.326(6)
_cell_angle_gamma                90
_cell_volume                     705.627
_cell_formula_units_Z            4
loop_
_atom_site_label
_atom_site_type_symbol
_atom_site_fract_x
_atom_site_fract_y
_atom_site_fract_z
N1 N 0.44982(18) 0.70011(9) 0.10780(17)
N2 N 0.2612(2) 0.81668(9) 0.04356(17)
C1 C 0.1487(3) 0.74156(11) 0.0037(2)
H1 H 0.0163 0.7406 -0.0422
C2 C 0.7275(3) 0.60001(11) -0.0110(3)
C3 C 0.4410(2) 0.78926(12) 0.1053(2)
H2 H 0.5461 0.8275 0.1417
C4 C 0.2650(2) 0.66911(12) 0.0434(2)
H3 H 0.2272 0.6088 0.0298
N3 N 0.7934(3) 0.57165(13) -0.1420(3)
B1 B 0.6351(3) 0.64108(18) 0.1691(3)
H4 H 0.5956 0.5926 0.2510
H5 H 0.7337 0.6780 0.2382
C5 C 0.1927(4) 0.91058(12) 0.0260(3)
H6 H 0.2992 0.9507 0.0662
H7 H 0.0820 0.9196 0.1033
H8 H 0.1520 0.9230 -0.1029
loop_
_geom_bond_atom_site_label_1
_geom_bond_atom_site_label_2
_geom_bond_site_symmetry_1
_geom_bond_site_symmetry_2
N1 C3 1_555 1_555
N2 C1 1_555 1_555
C1 H1 1_555 1_555
C2 N3 1_555 1_555
C3 N2 1_555 1_555
H2 C3 1_555 1_555
C4 N1 1_555 1_555
H3 C4 1_555 1_555
B1 N1 1_555 1_555
H4 B1 1_555 1_555
H5 B1 1_555 1_555
C5 N2 1_555 1_555
H6 C5 1_555 1_555
H7 C5 1_555 1_555
H8 C5 1_555 1_555
C1 C4 1_555 1_555
C2 B1 1_555 1_555

#END
