
#######################################################################
#
#                 Cambridge Crystallographic Data Centre
#                                CCDC 
#
#######################################################################
#
# If this CIF has been generated from an entry in the Cambridge 
# Structural Database, then it will include bibliographic, chemical, 
# crystal, experimental, refinement or atomic coordinate data resulting 
# from the CCDC's data processing and validation procedures.
#
#######################################################################

data_PEYMOX
_chemical_formula_moiety         'C17 H20 O4'
_chemical_name_systematic        
'Dimethyl 12-methyltricyclo[7.2.1.0^2,7^]dodeca-2,4,6-triene-11,11-dicarboxylate'
_symmetry_cell_setting           monoclinic
_symmetry_space_group_name_H-M   'P 21/c'
_symmetry_Int_Tables_number      14
_space_group_name_Hall           '-P 2ybc'
loop_
_symmetry_equiv_pos_site_id
_symmetry_equiv_pos_as_xyz
1 x,y,z
2 -x,1/2+y,1/2-z
3 -x,-y,-z
4 x,1/2-y,1/2+z
_cell_length_a                   11.367(2)
_cell_length_b                   9.2010(18)
_cell_length_c                   14.360(3)
_cell_angle_alpha                90
_cell_angle_beta                 95.92(3)
_cell_angle_gamma                90
_cell_volume                     1493.87
_cell_formula_units_Z            4
loop_
_atom_site_label
_atom_site_type_symbol
_atom_site_fract_x
_atom_site_fract_y
_atom_site_fract_z
O1 O 0.7976(2) 1.1310(3) 0.78167(17)
O2 O 0.5904(3) 1.1810(3) 0.63613(19)
O3 O 0.6559(3) 1.0158(3) 0.84819(19)
C1 C 0.7905(3) 0.8643(4) 0.6660(3)
H1 H 0.847(3) 0.917(4) 0.632(3)
O4 O 0.7093(3) 1.0848(4) 0.5406(2)
C2 C 0.6859(3) 0.9649(4) 0.6868(2)
C3 C 0.6657(4) 1.0813(4) 0.6127(3)
C4 C 0.8507(3) 0.7976(4) 0.7542(3)
C5 C 0.7083(4) 1.0381(4) 0.7815(3)
C6 C 0.7940(4) 0.6856(4) 0.7961(3)
C7 C 0.9612(4) 0.8425(4) 0.7927(3)
H2 H 0.9983 0.9188 0.7649
C8 C 0.7274(4) 0.7464(5) 0.6044(3)
H3 H 0.692(3) 0.792(4) 0.546(3)
C9 C 0.5779(4) 0.8598(4) 0.6825(3)
H4 H 0.5427 0.8609 0.7412
H5 H 0.5183 0.8876 0.6325
C10 C 0.8505(5) 0.6220(5) 0.8766(3)
H6 H 0.8126 0.5486 0.9066
C11 C 0.6275(4) 0.7094(5) 0.6641(3)
H7 H 0.567(4) 0.650(5) 0.628(3)
C12 C 0.6752(4) 0.6309(5) 0.7535(3)
H8 H 0.6186 0.6412 0.7993
H9 H 0.6819 0.5281 0.7399
C13 C 1.0170(4) 0.7777(5) 0.8704(3)
H10 H 1.0918 0.8086 0.8948
C14 C 0.9617(5) 0.6663(5) 0.9124(3)
H11 H 0.9995 0.6208 0.9650
C15 C 0.8039(4) 0.6206(5) 0.5786(3)
H12 H 0.8685 0.6570 0.5472
H13 H 0.7574 0.5552 0.5378
H14 H 0.8344 0.5699 0.6343
C16 C 0.5614(5) 1.2960(5) 0.5699(3)
H15 H 0.6299 1.3554 0.5652
H16 H 0.4991 1.3544 0.5905
H17 H 0.5358 1.2550 0.5097
C17 C 0.8339(5) 1.1996(6) 0.8690(3)
H18 H 0.7670 1.2454 0.8924
H19 H 0.8930 1.2714 0.8603
H20 H 0.8662 1.1280 0.9132
loop_
_geom_bond_atom_site_label_1
_geom_bond_atom_site_label_2
_geom_bond_site_symmetry_1
_geom_bond_site_symmetry_2
O1 C5 1_555 1_555
O2 C3 1_555 1_555
O3 C5 1_555 1_555
C1 H1 1_555 1_555
O4 C3 1_555 1_555
C2 C1 1_555 1_555
C3 C2 1_555 1_555
C4 C1 1_555 1_555
C5 C2 1_555 1_555
C6 C4 1_555 1_555
C7 C4 1_555 1_555
H2 C7 1_555 1_555
C8 C1 1_555 1_555
H3 C8 1_555 1_555
C9 C2 1_555 1_555
H4 C9 1_555 1_555
H5 C9 1_555 1_555
C10 C6 1_555 1_555
H6 C10 1_555 1_555
C11 C8 1_555 1_555
H7 C11 1_555 1_555
C12 C6 1_555 1_555
H8 C12 1_555 1_555
H9 C12 1_555 1_555
C13 C7 1_555 1_555
H10 C13 1_555 1_555
C14 C10 1_555 1_555
H11 C14 1_555 1_555
C15 C8 1_555 1_555
H12 C15 1_555 1_555
H13 C15 1_555 1_555
H14 C15 1_555 1_555
C16 O2 1_555 1_555
H15 C16 1_555 1_555
H16 C16 1_555 1_555
H17 C16 1_555 1_555
C17 O1 1_555 1_555
H18 C17 1_555 1_555
H19 C17 1_555 1_555
H20 C17 1_555 1_555
C9 C11 1_555 1_555
C11 C12 1_555 1_555
C13 C14 1_555 1_555

#END
