
#######################################################################
#
#                 Cambridge Crystallographic Data Centre
#                                CCDC 
#
#######################################################################
#
# If this CIF has been generated from an entry in the Cambridge 
# Structural Database, then it will include bibliographic, chemical, 
# crystal, experimental, refinement or atomic coordinate data resulting 
# from the CCDC's data processing and validation procedures.
#
#######################################################################

data_PEYMUD
_chemical_formula_moiety         'C17 H20 O4'
_chemical_name_systematic        
'Dimethyl 1-methyltricyclo[7.2.1.0^2,7^]dodeca-2,4,6-triene-11,11-dicarboxylate'
_symmetry_cell_setting           monoclinic
_symmetry_space_group_name_H-M   'P n'
_symmetry_Int_Tables_number      7
_space_group_name_Hall           'P -2yac'
loop_
_symmetry_equiv_pos_site_id
_symmetry_equiv_pos_as_xyz
1 x,y,z
2 1/2+x,-y,1/2+z
_cell_length_a                   8.4340(17)
_cell_length_b                   7.4860(15)
_cell_length_c                   11.324(2)
_cell_angle_alpha                90
_cell_angle_beta                 97.95(3)
_cell_angle_gamma                90
_cell_volume                     708.091
_cell_formula_units_Z            2
loop_
_atom_site_label
_atom_site_type_symbol
_atom_site_fract_x
_atom_site_fract_y
_atom_site_fract_z
O1 O 0.8200(2) 1.1199(3) 0.38479(19)
O2 O 1.1903(3) 0.9744(3) 0.2140(3)
C1 C 0.7952(4) 1.0987(4) 0.2700(3)
C2 C 0.9169(3) 0.7844(4) 0.2980(2)
C3 C 1.0728(4) 1.0653(4) 0.2478(3)
C4 C 0.7460(4) 0.7298(4) 0.3102(3)
C5 C 0.9736(4) 0.6585(4) 0.2066(3)
H1 H 1.0860 0.6768 0.2003
H2 H 0.9566 0.5345 0.2264
C6 C 0.8689(4) 0.9148(4) 0.0989(3)
H3 H 0.7637 0.9606 0.0680
H4 H 0.9460 0.9629 0.0513
O3 O 0.6944(3) 1.1723(3) 0.2058(2)
C7 C 0.4443(4) 0.6057(5) 0.3367(4)
H5 H 0.3436 0.5618 0.3456
C8 C 0.8694(4) 0.7122(4) 0.0944(3)
H6 H 0.915(4) 0.670(5) 0.024(3)
C9 C 0.4991(4) 0.5933(5) 0.2293(3)
H7 H 0.4348 0.5416 0.1650
C10 C 0.7245(5) 1.2509(5) 0.4334(3)
H8 H 0.7533 1.3677 0.4085
H9 H 0.7424 1.2440 0.5188
H10 H 0.6135 1.2291 0.4054
C11 C 0.6864(4) 0.7421(4) 0.4170(3)
H11 H 0.7496 0.7928 0.4822
C12 C 0.6492(4) 0.6566(4) 0.2148(3)
C13 C 0.7051(4) 0.6338(5) 0.0959(3)
H12 H 0.6300 0.6917 0.0353
H13 H 0.7074 0.5076 0.0768
C14 C 0.5362(5) 0.6817(5) 0.4300(4)
H14 H 0.4981 0.6932 0.5028
C15 C 0.9137(3) 0.9676(4) 0.2301(3)
C16 C 1.0258(4) 0.7810(5) 0.4150(3)
H15 H 0.9937 0.8720 0.4665
H16 H 1.1340 0.8025 0.4014
H17 H 1.0193 0.6662 0.4519
O4 O 1.0901(3) 1.2100(4) 0.2842(3)
C17 C 1.3453(4) 1.0527(6) 0.2306(4)
H18 H 1.3374 1.1764 0.2081
H19 H 1.4126 0.9915 0.1820
H20 H 1.3907 1.0431 0.3129
loop_
_geom_bond_atom_site_label_1
_geom_bond_atom_site_label_2
_geom_bond_site_symmetry_1
_geom_bond_site_symmetry_2
O1 C1 1_555 1_555
O2 C3 1_555 1_555
C1 O3 1_555 1_555
C2 C4 1_555 1_555
C3 C15 1_555 1_555
C4 C11 1_555 1_555
C5 C2 1_555 1_555
H1 C5 1_555 1_555
H2 C5 1_555 1_555
C6 H3 1_555 1_555
H4 C6 1_555 1_555
C7 H5 1_555 1_555
C8 C5 1_555 1_555
H6 C8 1_555 1_555
C9 C7 1_555 1_555
H7 C9 1_555 1_555
C10 O1 1_555 1_555
H8 C10 1_555 1_555
H9 C10 1_555 1_555
H10 C10 1_555 1_555
C11 H11 1_555 1_555
C12 C4 1_555 1_555
C13 C8 1_555 1_555
H12 C13 1_555 1_555
H13 C13 1_555 1_555
C14 C7 1_555 1_555
H14 C14 1_555 1_555
C15 C1 1_555 1_555
C16 C2 1_555 1_555
H15 C16 1_555 1_555
H16 C16 1_555 1_555
H17 C16 1_555 1_555
O4 C3 1_555 1_555
C17 O2 1_555 1_555
H18 C17 1_555 1_555
H19 C17 1_555 1_555
H20 C17 1_555 1_555
C2 C15 1_555 1_555
C6 C8 1_555 1_555
C6 C15 1_555 1_555
C9 C12 1_555 1_555
C11 C14 1_555 1_555
C12 C13 1_555 1_555

#END
