
#######################################################################
#
#                 Cambridge Crystallographic Data Centre
#                                CCDC 
#
#######################################################################
#
# If this CIF has been generated from an entry in the Cambridge 
# Structural Database, then it will include bibliographic, chemical, 
# crystal, experimental, refinement or atomic coordinate data resulting 
# from the CCDC's data processing and validation procedures.
#
#######################################################################

data_PEYNAK
_chemical_formula_moiety         'C17 H20 O4'
_chemical_name_systematic        
'Dimethyl 9-methyltricyclo[7.2.1.0^2,7^]dodeca-2,4,6-triene-11,11-dicarboxylate'
_symmetry_cell_setting           monoclinic
_symmetry_space_group_name_H-M   'P 21/n'
_symmetry_Int_Tables_number      14
_space_group_name_Hall           '-P 2yn'
loop_
_symmetry_equiv_pos_site_id
_symmetry_equiv_pos_as_xyz
1 x,y,z
2 1/2-x,1/2+y,1/2-z
3 -x,-y,-z
4 1/2+x,1/2-y,1/2+z
_cell_length_a                   7.3820(15)
_cell_length_b                   16.341(3)
_cell_length_c                   13.236(3)
_cell_angle_alpha                90
_cell_angle_beta                 94.47(3)
_cell_angle_gamma                90
_cell_volume                     1591.79
_cell_formula_units_Z            4
loop_
_atom_site_label
_atom_site_type_symbol
_atom_site_fract_x
_atom_site_fract_y
_atom_site_fract_z
O1 O 1.1960(2) 0.08386(10) 0.08845(12)
C1 C 1.0886(3) -0.03287(15) 0.22159(17)
C2 C 0.8319(3) 0.06136(14) 0.16011(17)
H1 H 0.824(3) 0.0228(15) 0.1032(18)
O2 O 1.0107(2) -0.08970(10) 0.18015(13)
O3 O 1.2501(2) -0.03965(11) 0.27465(15)
C3 C 1.0188(3) 0.05471(13) 0.22327(16)
C4 C 0.7953(3) 0.14832(14) 0.12433(16)
C5 C 1.1586(3) 0.11059(14) 0.17972(18)
C6 C 0.8118(3) 0.17106(16) 0.02461(18)
H2 H 0.8479 0.1325 -0.0214
C7 C 0.7421(3) 0.20621(15) 0.19353(18)
C8 C 0.7057(4) 0.28571(16) 0.1594(2)
H3 H 0.6693 0.3248 0.2047
C9 C 0.7171(4) 0.18196(17) 0.30218(19)
H4 H 0.5911 0.1910 0.3153
H5 H 0.7911 0.2176 0.3470
C10 C 0.6995(3) 0.03882(16) 0.23829(19)
H6 H 0.7075 -0.0188 0.2557
H7 H 0.5753 0.0519 0.2144
C11 C 0.9743(3) 0.07951(17) 0.33196(18)
H8 H 1.0108 0.0365 0.3798
H9 H 1.0381 0.1294 0.3527
C12 C 0.7666(4) 0.09295(16) 0.32826(19)
C13 C 0.7752(4) 0.25052(19) -0.0076(2)
H10 H 0.7862 0.2651 -0.0748
C14 C 0.7223(4) 0.30762(18) 0.0607(2)
H11 H 0.6979 0.3611 0.0398
C15 C 1.3295(4) -0.12137(18) 0.2804(3)
H12 H 1.2427 -0.1594 0.3037
H13 H 1.4361 -0.1210 0.3268
H14 H 1.3619 -0.1376 0.2145
C16 C 1.3070(4) 0.1369(2) 0.0305(2)
H15 H 1.2298 0.1694 -0.0154
H16 H 1.3860 0.1042 -0.0073
H17 H 1.3785 0.1722 0.0758
C17 C 0.6880(5) 0.0690(2) 0.4280(2)
H18 H 0.5580 0.0730 0.4203
H19 H 0.7345 0.1052 0.4809
H20 H 0.7225 0.0138 0.4453
O4 O 1.2222(3) 0.17119(12) 0.21947(16)
loop_
_geom_bond_atom_site_label_1
_geom_bond_atom_site_label_2
_geom_bond_site_symmetry_1
_geom_bond_site_symmetry_2
O1 C5 1_555 1_555
C1 O2 1_555 1_555
C2 H1 1_555 1_555
O3 C1 1_555 1_555
C3 C1 1_555 1_555
C4 C2 1_555 1_555
C5 C3 1_555 1_555
C6 C4 1_555 1_555
H2 C6 1_555 1_555
C7 C4 1_555 1_555
C8 C7 1_555 1_555
H3 C8 1_555 1_555
C9 C7 1_555 1_555
H4 C9 1_555 1_555
H5 C9 1_555 1_555
C10 C2 1_555 1_555
H6 C10 1_555 1_555
H7 C10 1_555 1_555
C11 C3 1_555 1_555
H8 C11 1_555 1_555
H9 C11 1_555 1_555
C12 C9 1_555 1_555
C13 C6 1_555 1_555
H10 C13 1_555 1_555
C14 C8 1_555 1_555
H11 C14 1_555 1_555
C15 O3 1_555 1_555
H12 C15 1_555 1_555
H13 C15 1_555 1_555
H14 C15 1_555 1_555
C16 O1 1_555 1_555
H15 C16 1_555 1_555
H16 C16 1_555 1_555
H17 C16 1_555 1_555
C17 C12 1_555 1_555
H18 C17 1_555 1_555
H19 C17 1_555 1_555
H20 C17 1_555 1_555
O4 C5 1_555 1_555
C2 C3 1_555 1_555
C10 C12 1_555 1_555
C11 C12 1_555 1_555
C13 C14 1_555 1_555

#END
