
#######################################################################
#
#                 Cambridge Crystallographic Data Centre
#                                CCDC 
#
#######################################################################
#
# If this CIF has been generated from an entry in the Cambridge 
# Structural Database, then it will include bibliographic, chemical, 
# crystal, experimental, refinement or atomic coordinate data resulting 
# from the CCDC's data processing and validation procedures.
#
#######################################################################

data_PEYNEN
_chemical_formula_moiety         'C14 H10 N4 O1,H2 O1'
_chemical_name_systematic        
'4-Cyanobenzaldehyde isonicotinoylhydrazone monohydrate'
_symmetry_cell_setting           orthorhombic
_symmetry_space_group_name_H-M   'P 21 21 21'
_symmetry_Int_Tables_number      19
_space_group_name_Hall           'P 2ac 2ab'
loop_
_symmetry_equiv_pos_site_id
_symmetry_equiv_pos_as_xyz
1 x,y,z
2 1/2-x,-y,1/2+z
3 -x,1/2+y,1/2-z
4 1/2+x,1/2-y,-z
_cell_length_a                   6.9692(2)
_cell_length_b                   12.3802(5)
_cell_length_c                   14.5513(7)
_cell_angle_alpha                90
_cell_angle_beta                 90
_cell_angle_gamma                90
_cell_volume                     1255.49
_exptl_crystal_colour            colorless
_exptl_crystal_description       needle
_chemical_melting_point          '498-499 K'
_cell_formula_units_Z            4
_exptl_crystal_recrystallization_method ethanol/water
loop_
_atom_site_label
_atom_site_type_symbol
_atom_site_fract_x
_atom_site_fract_y
_atom_site_fract_z
O1 O 0.5854(3) 0.87688(14) 0.25628(12)
N1 N 0.6539(3) 0.60244(19) 0.00504(14)
N2 N 0.6212(3) 0.72012(18) 0.33699(13)
N3 N 0.5886(4) 0.94939(19) 0.91661(16)
N4 N 0.6188(3) 0.77410(18) 0.42019(14)
C1 C 0.5845(4) 0.5548(2) 0.08036(17)
C2 C 0.5670(4) 0.6063(2) 0.16461(16)
C3 C 0.6212(4) 0.7137(2) 0.17152(15)
C4 C 0.6884(4) 0.7656(2) 0.09294(16)
C5 C 0.7044(4) 0.7068(2) 0.01244(17)
C6 C 0.6062(3) 0.77877(19) 0.25858(16)
C7 C 0.6297(4) 0.7652(2) 0.58305(18)
C8 C 0.6060(4) 0.7004(2) 0.66048(17)
C9 C 0.5973(4) 0.7464(2) 0.74722(19)
C10 C 0.6104(4) 0.8584(2) 0.75670(17)
C11 C 0.6398(4) 0.9230(2) 0.67913(17)
C12 C 0.6508(4) 0.8769(2) 0.59356(17)
C13 C 0.6308(4) 0.7142(2) 0.49162(17)
C14 C 0.5978(4) 0.9089(2) 0.84602(17)
H1 H 0.5448 0.4815 0.0760
H2 H 0.5188 0.5687 0.2166
H3 H 0.7225 0.8398 0.0946
H4 H 0.7538 0.7422 -0.0405
H5 H 0.6502 0.6497 0.3434
H6 H 0.5958 0.6242 0.6538
H7 H 0.5824 0.7019 0.8000
H8 H 0.6522 0.9990 0.6857
H9 H 0.6727 0.9210 0.5412
H10 H 0.6402 0.6380 0.4858
O2 O 0.6942(3) 0.49433(16) 0.34695(13)
H11 H 0.5942 0.4490 0.3250
H12 H 0.7492 0.4576 0.3979
loop_
_geom_bond_atom_site_label_1
_geom_bond_atom_site_label_2
_geom_bond_site_symmetry_1
_geom_bond_site_symmetry_2
O1 C6 1_555 1_555
N1 C1 1_555 1_555
N2 N4 1_555 1_555
N3 C14 1_555 1_555
N4 C13 1_555 1_555
C1 C2 1_555 1_555
C2 C3 1_555 1_555
C3 C4 1_555 1_555
C4 C5 1_555 1_555
C5 N1 1_555 1_555
C6 N2 1_555 1_555
C7 C8 1_555 1_555
C8 C9 1_555 1_555
C9 C10 1_555 1_555
C10 C11 1_555 1_555
C11 C12 1_555 1_555
C12 C7 1_555 1_555
C13 C7 1_555 1_555
C14 C10 1_555 1_555
H1 C1 1_555 1_555
H2 C2 1_555 1_555
H3 C4 1_555 1_555
H4 C5 1_555 1_555
H5 N2 1_555 1_555
H6 C8 1_555 1_555
H7 C9 1_555 1_555
H8 C11 1_555 1_555
H9 C12 1_555 1_555
H10 C13 1_555 1_555
O2 H11 1_555 1_555
H12 O2 1_555 1_555
C3 C6 1_555 1_555

#END
