
#######################################################################
#
#                 Cambridge Crystallographic Data Centre
#                                CCDC 
#
#######################################################################
#
# If this CIF has been generated from an entry in the Cambridge 
# Structural Database, then it will include bibliographic, chemical, 
# crystal, experimental, refinement or atomic coordinate data resulting 
# from the CCDC's data processing and validation procedures.
#
#######################################################################

data_PEYPUE
_chemical_formula_moiety         'C11 H15 N4 O1'
_chemical_name_systematic        
2-(5-Pyrimidinyl)-4,4,5,5-tetramethyl-4,5-dihydro-1H-imidazol-1-oxyl
_symmetry_cell_setting           triclinic
_symmetry_space_group_name_H-M   'P -1'
_symmetry_Int_Tables_number      2
_space_group_name_Hall           '-P 1'
loop_
_symmetry_equiv_pos_site_id
_symmetry_equiv_pos_as_xyz
1 x,y,z
2 -x,-y,-z
_cell_length_a                   6.888(2)
_cell_length_b                   8.994(2)
_cell_length_c                   9.469(3)
_cell_angle_alpha                91.56(1)
_cell_angle_beta                 98.27(1)
_cell_angle_gamma                88.96(1)
_cell_volume                     580.236
_chemical_melting_point          '67 deg.C'
_cell_formula_units_Z            2
loop_
_atom_site_label
_atom_site_type_symbol
_atom_site_fract_x
_atom_site_fract_y
_atom_site_fract_z
O1 O 0.3543(4) 0.3791(3) 0.0368(3)
N1 N 0.3428(4) 0.3628(3) 0.1679(3)
N2 N 0.2373(3) 0.4011(3) 0.3794(3)
N3 N -0.0926(4) 0.7841(3) 0.2428(4)
N4 N 0.0933(5) 0.7987(3) 0.0514(4)
C1 C 0.2355(4) 0.4504(3) 0.2537(4)
C2 C 0.4642(4) 0.2538(3) 0.2599(4)
C3 C 0.3429(4) 0.2531(3) 0.3858(4)
C4 C 0.6661(5) 0.3252(5) 0.2993(5)
C5 C 0.4820(6) 0.1088(4) 0.1777(4)
C6 C 0.1809(5) 0.1367(3) 0.3663(5)
C7 C 0.4663(5) 0.2387(4) 0.5315(4)
C8 C 0.1368(4) 0.5906(3) 0.2040(4)
C9 C -0.0039(5) 0.6547(3) 0.2795(4)
C10 C -0.0411(5) 0.8475(4) 0.1309(4)
C11 C 0.1832(5) 0.6695(4) 0.0914(4)
loop_
_geom_bond_atom_site_label_1
_geom_bond_atom_site_label_2
_geom_bond_site_symmetry_1
_geom_bond_site_symmetry_2
O1 N1 1_555 1_555
N1 C1 1_555 1_555
N2 C1 1_555 1_555
N3 C9 1_555 1_555
N4 C10 1_555 1_555
C1 C8 1_555 1_555
C2 N1 1_555 1_555
C3 N2 1_555 1_555
C4 C2 1_555 1_555
C5 C2 1_555 1_555
C6 C3 1_555 1_555
C7 C3 1_555 1_555
C8 C9 1_555 1_555
C10 N3 1_555 1_555
C11 N4 1_555 1_555
C2 C3 1_555 1_555
C8 C11 1_555 1_555

#END
