
#######################################################################
#
#                 Cambridge Crystallographic Data Centre
#                                CCDC 
#
#######################################################################
#
# If this CIF has been generated from an entry in the Cambridge 
# Structural Database, then it will include bibliographic, chemical, 
# crystal, experimental, refinement or atomic coordinate data resulting 
# from the CCDC's data processing and validation procedures.
#
#######################################################################

data_PEYSAN
_chemical_name_common            'Bisquaric acid'
_chemical_formula_moiety         'C8 H2 O6'
_chemical_name_systematic        4,4'-Bi(3-hydroxy-3-cyclobutene-1,2-dione)
_symmetry_cell_setting           tetragonal
_symmetry_space_group_name_H-M   'P 42/m n m'
_symmetry_Int_Tables_number      136
_space_group_name_Hall           '-P 4n 2n'
loop_
_symmetry_equiv_pos_site_id
_symmetry_equiv_pos_as_xyz
1 x,y,z
2 1/2-y,1/2+x,1/2+z
3 -x,-y,z
4 1/2+y,1/2-x,1/2+z
5 1/2-x,1/2+y,1/2+z
6 y,x,z
7 1/2+x,1/2-y,1/2+z
8 -y,-x,z
9 -x,-y,-z
10 1/2+y,1/2-x,1/2-z
11 x,y,-z
12 1/2-y,1/2+x,1/2-z
13 1/2+x,1/2-y,1/2-z
14 -y,-x,-z
15 1/2-x,1/2+y,1/2-z
16 y,x,-z
_cell_length_a                   7.958(1)
_cell_length_b                   7.958(1)
_cell_length_c                   5.348(1)
_cell_angle_alpha                90
_cell_angle_beta                 90
_cell_angle_gamma                90
_cell_volume                     338.688
_exptl_crystal_colour            yellow
_chemical_melting_point          'above 270 deg.C'
_cell_formula_units_Z            2
loop_
_atom_site_label
_atom_site_type_symbol
_atom_site_fract_x
_atom_site_fract_y
_atom_site_fract_z
O1 O 0.1437(4) 0.1437(4) 0.0000
O2 O 0.5542(3) 0.1489(3) 0.0000
C1 C 0.4410(5) 0.2568(5) 0.0000
C2 C 0.4363(5) 0.4363(5) 0.0000
C3 C 0.2501(5) 0.2501(5) 0.0000
C1E C 0.2568(5) 0.4410(5) 0.0000
C2H C 0.5637(5) 0.5637(5) 0.0000
O2E O 0.1489(3) 0.5542(3) 0.0000
C1H C 0.5590(5) 0.7432(5) 0.0000
C1M C 0.7432(5) 0.5590(5) 0.0000
O2H O 0.4458(3) 0.8511(3) 0.0000
C3H C 0.7499(5) 0.7499(5) 0.0000
O2M O 0.8511(3) 0.4458(3) 0.0000
O1H O 0.8563(4) 0.8563(4) 0.0000
loop_
_geom_bond_atom_site_label_1
_geom_bond_atom_site_label_2
_geom_bond_site_symmetry_1
_geom_bond_site_symmetry_2
O1 C3 1_555 1_555
O2 C1 1_555 1_555
C1 C2 1_555 1_555
C2 C1E 1_555 1_555
C3 C1 1_555 1_555
C1E C3 1_555 1_555
C2H C2 1_555 1_555
O2E C1E 1_555 1_555
C1H C2H 1_555 1_555
C1M C2H 1_555 1_555
O2H C1H 1_555 1_555
C3H C1H 1_555 1_555
O2M C1M 1_555 1_555
O1H C3H 1_555 1_555
C1M C3H 1_555 1_555

#END
