
#######################################################################
#
#                 Cambridge Crystallographic Data Centre
#                                CCDC 
#
#######################################################################
#
# If this CIF has been generated from an entry in the Cambridge 
# Structural Database, then it will include bibliographic, chemical, 
# crystal, experimental, refinement or atomic coordinate data resulting 
# from the CCDC's data processing and validation procedures.
#
#######################################################################

data_PEYVUM
_chemical_formula_moiety         'C27 H15 N3 O3'
_chemical_name_systematic        
4,4',4''-(Benzene-1,3,5-triyltris(oxy))tribenzonitrile
_symmetry_cell_setting           orthorhombic
_symmetry_space_group_name_H-M   'P n a 21'
_symmetry_Int_Tables_number      33
_space_group_name_Hall           'P 2c -2n'
loop_
_symmetry_equiv_pos_site_id
_symmetry_equiv_pos_as_xyz
1 x,y,z
2 -x,-y,1/2+z
3 1/2+x,1/2-y,z
4 1/2-x,1/2+y,1/2+z
_cell_length_a                   14.562(3)
_cell_length_b                   8.8372(15)
_cell_length_c                   35.188(6)
_cell_angle_alpha                90
_cell_angle_beta                 90
_cell_angle_gamma                90
_cell_volume                     4528.25
_exptl_crystal_colour            'light brown'
_exptl_crystal_description       Needle
_cell_formula_units_Z            8
loop_
_atom_site_label
_atom_site_type_symbol
_atom_site_fract_x
_atom_site_fract_y
_atom_site_fract_z
O1 O -0.2385(4) -0.5279(5) 0.27344(16)
O2 O -0.4161(4) -0.1894(6) 0.34964(18)
O3 O -0.5551(4) -0.6159(7) 0.28868(15)
N1 N 0.0785(5) -0.0944(9) 0.1886(2)
N2 N -0.4292(6) -0.2504(12) 0.5399(3)
N3 N -0.8550(7) -0.7835(9) 0.4268(4)
C1 C -0.3215(6) -0.4781(9) 0.2878(2)
C2 C -0.3256(5) -0.3522(9) 0.3109(2)
H1 H -0.2739 -0.2936 0.3159
C3 C -0.4108(7) -0.3175(9) 0.3262(2)
C4 C -0.4866(5) -0.4037(10) 0.3199(2)
H2 H -0.5425 -0.3783 0.3311
C5 C -0.4798(6) -0.5277(10) 0.2972(2)
C6 C -0.3960(6) -0.5665(9) 0.2816(2)
H3 H -0.3908 -0.6534 0.2668
C7 C -0.1761(6) -0.4293(9) 0.2584(2)
C8 C -0.2028(6) -0.3029(10) 0.2383(3)
H4 H -0.2645 -0.2767 0.2364
C9 C -0.1359(6) -0.2159(9) 0.2211(3)
H5 H -0.1525 -0.1287 0.2080
C10 C -0.0437(5) -0.2574(9) 0.2231(3)
C11 C -0.0199(5) -0.3828(9) 0.2439(2)
H6 H 0.0415 -0.4106 0.2459
C12 C -0.0862(6) -0.4672(9) 0.2618(2)
H7 H -0.0694 -0.5508 0.2763
C13 C 0.0245(6) -0.1664(9) 0.2037(2)
C14 C -0.4232(5) -0.2099(11) 0.3886(3)
C15 C -0.4104(5) -0.3473(10) 0.4062(3)
H8 H -0.3997 -0.4338 0.3919
C16 C -0.4136(5) -0.3562(11) 0.4453(3)
H9 H -0.4048 -0.4489 0.4573
C17 C -0.4294(6) -0.2302(12) 0.4665(3)
C18 C -0.4399(6) -0.0928(12) 0.4492(3)
H10 H -0.4487 -0.0061 0.4637
C19 C -0.4372(5) -0.0838(9) 0.4102(3)
H11 H -0.4450 0.0095 0.3984
C20 C -0.4303(7) -0.2399(11) 0.5075(4)
C21 C -0.6149(6) -0.6520(9) 0.3187(2)
C22 C -0.5835(7) -0.7079(11) 0.3521(3)
H12 H -0.5209 -0.7232 0.3556
C23 C -0.6457(8) -0.7429(9) 0.3815(4)
H13 H -0.6252 -0.7781 0.4049
C24 C -0.7391(7) -0.7225(9) 0.3742(3)
C25 C -0.7695(6) -0.6596(11) 0.3404(3)
H14 H -0.8317 -0.6418 0.3363
C26 C -0.7066(7) -0.6243(10) 0.3130(2)
H15 H -0.7260 -0.5809 0.2903
C27 C -0.8045(8) -0.7573(9) 0.4038(4)
O4 O 0.6789(4) 0.3248(6) 0.06439(16)
O5 O 0.8211(4) -0.1062(7) 0.12227(14)
O6 O 0.5046(4) -0.0277(5) 0.13955(17)
N4 N 0.6726(5) 0.2938(11) -0.1244(3)
N5 N 1.1082(6) -0.2996(9) -0.0180(3)
N6 N 0.1832(4) 0.4037(9) 0.22309(19)
C28 C 0.6734(5) 0.1932(10) 0.0853(2)
C29 C 0.7514(5) 0.1104(10) 0.0922(2)
H16 H 0.8080 0.1395 0.0824
C30 C 0.7428(6) -0.0162(9) 0.1141(2)
C31 C 0.6626(6) -0.0613(8) 0.1312(2)
H17 H 0.6596 -0.1465 0.1467
C32 C 0.5863(6) 0.0286(9) 0.1240(2)
C33 C 0.5912(5) 0.1549(8) 0.1022(2)
H18 H 0.5395 0.2151 0.0986
C34 C 0.6803(5) 0.3068(10) 0.0257(2)
C35 C 0.6935(5) 0.4381(9) 0.0053(3)
H19 H 0.7039 0.5292 0.0178
C36 C 0.6913(5) 0.4333(11) -0.0331(3)
H20 H 0.6969 0.5231 -0.0467
C37 C 0.6811(5) 0.3005(11) -0.0526(3)
C38 C 0.6716(5) 0.1687(10) -0.0316(2)
H21 H 0.6658 0.0765 -0.0441
C39 C 0.6705(5) 0.1721(10) 0.0068(2)
H22 H 0.6630 0.0828 0.0204
C40 C 0.6787(6) 0.2948(12) -0.0925(3)
C41 C 0.8771(6) -0.1410(9) 0.0902(3)
C42 C 0.9713(6) -0.1325(9) 0.0972(2)
H23 H 0.9953 -0.0992 0.1203
C43 C 1.0271(6) -0.1785(12) 0.0667(3)
H24 H 1.0904 -0.1773 0.0703
C44 C 0.9965(7) -0.2223(9) 0.0339(3)
C45 C 0.9037(8) -0.2225(10) 0.0292(3)
H25 H 0.8806 -0.2542 0.0058
C46 C 0.8443(7) -0.1806(11) 0.0556(3)
H26 H 0.7817 -0.1784 0.0505
C47 C 1.0601(8) -0.2690(10) 0.0050(4)
C48 C 0.4396(6) 0.0721(8) 0.1542(2)
C49 C 0.4644(5) 0.1944(10) 0.1751(2)
H27 H 0.5262 0.2199 0.1773
C50 C 0.3074(5) 0.2427(8) 0.1894(2)
C51 C 0.3985(6) 0.2820(9) 0.1931(2)
H28 H 0.4155 0.3658 0.2075
C52 C 0.2828(5) 0.1160(10) 0.1683(2)
H29 H 0.2214 0.0891 0.1658
C53 C 0.3497(6) 0.0313(9) 0.1512(2)
H30 H 0.3337 -0.0546 0.1374
C54 C 0.2363(6) 0.3321(10) 0.2071(2)
loop_
_geom_bond_atom_site_label_1
_geom_bond_atom_site_label_2
_geom_bond_site_symmetry_1
_geom_bond_site_symmetry_2
O1 C1 1_555 1_555
O2 C3 1_555 1_555
O3 C5 1_555 1_555
N1 C13 1_555 1_555
N2 C20 1_555 1_555
N3 C27 1_555 1_555
C1 C2 1_555 1_555
C2 H1 1_555 1_555
C3 C2 1_555 1_555
C4 C3 1_555 1_555
H2 C4 1_555 1_555
C5 C4 1_555 1_555
C6 C1 1_555 1_555
H3 C6 1_555 1_555
C7 O1 1_555 1_555
C8 C7 1_555 1_555
H4 C8 1_555 1_555
C9 C8 1_555 1_555
H5 C9 1_555 1_555
C10 C9 1_555 1_555
C11 C10 1_555 1_555
H6 C11 1_555 1_555
C12 C7 1_555 1_555
H7 C12 1_555 1_555
C13 C10 1_555 1_555
C14 O2 1_555 1_555
C15 C14 1_555 1_555
H8 C15 1_555 1_555
C16 C15 1_555 1_555
H9 C16 1_555 1_555
C17 C16 1_555 1_555
C18 C17 1_555 1_555
H10 C18 1_555 1_555
C19 C14 1_555 1_555
H11 C19 1_555 1_555
C20 C17 1_555 1_555
C21 O3 1_555 1_555
C22 C21 1_555 1_555
H12 C22 1_555 1_555
C23 C22 1_555 1_555
H13 C23 1_555 1_555
C24 C23 1_555 1_555
C25 C24 1_555 1_555
H14 C25 1_555 1_555
C26 C21 1_555 1_555
H15 C26 1_555 1_555
C27 C24 1_555 1_555
O4 C28 1_555 1_555
O5 C30 1_555 1_555
O6 C32 1_555 1_555
N4 C40 1_555 1_555
N5 C47 1_555 1_555
N6 C54 1_555 1_555
C28 C29 1_555 1_555
C29 H16 1_555 1_555
C30 C29 1_555 1_555
C31 C30 1_555 1_555
H17 C31 1_555 1_555
C32 C31 1_555 1_555
C33 C28 1_555 1_555
H18 C33 1_555 1_555
C34 O4 1_555 1_555
C35 C34 1_555 1_555
H19 C35 1_555 1_555
C36 C35 1_555 1_555
H20 C36 1_555 1_555
C37 C36 1_555 1_555
C38 C37 1_555 1_555
H21 C38 1_555 1_555
C39 C34 1_555 1_555
H22 C39 1_555 1_555
C40 C37 1_555 1_555
C41 O5 1_555 1_555
C42 C41 1_555 1_555
H23 C42 1_555 1_555
C43 C42 1_555 1_555
H24 C43 1_555 1_555
C44 C43 1_555 1_555
C45 C44 1_555 1_555
H25 C45 1_555 1_555
C46 C41 1_555 1_555
H26 C46 1_555 1_555
C47 C44 1_555 1_555
C48 O6 1_555 1_555
C49 C48 1_555 1_555
H27 C49 1_555 1_555
C50 C51 1_555 1_555
C51 C49 1_555 1_555
H28 C51 1_555 1_555
C52 C50 1_555 1_555
H29 C52 1_555 1_555
C53 C48 1_555 1_555
H30 C53 1_555 1_555
C54 C50 1_555 1_555
C5 C6 1_555 1_555
C11 C12 1_555 1_555
C18 C19 1_555 1_555
C25 C26 1_555 1_555
C32 C33 1_555 1_555
C38 C39 1_555 1_555
C45 C46 1_555 1_555
C52 C53 1_555 1_555

#END
