
#######################################################################
#
#                 Cambridge Crystallographic Data Centre
#                                CCDC 
#
#######################################################################
#
# If this CIF has been generated from an entry in the Cambridge 
# Structural Database, then it will include bibliographic, chemical, 
# crystal, experimental, refinement or atomic coordinate data resulting 
# from the CCDC's data processing and validation procedures.
#
#######################################################################

data_PEYWEV
_chemical_formula_moiety         'C24 H24 N2 O4'
_chemical_name_systematic        
'DL-diethyl 2,3-dicyano-2,3-bis(p-tolyl)succinate'
_symmetry_cell_setting           triclinic
_symmetry_space_group_name_H-M   'P -1'
_symmetry_Int_Tables_number      2
_space_group_name_Hall           '-P 1'
loop_
_symmetry_equiv_pos_site_id
_symmetry_equiv_pos_as_xyz
1 x,y,z
2 -x,-y,-z
_cell_length_a                   9.006(1)
_cell_length_b                   11.763(1)
_cell_length_c                   14.179(2)
_cell_angle_alpha                111.51(1)
_cell_angle_beta                 95.07(1)
_cell_angle_gamma                100.37(1)
_cell_volume                     1354.95
_cell_formula_units_Z            2
loop_
_atom_site_label
_atom_site_type_symbol
_atom_site_fract_x
_atom_site_fract_y
_atom_site_fract_z
O1 O 0.2554(5) -0.4031(3) 0.5860(3)
O2 O 0.7069(4) -0.0123(3) 0.6778(2)
O3 O 0.5073(5) -0.3226(4) 0.6397(3)
O4 O 0.5073(5) -0.1281(4) 0.5514(3)
N1 N 0.6587(6) -0.0970(5) 0.8739(4)
N2 N 0.1354(6) -0.1543(4) 0.5602(3)
C1 C 0.3305(6) -0.1867(4) 0.6905(3)
C2 C 0.4762(6) -0.0758(4) 0.7286(3)
C3 C 0.3768(7) -0.3137(5) 0.6350(4)
C4 C 0.5656(6) -0.0775(4) 0.6399(4)
C5 C 0.285(1) -0.5251(6) 0.5274(6)
C6 C 0.9459(7) 0.0939(6) 0.6585(5)
C7 C 0.8006(7) 0.0080(6) 0.5994(4)
C8 C 0.214(2) -0.612(1) 0.526(1)
C9 C 0.2226(6) -0.1682(4) 0.6146(4)
C10 C 0.5814(6) -0.0889(5) 0.8109(4)
C11 C 0.2506(6) -0.1938(4) 0.7796(4)
C12 C 0.4344(6) 0.0526(4) 0.7726(4)
C13 C 0.4219(6) 0.1081(5) 0.8747(4)
C14 C 0.3022(6) -0.2523(5) 0.8413(4)
C15 C 0.2348(7) -0.2527(5) 0.9247(7)
C16 C 0.3785(7) 0.2205(5) 0.9116(4)
C17 C 0.1134(7) -0.1963(5) 0.9495(4)
C18 C 0.3496(7) 0.2815(5) 0.8489(5)
C19 C 0.0606(6) -0.1409(5) 0.8869(4)
C20 C 0.3580(7) 0.2251(5) 0.7476(4)
C21 C 0.1263(6) -0.1398(5) 0.8033(4)
C22 C 0.4006(7) 0.1126(5) 0.7083(4)
C23 C 0.3052(9) 0.4071(6) 0.8917(6)
C24 C 0.0445(9) -0.1967(7) 1.0404(5)
loop_
_geom_bond_atom_site_label_1
_geom_bond_atom_site_label_2
_geom_bond_site_symmetry_1
_geom_bond_site_symmetry_2
O1 C3 1_555 1_555
O2 C4 1_555 1_555
O3 C3 1_555 1_555
O4 C4 1_555 1_555
N1 C10 1_555 1_555
N2 C9 1_555 1_555
C1 C2 1_555 1_555
C2 C4 1_555 1_555
C3 C1 1_555 1_555
C5 O1 1_555 1_555
C6 C7 1_555 1_555
C7 O2 1_555 1_555
C8 C5 1_555 1_555
C9 C1 1_555 1_555
C10 C2 1_555 1_555
C11 C1 1_555 1_555
C12 C2 1_555 1_555
C13 C12 1_555 1_555
C14 C11 1_555 1_555
C15 C14 1_555 1_555
C16 C13 1_555 1_555
C17 C15 1_555 1_555
C18 C16 1_555 1_555
C19 C17 1_555 1_555
C20 C18 1_555 1_555
C21 C11 1_555 1_555
C22 C12 1_555 1_555
C23 C18 1_555 1_555
C24 C17 1_555 1_555
C19 C21 1_555 1_555
C20 C22 1_555 1_555

#END
