
#######################################################################
#
#                 Cambridge Crystallographic Data Centre
#                                CCDC 
#
#######################################################################
#
# If this CIF has been generated from an entry in the Cambridge 
# Structural Database, then it will include bibliographic, chemical, 
# crystal, experimental, refinement or atomic coordinate data resulting 
# from the CCDC's data processing and validation procedures.
#
#######################################################################

data_PEYZAX
_chemical_formula_moiety         'C36 H38 N6,1.5(C2 H3 N1),H2 O1'
_chemical_name_systematic        
'5,5,10,15,15,20-hexamethyl-10,20-bis(pyridin-4-yl)calix[4]pyrrole acetonitrile solvate monohydrate'
_symmetry_cell_setting           monoclinic
_symmetry_space_group_name_H-M   'C 2/c'
_symmetry_Int_Tables_number      15
_space_group_name_Hall           '-C 2yn'
loop_
_symmetry_equiv_pos_site_id
_symmetry_equiv_pos_as_xyz
1 x,y,z
2 -x,y,1/2-z
3 1/2+x,1/2+y,z
4 1/2-x,1/2+y,1/2-z
5 -x,-y,-z
6 x,-y,1/2+z
7 1/2-x,1/2-y,-z
8 1/2+x,1/2-y,1/2+z
_cell_length_a                   31.768(6)
_cell_length_b                   10.7312(19)
_cell_length_c                   20.889(4)
_cell_angle_alpha                90
_cell_angle_beta                 103.448(5)
_cell_angle_gamma                90
_cell_volume                     6925.99
_exptl_crystal_colour            colorless
_exptl_crystal_description       prism
_cell_formula_units_Z            8
loop_
_atom_site_label
_atom_site_type_symbol
_atom_site_fract_x
_atom_site_fract_y
_atom_site_fract_z
C1 C 0.93153(7) 0.3460(2) 0.61679(11)
C2 C 0.95318(8) 0.2993(2) 0.67583(12)
H1 H 0.983333 0.282436 0.688420
C3 C 0.92294(7) 0.2802(2) 0.71541(11)
H2 H 0.929248 0.247979 0.758952
C4 C 0.88322(7) 0.31645(19) 0.67974(10)
C5 C 0.83941(7) 0.31770(19) 0.69680(10)
C6 C 0.82684(7) 0.44833(19) 0.71259(10)
C7 C 0.82171(7) 0.4999(2) 0.77033(10)
H3 H 0.824816 0.457583 0.811103
C8 C 0.81101(7) 0.6268(2) 0.75871(11)
H4 H 0.805812 0.684833 0.790360
C9 C 0.80944(6) 0.6519(2) 0.69414(10)
C10 C 0.80049(7) 0.7723(2) 0.65530(10)
C11 C 0.84124(7) 0.82263(19) 0.63898(10)
C12 C 0.86867(7) 0.9155(2) 0.66693(10)
H5 H 0.866514 0.962724 0.704492
C13 C 0.90093(7) 0.9299(2) 0.63075(11)
H6 H 0.923810 0.989007 0.639343
C14 C 0.89333(7) 0.84392(19) 0.58147(10)
C15 C 0.91473(7) 0.82453(19) 0.52422(10)
C16 C 0.91215(7) 0.68831(19) 0.50425(10)
C17 C 0.89208(7) 0.6294(2) 0.44711(11)
H7 H 0.875341 0.668323 0.408715
C18 C 0.90071(7) 0.4996(2) 0.45539(11)
H8 H 0.890796 0.436611 0.423510
C19 C 0.92594(7) 0.48153(19) 0.51765(10)
C20 C 0.94541(7) 0.3646(2) 0.55286(11)
C21 C 0.84185(8) 0.2344(2) 0.75793(10)
H9 H 0.849948 0.149531 0.748322
H10 H 0.813558 0.233003 0.769118
H11 H 0.863599 0.267941 0.795117
C22 C 0.78353(8) 0.8700(2) 0.69712(11)
H12 H 0.757078 0.838889 0.708120
H13 H 0.777185 0.947757 0.672140
H14 H 0.805551 0.885514 0.737728
C23 C 0.76532(7) 0.7514(2) 0.59156(11)
H15 H 0.775540 0.689907 0.563950
H16 H 0.759225 0.830267 0.567540
H17 H 0.738850 0.720709 0.602682
C24 C 0.96234(7) 0.8652(2) 0.54637(11)
H18 H 0.963708 0.954618 0.556118
H19 H 0.977215 0.848107 0.511134
H20 H 0.976416 0.818721 0.585950
C25 C 0.99521(7) 0.3712(2) 0.56708(13)
H21 H 1.004223 0.383207 0.525717
H22 H 1.007558 0.293388 0.587853
H23 H 1.005489 0.441223 0.596715
C26 C 0.92999(8) 0.2513(2) 0.50781(12)
H24 H 0.898376 0.245319 0.498864
H25 H 0.942902 0.175050 0.529739
H26 H 0.938917 0.261737 0.466271
C27 C 0.80437(7) 0.25821(19) 0.64138(10)
C28 C 0.76086(7) 0.2808(2) 0.63664(10)
H27 H 0.752207 0.340367 0.664695
C29 C 0.73016(8) 0.2168(2) 0.59125(11)
H28 H 0.700548 0.234107 0.589164
C30 C 0.78133(8) 0.1112(2) 0.55400(11)
H29 H 0.788929 0.051978 0.524798
C31 C 0.81452(7) 0.1705(2) 0.59810(10)
H30 H 0.843860 0.151744 0.598866
C32 C 0.89088(8) 0.9019(2) 0.46454(10)
C33 C 0.84657(9) 0.9127(3) 0.44864(13)
H31 H 0.830107 0.870514 0.474545
C34 C 0.82554(10) 0.9836(3) 0.39571(14)
H32 H 0.794806 0.985790 0.385904
C35 C 0.88785(12) 1.0366(3) 0.37196(13)
H33 H 0.903348 1.079558 0.344936
C36 C 0.91168(9) 0.9654(2) 0.42372(12)
H34 H 0.942275 0.960769 0.430768
N1 N 0.88897(6) 0.35763(16) 0.61995(9)
N2 N 0.81921(5) 0.54236(16) 0.66629(9)
N3 N 0.85694(6) 0.77826(17) 0.58689(9)
N4 N 0.93266(6) 0.59681(16) 0.54687(9)
N5 N 0.73951(6) 0.13155(18) 0.54980(9)
N6 N 0.84538(10) 1.0487(2) 0.35781(11)
H35 H 0.8685(7) 0.388(2) 0.5877(11)
H36 H 0.8464(7) 0.712(2) 0.5629(11)
H37 H 0.8206(7) 0.5352(19) 0.6242(11)
H38 H 0.9501(8) 0.612(2) 0.5886(12)
C37 C 1.03911(8) 0.6371(2) 0.70931(13)
C38 C 1.07634(8) 0.6231(3) 0.76404(13)
H39 H 1.102638 0.616548 0.747320
H40 H 1.073022 0.547561 0.788753
H41 H 1.078555 0.695766 0.793064
N7 N 1.00919(8) 0.6470(2) 0.66707(12)
O1 O 0.67683(6) -0.01155(16) 0.47312(8)
H42 H 0.6601(9) -0.021(3) 0.4985(14)
H43 H 0.7003(11) 0.042(3) 0.4972(16)
N8? N 0.9746(2) 1.0282(7) 0.8174(4)
C39? C 0.9890(2) 0.9914(8) 0.7757(4)
C40? C 1.0128(6) 0.972(2) 0.7246(8)
H44? H 1.004359 1.035288 0.690298
H45? H 1.006195 0.888873 0.705243
H46? H 1.043980 0.978131 0.743967
loop_
_geom_bond_atom_site_label_1
_geom_bond_atom_site_label_2
_geom_bond_site_symmetry_1
_geom_bond_site_symmetry_2
C1 C2 1_555 1_555
C2 H1 1_555 1_555
C3 C2 1_555 1_555
H2 C3 1_555 1_555
C4 C3 1_555 1_555
C5 C4 1_555 1_555
C6 C5 1_555 1_555
C7 C6 1_555 1_555
H3 C7 1_555 1_555
C8 C7 1_555 1_555
H4 C8 1_555 1_555
C9 C8 1_555 1_555
C10 C9 1_555 1_555
C11 C10 1_555 1_555
C12 C11 1_555 1_555
H5 C12 1_555 1_555
C13 C12 1_555 1_555
H6 C13 1_555 1_555
C14 C13 1_555 1_555
C15 C14 1_555 1_555
C16 C15 1_555 1_555
C17 C16 1_555 1_555
H7 C17 1_555 1_555
C18 C17 1_555 1_555
H8 C18 1_555 1_555
C19 C18 1_555 1_555
C20 C1 1_555 1_555
C21 C5 1_555 1_555
H9 C21 1_555 1_555
H10 C21 1_555 1_555
H11 C21 1_555 1_555
C22 C10 1_555 1_555
H12 C22 1_555 1_555
H13 C22 1_555 1_555
H14 C22 1_555 1_555
C23 C10 1_555 1_555
H15 C23 1_555 1_555
H16 C23 1_555 1_555
H17 C23 1_555 1_555
C24 C15 1_555 1_555
H18 C24 1_555 1_555
H19 C24 1_555 1_555
H20 C24 1_555 1_555
C25 C20 1_555 1_555
H21 C25 1_555 1_555
H22 C25 1_555 1_555
H23 C25 1_555 1_555
C26 C20 1_555 1_555
H24 C26 1_555 1_555
H25 C26 1_555 1_555
H26 C26 1_555 1_555
C27 C5 1_555 1_555
C28 C27 1_555 1_555
H27 C28 1_555 1_555
C29 C28 1_555 1_555
H28 C29 1_555 1_555
C30 H29 1_555 1_555
C31 C27 1_555 1_555
H30 C31 1_555 1_555
C32 C15 1_555 1_555
C33 C32 1_555 1_555
H31 C33 1_555 1_555
C34 C33 1_555 1_555
H32 C34 1_555 1_555
C35 H33 1_555 1_555
C36 C32 1_555 1_555
H34 C36 1_555 1_555
N1 C1 1_555 1_555
N2 C6 1_555 1_555
N3 C11 1_555 1_555
N4 C16 1_555 1_555
N5 C29 1_555 1_555
N6 C34 1_555 1_555
H35 N1 1_555 1_555
H36 N3 1_555 1_555
H37 N2 1_555 1_555
H38 N4 1_555 1_555
C37 C38 1_555 1_555
C38 H39 1_555 1_555
H40 C38 1_555 1_555
H41 C38 1_555 1_555
N7 C37 1_555 1_555
O1 H42 1_555 1_555
H43 O1 1_555 1_555
C4 N1 1_555 1_555
C9 N2 1_555 1_555
C14 N3 1_555 1_555
C19 C20 1_555 1_555
C19 N4 1_555 1_555
C30 C31 1_555 1_555
C30 N5 1_555 1_555
C35 C36 1_555 1_555
C35 N6 1_555 1_555

#END
