
#######################################################################
#
#                 Cambridge Crystallographic Data Centre
#                                CCDC 
#
#######################################################################
#
# If this CIF has been generated from an entry in the Cambridge 
# Structural Database, then it will include bibliographic, chemical, 
# crystal, experimental, refinement or atomic coordinate data resulting 
# from the CCDC's data processing and validation procedures.
#
#######################################################################

data_PEYZAU
_chemical_formula_moiety         'C11 H10 N1 O5 P1'
_chemical_name_systematic        
1-Oxo-4-(2'-benzoxazolyl)-2,6,7-trioxa-1-phosphabicyclo(2.2.2)octane
_symmetry_cell_setting           monoclinic
_symmetry_space_group_name_H-M   'P 21/c'
_symmetry_Int_Tables_number      14
_space_group_name_Hall           '-P 2ybc'
loop_
_symmetry_equiv_pos_site_id
_symmetry_equiv_pos_as_xyz
1 x,y,z
2 -x,1/2+y,1/2-z
3 -x,-y,-z
4 x,1/2-y,1/2+z
_cell_length_a                   6.176(1)
_cell_length_b                   16.105(2)
_cell_length_c                   11.354(1)
_cell_angle_alpha                90
_cell_angle_beta                 92.52(1)
_cell_angle_gamma                90
_cell_volume                     1128.23
_chemical_melting_point          '300 deg.C'
_cell_formula_units_Z            4
loop_
_atom_site_label
_atom_site_type_symbol
_atom_site_fract_x
_atom_site_fract_y
_atom_site_fract_z
P1 P 0.4392(1) 0.1429(1) 0.4661(1)
O1 O 0.5206(6) 0.1498(3) 0.3477(2)
O2 O 0.2617(7) 0.0752(3) 0.4787(3)
O3 O 0.3352(8) 0.2224(2) 0.5137(3)
O4 O 0.6118(5) 0.1195(4) 0.5620(3)
O5 O 0.3230(4) 0.0873(2) 0.8867(2)
N1 N 0.0121(3) 0.1465(2) 0.8229(2)
C1 C 0.1838(9) 0.0644(4) 0.5974(3)
C2 C 0.5329(6) 0.1110(7) 0.6800(3)
C3 C 0.252(1) 0.2151(3) 0.6331(3)
C4 C 0.2936(4) 0.1283(2) 0.6777(2)
C5 C 0.2096(5) 0.1196(2) 0.8001(2)
C6 C -0.0019(5) 0.1283(2) 0.9425(2)
C7 C 0.1880(5) 0.0923(2) 0.9814(2)
C8 C 0.2294(6) 0.0664(2) 1.0971(3)
C9 C 0.0619(6) 0.0818(3) 1.1730(3)
C10 C -0.1323(6) 0.1184(3) 1.1328(3)
C11 C -0.1712(5) 0.1417(3) 1.0166(3)
loop_
_geom_bond_atom_site_label_1
_geom_bond_atom_site_label_2
_geom_bond_site_symmetry_1
_geom_bond_site_symmetry_2
P1 O1 1_555 1_555
O2 P1 1_555 1_555
O3 P1 1_555 1_555
O4 P1 1_555 1_555
O5 C5 1_555 1_555
N1 C5 1_555 1_555
C1 O2 1_555 1_555
C2 O4 1_555 1_555
C3 O3 1_555 1_555
C4 C1 1_555 1_555
C5 C4 1_555 1_555
C6 N1 1_555 1_555
C7 O5 1_555 1_555
C8 C7 1_555 1_555
C9 C8 1_555 1_555
C10 C9 1_555 1_555
C11 C6 1_555 1_555
C2 C4 1_555 1_555
C3 C4 1_555 1_555
C6 C7 1_555 1_555
C10 C11 1_555 1_555

#END
