
#######################################################################
#
#                 Cambridge Crystallographic Data Centre
#                                CCDC 
#
#######################################################################
#
# If this CIF has been generated from an entry in the Cambridge 
# Structural Database, then it will include bibliographic, chemical, 
# crystal, experimental, refinement or atomic coordinate data resulting 
# from the CCDC's data processing and validation procedures.
#
#######################################################################

data_PEZCEE
_chemical_formula_moiety         'C24 H20 N1 O5 S1'
_chemical_name_systematic        
'(2-Oxido-4-phenyl-5-(2-thienylcarbonyl)-1,2-oxazolidin-3-yl)methyl 3-phenylacrylate'
_symmetry_cell_setting           triclinic
_symmetry_space_group_name_H-M   'P 1'
_symmetry_Int_Tables_number      1
_space_group_name_Hall           'P 1'
loop_
_symmetry_equiv_pos_site_id
_symmetry_equiv_pos_as_xyz
1 x,y,z
_cell_length_a                   5.737(2)
_cell_length_b                   8.686(3)
_cell_length_c                   10.931(4)
_cell_angle_alpha                83.072(6)
_cell_angle_beta                 79.957(7)
_cell_angle_gamma                75.074(7)
_cell_volume                     516.622
_exptl_crystal_colour            colorless
_exptl_crystal_description       block
_cell_formula_units_Z            1
loop_
_atom_site_label
_atom_site_type_symbol
_atom_site_fract_x
_atom_site_fract_y
_atom_site_fract_z
C1 C 0.4513(11) 0.2708(7) 0.9281(6)
H1 H 0.3271 0.2358 0.9815
C2 C 0.5398(12) 0.2177(7) 0.8162(5)
H2 H 0.4790 0.1448 0.7832
C3 C 0.7342(9) 0.2815(5) 0.7516(5)
H3 H 0.8205 0.2552 0.6736
C4 C 0.7753(9) 0.3921(6) 0.8255(4)
C5 C 0.9453(10) 0.4955(6) 0.7951(5)
C6 C 1.0750(8) 0.5033(6) 0.6601(4)
H4 H 1.1274 0.3967 0.6292
C7 C 0.8998(8) 0.6190(6) 0.5772(4)
H5 H 0.7308 0.6292 0.6178
C8 C 0.9736(9) 0.7698(6) 0.5847(4)
C9 C 0.9246(9) 0.5732(5) 0.4450(4)
C10 C 1.0998(10) 0.6111(7) 0.3508(4)
H6 H 1.2084 0.6657 0.3682
C11 C 1.1157(11) 0.5696(7) 0.2324(5)
H7 H 1.2324 0.5989 0.1700
C12 C 0.9625(11) 0.4856(7) 0.2042(5)
H8 H 0.9764 0.4561 0.1237
C13 C 0.7895(10) 0.4461(7) 0.2960(5)
H9 H 0.6832 0.3901 0.2781
C14 C 0.7711(11) 0.4887(7) 0.4156(5)
H10 H 0.6533 0.4598 0.4776
C15 C 0.8324(11) 0.9358(6) 0.5645(5)
H11 H 0.7083 0.9640 0.6360
H12 H 0.9392 1.0082 0.5539
C16 C 0.5196(11) 1.0692(6) 0.4486(5)
C17 C 0.3993(11) 1.0616(7) 0.3434(5)
H13 H 0.2603 1.1415 0.3313
C18 C 0.4742(10) 0.9480(6) 0.2627(5)
H14 H 0.6138 0.8687 0.2750
C19 C 0.3553(10) 0.9380(6) 0.1569(5)
C20 C 0.1118(10) 1.0165(7) 0.1497(5)
H15 H 0.0181 1.0752 0.2146
C21 C 0.0117(11) 1.0067(7) 0.0464(6)
H16 H -0.1499 1.0601 0.0424
C22 C 0.1436(12) 0.9198(7) -0.0519(6)
H17 H 0.0739 0.9145 -0.1215
C23 C 0.3823(11) 0.8413(6) -0.0427(5)
H18 H 0.4752 0.7828 -0.1079
C24 C 0.4859(11) 0.8470(6) 0.0593(5)
H19 H 0.6455 0.7895 0.0638
N1 N 1.1800(7) 0.7409(5) 0.6253(3)
O1 O 0.9709(7) 0.5829(5) 0.8673(3)
O2 O 1.2778(6) 0.5715(4) 0.6523(3)
O3 O 1.3101(7) 0.8293(5) 0.6435(4)
O4 O 0.7207(6) 0.9492(4) 0.4554(3)
O5 O 0.4504(8) 1.1693(4) 0.5221(4)
S1 S 0.5839(3) 0.40621(17) 0.96402(13)
loop_
_geom_bond_atom_site_label_1
_geom_bond_atom_site_label_2
_geom_bond_site_symmetry_1
_geom_bond_site_symmetry_2
C1 H1 1_555 1_555
C2 C1 1_555 1_555
H2 C2 1_555 1_555
C3 C2 1_555 1_555
H3 C3 1_555 1_555
C4 C3 1_555 1_555
C5 C4 1_555 1_555
C6 C5 1_555 1_555
H4 C6 1_555 1_555
C7 C6 1_555 1_555
H5 C7 1_555 1_555
C8 C7 1_555 1_555
C9 C7 1_555 1_555
C10 C9 1_555 1_555
H6 C10 1_555 1_555
C11 C10 1_555 1_555
H7 C11 1_555 1_555
C12 C11 1_555 1_555
H8 C12 1_555 1_555
C13 C12 1_555 1_555
H9 C13 1_555 1_555
C14 C9 1_555 1_555
H10 C14 1_555 1_555
C15 C8 1_555 1_555
H11 C15 1_555 1_555
H12 C15 1_555 1_555
C16 C17 1_555 1_555
C17 H13 1_555 1_555
C18 C17 1_555 1_555
H14 C18 1_555 1_555
C19 C18 1_555 1_555
C20 C19 1_555 1_555
H15 C20 1_555 1_555
C21 C20 1_555 1_555
H16 C21 1_555 1_555
C22 C21 1_555 1_555
H17 C22 1_555 1_555
C23 C22 1_555 1_555
H18 C23 1_555 1_555
C24 C19 1_555 1_555
H19 C24 1_555 1_555
N1 C8 1_555 1_555
O1 C5 1_555 1_555
O2 C6 1_555 1_555
O3 N1 1_555 1_555
O4 C15 1_555 1_555
O5 C16 1_555 1_555
S1 C1 1_555 1_555
C4 S1 1_555 1_555
C13 C14 1_555 1_555
C16 O4 1_555 1_555
C23 C24 1_555 1_555
N1 O2 1_555 1_555

#END
