
#######################################################################
#
#                 Cambridge Crystallographic Data Centre
#                                CCDC 
#
#######################################################################
#
# If this CIF has been generated from an entry in the Cambridge 
# Structural Database, then it will include bibliographic, chemical, 
# crystal, experimental, refinement or atomic coordinate data resulting 
# from the CCDC's data processing and validation procedures.
#
#######################################################################

data_PEZCAZ
_chemical_formula_moiety         'C32 H38 N2'
_chemical_name_systematic        
1,1'-(1H,1'H-1,1'-Bi-indene-3,3'-diyldiethane-2,1-diyl)dipiperidine
_symmetry_cell_setting           triclinic
_symmetry_space_group_name_H-M   'P -1'
_symmetry_Int_Tables_number      2
_space_group_name_Hall           '-P 1'
loop_
_symmetry_equiv_pos_site_id
_symmetry_equiv_pos_as_xyz
1 x,y,z
2 -x,-y,-z
_cell_length_a                   5.5969(15)
_cell_length_b                   10.970(3)
_cell_length_c                   11.163(3)
_cell_angle_alpha                70.031(4)
_cell_angle_beta                 86.755(5)
_cell_angle_gamma                89.162(5)
_cell_volume                     643.138
_cell_formula_units_Z            1
loop_
_atom_site_label
_atom_site_type_symbol
_atom_site_fract_x
_atom_site_fract_y
_atom_site_fract_z
N1 N 0.2795(3) 0.46838(18) 0.26978(16)
C1 C 0.5907(4) 0.1755(2) 0.4982(2)
C2 C 0.7809(4) 0.1445(2) 0.4356(2)
H1 H 0.8287 0.1899 0.3511
C3 C 0.9031(4) 0.0303(2) 0.5176(2)
C4 C 0.7678(4) -0.0047(2) 0.6435(2)
C5 C 0.5754(4) 0.0823(2) 0.6292(2)
C6 C 0.4109(4) 0.0729(2) 0.7275(2)
H2 H 0.2842 0.1308 0.7160
C7 C 0.4356(4) -0.0236(3) 0.8440(2)
H3 H 0.3245 -0.0313 0.9114
C8 C 0.6249(5) -0.1085(3) 0.8603(2)
H4 H 0.6407 -0.1727 0.9393
C9 C 0.7919(4) -0.1000(2) 0.7614(2)
H5 H 0.9191 -0.1577 0.7740
C10 C 0.4149(4) 0.2828(2) 0.4505(2)
H6 H 0.4083 0.3332 0.5071
H7 H 0.2576 0.2449 0.4551
C11 C 0.4687(4) 0.3733(2) 0.3161(2)
H8 H 0.6177 0.4187 0.3128
H9 H 0.4902 0.3228 0.2600
C12 C 0.2718(4) 0.5641(2) 0.3329(2)
H10 H 0.4236 0.6100 0.3160
H11 H 0.2502 0.5202 0.4244
C13 C 0.0737(4) 0.6605(2) 0.2895(2)
H12 H -0.0796 0.6163 0.3145
H13 H 0.0814 0.7250 0.3308
C14 C 0.0929(5) 0.7262(3) 0.1477(3)
H14 H 0.2329 0.7822 0.1241
H15 H -0.0471 0.7797 0.1207
C15 C 0.1122(5) 0.6271(3) 0.0812(2)
H16 H -0.0385 0.5808 0.0934
H17 H 0.1441 0.6709 -0.0096
C16 C 0.3100(5) 0.5319(3) 0.1331(2)
H18 H 0.3130 0.4669 0.0920
H19 H 0.4624 0.5772 0.1127
N1A N 1.7205(3) -0.46838(18) 0.73022(16)
C1A C 1.4093(4) -0.1755(2) 0.5018(2)
C2A C 1.2191(4) -0.1445(2) 0.5644(2)
H1A H 1.1713 -0.1899 0.6489
C3A C 1.0969(4) -0.0303(2) 0.4824(2)
C4A C 1.2322(4) 0.0047(2) 0.3565(2)
C5A C 1.4246(4) -0.0823(2) 0.3708(2)
C6A C 1.5891(4) -0.0729(2) 0.2725(2)
H2A H 1.7158 -0.1308 0.2840
C7A C 1.5644(4) 0.0236(3) 0.1560(2)
H3A H 1.6755 0.0313 0.0886
C8A C 1.3751(5) 0.1085(3) 0.1397(2)
H4A H 1.3593 0.1727 0.0607
C9A C 1.2081(4) 0.1000(2) 0.2386(2)
H5A H 1.0809 0.1577 0.2260
C10A C 1.5851(4) -0.2828(2) 0.5495(2)
H6A H 1.5917 -0.3332 0.4929
H7A H 1.7424 -0.2449 0.5449
C11A C 1.5313(4) -0.3733(2) 0.6839(2)
H8A H 1.3823 -0.4187 0.6872
H9A H 1.5098 -0.3228 0.7400
C12A C 1.7282(4) -0.5641(2) 0.6671(2)
H10A H 1.5764 -0.6100 0.6840
H11A H 1.7498 -0.5202 0.5756
C13A C 1.9263(4) -0.6605(2) 0.7105(2)
H12A H 2.0796 -0.6163 0.6855
H13A H 1.9186 -0.7250 0.6692
C14A C 1.9071(5) -0.7262(3) 0.8523(3)
H14A H 1.7671 -0.7822 0.8759
H15A H 2.0471 -0.7797 0.8793
C15A C 1.8878(5) -0.6271(3) 0.9188(2)
H16A H 2.0385 -0.5808 0.9066
H17A H 1.8559 -0.6709 1.0096
C16A C 1.6900(5) -0.5319(3) 0.8669(2)
H18A H 1.6870 -0.4669 0.9080
H19A H 1.5376 -0.5772 0.8873
loop_
_geom_bond_atom_site_label_1
_geom_bond_atom_site_label_2
_geom_bond_site_symmetry_1
_geom_bond_site_symmetry_2
N1 C11 1_555 1_555
C1 C2 1_555 1_555
C2 H1 1_555 1_555
C3 C2 1_555 1_555
C4 C3 1_555 1_555
C5 C1 1_555 1_555
C6 C5 1_555 1_555
H2 C6 1_555 1_555
C7 C6 1_555 1_555
H3 C7 1_555 1_555
C8 C7 1_555 1_555
H4 C8 1_555 1_555
C9 C4 1_555 1_555
H5 C9 1_555 1_555
C10 C1 1_555 1_555
H6 C10 1_555 1_555
H7 C10 1_555 1_555
C11 C10 1_555 1_555
H8 C11 1_555 1_555
H9 C11 1_555 1_555
C12 N1 1_555 1_555
H10 C12 1_555 1_555
H11 C12 1_555 1_555
C13 C12 1_555 1_555
H12 C13 1_555 1_555
H13 C13 1_555 1_555
C14 C13 1_555 1_555
H14 C14 1_555 1_555
H15 C14 1_555 1_555
C15 C14 1_555 1_555
H16 C15 1_555 1_555
H17 C15 1_555 1_555
C16 N1 1_555 1_555
H18 C16 1_555 1_555
H19 C16 1_555 1_555
N1A C11A 1_555 1_555
C1A C2A 1_555 1_555
C2A H1A 1_555 1_555
C3A C3 1_555 1_555
C4A C3A 1_555 1_555
C5A C1A 1_555 1_555
C6A C5A 1_555 1_555
H2A C6A 1_555 1_555
C7A C6A 1_555 1_555
H3A C7A 1_555 1_555
C8A C7A 1_555 1_555
H4A C8A 1_555 1_555
C9A C4A 1_555 1_555
H5A C9A 1_555 1_555
C10A C1A 1_555 1_555
H6A C10A 1_555 1_555
H7A C10A 1_555 1_555
C11A C10A 1_555 1_555
H8A C11A 1_555 1_555
H9A C11A 1_555 1_555
C12A N1A 1_555 1_555
H10A C12A 1_555 1_555
H11A C12A 1_555 1_555
C13A C12A 1_555 1_555
H12A C13A 1_555 1_555
H13A C13A 1_555 1_555
C14A C13A 1_555 1_555
H14A C14A 1_555 1_555
H15A C14A 1_555 1_555
C15A C14A 1_555 1_555
H16A C15A 1_555 1_555
H17A C15A 1_555 1_555
C16A N1A 1_555 1_555
H18A C16A 1_555 1_555
H19A C16A 1_555 1_555
C4 C5 1_555 1_555
C8 C9 1_555 1_555
C15 C16 1_555 1_555
C2A C3A 1_555 1_555
C4A C5A 1_555 1_555
C8A C9A 1_555 1_555
C15A C16A 1_555 1_555

#END
