
#######################################################################
#
#                 Cambridge Crystallographic Data Centre
#                                CCDC 
#
#######################################################################
#
# If this CIF has been generated from an entry in the Cambridge 
# Structural Database, then it will include bibliographic, chemical, 
# crystal, experimental, refinement or atomic coordinate data resulting 
# from the CCDC's data processing and validation procedures.
#
#######################################################################

data_PEZDOO
_chemical_formula_moiety         'C19 H18 N4 O1 S1'
_chemical_name_systematic        
3-(3-Hydroxypropyl)-6-(1,1'-biphenyl-4-yl)-7H-1,2,4-triazolo(3,4-b)(1,3,4)thiadiazine
_symmetry_cell_setting           monoclinic
_symmetry_space_group_name_H-M   'P 21/c'
_symmetry_Int_Tables_number      14
_space_group_name_Hall           '-P 2ybc'
loop_
_symmetry_equiv_pos_site_id
_symmetry_equiv_pos_as_xyz
1 x,y,z
2 -x,1/2+y,1/2-z
3 -x,-y,-z
4 x,1/2-y,1/2+z
_cell_length_a                   6.728(3)
_cell_length_b                   8.254(3)
_cell_length_c                   30.014(11)
_cell_angle_alpha                90
_cell_angle_beta                 94.375(6)
_cell_angle_gamma                90
_cell_volume                     1661.91
_exptl_crystal_colour            colorless
_exptl_crystal_description       block
_chemical_melting_point          175-177deg.C
_cell_formula_units_Z            4
_exptl_crystal_recrystallization_method ethanol
loop_
_atom_site_label
_atom_site_type_symbol
_atom_site_fract_x
_atom_site_fract_y
_atom_site_fract_z
N1 N -0.2644(4) 0.5376(4) 0.47413(10)
N2 N -0.1981(4) 0.6971(4) 0.48239(9)
N3 N -0.0194(4) 0.5867(3) 0.43269(9)
N4 N 0.1061(4) 0.5697(3) 0.39827(8)
O1 O -0.5853(6) 0.1484(4) 0.45042(13)
S1 S 0.08994(14) 0.89297(11) 0.45119(3)
C1 C -0.0511(4) 0.7222(4) 0.45683(10)
C2 C -0.1569(5) 0.4749(5) 0.44443(11)
C3 C -0.1715(7) 0.3075(6) 0.4259(2)
C4 C -0.3454(8) 0.2535(7) 0.4079(3)
C5 C -0.5416(6) 0.2716(6) 0.42289(18)
C6 C 0.3064(6) 0.7782(5) 0.43842(14)
C7 C 0.2583(5) 0.6637(4) 0.40043(11)
C8 C 0.3897(5) 0.6509(4) 0.36346(11)
C9 C 0.3425(6) 0.5506(5) 0.32780(13)
C10 C 0.4608(6) 0.5429(5) 0.29293(14)
C11 C 0.6344(5) 0.6293(4) 0.29108(11)
C12 C 0.6862(6) 0.7252(5) 0.32873(12)
C13 C 0.5662(6) 0.7361(5) 0.36387(13)
C14 C 0.7565(5) 0.6243(4) 0.25230(12)
C15 C 0.6885(8) 0.5543(6) 0.21337(15)
C16 C 0.8002(8) 0.5518(6) 0.17678(16)
C17 C 0.9815(8) 0.6183(5) 0.17841(16)
C18 C 1.0510(8) 0.6956(6) 0.21605(19)
C19 C 0.9397(7) 0.6977(6) 0.25260(18)
H1 H -0.046(2) 0.286(3) 0.4134(8)
H2 H -0.134(5) 0.241(3) 0.4532(7)
H3 H -0.363(4) 0.279(5) 0.3753(5)
H4 H -0.336(3) 0.1354(16) 0.4009(10)
H5 H -0.566(4) 0.376(4) 0.4353(10)
H6 H -0.656(8) 0.287(7) 0.3966(16)
H7 H -0.648(9) 0.169(7) 0.472(2)
H8 H 0.333(4) 0.721(4) 0.4605(10)
H9 H 0.417(5) 0.856(4) 0.4336(10)
H10 H 0.241(5) 0.499(5) 0.3320(11)
H11 H 0.435(4) 0.471(4) 0.2709(9)
H12 H 0.795(4) 0.795(3) 0.3260(9)
H13 H 0.613(4) 0.806(4) 0.3848(10)
H14 H 0.569(5) 0.514(5) 0.2065(12)
H15 H 0.725(4) 0.509(4) 0.1473(10)
H16 H 1.046(4) 0.610(4) 0.1504(11)
H17 H 1.193(7) 0.737(6) 0.2183(16)
H18 H 0.980(6) 0.720(5) 0.2789(14)
loop_
_geom_bond_atom_site_label_1
_geom_bond_atom_site_label_2
_geom_bond_site_symmetry_1
_geom_bond_site_symmetry_2
N1 N2 1_555 1_555
N2 C1 1_555 1_555
N3 N4 1_555 1_555
N4 C7 1_555 1_555
O1 C5 1_555 1_555
S1 C1 1_555 1_555
C1 N3 1_555 1_555
C2 N1 1_555 1_555
C3 C2 1_555 1_555
C4 C3 1_555 1_555
C5 C4 1_555 1_555
C6 S1 1_555 1_555
C7 C6 1_555 1_555
C8 C7 1_555 1_555
C9 C8 1_555 1_555
C10 C9 1_555 1_555
C11 C10 1_555 1_555
C12 C11 1_555 1_555
C13 C8 1_555 1_555
C14 C11 1_555 1_555
C15 C14 1_555 1_555
C16 C15 1_555 1_555
C17 C16 1_555 1_555
C18 C17 1_555 1_555
C19 C14 1_555 1_555
H1 C3 1_555 1_555
H2 C3 1_555 1_555
H3 C4 1_555 1_555
H4 C4 1_555 1_555
H5 C5 1_555 1_555
H6 C5 1_555 1_555
H7 O1 1_555 1_555
H8 C6 1_555 1_555
H9 C6 1_555 1_555
H10 C9 1_555 1_555
H11 C10 1_555 1_555
H12 C12 1_555 1_555
H13 C13 1_555 1_555
H14 C15 1_555 1_555
H15 C16 1_555 1_555
H16 C17 1_555 1_555
H17 C18 1_555 1_555
H18 C19 1_555 1_555
N3 C2 1_555 1_555
C12 C13 1_555 1_555
C18 C19 1_555 1_555

#END
