
#######################################################################
#
#                 Cambridge Crystallographic Data Centre
#                                CCDC 
#
#######################################################################
#
# If this CIF has been generated from an entry in the Cambridge 
# Structural Database, then it will include bibliographic, chemical, 
# crystal, experimental, refinement or atomic coordinate data resulting 
# from the CCDC's data processing and validation procedures.
#
#######################################################################

data_PEZDOQ
_chemical_formula_moiety         'C12 H15 N1 O1'
_chemical_name_systematic        3,3-dimethyl-5-phenylpyrrolidin-2-one
_symmetry_cell_setting           triclinic
_symmetry_space_group_name_H-M   'P -1'
_symmetry_Int_Tables_number      2
_space_group_name_Hall           '-P 1'
loop_
_symmetry_equiv_pos_site_id
_symmetry_equiv_pos_as_xyz
1 x,y,z
2 -x,-y,-z
_cell_length_a                   5.9911(10)
_cell_length_b                   9.5394(15)
_cell_length_c                   10.0177(17)
_cell_angle_alpha                72.702(6)
_cell_angle_beta                 80.034(6)
_cell_angle_gamma                88.019(6)
_cell_volume                     538.297
_exptl_crystal_description       block
_cell_formula_units_Z            2
loop_
_atom_site_label
_atom_site_type_symbol
_atom_site_fract_x
_atom_site_fract_y
_atom_site_fract_z
C1 C 0.07158(15) 0.80306(10) 0.62837(9)
C2 C 0.16766(17) 0.65815(10) 0.70754(10)
C3 C 0.36006(18) 0.63355(11) 0.59453(10)
H1 H 0.3056 0.5751 0.5394
H2 H 0.4871 0.5818 0.6388
C4 C 0.43444(15) 0.78923(11) 0.49877(10)
H3 H 0.5487 0.8295 0.5402
C5 C -0.0155(2) 0.53783(13) 0.75906(15)
H4 H -0.1400 0.5656 0.8232
H5 H 0.0489 0.4455 0.8096
H6 H -0.0730 0.5252 0.6775
C6 C 0.2612(2) 0.68232(16) 0.83249(11)
H7 H 0.3732 0.7631 0.7970
H8 H 0.3333 0.5924 0.8815
H9 H 0.1368 0.7069 0.8988
C7 C 0.52801(15) 0.80112(10) 0.34592(10)
C8 C 0.39357(18) 0.76588(13) 0.25970(11)
H10 H 0.2420 0.7320 0.2979
C9 C 0.4793(2) 0.77990(15) 0.11832(12)
H11 H 0.3858 0.7558 0.0605
C10 C 0.7003(2) 0.82881(14) 0.06098(12)
H12 H 0.7584 0.8384 -0.0358
C11 C 0.83620(19) 0.86365(14) 0.14623(13)
H13 H 0.9882 0.8965 0.1079
C12 C 0.74949(17) 0.85034(12) 0.28842(11)
H14 H 0.8426 0.8751 0.3461
N1 N 0.22179(13) 0.86878(9) 0.51270(8)
H15 H 0.1954 0.9521 0.4507
O1 O -0.11528(12) 0.85212(8) 0.66631(8)
loop_
_geom_bond_atom_site_label_1
_geom_bond_atom_site_label_2
_geom_bond_site_symmetry_1
_geom_bond_site_symmetry_2
C1 C2 1_555 1_555
C2 C3 1_555 1_555
C3 H1 1_555 1_555
H2 C3 1_555 1_555
C4 C3 1_555 1_555
H3 C4 1_555 1_555
C5 C2 1_555 1_555
H4 C5 1_555 1_555
H5 C5 1_555 1_555
H6 C5 1_555 1_555
C6 C2 1_555 1_555
H7 C6 1_555 1_555
H8 C6 1_555 1_555
H9 C6 1_555 1_555
C7 C4 1_555 1_555
C8 C7 1_555 1_555
H10 C8 1_555 1_555
C9 C8 1_555 1_555
H11 C9 1_555 1_555
C10 C9 1_555 1_555
H12 C10 1_555 1_555
C11 C10 1_555 1_555
H13 C11 1_555 1_555
C12 C7 1_555 1_555
H14 C12 1_555 1_555
N1 C1 1_555 1_555
H15 N1 1_555 1_555
O1 C1 1_555 1_555
C4 N1 1_555 1_555
C11 C12 1_555 1_555

#END
