
#######################################################################
#
#                 Cambridge Crystallographic Data Centre
#                                CCDC 
#
#######################################################################
#
# If this CIF has been generated from an entry in the Cambridge 
# Structural Database, then it will include bibliographic, chemical, 
# crystal, experimental, refinement or atomic coordinate data resulting 
# from the CCDC's data processing and validation procedures.
#
#######################################################################

data_PEZDEG
_chemical_formula_moiety         'C25 H41 N1 O2'
_chemical_name_systematic        
5-(3-methoxyandrostan-17-yl)-5-methylpyrrolidin-2-one
_symmetry_cell_setting           monoclinic
_symmetry_space_group_name_H-M   'C 2'
_symmetry_Int_Tables_number      5
_space_group_name_Hall           'C 2y'
loop_
_symmetry_equiv_pos_site_id
_symmetry_equiv_pos_as_xyz
1 x,y,z
2 -x,y,-z
3 1/2+x,1/2+y,z
4 1/2-x,1/2+y,-z
_cell_length_a                   11.0609(13)
_cell_length_b                   7.6068(13)
_cell_length_c                   26.017(4)
_cell_angle_alpha                90
_cell_angle_beta                 92.300(7)
_cell_angle_gamma                90
_cell_volume                     2187.26
_exptl_crystal_colour            colourless
_exptl_crystal_description       block
_cell_formula_units_Z            4
loop_
_atom_site_label
_atom_site_type_symbol
_atom_site_fract_x
_atom_site_fract_y
_atom_site_fract_z
C1 C 0.68373(11) 0.39542(18) 0.50585(4)
C2 C 0.82061(11) 0.3974(2) 0.51360(5)
H1 H 0.857396 0.485769 0.491073
H2 H 0.855436 0.280481 0.506431
C3 C 0.84043(11) 0.4465(2) 0.57036(5)
H3 H 0.852073 0.574874 0.574357
H4 H 0.912156 0.385216 0.585677
C4 C 0.72305(10) 0.38567(18) 0.59619(4)
C5 C 0.73458(13) 0.19147(19) 0.61186(5)
H5 H 0.654275 0.144229 0.618516
H6 H 0.786766 0.181590 0.643062
H7 H 0.770038 0.124720 0.583983
C6 C 0.69768(11) 0.50600(17) 0.64230(4)
H8 H 0.777225 0.519475 0.661543
C7 C 0.65857(13) 0.69555(18) 0.62664(5)
H9 H 0.730390 0.768695 0.620129
H10 H 0.605701 0.693133 0.595026
C8 C 0.58908(13) 0.77084(17) 0.67234(5)
H11 H 0.625639 0.882727 0.684651
H12 H 0.503000 0.791583 0.662270
C9 C 0.60147(11) 0.62823(15) 0.71381(5)
H13 H 0.683677 0.643750 0.730611
C10 C 0.60561(10) 0.45314(15) 0.68366(5)
C11 C 0.48270(10) 0.40456(18) 0.65754(5)
H14 H 0.488602 0.288903 0.641238
H15 H 0.460598 0.492798 0.631370
H16 H 0.420690 0.401083 0.683388
C12 C 0.64594(12) 0.31082(17) 0.72254(5)
H17 H 0.729983 0.334981 0.735085
H18 H 0.644975 0.194926 0.705218
C13 C 0.56275(13) 0.30434(17) 0.76876(5)
H19 H 0.481577 0.263327 0.756649
H20 H 0.595568 0.217436 0.793981
C14 C 0.54973(11) 0.48265(16) 0.79587(5)
H21 H 0.632249 0.514438 0.810024
C15 C 0.51246(11) 0.62901(16) 0.75719(5)
H22 H 0.429887 0.601573 0.742269
C16 C 0.50821(12) 0.80881(17) 0.78407(5)
H23 H 0.591385 0.844231 0.795106
H24 H 0.476116 0.897774 0.759327
C17 C 0.42878(13) 0.80513(19) 0.83109(5)
H25 H 0.343341 0.787777 0.819382
H26 H 0.434736 0.920018 0.848888
C18 C 0.46561(12) 0.65875(18) 0.86919(5)
H27 H 0.403051 0.654846 0.895870
C19 C 0.46617(12) 0.47590(18) 0.84271(5)
C20 C 0.33554(13) 0.4260(2) 0.82546(7)
H28 H 0.333369 0.303051 0.814175
H29 H 0.308053 0.502044 0.796924
H30 H 0.282235 0.441091 0.854326
C21 C 0.50933(16) 0.3399(2) 0.88322(6)
H31 H 0.449605 0.334384 0.910519
H32 H 0.511935 0.222742 0.866761
C22 C 0.63395(15) 0.3805(2) 0.90799(6)
H33 H 0.655910 0.288690 0.933679
H34 H 0.695318 0.379422 0.881323
C23 C 0.58704(13) 0.7017(2) 0.89695(5)
H35 H 0.648318 0.721357 0.870845
H36 H 0.578358 0.812776 0.916272
C24 C 0.8066(2) 0.5036(3) 0.98971(9)
H37 H 0.748752 0.479198 1.016344
H38 H 0.878129 0.562012 1.005253
H39 H 0.830918 0.392945 0.973821
C25 C 0.63349(14) 0.5596(2) 0.93413(6)
H40 H 0.579937 0.554640 0.964163
N1 N 0.63435(9) 0.39994(15) 0.55227(4)
H41 H 0.556028 0.410489 0.556175
O1 O 0.62766(8) 0.38971(16) 0.46379(3)
O2 O 0.75158(12) 0.6151(2) 0.95146(5)
loop_
_geom_bond_atom_site_label_1
_geom_bond_atom_site_label_2
_geom_bond_site_symmetry_1
_geom_bond_site_symmetry_2
C1 C2 1_555 1_555
C2 H1 1_555 1_555
H2 C2 1_555 1_555
C3 C2 1_555 1_555
H3 C3 1_555 1_555
H4 C3 1_555 1_555
C4 C3 1_555 1_555
C5 C4 1_555 1_555
H5 C5 1_555 1_555
H6 C5 1_555 1_555
H7 C5 1_555 1_555
C6 C4 1_555 1_555
H8 C6 1_555 1_555
C7 C6 1_555 1_555
H9 C7 1_555 1_555
H10 C7 1_555 1_555
C8 C7 1_555 1_555
H11 C8 1_555 1_555
H12 C8 1_555 1_555
C9 C8 1_555 1_555
H13 C9 1_555 1_555
C10 C6 1_555 1_555
C11 C10 1_555 1_555
H14 C11 1_555 1_555
H15 C11 1_555 1_555
H16 C11 1_555 1_555
C12 C10 1_555 1_555
H17 C12 1_555 1_555
H18 C12 1_555 1_555
C13 C12 1_555 1_555
H19 C13 1_555 1_555
H20 C13 1_555 1_555
C14 C13 1_555 1_555
H21 C14 1_555 1_555
C15 C9 1_555 1_555
H22 C15 1_555 1_555
C16 C15 1_555 1_555
H23 C16 1_555 1_555
H24 C16 1_555 1_555
C17 C16 1_555 1_555
H25 C17 1_555 1_555
H26 C17 1_555 1_555
C18 C17 1_555 1_555
H27 C18 1_555 1_555
C19 C14 1_555 1_555
C20 C19 1_555 1_555
H28 C20 1_555 1_555
H29 C20 1_555 1_555
H30 C20 1_555 1_555
C21 C19 1_555 1_555
H31 C21 1_555 1_555
H32 C21 1_555 1_555
C22 C21 1_555 1_555
H33 C22 1_555 1_555
H34 C22 1_555 1_555
C23 C18 1_555 1_555
H35 C23 1_555 1_555
H36 C23 1_555 1_555
C24 H37 1_555 1_555
H38 C24 1_555 1_555
H39 C24 1_555 1_555
C25 C22 1_555 1_555
H40 C25 1_555 1_555
N1 C1 1_555 1_555
H41 N1 1_555 1_555
O1 C1 1_555 1_555
O2 C24 1_555 1_555
C4 N1 1_555 1_555
C9 C10 1_555 1_555
C14 C15 1_555 1_555
C18 C19 1_555 1_555
C23 C25 1_555 1_555
C25 O2 1_555 1_555

#END
