
#######################################################################
#
#                 Cambridge Crystallographic Data Centre
#                                CCDC 
#
#######################################################################
#
# If this CIF has been generated from an entry in the Cambridge 
# Structural Database, then it will include bibliographic, chemical, 
# crystal, experimental, refinement or atomic coordinate data resulting 
# from the CCDC's data processing and validation procedures.
#
#######################################################################

data_PEZDIH
_chemical_formula_moiety         'C14 H19 N1 O3'
_chemical_name_systematic        
N-(2,2-Dimethyl-3-(2-methylpropenyl)-cyclopropylcarbonyl)-5-methylisoxazolin-3-one
_symmetry_cell_setting           triclinic
_symmetry_space_group_name_H-M   'P -1'
_symmetry_Int_Tables_number      2
_space_group_name_Hall           '-P 1'
loop_
_symmetry_equiv_pos_site_id
_symmetry_equiv_pos_as_xyz
1 x,y,z
2 -x,-y,-z
_cell_length_a                   6.146(5)
_cell_length_b                   8.473(6)
_cell_length_c                   14.383(5)
_cell_angle_alpha                77.47(4)
_cell_angle_beta                 82.84(4)
_cell_angle_gamma                69.00(8)
_cell_volume                     681.689
_exptl_crystal_colour            colorless
_cell_formula_units_Z            2
loop_
_atom_site_label
_atom_site_type_symbol
_atom_site_fract_x
_atom_site_fract_y
_atom_site_fract_z
N1 N 0.5077(7) 0.3312(4) 0.1241(3)
C1 C 0.7108(8) 0.2134(6) 0.0844(3)
C2 C 0.628(1) 0.1920(7) 0.0019(4)
C3 C 0.401(1) 0.2808(6) -0.0045(3)
O1 O 0.3181(6) 0.3689(4) 0.0687(2)
C4 C 0.224(1) 0.3081(8) -0.0708(4)
O2 O 0.8961(7) 0.1587(5) 0.1179(2)
C5 C 0.4463(8) 0.3939(5) 0.2105(3)
O3 O 0.2400(6) 0.4760(4) 0.2248(2)
C6 C 0.6354(8) 0.3518(5) 0.2713(3)
C7 C 0.5982(8) 0.3423(5) 0.3793(3)
C8 C 0.6569(8) 0.4916(5) 0.3202(3)
C9 C 0.794(1) 0.2041(6) 0.4362(4)
C10 C 0.358(1) 0.3672(6) 0.4289(4)
C11 C 0.4810(8) 0.6688(5) 0.3053(3)
C12 C 0.5338(8) 0.8099(5) 0.2991(3)
C13 C 0.771(1) 0.8152(6) 0.3062(4)
C14 C 0.338(1) 0.9857(6) 0.2807(5)
loop_
_geom_bond_atom_site_label_1
_geom_bond_atom_site_label_2
_geom_bond_site_symmetry_1
_geom_bond_site_symmetry_2
N1 C1 1_555 1_555
C1 C2 1_555 1_555
C2 C3 1_555 1_555
C3 O1 1_555 1_555
O1 N1 1_555 1_555
C4 C3 1_555 1_555
O2 C1 1_555 1_555
C5 N1 1_555 1_555
O3 C5 1_555 1_555
C6 C5 1_555 1_555
C7 C6 1_555 1_555
C8 C6 1_555 1_555
C9 C7 1_555 1_555
C10 C7 1_555 1_555
C11 C8 1_555 1_555
C12 C11 1_555 1_555
C13 C12 1_555 1_555
C14 C12 1_555 1_555
C7 C8 1_555 1_555

#END
