
#######################################################################
#
#                 Cambridge Crystallographic Data Centre
#                                CCDC 
#
#######################################################################
#
# If this CIF has been generated from an entry in the Cambridge 
# Structural Database, then it will include bibliographic, chemical, 
# crystal, experimental, refinement or atomic coordinate data resulting 
# from the CCDC's data processing and validation procedures.
#
#######################################################################

data_PEZFAE
_chemical_formula_moiety         'C12 H17 N1 O1'
_chemical_name_systematic        
4-azatetracyclo[6.3.1.1^6,10^.0^1,5^]tridecan-3-one
_symmetry_cell_setting           monoclinic
_symmetry_space_group_name_H-M   'P 21/c'
_symmetry_Int_Tables_number      14
_space_group_name_Hall           '-P 2ybc'
loop_
_symmetry_equiv_pos_site_id
_symmetry_equiv_pos_as_xyz
1 x,y,z
2 -x,1/2+y,1/2-z
3 -x,-y,-z
4 x,1/2-y,1/2+z
_cell_length_a                   11.0352(12)
_cell_length_b                   7.2625(12)
_cell_length_c                   12.634(2)
_cell_angle_alpha                90
_cell_angle_beta                 101.419(5)
_cell_angle_gamma                90
_cell_volume                     992.486
_exptl_crystal_colour            colourless
_exptl_crystal_description       block
_cell_formula_units_Z            4
loop_
_atom_site_label
_atom_site_type_symbol
_atom_site_fract_x
_atom_site_fract_y
_atom_site_fract_z
C1 C 0.33861(8) 0.60566(12) 0.41620(7)
C2 C 0.22643(8) 0.67278(13) 0.33371(7)
H1 H 0.240133 0.798119 0.307585
H2 H 0.150686 0.672668 0.364594
C3 C 0.21813(7) 0.53005(12) 0.24313(6)
C4 C 0.35695(7) 0.49378(11) 0.24830(6)
H3 H 0.392070 0.602787 0.216502
C5 C 0.37707(8) 0.32504(12) 0.18255(7)
H4 H 0.467549 0.300005 0.190624
C6 C 0.31152(9) 0.15492(12) 0.21602(7)
H5 H 0.345566 0.124850 0.292558
H6 H 0.325503 0.048093 0.171259
C7 C 0.17216(9) 0.19393(13) 0.20092(7)
H7 H 0.128908 0.082477 0.221531
C8 C 0.15373(8) 0.35538(13) 0.27400(7)
H8 H 0.188122 0.323090 0.350153
H9 H 0.064242 0.379647 0.267227
C9 C 0.16090(8) 0.58196(13) 0.12627(7)
H10 H 0.200145 0.695234 0.105271
H11 H 0.071244 0.605194 0.119097
C10 C 0.18239(8) 0.41964(13) 0.05246(7)
H12 H 0.147294 0.452074 -0.024423
C11 C 0.11814(9) 0.24538(15) 0.08309(7)
H13 H 0.130674 0.142642 0.034881
H14 H 0.028195 0.267767 0.074170
C12 C 0.32144(8) 0.37744(13) 0.06454(7)
H15 H 0.333015 0.274628 0.016049
H16 H 0.364646 0.486913 0.043527
N1 N 0.40551(7) 0.49424(11) 0.36470(6)
H17 H 0.470007 0.430091 0.396891
O1 O 0.36370(7) 0.64679(10) 0.51306(5)
loop_
_geom_bond_atom_site_label_1
_geom_bond_atom_site_label_2
_geom_bond_site_symmetry_1
_geom_bond_site_symmetry_2
C1 C2 1_555 1_555
C2 H1 1_555 1_555
H2 C2 1_555 1_555
C3 C2 1_555 1_555
C4 C3 1_555 1_555
H3 C4 1_555 1_555
C5 C4 1_555 1_555
H4 C5 1_555 1_555
C6 C5 1_555 1_555
H5 C6 1_555 1_555
H6 C6 1_555 1_555
C7 C6 1_555 1_555
H7 C7 1_555 1_555
C8 C3 1_555 1_555
H8 C8 1_555 1_555
H9 C8 1_555 1_555
C9 C3 1_555 1_555
H10 C9 1_555 1_555
H11 C9 1_555 1_555
C10 C9 1_555 1_555
H12 C10 1_555 1_555
C11 C7 1_555 1_555
H13 C11 1_555 1_555
H14 C11 1_555 1_555
C12 C5 1_555 1_555
H15 C12 1_555 1_555
H16 C12 1_555 1_555
N1 C1 1_555 1_555
H17 N1 1_555 1_555
O1 C1 1_555 1_555
C4 N1 1_555 1_555
C7 C8 1_555 1_555
C10 C11 1_555 1_555
C10 C12 1_555 1_555

#END
