
#######################################################################
#
#                 Cambridge Crystallographic Data Centre
#                                CCDC 
#
#######################################################################
#
# If this CIF has been generated from an entry in the Cambridge 
# Structural Database, then it will include bibliographic, chemical, 
# crystal, experimental, refinement or atomic coordinate data resulting 
# from the CCDC's data processing and validation procedures.
#
#######################################################################

data_PEZGUZ
_chemical_formula_moiety         'C30 H34 N4 O3'
_chemical_name_systematic        
2-(1,14-dioxo-1,2,3,4,9,10,11,12,13,14,16,17,18,18a-tetradecahydro-5,8-ethenopyrrolo[1,2-a][1,4]diazacyclohexadecin-9-yl)-N-(quinolin-8-yl)acetamide
_symmetry_cell_setting           monoclinic
_symmetry_space_group_name_H-M   'P 21'
_symmetry_Int_Tables_number      4
_space_group_name_Hall           'P 2yb'
loop_
_symmetry_equiv_pos_site_id
_symmetry_equiv_pos_as_xyz
1 x,y,z
2 -x,1/2+y,-z
_cell_length_a                   9.4606(5)
_cell_length_b                   15.1773(8)
_cell_length_c                   10.0998(8)
_cell_angle_alpha                90
_cell_angle_beta                 116.212(8)
_cell_angle_gamma                90
_cell_volume                     1301.06
_exptl_crystal_colour            'light colorless'
_exptl_crystal_description       plate
_cell_formula_units_Z            2
loop_
_atom_site_label
_atom_site_type_symbol
_atom_site_fract_x
_atom_site_fract_y
_atom_site_fract_z
O1 O -0.2361(4) -0.1917(2) -0.5125(4)
N1 N -0.3260(4) -0.0720(3) -0.4424(4)
H1 H -0.3953 -0.0289 -0.4707
N2 N -0.6679(4) 0.2121(3) -0.0806(4)
H2 H -0.6328 0.2210 -0.1470
N3 N -0.3682(4) 0.2247(3) -0.0299(4)
N4 N -0.5938(4) -0.0626(3) -0.7090(4)
O2 O -0.8863(4) 0.1728(3) -0.0547(4)
C1 C -0.3966(5) 0.2346(3) 0.0912(5)
O3 O -0.7423(4) -0.1646(3) -0.6639(4)
C2 C -0.2791(5) 0.2491(4) 0.2337(5)
C3 C -0.6015(5) -0.0024(4) -0.1970(5)
H3 H -0.6479 -0.0375 -0.1488
C4 C -0.5946(5) 0.2391(4) 0.1813(6)
H4 H -0.7013 0.2363 0.1653
C5 C -0.2060(5) -0.0733(4) -0.2895(5)
H5 H -0.1010 -0.0821 -0.2866
H6 H -0.2262 -0.1230 -0.2367
C6 C -0.6913(5) 0.0609(3) -0.2974(5)
C7 C -0.8660(5) 0.0732(3) -0.3381(6)
H7 H -0.8962 0.0291 -0.2815
C8 C -0.4706(5) -0.1259(3) -0.6958(5)
H8 H -0.5186 -0.1853 -0.7300
C9 C -0.3735(5) 0.0340(4) -0.2348(5)
C10 C -0.9949(5) -0.0487(4) -0.7135(5)
H9 H -1.0234 -0.1107 -0.7443
H10 H -1.0883 -0.0117 -0.7710
C11 C -0.6200(5) 0.1118(3) -0.3655(6)
H11 H -0.6793 0.1558 -0.4346
C12 C -0.8212(5) 0.1841(3) -0.1350(6)
C13 C -0.3364(5) -0.1330(3) -0.5418(6)
C14 C -0.4617(5) 0.0988(3) -0.3330(5)
H12 H -0.4141 0.1350 -0.3789
C15 C -0.2074(5) 0.0135(3) -0.2126(6)
H13 H -0.1363 0.0087 -0.1058
H14 H -0.1686 0.0618 -0.2538
C16 C -0.7289(6) -0.0899(4) -0.7029(6)
C17 C -0.9001(5) 0.1663(3) -0.2972(5)
H15 H -0.8644 0.2106 -0.3478
H16 H -1.0153 0.1733 -0.3338
C18 C -0.0927(5) 0.2425(4) 0.1325(6)
H17 H 0.0121 0.2450 0.1431
C19 C -0.4120(6) -0.0893(3) -0.8028(6)
H18 H -0.4785 -0.1099 -0.9046
H19 H -0.3015 -0.1070 -0.7737
C20 C -0.1212(5) 0.2536(4) 0.2520(6)
H20 H -0.0368 0.2641 0.3466
C21 C -0.5808(5) 0.0210(4) -0.7787(6)
H21 H -0.5765 0.0722 -0.7165
H22 H -0.6708 0.0283 -0.8774
C22 C -0.4441(5) -0.0155(4) -0.1655(6)
H23 H -0.3844 -0.0591 -0.0956
C23 C -0.9648(5) 0.0552(4) -0.5035(6)
H24 H -0.9301 0.0956 -0.5604
H25 H -1.0765 0.0685 -0.5301
C24 C -0.2185(5) 0.2275(4) -0.0064(6)
H26 H -0.1956 0.2189 -0.0881
C25 C -0.4256(5) 0.0103(3) -0.7906(6)
H27 H -0.4301 0.0407 -0.8791
H28 H -0.3357 0.0338 -0.7019
C26 C -0.9529(5) -0.0401(4) -0.5491(6)
H29 H -0.8441 -0.0618 -0.4902
H30 H -1.0246 -0.0779 -0.5263
C27 C -0.4737(6) 0.2545(3) 0.3258(6)
H31 H -0.5010 0.2609 0.4052
C28 C -0.3183(6) 0.2603(3) 0.3532(6)
H32 H -0.2386 0.2717 0.4501
C29 C -0.8606(5) -0.0211(4) -0.7498(6)
H33 H -0.8158 0.0353 -0.6995
H34 H -0.9033 -0.0110 -0.8575
C30 C -0.5592(5) 0.2284(3) 0.0661(5)
loop_
_geom_bond_atom_site_label_1
_geom_bond_atom_site_label_2
_geom_bond_site_symmetry_1
_geom_bond_site_symmetry_2
O1 C13 1_555 1_555
N1 H1 1_555 1_555
N2 H2 1_555 1_555
N3 C1 1_555 1_555
N4 C8 1_555 1_555
O2 C12 1_555 1_555
C1 C2 1_555 1_555
O3 C16 1_555 1_555
C2 C20 1_555 1_555
C3 H3 1_555 1_555
C4 H4 1_555 1_555
C5 N1 1_555 1_555
H5 C5 1_555 1_555
H6 C5 1_555 1_555
C6 C3 1_555 1_555
C7 C6 1_555 1_555
H7 C7 1_555 1_555
C8 H8 1_555 1_555
C9 C14 1_555 1_555
C10 H9 1_555 1_555
H10 C10 1_555 1_555
C11 C6 1_555 1_555
H11 C11 1_555 1_555
C12 N2 1_555 1_555
C13 N1 1_555 1_555
C14 C11 1_555 1_555
H12 C14 1_555 1_555
C15 C5 1_555 1_555
H13 C15 1_555 1_555
H14 C15 1_555 1_555
C16 N4 1_555 1_555
C17 C7 1_555 1_555
H15 C17 1_555 1_555
H16 C17 1_555 1_555
C18 H17 1_555 1_555
C19 C8 1_555 1_555
H18 C19 1_555 1_555
H19 C19 1_555 1_555
C20 C18 1_555 1_555
H20 C20 1_555 1_555
C21 N4 1_555 1_555
H21 C21 1_555 1_555
H22 C21 1_555 1_555
C22 C3 1_555 1_555
H23 C22 1_555 1_555
C23 C7 1_555 1_555
H24 C23 1_555 1_555
H25 C23 1_555 1_555
C24 N3 1_555 1_555
H26 C24 1_555 1_555
C25 C19 1_555 1_555
H27 C25 1_555 1_555
H28 C25 1_555 1_555
C26 C10 1_555 1_555
H29 C26 1_555 1_555
H30 C26 1_555 1_555
C27 C4 1_555 1_555
H31 C27 1_555 1_555
C28 C2 1_555 1_555
H32 C28 1_555 1_555
C29 C10 1_555 1_555
H33 C29 1_555 1_555
H34 C29 1_555 1_555
C30 N2 1_555 1_555
C1 C30 1_555 1_555
C4 C30 1_555 1_555
C8 C13 1_555 1_555
C9 C15 1_555 1_555
C9 C22 1_555 1_555
C12 C17 1_555 1_555
C16 C29 1_555 1_555
C18 C24 1_555 1_555
C21 C25 1_555 1_555
C23 C26 1_555 1_555
C27 C28 1_555 1_555

#END
