
#######################################################################
#
#                 Cambridge Crystallographic Data Centre
#                                CCDC 
#
#######################################################################
#
# If this CIF has been generated from an entry in the Cambridge 
# Structural Database, then it will include bibliographic, chemical, 
# crystal, experimental, refinement or atomic coordinate data resulting 
# from the CCDC's data processing and validation procedures.
#
#######################################################################

data_PEZHIN
_chemical_formula_moiety         'C36 H48 S4 Si2'
_chemical_name_systematic        
tristhieno[2',3':5,6;3'',2'':3,4;3''',2''':7,8]naphtho[1,2-b]thiene-2,5-diylbis(triisopropylsilane)
_symmetry_cell_setting           triclinic
_symmetry_space_group_name_H-M   'P -1'
_symmetry_Int_Tables_number      2
_space_group_name_Hall           '-P 1'
loop_
_symmetry_equiv_pos_site_id
_symmetry_equiv_pos_as_xyz
1 x,y,z
2 -x,-y,-z
_cell_length_a                   7.5456(11)
_cell_length_b                   12.1175(17)
_cell_length_c                   19.490(3)
_cell_angle_alpha                80.956(4)
_cell_angle_beta                 88.114(4)
_cell_angle_gamma                87.511(4)
_cell_volume                     1757.62
_exptl_crystal_colour            'light yellow'
_exptl_crystal_description       prism
_cell_formula_units_Z            2
loop_
_atom_site_label
_atom_site_type_symbol
_atom_site_fract_x
_atom_site_fract_y
_atom_site_fract_z
C1 C 0.2265(2) 0.60124(15) 0.13616(9)
C2 C 0.2736(2) 0.58953(15) 0.20544(9)
C3 C 0.3744(2) 0.49182(15) 0.23422(9)
C4 C 0.4087(2) 0.40747(15) 0.19409(9)
C5 C 0.3944(2) 0.33265(15) 0.08054(10)
C6 C 0.3598(2) 0.34819(15) 0.00946(10)
C7 C 0.2793(2) 0.45166(16) -0.02158(10)
C8 C 0.2338(2) 0.53297(15) 0.02000(9)
C9 C 0.2707(2) 0.51915(15) 0.09259(9)
C10 C 0.3575(2) 0.41690(15) 0.12320(9)
S1 S 0.10643(6) 0.72681(4) 0.11341(2)
C11 C 0.1160(2) 0.76262(15) 0.19638(9)
C12 C 0.2098(2) 0.68128(15) 0.23868(10)
H1 H 0.2308 0.6854 0.2860
S2 S 0.53071(6) 0.29756(4) 0.24096(2)
C13 C 0.5395(2) 0.36463(15) 0.31335(9)
C14 C 0.4503(2) 0.46602(15) 0.30127(10)
H2 H 0.4396 0.5153 0.3347
S3 S 0.48623(7) 0.19953(4) 0.10680(3)
C15 C 0.4823(3) 0.16703(16) 0.02417(10)
H3 H 0.5240 0.0973 0.0121
C16 C 0.4127(3) 0.25282(16) -0.02220(10)
H4 H 0.4006 0.2495 -0.0702
S4 S 0.13281(6) 0.64943(4) -0.02888(2)
C17 C 0.1520(2) 0.58922(16) -0.10308(9)
H5 H 0.1110 0.6247 -0.1470
C18 C 0.2321(3) 0.48554(16) -0.09241(10)
H6 H 0.2541 0.4408 -0.1279
Si1 Si -0.01733(7) 0.88882(4) 0.21715(3)
C19 C 0.0029(3) 0.90467(16) 0.31140(10)
H7 H -0.0710 0.9730 0.3178
C20 C 0.1925(3) 0.92889(18) 0.32915(10)
H8 H 0.1931 0.9469 0.3764
H9 H 0.2350 0.9924 0.2962
H10 H 0.2703 0.8629 0.3261
C21 C -0.0709(3) 0.80924(17) 0.36476(10)
H11 H -0.0113 0.7382 0.3578
H12 H -0.1987 0.8051 0.3587
H13 H -0.0497 0.8236 0.4119
C22 C -0.2543(3) 0.86514(18) 0.19645(11)
H14 H -0.2616 0.8784 0.1446
C23 C -0.3148(3) 0.74594(19) 0.22140(12)
H15 H -0.3252 0.7329 0.2723
H16 H -0.2277 0.6921 0.2060
H17 H -0.4303 0.7367 0.2019
C24 C -0.3857(3) 0.9500(2) 0.22371(14)
H18 H -0.5041 0.9420 0.2063
H19 H -0.3467 1.0260 0.2075
H20 H -0.3898 0.9360 0.2746
C25 C 0.0711(3) 1.01768(15) 0.16083(10)
H21 H 0.2033 1.0103 0.1636
C26 C 0.0164(3) 1.12861(17) 0.18543(12)
H22 H 0.0801 1.1895 0.1574
H23 H 0.0459 1.1245 0.2344
H24 H -0.1117 1.1428 0.1803
C27 C 0.0296(3) 1.02584(19) 0.08397(11)
H25 H -0.0990 1.0352 0.0782
H26 H 0.0729 0.9573 0.0671
H27 H 0.0881 1.0902 0.0573
Si2 Si 0.67005(7) 0.30336(4) 0.39153(3)
C28 C 0.9019(3) 0.35765(17) 0.38117(11)
H28 H 0.9660 0.3259 0.4244
C29 C 0.9063(4) 0.4847(2) 0.37432(16)
H29 H 1.0298 0.5074 0.3704
H30 H 0.8489 0.5093 0.4155
H31 H 0.8432 0.5191 0.3327
C30 C 1.0052(3) 0.3172(2) 0.32021(13)
H32 H 0.9448 0.3453 0.2768
H33 H 1.0114 0.2352 0.3273
H34 H 1.1256 0.3451 0.3175
C31 C 0.6874(3) 0.14671(16) 0.39432(10)
H35 H 0.7365 0.1343 0.3477
C32 C 0.8200(3) 0.08754(18) 0.44765(12)
H36 H 0.7766 0.0953 0.4947
H37 H 0.9357 0.1216 0.4389
H38 H 0.8322 0.0081 0.4433
C33 C 0.5104(3) 0.08891(18) 0.40357(12)
H39 H 0.5291 0.0106 0.3973
H40 H 0.4275 0.1267 0.3690
H41 H 0.4611 0.0924 0.4504
C34 C 0.5524(3) 0.35577(17) 0.46806(10)
H42 H 0.5507 0.4392 0.4570
C35 C 0.6524(4) 0.3254(2) 0.53580(12)
H43 H 0.5926 0.3620 0.5720
H44 H 0.7743 0.3505 0.5286
H45 H 0.6545 0.2441 0.5502
C36 C 0.3581(3) 0.3245(2) 0.47856(14)
H46 H 0.3519 0.2437 0.4935
H47 H 0.2963 0.3458 0.4347
H48 H 0.3016 0.3641 0.5142
loop_
_geom_bond_atom_site_label_1
_geom_bond_atom_site_label_2
_geom_bond_site_symmetry_1
_geom_bond_site_symmetry_2
C1 C2 1_555 1_555
C2 C3 1_555 1_555
C3 C4 1_555 1_555
C4 C10 1_555 1_555
C5 C6 1_555 1_555
C6 C7 1_555 1_555
C7 C8 1_555 1_555
C8 C9 1_555 1_555
C9 C1 1_555 1_555
C10 C5 1_555 1_555
S1 C1 1_555 1_555
C11 S1 1_555 1_555
C12 C2 1_555 1_555
H1 C12 1_555 1_555
S2 C4 1_555 1_555
C13 S2 1_555 1_555
C14 C3 1_555 1_555
H2 C14 1_555 1_555
S3 C5 1_555 1_555
C15 S3 1_555 1_555
H3 C15 1_555 1_555
C16 C6 1_555 1_555
H4 C16 1_555 1_555
S4 C8 1_555 1_555
C17 S4 1_555 1_555
H5 C17 1_555 1_555
C18 C7 1_555 1_555
H6 C18 1_555 1_555
Si1 C11 1_555 1_555
C19 Si1 1_555 1_555
H7 C19 1_555 1_555
C20 C19 1_555 1_555
H8 C20 1_555 1_555
H9 C20 1_555 1_555
H10 C20 1_555 1_555
C21 C19 1_555 1_555
H11 C21 1_555 1_555
H12 C21 1_555 1_555
H13 C21 1_555 1_555
C22 Si1 1_555 1_555
H14 C22 1_555 1_555
C23 C22 1_555 1_555
H15 C23 1_555 1_555
H16 C23 1_555 1_555
H17 C23 1_555 1_555
C24 C22 1_555 1_555
H18 C24 1_555 1_555
H19 C24 1_555 1_555
H20 C24 1_555 1_555
C25 Si1 1_555 1_555
H21 C25 1_555 1_555
C26 C25 1_555 1_555
H22 C26 1_555 1_555
H23 C26 1_555 1_555
H24 C26 1_555 1_555
C27 C25 1_555 1_555
H25 C27 1_555 1_555
H26 C27 1_555 1_555
H27 C27 1_555 1_555
Si2 C13 1_555 1_555
C28 Si2 1_555 1_555
H28 C28 1_555 1_555
C29 C28 1_555 1_555
H29 C29 1_555 1_555
H30 C29 1_555 1_555
H31 C29 1_555 1_555
C30 C28 1_555 1_555
H32 C30 1_555 1_555
H33 C30 1_555 1_555
H34 C30 1_555 1_555
C31 Si2 1_555 1_555
H35 C31 1_555 1_555
C32 C31 1_555 1_555
H36 C32 1_555 1_555
H37 C32 1_555 1_555
H38 C32 1_555 1_555
C33 C31 1_555 1_555
H39 C33 1_555 1_555
H40 C33 1_555 1_555
H41 C33 1_555 1_555
C34 Si2 1_555 1_555
H42 C34 1_555 1_555
C35 C34 1_555 1_555
H43 C35 1_555 1_555
H44 C35 1_555 1_555
H45 C35 1_555 1_555
C36 C34 1_555 1_555
H46 C36 1_555 1_555
H47 C36 1_555 1_555
H48 C36 1_555 1_555
C9 C10 1_555 1_555
C11 C12 1_555 1_555
C13 C14 1_555 1_555
C15 C16 1_555 1_555
C17 C18 1_555 1_555

#END
