
#######################################################################
#
#                 Cambridge Crystallographic Data Centre
#                                CCDC 
#
#######################################################################
#
# If this CIF has been generated from an entry in the Cambridge 
# Structural Database, then it will include bibliographic, chemical, 
# crystal, experimental, refinement or atomic coordinate data resulting 
# from the CCDC's data processing and validation procedures.
#
#######################################################################

data_PEZHAG
_chemical_formula_moiety         'C30 H34 N4 O3'
_chemical_name_systematic        
2-(1,14-dioxo-1,2,3,4,9,10,11,12,13,14,16,17,18,18a-tetradecahydro-5,8-ethenopyrrolo[1,2-a][1,4]diazacyclohexadecin-9-yl)-N-(quinolin-8-yl)acetamide
_symmetry_cell_setting           orthorhombic
_symmetry_space_group_name_H-M   'P 21 21 21'
_symmetry_Int_Tables_number      19
_space_group_name_Hall           'P 2ac 2ab'
loop_
_symmetry_equiv_pos_site_id
_symmetry_equiv_pos_as_xyz
1 x,y,z
2 1/2-x,-y,1/2+z
3 1/2+x,1/2-y,-z
4 -x,1/2+y,1/2-z
_cell_length_a                   6.6466(6)
_cell_length_b                   17.1932(12)
_cell_length_c                   22.5467(19)
_cell_angle_alpha                90
_cell_angle_beta                 90
_cell_angle_gamma                90
_cell_volume                     2576.55
_exptl_crystal_colour            colorless
_exptl_crystal_description       block
_cell_formula_units_Z            4
loop_
_atom_site_label
_atom_site_type_symbol
_atom_site_fract_x
_atom_site_fract_y
_atom_site_fract_z
N1 N 0.5001(7) 0.0088(2) 0.16599(18)
O1 O 0.1805(6) -0.03114(19) 0.17751(17)
N2 N 0.9862(7) -0.6372(2) 0.12607(18)
O2 O 1.2130(6) -0.37411(18) 0.17141(17)
N3 N 0.4735(8) -0.0502(2) 0.05355(18)
H1 H 0.4928 -0.0753 0.0871
C1 C 0.5005(9) -0.1619(2) 0.2218(2)
H2 H 0.3841 -0.1934 0.2085
H3 H 0.5887 -0.1531 0.1870
C2 C 0.8159(8) -0.2672(3) 0.1524(2)
O3 O 0.4031(7) 0.06714(19) 0.01369(16)
C3 C 1.4940(9) -0.6214(3) 0.0588(2)
H4 H 1.5901 -0.6512 0.0375
C4 C 0.4392(9) 0.0266(3) 0.0568(2)
C5 C 0.8969(9) -0.1646(3) 0.0833(2)
H5 H 0.9816 -0.1224 0.0724
C6 C 0.6169(9) -0.2070(3) 0.2690(2)
H6 H 0.5386 -0.2057 0.3063
H7 H 0.7455 -0.1796 0.2764
C7 C 0.6188(10) -0.2466(3) 0.0641(2)
H8 H 0.5096 -0.2622 0.0397
N4 N 1.0618(7) -0.4898(2) 0.15210(18)
H9 H 0.9477 -0.5150 0.1569
C8 C 0.4514(9) 0.0635(2) 0.1182(2)
H10 H 0.3222 0.0907 0.1274
C9 C 0.9374(9) -0.2053(3) 0.1352(2)
H11 H 1.0491 -0.1909 0.1590
C10 C 1.3980(9) -0.5011(3) 0.1063(2)
H12 H 1.4323 -0.4494 0.1172
C11 C 0.8443(9) -0.3055(3) 0.2122(2)
H13 H 0.9673 -0.2830 0.2311
C12 C 0.7353(9) -0.1840(3) 0.0470(2)
C13 C 1.2134(9) -0.5309(3) 0.1222(2)
C14 C 0.4815(10) -0.0952(3) -0.0008(2)
H14 H 0.4603 -0.0603 -0.0352
H15 H 0.3723 -0.1344 -0.0007
C15 C 0.6639(9) -0.2921(3) 0.2542(2)
H16 H 0.5429 -0.3156 0.2360
H17 H 0.6903 -0.3201 0.2918
C16 C 1.0665(9) -0.4165(3) 0.1746(2)
C17 C 1.1674(9) -0.6098(3) 0.1074(2)
C18 C 1.0688(10) -0.7592(3) 0.0809(2)
H18 H 1.0277 -0.8109 0.0721
C19 C 1.3073(9) -0.6545(3) 0.0748(2)
C20 C 0.8738(9) -0.3939(3) 0.2066(2)
H19 H 0.8752 -0.4170 0.2468
H20 H 0.7578 -0.4161 0.1849
C21 C 0.4254(9) -0.0835(2) 0.2451(2)
H21 H 0.3123 -0.0920 0.2729
H22 H 0.5350 -0.0571 0.2670
C22 C 1.2523(9) -0.7323(3) 0.0621(2)
H23 H 1.3412 -0.7654 0.0408
C23 C 0.6566(9) -0.2869(3) 0.1155(2)
H24 H 0.5719 -0.3292 0.1260
C24 C 0.9447(10) -0.7102(3) 0.1127(2)
H25 H 0.8197 -0.7305 0.1259
C25 C 0.7114(9) 0.0182(3) 0.1866(2)
H26 H 0.7818 -0.0325 0.1878
H27 H 0.7164 0.0423 0.2264
C26 C 0.6841(10) -0.1362(3) -0.0070(2)
H28 H 0.6807 -0.1705 -0.0423
H29 H 0.7906 -0.0968 -0.0134
C27 C 0.6241(9) 0.1212(3) 0.1199(2)
H30 H 0.5968 0.1637 0.1485
H31 H 0.6488 0.1439 0.0802
C28 C 0.3567(9) -0.0325(3) 0.1946(2)
C29 C 1.5357(9) -0.5463(3) 0.0743(2)
H32 H 1.6610 -0.5242 0.0631
C30 C 0.8032(9) 0.0713(3) 0.1402(2)
H33 H 0.8596 0.0410 0.1068
H34 H 0.9108 0.1040 0.1575
loop_
_geom_bond_atom_site_label_1
_geom_bond_atom_site_label_2
_geom_bond_site_symmetry_1
_geom_bond_site_symmetry_2
N1 C8 1_555 1_555
O1 C28 1_555 1_555
N2 C17 1_555 1_555
O2 C16 1_555 1_555
N3 H1 1_555 1_555
C1 H2 1_555 1_555
H3 C1 1_555 1_555
C2 C9 1_555 1_555
O3 C4 1_555 1_555
C3 H4 1_555 1_555
C4 N3 1_555 1_555
C5 H5 1_555 1_555
C6 C1 1_555 1_555
H6 C6 1_555 1_555
H7 C6 1_555 1_555
C7 H8 1_555 1_555
N4 H9 1_555 1_555
C8 C4 1_555 1_555
H10 C8 1_555 1_555
C9 C5 1_555 1_555
H11 C9 1_555 1_555
C10 H12 1_555 1_555
C11 C2 1_555 1_555
H13 C11 1_555 1_555
C12 C5 1_555 1_555
C13 N4 1_555 1_555
C14 N3 1_555 1_555
H14 C14 1_555 1_555
H15 C14 1_555 1_555
C15 C6 1_555 1_555
H16 C15 1_555 1_555
H17 C15 1_555 1_555
C16 N4 1_555 1_555
C17 C13 1_555 1_555
C18 H18 1_555 1_555
C19 C3 1_555 1_555
C20 C11 1_555 1_555
H19 C20 1_555 1_555
H20 C20 1_555 1_555
C21 C1 1_555 1_555
H21 C21 1_555 1_555
H22 C21 1_555 1_555
C22 C18 1_555 1_555
H23 C22 1_555 1_555
C23 C2 1_555 1_555
H24 C23 1_555 1_555
C24 N2 1_555 1_555
H25 C24 1_555 1_555
C25 N1 1_555 1_555
H26 C25 1_555 1_555
H27 C25 1_555 1_555
C26 C12 1_555 1_555
H28 C26 1_555 1_555
H29 C26 1_555 1_555
C27 C8 1_555 1_555
H30 C27 1_555 1_555
H31 C27 1_555 1_555
C28 N1 1_555 1_555
C29 C3 1_555 1_555
H32 C29 1_555 1_555
C30 C25 1_555 1_555
H33 C30 1_555 1_555
H34 C30 1_555 1_555
C7 C12 1_555 1_555
C7 C23 1_555 1_555
C10 C13 1_555 1_555
C10 C29 1_555 1_555
C11 C15 1_555 1_555
C14 C26 1_555 1_555
C16 C20 1_555 1_555
C17 C19 1_555 1_555
C18 C24 1_555 1_555
C19 C22 1_555 1_555
C21 C28 1_555 1_555
C27 C30 1_555 1_555

#END
