
#######################################################################
#
#                 Cambridge Crystallographic Data Centre
#                                CCDC 
#
#######################################################################
#
# If this CIF has been generated from an entry in the Cambridge 
# Structural Database, then it will include bibliographic, chemical, 
# crystal, experimental, refinement or atomic coordinate data resulting 
# from the CCDC's data processing and validation procedures.
#
#######################################################################

data_PEZHOT
_chemical_formula_moiety         'C36 H48 S4 Si2'
_chemical_name_systematic        
tristhieno[2',3':5,6;3'',2'':3,4;3''',2''':7,8]naphtho[1,2-b]thiene-2,8-diylbis(triisopropylsilane)
_symmetry_cell_setting           monoclinic
_symmetry_space_group_name_H-M   'P 21/c'
_symmetry_Int_Tables_number      14
_space_group_name_Hall           '-P 2ybc'
loop_
_symmetry_equiv_pos_site_id
_symmetry_equiv_pos_as_xyz
1 x,y,z
2 -x,1/2+y,1/2-z
3 -x,-y,-z
4 x,1/2-y,1/2+z
_cell_length_a                   14.450(3)
_cell_length_b                   16.149(3)
_cell_length_c                   16.146(4)
_cell_angle_alpha                90
_cell_angle_beta                 110.2852(9)
_cell_angle_gamma                90
_cell_volume                     3534.04
_exptl_crystal_colour            'light yellow'
_exptl_crystal_description       prism
_cell_formula_units_Z            4
loop_
_atom_site_label
_atom_site_type_symbol
_atom_site_fract_x
_atom_site_fract_y
_atom_site_fract_z
C1 C 0.1473(2) -0.04854(19) -0.0365(2)
H1 H 0.1304 -0.0640 -0.0967
C2 C 0.1122(2) 0.02078(18) -0.0066(2)
H2 H 0.0670 0.0582 -0.0456
C3 C 0.1469(2) 0.03177(18) 0.0826(2)
C4 C 0.1263(2) 0.09672(17) 0.13358(19)
C5 C 0.0687(2) 0.16676(17) 0.1059(2)
H3 H 0.0340 0.1766 0.0450
C6 C 0.0633(2) 0.22137(18) 0.1688(2)
S1 S 0.13382(5) 0.18164(4) 0.27076(5)
C7 C 0.1699(2) 0.09444(16) 0.22492(18)
C8 C 0.2355(2) 0.03038(17) 0.27156(18)
C9 C 0.2827(2) 0.02718(17) 0.36543(19)
S2 S 0.26798(6) 0.09869(5) 0.44140(5)
C10 C 0.3484(2) 0.04641(19) 0.5287(2)
H4 H 0.3658 0.0624 0.5888
C11 C 0.3848(2) -0.02286(18) 0.4990(2)
H5 H 0.4315 -0.0593 0.5380
C12 C 0.3481(2) -0.03482(18) 0.4092(2)
C13 C 0.3693(2) -0.09967(17) 0.35861(19)
C14 C 0.4287(2) -0.16777(17) 0.3851(2)
H6 H 0.4651 -0.1769 0.4458
C15 C 0.4344(2) -0.22198(18) 0.3227(2)
S3 S 0.36066(5) -0.18459(4) 0.22112(5)
C16 C 0.3235(2) -0.09814(16) 0.26732(18)
C17 C 0.2572(2) -0.03442(17) 0.22102(19)
C18 C 0.2111(2) -0.03071(17) 0.12667(19)
S4 S 0.22557(6) -0.10225(5) 0.05101(5)
Si1 Si -0.00613(6) 0.32245(5) 0.15199(6)
C19 C -0.0599(3) 0.3348(2) 0.0276(2)
H7 H -0.0854 0.2792 0.0028
C20 C 0.0177(3) 0.3597(3) -0.0123(3)
H8 H -0.0122 0.3605 -0.0768
H9 H 0.0721 0.3197 0.0054
H10 H 0.0431 0.4150 0.0089
C21 C -0.1479(4) 0.3949(3) -0.0027(3)
H11 H -0.1269 0.4496 0.0232
H12 H -0.2009 0.3742 0.0166
H13 H -0.1721 0.3992 -0.0673
C22 C -0.1083(2) 0.31300(19) 0.1985(2)
H14 H -0.1486 0.3648 0.1824
C23 C -0.1765(3) 0.2407(2) 0.1563(3)
H15 H -0.1409 0.1884 0.1749
H16 H -0.1984 0.2454 0.0919
H17 H -0.2341 0.2418 0.1752
C24 C -0.0717(3) 0.3055(2) 0.2997(2)
H18 H -0.1282 0.2983 0.3193
H19 H -0.0357 0.3559 0.3262
H20 H -0.0277 0.2576 0.3182
C25 C 0.0791(3) 0.4116(2) 0.2020(3)
H21 H 0.1113 0.4256 0.1581
C26 C 0.0212(3) 0.4897(2) 0.2091(3)
H22 H -0.0149 0.4791 0.2494
H23 H -0.0255 0.5041 0.1506
H24 H 0.0673 0.5357 0.2318
C27 C 0.1620(3) 0.3955(2) 0.2864(3)
H25 H 0.2014 0.4460 0.3051
H26 H 0.2037 0.3510 0.2775
H27 H 0.1352 0.3790 0.3321
Si2 Si 0.50659(6) -0.32177(5) 0.33700(6)
C28 C 0.6127(2) -0.3061(2) 0.2963(2)
H28 H 0.6545 -0.3571 0.3119
C29 C 0.5799(3) -0.2956(3) 0.1958(3)
H29 H 0.5349 -0.2483 0.1775
H30 H 0.5461 -0.3460 0.1668
H31 H 0.6379 -0.2858 0.1788
C30 C 0.6776(3) -0.2334(3) 0.3433(3)
H32 H 0.7354 -0.2300 0.3250
H33 H 0.6991 -0.2416 0.4073
H34 H 0.6397 -0.1818 0.3276
C31 C 0.5551(3) -0.3391(2) 0.4599(2)
H35 H 0.5804 -0.2844 0.4876
C32 C 0.6433(3) -0.3999(3) 0.4906(3)
H36 H 0.6642 -0.4073 0.5547
H37 H 0.6982 -0.3774 0.4752
H38 H 0.6233 -0.4534 0.4613
C33 C 0.4754(3) -0.3654(3) 0.4958(3)
H39 H 0.4510 -0.4205 0.4731
H40 H 0.4209 -0.3256 0.4771
H41 H 0.5029 -0.3671 0.5605
C34 C 0.4263(4) -0.4047(4) 0.2617(4)
H42 H 0.4136 -0.3854 0.1999
C35 C 0.3260(4) -0.4179(4) 0.2695(4)
H43 H 0.2861 -0.4537 0.2213
H44 H 0.2929 -0.3644 0.2659
H45 H 0.3339 -0.4442 0.3263
C36 C 0.4845(7) -0.4860(5) 0.2720(5)
H46 H 0.5135 -0.5002 0.3348
H47 H 0.5371 -0.4792 0.2473
H48 H 0.4400 -0.5305 0.2405
C37? C 0.4219(10) -0.4139(8) 0.2960(8)
H49? H 0.3887 -0.4221 0.3404
C38? C 0.3387(8) -0.3974(7) 0.2089(7)
H50? H 0.3662 -0.3749 0.1660
H51? H 0.2924 -0.3574 0.2184
H52? H 0.3039 -0.4493 0.1862
C39? C 0.4776(16) -0.4948(11) 0.2964(12)
H53? H 0.4308 -0.5376 0.2645
H54? H 0.5114 -0.5127 0.3575
H55? H 0.5264 -0.4857 0.2676
loop_
_geom_bond_atom_site_label_1
_geom_bond_atom_site_label_2
_geom_bond_site_symmetry_1
_geom_bond_site_symmetry_2
C1 H1 1_555 1_555
C2 C1 1_555 1_555
H2 C2 1_555 1_555
C3 C2 1_555 1_555
C4 C3 1_555 1_555
C5 C4 1_555 1_555
H3 C5 1_555 1_555
C6 C5 1_555 1_555
S1 C6 1_555 1_555
C7 C4 1_555 1_555
C8 C7 1_555 1_555
C9 C8 1_555 1_555
S2 C9 1_555 1_555
C10 S2 1_555 1_555
H4 C10 1_555 1_555
C11 C10 1_555 1_555
H5 C11 1_555 1_555
C12 C9 1_555 1_555
C13 C12 1_555 1_555
C14 C13 1_555 1_555
H6 C14 1_555 1_555
C15 C14 1_555 1_555
S3 C15 1_555 1_555
C16 C13 1_555 1_555
C17 C8 1_555 1_555
C18 C3 1_555 1_555
S4 C1 1_555 1_555
Si1 C6 1_555 1_555
C19 Si1 1_555 1_555
H7 C19 1_555 1_555
C20 C19 1_555 1_555
H8 C20 1_555 1_555
H9 C20 1_555 1_555
H10 C20 1_555 1_555
C21 C19 1_555 1_555
H11 C21 1_555 1_555
H12 C21 1_555 1_555
H13 C21 1_555 1_555
C22 Si1 1_555 1_555
H14 C22 1_555 1_555
C23 C22 1_555 1_555
H15 C23 1_555 1_555
H16 C23 1_555 1_555
H17 C23 1_555 1_555
C24 C22 1_555 1_555
H18 C24 1_555 1_555
H19 C24 1_555 1_555
H20 C24 1_555 1_555
C25 Si1 1_555 1_555
H21 C25 1_555 1_555
C26 C25 1_555 1_555
H22 C26 1_555 1_555
H23 C26 1_555 1_555
H24 C26 1_555 1_555
C27 C25 1_555 1_555
H25 C27 1_555 1_555
H26 C27 1_555 1_555
H27 C27 1_555 1_555
Si2 C15 1_555 1_555
C28 Si2 1_555 1_555
H28 C28 1_555 1_555
C29 C28 1_555 1_555
H29 C29 1_555 1_555
H30 C29 1_555 1_555
H31 C29 1_555 1_555
C30 C28 1_555 1_555
H32 C30 1_555 1_555
H33 C30 1_555 1_555
H34 C30 1_555 1_555
C31 Si2 1_555 1_555
H35 C31 1_555 1_555
C32 C31 1_555 1_555
H36 C32 1_555 1_555
H37 C32 1_555 1_555
H38 C32 1_555 1_555
C33 C31 1_555 1_555
H39 C33 1_555 1_555
H40 C33 1_555 1_555
H41 C33 1_555 1_555
C34 Si2 1_555 1_555
H42 C34 1_555 1_555
C35 C34 1_555 1_555
H43 C35 1_555 1_555
H44 C35 1_555 1_555
H45 C35 1_555 1_555
C36 C34 1_555 1_555
H46 C36 1_555 1_555
H47 C36 1_555 1_555
H48 C36 1_555 1_555
S1 C7 1_555 1_555
C11 C12 1_555 1_555
S3 C16 1_555 1_555
C16 C17 1_555 1_555
C17 C18 1_555 1_555
C18 S4 1_555 1_555

#END
