
#######################################################################
#
#                 Cambridge Crystallographic Data Centre
#                                CCDC 
#
#######################################################################
#
# If this CIF has been generated from an entry in the Cambridge 
# Structural Database, then it will include bibliographic, chemical, 
# crystal, experimental, refinement or atomic coordinate data resulting 
# from the CCDC's data processing and validation procedures.
#
#######################################################################

data_PEZHOU
_chemical_formula_moiety         'C27 H29 N3 O4'
_chemical_name_systematic        
'methyl 5-oxo-10-{2-oxo-2-[(quinolin-8-yl)amino]ethyl}-4-azabicyclo[9.2.2]pentadeca-1(13),11,14-triene-3-carboxylate'
_symmetry_cell_setting           orthorhombic
_symmetry_space_group_name_H-M   'P 21 21 21'
_symmetry_Int_Tables_number      19
_space_group_name_Hall           'P 2ac 2ab'
loop_
_symmetry_equiv_pos_site_id
_symmetry_equiv_pos_as_xyz
1 x,y,z
2 1/2-x,-y,1/2+z
3 1/2+x,1/2-y,-z
4 -x,1/2+y,1/2-z
_cell_length_a                   11.6716(4)
_cell_length_b                   12.8545(4)
_cell_length_c                   15.3380(5)
_cell_angle_alpha                90
_cell_angle_beta                 90
_cell_angle_gamma                90
_cell_volume                     2301.2
_exptl_crystal_colour            colorless
_exptl_crystal_description       block
_cell_formula_units_Z            4
loop_
_atom_site_label
_atom_site_type_symbol
_atom_site_fract_x
_atom_site_fract_y
_atom_site_fract_z
O1 O 0.74844(18) 0.59729(14) 0.13269(13)
O2 O 0.92451(17) 0.75127(14) -0.35614(13)
N1 N 0.92219(19) 0.57559(16) -0.36801(14)
H1 H 0.8806 0.5197 -0.3777
N2 N 0.8781(2) 0.92330(18) 0.26097(15)
O3 O 1.0681(2) 0.43526(16) -0.46901(15)
O4 O 1.17401(18) 0.58031(15) -0.47552(13)
C1 C 0.6799(2) 0.6582(2) -0.21430(17)
H2 H 0.7464 0.6105 -0.2140
H3 H 0.6098 0.6153 -0.2196
C2 C 1.0958(2) 0.5183(2) -0.43856(19)
C3 C 0.7306(2) 0.6588(2) -0.04853(17)
H4 H 0.6790 0.6002 -0.0312
C4 C 0.8578(2) 0.7386(2) 0.25555(17)
C5 C 0.7406(2) 0.6715(2) -0.37231(16)
H5 H 0.7112 0.5993 -0.3744
H6 H 0.7183 0.7069 -0.4270
N3 N 0.8232(2) 0.75438(17) 0.16908(14)
H7 H 0.8378 0.8165 0.1477
C6 C 0.9398(3) 0.7207(2) 0.42724(19)
H8 H 0.9679 0.7138 0.4851
C7 C 0.8882(2) 0.8300(2) 0.30298(17)
C8 C 0.9312(2) 0.6779(2) -0.11137(18)
H9 H 0.9349 0.7486 -0.0935
C9 C 1.0455(2) 0.5651(2) -0.35639(19)
H10 H 1.0785 0.6364 -0.3488
C10 C 0.7704(2) 0.6876(2) 0.11350(17)
C11 C 0.6762(3) 0.7169(2) -0.12724(18)
H11 H 0.5952 0.7324 -0.1131
H12 H 0.7163 0.7842 -0.1347
C12 C 0.7389(2) 0.7355(2) 0.02723(17)
H13 H 0.7968 0.7890 0.0125
H14 H 0.6642 0.7712 0.0336
C13 C 0.8514(3) 0.5080(2) -0.09769(17)
H15 H 0.8003 0.4609 -0.0699
C14 C 0.9516(3) 1.0057(2) 0.3904(2)
H16 H 0.9735 1.0686 0.4184
C15 C 1.0123(3) 0.6396(2) -0.1690(2)
H17 H 1.0707 0.6846 -0.1900
C16 C 0.9288(2) 0.8204(2) 0.38933(18)
C17 C 1.0768(3) 0.5001(2) -0.2751(2)
H18 H 1.0600 0.4258 -0.2865
H19 H 1.1598 0.5068 -0.2632
C18 C 0.8700(2) 0.6701(2) -0.36411(16)
C19 C 0.6885(2) 0.7291(2) -0.29382(17)
H20 H 0.7367 0.7901 -0.2794
H21 H 0.6112 0.7547 -0.3094
C20 C 0.9090(3) 1.0072(2) 0.3046(2)
H22 H 0.9020 1.0726 0.2763
C21 C 0.8439(2) 0.6143(2) -0.07905(17)
C22 C 0.8681(3) 0.6418(2) 0.29469(19)
H23 H 0.8468 0.5807 0.2638
C23 C 0.9324(3) 0.4699(2) -0.15619(18)
H24 H 0.9347 0.3975 -0.1685
C24 C 1.0098(2) 0.5360(2) -0.19681(19)
C25 C 1.2262(3) 0.5427(2) -0.55622(19)
H25 H 1.2683 0.4783 -0.5445
H26 H 1.2790 0.5955 -0.5788
H27 H 1.1661 0.5292 -0.5994
C26 C 0.9103(3) 0.6346(2) 0.3807(2)
H28 H 0.9183 0.5680 0.4068
C27 C 0.9611(3) 0.9131(3) 0.4326(2)
H29 H 0.9892 0.9107 0.4907
loop_
_geom_bond_atom_site_label_1
_geom_bond_atom_site_label_2
_geom_bond_site_symmetry_1
_geom_bond_site_symmetry_2
O1 C10 1_555 1_555
O2 C18 1_555 1_555
N1 H1 1_555 1_555
N2 C7 1_555 1_555
O3 C2 1_555 1_555
O4 C2 1_555 1_555
C1 H2 1_555 1_555
H3 C1 1_555 1_555
C2 C9 1_555 1_555
C3 H4 1_555 1_555
C4 N3 1_555 1_555
C5 H5 1_555 1_555
H6 C5 1_555 1_555
N3 H7 1_555 1_555
C6 H8 1_555 1_555
C7 C4 1_555 1_555
C8 H9 1_555 1_555
C9 N1 1_555 1_555
H10 C9 1_555 1_555
C10 N3 1_555 1_555
C11 C1 1_555 1_555
H11 C11 1_555 1_555
H12 C11 1_555 1_555
C12 C3 1_555 1_555
H13 C12 1_555 1_555
H14 C12 1_555 1_555
C13 H15 1_555 1_555
C14 H16 1_555 1_555
C15 C8 1_555 1_555
H17 C15 1_555 1_555
C16 C6 1_555 1_555
C17 C9 1_555 1_555
H18 C17 1_555 1_555
H19 C17 1_555 1_555
C18 N1 1_555 1_555
C19 C1 1_555 1_555
H20 C19 1_555 1_555
H21 C19 1_555 1_555
C20 N2 1_555 1_555
H22 C20 1_555 1_555
C21 C3 1_555 1_555
C22 C4 1_555 1_555
H23 C22 1_555 1_555
C23 C13 1_555 1_555
H24 C23 1_555 1_555
C24 C15 1_555 1_555
C25 O4 1_555 1_555
H25 C25 1_555 1_555
H26 C25 1_555 1_555
H27 C25 1_555 1_555
C26 C6 1_555 1_555
H28 C26 1_555 1_555
C27 C14 1_555 1_555
H29 C27 1_555 1_555
C3 C11 1_555 1_555
C5 C18 1_555 1_555
C5 C19 1_555 1_555
C7 C16 1_555 1_555
C8 C21 1_555 1_555
C10 C12 1_555 1_555
C13 C21 1_555 1_555
C14 C20 1_555 1_555
C16 C27 1_555 1_555
C17 C24 1_555 1_555
C22 C26 1_555 1_555
C23 C24 1_555 1_555

#END
