
#######################################################################
#
#                 Cambridge Crystallographic Data Centre
#                                CCDC 
#
#######################################################################
#
# If this CIF has been generated from an entry in the Cambridge 
# Structural Database, then it will include bibliographic, chemical, 
# crystal, experimental, refinement or atomic coordinate data resulting 
# from the CCDC's data processing and validation procedures.
#
#######################################################################

data_PEZHEJ
_chemical_formula_moiety         'C36 H49 I1 S4 Si2'
_chemical_name_systematic        
(4-Iodo-5-(5-(triisopropylsilyl)-3,3'-bithiophen-2-yl)thieno[3,2-e][1]benzothiophen-2-yl)(triisopropyl)silane
_symmetry_cell_setting           triclinic
_symmetry_space_group_name_H-M   'P -1'
_symmetry_Int_Tables_number      2
_space_group_name_Hall           '-P 1'
loop_
_symmetry_equiv_pos_site_id
_symmetry_equiv_pos_as_xyz
1 x,y,z
2 -x,-y,-z
_cell_length_a                   8.5863(13)
_cell_length_b                   12.1750(18)
_cell_length_c                   18.897(3)
_cell_angle_alpha                92.036(2)
_cell_angle_beta                 96.456(2)
_cell_angle_gamma                98.521(3)
_cell_volume                     1938.52
_exptl_crystal_colour            'light yellow'
_exptl_crystal_description       prism
_cell_formula_units_Z            2
loop_
_atom_site_label
_atom_site_type_symbol
_atom_site_fract_x
_atom_site_fract_y
_atom_site_fract_z
C1 C 0.0952(2) 0.22994(16) 0.91030(11)
S1 S -0.09196(6) 0.20300(5) 0.86207(3)
C2 C -0.1667(3) 0.13068(18) 0.93097(12)
H1 H -0.2746 0.0978 0.9293
C3 C -0.0575(2) 0.12543(17) 0.98720(11)
H2 H -0.0797 0.0878 1.0290
C4 C 0.0958(2) 0.18270(16) 0.97721(11)
C5 C 0.2406(2) 0.19783(16) 1.02270(10)
C6 C 0.2759(2) 0.15783(16) 1.09188(10)
H3 H 0.1992 0.1132 1.1153
C7 C 0.4294(2) 0.18924(16) 1.12146(11)
S2 S 0.53673(6) 0.27031(4) 1.06394(3)
C8 C 0.3737(2) 0.26120(16) 0.99982(10)
C9 C 0.3693(2) 0.30770(16) 0.93244(11)
C10 C 0.2306(2) 0.29109(16) 0.88624(10)
C11 C 0.2154(2) 0.32569(17) 0.81186(11)
S3 S 0.28429(6) 0.24691(4) 0.74805(3)
C12 C 0.2008(2) 0.31487(18) 0.67820(11)
C13 C 0.1233(2) 0.39468(17) 0.70504(11)
H4 H 0.0687 0.4415 0.6753
C14 C 0.1305(2) 0.40231(17) 0.78087(11)
I1 I 0.575372(16) 0.403168(11) 0.904952(7)
Si1 Si 0.52580(6) 0.15148(4) 1.20971(3)
C15 C 0.3622(3) 0.06623(18) 1.25263(12)
H5 H 0.2968 0.0168 1.2134
C16 C 0.2486(3) 0.1351(2) 1.28416(14)
H6 H 0.1587 0.0851 1.2986
H7 H 0.2097 0.1838 1.2482
H8 H 0.3046 0.1804 1.3258
C17 C 0.4232(3) -0.0116(2) 1.30819(14)
H9 H 0.4881 0.0328 1.3481
H10 H 0.4873 -0.0603 1.2861
H11 H 0.3328 -0.0570 1.3257
C18 C 0.6268(3) 0.28382(18) 1.26005(12)
H12 H 0.7123 0.3156 1.2315
C19 C 0.5223(3) 0.37491(19) 1.26730(14)
H13 H 0.4417 0.3510 1.2987
H14 H 0.4702 0.3880 1.2202
H15 H 0.5884 0.4438 1.2877
C20 C 0.7115(3) 0.2611(2) 1.33270(14)
H16 H 0.7803 0.3291 1.3529
H17 H 0.7758 0.2021 1.3266
H18 H 0.6327 0.2378 1.3650
C21 C 0.6816(2) 0.06249(18) 1.19225(11)
H19 H 0.7088 0.0253 1.2374
C22 C 0.6173(3) -0.02958(19) 1.13464(13)
H20 H 0.5839 0.0038 1.0901
H21 H 0.5264 -0.0773 1.1500
H22 H 0.7006 -0.0742 1.1269
C23 C 0.8355(3) 0.1297(2) 1.17352(13)
H23 H 0.9099 0.0790 1.1635
H24 H 0.8830 0.1814 1.2138
H25 H 0.8122 0.1718 1.1314
Si2 Si 0.22009(7) 0.26903(5) 0.58424(3)
C24 C 0.0824(3) 0.13302(19) 0.56153(12)
H26 H 0.0923 0.1103 0.5110
C25 C 0.1249(4) 0.0384(2) 0.60746(14)
H27 H 0.1205 0.0589 0.6577
H28 H 0.2322 0.0249 0.6009
H29 H 0.0491 -0.0293 0.5931
C26 C -0.0906(3) 0.1469(2) 0.56479(17)
H30 H -0.1584 0.0748 0.5539
H31 H -0.1211 0.1997 0.5298
H32 H -0.1033 0.1750 0.6127
C27 C 0.1528(3) 0.3787(2) 0.52467(12)
H33 H 0.0500 0.3940 0.5400
C28 C 0.2644(3) 0.4891(2) 0.53409(14)
H34 H 0.3622 0.4813 0.5135
H35 H 0.2899 0.5107 0.5850
H36 H 0.2130 0.5465 0.5098
C29 C 0.1173(4) 0.3407(2) 0.44562(13)
H37 H 0.0726 0.3985 0.4188
H38 H 0.0409 0.2718 0.4401
H39 H 0.2156 0.3276 0.4273
C30 C 0.4313(3) 0.2443(2) 0.58195(12)
H40 H 0.4430 0.1778 0.6106
C31 C 0.5594(3) 0.3384(2) 0.61670(14)
H41 H 0.6639 0.3148 0.6177
H42 H 0.5387 0.3555 0.6655
H43 H 0.5573 0.4048 0.5890
C32 C 0.4663(3) 0.2127(3) 0.50669(15)
H44 H 0.4599 0.2762 0.4766
H45 H 0.3883 0.1493 0.4863
H46 H 0.5730 0.1925 0.5091
C33 C 0.060(2) 0.4830(18) 0.8217(7)
C34 C 0.1050(14) 0.5189(13) 0.8942(6)
H47 H 0.1873 0.4918 0.9231
C35 C 0.0191(16) 0.5971(13) 0.9199(7)
H48 H 0.0408 0.6357 0.9654
S4 S -0.1341(4) 0.6118(3) 0.85459(16)
C36 C -0.0781(19) 0.5202(12) 0.7951(5)
H49 H -0.1350 0.4977 0.7496
C37? C 0.049(3) 0.479(3) 0.8209(11)
C38? C -0.078(3) 0.534(2) 0.7946(7)
H50? H -0.1247 0.5246 0.7464
C39? C -0.128(2) 0.6027(18) 0.8446(7)
H51? H -0.2164 0.6416 0.8367
S5? S -0.0051(7) 0.6055(6) 0.9239(3)
C40? C 0.117(2) 0.525(2) 0.8873(9)
H52? H 0.2173 0.5134 0.9097
loop_
_geom_bond_atom_site_label_1
_geom_bond_atom_site_label_2
_geom_bond_site_symmetry_1
_geom_bond_site_symmetry_2
C1 S1 1_555 1_555
S1 C2 1_555 1_555
C2 H1 1_555 1_555
C3 C2 1_555 1_555
H2 C3 1_555 1_555
C4 C1 1_555 1_555
C5 C4 1_555 1_555
C6 C5 1_555 1_555
H3 C6 1_555 1_555
C7 C6 1_555 1_555
S2 C7 1_555 1_555
C8 C5 1_555 1_555
C9 C8 1_555 1_555
C10 C1 1_555 1_555
C11 C10 1_555 1_555
S3 C11 1_555 1_555
C12 S3 1_555 1_555
C13 C12 1_555 1_555
H4 C13 1_555 1_555
C14 C11 1_555 1_555
I1 C9 1_555 1_555
Si1 C7 1_555 1_555
C15 Si1 1_555 1_555
H5 C15 1_555 1_555
C16 C15 1_555 1_555
H6 C16 1_555 1_555
H7 C16 1_555 1_555
H8 C16 1_555 1_555
C17 C15 1_555 1_555
H9 C17 1_555 1_555
H10 C17 1_555 1_555
H11 C17 1_555 1_555
C18 Si1 1_555 1_555
H12 C18 1_555 1_555
C19 C18 1_555 1_555
H13 C19 1_555 1_555
H14 C19 1_555 1_555
H15 C19 1_555 1_555
C20 C18 1_555 1_555
H16 C20 1_555 1_555
H17 C20 1_555 1_555
H18 C20 1_555 1_555
C21 Si1 1_555 1_555
H19 C21 1_555 1_555
C22 C21 1_555 1_555
H20 C22 1_555 1_555
H21 C22 1_555 1_555
H22 C22 1_555 1_555
C23 C21 1_555 1_555
H23 C23 1_555 1_555
H24 C23 1_555 1_555
H25 C23 1_555 1_555
Si2 C12 1_555 1_555
C24 Si2 1_555 1_555
H26 C24 1_555 1_555
C25 C24 1_555 1_555
H27 C25 1_555 1_555
H28 C25 1_555 1_555
H29 C25 1_555 1_555
C26 C24 1_555 1_555
H30 C26 1_555 1_555
H31 C26 1_555 1_555
H32 C26 1_555 1_555
C27 Si2 1_555 1_555
H33 C27 1_555 1_555
C28 C27 1_555 1_555
H34 C28 1_555 1_555
H35 C28 1_555 1_555
H36 C28 1_555 1_555
C29 C27 1_555 1_555
H37 C29 1_555 1_555
H38 C29 1_555 1_555
H39 C29 1_555 1_555
C30 Si2 1_555 1_555
H40 C30 1_555 1_555
C31 C30 1_555 1_555
H41 C31 1_555 1_555
H42 C31 1_555 1_555
H43 C31 1_555 1_555
C32 C30 1_555 1_555
H44 C32 1_555 1_555
H45 C32 1_555 1_555
H46 C32 1_555 1_555
C33 C14 1_555 1_555
C34 C33 1_555 1_555
H47 C34 1_555 1_555
C35 C34 1_555 1_555
H48 C35 1_555 1_555
S4 C35 1_555 1_555
C36 C33 1_555 1_555
H49 C36 1_555 1_555
C3 C4 1_555 1_555
S2 C8 1_555 1_555
C9 C10 1_555 1_555
C13 C14 1_555 1_555
S4 C36 1_555 1_555

#END
