
#######################################################################
#
#                 Cambridge Crystallographic Data Centre
#                                CCDC 
#
#######################################################################
#
# If this CIF has been generated from an entry in the Cambridge 
# Structural Database, then it will include bibliographic, chemical, 
# crystal, experimental, refinement or atomic coordinate data resulting 
# from the CCDC's data processing and validation procedures.
#
#######################################################################

data_PEZHUA
_chemical_formula_moiety         'C27 H29 N3 O4,0.5(H2 O1)'
_chemical_name_systematic        
'methyl 5-oxo-10-{2-oxo-2-[(quinolin-8-yl)amino]ethyl}-4-azabicyclo[9.2.2]pentadeca-1(13),11,14-triene-3-carboxylate hemihydrate'
_symmetry_cell_setting           orthorhombic
_symmetry_space_group_name_H-M   'P 21 21 21'
_symmetry_Int_Tables_number      19
_space_group_name_Hall           'P 2ac 2ab'
loop_
_symmetry_equiv_pos_site_id
_symmetry_equiv_pos_as_xyz
1 x,y,z
2 1/2-x,-y,1/2+z
3 1/2+x,1/2-y,-z
4 -x,1/2+y,1/2-z
_cell_length_a                   13.3988(6)
_cell_length_b                   15.5839(5)
_cell_length_c                   23.7571(6)
_cell_angle_alpha                90
_cell_angle_beta                 90
_cell_angle_gamma                90
_cell_volume                     4960.61
_exptl_crystal_colour            colorless
_cell_formula_units_Z            8
loop_
_atom_site_label
_atom_site_type_symbol
_atom_site_fract_x
_atom_site_fract_y
_atom_site_fract_z
N1 N -0.7021(4) -0.2036(3) -0.15183(19)
O1 O -0.1380(4) -0.6722(3) -0.04266(18)
N2 N -0.1839(4) -0.6224(3) 0.04240(19)
H1 H -0.2267 -0.6270 0.0692
N3 N -0.5224(4) -0.2822(3) -0.15276(18)
H2 H -0.5640 -0.2917 -0.1259
C1 C -0.6260(5) -0.1620(3) -0.1786(2)
C2 C -0.3201(5) -0.4571(3) -0.0809(2)
C3 C -0.2025(5) -0.6599(4) -0.0074(2)
C4 C -0.5304(5) -0.2009(4) -0.1797(2)
C5 C -0.3528(5) -0.4507(4) -0.0256(2)
H3 H -0.4209 -0.4484 -0.0181
C6 C -0.2183(5) -0.4500(4) -0.0901(2)
H4 H -0.1946 -0.4468 -0.1268
C7 C -0.4569(5) -0.3466(4) -0.1644(2)
O2 O -0.3891(4) -0.3392(3) -0.19792(17)
C8 C -0.1854(5) -0.4516(4) 0.0093(2)
C9 C -0.3322(5) -0.6432(4) -0.1186(2)
H5 H -0.3308 -0.6684 -0.1560
H6 H -0.2704 -0.6116 -0.1137
O3 O -0.0736(4) -0.6623(4) 0.1313(2)
C10 C -0.4807(5) -0.4289(4) -0.1349(2)
H7 H -0.5308 -0.4598 -0.1562
H8 H -0.5085 -0.4161 -0.0981
C11 C -0.0936(5) -0.5745(4) 0.0517(2)
H9 H -0.0514 -0.5829 0.0185
C12 C -0.5565(8) -0.0415(5) -0.2292(3)
H10 H -0.5640 0.0121 -0.2459
C13 C -0.2865(5) -0.4476(4) 0.0180(2)
H11 H -0.3106 -0.4426 0.0546
C14 C -0.4185(5) -0.5798(4) -0.1160(2)
H12 H -0.4488 -0.5832 -0.0790
H13 H -0.4685 -0.5968 -0.1434
C15 C -0.3120(6) -0.6853(4) -0.0166(2)
H14 H -0.3290 -0.7310 0.0095
H15 H -0.3542 -0.6364 -0.0078
C16 C -0.3885(5) -0.4863(4) -0.1275(2)
H16 H -0.3506 -0.4850 -0.1628
C17 C -0.1149(6) -0.4770(4) 0.0562(2)
H17 H -0.1447 -0.4640 0.0924
H18 H -0.0531 -0.4450 0.0529
C18 C -0.1516(5) -0.4475(4) -0.0463(3)
H19 H -0.0837 -0.4430 -0.0536
O4 O 0.0478(5) -0.5752(4) 0.1118(3)
C19 C -0.6381(6) -0.0810(4) -0.2036(2)
C20 C -0.3346(6) -0.7151(4) -0.0759(2)
H20 H -0.2863 -0.7584 -0.0866
H21 H -0.4002 -0.7415 -0.0765
C21 C -0.7895(5) -0.1645(4) -0.1501(3)
H22 H -0.8420 -0.1919 -0.1319
C22 C -0.8072(7) -0.0844(5) -0.1742(3)
H23 H -0.8699 -0.0591 -0.1714
C23 C -0.7330(8) -0.0440(4) -0.2013(3)
H24 H -0.7447 0.0086 -0.2186
C24 C -0.0344(8) -0.6042(6) 0.1019(3)
C25 C -0.4533(6) -0.1607(5) -0.2053(2)
H25 H -0.3910 -0.1870 -0.2063
C26 C -0.4659(8) -0.0810(5) -0.2299(3)
H26 H -0.4120 -0.0541 -0.2472
C27 C -0.0071(11) -0.6893(7) 0.1782(3)
H27 H 0.0162 -0.7466 0.1715
H28 H -0.0435 -0.6876 0.2130
H29 H 0.0489 -0.6510 0.1804
N4 N 0.3939(4) -0.2956(3) -0.03590(18)
O5 O -0.1434(3) -0.3908(3) -0.37392(16)
C28 C 0.0644(5) -0.2806(4) -0.2324(2)
H30 H 0.1307 -0.2629 -0.2324
N5 N -0.1084(4) -0.2502(3) -0.36341(16)
H31 H -0.0668 -0.2101 -0.3718
C29 C -0.0590(5) -0.3869(4) -0.2133(2)
H32 H -0.0763 -0.4410 -0.1999
O6 O -0.2472(4) -0.1682(3) -0.42496(17)
C30 C 0.1196(4) -0.4337(3) -0.2207(2)
H33 H 0.0885 -0.4881 -0.2096
C31 C 0.2385(4) -0.3693(4) -0.0251(2)
C32 C 0.0406(5) -0.3655(3) -0.21908(19)
C33 C -0.2007(4) -0.2270(4) -0.3371(2)
H34 H -0.2403 -0.2797 -0.3338
N6 N 0.2346(3) -0.3715(3) -0.08506(17)
H35 H 0.2729 -0.3354 -0.1019
C34 C 0.3225(4) -0.3274(4) -0.0011(2)
O7 O 0.1162(4) -0.4715(3) -0.10134(16)
C35 C 0.1792(5) -0.4220(4) -0.1192(2)
C36 C 0.2568(5) -0.3598(5) 0.0913(3)
H36 H 0.2611 -0.3559 0.1303
C37 C -0.0110(5) -0.2225(4) -0.2456(2)
H37 H 0.0058 -0.1660 -0.2541
O8 O -0.3214(4) -0.1137(4) -0.3491(2)
C38 C -0.2630(5) -0.1633(4) -0.3703(3)
C39 C 0.3305(5) -0.3215(4) 0.0580(2)
C40 C 0.2074(5) -0.4173(4) -0.1811(2)
H38 H 0.2592 -0.4593 -0.1886
H39 H 0.2347 -0.3610 -0.1890
C41 C -0.1334(5) -0.3289(4) -0.2272(2)
H40 H -0.1999 -0.3451 -0.2236
C42 C -0.1852(5) -0.1925(4) -0.2769(2)
H41 H -0.1618 -0.1337 -0.2786
H42 H -0.2481 -0.1933 -0.2567
C43 C -0.1105(5) -0.2466(4) -0.2465(2)
C44 C 0.4150(6) -0.2795(5) 0.0797(3)
H43 H 0.4227 -0.2735 0.1184
C45 C -0.0838(5) -0.3318(4) -0.3756(2)
C46 C 0.1794(6) -0.4021(6) 0.0678(3)
H44 H 0.1324 -0.4287 0.0907
C47 C 0.1556(5) -0.4431(4) -0.2826(2)
H45 H 0.1866 -0.3897 -0.2941
H46 H 0.2062 -0.4875 -0.2841
C48 C 0.4840(6) -0.2483(4) 0.0450(3)
H47 H 0.5400 -0.2203 0.0591
C49 C 0.4709(5) -0.2582(4) -0.0127(2)
H48 H 0.5202 -0.2368 -0.0364
C50 C 0.1695(5) -0.4064(5) 0.0090(2)
H49 H 0.1152 -0.4348 -0.0067
C51 C 0.0306(7) -0.3456(4) -0.3882(3)
H50 H 0.0431 -0.3279 -0.4267
H51 H 0.0681 -0.3074 -0.3639
C52 C 0.0740(5) -0.4651(4) -0.3241(2)
H52 H 0.0736 -0.5271 -0.3274
H53 H 0.0115 -0.4492 -0.3063
C53 C 0.0703(7) -0.4312(7) -0.3812(3)
H54 H 0.1376 -0.4319 -0.3964
H55 H 0.0306 -0.4701 -0.4039
C54 C -0.3084(7) -0.1127(5) -0.4603(3)
H56 H -0.2805 -0.1103 -0.4975
H57 H -0.3100 -0.0560 -0.4445
H58 H -0.3750 -0.1352 -0.4622
O9 O 0.0238(4) -0.1012(3) -0.36739(17)
H59 H -0.0151 -0.0619 -0.3790
H60 H 0.0622 -0.1167 -0.3940
loop_
_geom_bond_atom_site_label_1
_geom_bond_atom_site_label_2
_geom_bond_site_symmetry_1
_geom_bond_site_symmetry_2
N1 C1 1_555 1_555
O1 C3 1_555 1_555
N2 H1 1_555 1_555
N3 H2 1_555 1_555
C1 C4 1_555 1_555
C2 C5 1_555 1_555
C3 N2 1_555 1_555
C4 N3 1_555 1_555
C5 H3 1_555 1_555
C6 C2 1_555 1_555
H4 C6 1_555 1_555
C7 N3 1_555 1_555
O2 C7 1_555 1_555
C8 C13 1_555 1_555
C9 H5 1_555 1_555
H6 C9 1_555 1_555
O3 C24 1_555 1_555
C10 C7 1_555 1_555
H7 C10 1_555 1_555
H8 C10 1_555 1_555
C11 N2 1_555 1_555
H9 C11 1_555 1_555
C12 H10 1_555 1_555
C13 C5 1_555 1_555
H11 C13 1_555 1_555
C14 C9 1_555 1_555
H12 C14 1_555 1_555
H13 C14 1_555 1_555
C15 C3 1_555 1_555
H14 C15 1_555 1_555
H15 C15 1_555 1_555
C16 C2 1_555 1_555
H16 C16 1_555 1_555
C17 C8 1_555 1_555
H17 C17 1_555 1_555
H18 C17 1_555 1_555
C18 C6 1_555 1_555
H19 C18 1_555 1_555
O4 C24 1_555 1_555
C19 C1 1_555 1_555
C20 C9 1_555 1_555
H20 C20 1_555 1_555
H21 C20 1_555 1_555
C21 N1 1_555 1_555
H22 C21 1_555 1_555
C22 C21 1_555 1_555
H23 C22 1_555 1_555
C23 C19 1_555 1_555
H24 C23 1_555 1_555
C24 C11 1_555 1_555
C25 C4 1_555 1_555
H25 C25 1_555 1_555
C26 C12 1_555 1_555
H26 C26 1_555 1_555
C27 O3 1_555 1_555
H27 C27 1_555 1_555
H28 C27 1_555 1_555
H29 C27 1_555 1_555
N4 C34 1_555 1_555
O5 C45 1_555 1_555
C28 H30 1_555 1_555
N5 H31 1_555 1_555
C29 H32 1_555 1_555
O6 C38 1_555 1_555
C30 H33 1_555 1_555
C31 N6 1_555 1_555
C32 C28 1_555 1_555
C33 N5 1_555 1_555
H34 C33 1_555 1_555
N6 H35 1_555 1_555
C34 C31 1_555 1_555
O7 C35 1_555 1_555
C35 N6 1_555 1_555
C36 H36 1_555 1_555
C37 C28 1_555 1_555
H37 C37 1_555 1_555
O8 C38 1_555 1_555
C38 C33 1_555 1_555
C39 C34 1_555 1_555
C40 C30 1_555 1_555
H38 C40 1_555 1_555
H39 C40 1_555 1_555
C41 C29 1_555 1_555
H40 C41 1_555 1_555
C42 C33 1_555 1_555
H41 C42 1_555 1_555
H42 C42 1_555 1_555
C43 C37 1_555 1_555
C44 C39 1_555 1_555
H43 C44 1_555 1_555
C45 N5 1_555 1_555
C46 C36 1_555 1_555
H44 C46 1_555 1_555
C47 C30 1_555 1_555
H45 C47 1_555 1_555
H46 C47 1_555 1_555
C48 C44 1_555 1_555
H47 C48 1_555 1_555
C49 N4 1_555 1_555
H48 C49 1_555 1_555
C50 C31 1_555 1_555
H49 C50 1_555 1_555
C51 C45 1_555 1_555
H50 C51 1_555 1_555
H51 C51 1_555 1_555
C52 C47 1_555 1_555
H52 C52 1_555 1_555
H53 C52 1_555 1_555
C53 C51 1_555 1_555
H54 C53 1_555 1_555
H55 C53 1_555 1_555
C54 O6 1_555 1_555
H56 C54 1_555 1_555
H57 C54 1_555 1_555
H58 C54 1_555 1_555
O9 H59 1_555 1_555
H60 O9 1_555 1_555
C8 C18 1_555 1_555
C10 C16 1_555 1_555
C11 C17 1_555 1_555
C12 C19 1_555 1_555
C14 C16 1_555 1_555
C15 C20 1_555 1_555
C22 C23 1_555 1_555
C25 C26 1_555 1_555
C29 C32 1_555 1_555
C30 C32 1_555 1_555
C35 C40 1_555 1_555
C36 C39 1_555 1_555
C41 C43 1_555 1_555
C42 C43 1_555 1_555
C46 C50 1_555 1_555
C48 C49 1_555 1_555
C52 C53 1_555 1_555

#END
