
#######################################################################
#
#                 Cambridge Crystallographic Data Centre
#                                CCDC 
#
#######################################################################
#
# If this CIF has been generated from an entry in the Cambridge 
# Structural Database, then it will include bibliographic, chemical, 
# crystal, experimental, refinement or atomic coordinate data resulting 
# from the CCDC's data processing and validation procedures.
#
#######################################################################

data_PEZJEM
_chemical_formula_moiety         'C24 H25 N3 O2,H2 O1'
_chemical_name_systematic        
'2-[4-oxo-5-azabicyclo[8.2.2]tetradeca-1(12),10,13-trien-9-yl]-N-(quinolin-8-yl)acetamide monohydrate'
_symmetry_cell_setting           triclinic
_symmetry_space_group_name_H-M   'P -1'
_symmetry_Int_Tables_number      2
_space_group_name_Hall           '-P 1'
loop_
_symmetry_equiv_pos_site_id
_symmetry_equiv_pos_as_xyz
1 x,y,z
2 -x,-y,-z
_cell_length_a                   7.0584(7)
_cell_length_b                   8.8227(5)
_cell_length_c                   16.7347(9)
_cell_angle_alpha                84.780(5)
_cell_angle_beta                 88.226(6)
_cell_angle_gamma                85.036(6)
_cell_volume                     1033.64
_exptl_crystal_colour            colorless
_exptl_crystal_description       block
_cell_formula_units_Z            2
loop_
_atom_site_label
_atom_site_type_symbol
_atom_site_fract_x
_atom_site_fract_y
_atom_site_fract_z
O1 O 0.2091(3) 0.4295(3) 0.40282(12)
N1 N 0.5255(3) 0.4030(2) 0.41883(11)
H1 H 0.6340 0.4447 0.4106
O2 O 1.2078(4) -0.0187(3) 0.23781(13)
N2 N 0.9907(3) -0.1380(3) 0.17621(13)
H2 H 0.8787 -0.1743 0.1843
N3 N 0.7971(3) -0.2868(3) 0.08163(14)
C1 C 0.3694(4) 0.4771(3) 0.38771(15)
C2 C 0.7775(4) 0.1824(3) 0.29720(16)
C3 C 0.5412(4) 0.4351(3) 0.23711(14)
C4 C 0.7331(4) 0.4460(3) 0.24876(15)
H3 H 0.7859 0.5409 0.2356
C5 C 0.9633(4) -0.2348(3) 0.04964(16)
C6 C 1.0724(4) -0.1545(3) 0.09955(16)
C7 C 0.8482(4) 0.3214(3) 0.27913(15)
H4 H 0.9787 0.3321 0.2877
C8 C 0.5254(4) 0.2559(3) 0.46593(16)
H5 H 0.4468 0.1891 0.4388
H6 H 0.4657 0.2713 0.5192
C9 C 1.0283(4) -0.2585(3) -0.02927(16)
C10 C 1.0560(5) -0.0755(3) 0.23931(17)
C11 C 0.4030(5) 0.5743(4) 0.24108(17)
H7 H 0.2753 0.5524 0.2247
H8 H 0.4460 0.6602 0.2048
C12 C 0.4760(4) 0.2895(4) 0.24411(16)
H9 H 0.3504 0.2758 0.2290
C13 C 1.2400(4) -0.1023(3) 0.07068(18)
H10 H 1.3140 -0.0491 0.1036
C14 C 0.5964(5) 0.1634(3) 0.27354(16)
H11 H 0.5528 0.0640 0.2772
C15 C 0.3960(5) 0.6160(3) 0.33006(16)
H12 H 0.5159 0.6592 0.3419
H13 H 0.2898 0.6946 0.3375
C16 C 1.2018(4) -0.2027(3) -0.05735(17)
H14 H 1.2476 -0.2177 -0.1103
C17 C 0.8885(4) 0.0597(3) 0.35158(17)
H15 H 1.0132 0.0981 0.3631
C18 C 0.7263(4) 0.1746(3) 0.47768(17)
H16 H 0.8200 0.2497 0.4618
H17 H 0.7416 0.1440 0.5357
C19 C 1.3029(4) -0.1277(3) -0.00826(18)
H18 H 1.4198 -0.0910 -0.0277
C20 C 0.6983(5) -0.3621(5) 0.0353(2)
H19 H 0.5842 -0.4005 0.0570
C21 C 0.9277(5) -0.0876(4) 0.31409(18)
H20 H 0.8053 -0.1238 0.2997
H21 H 0.9881 -0.1650 0.3541
C22 C 0.7774(5) 0.0333(3) 0.43195(17)
H22 H 0.6580 -0.0117 0.4211
H23 H 0.8538 -0.0430 0.4674
C23 C 0.7509(5) -0.3892(5) -0.0438(2)
H24 H 0.6726 -0.4428 -0.0747
C24 C 0.9140(5) -0.3383(4) -0.07577(18)
H25 H 0.9516 -0.3561 -0.1293
O3 O 0.1461(3) 0.4166(2) 0.57625(12)
H26 H 0.1500 0.4058 0.5262
H27 H 0.0390 0.4605 0.5890
loop_
_geom_bond_atom_site_label_1
_geom_bond_atom_site_label_2
_geom_bond_site_symmetry_1
_geom_bond_site_symmetry_2
O1 C1 1_555 1_555
N1 H1 1_555 1_555
O2 C10 1_555 1_555
N2 H2 1_555 1_555
N3 C5 1_555 1_555
C1 N1 1_555 1_555
C2 C7 1_555 1_555
C3 C4 1_555 1_555
C4 H3 1_555 1_555
C5 C6 1_555 1_555
C6 N2 1_555 1_555
C7 C4 1_555 1_555
H4 C7 1_555 1_555
C8 N1 1_555 1_555
H5 C8 1_555 1_555
H6 C8 1_555 1_555
C9 C5 1_555 1_555
C10 N2 1_555 1_555
C11 C3 1_555 1_555
H7 C11 1_555 1_555
H8 C11 1_555 1_555
C12 C3 1_555 1_555
H9 C12 1_555 1_555
C13 C6 1_555 1_555
H10 C13 1_555 1_555
C14 C2 1_555 1_555
H11 C14 1_555 1_555
C15 C1 1_555 1_555
H12 C15 1_555 1_555
H13 C15 1_555 1_555
C16 C9 1_555 1_555
H14 C16 1_555 1_555
C17 C2 1_555 1_555
H15 C17 1_555 1_555
C18 C8 1_555 1_555
H16 C18 1_555 1_555
H17 C18 1_555 1_555
C19 C13 1_555 1_555
H18 C19 1_555 1_555
C20 N3 1_555 1_555
H19 C20 1_555 1_555
C21 C10 1_555 1_555
H20 C21 1_555 1_555
H21 C21 1_555 1_555
C22 C17 1_555 1_555
H22 C22 1_555 1_555
H23 C22 1_555 1_555
C23 C20 1_555 1_555
H24 C23 1_555 1_555
C24 C9 1_555 1_555
H25 C24 1_555 1_555
O3 H26 1_555 1_555
H27 O3 1_555 1_555
C11 C15 1_555 1_555
C12 C14 1_555 1_555
C16 C19 1_555 1_555
C17 C21 1_555 1_555
C18 C22 1_555 1_555
C23 C24 1_555 1_555

#END
