
#######################################################################
#
#                 Cambridge Crystallographic Data Centre
#                                CCDC 
#
#######################################################################
#
# If this CIF has been generated from an entry in the Cambridge 
# Structural Database, then it will include bibliographic, chemical, 
# crystal, experimental, refinement or atomic coordinate data resulting 
# from the CCDC's data processing and validation procedures.
#
#######################################################################

data_PEZJAH
_chemical_formula_moiety         'C15 H20 N1 O2 S1 1+,C6 H5 O3 S1 1-'
_chemical_name_systematic        
'6-Allyl-2-methyl-4-(phenylsulfonyl)-1,2,3,6-tetrahydropyridinium benzenesulfonate'
_symmetry_cell_setting           triclinic
_symmetry_space_group_name_H-M   'P -1'
_symmetry_Int_Tables_number      2
_space_group_name_Hall           '-P 1'
loop_
_symmetry_equiv_pos_site_id
_symmetry_equiv_pos_as_xyz
1 x,y,z
2 -x,-y,-z
_cell_length_a                   5.8989(8)
_cell_length_b                   12.0467(15)
_cell_length_c                   16.244(2)
_cell_angle_alpha                68.706(2)
_cell_angle_beta                 83.902(3)
_cell_angle_gamma                82.924(3)
_cell_volume                     1064.97
_exptl_crystal_colour            colorless
_exptl_crystal_description       prism
_cell_formula_units_Z            2
loop_
_atom_site_label
_atom_site_type_symbol
_atom_site_fract_x
_atom_site_fract_y
_atom_site_fract_z
C1 C 0.5755(4) 0.5058(2) 0.16202(15)
C2 C 0.3835(4) 0.5307(2) 0.11333(16)
H1 H 0.3599 0.4834 0.0797
C3 C 0.2282(4) 0.6252(2) 0.11483(17)
H2 H 0.0956 0.6432 0.0822
C4 C 0.2635(5) 0.6942(2) 0.16345(16)
H3 H 0.1543 0.7588 0.1644
C5 C 0.4568(5) 0.6698(2) 0.21066(17)
H4 H 0.4815 0.7183 0.2432
C6 C 0.6135(4) 0.5750(2) 0.21044(15)
H5 H 0.7460 0.5573 0.2431
C7 C 0.6069(4) 0.2605(2) 0.19781(15)
C8 C 0.5113(4) 0.2227(2) 0.29208(15)
H6 H 0.4420 0.2941 0.3052
H7 H 0.6368 0.1846 0.3319
C9 C 0.3312(4) 0.1353(2) 0.30962(15)
H8 H 0.1874 0.1796 0.2821
C10 C 0.2788(5) 0.0694(2) 0.40709(16)
H9 H 0.1620 0.0146 0.4148
H10 H 0.2220 0.1271 0.4359
H11 H 0.4185 0.0238 0.4338
C11 C 0.4598(4) 0.0960(2) 0.16818(14)
H12 H 0.5610 0.0355 0.1492
C12 C 0.2329(4) 0.1172(2) 0.12431(16)
H13 H 0.1611 0.0409 0.1442
H14 H 0.1280 0.1748 0.1440
C13 C 0.2624(5) 0.1646(3) 0.02511(17)
H15 H 0.3001 0.2447 -0.0032
C14 C 0.2401(5) 0.1040(3) -0.02493(19)
H16 H 0.2025 0.0236 0.0010
H17 H 0.2615 0.1402 -0.0875
C15 C 0.5837(4) 0.2059(2) 0.14220(16)
H18 H 0.6485 0.2379 0.0832
N1 N 0.4222(3) 0.04554(16) 0.26703(12)
H19 H 0.5589 0.0087 0.2904
H20 H 0.3213 -0.0122 0.2818
O1 O 0.8620(3) 0.40155(15) 0.07154(11)
O2 O 0.9341(3) 0.36402(15) 0.22697(12)
S1 S 0.77453(11) 0.38422(5) 0.16066(4)
C16 C 0.9046(4) -0.2619(2) 0.43087(16)
C17 C 0.7173(5) -0.3268(3) 0.45496(19)
H21 H 0.6042 -0.3135 0.4141
C18 C 0.6943(6) -0.4118(3) 0.5392(2)
H22 H 0.5643 -0.4565 0.5563
C19 C 0.8580(6) -0.4317(3) 0.5982(2)
H23 H 0.8419 -0.4904 0.6559
C20 C 1.0448(6) -0.3668(3) 0.5737(2)
H24 H 1.1576 -0.3801 0.6147
C21 C 1.0696(5) -0.2829(3) 0.49064(18)
H25 H 1.2004 -0.2389 0.4739
O3 O 0.8032(3) -0.17388(16) 0.26634(11)
O4 O 1.1788(3) -0.14822(15) 0.30212(11)
O5 O 0.8423(3) -0.03601(15) 0.33917(12)
S2 S 0.93369(11) -0.14736(5) 0.32585(4)
loop_
_geom_bond_atom_site_label_1
_geom_bond_atom_site_label_2
_geom_bond_site_symmetry_1
_geom_bond_site_symmetry_2
C1 C2 1_555 1_555
C2 H1 1_555 1_555
C3 C2 1_555 1_555
H2 C3 1_555 1_555
C4 C3 1_555 1_555
H3 C4 1_555 1_555
C5 C4 1_555 1_555
H4 C5 1_555 1_555
C6 C1 1_555 1_555
H5 C6 1_555 1_555
C7 C8 1_555 1_555
C8 H6 1_555 1_555
H7 C8 1_555 1_555
C9 C8 1_555 1_555
H8 C9 1_555 1_555
C10 C9 1_555 1_555
H9 C10 1_555 1_555
H10 C10 1_555 1_555
H11 C10 1_555 1_555
C11 H12 1_555 1_555
C12 C11 1_555 1_555
H13 C12 1_555 1_555
H14 C12 1_555 1_555
C13 C12 1_555 1_555
H15 C13 1_555 1_555
C14 C13 1_555 1_555
H16 C14 1_555 1_555
H17 C14 1_555 1_555
C15 C7 1_555 1_555
H18 C15 1_555 1_555
N1 C9 1_555 1_555
H19 N1 1_555 1_555
H20 N1 1_555 1_555
O1 S1 1_555 1_555
O2 S1 1_555 1_555
S1 C1 1_555 1_555
C16 C17 1_555 1_555
C17 H21 1_555 1_555
C18 C17 1_555 1_555
H22 C18 1_555 1_555
C19 C18 1_555 1_555
H23 C19 1_555 1_555
C20 C19 1_555 1_555
H24 C20 1_555 1_555
C21 C16 1_555 1_555
H25 C21 1_555 1_555
O3 S2 1_555 1_555
O4 S2 1_555 1_555
O5 S2 1_555 1_555
S2 C16 1_555 1_555
C5 C6 1_555 1_555
C7 S1 1_555 1_555
C11 C15 1_555 1_555
C11 N1 1_555 1_555
C20 C21 1_555 1_555

#END
