
#######################################################################
#
#                 Cambridge Crystallographic Data Centre
#                                CCDC 
#
#######################################################################
#
# If this CIF has been generated from an entry in the Cambridge 
# Structural Database, then it will include bibliographic, chemical, 
# crystal, experimental, refinement or atomic coordinate data resulting 
# from the CCDC's data processing and validation procedures.
#
#######################################################################

data_PEZKAA
_chemical_formula_moiety         'C22 H18 S5'
_chemical_name_systematic        
4,5-bis(Methylthio)-2-(2',6'-diphenylthiopyran-4'-ylidene)-1,3-dithiole
_symmetry_cell_setting           monoclinic
_symmetry_space_group_name_H-M   'C 2/c'
_symmetry_Int_Tables_number      15
_space_group_name_Hall           '-C 2yn'
loop_
_symmetry_equiv_pos_site_id
_symmetry_equiv_pos_as_xyz
1 x,y,z
2 1/2+x,1/2+y,z
3 -x,y,1/2-z
4 1/2-x,1/2+y,1/2-z
5 -x,-y,-z
6 1/2-x,1/2-y,-z
7 x,-y,1/2+z
8 1/2+x,1/2-y,1/2+z
_cell_length_a                   38.044(2)
_cell_length_b                   5.2080(9)
_cell_length_c                   21.394(2)
_cell_angle_alpha                90
_cell_angle_beta                 91.654(6)
_cell_angle_gamma                90
_cell_volume                     4237.09
_exptl_crystal_colour            'deep red'
_chemical_melting_point          '145 deg.C'
_cell_formula_units_Z            8
loop_
_atom_site_label
_atom_site_type_symbol
_atom_site_fract_x
_atom_site_fract_y
_atom_site_fract_z
S1 S 0.89095(3) 1.2521(4) -0.09007(9)
C1 C 0.85357(15) 1.2455(12) -0.04435(25)
C2 C 0.85036(14) 1.0882(12) 0.00463(25)
C3 C 0.87642(14) 0.9012(12) 0.02634(25)
C4 C 0.91026(14) 0.8905(13) -0.00290(26)
C5 C 0.91947(14) 1.0340(12) -0.05227(26)
S2 S 0.89879(3) 0.5092(3) 0.10485(6)
C6 C 0.86887(14) 0.7365(12) 0.07344(25)
S3 S 0.82718(3) 0.7128(4) 0.10561(7)
C7 C 0.83834(15) 0.4827(12) 0.16232(26)
C8 C 0.87109(15) 0.3885(12) 0.16193(25)
C9 C 0.82601(15) 1.4284(12) -0.06611(25)
C10 C 0.83373(18) 1.6289(14) -0.10442(28)
C11 C 0.80656(20) 1.8010(14) -0.12572(31)
C12 C 0.77254(19) 1.7644(16) -0.10783(35)
C13 C 0.76452(19) 1.5572(18) -0.07026(40)
C14 C 0.79099(16) 1.3887(16) -0.04898(34)
C15 C 0.95443(15) 1.0129(13) -0.08172(28)
C16 C 0.96486(29) 1.1666(29) -0.12286(75)
C17 C 0.99976(35) 1.1558(33) -0.14599(86)
C18 C 1.02051(20) 0.9758(21) -0.13381(46)
C19 C 1.01029(29) 0.8097(35) -0.09256(65)
C20 C 0.97693(28) 0.8322(31) -0.06581(62)
S4 S 0.80491(5) 0.3792(4) 0.21101(7)
C21 C 0.79466(23) 0.6726(15) 0.25177(35)
S5 S 0.88812(5) 0.1565(4) 0.21285(9)
C22 C 0.91676(32) 0.3606(25) 0.26160(43)
loop_
_geom_bond_atom_site_label_1
_geom_bond_atom_site_label_2
_geom_bond_site_symmetry_1
_geom_bond_site_symmetry_2
S1 C1 1_555 1_555
C1 C2 1_555 1_555
C2 C3 1_555 1_555
C3 C4 1_555 1_555
C4 C5 1_555 1_555
C5 S1 1_555 1_555
S2 C6 1_555 1_555
C6 C3 1_555 1_555
S3 C6 1_555 1_555
C7 S3 1_555 1_555
C8 S2 1_555 1_555
C9 C1 1_555 1_555
C10 C9 1_555 1_555
C11 C10 1_555 1_555
C12 C11 1_555 1_555
C13 C12 1_555 1_555
C14 C9 1_555 1_555
C15 C5 1_555 1_555
C16 C15 1_555 1_555
C17 C16 1_555 1_555
C18 C17 1_555 1_555
C19 C18 1_555 1_555
C20 C15 1_555 1_555
S4 C7 1_555 1_555
C21 S4 1_555 1_555
S5 C8 1_555 1_555
C22 S5 1_555 1_555
C7 C8 1_555 1_555
C13 C14 1_555 1_555
C19 C20 1_555 1_555

#END
