
#######################################################################
#
#                 Cambridge Crystallographic Data Centre
#                                CCDC 
#
#######################################################################
#
# If this CIF has been generated from an entry in the Cambridge 
# Structural Database, then it will include bibliographic, chemical, 
# crystal, experimental, refinement or atomic coordinate data resulting 
# from the CCDC's data processing and validation procedures.
#
#######################################################################

data_PEZKEN
_chemical_formula_moiety         'C27 H27 N1 O3 S1'
_chemical_name_systematic        
6-{1-[(4-methoxyphenyl)sulfonyl]hept-1-en-2-yl}phenanthridine
_symmetry_cell_setting           monoclinic
_symmetry_space_group_name_H-M   'P 21/c'
_symmetry_Int_Tables_number      14
_space_group_name_Hall           '-P 2ybc'
loop_
_symmetry_equiv_pos_site_id
_symmetry_equiv_pos_as_xyz
1 x,y,z
2 -x,1/2+y,1/2-z
3 -x,-y,-z
4 x,1/2-y,1/2+z
_cell_length_a                   12.6695(5)
_cell_length_b                   10.8478(5)
_cell_length_c                   17.0345(8)
_cell_angle_alpha                90
_cell_angle_beta                 92.744(2)
_cell_angle_gamma                90
_cell_volume                     2338.47
_exptl_crystal_colour            colorless
_exptl_crystal_description       block
_cell_formula_units_Z            4
loop_
_atom_site_label
_atom_site_type_symbol
_atom_site_fract_x
_atom_site_fract_y
_atom_site_fract_z
C1 C 0.02600(12) 0.15994(15) 0.32247(10)
C2 C -0.03227(13) 0.19982(15) 0.25206(10)
C3 C 0.01654(15) 0.26067(18) 0.19053(11)
H1 H 0.0888 0.2762 0.1945
C4 C -0.04176(17) 0.2973(2) 0.12472(12)
H2 H -0.0091 0.3375 0.0842
C5 C -0.14962(17) 0.2744(2) 0.11866(13)
H3 H -0.1888 0.2994 0.0739
C6 C -0.19886(15) 0.2157(2) 0.17763(12)
H4 H -0.2713 0.2015 0.1726
C7 C -0.14176(13) 0.17619(15) 0.24587(10)
C8 C -0.18906(13) 0.11361(15) 0.31034(10)
C9 C -0.29802(14) 0.08845(18) 0.31271(12)
H5 H -0.3433 0.1120 0.2708
C10 C -0.33800(14) 0.02998(19) 0.37576(13)
H6 H -0.4101 0.0144 0.3763
C11 C -0.27220(15) -0.00650(19) 0.43913(12)
H7 H -0.3004 -0.0470 0.4814
C12 C -0.16578(14) 0.01702(18) 0.43947(11)
H8 H -0.1220 -0.0074 0.4820
C13 C -0.12297(12) 0.07800(15) 0.37558(10)
C14 C 0.14210(13) 0.18855(17) 0.33261(11)
C15 C 0.16640(16) 0.31744(19) 0.36146(13)
H9 H 0.1159 0.3746 0.3371
H10 H 0.2364 0.3411 0.3463
C16 C 0.16135(19) 0.3251(2) 0.45023(14)
H11 H 0.0941 0.2920 0.4652
H12 H 0.2167 0.2737 0.4741
C17 C 0.1734(2) 0.4544(2) 0.48281(15)
H13 H 0.2410 0.4872 0.4684
H14 H 0.1186 0.5061 0.4585
C18 C 0.1669(3) 0.4618(3) 0.57035(18)
H15 H 0.1036 0.4187 0.5848
H16 H 0.2269 0.4178 0.5942
C19 C 0.1651(3) 0.5859(3) 0.6048(2)
H17 H 0.2351 0.6201 0.6065
H18 H 0.1405 0.5811 0.6572
H19 H 0.1185 0.6377 0.5733
C20 C 0.20852(13) 0.09800(17) 0.31863(11)
H20 H 0.1787 0.0261 0.2977
C21 C 0.40138(12) 0.10274(16) 0.24274(11)
C22 C 0.41076(15) 0.21479(18) 0.20504(13)
H21 H 0.3811 0.2851 0.2261
C23 C 0.46380(16) 0.22289(19) 0.13642(13)
H22 H 0.4695 0.2983 0.1111
C24 C 0.50851(14) 0.11835(18) 0.10545(11)
C25 C 0.49757(16) 0.00537(18) 0.14237(12)
H23 H 0.5267 -0.0651 0.1211
C26 C 0.44373(15) -0.00248(18) 0.21039(12)
H24 H 0.4357 -0.0784 0.2347
C27 C 0.58198(19) 0.2332(2) 0.00170(13)
H25 H 0.5147 0.2663 -0.0159
H26 H 0.6246 0.2203 -0.0427
H27 H 0.6169 0.2900 0.0375
N1 N -0.01537(11) 0.10200(13) 0.38043(9)
O1 O 0.37802(10) 0.20742(16) 0.37699(9)
O2 O 0.37272(11) -0.01999(16) 0.36918(9)
O3 O 0.56665(12) 0.11839(14) 0.04073(9)
S1 S 0.34607(3) 0.09777(5) 0.33503(3)
loop_
_geom_bond_atom_site_label_1
_geom_bond_atom_site_label_2
_geom_bond_site_symmetry_1
_geom_bond_site_symmetry_2
C1 C2 1_555 1_555
C2 C3 1_555 1_555
C3 H1 1_555 1_555
C4 C3 1_555 1_555
H2 C4 1_555 1_555
C5 C4 1_555 1_555
H3 C5 1_555 1_555
C6 C5 1_555 1_555
H4 C6 1_555 1_555
C7 C2 1_555 1_555
C8 C7 1_555 1_555
C9 C8 1_555 1_555
H5 C9 1_555 1_555
C10 C9 1_555 1_555
H6 C10 1_555 1_555
C11 C10 1_555 1_555
H7 C11 1_555 1_555
C12 C11 1_555 1_555
H8 C12 1_555 1_555
C13 C8 1_555 1_555
C14 C1 1_555 1_555
C15 C14 1_555 1_555
H9 C15 1_555 1_555
H10 C15 1_555 1_555
C16 C15 1_555 1_555
H11 C16 1_555 1_555
H12 C16 1_555 1_555
C17 C16 1_555 1_555
H13 C17 1_555 1_555
H14 C17 1_555 1_555
C18 C17 1_555 1_555
H15 C18 1_555 1_555
H16 C18 1_555 1_555
C19 C18 1_555 1_555
H17 C19 1_555 1_555
H18 C19 1_555 1_555
H19 C19 1_555 1_555
C20 C14 1_555 1_555
H20 C20 1_555 1_555
C21 C22 1_555 1_555
C22 H21 1_555 1_555
C23 C22 1_555 1_555
H22 C23 1_555 1_555
C24 C23 1_555 1_555
C25 C24 1_555 1_555
H23 C25 1_555 1_555
C26 C21 1_555 1_555
H24 C26 1_555 1_555
C27 H25 1_555 1_555
H26 C27 1_555 1_555
H27 C27 1_555 1_555
N1 C1 1_555 1_555
O1 S1 1_555 1_555
O2 S1 1_555 1_555
O3 C24 1_555 1_555
S1 C20 1_555 1_555
C6 C7 1_555 1_555
C12 C13 1_555 1_555
C13 N1 1_555 1_555
C21 S1 1_555 1_555
C25 C26 1_555 1_555
C27 O3 1_555 1_555

#END
