
#######################################################################
#
#                 Cambridge Crystallographic Data Centre
#                                CCDC 
#
#######################################################################
#
# If this CIF has been generated from an entry in the Cambridge 
# Structural Database, then it will include bibliographic, chemical, 
# crystal, experimental, refinement or atomic coordinate data resulting 
# from the CCDC's data processing and validation procedures.
#
#######################################################################

data_PEZKEK
_chemical_formula_moiety         'C13 H16 O2'
_chemical_name_systematic        
'Pentacyclo(6.3.0.0^2,6^.0^3,10^.0^5,9^)undecane-2-carboxylic acid'
_symmetry_cell_setting           monoclinic
_symmetry_space_group_name_H-M   'P 21/c'
_symmetry_Int_Tables_number      14
_space_group_name_Hall           '-P 2ybc'
loop_
_symmetry_equiv_pos_site_id
_symmetry_equiv_pos_as_xyz
1 x,y,z
2 -x,1/2+y,1/2-z
3 -x,-y,-z
4 x,1/2-y,1/2+z
_cell_length_a                   11.434(5)
_cell_length_b                   7.530(3)
_cell_length_c                   11.699(4)
_cell_angle_alpha                90
_cell_angle_beta                 102.25(3)
_cell_angle_gamma                90
_cell_volume                     984.327
_exptl_crystal_colour            colorless
_chemical_melting_point          '203-204 deg.C'
_cell_formula_units_Z            4
loop_
_atom_site_label
_atom_site_type_symbol
_atom_site_fract_x
_atom_site_fract_y
_atom_site_fract_z
O1 O 0.8584(4) -0.0655(8) 0.0033(4)
C1 C 0.7955(5) 0.0361(9) 0.1715(5)
C2 C 0.8846(5) 0.0184(9) 0.0953(6)
C3 C 0.6461(7) 0.0569(12) 0.2997(7)
O2 O 0.9849(4) 0.0886(8) 0.1295(4)
C4 C 0.5984(7) 0.0163(29) 0.1744(8)
C6 C 0.7440(14) -0.0752(21) 0.3395(12)
C8 C 0.8008(17) -0.1085(23) 0.2577(15)
C9 C 0.7149(13) 0.2245(18) 0.2863(14)
C10 C 0.7982(15) 0.2000(18) 0.2414(17)
C11 C 0.6658(9) 0.0369(35) 0.1096(10)
C12 C 0.8602(10) 0.0795(26) 0.3782(8)
C5 C 0.6381(12) 0.2658(18) 0.1388(9)
C7 C 0.6553(15) -0.2051(22) 0.1786(19)
loop_
_geom_bond_atom_site_label_1
_geom_bond_atom_site_label_2
_geom_bond_site_symmetry_1
_geom_bond_site_symmetry_2
O1 C2 1_555 1_555
C1 C2 1_555 1_555
C2 O2 1_555 1_555
C3 C4 1_555 1_555
C4 C11 1_555 1_555
C6 C3 1_555 1_555
C8 C1 1_555 1_555
C9 C3 1_555 1_555
C10 C1 1_555 1_555
C11 C1 1_555 1_555
C12 C6 1_555 1_555
C6 C8 1_555 1_555
C9 C10 1_555 1_555

#END
