
#######################################################################
#
#                 Cambridge Crystallographic Data Centre
#                                CCDC 
#
#######################################################################
#
# If this CIF has been generated from an entry in the Cambridge 
# Structural Database, then it will include bibliographic, chemical, 
# crystal, experimental, refinement or atomic coordinate data resulting 
# from the CCDC's data processing and validation procedures.
#
#######################################################################

data_PEZKIO
_chemical_formula_moiety         'C20 H20 O6 S1'
_chemical_name_systematic        
(8-p-Toluenesulfonyloxy-11-oxo)pentacyclo-(5.4.0.0^2,6^.0^3,10^.0^5,9^)undecane-9-carboxylate
_symmetry_cell_setting           triclinic
_symmetry_space_group_name_H-M   'P -1'
_symmetry_Int_Tables_number      2
_space_group_name_Hall           '-P 1'
loop_
_symmetry_equiv_pos_site_id
_symmetry_equiv_pos_as_xyz
1 x,y,z
2 -x,-y,-z
_cell_length_a                   7.814(2)
_cell_length_b                   17.207(3)
_cell_length_c                   6.6623(6)
_cell_angle_alpha                96.99(1)
_cell_angle_beta                 94.83(1)
_cell_angle_gamma                92.73(1)
_cell_volume                     884.449
_exptl_crystal_colour            colorless
_chemical_melting_point          '157-158 deg.C'
_cell_formula_units_Z            2
loop_
_atom_site_label
_atom_site_type_symbol
_atom_site_fract_x
_atom_site_fract_y
_atom_site_fract_z
S1 S 0.2094(1) 0.61972(5) 0.3423(2)
O1 O 0.1654(3) 0.6943(1) 0.4909(4)
O2 O 0.2047(4) 0.5579(2) 0.4644(5)
O3 O 0.3597(3) 0.6390(2) 0.2487(5)
O4 O 0.3771(4) 0.9408(2) 0.2843(5)
O5 O -0.0952(4) 0.8160(2) 0.2410(5)
O6 O -0.2017(4) 0.7881(2) 0.5249(5)
C1 C 0.4509(5) 0.8834(2) 0.5948(7)
C2 C 0.3729(5) 0.9113(2) 0.7937(6)
C3 C 0.2051(6) 0.9511(2) 0.7403(7)
C4 C 0.0745(6) 0.9111(3) 0.8563(7)
C5 C 0.1127(5) 0.8276(2) 0.7701(6)
C6 C 0.3088(5) 0.8259(2) 0.8127(6)
C7 C 0.3838(5) 0.7975(2) 0.6080(6)
C8 C 0.2291(4) 0.7722(2) 0.4609(6)
C9 C 0.0953(4) 0.8285(2) 0.5378(5)
C10 C 0.1616(5) 0.9158(2) 0.5182(6)
C11 C 0.3384(5) 0.9165(2) 0.4366(6)
C12 C -0.0840(5) 0.8084(2) 0.4378(7)
C13 C -0.2618(7) 0.7993(4) 0.131(1)
C14 C 0.0322(4) 0.6082(2) 0.1597(6)
C15 C -0.1231(5) 0.5777(3) 0.2144(7)
C16 C -0.2666(5) 0.5731(3) 0.0745(7)
C17 C -0.2564(5) 0.5974(2) -0.1146(6)
C18 C -0.0989(6) 0.6245(3) -0.1645(7)
C19 C 0.0459(5) 0.6304(2) -0.0282(7)
C20 C -0.4141(8) 0.5951(4) -0.263(1)
H1 H -0.118(6) 0.567(3) 0.337(7)
H2 H 0.145(5) 0.641(2) -0.058(6)
H3 H -0.081(5) 0.628(2) -0.303(6)
H4 H -0.364(6) 0.562(3) 0.125(7)
H5 H -0.312(6) 0.755(3) 0.157(7)
H6 H -0.248(7) 0.789(3) -0.03(1)
H7 H -0.334(7) 0.840(3) 0.181(8)
H8 H 0.573(5) 0.887(2) 0.592(6)
H9 H 0.463(6) 0.938(3) 0.913(7)
H10 H 0.233(6) 1.008(3) 0.773(7)
H11 H 0.109(5) 0.920(2) 1.017(7)
H12 H -0.068(7) 0.915(3) 0.816(8)
H13 H 0.039(4) 0.783(2) 0.823(5)
H14 H 0.332(5) 0.800(3) 0.924(6)
H15 H 0.471(5) 0.757(2) 0.608(6)
H16 H 0.249(4) 0.770(2) 0.322(5)
H17 H 0.079(5) 0.933(2) 0.438(6)
H18 H -0.50(1) 0.625(4) -0.22(1)
H19 H -0.390(9) 0.572(4) -0.39(1)
H20 H -0.47(1) 0.548(5) -0.27(1)
loop_
_geom_bond_atom_site_label_1
_geom_bond_atom_site_label_2
_geom_bond_site_symmetry_1
_geom_bond_site_symmetry_2
S1 O1 1_555 1_555
O1 C8 1_555 1_555
O2 S1 1_555 1_555
O3 S1 1_555 1_555
O4 C11 1_555 1_555
O5 C12 1_555 1_555
O6 C12 1_555 1_555
C1 C2 1_555 1_555
C2 C3 1_555 1_555
C3 C4 1_555 1_555
C4 C5 1_555 1_555
C5 C6 1_555 1_555
C6 C2 1_555 1_555
C7 C1 1_555 1_555
C8 C7 1_555 1_555
C9 C5 1_555 1_555
C10 C3 1_555 1_555
C11 C1 1_555 1_555
C12 C9 1_555 1_555
C13 O5 1_555 1_555
C14 S1 1_555 1_555
C15 C14 1_555 1_555
C16 C15 1_555 1_555
C17 C16 1_555 1_555
C18 C17 1_555 1_555
C19 C14 1_555 1_555
C20 C17 1_555 1_555
H1 C15 1_555 1_555
H2 C19 1_555 1_555
H3 C18 1_555 1_555
H4 C16 1_555 1_555
H5 C13 1_555 1_555
H6 C13 1_555 1_555
H7 C13 1_555 1_555
H8 C1 1_555 1_555
H9 C2 1_555 1_555
H10 C3 1_555 1_555
H11 C4 1_555 1_555
H12 C4 1_555 1_555
H13 C5 1_555 1_555
H14 C6 1_555 1_555
H15 C7 1_555 1_555
H16 C8 1_555 1_555
H17 C10 1_555 1_555
H18 C20 1_555 1_555
H19 C20 1_555 1_555
H20 C20 1_555 1_555
C6 C7 1_555 1_555
C8 C9 1_555 1_555
C9 C10 1_555 1_555
C10 C11 1_555 1_555
C18 C19 1_555 1_555

#END
