
#######################################################################
#
#                 Cambridge Crystallographic Data Centre
#                                CCDC 
#
#######################################################################
#
# If this CIF has been generated from an entry in the Cambridge 
# Structural Database, then it will include bibliographic, chemical, 
# crystal, experimental, refinement or atomic coordinate data resulting 
# from the CCDC's data processing and validation procedures.
#
#######################################################################

data_PEZPES
_chemical_formula_moiety         'C34 H32 O6'
_chemical_name_systematic        
'[2,4-bis(4-hydroxy-2-methoxy-3-methylphenyl)cyclobutane-1,3-diyl]bis(phenylmethanone)'
_symmetry_cell_setting           triclinic
_symmetry_space_group_name_H-M   'P -1'
_symmetry_Int_Tables_number      2
_space_group_name_Hall           '-P 1'
loop_
_symmetry_equiv_pos_site_id
_symmetry_equiv_pos_as_xyz
1 x,y,z
2 -x,-y,-z
_cell_length_a                   8.5175(7)
_cell_length_b                   9.3928(7)
_cell_length_c                   9.4739(6)
_cell_angle_alpha                68.075(7)
_cell_angle_beta                 81.250(6)
_cell_angle_gamma                85.201(6)
_cell_volume                     694.641
_cell_formula_units_Z            1
loop_
_atom_site_label
_atom_site_type_symbol
_atom_site_fract_x
_atom_site_fract_y
_atom_site_fract_z
C1 C 0.09909(19) 0.94564(18) 1.06521(18)
H1 H 0.1797 1.0107 1.0768
C2 C 0.07118(19) 0.99877(18) 0.89124(18)
H2 H 0.1377 1.0892 0.8276
C3 C 0.08640(19) 0.88396(18) 0.81371(18)
C4 C -0.00317(19) 0.75222(18) 0.87147(18)
H3 H -0.0752 0.7342 0.9630
C5 C 0.0093(2) 0.64689(19) 0.80009(19)
H4 H -0.0530 0.5578 0.8424
C6 C 0.1137(2) 0.67235(19) 0.66607(19)
C7 C 0.2070(2) 0.80203(19) 0.60339(18)
C8 C 0.19134(19) 0.90495(18) 0.67948(18)
C9 C 0.3200(2) 0.8289(2) 0.4572(2)
H5 H 0.2621 0.8781 0.3686
H6 H 0.3667 0.7304 0.4557
H7 H 0.4047 0.8957 0.4525
C10 C 0.2255(3) 1.1605(2) 0.5065(2)
H8 H 0.2021 1.1294 0.4242
H9 H 0.3035 1.2418 0.4646
H10 H 0.1276 1.1988 0.5513
C11 C 0.1370(2) 0.77738(18) 1.14843(18)
C12 C 0.3023(2) 0.71852(19) 1.12282(19)
C13 C 0.3481(2) 0.5768(2) 1.2276(2)
H11 H 0.2743 0.5205 1.3121
C14 C 0.5007(2) 0.5187(2) 1.2083(3)
H12 H 0.5322 0.4232 1.2807
C15 C 0.6074(2) 0.5983(2) 1.0846(3)
H13 H 0.7118 0.5569 1.0710
C16 C 0.5632(2) 0.7386(2) 0.9800(2)
H14 H 0.6371 0.7929 0.8944
C17 C 0.4114(2) 0.7999(2) 0.9998(2)
H15 H 0.3821 0.8974 0.9294
O1 O 0.03403(15) 0.69289(13) 1.23575(14)
O2 O 0.12940(17) 0.57335(15) 0.58912(14)
H16 H 0.0750 0.4957 0.6402
O3 O 0.28909(14) 1.03045(13) 0.62330(13)
C1A C -0.09909(19) 1.05436(18) 0.93479(18)
H1A H -0.1797 0.9893 0.9232
C2A C -0.07118(19) 1.00123(18) 1.10876(18)
H2A H -0.1377 0.9108 1.1724
C3A C -0.08640(19) 1.11604(18) 1.18629(18)
C4A C 0.00317(19) 1.24778(18) 1.12853(18)
H3A H 0.0752 1.2658 1.0370
C5A C -0.0093(2) 1.35311(19) 1.19991(19)
H4A H 0.0530 1.4422 1.1576
C6A C -0.1137(2) 1.32765(19) 1.33393(19)
C7A C -0.2070(2) 1.19797(19) 1.39661(18)
C8A C -0.19134(19) 1.09505(18) 1.32052(18)
C9A C -0.3200(2) 1.1711(2) 1.5428(2)
H5A H -0.2621 1.1219 1.6314
H6A H -0.3667 1.2696 1.5443
H7A H -0.4047 1.1043 1.5475
C10A C -0.2255(3) 0.8395(2) 1.4935(2)
H8A H -0.2021 0.8706 1.5758
H9A H -0.3035 0.7582 1.5354
H10A H -0.1276 0.8012 1.4487
C11A C -0.1370(2) 1.22262(18) 0.85157(18)
C12A C -0.3023(2) 1.28148(19) 0.87718(19)
C13A C -0.3481(2) 1.4232(2) 0.7724(2)
H11A H -0.2743 1.4795 0.6879
C14A C -0.5007(2) 1.4813(2) 0.7917(3)
H12A H -0.5322 1.5768 0.7193
C15A C -0.6074(2) 1.4017(2) 0.9154(3)
H13A H -0.7118 1.4431 0.9290
C16A C -0.5632(2) 1.2614(2) 1.0200(2)
H14A H -0.6371 1.2071 1.1056
C17A C -0.4114(2) 1.2001(2) 1.0002(2)
H15A H -0.3821 1.1026 1.0706
O1A O -0.03403(15) 1.30711(13) 0.76425(14)
O2A O -0.12940(17) 1.42665(15) 1.41088(14)
H16A H -0.0750 1.5043 1.3598
O3A O -0.28909(14) 0.96955(13) 1.37670(13)
loop_
_geom_bond_atom_site_label_1
_geom_bond_atom_site_label_2
_geom_bond_site_symmetry_1
_geom_bond_site_symmetry_2
C1 H1 1_555 1_555
C2 C1 1_555 1_555
H2 C2 1_555 1_555
C3 C2 1_555 1_555
C4 C3 1_555 1_555
H3 C4 1_555 1_555
C5 C4 1_555 1_555
H4 C5 1_555 1_555
C6 C5 1_555 1_555
C7 C6 1_555 1_555
C8 C3 1_555 1_555
C9 C7 1_555 1_555
H5 C9 1_555 1_555
H6 C9 1_555 1_555
H7 C9 1_555 1_555
C10 H8 1_555 1_555
H9 C10 1_555 1_555
H10 C10 1_555 1_555
C11 C1 1_555 1_555
C12 C11 1_555 1_555
C13 C12 1_555 1_555
H11 C13 1_555 1_555
C14 C13 1_555 1_555
H12 C14 1_555 1_555
C15 C14 1_555 1_555
H13 C15 1_555 1_555
C16 C15 1_555 1_555
H14 C16 1_555 1_555
C17 C12 1_555 1_555
H15 C17 1_555 1_555
O1 C11 1_555 1_555
O2 C6 1_555 1_555
H16 O2 1_555 1_555
O3 C8 1_555 1_555
C1A C2 1_555 1_555
H1A C1A 1_555 1_555
C2A C1 1_555 1_555
H2A C2A 1_555 1_555
C3A C2A 1_555 1_555
C4A C3A 1_555 1_555
H3A C4A 1_555 1_555
C5A C4A 1_555 1_555
H4A C5A 1_555 1_555
C6A C5A 1_555 1_555
C7A C6A 1_555 1_555
C8A C3A 1_555 1_555
C9A C7A 1_555 1_555
H5A C9A 1_555 1_555
H6A C9A 1_555 1_555
H7A C9A 1_555 1_555
C10A H8A 1_555 1_555
H9A C10A 1_555 1_555
H10A C10A 1_555 1_555
C11A C1A 1_555 1_555
C12A C11A 1_555 1_555
C13A C12A 1_555 1_555
H11A C13A 1_555 1_555
C14A C13A 1_555 1_555
H12A C14A 1_555 1_555
C15A C14A 1_555 1_555
H13A C15A 1_555 1_555
C16A C15A 1_555 1_555
H14A C16A 1_555 1_555
C17A C12A 1_555 1_555
H15A C17A 1_555 1_555
O1A C11A 1_555 1_555
O2A C6A 1_555 1_555
H16A O2A 1_555 1_555
O3A C8A 1_555 1_555
C7 C8 1_555 1_555
C10 O3 1_555 1_555
C16 C17 1_555 1_555
C1A C2A 1_555 1_555
C7A C8A 1_555 1_555
C10A O3A 1_555 1_555
C16A C17A 1_555 1_555

#END
