
#######################################################################
#
#                 Cambridge Crystallographic Data Centre
#                                CCDC 
#
#######################################################################
#
# If this CIF has been generated from an entry in the Cambridge 
# Structural Database, then it will include bibliographic, chemical, 
# crystal, experimental, refinement or atomic coordinate data resulting 
# from the CCDC's data processing and validation procedures.
#
#######################################################################

data_PEZQEQ
_chemical_formula_moiety         'C11 H14 O1'
_chemical_name_systematic        cis-1,3-Dimethylindan-1-ol
_symmetry_cell_setting           triclinic
_symmetry_space_group_name_H-M   'P -1'
_symmetry_Int_Tables_number      2
_space_group_name_Hall           '-P 1'
loop_
_symmetry_equiv_pos_site_id
_symmetry_equiv_pos_as_xyz
1 x,y,z
2 -x,-y,-z
_cell_length_a                   11.674(2)
_cell_length_b                   12.726(2)
_cell_length_c                   14.272(4)
_cell_angle_alpha                86.67(2)
_cell_angle_beta                 66.37(1)
_cell_angle_gamma                83.04(1)
_cell_volume                     1928.1
_exptl_crystal_colour            colorless
_exptl_crystal_description       block
_cell_formula_units_Z            8
loop_
_atom_site_label
_atom_site_type_symbol
_atom_site_fract_x
_atom_site_fract_y
_atom_site_fract_z
O1 O 0.5582(2) 0.5108(2) 0.2093(2)
C1 C 0.6188(3) 0.6045(3) 0.2017(3)
C2 C 0.7432(4) 0.6042(3) 0.1050(3)
C3 C 0.8283(3) 0.6661(3) 0.1345(3)
C4 C 0.7833(3) 0.6452(2) 0.2471(3)
C5 C 0.8412(3) 0.6561(3) 0.3129(3)
C6 C 0.7798(4) 0.6348(3) 0.4157(3)
C7 C 0.6608(4) 0.6020(3) 0.4538(3)
C8 C 0.6024(3) 0.5903(3) 0.3869(3)
C9 C 0.6637(3) 0.6113(2) 0.2854(3)
C10 C 0.5235(4) 0.6973(3) 0.2023(3)
C11 C 0.9691(4) 0.6360(4) 0.0743(3)
H1 H 0.601(4) 0.461(3) 0.206(3)
H2 H 0.7807 0.5336 0.0870
H3 H 0.7283 0.6377 0.0492
H4 H 0.8095 0.7392 0.1238
H5 H 0.9235 0.6783 0.2874
H6 H 0.8199 0.6428 0.4609
H7 H 0.6186 0.5873 0.5249
H8 H 0.5207 0.5676 0.4124
H9 H 0.4516 0.6976 0.2650
H10 H 0.4991 0.6912 0.1470
H11 H 0.5601 0.7617 0.1953
H12 H 1.0157 0.6735 0.1000
H13 H 0.9907 0.6532 0.0041
H14 H 0.9889 0.5618 0.0814
O2 O 0.2979(2) 0.6817(2) 0.8047(2)
C12 C 0.2483(3) 0.7301(2) 0.7340(3)
C13 C 0.3464(3) 0.7320(3) 0.6239(3)
C14 C 0.3114(4) 0.8325(3) 0.5732(3)
C15 C 0.2435(3) 0.9055(3) 0.6637(3)
C16 C 0.2154(4) 1.0142(3) 0.6663(3)
C17 C 0.1518(4) 1.0629(3) 0.7593(4)
C18 C 0.1156(4) 1.0050(3) 0.8492(3)
C19 C 0.1425(3) 0.8959(3) 0.8479(3)
C20 C 0.2074(3) 0.8471(2) 0.7547(3)
C21 C 0.1389(3) 0.6701(3) 0.7449(3)
C22 C 0.4215(5) 0.8760(4) 0.4861(3)
H15 H 0.358(3) 0.709(3) 0.798(3)
H16 H 0.4277 0.7328 0.6235
H17 H 0.3450 0.6714 0.5886
H18 H 0.2519 0.8178 0.5469
H19 H 0.2400 1.0547 0.6049
H20 H 0.1323 1.1376 0.7620
H21 H 0.0718 1.0400 0.9129
H22 H 0.1170 0.8559 0.9095
H23 H 0.1681 0.5979 0.7289
H24 H 0.0776 0.6756 0.8131
H25 H 0.1021 0.6997 0.6993
H26 H 0.3923 0.9406 0.4611
H27 H 0.4828 0.8895 0.5103
H28 H 0.4567 0.8263 0.4325
O3 O 0.4913(2) 0.2327(2) 0.2047(3)
C23 C 0.4385(3) 0.1407(3) 0.1946(3)
C24 C 0.4141(3) 0.1450(3) 0.0931(3)
C25 C 0.3031(4) 0.0833(3) 0.1159(3)
C26 C 0.2324(3) 0.0972(2) 0.2296(3)
C27 C 0.1082(4) 0.0813(3) 0.2894(3)
C28 C 0.0632(4) 0.1007(4) 0.3944(3)
C29 C 0.1364(4) 0.1347(4) 0.4366(3)
C30 C 0.2639(4) 0.1506(3) 0.3749(3)
C31 C 0.3077(3) 0.1314(3) 0.2731(3)
C32 C 0.5298(3) 0.0472(3) 0.1991(3)
C33 C 0.2277(4) 0.1179(3) 0.0524(3)
H29 H 0.455(4) 0.280(3) 0.201(3)
H30 H 0.4860 0.1133 0.0385
H31 H 0.3957 0.2163 0.0753
H32 H 0.3332 0.0109 0.1029
H33 H 0.0557 0.0584 0.2598
H34 H -0.0213 0.0901 0.4367
H35 H 0.1031 0.1483 0.5078
H36 H 0.3163 0.1741 0.4040
H37 H 0.5374 0.0466 0.2632
H38 H 0.6098 0.0527 0.1454
H39 H 0.4993 -0.0168 0.1925
H40 H 0.1944 0.1898 0.0658
H41 H 0.1604 0.0750 0.0698
H42 H 0.2804 0.1098 -0.0181
O4 O 0.6213(2) 0.5756(2) 0.8366(2)
C34 C 0.7435(3) 0.5231(3) 0.7780(3)
C35 C 0.7681(4) 0.5127(3) 0.6683(3)
C36 C 0.8524(4) 0.4070(3) 0.6304(3)
C37 C 0.8184(3) 0.3447(3) 0.7312(3)
C38 C 0.8408(4) 0.2366(3) 0.7418(4)
C39 C 0.8016(4) 0.1958(4) 0.8383(5)
C40 C 0.7347(4) 0.2605(4) 0.9264(4)
C41 C 0.7143(4) 0.3704(3) 0.9112(3)
C42 C 0.7563(3) 0.4084(3) 0.8127(3)
C43 C 0.8380(4) 0.5861(3) 0.7918(3)
C44 C 0.8414(5) 0.3546(5) 0.5454(4)
H43 H 0.562(4) 0.539(3) 0.822(3)
H44 H 0.6907 0.5116 0.6609
H45 H 0.8098 0.5703 0.6301
H46 H 0.9372 0.4210 0.6089
H47 H 0.8822 0.1926 0.6834
H48 H 0.8193 0.1220 0.8475
H49 H 0.7042 0.2305 0.9933
H50 H 0.6726 0.4164 0.9676
H51 H 0.8291 0.6564 0.7672
H52 H 0.8227 0.5877 0.8622
H53 H 0.9206 0.5540 0.7544
H54 H 0.8672 0.3989 0.4865
H55 H 0.8936 0.2891 0.5314
H56 H 0.7566 0.3419 0.5640
loop_
_geom_bond_atom_site_label_1
_geom_bond_atom_site_label_2
_geom_bond_site_symmetry_1
_geom_bond_site_symmetry_2
O1 C1 1_555 1_555
O2 C12 1_555 1_555
O3 C23 1_555 1_555
O4 C34 1_555 1_555
C1 C2 1_555 1_555
C2 C3 1_555 1_555
C3 C4 1_555 1_555
C4 C5 1_555 1_555
C5 C6 1_555 1_555
C6 C7 1_555 1_555
C7 C8 1_555 1_555
C8 C9 1_555 1_555
C9 C1 1_555 1_555
C10 C1 1_555 1_555
C11 C3 1_555 1_555
C12 C13 1_555 1_555
C13 C14 1_555 1_555
C14 C15 1_555 1_555
C15 C16 1_555 1_555
C16 C17 1_555 1_555
C17 C18 1_555 1_555
C18 C19 1_555 1_555
C19 C20 1_555 1_555
C20 C12 1_555 1_555
C21 C12 1_555 1_555
C22 C14 1_555 1_555
C23 C24 1_555 1_555
C24 C25 1_555 1_555
C25 C26 1_555 1_555
C26 C27 1_555 1_555
C27 C28 1_555 1_555
C28 C29 1_555 1_555
C29 C30 1_555 1_555
C30 C31 1_555 1_555
C31 C23 1_555 1_555
C32 C23 1_555 1_555
C33 C25 1_555 1_555
C34 C35 1_555 1_555
C35 C36 1_555 1_555
C36 C37 1_555 1_555
C37 C38 1_555 1_555
C38 C39 1_555 1_555
C39 C40 1_555 1_555
C40 C41 1_555 1_555
C41 C42 1_555 1_555
C42 C34 1_555 1_555
C43 C34 1_555 1_555
C44 C36 1_555 1_555
H1 O1 1_555 1_555
H2 C2 1_555 1_555
H3 C2 1_555 1_555
H4 C3 1_555 1_555
H5 C5 1_555 1_555
H6 C6 1_555 1_555
H7 C7 1_555 1_555
H8 C8 1_555 1_555
H9 C10 1_555 1_555
H10 C10 1_555 1_555
H11 C10 1_555 1_555
H12 C11 1_555 1_555
H13 C11 1_555 1_555
H14 C11 1_555 1_555
H15 O2 1_555 1_555
H16 C13 1_555 1_555
H17 C13 1_555 1_555
H18 C14 1_555 1_555
H19 C16 1_555 1_555
H20 C17 1_555 1_555
H21 C18 1_555 1_555
H22 C19 1_555 1_555
H23 C21 1_555 1_555
H24 C21 1_555 1_555
H25 C21 1_555 1_555
H26 C22 1_555 1_555
H27 C22 1_555 1_555
H28 C22 1_555 1_555
H29 O3 1_555 1_555
H30 C24 1_555 1_555
H31 C24 1_555 1_555
H32 C25 1_555 1_555
H33 C27 1_555 1_555
H34 C28 1_555 1_555
H35 C29 1_555 1_555
H36 C30 1_555 1_555
H37 C32 1_555 1_555
H38 C32 1_555 1_555
H39 C32 1_555 1_555
H40 C33 1_555 1_555
H41 C33 1_555 1_555
H42 C33 1_555 1_555
H43 O4 1_555 1_555
H44 C35 1_555 1_555
H45 C35 1_555 1_555
H46 C36 1_555 1_555
H47 C38 1_555 1_555
H48 C39 1_555 1_555
H49 C40 1_555 1_555
H50 C41 1_555 1_555
H51 C43 1_555 1_555
H52 C43 1_555 1_555
H53 C43 1_555 1_555
H54 C44 1_555 1_555
H55 C44 1_555 1_555
H56 C44 1_555 1_555
C4 C9 1_555 1_555
C15 C20 1_555 1_555
C26 C31 1_555 1_555
C37 C42 1_555 1_555

#END
