
#######################################################################
#
#                 Cambridge Crystallographic Data Centre
#                                CCDC 
#
#######################################################################
#
# If this CIF has been generated from an entry in the Cambridge 
# Structural Database, then it will include bibliographic, chemical, 
# crystal, experimental, refinement or atomic coordinate data resulting 
# from the CCDC's data processing and validation procedures.
#
#######################################################################

data_PEZYEB
_chemical_formula_moiety         'C21 H29 N3 O3'
_chemical_name_systematic        
2-[({4-[bis(2-hydroxyethyl)amino]phenyl}imino)methyl]-5-(diethylamino)phenol
_symmetry_cell_setting           orthorhombic
_symmetry_space_group_name_H-M   'P b c a'
_symmetry_Int_Tables_number      61
_space_group_name_Hall           '-P 2ac 2ab'
loop_
_symmetry_equiv_pos_site_id
_symmetry_equiv_pos_as_xyz
1 x,y,z
2 1/2-x,-y,1/2+z
3 1/2+x,1/2-y,-z
4 -x,1/2+y,1/2-z
5 -x,-y,-z
6 1/2+x,y,1/2-z
7 1/2-x,1/2+y,z
8 x,1/2-y,1/2+z
_cell_length_a                   16.772(3)
_cell_length_b                   9.0637(15)
_cell_length_c                   25.832(4)
_cell_angle_alpha                90
_cell_angle_beta                 90
_cell_angle_gamma                90
_cell_volume                     3926.89
_cell_formula_units_Z            8
loop_
_atom_site_label
_atom_site_type_symbol
_atom_site_fract_x
_atom_site_fract_y
_atom_site_fract_z
O1 O 0.31919(14) 0.0746(2) -0.12907(9)
H1 H 0.2913 0.1461 -0.1221
O2 O 0.41331(15) 0.7413(2) 0.10785(9)
H2 H 0.4069 0.6590 0.0954
O3 O 0.27134(13) -0.1943(3) -0.09449(9)
H3 H 0.2848 -0.1155 -0.1075
N1 N 0.39423(15) -0.0170(3) -0.03113(11)
N2 N 0.36741(16) 0.4746(3) 0.10145(13)
N3 N 0.39142(17) 0.9916(3) 0.26832(11)
C1 C 0.38786(19) 0.0998(5) 0.00320(13)
C2 C 0.3414(2) 0.6211(4) 0.17585(15)
C3 C 0.3707(2) 0.3447(5) 0.07102(15)
C4 C 0.3842(2) 0.7440(5) 0.15609(14)
C5 C 0.3723(2) 0.8747(4) 0.23739(16)
C6 C 0.39673(19) 0.8674(4) 0.18599(16)
H4 H 0.4223 0.9483 0.1714
C7 C 0.3289(2) 0.2140(5) 0.07949(13)
H5 H 0.2949 0.2067 0.1078
C8 C 0.3134(2) 0.6339(4) 0.22636(17)
H6 H 0.2833 0.5569 0.2400
C9 C 0.43148(19) 0.2303(5) -0.00365(13)
H7 H 0.4673 0.2375 -0.0310
C10 C 0.43694(19) 0.0007(4) -0.07988(12)
H8 H 0.4407 -0.0951 -0.0965
H9 H 0.4908 0.0331 -0.0723
C11 C 0.3278(2) 0.7534(5) 0.25675(14)
H10 H 0.3084 0.7557 0.2905
C12 C 0.4221(2) 0.3473(4) 0.02927(16)
H11 H 0.4517 0.4323 0.0233
C13 C 0.3372(2) 0.0954(4) 0.04659(15)
H12 H 0.3084 0.0098 0.0533
C14 C 0.3338(2) 0.4881(4) 0.14574(17)
H13 H 0.3037 0.4103 0.1587
C15 C 0.3596(2) -0.1606(4) -0.02001(13)
H14 H 0.3593 -0.1747 0.0172
H15 H 0.3939 -0.2359 -0.0347
C16 C 0.4004(2) 0.1078(4) -0.11777(13)
H16 H 0.4036 0.2067 -0.1036
H17 H 0.4309 0.1061 -0.1497
C17 C 0.3590(2) 1.0144(4) 0.31972(14)
H18 H 0.3075 0.9661 0.3218
H19 H 0.3505 1.1192 0.3249
C18 C 0.4521(2) 1.1022(4) 0.25212(14)
H20 H 0.4800 1.1380 0.2825
H21 H 0.4909 1.0547 0.2298
C19 C 0.2766(2) -0.1840(4) -0.03991(14)
H22 H 0.2555 -0.2740 -0.0249
H23 H 0.2434 -0.1030 -0.0283
C20 C 0.4165(3) 1.2289(4) 0.22430(15)
H24 H 0.3895 1.1943 0.1939
H25 H 0.4578 1.2967 0.2145
H26 H 0.3790 1.2780 0.2465
C21 C 0.4113(3) 0.9571(5) 0.36259(15)
H27 H 0.4186 0.8527 0.3585
H28 H 0.3866 0.9766 0.3954
H29 H 0.4622 1.0054 0.3612
loop_
_geom_bond_atom_site_label_1
_geom_bond_atom_site_label_2
_geom_bond_site_symmetry_1
_geom_bond_site_symmetry_2
O1 H1 1_555 1_555
O2 H2 1_555 1_555
O3 H3 1_555 1_555
N1 C1 1_555 1_555
N2 C3 1_555 1_555
N3 C5 1_555 1_555
C1 C9 1_555 1_555
C2 C4 1_555 1_555
C3 C7 1_555 1_555
C4 O2 1_555 1_555
C5 C6 1_555 1_555
C6 C4 1_555 1_555
H4 C6 1_555 1_555
C7 H5 1_555 1_555
C8 C2 1_555 1_555
H6 C8 1_555 1_555
C9 H7 1_555 1_555
C10 N1 1_555 1_555
H8 C10 1_555 1_555
H9 C10 1_555 1_555
C11 C5 1_555 1_555
H10 C11 1_555 1_555
C12 C3 1_555 1_555
H11 C12 1_555 1_555
C13 C1 1_555 1_555
H12 C13 1_555 1_555
C14 N2 1_555 1_555
H13 C14 1_555 1_555
C15 N1 1_555 1_555
H14 C15 1_555 1_555
H15 C15 1_555 1_555
C16 O1 1_555 1_555
H16 C16 1_555 1_555
H17 C16 1_555 1_555
C17 N3 1_555 1_555
H18 C17 1_555 1_555
H19 C17 1_555 1_555
C18 N3 1_555 1_555
H20 C18 1_555 1_555
H21 C18 1_555 1_555
C19 O3 1_555 1_555
H22 C19 1_555 1_555
H23 C19 1_555 1_555
C20 C18 1_555 1_555
H24 C20 1_555 1_555
H25 C20 1_555 1_555
H26 C20 1_555 1_555
C21 C17 1_555 1_555
H27 C21 1_555 1_555
H28 C21 1_555 1_555
H29 C21 1_555 1_555
C2 C14 1_555 1_555
C7 C13 1_555 1_555
C8 C11 1_555 1_555
C9 C12 1_555 1_555
C10 C16 1_555 1_555
C15 C19 1_555 1_555

#END
