
#######################################################################
#
#                 Cambridge Crystallographic Data Centre
#                                CCDC 
#
#######################################################################
#
# If this CIF has been generated from an entry in the Cambridge 
# Structural Database, then it will include bibliographic, chemical, 
# crystal, experimental, refinement or atomic coordinate data resulting 
# from the CCDC's data processing and validation procedures.
#
#######################################################################

data_PFBIPH02
_chemical_formula_moiety         'C12 H5 F5'
_chemical_name_systematic        2,3,4,5,6-pentafluorobiphenyl
_symmetry_cell_setting           orthorhombic
_symmetry_space_group_name_H-M   'C 2 2 21'
_symmetry_Int_Tables_number      20
_space_group_name_Hall           'C 2n 2'
loop_
_symmetry_equiv_pos_site_id
_symmetry_equiv_pos_as_xyz
1 x,y,z
2 -x,-y,1/2+z
3 x,-y,-z
4 -x,y,1/2-z
5 1/2+x,1/2+y,z
6 1/2-x,1/2-y,1/2+z
7 1/2+x,1/2-y,-z
8 1/2-x,1/2+y,1/2-z
_cell_length_a                   5.80768(18)
_cell_length_b                   20.9642(5)
_cell_length_c                   7.68611(19)
_cell_angle_alpha                90
_cell_angle_beta                 90
_cell_angle_gamma                90
_cell_volume                     935.81
_exptl_crystal_colour            colorless
_exptl_crystal_description       block
_cell_formula_units_Z            4
loop_
_atom_site_label
_atom_site_type_symbol
_atom_site_fract_x
_atom_site_fract_y
_atom_site_fract_z
F1 F 0.85515(17) 0.55921(4) 0.40141(12)
F2 F 0.5000 0.75157(6) 0.2500
F3 F 0.85233(18) 0.68671(4) 0.40212(13)
C1 C 0.5000 0.48256(9) 0.2500
C2 C 0.5000 0.55364(10) 0.2500
C3 C 0.6795(3) 0.65493(8) 0.3249(2)
C4 C 0.3092(3) 0.44905(8) 0.31192(19)
C5 C 0.6783(3) 0.58889(8) 0.32364(18)
C6 C 0.3103(3) 0.38258(8) 0.3127(2)
C7 C 0.5000 0.68784(10) 0.2500
C8 C 0.5000 0.34957(10) 0.2500
H1 H 0.169(4) 0.3603(10) 0.359(3)
H2 H 0.5000 0.3062(14) 0.2500
H3 H 0.172(4) 0.4712(10) 0.353(3)
F1C F 0.14485(17) 0.55921(4) 0.09859(12)
F3C F 0.14767(18) 0.68671(4) 0.09788(13)
C3C C 0.3205(3) 0.65493(8) 0.1751(2)
C4C C 0.6908(3) 0.44905(8) 0.18808(19)
C5C C 0.3217(3) 0.58889(8) 0.17636(18)
C6C C 0.6897(3) 0.38258(8) 0.1873(2)
H1C H 0.831(4) 0.3603(10) 0.141(3)
H3C H 0.828(4) 0.4712(10) 0.147(3)
loop_
_geom_bond_atom_site_label_1
_geom_bond_atom_site_label_2
_geom_bond_site_symmetry_1
_geom_bond_site_symmetry_2
F1 C5 1_555 1_555
F2 C7 1_555 1_555
F3 C3 1_555 1_555
C1 C2 1_555 1_555
C2 C5 1_555 1_555
C3 C5 1_555 1_555
C4 C1 1_555 1_555
C6 C4 1_555 1_555
C7 C3 1_555 1_555
C8 C6 1_555 1_555
H1 C6 1_555 1_555
H2 C8 1_555 1_555
H3 C4 1_555 1_555
F1C C5C 1_555 1_555
F3C C3C 1_555 1_555
C3C C7 1_555 1_555
C4C C1 1_555 1_555
C5C C2 1_555 1_555
C6C C8 1_555 1_555
H1C C6C 1_555 1_555
H3C C4C 1_555 1_555
C3C C5C 1_555 1_555
C4C C6C 1_555 1_555

#END
