
#######################################################################
#
#                 Cambridge Crystallographic Data Centre
#                                CCDC 
#
#######################################################################
#
# If this CIF has been generated from an entry in the Cambridge 
# Structural Database, then it will include bibliographic, chemical, 
# crystal, experimental, refinement or atomic coordinate data resulting 
# from the CCDC's data processing and validation procedures.
#
#######################################################################

data_PGLUAC01
_chemical_name_common            'a-Phenylglutaric acid'
_chemical_formula_moiety         'C11 H12 O4'
_chemical_name_systematic        '3-Phenylpentanedioic acid'
_symmetry_cell_setting           orthorhombic
_symmetry_space_group_name_H-M   'P b c a'
_symmetry_Int_Tables_number      61
_space_group_name_Hall           '-P 2ac 2ab'
loop_
_symmetry_equiv_pos_site_id
_symmetry_equiv_pos_as_xyz
1 x,y,z
2 1/2-x,-y,1/2+z
3 -x,1/2+y,1/2-z
4 1/2+x,1/2-y,-z
5 -x,-y,-z
6 1/2+x,y,1/2-z
7 x,1/2-y,1/2+z
8 1/2-x,1/2+y,z
_cell_length_a                   10.469(2)
_cell_length_b                   7.1530(14)
_cell_length_c                   26.363(5)
_cell_angle_alpha                90
_cell_angle_beta                 90
_cell_angle_gamma                90
_cell_volume                     1974.19
_exptl_crystal_colour            colorless
_exptl_crystal_description       irregular
_cell_formula_units_Z            8
_exptl_crystal_recrystallization_method water
loop_
_atom_site_label
_atom_site_type_symbol
_atom_site_fract_x
_atom_site_fract_y
_atom_site_fract_z
O1 O 0.34107(11) -0.00539(15) 0.41849(4)
O2 O 0.55359(10) -0.04455(16) 0.42367(4)
H1 H 0.5339 -0.1182 0.4462
O3 O 0.71183(11) 0.21753(18) 0.50008(4)
H2 H 0.6955 0.1637 0.5268
O4 O 0.50113(11) 0.27069(16) 0.50066(4)
C1 C 0.60583(14) 0.2821(2) 0.48014(5)
C2 C 0.62609(15) 0.3765(2) 0.43001(5)
H3 H 0.6935 0.3115 0.4120
H4 H 0.6551 0.5034 0.4361
C3 C 0.50735(14) 0.3836(2) 0.39603(5)
H5 H 0.4338 0.4166 0.4172
C4 C 0.47867(16) 0.1943(2) 0.36967(5)
H6 H 0.4063 0.2102 0.3471
H7 H 0.5518 0.1591 0.3492
C5 C 0.44975(15) 0.0383(2) 0.40623(5)
C6 C 0.52052(15) 0.5301(2) 0.35481(5)
C7 C 0.63423(16) 0.5526(2) 0.32798(6)
H8 H 0.7048 0.4796 0.3362
C8 C 0.64311(17) 0.6831(3) 0.28903(6)
H9 H 0.7191 0.6953 0.2710
C9 C 0.53959(19) 0.7949(2) 0.27688(6)
H10 H 0.5459 0.8831 0.2511
C10 C 0.42641(18) 0.7740(2) 0.30355(6)
H11 H 0.3566 0.8490 0.2957
C11 C 0.41664(16) 0.6419(2) 0.34195(5)
H12 H 0.3398 0.6280 0.3593
loop_
_geom_bond_atom_site_label_1
_geom_bond_atom_site_label_2
_geom_bond_site_symmetry_1
_geom_bond_site_symmetry_2
O1 C5 1_555 1_555
O2 H1 1_555 1_555
O3 H2 1_555 1_555
O4 C1 1_555 1_555
C1 O3 1_555 1_555
C2 C1 1_555 1_555
H3 C2 1_555 1_555
H4 C2 1_555 1_555
C3 C2 1_555 1_555
H5 C3 1_555 1_555
C4 C3 1_555 1_555
H6 C4 1_555 1_555
H7 C4 1_555 1_555
C5 O2 1_555 1_555
C6 C3 1_555 1_555
C7 C6 1_555 1_555
H8 C7 1_555 1_555
C8 C7 1_555 1_555
H9 C8 1_555 1_555
C9 C8 1_555 1_555
H10 C9 1_555 1_555
C10 C9 1_555 1_555
H11 C10 1_555 1_555
C11 C6 1_555 1_555
H12 C11 1_555 1_555
C4 C5 1_555 1_555
C10 C11 1_555 1_555

#END
