
#######################################################################
#
#                 Cambridge Crystallographic Data Centre
#                                CCDC 
#
#######################################################################
#
# If this CIF has been generated from an entry in the Cambridge 
# Structural Database, then it will include bibliographic, chemical, 
# crystal, experimental, refinement or atomic coordinate data resulting 
# from the CCDC's data processing and validation procedures.
#
#######################################################################

data_PHCPDB
_chemical_formula_moiety         'C25 H29 N1 P2'
_chemical_name_systematic        
'2,10-Diphenyl-6-methyl-6-aza-2,10-diphosphabicyclo(9.4.0)pentadeca-11 (1),12,14-triene'
_symmetry_cell_setting           monoclinic
_symmetry_space_group_name_H-M   'P 21/c'
_symmetry_Int_Tables_number      14
_space_group_name_Hall           '-P 2ybc'
loop_
_symmetry_equiv_pos_site_id
_symmetry_equiv_pos_as_xyz
1 x,y,z
2 -x,1/2+y,1/2-z
3 -x,-y,-z
4 x,1/2-y,1/2+z
_cell_length_a                   9.690(2)
_cell_length_b                   15.576(2)
_cell_length_c                   16.436(4)
_cell_angle_alpha                90
_cell_angle_beta                 117.60(2)
_cell_angle_gamma                90
_cell_volume                     2198.41
_exptl_crystal_colour            colorless
_chemical_melting_point          145-7deg.C
_cell_formula_units_Z            4
loop_
_atom_site_label
_atom_site_type_symbol
_atom_site_fract_x
_atom_site_fract_y
_atom_site_fract_z
P1 P -0.38980 -0.10064 -0.22117
P2 P -0.15097 -0.14661 -0.01633
N1 N 0.12040 -0.13060 -0.12910
C1 C -0.22110 -0.12620 -0.23990
C2 C -0.11910 -0.04920 -0.23240
C3 C 0.04580 -0.07600 -0.21050
C4 C 0.15240 -0.08690 -0.04300
C5 C 0.16960 -0.14880 0.03300
C6 C 0.02810 -0.20630 0.00690
C7 C -0.30190 -0.22580 -0.08460
C8 C -0.40920 -0.20560 -0.17580
C9 C -0.52230 -0.26660 -0.22740
C10 C -0.52690 -0.34570 -0.19070
C11 C -0.42010 -0.36580 -0.10150
C12 C -0.30920 -0.30610 -0.04870
C13 C 0.26300 -0.16580 -0.12430
C14 C -0.16260 -0.15160 0.09250
C15 C -0.30400 -0.12730 0.08830
C16 C -0.31960 -0.12320 0.16820
C17 C -0.19380 -0.14340 0.25240
C18 C -0.05240 -0.16780 0.25660
C19 C -0.03680 -0.17190 0.17670
C20 C -0.55860 -0.09940 -0.33700
C21 C -0.55200 -0.11480 -0.41850
C22 C -0.68530 -0.10580 -0.50230
C23 C -0.82530 -0.08150 -0.50460
C24 C -0.83190 -0.06610 -0.42310
C25 C -0.69860 -0.07510 -0.33920
loop_
_geom_bond_atom_site_label_1
_geom_bond_atom_site_label_2
_geom_bond_site_symmetry_1
_geom_bond_site_symmetry_2
P1 C1 1_555 1_555
P2 C6 1_555 1_555
N1 C3 1_555 1_555
C1 C2 1_555 1_555
C2 C3 1_555 1_555
C4 N1 1_555 1_555
C5 C4 1_555 1_555
C6 C5 1_555 1_555
C7 P2 1_555 1_555
C8 P1 1_555 1_555
C9 C8 1_555 1_555
C10 C9 1_555 1_555
C11 C10 1_555 1_555
C12 C7 1_555 1_555
C13 N1 1_555 1_555
C14 P2 1_555 1_555
C15 C14 1_555 1_555
C16 C15 1_555 1_555
C17 C16 1_555 1_555
C18 C17 1_555 1_555
C19 C14 1_555 1_555
C20 P1 1_555 1_555
C21 C20 1_555 1_555
C22 C21 1_555 1_555
C23 C22 1_555 1_555
C24 C23 1_555 1_555
C25 C20 1_555 1_555
C7 C8 1_555 1_555
C11 C12 1_555 1_555
C18 C19 1_555 1_555
C24 C25 1_555 1_555

#END
