
#######################################################################
#
#                 Cambridge Crystallographic Data Centre
#                                CCDC 
#
#######################################################################
#
# If this CIF has been generated from an entry in the Cambridge 
# Structural Database, then it will include bibliographic, chemical, 
# crystal, experimental, refinement or atomic coordinate data resulting 
# from the CCDC's data processing and validation procedures.
#
#######################################################################

data_PHCPDC
_chemical_formula_moiety         'C30 H31 N1 P2,C3 H6 O1'
_chemical_name_systematic        
'2,6,10-Triphenyl-6-aza-2,10-diphosphabicyclo(9.4.0)pentadeca-11(1),12,14-triene acetone solvate'
_symmetry_cell_setting           monoclinic
_symmetry_space_group_name_H-M   'P 21/c'
_symmetry_Int_Tables_number      14
_space_group_name_Hall           '-P 2ybc'
loop_
_symmetry_equiv_pos_site_id
_symmetry_equiv_pos_as_xyz
1 x,y,z
2 -x,1/2+y,1/2-z
3 -x,-y,-z
4 x,1/2-y,1/2+z
_cell_length_a                   9.243(2)
_cell_length_b                   16.441(3)
_cell_length_c                   18.963(3)
_cell_angle_alpha                90
_cell_angle_beta                 93.13(2)
_cell_angle_gamma                90
_cell_volume                     2877.4
_exptl_crystal_colour            colorless
_chemical_melting_point          147-149deg.C
_cell_formula_units_Z            4
loop_
_atom_site_label
_atom_site_type_symbol
_atom_site_fract_x
_atom_site_fract_y
_atom_site_fract_z
P1 P 0.24828 0.14991 -0.07664
P2 P 0.46036 0.29317 -0.00132
N1 N 0.08770 0.24630 0.11880
C1 C 0.05300 0.14230 -0.06130
C2 C 0.01090 0.20060 -0.00340
C3 C 0.08230 0.17990 0.06880
C4 C 0.22210 0.29110 0.12560
C5 C 0.23870 0.36280 0.07470
C6 C 0.39580 0.37550 0.05540
C7 C 0.34660 0.31320 -0.08290
C8 C 0.25840 0.25360 -0.11420
C9 C 0.17770 0.27160 -0.17700
C10 C 0.18470 0.34700 -0.20800
C11 C 0.27190 0.40620 -0.17680
C12 C 0.35090 0.38960 -0.11500
C16 C 0.26290 0.08860 -0.15720
C17 C 0.16680 0.02610 -0.17610
C18 C 0.19200 -0.02310 -0.23390
C19 C 0.31300 -0.00980 -0.27280
C20 C 0.40910 0.05270 -0.25400
C21 C 0.38400 0.10190 -0.19620
C22 C 0.63490 0.33420 -0.02830
C23 C 0.71740 0.38760 0.01430
C24 C 0.85030 0.41520 -0.00730
C25 C 0.90060 0.38950 -0.07140
C26 C 0.81800 0.33610 -0.11400
C27 C 0.68520 0.30850 -0.09250
C28 C -0.03520 0.27160 0.15100
C29 C -0.15930 0.22350 0.14810
C30 C -0.27820 0.24620 0.18550
C31 C -0.27310 0.31700 0.22580
C32 C -0.14900 0.36510 0.22870
C33 C -0.03000 0.34240 0.19120
C13 C 0.43390 0.07280 0.11830
C14 C 0.32400 0.00790 0.10920
C15 C 0.33660 -0.04830 0.05100
O1 O 0.22290 0.00460 0.14780
H1 H 0.53300 0.05100 0.12000
H2 H 0.42400 0.10500 0.15600
H3 H 0.44000 0.10700 0.07400
H4 H 0.31400 -0.03000 0.00500
H5 H 0.41400 -0.07700 0.05100
H6 H 0.28000 -0.09500 0.06100
loop_
_geom_bond_atom_site_label_1
_geom_bond_atom_site_label_2
_geom_bond_site_symmetry_1
_geom_bond_site_symmetry_2
P1 C1 1_555 1_555
P2 C6 1_555 1_555
N1 C3 1_555 1_555
C1 C2 1_555 1_555
C2 C3 1_555 1_555
C4 N1 1_555 1_555
C5 C4 1_555 1_555
C6 C5 1_555 1_555
C7 P2 1_555 1_555
C8 P1 1_555 1_555
C9 C8 1_555 1_555
C10 C9 1_555 1_555
C11 C10 1_555 1_555
C12 C7 1_555 1_555
C13 C14 1_555 1_555
C14 C15 1_555 1_555
C15 H4 1_555 1_555
O1 C14 1_555 1_555
H1 C13 1_555 1_555
H2 C13 1_555 1_555
H3 C13 1_555 1_555
H5 C15 1_555 1_555
H6 C15 1_555 1_555
C16 P1 1_555 1_555
C17 C16 1_555 1_555
C18 C17 1_555 1_555
C19 C18 1_555 1_555
C20 C19 1_555 1_555
C21 C16 1_555 1_555
C22 P2 1_555 1_555
C23 C22 1_555 1_555
C24 C23 1_555 1_555
C25 C24 1_555 1_555
C26 C25 1_555 1_555
C27 C22 1_555 1_555
C28 N1 1_555 1_555
C29 C28 1_555 1_555
C30 C29 1_555 1_555
C31 C30 1_555 1_555
C32 C31 1_555 1_555
C33 C28 1_555 1_555
C7 C8 1_555 1_555
C11 C12 1_555 1_555
C20 C21 1_555 1_555
C26 C27 1_555 1_555
C32 C33 1_555 1_555

#END
