
#######################################################################
#
#                 Cambridge Crystallographic Data Centre
#                                CCDC 
#
#######################################################################
#
# If this CIF has been generated from an entry in the Cambridge 
# Structural Database, then it will include bibliographic, chemical, 
# crystal, experimental, refinement or atomic coordinate data resulting 
# from the CCDC's data processing and validation procedures.
#
#######################################################################

data_PHCYND03
_chemical_formula_moiety         'C14 H10 N2 O2'
_chemical_name_systematic        1,3-Diphenyl-1,3-diazetidine-2,4-dione
_symmetry_cell_setting           monoclinic
_symmetry_space_group_name_H-M   'P 21/c'
_symmetry_Int_Tables_number      14
_space_group_name_Hall           '-P 2ybc'
loop_
_symmetry_equiv_pos_site_id
_symmetry_equiv_pos_as_xyz
1 x,y,z
2 x,1/2-y,1/2+z
3 -x,-y,-z
4 -x,1/2+y,1/2-z
_cell_length_a                   12.669(2)
_cell_length_b                   5.441(1)
_cell_length_c                   7.974(1)
_cell_angle_alpha                90
_cell_angle_beta                 91.74(1)
_cell_angle_gamma                90
_cell_volume                     549.411
_exptl_crystal_colour            colorless
_exptl_crystal_description       plate
_cell_formula_units_Z            2
loop_
_atom_site_label
_atom_site_type_symbol
_atom_site_fract_x
_atom_site_fract_y
_atom_site_fract_z
O1 O 0.47634(6) 0.16883(13) 0.14943(9)
N1 N 0.57874(6) 0.47991(14) 0.01384(10)
C1 C 0.68489(7) 0.48854(17) 0.06979(11)
C2 C 0.72384(8) 0.30388(18) 0.17607(12)
H1 H 0.6777(12) 0.174(3) 0.2128(19)
C3 C 0.82920(8) 0.31061(19) 0.22973(13)
H2 H 0.8554(12) 0.187(3) 0.3074(18)
C4 C 0.89543(8) 0.49706(19) 0.17665(13)
H3 H 0.9703(12) 0.499(2) 0.2138(19)
C5 C 0.85558(8) 0.67987(19) 0.07051(13)
H4 H 0.9018(12) 0.813(3) 0.0329(18)
C6 C 0.75018(8) 0.67757(18) 0.01610(12)
H5 H 0.7230(12) 0.804(3) -0.0590(18)
C7 C 0.48942(7) 0.34877(17) 0.06829(11)
C7B C 0.51058(7) 0.65123(17) -0.06829(11)
O1B O 0.52366(6) 0.83117(13) -0.14943(9)
N1B N 0.42126(6) 0.52009(14) -0.01384(10)
C1B C 0.31511(7) 0.51146(17) -0.06979(11)
C2B C 0.27616(8) 0.69612(18) -0.17607(12)
H1B H 0.3223(12) 0.826(3) -0.2128(19)
C3B C 0.17080(8) 0.68939(19) -0.22973(13)
H2B H 0.1446(12) 0.813(3) -0.3074(18)
C4B C 0.10457(8) 0.50294(19) -0.17665(13)
H3B H 0.0297(12) 0.501(2) -0.2138(19)
C5B C 0.14442(8) 0.32013(19) -0.07051(13)
H4B H 0.0982(12) 0.187(3) -0.0329(18)
C6B C 0.24982(8) 0.32243(18) -0.01610(12)
H5B H 0.2770(12) 0.196(3) 0.0590(18)
loop_
_geom_bond_atom_site_label_1
_geom_bond_atom_site_label_2
_geom_bond_site_symmetry_1
_geom_bond_site_symmetry_2
O1 C7 1_555 1_555
N1 C1 1_555 1_555
C1 C2 1_555 1_555
C2 H1 1_555 1_555
C3 C2 1_555 1_555
H2 C3 1_555 1_555
C4 C3 1_555 1_555
H3 C4 1_555 1_555
C5 C4 1_555 1_555
H4 C5 1_555 1_555
C6 C1 1_555 1_555
H5 C6 1_555 1_555
C7 N1 1_555 1_555
C7B N1 1_555 1_555
O1B C7B 1_555 1_555
N1B C7 1_555 1_555
C1B N1B 1_555 1_555
C2B C1B 1_555 1_555
H1B C2B 1_555 1_555
C3B C2B 1_555 1_555
H2B C3B 1_555 1_555
C4B C3B 1_555 1_555
H3B C4B 1_555 1_555
C5B C4B 1_555 1_555
H4B C5B 1_555 1_555
C6B C1B 1_555 1_555
H5B C6B 1_555 1_555
C5 C6 1_555 1_555
C7B N1B 1_555 1_555
C5B C6B 1_555 1_555

#END
