
#######################################################################
#
#                 Cambridge Crystallographic Data Centre
#                                CCDC 
#
#######################################################################
#
# If this CIF has been generated from an entry in the Cambridge 
# Structural Database, then it will include bibliographic, chemical, 
# crystal, experimental, refinement or atomic coordinate data resulting 
# from the CCDC's data processing and validation procedures.
#
#######################################################################

data_PHENSS14
_chemical_formula_moiety         'C12 H10 S2'
_chemical_name_systematic        '(M)-Diphenyl disulfide'
_symmetry_cell_setting           orthorhombic
_symmetry_space_group_name_H-M   'P 21 21 21'
_symmetry_Int_Tables_number      19
_space_group_name_Hall           'P 2ac 2ab'
loop_
_symmetry_equiv_pos_site_id
_symmetry_equiv_pos_as_xyz
1 x,y,z
2 1/2+x,1/2-y,-z
3 -x,1/2+y,1/2-z
4 1/2-x,-y,1/2+z
_cell_length_a                   5.5363(7)
_cell_length_b                   8.0793(11)
_cell_length_c                   23.483(3)
_cell_angle_alpha                90
_cell_angle_beta                 90
_cell_angle_gamma                90
_cell_volume                     1050.38
_exptl_crystal_colour            colorless
_exptl_crystal_description       prism
_cell_formula_units_Z            4
loop_
_atom_site_label
_atom_site_type_symbol
_atom_site_fract_x
_atom_site_fract_y
_atom_site_fract_z
S1 S 0.56640(10) 0.22066(8) 0.55664(2)
S2 S 0.88433(10) 0.28907(8) 0.59259(2)
C1 C 0.5380(4) 0.0031(2) 0.56860(9)
C2 C 0.3306(4) -0.0704(3) 0.54659(9)
C3 C 0.2929(4) -0.2393(2) 0.55441(10)
C4 C 0.4602(4) -0.3330(2) 0.58384(10)
C5 C 0.6664(4) -0.2594(2) 0.60542(10)
C6 C 0.7063(4) -0.0914(2) 0.59782(10)
C7 C 0.8157(3) 0.3223(2) 0.66612(9)
C8 C 0.6142(4) 0.2589(2) 0.69347(9)
C9 C 0.5851(4) 0.2838(3) 0.75132(9)
C10 C 0.7549(4) 0.3720(3) 0.78195(10)
C11 C 0.9545(4) 0.4363(3) 0.75453(10)
C12 C 0.9858(4) 0.4128(3) 0.69659(10)
H1 H 0.2156 -0.0058 0.5264
H2 H 0.1518 -0.2902 0.5395
H3 H 0.4336 -0.4481 0.5893
H4 H 0.7812 -0.3243 0.6256
H5 H 0.8484 -0.0412 0.6126
H6 H 0.4965 0.1986 0.6726
H7 H 0.4473 0.2401 0.7701
H8 H 0.7344 0.3882 0.8217
H9 H 1.0712 0.4971 0.7756
H10 H 1.1225 0.4582 0.6778
loop_
_geom_bond_atom_site_label_1
_geom_bond_atom_site_label_2
_geom_bond_site_symmetry_1
_geom_bond_site_symmetry_2
S1 S2 1_555 1_555
S2 C7 1_555 1_555
C1 S1 1_555 1_555
C2 C1 1_555 1_555
C3 C2 1_555 1_555
C4 C3 1_555 1_555
C5 C4 1_555 1_555
C6 C1 1_555 1_555
C7 C8 1_555 1_555
C8 C9 1_555 1_555
C9 C10 1_555 1_555
C10 C11 1_555 1_555
C11 C12 1_555 1_555
C12 C7 1_555 1_555
H1 C2 1_555 1_555
H2 C3 1_555 1_555
H3 C4 1_555 1_555
H4 C5 1_555 1_555
H5 C6 1_555 1_555
H6 C8 1_555 1_555
H7 C9 1_555 1_555
H8 C10 1_555 1_555
H9 C11 1_555 1_555
H10 C12 1_555 1_555
C5 C6 1_555 1_555

#END
