
#######################################################################
#
#                 Cambridge Crystallographic Data Centre
#                                CCDC 
#
#######################################################################
#
# If this CIF has been generated from an entry in the Cambridge 
# Structural Database, then it will include bibliographic, chemical, 
# crystal, experimental, refinement or atomic coordinate data resulting 
# from the CCDC's data processing and validation procedures.
#
#######################################################################

data_PHETPU
_chemical_formula_moiety         'C13 H12 N4'
_chemical_name_systematic        6-(2-Phenethyl)-purine
_symmetry_cell_setting           monoclinic
_symmetry_space_group_name_H-M   'P 21/c'
_symmetry_Int_Tables_number      14
_space_group_name_Hall           '-P 2ybc'
loop_
_symmetry_equiv_pos_site_id
_symmetry_equiv_pos_as_xyz
1 x,y,z
2 -x,1/2+y,1/2-z
3 -x,-y,-z
4 x,1/2-y,1/2+z
_cell_length_a                   17.903(2)
_cell_length_b                   5.038(4)
_cell_length_c                   13.193(3)
_cell_angle_alpha                90
_cell_angle_beta                 93.89(2)
_cell_angle_gamma                90
_cell_volume                     1187.21
_cell_formula_units_Z            4
loop_
_atom_site_label
_atom_site_type_symbol
_atom_site_fract_x
_atom_site_fract_y
_atom_site_fract_z
N1 N 0.91290 -0.10550 0.17120
C1 C 0.96720 0.06740 0.16850
N2 N 0.97590 0.24430 0.09190
C2 C 0.92290 0.21290 0.01870
C3 C 0.86180 0.02400 0.01360
C4 C 0.85920 -0.12940 0.09300
N3 N 0.81600 0.04860 -0.07830
C5 C 0.85020 0.24400 -0.12050
N4 N 0.91080 0.35030 -0.06950
C6 C 0.79500 -0.33760 0.09690
C7 C 0.72580 -0.22230 0.14010
C8 C 0.66620 -0.42590 0.15040
C9 C 0.62170 -0.51220 0.07090
C10 C 0.56830 -0.70440 0.08290
C11 C 0.55980 -0.81280 0.17100
C12 C 0.60300 -0.74590 0.25460
C13 C 0.65850 -0.55480 0.24450
H1 H 1.01200 0.09100 0.23000
H2 H 0.82000 0.34900 -0.19800
H3 H 0.95200 0.50700 -0.08000
H4 H 0.81700 -0.50100 0.14400
H5 H 0.76600 -0.38200 0.02000
H6 H 0.70000 -0.11600 0.08000
H7 H 0.75000 -0.13300 0.21300
H8 H 0.61600 -0.36100 -0.00800
H9 H 0.53500 -0.75100 0.01200
H10 H 0.50700 -0.96700 0.15600
H11 H 0.58200 -0.89100 0.31200
H12 H 0.69300 -0.43200 0.30600
loop_
_geom_bond_atom_site_label_1
_geom_bond_atom_site_label_2
_geom_bond_site_symmetry_1
_geom_bond_site_symmetry_2
N1 C1 1_555 1_555
C1 N2 1_555 1_555
N2 C2 1_555 1_555
C2 C3 1_555 1_555
C3 C4 1_555 1_555
C4 N1 1_555 1_555
N3 C3 1_555 1_555
C5 N3 1_555 1_555
N4 C2 1_555 1_555
C6 C4 1_555 1_555
C7 C6 1_555 1_555
C8 C7 1_555 1_555
C9 C8 1_555 1_555
C10 C9 1_555 1_555
C11 C10 1_555 1_555
C12 C11 1_555 1_555
C13 C8 1_555 1_555
H1 C1 1_555 1_555
H2 C5 1_555 1_555
H3 N4 1_555 1_555
H4 C6 1_555 1_555
H5 C6 1_555 1_555
H6 C7 1_555 1_555
H7 C7 1_555 1_555
H8 C9 1_555 1_555
H9 C10 1_555 1_555
H10 C11 1_555 1_555
H11 C12 1_555 1_555
H12 C13 1_555 1_555
C5 N4 1_555 1_555
C12 C13 1_555 1_555

#END
