
#######################################################################
#
#                 Cambridge Crystallographic Data Centre
#                                CCDC 
#
#######################################################################
#
# If this CIF has been generated from an entry in the Cambridge 
# Structural Database, then it will include bibliographic, chemical, 
# crystal, experimental, refinement or atomic coordinate data resulting 
# from the CCDC's data processing and validation procedures.
#
#######################################################################

data_PHISCY01
_chemical_formula_moiety         'C21 H15 N3 O3'
_chemical_name_systematic        
1,3,5-Triphenylperhydro-1,3,5-triazine-2,4,6-trione
_symmetry_cell_setting           orthorhombic
_symmetry_space_group_name_H-M   'F d d 2'
_symmetry_Int_Tables_number      43
_space_group_name_Hall           'F 2 -2d'
loop_
_symmetry_equiv_pos_site_id
_symmetry_equiv_pos_as_xyz
1 x,y,z
2 -x,-y,z
3 1/4-x,1/4+y,1/4+z
4 3/4+x,3/4-y,1/4+z
5 x,1/2+y,1/2+z
6 -x,1/2-y,1/2+z
7 1/4-x,3/4+y,3/4+z
8 3/4+x,1/4-y,3/4+z
9 1/2+x,y,1/2+z
10 1/2-x,-y,1/2+z
11 3/4-x,1/4+y,3/4+z
12 1/4+x,3/4-y,3/4+z
13 1/2+x,1/2+y,z
14 1/2-x,1/2-y,z
15 3/4-x,3/4+y,1/4+z
16 1/4+x,1/4-y,1/4+z
_cell_length_a                   23.3764(8)
_cell_length_b                   37.1079(12)
_cell_length_c                   7.7091(2)
_cell_angle_alpha                90
_cell_angle_beta                 90
_cell_angle_gamma                90
_cell_volume                     6687.25
_exptl_crystal_colour            yellow
_exptl_crystal_description       block
_cell_formula_units_Z            16
loop_
_atom_site_label
_atom_site_type_symbol
_atom_site_fract_x
_atom_site_fract_y
_atom_site_fract_z
O1 O 0.59934(6) 0.46727(4) 0.6011(2)
O2 O 0.67073(6) 0.58096(4) 0.5631(2)
O3 O 0.73397(6) 0.50498(4) 0.9884(2)
N1 N 0.66767(7) 0.48505(4) 0.7945(2)
N2 N 0.63468(7) 0.52415(4) 0.5780(2)
N3 N 0.70165(7) 0.54461(4) 0.7836(2)
C1 C 0.63165(8) 0.49025(5) 0.6535(3)
C2 C 0.66991(8) 0.55213(5) 0.6347(3)
C3 C 0.70397(8) 0.51096(5) 0.8638(3)
C4 C 0.66554(8) 0.44999(5) 0.8767(3)
C5 C 0.70869(9) 0.42549(5) 0.8476(3)
C6 C 0.70482(9) 0.39154(5) 0.9220(3)
C7 C 0.65788(9) 0.38223(5) 1.0203(3)
C8 C 0.61465(9) 0.40724(5) 1.0501(3)
C9 C 0.61874(8) 0.44142(5) 0.9796(3)
C10 C 0.59919(8) 0.53105(5) 0.4277(3)
C11 C 0.54180(9) 0.53877(5) 0.4513(3)
C12 C 0.50794(8) 0.54602(6) 0.3077(3)
C13 C 0.53164(9) 0.54582(5) 0.1436(3)
C14 C 0.58931(10) 0.53800(5) 0.1218(3)
C15 C 0.62337(9) 0.53040(5) 0.2642(3)
C16 C 0.73447(8) 0.57402(5) 0.8579(3)
C17 C 0.70574(9) 0.60461(5) 0.9137(3)
C18 C 0.73669(9) 0.63366(6) 0.9758(3)
C19 C 0.79557(9) 0.63153(6) 0.9865(3)
C20 C 0.82382(9) 0.60053(6) 0.9361(3)
C21 C 0.79332(8) 0.57165(5) 0.8687(3)
H1 H 0.7407 0.4317 0.7777
H2 H 0.7348 0.3746 0.9050
H3 H 0.6550 0.3587 1.0679
H4 H 0.5824 0.4009 1.1186
H5 H 0.5898 0.4588 1.0013
H6 H 0.5258 0.5391 0.5645
H7 H 0.4684 0.5511 0.3222
H8 H 0.5085 0.5510 0.0456
H9 H 0.6055 0.5379 0.0087
H10 H 0.6627 0.5248 0.2496
H11 H 0.6652 0.6056 0.9094
H12 H 0.7175 0.6550 1.0109
H13 H 0.8168 0.6515 1.0288
H14 H 0.8642 0.5990 0.9476
H15 H 0.8126 0.5506 0.8305
loop_
_geom_bond_atom_site_label_1
_geom_bond_atom_site_label_2
_geom_bond_site_symmetry_1
_geom_bond_site_symmetry_2
O1 C1 1_555 1_555
O2 C2 1_555 1_555
O3 C3 1_555 1_555
N1 C1 1_555 1_555
N2 C1 1_555 1_555
N3 C2 1_555 1_555
C2 N2 1_555 1_555
C3 N1 1_555 1_555
C4 N1 1_555 1_555
C5 C4 1_555 1_555
C6 C5 1_555 1_555
C7 C6 1_555 1_555
C8 C7 1_555 1_555
C9 C4 1_555 1_555
C10 N2 1_555 1_555
C11 C10 1_555 1_555
C12 C11 1_555 1_555
C13 C12 1_555 1_555
C14 C13 1_555 1_555
C15 C10 1_555 1_555
C16 N3 1_555 1_555
C17 C16 1_555 1_555
C18 C17 1_555 1_555
C19 C18 1_555 1_555
C20 C19 1_555 1_555
C21 C16 1_555 1_555
H1 C5 1_555 1_555
H2 C6 1_555 1_555
H3 C7 1_555 1_555
H4 C8 1_555 1_555
H5 C9 1_555 1_555
H6 C11 1_555 1_555
H7 C12 1_555 1_555
H8 C13 1_555 1_555
H9 C14 1_555 1_555
H10 C15 1_555 1_555
H11 C17 1_555 1_555
H12 C18 1_555 1_555
H13 C19 1_555 1_555
H14 C20 1_555 1_555
H15 C21 1_555 1_555
N3 C3 1_555 1_555
C8 C9 1_555 1_555
C14 C15 1_555 1_555
C20 C21 1_555 1_555

#END
