
#######################################################################
#
#                 Cambridge Crystallographic Data Centre
#                                CCDC 
#
#######################################################################
#
# If this CIF has been generated from an entry in the Cambridge 
# Structural Database, then it will include bibliographic, chemical, 
# crystal, experimental, refinement or atomic coordinate data resulting 
# from the CCDC's data processing and validation procedures.
#
#######################################################################

data_PHNAZI01
_chemical_formula_moiety         'C12 H8 N2,I2'
_chemical_name_systematic        'Phenazine iodine'
_symmetry_cell_setting           orthorhombic
_symmetry_space_group_name_H-M   'P b c n'
_symmetry_Int_Tables_number      60
_space_group_name_Hall           '-P 2n 2ab'
loop_
_symmetry_equiv_pos_site_id
_symmetry_equiv_pos_as_xyz
1 x,y,z
2 1/2-x,1/2+y,z
3 x,-y,1/2+z
4 1/2-x,1/2-y,1/2+z
5 -x,-y,-z
6 1/2+x,1/2-y,-z
7 -x,y,1/2-z
8 1/2+x,1/2+y,1/2-z
_cell_length_a                   12.901(3)
_cell_length_b                   11.602(3)
_cell_length_c                   8.303(3)
_cell_angle_alpha                90
_cell_angle_beta                 90
_cell_angle_gamma                90
_cell_volume                     1242.77
_exptl_crystal_colour            'dark red'
_cell_formula_units_Z            4
loop_
_atom_site_label
_atom_site_type_symbol
_atom_site_fract_x
_atom_site_fract_y
_atom_site_fract_z
I1 I 0.00000 0.06000 0.25000
I2 I 0.00000 -0.17500 0.25000
N1 N 0.00000 0.32710 0.25000
N2 N 0.00000 0.56760 0.25000
C1 C 0.07420 0.38380 0.17310
C2 C 0.15650 0.32480 0.09260
C3 C 0.23150 0.38420 0.01190
C4 C 0.23050 0.50740 0.01200
C5 C 0.15370 0.56650 0.08430
C6 C 0.07410 0.50740 0.17230
H1 H 0.15300 0.24500 0.09100
H2 H 0.27400 0.34700 -0.04500
H3 H 0.27100 0.53700 -0.07800
H4 H 0.15200 0.64700 0.08600
C1F C -0.07420 0.38380 0.32690
C6F C -0.07410 0.50740 0.32770
C2F C -0.15650 0.32480 0.40740
C5F C -0.15370 0.56650 0.41570
C3F C -0.23150 0.38420 0.48810
H1F H -0.15300 0.24500 0.40900
C4F C -0.23050 0.50740 0.48800
H4F H -0.15200 0.64700 0.41400
H2F H -0.27400 0.34700 0.54500
H3F H -0.27100 0.53700 0.57800
loop_
_geom_bond_atom_site_label_1
_geom_bond_atom_site_label_2
_geom_bond_site_symmetry_1
_geom_bond_site_symmetry_2
I1 I2 1_555 1_555
N1 C1 1_555 1_555
N2 C6 1_555 1_555
C1 C2 1_555 1_555
C2 C3 1_555 1_555
C3 C4 1_555 1_555
C4 C5 1_555 1_555
C5 C6 1_555 1_555
C6 C1 1_555 1_555
H1 C2 1_555 1_555
H2 C3 1_555 1_555
H3 C4 1_555 1_555
H4 C5 1_555 1_555
C1F N1 1_555 1_555
C6F N2 1_555 1_555
C2F C1F 1_555 1_555
C5F C6F 1_555 1_555
C3F C2F 1_555 1_555
H1F C2F 1_555 1_555
C4F C5F 1_555 1_555
H4F C5F 1_555 1_555
H2F C3F 1_555 1_555
H3F C4F 1_555 1_555
C1F C6F 1_555 1_555
C3F C4F 1_555 1_555

#END
