
#######################################################################
#
#                 Cambridge Crystallographic Data Centre
#                                CCDC 
#
#######################################################################
#
# If this CIF has been generated from an entry in the Cambridge 
# Structural Database, then it will include bibliographic, chemical, 
# crystal, experimental, refinement or atomic coordinate data resulting 
# from the CCDC's data processing and validation procedures.
#
#######################################################################

data_PHSECL02
_chemical_name_common            'diphenylselenium dichloride'
_chemical_formula_moiety         'C12 H10 Cl2 Se1'
_chemical_name_systematic        (dichloro(phenyl)selanyl)benzene
_symmetry_cell_setting           orthorhombic
_symmetry_space_group_name_H-M   'P b c a'
_symmetry_Int_Tables_number      61
_space_group_name_Hall           '-P 2ac 2ab'
loop_
_symmetry_equiv_pos_site_id
_symmetry_equiv_pos_as_xyz
1 x,y,z
2 1/2-x,-y,1/2+z
3 1/2+x,1/2-y,-z
4 -x,1/2+y,1/2-z
5 -x,-y,-z
6 1/2+x,y,1/2-z
7 1/2-x,1/2+y,z
8 x,1/2-y,1/2+z
_cell_length_a                   17.7839(6)
_cell_length_b                   7.6076(3)
_cell_length_c                   17.9304(12)
_cell_angle_alpha                90
_cell_angle_beta                 90
_cell_angle_gamma                90
_cell_volume                     2425.85
_exptl_crystal_colour            colorless
_exptl_crystal_description       block
_cell_formula_units_Z            8
loop_
_atom_site_label
_atom_site_type_symbol
_atom_site_fract_x
_atom_site_fract_y
_atom_site_fract_z
Se1 Se 0.36981(2) 0.43956(6) 0.64983(3)
Cl1 Cl 0.43184(6) 0.68870(13) 0.59881(9)
Cl2 Cl 0.30672(6) 0.19481(19) 0.70815(9)
C1 C 0.3796(2) 0.3707(6) 0.4903(3)
H1 H 0.4305 0.3964 0.4949
C2 C 0.4641(2) 0.3114(5) 0.6534(3)
C3 C 0.5208(2) 0.3840(7) 0.6964(3)
H2 H 0.5143 0.4914 0.7204
C4 C 0.3495(3) 0.3277(6) 0.4225(3)
H3 H 0.3804 0.3236 0.3807
C5 C 0.5393(3) 0.0636(6) 0.6237(4)
H4 H 0.5459 -0.0435 0.5996
C6 C 0.2560(2) 0.3415(5) 0.5460(3)
H5 H 0.2246 0.3472 0.5874
C7 C 0.2737(3) 0.2903(6) 0.4152(3)
H6 H 0.2540 0.2594 0.3690
C8 C 0.2276(2) 0.2991(6) 0.4767(3)
H7 H 0.1765 0.2760 0.4715
C9 C 0.33218(19) 0.3754(5) 0.5526(3)
C10 C 0.5965(2) 0.1333(7) 0.6654(4)
H8 H 0.6420 0.0734 0.6687
C11 C 0.5879(2) 0.2911(6) 0.7026(3)
H9 H 0.6268 0.3351 0.7318
C12 C 0.4719(2) 0.1522(6) 0.6174(3)
H10 H 0.4326 0.1056 0.5894
loop_
_geom_bond_atom_site_label_1
_geom_bond_atom_site_label_2
_geom_bond_site_symmetry_1
_geom_bond_site_symmetry_2
Se1 Cl1 1_555 1_555
Cl2 Se1 1_555 1_555
C1 H1 1_555 1_555
C2 Se1 1_555 1_555
C3 C2 1_555 1_555
H2 C3 1_555 1_555
C4 C1 1_555 1_555
H3 C4 1_555 1_555
C5 H4 1_555 1_555
C6 H5 1_555 1_555
C7 C4 1_555 1_555
H6 C7 1_555 1_555
C8 C6 1_555 1_555
H7 C8 1_555 1_555
C9 Se1 1_555 1_555
C10 C5 1_555 1_555
H8 C10 1_555 1_555
C11 C3 1_555 1_555
H9 C11 1_555 1_555
C12 C2 1_555 1_555
H10 C12 1_555 1_555
C1 C9 1_555 1_555
C5 C12 1_555 1_555
C6 C9 1_555 1_555
C7 C8 1_555 1_555
C10 C11 1_555 1_555

#END
