
#######################################################################
#
#                 Cambridge Crystallographic Data Centre
#                                CCDC 
#
#######################################################################
#
# If this CIF has been generated from an entry in the Cambridge 
# Structural Database, then it will include bibliographic, chemical, 
# crystal, experimental, refinement or atomic coordinate data resulting 
# from the CCDC's data processing and validation procedures.
#
#######################################################################

data_PIBBIN
_chemical_formula_moiety         'C20 H15 F2 O2 P1'
_chemical_name_systematic        Difluoro(triphenylphosphonio)acetate
_symmetry_cell_setting           monoclinic
_symmetry_space_group_name_H-M   'P 21/n'
_symmetry_Int_Tables_number      14
_space_group_name_Hall           '-P 2yn'
loop_
_symmetry_equiv_pos_site_id
_symmetry_equiv_pos_as_xyz
1 x,y,z
2 1/2-x,1/2+y,1/2-z
3 -x,-y,-z
4 1/2+x,1/2-y,1/2+z
_cell_length_a                   12.3883(14)
_cell_length_b                   10.0280(11)
_cell_length_c                   13.0620(15)
_cell_angle_alpha                90
_cell_angle_beta                 93.014(2)
_cell_angle_gamma                90
_cell_volume                     1620.45
_exptl_crystal_colour            colorless
_exptl_crystal_description       prismatic
_cell_formula_units_Z            4
loop_
_atom_site_label
_atom_site_type_symbol
_atom_site_fract_x
_atom_site_fract_y
_atom_site_fract_z
P1 P 0.90820(4) 0.22131(5) 0.28732(4)
F1 F 0.93581(10) -0.02776(13) 0.34307(10)
F2 F 1.03904(11) 0.11374(14) 0.42695(9)
O1 O 1.13700(16) -0.05910(19) 0.27967(15)
O2 O 1.11630(14) 0.13860(17) 0.20445(13)
C1 C 0.99949(16) 0.0804(2) 0.33069(15)
C2 C 1.09547(17) 0.0491(2) 0.26392(17)
C3 C 0.87283(16) 0.2082(2) 0.15353(15)
C4 C 0.87612(18) 0.0873(2) 0.10251(16)
H1 H 0.8993 0.0108 0.1375
C5 C 0.84497(19) 0.0805(3) -0.00038(17)
H2 H 0.8478 -0.0006 -0.0348
C6 C 0.81005(19) 0.1924(3) -0.05200(17)
H3 H 0.7895 0.1872 -0.1214
C7 C 0.80514(19) 0.3121(3) -0.00181(18)
H4 H 0.7799 0.3876 -0.0369
C8 C 0.83753(17) 0.3209(2) 0.10054(16)
H5 H 0.8357 0.4027 0.1340
C9 C 0.78899(16) 0.2038(2) 0.35889(15)
C10 C 0.68868(17) 0.2310(2) 0.31312(16)
H6 H 0.6816 0.2506 0.2435
C11 C 0.59865(18) 0.2292(2) 0.37110(19)
H7 H 0.5306 0.2462 0.3404
C12 C 0.60960(19) 0.2022(2) 0.47379(19)
H8 H 0.5489 0.2027 0.5128
C13 C 0.70879(19) 0.1746(2) 0.51970(17)
H9 H 0.7154 0.1565 0.5896
C14 C 0.79840(17) 0.1738(2) 0.46255(15)
H10 H 0.8657 0.1531 0.4934
C15 C 0.96709(16) 0.3806(2) 0.31732(14)
C16 C 0.91079(17) 0.4697(2) 0.37557(16)
H11 H 0.8460 0.4445 0.4028
C17 C 0.9517(2) 0.5962(2) 0.39282(18)
H12 H 0.9139 0.6570 0.4311
C18 C 1.0470(2) 0.6321(3) 0.35399(19)
H13 H 1.0735 0.7179 0.3650
C19 C 1.1043(2) 0.5434(3) 0.2988(2)
H14 H 1.1705 0.5686 0.2744
C20 C 1.06520(18) 0.4175(2) 0.27921(18)
H15 H 1.1039 0.3577 0.2409
loop_
_geom_bond_atom_site_label_1
_geom_bond_atom_site_label_2
_geom_bond_site_symmetry_1
_geom_bond_site_symmetry_2
P1 C1 1_555 1_555
F1 C1 1_555 1_555
F2 C1 1_555 1_555
O1 C2 1_555 1_555
O2 C2 1_555 1_555
C1 C2 1_555 1_555
C3 P1 1_555 1_555
C4 C3 1_555 1_555
H1 C4 1_555 1_555
C5 C4 1_555 1_555
H2 C5 1_555 1_555
C6 C5 1_555 1_555
H3 C6 1_555 1_555
C7 C6 1_555 1_555
H4 C7 1_555 1_555
C8 C3 1_555 1_555
H5 C8 1_555 1_555
C9 P1 1_555 1_555
C10 C9 1_555 1_555
H6 C10 1_555 1_555
C11 C10 1_555 1_555
H7 C11 1_555 1_555
C12 C11 1_555 1_555
H8 C12 1_555 1_555
C13 C12 1_555 1_555
H9 C13 1_555 1_555
C14 C9 1_555 1_555
H10 C14 1_555 1_555
C15 P1 1_555 1_555
C16 C15 1_555 1_555
H11 C16 1_555 1_555
C17 C16 1_555 1_555
H12 C17 1_555 1_555
C18 C17 1_555 1_555
H13 C18 1_555 1_555
C19 C18 1_555 1_555
H14 C19 1_555 1_555
C20 C15 1_555 1_555
H15 C20 1_555 1_555
C7 C8 1_555 1_555
C13 C14 1_555 1_555
C19 C20 1_555 1_555

#END
