
#######################################################################
#
#                 Cambridge Crystallographic Data Centre
#                                CCDC 
#
#######################################################################
#
# If this CIF has been generated from an entry in the Cambridge 
# Structural Database, then it will include bibliographic, chemical, 
# crystal, experimental, refinement or atomic coordinate data resulting 
# from the CCDC's data processing and validation procedures.
#
#######################################################################

data_PIBHIU
_chemical_formula_moiety         'C25 H16 O3'
_chemical_name_systematic        
7-(4-methylphenyl)benzo[b]benzo[3,4]cyclohepta[1,2-e]pyran-5,8-dione
_symmetry_cell_setting           triclinic
_symmetry_space_group_name_H-M   'P -1'
_symmetry_Int_Tables_number      2
_space_group_name_Hall           '-P 1'
loop_
_symmetry_equiv_pos_site_id
_symmetry_equiv_pos_as_xyz
1 x,y,z
2 -x,-y,-z
_cell_length_a                   8.3697(16)
_cell_length_b                   9.3019(17)
_cell_length_c                   11.724(2)
_cell_angle_alpha                92.612(4)
_cell_angle_beta                 100.852(4)
_cell_angle_gamma                91.184(4)
_cell_volume                     895.109
_exptl_crystal_colour            colorless
_exptl_crystal_description       prismatic
_cell_formula_units_Z            2
loop_
_atom_site_label
_atom_site_type_symbol
_atom_site_fract_x
_atom_site_fract_y
_atom_site_fract_z
O1 O 0.59120(17) 0.09419(14) 0.67898(13)
O2 O 0.45383(15) 0.50234(13) 0.70125(11)
O3 O 0.8034(3) 0.40012(19) 1.13720(14)
C1 C 0.3901(2) 0.41886(19) 0.60370(16)
C2 C 0.2669(2) 0.4772(2) 0.52494(18)
H1 H 0.2304 0.5689 0.5390
C3 C 0.2003(3) 0.3971(2) 0.42599(19)
H2 H 0.1170 0.4345 0.3725
C4 C 0.2556(3) 0.2603(2) 0.40453(17)
H3 H 0.2115 0.2080 0.3359
C5 C 0.3745(2) 0.2029(2) 0.48398(17)
H4 H 0.4099 0.1108 0.4699
C6 C 0.4434(2) 0.28173(18) 0.58639(15)
C7 C 0.5649(2) 0.22283(19) 0.67741(16)
C8 C 0.6487(2) 0.32787(18) 0.76891(15)
C9 C 0.5829(2) 0.45954(19) 0.78033(15)
C10 C 0.6263(2) 0.57464(19) 0.87213(16)
C11 C 0.5750(2) 0.7126(2) 0.8444(2)
H5 H 0.5284 0.7295 0.7679
C12 C 0.5917(3) 0.8246(2) 0.9276(2)
H6 H 0.5599 0.9164 0.9066
C13 C 0.6556(3) 0.7997(3) 1.0420(2)
H7 H 0.6618 0.8734 1.0992
C14 C 0.7098(2) 0.6661(2) 1.07090(19)
H8 H 0.7543 0.6507 1.1481
C15 C 0.7003(2) 0.5521(2) 0.98791(16)
C16 C 0.7785(3) 0.4188(2) 1.03307(18)
C17 C 0.8479(2) 0.3198(2) 0.95668(16)
H9 H 0.9437 0.2780 0.9916
C18 C 0.7961(2) 0.27947(19) 0.84461(15)
C19 C 0.8982(2) 0.17535(19) 0.79141(15)
C20 C 0.9549(2) 0.2059(2) 0.69112(16)
H10 H 0.9231 0.2896 0.6536
C21 C 1.0574(2) 0.1149(2) 0.64611(16)
H11 H 1.0950 0.1389 0.5795
C22 C 1.1057(2) -0.0117(2) 0.69811(16)
C23 C 1.0476(2) -0.0431(2) 0.79712(17)
H12 H 1.0776 -0.1278 0.8335
C24 C 0.9460(2) 0.0486(2) 0.84321(16)
H13 H 0.9091 0.0248 0.9102
C25 C 1.2178(3) -0.1121(3) 0.6486(2)
H14 H 1.3278 -0.0750 0.6700
H15 H 1.1867 -0.1195 0.5654
H16 H 1.2101 -0.2056 0.6789
loop_
_geom_bond_atom_site_label_1
_geom_bond_atom_site_label_2
_geom_bond_site_symmetry_1
_geom_bond_site_symmetry_2
O1 C7 1_555 1_555
O2 C1 1_555 1_555
O3 C16 1_555 1_555
C1 C2 1_555 1_555
C2 H1 1_555 1_555
C3 C2 1_555 1_555
H2 C3 1_555 1_555
C4 C3 1_555 1_555
H3 C4 1_555 1_555
C5 C4 1_555 1_555
H4 C5 1_555 1_555
C6 C1 1_555 1_555
C7 C6 1_555 1_555
C8 C7 1_555 1_555
C9 O2 1_555 1_555
C10 C9 1_555 1_555
C11 C10 1_555 1_555
H5 C11 1_555 1_555
C12 C11 1_555 1_555
H6 C12 1_555 1_555
C13 C12 1_555 1_555
H7 C13 1_555 1_555
C14 C13 1_555 1_555
H8 C14 1_555 1_555
C15 C10 1_555 1_555
C16 C15 1_555 1_555
C17 C16 1_555 1_555
H9 C17 1_555 1_555
C18 C8 1_555 1_555
C19 C18 1_555 1_555
C20 C19 1_555 1_555
H10 C20 1_555 1_555
C21 C20 1_555 1_555
H11 C21 1_555 1_555
C22 C21 1_555 1_555
C23 C22 1_555 1_555
H12 C23 1_555 1_555
C24 C19 1_555 1_555
H13 C24 1_555 1_555
C25 C22 1_555 1_555
H14 C25 1_555 1_555
H15 C25 1_555 1_555
H16 C25 1_555 1_555
C5 C6 1_555 1_555
C8 C9 1_555 1_555
C14 C15 1_555 1_555
C17 C18 1_555 1_555
C23 C24 1_555 1_555

#END
