
#######################################################################
#
#                 Cambridge Crystallographic Data Centre
#                                CCDC 
#
#######################################################################
#
# If this CIF has been generated from an entry in the Cambridge 
# Structural Database, then it will include bibliographic, chemical, 
# crystal, experimental, refinement or atomic coordinate data resulting 
# from the CCDC's data processing and validation procedures.
#
#######################################################################

data_PIBHEQ
_chemical_formula_moiety         'C25 H17 Br1 O3'
_chemical_name_systematic        
8-(2-bromobenzene-1-carbonyl)-9-hydroxy-7-(4-methylphenyl)-5H-benzo[7]annulen-5-one
_symmetry_cell_setting           monoclinic
_symmetry_space_group_name_H-M   'P 21/c'
_symmetry_Int_Tables_number      14
_space_group_name_Hall           '-P 2ybc'
loop_
_symmetry_equiv_pos_site_id
_symmetry_equiv_pos_as_xyz
1 x,y,z
2 -x,1/2+y,1/2-z
3 -x,-y,-z
4 x,1/2-y,1/2+z
_cell_length_a                   10.733(4)
_cell_length_b                   11.633(4)
_cell_length_c                   16.071(6)
_cell_angle_alpha                90
_cell_angle_beta                 100.221(6)
_cell_angle_gamma                90
_cell_volume                     1974.73
_exptl_crystal_colour            green
_exptl_crystal_description       prismatic
_cell_formula_units_Z            4
loop_
_atom_site_label
_atom_site_type_symbol
_atom_site_fract_x
_atom_site_fract_y
_atom_site_fract_z
Br1 Br 0.49222(5) 0.41646(5) 0.12407(4)
O1 O 0.5452(4) 0.5278(4) 0.4038(2)
H1 H 0.6193 0.5130 0.4018
O2 O 0.2032(3) 0.6631(4) 0.1282(3)
O3 O 0.7349(3) 0.4941(4) 0.3414(2)
C1 C 0.2759(4) 0.6643(4) 0.2751(3)
C2 C 0.1549(5) 0.6948(5) 0.2895(4)
H2 H 0.0929 0.7169 0.2444
C3 C 0.1276(6) 0.6923(5) 0.3701(4)
H3 H 0.0477 0.7136 0.3793
C4 C 0.2186(6) 0.6582(6) 0.4370(4)
H4 H 0.2002 0.6559 0.4914
C5 C 0.3340(5) 0.6282(5) 0.4233(4)
H5 H 0.3937 0.6042 0.4692
C6 C 0.3694(5) 0.6312(5) 0.3436(3)
C7 C 0.4960(5) 0.5916(5) 0.3369(3)
C8 C 0.5658(4) 0.6117(4) 0.2743(3)
C9 C 0.5297(4) 0.6931(4) 0.2048(3)
C10 C 0.4121(5) 0.7200(5) 0.1667(3)
H6 H 0.4055 0.7729 0.1228
C11 C 0.2929(5) 0.6764(5) 0.1858(3)
C12 C 0.6376(5) 0.7502(4) 0.1730(3)
C13 C 0.6406(5) 0.7534(5) 0.0876(4)
H7 H 0.5733 0.7234 0.0492
C14 C 0.7425(6) 0.8007(5) 0.0587(4)
H8 H 0.7429 0.8013 0.0009
C15 C 0.8434(5) 0.8469(5) 0.1126(5)
C16 C 0.8370(5) 0.8495(5) 0.1983(4)
H9 H 0.9014 0.8848 0.2360
C17 C 0.7357(5) 0.8003(5) 0.2284(4)
H10 H 0.7339 0.8011 0.2861
C18 C 0.9582(6) 0.8905(6) 0.0814(5)
H11 H 1.0199 0.8301 0.0846
H12 H 0.9936 0.9540 0.1157
H13 H 0.9347 0.9153 0.0238
C19 C 0.6787(5) 0.5422(5) 0.2757(3)
C20 C 0.7302(4) 0.5184(4) 0.1975(3)
C21 C 0.6609(5) 0.4669(5) 0.1263(4)
C22 C 0.7164(6) 0.4449(5) 0.0554(4)
H14 H 0.6694 0.4098 0.0081
C23 C 0.8386(6) 0.4750(6) 0.0558(4)
H15 H 0.8744 0.4618 0.0081
C24 C 0.9101(6) 0.5248(6) 0.1261(4)
H16 H 0.9939 0.5453 0.1260
C25 C 0.8565(5) 0.5440(5) 0.1964(4)
H17 H 0.9060 0.5749 0.2446
loop_
_geom_bond_atom_site_label_1
_geom_bond_atom_site_label_2
_geom_bond_site_symmetry_1
_geom_bond_site_symmetry_2
Br1 C21 1_555 1_555
O1 H1 1_555 1_555
O2 C11 1_555 1_555
O3 C19 1_555 1_555
C1 C2 1_555 1_555
C2 H2 1_555 1_555
C3 C2 1_555 1_555
H3 C3 1_555 1_555
C4 C3 1_555 1_555
H4 C4 1_555 1_555
C5 C4 1_555 1_555
H5 C5 1_555 1_555
C6 C1 1_555 1_555
C7 O1 1_555 1_555
C8 C7 1_555 1_555
C9 C8 1_555 1_555
C10 C9 1_555 1_555
H6 C10 1_555 1_555
C11 C1 1_555 1_555
C12 C9 1_555 1_555
C13 C12 1_555 1_555
H7 C13 1_555 1_555
C14 C13 1_555 1_555
H8 C14 1_555 1_555
C15 C14 1_555 1_555
C16 C15 1_555 1_555
H9 C16 1_555 1_555
C17 C12 1_555 1_555
H10 C17 1_555 1_555
C18 C15 1_555 1_555
H11 C18 1_555 1_555
H12 C18 1_555 1_555
H13 C18 1_555 1_555
C19 C8 1_555 1_555
C20 C19 1_555 1_555
C21 C20 1_555 1_555
C22 C21 1_555 1_555
H14 C22 1_555 1_555
C23 C22 1_555 1_555
H15 C23 1_555 1_555
C24 C23 1_555 1_555
H16 C24 1_555 1_555
C25 C20 1_555 1_555
H17 C25 1_555 1_555
C5 C6 1_555 1_555
C6 C7 1_555 1_555
C10 C11 1_555 1_555
C16 C17 1_555 1_555
C24 C25 1_555 1_555

#END
