
#######################################################################
#
#                 Cambridge Crystallographic Data Centre
#                                CCDC 
#
#######################################################################
#
# If this CIF has been generated from an entry in the Cambridge 
# Structural Database, then it will include bibliographic, chemical, 
# crystal, experimental, refinement or atomic coordinate data resulting 
# from the CCDC's data processing and validation procedures.
#
#######################################################################

data_PIBWED
_chemical_formula_moiety         'C52 H44'
_chemical_name_systematic        
6,11-di-t-butyl-17,18-diphenyl-5,12-dihydrofluoreno[3,2-g]indeno[2,1-b]phenanthrene
_symmetry_cell_setting           triclinic
_symmetry_space_group_name_H-M   'P -1'
_symmetry_Int_Tables_number      2
_space_group_name_Hall           '-P 1'
loop_
_symmetry_equiv_pos_site_id
_symmetry_equiv_pos_as_xyz
1 x,y,z
2 -x,-y,-z
_cell_length_a                   9.4794(6)
_cell_length_b                   12.9657(9)
_cell_length_c                   16.3977(11)
_cell_angle_alpha                96.2450(10)
_cell_angle_beta                 103.0610(10)
_cell_angle_gamma                103.8060(10)
_cell_volume                     1878.12
_cell_formula_units_Z            2
_exptl_crystal_recrystallization_method dichloromethane/hexane
loop_
_atom_site_label
_atom_site_type_symbol
_atom_site_fract_x
_atom_site_fract_y
_atom_site_fract_z
C1 C 0.7115(2) 0.95288(17) 0.22966(13)
C2 C 0.7365(2) 1.04353(18) 0.18865(15)
H1 H 0.6598 1.0766 0.1735
C3 C 0.8697(2) 1.08298(18) 0.17108(15)
H2 H 0.8883 1.1492 0.1528
C4 C 0.9829(2) 1.02628(17) 0.17965(13)
C5 C 1.1194(2) 1.06121(18) 0.15343(13)
C6 C 1.18213(19) 0.97991(18) 0.13042(12)
C7 C 1.3032(2) 0.9835(2) 0.08266(15)
H3 H 1.2795 1.0139 0.0314
H4 H 1.4008 1.0259 0.1181
C8 C 1.3014(2) 0.8692(2) 0.06180(14)
C9 C 1.3892(3) 0.8275(3) 0.01731(18)
H5 H 1.4605 0.8732 -0.0026
C10 C 1.3702(3) 0.7190(3) 0.0031(2)
H6 H 1.4298 0.6907 -0.0261
C11 C 1.2630(3) 0.6508(3) 0.03163(19)
H7 H 1.2495 0.5767 0.0205
C12 C 1.1751(3) 0.6918(2) 0.07682(16)
H8 H 1.1030 0.6454 0.0957
C13 C 1.1957(2) 0.8021(2) 0.09352(13)
C14 C 1.1227(2) 0.87105(18) 0.13832(12)
C15 C 1.01168(19) 0.84294(17) 0.18075(12)
C16 C 0.94663(18) 0.92488(16) 0.20617(12)
C17 C 0.82693(19) 0.90297(15) 0.24904(12)
C18 C 0.82145(19) 0.83153(15) 0.31062(12)
C19 C 0.95404(18) 0.82946(16) 0.37154(12)
C20 C 0.9384(2) 0.75700(17) 0.42657(13)
C21 C 1.0463(2) 0.74631(18) 0.50334(13)
C22 C 1.1902(2) 0.8092(2) 0.54855(14)
H9 H 1.2368 0.8698 0.5293
C23 C 1.2623(3) 0.7804(3) 0.62216(17)
H10 H 1.3580 0.8222 0.6523
C24 C 1.1952(3) 0.6917(3) 0.6513(2)
H11 H 1.2463 0.6731 0.7005
C25 C 1.0529(3) 0.6295(3) 0.60853(19)
H12 H 1.0075 0.5691 0.6285
C26 C 0.9781(3) 0.6581(2) 0.53528(15)
C27 C 0.8215(3) 0.6061(2) 0.48223(16)
H13 H 0.7496 0.6035 0.5162
H14 H 0.8118 0.5334 0.4553
C28 C 0.7982(2) 0.67838(16) 0.41658(13)
C29 C 0.6657(2) 0.68417(16) 0.36253(13)
C30 C 0.67854(19) 0.77386(16) 0.31800(12)
C31 C 0.5570(2) 0.81936(18) 0.28680(14)
H15 H 0.4612 0.7853 0.2908
C32 C 0.5761(2) 0.90924(18) 0.25201(14)
H16 H 0.4994 0.9433 0.2424
C33 C 1.1869(2) 1.18148(19) 0.15227(16)
C34 C 1.1664(3) 1.2535(2) 0.2273(2)
H17 H 1.2168 1.2366 0.2798
H18 H 1.0611 1.2410 0.2240
H19 H 1.2086 1.3279 0.2250
C35 C 1.1177(4) 1.2113(3) 0.0673(2)
H20 H 1.1618 1.2862 0.0674
H21 H 1.0111 1.1985 0.0593
H22 H 1.1368 1.1681 0.0218
C36 C 1.3582(3) 1.2111(2) 0.1660(2)
H23 H 1.3816 1.1819 0.1159
H24 H 1.4026 1.1818 0.2135
H25 H 1.3975 1.2881 0.1771
C37 C 0.9403(2) 0.72763(18) 0.18259(13)
C38 C 0.7923(3) 0.6809(2) 0.13509(17)
H26 H 0.7389 0.7225 0.1051
C39 C 0.7245(4) 0.5734(3) 0.1323(2)
H27 H 0.6258 0.5430 0.1000
C40 C 0.8008(6) 0.5113(3) 0.1764(3)
H28 H 0.7544 0.4389 0.1742
C41 C 0.9455(5) 0.5560(3) 0.2236(2)
H29 H 0.9975 0.5140 0.2541
C42 C 1.0151(3) 0.6631(2) 0.22636(16)
H30 H 1.1142 0.6923 0.2583
C43 C 1.09550(19) 0.91786(17) 0.38569(12)
C44 C 1.0940(2) 1.02303(18) 0.41110(14)
H31 H 1.0041 1.0372 0.4157
C45 C 1.2224(2) 1.1065(2) 0.42956(17)
H32 H 1.2190 1.1764 0.4467
C46 C 1.3555(2) 1.0873(2) 0.42287(17)
H33 H 1.4425 1.1441 0.4354
C47 C 1.3602(2) 0.9846(2) 0.39777(16)
H34 H 1.4506 0.9715 0.3931
C48 C 1.2321(2) 0.90057(19) 0.37940(14)
H35 H 1.2367 0.8309 0.3625
C49 C 0.5110(2) 0.60220(18) 0.35039(15)
C50 C 0.5227(3) 0.4917(2) 0.3704(2)
H36 H 0.5890 0.4673 0.3413
H37 H 0.4247 0.4412 0.3521
H38 H 0.5616 0.4970 0.4306
C51 C 0.4244(3) 0.6458(2) 0.40963(18)
H39 H 0.3276 0.5956 0.4009
H40 H 0.4115 0.7140 0.3969
H41 H 0.4805 0.6547 0.4678
C52 C 0.4180(3) 0.5783(2) 0.25642(18)
H42 H 0.4710 0.5476 0.2212
H43 H 0.4031 0.6441 0.2390
H44 H 0.3221 0.5284 0.2507
loop_
_geom_bond_atom_site_label_1
_geom_bond_atom_site_label_2
_geom_bond_site_symmetry_1
_geom_bond_site_symmetry_2
C1 C2 1_555 1_555
C2 H1 1_555 1_555
C3 C2 1_555 1_555
H2 C3 1_555 1_555
C4 C3 1_555 1_555
C5 C4 1_555 1_555
C6 C5 1_555 1_555
C7 C6 1_555 1_555
H3 C7 1_555 1_555
H4 C7 1_555 1_555
C8 C7 1_555 1_555
C9 C8 1_555 1_555
H5 C9 1_555 1_555
C10 C9 1_555 1_555
H6 C10 1_555 1_555
C11 C10 1_555 1_555
H7 C11 1_555 1_555
C12 C11 1_555 1_555
H8 C12 1_555 1_555
C13 C8 1_555 1_555
C14 C6 1_555 1_555
C15 C14 1_555 1_555
C16 C4 1_555 1_555
C17 C1 1_555 1_555
C18 C17 1_555 1_555
C19 C18 1_555 1_555
C20 C19 1_555 1_555
C21 C20 1_555 1_555
C22 C21 1_555 1_555
H9 C22 1_555 1_555
C23 C22 1_555 1_555
H10 C23 1_555 1_555
C24 C23 1_555 1_555
H11 C24 1_555 1_555
C25 C24 1_555 1_555
H12 C25 1_555 1_555
C26 C21 1_555 1_555
C27 C26 1_555 1_555
H13 C27 1_555 1_555
H14 C27 1_555 1_555
C28 C20 1_555 1_555
C29 C28 1_555 1_555
C30 C18 1_555 1_555
C31 C30 1_555 1_555
H15 C31 1_555 1_555
C32 C1 1_555 1_555
H16 C32 1_555 1_555
C33 C5 1_555 1_555
C34 C33 1_555 1_555
H17 C34 1_555 1_555
H18 C34 1_555 1_555
H19 C34 1_555 1_555
C35 C33 1_555 1_555
H20 C35 1_555 1_555
H21 C35 1_555 1_555
H22 C35 1_555 1_555
C36 C33 1_555 1_555
H23 C36 1_555 1_555
H24 C36 1_555 1_555
H25 C36 1_555 1_555
C37 C15 1_555 1_555
C38 C37 1_555 1_555
H26 C38 1_555 1_555
C39 C38 1_555 1_555
H27 C39 1_555 1_555
C40 C39 1_555 1_555
H28 C40 1_555 1_555
C41 C40 1_555 1_555
H29 C41 1_555 1_555
C42 C37 1_555 1_555
H30 C42 1_555 1_555
C43 C19 1_555 1_555
C44 C43 1_555 1_555
H31 C44 1_555 1_555
C45 C44 1_555 1_555
H32 C45 1_555 1_555
C46 C45 1_555 1_555
H33 C46 1_555 1_555
C47 C46 1_555 1_555
H34 C47 1_555 1_555
C48 C43 1_555 1_555
H35 C48 1_555 1_555
C49 C29 1_555 1_555
C50 C49 1_555 1_555
H36 C50 1_555 1_555
H37 C50 1_555 1_555
H38 C50 1_555 1_555
C51 C49 1_555 1_555
H39 C51 1_555 1_555
H40 C51 1_555 1_555
H41 C51 1_555 1_555
C52 C49 1_555 1_555
H42 C52 1_555 1_555
H43 C52 1_555 1_555
H44 C52 1_555 1_555
C12 C13 1_555 1_555
C13 C14 1_555 1_555
C15 C16 1_555 1_555
C16 C17 1_555 1_555
C25 C26 1_555 1_555
C27 C28 1_555 1_555
C29 C30 1_555 1_555
C31 C32 1_555 1_555
C41 C42 1_555 1_555
C47 C48 1_555 1_555

#END
