
#######################################################################
#
#                 Cambridge Crystallographic Data Centre
#                                CCDC 
#
#######################################################################
#
# If this CIF has been generated from an entry in the Cambridge 
# Structural Database, then it will include bibliographic, chemical, 
# crystal, experimental, refinement or atomic coordinate data resulting 
# from the CCDC's data processing and validation procedures.
#
#######################################################################

data_PIBXUU
_chemical_formula_moiety         'C32 H30 O3'
_chemical_name_systematic        
6-Methoxy-4,4,4'-triphenyl-4H-spiro(1,3-benzodioxine-2,1'-cyclohexane)
_symmetry_cell_setting           triclinic
_symmetry_space_group_name_H-M   'P -1'
_symmetry_Int_Tables_number      2
_space_group_name_Hall           '-P 1'
loop_
_symmetry_equiv_pos_site_id
_symmetry_equiv_pos_as_xyz
1 x,y,z
2 -x,-y,-z
_cell_length_a                   10.355(2)
_cell_length_b                   13.627(3)
_cell_length_c                   18.942(4)
_cell_angle_alpha                90.28(3)
_cell_angle_beta                 92.84(3)
_cell_angle_gamma                110.76(3)
_cell_volume                     2495.53
_cell_formula_units_Z            4
loop_
_atom_site_label
_atom_site_type_symbol
_atom_site_fract_x
_atom_site_fract_y
_atom_site_fract_z
C1 C 0.4493(4) 0.2798(3) 0.08247(19)
C2 C 0.4950(4) 0.2841(3) 0.20690(19)
C3 C 0.5080(4) 0.2305(3) 0.2673(2)
H1 H 0.5139 0.1643 0.2629
C4 C 0.5126(4) 0.2739(3) 0.3337(2)
H2 H 0.5213 0.2373 0.3739
C5 C 0.5041(4) 0.3721(3) 0.33960(19)
C6 C 0.4949(4) 0.4265(3) 0.27999(19)
H3 H 0.4923 0.4937 0.2849
C7 C 0.4894(3) 0.3842(3) 0.21223(19)
C8 C 0.4818(4) 0.4449(3) 0.14593(18)
C9 C 0.2914(4) 0.2375(3) 0.0771(2)
H4 H 0.2574 0.2526 0.1211
H5 H 0.2594 0.2732 0.0397
C10 C 0.2324(4) 0.1194(3) 0.0617(2)
H6 H 0.2551 0.0831 0.1016
H7 H 0.1324 0.0965 0.0557
C11 C 0.2894(4) 0.0904(3) -0.0046(2)
H8 H 0.2676 0.1308 -0.0430
C12 C 0.4481(4) 0.1286(3) 0.0048(2)
H9 H 0.4748 0.0927 0.0439
H10 H 0.4855 0.1120 -0.0377
C13 C 0.5067(4) 0.2454(3) 0.0193(2)
H11 H 0.6063 0.2673 0.0268
H12 H 0.4874 0.2808 -0.0221
C14 C 0.2299(4) -0.0237(4) -0.0284(3)
C15 C 0.1418(6) -0.1005(4) 0.0088(3)
H13 H 0.1155 -0.0835 0.0521
C16 C 0.0888(8) -0.2051(5) -0.0156(5)
H14 H 0.0291 -0.2564 0.0116
C17 C 0.1231(8) -0.2304(6) -0.0762(5)
H15 H 0.0860 -0.2999 -0.0921
C18 C 0.2131(8) -0.1569(6) -0.1176(4)
H16 H 0.2390 -0.1759 -0.1605
C19 C 0.2633(6) -0.0533(4) -0.0926(3)
H17 H 0.3217 -0.0020 -0.1204
C20 C 0.3434(4) 0.4626(3) 0.13065(19)
C21 C 0.3197(4) 0.4965(3) 0.0647(2)
H18 H 0.3825 0.5019 0.0302
C22 C 0.2040(4) 0.5228(3) 0.0487(2)
H19 H 0.1891 0.5455 0.0038
C23 C 0.1115(4) 0.5149(4) 0.1002(2)
H20 H 0.0332 0.5318 0.0899
C24 C 0.1339(4) 0.4827(3) 0.1661(2)
H21 H 0.0720 0.4787 0.2009
C25 C 0.2500(4) 0.4555(3) 0.1813(2)
H22 H 0.2643 0.4324 0.2262
C26 C 0.6009(4) 0.5511(3) 0.14914(17)
C27 C 0.5814(4) 0.6436(3) 0.16666(19)
H23 H 0.4932 0.6415 0.1762
C28 C 0.6893(4) 0.7381(3) 0.1703(2)
H24 H 0.6738 0.7988 0.1833
C29 C 0.8201(5) 0.7439(4) 0.1548(2)
H25 H 0.8927 0.8082 0.1555
C30 C 0.8415(5) 0.6522(4) 0.1383(2)
H26 H 0.9297 0.6548 0.1285
C31 C 0.7341(4) 0.5572(3) 0.1362(2)
H27 H 0.7511 0.4962 0.1260
C32 C 0.5225(5) 0.3731(4) 0.4659(2)
H28 H 0.4513 0.3050 0.4671
H29 H 0.5171 0.4149 0.5058
H30 H 0.6114 0.3656 0.4676
O1 O 0.4961(3) 0.2364(2) 0.14310(13)
O2 O 0.5091(2) 0.39035(19) 0.08626(12)
O3 O 0.5047(3) 0.4227(2) 0.40282(13)
C33 C 0.1740(4) 0.2203(3) 0.58939(18)
C34 C 0.3916(4) 0.2294(3) 0.64110(18)
C35 C 0.5211(4) 0.2899(3) 0.6705(2)
H31 H 0.5545 0.3620 0.6640
C36 C 0.6010(4) 0.2448(4) 0.7091(2)
H32 H 0.6873 0.2863 0.7288
C37 C 0.5525(4) 0.1384(4) 0.7183(2)
C38 C 0.4258(4) 0.0773(3) 0.68700(18)
H33 H 0.3946 0.0049 0.6922
C39 C 0.3440(3) 0.1214(3) 0.64786(17)
C40 C 0.2099(3) 0.0532(3) 0.60814(18)
C41 C 0.1227(4) 0.2728(3) 0.52985(19)
H34 H 0.0311 0.2268 0.5129
H35 H 0.1834 0.2826 0.4910
C42 C 0.1163(4) 0.3783(3) 0.5516(2)
H36 H 0.0771 0.4060 0.5124
H37 H 0.2092 0.4273 0.5631
C43 C 0.0283(4) 0.3680(3) 0.61562(19)
H38 H -0.0637 0.3166 0.6026
C44 C 0.0897(4) 0.3223(3) 0.67554(18)
H39 H 0.0343 0.3147 0.7164
H40 H 0.1824 0.3704 0.6887
C45 C 0.0956(4) 0.2164(3) 0.65503(18)
H41 H 0.1396 0.1916 0.6939
H42 H 0.0021 0.1665 0.6470
C46 C 0.0093(4) 0.4697(3) 0.6351(2)
C47 C -0.1174(4) 0.4820(3) 0.6206(2)
H43 H -0.1906 0.4271 0.5990
C48 C -0.1354(5) 0.5749(4) 0.6378(2)
H44 H -0.2202 0.5821 0.6273
C49 C -0.0306(6) 0.6554(4) 0.6699(3)
H45 H -0.0434 0.7176 0.6815
C50 C 0.0957(5) 0.6443(3) 0.6854(3)
H46 H 0.1683 0.6991 0.7075
C51 C 0.1131(4) 0.5516(3) 0.6678(2)
H47 H 0.1980 0.5447 0.6786
C52 C 0.0917(3) -0.0080(3) 0.65419(19)
C53 C -0.0382(4) -0.0562(3) 0.6214(2)
H48 H -0.0497 -0.0525 0.5726
C54 C -0.1511(4) -0.1097(3) 0.6596(2)
H49 H -0.2378 -0.1414 0.6367
C55 C -0.1345(4) -0.1156(3) 0.7313(2)
H50 H -0.2106 -0.1510 0.7572
C56 C -0.0066(4) -0.0697(3) 0.7655(2)
H51 H 0.0043 -0.0749 0.8142
C57 C 0.1064(4) -0.0154(3) 0.72662(19)
H52 H 0.1929 0.0162 0.7497
C58 C 0.2452(3) -0.0202(3) 0.55731(18)
C59 C 0.3059(4) 0.0168(3) 0.4945(2)
H53 H 0.3228 0.0861 0.4825
C60 C 0.3413(4) -0.0484(4) 0.4498(2)
H54 H 0.3803 -0.0228 0.4074
C61 C 0.3203(4) -0.1500(4) 0.4667(2)
H55 H 0.3464 -0.1929 0.4366
C62 C 0.2601(4) -0.1879(3) 0.5287(2)
H56 H 0.2442 -0.2573 0.5403
C63 C 0.2230(4) -0.1238(3) 0.5740(2)
H57 H 0.1828 -0.1503 0.6159
C64 C 0.7555(6) 0.1377(5) 0.7838(4)
H58 H 0.8176 0.1604 0.7463
H59 H 0.7850 0.0926 0.8142
H60 H 0.7556 0.1977 0.8106
O4 O 0.3187(2) 0.28126(19) 0.60350(13)
O5 O 0.1630(2) 0.12012(18) 0.56175(12)
O6 O 0.6219(3) 0.0828(3) 0.75527(17)
loop_
_geom_bond_atom_site_label_1
_geom_bond_atom_site_label_2
_geom_bond_site_symmetry_1
_geom_bond_site_symmetry_2
C1 C9 1_555 1_555
C2 C3 1_555 1_555
C3 H1 1_555 1_555
C4 C3 1_555 1_555
H2 C4 1_555 1_555
C5 C4 1_555 1_555
C6 C5 1_555 1_555
H3 C6 1_555 1_555
C7 C2 1_555 1_555
C8 C7 1_555 1_555
C9 H4 1_555 1_555
H5 C9 1_555 1_555
C10 C9 1_555 1_555
H6 C10 1_555 1_555
H7 C10 1_555 1_555
C11 C10 1_555 1_555
H8 C11 1_555 1_555
C12 C11 1_555 1_555
H9 C12 1_555 1_555
H10 C12 1_555 1_555
C13 C1 1_555 1_555
H11 C13 1_555 1_555
H12 C13 1_555 1_555
C14 C11 1_555 1_555
C15 C14 1_555 1_555
H13 C15 1_555 1_555
C16 C15 1_555 1_555
H14 C16 1_555 1_555
C17 C16 1_555 1_555
H15 C17 1_555 1_555
C18 C17 1_555 1_555
H16 C18 1_555 1_555
C19 C14 1_555 1_555
H17 C19 1_555 1_555
C20 C8 1_555 1_555
C21 C20 1_555 1_555
H18 C21 1_555 1_555
C22 C21 1_555 1_555
H19 C22 1_555 1_555
C23 C22 1_555 1_555
H20 C23 1_555 1_555
C24 C23 1_555 1_555
H21 C24 1_555 1_555
C25 C20 1_555 1_555
H22 C25 1_555 1_555
C26 C8 1_555 1_555
C27 C26 1_555 1_555
H23 C27 1_555 1_555
C28 C27 1_555 1_555
H24 C28 1_555 1_555
C29 C28 1_555 1_555
H25 C29 1_555 1_555
C30 C29 1_555 1_555
H26 C30 1_555 1_555
C31 C26 1_555 1_555
H27 C31 1_555 1_555
C32 H28 1_555 1_555
H29 C32 1_555 1_555
H30 C32 1_555 1_555
C33 C41 1_555 1_555
C34 C35 1_555 1_555
C35 H31 1_555 1_555
C36 C35 1_555 1_555
H32 C36 1_555 1_555
C37 C36 1_555 1_555
C38 C37 1_555 1_555
H33 C38 1_555 1_555
C39 C34 1_555 1_555
C40 C39 1_555 1_555
C41 H34 1_555 1_555
H35 C41 1_555 1_555
C42 C41 1_555 1_555
H36 C42 1_555 1_555
H37 C42 1_555 1_555
C43 C42 1_555 1_555
H38 C43 1_555 1_555
C44 C43 1_555 1_555
H39 C44 1_555 1_555
H40 C44 1_555 1_555
C45 C33 1_555 1_555
H41 C45 1_555 1_555
H42 C45 1_555 1_555
C46 C43 1_555 1_555
C47 C46 1_555 1_555
H43 C47 1_555 1_555
C48 C47 1_555 1_555
H44 C48 1_555 1_555
C49 C48 1_555 1_555
H45 C49 1_555 1_555
C50 C49 1_555 1_555
H46 C50 1_555 1_555
C51 C46 1_555 1_555
H47 C51 1_555 1_555
C52 C40 1_555 1_555
C53 C52 1_555 1_555
H48 C53 1_555 1_555
C54 C53 1_555 1_555
H49 C54 1_555 1_555
C55 C54 1_555 1_555
H50 C55 1_555 1_555
C56 C55 1_555 1_555
H51 C56 1_555 1_555
C57 C52 1_555 1_555
H52 C57 1_555 1_555
C58 C40 1_555 1_555
C59 C58 1_555 1_555
H53 C59 1_555 1_555
C60 C59 1_555 1_555
H54 C60 1_555 1_555
C61 C60 1_555 1_555
H55 C61 1_555 1_555
C62 C61 1_555 1_555
H56 C62 1_555 1_555
C63 C58 1_555 1_555
H57 C63 1_555 1_555
C64 H58 1_555 1_555
H59 C64 1_555 1_555
H60 C64 1_555 1_555
O1 C1 1_555 1_555
O2 C1 1_555 1_555
O3 C5 1_555 1_555
O4 C33 1_555 1_555
O5 C33 1_555 1_555
O6 C37 1_555 1_555
C2 O1 1_555 1_555
C6 C7 1_555 1_555
C8 O2 1_555 1_555
C12 C13 1_555 1_555
C18 C19 1_555 1_555
C24 C25 1_555 1_555
C30 C31 1_555 1_555
C32 O3 1_555 1_555
C34 O4 1_555 1_555
C38 C39 1_555 1_555
C40 O5 1_555 1_555
C44 C45 1_555 1_555
C50 C51 1_555 1_555
C56 C57 1_555 1_555
C62 C63 1_555 1_555
C64 O6 1_555 1_555

#END
