
#######################################################################
#
#                 Cambridge Crystallographic Data Centre
#                                CCDC 
#
#######################################################################
#
# If this CIF has been generated from an entry in the Cambridge 
# Structural Database, then it will include bibliographic, chemical, 
# crystal, experimental, refinement or atomic coordinate data resulting 
# from the CCDC's data processing and validation procedures.
#
#######################################################################

data_PIBYEG
_chemical_formula_moiety         'C14 H23 N3 O2'
_chemical_name_systematic        
N-(2-(Diethylamino)ethyl)-5-formyl-2,4-dimethyl-1H-pyrrole-3-carboxamide
_symmetry_cell_setting           triclinic
_symmetry_space_group_name_H-M   'P -1'
_symmetry_Int_Tables_number      2
_space_group_name_Hall           '-P 1'
loop_
_symmetry_equiv_pos_site_id
_symmetry_equiv_pos_as_xyz
1 x,y,z
2 -x,-y,-z
_cell_length_a                   10.0256(3)
_cell_length_b                   14.2161(3)
_cell_length_c                   21.7536(7)
_cell_angle_alpha                72.030(2)
_cell_angle_beta                 86.223(2)
_cell_angle_gamma                87.753(2)
_cell_volume                     2942.2
_exptl_crystal_colour            colorless
_exptl_crystal_description       plate
_cell_formula_units_Z            8
loop_
_atom_site_label
_atom_site_type_symbol
_atom_site_fract_x
_atom_site_fract_y
_atom_site_fract_z
C1 C 0.3888(2) 0.60205(14) 0.39615(9)
C2 C 0.44220(19) 0.68175(14) 0.34704(9)
C3 C 0.36503(19) 0.76626(14) 0.34975(9)
C4 C 0.26807(19) 0.73559(14) 0.40119(9)
C5 C 0.1649(2) 0.79255(14) 0.42856(9)
H1 H 0.0861 0.8018 0.4044
H2 H 0.1994 0.8559 0.4258
H3 H 0.1429 0.7566 0.4730
C6 C 0.5577(2) 0.67833(15) 0.30013(10)
H4 H 0.6313 0.7136 0.3079
H5 H 0.5312 0.7085 0.2567
H6 H 0.5846 0.6107 0.3058
C7 C 0.4277(2) 0.49968(14) 0.41475(10)
H7 H 0.4991 0.4809 0.3913
C8 C 0.38856(19) 0.86791(14) 0.30667(9)
C9 C 0.2928(2) 1.02900(14) 0.24842(10)
H8 H 0.3804 1.0530 0.2519
H9 H 0.2264 1.0704 0.2627
C10 C 0.2739(2) 1.03789(15) 0.17818(10)
H10 H 0.3398 0.9961 0.1639
H11 H 0.1859 1.0148 0.1745
C11 C 0.3069(3) 1.1433(2) 0.06674(14)
H12 H 0.2928 1.2106 0.0392
H13 H 0.2408 1.1023 0.0575
C12 C 0.4458(4) 1.1074(2) 0.05115(15)
H14 H 0.5114 1.1412 0.0662
H15 H 0.4596 1.1208 0.0052
H16 H 0.4542 1.0375 0.0722
C13 C 0.1705(3) 1.20172(16) 0.14198(11)
H17 H 0.1221 1.1713 0.1830
H18 H 0.1119 1.2041 0.1078
C14 C 0.2043(3) 1.30601(18) 0.13802(13)
H19 H 0.2574 1.3046 0.1734
H20 H 0.1233 1.3434 0.1402
H21 H 0.2537 1.3363 0.0979
N1 N 0.28429(17) 0.63708(12) 0.42808(8)
H22 H 0.235(2) 0.6034(17) 0.4607(11)
N2 N 0.28100(18) 0.92769(12) 0.29057(8)
H23 H 0.207(3) 0.9010(17) 0.2988(11)
N3 N 0.2877(2) 1.14016(13) 0.13627(9)
O1 O 0.37332(16) 0.43460(10) 0.45953(7)
O2 O 0.50322(14) 0.89680(10) 0.28679(7)
C17 C -0.1127(2) 0.61267(14) 0.39086(9)
C18 C -0.06098(19) 0.69266(14) 0.34134(9)
C19 C -0.13432(19) 0.77741(14) 0.34653(9)
C20 C -0.22729(19) 0.74657(14) 0.39940(9)
C21 C -0.3294(2) 0.80300(14) 0.42788(10)
H29 H -0.4105 0.8098 0.4056
H30 H -0.2963 0.8674 0.4234
H31 H -0.3470 0.7681 0.4729
C22 C 0.0479(2) 0.68908(15) 0.29143(10)
H32 H 0.1275 0.7168 0.3003
H33 H 0.0202 0.7265 0.2493
H34 H 0.0656 0.6216 0.2928
C23 C -0.0758(2) 0.50956(15) 0.40824(10)
H35 H -0.0078 0.4906 0.3831
C24 C -0.1105(2) 0.87946(14) 0.30346(9)
C25 C -0.2123(2) 1.03376(15) 0.23745(11)
H36 H -0.1194 1.0520 0.2268
H37 H -0.2571 1.0834 0.2541
C26 C -0.2764(2) 1.03259(17) 0.17696(12)
H38 H -0.3701 1.0167 0.1871
H39 H -0.2712 1.0978 0.1453
C27 C -0.0945(3) 0.9989(2) 0.10818(14)
H40 H -0.0448 0.9433 0.1005
H41 H -0.0382 1.0283 0.1316
C28 C -0.1168(5) 1.0751(3) 0.04259(16)
H42 H -0.1644 1.0454 0.0167
H43 H -0.0320 1.0975 0.0210
H44 H -0.1680 1.1302 0.0488
C29 C -0.3134(5) 0.9030(3) 0.1325(2)
H45 H -0.3495 0.9415 0.0918
H46 H -0.3861 0.8896 0.1655
C30 C -0.2550(9) 0.8054(5) 0.1261(4)
H47 H -0.1907 0.8186 0.0899
H48 H -0.3254 0.7664 0.1194
H49 H -0.2120 0.7699 0.1649
N4 N -0.21231(17) 0.64767(12) 0.42535(8)
H50 H -0.258(2) 0.6139(17) 0.4595(11)
N5 N -0.21888(18) 0.93806(13) 0.28735(9)
H51 H -0.293(3) 0.9090(18) 0.2953(12)
N6 N -0.2109(3) 0.96082(16) 0.14982(12)
O3 O -0.12722(16) 0.44454(10) 0.45381(7)
O4 O 0.00402(13) 0.90887(10) 0.28444(7)
C33 C 0.71332(19) 0.23019(14) 0.41005(9)
C34 C 0.79162(19) 0.27309(14) 0.35291(9)
C35 C 0.88386(19) 0.19962(14) 0.34376(9)
C36 C 0.8594(2) 0.11447(14) 0.39566(9)
C37 C 0.6046(2) 0.27334(15) 0.44344(9)
H57 H 0.5264 0.2851 0.4187
H58 H 0.6332 0.3347 0.4475
H59 H 0.5839 0.2281 0.4857
C38 C 0.9857(2) 0.20876(15) 0.28876(10)
H60 H 1.0622 0.2425 0.2952
H61 H 0.9476 0.2457 0.2489
H62 H 1.0125 0.1440 0.2870
C39 C 0.9248(2) 0.01966(14) 0.41157(10)
H63 H 0.9941 0.0103 0.3833
C40 C 0.7689(2) 0.37527(14) 0.31082(9)
C41 C 0.8569(2) 0.52132(14) 0.22909(10)
H64 H 0.9436 0.5515 0.2162
H65 H 0.8030 0.5625 0.2497
C42 C 0.7897(2) 0.51739(15) 0.16891(10)
H66 H 0.7094 0.4787 0.1822
H67 H 0.7634 0.5839 0.1440
C43 C 0.8031(2) 0.42713(17) 0.08958(11)
H68 H 0.8620 0.4182 0.0545
H69 H 0.7297 0.4706 0.0706
C44 C 0.7484(3) 0.32815(19) 0.12950(13)
H70 H 0.8208 0.2846 0.1481
H71 H 0.7020 0.3001 0.1024
H72 H 0.6878 0.3368 0.1634
C45 C 0.9754(2) 0.54417(16) 0.08806(10)
H73 H 1.0386 0.5081 0.0676
H74 H 1.0247 0.5688 0.1166
C46 C 0.9218(3) 0.63357(18) 0.03499(11)
H75 H 0.8766 0.6109 0.0048
H76 H 0.9948 0.6744 0.0128
H77 H 0.8603 0.6712 0.0543
N7 N 0.75590(17) 0.13586(12) 0.43466(8)
H78 H 0.722(2) 0.0969(17) 0.4705(11)
N8 N 0.87422(18) 0.42372(12) 0.27534(8)
H79 H 0.953(3) 0.3999(17) 0.2821(11)
N9 N 0.87710(17) 0.47412(12) 0.12791(8)
O5 O 0.89636(14) -0.05062(10) 0.45983(7)
O6 O 0.65593(13) 0.41507(10) 0.30752(7)
C47 C 0.21747(19) 0.23975(14) 0.40004(9)
C48 C 0.29576(19) 0.28206(14) 0.34284(9)
C49 C 0.38876(19) 0.20885(14) 0.33413(9)
C50 C 0.3635(2) 0.12373(14) 0.38610(9)
C51 C 0.1102(2) 0.28403(14) 0.43370(10)
H80 H 0.0323 0.2978 0.4087
H81 H 0.1410 0.3444 0.4385
H82 H 0.0880 0.2385 0.4756
C52 C 0.4931(2) 0.21804(15) 0.28006(10)
H83 H 0.5636 0.2592 0.2842
H84 H 0.4536 0.2472 0.2393
H85 H 0.5291 0.1536 0.2821
C53 C 0.4265(2) 0.02816(15) 0.40187(10)
H86 H 0.4968 0.0185 0.3742
C54 C 0.27451(19) 0.38516(14) 0.30054(9)
C55 C 0.3821(2) 0.53471(14) 0.22855(10)
H87 H 0.4704 0.5622 0.2246
H88 H 0.3212 0.5732 0.2483
C56 C 0.3379(2) 0.54402(14) 0.16135(10)
H89 H 0.3938 0.5014 0.1427
H90 H 0.2463 0.5229 0.1645
C57 C 0.2380(2) 0.70978(16) 0.13376(11)
H91 H 0.2024 0.6802 0.1778
H92 H 0.1668 0.7129 0.1050
C58 C 0.2818(3) 0.81324(19) 0.12589(16)
H93 H 0.3480 0.8110 0.1563
H94 H 0.2061 0.8523 0.1337
H95 H 0.3192 0.8423 0.0827
C59 C 0.3570(2) 0.65437(17) 0.05052(10)
H96 H 0.3413 0.7227 0.0252
H97 H 0.2875 0.6151 0.0422
C60 C 0.4903(3) 0.6199(2) 0.02889(12)
H98 H 0.4909 0.6264 -0.0164
H99 H 0.5056 0.5519 0.0531
H100 H 0.5595 0.6595 0.0361
N10 N 0.25950(17) 0.14543(12) 0.42486(8)
H101 H 0.222(2) 0.1053(17) 0.4604(11)
N11 N 0.38571(18) 0.43276(12) 0.27054(8)
H102 H 0.465(3) 0.4092(17) 0.2819(11)
N12 N 0.34807(18) 0.64672(12) 0.11944(8)
O7 O 0.39510(15) -0.04248(10) 0.44922(7)
O8 O 0.16191(13) 0.42428(10) 0.29310(7)
C15? C 0.4013(15) 1.1660(11) 0.0868(7)
H24? H 0.4849 1.1361 0.1043
H25? H 0.4110 1.2370 0.0687
C16? C 0.355(2) 1.1213(13) 0.0386(9)
H26? H 0.3667 1.0508 0.0544
H27? H 0.4067 1.1467 -0.0016
H28? H 0.2623 1.1378 0.0318
C31? C -0.2422(13) 0.9118(7) 0.0973(6)
H52? H -0.2975 0.9547 0.0647
H53? H -0.1611 0.8934 0.0766
C32? C -0.3140(18) 0.8258(9) 0.1371(8)
H54? H -0.2537 0.7814 0.1653
H55? H -0.3510 0.7930 0.1098
H56? H -0.3848 0.8461 0.1624
loop_
_geom_bond_atom_site_label_1
_geom_bond_atom_site_label_2
_geom_bond_site_symmetry_1
_geom_bond_site_symmetry_2
C1 C2 1_555 1_555
C2 C3 1_555 1_555
C3 C4 1_555 1_555
C4 C5 1_555 1_555
C5 H1 1_555 1_555
H2 C5 1_555 1_555
H3 C5 1_555 1_555
C6 C2 1_555 1_555
H4 C6 1_555 1_555
H5 C6 1_555 1_555
H6 C6 1_555 1_555
C7 C1 1_555 1_555
H7 C7 1_555 1_555
C8 C3 1_555 1_555
C9 H8 1_555 1_555
H9 C9 1_555 1_555
C10 C9 1_555 1_555
H10 C10 1_555 1_555
H11 C10 1_555 1_555
C11 H12 1_555 1_555
H13 C11 1_555 1_555
C12 C11 1_555 1_555
H14 C12 1_555 1_555
H15 C12 1_555 1_555
H16 C12 1_555 1_555
C13 H17 1_555 1_555
H18 C13 1_555 1_555
C14 C13 1_555 1_555
H19 C14 1_555 1_555
H20 C14 1_555 1_555
H21 C14 1_555 1_555
N1 C1 1_555 1_555
H22 N1 1_555 1_555
N2 C8 1_555 1_555
H23 N2 1_555 1_555
N3 C10 1_555 1_555
O1 C7 1_555 1_555
O2 C8 1_555 1_555
C17 C18 1_555 1_555
C18 C19 1_555 1_555
C19 C20 1_555 1_555
C20 C21 1_555 1_555
C21 H29 1_555 1_555
H30 C21 1_555 1_555
H31 C21 1_555 1_555
C22 C18 1_555 1_555
H32 C22 1_555 1_555
H33 C22 1_555 1_555
H34 C22 1_555 1_555
C23 C17 1_555 1_555
H35 C23 1_555 1_555
C24 C19 1_555 1_555
C25 H36 1_555 1_555
H37 C25 1_555 1_555
C26 C25 1_555 1_555
H38 C26 1_555 1_555
H39 C26 1_555 1_555
C27 H40 1_555 1_555
H41 C27 1_555 1_555
C28 C27 1_555 1_555
H42 C28 1_555 1_555
H43 C28 1_555 1_555
H44 C28 1_555 1_555
C29 H45 1_555 1_555
H46 C29 1_555 1_555
C30 C29 1_555 1_555
H47 C30 1_555 1_555
H48 C30 1_555 1_555
H49 C30 1_555 1_555
N4 C17 1_555 1_555
H50 N4 1_555 1_555
N5 C24 1_555 1_555
H51 N5 1_555 1_555
N6 C26 1_555 1_555
O3 C23 1_555 1_555
O4 C24 1_555 1_555
C33 C34 1_555 1_555
C34 C35 1_555 1_555
C35 C36 1_555 1_555
C36 C39 1_555 1_555
C37 C33 1_555 1_555
H57 C37 1_555 1_555
H58 C37 1_555 1_555
H59 C37 1_555 1_555
C38 C35 1_555 1_555
H60 C38 1_555 1_555
H61 C38 1_555 1_555
H62 C38 1_555 1_555
C39 H63 1_555 1_555
C40 C34 1_555 1_555
C41 H64 1_555 1_555
H65 C41 1_555 1_555
C42 C41 1_555 1_555
H66 C42 1_555 1_555
H67 C42 1_555 1_555
C43 H68 1_555 1_555
H69 C43 1_555 1_555
C44 C43 1_555 1_555
H70 C44 1_555 1_555
H71 C44 1_555 1_555
H72 C44 1_555 1_555
C45 H73 1_555 1_555
H74 C45 1_555 1_555
C46 C45 1_555 1_555
H75 C46 1_555 1_555
H76 C46 1_555 1_555
H77 C46 1_555 1_555
N7 C33 1_555 1_555
H78 N7 1_555 1_555
N8 C40 1_555 1_555
H79 N8 1_555 1_555
N9 C42 1_555 1_555
O5 C39 1_555 1_555
O6 C40 1_555 1_555
C47 C48 1_555 1_555
C48 C49 1_555 1_555
C49 C50 1_555 1_555
C50 C53 1_555 1_555
C51 C47 1_555 1_555
H80 C51 1_555 1_555
H81 C51 1_555 1_555
H82 C51 1_555 1_555
C52 C49 1_555 1_555
H83 C52 1_555 1_555
H84 C52 1_555 1_555
H85 C52 1_555 1_555
C53 H86 1_555 1_555
C54 C48 1_555 1_555
C55 H87 1_555 1_555
H88 C55 1_555 1_555
C56 C55 1_555 1_555
H89 C56 1_555 1_555
H90 C56 1_555 1_555
C57 H91 1_555 1_555
H92 C57 1_555 1_555
C58 C57 1_555 1_555
H93 C58 1_555 1_555
H94 C58 1_555 1_555
H95 C58 1_555 1_555
C59 H96 1_555 1_555
H97 C59 1_555 1_555
C60 C59 1_555 1_555
H98 C60 1_555 1_555
H99 C60 1_555 1_555
H100 C60 1_555 1_555
N10 C47 1_555 1_555
H101 N10 1_555 1_555
N11 C54 1_555 1_555
H102 N11 1_555 1_555
N12 C56 1_555 1_555
O7 C53 1_555 1_555
O8 C54 1_555 1_555
C4 N1 1_555 1_555
C9 N2 1_555 1_555
C11 N3 1_555 1_555
C13 N3 1_555 1_555
C20 N4 1_555 1_555
C25 N5 1_555 1_555
C27 N6 1_555 1_555
C29 N6 1_555 1_555
C36 N7 1_555 1_555
C41 N8 1_555 1_555
C43 N9 1_555 1_555
C45 N9 1_555 1_555
C50 N10 1_555 1_555
C55 N11 1_555 1_555
C57 N12 1_555 1_555
C59 N12 1_555 1_555

#END
