
#######################################################################
#
#                 Cambridge Crystallographic Data Centre
#                                CCDC 
#
#######################################################################
#
# If this CIF has been generated from an entry in the Cambridge 
# Structural Database, then it will include bibliographic, chemical, 
# crystal, experimental, refinement or atomic coordinate data resulting 
# from the CCDC's data processing and validation procedures.
#
#######################################################################

data_PICAMC01
_chemical_formula_moiety         'C6 H10 N2 2+,2(Cl1 1-)'
_chemical_name_systematic        '3-(ammoniomethyl)pyridinium dichloride'
_symmetry_cell_setting           monoclinic
_symmetry_space_group_name_H-M   'P 21/c'
_symmetry_Int_Tables_number      14
_space_group_name_Hall           '-P 2ybc'
loop_
_symmetry_equiv_pos_site_id
_symmetry_equiv_pos_as_xyz
1 x,y,z
2 -x,1/2+y,1/2-z
3 -x,-y,-z
4 x,1/2-y,1/2+z
_cell_length_a                   4.5874(9)
_cell_length_b                   12.650(3)
_cell_length_c                   14.814(3)
_cell_angle_alpha                90
_cell_angle_beta                 93.61(3)
_cell_angle_gamma                90
_cell_volume                     857.96
_exptl_crystal_colour            colorless
_exptl_crystal_description       prism
_cell_formula_units_Z            4
_exptl_crystal_recrystallization_method water
loop_
_atom_site_label
_atom_site_type_symbol
_atom_site_fract_x
_atom_site_fract_y
_atom_site_fract_z
Cl1 Cl 0.34023(9) 0.98847(3) 0.37672(3)
N1 N 0.9075(3) 0.64924(10) -0.01920(10)
H1 H 0.7885 0.6098 0.0120
H2 H 0.9905 0.6091 -0.0598
H3 H 0.8058 0.7007 -0.0474
C1 C 1.1364(4) 0.69588(14) 0.04332(13)
H4 H 1.2888 0.7253 0.0084
H5 H 1.2231 0.6405 0.0815
C2 C 1.1087(4) 0.88417(13) 0.08977(12)
H6 H 1.2349 0.9000 0.0449
C3 C 0.8274(4) 0.94441(14) 0.20641(12)
H7 H 0.7619 1.0005 0.2403
C4 C 1.0214(3) 0.78119(13) 0.10227(11)
C5 C 0.7351(4) 0.84350(14) 0.22213(12)
H8 H 0.6060 0.8304 0.2668
C6 C 0.8357(4) 0.76140(14) 0.17102(12)
H9 H 0.7788 0.6924 0.1826
N2 N 1.0124(3) 0.96146(11) 0.14194(10)
H10 H 1.0724 1.0249 0.1336
Cl2 Cl 0.40819(11) 0.14752(3) 0.10233(3)
loop_
_geom_bond_atom_site_label_1
_geom_bond_atom_site_label_2
_geom_bond_site_symmetry_1
_geom_bond_site_symmetry_2
N1 H1 1_555 1_555
H2 N1 1_555 1_555
H3 N1 1_555 1_555
C1 N1 1_555 1_555
H4 C1 1_555 1_555
H5 C1 1_555 1_555
C2 H6 1_555 1_555
C3 H7 1_555 1_555
C4 C1 1_555 1_555
C5 C3 1_555 1_555
H8 C5 1_555 1_555
C6 C4 1_555 1_555
H9 C6 1_555 1_555
N2 C2 1_555 1_555
H10 N2 1_555 1_555
C2 C4 1_555 1_555
C3 N2 1_555 1_555
C5 C6 1_555 1_555

#END
