
#######################################################################
#
#                 Cambridge Crystallographic Data Centre
#                                CCDC 
#
#######################################################################
#
# If this CIF has been generated from an entry in the Cambridge 
# Structural Database, then it will include bibliographic, chemical, 
# crystal, experimental, refinement or atomic coordinate data resulting 
# from the CCDC's data processing and validation procedures.
#
#######################################################################

data_PICBEL
_chemical_formula_moiety         'C40 H12 F14 N2 O4 S4,0.5(C1 H1 Cl3)'
_chemical_name_systematic        
"2,11-bis(2,2,3,3,4,4,4-heptafluorobutyl)bisthieno[3',2':3,4;3'',2'':7,8]thieno[2'',3'':7',8']isoquinolino[4',5',6':6,5,10]anthra[2,1,9-def]thieno[2,3-h]isoquinoline-1,3,10,12(2H,11H)-tetrone chloroform solvate"
_symmetry_cell_setting           monoclinic
_symmetry_space_group_name_H-M   'P 2/c'
_symmetry_Int_Tables_number      13
_space_group_name_Hall           '-P 2yc'
loop_
_symmetry_equiv_pos_site_id
_symmetry_equiv_pos_as_xyz
1 x,y,z
2 -x,y,1/2-z
3 -x,-y,-z
4 x,-y,1/2+z
_cell_length_a                   12.8154(3)
_cell_length_b                   18.2471(5)
_cell_length_c                   35.4060(8)
_cell_angle_alpha                90
_cell_angle_beta                 97.843(2)
_cell_angle_gamma                90
_cell_volume                     8202.03
_exptl_crystal_colour            black
_exptl_crystal_description       plate
_cell_formula_units_Z            8
loop_
_atom_site_label
_atom_site_type_symbol
_atom_site_fract_x
_atom_site_fract_y
_atom_site_fract_z
S1 S 0.77657(8) 0.68420(7) 0.71584(3)
S2 S 0.74364(8) 0.61659(7) 0.63428(3)
S3 S 0.25882(7) 0.48707(7) 0.73853(3)
S4 S 0.16687(8) 0.57709(7) 0.66768(3)
F1 F 0.4190(4) 1.0070(3) 0.64955(13)
F2 F 0.2655(4) 0.9688(2) 0.63664(10)
F3 F 0.3267(6) 1.1170(2) 0.69394(14)
F4 F 0.3036(5) 1.1181(2) 0.63300(13)
F5 F 0.1445(8) 1.1574(4) 0.6722(3)
F6 F 0.1188(7) 1.0684(8) 0.6335(3)
F7 F 0.1398(4) 1.0464(3) 0.6927(2)
F8 F 0.7753(11) 0.2272(8) 0.7104(4)
F9 F 0.8298(18) 0.1408(17) 0.6599(5)
F10 F 0.6905(8) 0.0695(6) 0.6613(3)
F11 F 0.8846(8) 0.0208(5) 0.6916(3)
F12 F 0.9016(10) 0.1123(8) 0.7306(5)
F13 F 0.7714(8) 0.0318(5) 0.7310(3)
O1 O 0.5467(3) 0.9225(2) 0.71029(10)
O2 O 0.7359(2) 0.3301(2) 0.64016(9)
O3 O 0.4717(3) 0.25696(19) 0.70336(9)
O4 O 0.2025(3) 0.86066(19) 0.68862(9)
N1 N 0.3748(3) 0.8900(2) 0.69759(10)
N2 N 0.6044(3) 0.2953(2) 0.67267(9)
C1 C 0.4833(4) 0.8733(3) 0.70375(12)
C2 C 0.5106(3) 0.7960(3) 0.70189(11)
C3 C 0.6172(3) 0.7739(3) 0.70805(11)
C4 C 0.7098(4) 0.8169(3) 0.71937(12)
H1 H 0.709040 0.868587 0.722713
C5 C 0.7972(4) 0.7763(3) 0.72470(12)
H2 H 0.865020 0.796409 0.732689
C6 C 0.6422(3) 0.6998(3) 0.70303(10)
C7 C 0.5659(3) 0.6461(2) 0.69133(10)
C8 C 0.5858(3) 0.5740(2) 0.67769(10)
C9 C 0.6676(3) 0.5562(3) 0.65646(10)
C10 C 0.8066(3) 0.5453(3) 0.61551(11)
H3 H 0.860659 0.552525 0.600011
C11 C 0.7742(3) 0.4790(3) 0.62425(11)
H4 H 0.802459 0.434776 0.615814
C12 C 0.6908(3) 0.4817(3) 0.64809(10)
C13 C 0.6344(3) 0.4248(3) 0.66221(10)
C14 C 0.6634(3) 0.3491(3) 0.65723(11)
C15 C 0.5161(3) 0.3089(3) 0.69131(11)
C16 C 0.4852(3) 0.3855(2) 0.69439(10)
C17 C 0.3975(3) 0.4039(2) 0.71220(10)
C18 C 0.3315(3) 0.3570(3) 0.73115(11)
H5 H 0.339342 0.305232 0.732743
C19 C 0.2572(3) 0.3945(3) 0.74641(11)
H6 H 0.207955 0.371640 0.760376
C20 C 0.3643(3) 0.4782(2) 0.71264(10)
C21 C 0.4172(3) 0.5344(2) 0.69638(10)
C22 C 0.3809(3) 0.6099(2) 0.69056(10)
C23 C 0.2750(3) 0.6324(2) 0.68192(10)
C24 C 0.0850(3) 0.6524(3) 0.66191(12)
H7 H 0.011606 0.648679 0.653486
C25 C 0.1335(3) 0.7167(3) 0.67030(11)
H8 H 0.098220 0.762630 0.669188
C26 C 0.2463(3) 0.7079(3) 0.68128(10)
C27 C 0.3229(3) 0.7619(2) 0.68952(10)
C28 C 0.2924(4) 0.8394(3) 0.69151(11)
C29 C 0.4313(3) 0.7419(3) 0.69492(10)
C30 C 0.4584(3) 0.6660(2) 0.69248(10)
C31 C 0.5157(3) 0.5160(2) 0.68466(9)
C32 C 0.5446(3) 0.4420(2) 0.68042(10)
C33 C 0.3452(5) 0.9668(3) 0.70221(13)
H9 H 0.399687 0.991049 0.720504
H10 H 0.277752 0.968784 0.712872
C34 C 0.3336(6) 1.0076(4) 0.66457(17)
C35 C 0.2847(7) 1.0800(3) 0.6635(2)
C36 C 0.1659(12) 1.0827(6) 0.6652(4)
C37 C 0.6313(4) 0.2189(3) 0.66608(12)
H11 H 0.665061 0.217126 0.642570
H12 H 0.564642 0.190944 0.660965
C38 C 0.7026(12) 0.1791(10) 0.6972(5)
C39 C 0.7536(11) 0.1132(8) 0.6807(4)
C40 C 0.8289(8) 0.0704(6) 0.7090(3)
F14 F 0.6566(9) 0.1570(11) 0.7265(3)
S5 S 0.09934(7) 0.42422(6) 0.55279(3)
S6 S 0.23906(7) 0.38071(6) 0.62669(3)
S7 S 0.57796(7) 0.67403(6) 0.52749(3)
S8 S 0.53210(7) 0.73988(6) 0.60248(3)
F22 F -0.1094(2) 0.76908(16) 0.62349(8)
F23 F -0.0196(2) 0.86899(18) 0.63088(8)
F24 F -0.2679(2) 0.8369(2) 0.58019(11)
F25 F -0.2276(3) 0.8802(2) 0.63739(9)
F26 F -0.2902(4) 0.9819(3) 0.58647(14)
F27 F -0.1284(4) 0.9942(2) 0.60821(15)
F28 F -0.1731(3) 0.9524(2) 0.55208(11)
F29 F 0.7838(2) 0.21017(17) 0.58448(7)
F30 F 0.85240(19) 0.31320(16) 0.57135(8)
F31 F 0.8307(3) 0.1603(3) 0.51246(13)
F32 F 0.9144(3) 0.2633(2) 0.50905(10)
F33 F 0.9576(4) 0.1294(3) 0.57818(16)
F34 F 1.0395(4) 0.1530(4) 0.53208(15)
F35 F 1.0331(3) 0.2313(3) 0.57636(16)
O5 O -0.0880(2) 0.67732(18) 0.55796(10)
O6 O 0.5522(2) 0.24663(17) 0.57419(9)
O7 O 0.73425(19) 0.41193(17) 0.51380(7)
O8 O 0.1546(2) 0.85630(18) 0.58139(10)
N3 N 0.0346(2) 0.76477(19) 0.57241(9)
N4 N 0.6433(2) 0.33094(19) 0.54500(9)
C44 C 0.0051(3) 0.6930(3) 0.56503(11)
C45 C 0.0898(3) 0.6373(2) 0.56684(9)
C46 C 0.0663(3) 0.5648(2) 0.55953(9)
C47 C -0.0333(3) 0.5305(2) 0.54559(10)
H15 H -0.097732 0.556700 0.540538
C48 C -0.0257(3) 0.4587(2) 0.54056(10)
H16 H -0.084190 0.428947 0.531028
C49 C 0.1482(3) 0.5110(2) 0.56509(9)
C50 C 0.2534(3) 0.5313(2) 0.57578(9)
C51 C 0.3395(3) 0.4794(2) 0.58328(9)
C52 C 0.3322(3) 0.4101(2) 0.59891(9)
C53 C 0.2944(3) 0.2947(2) 0.63061(11)
H17 H 0.267124 0.256022 0.644294
C54 C 0.3797(3) 0.2871(2) 0.61264(11)
H18 H 0.417546 0.242454 0.611747
C55 C 0.4070(3) 0.3536(2) 0.59501(10)
C56 C 0.4927(3) 0.3697(2) 0.57512(10)
C57 C 0.5621(3) 0.3107(2) 0.56570(11)
C58 C 0.6634(3) 0.4023(2) 0.53338(10)
C59 C 0.5960(3) 0.4608(2) 0.54472(10)
C60 C 0.6113(2) 0.5338(2) 0.53449(9)
C61 C 0.6877(3) 0.5626(2) 0.51225(10)
H19 H 0.739770 0.533453 0.502717
C62 C 0.6776(3) 0.6340(2) 0.50650(10)
H20 H 0.721640 0.660960 0.492015
C63 C 0.5447(3) 0.5903(2) 0.54552(10)
C64 C 0.4587(2) 0.5749(2) 0.56530(9)
C65 C 0.3860(3) 0.6297(2) 0.57677(9)
C66 C 0.4088(3) 0.7022(2) 0.58726(9)
C67 C 0.4777(3) 0.8241(2) 0.60813(11)
H21 H 0.518529 0.866032 0.616399
C68 C 0.3720(3) 0.8260(2) 0.59985(11)
H22 H 0.331036 0.869044 0.601220
C69 C 0.3287(3) 0.7562(2) 0.58882(10)
C70 C 0.2218(3) 0.7348(2) 0.58043(10)
C71 C 0.1385(3) 0.7913(2) 0.57857(11)
C72 C 0.1970(3) 0.6608(2) 0.57475(9)
C73 C 0.2781(3) 0.6067(2) 0.57600(9)
C74 C 0.4380(3) 0.5001(2) 0.57141(9)
C75 C 0.5097(2) 0.4433(2) 0.56427(9)
C76 C -0.0498(3) 0.8194(2) 0.56858(12)
H23 H -0.108528 0.802081 0.549561
H24 H -0.023186 0.865854 0.559116
C77 C -0.0907(3) 0.8333(3) 0.60632(13)
C78 C -0.1947(4) 0.8752(3) 0.60291(15)
C79 C -0.1957(6) 0.9523(4) 0.58714(19)
C80 C 0.7020(3) 0.2720(2) 0.52952(12)
H25 H 0.719475 0.286995 0.504252
H26 H 0.656857 0.227847 0.525844
C81 C 0.8027(3) 0.2530(3) 0.55523(12)
C82 C 0.8803(5) 0.2130(4) 0.53376(16)
C83 C 0.9778(5) 0.1803(5) 0.5559(2)
Cl1 Cl 0.4769(2) 0.12047(14) 0.49306(7)
Cl2 Cl 0.29793(19) 0.17125(14) 0.52470(7)
Cl3 Cl 0.3815(4) 0.03184(16) 0.54645(11)
C84 C 0.4103(7) 0.1187(4) 0.5334(2)
H27 H 0.457347 0.141484 0.555109
F15? F 0.6912(10) 0.1977(7) 0.7323(2)
H13? H 0.652394 0.212769 0.640398
H14? H 0.570611 0.186385 0.668354
C41? C 0.7024(8) 0.0621(5) 0.6886(3)
F16? F 0.7565(9) -0.0005(4) 0.6861(3)
F17? F 0.6316(10) 0.0683(7) 0.6565(4)
F18? F 0.6438(9) 0.0609(5) 0.7168(3)
C42? C 0.7245(10) 0.2013(6) 0.6975(5)
F19? F 0.8093(10) 0.2474(7) 0.7027(4)
C43? C 0.7787(9) 0.1270(6) 0.6913(4)
F20? F 0.809(2) 0.1275(19) 0.6550(5)
F21? F 0.8547(10) 0.1108(7) 0.7216(3)
loop_
_geom_bond_atom_site_label_1
_geom_bond_atom_site_label_2
_geom_bond_site_symmetry_1
_geom_bond_site_symmetry_2
S1 C5 1_555 1_555
S2 C9 1_555 1_555
S3 C19 1_555 1_555
S4 C23 1_555 1_555
F1 C34 1_555 1_555
F2 C34 1_555 1_555
F3 C35 1_555 1_555
F4 C35 1_555 1_555
F5 C36 1_555 1_555
F6 C36 1_555 1_555
F7 C36 1_555 1_555
F8 C38 1_555 1_555
F9 C39 1_555 1_555
F10 C39 1_555 1_555
F11 C40 1_555 1_555
F12 C40 1_555 1_555
F13 C40 1_555 1_555
O1 C1 1_555 1_555
O2 C14 1_555 1_555
O3 C15 1_555 1_555
O4 C28 1_555 1_555
N1 C1 1_555 1_555
N2 C14 1_555 1_555
C1 C2 1_555 1_555
C2 C3 1_555 1_555
C3 C4 1_555 1_555
C4 H1 1_555 1_555
C5 C4 1_555 1_555
H2 C5 1_555 1_555
C6 S1 1_555 1_555
C7 C6 1_555 1_555
C8 C7 1_555 1_555
C9 C8 1_555 1_555
C10 S2 1_555 1_555
H3 C10 1_555 1_555
C11 C10 1_555 1_555
H4 C11 1_555 1_555
C12 C9 1_555 1_555
C13 C12 1_555 1_555
C14 C13 1_555 1_555
C15 N2 1_555 1_555
C16 C15 1_555 1_555
C17 C16 1_555 1_555
C18 C17 1_555 1_555
H5 C18 1_555 1_555
C19 C18 1_555 1_555
H6 C19 1_555 1_555
C20 S3 1_555 1_555
C21 C20 1_555 1_555
C22 C21 1_555 1_555
C23 C22 1_555 1_555
C24 S4 1_555 1_555
H7 C24 1_555 1_555
C25 C24 1_555 1_555
H8 C25 1_555 1_555
C26 C23 1_555 1_555
C27 C26 1_555 1_555
C28 N1 1_555 1_555
C29 C2 1_555 1_555
C30 C7 1_555 1_555
C31 C8 1_555 1_555
C32 C13 1_555 1_555
C33 N1 1_555 1_555
H9 C33 1_555 1_555
H10 C33 1_555 1_555
C34 C33 1_555 1_555
C35 C34 1_555 1_555
C36 C35 1_555 1_555
C37 N2 1_555 1_555
H11 C37 1_555 1_555
H12 C37 1_555 1_555
C38 C37 1_555 1_555
C39 C38 1_555 1_555
C40 C39 1_555 1_555
F14 C38 1_555 1_555
S5 C48 1_555 1_555
S6 C52 1_555 1_555
S7 C62 1_555 1_555
S8 C66 1_555 1_555
F22 C77 1_555 1_555
F23 C77 1_555 1_555
F24 C78 1_555 1_555
F25 C78 1_555 1_555
F26 C79 1_555 1_555
F27 C79 1_555 1_555
F28 C79 1_555 1_555
F29 C81 1_555 1_555
F30 C81 1_555 1_555
F31 C82 1_555 1_555
F32 C82 1_555 1_555
F33 C83 1_555 1_555
F34 C83 1_555 1_555
F35 C83 1_555 1_555
O5 C44 1_555 1_555
O6 C57 1_555 1_555
O7 C58 1_555 1_555
O8 C71 1_555 1_555
N3 C44 1_555 1_555
N4 C57 1_555 1_555
C44 C45 1_555 1_555
C45 C46 1_555 1_555
C46 C47 1_555 1_555
C47 H15 1_555 1_555
C48 C47 1_555 1_555
H16 C48 1_555 1_555
C49 S5 1_555 1_555
C50 C49 1_555 1_555
C51 C50 1_555 1_555
C52 C51 1_555 1_555
C53 S6 1_555 1_555
H17 C53 1_555 1_555
C54 C53 1_555 1_555
H18 C54 1_555 1_555
C55 C52 1_555 1_555
C56 C55 1_555 1_555
C57 C56 1_555 1_555
C58 N4 1_555 1_555
C59 C58 1_555 1_555
C60 C59 1_555 1_555
C61 C60 1_555 1_555
H19 C61 1_555 1_555
C62 C61 1_555 1_555
H20 C62 1_555 1_555
C63 S7 1_555 1_555
C64 C63 1_555 1_555
C65 C64 1_555 1_555
C66 C65 1_555 1_555
C67 S8 1_555 1_555
H21 C67 1_555 1_555
C68 C67 1_555 1_555
H22 C68 1_555 1_555
C69 C66 1_555 1_555
C70 C69 1_555 1_555
C71 N3 1_555 1_555
C72 C45 1_555 1_555
C73 C50 1_555 1_555
C74 C51 1_555 1_555
C75 C56 1_555 1_555
C76 N3 1_555 1_555
H23 C76 1_555 1_555
H24 C76 1_555 1_555
C77 C76 1_555 1_555
C78 C77 1_555 1_555
C79 C78 1_555 1_555
C80 N4 1_555 1_555
H25 C80 1_555 1_555
H26 C80 1_555 1_555
C81 C80 1_555 1_555
C82 C81 1_555 1_555
C83 C82 1_555 1_555
Cl1 C84 1_555 1_555
Cl2 C84 1_555 1_555
Cl3 C84 1_555 1_555
C84 H27 1_555 1_555
C3 C6 1_555 1_555
C11 C12 1_555 1_555
C16 C32 1_555 1_555
C17 C20 1_555 1_555
C21 C31 1_555 1_555
C22 C30 1_555 1_555
C25 C26 1_555 1_555
C27 C28 1_555 1_555
C27 C29 1_555 1_555
C29 C30 1_555 1_555
C31 C32 1_555 1_555
C46 C49 1_555 1_555
C54 C55 1_555 1_555
C59 C75 1_555 1_555
C60 C63 1_555 1_555
C64 C74 1_555 1_555
C65 C73 1_555 1_555
C68 C69 1_555 1_555
C70 C71 1_555 1_555
C70 C72 1_555 1_555
C72 C73 1_555 1_555
C74 C75 1_555 1_555

#END
