
#######################################################################
#
#                 Cambridge Crystallographic Data Centre
#                                CCDC 
#
#######################################################################
#
# If this CIF has been generated from an entry in the Cambridge 
# Structural Database, then it will include bibliographic, chemical, 
# crystal, experimental, refinement or atomic coordinate data resulting 
# from the CCDC's data processing and validation procedures.
#
#######################################################################

data_PICCEM
_chemical_formula_moiety         'C54 H54 N2 O4 S4'
_chemical_name_systematic        
2,11-bis(undecan-6-yl)bisthieno[3',2':3,4;3'',2'':7,8]thieno[2'',3'':7',8']isoquinolino[4',5',6':6,5,10]anthra[2,1,9-def]thieno[2,3-h]isoquinoline-1,3,10,12(2H,11H)-tetrone
_symmetry_cell_setting           triclinic
_symmetry_space_group_name_H-M   'P -1'
_symmetry_Int_Tables_number      2
_space_group_name_Hall           '-P 1'
loop_
_symmetry_equiv_pos_site_id
_symmetry_equiv_pos_as_xyz
1 x,y,z
2 -x,-y,-z
_cell_length_a                   11.7520(8)
_cell_length_b                   16.2577(12)
_cell_length_c                   24.521(2)
_cell_angle_alpha                94.706(3)
_cell_angle_beta                 102.004(3)
_cell_angle_gamma                94.955(4)
_cell_volume                     4541.32
_exptl_crystal_colour            green
_exptl_crystal_description       needle
_cell_formula_units_Z            4
loop_
_atom_site_label
_atom_site_type_symbol
_atom_site_fract_x
_atom_site_fract_y
_atom_site_fract_z
N1 N 0.9874(7) 0.9076(5) 0.6405(4)
N2 N 0.5962(8) 0.8406(6) 0.1728(4)
O1 O 0.8087(6) 0.8756(4) 0.6588(3)
O2 O 1.1603(7) 0.9531(5) 0.6217(3)
O3 O 0.7479(7) 0.7766(6) 0.1555(4)
O4 O 0.4411(7) 0.9028(5) 0.1900(3)
S1 S 0.49621(19) 0.82055(14) 0.47216(12)
S2 S 1.13646(19) 0.89575(14) 0.40602(11)
S3 S 1.02027(19) 0.72331(14) 0.34366(11)
S4 S 0.49560(19) 0.97595(14) 0.40585(12)
C1 C 0.7135(7) 0.8642(5) 0.4462(4)
C2 C 0.8387(7) 0.8671(5) 0.4654(5)
C3 C 0.9086(8) 0.8578(5) 0.4250(4)
C4 C 0.8512(7) 0.8263(5) 0.3687(5)
C5 C 0.7361(7) 0.8478(5) 0.3484(4)
C6 C 0.6697(7) 0.8756(5) 0.3878(4)
C7 C 0.6452(7) 0.8504(5) 0.4858(4)
C8 C 0.6970(8) 0.8518(5) 0.5448(5)
C9 C 0.6097(9) 0.8283(5) 0.5749(5)
H1 H 0.625382 0.825630 0.613482
C10 C 0.4998(9) 0.8101(5) 0.5408(4)
H2 H 0.433815 0.793554 0.554169
C11 C 1.0311(7) 0.8829(5) 0.4471(4)
C12 C 1.0810(7) 0.9056(5) 0.5028(4)
C13 C 1.2044(7) 0.9292(5) 0.5122(5)
H3 H 1.252399 0.943482 0.547567
C14 C 1.2422(8) 0.9285(5) 0.4656(5)
H4 H 1.319671 0.944346 0.464746
C15 C 0.8688(10) 0.8846(5) 0.6228(5)
C16 C 0.8162(7) 0.8720(5) 0.5639(4)
C17 C 0.8889(8) 0.8814(5) 0.5241(4)
C18 C 1.0088(8) 0.9016(5) 0.5433(5)
C19 C 1.0578(10) 0.9227(6) 0.6030(5)
C20 C 0.8984(7) 0.7799(6) 0.3299(5)
C21 C 0.8464(8) 0.7661(5) 0.2719(5)
C22 C 0.9064(9) 0.7113(6) 0.2409(5)
H5 H 0.884999 0.696243 0.202499
C23 C 0.9978(8) 0.6852(6) 0.2756(4)
H6 H 1.045403 0.648537 0.262905
C24 C 0.5701(7) 0.9146(5) 0.3656(5)
C25 C 0.5261(8) 0.9145(6) 0.3074(5)
C26 C 0.4240(8) 0.9620(7) 0.2974(5)
H7 H 0.380055 0.967713 0.261966
C27 C 0.4018(8) 0.9955(6) 0.3442(6)
H8 H 0.340030 1.027609 0.344505
C28 C 0.6956(10) 0.8045(7) 0.1905(5)
C29 C 0.7429(8) 0.8045(6) 0.2507(5)
C30 C 0.6885(8) 0.8430(5) 0.2901(5)
C31 C 0.5812(8) 0.8771(6) 0.2690(5)
C32 C 0.5324(10) 0.8754(7) 0.2092(6)
C33 C 1.0354(10) 0.9261(8) 0.7025(6)
H9 H 1.116333 0.927509 0.697824
C34 C 1.051(3) 1.0060(15) 0.7241(9)
H10 H 1.009264 1.037334 0.695838
H11 H 1.133729 1.024546 0.728857
C35 C 1.016(2) 1.032(2) 0.7794(12)
H12 H 0.984697 0.980074 0.790242
H13 H 1.090498 1.047134 0.805650
C36 C 0.9377(15) 1.0949(11) 0.7968(8)
H14 H 0.858190 1.068522 0.790413
H15 H 0.937686 1.140341 0.773508
C37 C 0.979(2) 1.1297(14) 0.8593(8)
H16 H 0.980140 1.085006 0.883215
H17 H 1.057054 1.158668 0.866062
C38 C 0.8917(18) 1.1895(14) 0.8715(9)
H18 H 0.914087 1.212612 0.909975
H19 H 0.891411 1.233388 0.847569
H20 H 0.814875 1.160088 0.864637
C39 C 1.043(2) 0.8523(17) 0.7291(10)
H21 H 1.058750 0.810538 0.701654
H22 H 0.965589 0.835869 0.734524
C40 C 1.127(2) 0.8422(17) 0.7843(11)
H23 H 1.098153 0.869420 0.814441
H24 H 1.202411 0.872033 0.784021
C41 C 1.149(3) 0.7534(17) 0.7987(16)
H25 H 1.170089 0.722103 0.767499
H26 H 1.212998 0.755485 0.831230
C42 C 1.036(3) 0.712(2) 0.8111(17)
H27 H 0.976369 0.711238 0.777065
H28 H 1.048974 0.654072 0.815024
C43 C 0.979(4) 0.739(3) 0.8593(17)
H29 H 0.908920 0.702654 0.857648
H30 H 1.032174 0.737048 0.894409
H31 H 0.958807 0.794814 0.856051
C44 C 0.5500(13) 0.8433(10) 0.1106(7)
H32 H 0.601389 0.811292 0.092512
C45 C 0.4261(13) 0.7949(10) 0.0896(6)
H33 H 0.419287 0.747126 0.110398
H34 H 0.366991 0.830426 0.096032
C46 C 0.4058(15) 0.7662(12) 0.0273(7)
H35 H 0.419069 0.813872 0.007200
H36 H 0.462329 0.728084 0.021572
C47 C 0.2832(16) 0.7237(12) 0.0031(9)
H37 H 0.227288 0.763305 0.006538
H38 H 0.276046 0.707613 -0.036574
C48 C 0.2511(18) 0.6477(12) 0.0306(9)
H39 H 0.228947 0.663713 0.065617
H40 H 0.316768 0.614974 0.038271
C49 C 0.1475(16) 0.5978(12) -0.0112(9)
H41 H 0.123529 0.548589 0.004383
H42 H 0.083416 0.631130 -0.018392
H43 H 0.170757 0.582658 -0.045590
C50 C 0.5652(19) 0.9255(15) 0.0930(10)
H44 H 0.539081 0.964654 0.118620
H45 H 0.516071 0.926402 0.056069
C51 C 0.693(2) 0.9542(17) 0.0911(12)
H46 H 0.726966 0.991655 0.124544
H47 H 0.736468 0.906006 0.092817
C52 C 0.712(2) 0.9981(17) 0.0397(11)
H48 H 0.699026 0.958656 0.006508
H49 H 0.659672 1.040822 0.032466
C53 C 0.840(2) 1.0359(19) 0.0561(12)
H50 H 0.894273 0.997090 0.069906
H51 H 0.852340 1.086830 0.081102
C54 C 0.832(3) 1.050(2) -0.0057(13)
H52 H 0.905941 1.075195 -0.010062
H53 H 0.813347 0.997207 -0.028250
H54 H 0.772274 1.085107 -0.017284
N3 N 0.3597(7) 0.3672(5) 0.3599(4)
N4 N 0.3860(7) 0.4368(6) 0.8274(4)
O5 O 0.5523(7) 0.4173(5) 0.3798(4)
O6 O 0.1654(6) 0.3281(4) 0.3407(3)
O7 O 0.2111(7) 0.4894(5) 0.8073(3)
O8 O 0.5528(7) 0.3733(6) 0.8448(3)
S5 S 0.72074(19) 0.42353(14) 0.59415(12)
S6 S 0.02090(18) 0.32883(14) 0.52711(11)
S7 S 0.08096(19) 0.50442(14) 0.59302(11)
S8 S 0.66148(19) 0.27084(14) 0.65657(11)
C62 C 0.4769(7) 0.3803(5) 0.5749(4)
C63 C 0.3703(7) 0.3782(5) 0.5347(4)
C64 C 0.2630(7) 0.3804(5) 0.5529(4)
C65 C 0.2710(7) 0.4091(5) 0.6116(5)
C66 C 0.3721(7) 0.3926(5) 0.6515(4)
C67 C 0.4718(7) 0.3668(5) 0.6322(4)
C68 C 0.5795(7) 0.3986(5) 0.5533(5)
C69 C 0.5769(7) 0.4037(5) 0.4961(5)
C70 C 0.6949(8) 0.4261(5) 0.4873(5)
H73 H 0.711854 0.431586 0.452278
C71 C 0.7734(8) 0.4376(5) 0.5344(5)
H74 H 0.852273 0.452235 0.535649
C72 C 0.1587(7) 0.3539(5) 0.5127(4)
C73 C 0.1550(8) 0.3369(5) 0.4556(5)
C74 C 0.0392(8) 0.3033(5) 0.4246(4)
H75 H 0.019851 0.288235 0.386124
C75 C -0.0369(8) 0.2966(5) 0.4585(4)
H76 H -0.115028 0.275941 0.445466
C76 C 0.4660(10) 0.3918(6) 0.3969(5)
C77 C 0.4696(8) 0.3884(5) 0.4561(5)
C78 C 0.3646(8) 0.3730(5) 0.4756(5)
C79 C 0.2592(7) 0.3535(5) 0.4357(5)
C80 C 0.2579(10) 0.3472(5) 0.3762(5)
C81 C 0.1892(7) 0.4544(5) 0.6321(5)
C82 C 0.1963(8) 0.4720(6) 0.6904(5)
C83 C 0.1039(8) 0.5214(6) 0.7015(5)
H77 H 0.090621 0.535719 0.736992
C84 C 0.0406(8) 0.5433(6) 0.6538(5)
H78 H -0.019946 0.576637 0.653167
C85 C 0.5521(7) 0.3301(5) 0.6694(4)
C86 C 0.5493(7) 0.3329(6) 0.7273(5)
C87 C 0.6385(8) 0.2877(6) 0.7588(5)
H79 H 0.651465 0.284416 0.797272
C88 C 0.6992(8) 0.2516(6) 0.7248(5)
H80 H 0.757694 0.218345 0.737503
C89 C 0.2876(10) 0.4594(7) 0.7888(6)
C90 C 0.2834(8) 0.4430(6) 0.7281(4)
C91 C 0.3749(7) 0.4048(6) 0.7082(5)
C92 C 0.4651(8) 0.3766(6) 0.7488(5)
C93 C 0.4732(10) 0.3939(8) 0.8085(6)
C94 C 0.3540(10) 0.3690(7) 0.3001(6)
H81 H 0.437666 0.380317 0.300923
C95 C 0.313(2) 0.4500(11) 0.2804(6)
H82 H 0.375732 0.493845 0.294717
H83 H 0.247953 0.462346 0.297555
C96 C 0.2733(12) 0.4537(9) 0.2171(5)
H84 H 0.339672 0.474267 0.202498
H85 H 0.246089 0.398105 0.199078
C97 C 0.1763(13) 0.5092(9) 0.2029(6)
H86 H 0.199195 0.563079 0.224371
H87 H 0.105905 0.484915 0.212759
C98 C 0.1515(15) 0.5197(11) 0.1406(7)
H88 H 0.127046 0.466405 0.118645
H89 H 0.221018 0.544604 0.130264
C99 C 0.0535(14) 0.5766(12) 0.1305(8)
H90 H 0.034513 0.585231 0.091549
H91 H -0.014473 0.551213 0.141066
H92 H 0.078994 0.628992 0.152623
C100 C 0.3319(17) 0.2810(9) 0.2704(9)
H93 H 0.314857 0.282003 0.230062
H94 H 0.266781 0.249976 0.280863
C101 C 0.447(2) 0.2419(18) 0.2905(13)
H95 H 0.515442 0.278817 0.288430
H96 H 0.454972 0.226575 0.328422
C102 C 0.428(4) 0.165(2) 0.2471(19)
H97 H 0.428938 0.179081 0.209470
H98 H 0.357805 0.129060 0.247043
C103 C 0.542(5) 0.129(4) 0.2751(15)
H99 H 0.599593 0.173799 0.294242
H100 H 0.524796 0.092718 0.302570
C104 C 0.590(4) 0.080(3) 0.230(2)
H101 H 0.659730 0.057752 0.247364
H102 H 0.532213 0.035388 0.211460
H103 H 0.606812 0.116254 0.203153
C105 C 0.3966(11) 0.4597(10) 0.8881(6)
H104 H 0.470799 0.442034 0.907465
C106 C 0.4067(13) 0.5532(10) 0.8990(7)
H105 H 0.425057 0.568036 0.939209
H106 H 0.330907 0.571437 0.884274
C107 C 0.4982(13) 0.6011(9) 0.8739(6)
H107 H 0.574473 0.583053 0.887864
H108 H 0.479081 0.588799 0.833448
C108 C 0.503(3) 0.6949(11) 0.8888(17)
H109 H 0.498075 0.702472 0.927813
H110 H 0.431721 0.711709 0.867269
C109 C 0.603(3) 0.7595(18) 0.8825(15)
H111 H 0.612260 0.747899 0.844361
H112 H 0.672706 0.744823 0.906554
C110 C 0.609(4) 0.8552(18) 0.8925(17)
H113 H 0.680660 0.879741 0.885332
H114 H 0.543900 0.874170 0.867705
H115 H 0.605054 0.871057 0.930627
C111 C 0.2995(13) 0.4153(10) 0.9117(7)
H116 H 0.229047 0.442621 0.901656
H117 H 0.282727 0.358594 0.894249
C112 C 0.3285(14) 0.4140(11) 0.9719(7)
H118 H 0.346034 0.470881 0.989031
H119 H 0.399045 0.386746 0.981623
C113 C 0.2331(16) 0.3704(12) 0.9975(8)
H120 H 0.258438 0.376977 1.038046
H121 H 0.161879 0.396970 0.987814
C114 C 0.2090(19) 0.2844(14) 0.9786(8)
H122 H 0.281650 0.258953 0.985082
H123 H 0.176857 0.278042 0.938497
C115 C 0.1198(18) 0.2372(15) 1.0089(10)
H124 H 0.106603 0.179667 0.994629
H125 H 0.151874 0.242234 1.048521
H126 H 0.047066 0.261325 1.001929
H55? H 0.980712 0.882442 0.710935
C55? C 0.962(3) 1.006(2) 0.7305(14)
H56? H 0.944376 1.045914 0.703440
H57? H 0.889355 0.982184 0.738092
C56? C 1.042(3) 1.050(3) 0.7851(17)
H58? H 1.068751 1.012259 0.812578
H59? H 1.106226 1.086738 0.779084
H60? H 0.867236 1.056598 0.790931
H61? H 0.923082 1.139233 0.772910
C57? C 1.158(4) 0.874(2) 0.7300(17)
H62? H 1.211661 0.872466 0.704963
H63? H 1.199074 0.900594 0.766497
C58? C 1.102(4) 0.787(2) 0.7343(14)
H64? H 1.155536 0.746790 0.729001
H65? H 1.031283 0.774092 0.705241
C59? C 1.072(5) 0.783(2) 0.7925(17)
H66? H 1.133325 0.813735 0.821383
H67? H 0.999056 0.807176 0.793296
C60? C 1.058842 0.691(2) 0.8021(17)
H68? H 0.982383 0.664536 0.782405
H69? H 1.117900 0.662302 0.788085
C61? C 1.073750 0.685(3) 0.8653(18)
H70? H 1.066098 0.627315 0.872123
H71? H 1.149753 0.710279 0.884440
H72? H 1.014731 0.712505 0.878781
H127? H 0.414808 0.415894 0.305075
C116? C 0.242(3) 0.424(2) 0.2708(12)
H128? H 0.168184 0.389653 0.261956
H129? H 0.236125 0.471694 0.296524
H130? H 0.350313 0.484397 0.224351
H131? H 0.267629 0.408081 0.188295
C117? C 0.407929 0.3154(14) 0.2596(9)
H132? H 0.350450 0.296688 0.225342
H133? H 0.473941 0.346769 0.250133
H134? H 0.380422 0.200849 0.286376
H135? H 0.473251 0.260709 0.330135
H136? H 0.571211 0.576083 0.880426
H137? H 0.470476 0.602303 0.833865
C118? C 0.546(2) 0.199590 0.2710(8)
H138? H 0.513013 0.179136 0.232159
H139? H 0.604297 0.245311 0.269725
C119? C 0.620(7) 0.131(3) 0.2935(13)
H140? H 0.569804 0.079039 0.290362
H141? H 0.678730 0.122089 0.271847
C120? C 0.678540 0.156920 0.355161
H142? H 0.724530 0.114411 0.369697
H143? H 0.728231 0.207841 0.357954
H144? H 0.619662 0.164932 0.376408
C121? C 0.514(4) 0.6887(16) 0.905(2)
H145? H 0.590237 0.717674 0.904786
H146? H 0.503360 0.688247 0.942641
C122? C 0.414(4) 0.726(3) 0.8666(19)
H147? H 0.341382 0.720550 0.879207
H148? H 0.402181 0.704969 0.827340
C123? C 0.481(5) 0.813(3) 0.881(2)
H149? H 0.435439 0.852310 0.861164
H150? H 0.494925 0.828766 0.920360
H151? H 0.554628 0.813466 0.869429
loop_
_geom_bond_atom_site_label_1
_geom_bond_atom_site_label_2
_geom_bond_site_symmetry_1
_geom_bond_site_symmetry_2
N1 C15 1_555 1_555
N2 C28 1_555 1_555
O1 C15 1_555 1_555
O2 C19 1_555 1_555
O3 C28 1_555 1_555
O4 C32 1_555 1_555
S1 C7 1_555 1_555
S2 C11 1_555 1_555
S3 C20 1_555 1_555
S4 C24 1_555 1_555
C1 C2 1_555 1_555
C2 C3 1_555 1_555
C3 C4 1_555 1_555
C4 C5 1_555 1_555
C5 C6 1_555 1_555
C6 C1 1_555 1_555
C7 C1 1_555 1_555
C8 C7 1_555 1_555
C9 C8 1_555 1_555
H1 C9 1_555 1_555
C10 S1 1_555 1_555
H2 C10 1_555 1_555
C11 C3 1_555 1_555
C12 C11 1_555 1_555
C13 C12 1_555 1_555
H3 C13 1_555 1_555
C14 S2 1_555 1_555
H4 C14 1_555 1_555
C15 C16 1_555 1_555
C16 C8 1_555 1_555
C17 C2 1_555 1_555
C18 C12 1_555 1_555
C19 N1 1_555 1_555
C20 C4 1_555 1_555
C21 C20 1_555 1_555
C22 C21 1_555 1_555
H5 C22 1_555 1_555
C23 S3 1_555 1_555
H6 C23 1_555 1_555
C24 C6 1_555 1_555
C25 C24 1_555 1_555
C26 C25 1_555 1_555
H7 C26 1_555 1_555
C27 S4 1_555 1_555
H8 C27 1_555 1_555
C28 C29 1_555 1_555
C29 C21 1_555 1_555
C30 C5 1_555 1_555
C31 C25 1_555 1_555
C32 N2 1_555 1_555
C33 N1 1_555 1_555
H9 C33 1_555 1_555
C34 C33 1_555 1_555
H10 C34 1_555 1_555
H11 C34 1_555 1_555
C35 C34 1_555 1_555
H12 C35 1_555 1_555
H13 C35 1_555 1_555
C36 C35 1_555 1_555
H14 C36 1_555 1_555
H15 C36 1_555 1_555
C37 C36 1_555 1_555
H16 C37 1_555 1_555
H17 C37 1_555 1_555
C38 C37 1_555 1_555
H18 C38 1_555 1_555
H19 C38 1_555 1_555
H20 C38 1_555 1_555
C39 C33 1_555 1_555
H21 C39 1_555 1_555
H22 C39 1_555 1_555
C40 C39 1_555 1_555
H23 C40 1_555 1_555
H24 C40 1_555 1_555
C41 C40 1_555 1_555
H25 C41 1_555 1_555
H26 C41 1_555 1_555
C42 C41 1_555 1_555
H27 C42 1_555 1_555
H28 C42 1_555 1_555
C43 C42 1_555 1_555
H29 C43 1_555 1_555
H30 C43 1_555 1_555
H31 C43 1_555 1_555
C44 N2 1_555 1_555
H32 C44 1_555 1_555
C45 C44 1_555 1_555
H33 C45 1_555 1_555
H34 C45 1_555 1_555
C46 C45 1_555 1_555
H35 C46 1_555 1_555
H36 C46 1_555 1_555
C47 C46 1_555 1_555
H37 C47 1_555 1_555
H38 C47 1_555 1_555
C48 C47 1_555 1_555
H39 C48 1_555 1_555
H40 C48 1_555 1_555
C49 C48 1_555 1_555
H41 C49 1_555 1_555
H42 C49 1_555 1_555
H43 C49 1_555 1_555
C50 C44 1_555 1_555
H44 C50 1_555 1_555
H45 C50 1_555 1_555
C51 C50 1_555 1_555
H46 C51 1_555 1_555
H47 C51 1_555 1_555
C52 C51 1_555 1_555
H48 C52 1_555 1_555
H49 C52 1_555 1_555
C53 C52 1_555 1_555
H50 C53 1_555 1_555
H51 C53 1_555 1_555
C54 C53 1_555 1_555
H52 C54 1_555 1_555
H53 C54 1_555 1_555
H54 C54 1_555 1_555
N3 C76 1_555 1_555
N4 C89 1_555 1_555
O5 C76 1_555 1_555
O6 C80 1_555 1_555
O7 C89 1_555 1_555
O8 C93 1_555 1_555
S5 C68 1_555 1_555
S6 C72 1_555 1_555
S7 C81 1_555 1_555
S8 C85 1_555 1_555
C62 C63 1_555 1_555
C63 C64 1_555 1_555
C64 C65 1_555 1_555
C65 C66 1_555 1_555
C66 C67 1_555 1_555
C67 C62 1_555 1_555
C68 C62 1_555 1_555
C69 C68 1_555 1_555
C70 C69 1_555 1_555
H73 C70 1_555 1_555
C71 S5 1_555 1_555
H74 C71 1_555 1_555
C72 C64 1_555 1_555
C73 C72 1_555 1_555
C74 C73 1_555 1_555
H75 C74 1_555 1_555
C75 S6 1_555 1_555
H76 C75 1_555 1_555
C76 C77 1_555 1_555
C77 C69 1_555 1_555
C78 C63 1_555 1_555
C79 C73 1_555 1_555
C80 N3 1_555 1_555
C81 C65 1_555 1_555
C82 C81 1_555 1_555
C83 C82 1_555 1_555
H77 C83 1_555 1_555
C84 S7 1_555 1_555
H78 C84 1_555 1_555
C85 C67 1_555 1_555
C86 C85 1_555 1_555
C87 C86 1_555 1_555
H79 C87 1_555 1_555
C88 S8 1_555 1_555
H80 C88 1_555 1_555
C89 C90 1_555 1_555
C90 C82 1_555 1_555
C91 C66 1_555 1_555
C92 C86 1_555 1_555
C93 N4 1_555 1_555
C94 N3 1_555 1_555
H81 C94 1_555 1_555
C95 C94 1_555 1_555
H82 C95 1_555 1_555
H83 C95 1_555 1_555
C96 C95 1_555 1_555
H84 C96 1_555 1_555
H85 C96 1_555 1_555
C97 C96 1_555 1_555
H86 C97 1_555 1_555
H87 C97 1_555 1_555
C98 C97 1_555 1_555
H88 C98 1_555 1_555
H89 C98 1_555 1_555
C99 C98 1_555 1_555
H90 C99 1_555 1_555
H91 C99 1_555 1_555
H92 C99 1_555 1_555
C100 C94 1_555 1_555
H93 C100 1_555 1_555
H94 C100 1_555 1_555
C101 C100 1_555 1_555
H95 C101 1_555 1_555
H96 C101 1_555 1_555
C102 C101 1_555 1_555
H97 C102 1_555 1_555
H98 C102 1_555 1_555
C103 C102 1_555 1_555
H99 C103 1_555 1_555
H100 C103 1_555 1_555
C104 C103 1_555 1_555
H101 C104 1_555 1_555
H102 C104 1_555 1_555
H103 C104 1_555 1_555
C105 N4 1_555 1_555
H104 C105 1_555 1_555
C106 C105 1_555 1_555
H105 C106 1_555 1_555
H106 C106 1_555 1_555
C107 C106 1_555 1_555
H107 C107 1_555 1_555
H108 C107 1_555 1_555
C108 C107 1_555 1_555
H109 C108 1_555 1_555
H110 C108 1_555 1_555
C109 C108 1_555 1_555
H111 C109 1_555 1_555
H112 C109 1_555 1_555
C110 C109 1_555 1_555
H113 C110 1_555 1_555
H114 C110 1_555 1_555
H115 C110 1_555 1_555
C111 C105 1_555 1_555
H116 C111 1_555 1_555
H117 C111 1_555 1_555
C112 C111 1_555 1_555
H118 C112 1_555 1_555
H119 C112 1_555 1_555
C113 C112 1_555 1_555
H120 C113 1_555 1_555
H121 C113 1_555 1_555
C114 C113 1_555 1_555
H122 C114 1_555 1_555
H123 C114 1_555 1_555
C115 C114 1_555 1_555
H124 C115 1_555 1_555
H125 C115 1_555 1_555
H126 C115 1_555 1_555
C9 C10 1_555 1_555
C13 C14 1_555 1_555
C16 C17 1_555 1_555
C17 C18 1_555 1_555
C18 C19 1_555 1_555
C22 C23 1_555 1_555
C26 C27 1_555 1_555
C29 C30 1_555 1_555
C30 C31 1_555 1_555
C31 C32 1_555 1_555
C70 C71 1_555 1_555
C74 C75 1_555 1_555
C77 C78 1_555 1_555
C78 C79 1_555 1_555
C79 C80 1_555 1_555
C83 C84 1_555 1_555
C87 C88 1_555 1_555
C90 C91 1_555 1_555
C91 C92 1_555 1_555
C92 C93 1_555 1_555

#END
