
#######################################################################
#
#                 Cambridge Crystallographic Data Centre
#                                CCDC 
#
#######################################################################
#
# If this CIF has been generated from an entry in the Cambridge 
# Structural Database, then it will include bibliographic, chemical, 
# crystal, experimental, refinement or atomic coordinate data resulting 
# from the CCDC's data processing and validation procedures.
#
#######################################################################

data_PICDUA
_chemical_formula_moiety         'C9 H6 N2 O6,C9 H11 N1 O2'
_chemical_name_systematic        
'3,5-Dinitrocinnamic acid 4-(N,N-dimethylamino)benzoic acid'
_symmetry_cell_setting           triclinic
_symmetry_space_group_name_H-M   'P -1'
_symmetry_Int_Tables_number      2
_space_group_name_Hall           '-P 1'
loop_
_symmetry_equiv_pos_site_id
_symmetry_equiv_pos_as_xyz
1 x,y,z
2 -x,-y,-z
_cell_length_a                   7.974(1)
_cell_length_b                   8.342(1)
_cell_length_c                   15.045(1)
_cell_angle_alpha                85.32(1)
_cell_angle_beta                 85.95(1)
_cell_angle_gamma                67.60(1)
_cell_volume                     921.333
_cell_formula_units_Z            2
loop_
_atom_site_label
_atom_site_type_symbol
_atom_site_fract_x
_atom_site_fract_y
_atom_site_fract_z
C1 C -0.3986(3) 0.6261(3) -0.1311(2)
C2 C -0.4818(4) 0.6063(4) -0.2053(2)
C3 C -0.5588(4) 0.7460(3) -0.2652(2)
C4 C -0.5570(4) 0.9072(4) -0.2544(2)
C5 C -0.4779(4) 0.9251(3) -0.1798(2)
C6 C -0.3987(4) 0.7900(3) -0.1183(2)
C7 C -0.3145(4) 0.4755(4) -0.0696(2)
C8 C -0.2190(4) 0.4640(4) -0.0003(2)
C9 C -0.1441(4) 0.3020(4) 0.0546(2)
N1 N -0.6456(3) 0.7223(4) -0.3434(2)
N2 N -0.4816(4) 1.0982(3) -0.1648(2)
O1 O -0.6520(4) 0.5818(3) -0.3512(2)
O2 O -0.7060(4) 0.8457(3) -0.3969(2)
O3 O -0.4401(4) 1.1227(3) -0.0925(2)
O4 O -0.5272(4) 1.2097(3) -0.2256(2)
O5 O -0.0500(3) 0.3016(3) 0.1199(2)
O6 O -0.1755(3) 0.1721(3) 0.0378(1)
H1 H -0.484(4) 0.499(4) -0.214(2)
H2 H -0.611(4) 0.999(4) -0.297(2)
H3 H -0.346(4) 0.810(3) -0.067(2)
H4 H -0.331(3) 0.380(4) -0.083(2)
H5 H -0.199(4) 0.559(4) 0.018(2)
H6 H -0.009(7) 0.168(7) 0.167(3)
C10 C 0.0586(4) -0.2631(3) 0.2730(2)
C11 C 0.1505(4) -0.2720(4) 0.3498(2)
C12 C 0.2007(4) -0.4167(4) 0.4078(2)
C13 C 0.1616(4) -0.5618(3) 0.3911(2)
C14 C 0.0674(4) -0.5514(4) 0.3144(2)
C15 C 0.0171(4) -0.4050(4) 0.2574(2)
C16 C 0.0102(4) -0.1105(4) 0.2111(2)
C17 C 0.1731(8) -0.8559(5) 0.4289(3)
C18 C 0.3068(7) -0.7189(6) 0.5281(3)
N3 N 0.2169(3) -0.7090(3) 0.4463(2)
O7 O -0.0764(3) -0.1106(3) 0.1422(1)
O8 O 0.0519(3) 0.0170(3) 0.2253(1)
H7 H 0.182(4) -0.174(4) 0.363(2)
H8 H 0.264(4) -0.415(4) 0.457(2)
H9 H 0.032(3) -0.645(3) 0.300(2)
H10 H -0.043(4) -0.398(3) 0.208(2)
H11 H 0.227(5) -0.952(6) 0.468(3)
H12 H 0.218(5) -0.899(5) 0.372(3)
H13 H 0.047(6) -0.827(5) 0.435(3)
H14 H 0.336(6) -0.832(6) 0.554(3)
H15 H 0.240(7) -0.659(6) 0.573(3)
H16 H 0.413(6) -0.687(5) 0.519(3)
H17 H -0.118(6) 0.012(6) 0.094(3)
loop_
_geom_bond_atom_site_label_1
_geom_bond_atom_site_label_2
_geom_bond_site_symmetry_1
_geom_bond_site_symmetry_2
C1 C2 1_555 1_555
C2 C3 1_555 1_555
C3 C4 1_555 1_555
C4 C5 1_555 1_555
C5 C6 1_555 1_555
C6 C1 1_555 1_555
C7 C1 1_555 1_555
C8 C7 1_555 1_555
C9 C8 1_555 1_555
N1 C3 1_555 1_555
N2 C5 1_555 1_555
O1 N1 1_555 1_555
O2 N1 1_555 1_555
O3 N2 1_555 1_555
O4 N2 1_555 1_555
O5 C9 1_555 1_555
O6 C9 1_555 1_555
H1 C2 1_555 1_555
H2 C4 1_555 1_555
H3 C6 1_555 1_555
H4 C7 1_555 1_555
H5 C8 1_555 1_555
H6 O5 1_555 1_555
C10 C11 1_555 1_555
C11 C12 1_555 1_555
C12 C13 1_555 1_555
C13 C14 1_555 1_555
C14 C15 1_555 1_555
C15 C10 1_555 1_555
C16 C10 1_555 1_555
C17 N3 1_555 1_555
C18 N3 1_555 1_555
N3 C13 1_555 1_555
O7 C16 1_555 1_555
O8 C16 1_555 1_555
H7 C11 1_555 1_555
H8 C12 1_555 1_555
H9 C14 1_555 1_555
H10 C15 1_555 1_555
H11 C17 1_555 1_555
H12 C17 1_555 1_555
H13 C17 1_555 1_555
H14 C18 1_555 1_555
H15 C18 1_555 1_555
H16 C18 1_555 1_555
H17 O7 1_555 1_555

#END
