
#######################################################################
#
#                 Cambridge Crystallographic Data Centre
#                                CCDC 
#
#######################################################################
#
# If this CIF has been generated from an entry in the Cambridge 
# Structural Database, then it will include bibliographic, chemical, 
# crystal, experimental, refinement or atomic coordinate data resulting 
# from the CCDC's data processing and validation procedures.
#
#######################################################################

data_PICFUF
_chemical_formula_moiety         'C29 H23 N4 O6 1-,K1 1+'
_chemical_name_systematic        
'potassium 4-{[5-hydroxy-3-(methoxycarbonyl)-1-phenyl-1H-pyrazol-4-yl](phenyl)methyl}-3-(methoxycarbonyl)-1-phenyl-1H-pyrazol-5-olate'
_symmetry_cell_setting           orthorhombic
_symmetry_space_group_name_H-M   'P b c a'
_symmetry_Int_Tables_number      61
_space_group_name_Hall           '-P 2ac 2ab'
loop_
_symmetry_equiv_pos_site_id
_symmetry_equiv_pos_as_xyz
1 x,y,z
2 1/2-x,-y,1/2+z
3 -x,1/2+y,1/2-z
4 1/2+x,1/2-y,-z
5 -x,-y,-z
6 1/2+x,y,1/2-z
7 x,1/2-y,1/2+z
8 1/2-x,1/2+y,z
_cell_length_a                   15.729(2)
_cell_length_b                   18.2749(19)
_cell_length_c                   19.450(2)
_cell_angle_alpha                90
_cell_angle_beta                 90
_cell_angle_gamma                90
_cell_volume                     5590.82
_exptl_crystal_colour            colorless
_exptl_crystal_description       block
_cell_formula_units_Z            8
loop_
_atom_site_label
_atom_site_type_symbol
_atom_site_fract_x
_atom_site_fract_y
_atom_site_fract_z
C1 C 0.0688(3) 0.9155(2) 0.3121(2)
H1 H 0.0989 0.9327 0.3532
C2 C 0.0505(3) 0.9831(2) 0.27039(19)
C3 C 0.0219(3) 0.9889(2) 0.2034(2)
C4 C 0.0528(3) 1.0564(2) 0.2928(2)
C5 C -0.0361(3) 1.0913(2) 0.1324(2)
C6 C -0.1063(4) 1.1343(3) 0.1448(3)
H2 H -0.1221 1.1455 0.1896
C7 C -0.1533(5) 1.1608(4) 0.0894(4)
H3 H -0.2013 1.1892 0.0975
C8 C -0.1301(6) 1.1457(4) 0.0250(3)
H4 H -0.1619 1.1638 -0.0115
C9 C -0.0605(6) 1.1041(4) 0.0123(3)
H5 H -0.0455 1.0935 -0.0328
C10 C -0.0106(4) 1.0770(3) 0.0667(2)
H6 H 0.0383 1.0500 0.0580
C11 C 0.0772(4) 1.0873(2) 0.3597(2)
C12 C 0.0959(6) 1.0653(4) 0.4780(3)
H7 H 0.1568 1.0665 0.4805
H8 H 0.0742 1.0325 0.5123
H9 H 0.0737 1.1136 0.4859
C13 C 0.1274(3) 0.8597(2) 0.2791(2)
C14 C 0.1069(3) 0.8139(2) 0.2242(2)
C15 C 0.2049(3) 0.8322(2) 0.3037(2)
C16 C 0.1811(3) 0.7010(2) 0.1758(2)
C17 C 0.1382(4) 0.6980(3) 0.1143(3)
H10 H 0.1012 0.7352 0.1012
C18 C 0.1521(5) 0.6375(4) 0.0718(4)
H11 H 0.1230 0.6339 0.0303
C19 C 0.2077(6) 0.5833(4) 0.0903(5)
H12 H 0.2177 0.5443 0.0607
C20 C 0.2473(5) 0.5866(3) 0.1505(5)
H13 H 0.2831 0.5486 0.1634
C21 C 0.2364(4) 0.6456(3) 0.1946(3)
H14 H 0.2657 0.6478 0.2361
C22 C 0.2550(4) 0.8585(3) 0.3621(3)
C23 C -0.0123(3) 0.8785(2) 0.3387(2)
C24 C -0.0925(3) 0.9052(3) 0.3289(2)
H15 H -0.0999 0.9475 0.3030
C25 C -0.1633(4) 0.8704(3) 0.3567(3)
H16 H -0.2173 0.8899 0.3499
C26 C -0.1536(5) 0.8074(3) 0.3943(3)
H17 H -0.2008 0.7837 0.4126
C27 C -0.0739(5) 0.7795(3) 0.4045(3)
H18 H -0.0668 0.7371 0.4303
C28 C -0.0045(4) 0.8139(3) 0.3770(2)
H19 H 0.0492 0.7939 0.3839
N1 N 0.0091(3) 1.06165(18) 0.18962(17)
N2 N 0.0276(3) 1.10399(19) 0.24472(18)
N3 N 0.1719(2) 0.76349(19) 0.22006(18)
N4 N 0.2326(3) 0.7744(2) 0.26873(18)
O1 O 0.0043(3) 0.94048(17) 0.15550(16)
H20 H 0.0197 0.8998 0.1682
O2 O 0.0411(2) 0.81397(16) 0.18410(16)
O3 O 0.1003(3) 1.14969(18) 0.36778(19)
O4 O 0.0700(3) 1.04029(17) 0.41027(16)
O5 O 0.2318(3) 0.9101(3) 0.3978(3)
O6 O 0.3257(3) 0.8239(2) 0.37345(19)
C29 C 0.3698(6) 0.8400(5) 0.4339(4)
H21 H 0.3690 0.8919 0.4417
H22 H 0.4276 0.8237 0.4297
H23 H 0.3432 0.8155 0.4719
K1 K 0.40690(7) 0.74757(5) 0.26530(6)
loop_
_geom_bond_atom_site_label_1
_geom_bond_atom_site_label_2
_geom_bond_site_symmetry_1
_geom_bond_site_symmetry_2
C1 H1 1_555 1_555
C2 C1 1_555 1_555
C3 C2 1_555 1_555
C4 C2 1_555 1_555
C5 C6 1_555 1_555
C6 H2 1_555 1_555
C7 C6 1_555 1_555
H3 C7 1_555 1_555
C8 C7 1_555 1_555
H4 C8 1_555 1_555
C9 C8 1_555 1_555
H5 C9 1_555 1_555
C10 C5 1_555 1_555
H6 C10 1_555 1_555
C11 C4 1_555 1_555
C12 H7 1_555 1_555
H8 C12 1_555 1_555
H9 C12 1_555 1_555
C13 C1 1_555 1_555
C14 C13 1_555 1_555
C15 C13 1_555 1_555
C16 C17 1_555 1_555
C17 H10 1_555 1_555
C18 C17 1_555 1_555
H11 C18 1_555 1_555
C19 C18 1_555 1_555
H12 C19 1_555 1_555
C20 C19 1_555 1_555
H13 C20 1_555 1_555
C21 C16 1_555 1_555
H14 C21 1_555 1_555
C22 C15 1_555 1_555
C23 C1 1_555 1_555
C24 C23 1_555 1_555
H15 C24 1_555 1_555
C25 C24 1_555 1_555
H16 C25 1_555 1_555
C26 C25 1_555 1_555
H17 C26 1_555 1_555
C27 C26 1_555 1_555
H18 C27 1_555 1_555
C28 C23 1_555 1_555
H19 C28 1_555 1_555
N1 C3 1_555 1_555
N2 C4 1_555 1_555
N3 C14 1_555 1_555
N4 C15 1_555 1_555
O1 C3 1_555 1_555
H20 O1 1_555 1_555
O2 C14 1_555 1_555
O3 C11 1_555 1_555
O4 C11 1_555 1_555
O5 C22 1_555 1_555
O6 C22 1_555 1_555
C29 O6 1_555 1_555
H21 C29 1_555 1_555
H22 C29 1_555 1_555
H23 C29 1_555 1_555
C5 N1 1_555 1_555
C9 C10 1_555 1_555
C12 O4 1_555 1_555
C16 N3 1_555 1_555
C20 C21 1_555 1_555
C27 C28 1_555 1_555
N1 N2 1_555 1_555
N3 N4 1_555 1_555

#END
