
#######################################################################
#
#                 Cambridge Crystallographic Data Centre
#                                CCDC 
#
#######################################################################
#
# If this CIF has been generated from an entry in the Cambridge 
# Structural Database, then it will include bibliographic, chemical, 
# crystal, experimental, refinement or atomic coordinate data resulting 
# from the CCDC's data processing and validation procedures.
#
#######################################################################

data_PICGAJ01
_chemical_formula_moiety         'C10 H11 N1 O1'
_chemical_name_systematic        3-Amino-1-phenylbut-2-en-1-one
_symmetry_cell_setting           orthorhombic
_symmetry_space_group_name_H-M   'P b c a'
_symmetry_Int_Tables_number      61
_space_group_name_Hall           '-P 2ac 2ab'
loop_
_symmetry_equiv_pos_site_id
_symmetry_equiv_pos_as_xyz
1 x,y,z
2 1/2-x,-y,1/2+z
3 1/2+x,1/2-y,-z
4 -x,1/2+y,1/2-z
5 -x,-y,-z
6 1/2+x,y,1/2-z
7 1/2-x,1/2+y,z
8 x,1/2-y,1/2+z
_cell_length_a                   9.8785(5)
_cell_length_b                   8.7512(4)
_cell_length_c                   19.8710(10)
_cell_angle_alpha                90
_cell_angle_beta                 90
_cell_angle_gamma                90
_cell_volume                     1717.82
_exptl_crystal_colour            colorless
_exptl_crystal_description       blade
_cell_formula_units_Z            8
loop_
_atom_site_label
_atom_site_type_symbol
_atom_site_fract_x
_atom_site_fract_y
_atom_site_fract_z
C1 C -0.45697(17) 0.4000(2) 0.09235(11)
H1 H -0.5155 0.3470 0.0617
H2 H -0.4689 0.5082 0.0871
H3 H -0.4788 0.3712 0.1377
C2 C -0.31293(17) 0.35885(19) 0.07769(9)
C3 C -0.20911(16) 0.4202(2) 0.11501(9)
H4 H -0.2323 0.4788 0.1523
C4 C -0.07051(16) 0.40099(18) 0.10108(9)
C5 C 0.02934(15) 0.49289(18) 0.14083(9)
C6 C 0.00363(17) 0.5409(2) 0.20617(10)
H5 H -0.0752 0.5093 0.2276
C7 C 0.09359(19) 0.6351(2) 0.23983(10)
H6 H 0.0752 0.6661 0.2837
C8 C 0.21049(18) 0.6830(2) 0.20836(11)
H7 H 0.2696 0.7489 0.2304
C9 C 0.23946(18) 0.6330(2) 0.14447(11)
H8 H 0.3194 0.6631 0.1237
C10 C 0.14997(16) 0.53800(19) 0.11091(10)
H9 H 0.1709 0.5040 0.0678
N1 N -0.29218(18) 0.26620(19) 0.02640(9)
O1 O -0.02765(12) 0.31497(15) 0.05534(7)
H10 H -0.202(2) 0.245(3) 0.0165(11)
H11 H -0.364(2) 0.229(3) 0.0001(11)
H12? H -0.4600 0.4706 0.1293
H13? H -0.5066 0.3094 0.1039
H14? H -0.4967 0.4464 0.0533
loop_
_geom_bond_atom_site_label_1
_geom_bond_atom_site_label_2
_geom_bond_site_symmetry_1
_geom_bond_site_symmetry_2
C1 H1 1_555 1_555
H2 C1 1_555 1_555
H3 C1 1_555 1_555
C2 C1 1_555 1_555
C3 C2 1_555 1_555
H4 C3 1_555 1_555
C4 C3 1_555 1_555
C5 C4 1_555 1_555
C6 C5 1_555 1_555
H5 C6 1_555 1_555
C7 C6 1_555 1_555
H6 C7 1_555 1_555
C8 C7 1_555 1_555
H7 C8 1_555 1_555
C9 C8 1_555 1_555
H8 C9 1_555 1_555
C10 C5 1_555 1_555
H9 C10 1_555 1_555
N1 C2 1_555 1_555
O1 C4 1_555 1_555
H10 N1 1_555 1_555
H11 N1 1_555 1_555
C9 C10 1_555 1_555

#END
