
#######################################################################
#
#                 Cambridge Crystallographic Data Centre
#                                CCDC 
#
#######################################################################
#
# If this CIF has been generated from an entry in the Cambridge 
# Structural Database, then it will include bibliographic, chemical, 
# crystal, experimental, refinement or atomic coordinate data resulting 
# from the CCDC's data processing and validation procedures.
#
#######################################################################

data_PICHUH
_chemical_formula_moiety         'C37 H9 F15 N4 O1 Si1,0.5(C6 H14)'
_chemical_name_systematic        
'(5,10,15-tris(pentafluorophenyl)corrolato)-hydroxy-silicon(iv) n-hexane solvate'
_symmetry_cell_setting           triclinic
_symmetry_space_group_name_H-M   'P -1'
_symmetry_Int_Tables_number      2
_space_group_name_Hall           '-P 1'
loop_
_symmetry_equiv_pos_site_id
_symmetry_equiv_pos_as_xyz
1 x,y,z
2 -x,-y,-z
_cell_length_a                   12.922(4)
_cell_length_b                   15.769(4)
_cell_length_c                   18.208(5)
_cell_angle_alpha                102.132(2)
_cell_angle_beta                 103.407(8)
_cell_angle_gamma                99.895(7)
_cell_volume                     3432.26
_exptl_crystal_colour            red
_exptl_crystal_description       Prism
_cell_formula_units_Z            4
_exptl_crystal_recrystallization_method 'Vapour deposition'
loop_
_atom_site_label
_atom_site_type_symbol
_atom_site_fract_x
_atom_site_fract_y
_atom_site_fract_z
Si1 Si 0.26697(6) 0.83187(4) -0.08014(4)
F1 F 0.37571(12) 0.98599(10) -0.31314(9)
F2 F 0.25111(12) 0.72370(9) 0.17903(9)
F3 F -0.00998(12) 0.56065(9) -0.25351(9)
F4 F 0.32436(12) 0.53809(9) -0.30772(9)
F5 F 0.56824(12) 0.68773(10) 0.10114(9)
F6 F 0.22926(14) 0.37803(9) -0.40611(10)
F7 F 0.32707(14) 0.66923(10) 0.30697(10)
F8 F 0.07477(13) 1.04892(10) -0.22408(9)
F9 F -0.10560(13) 0.39775(10) -0.35168(10)
O1 O 0.14529(14) 0.82473(10) -0.06742(10)
H1 H 0.1001 0.8220 -0.1097
F10 F 0.05320(15) 1.16613(11) -0.31175(10)
F11 F 0.01294(14) 0.30611(9) -0.42958(10)
F12 F 0.19251(16) 1.19384(11) -0.40024(11)
F13 F 0.35353(15) 1.10299(12) -0.40045(10)
F14 F 0.52357(16) 0.62350(12) 0.33292(10)
F15 F 0.64309(14) 0.63217(13) 0.22870(11)
N1 N 0.29311(16) 0.72024(12) -0.07699(12)
N2 N 0.31649(16) 0.95037(12) -0.07798(12)
N3 N 0.35335(16) 0.87375(12) 0.02171(12)
N4 N 0.23922(16) 0.80580(12) -0.18808(12)
C1 C 0.2560(2) 0.64329(14) -0.13952(15)
C2 C 0.3276(2) 0.69022(15) -0.00917(15)
C3 C 0.2967(2) 0.99959(15) -0.13145(15)
C4 C 0.2015(2) 0.72021(15) -0.23986(14)
C5 C 0.3388(2) 1.09159(15) -0.09157(15)
H2 H 0.3360 1.1403 -0.1145
C6 C 0.3829(2) 0.83550(15) 0.08207(15)
C7 C 0.3904(2) 0.96503(15) 0.05246(15)
C8 C 0.4055(2) 0.70566(15) 0.13425(15)
C9 C 0.3129(2) 0.59603(15) -0.03232(15)
H3 H 0.3303 0.5592 0.0017
C10 C 0.2192(2) 0.86482(15) -0.23574(15)
C11 C 0.2702(2) 0.56767(15) -0.11059(15)
H4 H 0.2526 0.5077 -0.1411
C12 C 0.2266(2) 1.01428(15) -0.26480(15)
C13 C 0.3684(2) 0.74353(15) 0.06668(15)
C14 C 0.2104(2) 0.64287(15) -0.21600(15)
C15 C 0.2461(2) 0.95746(15) -0.20948(15)
C16 C 0.3840(2) 1.09728(15) -0.01434(16)
H5 H 0.4188 1.1503 0.0261
C17 C 0.3474(2) 0.70008(15) 0.18908(16)
C18 C 0.1687(2) 0.81455(16) -0.31436(15)
H6 H 0.1463 0.8381 -0.3578
C19 C 0.1607(2) 0.55440(15) -0.27510(14)
C20 C 0.0512(2) 0.51627(16) -0.28984(15)
C21 C 0.2186(2) 0.50550(16) -0.31638(15)
C22 C 0.1580(2) 0.72647(16) -0.31648(15)
H7 H 0.1268 0.6778 -0.3617
C23 C 0.4403(2) 0.98446(16) 0.13307(15)
H8 H 0.4715 1.0420 0.1679
C24 C 0.4352(2) 0.90458(15) 0.15187(15)
H9 H 0.4618 0.8966 0.2026
C25 C 0.3690(2) 1.00913(15) -0.00643(15)
C26 C 0.2946(2) 1.02950(16) -0.31189(15)
C27 C 0.5054(2) 0.68196(16) 0.15043(16)
C28 C 0.0612(2) 0.38599(16) -0.37942(15)
C29 C 0.0011(2) 0.43323(16) -0.34049(16)
C30 C 0.1697(2) 0.42233(16) -0.36761(16)
C31 C 0.1453(2) 1.06143(16) -0.26709(16)
C32 C 0.2849(2) 1.08931(18) -0.35656(17)
C33 C 0.3861(2) 0.67293(16) 0.25538(16)
C34 C 0.4860(3) 0.65001(18) 0.26908(17)
C35 C 0.1332(2) 1.12196(17) -0.31131(17)
C36 C 0.2034(3) 1.13586(17) -0.35652(17)
C37 C 0.5455(2) 0.65383(18) 0.21566(18)
Si2 Si 0.15398(6) 0.16827(4) 0.20050(4)
F16 F -0.04478(12) 0.36181(9) 0.05717(8)
F17 F 0.20979(12) 0.27638(9) -0.07735(8)
F18 F -0.13052(12) 0.43167(9) -0.05750(9)
F19 F 0.12063(13) 0.34566(9) -0.19216(9)
F20 F -0.05170(13) 0.42221(10) -0.18369(9)
F21 F 0.08722(12) 0.39909(10) 0.41578(9)
F22 F 0.11454(14) 0.55352(10) 0.52214(9)
F23 F 0.44803(13) 0.48704(10) 0.40117(10)
F24 F 0.30721(15) 0.67464(10) 0.56947(10)
F25 F 0.07561(13) 0.00709(10) 0.41503(9)
O2 O 0.02112(14) 0.15338(11) 0.19234(10)
H10 H 0.0106 0.1548 0.2364
F26 F 0.47482(15) 0.64159(11) 0.50845(11)
F27 F 0.09970(17) -0.09702(11) 0.51397(11)
F28 F 0.39251(15) -0.05047(13) 0.34671(11)
N5 N 0.18099(16) 0.05578(12) 0.19161(12)
N6 N 0.14903(16) 0.13909(12) 0.09656(12)
N7 N 0.19037(17) 0.28677(12) 0.20006(12)
N8 N 0.21779(17) 0.19222(12) 0.30670(12)
F29 F 0.2695(2) -0.17791(13) 0.53060(12)
F30 F 0.4161(2) -0.15418(16) 0.44639(14)
C38 C 0.1942(2) 0.00200(16) 0.24201(15)
C39 C 0.2448(2) 0.27520(15) 0.36167(15)
C40 C 0.2232(2) 0.36098(15) 0.26472(15)
C41 C -0.0015(2) 0.35589(15) -0.00366(15)
C42 C -0.0465(2) 0.39251(15) -0.06198(15)
C43 C 0.1139(2) 0.03675(16) -0.02001(15)
H11 H 0.1053 -0.0177 -0.0576
C44 C 0.1617(2) 0.00278(15) 0.11714(15)
C45 C 0.1430(2) 0.05094(15) 0.06139(15)
C46 C 0.2236(2) 0.43994(15) 0.23900(15)
H12 H 0.2455 0.4992 0.2714
C47 C 0.1000(2) 0.11638(15) -0.03543(15)
H13 H 0.0788 0.1268 -0.0857
C48 C 0.0853(2) 0.31507(15) -0.00525(15)
C49 C 0.2458(2) 0.35522(15) 0.34141(15)
C50 C 0.1244(2) 0.31319(15) -0.07095(15)
C51 C 0.1652(2) 0.32113(15) 0.13406(15)
C52 C 0.2326(2) 0.13037(16) 0.35164(15)
C53 C 0.1813(2) -0.08652(15) 0.19711(16)
H14 H 0.1854 -0.1372 0.2171
C54 C 0.1229(2) 0.18026(15) 0.03746(15)
C55 C 0.2181(2) 0.03890(16) 0.32156(15)
C56 C 0.1272(2) 0.27155(15) 0.05654(15)
C57 C 0.1876(2) 0.41573(15) 0.16031(15)
H15 H 0.1786 0.4553 0.1277
C58 C 0.2663(2) 0.43836(16) 0.40467(15)
C59 C 0.1620(2) -0.08607(16) 0.12020(16)
H16 H 0.1510 -0.1358 0.0771
C60 C 0.0804(2) 0.34899(15) -0.13024(15)
C61 C 0.1845(2) 0.45742(16) 0.43816(15)
C62 C -0.0070(2) 0.38822(16) -0.12620(15)
C63 C 0.2752(2) 0.26419(17) 0.43807(16)
H17 H 0.2969 0.3102 0.4854
C64 C 0.2677(2) 0.17591(16) 0.43149(16)
H18 H 0.2835 0.1493 0.4738
C65 C 0.2328(2) -0.01859(16) 0.37662(16)
C66 C 0.2951(3) 0.59788(16) 0.51656(16)
C67 C 0.1977(2) 0.53612(17) 0.49314(16)
C68 C 0.1606(2) -0.03207(16) 0.42131(16)
C69 C 0.3646(2) 0.50222(17) 0.43017(16)
C70 C 0.3796(2) 0.58154(17) 0.48568(18)
C71 C 0.1716(3) -0.08543(18) 0.47225(18)
C72 C 0.3186(3) -0.0612(2) 0.38709(18)
C73 C 0.2576(3) -0.1264(2) 0.4807(2)
C74 C 0.3314(3) -0.1148(2) 0.4376(2)
C75 C 0.5358(2) 0.74189(17) 0.80859(16)
H19 H 0.6051 0.7867 0.8366
H20 H 0.4761 0.7641 0.8261
C76 C 0.5060(2) 0.81755(18) 0.69626(18)
H21 H 0.4432 0.8378 0.7090
H22 H 0.4964 0.8064 0.6398
H23 H 0.5731 0.8636 0.7242
C77 C 0.5429(2) 0.65445(17) 0.82982(16)
H24 H 0.4715 0.6114 0.8045
H25 H 0.5982 0.6300 0.8079
C78 C 0.5146(2) 0.73177(18) 0.72085(17)
H26 H 0.5745 0.7094 0.7038
H27 H 0.4457 0.6863 0.6933
C79 C 0.5725(2) 0.66096(17) 0.91658(16)
H28 H 0.5165 0.6838 0.9388
H29 H 0.6435 0.7042 0.9425
C80 C 0.5803(2) 0.57087(18) 0.93404(18)
H30 H 0.5085 0.5292 0.9122
H31 H 0.6039 0.5791 0.9908
H32 H 0.6334 0.5468 0.9103
loop_
_geom_bond_atom_site_label_1
_geom_bond_atom_site_label_2
_geom_bond_site_symmetry_1
_geom_bond_site_symmetry_2
Si1 O1 1_555 1_555
F1 C26 1_555 1_555
F2 C17 1_555 1_555
F3 C20 1_555 1_555
F4 C21 1_555 1_555
F5 C27 1_555 1_555
F6 C30 1_555 1_555
F7 C33 1_555 1_555
F8 C31 1_555 1_555
F9 C29 1_555 1_555
O1 H1 1_555 1_555
F10 C35 1_555 1_555
F11 C28 1_555 1_555
F12 C36 1_555 1_555
F13 C32 1_555 1_555
F14 C34 1_555 1_555
F15 C37 1_555 1_555
N1 Si1 1_555 1_555
N2 Si1 1_555 1_555
N3 Si1 1_555 1_555
N4 Si1 1_555 1_555
C1 N1 1_555 1_555
C2 N1 1_555 1_555
C3 N2 1_555 1_555
C4 N4 1_555 1_555
C5 C3 1_555 1_555
H2 C5 1_555 1_555
C6 N3 1_555 1_555
C7 N3 1_555 1_555
C8 C13 1_555 1_555
C9 C2 1_555 1_555
H3 C9 1_555 1_555
C10 N4 1_555 1_555
C11 C1 1_555 1_555
H4 C11 1_555 1_555
C12 C15 1_555 1_555
C13 C2 1_555 1_555
C14 C1 1_555 1_555
C15 C3 1_555 1_555
C16 C5 1_555 1_555
H5 C16 1_555 1_555
C17 C8 1_555 1_555
C18 C10 1_555 1_555
H6 C18 1_555 1_555
C19 C14 1_555 1_555
C20 C19 1_555 1_555
C21 C19 1_555 1_555
C22 C4 1_555 1_555
H7 C22 1_555 1_555
C23 C7 1_555 1_555
H8 C23 1_555 1_555
C24 C6 1_555 1_555
H9 C24 1_555 1_555
C25 N2 1_555 1_555
C26 C12 1_555 1_555
C27 C8 1_555 1_555
C28 C29 1_555 1_555
C29 C20 1_555 1_555
C30 C21 1_555 1_555
C31 C12 1_555 1_555
C32 C26 1_555 1_555
C33 C17 1_555 1_555
C34 C33 1_555 1_555
C35 C31 1_555 1_555
C36 C32 1_555 1_555
C37 C27 1_555 1_555
Si2 O2 1_555 1_555
F16 C41 1_555 1_555
F17 C50 1_555 1_555
F18 C42 1_555 1_555
F19 C60 1_555 1_555
F20 C62 1_555 1_555
F21 C61 1_555 1_555
F22 C67 1_555 1_555
F23 C69 1_555 1_555
F24 C66 1_555 1_555
F25 C68 1_555 1_555
O2 H10 1_555 1_555
F26 C70 1_555 1_555
F27 C71 1_555 1_555
F28 C72 1_555 1_555
N5 Si2 1_555 1_555
N6 Si2 1_555 1_555
N7 Si2 1_555 1_555
N8 Si2 1_555 1_555
F29 C73 1_555 1_555
F30 C74 1_555 1_555
C38 N5 1_555 1_555
C39 N8 1_555 1_555
C40 N7 1_555 1_555
C41 C42 1_555 1_555
C42 C62 1_555 1_555
C43 H11 1_555 1_555
C44 N5 1_555 1_555
C45 N6 1_555 1_555
C46 C40 1_555 1_555
H12 C46 1_555 1_555
C47 C43 1_555 1_555
H13 C47 1_555 1_555
C48 C41 1_555 1_555
C49 C39 1_555 1_555
C50 C48 1_555 1_555
C51 N7 1_555 1_555
C52 N8 1_555 1_555
C53 C38 1_555 1_555
H14 C53 1_555 1_555
C54 N6 1_555 1_555
C55 C38 1_555 1_555
C56 C48 1_555 1_555
C57 C46 1_555 1_555
H15 C57 1_555 1_555
C58 C49 1_555 1_555
C59 C44 1_555 1_555
H16 C59 1_555 1_555
C60 C50 1_555 1_555
C61 C58 1_555 1_555
C62 C60 1_555 1_555
C63 C39 1_555 1_555
H17 C63 1_555 1_555
C64 C52 1_555 1_555
H18 C64 1_555 1_555
C65 C55 1_555 1_555
C66 C67 1_555 1_555
C67 C61 1_555 1_555
C68 C65 1_555 1_555
C69 C58 1_555 1_555
C70 C66 1_555 1_555
C71 C68 1_555 1_555
C72 C65 1_555 1_555
C73 C71 1_555 1_555
C74 C72 1_555 1_555
C75 H19 1_555 1_555
H20 C75 1_555 1_555
C76 H21 1_555 1_555
H22 C76 1_555 1_555
H23 C76 1_555 1_555
C77 C75 1_555 1_555
H24 C77 1_555 1_555
H25 C77 1_555 1_555
C78 C75 1_555 1_555
H26 C78 1_555 1_555
H27 C78 1_555 1_555
C79 C77 1_555 1_555
H28 C79 1_555 1_555
H29 C79 1_555 1_555
C80 C79 1_555 1_555
H30 C80 1_555 1_555
H31 C80 1_555 1_555
H32 C80 1_555 1_555
C4 C14 1_555 1_555
C6 C13 1_555 1_555
C7 C25 1_555 1_555
C9 C11 1_555 1_555
C10 C15 1_555 1_555
C16 C25 1_555 1_555
C18 C22 1_555 1_555
C23 C24 1_555 1_555
C28 C30 1_555 1_555
C34 C37 1_555 1_555
C35 C36 1_555 1_555
C40 C49 1_555 1_555
C43 C45 1_555 1_555
C44 C45 1_555 1_555
C47 C54 1_555 1_555
C51 C56 1_555 1_555
C51 C57 1_555 1_555
C52 C55 1_555 1_555
C53 C59 1_555 1_555
C54 C56 1_555 1_555
C63 C64 1_555 1_555
C69 C70 1_555 1_555
C73 C74 1_555 1_555
C76 C78 1_555 1_555

#END
