
#######################################################################
#
#                 Cambridge Crystallographic Data Centre
#                                CCDC 
#
#######################################################################
#
# If this CIF has been generated from an entry in the Cambridge 
# Structural Database, then it will include bibliographic, chemical, 
# crystal, experimental, refinement or atomic coordinate data resulting 
# from the CCDC's data processing and validation procedures.
#
#######################################################################

data_PICJUJ
_chemical_formula_moiety         'C74 H16 F30 N8 O1 Si2,C6 H14'
_chemical_name_systematic        
'(\m-oxo)-bis(5,10,15-tris(pentafluorophenyl)corrolato)-di-silicon(iv) n-hexane solvate'
_symmetry_cell_setting           orthorhombic
_symmetry_space_group_name_H-M   'P b c a'
_symmetry_Int_Tables_number      61
_space_group_name_Hall           '-P 2ac 2ab'
loop_
_symmetry_equiv_pos_site_id
_symmetry_equiv_pos_as_xyz
1 x,y,z
2 1/2-x,-y,1/2+z
3 1/2+x,1/2-y,-z
4 -x,1/2+y,1/2-z
5 -x,-y,-z
6 1/2+x,y,1/2-z
7 1/2-x,1/2+y,z
8 x,1/2-y,1/2+z
_cell_length_a                   16.3742(17)
_cell_length_b                   29.051(3)
_cell_length_c                   29.055(3)
_cell_angle_alpha                90
_cell_angle_beta                 90
_cell_angle_gamma                90
_cell_volume                     13821.1
_exptl_crystal_colour            red
_exptl_crystal_description       Prism
_cell_formula_units_Z            8
_exptl_crystal_recrystallization_method 'Vapour deposition'
loop_
_atom_site_label
_atom_site_type_symbol
_atom_site_fract_x
_atom_site_fract_y
_atom_site_fract_z
Si1 Si 0.68057(4) 0.34642(2) 0.68359(2)
Si2 Si 0.49063(4) 0.32810(2) 0.66492(2)
F1 F 0.46736(8) 0.50586(5) 0.72113(5)
F2 F 0.38057(9) 0.15629(5) 0.70446(5)
F3 F 0.61455(9) 0.38787(5) 0.51146(5)
F4 F 0.25411(9) 0.46209(5) 0.62053(5)
F5 F 0.38370(10) 0.06469(5) 0.70443(5)
F6 F 0.76559(10) 0.52550(5) 0.73279(5)
F7 F 0.54586(9) 0.49851(5) 0.63167(5)
F8 F 0.69600(9) 0.28870(5) 0.50609(5)
F9 F 0.42404(9) 0.26882(5) 0.48473(5)
F10 F 0.65496(9) 0.15848(5) 0.65368(6)
O1 O 0.58542(9) 0.34298(5) 0.66936(5)
F11 F 0.52021(11) 0.01853(5) 0.67756(5)
F12 F 0.41252(10) 0.59252(5) 0.72005(5)
F13 F 0.65192(10) 0.38885(6) 0.42221(5)
F14 F 0.90659(10) 0.39322(5) 0.54489(6)
F15 F 0.52076(9) 0.34081(6) 0.85573(5)
F16 F 0.20051(10) 0.54920(6) 0.61975(5)
F17 F 0.58258(10) 0.32694(6) 0.36385(5)
F18 F 0.27770(10) 0.61494(5) 0.66997(5)
F19 F 0.65499(10) 0.06655(5) 0.65148(6)
F20 F 0.74610(11) 0.28976(6) 0.41863(5)
F21 F 0.80521(9) 0.31626(7) 0.85151(5)
F22 F 0.46978(10) 0.26667(6) 0.39614(5)
F23 F 0.66461(11) 0.30929(6) 0.99157(5)
F24 F 0.52214(11) 0.32540(6) 0.94729(6)
F25 F 0.73904(12) 0.61567(5) 0.72744(6)
F26 F 0.51861(11) 0.58918(6) 0.62668(7)
F27 F 0.61353(12) 0.64891(5) 0.67506(7)
F28 F 0.80614(11) 0.30378(7) 0.94316(6)
F29 F 0.87504(11) 0.34256(7) 0.39318(6)
F30 F 0.95674(11) 0.39251(6) 0.45717(6)
N1 N 0.67351(11) 0.38770(6) 0.73198(6)
N2 N 0.45404(11) 0.36904(7) 0.62054(6)
N3 N 0.43703(11) 0.36384(7) 0.70816(6)
N4 N 0.49955(12) 0.28017(6) 0.62300(6)
N5 N 0.73267(12) 0.30351(6) 0.64689(7)
N6 N 0.71676(11) 0.39089(6) 0.64255(6)
N7 N 0.47610(12) 0.28440(6) 0.71032(6)
N8 N 0.69710(12) 0.30069(6) 0.72675(6)
C1 C 0.70084(14) 0.43778(8) 0.64662(8)
C2 C 0.51322(14) 0.28560(8) 0.57601(7)
C3 C 0.42967(14) 0.34596(8) 0.75193(8)
C4 C 0.40478(14) 0.40740(8) 0.70938(8)
C5 C 0.65969(14) 0.43482(8) 0.72723(8)
C6 C 0.46955(14) 0.36565(8) 0.57347(8)
C7 C 0.49183(15) 0.23816(8) 0.71428(8)
C8 C 0.50039(14) 0.32644(8) 0.55242(8)
C9 C 0.51561(15) 0.23357(8) 0.63243(8)
C10 C 0.68563(14) 0.29672(8) 0.77345(8)
C11 C 0.66004(14) 0.37814(8) 0.77893(8)
C12 C 0.51134(15) 0.21272(8) 0.67549(8)
C13 C 0.45275(14) 0.29988(8) 0.75310(8)
C14 C 0.42156(14) 0.41365(8) 0.62705(8)
C15 C 0.72073(14) 0.25809(8) 0.71074(8)
C16 C 0.39765(14) 0.43258(8) 0.66897(8)
C17 C 0.67121(14) 0.45840(8) 0.68602(8)
C18 C 0.66683(14) 0.33510(8) 0.79939(8)
C19 C 0.65510(15) 0.50862(8) 0.68388(8)
C20 C 0.74111(15) 0.25956(8) 0.66426(8)
C21 C 0.51805(15) 0.32808(8) 0.50210(8)
C22 C 0.40098(15) 0.51511(9) 0.69545(8)
C23 C 0.37879(15) 0.41703(9) 0.75507(8)
H1 H 0.3547 0.4449 0.7655
C24 C 0.39466(15) 0.37889(9) 0.78130(8)
H2 H 0.3840 0.3754 0.8132
C25 C 0.36416(14) 0.48032(8) 0.67016(8)
C26 C 0.53842(15) 0.21143(9) 0.59074(8)
H3 H 0.5513 0.1797 0.5874
C27 C 0.53870(15) 0.24304(8) 0.55685(8)
H4 H 0.5534 0.2378 0.5257
C28 C 0.45045(16) 0.13555(8) 0.69223(8)
C29 C 0.41774(15) 0.43619(9) 0.58373(8)
H5 H 0.3982 0.4665 0.5785
C30 C 0.74582(14) 0.38479(8) 0.59708(8)
C31 C 0.48047(16) 0.22523(9) 0.76099(8)
H6 H 0.4887 0.1954 0.7735
C32 C 0.66326(15) 0.32991(8) 0.85034(8)
C33 C 0.44668(15) 0.40717(9) 0.55137(8)
H7 H 0.4510 0.4135 0.5194
C34 C 0.51748(16) 0.16152(8) 0.67874(8)
C35 C 0.63651(16) 0.45373(8) 0.77003(8)
H8 H 0.6224 0.4849 0.7757
C36 C 0.45109(16) 0.08810(8) 0.69195(8)
C37 C 0.63795(16) 0.41946(8) 0.80158(8)
H9 H 0.6262 0.4226 0.8334
C38 C 0.76093(15) 0.30254(8) 0.60235(8)
C39 C 0.76707(15) 0.34298(8) 0.57715(8)
C40 C 0.57508(16) 0.35857(9) 0.48381(8)
C41 C 0.70089(16) 0.25023(8) 0.78614(9)
H10 H 0.6968 0.2378 0.8163
C42 C 0.45555(15) 0.26344(9) 0.78486(8)
H11 H 0.4427 0.2650 0.8167
C43 C 0.59347(15) 0.52670(9) 0.65627(9)
C44 C 0.79835(16) 0.34176(9) 0.52909(9)
C45 C 0.51953(18) 0.06458(9) 0.67807(9)
C46 C 0.48234(15) 0.29825(9) 0.47080(8)
C47 C 0.70274(16) 0.54018(8) 0.70719(8)
C48 C 0.78494(16) 0.25694(9) 0.59173(9)
H12 H 0.8056 0.2465 0.5630
C49 C 0.37348(17) 0.56020(9) 0.69540(9)
C50 C 0.58636(16) 0.13657(9) 0.66633(9)
C51 C 0.74721(16) 0.42823(8) 0.57482(8)
H13 H 0.7642 0.4338 0.5441
C52 C 0.72032(15) 0.46024(8) 0.60470(8)
H14 H 0.7153 0.4923 0.5988
C53 C 0.77308(16) 0.23059(9) 0.63012(9)
H15 H 0.7844 0.1987 0.6331
C54 C 0.59204(16) 0.33197(8) 0.87638(9)
C55 C 0.29509(15) 0.49338(9) 0.64545(8)
C56 C 0.59617(16) 0.35875(9) 0.43780(9)
C57 C 0.72247(16) 0.22654(8) 0.74753(9)
H16 H 0.7361 0.1948 0.7458
C58 C 0.56146(17) 0.32763(10) 0.40830(8)
C59 C 0.26669(16) 0.53819(10) 0.64485(9)
C60 C 0.76096(16) 0.31484(9) 0.49538(9)
C61 C 0.30590(17) 0.57175(9) 0.67001(9)
C62 C 0.50435(17) 0.29718(10) 0.42481(8)
C63 C 0.59205(17) 0.32455(9) 0.92328(9)
C64 C 0.73454(16) 0.32028(9) 0.87451(9)
C65 C 0.78633(18) 0.31467(10) 0.45023(9)
C66 C 0.58735(17) 0.08905(9) 0.66513(9)
C67 C 0.57902(17) 0.57324(9) 0.65329(10)
C68 C 0.86534(17) 0.36737(9) 0.51472(9)
C69 C 0.66404(18) 0.31618(10) 0.94583(9)
C70 C 0.73605(17) 0.31357(10) 0.92147(9)
C71 C 0.68945(19) 0.58694(9) 0.70450(9)
C72 C 0.6267(2) 0.60352(9) 0.67800(10)
C73 C 0.85147(19) 0.34147(11) 0.43715(9)
C74 C 0.89174(18) 0.36730(10) 0.46950(10)
C81 C 0.2937(9) 0.0999(4) -0.0615(3)
H31 H 0.3391 0.0780 -0.0599
H32 H 0.3153 0.1314 -0.0616
H33 H 0.2625 0.0946 -0.0898
C82 C 0.1848(12) 0.0577(7) -0.0258(6)
H34 H 0.2147 0.0291 -0.0333
H35 H 0.1450 0.0646 -0.0505
C83 C 0.2354(11) 0.0931(6) -0.0180(6)
H36 H 0.2687 0.0868 0.0098
H37 H 0.2035 0.1215 -0.0125
C84 C 0.1426(8) 0.0552(4) 0.0231(4)
H38 H 0.1828 0.0626 0.0475
H39 H 0.0974 0.0778 0.0249
C85 C 0.1107(8) 0.0082(4) 0.0299(4)
H40 H 0.1548 -0.0120 0.0415
H41 H 0.0916 -0.0043 0.0000
C86 C 0.040(2) 0.0086(12) 0.0640(11)
H42 H 0.0467 0.0347 0.0850
H43 H 0.0405 -0.0201 0.0816
H44 H -0.0114 0.0115 0.0473
C75? C 0.3119(9) 0.1219(4) -0.0527(4)
H17? H 0.3313 0.1377 -0.0250
H18? H 0.2851 0.1442 -0.0731
H19? H 0.3584 0.1080 -0.0688
C76? C 0.2274(8) 0.0516(4) -0.0077(4)
H20? H 0.2545 0.0631 0.0205
H21? H 0.2617 0.0254 -0.0177
C77? C 0.2530(14) 0.0856(6) -0.0397(6)
H22? H 0.2015 0.1032 -0.0426
H23? H 0.2549 0.0666 -0.0679
C78? C 0.0432(6) 0.0138(4) 0.0749(3)
H24? H 0.0281 -0.0128 0.0560
H25? H -0.0063 0.0297 0.0852
H26? H 0.0743 0.0033 0.1017
C79? C 0.0942(5) 0.0460(3) 0.0473(3)
H27? H 0.1237 0.0662 0.0692
H28? H 0.0565 0.0659 0.0296
C80? C 0.1585(8) 0.0267(5) 0.0127(5)
H29? H 0.1828 -0.0005 0.0281
H30? H 0.1266 0.0146 -0.0136
loop_
_geom_bond_atom_site_label_1
_geom_bond_atom_site_label_2
_geom_bond_site_symmetry_1
_geom_bond_site_symmetry_2
Si1 O1 1_555 1_555
Si2 O1 1_555 1_555
F1 C22 1_555 1_555
F2 C28 1_555 1_555
F3 C40 1_555 1_555
F4 C55 1_555 1_555
F5 C36 1_555 1_555
F6 C47 1_555 1_555
F7 C43 1_555 1_555
F8 C60 1_555 1_555
F9 C46 1_555 1_555
F10 C50 1_555 1_555
F11 C45 1_555 1_555
F12 C49 1_555 1_555
F13 C56 1_555 1_555
F14 C68 1_555 1_555
F15 C54 1_555 1_555
F16 C59 1_555 1_555
F17 C58 1_555 1_555
F18 C61 1_555 1_555
F19 C66 1_555 1_555
F20 C65 1_555 1_555
F21 C64 1_555 1_555
F22 C62 1_555 1_555
F23 C69 1_555 1_555
F24 C63 1_555 1_555
F25 C71 1_555 1_555
F26 C67 1_555 1_555
F27 C72 1_555 1_555
F28 C70 1_555 1_555
F29 C73 1_555 1_555
F30 C74 1_555 1_555
N1 Si1 1_555 1_555
N2 Si2 1_555 1_555
N3 Si2 1_555 1_555
N4 Si2 1_555 1_555
N5 Si1 1_555 1_555
N6 Si1 1_555 1_555
N7 Si2 1_555 1_555
N8 Si1 1_555 1_555
C1 N6 1_555 1_555
C2 N4 1_555 1_555
C3 N3 1_555 1_555
C4 N3 1_555 1_555
C5 N1 1_555 1_555
C6 N2 1_555 1_555
C7 N7 1_555 1_555
C8 C2 1_555 1_555
C9 N4 1_555 1_555
C10 N8 1_555 1_555
C11 N1 1_555 1_555
C12 C7 1_555 1_555
C13 N7 1_555 1_555
C14 N2 1_555 1_555
C15 N8 1_555 1_555
C16 C4 1_555 1_555
C17 C1 1_555 1_555
C18 C10 1_555 1_555
C19 C17 1_555 1_555
C20 N5 1_555 1_555
C21 C8 1_555 1_555
C22 C25 1_555 1_555
C23 C4 1_555 1_555
H1 C23 1_555 1_555
C24 C3 1_555 1_555
H2 C24 1_555 1_555
C25 C16 1_555 1_555
C26 C9 1_555 1_555
H3 C26 1_555 1_555
C27 C2 1_555 1_555
H4 C27 1_555 1_555
C28 C34 1_555 1_555
C29 C14 1_555 1_555
H5 C29 1_555 1_555
C30 N6 1_555 1_555
C31 C7 1_555 1_555
H6 C31 1_555 1_555
C32 C18 1_555 1_555
C33 C6 1_555 1_555
H7 C33 1_555 1_555
C34 C12 1_555 1_555
C35 C5 1_555 1_555
H8 C35 1_555 1_555
C36 C28 1_555 1_555
C37 C11 1_555 1_555
H9 C37 1_555 1_555
C38 N5 1_555 1_555
C39 C30 1_555 1_555
C40 C21 1_555 1_555
C41 C10 1_555 1_555
H10 C41 1_555 1_555
C42 C13 1_555 1_555
H11 C42 1_555 1_555
C43 C19 1_555 1_555
C44 C39 1_555 1_555
C45 C36 1_555 1_555
C46 C21 1_555 1_555
C47 C19 1_555 1_555
C48 C38 1_555 1_555
H12 C48 1_555 1_555
C49 C22 1_555 1_555
C50 C34 1_555 1_555
C51 C30 1_555 1_555
H13 C51 1_555 1_555
C52 C1 1_555 1_555
H14 C52 1_555 1_555
C53 C20 1_555 1_555
H15 C53 1_555 1_555
C54 C32 1_555 1_555
C55 C25 1_555 1_555
C56 C40 1_555 1_555
C57 C15 1_555 1_555
H16 C57 1_555 1_555
C58 C56 1_555 1_555
C59 C55 1_555 1_555
C60 C44 1_555 1_555
C61 C49 1_555 1_555
C62 C46 1_555 1_555
C63 C54 1_555 1_555
C64 C32 1_555 1_555
C65 C60 1_555 1_555
C66 C45 1_555 1_555
C67 C43 1_555 1_555
C68 C44 1_555 1_555
C69 C63 1_555 1_555
C70 C64 1_555 1_555
C71 C47 1_555 1_555
C72 C67 1_555 1_555
C73 C65 1_555 1_555
C74 C68 1_555 1_555
C81 H31 1_555 1_555
H32 C81 1_555 1_555
H33 C81 1_555 1_555
C82 H34 1_555 1_555
H35 C82 1_555 1_555
C83 C81 1_555 1_555
H36 C83 1_555 1_555
H37 C83 1_555 1_555
C84 C82 1_555 1_555
H38 C84 1_555 1_555
H39 C84 1_555 1_555
C85 C84 1_555 1_555
H40 C85 1_555 1_555
H41 C85 1_555 1_555
C86 C85 1_555 1_555
H42 C86 1_555 1_555
H43 C86 1_555 1_555
H44 C86 1_555 1_555
C3 C13 1_555 1_555
C5 C17 1_555 1_555
C6 C8 1_555 1_555
C9 C12 1_555 1_555
C11 C18 1_555 1_555
C14 C16 1_555 1_555
C15 C20 1_555 1_555
C23 C24 1_555 1_555
C26 C27 1_555 1_555
C29 C33 1_555 1_555
C31 C42 1_555 1_555
C35 C37 1_555 1_555
C38 C39 1_555 1_555
C41 C57 1_555 1_555
C48 C53 1_555 1_555
C50 C66 1_555 1_555
C51 C52 1_555 1_555
C58 C62 1_555 1_555
C59 C61 1_555 1_555
C69 C70 1_555 1_555
C71 C72 1_555 1_555
C73 C74 1_555 1_555
C82 C83 1_555 1_555

#END
