
#######################################################################
#
#                 Cambridge Crystallographic Data Centre
#                                CCDC 
#
#######################################################################
#
# If this CIF has been generated from an entry in the Cambridge 
# Structural Database, then it will include bibliographic, chemical, 
# crystal, experimental, refinement or atomic coordinate data resulting 
# from the CCDC's data processing and validation procedures.
#
#######################################################################

data_PICKOE
_chemical_formula_moiety         'C23 H22 F3 N2 P1'
_chemical_name_systematic        
1-(2,2,2-trifluoroethylidene)-2-(tris(2-methylphenyl)phosphoranylidene)hydrazine
_symmetry_cell_setting           triclinic
_symmetry_space_group_name_H-M   'P -1'
_symmetry_Int_Tables_number      2
_space_group_name_Hall           '-P 1'
loop_
_symmetry_equiv_pos_site_id
_symmetry_equiv_pos_as_xyz
1 x,y,z
2 -x,-y,-z
_cell_length_a                   9.717(5)
_cell_length_b                   11.627(6)
_cell_length_c                   19.188(9)
_cell_angle_alpha                89.539(9)
_cell_angle_beta                 87.356(10)
_cell_angle_gamma                89.196(7)
_cell_volume                     2165.27
_exptl_crystal_colour            colorless
_exptl_crystal_description       block
_cell_formula_units_Z            4
loop_
_atom_site_label
_atom_site_type_symbol
_atom_site_fract_x
_atom_site_fract_y
_atom_site_fract_z
C1 C 0.8092(3) 0.6184(3) 0.40696(16)
C2 C 0.7458(3) 0.5474(3) 0.45685(17)
H1 H 0.7581 0.5607 0.5039
C3 C 0.6642(4) 0.4565(3) 0.4377(2)
H2 H 0.6230 0.4092 0.4717
C4 C 0.6448(4) 0.4372(3) 0.3684(3)
H3 H 0.5897 0.3772 0.3551
C5 C 0.7077(4) 0.5076(4) 0.3188(2)
H4 H 0.6939 0.4940 0.2720
C6 C 0.7913(3) 0.5982(3) 0.33612(17)
C7 C 0.8587(5) 0.6676(4) 0.27801(19)
H5 H 0.8047 0.7358 0.2701
H6 H 0.8651 0.6226 0.2362
H7 H 0.9495 0.6886 0.2905
C8 C 0.8897(3) 0.7393(3) 0.53019(16)
C9 C 1.0022(4) 0.7064(3) 0.56942(17)
H8 H 1.0843 0.6829 0.5467
C10 C 0.9921(5) 0.7085(4) 0.64153(19)
H9 H 1.0675 0.6869 0.6670
C11 C 0.8721(5) 0.7419(4) 0.6752(2)
H10 H 0.8656 0.7434 0.7237
C12 C 0.7600(4) 0.7738(4) 0.63747(19)
H11 H 0.6783 0.7957 0.6612
C13 C 0.7661(3) 0.7741(3) 0.56479(17)
C14 C 0.6382(4) 0.8072(4) 0.5271(2)
H12 H 0.5637 0.8221 0.5606
H13 H 0.6140 0.7455 0.4973
H14 H 0.6556 0.8751 0.4995
C15 C 1.0902(3) 0.7072(3) 0.41488(15)
C16 C 1.1275(4) 0.6004(3) 0.38719(17)
H15 H 1.0606 0.5446 0.3836
C17 C 1.2618(5) 0.5755(4) 0.3649(2)
H16 H 1.2848 0.5041 0.3459
C18 C 1.3612(5) 0.6577(5) 0.3712(3)
H17 H 1.4517 0.6421 0.3560
C19 C 1.3273(4) 0.7617(5) 0.3997(3)
H18 H 1.3967 0.8152 0.4040
C20 C 1.1935(4) 0.7920(3) 0.4227(2)
C21 C 1.1665(5) 0.9069(4) 0.4547(3)
H19 H 1.2506 0.9362 0.4715
H20 H 1.0996 0.8998 0.4928
H21 H 1.1319 0.9589 0.4203
C22 C 0.7555(4) 0.9878(4) 0.3446(2)
H22 H 0.8295 1.0375 0.3450
C23 C 0.6299(5) 1.0229(5) 0.3118(3)
F1 F 0.6463(4) 1.0282(5) 0.2434(2)
F2 F 0.6052(5) 1.1356(4) 0.3202(3)
F3 F 0.5274(4) 0.9742(6) 0.3275(4)
N1 N 0.8865(3) 0.8615(3) 0.39906(17)
N2 N 0.7640(3) 0.8872(3) 0.37296(15)
P1 P 0.91098(8) 0.73880(7) 0.43563(4)
C24 C 0.1043(3) 0.0949(3) 0.13631(15)
C25 C -0.0077(4) 0.0205(3) 0.14353(18)
H23 H -0.0863 0.0360 0.1190
C26 C -0.0038(4) -0.0748(4) 0.1861(2)
H24 H -0.0795 -0.1229 0.1906
C27 C 0.1130(5) -0.0991(4) 0.2222(2)
H25 H 0.1158 -0.1631 0.2515
C28 C 0.2239(4) -0.0292(4) 0.2148(2)
H26 H 0.3018 -0.0470 0.2395
C29 C 0.2255(3) 0.0685(3) 0.17165(17)
C30 C 0.3537(4) 0.1388(4) 0.1645(2)
H27 H 0.3528 0.1947 0.2011
H28 H 0.3573 0.1775 0.1201
H29 H 0.4331 0.0893 0.1678
C31 C -0.0889(3) 0.2328(3) 0.05923(17)
C32 C -0.1169(4) 0.2095(3) -0.00983(19)
H30 H -0.0454 0.1871 -0.0409
C33 C -0.2492(5) 0.2192(4) -0.0327(2)
H31 H -0.2663 0.2038 -0.0790
C34 C -0.3544(5) 0.2510(4) 0.0124(3)
H32 H -0.4435 0.2573 -0.0031
C35 C -0.3296(4) 0.2739(4) 0.0805(3)
H33 H -0.4028 0.2966 0.1105
C36 C -0.1983(3) 0.2642(3) 0.10651(19)
C37 C -0.1809(4) 0.2880(4) 0.1820(2)
H34 H -0.1267 0.3557 0.1864
H35 H -0.1351 0.2237 0.2030
H36 H -0.2697 0.2997 0.2051
C38 C 0.1974(3) 0.2055(3) 0.00642(15)
C39 C 0.2573(3) 0.0986(3) -0.00599(17)
H37 H 0.2401 0.0392 0.0258
C40 C 0.3426(4) 0.0777(4) -0.0647(2)
H38 H 0.3819 0.0052 -0.0723
C41 C 0.3679(4) 0.1654(5) -0.1112(2)
H39 H 0.4257 0.1529 -0.1504
C42 C 0.3087(4) 0.2718(4) -0.10022(18)
H40 H 0.3274 0.3299 -0.1327
C43 C 0.2211(4) 0.2966(3) -0.04220(17)
C44 C 0.1575(5) 0.4139(4) -0.0355(2)
H41 H 0.2193 0.4638 -0.0130
H42 H 0.0725 0.4094 -0.0081
H43 H 0.1397 0.4439 -0.0810
C45 C 0.2529(4) 0.4779(4) 0.1610(2)
H44 H 0.1788 0.5114 0.1861
C46 C 0.3883(5) 0.5295(4) 0.1611(3)
F4 F 0.4593(3) 0.5236(3) 0.10164(19)
F5 F 0.3812(3) 0.6388(3) 0.1810(2)
F6 F 0.4677(4) 0.4789(4) 0.2064(2)
N3 N 0.1085(3) 0.3423(3) 0.12794(17)
N4 N 0.2361(3) 0.3864(2) 0.12625(14)
P2 P 0.08822(8) 0.22554(7) 0.08464(4)
loop_
_geom_bond_atom_site_label_1
_geom_bond_atom_site_label_2
_geom_bond_site_symmetry_1
_geom_bond_site_symmetry_2
C1 C2 1_555 1_555
C2 H1 1_555 1_555
C3 C2 1_555 1_555
H2 C3 1_555 1_555
C4 C3 1_555 1_555
H3 C4 1_555 1_555
C5 C4 1_555 1_555
H4 C5 1_555 1_555
C6 C1 1_555 1_555
C7 C6 1_555 1_555
H5 C7 1_555 1_555
H6 C7 1_555 1_555
H7 C7 1_555 1_555
C8 C9 1_555 1_555
C9 H8 1_555 1_555
C10 C9 1_555 1_555
H9 C10 1_555 1_555
C11 C10 1_555 1_555
H10 C11 1_555 1_555
C12 C11 1_555 1_555
H11 C12 1_555 1_555
C13 C8 1_555 1_555
C14 C13 1_555 1_555
H12 C14 1_555 1_555
H13 C14 1_555 1_555
H14 C14 1_555 1_555
C15 C16 1_555 1_555
C16 H15 1_555 1_555
C17 C16 1_555 1_555
H16 C17 1_555 1_555
C18 C17 1_555 1_555
H17 C18 1_555 1_555
C19 C18 1_555 1_555
H18 C19 1_555 1_555
C20 C15 1_555 1_555
C21 C20 1_555 1_555
H19 C21 1_555 1_555
H20 C21 1_555 1_555
H21 C21 1_555 1_555
C22 H22 1_555 1_555
C23 C22 1_555 1_555
F1 C23 1_555 1_555
F2 C23 1_555 1_555
F3 C23 1_555 1_555
N1 N2 1_555 1_555
N2 C22 1_555 1_555
P1 C1 1_555 1_555
C24 C25 1_555 1_555
C25 H23 1_555 1_555
C26 C25 1_555 1_555
H24 C26 1_555 1_555
C27 C26 1_555 1_555
H25 C27 1_555 1_555
C28 C27 1_555 1_555
H26 C28 1_555 1_555
C29 C24 1_555 1_555
C30 C29 1_555 1_555
H27 C30 1_555 1_555
H28 C30 1_555 1_555
H29 C30 1_555 1_555
C31 C32 1_555 1_555
C32 H30 1_555 1_555
C33 C32 1_555 1_555
H31 C33 1_555 1_555
C34 C33 1_555 1_555
H32 C34 1_555 1_555
C35 C34 1_555 1_555
H33 C35 1_555 1_555
C36 C31 1_555 1_555
C37 C36 1_555 1_555
H34 C37 1_555 1_555
H35 C37 1_555 1_555
H36 C37 1_555 1_555
C38 C39 1_555 1_555
C39 H37 1_555 1_555
C40 C39 1_555 1_555
H38 C40 1_555 1_555
C41 C40 1_555 1_555
H39 C41 1_555 1_555
C42 C41 1_555 1_555
H40 C42 1_555 1_555
C43 C38 1_555 1_555
C44 C43 1_555 1_555
H41 C44 1_555 1_555
H42 C44 1_555 1_555
H43 C44 1_555 1_555
C45 H44 1_555 1_555
C46 C45 1_555 1_555
F4 C46 1_555 1_555
F5 C46 1_555 1_555
F6 C46 1_555 1_555
N3 N4 1_555 1_555
N4 C45 1_555 1_555
P2 C24 1_555 1_555
C5 C6 1_555 1_555
C8 P1 1_555 1_555
C12 C13 1_555 1_555
C15 P1 1_555 1_555
C19 C20 1_555 1_555
N1 P1 1_555 1_555
C28 C29 1_555 1_555
C31 P2 1_555 1_555
C35 C36 1_555 1_555
C38 P2 1_555 1_555
C42 C43 1_555 1_555
N3 P2 1_555 1_555

#END
