
#######################################################################
#
#                 Cambridge Crystallographic Data Centre
#                                CCDC 
#
#######################################################################
#
# If this CIF has been generated from an entry in the Cambridge 
# Structural Database, then it will include bibliographic, chemical, 
# crystal, experimental, refinement or atomic coordinate data resulting 
# from the CCDC's data processing and validation procedures.
#
#######################################################################

data_PICLEV
_chemical_formula_moiety         'C33 H42 F3 N2 O2 P1'
_chemical_name_systematic        
'(anthracen-9-yl)methyl 2-(tributyl-\l^5^-phosphanylidene)-3-[(2,2,2-trifluoroethylidene)hydrazinylidene]butanoate'
_symmetry_cell_setting           monoclinic
_symmetry_space_group_name_H-M   'P 21/n'
_symmetry_Int_Tables_number      14
_space_group_name_Hall           '-P 2yn'
loop_
_symmetry_equiv_pos_site_id
_symmetry_equiv_pos_as_xyz
1 x,y,z
2 1/2-x,1/2+y,1/2-z
3 -x,-y,-z
4 1/2+x,1/2-y,1/2+z
_cell_length_a                   8.706(3)
_cell_length_b                   18.176(6)
_cell_length_c                   20.565(7)
_cell_angle_alpha                90
_cell_angle_beta                 95.880(5)
_cell_angle_gamma                90
_cell_volume                     3237.09
_exptl_crystal_colour            colorless
_exptl_crystal_description       block
_cell_formula_units_Z            4
loop_
_atom_site_label
_atom_site_type_symbol
_atom_site_fract_x
_atom_site_fract_y
_atom_site_fract_z
P1 P 0.79309(9) 0.62102(5) 0.17947(4)
F1 F 0.463(2) 0.8498(14) -0.0545(11)
F2 F 0.2816(19) 0.8513(12) 0.0033(8)
F3 F 0.294(3) 0.7691(10) -0.0630(9)
O1 O 1.1729(2) 0.71472(13) 0.12916(11)
O2 O 1.1243(2) 0.60111(12) 0.16374(10)
N1 N 0.6821(3) 0.71767(16) 0.07859(13)
N2 N 0.6112(3) 0.76268(17) 0.03001(13)
C1 C 1.3229(3) 0.4539(2) 0.19175(17)
C2 C 1.3038(4) 0.4410(3) 0.1231(2)
H1 H 1.2829 0.4805 0.0949
C3 C 1.3151(5) 0.3724(4) 0.0975(3)
H2 H 1.3005 0.3657 0.0525
C4 C 1.3488(6) 0.3117(4) 0.1388(4)
H3 H 1.3609 0.2654 0.1207
C5 C 1.3636(5) 0.3198(3) 0.2032(3)
H4 H 1.3829 0.2787 0.2298
C6 C 1.3505(4) 0.3906(2) 0.2328(2)
C7 C 1.3634(4) 0.3993(3) 0.2999(2)
H5 H 1.3800 0.3581 0.3265
C8 C 1.3521(4) 0.4677(3) 0.32849(18)
C9 C 1.3638(5) 0.4763(3) 0.3977(2)
H6 H 1.3810 0.4352 0.4244
C10 C 1.3505(6) 0.5425(4) 0.4249(2)
H7 H 1.3564 0.5469 0.4701
C11 C 1.3278(6) 0.6054(3) 0.3857(3)
H8 H 1.3200 0.6512 0.4052
C12 C 1.3170(4) 0.6002(3) 0.3201(2)
H9 H 1.3024 0.6428 0.2951
C13 C 1.3276(3) 0.5317(2) 0.28836(17)
C14 C 1.3145(3) 0.5240(2) 0.22018(16)
C15 C 1.2890(3) 0.5906(2) 0.17761(16)
H10 H 1.3355 0.6334 0.1998
H11 H 1.3358 0.5835 0.1372
C16 C 1.0771(3) 0.66920(19) 0.14108(14)
C17 C 0.9117(3) 0.67598(18) 0.13405(14)
C18 C 0.8337(3) 0.72232(18) 0.08548(14)
C19 C 0.9197(4) 0.7716(2) 0.04311(17)
H12 H 0.8770 0.7667 -0.0016
H13 H 1.0267 0.7580 0.0470
H14 H 0.9102 0.8218 0.0568
C20 C 0.4663(4) 0.7663(2) 0.02913(17)
H15 H 0.4153 0.7405 0.0595
C21 C 0.3790(5) 0.8123(3) -0.0211(3)
C22 C 0.8993(4) 0.5748(2) 0.24759(15)
H16 H 0.9650 0.5379 0.2305
H17 H 0.9661 0.6104 0.2715
C23 C 0.8012(4) 0.5372(2) 0.29569(17)
H18 H 0.7426 0.5743 0.3165
H19 H 0.7285 0.5041 0.2719
C24 C 0.8992(5) 0.4944(2) 0.34767(19)
H20 H 0.9700 0.5279 0.3722
H21 H 0.9602 0.4585 0.3267
C25 C 0.8034(6) 0.4553(3) 0.3944(2)
H22 H 0.7377 0.4902 0.4131
H23 H 0.8705 0.4326 0.4286
H24 H 0.7411 0.4183 0.3712
C26 C 0.6921(3) 0.5511(2) 0.12995(16)
H25 H 0.6404 0.5184 0.1579
H26 H 0.6137 0.5742 0.0998
C27 C 0.7997(4) 0.5058(2) 0.09100(19)
H27 H 0.8518 0.5390 0.0635
H28 H 0.8781 0.4831 0.1215
C28 C 0.7216(5) 0.4469(2) 0.0487(2)
H29 H 0.6458 0.4692 0.0168
H30 H 0.6675 0.4138 0.0756
C29 C 0.8363(5) 0.4034(3) 0.0136(2)
H31 H 0.8911 0.4362 -0.0125
H32 H 0.7824 0.3673 -0.0141
H33 H 0.9083 0.3793 0.0451
C30 C 0.6522(4) 0.6762(2) 0.21578(16)
H34 H 0.5760 0.6933 0.1814
H35 H 0.5993 0.6453 0.2449
C31 C 0.7181(5) 0.7415(3) 0.2535(2)
H36 H 0.7831 0.7704 0.2275
H37 H 0.7785 0.7263 0.2935
C32 C 0.5732(11) 0.7865(6) 0.2689(6)
H38 H 0.5132 0.7996 0.2282
H39 H 0.5090 0.7560 0.2937
C33 C 0.6148(14) 0.8524(5) 0.3053(6)
H40 H 0.5228 0.8772 0.3155
H41 H 0.6726 0.8843 0.2796
H42 H 0.6766 0.8398 0.3451
F4? F 0.355(5) 0.8825(14) -0.0023(10)
F5? F 0.2449(17) 0.7883(18) -0.0370(16)
F6? F 0.440(3) 0.8239(19) -0.0760(13)
C34? C 0.6286(19) 0.7861(11) 0.2993(6)
H43? H 0.5814 0.7537 0.3290
H44? H 0.6974 0.8196 0.3249
C35? C 0.5068(19) 0.8285(11) 0.2585(11)
H45? H 0.4540 0.8603 0.2861
H46? H 0.4343 0.7949 0.2363
H47? H 0.5540 0.8575 0.2269
loop_
_geom_bond_atom_site_label_1
_geom_bond_atom_site_label_2
_geom_bond_site_symmetry_1
_geom_bond_site_symmetry_2
P1 C17 1_555 1_555
F1 C21 1_555 1_555
F2 C21 1_555 1_555
F3 C21 1_555 1_555
O1 C16 1_555 1_555
O2 C15 1_555 1_555
N1 N2 1_555 1_555
N2 C20 1_555 1_555
C1 C2 1_555 1_555
C2 H1 1_555 1_555
C3 C2 1_555 1_555
H2 C3 1_555 1_555
C4 C3 1_555 1_555
H3 C4 1_555 1_555
C5 C4 1_555 1_555
H4 C5 1_555 1_555
C6 C1 1_555 1_555
C7 C6 1_555 1_555
H5 C7 1_555 1_555
C8 C7 1_555 1_555
C9 C8 1_555 1_555
H6 C9 1_555 1_555
C10 C9 1_555 1_555
H7 C10 1_555 1_555
C11 C10 1_555 1_555
H8 C11 1_555 1_555
C12 C11 1_555 1_555
H9 C12 1_555 1_555
C13 C8 1_555 1_555
C14 C1 1_555 1_555
C15 C14 1_555 1_555
H10 C15 1_555 1_555
H11 C15 1_555 1_555
C16 O2 1_555 1_555
C17 C16 1_555 1_555
C18 N1 1_555 1_555
C19 C18 1_555 1_555
H12 C19 1_555 1_555
H13 C19 1_555 1_555
H14 C19 1_555 1_555
C20 H15 1_555 1_555
C21 C20 1_555 1_555
C22 P1 1_555 1_555
H16 C22 1_555 1_555
H17 C22 1_555 1_555
C23 C22 1_555 1_555
H18 C23 1_555 1_555
H19 C23 1_555 1_555
C24 C23 1_555 1_555
H20 C24 1_555 1_555
H21 C24 1_555 1_555
C25 C24 1_555 1_555
H22 C25 1_555 1_555
H23 C25 1_555 1_555
H24 C25 1_555 1_555
C26 P1 1_555 1_555
H25 C26 1_555 1_555
H26 C26 1_555 1_555
C27 C26 1_555 1_555
H27 C27 1_555 1_555
H28 C27 1_555 1_555
C28 C27 1_555 1_555
H29 C28 1_555 1_555
H30 C28 1_555 1_555
C29 C28 1_555 1_555
H31 C29 1_555 1_555
H32 C29 1_555 1_555
H33 C29 1_555 1_555
C30 P1 1_555 1_555
H34 C30 1_555 1_555
H35 C30 1_555 1_555
C31 C30 1_555 1_555
H36 C31 1_555 1_555
H37 C31 1_555 1_555
C32 C31 1_555 1_555
H38 C32 1_555 1_555
H39 C32 1_555 1_555
C33 C32 1_555 1_555
H40 C33 1_555 1_555
H41 C33 1_555 1_555
H42 C33 1_555 1_555
C5 C6 1_555 1_555
C12 C13 1_555 1_555
C13 C14 1_555 1_555
C17 C18 1_555 1_555

#END
