
#######################################################################
#
#                 Cambridge Crystallographic Data Centre
#                                CCDC 
#
#######################################################################
#
# If this CIF has been generated from an entry in the Cambridge 
# Structural Database, then it will include bibliographic, chemical, 
# crystal, experimental, refinement or atomic coordinate data resulting 
# from the CCDC's data processing and validation procedures.
#
#######################################################################

data_PICLAR
_chemical_formula_moiety         'C20 H18 F3 N3 O4'
_chemical_name_systematic        
'(4-nitrophenyl)methyl 5-phenyl-3-[2-(2,2,2-trifluoroethylidene)hydrazinyl]pent-2-enoate'
_symmetry_cell_setting           triclinic
_symmetry_space_group_name_H-M   'P -1'
_symmetry_Int_Tables_number      2
_space_group_name_Hall           '-P 1'
loop_
_symmetry_equiv_pos_site_id
_symmetry_equiv_pos_as_xyz
1 x,y,z
2 -x,-y,-z
_cell_length_a                   11.750(4)
_cell_length_b                   13.263(5)
_cell_length_c                   14.289(5)
_cell_angle_alpha                101.831(7)
_cell_angle_beta                 90.503(8)
_cell_angle_gamma                110.443(6)
_cell_volume                     2034.37
_cell_formula_units_Z            4
loop_
_atom_site_label
_atom_site_type_symbol
_atom_site_fract_x
_atom_site_fract_y
_atom_site_fract_z
F1 F -0.0531(4) 0.1600(3) 0.6151(4)
F2 F -0.1672(5) 0.1875(3) 0.7172(3)
F3 F -0.2232(4) 0.1543(3) 0.5771(3)
O1 O 0.0780(3) 0.6864(2) 0.6684(3)
O2 O 0.2420(3) 0.8108(2) 0.6270(3)
O3 O 0.6255(5) 1.3228(4) 0.6078(5)
O4 O 0.4901(4) 1.3875(4) 0.6374(4)
N1 N 0.0207(4) 0.3668(3) 0.6099(3)
N2 N 0.0674(4) 0.4757(3) 0.6139(3)
H1 H 0.0262 0.5164 0.6360
N3 N 0.5236(5) 1.3121(4) 0.6256(4)
C1 C 0.3743(6) 0.3226(5) 0.3825(5)
H2 H 0.4268 0.3949 0.3869
C2 C 0.4100(7) 0.2365(9) 0.3434(5)
H3 H 0.4857 0.2493 0.3191
C3 C 0.3317(13) 0.1303(8) 0.3405(7)
H4 H 0.3549 0.0708 0.3149
C4 C 0.2229(11) 0.1132(6) 0.3743(8)
H5 H 0.1692 0.0415 0.3707
C5 C 0.1912(6) 0.1972(5) 0.4128(6)
H6 H 0.1170 0.1840 0.4397
C6 C 0.2639(6) 0.3024(4) 0.4143(5)
C7 C 0.2085(6) 0.3995(5) 0.4494(5)
H7 H 0.2375 0.4564 0.4130
H8 H 0.1201 0.3697 0.4418
C8 C 0.2515(5) 0.4419(5) 0.5471(5)
H9 H 0.3387 0.4825 0.5545
H10 H 0.2335 0.3832 0.5818
C9 C 0.1781(5) 0.5219(4) 0.5837(4)
C10 C 0.2280(5) 0.6309(4) 0.5889(4)
H11 H 0.3024 0.6580 0.5635
C11 C 0.1723(5) 0.7073(4) 0.6314(4)
C12 C 0.1974(5) 0.8956(4) 0.6689(5)
H12 H 0.1916 0.8991 0.7370
H13 H 0.1170 0.8808 0.6390
C13 C 0.2850(5) 1.0020(4) 0.6528(4)
C14 C 0.2491(6) 1.0869(5) 0.6574(6)
H14 H 0.1683 1.0780 0.6672
C15 C 0.3288(7) 1.1882(5) 0.6480(7)
H15 H 0.3013 1.2467 0.6529
C16 C 0.4403(5) 1.2033(4) 0.6325(4)
C17 C 0.4778(5) 1.1191(5) 0.6194(7)
H16 H 0.5571 1.1284 0.6042
C18 C 0.3990(6) 1.0171(5) 0.6284(7)
H17 H 0.4253 0.9575 0.6174
C19 C -0.0812(5) 0.3270(4) 0.6394(4)
H18 H -0.1254 0.3714 0.6630
C20 C -0.1295(6) 0.2086(4) 0.6359(5)
F4 F 0.3057(5) 1.4254(3) 0.1737(6)
F5 F 0.1654(6) 1.4591(3) 0.2306(4)
F6 F 0.1682(6) 1.4150(3) 0.0883(4)
O5 O -0.0469(3) 0.9308(3) 0.1806(3)
O6 O -0.0428(3) 0.7645(3) 0.1164(3)
O7 O -0.3733(6) 0.2101(4) 0.1699(4)
O8 O -0.2070(6) 0.2143(4) 0.1080(4)
N4 N 0.1727(4) 1.2076(4) 0.1250(3)
N5 N 0.1182(4) 1.1011(3) 0.1284(3)
H19 H 0.0554 1.0826 0.1603
N6 N -0.2769(7) 0.2574(4) 0.1399(4)
C21 C 0.1586(7) 1.0233(5) 0.0838(5)
C22 C 0.1044(6) 0.9163(4) 0.0823(5)
H20 H 0.1369 0.8669 0.0477
C23 C 0.0014(6) 0.8752(4) 0.1300(4)
C24 C -0.1490(5) 0.7186(4) 0.1630(5)
H21 H -0.2170 0.7313 0.1351
H22 H -0.1355 0.7546 0.2305
C25 C -0.1789(5) 0.5978(4) 0.1525(4)
C26 C -0.1023(6) 0.5435(5) 0.1189(4)
H23 H -0.0273 0.5823 0.0993
C27 C -0.1354(6) 0.4325(5) 0.1138(4)
H24 H -0.0835 0.3957 0.0906
C28 C -0.2440(6) 0.3770(4) 0.1428(4)
C29 C -0.3232(6) 0.4270(4) 0.1756(4)
H25 H -0.3980 0.3871 0.1947
C30 C -0.2904(5) 0.5371(4) 0.1799(4)
H26 H -0.3442 0.5724 0.2017
C31 C 0.1313(5) 1.2754(4) 0.1691(4)
H27 H 0.0638 1.2532 0.2038
C32 C 0.1901(7) 1.3914(5) 0.1657(6)
C33 C 0.4618(6) 1.2764(5) -0.0360(6)
H28 H 0.4129 1.3117 -0.0037
C34 C 0.5586(9) 1.3332(7) -0.0755(6)
H29 H 0.5781 1.4084 -0.0708
C35 C 0.6279(9) 1.2814(10) -0.1221(7)
H30 H 0.6968 1.3209 -0.1487
C36 C 0.5971(9) 1.1695(9) -0.1308(6)
H31 H 0.6454 1.1339 -0.1635
C37 C 0.4983(7) 1.1115(7) -0.0926(6)
H32 H 0.4750 1.0354 -0.1005
C38 C 0.4345(7) 1.1667(6) -0.0428(8)
C39 C 0.2770(8) 1.0858(6) -0.0326(6)
H33 H 0.2212 1.1253 -0.0316
H34 H 0.2458 1.0142 -0.0767
C40 C 0.3189(8) 1.0847(7) 0.0524(6)
H35 H 0.3636 1.1576 0.0914
H36 H 0.3653 1.0366 0.0506
loop_
_geom_bond_atom_site_label_1
_geom_bond_atom_site_label_2
_geom_bond_site_symmetry_1
_geom_bond_site_symmetry_2
F1 C20 1_555 1_555
F2 C20 1_555 1_555
F3 C20 1_555 1_555
O1 C11 1_555 1_555
O2 C11 1_555 1_555
O3 N3 1_555 1_555
O4 N3 1_555 1_555
N1 N2 1_555 1_555
N2 H1 1_555 1_555
N3 C16 1_555 1_555
C1 H2 1_555 1_555
C2 C1 1_555 1_555
H3 C2 1_555 1_555
C3 C2 1_555 1_555
H4 C3 1_555 1_555
C4 C3 1_555 1_555
H5 C4 1_555 1_555
C5 C4 1_555 1_555
H6 C5 1_555 1_555
C6 C1 1_555 1_555
C7 C6 1_555 1_555
H7 C7 1_555 1_555
H8 C7 1_555 1_555
C8 C7 1_555 1_555
H9 C8 1_555 1_555
H10 C8 1_555 1_555
C9 N2 1_555 1_555
C10 C9 1_555 1_555
H11 C10 1_555 1_555
C11 C10 1_555 1_555
C12 O2 1_555 1_555
H12 C12 1_555 1_555
H13 C12 1_555 1_555
C13 C12 1_555 1_555
C14 C13 1_555 1_555
H14 C14 1_555 1_555
C15 C14 1_555 1_555
H15 C15 1_555 1_555
C16 C15 1_555 1_555
C17 C16 1_555 1_555
H16 C17 1_555 1_555
C18 C13 1_555 1_555
H17 C18 1_555 1_555
C19 N1 1_555 1_555
H18 C19 1_555 1_555
C20 C19 1_555 1_555
F4 C32 1_555 1_555
F5 C32 1_555 1_555
F6 C32 1_555 1_555
O5 C23 1_555 1_555
O6 C23 1_555 1_555
O7 N6 1_555 1_555
O8 N6 1_555 1_555
N4 N5 1_555 1_555
N5 H19 1_555 1_555
N6 C28 1_555 1_555
C21 N5 1_555 1_555
C22 C21 1_555 1_555
H20 C22 1_555 1_555
C23 C22 1_555 1_555
C24 O6 1_555 1_555
H21 C24 1_555 1_555
H22 C24 1_555 1_555
C25 C24 1_555 1_555
C26 C25 1_555 1_555
H23 C26 1_555 1_555
C27 C26 1_555 1_555
H24 C27 1_555 1_555
C28 C27 1_555 1_555
C29 C28 1_555 1_555
H25 C29 1_555 1_555
C30 C25 1_555 1_555
H26 C30 1_555 1_555
C31 N4 1_555 1_555
H27 C31 1_555 1_555
C32 C31 1_555 1_555
C33 H28 1_555 1_555
C34 C33 1_555 1_555
H29 C34 1_555 1_555
C35 C34 1_555 1_555
H30 C35 1_555 1_555
C36 C35 1_555 1_555
H31 C36 1_555 1_555
C37 C36 1_555 1_555
H32 C37 1_555 1_555
C38 C33 1_555 1_555
C39 C38 1_555 1_555
H33 C39 1_555 1_555
H34 C39 1_555 1_555
C40 C21 1_555 1_555
H35 C40 1_555 1_555
H36 C40 1_555 1_555
C5 C6 1_555 1_555
C8 C9 1_555 1_555
C17 C18 1_555 1_555
C29 C30 1_555 1_555
C37 C38 1_555 1_555
C39 C40 1_555 1_555

#END
