
#######################################################################
#
#                 Cambridge Crystallographic Data Centre
#                                CCDC 
#
#######################################################################
#
# If this CIF has been generated from an entry in the Cambridge 
# Structural Database, then it will include bibliographic, chemical, 
# crystal, experimental, refinement or atomic coordinate data resulting 
# from the CCDC's data processing and validation procedures.
#
#######################################################################

data_PICQOK
_chemical_formula_moiety         'C33 H40 Cl1 N2 1+,H1 Cl1,Cl1 1-'
_chemical_name_systematic        
'5-chloro-1,3-bis(2,6-di-isopropylphenyl)-2-phenyl-1H-imidazol-3-ium chloride hydrogen chloride'
_symmetry_cell_setting           monoclinic
_symmetry_space_group_name_H-M   'P 21/c'
_symmetry_Int_Tables_number      14
_space_group_name_Hall           '-P 2ybc'
loop_
_symmetry_equiv_pos_site_id
_symmetry_equiv_pos_as_xyz
1 x,y,z
2 -x,1/2+y,1/2-z
3 -x,-y,-z
4 x,1/2-y,1/2+z
_cell_length_a                   9.12527(12)
_cell_length_b                   17.9992(3)
_cell_length_c                   19.8174(3)
_cell_angle_alpha                90
_cell_angle_beta                 96.5596(12)
_cell_angle_gamma                90
_cell_volume                     3233.65
_exptl_crystal_colour            'intense yellow'
_exptl_crystal_description       prism
_cell_formula_units_Z            4
loop_
_atom_site_label
_atom_site_type_symbol
_atom_site_fract_x
_atom_site_fract_y
_atom_site_fract_z
Cl1 Cl 0.97046(4) 0.28548(2) 0.60186(2)
N1 N 0.55273(12) 0.31885(6) 0.59534(6)
N2 N 0.70367(12) 0.22610(6) 0.61337(5)
C1 C 0.56058(14) 0.24584(8) 0.60850(7)
C2 C 0.78559(15) 0.28881(8) 0.60237(7)
C3 C 0.69253(15) 0.34671(8) 0.59177(7)
H1 H 0.718003 0.396798 0.583486
C4 C 0.41766(14) 0.36221(7) 0.58510(7)
C5 C 0.35593(15) 0.38751(7) 0.64216(7)
C6 C 0.22540(16) 0.42812(8) 0.63013(8)
H2 H 0.178753 0.445740 0.667504
C7 C 0.16264(15) 0.44319(8) 0.56459(8)
H3 H 0.073537 0.470853 0.557621
C8 C 0.22834(16) 0.41838(8) 0.50911(7)
H4 H 0.184294 0.429632 0.464510
C9 C 0.35846(16) 0.37705(7) 0.51796(7)
C10 C 0.42693(16) 0.37495(8) 0.71450(7)
H5 H 0.515091 0.342309 0.712734
C11 C 0.3212(2) 0.33605(10) 0.75766(8)
H6 H 0.232850 0.366690 0.759201
H7 H 0.370082 0.328884 0.803853
H8 H 0.292876 0.287656 0.737568
C12 C 0.47953(19) 0.44932(9) 0.74615(8)
H9 H 0.546861 0.473111 0.717601
H10 H 0.531061 0.440709 0.791623
H11 H 0.394323 0.481702 0.749467
C13 C 0.43545(18) 0.35379(9) 0.45725(8)
H12 H 0.511317 0.315538 0.472855
C14 C 0.3293(2) 0.31984(12) 0.39977(10)
H13 H 0.275677 0.278428 0.417645
H14 H 0.385573 0.301668 0.363857
H15 H 0.258971 0.357758 0.381110
C15 C 0.5146(2) 0.42074(11) 0.43086(9)
H16 H 0.441941 0.458561 0.414389
H17 H 0.569492 0.405079 0.393584
H18 H 0.583248 0.441543 0.467689
C16 C 0.4363(4) 0.1944(2) 0.6090(2)
C17 C 0.3287(4) 0.1900(2) 0.55355(19)
H19 H 0.335726 0.220260 0.514798
C18 C 0.2110(3) 0.14120(18) 0.5548(2)
H20 H 0.137425 0.138182 0.516859
C19 C 0.2007(3) 0.09685(14) 0.6115(3)
H21 H 0.120237 0.063533 0.612307
C20 C 0.3083(4) 0.10127(16) 0.6669(2)
H22 H 0.301351 0.070961 0.705694
C21 C 0.4261(4) 0.1500(2) 0.6657(2)
H23 H 0.499653 0.153039 0.703635
C22 C 0.75771(14) 0.15012(7) 0.61923(7)
C23 C 0.82060(14) 0.12463(7) 0.68263(7)
C24 C 0.86691(15) 0.05057(8) 0.68597(7)
H24 H 0.910296 0.030867 0.728054
C25 C 0.85071(16) 0.00554(8) 0.62921(8)
H25 H 0.881439 -0.044870 0.632812
C26 C 0.78999(18) 0.03333(9) 0.56706(8)
H26 H 0.780813 0.001801 0.528359
C27 C 0.74209(17) 0.10683(9) 0.56035(8)
C28 C 0.84319(17) 0.17400(8) 0.74510(7)
H27 H 0.791586 0.222274 0.734231
C29 C 0.7796(3) 0.13892(11) 0.80589(8)
H28 H 0.676681 0.124697 0.792572
H29 H 0.784229 0.174896 0.843196
H30 H 0.837158 0.094734 0.820799
C30 C 1.0073(2) 0.18978(10) 0.76437(9)
H31 H 1.058690 0.143315 0.777685
H32 H 1.019491 0.224819 0.802453
H33 H 1.048980 0.211313 0.725335
C31 C 0.6711(14) 0.1350(8) 0.4912(4)
H34 H 0.623188 0.183921 0.498289
C32 C 0.5529(15) 0.0818(7) 0.4575(6)
H35 H 0.600125 0.036047 0.444127
H36 H 0.500857 0.105582 0.417214
H37 H 0.482478 0.069866 0.489720
C33 C 0.7936(17) 0.1475(9) 0.4466(5)
H38 H 0.863869 0.183894 0.468121
H39 H 0.751323 0.166088 0.402125
H40 H 0.844778 0.100412 0.440737
Cl2 Cl 0.85900(4) 0.50105(2) 0.66268(2)
Cl3 Cl 0.86712(7) 0.37805(3) 0.77566(3)
H53 H 0.860(3) 0.4346(16) 0.7242(14)
C34? C 0.4385(7) 0.1974(4) 0.6255(3)
C35? C 0.3232(7) 0.1814(4) 0.5755(3)
H41? H 0.318142 0.205189 0.532537
C36? C 0.2152(5) 0.1305(3) 0.5885(4)
H42? H 0.136372 0.119600 0.554366
C37? C 0.2226(5) 0.0957(2) 0.6514(4)
H43? H 0.148796 0.060953 0.660247
C38? C 0.3379(6) 0.1117(3) 0.7013(3)
H44? H 0.342990 0.087895 0.744300
C39? C 0.4459(6) 0.1625(3) 0.6883(3)
H45? H 0.524761 0.173484 0.722472
C40? C 0.704(2) 0.1431(11) 0.4904(7)
H46? H 0.651534 0.190537 0.498302
C41? C 0.595(3) 0.0951(11) 0.4457(9)
H47? H 0.642712 0.048352 0.435390
H48? H 0.563179 0.121564 0.403350
H49? H 0.509187 0.084598 0.469676
C42? C 0.838(3) 0.1641(10) 0.4546(8)
H50? H 0.901946 0.197905 0.483656
H51? H 0.805537 0.188725 0.411453
H52? H 0.893848 0.119123 0.445980
Cl4? Cl 0.9104(7) 0.3924(3) 0.7674(3)
H54? H 0.944(17) 0.428(9) 0.706(7)
loop_
_geom_bond_atom_site_label_1
_geom_bond_atom_site_label_2
_geom_bond_site_symmetry_1
_geom_bond_site_symmetry_2
Cl1 C2 1_555 1_555
N1 C1 1_555 1_555
N2 C1 1_555 1_555
C1 C16 1_555 1_555
C2 N2 1_555 1_555
C3 N1 1_555 1_555
H1 C3 1_555 1_555
C4 N1 1_555 1_555
C5 C4 1_555 1_555
C6 C5 1_555 1_555
H2 C6 1_555 1_555
C7 C6 1_555 1_555
H3 C7 1_555 1_555
C8 C7 1_555 1_555
H4 C8 1_555 1_555
C9 C4 1_555 1_555
C10 C5 1_555 1_555
H5 C10 1_555 1_555
C11 C10 1_555 1_555
H6 C11 1_555 1_555
H7 C11 1_555 1_555
H8 C11 1_555 1_555
C12 C10 1_555 1_555
H9 C12 1_555 1_555
H10 C12 1_555 1_555
H11 C12 1_555 1_555
C13 C9 1_555 1_555
H12 C13 1_555 1_555
C14 C13 1_555 1_555
H13 C14 1_555 1_555
H14 C14 1_555 1_555
H15 C14 1_555 1_555
C15 C13 1_555 1_555
H16 C15 1_555 1_555
H17 C15 1_555 1_555
H18 C15 1_555 1_555
C16 C17 1_555 1_555
C17 H19 1_555 1_555
C18 C17 1_555 1_555
H20 C18 1_555 1_555
C19 C18 1_555 1_555
H21 C19 1_555 1_555
C20 C19 1_555 1_555
H22 C20 1_555 1_555
C21 C16 1_555 1_555
H23 C21 1_555 1_555
C22 N2 1_555 1_555
C23 C22 1_555 1_555
C24 C23 1_555 1_555
H24 C24 1_555 1_555
C25 C24 1_555 1_555
H25 C25 1_555 1_555
C26 C25 1_555 1_555
H26 C26 1_555 1_555
C27 C22 1_555 1_555
C28 C23 1_555 1_555
H27 C28 1_555 1_555
C29 C28 1_555 1_555
H28 C29 1_555 1_555
H29 C29 1_555 1_555
H30 C29 1_555 1_555
C30 C28 1_555 1_555
H31 C30 1_555 1_555
H32 C30 1_555 1_555
H33 C30 1_555 1_555
C31 C27 1_555 1_555
H34 C31 1_555 1_555
C32 C31 1_555 1_555
H35 C32 1_555 1_555
H36 C32 1_555 1_555
H37 C32 1_555 1_555
C33 C31 1_555 1_555
H38 C33 1_555 1_555
H39 C33 1_555 1_555
H40 C33 1_555 1_555
Cl3 H53 1_555 1_555
C2 C3 1_555 1_555
C8 C9 1_555 1_555
C20 C21 1_555 1_555
C26 C27 1_555 1_555

#END
