
#######################################################################
#
#                 Cambridge Crystallographic Data Centre
#                                CCDC 
#
#######################################################################
#
# If this CIF has been generated from an entry in the Cambridge 
# Structural Database, then it will include bibliographic, chemical, 
# crystal, experimental, refinement or atomic coordinate data resulting 
# from the CCDC's data processing and validation procedures.
#
#######################################################################

data_PICQEA
_chemical_formula_moiety         'C42 H51 N4 O3 1+,C24 H20 B1 1-'
_chemical_name_systematic        
'1,3-bis(2,6-di-isopropylphenyl)-2-phenyl-5-((2,4,6-trimethoxyphenyl)diazenyl)-1H-imidazol-3-ium tetraphenylborate'
_symmetry_cell_setting           monoclinic
_symmetry_space_group_name_H-M   'P 21'
_symmetry_Int_Tables_number      4
_space_group_name_Hall           'P 2yb'
loop_
_symmetry_equiv_pos_site_id
_symmetry_equiv_pos_as_xyz
1 x,y,z
2 -x,1/2+y,-z
_cell_length_a                   13.1792(6)
_cell_length_b                   28.3464(14)
_cell_length_c                   16.0618(6)
_cell_angle_alpha                90
_cell_angle_beta                 109.155(5)
_cell_angle_gamma                90
_cell_volume                     5668.2
_exptl_crystal_colour            'intense orange'
_exptl_crystal_description       needle
_cell_formula_units_Z            4
loop_
_atom_site_label
_atom_site_type_symbol
_atom_site_fract_x
_atom_site_fract_y
_atom_site_fract_z
O1 O 0.6906(4) 0.6128(2) 0.9962(3)
O2 O 0.4190(4) 0.6026(3) 1.1260(3)
O3 O 0.3288(4) 0.6057(3) 0.8120(3)
N1 N 0.6443(5) 0.6227(3) 0.6098(4)
N2 N 0.7427(4) 0.6306(3) 0.7455(4)
N3 N 0.6267(5) 0.6199(3) 0.8281(4)
N4 N 0.5284(5) 0.6132(3) 0.8222(4)
C1 C 0.7448(5) 0.6298(3) 0.6623(4)
C2 C 0.6385(5) 0.6221(3) 0.7448(4)
C3 C 0.5755(5) 0.6177(3) 0.6596(4)
H1 H 0.500135 0.612449 0.638107
C4 C 0.6051(5) 0.6266(3) 0.5134(4)
C5 C 0.5963(6) 0.6713(4) 0.4785(5)
C6 C 0.5581(7) 0.6746(4) 0.3872(5)
H2 H 0.552777 0.704791 0.360373
C7 C 0.5273(7) 0.6347(4) 0.3339(5)
H3 H 0.499668 0.637976 0.271665
C8 C 0.5370(7) 0.5910(4) 0.3714(5)
H4 H 0.514447 0.564118 0.334758
C9 C 0.5802(6) 0.5850(4) 0.4641(5)
C10 C 0.6207(6) 0.7163(3) 0.5329(5)
H5 H 0.650614 0.707253 0.596513
C11 C 0.7045(8) 0.7470(4) 0.5108(7)
H6 H 0.728269 0.772318 0.554494
H7 H 0.672417 0.760836 0.452035
H8 H 0.766248 0.727529 0.511685
C12 C 0.5191(8) 0.7444(4) 0.5200(7)
H9 H 0.537357 0.774915 0.550068
H10 H 0.471489 0.726945 0.544735
H11 H 0.482614 0.749686 0.456943
C13 C 0.5955(8) 0.5364(4) 0.5059(6)
H12 H 0.643792 0.539646 0.568301
C14 C 0.4897(9) 0.5145(4) 0.5068(8)
H13 H 0.453679 0.536277 0.535486
H14 H 0.504519 0.484717 0.539452
H15 H 0.443288 0.508628 0.446193
C15 C 0.6504(9) 0.5026(4) 0.4575(8)
H16 H 0.599226 0.494234 0.399835
H17 H 0.673877 0.473978 0.492745
H18 H 0.712790 0.518363 0.449539
C16 C 0.8404(6) 0.6361(3) 0.6357(4)
C17 C 0.8548(6) 0.6077(3) 0.5695(5)
H19 H 0.802070 0.584600 0.542598
C18 C 0.9426(6) 0.6121(4) 0.5418(5)
H20 H 0.949786 0.593160 0.495221
C19 C 1.0204(7) 0.6451(4) 0.5842(6)
H21 H 1.083180 0.647860 0.567791
C20 C 1.0083(7) 0.6737(4) 0.6495(5)
H22 H 1.060964 0.696927 0.676360
C21 C 0.9173(6) 0.6684(3) 0.6761(5)
H23 H 0.909528 0.687381 0.722336
C22 C 0.8351(5) 0.6357(3) 0.8275(4)
C23 C 0.8951(6) 0.5961(3) 0.8585(4)
C24 C 0.9820(6) 0.6022(4) 0.9373(4)
H24 H 1.027081 0.576142 0.962150
C25 C 1.0024(6) 0.6452(4) 0.9784(5)
H25 H 1.061299 0.648359 1.031484
C26 C 0.9402(6) 0.6837(3) 0.9449(5)
H26 H 0.956788 0.713160 0.974411
C27 C 0.8513(7) 0.6800(3) 0.8669(5)
C28 C 0.8713(7) 0.5484(3) 0.8159(5)
H27 H 0.806510 0.551832 0.762135
C29 C 0.9643(8) 0.5319(4) 0.7850(6)
H28 H 0.982108 0.556895 0.749907
H29 H 0.942742 0.503431 0.748968
H30 H 1.027270 0.524987 0.836436
C30 C 0.8436(8) 0.5124(4) 0.8760(5)
H31 H 0.904299 0.509296 0.930780
H32 H 0.828529 0.481800 0.846165
H33 H 0.780075 0.523141 0.889632
C31 C 0.7812(8) 0.7222(4) 0.8314(6)
H34 H 0.732649 0.713722 0.771016
C32 C 0.7096(9) 0.7331(5) 0.8871(8)
H35 H 0.657969 0.707430 0.881181
H36 H 0.670725 0.762691 0.866788
H37 H 0.754166 0.736336 0.949095
C33 C 0.8433(10) 0.7660(4) 0.8222(8)
H38 H 0.890154 0.758327 0.787689
H39 H 0.886985 0.777052 0.880800
H40 H 0.792752 0.790806 0.792157
C34 C 0.5090(5) 0.6105(3) 0.9033(4)
C35 C 0.5858(6) 0.6101(3) 0.9900(5)
C36 C 0.5530(6) 0.6073(3) 1.0639(5)
H41 H 0.604247 0.606930 1.121513
C37 C 0.4439(6) 0.6049(3) 1.0517(5)
C38 C 0.3670(6) 0.6045(3) 0.9688(5)
H42 H 0.292915 0.602710 0.962713
C39 C 0.3988(5) 0.6066(3) 0.8944(4)
C40 C 0.7710(5) 0.6107(4) 1.0815(4)
H43 H 0.842367 0.612319 1.075215
H44 H 0.763827 0.581003 1.110343
H45 H 0.761678 0.637289 1.117317
C41 C 0.3059(8) 0.6054(7) 1.1172(6)
H46 H 0.273262 0.632406 1.079793
H47 H 0.298637 0.609518 1.175556
H48 H 0.269586 0.576351 1.090314
C42 C 0.2189(6) 0.5992(4) 0.7995(5)
H49 H 0.179289 0.596256 0.736331
H50 H 0.191656 0.626328 0.823439
H51 H 0.209247 0.570411 0.829881
O4 O 0.5148(4) 0.3733(2) 0.3733(3)
O5 O 0.2441(4) 0.3925(3) 0.5024(3)
O6 O 0.1531(4) 0.3833(2) 0.1871(3)
N5 N 0.4587(4) 0.3581(2) -0.0165(3)
N6 N 0.5648(4) 0.3556(2) 0.1189(3)
N7 N 0.4508(4) 0.3672(3) 0.2050(3)
N8 N 0.3533(4) 0.3729(2) 0.2003(3)
C43 C 0.5616(5) 0.3533(3) 0.0347(4)
C44 C 0.4617(5) 0.3624(3) 0.1219(4)
C45 C 0.3942(5) 0.3630(3) 0.0351(4)
H52 H 0.318293 0.366218 0.015228
C46 C 0.4163(5) 0.3553(3) -0.1117(4)
C47 C 0.3905(5) 0.3977(3) -0.1585(5)
C48 C 0.3473(6) 0.3945(3) -0.2506(5)
H53 H 0.328671 0.422359 -0.285219
C49 C 0.3320(5) 0.3516(4) -0.2902(5)
H54 H 0.300558 0.349938 -0.352492
C50 C 0.3605(6) 0.3102(3) -0.2431(4)
H55 H 0.350685 0.280929 -0.273398
C51 C 0.4040(5) 0.3111(3) -0.1510(4)
C52 C 0.4114(6) 0.4462(3) -0.1127(5)
H56 H 0.464849 0.441305 -0.052649
C53 C 0.3087(6) 0.4659(3) -0.1003(5)
H57 H 0.283956 0.444245 -0.063373
H58 H 0.252715 0.469116 -0.157890
H59 H 0.323794 0.496828 -0.071670
C54 C 0.4591(8) 0.4815(4) -0.1594(8)
H60 H 0.476442 0.510565 -0.124618
H61 H 0.407112 0.488422 -0.217530
H62 H 0.524625 0.468394 -0.166359
C55 C 0.4283(6) 0.2660(3) -0.0993(5)
H63 H 0.454786 0.274259 -0.035187
C56 C 0.3295(7) 0.2344(4) -0.1162(6)
H64 H 0.347822 0.207128 -0.076586
H65 H 0.305944 0.223562 -0.177485
H66 H 0.271526 0.252329 -0.105276
C57 C 0.5186(8) 0.2385(4) -0.1205(7)
H67 H 0.584937 0.257111 -0.101827
H68 H 0.497140 0.232675 -0.184087
H69 H 0.530844 0.208302 -0.089020
C58 C 0.6560(5) 0.3473(3) 0.0050(4)
C59 C 0.6678(5) 0.3765(3) -0.0620(4)
H70 H 0.615334 0.399752 -0.089002
C60 C 0.7594(5) 0.3706(3) -0.0882(5)
H71 H 0.768469 0.390002 -0.133527
C61 C 0.8346(6) 0.3375(3) -0.0493(4)
H72 H 0.896249 0.334172 -0.067045
C62 C 0.8214(6) 0.3081(3) 0.0172(5)
H73 H 0.873020 0.284462 0.043337
C63 C 0.7324(6) 0.3141(3) 0.0441(4)
H74 H 0.724346 0.294984 0.090130
C64 C 0.6583(6) 0.3627(3) 0.1919(4)
C65 C 0.6981(6) 0.3260(2) 0.2509(5)
C66 C 0.7869(5) 0.3333(3) 0.3257(4)
H75 H 0.814148 0.308154 0.366016
C67 C 0.8360(5) 0.3773(3) 0.3413(4)
H76 H 0.896739 0.382270 0.392380
C68 C 0.7962(5) 0.4140(2) 0.2823(5)
H77 H 0.829731 0.444099 0.292974
C69 C 0.7073(6) 0.4067(2) 0.2076(4)
C70 C 0.6439(9) 0.2774(3) 0.2347(7)
H78 H 0.591350 0.276871 0.173446
C71 C 0.5817(12) 0.2690(6) 0.3000(9)
H79 H 0.550957 0.237187 0.291502
H80 H 0.523888 0.292299 0.289410
H81 H 0.630916 0.272241 0.360561
C72 C 0.7240(11) 0.2367(5) 0.2437(9)
H82 H 0.767565 0.232905 0.305803
H83 H 0.770995 0.243882 0.209028
H84 H 0.684609 0.207465 0.222009
C73 C 0.6614(8) 0.4484(3) 0.1450(7)
H85 H 0.609382 0.434709 0.090138
C74 C 0.5971(10) 0.4824(5) 0.1832(9)
H86 H 0.538213 0.465194 0.194231
H87 H 0.567636 0.507928 0.141166
H88 H 0.644511 0.495640 0.238718
C75 C 0.7483(12) 0.4737(5) 0.1174(10)
H89 H 0.795439 0.491436 0.167562
H90 H 0.714270 0.495407 0.068767
H91 H 0.790810 0.450322 0.098129
C76 C 0.3338(5) 0.3779(3) 0.2795(4)
C77 C 0.4113(5) 0.3780(3) 0.3672(4)
C78 C 0.3760(5) 0.3828(3) 0.4385(4)
H92 H 0.426751 0.382994 0.496287
C79 C 0.2685(6) 0.3873(3) 0.4274(4)
C80 C 0.1909(5) 0.3884(3) 0.3442(4)
H93 H 0.117076 0.392263 0.337589
C81 C 0.2239(5) 0.3838(3) 0.2716(4)
C82 C 0.5928(5) 0.3709(3) 0.4590(4)
H94 H 0.664346 0.366862 0.453719
H95 H 0.576853 0.344085 0.491091
H96 H 0.591080 0.400150 0.491010
C83 C 0.1326(7) 0.3947(5) 0.4948(5)
H97 H 0.100284 0.423143 0.462057
H98 H 0.125952 0.395777 0.553815
H99 H 0.095410 0.366748 0.463480
C84 C 0.0419(6) 0.3905(4) 0.1757(5)
H100 H -0.000524 0.386922 0.113254
H101 H 0.031693 0.422254 0.195520
H102 H 0.018413 0.367091 0.210477
C97 C 0.1927(8) 0.6124(4) 0.4230(3)
C98 C 0.2378(8) 0.6541(3) 0.4644(5)
H120 H 0.232898 0.682069 0.430769
C99 C 0.2903(7) 0.6548(4) 0.5549(5)
H121 H 0.321162 0.683271 0.583140
C100 C 0.2975(7) 0.6138(4) 0.6041(3)
H122 H 0.333354 0.614302 0.665920
C101 C 0.2523(8) 0.5721(4) 0.5627(5)
H123 H 0.257282 0.544131 0.596329
C102 C 0.1999(8) 0.5714(3) 0.4722(5)
H124 H 0.169018 0.542929 0.443958
C103 C 0.1586(5) 0.65686(19) 0.2693(4)
C104 C 0.2664(4) 0.6694(3) 0.2945(5)
H125 H 0.317991 0.652538 0.340148
C105 C 0.2987(4) 0.7067(3) 0.2528(6)
H126 H 0.372346 0.715293 0.270025
C106 C 0.2231(5) 0.7314(2) 0.1860(5)
H127 H 0.245213 0.756893 0.157539
C107 C 0.1153(5) 0.7188(2) 0.1608(3)
H128 H 0.063725 0.735739 0.115175
C108 C 0.0830(4) 0.6816(2) 0.2025(4)
H129 H 0.009368 0.672985 0.185297
C109 C 0.1562(5) 0.56226(19) 0.2609(3)
C110 C 0.2559(5) 0.5404(2) 0.2930(4)
H130 H 0.305441 0.549700 0.348261
C111 C 0.2832(5) 0.5050(3) 0.2443(5)
H131 H 0.351362 0.490127 0.266262
C112 C 0.2107(6) 0.4915(3) 0.1635(5)
H132 H 0.229366 0.467302 0.130166
C113 C 0.1110(5) 0.5133(2) 0.1313(3)
H133 H 0.061450 0.504050 0.076068
C114 C 0.0837(4) 0.5487(2) 0.1800(3)
H134 H 0.015527 0.563622 0.158066
C115 C -0.0015(3) 0.6078(2) 0.3139(3)
C116 C -0.0529(4) 0.64958(19) 0.3218(4)
H135 H -0.017160 0.678930 0.324516
C117 C -0.1567(4) 0.6484(2) 0.3257(4)
H136 H -0.191859 0.676917 0.331112
C118 C -0.2090(3) 0.6055(3) 0.3218(4)
H137 H -0.279938 0.604636 0.324454
C119 C -0.1576(5) 0.5637(2) 0.3139(4)
H138 H -0.193320 0.534366 0.311201
C120 C -0.0538(5) 0.56491(19) 0.3100(4)
H139 H -0.018621 0.536378 0.304605
B1 B 0.1288(8) 0.6075(4) 0.3170(5)
C127 C 1.0004(3) 0.36424(16) 0.79904(19)
C128 C 1.0119(4) 0.40267(14) 0.8551(3)
H145 H 0.981875 0.432325 0.832298
C129 C 1.0674(4) 0.39773(17) 0.9447(2)
H146 H 1.075341 0.423996 0.983002
C130 C 1.1114(3) 0.3543(2) 0.97808(19)
H147 H 1.149359 0.350963 1.039265
C131 C 1.0999(4) 0.31591(17) 0.9220(3)
H148 H 1.129915 0.286259 0.944824
C132 C 1.0443(4) 0.32086(15) 0.8325(3)
H149 H 1.036451 0.294587 0.794120
C133 C 0.9718(3) 0.41824(15) 0.6477(3)
C134 C 0.9077(3) 0.43474(19) 0.5658(2)
H150 H 0.840796 0.419973 0.536297
C135 C 0.9415(3) 0.47283(19) 0.5271(2)
H151 H 0.897659 0.484105 0.471159
C136 C 1.0393(4) 0.49443(17) 0.5703(3)
H152 H 1.062398 0.520466 0.543835
C137 C 1.1034(3) 0.47793(19) 0.6521(3)
H153 H 1.170274 0.492696 0.681650
C138 C 1.0696(3) 0.43984(18) 0.6908(2)
H154 H 1.113413 0.428564 0.746791
C139 C 0.8010(3) 0.37801(18) 0.6865(3)
C140 C 0.7547(4) 0.42243(17) 0.6812(3)
H155 H 0.794199 0.449689 0.676072
C141 C 0.6506(4) 0.4270(2) 0.6833(3)
H156 H 0.618879 0.457347 0.679622
C142 C 0.5928(3) 0.3871(3) 0.6907(3)
H157 H 0.521584 0.390213 0.692154
C143 C 0.6391(4) 0.3427(2) 0.6960(3)
H158 H 0.599607 0.315421 0.701136
C144 C 0.7433(4) 0.33813(17) 0.6939(3)
H159 H 0.774926 0.307763 0.697585
C145 C 0.9538(4) 0.32593(17) 0.6322(3)
C146 C 0.8740(3) 0.2987(2) 0.5739(3)
H160 H 0.800668 0.304452 0.567032
C147 C 0.9015(4) 0.2631(2) 0.5257(3)
H161 H 0.846891 0.244547 0.485861
C148 C 1.0088(5) 0.2548(2) 0.5358(3)
H162 H 1.027523 0.230439 0.502833
C149 C 1.0886(3) 0.2820(2) 0.5941(4)
H163 H 1.161933 0.276236 0.600977
C150 C 1.0611(3) 0.3175(2) 0.6423(3)
H164 H 1.115712 0.336140 0.682149
B2 B 0.9292(6) 0.3707(3) 0.6908(5)
C85? C 0.6599(14) 0.3502(7) 0.1985(11)
C86? C 0.6839(14) 0.3082(6) 0.2455(12)
C87? C 0.7729(14) 0.3055(6) 0.3215(10)
H103? H 0.789275 0.276773 0.353655
C88? C 0.8378(11) 0.3448(8) 0.3506(8)
H104? H 0.898546 0.343020 0.402613
C89? C 0.8138(13) 0.3869(7) 0.3037(11)
H105? H 0.858121 0.413772 0.323527
C90? C 0.7248(15) 0.3896(6) 0.2276(12)
C91? C 0.620(2) 0.2622(7) 0.219(2)
H106? H 0.568552 0.266782 0.158019
C92? C 0.552(3) 0.2511(15) 0.279(2)
H107? H 0.502889 0.277317 0.276366
H108? H 0.599987 0.246884 0.339636
H109? H 0.511082 0.222135 0.258508
C93? C 0.688(3) 0.2184(12) 0.217(2)
H110? H 0.737422 0.225877 0.184504
H111? H 0.640450 0.192522 0.186902
H112? H 0.728834 0.208929 0.276998
C94? C 0.687(2) 0.4367(7) 0.1814(18)
H113? H 0.630885 0.430852 0.122965
C95? C 0.638(3) 0.4656(14) 0.240(2)
H114? H 0.599615 0.444451 0.267401
H115? H 0.588268 0.489003 0.203783
H116? H 0.695735 0.481700 0.285846
C96? C 0.784(3) 0.4611(14) 0.167(3)
H117? H 0.831694 0.473335 0.223789
H118? H 0.759432 0.487255 0.125678
H119? H 0.823611 0.438341 0.143678
C121? C 0.2034(13) 0.5949(7) 0.4238(6)
C122? C 0.2354(15) 0.6327(6) 0.4815(10)
H140? H 0.223896 0.664125 0.459650
C123? C 0.2843(14) 0.6247(7) 0.5712(9)
H141? H 0.306206 0.650586 0.610588
C124? C 0.3012(13) 0.5788(7) 0.6032(5)
H142? H 0.334593 0.573296 0.664432
C125? C 0.2691(13) 0.5409(6) 0.5455(9)
H143? H 0.280672 0.509544 0.567338
C126? C 0.2203(13) 0.5490(6) 0.4558(8)
H144? H 0.198362 0.523082 0.416399
loop_
_geom_bond_atom_site_label_1
_geom_bond_atom_site_label_2
_geom_bond_site_symmetry_1
_geom_bond_site_symmetry_2
O1 C35 1_555 1_555
O2 C37 1_555 1_555
O3 C39 1_555 1_555
N1 C1 1_555 1_555
N2 C1 1_555 1_555
N3 N4 1_555 1_555
N4 C34 1_555 1_555
C1 C16 1_555 1_555
C2 N2 1_555 1_555
C3 N1 1_555 1_555
H1 C3 1_555 1_555
C4 N1 1_555 1_555
C5 C4 1_555 1_555
C6 C5 1_555 1_555
H2 C6 1_555 1_555
C7 C6 1_555 1_555
H3 C7 1_555 1_555
C8 C7 1_555 1_555
H4 C8 1_555 1_555
C9 C4 1_555 1_555
C10 C5 1_555 1_555
H5 C10 1_555 1_555
C11 C10 1_555 1_555
H6 C11 1_555 1_555
H7 C11 1_555 1_555
H8 C11 1_555 1_555
C12 C10 1_555 1_555
H9 C12 1_555 1_555
H10 C12 1_555 1_555
H11 C12 1_555 1_555
C13 C9 1_555 1_555
H12 C13 1_555 1_555
C14 C13 1_555 1_555
H13 C14 1_555 1_555
H14 C14 1_555 1_555
H15 C14 1_555 1_555
C15 C13 1_555 1_555
H16 C15 1_555 1_555
H17 C15 1_555 1_555
H18 C15 1_555 1_555
C16 C17 1_555 1_555
C17 H19 1_555 1_555
C18 C17 1_555 1_555
H20 C18 1_555 1_555
C19 C18 1_555 1_555
H21 C19 1_555 1_555
C20 C19 1_555 1_555
H22 C20 1_555 1_555
C21 C16 1_555 1_555
H23 C21 1_555 1_555
C22 N2 1_555 1_555
C23 C22 1_555 1_555
C24 C23 1_555 1_555
H24 C24 1_555 1_555
C25 C24 1_555 1_555
H25 C25 1_555 1_555
C26 C25 1_555 1_555
H26 C26 1_555 1_555
C27 C22 1_555 1_555
C28 C23 1_555 1_555
H27 C28 1_555 1_555
C29 C28 1_555 1_555
H28 C29 1_555 1_555
H29 C29 1_555 1_555
H30 C29 1_555 1_555
C30 C28 1_555 1_555
H31 C30 1_555 1_555
H32 C30 1_555 1_555
H33 C30 1_555 1_555
C31 C27 1_555 1_555
H34 C31 1_555 1_555
C32 C31 1_555 1_555
H35 C32 1_555 1_555
H36 C32 1_555 1_555
H37 C32 1_555 1_555
C33 C31 1_555 1_555
H38 C33 1_555 1_555
H39 C33 1_555 1_555
H40 C33 1_555 1_555
C34 C35 1_555 1_555
C35 C36 1_555 1_555
C36 H41 1_555 1_555
C37 C36 1_555 1_555
C38 C37 1_555 1_555
H42 C38 1_555 1_555
C39 C34 1_555 1_555
C40 O1 1_555 1_555
H43 C40 1_555 1_555
H44 C40 1_555 1_555
H45 C40 1_555 1_555
C41 O2 1_555 1_555
H46 C41 1_555 1_555
H47 C41 1_555 1_555
H48 C41 1_555 1_555
C42 O3 1_555 1_555
H49 C42 1_555 1_555
H50 C42 1_555 1_555
H51 C42 1_555 1_555
O4 C77 1_555 1_555
O5 C79 1_555 1_555
O6 C81 1_555 1_555
N5 C43 1_555 1_555
N6 C43 1_555 1_555
N7 N8 1_555 1_555
N8 C76 1_555 1_555
C43 C58 1_555 1_555
C44 N6 1_555 1_555
C45 N5 1_555 1_555
H52 C45 1_555 1_555
C46 N5 1_555 1_555
C47 C46 1_555 1_555
C48 C47 1_555 1_555
H53 C48 1_555 1_555
C49 C48 1_555 1_555
H54 C49 1_555 1_555
C50 C49 1_555 1_555
H55 C50 1_555 1_555
C51 C46 1_555 1_555
C52 C47 1_555 1_555
H56 C52 1_555 1_555
C53 C52 1_555 1_555
H57 C53 1_555 1_555
H58 C53 1_555 1_555
H59 C53 1_555 1_555
C54 C52 1_555 1_555
H60 C54 1_555 1_555
H61 C54 1_555 1_555
H62 C54 1_555 1_555
C55 C51 1_555 1_555
H63 C55 1_555 1_555
C56 C55 1_555 1_555
H64 C56 1_555 1_555
H65 C56 1_555 1_555
H66 C56 1_555 1_555
C57 C55 1_555 1_555
H67 C57 1_555 1_555
H68 C57 1_555 1_555
H69 C57 1_555 1_555
C58 C59 1_555 1_555
C59 H70 1_555 1_555
C60 C59 1_555 1_555
H71 C60 1_555 1_555
C61 C60 1_555 1_555
H72 C61 1_555 1_555
C62 C61 1_555 1_555
H73 C62 1_555 1_555
C63 C58 1_555 1_555
H74 C63 1_555 1_555
C64 N6 1_555 1_555
C65 C64 1_555 1_555
C66 C65 1_555 1_555
H75 C66 1_555 1_555
C67 C66 1_555 1_555
H76 C67 1_555 1_555
C68 C67 1_555 1_555
H77 C68 1_555 1_555
C69 C64 1_555 1_555
C70 C65 1_555 1_555
H78 C70 1_555 1_555
C71 C70 1_555 1_555
H79 C71 1_555 1_555
H80 C71 1_555 1_555
H81 C71 1_555 1_555
C72 C70 1_555 1_555
H82 C72 1_555 1_555
H83 C72 1_555 1_555
H84 C72 1_555 1_555
C73 C69 1_555 1_555
H85 C73 1_555 1_555
C74 C73 1_555 1_555
H86 C74 1_555 1_555
H87 C74 1_555 1_555
H88 C74 1_555 1_555
C75 C73 1_555 1_555
H89 C75 1_555 1_555
H90 C75 1_555 1_555
H91 C75 1_555 1_555
C76 C77 1_555 1_555
C77 C78 1_555 1_555
C78 H92 1_555 1_555
C79 C78 1_555 1_555
C80 C79 1_555 1_555
H93 C80 1_555 1_555
C81 C76 1_555 1_555
C82 O4 1_555 1_555
H94 C82 1_555 1_555
H95 C82 1_555 1_555
H96 C82 1_555 1_555
C83 O5 1_555 1_555
H97 C83 1_555 1_555
H98 C83 1_555 1_555
H99 C83 1_555 1_555
C84 O6 1_555 1_555
H100 C84 1_555 1_555
H101 C84 1_555 1_555
H102 C84 1_555 1_555
C97 C98 1_555 1_555
C98 H120 1_555 1_555
C99 C98 1_555 1_555
H121 C99 1_555 1_555
C100 C99 1_555 1_555
H122 C100 1_555 1_555
C101 C100 1_555 1_555
H123 C101 1_555 1_555
C102 C97 1_555 1_555
H124 C102 1_555 1_555
C103 C104 1_555 1_555
C104 H125 1_555 1_555
C105 C104 1_555 1_555
H126 C105 1_555 1_555
C106 C105 1_555 1_555
H127 C106 1_555 1_555
C107 C106 1_555 1_555
H128 C107 1_555 1_555
C108 C103 1_555 1_555
H129 C108 1_555 1_555
C109 C110 1_555 1_555
C110 H130 1_555 1_555
C111 C110 1_555 1_555
H131 C111 1_555 1_555
C112 C111 1_555 1_555
H132 C112 1_555 1_555
C113 C112 1_555 1_555
H133 C113 1_555 1_555
C114 C109 1_555 1_555
H134 C114 1_555 1_555
C115 C116 1_555 1_555
C116 H135 1_555 1_555
C117 C116 1_555 1_555
H136 C117 1_555 1_555
C118 C117 1_555 1_555
H137 C118 1_555 1_555
C119 C118 1_555 1_555
H138 C119 1_555 1_555
C120 C115 1_555 1_555
H139 C120 1_555 1_555
B1 C97 1_555 1_555
C127 C128 1_555 1_555
C128 H145 1_555 1_555
C129 C128 1_555 1_555
H146 C129 1_555 1_555
C130 C129 1_555 1_555
H147 C130 1_555 1_555
C131 C130 1_555 1_555
H148 C131 1_555 1_555
C132 C127 1_555 1_555
H149 C132 1_555 1_555
C133 C134 1_555 1_555
C134 H150 1_555 1_555
C135 C134 1_555 1_555
H151 C135 1_555 1_555
C136 C135 1_555 1_555
H152 C136 1_555 1_555
C137 C136 1_555 1_555
H153 C137 1_555 1_555
C138 C133 1_555 1_555
H154 C138 1_555 1_555
C139 C140 1_555 1_555
C140 H155 1_555 1_555
C141 C140 1_555 1_555
H156 C141 1_555 1_555
C142 C141 1_555 1_555
H157 C142 1_555 1_555
C143 C142 1_555 1_555
H158 C143 1_555 1_555
C144 C139 1_555 1_555
H159 C144 1_555 1_555
C145 C146 1_555 1_555
C146 H160 1_555 1_555
C147 C146 1_555 1_555
H161 C147 1_555 1_555
C148 C147 1_555 1_555
H162 C148 1_555 1_555
C149 C148 1_555 1_555
H163 C149 1_555 1_555
C150 C145 1_555 1_555
H164 C150 1_555 1_555
B2 C127 1_555 1_555
N3 C2 1_555 1_555
C2 C3 1_555 1_555
C8 C9 1_555 1_555
C20 C21 1_555 1_555
C26 C27 1_555 1_555
C38 C39 1_555 1_555
N7 C44 1_555 1_555
C44 C45 1_555 1_555
C50 C51 1_555 1_555
C62 C63 1_555 1_555
C68 C69 1_555 1_555
C80 C81 1_555 1_555
C101 C102 1_555 1_555
C103 B1 1_555 1_555
C107 C108 1_555 1_555
C109 B1 1_555 1_555
C113 C114 1_555 1_555
C115 B1 1_555 1_555
C119 C120 1_555 1_555
C131 C132 1_555 1_555
C133 B2 1_555 1_555
C137 C138 1_555 1_555
C139 B2 1_555 1_555
C143 C144 1_555 1_555
C145 B2 1_555 1_555
C149 C150 1_555 1_555

#END
