
#######################################################################
#
#                 Cambridge Crystallographic Data Centre
#                                CCDC 
#
#######################################################################
#
# If this CIF has been generated from an entry in the Cambridge 
# Structural Database, then it will include bibliographic, chemical, 
# crystal, experimental, refinement or atomic coordinate data resulting 
# from the CCDC's data processing and validation procedures.
#
#######################################################################

data_PICQIE
_chemical_formula_moiety         'C43 H47 N4 1+,B1 F4 1-'
_chemical_name_systematic        
'4-((azulen-1-yl)diazenyl)-1,3-bis(2,6-di-isopropylphenyl)-2-phenyl-1H-imidazol-3-ium tetrafluoroborate'
_symmetry_cell_setting           triclinic
_symmetry_space_group_name_H-M   'P -1'
_symmetry_Int_Tables_number      2
_space_group_name_Hall           '-P 1'
loop_
_symmetry_equiv_pos_site_id
_symmetry_equiv_pos_as_xyz
1 x,y,z
2 -x,-y,-z
_cell_length_a                   13.1847(4)
_cell_length_b                   14.0705(7)
_cell_length_c                   23.2150(11)
_cell_angle_alpha                98.229(4)
_cell_angle_beta                 98.105(3)
_cell_angle_gamma                112.280(4)
_cell_volume                     3853.49
_exptl_crystal_colour            'intense brown'
_exptl_crystal_description       plate
_cell_formula_units_Z            4
loop_
_atom_site_label
_atom_site_type_symbol
_atom_site_fract_x
_atom_site_fract_y
_atom_site_fract_z
F1 F 0.89222(9) 0.29046(8) 0.38451(4)
F2 F 0.71946(10) 0.22922(10) 0.32451(5)
F3 F 0.87496(10) 0.28429(10) 0.28523(5)
F4 F 0.82473(12) 0.13324(9) 0.32014(6)
B1 B 0.82805(17) 0.23365(16) 0.32809(9)
F5 F 0.09173(9) 0.73344(9) 0.12138(5)
F6 F 0.11268(17) 0.8441(2) 0.20985(14)
F7 F 0.1447(3) 0.69802(15) 0.21092(10)
F8 F 0.26659(18) 0.8350(3) 0.18218(14)
B2 B 0.15321(18) 0.77895(15) 0.17938(9)
N1 N 0.36597(11) 0.20508(10) 0.36684(6)
N2 N 0.33495(11) 0.15787(10) 0.27086(6)
N3 N 0.27411(11) 0.04524(10) 0.39745(6)
N4 N 0.22565(11) -0.05541(10) 0.37792(6)
C1 C 0.38431(13) 0.24092(12) 0.31722(7)
C2 C 0.30421(13) 0.09655(11) 0.35199(7)
C3 C 0.28515(13) 0.06730(12) 0.29128(7)
H1 H 0.245343 -0.001960 0.267754
C4 C 0.39232(14) 0.27187(12) 0.42563(7)
C5 C 0.31364(14) 0.31160(12) 0.43937(7)
C6 C 0.34150(15) 0.37853(13) 0.49508(8)
H2 H 0.290351 0.406664 0.506355
C7 C 0.44180(16) 0.40461(13) 0.53405(7)
H3 H 0.459931 0.451988 0.571224
C8 C 0.51636(15) 0.36212(13) 0.51932(7)
H4 H 0.584020 0.378993 0.547148
C9 C 0.49353(14) 0.29487(13) 0.46420(7)
C10 C 0.20073(15) 0.28118(14) 0.39873(8)
H5 H 0.204244 0.250443 0.357846
C11 C 0.17012(17) 0.37525(16) 0.39471(9)
H6 H 0.158632 0.402389 0.433422
H7 H 0.101025 0.352824 0.364477
H8 H 0.231146 0.430637 0.383665
C12 C 0.10905(16) 0.19598(15) 0.41962(10)
H9 H 0.128147 0.135265 0.420540
H10 H 0.036882 0.174035 0.391993
H11 H 0.103712 0.224349 0.459619
C13 C 0.57702(14) 0.24987(14) 0.44914(8)
H12 H 0.553729 0.215681 0.405813
C14 C 0.57352(17) 0.16515(16) 0.48472(8)
H13 H 0.624130 0.133355 0.473124
H14 H 0.496848 0.110799 0.476355
H15 H 0.597346 0.197206 0.527392
C15 C 0.69602(15) 0.33552(16) 0.46049(9)
H16 H 0.695364 0.390765 0.439275
H17 H 0.745673 0.304830 0.446151
H18 H 0.723227 0.365793 0.503301
C16 C 0.45053(14) 0.35159(12) 0.31555(7)
C17 C 0.56656(16) 0.38735(14) 0.32268(8)
H19 H 0.602070 0.340475 0.326739
C18 C 0.62977(18) 0.49270(16) 0.32377(9)
H20 H 0.708846 0.517787 0.328226
C19 C 0.57802(19) 0.56092(14) 0.31842(8)
H21 H 0.621725 0.632671 0.319172
C20 C 0.46310(19) 0.52541(14) 0.31197(8)
H22 H 0.427992 0.572729 0.308519
C21 C 0.39896(16) 0.42045(13) 0.31053(8)
H23 H 0.319923 0.395848 0.306105
C22 C 0.31872(13) 0.16514(11) 0.20832(7)
C23 C 0.40467(14) 0.17285(12) 0.17771(7)
C24 C 0.38391(15) 0.17960(13) 0.11819(7)
H24 H 0.440071 0.184681 0.095803
C25 C 0.28305(15) 0.17904(13) 0.09099(7)
H25 H 0.271282 0.185026 0.050589
C26 C 0.19950(15) 0.16978(13) 0.12253(7)
H26 H 0.130238 0.168272 0.103213
C27 C 0.21506(14) 0.16263(12) 0.18222(7)
C28 C 0.51500(15) 0.17126(15) 0.20563(8)
H27 H 0.520639 0.180994 0.249665
C29 C 0.61519(16) 0.2611(2) 0.19423(9)
H28 H 0.618665 0.247028 0.152131
H29 H 0.684525 0.266391 0.219056
H30 H 0.606577 0.327268 0.204195
C30 C 0.5165(2) 0.06427(19) 0.18282(10)
H31 H 0.585664 0.062114 0.203220
H32 H 0.513173 0.053738 0.139834
H33 H 0.451562 0.008480 0.190820
C31 C 0.12048(14) 0.15085(15) 0.21506(8)
H34 H 0.146917 0.147063 0.256872
C32 C 0.08899(17) 0.24501(17) 0.21743(9)
H35 H 0.154420 0.309294 0.238145
H36 H 0.028039 0.235046 0.238864
H37 H 0.064324 0.251096 0.176805
C33 C 0.01857(16) 0.04748(16) 0.18547(9)
H38 H -0.008586 0.049421 0.144308
H39 H -0.041209 0.038812 0.207635
H40 H 0.040563 -0.011678 0.185599
C34 C 0.18611(13) -0.11073(12) 0.41962(7)
C35 C 0.18707(14) -0.07537(13) 0.48047(7)
H41 H 0.220582 -0.004160 0.501621
C36 C 0.13223(15) -0.15995(14) 0.50359(8)
H42 H 0.122458 -0.156803 0.543485
C37 C 0.09200(14) -0.25357(13) 0.45857(7)
C38 C 0.03002(15) -0.35400(14) 0.46558(8)
H43 H 0.013845 -0.359204 0.503899
C39 C -0.01175(16) -0.44865(14) 0.42341(9)
H44 H -0.054466 -0.509557 0.436570
C40 C 0.00067(16) -0.46587(14) 0.36481(9)
H45 H -0.033084 -0.537295 0.344019
C41 C 0.05523(16) -0.39397(14) 0.33205(8)
H46 H 0.054670 -0.423384 0.292469
C42 C 0.11041(14) -0.28505(13) 0.34934(7)
H47 H 0.139670 -0.249444 0.319644
C43 C 0.12787(13) -0.22222(12) 0.40463(7)
N5 N 0.37887(11) 0.19227(10) 0.86350(6)
N6 N 0.34711(11) 0.14581(10) 0.76732(5)
N7 N 0.27112(11) 0.03666(10) 0.89336(6)
N8 N 0.22558(11) -0.06434(10) 0.87606(6)
C44 C 0.40340(13) 0.22734(12) 0.81423(7)
C45 C 0.30805(13) 0.08586(11) 0.84797(7)
C46 C 0.28784(13) 0.05722(11) 0.78734(7)
H48 H 0.241800 -0.010692 0.763463
C47 C 0.41452(13) 0.25842(12) 0.92312(7)
C48 C 0.34535(14) 0.30719(12) 0.94079(7)
C49 C 0.38334(16) 0.37252(14) 0.99730(8)
H49 H 0.339455 0.407177 1.011460
C50 C 0.48377(16) 0.38800(14) 1.03327(8)
H50 H 0.508443 0.434277 1.071289
C51 C 0.54874(15) 0.33713(14) 1.01471(7)
H51 H 0.616814 0.347783 1.040282
C52 C 0.51485(14) 0.27023(13) 0.95864(7)
C53 C 0.23242(15) 0.28650(14) 0.90358(8)
H52 H 0.229231 0.253600 0.861848
C54 C 0.13856(15) 0.20812(15) 0.92635(9)
H53 H 0.139190 0.238889 0.967106
H54 H 0.150378 0.143371 0.926014
H55 H 0.066019 0.191938 0.900511
C55 C 0.21220(17) 0.38687(15) 0.90181(9)
H56 H 0.271999 0.436372 0.886736
H57 H 0.212128 0.419327 0.942066
H58 H 0.139601 0.368840 0.875499
C56 C 0.58614(15) 0.21317(15) 0.93999(8)
H59 H 0.558698 0.181689 0.896349
C57 C 0.57093(19) 0.12314(17) 0.97306(9)
H60 H 0.491311 0.075542 0.964737
H61 H 0.597633 0.152241 1.016006
H62 H 0.614130 0.084241 0.959525
C58 C 0.70972(16) 0.28860(19) 0.95054(9)
H63 H 0.740578 0.314862 0.993445
H64 H 0.716021 0.347857 0.931516
H65 H 0.751688 0.251385 0.933427
C59 C 0.48953(14) 0.33262(12) 0.81529(7)
C60 C 0.59861(15) 0.34226(15) 0.81527(8)
H66 H 0.614145 0.281314 0.810066
C61 C 0.68460(17) 0.44098(17) 0.82286(9)
H67 H 0.758968 0.447702 0.822529
C62 C 0.6619(2) 0.52912(16) 0.83085(8)
H68 H 0.721283 0.596739 0.837198
C63 C 0.5537(2) 0.52025(15) 0.82975(9)
H69 H 0.538596 0.581476 0.834030
C64 C 0.46647(18) 0.42159(13) 0.82235(8)
H70 H 0.392081 0.415281 0.822147
C65 C 0.33021(13) 0.15487(11) 0.70527(7)
C66 C 0.40828(13) 0.14871(12) 0.67157(7)
C67 C 0.38868(14) 0.16060(13) 0.61309(7)
H71 H 0.440984 0.158839 0.589138
C68 C 0.29458(15) 0.17496(12) 0.58904(7)
H72 H 0.283605 0.183929 0.549184
C69 C 0.21630(14) 0.17628(12) 0.62295(7)
H73 H 0.150753 0.183708 0.605601
C70 C 0.23255(13) 0.16686(12) 0.68212(7)
C71 C 0.50520(14) 0.12170(14) 0.69465(8)
H74 H 0.514232 0.130070 0.738823
C72 C 0.47565(19) 0.00583(16) 0.66753(10)
H75 H 0.469372 -0.003659 0.624328
H76 H 0.404021 -0.038506 0.675996
H77 H 0.534703 -0.014238 0.684966
C73 C 0.61561(16) 0.19285(18) 0.68184(9)
H78 H 0.631878 0.266350 0.698634
H79 H 0.610050 0.182930 0.638678
H80 H 0.676049 0.175117 0.699953
C74 C 0.14499(14) 0.16885(13) 0.71799(8)
H81 H 0.169324 0.158548 0.758555
C75 C 0.03133(15) 0.07805(16) 0.68867(9)
H82 H 0.038901 0.011030 0.686333
H83 H 0.006534 0.085782 0.648452
H84 H -0.024057 0.079323 0.712491
C76 C 0.13575(17) 0.27535(15) 0.72526(9)
H85 H 0.113987 0.288013 0.685898
H86 H 0.208407 0.331409 0.746034
H87 H 0.078960 0.274548 0.748473
C77 C 0.17840(13) -0.11548(12) 0.91757(7)
C78 C 0.16536(15) -0.07477(13) 0.97477(7)
H88 H 0.193387 -0.002381 0.993214
C79 C 0.10612(15) -0.15660(14) 0.99871(8)
H89 H 0.086655 -0.149918 1.036497
C80 C 0.07808(14) -0.25337(13) 0.95828(7)
C81 C 0.01659(15) -0.35254(15) 0.96747(9)
H90 H -0.008749 -0.354490 1.003793
C82 C -0.01255(16) -0.44982(14) 0.92978(9)
H91 H -0.056426 -0.509354 0.943659
C83 C 0.01336(16) -0.47182(14) 0.87516(10)
H92 H -0.013751 -0.544470 0.857503
C84 C 0.07329(16) -0.40353(14) 0.84202(9)
H93 H 0.081192 -0.436303 0.805212
C85 C 0.12316(14) -0.29401(13) 0.85538(8)
H94 H 0.159374 -0.261495 0.826410
C86 C 0.12591(13) -0.22696(12) 0.90628(7)
F9? F 0.1381(12) 0.8719(8) 0.1827(7)
F10? F 0.1012(11) 0.7169(10) 0.2114(5)
F11? F 0.2571(9) 0.7936(13) 0.1755(7)
loop_
_geom_bond_atom_site_label_1
_geom_bond_atom_site_label_2
_geom_bond_site_symmetry_1
_geom_bond_site_symmetry_2
F1 B1 1_555 1_555
F2 B1 1_555 1_555
F3 B1 1_555 1_555
F4 B1 1_555 1_555
F5 B2 1_555 1_555
F6 B2 1_555 1_555
F7 B2 1_555 1_555
F8 B2 1_555 1_555
N1 C1 1_555 1_555
N2 C1 1_555 1_555
N3 N4 1_555 1_555
N4 C34 1_555 1_555
C1 C16 1_555 1_555
C2 N1 1_555 1_555
C3 N2 1_555 1_555
H1 C3 1_555 1_555
C4 N1 1_555 1_555
C5 C4 1_555 1_555
C6 C5 1_555 1_555
H2 C6 1_555 1_555
C7 C6 1_555 1_555
H3 C7 1_555 1_555
C8 C7 1_555 1_555
H4 C8 1_555 1_555
C9 C4 1_555 1_555
C10 C5 1_555 1_555
H5 C10 1_555 1_555
C11 C10 1_555 1_555
H6 C11 1_555 1_555
H7 C11 1_555 1_555
H8 C11 1_555 1_555
C12 C10 1_555 1_555
H9 C12 1_555 1_555
H10 C12 1_555 1_555
H11 C12 1_555 1_555
C13 C9 1_555 1_555
H12 C13 1_555 1_555
C14 C13 1_555 1_555
H13 C14 1_555 1_555
H14 C14 1_555 1_555
H15 C14 1_555 1_555
C15 C13 1_555 1_555
H16 C15 1_555 1_555
H17 C15 1_555 1_555
H18 C15 1_555 1_555
C16 C17 1_555 1_555
C17 H19 1_555 1_555
C18 C17 1_555 1_555
H20 C18 1_555 1_555
C19 C18 1_555 1_555
H21 C19 1_555 1_555
C20 C19 1_555 1_555
H22 C20 1_555 1_555
C21 C16 1_555 1_555
H23 C21 1_555 1_555
C22 N2 1_555 1_555
C23 C22 1_555 1_555
C24 C23 1_555 1_555
H24 C24 1_555 1_555
C25 C24 1_555 1_555
H25 C25 1_555 1_555
C26 C25 1_555 1_555
H26 C26 1_555 1_555
C27 C22 1_555 1_555
C28 C23 1_555 1_555
H27 C28 1_555 1_555
C29 C28 1_555 1_555
H28 C29 1_555 1_555
H29 C29 1_555 1_555
H30 C29 1_555 1_555
C30 C28 1_555 1_555
H31 C30 1_555 1_555
H32 C30 1_555 1_555
H33 C30 1_555 1_555
C31 C27 1_555 1_555
H34 C31 1_555 1_555
C32 C31 1_555 1_555
H35 C32 1_555 1_555
H36 C32 1_555 1_555
H37 C32 1_555 1_555
C33 C31 1_555 1_555
H38 C33 1_555 1_555
H39 C33 1_555 1_555
H40 C33 1_555 1_555
C34 C35 1_555 1_555
C35 H41 1_555 1_555
C36 C35 1_555 1_555
H42 C36 1_555 1_555
C37 C36 1_555 1_555
C38 C37 1_555 1_555
H43 C38 1_555 1_555
C39 C38 1_555 1_555
H44 C39 1_555 1_555
C40 C39 1_555 1_555
H45 C40 1_555 1_555
C41 C40 1_555 1_555
H46 C41 1_555 1_555
C42 C41 1_555 1_555
H47 C42 1_555 1_555
C43 C34 1_555 1_555
N5 C44 1_555 1_555
N6 C44 1_555 1_555
N7 N8 1_555 1_555
N8 C77 1_555 1_555
C44 C59 1_555 1_555
C45 N5 1_555 1_555
C46 N6 1_555 1_555
H48 C46 1_555 1_555
C47 N5 1_555 1_555
C48 C47 1_555 1_555
C49 C48 1_555 1_555
H49 C49 1_555 1_555
C50 C49 1_555 1_555
H50 C50 1_555 1_555
C51 C50 1_555 1_555
H51 C51 1_555 1_555
C52 C47 1_555 1_555
C53 C48 1_555 1_555
H52 C53 1_555 1_555
C54 C53 1_555 1_555
H53 C54 1_555 1_555
H54 C54 1_555 1_555
H55 C54 1_555 1_555
C55 C53 1_555 1_555
H56 C55 1_555 1_555
H57 C55 1_555 1_555
H58 C55 1_555 1_555
C56 C52 1_555 1_555
H59 C56 1_555 1_555
C57 C56 1_555 1_555
H60 C57 1_555 1_555
H61 C57 1_555 1_555
H62 C57 1_555 1_555
C58 C56 1_555 1_555
H63 C58 1_555 1_555
H64 C58 1_555 1_555
H65 C58 1_555 1_555
C59 C60 1_555 1_555
C60 H66 1_555 1_555
C61 C60 1_555 1_555
H67 C61 1_555 1_555
C62 C61 1_555 1_555
H68 C62 1_555 1_555
C63 C62 1_555 1_555
H69 C63 1_555 1_555
C64 C59 1_555 1_555
H70 C64 1_555 1_555
C65 N6 1_555 1_555
C66 C65 1_555 1_555
C67 C66 1_555 1_555
H71 C67 1_555 1_555
C68 C67 1_555 1_555
H72 C68 1_555 1_555
C69 C68 1_555 1_555
H73 C69 1_555 1_555
C70 C65 1_555 1_555
C71 C66 1_555 1_555
H74 C71 1_555 1_555
C72 C71 1_555 1_555
H75 C72 1_555 1_555
H76 C72 1_555 1_555
H77 C72 1_555 1_555
C73 C71 1_555 1_555
H78 C73 1_555 1_555
H79 C73 1_555 1_555
H80 C73 1_555 1_555
C74 C70 1_555 1_555
H81 C74 1_555 1_555
C75 C74 1_555 1_555
H82 C75 1_555 1_555
H83 C75 1_555 1_555
H84 C75 1_555 1_555
C76 C74 1_555 1_555
H85 C76 1_555 1_555
H86 C76 1_555 1_555
H87 C76 1_555 1_555
C77 C78 1_555 1_555
C78 H88 1_555 1_555
C79 C78 1_555 1_555
H89 C79 1_555 1_555
C80 C79 1_555 1_555
C81 C80 1_555 1_555
H90 C81 1_555 1_555
C82 C81 1_555 1_555
H91 C82 1_555 1_555
C83 C82 1_555 1_555
H92 C83 1_555 1_555
C84 C83 1_555 1_555
H93 C84 1_555 1_555
C85 C84 1_555 1_555
H94 C85 1_555 1_555
C86 C77 1_555 1_555
N3 C2 1_555 1_555
C2 C3 1_555 1_555
C8 C9 1_555 1_555
C20 C21 1_555 1_555
C26 C27 1_555 1_555
C37 C43 1_555 1_555
C42 C43 1_555 1_555
N7 C45 1_555 1_555
C45 C46 1_555 1_555
C51 C52 1_555 1_555
C63 C64 1_555 1_555
C69 C70 1_555 1_555
C80 C86 1_555 1_555
C85 C86 1_555 1_555

#END
