
#######################################################################
#
#                 Cambridge Crystallographic Data Centre
#                                CCDC 
#
#######################################################################
#
# If this CIF has been generated from an entry in the Cambridge 
# Structural Database, then it will include bibliographic, chemical, 
# crystal, experimental, refinement or atomic coordinate data resulting 
# from the CCDC's data processing and validation procedures.
#
#######################################################################

data_PICREB
_chemical_formula_moiety         'C42 H52 N5 1+,B1 F4 1-'
_chemical_name_systematic        
'5-amino-1,3-bis(2,6-di-isopropylphenyl)-2-phenyl-4-((2,4,6-trimethylphenyl)diazenyl)-1H-imidazol-3-ium tetrafluoroborate'
_symmetry_cell_setting           triclinic
_symmetry_space_group_name_H-M   'P -1'
_symmetry_Int_Tables_number      2
_space_group_name_Hall           '-P 1'
loop_
_symmetry_equiv_pos_site_id
_symmetry_equiv_pos_as_xyz
1 x,y,z
2 -x,-y,-z
_cell_length_a                   11.4541(7)
_cell_length_b                   13.0004(7)
_cell_length_c                   14.0234(9)
_cell_angle_alpha                82.723(5)
_cell_angle_beta                 79.033(5)
_cell_angle_gamma                74.986(5)
_cell_volume                     1973.47
_exptl_crystal_colour            'intense orange'
_exptl_crystal_description       prism
_cell_formula_units_Z            2
loop_
_atom_site_label
_atom_site_type_symbol
_atom_site_fract_x
_atom_site_fract_y
_atom_site_fract_z
F1 F 0.69966(15) 0.84888(12) 0.10684(12)
F2 F 0.89775(17) 0.84284(14) 0.04856(13)
F3 F 0.79684(17) 0.75492(13) -0.02351(12)
F4 F 0.84189(15) 0.69501(11) 0.12727(11)
B1 B 0.8124(3) 0.7837(2) 0.06349(19)
N1 N 0.37245(13) 0.74117(11) 0.26023(10)
N2 N 0.32826(13) 0.58647(11) 0.27786(10)
N3 N 0.52285(14) 0.46420(12) 0.25098(10)
N4 N 0.63840(14) 0.45476(12) 0.23653(10)
N5 N 0.59220(16) 0.69190(14) 0.21842(13)
C1 C 0.27841(16) 0.69076(13) 0.28147(12)
C2 C 0.45562(16) 0.56735(14) 0.25579(12)
C3 C 0.48270(16) 0.66686(14) 0.24238(12)
C4 C 0.14860(17) 0.74109(14) 0.31243(13)
C5 C 0.1161(2) 0.80716(18) 0.38841(17)
H1 H 0.178187 0.822115 0.416874
C6 C -0.0057(2) 0.8514(2) 0.4231(2)
H2 H -0.027239 0.896380 0.475240
C7 C -0.0965(2) 0.82981(18) 0.38118(19)
H3 H -0.180313 0.860238 0.404686
C8 C -0.0655(2) 0.76469(19) 0.30601(17)
H4 H -0.127985 0.750428 0.277485
C9 C 0.05634(19) 0.71967(17) 0.27153(15)
H5 H 0.077212 0.674063 0.219887
C10 C 0.26679(16) 0.49981(13) 0.29594(13)
C11 C 0.23996(18) 0.45850(15) 0.39167(13)
C12 C 0.1894(2) 0.36977(16) 0.40565(14)
H6 H 0.168525 0.339377 0.469922
C13 C 0.16926(19) 0.32532(15) 0.32735(15)
H7 H 0.135003 0.264818 0.338478
C14 C 0.19862(18) 0.36836(14) 0.23303(14)
H8 H 0.184532 0.336905 0.180028
C15 C 0.24873(16) 0.45749(14) 0.21487(13)
C16 C 0.2820(2) 0.50280(16) 0.11058(13)
H9 H 0.311413 0.568313 0.113011
C17 C 0.1704(3) 0.5354(2) 0.05734(17)
H10 H 0.146845 0.471205 0.046027
H11 H 0.191489 0.574712 -0.005272
H12 H 0.101716 0.581007 0.097429
C18 C 0.3850(2) 0.4238(2) 0.05365(15)
H13 H 0.457637 0.407419 0.085376
H14 H 0.404729 0.455093 -0.012989
H15 H 0.359133 0.358029 0.051800
C19 C 0.2623(2) 0.50708(16) 0.47747(13)
H16 H 0.300508 0.567984 0.450859
C20 C 0.1394(3) 0.5528(2) 0.54158(19)
H17 H 0.083641 0.600522 0.500978
H18 H 0.153079 0.592848 0.591402
H19 H 0.103050 0.494101 0.573217
C21 C 0.3506(4) 0.4278(2) 0.5348(2)
H20 H 0.317767 0.365055 0.558554
H21 H 0.361262 0.461271 0.590389
H22 H 0.429939 0.405799 0.492722
C22 C 0.71249(17) 0.34993(14) 0.23021(12)
C23 C 0.83831(18) 0.34593(15) 0.20176(13)
C24 C 0.92040(19) 0.24813(18) 0.18710(15)
H23 H 1.004871 0.245882 0.166222
C25 C 0.8826(2) 0.15294(16) 0.20207(14)
C26 C 0.75895(19) 0.15816(15) 0.23377(13)
H24 H 0.732952 0.093320 0.245644
C27 C 0.67099(17) 0.25382(14) 0.24903(12)
C28 C 0.8840(2) 0.44672(18) 0.18434(17)
H25 H 0.838056 0.497587 0.138918
H26 H 0.971309 0.429581 0.156521
H27 H 0.872260 0.478469 0.246276
C29 C 0.9725(2) 0.04820(19) 0.1816(2)
H28 H 1.028378 0.057229 0.120599
H29 H 0.928128 -0.005195 0.175737
H30 H 1.019681 0.024227 0.235147
C30 C 0.54035(19) 0.24765(15) 0.28434(15)
H31 H 0.508449 0.284873 0.343920
H32 H 0.536834 0.172603 0.298102
H33 H 0.490609 0.281449 0.234016
C31 C 0.35782(16) 0.85580(13) 0.23840(13)
C32 C 0.37015(18) 0.91651(15) 0.30951(13)
C33 C 0.3528(2) 1.02657(15) 0.28542(15)
H34 H 0.359159 1.071084 0.331985
C34 C 0.3264(2) 1.07168(15) 0.19466(16)
H35 H 0.313581 1.146754 0.180141
C35 C 0.3185(2) 1.00876(15) 0.12536(14)
H36 H 0.301365 1.040974 0.063264
C36 C 0.33541(17) 0.89836(14) 0.14486(13)
C37 C 0.33212(19) 0.83097(15) 0.06529(13)
H37 H 0.356191 0.754107 0.089926
C38 C 0.2040(2) 0.85272(19) 0.03839(16)
H38 H 0.144891 0.842896 0.097168
H39 H 0.204217 0.802925 -0.008613
H40 H 0.181020 0.926247 0.009398
C39 C 0.4257(2) 0.8502(2) -0.02441(16)
H41 H 0.402707 0.924687 -0.050929
H42 H 0.427383 0.802710 -0.073921
H43 H 0.507121 0.835353 -0.005837
C40 C 0.4052(2) 0.86885(16) 0.40767(15)
H44 H 0.398700 0.792869 0.416672
C41 C 0.3209(3) 0.9275(2) 0.49227(16)
H45 H 0.334510 0.999262 0.490006
H46 H 0.338808 0.887768 0.554099
H47 H 0.235325 0.933269 0.486977
C42 C 0.5388(2) 0.8696(2) 0.40905(19)
H48 H 0.592782 0.828401 0.356869
H49 H 0.561385 0.837584 0.472117
H50 H 0.547539 0.943448 0.399035
H51 H 0.660(3) 0.639(2) 0.2031(19)
H52 H 0.598(3) 0.755(3) 0.187(2)
loop_
_geom_bond_atom_site_label_1
_geom_bond_atom_site_label_2
_geom_bond_site_symmetry_1
_geom_bond_site_symmetry_2
F1 B1 1_555 1_555
F2 B1 1_555 1_555
F3 B1 1_555 1_555
F4 B1 1_555 1_555
N1 C1 1_555 1_555
N2 C1 1_555 1_555
N3 N4 1_555 1_555
N4 C22 1_555 1_555
N5 C3 1_555 1_555
C1 C4 1_555 1_555
C2 N2 1_555 1_555
C3 N1 1_555 1_555
C4 C5 1_555 1_555
C5 H1 1_555 1_555
C6 C5 1_555 1_555
H2 C6 1_555 1_555
C7 C6 1_555 1_555
H3 C7 1_555 1_555
C8 C7 1_555 1_555
H4 C8 1_555 1_555
C9 C4 1_555 1_555
H5 C9 1_555 1_555
C10 N2 1_555 1_555
C11 C10 1_555 1_555
C12 C11 1_555 1_555
H6 C12 1_555 1_555
C13 C12 1_555 1_555
H7 C13 1_555 1_555
C14 C13 1_555 1_555
H8 C14 1_555 1_555
C15 C10 1_555 1_555
C16 C15 1_555 1_555
H9 C16 1_555 1_555
C17 C16 1_555 1_555
H10 C17 1_555 1_555
H11 C17 1_555 1_555
H12 C17 1_555 1_555
C18 C16 1_555 1_555
H13 C18 1_555 1_555
H14 C18 1_555 1_555
H15 C18 1_555 1_555
C19 C11 1_555 1_555
H16 C19 1_555 1_555
C20 C19 1_555 1_555
H17 C20 1_555 1_555
H18 C20 1_555 1_555
H19 C20 1_555 1_555
C21 C19 1_555 1_555
H20 C21 1_555 1_555
H21 C21 1_555 1_555
H22 C21 1_555 1_555
C22 C23 1_555 1_555
C23 C24 1_555 1_555
C24 H23 1_555 1_555
C25 C24 1_555 1_555
C26 C25 1_555 1_555
H24 C26 1_555 1_555
C27 C22 1_555 1_555
C28 C23 1_555 1_555
H25 C28 1_555 1_555
H26 C28 1_555 1_555
H27 C28 1_555 1_555
C29 C25 1_555 1_555
H28 C29 1_555 1_555
H29 C29 1_555 1_555
H30 C29 1_555 1_555
C30 C27 1_555 1_555
H31 C30 1_555 1_555
H32 C30 1_555 1_555
H33 C30 1_555 1_555
C31 N1 1_555 1_555
C32 C31 1_555 1_555
C33 C32 1_555 1_555
H34 C33 1_555 1_555
C34 C33 1_555 1_555
H35 C34 1_555 1_555
C35 C34 1_555 1_555
H36 C35 1_555 1_555
C36 C31 1_555 1_555
C37 C36 1_555 1_555
H37 C37 1_555 1_555
C38 C37 1_555 1_555
H38 C38 1_555 1_555
H39 C38 1_555 1_555
H40 C38 1_555 1_555
C39 C37 1_555 1_555
H41 C39 1_555 1_555
H42 C39 1_555 1_555
H43 C39 1_555 1_555
C40 C32 1_555 1_555
H44 C40 1_555 1_555
C41 C40 1_555 1_555
H45 C41 1_555 1_555
H46 C41 1_555 1_555
H47 C41 1_555 1_555
C42 C40 1_555 1_555
H48 C42 1_555 1_555
H49 C42 1_555 1_555
H50 C42 1_555 1_555
H51 N5 1_555 1_555
H52 N5 1_555 1_555
N3 C2 1_555 1_555
C2 C3 1_555 1_555
C8 C9 1_555 1_555
C14 C15 1_555 1_555
C26 C27 1_555 1_555
C35 C36 1_555 1_555

#END
