
#######################################################################
#
#                 Cambridge Crystallographic Data Centre
#                                CCDC 
#
#######################################################################
#
# If this CIF has been generated from an entry in the Cambridge 
# Structural Database, then it will include bibliographic, chemical, 
# crystal, experimental, refinement or atomic coordinate data resulting 
# from the CCDC's data processing and validation procedures.
#
#######################################################################

data_PICVIJ
_chemical_formula_moiety         'C12 H11 B2 Cl1 F4 N4'
_chemical_name_systematic        
10-chloro-5,5,12,12-tetrafluoro-1,3-dimethyl-5H,12H-pyrido[1',2':4,5][1,2,4,3]triazaborolo[2,1-a]pyrrolo[1,2-d][1,2,4,3]triazaborinine-6,13-diium-5,12-diide
_symmetry_cell_setting           monoclinic
_symmetry_space_group_name_H-M   'P 21/n'
_symmetry_Int_Tables_number      14
_space_group_name_Hall           '-P 2yn'
loop_
_symmetry_equiv_pos_site_id
_symmetry_equiv_pos_as_xyz
1 x,y,z
2 1/2-x,1/2+y,1/2-z
3 -x,-y,-z
4 1/2+x,1/2-y,1/2+z
_cell_length_a                   6.9769(7)
_cell_length_b                   13.2915(12)
_cell_length_c                   15.7055(15)
_cell_angle_alpha                90
_cell_angle_beta                 101.3890(10)
_cell_angle_gamma                90
_cell_volume                     1427.75
_exptl_crystal_colour            colorless
_exptl_crystal_description       block
_cell_formula_units_Z            4
loop_
_atom_site_label
_atom_site_type_symbol
_atom_site_fract_x
_atom_site_fract_y
_atom_site_fract_z
Cl1 Cl 0.03815(9) 0.77485(4) 0.94009(4)
B1 B 0.5201(3) 0.58263(17) 0.67670(13)
B2 B 0.4105(3) 0.66377(16) 0.90542(13)
F1 F 0.5444(2) 0.66192(10) 0.62300(8)
F2 F 0.35533(19) 0.60065(9) 0.96401(7)
F3 F 0.51429(18) 0.74324(10) 0.94565(8)
F4 F 0.38494(18) 0.51645(11) 0.63240(8)
N1 N 0.2378(2) 0.69976(10) 0.83127(9)
N2 N 0.5243(2) 0.60722(11) 0.84322(9)
N3 N 0.4423(2) 0.62545(12) 0.75595(9)
N4 N 0.7139(2) 0.53082(11) 0.71384(9)
C1 C 0.1452(3) 0.70603(14) 0.67563(12)
H1 H 0.1717 0.6918 0.6211
C2 C 0.7794(3) 0.51186(13) 0.80202(11)
C3 C 0.2743(3) 0.67677(13) 0.75183(11)
C4 C 0.6806(3) 0.55192(14) 0.86260(11)
H2 H 0.7293 0.5383 0.9210
C5 C 0.9909(3) 0.44281(14) 0.73059(13)
H3 H 1.0980 0.4090 0.7173
C6 C 0.0709(3) 0.74985(14) 0.83731(13)
C7 C -0.0193(3) 0.75568(16) 0.68424(14)
H4 H -0.1076 0.7754 0.6347
C8 C 0.9528(3) 0.45564(14) 0.81295(12)
C9 C -0.0598(3) 0.77813(16) 0.76605(14)
H5 H -0.1739 0.8117 0.7711
C10 C 0.8430(3) 0.48874(14) 0.67072(12)
C11 C 1.0663(3) 0.41562(17) 0.89742(14)
H6 H 1.0528 0.3438 0.8986
H7 H 1.0167 0.4447 0.9447
H8 H 1.2018 0.4328 0.9029
C12 C 0.8200(4) 0.49343(18) 0.57489(13)
H9 H 0.6895 0.4737 0.5483
H10 H 0.9121 0.4487 0.5566
H11 H 0.8434 0.5609 0.5578
loop_
_geom_bond_atom_site_label_1
_geom_bond_atom_site_label_2
_geom_bond_site_symmetry_1
_geom_bond_site_symmetry_2
Cl1 C6 1_555 1_555
B1 F1 1_555 1_555
B2 F2 1_555 1_555
F3 B2 1_555 1_555
F4 B1 1_555 1_555
N1 B2 1_555 1_555
N2 B2 1_555 1_555
N3 B1 1_555 1_555
N4 B1 1_555 1_555
C1 H1 1_555 1_555
C2 N4 1_555 1_555
C3 N1 1_555 1_555
C4 N2 1_555 1_555
H2 C4 1_555 1_555
C5 H3 1_555 1_555
C6 N1 1_555 1_555
C7 C1 1_555 1_555
H4 C7 1_555 1_555
C8 C2 1_555 1_555
C9 C6 1_555 1_555
H5 C9 1_555 1_555
C10 N4 1_555 1_555
C11 C8 1_555 1_555
H6 C11 1_555 1_555
H7 C11 1_555 1_555
H8 C11 1_555 1_555
C12 C10 1_555 1_555
H9 C12 1_555 1_555
H10 C12 1_555 1_555
H11 C12 1_555 1_555
N2 N3 1_555 1_555
N3 C3 1_555 1_555
C1 C3 1_555 1_555
C2 C4 1_555 1_555
C5 C8 1_555 1_555
C5 C10 1_555 1_555
C7 C9 1_555 1_555

#END
