
#######################################################################
#
#                 Cambridge Crystallographic Data Centre
#                                CCDC 
#
#######################################################################
#
# If this CIF has been generated from an entry in the Cambridge 
# Structural Database, then it will include bibliographic, chemical, 
# crystal, experimental, refinement or atomic coordinate data resulting 
# from the CCDC's data processing and validation procedures.
#
#######################################################################

data_PICVOP
_chemical_formula_moiety         'C14 H12 B2 F4 N4 S1'
_chemical_name_systematic        
5,5,13,13-tetrafluoro-1,3-dimethyl-5H,13H-pyrrolo[1'',2'':4',5'][1,2,4,3]triazaborinino[2',1':1,2][1,2,4,3]triazaborolo[5,4-b][1,3]benzothiazole-6,14-diium-5,13-diide
_symmetry_cell_setting           monoclinic
_symmetry_space_group_name_H-M   'C 2/m'
_symmetry_Int_Tables_number      12
_space_group_name_Hall           '-C 2y'
loop_
_symmetry_equiv_pos_site_id
_symmetry_equiv_pos_as_xyz
1 x,y,z
2 -x,y,-z
3 1/2+x,1/2+y,z
4 1/2-x,1/2+y,-z
5 -x,-y,-z
6 x,-y,z
7 1/2-x,1/2-y,-z
8 1/2+x,1/2-y,z
_cell_length_a                   14.8472(14)
_cell_length_b                   7.1701(7)
_cell_length_c                   15.9318(15)
_cell_angle_alpha                90
_cell_angle_beta                 110.8090(10)
_cell_angle_gamma                90
_cell_volume                     1585.4
_exptl_crystal_colour            colorless
_exptl_crystal_description       block
_cell_formula_units_Z            4
loop_
_atom_site_label
_atom_site_type_symbol
_atom_site_fract_x
_atom_site_fract_y
_atom_site_fract_z
B1 B 0.4263(2) 0.5000 0.10932(18)
B2 B 0.6337(2) 0.5000 0.3515(2)
C1 C 0.8124(2) 0.5000 0.36382(18)
C2 C 0.8616(2) 0.5000 0.30438(19)
H1 H 0.9283 0.5000 0.3204
C3 C 0.79564(19) 0.5000 0.21760(18)
C4 C 0.70448(18) 0.5000 0.22595(16)
C5 C 0.61432(18) 0.5000 0.16039(16)
H2 H 0.6103 0.5000 0.1008
C6 C 0.8518(3) 0.5000 0.4640(2)
C7 C 0.8125(2) 0.5000 0.1310(2)
C8 C 0.44903(19) 0.5000 0.26452(16)
C9 C 0.28787(19) 0.5000 0.18738(17)
C10 C 0.2013(2) 0.5000 0.1163(2)
H3 H 0.1991 0.5000 0.0572
C11 C 0.1178(2) 0.5000 0.1362(2)
H4 H 0.0585 0.5000 0.0894
C12 C 0.1203(2) 0.5000 0.2231(3)
H5 H 0.0627 0.5000 0.2339
C13 C 0.2064(2) 0.5000 0.2947(2)
H6 H 0.2078 0.5000 0.3536
C14 C 0.2909(2) 0.5000 0.27642(18)
F1 F 0.63215(10) 0.6556(3) 0.40038(10)
F2 F 0.40598(8) 0.34398(17) 0.05664(7)
N1 N 0.53960(15) 0.5000 0.26677(13)
N2 N 0.53352(15) 0.5000 0.17652(12)
N3 N 0.71674(15) 0.5000 0.31717(13)
N4 N 0.38076(15) 0.5000 0.18380(13)
S1 S 0.40905(5) 0.5000 0.35334(4)
F1E F 0.63215(10) 0.3444(3) 0.40038(10)
F2E F 0.40598(8) 0.65602(17) 0.05664(7)
H7? H 0.7646 0.4244 0.0881
H8? H 0.8753 0.4503 0.1402
H9? H 0.8085 0.6253 0.1088
H10? H 0.9147 0.5553 0.4848
H11? H 0.8099 0.5706 0.4861
H12? H 0.8560 0.3741 0.4855
loop_
_geom_bond_atom_site_label_1
_geom_bond_atom_site_label_2
_geom_bond_site_symmetry_1
_geom_bond_site_symmetry_2
B1 F2 1_555 1_555
B2 F1 1_555 1_555
C1 C2 1_555 1_555
C2 H1 1_555 1_555
C3 C2 1_555 1_555
C4 C3 1_555 1_555
C5 C4 1_555 1_555
H2 C5 1_555 1_555
C6 C1 1_555 1_555
C7 C3 1_555 1_555
C8 N1 1_555 1_555
C9 C10 1_555 1_555
C10 H3 1_555 1_555
C11 C10 1_555 1_555
H4 C11 1_555 1_555
C12 C11 1_555 1_555
H5 C12 1_555 1_555
C13 C12 1_555 1_555
H6 C13 1_555 1_555
C14 C9 1_555 1_555
N1 B2 1_555 1_555
N2 B1 1_555 1_555
N3 B2 1_555 1_555
N4 B1 1_555 1_555
S1 C8 1_555 1_555
F1E B2 1_555 1_555
F2E B1 1_555 1_555
C1 N3 1_555 1_555
C4 N3 1_555 1_555
C5 N2 1_555 1_555
C8 N4 1_555 1_555
C9 N4 1_555 1_555
C13 C14 1_555 1_555
C14 S1 1_555 1_555
N1 N2 1_555 1_555

#END
