
#######################################################################
#
#                 Cambridge Crystallographic Data Centre
#                                CCDC 
#
#######################################################################
#
# If this CIF has been generated from an entry in the Cambridge 
# Structural Database, then it will include bibliographic, chemical, 
# crystal, experimental, refinement or atomic coordinate data resulting 
# from the CCDC's data processing and validation procedures.
#
#######################################################################

data_PICWEG
_chemical_formula_moiety         'C14 H15 B2 Cl1 F4 N4'
_chemical_name_systematic        
10-chloro-2-ethyl-5,5,12,12-tetrafluoro-1,3-dimethyl-5H,12H-pyrido[1',2':4,5][1,2,4,3]triazaborolo[2,1-a]pyrrolo[1,2-d][1,2,4,3]triazaborinine-6,13-diium-5,12-diide
_symmetry_cell_setting           monoclinic
_symmetry_space_group_name_H-M   'P 21/c'
_symmetry_Int_Tables_number      14
_space_group_name_Hall           '-P 2ybc'
loop_
_symmetry_equiv_pos_site_id
_symmetry_equiv_pos_as_xyz
1 x,y,z
2 -x,1/2+y,1/2-z
3 -x,-y,-z
4 x,1/2-y,1/2+z
_cell_length_a                   15.815(2)
_cell_length_b                   8.1371(10)
_cell_length_c                   14.0106(18)
_cell_angle_alpha                90
_cell_angle_beta                 114.2250(10)
_cell_angle_gamma                90
_cell_volume                     1644.23
_exptl_crystal_colour            colorless
_exptl_crystal_description       block
_cell_formula_units_Z            4
loop_
_atom_site_label
_atom_site_type_symbol
_atom_site_fract_x
_atom_site_fract_y
_atom_site_fract_z
Cl1 Cl 0.39140(2) -0.56570(4) 1.01049(3)
B1 B 0.14844(8) 0.02549(17) 0.73841(10)
F1 F 0.08564(5) -0.06011(9) 0.65424(6)
F2 F 0.10109(4) 0.09285(9) 0.79348(6)
B2 B 0.37583(8) -0.21180(17) 0.92098(11)
F3 F 0.43269(4) -0.27536(10) 0.87963(6)
F4 F 0.42299(5) -0.17072(10) 1.02307(6)
N1 N 0.28969(6) -0.32415(12) 0.90164(7)
N2 N 0.31889(6) -0.06604(12) 0.85361(7)
N3 N 0.19975(6) 0.15579(12) 0.70523(7)
N4 N 0.22374(6) -0.09672(12) 0.81067(7)
C1 C 0.29569(7) 0.17492(15) 0.75104(9)
C2 C 0.35050(7) 0.06312(14) 0.82388(9)
H1 H 0.4142 0.0809 0.8538
C3 C 0.12442(8) -0.32477(17) 0.81457(10)
H2 H 0.0692 -0.2722 0.7736
C4 C 0.20949(7) -0.24680(14) 0.84066(8)
C5 C 0.20648(8) -0.55930(16) 0.91208(11)
H3 H 0.2057 -0.6656 0.9361
C6 C 0.12450(8) -0.47912(18) 0.85053(11)
H4 H 0.0683 -0.5329 0.8336
C7 C 0.28705(8) -0.47875(15) 0.93603(9)
C8 C 0.23755(8) 0.36943(16) 0.62932(9)
C9 C 0.16514(8) 0.27427(16) 0.63227(9)
C10 C 0.31982(8) 0.30850(15) 0.70455(9)
C11 C 0.06361(10) 0.2919(2) 0.56777(12)
H5 H 0.0362 0.1851 0.5482
H6 H 0.0538 0.3542 0.5059
H7 H 0.0355 0.3478 0.6077
C12 C 0.41602(9) 0.36792(18) 0.73012(12)
H8 H 0.4266 0.4682 0.7695
H9 H 0.4235 0.3875 0.6665
H10 H 0.4598 0.2863 0.7708
C13 C 0.22754(10) 0.51090(18) 0.55768(10)
H11 H 0.1710 0.4970 0.4948
H12 H 0.2792 0.5103 0.5372
C14 C 0.22451(13) 0.6738(2) 0.60592(13)
H13 H 0.1743 0.6747 0.6276
H14 H 0.2153 0.7594 0.5555
H15 H 0.2820 0.6917 0.6655
loop_
_geom_bond_atom_site_label_1
_geom_bond_atom_site_label_2
_geom_bond_site_symmetry_1
_geom_bond_site_symmetry_2
Cl1 C7 1_555 1_555
B1 F1 1_555 1_555
F2 B1 1_555 1_555
B2 F3 1_555 1_555
F4 B2 1_555 1_555
N1 B2 1_555 1_555
N2 B2 1_555 1_555
N3 B1 1_555 1_555
N4 B1 1_555 1_555
C1 N3 1_555 1_555
C2 N2 1_555 1_555
H1 C2 1_555 1_555
C3 H2 1_555 1_555
C4 N1 1_555 1_555
C5 H3 1_555 1_555
C6 C3 1_555 1_555
H4 C6 1_555 1_555
C7 N1 1_555 1_555
C8 C9 1_555 1_555
C9 N3 1_555 1_555
C10 C1 1_555 1_555
C11 C9 1_555 1_555
H5 C11 1_555 1_555
H6 C11 1_555 1_555
H7 C11 1_555 1_555
C12 C10 1_555 1_555
H8 C12 1_555 1_555
H9 C12 1_555 1_555
H10 C12 1_555 1_555
C13 C8 1_555 1_555
H11 C13 1_555 1_555
H12 C13 1_555 1_555
C14 C13 1_555 1_555
H13 C14 1_555 1_555
H14 C14 1_555 1_555
H15 C14 1_555 1_555
N2 N4 1_555 1_555
N4 C4 1_555 1_555
C1 C2 1_555 1_555
C3 C4 1_555 1_555
C5 C6 1_555 1_555
C5 C7 1_555 1_555
C8 C10 1_555 1_555

#END
