
#######################################################################
#
#                 Cambridge Crystallographic Data Centre
#                                CCDC 
#
#######################################################################
#
# If this CIF has been generated from an entry in the Cambridge 
# Structural Database, then it will include bibliographic, chemical, 
# crystal, experimental, refinement or atomic coordinate data resulting 
# from the CCDC's data processing and validation procedures.
#
#######################################################################

data_PIDBEL
_chemical_formula_moiety         'C42 H38 N4 O4,2(C4 H8 O1)'
_chemical_name_systematic        
"2,3,11,12-Tetrapropoxybenzo[a]benzo[5',6']cycloocta[1',2':4,5]benzo[1,2-e][8]annulene-6,8,15,17-tetracarbonitrile tetrahydrofuran solvate"
_symmetry_cell_setting           rhombohedral
_symmetry_space_group_name_H-M   'R -3'
_symmetry_Int_Tables_number      148
_space_group_name_Hall           '-R 3'
loop_
_symmetry_equiv_pos_site_id
_symmetry_equiv_pos_as_xyz
1 x,y,z
2 -y,x-y,z
3 -x+y,-x,z
4 2/3+x,1/3+y,1/3+z
5 2/3-y,1/3+x-y,1/3+z
6 2/3-x+y,1/3-x,1/3+z
7 1/3+x,2/3+y,2/3+z
8 1/3-y,2/3+x-y,2/3+z
9 1/3-x+y,2/3-x,2/3+z
10 -x,-y,-z
11 y,-x+y,-z
12 x-y,x,-z
13 1/3-x,2/3-y,2/3-z
14 1/3+y,2/3-x+y,2/3-z
15 1/3+x-y,2/3+x,2/3-z
16 2/3-x,1/3-y,1/3-z
17 2/3+y,1/3-x+y,1/3-z
18 2/3+x-y,1/3+x,1/3-z
_cell_length_a                   31.097(3)
_cell_length_b                   31.097(3)
_cell_length_c                   12.418(3)
_cell_angle_alpha                90
_cell_angle_beta                 90
_cell_angle_gamma                120
_cell_volume                     10399.7
_exptl_crystal_colour            colorless
_exptl_crystal_description       prismatic
_cell_formula_units_Z            9
loop_
_atom_site_label
_atom_site_type_symbol
_atom_site_fract_x
_atom_site_fract_y
_atom_site_fract_z
C1 C 0.88243(19) 0.18279(18) -0.3139(4)
H1 H 0.9165 0.1938 -0.3007
C2 C 0.84717(19) 0.14970(18) -0.2421(4)
C3 C 0.79679(19) 0.13304(18) -0.2631(4)
C4 C 0.86317(19) 0.13144(18) -0.1475(5)
C5 C 0.85657(17) 0.13918(18) -0.0453(5)
H2 H 0.8702 0.1272 0.0074
C6 C 0.83021(19) 0.16448(19) -0.0049(4)
C7 C 0.75601(18) 0.09577(18) -0.1911(4)
C8 C 0.74863(19) 0.10127(18) -0.0877(4)
H3 H 0.7209 0.0743 -0.0537
C9 C 0.77942(19) 0.14515(18) -0.0213(4)
C10 C 0.8905(2) 0.10638(19) -0.1740(4)
N1 N 0.91132(17) 0.08654(17) -0.2004(4)
C11 C 0.7201(2) 0.0524(2) -0.2478(5)
N2 N 0.69218(18) 0.01773(18) -0.2947(4)
C12 C 0.8564(2) 0.2066(2) 0.0609(4)
H4 H 0.8908 0.2196 0.0729
C13 C 0.83268(19) 0.22942(19) 0.1086(4)
C14 C 0.75548(19) 0.16658(19) 0.0345(4)
H5 H 0.7204 0.1517 0.0288
C15 C 0.7808(2) 0.20795(19) 0.0966(4)
O1 O 0.85524(12) 0.27081(12) 0.1709(3)
C16 C 0.90864(18) 0.30000(18) 0.1713(5)
H6 H 0.9216 0.3066 0.0967
H7 H 0.9230 0.2823 0.2102
C17 C 0.92166(19) 0.34775(19) 0.2273(5)
H8 H 0.9060 0.3641 0.1882
H9 H 0.9581 0.3701 0.2241
C18 C 0.9053(2) 0.3409(2) 0.3438(5)
H10 H 0.8696 0.3173 0.3481
H11 H 0.9122 0.3729 0.3738
H12 H 0.9234 0.3282 0.3849
O2 O 0.76089(12) 0.23141(12) 0.1530(3)
C19 C 0.70938(19) 0.2164(2) 0.1367(5)
H13 H 0.6879 0.1810 0.1560
H14 H 0.7033 0.2209 0.0604
C20 C 0.6983(2) 0.2488(2) 0.2084(6)
H15 H 0.7067 0.2453 0.2836
H16 H 0.6623 0.2370 0.2054
C21 C 0.7266(3) 0.3029(2) 0.1774(6)
H17 H 0.7623 0.3150 0.1816
H18 H 0.7180 0.3220 0.2269
H19 H 0.7178 0.3068 0.1037
C1O C 0.78424(19) 0.15054(18) -0.3528(4)
H1O H 0.7502 0.1395 -0.3660
C2O C 0.81950(19) 0.18363(18) -0.4246(4)
C3O C 0.86988(19) 0.20029(18) -0.4036(4)
C4O C 0.80350(19) 0.20189(18) -0.5192(5)
C5O C 0.81010(17) 0.19415(18) -0.6214(5)
H2O H 0.7965 0.2061 -0.6741
C6O C 0.83646(19) 0.16885(19) -0.6618(4)
C7O C 0.91066(18) 0.23756(18) -0.4756(4)
C8O C 0.91804(19) 0.23206(18) -0.5790(4)
H3O H 0.9458 0.2590 -0.6130
C9O C 0.88725(19) 0.18818(18) -0.6454(4)
C10O C 0.7762(2) 0.22695(19) -0.4927(4)
N1O N 0.75535(17) 0.24679(17) -0.4663(4)
C11O C 0.9466(2) 0.2809(2) -0.4189(5)
N2O N 0.97449(18) 0.31560(18) -0.3720(4)
C12O C 0.8103(2) 0.1267(2) -0.7276(4)
H4O H 0.7759 0.1137 -0.7396
C13O C 0.83399(19) 0.10391(19) -0.7753(4)
C14O C 0.91119(19) 0.16675(19) -0.7012(4)
H5O H 0.9463 0.1816 -0.6955
C15O C 0.8859(2) 0.12538(19) -0.7633(4)
O1O O 0.81143(12) 0.06252(12) -0.8376(3)
C16O C 0.75803(18) 0.03333(18) -0.8380(5)
H6O H 0.7451 0.0267 -0.7634
H7O H 0.7437 0.0510 -0.8769
C17O C 0.74501(19) -0.01442(19) -0.8940(5)
H8O H 0.7607 -0.0308 -0.8549
H9O H 0.7086 -0.0368 -0.8908
C18O C 0.7614(2) -0.0076(2) -1.0105(5)
H10O H 0.7971 0.0160 -1.0148
H11O H 0.7545 -0.0396 -1.0405
H12O H 0.7433 0.0051 -1.0516
O2O O 0.90578(12) 0.10192(12) -0.8197(3)
C19O C 0.95729(19) 0.1169(2) -0.8034(5)
H13O H 0.9788 0.1523 -0.8227
H14O H 0.9634 0.1124 -0.7271
C20O C 0.9684(2) 0.0845(2) -0.8751(6)
H15O H 0.9600 0.0880 -0.9503
H16O H 1.0044 0.0963 -0.8721
C21O C 0.9401(3) 0.0304(2) -0.8441(6)
H17O H 0.9044 0.0183 -0.8483
H18O H 0.9487 0.0113 -0.8936
H19O H 0.9489 0.0265 -0.7704
O3 O 0.88077(17) 0.33257(18) -0.0776(4)
C22 C 0.8360(3) 0.3330(3) -0.0674(7)
H20 H 0.8420 0.3669 -0.0805
H21 H 0.8230 0.3232 0.0068
C23 C 0.7995(3) 0.2987(3) -0.1440(7)
H22 H 0.7941 0.3169 -0.2031
H23 H 0.7674 0.2768 -0.1082
C24 C 0.8230(3) 0.2690(3) -0.1860(6)
H24 H 0.8072 0.2357 -0.1524
H25 H 0.8191 0.2650 -0.2651
C25 C 0.8755(3) 0.2975(3) -0.1570(6)
H26 H 0.8868 0.2751 -0.1283
H27 H 0.8957 0.3147 -0.2211
loop_
_geom_bond_atom_site_label_1
_geom_bond_atom_site_label_2
_geom_bond_site_symmetry_1
_geom_bond_site_symmetry_2
C1 H1 1_555 1_555
C2 C1 1_555 1_555
C3 C2 1_555 1_555
C4 C2 1_555 1_555
C5 C4 1_555 1_555
H2 C5 1_555 1_555
C6 C5 1_555 1_555
C7 C3 1_555 1_555
C8 C7 1_555 1_555
H3 C8 1_555 1_555
C9 C6 1_555 1_555
C10 C4 1_555 1_555
N1 C10 1_555 1_555
C11 C7 1_555 1_555
N2 C11 1_555 1_555
C12 C6 1_555 1_555
H4 C12 1_555 1_555
C13 C12 1_555 1_555
C14 C9 1_555 1_555
H5 C14 1_555 1_555
C15 C13 1_555 1_555
O1 C13 1_555 1_555
C16 O1 1_555 1_555
H6 C16 1_555 1_555
H7 C16 1_555 1_555
C17 C16 1_555 1_555
H8 C17 1_555 1_555
H9 C17 1_555 1_555
C18 C17 1_555 1_555
H10 C18 1_555 1_555
H11 C18 1_555 1_555
H12 C18 1_555 1_555
O2 C15 1_555 1_555
C19 O2 1_555 1_555
H13 C19 1_555 1_555
H14 C19 1_555 1_555
C20 C19 1_555 1_555
H15 C20 1_555 1_555
H16 C20 1_555 1_555
C21 C20 1_555 1_555
H17 C21 1_555 1_555
H18 C21 1_555 1_555
H19 C21 1_555 1_555
O3 C22 1_555 1_555
C22 H20 1_555 1_555
H21 C22 1_555 1_555
C23 C22 1_555 1_555
H22 C23 1_555 1_555
H23 C23 1_555 1_555
C24 C23 1_555 1_555
H24 C24 1_555 1_555
H25 C24 1_555 1_555
C25 O3 1_555 1_555
H26 C25 1_555 1_555
H27 C25 1_555 1_555
C1O C3 1_555 1_555
H1O C1O 1_555 1_555
C2O C1O 1_555 1_555
C3O C1 1_555 1_555
C4O C2O 1_555 1_555
C5O C4O 1_555 1_555
H2O C5O 1_555 1_555
C6O C5O 1_555 1_555
C7O C3O 1_555 1_555
C8O C7O 1_555 1_555
H3O C8O 1_555 1_555
C9O C6O 1_555 1_555
C10O C4O 1_555 1_555
N1O C10O 1_555 1_555
C11O C7O 1_555 1_555
N2O C11O 1_555 1_555
C12O C6O 1_555 1_555
H4O C12O 1_555 1_555
C13O C12O 1_555 1_555
C14O C9O 1_555 1_555
H5O C14O 1_555 1_555
C15O C13O 1_555 1_555
O1O C13O 1_555 1_555
C16O O1O 1_555 1_555
H6O C16O 1_555 1_555
H7O C16O 1_555 1_555
C17O C16O 1_555 1_555
H8O C17O 1_555 1_555
H9O C17O 1_555 1_555
C18O C17O 1_555 1_555
H10O C18O 1_555 1_555
H11O C18O 1_555 1_555
H12O C18O 1_555 1_555
O2O C15O 1_555 1_555
C19O O2O 1_555 1_555
H13O C19O 1_555 1_555
H14O C19O 1_555 1_555
C20O C19O 1_555 1_555
H15O C20O 1_555 1_555
H16O C20O 1_555 1_555
C21O C20O 1_555 1_555
H17O C21O 1_555 1_555
H18O C21O 1_555 1_555
H19O C21O 1_555 1_555
C8 C9 1_555 1_555
C14 C15 1_555 1_555
C24 C25 1_555 1_555
C2O C3O 1_555 1_555
C8O C9O 1_555 1_555
C14O C15O 1_555 1_555

#END
