
#######################################################################
#
#                 Cambridge Crystallographic Data Centre
#                                CCDC 
#
#######################################################################
#
# If this CIF has been generated from an entry in the Cambridge 
# Structural Database, then it will include bibliographic, chemical, 
# crystal, experimental, refinement or atomic coordinate data resulting 
# from the CCDC's data processing and validation procedures.
#
#######################################################################

data_PIDBOV
_chemical_formula_moiety         'C38 H30 N4 O4,2(C1 H1 Cl3)'
_chemical_name_systematic        
"2,3,11,12-Tetraethoxybenzo[a]benzo[5',6']cycloocta[1',2':4,5]benzo[1,2-e][8]annulene-6,8,15,17-tetracarbonitrile chloroform solvate"
_symmetry_cell_setting           monoclinic
_symmetry_space_group_name_H-M   'P 21/c'
_symmetry_Int_Tables_number      14
_space_group_name_Hall           '-P 2ybc'
loop_
_symmetry_equiv_pos_site_id
_symmetry_equiv_pos_as_xyz
1 x,y,z
2 -x,1/2+y,1/2-z
3 -x,-y,-z
4 x,1/2-y,1/2+z
_cell_length_a                   11.174(4)
_cell_length_b                   19.619(7)
_cell_length_c                   9.056(3)
_cell_angle_alpha                90
_cell_angle_beta                 103.668(7)
_cell_angle_gamma                90
_cell_volume                     1929.06
_exptl_crystal_colour            'pale yellow'
_exptl_crystal_description       prismatic
_cell_formula_units_Z            2
loop_
_atom_site_label
_atom_site_type_symbol
_atom_site_fract_x
_atom_site_fract_y
_atom_site_fract_z
Cl1 Cl 0.20112(11) -0.11281(6) 0.31142(13)
Cl2 Cl 0.05259(13) 0.00733(7) 0.20859(15)
Cl3 Cl 0.26515(13) -0.02458(7) 0.08729(16)
C1 C 0.1432(4) -0.0585(2) 0.1557(5)
H1 H 0.0897 -0.0860 0.0728
O1 O 0.1197(3) 0.14572(15) -0.1706(3)
O2 O 0.0086(3) 0.19203(15) 0.0311(3)
C2 C 0.3841(4) 0.1487(2) 0.1664(5)
C3 C 0.1916(4) 0.1540(2) -0.0267(5)
C4 C 0.5845(4) 0.0933(2) 0.2979(5)
C5 C 0.4548(4) 0.1440(2) 0.5361(5)
C6 C 0.3871(4) 0.1869(2) 0.4348(5)
H2 H 0.3784 0.2318 0.4700
N1 N 0.5312(3) 0.1871(2) 0.8141(5)
C7 C 0.5381(4) 0.0472(2) 0.4022(4)
C8 C 0.5169(4) 0.1361(2) 0.1952(5)
H3 H 0.5601 0.1611 0.1344
C9 C 0.1983(4) 0.1896(2) 0.2304(5)
H4 H 0.1586 0.2085 0.3029
C10 C 0.3243(4) 0.1728(2) 0.2748(5)
C11 C 0.7141(4) 0.0857(2) 0.3006(5)
C12 C 0.4782(4) 0.0703(2) 0.5127(5)
C13 C 0.5584(4) -0.0229(2) 0.3922(5)
H5 H 0.5987 -0.0387 0.3175
C14 C 0.4995(4) 0.1685(2) 0.6901(5)
C15 C 0.3159(4) 0.1405(2) 0.0156(5)
H6 H 0.3567 0.1252 -0.0591
C16 C 0.1313(4) 0.1791(2) 0.0828(5)
C17 C -0.0581(4) 0.2131(2) 0.1426(5)
H7 H -0.0240 0.2563 0.1915
H8 H -0.0520 0.1778 0.2221
N2 N 0.8157(4) 0.0784(2) 0.3017(4)
C18 C -0.1913(4) 0.2226(3) 0.0564(5)
H9 H -0.1958 0.2578 -0.0217
H10 H -0.2407 0.2368 0.1273
H11 H -0.2234 0.1796 0.0081
C19 C 0.0901(4) 0.1176(3) -0.4353(5)
H12 H 0.0220 0.0869 -0.4307
H13 H 0.1315 0.1014 -0.5127
H14 H 0.0579 0.1636 -0.4616
C20 C 0.1809(4) 0.1191(3) -0.2825(5)
H15 H 0.2118 0.0725 -0.2536
H16 H 0.2520 0.1484 -0.2876
O1B O 0.8803(3) -0.14572(15) 1.1706(3)
O2B O 0.9914(3) -0.19203(15) 0.9689(3)
C2B C 0.6159(4) -0.1487(2) 0.8336(5)
C3B C 0.8084(4) -0.1540(2) 1.0267(5)
C4B C 0.4155(4) -0.0933(2) 0.7021(5)
C5B C 0.5452(4) -0.1440(2) 0.4639(5)
C6B C 0.6129(4) -0.1869(2) 0.5652(5)
H2B H 0.6216 -0.2318 0.5300
N1B N 0.4688(3) -0.1871(2) 0.1859(5)
C7B C 0.4619(4) -0.0472(2) 0.5978(4)
C8B C 0.4831(4) -0.1361(2) 0.8048(5)
H3B H 0.4399 -0.1611 0.8656
C9B C 0.8017(4) -0.1896(2) 0.7696(5)
H4B H 0.8414 -0.2085 0.6971
C10B C 0.6757(4) -0.1728(2) 0.7252(5)
C11B C 0.2859(4) -0.0857(2) 0.6994(5)
C12B C 0.5218(4) -0.0703(2) 0.4873(5)
C13B C 0.4416(4) 0.0229(2) 0.6078(5)
H5B H 0.4013 0.0387 0.6825
C14B C 0.5005(4) -0.1685(2) 0.3099(5)
C15B C 0.6841(4) -0.1405(2) 0.9844(5)
H6B H 0.6433 -0.1252 1.0591
C16B C 0.8687(4) -0.1791(2) 0.9172(5)
C17B C 1.0581(4) -0.2131(2) 0.8574(5)
H7B H 1.0240 -0.2563 0.8085
H8B H 1.0520 -0.1778 0.7779
N2B N 0.1843(4) -0.0784(2) 0.6983(4)
C18B C 1.1913(4) -0.2226(3) 0.9436(5)
H9B H 1.1958 -0.2578 1.0217
H10B H 1.2407 -0.2368 0.8727
H11B H 1.2234 -0.1796 0.9919
C19B C 0.9099(4) -0.1176(3) 1.4353(5)
H12B H 0.9780 -0.0869 1.4307
H13B H 0.8685 -0.1014 1.5127
H14B H 0.9421 -0.1636 1.4616
C20B C 0.8191(4) -0.1191(3) 1.2825(5)
H15B H 0.7882 -0.0725 1.2536
H16B H 0.7480 -0.1484 1.2876
loop_
_geom_bond_atom_site_label_1
_geom_bond_atom_site_label_2
_geom_bond_site_symmetry_1
_geom_bond_site_symmetry_2
Cl1 C1 1_555 1_555
Cl2 C1 1_555 1_555
Cl3 C1 1_555 1_555
C1 H1 1_555 1_555
O1 C3 1_555 1_555
O2 C16 1_555 1_555
C2 C8 1_555 1_555
C3 C15 1_555 1_555
C4 C7 1_555 1_555
C5 C6 1_555 1_555
C6 H2 1_555 1_555
N1 C14 1_555 1_555
C7 C12 1_555 1_555
C8 C4 1_555 1_555
H3 C8 1_555 1_555
C9 H4 1_555 1_555
C10 C2 1_555 1_555
C11 C4 1_555 1_555
C12 C5 1_555 1_555
C13 C7 1_555 1_555
H5 C13 1_555 1_555
C14 C5 1_555 1_555
C15 C2 1_555 1_555
H6 C15 1_555 1_555
C16 C3 1_555 1_555
C17 O2 1_555 1_555
H7 C17 1_555 1_555
H8 C17 1_555 1_555
N2 C11 1_555 1_555
C18 C17 1_555 1_555
H9 C18 1_555 1_555
H10 C18 1_555 1_555
H11 C18 1_555 1_555
C19 H12 1_555 1_555
H13 C19 1_555 1_555
H14 C19 1_555 1_555
C20 O1 1_555 1_555
H15 C20 1_555 1_555
H16 C20 1_555 1_555
O1B C3B 1_555 1_555
O2B C16B 1_555 1_555
C2B C8B 1_555 1_555
C3B C15B 1_555 1_555
C4B C7B 1_555 1_555
C5B C6B 1_555 1_555
C6B H2B 1_555 1_555
N1B C14B 1_555 1_555
C7B C12B 1_555 1_555
C8B C4B 1_555 1_555
H3B C8B 1_555 1_555
C9B H4B 1_555 1_555
C10B C2B 1_555 1_555
C11B C4B 1_555 1_555
C12B C13 1_555 1_555
C13B C12 1_555 1_555
H5B C13B 1_555 1_555
C14B C5B 1_555 1_555
C15B C2B 1_555 1_555
H6B C15B 1_555 1_555
C16B C3B 1_555 1_555
C17B O2B 1_555 1_555
H7B C17B 1_555 1_555
H8B C17B 1_555 1_555
N2B C11B 1_555 1_555
C18B C17B 1_555 1_555
H9B C18B 1_555 1_555
H10B C18B 1_555 1_555
H11B C18B 1_555 1_555
C19B H12B 1_555 1_555
H13B C19B 1_555 1_555
H14B C19B 1_555 1_555
C20B O1B 1_555 1_555
H15B C20B 1_555 1_555
H16B C20B 1_555 1_555
C6 C10 1_555 1_555
C9 C10 1_555 1_555
C9 C16 1_555 1_555
C19 C20 1_555 1_555
C5B C12B 1_555 1_555
C6B C10B 1_555 1_555
C7B C13B 1_555 1_555
C9B C10B 1_555 1_555
C9B C16B 1_555 1_555
C19B C20B 1_555 1_555

#END
