
#######################################################################
#
#                 Cambridge Crystallographic Data Centre
#                                CCDC 
#
#######################################################################
#
# If this CIF has been generated from an entry in the Cambridge 
# Structural Database, then it will include bibliographic, chemical, 
# crystal, experimental, refinement or atomic coordinate data resulting 
# from the CCDC's data processing and validation procedures.
#
#######################################################################

data_PIDDOX
_chemical_formula_moiety         'C28 H28 N2 O2'
_chemical_name_systematic        
2-(4-(2-(4-Methylphenyl)vinyl)phenyl)-5-(4-(pentoxy)phenyl)-1,3,4-oxadiazole
_symmetry_cell_setting           triclinic
_symmetry_space_group_name_H-M   'P -1'
_symmetry_Int_Tables_number      2
_space_group_name_Hall           '-P 1'
loop_
_symmetry_equiv_pos_site_id
_symmetry_equiv_pos_as_xyz
1 x,y,z
2 -x,-y,-z
_cell_length_a                   5.8209(12)
_cell_length_b                   17.824(4)
_cell_length_c                   23.085(5)
_cell_angle_alpha                74.58(3)
_cell_angle_beta                 89.49(3)
_cell_angle_gamma                87.85(3)
_cell_volume                     2307.26
_cell_formula_units_Z            4
loop_
_atom_site_label
_atom_site_type_symbol
_atom_site_fract_x
_atom_site_fract_y
_atom_site_fract_z
O1 O 0.1436(11) 0.0056(4) 0.7474(3)
O2 O 0.2598(13) -0.0917(5) 0.5005(3)
N1 N -0.1760(14) -0.0200(6) 0.8031(4)
N2 N -0.2020(13) -0.0477(5) 0.7519(4)
C1 C 1.0860(16) 0.2409(7) 1.1862(5)
H1 H 1.0769 0.2968 1.1765
H2 H 1.2425 0.2236 1.1829
H3 H 1.0331 0.2200 1.2266
C2 C 0.9365(15) 0.2131(7) 1.1431(5)
C3 C 0.9988(18) 0.2256(7) 1.0824(5)
H4 H 1.1316 0.2520 1.0684
C4 C 0.8643(18) 0.1990(7) 1.0432(5)
H5 H 0.9088 0.2088 1.0031
C5 C 0.6587(16) 0.1567(6) 1.0620(5)
C6 C 0.6004(16) 0.1453(7) 1.1219(5)
H6 H 0.4687 0.1186 1.1364
C7 C 0.7379(16) 0.1738(6) 1.1624(4)
H7 H 0.6925 0.1655 1.2023
C8 C 0.5082(15) 0.1282(6) 1.0225(5)
H8 H 0.3814 0.1009 1.0403
C9 C 0.5354(18) 0.1375(7) 0.9641(5)
H9 H 0.6583 0.1676 0.9470
C10 C 0.398(2) 0.1069(7) 0.9211(5)
C11 C 0.4751(19) 0.1151(8) 0.8630(5)
H10 H 0.6061 0.1429 0.8497
C12 C 0.3541(16) 0.0808(8) 0.8230(5)
H11 H 0.4154 0.0823 0.7854
C13 C 0.1446(17) 0.0454(7) 0.8402(5)
C14 C 0.064(2) 0.0414(6) 0.8991(5)
H12 H -0.0753 0.0184 0.9114
C15 C 0.1864(18) 0.0704(7) 0.9383(5)
H13 H 0.1295 0.0662 0.9767
C16 C 0.0265(16) 0.0086(6) 0.7983(4)
C17 C -0.0081(17) -0.0316(6) 0.7215(5)
C18 C 0.0573(16) -0.0481(6) 0.6638(5)
C19 C 0.2709(18) -0.0237(7) 0.6360(5)
H14 H 0.3720 0.0026 0.6539
C20 C 0.3263(18) -0.0396(7) 0.5819(5)
H15 H 0.4656 -0.0234 0.5636
C21 C 0.1791(17) -0.0794(7) 0.5540(5)
C22 C -0.0286(17) -0.1052(6) 0.5824(5)
H16 H -0.1263 -0.1326 0.5645
C23 C -0.0896(16) -0.0905(7) 0.6359(5)
H17 H -0.2276 -0.1083 0.6541
C24 C 0.1105(18) -0.1333(7) 0.4679(4)
H18 H -0.0355 -0.1051 0.4573
H19 H 0.0816 -0.1854 0.4925
C25 C 0.2464(17) -0.1366(7) 0.4113(5)
H20 H 0.2849 -0.0845 0.3888
H21 H 0.3883 -0.1672 0.4225
C26 C 0.103(2) -0.1730(7) 0.3732(5)
H22 H -0.0425 -0.1436 0.3647
H23 H 0.0689 -0.2254 0.3961
C27 C 0.214(2) -0.1770(8) 0.3131(5)
H24 H 0.2576 -0.1252 0.2911
H25 H 0.1016 -0.1942 0.2891
C28 C 0.429(2) -0.2327(8) 0.3218(5)
H26 H 0.5343 -0.2189 0.3487
H27 H 0.5016 -0.2286 0.2837
H28 H 0.3830 -0.2853 0.3385
O3 O 0.3001(11) 0.4929(4) 0.2525(3)
O4 O 0.2652(12) 0.4045(5) -0.0005(3)
N3 N 0.6221(14) 0.4675(6) 0.3070(4)
N4 N 0.6521(17) 0.4411(6) 0.2551(4)
C29 C -0.5770(18) 0.7554(7) 0.6986(5)
H29 H -0.5081 0.7380 0.7377
H30 H -0.7291 0.7359 0.6999
H31 H -0.5853 0.8112 0.6863
C30 C -0.4329(15) 0.7252(6) 0.6541(5)
C31 C -0.5113(17) 0.7341(6) 0.5945(5)
H32 H -0.6515 0.7600 0.5822
C32 C -0.3815(16) 0.7048(8) 0.5542(5)
H33 H -0.4392 0.7103 0.5158
C33 C -0.1634(15) 0.6667(6) 0.5697(5)
C34 C -0.0837(17) 0.6584(6) 0.6282(4)
H34 H 0.0561 0.6322 0.6404
C35 C -0.2140(16) 0.6895(6) 0.6690(5)
H35 H -0.1532 0.6862 0.7068
C36 C -0.0235(17) 0.6333(6) 0.5280(5)
H36 H 0.1166 0.6091 0.5425
C37 C -0.0781(16) 0.6343(6) 0.4715(4)
H37 H -0.2166 0.6598 0.4570
C38 C 0.0545(19) 0.5997(7) 0.4290(4)
C39 C -0.0458(18) 0.6039(7) 0.3733(4)
H38 H -0.1877 0.6295 0.3630
C40 C 0.0720(15) 0.5687(7) 0.3331(5)
H39 H 0.0023 0.5688 0.2970
C41 C 0.2958(15) 0.5328(6) 0.3467(4)
C42 C 0.3956(17) 0.5322(6) 0.4024(5)
H40 H 0.5418 0.5099 0.4125
C43 C 0.2729(17) 0.5655(7) 0.4423(4)
H41 H 0.3396 0.5646 0.4790
C44 C 0.4127(16) 0.4974(7) 0.3044(4)
C45 C 0.4607(16) 0.4545(6) 0.2237(5)
C46 C 0.4061(16) 0.4393(6) 0.1686(5)
C47 C 0.1941(17) 0.4658(6) 0.1377(4)
H42 H 0.0830 0.4918 0.1551
C48 C 0.1531(16) 0.4532(6) 0.0822(4)
H43 H 0.0140 0.4701 0.0627
C49 C 0.3213(17) 0.4147(6) 0.0549(6)
C50 C 0.5315(17) 0.3853(6) 0.0844(5)
H44 H 0.6396 0.3585 0.0668
C51 C 0.5713(16) 0.3978(6) 0.1404(4)
H45 H 0.7084 0.3788 0.1603
C52 C 0.4448(17) 0.3736(7) -0.0338(4)
H46 H 0.5834 0.4026 -0.0353
H47 H 0.4810 0.3195 -0.0135
C53 C 0.366(2) 0.3798(8) -0.0948(5)
H48 H 0.4964 0.3689 -0.1181
H49 H 0.3141 0.4333 -0.1127
C54 C 0.173(2) 0.3266(8) -0.1009(5)
H50 H 0.0352 0.3409 -0.0817
H51 H 0.2169 0.2732 -0.0804
C55 C 0.117(3) 0.3321(8) -0.1698(5)
H52 H 0.0699 0.3853 -0.1903
H53 H 0.2545 0.3185 -0.1892
C56 C -0.069(2) 0.2792(9) -0.1753(6)
H54 H -0.0155 0.2261 -0.1598
H55 H -0.1109 0.2883 -0.2168
H56 H -0.2009 0.2891 -0.1527
loop_
_geom_bond_atom_site_label_1
_geom_bond_atom_site_label_2
_geom_bond_site_symmetry_1
_geom_bond_site_symmetry_2
O1 C16 1_555 1_555
O2 C21 1_555 1_555
N1 N2 1_555 1_555
N2 C17 1_555 1_555
C1 H1 1_555 1_555
H2 C1 1_555 1_555
H3 C1 1_555 1_555
C2 C1 1_555 1_555
C3 C2 1_555 1_555
H4 C3 1_555 1_555
C4 C3 1_555 1_555
H5 C4 1_555 1_555
C5 C4 1_555 1_555
C6 C5 1_555 1_555
H6 C6 1_555 1_555
C7 C2 1_555 1_555
H7 C7 1_555 1_555
C8 C5 1_555 1_555
H8 C8 1_555 1_555
C9 C8 1_555 1_555
H9 C9 1_555 1_555
C10 C9 1_555 1_555
C11 C10 1_555 1_555
H10 C11 1_555 1_555
C12 C11 1_555 1_555
H11 C12 1_555 1_555
C13 C12 1_555 1_555
C14 C13 1_555 1_555
H12 C14 1_555 1_555
C15 C10 1_555 1_555
H13 C15 1_555 1_555
C16 N1 1_555 1_555
C17 O1 1_555 1_555
C18 C17 1_555 1_555
C19 C18 1_555 1_555
H14 C19 1_555 1_555
C20 C19 1_555 1_555
H15 C20 1_555 1_555
C21 C20 1_555 1_555
C22 C21 1_555 1_555
H16 C22 1_555 1_555
C23 C18 1_555 1_555
H17 C23 1_555 1_555
C24 O2 1_555 1_555
H18 C24 1_555 1_555
H19 C24 1_555 1_555
C25 C24 1_555 1_555
H20 C25 1_555 1_555
H21 C25 1_555 1_555
C26 C25 1_555 1_555
H22 C26 1_555 1_555
H23 C26 1_555 1_555
C27 C26 1_555 1_555
H24 C27 1_555 1_555
H25 C27 1_555 1_555
C28 C27 1_555 1_555
H26 C28 1_555 1_555
H27 C28 1_555 1_555
H28 C28 1_555 1_555
O3 C44 1_555 1_555
O4 C49 1_555 1_555
N3 N4 1_555 1_555
N4 C45 1_555 1_555
C29 H29 1_555 1_555
H30 C29 1_555 1_555
H31 C29 1_555 1_555
C30 C29 1_555 1_555
C31 C30 1_555 1_555
H32 C31 1_555 1_555
C32 C31 1_555 1_555
H33 C32 1_555 1_555
C33 C32 1_555 1_555
C34 C33 1_555 1_555
H34 C34 1_555 1_555
C35 C30 1_555 1_555
H35 C35 1_555 1_555
C36 C33 1_555 1_555
H36 C36 1_555 1_555
C37 C36 1_555 1_555
H37 C37 1_555 1_555
C38 C37 1_555 1_555
C39 C38 1_555 1_555
H38 C39 1_555 1_555
C40 C39 1_555 1_555
H39 C40 1_555 1_555
C41 C40 1_555 1_555
C42 C41 1_555 1_555
H40 C42 1_555 1_555
C43 C38 1_555 1_555
H41 C43 1_555 1_555
C44 N3 1_555 1_555
C45 O3 1_555 1_555
C46 C45 1_555 1_555
C47 C46 1_555 1_555
H42 C47 1_555 1_555
C48 C47 1_555 1_555
H43 C48 1_555 1_555
C49 C48 1_555 1_555
C50 C49 1_555 1_555
H44 C50 1_555 1_555
C51 C46 1_555 1_555
H45 C51 1_555 1_555
C52 O4 1_555 1_555
H46 C52 1_555 1_555
H47 C52 1_555 1_555
C53 C52 1_555 1_555
H48 C53 1_555 1_555
H49 C53 1_555 1_555
C54 C53 1_555 1_555
H50 C54 1_555 1_555
H51 C54 1_555 1_555
C55 C54 1_555 1_555
H52 C55 1_555 1_555
H53 C55 1_555 1_555
C56 C55 1_555 1_555
H54 C56 1_555 1_555
H55 C56 1_555 1_555
H56 C56 1_555 1_555
C6 C7 1_555 1_555
C13 C16 1_555 1_555
C14 C15 1_555 1_555
C22 C23 1_555 1_555
C34 C35 1_555 1_555
C41 C44 1_555 1_555
C42 C43 1_555 1_555
C50 C51 1_555 1_555

#END
