
#######################################################################
#
#                 Cambridge Crystallographic Data Centre
#                                CCDC 
#
#######################################################################
#
# If this CIF has been generated from an entry in the Cambridge 
# Structural Database, then it will include bibliographic, chemical, 
# crystal, experimental, refinement or atomic coordinate data resulting 
# from the CCDC's data processing and validation procedures.
#
#######################################################################

data_PIDFEO
_chemical_formula_moiety         'C16 H14 N4'
_chemical_name_systematic        1,3-bis(2-Pyrrolylmethyleneamino)benzene
_symmetry_cell_setting           orthorhombic
_symmetry_space_group_name_H-M   'P b c a'
_symmetry_Int_Tables_number      61
_space_group_name_Hall           '-P 2ac 2ab'
loop_
_symmetry_equiv_pos_site_id
_symmetry_equiv_pos_as_xyz
1 x,y,z
2 1/2-x,-y,1/2+z
3 -x,1/2+y,1/2-z
4 1/2+x,1/2-y,-z
5 -x,-y,-z
6 1/2+x,y,1/2-z
7 x,1/2-y,1/2+z
8 1/2-x,1/2+y,z
_cell_length_a                   10.2048(10)
_cell_length_b                   15.5662(15)
_cell_length_c                   17.4159(17)
_cell_angle_alpha                90
_cell_angle_beta                 90
_cell_angle_gamma                90
_cell_volume                     2766.51
_exptl_crystal_colour            'pale yellow'
_exptl_crystal_description       rod
_chemical_melting_point          '158-160 deg.C'
_cell_formula_units_Z            8
_exptl_crystal_recrystallization_method ethanol/acetonitrile
loop_
_atom_site_label
_atom_site_type_symbol
_atom_site_fract_x
_atom_site_fract_y
_atom_site_fract_z
N1 N 0.80880(10) 1.07959(6) 0.57723(6)
N2 N 0.81995(11) 0.79266(6) 0.68383(6)
N3 N 0.61959(10) 1.20798(6) 0.53129(6)
H1 H 0.6614(15) 1.2261(9) 0.5778(9)
N4 N 0.67984(13) 0.64402(7) 0.74315(7)
H2 H 0.6843(15) 0.6400(10) 0.6920(9)
C1 C 0.88256(12) 1.00873(7) 0.60477(7)
C2 C 0.82102(12) 0.93278(7) 0.62545(7)
H3 H 0.7327 0.9251 0.6142
C3 C 0.88972(12) 0.86814(7) 0.66270(7)
C4 C 1.02195(13) 0.87872(8) 0.67686(8)
H4 H 1.0690 0.8358 0.7017
C5 C 1.08401(13) 0.95329(9) 0.65399(9)
H5 H 1.1735 0.9594 0.6623
C6 C 1.01549(13) 1.01862(9) 0.61908(8)
H6 H 1.0580 1.0691 0.6052
C7 C 0.72816(12) 1.06690(8) 0.52253(7)
H7 H 0.7287 1.0136 0.4984
C8 C 0.63684(12) 1.13004(7) 0.49616(7)
C9 C 0.54814(13) 1.12595(9) 0.43668(7)
H8 H 0.5378 1.0803 0.4027
C10 C 0.47651(14) 1.20222(9) 0.43626(8)
H9 H 0.4103 1.2170 0.4020
C11 C 0.52200(13) 1.25111(9) 0.49556(8)
H10 H 0.4910 1.3052 0.5092
C12 C 0.82022(12) 0.77178(7) 0.75453(7)
H11 H 0.8707 0.8046 0.7879
C13 C 0.74856(13) 0.70158(8) 0.78594(7)
C14 C 0.72028(14) 0.68475(9) 0.86172(8)
H12 H 0.7538 0.7141 0.9039
C15 C 0.63303(15) 0.61640(9) 0.86422(8)
H13 H 0.5968 0.5919 0.9081
C16 C 0.61051(17) 0.59200(9) 0.79053(9)
H14 H 0.5565 0.5471 0.7751
loop_
_geom_bond_atom_site_label_1
_geom_bond_atom_site_label_2
_geom_bond_site_symmetry_1
_geom_bond_site_symmetry_2
N1 C1 1_555 1_555
N2 C3 1_555 1_555
N3 H1 1_555 1_555
N4 H2 1_555 1_555
C1 C2 1_555 1_555
C2 H3 1_555 1_555
C3 C2 1_555 1_555
C4 C3 1_555 1_555
H4 C4 1_555 1_555
C5 C4 1_555 1_555
H5 C5 1_555 1_555
C6 C1 1_555 1_555
H6 C6 1_555 1_555
C7 N1 1_555 1_555
H7 C7 1_555 1_555
C8 N3 1_555 1_555
C9 C8 1_555 1_555
H8 C9 1_555 1_555
C10 C9 1_555 1_555
H9 C10 1_555 1_555
C11 N3 1_555 1_555
H10 C11 1_555 1_555
C12 N2 1_555 1_555
H11 C12 1_555 1_555
C13 N4 1_555 1_555
C14 C13 1_555 1_555
H12 C14 1_555 1_555
C15 C14 1_555 1_555
H13 C15 1_555 1_555
C16 N4 1_555 1_555
H14 C16 1_555 1_555
C5 C6 1_555 1_555
C7 C8 1_555 1_555
C10 C11 1_555 1_555
C12 C13 1_555 1_555
C15 C16 1_555 1_555

#END
