
#######################################################################
#
#                 Cambridge Crystallographic Data Centre
#                                CCDC 
#
#######################################################################
#
# If this CIF has been generated from an entry in the Cambridge 
# Structural Database, then it will include bibliographic, chemical, 
# crystal, experimental, refinement or atomic coordinate data resulting 
# from the CCDC's data processing and validation procedures.
#
#######################################################################

data_PIDGAL
_chemical_formula_moiety         'C19 H15 F1 I2 N2 O4'
_chemical_name_systematic        
2-(4-((E)-2,3-Diiodoallyl)-7-fluoro-3-oxo-3,4-dihydro-2H-benzo(b)(1,4)oxazin-6-yl)-2,3,4,5,6,7-hexahydro-1H-isoindole-1,3-dione
_symmetry_cell_setting           monoclinic
_symmetry_space_group_name_H-M   'C 2/c'
_symmetry_Int_Tables_number      15
_space_group_name_Hall           '-C 2yn'
loop_
_symmetry_equiv_pos_site_id
_symmetry_equiv_pos_as_xyz
1 x,y,z
2 1/2+x,1/2+y,z
3 -x,y,1/2-z
4 1/2-x,1/2+y,1/2-z
5 -x,-y,-z
6 1/2-x,1/2-y,-z
7 x,-y,1/2+z
8 1/2+x,1/2-y,1/2+z
_cell_length_a                   23.118(4)
_cell_length_b                   13.926(2)
_cell_length_c                   14.975(3)
_cell_angle_alpha                90
_cell_angle_beta                 123.266(2)
_cell_angle_gamma                90
_cell_volume                     4031.06
_exptl_crystal_colour            yellow
_exptl_crystal_description       block
_cell_formula_units_Z            8
_exptl_crystal_recrystallization_method acetonitrile
loop_
_atom_site_label
_atom_site_type_symbol
_atom_site_fract_x
_atom_site_fract_y
_atom_site_fract_z
I1 I 0.085767(14) 0.79872(2) 0.22966(2)
I2 I 0.242669(15) 0.56013(2) 0.50881(3)
F1 F 0.09204(15) 0.8397(2) 0.7385(2)
O1 O 0.08081(17) 0.4150(2) 0.4174(3)
O2 O 0.06687(15) 0.51904(18) 0.6219(2)
O3 O 0.22865(16) 0.9158(2) 0.7464(3)
O4 O 0.02229(15) 0.9427(2) 0.4271(2)
N1 N 0.08795(15) 0.5729(2) 0.4618(2)
N2 N 0.11976(15) 0.9039(2) 0.5913(2)
C1 C 0.1654(2) 0.7084(3) 0.3419(3)
H1 H 0.2100 0.7189 0.3581
C2 C 0.15559(18) 0.6375(3) 0.3907(3)
C3 C 0.08655(19) 0.6034(3) 0.3686(3)
H2 H 0.0532 0.6551 0.3344
H3 H 0.0705 0.5503 0.3186
C4 C 0.0862(2) 0.4759(3) 0.4793(3)
C5 C 0.0955(2) 0.4511(3) 0.5838(4)
H4 H 0.0745 0.3890 0.5768
H5 H 0.1446 0.4449 0.6373
C6 C 0.08179(17) 0.6133(3) 0.6143(3)
C7 C 0.0813(2) 0.6781(3) 0.6830(3)
H6 H 0.0733 0.6583 0.7347
C8 C 0.0931(2) 0.7739(3) 0.6729(3)
C9 C 0.10596(18) 0.8049(2) 0.5982(3)
C10 C 0.10609(17) 0.7381(2) 0.5293(3)
H7 H 0.1151 0.7577 0.4788
C11 C 0.09276(17) 0.6418(2) 0.5361(3)
C12 C 0.1811(2) 0.9511(3) 0.6655(3)
C13 C 0.17571(19) 1.0491(2) 0.6224(3)
C14 C 0.2311(2) 1.1238(3) 0.6715(3)
H8 H 0.2717 1.1005 0.6745
H9 H 0.2442 1.1368 0.7439
C15 C 0.2052(3) 1.2164(3) 0.6053(4)
H10 H 0.1799 1.2538 0.6277
H11 H 0.2448 1.2542 0.6200
C16 C 0.1595(3) 1.1994(3) 0.4877(4)
H12 H 0.1853 1.1646 0.4643
H13 H 0.1459 1.2607 0.4509
C17 C 0.0948(2) 1.1424(3) 0.4576(4)
H14 H 0.0635 1.1822 0.4656
H15 H 0.0710 1.1218 0.3837
C18 C 0.11612(19) 1.0573(2) 0.5290(3)
C19 C 0.07739(19) 0.9643(3) 0.5051(3)
loop_
_geom_bond_atom_site_label_1
_geom_bond_atom_site_label_2
_geom_bond_site_symmetry_1
_geom_bond_site_symmetry_2
I1 C1 1_555 1_555
I2 C2 1_555 1_555
F1 C8 1_555 1_555
O1 C4 1_555 1_555
O2 C5 1_555 1_555
O3 C12 1_555 1_555
O4 C19 1_555 1_555
N1 C3 1_555 1_555
N2 C9 1_555 1_555
C1 H1 1_555 1_555
C2 C1 1_555 1_555
C3 C2 1_555 1_555
H2 C3 1_555 1_555
H3 C3 1_555 1_555
C4 N1 1_555 1_555
C5 C4 1_555 1_555
H4 C5 1_555 1_555
H5 C5 1_555 1_555
C6 O2 1_555 1_555
C7 C6 1_555 1_555
H6 C7 1_555 1_555
C8 C7 1_555 1_555
C9 C8 1_555 1_555
C10 C9 1_555 1_555
H7 C10 1_555 1_555
C11 N1 1_555 1_555
C12 N2 1_555 1_555
C13 C12 1_555 1_555
C14 C13 1_555 1_555
H8 C14 1_555 1_555
H9 C14 1_555 1_555
C15 C14 1_555 1_555
H10 C15 1_555 1_555
H11 C15 1_555 1_555
C16 C15 1_555 1_555
H12 C16 1_555 1_555
H13 C16 1_555 1_555
C17 C16 1_555 1_555
H14 C17 1_555 1_555
H15 C17 1_555 1_555
C18 C13 1_555 1_555
C19 N2 1_555 1_555
C6 C11 1_555 1_555
C10 C11 1_555 1_555
C17 C18 1_555 1_555
C18 C19 1_555 1_555

#END
