
#######################################################################
#
#                 Cambridge Crystallographic Data Centre
#                                CCDC 
#
#######################################################################
#
# If this CIF has been generated from an entry in the Cambridge 
# Structural Database, then it will include bibliographic, chemical, 
# crystal, experimental, refinement or atomic coordinate data resulting 
# from the CCDC's data processing and validation procedures.
#
#######################################################################

data_PIDKOF
_chemical_formula_moiety         'C26 H35 N1 O3'
_chemical_name_systematic        '17-(hydroxyimino)androstan-3-yl benzoate'
_symmetry_cell_setting           monoclinic
_symmetry_space_group_name_H-M   'P 21'
_symmetry_Int_Tables_number      4
_space_group_name_Hall           'P 2yb'
loop_
_symmetry_equiv_pos_site_id
_symmetry_equiv_pos_as_xyz
1 x,y,z
2 -x,1/2+y,-z
_cell_length_a                   6.1268(2)
_cell_length_b                   13.2115(5)
_cell_length_c                   14.7663(5)
_cell_angle_alpha                90
_cell_angle_beta                 101.860(4)
_cell_angle_gamma                90
_cell_volume                     1169.73
_exptl_crystal_colour            colorless
_exptl_crystal_description       block
_cell_formula_units_Z            2
_exptl_crystal_recrystallization_method acetone/hexane
loop_
_atom_site_label
_atom_site_type_symbol
_atom_site_fract_x
_atom_site_fract_y
_atom_site_fract_z
C1 C 0.4006(4) 0.7983(2) 0.26673(16)
H1 H 0.2727 0.8443 0.2601
O1 O 0.0738(3) 0.81612(16) 0.09263(10)
C2 C 0.2646(3) 0.72691(19) 0.40259(15)
H2 H 0.1334 0.7710 0.3874
C3 C 0.4459(3) 0.78760(19) 0.46877(15)
H3 H 0.5744 0.7425 0.4874
C4 C 0.3702(4) 0.8194(2) 0.55732(15)
H4 H 0.5009 0.8480 0.5990
C5 C 0.3298(4) 0.69923(19) 0.30960(15)
C6 C 0.4440(4) 0.7829(2) 0.16931(16)
H5 H 0.4799 0.8476 0.1450
H6 H 0.5718 0.7387 0.1726
C7 C 0.1620(5) 0.6429(2) 0.14302(17)
H7 H 0.2694 0.5889 0.1432
H8 H 0.0228 0.6223 0.1032
O2 O -0.0948(3) 0.75249(17) -0.04444(12)
C8 C 0.1243(4) 0.6578(2) 0.24152(15)
H9 H 0.0823 0.5935 0.2645
H10 H 0.0008 0.7043 0.2396
C9 C 0.5259(4) 0.8789(2) 0.42094(17)
H11 H 0.4077 0.9290 0.4087
H12 H 0.6526 0.9093 0.4623
C10 C 0.2456(4) 0.7375(2) 0.10414(16)
H13 H 0.2845 0.7225 0.0444
C11 C 0.1845(4) 0.8998(2) 0.54665(17)
H14 H 0.2434 0.9667 0.5390
H15 H 0.0665 0.8850 0.4937
C12 C 0.1966(4) 0.6358(2) 0.45547(16)
H16 H 0.0798 0.5982 0.4149
H17 H 0.3237 0.5912 0.4736
C13 C -0.0841(4) 0.8155(2) 0.01588(15)
C14 C 0.1136(4) 0.6688(2) 0.54133(16)
H18 H 0.0750 0.6090 0.5728
H19 H -0.0211 0.7085 0.5223
C15 C -0.2462(4) 0.8994(2) 0.01393(15)
C16 C 0.5158(4) 0.6194(3) 0.32381(19)
H20 H 0.5687 0.6112 0.2674
H21 H 0.4585 0.5561 0.3407
H22 H 0.6365 0.6411 0.3722
C17 C 0.2851(4) 0.7316(2) 0.61010(15)
C18 C -0.2065(5) 0.9791(2) 0.07642(17)
H23 H -0.0717 0.9829 0.1189
O3 O -0.0079(4) 0.8187(2) 0.78828(14)
H24 H -0.0399 0.7924 0.8341
C19 C 0.5926(4) 0.8512(2) 0.33088(17)
H25 H 0.7215 0.8069 0.3433
H26 H 0.6331 0.9120 0.3013
C20 C 0.1612(4) 0.7886(2) 0.67288(16)
N1 N 0.1151(4) 0.7485(2) 0.74478(15)
C21 C 0.0988(5) 0.8931(3) 0.63623(19)
H27 H 0.1686 0.9442 0.6799
H28 H -0.0616 0.9025 0.6244
C22 C -0.3664(5) 1.0526(3) 0.0756(2)
H29 H -0.3387 1.1066 0.1168
C23 C -0.4475(5) 0.8948(3) -0.04998(17)
H30 H -0.4748 0.8423 -0.0928
C24 C 0.4726(5) 0.6646(3) 0.6630(2)
H31 H 0.5443 0.6301 0.6199
H32 H 0.4112 0.6158 0.6990
H33 H 0.5797 0.7058 0.7033
C25 C -0.5675(5) 1.0460(3) 0.0136(2)
H34 H -0.6775 1.0942 0.0145
C26 C -0.6060(5) 0.9685(3) -0.0493(2)
H35 H -0.7405 0.9657 -0.0921
loop_
_geom_bond_atom_site_label_1
_geom_bond_atom_site_label_2
_geom_bond_site_symmetry_1
_geom_bond_site_symmetry_2
C1 H1 1_555 1_555
O1 C10 1_555 1_555
C2 H2 1_555 1_555
C3 C2 1_555 1_555
H3 C3 1_555 1_555
C4 C3 1_555 1_555
H4 C4 1_555 1_555
C5 C1 1_555 1_555
C6 C1 1_555 1_555
H5 C6 1_555 1_555
H6 C6 1_555 1_555
C7 H7 1_555 1_555
H8 C7 1_555 1_555
O2 C13 1_555 1_555
C8 C5 1_555 1_555
H9 C8 1_555 1_555
H10 C8 1_555 1_555
C9 C3 1_555 1_555
H11 C9 1_555 1_555
H12 C9 1_555 1_555
C10 C6 1_555 1_555
H13 C10 1_555 1_555
C11 C4 1_555 1_555
H14 C11 1_555 1_555
H15 C11 1_555 1_555
C12 C2 1_555 1_555
H16 C12 1_555 1_555
H17 C12 1_555 1_555
C13 O1 1_555 1_555
C14 C12 1_555 1_555
H18 C14 1_555 1_555
H19 C14 1_555 1_555
C15 C13 1_555 1_555
C16 C5 1_555 1_555
H20 C16 1_555 1_555
H21 C16 1_555 1_555
H22 C16 1_555 1_555
C17 C4 1_555 1_555
C18 C15 1_555 1_555
H23 C18 1_555 1_555
O3 H24 1_555 1_555
C19 C1 1_555 1_555
H25 C19 1_555 1_555
H26 C19 1_555 1_555
C20 C17 1_555 1_555
N1 O3 1_555 1_555
C21 C11 1_555 1_555
H27 C21 1_555 1_555
H28 C21 1_555 1_555
C22 C18 1_555 1_555
H29 C22 1_555 1_555
C23 C15 1_555 1_555
H30 C23 1_555 1_555
C24 C17 1_555 1_555
H31 C24 1_555 1_555
H32 C24 1_555 1_555
H33 C24 1_555 1_555
C25 C22 1_555 1_555
H34 C25 1_555 1_555
C26 C23 1_555 1_555
H35 C26 1_555 1_555
C2 C5 1_555 1_555
C7 C8 1_555 1_555
C7 C10 1_555 1_555
C9 C19 1_555 1_555
C14 C17 1_555 1_555
C20 N1 1_555 1_555
C20 C21 1_555 1_555
C25 C26 1_555 1_555

#END
