
#######################################################################
#
#                 Cambridge Crystallographic Data Centre
#                                CCDC 
#
#######################################################################
#
# If this CIF has been generated from an entry in the Cambridge 
# Structural Database, then it will include bibliographic, chemical, 
# crystal, experimental, refinement or atomic coordinate data resulting 
# from the CCDC's data processing and validation procedures.
#
#######################################################################

data_PIDKIZ
_chemical_formula_moiety         'C35 H44 O4'
_chemical_name_systematic        'pregnane-3,20-diyl dibenzoate'
_symmetry_cell_setting           orthorhombic
_symmetry_space_group_name_H-M   'P 21 21 21'
_symmetry_Int_Tables_number      19
_space_group_name_Hall           'P 2ac 2ab'
loop_
_symmetry_equiv_pos_site_id
_symmetry_equiv_pos_as_xyz
1 x,y,z
2 1/2-x,-y,1/2+z
3 1/2+x,1/2-y,-z
4 -x,1/2+y,1/2-z
_cell_length_a                   11.1414(3)
_cell_length_b                   12.4672(4)
_cell_length_c                   21.0621(5)
_cell_angle_alpha                90
_cell_angle_beta                 90
_cell_angle_gamma                90
_cell_volume                     2925.57
_exptl_crystal_colour            colorless
_exptl_crystal_description       block
_cell_formula_units_Z            4
loop_
_atom_site_label
_atom_site_type_symbol
_atom_site_fract_x
_atom_site_fract_y
_atom_site_fract_z
O1 O -0.91653(19) -0.87319(18) -0.63888(9)
O2 O 0.0066(2) -0.2905(2) -0.47380(10)
O3 O -1.01335(18) -0.93872(18) -0.72424(9)
O4 O -0.14869(19) -0.38571(19) -0.51088(9)
C1 C -0.6109(3) -0.7406(2) -0.66248(12)
C2 C -0.3915(3) -0.7291(2) -0.62255(13)
H1 H -0.3603 -0.7541 -0.6635
C3 C -0.0952(3) -0.3208(3) -0.46941(13)
C4 C -0.1781(3) -0.2881(2) -0.41740(12)
C5 C -0.5164(3) -0.7757(3) -0.61345(13)
H2 H -0.5447 -0.7485 -0.5724
C6 C -0.2742(3) -0.5517(3) -0.63231(12)
C7 C -0.3992(3) -0.6051(2) -0.62432(12)
H3 H -0.4279 -0.5834 -0.5823
C8 C -0.6182(3) -0.6178(3) -0.66100(14)
H4 H -0.6729 -0.5935 -0.6938
H5 H -0.6498 -0.5949 -0.6203
C9 C -0.1950(3) -0.5902(3) -0.57590(13)
H6 H -0.2378 -0.5701 -0.5371
C10 C -0.5800(3) -0.7782(3) -0.72994(12)
H7 H -0.5790 -0.8552 -0.7312
H8 H -0.5025 -0.7512 -0.7417
H9 H -0.6393 -0.7518 -0.7591
C11 C -1.1886(3) -1.0306(3) -0.64266(14)
H10 H -1.2072 -1.0280 -0.6857
C12 C -0.2977(3) -0.3196(3) -0.41567(13)
H11 H -0.3278 -0.3652 -0.4468
C13 C -1.0833(3) -0.9836(2) -0.62051(13)
C14 C -0.1347(3) -0.2197(3) -0.37066(13)
H12 H -0.0543 -0.1998 -0.3709
C15 C -1.0023(3) -0.9301(3) -0.66725(14)
C16 C -1.2376(3) -1.0855(3) -0.53666(15)
H13 H -1.2888 -1.1202 -0.5085
C17 C -1.0566(3) -0.9871(3) -0.55591(13)
H14 H -0.9871 -0.9548 -0.5407
C18 C -0.3056(3) -0.7658(3) -0.57028(14)
H15 H -0.3409 -0.7500 -0.5292
H16 H -0.2952 -0.8429 -0.5731
C19 C -0.2856(3) -0.4281(2) -0.62659(14)
H17 H -0.3305 -0.4013 -0.6627
H18 H -0.3310 -0.4111 -0.5886
C20 C -0.7209(3) -0.8033(3) -0.63721(13)
H19 H -0.7475 -0.7672 -0.5984
C21 C -0.4947(3) -0.5666(3) -0.67150(13)
H20 H -0.5024 -0.4893 -0.6680
H21 H -0.4680 -0.5827 -0.7143
C22 C -0.8302(3) -0.8156(3) -0.67958(13)
H22 H -0.8096 -0.8603 -0.7162
C23 C -0.0741(3) -0.5336(3) -0.57326(14)
H23 H -0.0303 -0.5583 -0.5362
H24 H -0.0278 -0.5527 -0.6106
C24 C -0.6685(3) -0.9132(3) -0.61733(14)
H25 H -0.6860 -0.9669 -0.6493
H26 H -0.7030 -0.9362 -0.5773
C25 C -0.2195(3) -0.5795(3) -0.69711(13)
H27 H -0.2698 -0.5518 -0.7303
H28 H -0.2133 -0.6560 -0.7012
H29 H -0.1410 -0.5481 -0.7004
C26 C -0.1833(3) -0.7120(3) -0.57461(15)
H30 H -0.1427 -0.7360 -0.6128
H31 H -0.1348 -0.7331 -0.5384
C27 C -0.0861(3) -0.4129(3) -0.57019(13)
H32 H -0.0069 -0.3790 -0.5714
C28 C -0.1647(3) -0.3703(3) -0.62365(13)
H33 H -0.1232 -0.3794 -0.6638
H34 H -0.1782 -0.2942 -0.6173
C29 C -1.2661(3) -1.0813(3) -0.60059(15)
H35 H -1.3367 -1.1123 -0.6153
C30 C -0.8873(3) -0.7125(3) -0.70232(16)
H36 H -0.8955 -0.6639 -0.6673
H37 H -0.9651 -0.7277 -0.7197
H38 H -0.8377 -0.6805 -0.7344
C31 C -1.1333(3) -1.0384(3) -0.51463(14)
H39 H -1.1147 -1.0414 -0.4716
C32 C -0.5310(3) -0.8977(3) -0.61054(15)
H40 H -0.5023 -0.9260 -0.5704
H41 H -0.4882 -0.9324 -0.6450
C33 C -0.2100(3) -0.1811(3) -0.32381(14)
H42 H -0.1809 -0.1339 -0.2932
C34 C -0.3281(3) -0.2130(3) -0.32276(14)
H43 H -0.3793 -0.1870 -0.2914
C35 C -0.3714(3) -0.2835(3) -0.36796(14)
H44 H -0.4507 -0.3065 -0.3661
loop_
_geom_bond_atom_site_label_1
_geom_bond_atom_site_label_2
_geom_bond_site_symmetry_1
_geom_bond_site_symmetry_2
O1 C15 1_555 1_555
O2 C3 1_555 1_555
O3 C15 1_555 1_555
O4 C3 1_555 1_555
C1 C5 1_555 1_555
C2 H1 1_555 1_555
C3 C4 1_555 1_555
C4 C12 1_555 1_555
C5 C2 1_555 1_555
H2 C5 1_555 1_555
C6 C7 1_555 1_555
C7 C2 1_555 1_555
H3 C7 1_555 1_555
C8 C1 1_555 1_555
H4 C8 1_555 1_555
H5 C8 1_555 1_555
C9 C6 1_555 1_555
H6 C9 1_555 1_555
C10 C1 1_555 1_555
H7 C10 1_555 1_555
H8 C10 1_555 1_555
H9 C10 1_555 1_555
C11 H10 1_555 1_555
C12 H11 1_555 1_555
C13 C11 1_555 1_555
C14 C4 1_555 1_555
H12 C14 1_555 1_555
C15 C13 1_555 1_555
C16 H13 1_555 1_555
C17 C13 1_555 1_555
H14 C17 1_555 1_555
C18 C2 1_555 1_555
H15 C18 1_555 1_555
H16 C18 1_555 1_555
C19 C6 1_555 1_555
H17 C19 1_555 1_555
H18 C19 1_555 1_555
C20 C1 1_555 1_555
H19 C20 1_555 1_555
C21 C7 1_555 1_555
H20 C21 1_555 1_555
H21 C21 1_555 1_555
C22 O1 1_555 1_555
H22 C22 1_555 1_555
C23 C9 1_555 1_555
H23 C23 1_555 1_555
H24 C23 1_555 1_555
C24 C20 1_555 1_555
H25 C24 1_555 1_555
H26 C24 1_555 1_555
C25 C6 1_555 1_555
H27 C25 1_555 1_555
H28 C25 1_555 1_555
H29 C25 1_555 1_555
C26 C9 1_555 1_555
H30 C26 1_555 1_555
H31 C26 1_555 1_555
C27 O4 1_555 1_555
H32 C27 1_555 1_555
C28 C19 1_555 1_555
H33 C28 1_555 1_555
H34 C28 1_555 1_555
C29 C11 1_555 1_555
H35 C29 1_555 1_555
C30 C22 1_555 1_555
H36 C30 1_555 1_555
H37 C30 1_555 1_555
H38 C30 1_555 1_555
C31 C16 1_555 1_555
H39 C31 1_555 1_555
C32 C5 1_555 1_555
H40 C32 1_555 1_555
H41 C32 1_555 1_555
C33 C14 1_555 1_555
H42 C33 1_555 1_555
C34 C33 1_555 1_555
H43 C34 1_555 1_555
C35 C12 1_555 1_555
H44 C35 1_555 1_555
C8 C21 1_555 1_555
C16 C29 1_555 1_555
C17 C31 1_555 1_555
C18 C26 1_555 1_555
C20 C22 1_555 1_555
C23 C27 1_555 1_555
C24 C32 1_555 1_555
C27 C28 1_555 1_555
C34 C35 1_555 1_555

#END
