
#######################################################################
#
#                 Cambridge Crystallographic Data Centre
#                                CCDC 
#
#######################################################################
#
# If this CIF has been generated from an entry in the Cambridge 
# Structural Database, then it will include bibliographic, chemical, 
# crystal, experimental, refinement or atomic coordinate data resulting 
# from the CCDC's data processing and validation procedures.
#
#######################################################################

data_PIDMUN
_chemical_formula_moiety         'C30 H20 Cl6 Si2'
_chemical_name_systematic        
1,2-bis(trichlorosilyl)-3,4,5,6-tetraphenylbenzene
_symmetry_cell_setting           triclinic
_symmetry_space_group_name_H-M   'P -1'
_symmetry_Int_Tables_number      2
_space_group_name_Hall           '-P 1'
loop_
_symmetry_equiv_pos_site_id
_symmetry_equiv_pos_as_xyz
1 x,y,z
2 -x,-y,-z
_cell_length_a                   11.5499(6)
_cell_length_b                   12.4908(7)
_cell_length_c                   12.5898(7)
_cell_angle_alpha                65.826(4)
_cell_angle_beta                 79.473(4)
_cell_angle_gamma                65.638(4)
_cell_volume                     1509.27
_exptl_crystal_colour            colorless
_exptl_crystal_description       block
_cell_formula_units_Z            2
loop_
_atom_site_label
_atom_site_type_symbol
_atom_site_fract_x
_atom_site_fract_y
_atom_site_fract_z
Si1 Si 0.38334(5) 0.37031(5) -0.04163(4)
Si2 Si 0.16433(5) 0.35469(5) 0.20887(5)
Cl1 Cl 0.36549(6) 0.26969(6) -0.12530(5)
Cl2 Cl 0.51690(6) 0.44199(6) -0.13179(5)
Cl3 Cl 0.22075(5) 0.52811(5) -0.06826(5)
Cl4 Cl 0.13513(5) 0.28119(5) 0.10251(5)
Cl5 Cl 0.03122(5) 0.53276(5) 0.17313(5)
Cl6 Cl 0.12014(6) 0.24617(5) 0.37024(5)
C1 C 0.42442(18) 0.28941(16) 0.11735(15)
C2 C 0.33759(17) 0.32711(16) 0.20424(15)
C3 C 0.38635(18) 0.31007(16) 0.30745(16)
C4 C 0.51684(18) 0.24055(16) 0.33244(15)
C5 C 0.59823(18) 0.18670(16) 0.25521(16)
C6 C 0.55333(18) 0.21488(16) 0.14569(15)
C7 C 0.30194(19) 0.37346(18) 0.38753(17)
C8 C 0.2885(2) 0.3060(2) 0.50646(19)
H1 H 0.329975 0.216417 0.537702
C9 C 0.2151(3) 0.3691(3) 0.5789(2)
H2 H 0.206247 0.322495 0.659282
C10 C 0.1554(3) 0.4985(4) 0.5348(3)
H3 H 0.105577 0.541372 0.584715
C11 C 0.1678(2) 0.5665(3) 0.4177(3)
H4 H 0.126550 0.656123 0.387487
C12 C 0.2404(2) 0.5043(2) 0.3438(2)
H5 H 0.247757 0.551584 0.263298
C13 C 0.56575(19) 0.22265(19) 0.44365(17)
C14 C 0.6038(2) 0.1043(2) 0.53467(19)
H6 H 0.603493 0.032439 0.525771
C15 C 0.6423(3) 0.0931(3) 0.6393(2)
H7 H 0.668691 0.012990 0.701677
C16 C 0.6423(3) 0.1970(3) 0.6525(2)
H8 H 0.666316 0.188762 0.724521
C17 C 0.6079(3) 0.3119(3) 0.5627(2)
H9 H 0.610322 0.382882 0.571641
C18 C 0.5693(2) 0.3255(2) 0.4580(2)
H10 H 0.545130 0.405789 0.395838
C19 C 0.73391(18) 0.10122(17) 0.28731(16)
C20 C 0.8178(2) 0.14432(19) 0.30714(18)
H11 H 0.790466 0.230183 0.298942
C21 C 0.9420(2) 0.0619(2) 0.3390(2)
H12 H 0.999209 0.091877 0.352527
C22 C 0.9829(2) -0.0632(2) 0.3512(2)
H13 H 1.067614 -0.119352 0.373886
C23 C 0.9006(2) -0.1058(2) 0.3305(2)
H14 H 0.928869 -0.191608 0.338112
C24 C 0.7764(2) -0.02478(18) 0.29855(17)
H15 H 0.720127 -0.055235 0.284264
C25 C 0.64541(19) 0.15983(17) 0.06325(16)
C26 C 0.7521(2) 0.1902(2) 0.01955(18)
H16 H 0.764561 0.251876 0.036896
C27 C 0.8414(2) 0.1301(2) -0.0499(2)
H17 H 0.913598 0.151949 -0.080400
C28 C 0.8246(3) 0.0396(2) -0.0741(2)
H18 H 0.886226 -0.002304 -0.119914
C29 C 0.7187(3) 0.0098(2) -0.0321(2)
H19 H 0.706810 -0.051665 -0.050182
C30 C 0.6288(2) 0.06928(19) 0.03676(18)
H20 H 0.556028 0.047965 0.065659
loop_
_geom_bond_atom_site_label_1
_geom_bond_atom_site_label_2
_geom_bond_site_symmetry_1
_geom_bond_site_symmetry_2
Si1 Cl1 1_555 1_555
Si2 Cl4 1_555 1_555
Cl2 Si1 1_555 1_555
Cl3 Si1 1_555 1_555
Cl5 Si2 1_555 1_555
Cl6 Si2 1_555 1_555
C1 Si1 1_555 1_555
C2 Si2 1_555 1_555
C3 C2 1_555 1_555
C4 C3 1_555 1_555
C5 C4 1_555 1_555
C6 C1 1_555 1_555
C7 C3 1_555 1_555
C8 C7 1_555 1_555
H1 C8 1_555 1_555
C9 C8 1_555 1_555
H2 C9 1_555 1_555
C10 C9 1_555 1_555
H3 C10 1_555 1_555
C11 C10 1_555 1_555
H4 C11 1_555 1_555
C12 C7 1_555 1_555
H5 C12 1_555 1_555
C13 C4 1_555 1_555
C14 C13 1_555 1_555
H6 C14 1_555 1_555
C15 C14 1_555 1_555
H7 C15 1_555 1_555
C16 C15 1_555 1_555
H8 C16 1_555 1_555
C17 C16 1_555 1_555
H9 C17 1_555 1_555
C18 C13 1_555 1_555
H10 C18 1_555 1_555
C19 C5 1_555 1_555
C20 C19 1_555 1_555
H11 C20 1_555 1_555
C21 C20 1_555 1_555
H12 C21 1_555 1_555
C22 C21 1_555 1_555
H13 C22 1_555 1_555
C23 C22 1_555 1_555
H14 C23 1_555 1_555
C24 C19 1_555 1_555
H15 C24 1_555 1_555
C25 C6 1_555 1_555
C26 C25 1_555 1_555
H16 C26 1_555 1_555
C27 C26 1_555 1_555
H17 C27 1_555 1_555
C28 C27 1_555 1_555
H18 C28 1_555 1_555
C29 C28 1_555 1_555
H19 C29 1_555 1_555
C30 C25 1_555 1_555
H20 C30 1_555 1_555
C1 C2 1_555 1_555
C5 C6 1_555 1_555
C11 C12 1_555 1_555
C17 C18 1_555 1_555
C23 C24 1_555 1_555
C29 C30 1_555 1_555

#END
