
#######################################################################
#
#                 Cambridge Crystallographic Data Centre
#                                CCDC 
#
#######################################################################
#
# If this CIF has been generated from an entry in the Cambridge 
# Structural Database, then it will include bibliographic, chemical, 
# crystal, experimental, refinement or atomic coordinate data resulting 
# from the CCDC's data processing and validation procedures.
#
#######################################################################

data_PIDNEY
_chemical_formula_moiety         'C14 H13 F2 N1 O1'
_chemical_name_systematic        
(2S,3R)-1,1-difluoro-3-(quinolin-4-yl)pent-4-en-2-ol
_symmetry_cell_setting           orthorhombic
_symmetry_space_group_name_H-M   'P 21 21 21'
_symmetry_Int_Tables_number      19
_space_group_name_Hall           'P 2ac 2ab'
loop_
_symmetry_equiv_pos_site_id
_symmetry_equiv_pos_as_xyz
1 x,y,z
2 1/2-x,-y,1/2+z
3 -x,1/2+y,1/2-z
4 1/2+x,1/2-y,-z
_cell_length_a                   6.8776(2)
_cell_length_b                   12.1869(3)
_cell_length_c                   14.1842(5)
_cell_angle_alpha                90
_cell_angle_beta                 90
_cell_angle_gamma                90
_cell_volume                     1188.87
_exptl_crystal_colour            colorless
_exptl_crystal_description       needle
_chemical_melting_point          '153-157 deg.C'
_cell_formula_units_Z            4
loop_
_atom_site_label
_atom_site_type_symbol
_atom_site_fract_x
_atom_site_fract_y
_atom_site_fract_z
C1 C 0.1271(4) 0.3190(2) 0.55038(19)
H1 H 0.000625 0.292975 0.535448
C2 C 0.2103(4) 0.28508(19) 0.63576(19)
H2 H 0.141033 0.236535 0.675987
C3 C 0.3913(4) 0.32172(18) 0.66144(18)
C4 C 0.4891(3) 0.39429(17) 0.59819(18)
C5 C 0.6772(4) 0.43878(19) 0.61526(18)
H3 H 0.741839 0.423016 0.672896
C6 C 0.7663(4) 0.5042(2) 0.5494(2)
H4 H 0.891899 0.533152 0.562023
C7 C 0.6742(4) 0.5288(2) 0.4636(2)
H5 H 0.738537 0.573041 0.418176
C8 C 0.4919(4) 0.4892(2) 0.44547(19)
H6 H 0.429567 0.507181 0.387732
C9 C 0.3955(3) 0.42200(17) 0.51168(18)
C10 C 0.4878(4) 0.28349(18) 0.75177(18)
H7 H 0.564477 0.346297 0.777787
C11 C 0.3468(4) 0.2469(2) 0.82640(18)
H8 H 0.270798 0.183285 0.814541
C12 C 0.3226(4) 0.2983(2) 0.9075(2)
H9 H 0.396677 0.362161 0.921294
H10 H 0.231264 0.271466 0.952154
C13 C 0.6332(4) 0.18978(19) 0.72656(18)
H11 H 0.730595 0.218222 0.680286
C14 C 0.7387(4) 0.14870(19) 0.81307(19)
H12 H 0.645103 0.114587 0.858392
N1 N 0.2129(3) 0.38450(16) 0.48965(16)
O1 O 0.5354(3) 0.09926(14) 0.68653(14)
F1 F 0.8370(3) 0.23374(13) 0.85519(12)
F2 F 0.8790(3) 0.07454(13) 0.78717(13)
H13 H 0.566(5) 0.095(3) 0.627(3)
loop_
_geom_bond_atom_site_label_1
_geom_bond_atom_site_label_2
_geom_bond_site_symmetry_1
_geom_bond_site_symmetry_2
C1 H1 1_555 1_555
C2 C1 1_555 1_555
H2 C2 1_555 1_555
C3 C2 1_555 1_555
C4 C3 1_555 1_555
C5 C4 1_555 1_555
H3 C5 1_555 1_555
C6 C5 1_555 1_555
H4 C6 1_555 1_555
C7 C6 1_555 1_555
H5 C7 1_555 1_555
C8 C7 1_555 1_555
H6 C8 1_555 1_555
C9 C4 1_555 1_555
C10 C3 1_555 1_555
H7 C10 1_555 1_555
C11 C10 1_555 1_555
H8 C11 1_555 1_555
C12 C11 1_555 1_555
H9 C12 1_555 1_555
H10 C12 1_555 1_555
C13 C10 1_555 1_555
H11 C13 1_555 1_555
C14 C13 1_555 1_555
H12 C14 1_555 1_555
N1 C1 1_555 1_555
O1 C13 1_555 1_555
F1 C14 1_555 1_555
F2 C14 1_555 1_555
H13 O1 1_555 1_555
C8 C9 1_555 1_555
C9 N1 1_555 1_555

#END
