
#######################################################################
#
#                 Cambridge Crystallographic Data Centre
#                                CCDC 
#
#######################################################################
#
# If this CIF has been generated from an entry in the Cambridge 
# Structural Database, then it will include bibliographic, chemical, 
# crystal, experimental, refinement or atomic coordinate data resulting 
# from the CCDC's data processing and validation procedures.
#
#######################################################################

data_PIDPEZ
_chemical_formula_moiety         'C20 H17 Cl1 O4'
_chemical_name_systematic        
3'-(4-Chlorophenyl)-4,6,7-trimethyl-3',4'-dihydro-3H,5'H-spiro[1-benzofuran-2,2'-furan]-3,5'-dione
_symmetry_cell_setting           monoclinic
_symmetry_space_group_name_H-M   'P 21/c'
_symmetry_Int_Tables_number      14
_space_group_name_Hall           '-P 2ybc'
loop_
_symmetry_equiv_pos_site_id
_symmetry_equiv_pos_as_xyz
1 x,y,z
2 -x,1/2+y,1/2-z
3 -x,-y,-z
4 x,1/2-y,1/2+z
_cell_length_a                   11.874(6)
_cell_length_b                   14.457(7)
_cell_length_c                   10.519(5)
_cell_angle_alpha                90
_cell_angle_beta                 108.210(8)
_cell_angle_gamma                90
_cell_volume                     1715.28
_exptl_crystal_colour            colorless
_exptl_crystal_description       Prism
_cell_formula_units_Z            4
loop_
_atom_site_label
_atom_site_type_symbol
_atom_site_fract_x
_atom_site_fract_y
_atom_site_fract_z
Cl1 Cl 0.23749(3) 1.01365(3) 0.39375(3)
O1 O -0.07319(8) 0.77031(6) 1.03512(8)
O2 O 0.09554(7) 0.84870(6) 1.06515(8)
O3 O 0.23505(7) 0.82109(6) 0.95725(8)
O4 O 0.19944(8) 1.03962(6) 1.08863(8)
C1 C -0.01055(11) 0.81130(9) 0.98511(12)
C2 C -0.02459(11) 0.83328(9) 0.84147(11)
H1 H -0.1074 0.8505 0.7919
H2 H -0.0007 0.7803 0.7961
C3 C 0.05968(10) 0.91559(9) 0.85369(11)
H3 H 0.0188 0.9717 0.8735
C4 C 0.15710(11) 0.88937(9) 0.98219(11)
C5 C 0.23801(11) 0.96723(9) 1.06178(11)
C6 C 0.35806(11) 0.93279(9) 1.08783(12)
C7 C 0.46878(12) 0.96966(10) 1.16017(12)
C8 C 0.56679(12) 0.91804(11) 1.15775(14)
H4 H 0.6434 0.9401 1.2068
C9 C 0.55823(12) 0.83539(11) 1.08673(14)
C10 C 0.44726(11) 0.79841(10) 1.01317(12)
C11 C 0.35063(11) 0.84944(9) 1.02027(11)
C12 C 0.43329(12) 0.71228(10) 0.92934(14)
H5 H 0.3493 0.7031 0.8794
H6 H 0.4628 0.6589 0.9876
H7 H 0.4787 0.7188 0.8664
C13 C 0.67055(12) 0.78512(12) 1.08868(17)
H8 H 0.6640 0.7198 1.1102
H9 H 0.7384 0.8129 1.1565
H10 H 0.6819 0.7901 1.0006
C14 C 0.48026(13) 1.05835(11) 1.23793(14)
H11 H 0.4668 1.0461 1.3237
H12 H 0.4214 1.1030 1.1866
H13 H 0.5600 1.0838 1.2542
C15 C 0.10264(10) 0.93868(9) 0.73684(11)
C16 C 0.14820(11) 0.87111(9) 0.67186(11)
H14 H 0.1511 0.8085 0.7003
C17 C 0.18922(11) 0.89419(10) 0.56641(12)
H15 H 0.2198 0.8479 0.5221
C18 C 0.18514(11) 0.98568(10) 0.52633(12)
C19 C 0.13973(11) 1.05417(9) 0.58743(12)
H16 H 0.1368 1.1165 0.5582
C20 C 0.09822(11) 1.02992(9) 0.69306(12)
H17 H 0.0664 1.0764 0.7359
loop_
_geom_bond_atom_site_label_1
_geom_bond_atom_site_label_2
_geom_bond_site_symmetry_1
_geom_bond_site_symmetry_2
Cl1 C18 1_555 1_555
O1 C1 1_555 1_555
O2 C1 1_555 1_555
O3 C4 1_555 1_555
O4 C5 1_555 1_555
C1 C2 1_555 1_555
C2 H1 1_555 1_555
H2 C2 1_555 1_555
C3 C2 1_555 1_555
H3 C3 1_555 1_555
C4 O2 1_555 1_555
C5 C4 1_555 1_555
C6 C5 1_555 1_555
C7 C6 1_555 1_555
C8 C7 1_555 1_555
H4 C8 1_555 1_555
C9 C8 1_555 1_555
C10 C9 1_555 1_555
C11 O3 1_555 1_555
C12 C10 1_555 1_555
H5 C12 1_555 1_555
H6 C12 1_555 1_555
H7 C12 1_555 1_555
C13 C9 1_555 1_555
H8 C13 1_555 1_555
H9 C13 1_555 1_555
H10 C13 1_555 1_555
C14 C7 1_555 1_555
H11 C14 1_555 1_555
H12 C14 1_555 1_555
H13 C14 1_555 1_555
C15 C3 1_555 1_555
C16 C15 1_555 1_555
H14 C16 1_555 1_555
C17 C16 1_555 1_555
H15 C17 1_555 1_555
C18 C17 1_555 1_555
C19 C18 1_555 1_555
H16 C19 1_555 1_555
C20 C15 1_555 1_555
H17 C20 1_555 1_555
C3 C4 1_555 1_555
C6 C11 1_555 1_555
C10 C11 1_555 1_555
C19 C20 1_555 1_555

#END
