
#######################################################################
#
#                 Cambridge Crystallographic Data Centre
#                                CCDC 
#
#######################################################################
#
# If this CIF has been generated from an entry in the Cambridge 
# Structural Database, then it will include bibliographic, chemical, 
# crystal, experimental, refinement or atomic coordinate data resulting 
# from the CCDC's data processing and validation procedures.
#
#######################################################################

data_PIDSUT
_chemical_formula_moiety         'C14 H18 N2 O1'
_chemical_name_systematic        4-benzyl-1,4-diazabicyclo[3.3.1]nonan-2-one
_symmetry_cell_setting           triclinic
_symmetry_space_group_name_H-M   'P -1'
_symmetry_Int_Tables_number      2
_space_group_name_Hall           '-P 1'
loop_
_symmetry_equiv_pos_site_id
_symmetry_equiv_pos_as_xyz
1 x,y,z
2 -x,-y,-z
_cell_length_a                   6.1585(4)
_cell_length_b                   9.8444(6)
_cell_length_c                   10.3235(7)
_cell_angle_alpha                73.953(6)
_cell_angle_beta                 83.652(5)
_cell_angle_gamma                85.365(5)
_cell_volume                     596.977
_exptl_crystal_colour            colorless
_exptl_crystal_description       irregular
_cell_formula_units_Z            2
loop_
_atom_site_label
_atom_site_type_symbol
_atom_site_fract_x
_atom_site_fract_y
_atom_site_fract_z
O1 O -0.14145(15) 0.91211(10) 0.17795(10)
N1 N 0.11935(17) 0.92041(11) 0.31636(12)
C1 C 0.0514(2) 0.90241(13) 0.19948(14)
N2 N 0.33727(17) 0.72342(11) 0.19144(11)
C2 C 0.2333(2) 0.85464(14) 0.10826(14)
H1 H 0.1747 0.8364 0.0316
H2 H 0.3393 0.9269 0.0746
C3 C 0.4061(2) 0.73716(13) 0.32048(14)
H3 H 0.5636 0.7141 0.3234
C4 C 0.3561(2) 0.88945(14) 0.32770(15)
H4 H 0.3945 0.9000 0.4129
H5 H 0.4394 0.9540 0.2543
C5 C -0.0081(2) 0.84207(14) 0.44101(14)
H6 H -0.1629 0.8670 0.4347
H7 H 0.0350 0.8668 0.5189
C6 C 0.0356(2) 0.68275(13) 0.45770(14)
H8 H -0.0344 0.6560 0.3894
H9 H -0.0291 0.6311 0.5458
C7 C 0.2815(2) 0.64059(13) 0.44481(14)
H10 H 0.3443 0.6444 0.5258
H11 H 0.3001 0.5437 0.4386
C8 C 0.5153(2) 0.66937(13) 0.10908(14)
H12 H 0.6438 0.7226 0.1027
H13 H 0.4723 0.6851 0.0183
C9 C 0.5745(2) 0.51346(13) 0.16553(13)
C10 C 0.4123(2) 0.41717(13) 0.22096(14)
H14 H 0.2671 0.4501 0.2303
C11 C 0.4656(2) 0.27260(14) 0.26228(14)
H15 H 0.3563 0.2096 0.2999
C12 C 0.6822(2) 0.22191(14) 0.24750(14)
H16 H 0.7179 0.1252 0.2738
C13 C 0.8443(2) 0.31709(15) 0.19313(15)
H17 H 0.9892 0.2840 0.1832
C14 C 0.7911(2) 0.46189(14) 0.15336(14)
H18 H 0.9013 0.5248 0.1183
loop_
_geom_bond_atom_site_label_1
_geom_bond_atom_site_label_2
_geom_bond_site_symmetry_1
_geom_bond_site_symmetry_2
O1 C1 1_555 1_555
N1 C1 1_555 1_555
C1 C2 1_555 1_555
N2 C2 1_555 1_555
C2 H1 1_555 1_555
H2 C2 1_555 1_555
C3 N2 1_555 1_555
H3 C3 1_555 1_555
C4 N1 1_555 1_555
H4 C4 1_555 1_555
H5 C4 1_555 1_555
C5 N1 1_555 1_555
H6 C5 1_555 1_555
H7 C5 1_555 1_555
C6 C5 1_555 1_555
H8 C6 1_555 1_555
H9 C6 1_555 1_555
C7 C3 1_555 1_555
H10 C7 1_555 1_555
H11 C7 1_555 1_555
C8 N2 1_555 1_555
H12 C8 1_555 1_555
H13 C8 1_555 1_555
C9 C8 1_555 1_555
C10 C9 1_555 1_555
H14 C10 1_555 1_555
C11 C10 1_555 1_555
H15 C11 1_555 1_555
C12 C11 1_555 1_555
H16 C12 1_555 1_555
C13 C12 1_555 1_555
H17 C13 1_555 1_555
C14 C9 1_555 1_555
H18 C14 1_555 1_555
C3 C4 1_555 1_555
C6 C7 1_555 1_555
C13 C14 1_555 1_555

#END
