
#######################################################################
#
#                 Cambridge Crystallographic Data Centre
#                                CCDC 
#
#######################################################################
#
# If this CIF has been generated from an entry in the Cambridge 
# Structural Database, then it will include bibliographic, chemical, 
# crystal, experimental, refinement or atomic coordinate data resulting 
# from the CCDC's data processing and validation procedures.
#
#######################################################################

data_PIDVUV
_chemical_formula_moiety         'C17 H13 F3 N2 O3'
_chemical_name_systematic        
2-Methoxy-4-nitro-N-(1,1,1-trifluoro-2-phenylbut-3-yn-2-yl)aniline
_symmetry_cell_setting           monoclinic
_symmetry_space_group_name_H-M   'P 21'
_symmetry_Int_Tables_number      4
_space_group_name_Hall           'P 2yb'
loop_
_symmetry_equiv_pos_site_id
_symmetry_equiv_pos_as_xyz
1 x,y,z
2 -x,1/2+y,-z
_cell_length_a                   7.1840(14)
_cell_length_b                   11.070(2)
_cell_length_c                   10.323(2)
_cell_angle_alpha                90
_cell_angle_beta                 95.73(3)
_cell_angle_gamma                90
_cell_volume                     816.854
_exptl_crystal_colour            yellow
_exptl_crystal_description       block
_cell_formula_units_Z            2
loop_
_atom_site_label
_atom_site_type_symbol
_atom_site_fract_x
_atom_site_fract_y
_atom_site_fract_z
F1 F 1.1507(2) 0.83451(13) -0.03694(18)
F2 F 1.2962(2) 0.9281(3) 0.12147(16)
F3 F 1.1524(2) 1.02647(12) -0.03578(15)
O1 O 0.3141(3) 0.7648(2) 0.5443(2)
O2 O 0.4843(4) 0.6108(2) 0.6052(2)
O3 O 1.0191(2) 0.62460(14) 0.32382(15)
N1 N 0.4507(4) 0.69912(19) 0.5364(2)
N2 N 0.9689(3) 0.82151(18) 0.18820(19)
H1 H 1.0584 0.7708 0.1821
C1 C 0.5835(4) 0.7306(2) 0.4447(2)
C2 C 0.7381(3) 0.65691(19) 0.4339(2)
H2 H 0.7562 0.5875 0.4842
C3 C 0.8643(3) 0.68865(18) 0.34703(18)
C4 C 0.8365(3) 0.79528(17) 0.27150(19)
C5 C 0.6806(3) 0.86541(19) 0.2852(2)
H3 H 0.6608 0.9354 0.2359
C6 C 0.5532(3) 0.8327(2) 0.3714(2)
H4 H 0.4480 0.8800 0.3793
C7 C 0.9647(3) 0.9312(2) 0.10990(18)
C8 C 0.7969(2) 0.93309(19) 0.00446(17)
C9 C 0.7270(4) 0.8271(2) -0.0494(2)
H5 H 0.7767 0.7535 -0.0192
C10 C 0.5821(4) 0.8296(3) -0.1493(3)
H6 H 0.5343 0.7576 -0.1851
C11 C 0.5097(3) 0.9366(3) -0.1950(2)
H7 H 0.4149 0.9377 -0.2633
C12 C 0.5758(4) 1.0423(2) -0.1409(3)
H8 H 0.5242 1.1153 -0.1712
C13 C 0.7199(3) 1.04160(19) -0.0406(2)
H9 H 0.7646 1.1140 -0.0038
C14 C 0.9713(4) 1.0411(2) 0.1913(2)
C15 C 0.9742(5) 1.1278(3) 0.2562(3)
H10 H 0.9765 1.1968 0.3079
C16 C 1.1429(3) 0.9304(2) 0.0390(2)
C17 C 1.0513(5) 0.5111(2) 0.3865(3)
H11 H 1.1645 0.4764 0.3610
H12 H 0.9482 0.4580 0.3616
H13 H 1.0628 0.5223 0.4791
loop_
_geom_bond_atom_site_label_1
_geom_bond_atom_site_label_2
_geom_bond_site_symmetry_1
_geom_bond_site_symmetry_2
F1 C16 1_555 1_555
F2 C16 1_555 1_555
F3 C16 1_555 1_555
O1 N1 1_555 1_555
O2 N1 1_555 1_555
O3 C3 1_555 1_555
N1 C1 1_555 1_555
N2 H1 1_555 1_555
C1 C2 1_555 1_555
C2 H2 1_555 1_555
C3 C2 1_555 1_555
C4 N2 1_555 1_555
C5 C4 1_555 1_555
H3 C5 1_555 1_555
C6 C1 1_555 1_555
H4 C6 1_555 1_555
C7 N2 1_555 1_555
C8 C7 1_555 1_555
C9 C8 1_555 1_555
H5 C9 1_555 1_555
C10 C9 1_555 1_555
H6 C10 1_555 1_555
C11 C10 1_555 1_555
H7 C11 1_555 1_555
C12 C11 1_555 1_555
H8 C12 1_555 1_555
C13 C8 1_555 1_555
H9 C13 1_555 1_555
C14 C7 1_555 1_555
C15 C14 1_555 1_555
H10 C15 1_555 1_555
C16 C7 1_555 1_555
C17 O3 1_555 1_555
H11 C17 1_555 1_555
H12 C17 1_555 1_555
H13 C17 1_555 1_555
C3 C4 1_555 1_555
C5 C6 1_555 1_555
C12 C13 1_555 1_555

#END
