
#######################################################################
#
#                 Cambridge Crystallographic Data Centre
#                                CCDC 
#
#######################################################################
#
# If this CIF has been generated from an entry in the Cambridge 
# Structural Database, then it will include bibliographic, chemical, 
# crystal, experimental, refinement or atomic coordinate data resulting 
# from the CCDC's data processing and validation procedures.
#
#######################################################################

data_PIDVEE
_chemical_formula_moiety         'C13 H17 N3 O7 S1'
_chemical_name_systematic        
(S)-N^5^-Ethyl-N^2^-(2-nitrophenylsulfonyl)glutamine
_chemical_properties_biological  'potential acetohydroxyacid synthase inhibitor'
_symmetry_cell_setting           monoclinic
_symmetry_space_group_name_H-M   'P 21'
_symmetry_Int_Tables_number      4
_space_group_name_Hall           'P 2yb'
loop_
_symmetry_equiv_pos_site_id
_symmetry_equiv_pos_as_xyz
1 x,y,z
2 -x,1/2+y,-z
_cell_length_a                   6.7756(10)
_cell_length_b                   7.4223(11)
_cell_length_c                   15.848(2)
_cell_angle_alpha                90
_cell_angle_beta                 91.901(2)
_cell_angle_gamma                90
_cell_volume                     796.566
_exptl_crystal_colour            colorless
_exptl_crystal_description       block
_cell_formula_units_Z            2
_exptl_crystal_recrystallization_method ethanol/water
loop_
_atom_site_label
_atom_site_type_symbol
_atom_site_fract_x
_atom_site_fract_y
_atom_site_fract_z
S1 S 0.79947(6) 0.27419(7) 0.31172(3)
O1 O 1.3321(3) 0.4111(3) 0.44370(10)
O2 O 1.2203(2) 0.4254(2) 0.31489(10)
O3 O 0.8120(2) 0.4371(3) 0.35925(9)
O4 O 0.61658(19) 0.1785(3) 0.30393(9)
O5 O 1.15624(19) 0.3029(3) 0.11000(9)
O6 O 0.9897(2) 0.1235(3) 0.02040(10)
H1 H 1.077(4) 0.136(5) -0.0104(18)
O7 O 0.7497(2) 0.6650(3) 0.09009(9)
N1 N 1.2416(2) 0.3476(3) 0.38251(11)
N2 N 0.8665(2) 0.3191(2) 0.21722(9)
H2 H 0.967(3) 0.378(4) 0.2182(13)
N3 N 0.4772(3) 0.5789(3) 0.15432(13)
H3 H 0.403(4) 0.508(4) 0.1531(17)
C1 C 1.1611(3) 0.1659(3) 0.39100(11)
C2 C 1.2822(3) 0.0420(3) 0.43173(13)
H4 H 1.4052 0.0768 0.4538
C3 C 1.2193(4) -0.1346(4) 0.43948(14)
H5 H 1.3017 -0.2197 0.4655
C4 C 1.0355(4) -0.1841(4) 0.40883(14)
H6 H 0.9930 -0.3024 0.4145
C5 C 0.9125(3) -0.0572(3) 0.36928(12)
H7 H 0.7873 -0.0918 0.3496
C6 C 0.9728(3) 0.1192(3) 0.35868(11)
C7 C 0.8422(2) 0.1861(3) 0.14914(11)
H8 H 0.8519 0.0653 0.1739
C8 C 1.0154(3) 0.2123(3) 0.09055(12)
C9 C 0.6403(2) 0.2038(3) 0.10281(11)
H9 H 0.6226 0.1016 0.0651
H10 H 0.5381 0.1975 0.1441
C10 C 0.6112(3) 0.3766(3) 0.05151(11)
H11 H 0.7121 0.3811 0.0095
H12 H 0.4844 0.3697 0.0215
C11 C 0.6186(3) 0.5503(3) 0.10062(12)
C12 C 0.4620(3) 0.7358(4) 0.20878(16)
H13 H 0.5668 0.8198 0.1964
H14 H 0.4802 0.6984 0.2672
C13 C 0.2668(5) 0.8293(5) 0.19777(17)
H15 H 0.1622 0.7447 0.2065
H16 H 0.2541 0.8777 0.1417
H17 H 0.2592 0.9253 0.2381
loop_
_geom_bond_atom_site_label_1
_geom_bond_atom_site_label_2
_geom_bond_site_symmetry_1
_geom_bond_site_symmetry_2
S1 O3 1_555 1_555
O1 N1 1_555 1_555
O2 N1 1_555 1_555
O4 S1 1_555 1_555
O5 C8 1_555 1_555
O6 H1 1_555 1_555
O7 C11 1_555 1_555
N1 C1 1_555 1_555
N2 S1 1_555 1_555
H2 N2 1_555 1_555
N3 H3 1_555 1_555
C1 C2 1_555 1_555
C2 H4 1_555 1_555
C3 C2 1_555 1_555
H5 C3 1_555 1_555
C4 C3 1_555 1_555
H6 C4 1_555 1_555
C5 C4 1_555 1_555
H7 C5 1_555 1_555
C6 S1 1_555 1_555
C7 N2 1_555 1_555
H8 C7 1_555 1_555
C8 O6 1_555 1_555
C9 C7 1_555 1_555
H9 C9 1_555 1_555
H10 C9 1_555 1_555
C10 C9 1_555 1_555
H11 C10 1_555 1_555
H12 C10 1_555 1_555
C11 N3 1_555 1_555
C12 N3 1_555 1_555
H13 C12 1_555 1_555
H14 C12 1_555 1_555
C13 C12 1_555 1_555
H15 C13 1_555 1_555
H16 C13 1_555 1_555
H17 C13 1_555 1_555
C1 C6 1_555 1_555
C5 C6 1_555 1_555
C7 C8 1_555 1_555
C10 C11 1_555 1_555

#END
