
#######################################################################
#
#                 Cambridge Crystallographic Data Centre
#                                CCDC 
#
#######################################################################
#
# If this CIF has been generated from an entry in the Cambridge 
# Structural Database, then it will include bibliographic, chemical, 
# crystal, experimental, refinement or atomic coordinate data resulting 
# from the CCDC's data processing and validation procedures.
#
#######################################################################

data_PIDWEG
_chemical_formula_moiety         'C27 H25 Br1 N2 O5'
_chemical_name_systematic        
't-Butyl 2-(4-bromophenyl)-2-((2-methoxy-4-nitrophenyl)amino)-4-phenylbut-3-ynoate'
_symmetry_cell_setting           tetragonal
_symmetry_space_group_name_H-M   'P 43 21 2'
_symmetry_Int_Tables_number      96
_space_group_name_Hall           'P 4nw 2abw'
loop_
_symmetry_equiv_pos_site_id
_symmetry_equiv_pos_as_xyz
1 x,y,z
2 -x,-y,1/2+z
3 1/2-y,1/2+x,3/4+z
4 1/2+y,1/2-x,1/4+z
5 1/2-x,1/2+y,3/4-z
6 1/2+x,1/2-y,1/4-z
7 y,x,-z
8 -y,-x,1/2-z
_cell_length_a                   11.6019(5)
_cell_length_b                   11.6019(5)
_cell_length_c                   39.259(3)
_cell_angle_alpha                90
_cell_angle_beta                 90
_cell_angle_gamma                90
_cell_volume                     5284.42
_exptl_crystal_colour            yellow
_exptl_crystal_description       prismatic
_cell_formula_units_Z            8
loop_
_atom_site_label
_atom_site_type_symbol
_atom_site_fract_x
_atom_site_fract_y
_atom_site_fract_z
Br1 Br 0.91846(3) 1.06643(4) 1.039565(10)
N1 N 0.4842(2) 0.7280(2) 0.97244(6)
N2 N 0.7174(3) 0.5345(4) 0.86244(8)
O1 O 0.35463(18) 0.77465(18) 1.02606(5)
O2 O 0.37982(17) 0.96599(18) 1.02056(5)
O3 O 0.7850(3) 0.5929(4) 0.84602(7)
O4 O 0.6953(3) 0.4340(3) 0.85540(8)
O5 O 0.4678(2) 0.50524(18) 0.96115(6)
C1 C 0.4744(2) 0.8497(2) 0.98078(7)
C2 C 0.4256(2) 0.9173(2) 0.95233(7)
C3 C 0.3901(2) 0.9758(3) 0.93006(7)
C4 C 0.3538(2) 1.0523(3) 0.90307(7)
C5 C 0.2445(3) 1.0464(3) 0.88917(8)
H1 H 0.1922 0.9915 0.8969
C6 C 0.2136(3) 1.1217(4) 0.86395(10)
H2 H 0.1394 1.1184 0.8551
C7 C 0.2888(4) 1.2012(3) 0.85156(10)
H3 H 0.2671 1.2502 0.8339
C8 C 0.3956(4) 1.2079(3) 0.86521(9)
H4 H 0.4472 1.2629 0.8572
C9 C 0.4281(3) 1.1347(3) 0.89070(8)
H5 H 0.5018 1.1406 0.8999
C10 C 0.5894(2) 0.9009(2) 0.99324(6)
C11 C 0.6274(3) 1.0076(3) 0.98253(8)
H6 H 0.5865 1.0470 0.9658
C12 C 0.7252(3) 1.0568(3) 0.99628(9)
H7 H 0.7504 1.1287 0.9889
C13 C 0.7842(3) 0.9983(3) 1.02075(8)
C14 C 0.7490(3) 0.8930(3) 1.03205(7)
H8 H 0.7901 0.8546 1.0489
C15 C 0.6512(2) 0.8442(2) 1.01799(7)
H9 H 0.6269 0.7720 1.0254
C16 C 0.3931(2) 0.8574(3) 1.01190(7)
C17 C 0.3350(3) 1.0028(3) 1.05411(8)
C18 C 0.3462(5) 1.1315(4) 1.05243(14)
H10 H 0.4259 1.1518 1.0498
H11 H 0.3169 1.1648 1.0731
H12 H 0.3029 1.1601 1.0334
C19 C 0.4100(4) 0.9517(5) 1.08141(9)
H13 H 0.4015 0.8694 1.0814
H14 H 0.3874 0.9819 1.1032
H15 H 0.4890 0.9712 1.0771
C20 C 0.2117(3) 0.9661(4) 1.05786(9)
H16 H 0.1795 1.0006 1.0779
H17 H 0.2080 0.8837 1.0598
H18 H 0.1687 0.9904 1.0383
C21 C 0.5440(2) 0.6842(2) 0.94545(7)
C22 C 0.6130(2) 0.7494(3) 0.92424(7)
H19 H 0.6202 0.8281 0.9283
C23 C 0.6714(3) 0.7006(3) 0.89725(7)
H20 H 0.7179 0.7454 0.8832
C24 C 0.6595(3) 0.5849(4) 0.89165(8)
C25 C 0.5941(3) 0.5165(3) 0.91232(8)
H21 H 0.5888 0.4378 0.9081
C26 C 0.5364(3) 0.5638(2) 0.93914(7)
C27 C 0.4583(4) 0.3834(3) 0.95637(12)
H22 H 0.4211 0.3680 0.9350
H23 H 0.4136 0.3508 0.9746
H24 H 0.5338 0.3496 0.9563
H25 H 0.441(3) 0.685(2) 0.9817(7)
loop_
_geom_bond_atom_site_label_1
_geom_bond_atom_site_label_2
_geom_bond_site_symmetry_1
_geom_bond_site_symmetry_2
Br1 C13 1_555 1_555
N1 C1 1_555 1_555
N2 O3 1_555 1_555
O1 C16 1_555 1_555
O2 C16 1_555 1_555
O4 N2 1_555 1_555
O5 C26 1_555 1_555
C1 C2 1_555 1_555
C2 C3 1_555 1_555
C3 C4 1_555 1_555
C4 C5 1_555 1_555
C5 H1 1_555 1_555
C6 C5 1_555 1_555
H2 C6 1_555 1_555
C7 C6 1_555 1_555
H3 C7 1_555 1_555
C8 C7 1_555 1_555
H4 C8 1_555 1_555
C9 C4 1_555 1_555
H5 C9 1_555 1_555
C10 C1 1_555 1_555
C11 C10 1_555 1_555
H6 C11 1_555 1_555
C12 C11 1_555 1_555
H7 C12 1_555 1_555
C13 C12 1_555 1_555
C14 C13 1_555 1_555
H8 C14 1_555 1_555
C15 C10 1_555 1_555
H9 C15 1_555 1_555
C16 C1 1_555 1_555
C17 O2 1_555 1_555
C18 C17 1_555 1_555
H10 C18 1_555 1_555
H11 C18 1_555 1_555
H12 C18 1_555 1_555
C19 C17 1_555 1_555
H13 C19 1_555 1_555
H14 C19 1_555 1_555
H15 C19 1_555 1_555
C20 C17 1_555 1_555
H16 C20 1_555 1_555
H17 C20 1_555 1_555
H18 C20 1_555 1_555
C21 N1 1_555 1_555
C22 C21 1_555 1_555
H19 C22 1_555 1_555
C23 C22 1_555 1_555
H20 C23 1_555 1_555
C24 N2 1_555 1_555
C25 C24 1_555 1_555
H21 C25 1_555 1_555
C26 C21 1_555 1_555
C27 O5 1_555 1_555
H22 C27 1_555 1_555
H23 C27 1_555 1_555
H24 C27 1_555 1_555
H25 N1 1_555 1_555
C8 C9 1_555 1_555
C14 C15 1_555 1_555
C23 C24 1_555 1_555
C25 C26 1_555 1_555

#END
