
#######################################################################
#
#                 Cambridge Crystallographic Data Centre
#                                CCDC 
#
#######################################################################
#
# If this CIF has been generated from an entry in the Cambridge 
# Structural Database, then it will include bibliographic, chemical, 
# crystal, experimental, refinement or atomic coordinate data resulting 
# from the CCDC's data processing and validation procedures.
#
#######################################################################

data_PIDWEF01
_chemical_formula_moiety         'C10 H9 B1 F2 N2'
_chemical_name_systematic        
5,5-difluoro-10-methyl-5H-dipyrrolo[1,2-c:2',1'-f][1,3,2]diazaborinine
_symmetry_cell_setting           triclinic
_symmetry_space_group_name_H-M   'P -1'
_symmetry_Int_Tables_number      2
_space_group_name_Hall           '-P 1'
loop_
_symmetry_equiv_pos_site_id
_symmetry_equiv_pos_as_xyz
1 x,y,z
2 -x,-y,-z
_cell_length_a                   7.7199(12)
_cell_length_b                   7.7402(12)
_cell_length_c                   16.691(3)
_cell_angle_alpha                102.954(2)
_cell_angle_beta                 93.559(2)
_cell_angle_gamma                92.333(2)
_cell_volume                     968.559
_exptl_crystal_colour            colorless
_exptl_crystal_description       block
_cell_formula_units_Z            4
loop_
_atom_site_label
_atom_site_type_symbol
_atom_site_fract_x
_atom_site_fract_y
_atom_site_fract_z
B1 B 0.3635(3) 0.2810(3) 0.09124(13)
C1 C 0.3282(3) 0.2350(3) -0.06692(12)
H1 H 0.3760 0.3457 -0.0695
C2 C 0.2558(3) 0.1068(3) -0.13428(13)
H2 H 0.2465 0.1166 -0.1889
C3 C 0.2011(3) -0.0357(3) -0.10530(12)
H3 H 0.1473 -0.1410 -0.1366
C4 C 0.2407(2) 0.0053(2) -0.01922(11)
C5 C 0.2194(2) -0.0955(2) 0.03921(12)
C6 C 0.2784(2) -0.0255(2) 0.12109(12)
C7 C 0.2829(3) -0.1001(3) 0.19090(14)
H4 H 0.2422 -0.2140 0.1923
C8 C 0.3581(3) 0.0256(3) 0.25612(14)
H5 H 0.3781 0.0128 0.3100
C9 C 0.3992(3) 0.1761(3) 0.22707(12)
H6 H 0.4509 0.2817 0.2591
C10 C 0.1362(3) -0.2786(3) 0.01450(15)
H7 H 0.0664 -0.2914 -0.0363
H8 H 0.0640 -0.2989 0.0567
H9 H 0.2245 -0.3634 0.0073
F1 F 0.52665(17) 0.36513(18) 0.09926(8)
F2 F 0.24164(19) 0.40715(16) 0.11320(7)
N1 N 0.31882(19) 0.17527(19) 0.00233(9)
N2 N 0.35324(19) 0.1466(2) 0.14613(9)
B2 B 1.2217(3) 0.6186(3) 0.40451(14)
C11 C 1.2853(3) 0.7041(3) 0.56305(12)
H10 H 1.3968 0.6632 0.5643
C12 C 1.2044(3) 0.7922(3) 0.63182(13)
H11 H 1.2517 0.8203 0.6861
C13 C 1.0428(3) 0.8297(3) 0.60456(12)
H12 H 0.9598 0.8882 0.6370
C14 C 1.0246(2) 0.7638(2) 0.51851(11)
C15 C 0.8838(2) 0.7582(2) 0.46181(11)
C16 C 0.8949(2) 0.6724(2) 0.37972(11)
C17 C 0.7695(3) 0.6376(3) 0.31205(13)
H13 H 0.6558 0.6728 0.3124
C18 C 0.8469(3) 0.5421(3) 0.24587(13)
H14 H 0.7951 0.5002 0.1929
C19 C 1.0174(3) 0.5194(3) 0.27245(12)
H15 H 1.0986 0.4594 0.2394
C20 C 0.7189(3) 0.8402(3) 0.48906(14)
H16 H 0.6709 0.8969 0.4478
H17 H 0.7429 0.9267 0.5400
H18 H 0.6371 0.7497 0.4969
F3 F 1.30292(17) 0.46055(17) 0.39535(8)
F4 F 1.32992(15) 0.74272(18) 0.38092(8)
N3 N 1.17864(18) 0.68719(19) 0.49491(9)
N4 N 1.0467(2) 0.5965(2) 0.35250(9)
loop_
_geom_bond_atom_site_label_1
_geom_bond_atom_site_label_2
_geom_bond_site_symmetry_1
_geom_bond_site_symmetry_2
B1 F1 1_555 1_555
C1 H1 1_555 1_555
C2 C1 1_555 1_555
H2 C2 1_555 1_555
C3 C2 1_555 1_555
H3 C3 1_555 1_555
C4 C3 1_555 1_555
C5 C4 1_555 1_555
C6 C5 1_555 1_555
C7 C6 1_555 1_555
H4 C7 1_555 1_555
C8 C7 1_555 1_555
H5 C8 1_555 1_555
C9 C8 1_555 1_555
H6 C9 1_555 1_555
C10 C5 1_555 1_555
H7 C10 1_555 1_555
H8 C10 1_555 1_555
H9 C10 1_555 1_555
F2 B1 1_555 1_555
N1 B1 1_555 1_555
N2 B1 1_555 1_555
B2 F3 1_555 1_555
C11 H10 1_555 1_555
C12 C11 1_555 1_555
H11 C12 1_555 1_555
C13 C12 1_555 1_555
H12 C13 1_555 1_555
C14 C13 1_555 1_555
C15 C14 1_555 1_555
C16 C15 1_555 1_555
C17 C16 1_555 1_555
H13 C17 1_555 1_555
C18 C17 1_555 1_555
H14 C18 1_555 1_555
C19 C18 1_555 1_555
H15 C19 1_555 1_555
C20 C15 1_555 1_555
H16 C20 1_555 1_555
H17 C20 1_555 1_555
H18 C20 1_555 1_555
F4 B2 1_555 1_555
N3 B2 1_555 1_555
N4 B2 1_555 1_555
C1 N1 1_555 1_555
C4 N1 1_555 1_555
C6 N2 1_555 1_555
C9 N2 1_555 1_555
C11 N3 1_555 1_555
C14 N3 1_555 1_555
C16 N4 1_555 1_555
C19 N4 1_555 1_555

#END
