
#######################################################################
#
#                 Cambridge Crystallographic Data Centre
#                                CCDC 
#
#######################################################################
#
# If this CIF has been generated from an entry in the Cambridge 
# Structural Database, then it will include bibliographic, chemical, 
# crystal, experimental, refinement or atomic coordinate data resulting 
# from the CCDC's data processing and validation procedures.
#
#######################################################################

data_PIFJOG
_chemical_formula_moiety         'C54 H57 Br3 N6,3(C1 H2 Cl2)'
_chemical_name_systematic        
'9,25,38-tribromo-2,16,18,32,45,47-hexaethyl-5,13,21,29,34,42-hexa-azaheptacyclo[15.15.11.1^3,31^.1^7,11^.1^15,19^.1^23,27^.1^36,40^]octatetraconta-1,3(45),5,7(48),8,10,12,15(47),16,18,21,23(46),24,26,28,31,34,36(44),37,39,41-henicosaene dichloromethane solvate'
_symmetry_cell_setting           triclinic
_symmetry_space_group_name_H-M   'P -1'
_symmetry_Int_Tables_number      2
_space_group_name_Hall           '-P 1'
loop_
_symmetry_equiv_pos_site_id
_symmetry_equiv_pos_as_xyz
1 x,y,z
2 -x,-y,-z
_cell_length_a                   13.9893(7)
_cell_length_b                   15.0462(7)
_cell_length_c                   16.1794(8)
_cell_angle_alpha                117.2705(11)
_cell_angle_beta                 104.1249(13)
_cell_angle_gamma                93.9722(14)
_cell_volume                     2869.99
_exptl_crystal_colour            colorless
_exptl_crystal_description       needle
_cell_formula_units_Z            2
loop_
_atom_site_label
_atom_site_type_symbol
_atom_site_fract_x
_atom_site_fract_y
_atom_site_fract_z
Br1 Br 0.92989(3) 0.50349(4) 0.82968(5)
Br2 Br 0.06925(5) 0.76607(4) 1.07243(4)
Br3 Br -0.03011(3) 0.16773(3) 0.20702(2)
N1 N 0.6663(2) 0.71797(19) 0.73888(19)
N2 N 0.2815(2) 0.8411(2) 0.86345(19)
N3 N 0.2238(2) 0.54165(19) 0.42659(18)
N4 N 0.5973(2) 0.2890(2) 0.8192(2)
N5 N 0.2079(2) 0.4135(2) 0.9447(2)
N6 N 0.1621(2) 0.1140(2) 0.5102(2)
C1 C 0.4480(2) 0.7165(2) 0.5858(2)
C2 C 0.5103(2) 0.7795(2) 0.6831(2)
C3 C 0.4674(2) 0.8337(2) 0.7573(2)
C4 C 0.3629(2) 0.8271(2) 0.7333(2)
C5 C 0.3005(2) 0.7644(2) 0.6366(2)
C6 C 0.3433(2) 0.7099(2) 0.5624(2)
C7 C 0.4946(3) 0.6590(2) 0.5060(2)
H1 H 0.4465 0.5950 0.4542
H2 H 0.5561 0.6405 0.5338
C8 C 0.5220(3) 0.7236(3) 0.4609(2)
H3 H 0.5506 0.6841 0.4090
H4 H 0.5716 0.7859 0.5116
H5 H 0.4612 0.7421 0.4334
C9 C 0.6234(2) 0.7890(2) 0.7087(2)
H6 H 0.6431 0.7803 0.6511
H7 H 0.6555 0.8596 0.7622
C10 C 0.5349(3) 0.9003(2) 0.8620(2)
H8 H 0.5940 0.8701 0.8734
H9 H 0.4973 0.9016 0.9070
C11 C 0.5714(3) 1.0102(2) 0.8854(2)
H10 H 0.6094 1.0094 0.8417
H11 H 0.6149 1.0503 0.9535
H12 H 0.5131 1.0411 0.8760
C12 C 0.3166(3) 0.8890(2) 0.8121(2)
H13 H 0.3670 0.9523 0.8617
H14 H 0.2586 0.9098 0.7817
C13 C 0.1870(2) 0.7565(2) 0.6114(2)
H15 H 0.1660 0.7644 0.6682
H16 H 0.1530 0.6874 0.5559
C14 C 0.1524(3) 0.8369(3) 0.5843(3)
H17 H 0.1720 0.8288 0.5275
H18 H 0.1842 0.9055 0.6397
H19 H 0.0790 0.8278 0.5684
C15 C 0.2747(2) 0.6456(2) 0.4576(2)
H20 H 0.2222 0.6834 0.4467
H21 H 0.3153 0.6403 0.4138
C16 C 0.3771(2) 0.2639(2) 0.8731(2)
C17 C 0.4203(2) 0.2078(2) 0.7999(2)
C18 C 0.3596(2) 0.1464(2) 0.7026(2)
C19 C 0.2544(2) 0.1369(2) 0.6782(2)
C20 C 0.2099(2) 0.1914(2) 0.7512(2)
C21 C 0.2717(2) 0.2539(2) 0.8485(2)
C22 C 0.2242(3) 0.3123(2) 0.9276(2)
H22 H 0.1582 0.2693 0.9111
H23 H 0.2674 0.3201 0.9900
C23 C 0.4437(3) 0.3328(2) 0.9779(2)
H24 H 0.4122 0.3910 1.0101
H25 H 0.5098 0.3609 0.9777
C24 C 0.4606(3) 0.2764(3) 1.0367(2)
H26 H 0.4921 0.2189 1.0052
H27 H 0.3956 0.2507 1.0392
H28 H 0.5048 0.3235 1.1033
C25 C 0.5331(2) 0.2133(2) 0.8267(2)
H29 H 0.5570 0.2267 0.8950
H30 H 0.5444 0.1450 0.7847
C26 C 0.4078(3) 0.0906(2) 0.6234(2)
H31 H 0.4754 0.1319 0.6417
H32 H 0.3664 0.0846 0.5613
C27 C 0.4190(3) -0.0168(3) 0.6065(3)
H33 H 0.4528 -0.0473 0.5568
H34 H 0.3521 -0.0597 0.5842
H35 H 0.4591 -0.0118 0.6679
C28 C 0.1874(3) 0.0683(2) 0.5732(2)
H36 H 0.2208 0.0116 0.5416
H37 H 0.1235 0.0377 0.5750
C29 C 0.0966(3) 0.1803(2) 0.7250(3)
H38 H 0.0695 0.1688 0.6576
H39 H 0.0805 0.2446 0.7698
C30 C 0.0451(3) 0.0912(3) 0.7316(3)
H40 H 0.0591 0.0270 0.6860
H41 H -0.0279 0.0872 0.7147
H42 H 0.0711 0.1026 0.7985
C31 C 0.2912(2) 0.7519(2) 0.8446(2)
H43 H 0.3240 0.7156 0.7981
C32 C 0.2521(2) 0.7031(2) 0.8944(2)
C33 C 0.1948(3) 0.7520(2) 0.9547(2)
H44 H 0.1847 0.8184 0.9677
C34 C 0.1529(3) 0.7024(3) 0.9954(2)
C35 C 0.1676(3) 0.6069(2) 0.9801(2)
H45 H 0.1383 0.5747 1.0093
C36 C 0.2263(2) 0.5586(2) 0.9210(2)
C37 C 0.2672(2) 0.6066(2) 0.8783(2)
H46 H 0.3064 0.5731 0.8373
C38 C 0.2422(2) 0.4553(2) 0.9032(2)
H47 H 0.2787 0.4205 0.8598
C39 C 0.2522(2) 0.4989(2) 0.4770(2)
H48 H 0.3062 0.5348 0.5365
C40 C 0.2019(2) 0.3930(2) 0.4442(2)
C41 C 0.2295(2) 0.3480(2) 0.5025(2)
H49 H 0.2812 0.3855 0.5636
C42 C 0.1819(2) 0.2483(2) 0.4720(2)
C43 C 0.1067(2) 0.1932(2) 0.3816(2)
H50 H 0.0755 0.1246 0.3590
C44 C 0.0781(2) 0.2396(2) 0.3253(2)
C45 C 0.1241(2) 0.3387(2) 0.3550(2)
H51 H 0.1032 0.3692 0.3155
C46 C 0.2080(2) 0.2025(2) 0.5360(2)
H52 H 0.2598 0.2398 0.5971
C47 C 0.6095(2) 0.6495(2) 0.7393(2)
H53 H 0.5386 0.6448 0.7212
C48 C 0.6513(2) 0.5763(2) 0.7677(2)
C49 C 0.5884(2) 0.5037(2) 0.7727(2)
H54 H 0.5183 0.5030 0.7599
C50 C 0.6274(2) 0.4326(2) 0.7961(2)
C51 C 0.7302(2) 0.4336(2) 0.8139(2)
H55 H 0.7576 0.3848 0.8290
C52 C 0.7916(2) 0.5059(3) 0.8095(2)
C53 C 0.7540(2) 0.5778(2) 0.7872(2)
H56 H 0.7978 0.6275 0.7853
C54 C 0.5614(2) 0.3559(2) 0.8022(2)
H57 H 0.4919 0.3570 0.7932
Cl1 Cl 0.2006(2) 0.81916(15) 0.34554(15)
Cl2 Cl 0.2735(3) 0.99075(16) 0.32338(18)
C55 C 0.2876(8) 0.8725(7) 0.3139(9)
H58 H 0.2836 0.8244 0.2456
H59 H 0.3557 0.8808 0.3563
Cl5 Cl 0.10194(9) 0.55318(8) 0.63879(9)
Cl6 Cl 0.07289(11) 0.37295(9) 0.66227(9)
C57 C 0.0271(4) 0.4340(3) 0.5972(4)
H62 H -0.0414 0.4432 0.6008
H63 H 0.0213 0.3894 0.5276
Cl7 Cl 0.86001(8) 0.98862(7) 0.91536(8)
Cl8 Cl 0.79434(10) 0.89922(10) 1.02356(9)
C59 C 0.8599(3) 0.8859(3) 0.9392(3)
H66 H 0.9303 0.8824 0.9659
H67 H 0.8277 0.8212 0.8773
Cl3? Cl 0.3318(8) 0.9887(5) 0.3425(6)
Cl4? Cl 0.2834(11) 0.8346(6) 0.3745(6)
C56? C 0.2437(16) 0.8675(14) 0.2780(13)
H60? H 0.1726 0.8748 0.2648
H61? H 0.2555 0.8189 0.2166
C58? C 0.0306(13) 0.4874(10) 0.6759(14)
H64? H -0.0411 0.4694 0.6363
H65? H 0.0358 0.5322 0.7453
loop_
_geom_bond_atom_site_label_1
_geom_bond_atom_site_label_2
_geom_bond_site_symmetry_1
_geom_bond_site_symmetry_2
Br1 C52 1_555 1_555
Br2 C34 1_555 1_555
Br3 C44 1_555 1_555
N1 C9 1_555 1_555
N2 C12 1_555 1_555
N3 C15 1_555 1_555
N4 C25 1_555 1_555
N5 C22 1_555 1_555
N6 C28 1_555 1_555
C1 C2 1_555 1_555
C2 C3 1_555 1_555
C3 C4 1_555 1_555
C4 C5 1_555 1_555
C5 C6 1_555 1_555
C6 C1 1_555 1_555
C7 C1 1_555 1_555
H1 C7 1_555 1_555
H2 C7 1_555 1_555
C8 C7 1_555 1_555
H3 C8 1_555 1_555
H4 C8 1_555 1_555
H5 C8 1_555 1_555
C9 C2 1_555 1_555
H6 C9 1_555 1_555
H7 C9 1_555 1_555
C10 C3 1_555 1_555
H8 C10 1_555 1_555
H9 C10 1_555 1_555
C11 C10 1_555 1_555
H10 C11 1_555 1_555
H11 C11 1_555 1_555
H12 C11 1_555 1_555
C12 C4 1_555 1_555
H13 C12 1_555 1_555
H14 C12 1_555 1_555
C13 C5 1_555 1_555
H15 C13 1_555 1_555
H16 C13 1_555 1_555
C14 C13 1_555 1_555
H17 C14 1_555 1_555
H18 C14 1_555 1_555
H19 C14 1_555 1_555
C15 C6 1_555 1_555
H20 C15 1_555 1_555
H21 C15 1_555 1_555
C16 C17 1_555 1_555
C17 C18 1_555 1_555
C18 C19 1_555 1_555
C19 C20 1_555 1_555
C20 C21 1_555 1_555
C21 C16 1_555 1_555
C22 C21 1_555 1_555
H22 C22 1_555 1_555
H23 C22 1_555 1_555
C23 C16 1_555 1_555
H24 C23 1_555 1_555
H25 C23 1_555 1_555
C24 C23 1_555 1_555
H26 C24 1_555 1_555
H27 C24 1_555 1_555
H28 C24 1_555 1_555
C25 C17 1_555 1_555
H29 C25 1_555 1_555
H30 C25 1_555 1_555
C26 C18 1_555 1_555
H31 C26 1_555 1_555
H32 C26 1_555 1_555
C27 C26 1_555 1_555
H33 C27 1_555 1_555
H34 C27 1_555 1_555
H35 C27 1_555 1_555
C28 C19 1_555 1_555
H36 C28 1_555 1_555
H37 C28 1_555 1_555
C29 C20 1_555 1_555
H38 C29 1_555 1_555
H39 C29 1_555 1_555
C30 C29 1_555 1_555
H40 C30 1_555 1_555
H41 C30 1_555 1_555
H42 C30 1_555 1_555
C31 N2 1_555 1_555
H43 C31 1_555 1_555
C32 C31 1_555 1_555
C33 C32 1_555 1_555
H44 C33 1_555 1_555
C34 C33 1_555 1_555
C35 C34 1_555 1_555
H45 C35 1_555 1_555
C36 C35 1_555 1_555
C37 C32 1_555 1_555
H46 C37 1_555 1_555
C38 N5 1_555 1_555
H47 C38 1_555 1_555
C39 N3 1_555 1_555
H48 C39 1_555 1_555
C40 C39 1_555 1_555
C41 C40 1_555 1_555
H49 C41 1_555 1_555
C42 C41 1_555 1_555
C43 C42 1_555 1_555
H50 C43 1_555 1_555
C44 C43 1_555 1_555
C45 C40 1_555 1_555
H51 C45 1_555 1_555
C46 N6 1_555 1_555
H52 C46 1_555 1_555
C47 N1 1_555 1_555
H53 C47 1_555 1_555
C48 C47 1_555 1_555
C49 C48 1_555 1_555
H54 C49 1_555 1_555
C50 C49 1_555 1_555
C51 C50 1_555 1_555
H55 C51 1_555 1_555
C52 C51 1_555 1_555
C53 C48 1_555 1_555
H56 C53 1_555 1_555
C54 N4 1_555 1_555
H57 C54 1_555 1_555
Cl1 C55 1_555 1_555
Cl2 C55 1_555 1_555
C55 H58 1_555 1_555
H59 C55 1_555 1_555
Cl5 C57 1_555 1_555
Cl6 C57 1_555 1_555
C57 H62 1_555 1_555
H63 C57 1_555 1_555
Cl7 C59 1_555 1_555
Cl8 C59 1_555 1_555
C59 H66 1_555 1_555
H67 C59 1_555 1_555
C36 C37 1_555 1_555
C36 C38 1_555 1_555
C42 C46 1_555 1_555
C44 C45 1_555 1_555
C50 C54 1_555 1_555
C52 C53 1_555 1_555

#END
