
#######################################################################
#
#                 Cambridge Crystallographic Data Centre
#                                CCDC 
#
#######################################################################
#
# If this CIF has been generated from an entry in the Cambridge 
# Structural Database, then it will include bibliographic, chemical, 
# crystal, experimental, refinement or atomic coordinate data resulting 
# from the CCDC's data processing and validation procedures.
#
#######################################################################

data_PIFJEU
_chemical_formula_moiety         'C14 H16 N2 O4'
_chemical_name_systematic        
'Ethyl 2-(4-(5-methyl-1,3,4-oxadiazol-2-yl)phenoxy)propanoate'
_symmetry_cell_setting           monoclinic
_symmetry_space_group_name_H-M   'P 21/c'
_symmetry_Int_Tables_number      14
_space_group_name_Hall           '-P 2ybc'
loop_
_symmetry_equiv_pos_site_id
_symmetry_equiv_pos_as_xyz
1 x,y,z
2 -x,1/2+y,1/2-z
3 -x,-y,-z
4 x,1/2-y,1/2+z
_cell_length_a                   15.7947(15)
_cell_length_b                   7.8792(5)
_cell_length_c                   10.8786(12)
_cell_angle_alpha                90
_cell_angle_beta                 91.190(9)
_cell_angle_gamma                90
_cell_volume                     1353.55
_exptl_crystal_colour            colorless
_exptl_crystal_description       prism
_chemical_melting_point          '352 K'
_cell_formula_units_Z            4
_exptl_crystal_recrystallization_method 'ethyl acetate/petroleum ether'
loop_
_atom_site_label
_atom_site_type_symbol
_atom_site_fract_x
_atom_site_fract_y
_atom_site_fract_z
O1 O 0.41602(7) 0.58798(14) 0.23101(10)
O2 O 0.77137(7) 0.62012(14) -0.04248(10)
O3 O 0.87322(8) 0.71131(15) 0.15754(11)
O4 O 0.90040(7) 0.43446(14) 0.19355(10)
N1 N 0.38260(9) 0.78071(19) 0.09044(13)
N2 N 0.30974(9) 0.74429(19) 0.15997(13)
C1 C 0.44251(10) 0.6862(2) 0.13514(14)
C2 C 0.33238(10) 0.6316(2) 0.23984(15)
C3 C 0.28137(11) 0.5489(2) 0.33429(16)
H1 H 0.3095 0.5619 0.4149
H2 H 0.2753 0.4280 0.3150
H3 H 0.2252 0.6018 0.3359
C4 C 0.52943(10) 0.6709(2) 0.09470(14)
C5 C 0.55561(11) 0.7610(2) -0.00833(15)
H4 H 0.5173 0.8355 -0.0497
C6 C 0.63673(11) 0.7423(2) -0.05021(15)
H5 H 0.6541 0.8040 -0.1203
C7 C 0.69356(10) 0.6328(2) 0.00992(14)
C8 C 0.66890(10) 0.5461(2) 0.11445(15)
H6 H 0.7079 0.4746 0.1573
C9 C 0.58680(10) 0.5646(2) 0.15578(15)
H7 H 0.5696 0.5041 0.2265
C10 C 0.82978(10) 0.4994(2) 0.00736(15)
H8 H 0.8006 0.3886 0.0212
C11 C 0.89808(11) 0.4781(2) -0.08708(16)
H9 H 0.8729 0.4329 -0.1634
H10 H 0.9413 0.3991 -0.0555
H11 H 0.9242 0.5884 -0.1034
C12 C 0.86873(10) 0.5645(2) 0.12807(15)
C13 C 0.94262(11) 0.4775(2) 0.31044(15)
H12 H 0.9739 0.5855 0.3016
H13 H 0.9840 0.3876 0.3328
C14 C 0.87892(11) 0.4950(2) 0.41083(16)
H14 H 0.9087 0.5080 0.4902
H15 H 0.8432 0.3933 0.4126
H16 H 0.8435 0.5950 0.3949
loop_
_geom_bond_atom_site_label_1
_geom_bond_atom_site_label_2
_geom_bond_site_symmetry_1
_geom_bond_site_symmetry_2
O1 C1 1_555 1_555
O2 C7 1_555 1_555
O3 C12 1_555 1_555
O4 C12 1_555 1_555
N1 N2 1_555 1_555
N2 C2 1_555 1_555
C1 N1 1_555 1_555
C2 O1 1_555 1_555
C3 C2 1_555 1_555
H1 C3 1_555 1_555
H2 C3 1_555 1_555
H3 C3 1_555 1_555
C4 C1 1_555 1_555
C5 C4 1_555 1_555
H4 C5 1_555 1_555
C6 C5 1_555 1_555
H5 C6 1_555 1_555
C7 C6 1_555 1_555
C8 C7 1_555 1_555
H6 C8 1_555 1_555
C9 C4 1_555 1_555
H7 C9 1_555 1_555
C10 O2 1_555 1_555
H8 C10 1_555 1_555
C11 C10 1_555 1_555
H9 C11 1_555 1_555
H10 C11 1_555 1_555
H11 C11 1_555 1_555
C12 C10 1_555 1_555
C13 O4 1_555 1_555
H12 C13 1_555 1_555
H13 C13 1_555 1_555
C14 C13 1_555 1_555
H14 C14 1_555 1_555
H15 C14 1_555 1_555
H16 C14 1_555 1_555
C8 C9 1_555 1_555

#END
