
#######################################################################
#
#                 Cambridge Crystallographic Data Centre
#                                CCDC 
#
#######################################################################
#
# If this CIF has been generated from an entry in the Cambridge 
# Structural Database, then it will include bibliographic, chemical, 
# crystal, experimental, refinement or atomic coordinate data resulting 
# from the CCDC's data processing and validation procedures.
#
#######################################################################

data_PIFKEX
_chemical_formula_moiety         'C144 H144 N16,7.5(C2 H3 N1),6.5(C1 H2 Cl2)'
_chemical_name_systematic        
'6,16,26,36(1,3,5)-tetrakis(2,4,6-triethylbenzena)-2,10,12,20,22,30,32,40,41,48,49,53(1,4)-dodecabenzena-1,4,8,11,14,18,21,24,28,31,34,38,43,46,51,55-hexadecaazapentacyclo[24.14.4.4^6,21^.4^11,36^.4^16,31^]hexapentacontaphane-3,8,13,18,23,28,33,38,42,46,50,54-dodecaene acetonitrile dichloromethane solvate'
_symmetry_cell_setting           monoclinic
_symmetry_space_group_name_H-M   'P 2/c'
_symmetry_Int_Tables_number      13
_space_group_name_Hall           '-P 2yc'
loop_
_symmetry_equiv_pos_site_id
_symmetry_equiv_pos_as_xyz
1 x,y,z
2 -x,y,1/2-z
3 -x,-y,-z
4 x,-y,1/2+z
_cell_length_a                   26.591(2)
_cell_length_b                   16.3674(14)
_cell_length_c                   39.525(4)
_cell_angle_alpha                90
_cell_angle_beta                 98.7932(18)
_cell_angle_gamma                90
_cell_volume                     17000.1
_exptl_crystal_colour            'light yellow'
_exptl_crystal_description       block
_cell_formula_units_Z            4
loop_
_atom_site_label
_atom_site_type_symbol
_atom_site_fract_x
_atom_site_fract_y
_atom_site_fract_z
N1 N 0.8310(2) 0.6401(4) 0.37537(17)
N2 N 0.7105(3) 0.9478(5) 0.3474(2)
N3 N 0.4519(3) 0.9058(6) 0.5813(2)
N4 N 0.5689(3) 1.1966(5) 0.5871(2)
N5 N 0.5787(3) 1.0189(5) 0.7174(2)
N6 N 1.0172(2) 1.0276(4) 0.69749(15)
N7 N 0.9854(2) 1.1491(4) 0.55467(14)
N8 N 1.1048(2) 0.8560(4) 0.59836(19)
N9 N 0.9093(3) 0.3078(4) 0.63780(16)
N10 N 0.6717(3) 0.3286(5) 0.6346(3)
N11 N 0.7936(3) 0.4863(4) 0.74266(16)
C1 C 1.0896(3) 1.0566(4) 0.58894(19)
C2 C 1.1094(3) 0.9992(5) 0.6141(2)
C3 C 0.4187(3) 0.9628(6) 0.6005(3)
H1 H 0.3910 0.9879 0.5842
H2 H 0.4033 0.9316 0.6178
C4 C 1.1006(3) 1.0065(5) 0.6480(2)
C5 C 1.0714(2) 1.0723(4) 0.65717(18)
C6 C 1.0504(2) 1.1302(4) 0.63263(19)
C7 C 1.0595(3) 1.1214(4) 0.59899(19)
C8 C 1.0982(3) 1.0508(5) 0.55250(19)
H3 H 1.0685 1.0738 0.5373
H4 H 1.1018 0.9927 0.5463
C9 C 1.1468(3) 1.0982(5) 0.5474(2)
H5 H 1.1509 1.0968 0.5232
H6 H 1.1765 1.0729 0.5612
H7 H 1.1439 1.1551 0.5546
C10 C 1.1403(3) 0.9269(4) 0.6044(2)
H8 H 1.1550 0.9393 0.5835
H9 H 1.1684 0.9144 0.6232
C11 C 1.1212(3) 0.9415(4) 0.6738(2)
H10 H 1.0985 0.9374 0.6914
H11 H 1.1206 0.8881 0.6620
C12 C 1.1748(3) 0.9588(5) 0.6913(2)
H12 H 1.1976 0.9627 0.6741
H13 H 1.1862 0.9144 0.7073
H14 H 1.1754 1.0104 0.7039
C13 C 1.0613(3) 1.0782(5) 0.69349(18)
H15 H 1.0915 1.0592 0.7094
H16 H 1.0546 1.1358 0.6991
C14 C 1.0189(3) 1.1995(4) 0.64280(19)
H17 H 1.0020 1.1819 0.6622
H18 H 0.9921 1.2130 0.6234
C15 C 1.0507(3) 1.2761(4) 0.6532(2)
H19 H 1.0722 1.2883 0.6358
H20 H 1.0722 1.2667 0.6753
H21 H 1.0280 1.3224 0.6553
C16 C 1.0344(3) 1.1823(4) 0.57196(18)
H22 H 1.0285 1.2349 0.5831
H23 H 1.0572 1.1925 0.5549
C17 C 0.5022(3) 1.1516(6) 0.6183(3)
C18 C 0.5211(3) 1.1404(6) 0.6525(3)
C19 C 0.5072(3) 1.0741(6) 0.6693(2)
C20 C 0.4736(3) 1.0149(6) 0.6524(2)
C21 C 0.4546(3) 1.0279(5) 0.6175(2)
C22 C 0.4685(3) 1.0946(6) 0.5999(2)
C23 C 0.5206(3) 1.2234(6) 0.5993(3)
H24 H 0.4947 1.2388 0.5796
H25 H 0.5272 1.2711 0.6147
C24 C 0.5607(3) 1.2048(6) 0.6710(3)
H26 H 0.5827 1.1774 0.6901
H27 H 0.5827 1.2242 0.6546
C25 C 0.5351(4) 1.2784(6) 0.6850(3)
H28 H 0.5180 1.3112 0.6659
H29 H 0.5608 1.3117 0.6991
H30 H 0.5100 1.2593 0.6990
C26 C 0.5278(3) 1.0629(6) 0.7071(2)
H31 H 0.5017 1.0329 0.7176
H32 H 0.5309 1.1179 0.7178
C27 C 0.4626(3) 0.9407(5) 0.6714(2)
H33 H 0.4920 0.9288 0.6893
H34 H 0.4580 0.8937 0.6555
C28 C 0.4137(4) 0.9514(7) 0.6885(3)
H35 H 0.3848 0.9648 0.6709
H36 H 0.4190 0.9957 0.7054
H37 H 0.4067 0.9005 0.6999
C29 C 0.4480(4) 1.1029(6) 0.5636(3)
H38 H 0.4391 1.0479 0.5541
H39 H 0.4750 1.1252 0.5515
C30 C 0.4026(4) 1.1561(8) 0.5564(3)
H40 H 0.3900 1.1560 0.5318
H41 H 0.4117 1.2119 0.5640
H42 H 0.3760 1.1355 0.5689
C31 C 0.7496(3) 0.2795(4) 0.67177(19)
C32 C 0.7527(3) 0.3266(4) 0.70174(19)
C33 C 0.8006(3) 0.3502(4) 0.71859(18)
C34 C 0.8449(3) 0.3292(4) 0.70493(18)
C35 C 0.8405(3) 0.2798(4) 0.67609(19)
C36 C 0.7935(3) 0.2558(4) 0.65886(18)
C37 C 0.7896(3) 0.2040(4) 0.62662(19)
H43 H 0.8197 0.2139 0.6153
H44 H 0.7590 0.2206 0.6106
C38 C 0.7861(4) 0.1130(4) 0.6345(2)
H45 H 0.7814 0.0820 0.6130
H46 H 0.7571 0.1033 0.6466
H47 H 0.8175 0.0954 0.6489
C39 C 0.6965(3) 0.2577(5) 0.6529(2)
H48 H 0.6995 0.2132 0.6364
H49 H 0.6752 0.2376 0.6696
C40 C 0.7041(3) 0.3519(5) 0.7157(2)
H50 H 0.7103 0.4044 0.7281
H51 H 0.6764 0.3607 0.6963
C41 C 0.6870(3) 0.2877(6) 0.7400(2)
H52 H 0.6828 0.2348 0.7283
H53 H 0.6545 0.3045 0.7466
H54 H 0.7127 0.2830 0.7605
C42 C 0.8038(3) 0.4010(4) 0.75120(19)
H55 H 0.7786 0.3807 0.7653
H56 H 0.8381 0.3956 0.7648
C43 C 0.8968(3) 0.3605(5) 0.72201(19)
H57 H 0.8922 0.4146 0.7323
H58 H 0.9189 0.3680 0.7042
C44 C 0.9240(3) 0.3028(5) 0.75025(19)
H59 H 0.9294 0.2493 0.7402
H60 H 0.9029 0.2963 0.7684
H61 H 0.9570 0.3263 0.7600
C45 C 0.8891(3) 0.2539(4) 0.66280(19)
H62 H 0.9162 0.2473 0.6828
H63 H 0.8830 0.1993 0.6521
C46 C 0.6634(3) 0.6725(5) 0.33302(19)
C47 C 0.7101(3) 0.6316(5) 0.33666(18)
C48 C 0.7544(3) 0.6753(5) 0.33447(17)
C49 C 0.7524(3) 0.7602(5) 0.32957(18)
C50 C 0.7061(3) 0.8007(5) 0.32509(17)
C51 C 0.6612(3) 0.7542(5) 0.32761(18)
C52 C 0.6151(3) 0.6234(5) 0.33574(19)
H64 H 0.5887 0.6430 0.3171
H65 H 0.6225 0.5661 0.3302
C53 C 0.7135(3) 0.5402(5) 0.3434(2)
H66 H 0.6867 0.5243 0.3570
H67 H 0.7469 0.5278 0.3573
C54 C 0.7075(4) 0.4887(5) 0.3103(2)
H68 H 0.6734 0.4969 0.2974
H69 H 0.7123 0.4308 0.3162
H70 H 0.7331 0.5057 0.2963
C55 C 0.8057(3) 0.6323(5) 0.33964(19)
H71 H 0.8008 0.5738 0.3338
H72 H 0.8276 0.6565 0.3241
C56 C 0.8010(3) 0.8102(4) 0.32751(18)
H73 H 0.7963 0.8665 0.3356
H74 H 0.8299 0.7855 0.3429
C57 C 0.8137(3) 0.8132(5) 0.29126(19)
H75 H 0.7885 0.8471 0.2769
H76 H 0.8130 0.7578 0.2818
H77 H 0.8477 0.8367 0.2917
C58 C 0.7035(3) 0.8923(5) 0.3171(2)
H78 H 0.7299 0.9053 0.3028
H79 H 0.6700 0.9041 0.3033
C59 C 0.6100(3) 0.8011(5) 0.3231(2)
H80 H 0.5868 0.7745 0.3371
H81 H 0.6161 0.8577 0.3315
C60 C 0.5848(3) 0.8031(5) 0.2860(2)
H82 H 0.6049 0.8375 0.2728
H83 H 0.5504 0.8256 0.2846
H84 H 0.5829 0.7476 0.2767
C61 C 0.8232(3) 0.5372(5) 0.7562(2)
H85 H 0.8519 0.5196 0.7718
C62 C 0.8163(3) 0.6266(5) 0.7493(2)
C63 C 0.8518(3) 0.6830(5) 0.7655(2)
H86 H 0.8793 0.6649 0.7820
C64 C 0.8467(3) 0.7642(5) 0.7575(2)
H87 H 0.8702 0.8024 0.7690
C65 C 0.8081(3) 0.7913(5) 0.7331(2)
C66 C 0.7708(3) 0.7373(5) 0.7181(2)
H88 H 0.7424 0.7562 0.7025
C67 C 0.7760(3) 0.6548(5) 0.7265(2)
H89 H 0.7511 0.6171 0.7161
N12 N 0.8032(2) 0.8753(4) 0.72388(16)
C68 C 0.8468(3) 0.9210(5) 0.71861(19)
C69 C 0.8473(3) 1.0056(5) 0.72187(19)
H90 H 0.8179 1.0331 0.7270
C70 C 0.8907(3) 1.0509(5) 0.71772(19)
H91 H 0.8906 1.1088 0.7196
C71 C 0.9332(3) 1.0111(5) 0.7110(2)
C72 C 0.9327(3) 0.9288(5) 0.7076(3)
H92 H 0.9619 0.9014 0.7020
C73 C 0.8897(3) 0.8839(5) 0.7120(3)
H93 H 0.8905 0.8260 0.7105
C74 C 0.9803(3) 1.0607(5) 0.7073(2)
H94 H 0.9814 1.1174 0.7126
C75 C 0.7542(3) 0.9116(5) 0.7179(2)
C76 C 0.7374(3) 0.9500(6) 0.6866(3)
H95 H 0.7594 0.9541 0.6698
C77 C 0.6891(3) 0.9819(6) 0.6801(3)
H96 H 0.6776 1.0074 0.6587
C78 C 0.6570(3) 0.9769(6) 0.7046(3)
C79 C 0.6731(3) 0.9396(5) 0.7348(2)
H97 H 0.6513 0.9382 0.7517
C80 C 0.7217(3) 0.9025(5) 0.7417(2)
H98 H 0.7317 0.8724 0.7622
C81 C 0.6056(4) 1.0141(6) 0.6964(3)
H99 H 0.5943 1.0343 0.6739
C82 C 0.6575(5) 0.3322(8) 0.6078(4)
H100 H 0.6623 0.2846 0.5949
C83 C 0.6306(3) 0.4027(4) 0.58745(19)
C84 C 0.6243(3) 0.3973(4) 0.55196(19)
H101 H 0.6357 0.3501 0.5413
C85 C 0.6013(3) 0.4608(5) 0.53200(13)
H102 H 0.5969 0.4571 0.5077
C86 C 0.5846(3) 0.5298(4) 0.54754(16)
C87 C 0.5910(3) 0.5353(4) 0.58303(17)
H103 H 0.5796 0.5824 0.5937
C88 C 0.6140(3) 0.4717(5) 0.60299(13)
H104 H 0.6183 0.4754 0.6272
C89 C 0.4747(2) 0.7742(4) 0.56684(17)
C90 C 0.4686(3) 0.6927(5) 0.57527(17)
H105 H 0.4455 0.6782 0.5904
C91 C 0.4964(3) 0.6324(3) 0.56161(19)
H106 H 0.4923 0.5767 0.5674
C92 C 0.5303(3) 0.6537(4) 0.53952(18)
C93 C 0.5363(3) 0.7352(4) 0.53110(17)
H107 H 0.5594 0.7497 0.5160
C94 C 0.5085(3) 0.7954(3) 0.54476(18)
H108 H 0.5126 0.8511 0.5390
C95 C 0.4457(4) 0.8380(7) 0.5833(3)
H109 H 0.4205 0.8199 0.5961
N13 N 0.5633(3) 0.5939(5) 0.52725(16)
C96 C 0.5714(4) 1.2052(8) 0.5573(3)
H110 H 0.5429 1.2283 0.5431
C97 C 0.6169(3) 1.1814(8) 0.5409(3)
C98 C 0.6167(4) 1.1962(8) 0.5072(3)
H111 H 0.5874 1.2194 0.4939
C99 C 0.6591(4) 1.1777(8) 0.4916(3)
H112 H 0.6595 1.1904 0.4682
C100 C 0.7010(3) 1.1400(7) 0.5112(2)
C101 C 0.7013(3) 1.1256(7) 0.5453(2)
H113 H 0.7302 1.1016 0.5588
C102 C 0.6587(3) 1.1465(7) 0.5602(2)
H114 H 0.6587 1.1365 0.5838
N14 N 0.7444(3) 1.1216(5) 0.49555(18)
C103 C 0.7938(3) 1.1370(6) 0.5113(2)
C104 C 0.8049(3) 1.2032(6) 0.5336(2)
H115 H 0.7784 1.2378 0.5386
C105 C 0.8541(3) 1.2181(5) 0.5480(2)
H116 H 0.8609 1.2629 0.5633
C106 C 0.8948(3) 1.1699(5) 0.54128(18)
C107 C 0.8835(3) 1.1046(5) 0.52002(19)
H117 H 0.9101 1.0694 0.5155
C108 C 0.8338(3) 1.0887(5) 0.5048(2)
H118 H 0.8272 1.0437 0.4895
C109 C 0.9466(3) 1.1911(5) 0.55718(18)
H119 H 0.9511 1.2399 0.5703
C110 C 0.7190(2) 0.9770(5) 0.40597(15)
C111 C 0.7313(2) 1.0591(5) 0.40342(14)
H120 H 0.7342 1.0820 0.3817
C112 C 0.7396(2) 1.1075(4) 0.4326(2)
H121 H 0.7481 1.1636 0.4309
C113 C 0.7355(2) 1.0739(5) 0.46439(15)
C114 C 0.7231(2) 0.9919(5) 0.46694(14)
H122 H 0.7203 0.9689 0.4886
C115 C 0.7148(2) 0.9434(4) 0.4377(2)
H123 H 0.7064 0.8873 0.4395
C116 C 0.7115(4) 0.9215(7) 0.3750(3)
H124 H 0.7077 0.8644 0.3780
C117 C 0.8464(3) 0.5756(5) 0.3915(2)
H125 H 0.8405 0.5242 0.3805
C118 C 0.8728(3) 0.5786(5) 0.4264(2)
C119 C 0.8872(3) 0.5069(5) 0.4439(2)
H126 H 0.8801 0.4559 0.4327
C120 C 0.9120(3) 0.5086(5) 0.4780(2)
H127 H 0.9201 0.4590 0.4901
C121 C 0.9245(3) 0.5817(5) 0.4936(2)
C122 C 0.9100(3) 0.6529(5) 0.4770(2)
H128 H 0.9170 0.7035 0.4886
C123 C 0.8849(3) 0.6520(5) 0.4431(2)
H129 H 0.8762 0.7021 0.4316
N15 N 0.9512(2) 0.5818(4) 0.52757(17)
C124 C 1.1033(3) 0.8197(5) 0.5705(2)
H130 H 1.1262 0.8353 0.5554
C125 C 1.0663(3) 0.7519(5) 0.5603(2)
C126 C 1.0571(3) 0.7269(5) 0.5276(2)
H131 H 1.0769 0.7486 0.5116
C127 C 1.0191(3) 0.6700(5) 0.5164(2)
H132 H 1.0132 0.6541 0.4931
C128 C 0.9905(3) 0.6369(5) 0.5387(2)
C129 C 1.0011(3) 0.6606(5) 0.5730(2)
H133 H 0.9819 0.6380 0.5891
C130 C 1.0388(3) 0.7161(5) 0.5837(2)
H134 H 1.0462 0.7303 0.6072
C131 C 0.8849(4) 0.3641(5) 0.6252(2)
H135 H 0.8527 0.3745 0.6318
C132 C 0.9031(2) 0.4191(3) 0.59944(12)
C133 C 0.95391(19) 0.4189(3) 0.59477(12)
H136 H 0.9773 0.3827 0.6077
C134 C 0.97040(16) 0.4715(3) 0.57112(13)
H137 H 1.0051 0.4713 0.5679
C135 C 0.9361(2) 0.5243(3) 0.55215(12)
C136 C 0.88538(19) 0.5246(3) 0.55682(13)
H138 H 0.8620 0.5607 0.5439
C137 C 0.86888(16) 0.4720(3) 0.58047(14)
H139 H 0.8342 0.4722 0.5837
N16 N 0.5906(5) 0.6208(13) 0.3678(3)
C138 C 0.6210(6) 0.6357(12) 0.3948(3)
H140 H 0.6544 0.6538 0.3928
C139 C 0.6081(5) 0.6267(10) 0.4282(2)
C140 C 0.6453(4) 0.6346(10) 0.4568(3)
H141 H 0.6795 0.6459 0.4541
C141 C 0.6325(5) 0.6261(11) 0.4894(2)
H142 H 0.6579 0.6315 0.5090
C142 C 0.5824(5) 0.6097(12) 0.4934(2)
C143 C 0.5452(4) 0.6018(10) 0.4648(3)
H143 H 0.5110 0.5905 0.4675
C144 C 0.5581(5) 0.6103(9) 0.4322(2)
H144 H 0.5327 0.6049 0.4126
C152 C 0.5677(5) 0.9911(8) 0.5668(2)
H152 H 0.5675 1.0460 0.5772
H153 H 0.5305 0.9833 0.5653
Cl1 Cl 0.6234(3) 0.9392(5) 0.5855(2)
Cl2 Cl 0.5613(4) 1.0024(6) 0.5220(2)
Cl5 Cl 1.01852(19) 0.5087(3) 0.70988(13)
Cl6 Cl 1.06962(17) 0.5191(3) 0.65239(11)
C153 C 1.0140(4) 0.5419(7) 0.6676(3)
H156 H 0.9850 0.5146 0.6533
H157 H 1.0080 0.6016 0.6664
N18 N 0.9124(4) 0.8362(7) 0.5367(3)
C154 C 0.9487(4) 0.8766(6) 0.5363(3)
C155 C 0.9903(4) 0.9279(6) 0.5372(2)
H158 H 1.0011 0.9289 0.5146
H159 H 1.0182 0.9079 0.5542
H160 H 0.9808 0.9832 0.5434
N19 N 0.7444(6) 0.4990(10) 0.6522(4)
C156 C 0.7554(9) 0.5377(13) 0.6295(5)
C157 C 0.7592(9) 0.5911(13) 0.6011(6)
H161 H 0.7530 0.5598 0.5797
H162 H 0.7933 0.6151 0.6037
H163 H 0.7338 0.6347 0.6004
N20 N 1.0339(3) 0.7492(6) 0.6850(2)
C158 C 1.0206(5) 0.7968(8) 0.6633(3)
C159 C 0.9982(6) 0.8644(9) 0.6386(4)
H164 H 1.0174 0.8675 0.6194
H165 H 1.0005 0.9169 0.6507
H166 H 0.9625 0.8521 0.6301
H145? H 0.6156 0.5697 0.3243
H146? H 0.5842 0.6536 0.3257
N17? N 0.6178(5) 0.6135(12) 0.3750(3)
C145? C 0.5772(5) 0.6067(11) 0.3878(3)
H147? H 0.5465 0.6068 0.3719
C146? C 0.5719(5) 0.5991(10) 0.4221(2)
C147? C 0.6139(4) 0.6026(10) 0.4477(3)
H148? H 0.6471 0.6083 0.4419
C148? C 0.6075(5) 0.5976(12) 0.4819(3)
H149? H 0.6362 0.6000 0.4994
C149? C 0.5589(6) 0.5893(13) 0.4904(2)
C150? C 0.5169(4) 0.5858(12) 0.4648(3)
H150? H 0.4837 0.5801 0.4707
C151? C 0.5234(4) 0.5907(9) 0.4307(2)
H151? H 0.4946 0.5884 0.4131
H154? H 0.5377 0.9611 0.5723
H155? H 0.5748 1.0500 0.5708
Cl3? Cl 0.5973(7) 0.9379(9) 0.6018(4)
Cl4? Cl 0.5849(5) 0.9651(8) 0.5268(3)
loop_
_geom_bond_atom_site_label_1
_geom_bond_atom_site_label_2
_geom_bond_site_symmetry_1
_geom_bond_site_symmetry_2
N1 C55 1_555 1_555
N2 C58 1_555 1_555
N3 C3 1_555 1_555
N4 C23 1_555 1_555
N5 C26 1_555 1_555
N6 C13 1_555 1_555
N7 C16 1_555 1_555
N8 C10 1_555 1_555
N9 C45 1_555 1_555
N10 C39 1_555 1_555
N11 C42 1_555 1_555
C1 C2 1_555 1_555
C2 C4 1_555 1_555
C3 H1 1_555 1_555
H2 C3 1_555 1_555
C4 C5 1_555 1_555
C5 C6 1_555 1_555
C6 C7 1_555 1_555
C7 C1 1_555 1_555
C8 C1 1_555 1_555
H3 C8 1_555 1_555
H4 C8 1_555 1_555
C9 C8 1_555 1_555
H5 C9 1_555 1_555
H6 C9 1_555 1_555
H7 C9 1_555 1_555
C10 C2 1_555 1_555
H8 C10 1_555 1_555
H9 C10 1_555 1_555
C11 C4 1_555 1_555
H10 C11 1_555 1_555
H11 C11 1_555 1_555
C12 C11 1_555 1_555
H12 C12 1_555 1_555
H13 C12 1_555 1_555
H14 C12 1_555 1_555
C13 C5 1_555 1_555
H15 C13 1_555 1_555
H16 C13 1_555 1_555
C14 C6 1_555 1_555
H17 C14 1_555 1_555
H18 C14 1_555 1_555
C15 C14 1_555 1_555
H19 C15 1_555 1_555
H20 C15 1_555 1_555
H21 C15 1_555 1_555
C16 C7 1_555 1_555
H22 C16 1_555 1_555
H23 C16 1_555 1_555
C17 C18 1_555 1_555
C18 C19 1_555 1_555
C19 C20 1_555 1_555
C20 C21 1_555 1_555
C21 C3 1_555 1_555
C22 C17 1_555 1_555
C23 C17 1_555 1_555
H24 C23 1_555 1_555
H25 C23 1_555 1_555
C24 C18 1_555 1_555
H26 C24 1_555 1_555
H27 C24 1_555 1_555
C25 C24 1_555 1_555
H28 C25 1_555 1_555
H29 C25 1_555 1_555
H30 C25 1_555 1_555
C26 C19 1_555 1_555
H31 C26 1_555 1_555
H32 C26 1_555 1_555
C27 C20 1_555 1_555
H33 C27 1_555 1_555
H34 C27 1_555 1_555
C28 C27 1_555 1_555
H35 C28 1_555 1_555
H36 C28 1_555 1_555
H37 C28 1_555 1_555
C29 C22 1_555 1_555
H38 C29 1_555 1_555
H39 C29 1_555 1_555
C30 C29 1_555 1_555
H40 C30 1_555 1_555
H41 C30 1_555 1_555
H42 C30 1_555 1_555
C31 C32 1_555 1_555
C32 C33 1_555 1_555
C33 C34 1_555 1_555
C34 C35 1_555 1_555
C35 C36 1_555 1_555
C36 C31 1_555 1_555
C37 C36 1_555 1_555
H43 C37 1_555 1_555
H44 C37 1_555 1_555
C38 C37 1_555 1_555
H45 C38 1_555 1_555
H46 C38 1_555 1_555
H47 C38 1_555 1_555
C39 C31 1_555 1_555
H48 C39 1_555 1_555
H49 C39 1_555 1_555
C40 C32 1_555 1_555
H50 C40 1_555 1_555
H51 C40 1_555 1_555
C41 C40 1_555 1_555
H52 C41 1_555 1_555
H53 C41 1_555 1_555
H54 C41 1_555 1_555
C42 C33 1_555 1_555
H55 C42 1_555 1_555
H56 C42 1_555 1_555
C43 C34 1_555 1_555
H57 C43 1_555 1_555
H58 C43 1_555 1_555
C44 C43 1_555 1_555
H59 C44 1_555 1_555
H60 C44 1_555 1_555
H61 C44 1_555 1_555
C45 C35 1_555 1_555
H62 C45 1_555 1_555
H63 C45 1_555 1_555
C46 C47 1_555 1_555
C47 C48 1_555 1_555
C48 C49 1_555 1_555
C49 C50 1_555 1_555
C50 C51 1_555 1_555
C51 C46 1_555 1_555
C52 C46 1_555 1_555
H64 C52 1_555 1_555
H65 C52 1_555 1_555
C53 C47 1_555 1_555
H66 C53 1_555 1_555
H67 C53 1_555 1_555
C54 C53 1_555 1_555
H68 C54 1_555 1_555
H69 C54 1_555 1_555
H70 C54 1_555 1_555
C55 C48 1_555 1_555
H71 C55 1_555 1_555
H72 C55 1_555 1_555
C56 C49 1_555 1_555
H73 C56 1_555 1_555
H74 C56 1_555 1_555
C57 C56 1_555 1_555
H75 C57 1_555 1_555
H76 C57 1_555 1_555
H77 C57 1_555 1_555
C58 C50 1_555 1_555
H78 C58 1_555 1_555
H79 C58 1_555 1_555
C59 C51 1_555 1_555
H80 C59 1_555 1_555
H81 C59 1_555 1_555
C60 C59 1_555 1_555
H82 C60 1_555 1_555
H83 C60 1_555 1_555
H84 C60 1_555 1_555
C61 N11 1_555 1_555
H85 C61 1_555 1_555
C62 C61 1_555 1_555
C63 C62 1_555 1_555
H86 C63 1_555 1_555
C64 C63 1_555 1_555
H87 C64 1_555 1_555
C65 C64 1_555 1_555
C66 C65 1_555 1_555
H88 C66 1_555 1_555
C67 C62 1_555 1_555
H89 C67 1_555 1_555
N12 C65 1_555 1_555
C68 N12 1_555 1_555
C69 C68 1_555 1_555
H90 C69 1_555 1_555
C70 C69 1_555 1_555
H91 C70 1_555 1_555
C71 C70 1_555 1_555
C72 C71 1_555 1_555
H92 C72 1_555 1_555
C73 C68 1_555 1_555
H93 C73 1_555 1_555
C74 N6 1_555 1_555
H94 C74 1_555 1_555
C75 N12 1_555 1_555
C76 C75 1_555 1_555
H95 C76 1_555 1_555
C77 C76 1_555 1_555
H96 C77 1_555 1_555
C78 C77 1_555 1_555
C79 C78 1_555 1_555
H97 C79 1_555 1_555
C80 C75 1_555 1_555
H98 C80 1_555 1_555
C81 N5 1_555 1_555
H99 C81 1_555 1_555
C82 N10 1_555 1_555
H100 C82 1_555 1_555
C83 C82 1_555 1_555
C84 C83 1_555 1_555
H101 C84 1_555 1_555
C85 C84 1_555 1_555
H102 C85 1_555 1_555
C86 C85 1_555 1_555
C87 C86 1_555 1_555
H103 C87 1_555 1_555
C88 C83 1_555 1_555
H104 C88 1_555 1_555
C89 C90 1_555 1_555
C90 H105 1_555 1_555
C91 C90 1_555 1_555
H106 C91 1_555 1_555
C92 C91 1_555 1_555
C93 C92 1_555 1_555
H107 C93 1_555 1_555
C94 C89 1_555 1_555
H108 C94 1_555 1_555
C95 N3 1_555 1_555
H109 C95 1_555 1_555
N13 C86 1_555 1_555
C96 N4 1_555 1_555
H110 C96 1_555 1_555
C97 C96 1_555 1_555
C98 C97 1_555 1_555
H111 C98 1_555 1_555
C99 C98 1_555 1_555
H112 C99 1_555 1_555
C100 C99 1_555 1_555
C101 C100 1_555 1_555
H113 C101 1_555 1_555
C102 C97 1_555 1_555
H114 C102 1_555 1_555
N14 C100 1_555 1_555
C103 N14 1_555 1_555
C104 C103 1_555 1_555
H115 C104 1_555 1_555
C105 C104 1_555 1_555
H116 C105 1_555 1_555
C106 C105 1_555 1_555
C107 C106 1_555 1_555
H117 C107 1_555 1_555
C108 C103 1_555 1_555
H118 C108 1_555 1_555
C109 N7 1_555 1_555
H119 C109 1_555 1_555
C110 C111 1_555 1_555
C111 H120 1_555 1_555
C112 C111 1_555 1_555
H121 C112 1_555 1_555
C113 N14 1_555 1_555
C114 C113 1_555 1_555
H122 C114 1_555 1_555
C115 C110 1_555 1_555
H123 C115 1_555 1_555
C116 N2 1_555 1_555
H124 C116 1_555 1_555
C117 N1 1_555 1_555
H125 C117 1_555 1_555
C118 C117 1_555 1_555
C119 C118 1_555 1_555
H126 C119 1_555 1_555
C120 C119 1_555 1_555
H127 C120 1_555 1_555
C121 C120 1_555 1_555
C122 C121 1_555 1_555
H128 C122 1_555 1_555
C123 C118 1_555 1_555
H129 C123 1_555 1_555
N15 C121 1_555 1_555
C124 N8 1_555 1_555
H130 C124 1_555 1_555
C125 C124 1_555 1_555
C126 C125 1_555 1_555
H131 C126 1_555 1_555
C127 C126 1_555 1_555
H132 C127 1_555 1_555
C128 N15 1_555 1_555
C129 C128 1_555 1_555
H133 C129 1_555 1_555
C130 C125 1_555 1_555
H134 C130 1_555 1_555
C131 N9 1_555 1_555
H135 C131 1_555 1_555
C132 C131 1_555 1_555
C133 C132 1_555 1_555
H136 C133 1_555 1_555
C134 C133 1_555 1_555
H137 C134 1_555 1_555
C135 N15 1_555 1_555
C136 C135 1_555 1_555
H138 C136 1_555 1_555
C137 C132 1_555 1_555
H139 C137 1_555 1_555
N16 C52 1_555 1_555
C138 N16 1_555 1_555
H140 C138 1_555 1_555
C139 C138 1_555 1_555
C140 C139 1_555 1_555
H141 C140 1_555 1_555
C141 C140 1_555 1_555
H142 C141 1_555 1_555
C142 N13 1_555 1_555
C143 C142 1_555 1_555
H143 C143 1_555 1_555
C144 C139 1_555 1_555
H144 C144 1_555 1_555
C152 H152 1_555 1_555
H153 C152 1_555 1_555
Cl1 C152 1_555 1_555
Cl2 C152 1_555 1_555
Cl5 C153 1_555 1_555
Cl6 C153 1_555 1_555
C153 H156 1_555 1_555
H157 C153 1_555 1_555
N18 C154 1_555 1_555
C154 C155 1_555 1_555
C155 H158 1_555 1_555
H159 C155 1_555 1_555
H160 C155 1_555 1_555
N19 C156 1_555 1_555
C156 C157 1_555 1_555
C157 H161 1_555 1_555
H162 C157 1_555 1_555
H163 C157 1_555 1_555
N20 C158 1_555 1_555
C158 C159 1_555 1_555
C159 H164 1_555 1_555
H165 C159 1_555 1_555
H166 C159 1_555 1_555
C21 C22 1_555 1_555
C66 C67 1_555 1_555
C71 C74 1_555 1_555
C72 C73 1_555 1_555
C78 C81 1_555 1_555
C79 C80 1_555 1_555
C87 C88 1_555 1_555
C89 C95 1_555 1_555
C92 N13 1_555 1_555
C93 C94 1_555 1_555
C101 C102 1_555 1_555
C106 C109 1_555 1_555
C107 C108 1_555 1_555
C110 C116 1_555 1_555
C112 C113 1_555 1_555
C114 C115 1_555 1_555
C122 C123 1_555 1_555
C127 C128 1_555 1_555
C129 C130 1_555 1_555
C134 C135 1_555 1_555
C136 C137 1_555 1_555
C141 C142 1_555 1_555
C143 C144 1_555 1_555

#END
