
#######################################################################
#
#                 Cambridge Crystallographic Data Centre
#                                CCDC 
#
#######################################################################
#
# If this CIF has been generated from an entry in the Cambridge 
# Structural Database, then it will include bibliographic, chemical, 
# crystal, experimental, refinement or atomic coordinate data resulting 
# from the CCDC's data processing and validation procedures.
#
#######################################################################

data_PIFMAV02
_chemical_formula_moiety         'C25 H23 B1 F2 N2'
_chemical_name_systematic        
{2-[(3,5-dimethyl-2H-pyrrol-2-ylidene)(phenyl)methyl]-3,5-dimethyl-4-phenyl-1H-pyrrolato}(difluoro)boron
_symmetry_cell_setting           monoclinic
_symmetry_space_group_name_H-M   'P 21/c'
_symmetry_Int_Tables_number      14
_space_group_name_Hall           '-P 2ybc'
loop_
_symmetry_equiv_pos_site_id
_symmetry_equiv_pos_as_xyz
1 x,y,z
2 -x,1/2+y,1/2-z
3 -x,-y,-z
4 x,1/2-y,1/2+z
_cell_length_a                   6.9985(4)
_cell_length_b                   15.4964(9)
_cell_length_c                   19.6100(12)
_cell_angle_alpha                90
_cell_angle_beta                 105.918(3)
_cell_angle_gamma                90
_cell_volume                     2045.19
_exptl_crystal_colour            red
_exptl_crystal_description       block
_cell_formula_units_Z            4
loop_
_atom_site_label
_atom_site_type_symbol
_atom_site_fract_x
_atom_site_fract_y
_atom_site_fract_z
F1 F 0.1800(2) 0.25834(10) 0.90543(9)
F2 F 0.3696(2) 0.13726(11) 0.92550(8)
N1 N 0.2838(3) 0.19920(13) 0.80780(10)
N2 N 0.0292(3) 0.12622(12) 0.85431(10)
C1 C 0.2932(3) 0.19735(15) 0.69217(12)
C2 C 0.1918(4) 0.16443(15) 0.74057(12)
C3 C -0.0762(3) 0.08059(15) 0.65787(13)
C4 C 0.5829(4) 0.30311(15) 0.70308(13)
C5 C -0.0606(4) 0.09522(15) 0.78599(12)
C6 C -0.2543(4) 0.06076(17) 0.85592(14)
H1 H -0.3597 0.0393 0.8730
C7 C 0.4334(4) 0.25099(15) 0.80181(13)
C8 C 0.2546(4) 0.17593(17) 0.61465(12)
H2 H 0.1398 0.2089 0.5872
H3 H 0.2272 0.1141 0.6075
H4 H 0.3717 0.1908 0.5988
C9 C -0.2412(4) 0.05318(16) 0.78738(14)
C10 C 0.0232(4) 0.11268(15) 0.73051(12)
C11 C 0.4423(3) 0.25199(15) 0.73102(13)
C12 C 0.9144(4) 0.35280(17) 0.70971(16)
H5 H 1.0520 0.3540 0.7339
C13 C -0.2042(4) 0.13416(17) 0.60952(13)
H6 H -0.2301 0.1908 0.6233
C14 C -0.0409(4) -0.00182(16) 0.63681(14)
H7 H 0.0454 -0.0394 0.6695
C15 C 0.7847(4) 0.30601(15) 0.73757(14)
H8 H 0.8344 0.2755 0.7808
C16 C -0.3912(4) 0.00882(17) 0.72852(14)
H9 H -0.5035 -0.0102 0.7456
H10 H -0.3297 -0.0413 0.7126
H11 H -0.4386 0.0490 0.6889
C17 C 0.5150(4) 0.34952(16) 0.64003(14)
H12 H 0.3774 0.3493 0.6158
C18 C -0.2941(4) 0.1059(2) 0.54153(14)
H13 H -0.3828 0.1426 0.5088
C19 C -0.0880(4) 0.10487(17) 0.89624(14)
C20 C 0.5584(4) 0.29929(18) 0.86435(13)
H14 H 0.4721 0.3291 0.8886
H15 H 0.6403 0.3417 0.8482
H16 H 0.6445 0.2587 0.8972
C21 C 0.8450(4) 0.39748(18) 0.64719(16)
H17 H 0.9344 0.4293 0.6282
C22 C -0.1302(5) -0.02976(19) 0.56858(16)
H18 H -0.1052 -0.0864 0.5545
C23 C 0.6458(4) 0.39590(18) 0.61228(15)
H19 H 0.5976 0.4266 0.5691
C24 C -0.0376(5) 0.1273(2) 0.97334(15)
H20 H 0.0721 0.0908 0.9998
H21 H -0.1540 0.1179 0.9910
H22 H 0.0022 0.1881 0.9798
C25 C -0.2546(4) 0.0241(2) 0.52126(16)
H23 H -0.3141 0.0050 0.4742
B1 B 0.2199(5) 0.1810(2) 0.87616(16)
loop_
_geom_bond_atom_site_label_1
_geom_bond_atom_site_label_2
_geom_bond_site_symmetry_1
_geom_bond_site_symmetry_2
F1 B1 1_555 1_555
F2 B1 1_555 1_555
N1 C2 1_555 1_555
N2 C5 1_555 1_555
C1 C2 1_555 1_555
C2 C10 1_555 1_555
C3 C10 1_555 1_555
C4 C11 1_555 1_555
C5 C9 1_555 1_555
C6 H1 1_555 1_555
C7 N1 1_555 1_555
C8 C1 1_555 1_555
H2 C8 1_555 1_555
H3 C8 1_555 1_555
H4 C8 1_555 1_555
C9 C6 1_555 1_555
C10 C5 1_555 1_555
C11 C1 1_555 1_555
C12 H5 1_555 1_555
C13 C3 1_555 1_555
H6 C13 1_555 1_555
C14 C3 1_555 1_555
H7 C14 1_555 1_555
C15 C4 1_555 1_555
H8 C15 1_555 1_555
C16 C9 1_555 1_555
H9 C16 1_555 1_555
H10 C16 1_555 1_555
H11 C16 1_555 1_555
C17 C4 1_555 1_555
H12 C17 1_555 1_555
C18 C13 1_555 1_555
H13 C18 1_555 1_555
C19 N2 1_555 1_555
C20 C7 1_555 1_555
H14 C20 1_555 1_555
H15 C20 1_555 1_555
H16 C20 1_555 1_555
C21 C12 1_555 1_555
H17 C21 1_555 1_555
C22 C14 1_555 1_555
H18 C22 1_555 1_555
C23 C17 1_555 1_555
H19 C23 1_555 1_555
C24 C19 1_555 1_555
H20 C24 1_555 1_555
H21 C24 1_555 1_555
H22 C24 1_555 1_555
C25 C18 1_555 1_555
H23 C25 1_555 1_555
B1 N1 1_555 1_555
N2 B1 1_555 1_555
C6 C19 1_555 1_555
C7 C11 1_555 1_555
C12 C15 1_555 1_555
C21 C23 1_555 1_555
C22 C25 1_555 1_555

#END
