
#######################################################################
#
#                 Cambridge Crystallographic Data Centre
#                                CCDC 
#
#######################################################################
#
# If this CIF has been generated from an entry in the Cambridge 
# Structural Database, then it will include bibliographic, chemical, 
# crystal, experimental, refinement or atomic coordinate data resulting 
# from the CCDC's data processing and validation procedures.
#
#######################################################################

data_PIFPEC
_chemical_formula_moiety         'C40 H26 N14'
_chemical_name_systematic        
10,11-dicyano-N'^2^,N'^7^-diphenyl-3,6-bis(phenylamino)dipyrazino[2,3-f:2',3'-h]quinoxaline-2,7-dicarboximidamide
_symmetry_cell_setting           monoclinic
_symmetry_space_group_name_H-M   'P 21/c'
_symmetry_Int_Tables_number      14
_space_group_name_Hall           '-P 2ybc'
loop_
_symmetry_equiv_pos_site_id
_symmetry_equiv_pos_as_xyz
1 x,y,z
2 -x,1/2+y,1/2-z
3 -x,-y,-z
4 x,1/2-y,1/2+z
_cell_length_a                   5.18660(10)
_cell_length_b                   29.0119(8)
_cell_length_c                   22.1398(6)
_cell_angle_alpha                90
_cell_angle_beta                 96.367(2)
_cell_angle_gamma                90
_cell_volume                     3310.9
_exptl_crystal_colour            red
_exptl_crystal_description       plate
_cell_formula_units_Z            4
loop_
_atom_site_label
_atom_site_type_symbol
_atom_site_fract_x
_atom_site_fract_y
_atom_site_fract_z
N1 N 0.1242(3) 0.24288(6) 0.74156(8)
N2 N 0.2033(3) 0.33831(6) 0.75788(8)
N3 N 0.5620(3) 0.38226(7) 0.69873(8)
N4 N 0.7709(4) 0.24152(7) 0.60208(8)
N5 N 0.4237(4) 0.19527(7) 0.66874(8)
N6 N -0.3412(4) 0.22413(7) 0.83523(10)
N7 N 0.8541(3) 0.33474(7) 0.62036(8)
N8 N 1.0562(4) 0.40447(8) 0.60135(9)
H1 H 1.062241 0.433830 0.611372
N9 N -0.2311(4) 0.36296(7) 0.85640(10)
N10 N 0.8730(4) 0.17122(7) 0.56093(9)
H2 H 0.856166 0.141179 0.564307
N11 N 0.6755(4) 0.09566(7) 0.60502(10)
C1 C -0.0042(4) 0.26736(7) 0.77876(9)
C2 C -0.1905(4) 0.24335(7) 0.81055(10)
N12 N 0.9027(5) 0.47971(8) 0.65563(10)
N13 N 0.6103(5) 0.46764(8) 0.72836(11)
H3 H 0.611818 0.496662 0.739941
H4 H 0.514702 0.447416 0.745422
C3 C -0.1124(4) 0.34156(8) 0.82644(10)
N14 N 0.3660(5) 0.10708(8) 0.67373(11)
H5 H 0.339661 0.077424 0.678711
H6 H 0.280314 0.127410 0.693242
C4 C 0.3361(4) 0.31391(8) 0.72046(9)
C5 C 0.0348(4) 0.31513(7) 0.78688(9)
C6 C 0.2966(4) 0.26589(7) 0.71196(9)
C7 C 0.5256(4) 0.33708(8) 0.68830(10)
C8 C 0.4500(4) 0.24129(8) 0.67228(10)
C9 C 1.0355(4) 0.18528(9) 0.51781(10)
C10 C 0.6721(4) 0.31334(8) 0.64899(10)
C11 C 0.6302(4) 0.26410(8) 0.63967(10)
C12 C 1.2049(4) 0.15205(9) 0.50039(11)
H7 H 1.206910 0.122214 0.518105
C13 C 0.8840(4) 0.37984(9) 0.62919(10)
C14 C 0.7396(4) 0.19603(8) 0.59770(10)
C15 C 1.0261(5) 0.22798(10) 0.49049(11)
H8 H 0.910141 0.250917 0.501950
C16 C 0.5653(5) 0.17206(8) 0.63374(10)
C17 C 1.2282(4) 0.39215(10) 0.55923(11)
C18 C 1.1878(5) 0.23714(10) 0.44602(11)
H9 H 1.178725 0.266221 0.426185
C19 C 1.3699(5) 0.16204(10) 0.45760(12)
H10 H 1.489738 0.139478 0.446976
C20 C 1.3617(5) 0.20441(10) 0.43034(11)
H11 H 1.475229 0.211284 0.400718
C21 C 0.7328(4) 0.40421(8) 0.67019(10)
C22 C 1.2679(5) 0.34825(11) 0.53859(11)
H12 H 1.169730 0.323092 0.551264
C23 C 0.7545(5) 0.45416(9) 0.68448(11)
C24 C 0.5368(5) 0.12130(9) 0.63640(12)
C25 C 1.4540(5) 0.34134(13) 0.49887(12)
H13 H 1.484810 0.311019 0.485114
C26 C 0.894(3) 0.5330(4) 0.6627(6)
C27 C 1.3710(5) 0.42871(12) 0.53932(12)
H14 H 1.344213 0.459077 0.553409
C28 C 1.5939(6) 0.37727(15) 0.47916(13)
H15 H 1.719481 0.371914 0.451828
C29 C 1.5516(6) 0.42078(15) 0.49904(13)
H16 H 1.646939 0.445852 0.485111
C30 C 0.956(4) 0.6255(6) 0.6782(5)
H17 H 0.978087 0.657957 0.682119
C31 C 0.4248(9) 0.01694(16) 0.6058(2)
H18 H 0.259148 0.031248 0.602643
C32 C 1.1362(10) 0.55304(18) 0.6658(2)
H19 H 1.284068 0.534469 0.661625
C33 C 0.4491(11) -0.03032(18) 0.6122(2)
H20 H 0.298610 -0.049122 0.610863
C34 C 1.1649(14) 0.5994(2) 0.6748(3)
H21 H 1.332805 0.612947 0.678660
C35 C 0.6767(10) 0.56022(17) 0.6673(2)
H22 H 0.508577 0.546852 0.664396
C36 C 0.8849(10) 0.02257(17) 0.6077(2)
H23 H 1.036928 0.040571 0.606030
C37 C 0.7100(13) 0.60758(18) 0.6762(3)
H24 H 0.565875 0.626959 0.680882
C38 C 0.9059(12) -0.02492(19) 0.6140(3)
H25 H 1.070529 -0.039190 0.613535
C39 C 0.652(3) 0.0434(4) 0.6041(5)
C40 C 0.700(3) -0.0507(6) 0.6207(5)
H26 H 0.719272 -0.082404 0.630963
C41? C 0.7864(9) 0.02899(16) 0.6696(2)
H27? H 0.848326 0.046822 0.704160
C42? C 0.7950(10) -0.01868(18) 0.6735(2)
H28? H 0.865126 -0.033862 0.709673
C43? C 0.6124(11) 0.02306(19) 0.5659(3)
H29? H 0.555666 0.037254 0.528082
C44? C 0.6173(13) -0.0244(2) 0.5703(3)
H30? H 0.563373 -0.042803 0.535752
C45? C 0.695(5) -0.0436(8) 0.6215(10)
H31? H 0.684866 -0.076241 0.624354
C46? C 1.0387(9) 0.53803(16) 0.7297(2)
H32? H 1.088630 0.516451 0.761119
C47? C 1.0601(9) 0.58468(18) 0.7413(3)
H33? H 1.125836 0.594608 0.780901
C48? C 0.8894(10) 0.55486(19) 0.6263(2)
H34? H 0.836956 0.544513 0.586093
C49? C 0.9094(11) 0.60130(19) 0.6379(3)
H35? H 0.869202 0.622764 0.605835
C50? C 0.990(3) 0.6174(4) 0.6975(5)
H36? H 0.994538 0.649342 0.706767
C51? C 0.945(3) 0.5228(4) 0.6726(6)
C52? C 0.692(3) 0.0509(5) 0.6176(6)
loop_
_geom_bond_atom_site_label_1
_geom_bond_atom_site_label_2
_geom_bond_site_symmetry_1
_geom_bond_site_symmetry_2
N1 C1 1_555 1_555
N2 C4 1_555 1_555
N3 C7 1_555 1_555
N4 C11 1_555 1_555
N5 C8 1_555 1_555
N6 C2 1_555 1_555
N7 C10 1_555 1_555
N8 H1 1_555 1_555
N9 C3 1_555 1_555
N10 H2 1_555 1_555
N11 C24 1_555 1_555
C1 C2 1_555 1_555
N12 C23 1_555 1_555
N13 H3 1_555 1_555
H4 N13 1_555 1_555
C3 C5 1_555 1_555
N14 H5 1_555 1_555
H6 N14 1_555 1_555
C4 C6 1_555 1_555
C5 N2 1_555 1_555
C6 N1 1_555 1_555
C7 C4 1_555 1_555
C8 C6 1_555 1_555
C9 N10 1_555 1_555
C10 C7 1_555 1_555
C11 C8 1_555 1_555
C12 C9 1_555 1_555
H7 C12 1_555 1_555
C13 N7 1_555 1_555
C14 N4 1_555 1_555
C15 C9 1_555 1_555
H8 C15 1_555 1_555
C16 N5 1_555 1_555
C17 N8 1_555 1_555
C18 C15 1_555 1_555
H9 C18 1_555 1_555
C19 C12 1_555 1_555
H10 C19 1_555 1_555
C20 C18 1_555 1_555
H11 C20 1_555 1_555
C21 N3 1_555 1_555
C22 C17 1_555 1_555
H12 C22 1_555 1_555
C23 N13 1_555 1_555
C24 N14 1_555 1_555
C25 C22 1_555 1_555
H13 C25 1_555 1_555
C26 N12 1_555 1_555
C27 C17 1_555 1_555
H14 C27 1_555 1_555
C28 C25 1_555 1_555
H15 C28 1_555 1_555
C29 C27 1_555 1_555
H16 C29 1_555 1_555
C30 H17 1_555 1_555
C31 H18 1_555 1_555
C32 C26 1_555 1_555
H19 C32 1_555 1_555
C33 C31 1_555 1_555
H20 C33 1_555 1_555
C34 C30 1_555 1_555
H21 C34 1_555 1_555
C35 C26 1_555 1_555
H22 C35 1_555 1_555
C36 H23 1_555 1_555
C37 C30 1_555 1_555
H24 C37 1_555 1_555
C38 C36 1_555 1_555
H25 C38 1_555 1_555
C39 N11 1_555 1_555
C40 C33 1_555 1_555
H26 C40 1_555 1_555
N8 C13 1_555 1_555
N10 C14 1_555 1_555
C1 C5 1_555 1_555
C10 C11 1_555 1_555
C13 C21 1_555 1_555
C14 C16 1_555 1_555
C16 C24 1_555 1_555
C19 C20 1_555 1_555
C21 C23 1_555 1_555
C28 C29 1_555 1_555
C31 C39 1_555 1_555
C32 C34 1_555 1_555
C35 C37 1_555 1_555
C36 C39 1_555 1_555
C38 C40 1_555 1_555

#END
