
#######################################################################
#
#                 Cambridge Crystallographic Data Centre
#                                CCDC 
#
#######################################################################
#
# If this CIF has been generated from an entry in the Cambridge 
# Structural Database, then it will include bibliographic, chemical, 
# crystal, experimental, refinement or atomic coordinate data resulting 
# from the CCDC's data processing and validation procedures.
#
#######################################################################

data_PIFRIH
_chemical_formula_moiety         'C25 H19 Br1 N1 P1'
_chemical_name_systematic        
N-(2-Bromobenzylidene)-2-(diphenylphosphino)aniline
_symmetry_cell_setting           monoclinic
_symmetry_space_group_name_H-M   'P 21/c'
_symmetry_Int_Tables_number      14
_space_group_name_Hall           '-P 2ybc'
loop_
_symmetry_equiv_pos_site_id
_symmetry_equiv_pos_as_xyz
1 x,y,z
2 -x,1/2+y,1/2-z
3 -x,-y,-z
4 x,1/2-y,1/2+z
_cell_length_a                   10.739(2)
_cell_length_b                   17.527(4)
_cell_length_c                   11.279(2)
_cell_angle_alpha                90
_cell_angle_beta                 106.456(3)
_cell_angle_gamma                90
_cell_volume                     2036
_exptl_crystal_colour            yellow
_exptl_crystal_description       prism
_cell_formula_units_Z            4
loop_
_atom_site_label
_atom_site_type_symbol
_atom_site_fract_x
_atom_site_fract_y
_atom_site_fract_z
Br1 Br 0.74725(4) 0.13469(2) 0.41671(4)
P1 P 0.06020(8) 0.05741(5) 0.30806(8)
N1 N 0.3442(3) 0.06608(16) 0.3836(3)
C1 C 0.6258(3) 0.1929(2) 0.4718(3)
C2 C 0.6678(4) 0.2582(2) 0.5385(3)
H1 H 0.7553 0.2743 0.5528
C3 C 0.5845(4) 0.3004(2) 0.5849(4)
H2 H 0.6140 0.3456 0.6308
C4 C 0.4571(4) 0.2765(2) 0.5643(4)
H3 H 0.3992 0.3054 0.5964
C5 C 0.4141(4) 0.2110(2) 0.4974(3)
H4 H 0.3268 0.1948 0.4843
C6 C 0.4973(3) 0.16836(19) 0.4489(3)
C7 C 0.4492(4) 0.0985(2) 0.3777(3)
H5 H 0.4969 0.0771 0.3266
C8 C 0.3024(3) -0.00132(18) 0.3162(3)
C9 C 0.3892(3) -0.0560(2) 0.2963(3)
H6 H 0.4801 -0.0481 0.3279
C10 C 0.3426(4) -0.12153(19) 0.2306(3)
H7 H 0.4018 -0.1585 0.2170
C11 C 0.2118(4) -0.13359(18) 0.1849(3)
H8 H 0.1805 -0.1790 0.1403
C12 C 0.1246(3) -0.07940(18) 0.2036(3)
H9 H 0.0340 -0.0876 0.1700
C13 C 0.1681(3) -0.01364(17) 0.2707(3)
C14 C 0.0677(3) 0.13550(17) 0.2032(3)
C15 C 0.1188(3) 0.12860(18) 0.1030(3)
H10 H 0.1498 0.0805 0.0849
C16 C 0.1248(3) 0.19111(19) 0.0296(3)
H11 H 0.1596 0.1855 -0.0385
C17 C 0.0808(3) 0.26098(19) 0.0550(3)
H12 H 0.0869 0.3041 0.0059
C18 C 0.0273(4) 0.26801(19) 0.1533(3)
H13 H -0.0046 0.3161 0.1706
C19 C 0.0201(3) 0.20574(18) 0.2255(3)
H14 H -0.0180 0.2111 0.2915
C20 C -0.0993(3) 0.01572(18) 0.2367(3)
C21 C -0.1751(3) 0.0305(2) 0.1158(3)
H15 H -0.1441 0.0647 0.0652
C22 C -0.2956(4) -0.0045(2) 0.0688(3)
H16 H -0.3463 0.0058 -0.0134
C23 C -0.3412(4) -0.0545(2) 0.1423(4)
H17 H -0.4230 -0.0787 0.1106
C24 C -0.2671(4) -0.0689(2) 0.2620(4)
H18 H -0.2980 -0.1032 0.3124
C25 C -0.1485(3) -0.0339(2) 0.3083(3)
H19 H -0.0992 -0.0438 0.3911
loop_
_geom_bond_atom_site_label_1
_geom_bond_atom_site_label_2
_geom_bond_site_symmetry_1
_geom_bond_site_symmetry_2
Br1 C1 1_555 1_555
P1 C13 1_555 1_555
N1 C7 1_555 1_555
C1 C2 1_555 1_555
C2 H1 1_555 1_555
C3 C2 1_555 1_555
H2 C3 1_555 1_555
C4 C3 1_555 1_555
H3 C4 1_555 1_555
C5 C4 1_555 1_555
H4 C5 1_555 1_555
C6 C1 1_555 1_555
C7 C6 1_555 1_555
H5 C7 1_555 1_555
C8 N1 1_555 1_555
C9 C8 1_555 1_555
H6 C9 1_555 1_555
C10 C9 1_555 1_555
H7 C10 1_555 1_555
C11 C10 1_555 1_555
H8 C11 1_555 1_555
C12 C11 1_555 1_555
H9 C12 1_555 1_555
C13 C8 1_555 1_555
C14 P1 1_555 1_555
C15 C14 1_555 1_555
H10 C15 1_555 1_555
C16 C15 1_555 1_555
H11 C16 1_555 1_555
C17 C16 1_555 1_555
H12 C17 1_555 1_555
C18 C17 1_555 1_555
H13 C18 1_555 1_555
C19 C14 1_555 1_555
H14 C19 1_555 1_555
C20 P1 1_555 1_555
C21 C20 1_555 1_555
H15 C21 1_555 1_555
C22 C21 1_555 1_555
H16 C22 1_555 1_555
C23 C22 1_555 1_555
H17 C23 1_555 1_555
C24 C23 1_555 1_555
H18 C24 1_555 1_555
C25 C20 1_555 1_555
H19 C25 1_555 1_555
C5 C6 1_555 1_555
C12 C13 1_555 1_555
C18 C19 1_555 1_555
C24 C25 1_555 1_555

#END
