
#######################################################################
#
#                 Cambridge Crystallographic Data Centre
#                                CCDC 
#
#######################################################################
#
# If this CIF has been generated from an entry in the Cambridge 
# Structural Database, then it will include bibliographic, chemical, 
# crystal, experimental, refinement or atomic coordinate data resulting 
# from the CCDC's data processing and validation procedures.
#
#######################################################################

data_PIFRON
_chemical_formula_moiety         'C19 H14 Br1 N1 S1'
_chemical_name_systematic        
N-(2-Bromobenzylidene)-2-(phenylsulfanyl)aniline
_symmetry_cell_setting           monoclinic
_symmetry_space_group_name_H-M   'C 2/c'
_symmetry_Int_Tables_number      15
_space_group_name_Hall           '-C 2yn'
loop_
_symmetry_equiv_pos_site_id
_symmetry_equiv_pos_as_xyz
1 x,y,z
2 -x,y,1/2-z
3 1/2+x,1/2+y,z
4 1/2-x,1/2+y,1/2-z
5 -x,-y,-z
6 x,-y,1/2+z
7 1/2-x,1/2-y,-z
8 1/2+x,1/2-y,1/2+z
_cell_length_a                   29.613(19)
_cell_length_b                   7.948(5)
_cell_length_c                   17.260(11)
_cell_angle_alpha                90
_cell_angle_beta                 123.962(8)
_cell_angle_gamma                90
_cell_volume                     3369.38
_exptl_crystal_colour            yellow
_exptl_crystal_description       block
_cell_formula_units_Z            8
loop_
_atom_site_label
_atom_site_type_symbol
_atom_site_fract_x
_atom_site_fract_y
_atom_site_fract_z
Br1 Br 0.06946(4) 0.83123(10) 0.13792(7)
S1 S 0.12513(8) 0.0695(2) 0.01842(14)
N1 N 0.1307(2) 0.3219(6) 0.1366(3)
C1 C 0.1835(3) 0.1968(7) 0.0866(4)
C2 C 0.1798(3) 0.3171(7) 0.1410(4)
C3 C 0.2243(3) 0.4191(8) 0.1993(4)
H1 H 0.2222 0.4998 0.2361
C4 C 0.2706(3) 0.4014(8) 0.2025(5)
H2 H 0.3008 0.4670 0.2434
C5 C 0.2734(3) 0.2868(8) 0.1455(5)
H3 H 0.3049 0.2785 0.1461
C6 C 0.2300(3) 0.1853(7) 0.0883(4)
H4 H 0.2321 0.1076 0.0502
C7 C 0.1082(3) 0.4617(8) 0.1293(4)
H5 H 0.1241 0.5600 0.1262
C8 C 0.0578(3) 0.4727(8) 0.1257(4)
C9 C 0.0358(4) 0.6227(8) 0.1303(5)
C10 C -0.0103(4) 0.6305(13) 0.1302(6)
H6 H -0.0231 0.7334 0.1359
C11 C -0.0368(4) 0.4880(19) 0.1218(7)
H7 H -0.0683 0.4925 0.1212
C12 C -0.0178(4) 0.3331(14) 0.1137(7)
H8 H -0.0368 0.2348 0.1065
C13 C 0.0289(3) 0.3280(9) 0.1166(5)
H9 H 0.0420 0.2244 0.1123
C14 C 0.1466(3) -0.0833(8) -0.0293(5)
C15 C 0.1308(3) -0.0697(9) -0.1191(5)
H10 H 0.1112 0.0243 -0.1537
C16 C 0.1434(3) -0.1947(10) -0.1607(5)
H11 H 0.1326 -0.1841 -0.2225
C17 C 0.1719(4) -0.3330(9) -0.1096(6)
H12 H 0.1800 -0.4178 -0.1370
C18 C 0.1882(3) -0.3473(8) -0.0190(6)
H13 H 0.2080 -0.4412 0.0156
C19 C 0.1757(3) -0.2230(9) 0.0218(5)
H14 H 0.1868 -0.2334 0.0838
loop_
_geom_bond_atom_site_label_1
_geom_bond_atom_site_label_2
_geom_bond_site_symmetry_1
_geom_bond_site_symmetry_2
Br1 C9 1_555 1_555
S1 C1 1_555 1_555
N1 C2 1_555 1_555
C1 C2 1_555 1_555
C2 C3 1_555 1_555
C3 H1 1_555 1_555
C4 C3 1_555 1_555
H2 C4 1_555 1_555
C5 C4 1_555 1_555
H3 C5 1_555 1_555
C6 C1 1_555 1_555
H4 C6 1_555 1_555
C7 N1 1_555 1_555
H5 C7 1_555 1_555
C8 C7 1_555 1_555
C9 C8 1_555 1_555
C10 C9 1_555 1_555
H6 C10 1_555 1_555
C11 C10 1_555 1_555
H7 C11 1_555 1_555
C12 C11 1_555 1_555
H8 C12 1_555 1_555
C13 C8 1_555 1_555
H9 C13 1_555 1_555
C14 S1 1_555 1_555
C15 C14 1_555 1_555
H10 C15 1_555 1_555
C16 C15 1_555 1_555
H11 C16 1_555 1_555
C17 C16 1_555 1_555
H12 C17 1_555 1_555
C18 C17 1_555 1_555
H13 C18 1_555 1_555
C19 C14 1_555 1_555
H14 C19 1_555 1_555
C5 C6 1_555 1_555
C12 C13 1_555 1_555
C18 C19 1_555 1_555

#END
