
#######################################################################
#
#                 Cambridge Crystallographic Data Centre
#                                CCDC 
#
#######################################################################
#
# If this CIF has been generated from an entry in the Cambridge 
# Structural Database, then it will include bibliographic, chemical, 
# crystal, experimental, refinement or atomic coordinate data resulting 
# from the CCDC's data processing and validation procedures.
#
#######################################################################

data_PIFVOS
_chemical_formula_moiety         
'C132 H120 N12,1.5(C6 H14),5.5(C1 H1 Cl3),3(H2 O1)'
_chemical_name_systematic        
'3,8,12,17,21,26,30,35,38,43,46,51-dodecaaza-1,10,19,28(1,3,5)-tetrakis(2,4,6-trimethylbenzena)-5,6,14,15,23,24,32,33,40,41,48,49(1,4)-dodecabenzenatricyclo[17.17.8.8^10,28^]dopentacontaphane-3,7,12,16,21,25,30,34,38,42,46,50-dodecaene chloroform hexane solvate trihydrate'
_symmetry_cell_setting           trigonal
_symmetry_space_group_name_H-M   'P -3'
_symmetry_Int_Tables_number      147
_space_group_name_Hall           '-P 3'
loop_
_symmetry_equiv_pos_site_id
_symmetry_equiv_pos_as_xyz
1 x,y,z
2 -y,x-y,z
3 -x+y,-x,z
4 -x,-y,-z
5 y,-x+y,-z
6 x-y,x,-z
_cell_length_a                   22.9539(10)
_cell_length_b                   22.9539(10)
_cell_length_c                   16.4507(9)
_cell_angle_alpha                90
_cell_angle_beta                 90
_cell_angle_gamma                120
_cell_volume                     7506.34
_exptl_crystal_colour            colorless
_exptl_crystal_description       needle
_cell_formula_units_Z            2
loop_
_atom_site_label
_atom_site_type_symbol
_atom_site_fract_x
_atom_site_fract_y
_atom_site_fract_z
N1 N 0.37656(16) 0.47808(16) 0.7909(2)
N2 N 0.21197(15) 0.16602(15) 0.85402(18)
N3 N 0.21519(17) 0.30596(18) 0.51020(19)
N4 N 0.50375(15) 0.30823(16) -0.05176(19)
C1 C 0.19793(18) 0.3116(2) 0.6561(2)
C2 C 0.23972(18) 0.37526(19) 0.6881(2)
C3 C 0.26308(18) 0.38216(19) 0.7682(2)
C4 C 0.24551(17) 0.32487(18) 0.8149(2)
C5 C 0.20244(17) 0.26099(18) 0.7830(2)
C6 C 0.18132(17) 0.25329(19) 0.7019(2)
C7 C 0.1685(2) 0.3044(2) 0.5723(2)
H1 H 0.1255 0.2613 0.5686
H2 H 0.1591 0.3414 0.5624
C8 C 0.2605(2) 0.4375(2) 0.6363(3)
H3 H 0.2282 0.4532 0.6440
H4 H 0.2612 0.4264 0.5789
H5 H 0.3054 0.4731 0.6526
C9 C 0.30410(18) 0.45104(19) 0.8055(3)
H6 H 0.2902 0.4819 0.7818
H7 H 0.2955 0.4482 0.8648
C10 C 0.2732(2) 0.3323(2) 0.8994(2)
H8 H 0.2488 0.3460 0.9364
H9 H 0.3211 0.3664 0.8995
H10 H 0.2678 0.2891 0.9175
C11 C 0.17355(18) 0.20082(19) 0.8392(2)
H11 H 0.1656 0.2156 0.8925
H12 H 0.1290 0.1672 0.8173
C12 C 0.1424(2) 0.1845(2) 0.6641(2)
H13 H 0.1481 0.1521 0.6970
H14 H 0.1591 0.1858 0.6090
H15 H 0.0946 0.1709 0.6618
C13 C 0.55391(19) 0.19578(18) -0.1237(2)
H16 H 0.5150 0.1959 -0.0993
H17 H 0.5671 0.1692 -0.0898
H18 H 0.5420 0.1760 -0.1782
C14 C 0.61187(17) 0.26718(17) -0.1297(2)
C15 C 0.60075(16) 0.32157(17) -0.1306(2)
C16 C 0.52985(18) 0.31002(19) -0.1340(2)
H19 H 0.5296 0.3465 -0.1657
H20 H 0.5002 0.2669 -0.1619
C17 C 0.1903(2) 0.2611(2) 0.4568(2)
H21 H 0.1435 0.2294 0.4592
C18 C 0.2302(2) 0.2552(2) 0.3903(2)
C19 C 0.1981(2) 0.2107(2) 0.3285(2)
H22 H 0.1506 0.1827 0.3303
C20 C 0.2335(2) 0.20569(19) 0.2636(2)
H23 H 0.2099 0.1742 0.2216
C21 C 0.30356(19) 0.24623(18) 0.2586(2)
C22 C 0.3358(2) 0.28999(19) 0.3236(2)
H24 H 0.3835 0.3168 0.3235
C23 C 0.3001(2) 0.2950(2) 0.3875(2)
H25 H 0.3233 0.3259 0.4303
C24 C 0.34103(19) 0.24586(17) 0.1856(2)
C25 C 0.30652(19) 0.21326(18) 0.1146(2)
H26 H 0.2588 0.1875 0.1151
C26 C 0.34111(19) 0.21810(19) 0.0439(2)
H27 H 0.3166 0.1952 -0.0034
C27 C 0.41052(18) 0.25543(17) 0.0403(2)
C28 C 0.44580(19) 0.28650(18) 0.1115(2)
H28 H 0.4936 0.3112 0.1111
C29 C 0.41120(19) 0.28124(18) 0.1826(2)
H29 H 0.4358 0.3022 0.2306
C30 C 0.44458(18) 0.26256(18) -0.0380(2)
H30 H 0.4206 0.2311 -0.0800
C31 C 0.41468(18) 0.49933(18) 0.8523(3)
H31 H 0.3952 0.4964 0.9041
C32 C 0.48783(18) 0.52833(17) 0.8468(2)
C33 C 0.51916(18) 0.53033(18) 0.7734(2)
H32 H 0.4928 0.5110 0.7260
C34 C 0.58828(18) 0.56036(17) 0.7695(2)
H33 H 0.6091 0.5620 0.7190
C35 C 0.62821(17) 0.58846(17) 0.8383(2)
C36 C 0.59601(19) 0.58440(18) 0.9117(2)
H34 H 0.6220 0.6021 0.9597
C37 C 0.52669(19) 0.55501(19) 0.9155(2)
H35 H 0.5057 0.5532 0.9660
C38 C 0.26137(17) 0.17826(17) 0.8083(2)
H36 H 0.2734 0.2107 0.7663
C39 C 0.30052(17) 0.14408(16) 0.8180(2)
C40 C 0.35214(17) 0.15749(17) 0.7641(2)
H37 H 0.3623 0.1894 0.7219
C41 C 0.38917(17) 0.12508(17) 0.7710(2)
H38 H 0.4243 0.1350 0.7333
C42 C 0.37563(17) 0.07818(16) 0.8325(2)
C43 C 0.32424(18) 0.06621(17) 0.8877(2)
H39 H 0.3150 0.0355 0.9312
C44 C 0.28694(18) 0.09756(17) 0.8808(2)
H40 H 0.2519 0.0878 0.9185
N1A N 0.52192(16) -0.10152(23) 0.7909(2)
N2A N 0.83398(15) 0.04595(21) 0.85402(18)
N3A N 0.69404(18) -0.09077(25) 0.51020(19)
N4A N 0.69177(16) 0.19552(22) -0.05176(19)
C1A C 0.6884(2) -0.11367(27) 0.6561(2)
C2A C 0.62474(19) -0.13554(26) 0.6881(2)
C3A C 0.61784(19) -0.11908(26) 0.7682(2)
C4A C 0.67513(18) -0.07936(25) 0.8149(2)
C5A C 0.73901(18) -0.05855(25) 0.7830(2)
C6A C 0.74671(19) -0.07197(25) 0.7019(2)
C7A C 0.6956(2) -0.1359(3) 0.5723(2)
H1A H 0.7387 -0.1358 0.5686
H2A H 0.6586 -0.1823 0.5624
C8A C 0.5625(2) -0.1770(3) 0.6363(3)
H3A H 0.5468 -0.2250 0.6440
H4A H 0.5736 -0.1652 0.5789
H5A H 0.5269 -0.1677 0.6526
C9A C 0.54896(19) -0.14694(26) 0.8055(3)
H6A H 0.5181 -0.1917 0.7818
H7A H 0.5518 -0.1527 0.8648
C10A C 0.6677(2) -0.0591(3) 0.8994(2)
H8A H 0.6540 -0.0972 0.9364
H9A H 0.6336 -0.0453 0.8995
H10A H 0.7109 -0.0213 0.9175
C11A C 0.79918(19) -0.02727(26) 0.8392(2)
H11A H 0.7844 -0.0500 0.8925
H12A H 0.8328 -0.0382 0.8173
C12A C 0.8155(2) -0.0421(3) 0.6641(2)
H13A H 0.8479 -0.0040 0.6970
H14A H 0.8142 -0.0267 0.6090
H15A H 0.8291 -0.0763 0.6618
C13A C 0.80422(18) 0.35813(26) -0.1237(2)
H16A H 0.8041 0.3191 -0.0993
H17A H 0.8308 0.3979 -0.0898
H18A H 0.8240 0.3660 -0.1782
C14A C 0.73282(17) 0.34469(24) -0.1297(2)
C15A C 0.67843(17) 0.27918(23) -0.1306(2)
C16A C 0.68998(19) 0.21983(26) -0.1340(2)
H19A H 0.6535 0.1831 -0.1657
H20A H 0.7331 0.2333 -0.1619
C17A C 0.7389(2) -0.0708(3) 0.4568(2)
H21A H 0.7706 -0.0859 0.4592
C18A C 0.7448(2) -0.0250(3) 0.3903(2)
C19A C 0.7893(2) -0.0126(3) 0.3285(2)
H22A H 0.8173 -0.0321 0.3303
C20A C 0.79431(19) 0.02781(28) 0.2636(2)
H23A H 0.8258 0.0357 0.2216
C21A C 0.75377(18) 0.05733(26) 0.2586(2)
C22A C 0.71001(19) 0.04581(28) 0.3236(2)
H24A H 0.6832 0.0667 0.3235
C23A C 0.7050(2) 0.0051(3) 0.3875(2)
H25A H 0.6741 -0.0026 0.4303
C24A C 0.75414(17) 0.09517(25) 0.1856(2)
C25A C 0.78674(18) 0.09326(26) 0.1146(2)
H26A H 0.8125 0.0713 0.1151
C26A C 0.78190(19) 0.12301(27) 0.0439(2)
H27A H 0.8048 0.1214 -0.0034
C27A C 0.74457(17) 0.15509(25) 0.0403(2)
C28A C 0.71350(18) 0.15930(26) 0.1115(2)
H28A H 0.6888 0.1824 0.1111
C29A C 0.71876(18) 0.12996(26) 0.1826(2)
H29A H 0.6978 0.1336 0.2306
C30A C 0.73744(18) 0.18202(25) -0.0380(2)
H30A H 0.7689 0.1895 -0.0800
C31A C 0.50067(18) -0.08465(25) 0.8523(3)
H31A H 0.5036 -0.1012 0.9041
C32A C 0.47167(17) -0.04050(25) 0.8468(2)
C33A C 0.46967(18) -0.01117(25) 0.7734(2)
H32A H 0.4890 -0.0182 0.7260
C34A C 0.43964(17) 0.02792(25) 0.7695(2)
H33A H 0.4380 0.0471 0.7190
C35A C 0.41154(17) 0.03975(24) 0.8383(2)
C36A C 0.41560(18) 0.01161(26) 0.9117(2)
H34A H 0.3979 0.0199 0.9597
C37A C 0.44499(19) -0.02832(27) 0.9155(2)
H35A H 0.4468 -0.0475 0.9660
C38A C 0.82174(17) 0.08311(24) 0.8083(2)
H36A H 0.7893 0.0627 0.7663
C39A C 0.85592(16) 0.15644(23) 0.8180(2)
C40A C 0.84251(17) 0.19465(24) 0.7641(2)
H37A H 0.8106 0.1729 0.7219
C41A C 0.87492(17) 0.26409(24) 0.7710(2)
H38A H 0.8650 0.2893 0.7333
C42A C 0.92182(16) 0.29745(23) 0.8325(2)
C43A C 0.93379(17) 0.25803(25) 0.8877(2)
H39A H 0.9645 0.2795 0.9312
C44A C 0.90244(17) 0.18938(25) 0.8808(2)
H40A H 0.9122 0.1641 0.9185
N1B N 1.10152(23) 0.62344(16) 0.7909(2)
N2B N 0.95405(21) 0.78803(15) 0.85402(18)
N3B N 1.09077(25) 0.78481(17) 0.51020(19)
N4B N 0.80448(22) 0.49625(15) -0.05176(19)
C1B C 1.11367(27) 0.80207(18) 0.6561(2)
C2B C 1.13554(26) 0.76028(18) 0.6881(2)
C3B C 1.11908(26) 0.73692(18) 0.7682(2)
C4B C 1.07936(25) 0.75449(17) 0.8149(2)
C5B C 1.05855(25) 0.79756(17) 0.7830(2)
C6B C 1.07197(25) 0.81868(17) 0.7019(2)
C7B C 1.1359(3) 0.8315(2) 0.5723(2)
H1B H 1.1358 0.8745 0.5686
H2B H 1.1823 0.8409 0.5624
C8B C 1.1770(3) 0.7395(2) 0.6363(3)
H3B H 1.2250 0.7718 0.6440
H4B H 1.1652 0.7388 0.5789
H5B H 1.1677 0.6946 0.6526
C9B C 1.14694(26) 0.69590(18) 0.8055(3)
H6B H 1.1917 0.7098 0.7818
H7B H 1.1527 0.7045 0.8648
C10B C 1.0591(3) 0.7268(2) 0.8994(2)
H8B H 1.0972 0.7512 0.9364
H9B H 1.0453 0.6789 0.8995
H10B H 1.0213 0.7322 0.9175
C11B C 1.02727(26) 0.82645(18) 0.8392(2)
H11B H 1.0500 0.8344 0.8925
H12B H 1.0382 0.8710 0.8173
C12B C 1.0421(3) 0.8576(2) 0.6641(2)
H13B H 1.0040 0.8519 0.6970
H14B H 1.0267 0.8409 0.6090
H15B H 1.0763 0.9054 0.6618
C13B C 0.64187(26) 0.44609(19) -0.1237(2)
H16B H 0.6809 0.4850 -0.0993
H17B H 0.6021 0.4329 -0.0898
H18B H 0.6340 0.4580 -0.1782
C14B C 0.65531(24) 0.38813(17) -0.1297(2)
C15B C 0.72082(23) 0.39925(16) -0.1306(2)
C16B C 0.78017(26) 0.47015(18) -0.1340(2)
H19B H 0.8169 0.4704 -0.1657
H20B H 0.7667 0.4998 -0.1619
C17B C 1.0708(3) 0.8097(2) 0.4568(2)
H21B H 1.0859 0.8565 0.4592
C18B C 1.0250(3) 0.7698(2) 0.3903(2)
C19B C 1.0126(3) 0.8019(2) 0.3285(2)
H22B H 1.0321 0.8494 0.3303
C20B C 0.97219(28) 0.7665(2) 0.2636(2)
H23B H 0.9643 0.7901 0.2216
C21B C 0.94267(26) 0.69644(19) 0.2586(2)
C22B C 0.95419(28) 0.6642(2) 0.3236(2)
H24B H 0.9333 0.6165 0.3235
C23B C 0.9949(3) 0.6999(2) 0.3875(2)
H25B H 1.0026 0.6767 0.4303
C24B C 0.90483(25) 0.65897(19) 0.1856(2)
C25B C 0.90674(26) 0.69348(19) 0.1146(2)
H26B H 0.9287 0.7412 0.1151
C26B C 0.87699(27) 0.65889(19) 0.0439(2)
H27B H 0.8786 0.6834 -0.0034
C27B C 0.84491(25) 0.58948(18) 0.0403(2)
C28B C 0.84070(26) 0.55420(19) 0.1115(2)
H28B H 0.8176 0.5064 0.1111
C29B C 0.87004(26) 0.58880(19) 0.1826(2)
H29B H 0.8664 0.5642 0.2306
C30B C 0.81798(25) 0.55542(18) -0.0380(2)
H30B H 0.8105 0.5794 -0.0800
C31B C 1.08465(25) 0.58532(18) 0.8523(3)
H31B H 1.1012 0.6048 0.9041
C32B C 1.04050(25) 0.51217(18) 0.8468(2)
C33B C 1.01117(25) 0.48084(18) 0.7734(2)
H32B H 1.0182 0.5072 0.7260
C34B C 0.97208(25) 0.41172(18) 0.7695(2)
H33B H 0.9529 0.3909 0.7190
C35B C 0.96025(24) 0.37179(17) 0.8383(2)
C36B C 0.98839(26) 0.40399(19) 0.9117(2)
H34B H 0.9801 0.3780 0.9597
C37B C 1.02832(27) 0.47331(19) 0.9155(2)
H35B H 1.0475 0.4943 0.9660
C38B C 0.91689(24) 0.73863(17) 0.8083(2)
H36B H 0.9373 0.7266 0.7663
C39B C 0.84356(23) 0.69948(17) 0.8180(2)
C40B C 0.80535(24) 0.64786(17) 0.7641(2)
H37B H 0.8271 0.6377 0.7219
C41B C 0.73591(24) 0.61083(17) 0.7710(2)
H38B H 0.7107 0.5757 0.7333
C42B C 0.70255(23) 0.62437(17) 0.8325(2)
C43B C 0.74197(25) 0.67576(18) 0.8877(2)
H39B H 0.7205 0.6850 0.9312
C44B C 0.81062(25) 0.71306(18) 0.8808(2)
H40B H 0.8359 0.7481 0.9185
C45 C 0.5779(7) 0.3709(6) 0.3297(9)
H41 H 0.5929 0.4044 0.2862
H42 H 0.5403 0.3282 0.3103
H43 H 0.6152 0.3641 0.3460
C46 C 0.5562(9) 0.3943(7) 0.3990(10)
H44 H 0.5099 0.3603 0.4150
H45 H 0.5570 0.4367 0.3856
C47 C 0.6071(11) 0.4061(9) 0.4704(10)
H46 H 0.6007 0.3617 0.4863
H47 H 0.6532 0.4325 0.4482
C48 C 0.6041(12) 0.4414(12) 0.5481(11)
H48 H 0.5574 0.4177 0.5688
H49 H 0.6156 0.4879 0.5341
C49 C 0.6520(10) 0.4445(10) 0.6174(11)
H50 H 0.6385 0.4573 0.6684
H51 H 0.6452 0.3987 0.6253
C50 C 0.7267(11) 0.4927(11) 0.6041(11)
H52 H 0.7419 0.4787 0.5562
H53 H 0.7519 0.4921 0.6520
H54 H 0.7345 0.5383 0.5958
Cl1 Cl 0.41729(7) 0.34581(6) 0.72943(8)
Cl2 Cl 0.34212(7) 0.26538(6) 0.59169(7)
Cl3 Cl 0.41378(9) 0.41043(7) 0.58014(10)
C51 C 0.3687(2) 0.3393(2) 0.6435(3)
H55 H 0.3277 0.3397 0.6631
Cl4 Cl 0.07903(7) 0.01634(7) 0.79751(14)
C52 C 0.0000 0.0000 0.8246(7)
H56 H 0.0000 0.0000 0.8854
Cl4A Cl -0.01634(7) 0.06269(10) 0.79751(14)
Cl4B Cl -0.06269(10) -0.07903(7) 0.79751(14)
Cl5 Cl 0.65326(6) 0.39816(5) 0.10302(8)
C53 C 0.6667 0.3333 0.0695(4)
H57 H 0.6667 0.3333 0.0087
Cl5A Cl 0.60184(5) 0.25510(8) 0.10302(8)
Cl5B Cl 0.74490(8) 0.34674(6) 0.10302(8)
O1 O 0.1385(3) 0.0920(2) 0.9956(3)
H58 H 0.1015 0.0645 0.9704
H59 H 0.1697 0.1156 0.9602
Cl6? Cl -0.0599(2) -0.0799(2) 0.5275(3)
C54? C 0.0000 0.0000 0.5604(14)
H60? H 0.0000 0.0000 0.6211
loop_
_geom_bond_atom_site_label_1
_geom_bond_atom_site_label_2
_geom_bond_site_symmetry_1
_geom_bond_site_symmetry_2
N1 C9 1_555 1_555
N2 C11 1_555 1_555
N3 C7 1_555 1_555
N4 C16 1_555 1_555
C1 C2 1_555 1_555
C2 C3 1_555 1_555
C3 C4 1_555 1_555
C4 C5 1_555 1_555
C5 C6 1_555 1_555
C6 C1 1_555 1_555
C7 C1 1_555 1_555
H1 C7 1_555 1_555
H2 C7 1_555 1_555
C8 C2 1_555 1_555
H3 C8 1_555 1_555
H4 C8 1_555 1_555
H5 C8 1_555 1_555
C9 C3 1_555 1_555
H6 C9 1_555 1_555
H7 C9 1_555 1_555
C10 C4 1_555 1_555
H8 C10 1_555 1_555
H9 C10 1_555 1_555
H10 C10 1_555 1_555
C11 C5 1_555 1_555
H11 C11 1_555 1_555
H12 C11 1_555 1_555
C12 C6 1_555 1_555
H13 C12 1_555 1_555
H14 C12 1_555 1_555
H15 C12 1_555 1_555
C13 H16 1_555 1_555
H17 C13 1_555 1_555
H18 C13 1_555 1_555
C14 C13 1_555 1_555
C15 C14 1_555 1_555
C16 C15 1_555 1_555
H19 C16 1_555 1_555
H20 C16 1_555 1_555
C17 N3 1_555 1_555
H21 C17 1_555 1_555
C18 C17 1_555 1_555
C19 C18 1_555 1_555
H22 C19 1_555 1_555
C20 C19 1_555 1_555
H23 C20 1_555 1_555
C21 C20 1_555 1_555
C22 C21 1_555 1_555
H24 C22 1_555 1_555
C23 C18 1_555 1_555
H25 C23 1_555 1_555
C24 C21 1_555 1_555
C25 C24 1_555 1_555
H26 C25 1_555 1_555
C26 C25 1_555 1_555
H27 C26 1_555 1_555
C27 C26 1_555 1_555
C28 C27 1_555 1_555
H28 C28 1_555 1_555
C29 C24 1_555 1_555
H29 C29 1_555 1_555
C30 N4 1_555 1_555
H30 C30 1_555 1_555
C31 N1 1_555 1_555
H31 C31 1_555 1_555
C32 C31 1_555 1_555
C33 C32 1_555 1_555
H32 C33 1_555 1_555
C34 C33 1_555 1_555
H33 C34 1_555 1_555
C35 C34 1_555 1_555
C36 C35 1_555 1_555
H34 C36 1_555 1_555
C37 C32 1_555 1_555
H35 C37 1_555 1_555
C38 N2 1_555 1_555
H36 C38 1_555 1_555
C39 C38 1_555 1_555
C40 C39 1_555 1_555
H37 C40 1_555 1_555
C41 C40 1_555 1_555
H38 C41 1_555 1_555
C42 C41 1_555 1_555
C43 C42 1_555 1_555
H39 C43 1_555 1_555
C44 C39 1_555 1_555
H40 C44 1_555 1_555
C45 H41 1_555 1_555
H42 C45 1_555 1_555
H43 C45 1_555 1_555
C46 C45 1_555 1_555
H44 C46 1_555 1_555
H45 C46 1_555 1_555
C47 C46 1_555 1_555
H46 C47 1_555 1_555
H47 C47 1_555 1_555
C48 C47 1_555 1_555
H48 C48 1_555 1_555
H49 C48 1_555 1_555
C49 C48 1_555 1_555
H50 C49 1_555 1_555
H51 C49 1_555 1_555
C50 C49 1_555 1_555
H52 C50 1_555 1_555
H53 C50 1_555 1_555
H54 C50 1_555 1_555
Cl1 C51 1_555 1_555
Cl2 C51 1_555 1_555
Cl3 C51 1_555 1_555
C51 H55 1_555 1_555
Cl4 C52 1_555 1_555
C52 H56 1_555 1_555
Cl5 C53 1_555 1_555
C53 H57 1_555 1_555
O1 H58 1_555 1_555
H59 O1 1_555 1_555
N1A C9A 1_555 1_555
N2A C11A 1_555 1_555
N3A C7A 1_555 1_555
N4A C16A 1_555 1_555
C1A C2A 1_555 1_555
C2A C3A 1_555 1_555
C3A C4A 1_555 1_555
C4A C5A 1_555 1_555
C5A C6A 1_555 1_555
C6A C1A 1_555 1_555
C7A C1A 1_555 1_555
H1A C7A 1_555 1_555
H2A C7A 1_555 1_555
C8A C2A 1_555 1_555
H3A C8A 1_555 1_555
H4A C8A 1_555 1_555
H5A C8A 1_555 1_555
C9A C3A 1_555 1_555
H6A C9A 1_555 1_555
H7A C9A 1_555 1_555
C10A C4A 1_555 1_555
H8A C10A 1_555 1_555
H9A C10A 1_555 1_555
H10A C10A 1_555 1_555
C11A C5A 1_555 1_555
H11A C11A 1_555 1_555
H12A C11A 1_555 1_555
C12A C6A 1_555 1_555
H13A C12A 1_555 1_555
H14A C12A 1_555 1_555
H15A C12A 1_555 1_555
C13A H16A 1_555 1_555
H17A C13A 1_555 1_555
H18A C13A 1_555 1_555
C14A C13A 1_555 1_555
C15A C14 1_555 1_555
C16A C15A 1_555 1_555
H19A C16A 1_555 1_555
H20A C16A 1_555 1_555
C17A N3A 1_555 1_555
H21A C17A 1_555 1_555
C18A C17A 1_555 1_555
C19A C18A 1_555 1_555
H22A C19A 1_555 1_555
C20A C19A 1_555 1_555
H23A C20A 1_555 1_555
C21A C20A 1_555 1_555
C22A C21A 1_555 1_555
H24A C22A 1_555 1_555
C23A C18A 1_555 1_555
H25A C23A 1_555 1_555
C24A C21A 1_555 1_555
C25A C24A 1_555 1_555
H26A C25A 1_555 1_555
C26A C25A 1_555 1_555
H27A C26A 1_555 1_555
C27A C26A 1_555 1_555
C28A C27A 1_555 1_555
H28A C28A 1_555 1_555
C29A C24A 1_555 1_555
H29A C29A 1_555 1_555
C30A N4A 1_555 1_555
H30A C30A 1_555 1_555
C31A N1A 1_555 1_555
H31A C31A 1_555 1_555
C32A C31A 1_555 1_555
C33A C32A 1_555 1_555
H32A C33A 1_555 1_555
C34A C33A 1_555 1_555
H33A C34A 1_555 1_555
C35A C42 1_555 1_555
C36A C35A 1_555 1_555
H34A C36A 1_555 1_555
C37A C32A 1_555 1_555
H35A C37A 1_555 1_555
C38A N2A 1_555 1_555
H36A C38A 1_555 1_555
C39A C38A 1_555 1_555
C40A C39A 1_555 1_555
H37A C40A 1_555 1_555
C41A C40A 1_555 1_555
H38A C41A 1_555 1_555
C42A C41A 1_555 1_555
C43A C42A 1_555 1_555
H39A C43A 1_555 1_555
C44A C39A 1_555 1_555
H40A C44A 1_555 1_555
N1B C9B 1_555 1_555
N2B C11B 1_555 1_555
N3B C7B 1_555 1_555
N4B C16B 1_555 1_555
C1B C2B 1_555 1_555
C2B C3B 1_555 1_555
C3B C4B 1_555 1_555
C4B C5B 1_555 1_555
C5B C6B 1_555 1_555
C6B C1B 1_555 1_555
C7B C1B 1_555 1_555
H1B C7B 1_555 1_555
H2B C7B 1_555 1_555
C8B C2B 1_555 1_555
H3B C8B 1_555 1_555
H4B C8B 1_555 1_555
H5B C8B 1_555 1_555
C9B C3B 1_555 1_555
H6B C9B 1_555 1_555
H7B C9B 1_555 1_555
C10B C4B 1_555 1_555
H8B C10B 1_555 1_555
H9B C10B 1_555 1_555
H10B C10B 1_555 1_555
C11B C5B 1_555 1_555
H11B C11B 1_555 1_555
H12B C11B 1_555 1_555
C12B C6B 1_555 1_555
H13B C12B 1_555 1_555
H14B C12B 1_555 1_555
H15B C12B 1_555 1_555
C13B H16B 1_555 1_555
H17B C13B 1_555 1_555
H18B C13B 1_555 1_555
C14B C15 1_555 1_555
C15B C14A 1_555 1_555
C16B C15B 1_555 1_555
H19B C16B 1_555 1_555
H20B C16B 1_555 1_555
C17B N3B 1_555 1_555
H21B C17B 1_555 1_555
C18B C17B 1_555 1_555
C19B C18B 1_555 1_555
H22B C19B 1_555 1_555
C20B C19B 1_555 1_555
H23B C20B 1_555 1_555
C21B C20B 1_555 1_555
C22B C21B 1_555 1_555
H24B C22B 1_555 1_555
C23B C18B 1_555 1_555
H25B C23B 1_555 1_555
C24B C21B 1_555 1_555
C25B C24B 1_555 1_555
H26B C25B 1_555 1_555
C26B C25B 1_555 1_555
H27B C26B 1_555 1_555
C27B C26B 1_555 1_555
C28B C27B 1_555 1_555
H28B C28B 1_555 1_555
C29B C24B 1_555 1_555
H29B C29B 1_555 1_555
C30B N4B 1_555 1_555
H30B C30B 1_555 1_555
C31B N1B 1_555 1_555
H31B C31B 1_555 1_555
C32B C31B 1_555 1_555
C33B C32B 1_555 1_555
H32B C33B 1_555 1_555
C34B C33B 1_555 1_555
H33B C34B 1_555 1_555
C35B C42A 1_555 1_555
C36B C35B 1_555 1_555
H34B C36B 1_555 1_555
C37B C32B 1_555 1_555
H35B C37B 1_555 1_555
C38B N2B 1_555 1_555
H36B C38B 1_555 1_555
C39B C38B 1_555 1_555
C40B C39B 1_555 1_555
H37B C40B 1_555 1_555
C41B C40B 1_555 1_555
H38B C41B 1_555 1_555
C42B C35 1_555 1_555
C43B C42B 1_555 1_555
H39B C43B 1_555 1_555
C44B C39B 1_555 1_555
H40B C44B 1_555 1_555
Cl4A C52 1_555 1_555
Cl4B C52 1_555 1_555
Cl5A C53 1_555 1_555
Cl5B C53 1_555 1_555
C22 C23 1_555 1_555
C27 C30 1_555 1_555
C28 C29 1_555 1_555
C36 C37 1_555 1_555
C43 C44 1_555 1_555
C14A C15A 1_555 1_555
C22A C23A 1_555 1_555
C27A C30A 1_555 1_555
C28A C29A 1_555 1_555
C34A C35A 1_555 1_555
C36A C37A 1_555 1_555
C43A C44A 1_555 1_555
C13B C14B 1_555 1_555
C14B C15B 1_555 1_555
C22B C23B 1_555 1_555
C27B C30B 1_555 1_555
C28B C29B 1_555 1_555
C34B C35B 1_555 1_555
C36B C37B 1_555 1_555
C41B C42B 1_555 1_555
C43B C44B 1_555 1_555

#END
