
#######################################################################
#
#                 Cambridge Crystallographic Data Centre
#                                CCDC 
#
#######################################################################
#
# If this CIF has been generated from an entry in the Cambridge 
# Structural Database, then it will include bibliographic, chemical, 
# crystal, experimental, refinement or atomic coordinate data resulting 
# from the CCDC's data processing and validation procedures.
#
#######################################################################

data_PIFZUA
_chemical_formula_moiety         'C20 H22 B1 N1 O4'
_chemical_name_systematic        
(E)-4-nitro-4'-(4,4,5,5-tetramethyl-1,3,2-dioxoborolan-2-yl)stilbene
_symmetry_cell_setting           monoclinic
_symmetry_space_group_name_H-M   'P 21/c'
_symmetry_Int_Tables_number      14
_space_group_name_Hall           '-P 2ybc'
loop_
_symmetry_equiv_pos_site_id
_symmetry_equiv_pos_as_xyz
1 x,y,z
2 -x,1/2+y,1/2-z
3 -x,-y,-z
4 x,1/2-y,1/2+z
_cell_length_a                   13.162(7)
_cell_length_b                   8.015(4)
_cell_length_c                   18.976(7)
_cell_angle_alpha                90
_cell_angle_beta                 108.408(11)
_cell_angle_gamma                90
_cell_volume                     1899.41
_exptl_crystal_colour            yellow
_exptl_crystal_description       block
_chemical_melting_point          '216 deg.C'
_cell_formula_units_Z            4
_exptl_crystal_recrystallization_method 'ethyl acetate/n-hexane'
loop_
_atom_site_label
_atom_site_type_symbol
_atom_site_fract_x
_atom_site_fract_y
_atom_site_fract_z
N1 N 0.28530(15) 0.7176(2) 0.32577(9)
O3 O 0.1897(9) 0.675(3) 0.3101(8)
O4 O 0.3168(11) 0.782(3) 0.2788(8)
C1 C 0.35416(14) 0.7114(2) 0.40389(9)
C2 C 0.31627(15) 0.6365(2) 0.45587(10)
H1 H 0.2489 0.5872 0.4420
C3 C 0.38084(14) 0.6363(2) 0.52924(9)
H2 H 0.3565 0.5855 0.5650
C4 C 0.48262(13) 0.7114(2) 0.55088(9)
C5 C 0.51709(15) 0.7832(3) 0.49595(10)
H3 H 0.5845 0.8324 0.5090
C6 C 0.45401(15) 0.7835(2) 0.42249(10)
H4 H 0.4785 0.8314 0.3862
C7 C 0.55176(14) 0.7224(2) 0.62876(10)
H5 H 0.6072 0.7997 0.6387
C8 C 0.54444(14) 0.6359(2) 0.68590(9)
H6 H 0.4912 0.5549 0.6766
C9 C 0.61386(13) 0.6567(2) 0.76376(9)
C10 C 0.62316(13) 0.5283(2) 0.81437(9)
H7 H 0.5842 0.4307 0.7992
C11 C 0.68959(13) 0.5429(2) 0.88734(9)
H8 H 0.6945 0.4543 0.9199
C12 C 0.74926(12) 0.6878(2) 0.91295(9)
C13 C 0.73800(13) 0.8177(2) 0.86194(9)
H9 H 0.7758 0.9163 0.8773
C14 C 0.67188(14) 0.8034(2) 0.78901(9)
H10 H 0.6660 0.8923 0.7565
B1 B 0.82962(15) 0.7000(3) 0.99355(10)
O5 O 0.88935(9) 0.83920(15) 1.02084(6)
O6 O 0.84997(10) 0.56958(16) 1.04211(6)
C15 C 0.92509(14) 0.6288(2) 1.11278(9)
C16 C 0.85763(18) 0.6681(3) 1.16315(12)
H11 H 0.8092 0.7577 1.1420
H12 H 0.9038 0.7003 1.2114
H13 H 0.8175 0.5709 1.1677
C17 C 1.00383(18) 0.4886(3) 1.14566(11)
H14 H 0.9659 0.3948 1.1565
H15 H 1.0561 0.5266 1.1906
H16 H 1.0392 0.4559 1.1106
C18 C 0.97492(13) 0.7873(2) 1.08858(9)
C19 C 0.99918(16) 0.9325(3) 1.14311(11)
H17 H 1.0226 1.0268 1.1211
H18 H 1.0546 0.9007 1.1876
H19 H 0.9357 0.9616 1.1550
C20 C 1.07349(15) 0.7519(3) 1.06508(11)
H20 H 1.0593 0.6588 1.0315
H21 H 1.1331 0.7261 1.1081
H22 H 1.0901 0.8484 1.0408
O1? O 0.2118(18) 0.612(3) 0.3069(7)
O2? O 0.3146(17) 0.813(4) 0.2850(12)
loop_
_geom_bond_atom_site_label_1
_geom_bond_atom_site_label_2
_geom_bond_site_symmetry_1
_geom_bond_site_symmetry_2
N1 O3 1_555 1_555
O4 N1 1_555 1_555
C1 N1 1_555 1_555
C2 C1 1_555 1_555
H1 C2 1_555 1_555
C3 C2 1_555 1_555
H2 C3 1_555 1_555
C4 C3 1_555 1_555
C5 C4 1_555 1_555
H3 C5 1_555 1_555
C6 C1 1_555 1_555
H4 C6 1_555 1_555
C7 C4 1_555 1_555
H5 C7 1_555 1_555
C8 C7 1_555 1_555
H6 C8 1_555 1_555
C9 C8 1_555 1_555
C10 C9 1_555 1_555
H7 C10 1_555 1_555
C11 C10 1_555 1_555
H8 C11 1_555 1_555
C12 C11 1_555 1_555
C13 C12 1_555 1_555
H9 C13 1_555 1_555
C14 C9 1_555 1_555
H10 C14 1_555 1_555
B1 C12 1_555 1_555
O5 B1 1_555 1_555
O6 B1 1_555 1_555
C15 O6 1_555 1_555
C16 C15 1_555 1_555
H11 C16 1_555 1_555
H12 C16 1_555 1_555
H13 C16 1_555 1_555
C17 C15 1_555 1_555
H14 C17 1_555 1_555
H15 C17 1_555 1_555
H16 C17 1_555 1_555
C18 O5 1_555 1_555
C19 C18 1_555 1_555
H17 C19 1_555 1_555
H18 C19 1_555 1_555
H19 C19 1_555 1_555
C20 C18 1_555 1_555
H20 C20 1_555 1_555
H21 C20 1_555 1_555
H22 C20 1_555 1_555
C5 C6 1_555 1_555
C13 C14 1_555 1_555
C15 C18 1_555 1_555

#END
