
#######################################################################
#
#                 Cambridge Crystallographic Data Centre
#                                CCDC 
#
#######################################################################
#
# If this CIF has been generated from an entry in the Cambridge 
# Structural Database, then it will include bibliographic, chemical, 
# crystal, experimental, refinement or atomic coordinate data resulting 
# from the CCDC's data processing and validation procedures.
#
#######################################################################

data_PIFZEK
_chemical_formula_moiety         'C52 H38 O4,C1 H1 Cl3'
_chemical_name_systematic        
"(S)-2,2'-bis(2-(9-anthryloxy)ethoxy)-1,1'-binaphthalene chloroform solvate"
_symmetry_cell_setting           orthorhombic
_symmetry_space_group_name_H-M   'P 21 21 21'
_symmetry_Int_Tables_number      19
_space_group_name_Hall           'P 2ac 2ab'
loop_
_symmetry_equiv_pos_site_id
_symmetry_equiv_pos_as_xyz
1 x,y,z
2 1/2+x,1/2-y,-z
3 -x,1/2+y,1/2-z
4 1/2-x,-y,1/2+z
_cell_length_a                   8.3367(4)
_cell_length_b                   15.6339(6)
_cell_length_c                   32.1238(13)
_cell_angle_alpha                90
_cell_angle_beta                 90
_cell_angle_gamma                90
_cell_volume                     4186.86
_exptl_crystal_colour            colorless
_exptl_crystal_description       prism
_chemical_melting_point          '138-139 deg.C'
_cell_formula_units_Z            4
loop_
_atom_site_label
_atom_site_type_symbol
_atom_site_fract_x
_atom_site_fract_y
_atom_site_fract_z
Cl1 Cl 0.31446(10) 0.63746(5) 0.01546(2)
Cl2 Cl 0.50134(11) 0.52018(5) 0.06472(2)
Cl3 Cl 0.62213(13) 0.68998(6) 0.04819(3)
C53 C 0.5100(3) 0.60369(17) 0.02824(8)
H39 H 0.5637 0.5822 0.0024
O1 O 0.9914(2) 0.10393(11) 0.15385(5)
O2 O 0.62004(18) -0.00492(9) 0.11610(5)
O3 O 0.8636(2) 0.05116(10) 0.23688(5)
O4 O 0.53640(18) 0.09708(9) 0.18357(5)
C1 C 0.8573(3) 0.10449(14) 0.08993(6)
C2 C 0.9144(3) 0.15126(15) 0.12374(8)
C3 C 0.8980(4) 0.24000(16) 0.12504(9)
H1 H 0.9370 0.2713 0.1483
C4 C 0.8264(4) 0.28102(17) 0.09315(9)
H2 H 0.8155 0.3414 0.0946
C5 C 0.7660(3) 0.23772(16) 0.05728(8)
C6 C 0.7810(3) 0.14670(15) 0.05618(7)
C7 C 0.7190(3) 0.10123(17) 0.02132(7)
H3 H 0.7274 0.0407 0.0203
C8 C 0.6475(3) 0.14426(19) -0.01066(8)
H4 H 0.6051 0.1138 -0.0338
C9 C 0.6367(3) 0.23602(19) -0.00914(9)
H5 H 0.5878 0.2659 -0.0316
C10 C 0.6948(3) 0.28042(18) 0.02355(9)
H6 H 0.6874 0.3411 0.0238
C11 C 0.8807(3) 0.00988(14) 0.09011(6)
C12 C 0.7614(3) -0.04265(14) 0.10413(6)
C13 C 0.7805(3) -0.13266(14) 0.10560(6)
H7 H 0.6947 -0.1680 0.1148
C14 C 0.9236(3) -0.16863(15) 0.09371(7)
H8 H 0.9366 -0.2289 0.0950
C15 C 1.0516(3) -0.11707(15) 0.07957(7)
C16 C 1.0303(3) -0.02641(15) 0.07743(6)
C17 C 1.1604(3) 0.02453(17) 0.06320(7)
H9 H 1.1481 0.0848 0.0614
C18 C 1.3036(3) -0.01220(19) 0.05209(8)
H10 H 1.3895 0.0229 0.0428
C19 C 1.3243(3) -0.1013(2) 0.05431(8)
H11 H 1.4239 -0.1261 0.0465
C20 C 1.2015(3) -0.15247(17) 0.06767(7)
H12 H 1.2169 -0.2126 0.0690
C21 C 0.5427(3) -0.03985(15) 0.15204(7)
H13 H 0.6237 -0.0573 0.1729
H14 H 0.4788 -0.0907 0.1442
C22 C 0.4358(3) 0.02802(14) 0.16968(7)
H15 H 0.3601 0.0486 0.1482
H16 H 0.3731 0.0049 0.1933
C23 C 0.4517(3) 0.16640(14) 0.19895(7)
C24 C 0.4044(3) 0.23137(15) 0.17184(7)
C25 C 0.4366(3) 0.22742(17) 0.12805(8)
H17 H 0.4941 0.1803 0.1168
C26 C 0.3843(3) 0.29185(19) 0.10232(9)
H18 H 0.4039 0.2885 0.0732
C27 C 0.3018(4) 0.3629(2) 0.11880(10)
H19 H 0.2675 0.4073 0.1006
C28 C 0.2704(3) 0.36923(18) 0.16015(9)
H20 H 0.2150 0.4179 0.1705
C29 C 0.3196(3) 0.30366(16) 0.18826(8)
C30 C 0.2829(3) 0.30602(17) 0.23068(8)
H21 H 0.2245 0.3533 0.2414
C31 C 0.3294(3) 0.24122(15) 0.25756(7)
C32 C 0.2923(3) 0.24279(17) 0.30081(8)
H22 H 0.2314 0.2890 0.3117
C33 C 0.3420(3) 0.17978(18) 0.32670(8)
H23 H 0.3140 0.1818 0.3554
C34 C 0.4359(3) 0.11044(16) 0.31125(8)
H24 H 0.4729 0.0676 0.3299
C35 C 0.4733(3) 0.10495(15) 0.26995(7)
H25 H 0.5349 0.0582 0.2599
C36 C 0.4195(3) 0.16963(14) 0.24194(7)
C37 C 1.0308(3) 0.14076(16) 0.19318(7)
H26 H 1.0617 0.2013 0.1890
H27 H 1.1247 0.1104 0.2049
C38 C 0.8962(3) 0.13681(16) 0.22371(8)
H28 H 0.9236 0.1721 0.2483
H29 H 0.7986 0.1613 0.2109
C39 C 0.9768(3) 0.01493(14) 0.26313(7)
C40 C 0.9824(3) 0.03916(14) 0.30517(7)
C41 C 0.8726(3) 0.09884(16) 0.32304(8)
H30 H 0.7955 0.1260 0.3057
C42 C 0.8764(3) 0.11757(17) 0.36438(8)
H31 H 0.8012 0.1568 0.3757
C43 C 0.9917(4) 0.07892(16) 0.39062(8)
H32 H 0.9944 0.0930 0.4194
C44 C 1.0989(3) 0.02157(16) 0.37487(8)
H33 H 1.1766 -0.0031 0.3929
C45 C 1.0971(3) -0.00211(14) 0.33204(7)
C46 C 1.1987(3) -0.06452(15) 0.31584(7)
H34 H 1.2762 -0.0903 0.3335
C47 C 1.1893(3) -0.09015(14) 0.27417(7)
C48 C 1.2906(3) -0.15544(15) 0.25742(8)
H35 H 1.3695 -0.1813 0.2746
C49 C 1.2754(3) -0.18090(15) 0.21724(7)
H36 H 1.3429 -0.2249 0.2068
C50 C 1.1603(3) -0.14279(15) 0.19082(7)
H37 H 1.1506 -0.1619 0.1629
C51 C 1.0636(3) -0.07921(14) 0.20480(7)
H38 H 0.9875 -0.0541 0.1865
C52 C 1.0749(3) -0.04965(14) 0.24686(7)
loop_
_geom_bond_atom_site_label_1
_geom_bond_atom_site_label_2
_geom_bond_site_symmetry_1
_geom_bond_site_symmetry_2
Cl1 C53 1_555 1_555
Cl2 C53 1_555 1_555
Cl3 C53 1_555 1_555
O1 C2 1_555 1_555
O2 C12 1_555 1_555
O3 C38 1_555 1_555
O4 C22 1_555 1_555
C1 C2 1_555 1_555
C2 C3 1_555 1_555
C3 H1 1_555 1_555
C4 C3 1_555 1_555
H2 C4 1_555 1_555
C5 C4 1_555 1_555
C6 C1 1_555 1_555
C7 C6 1_555 1_555
H3 C7 1_555 1_555
C8 C7 1_555 1_555
H4 C8 1_555 1_555
C9 C8 1_555 1_555
H5 C9 1_555 1_555
C10 C5 1_555 1_555
H6 C10 1_555 1_555
C11 C1 1_555 1_555
C12 C11 1_555 1_555
C13 C12 1_555 1_555
H7 C13 1_555 1_555
C14 C13 1_555 1_555
H8 C14 1_555 1_555
C15 C14 1_555 1_555
C16 C11 1_555 1_555
C17 C16 1_555 1_555
H9 C17 1_555 1_555
C18 C17 1_555 1_555
H10 C18 1_555 1_555
C19 C18 1_555 1_555
H11 C19 1_555 1_555
C20 C15 1_555 1_555
H12 C20 1_555 1_555
C21 O2 1_555 1_555
H13 C21 1_555 1_555
H14 C21 1_555 1_555
C22 C21 1_555 1_555
H15 C22 1_555 1_555
H16 C22 1_555 1_555
C23 O4 1_555 1_555
C24 C23 1_555 1_555
C25 C24 1_555 1_555
H17 C25 1_555 1_555
C26 C25 1_555 1_555
H18 C26 1_555 1_555
C27 C26 1_555 1_555
H19 C27 1_555 1_555
C28 C27 1_555 1_555
H20 C28 1_555 1_555
C29 C24 1_555 1_555
C30 C29 1_555 1_555
H21 C30 1_555 1_555
C31 C30 1_555 1_555
C32 C31 1_555 1_555
H22 C32 1_555 1_555
C33 C32 1_555 1_555
H23 C33 1_555 1_555
C34 C33 1_555 1_555
H24 C34 1_555 1_555
C35 C34 1_555 1_555
H25 C35 1_555 1_555
C36 C23 1_555 1_555
C37 O1 1_555 1_555
H26 C37 1_555 1_555
H27 C37 1_555 1_555
C38 C37 1_555 1_555
H28 C38 1_555 1_555
H29 C38 1_555 1_555
C39 O3 1_555 1_555
C40 C39 1_555 1_555
C41 C40 1_555 1_555
H30 C41 1_555 1_555
C42 C41 1_555 1_555
H31 C42 1_555 1_555
C43 C42 1_555 1_555
H32 C43 1_555 1_555
C44 C43 1_555 1_555
H33 C44 1_555 1_555
C45 C40 1_555 1_555
C46 C45 1_555 1_555
H34 C46 1_555 1_555
C47 C46 1_555 1_555
C48 C47 1_555 1_555
H35 C48 1_555 1_555
C49 C48 1_555 1_555
H36 C49 1_555 1_555
C50 C49 1_555 1_555
H37 C50 1_555 1_555
C51 C50 1_555 1_555
H38 C51 1_555 1_555
C52 C39 1_555 1_555
C53 H39 1_555 1_555
C5 C6 1_555 1_555
C9 C10 1_555 1_555
C15 C16 1_555 1_555
C19 C20 1_555 1_555
C28 C29 1_555 1_555
C31 C36 1_555 1_555
C35 C36 1_555 1_555
C44 C45 1_555 1_555
C47 C52 1_555 1_555
C51 C52 1_555 1_555

#END
