
#######################################################################
#
#                 Cambridge Crystallographic Data Centre
#                                CCDC 
#
#######################################################################
#
# If this CIF has been generated from an entry in the Cambridge 
# Structural Database, then it will include bibliographic, chemical, 
# crystal, experimental, refinement or atomic coordinate data resulting 
# from the CCDC's data processing and validation procedures.
#
#######################################################################

data_PIGBIR
_chemical_formula_moiety         'C20 H23 B1 O2'
_chemical_name_systematic        
(E)-4-(4,4,5,5-tetramethyl-1,3,2-dioxaborolan-2-yl)stilbene
_symmetry_cell_setting           tetragonal
_symmetry_space_group_name_H-M   'P 42/n'
_symmetry_Int_Tables_number      86
_space_group_name_Hall           '-P 4bc'
loop_
_symmetry_equiv_pos_site_id
_symmetry_equiv_pos_as_xyz
1 x,y,z
2 -y,1/2+x,1/2+z
3 1/2+y,-x,1/2+z
4 1/2-x,1/2-y,z
5 -x,-y,-z
6 y,1/2-x,1/2-z
7 1/2-y,x,1/2-z
8 1/2+x,1/2+y,-z
_cell_length_a                   33.335(5)
_cell_length_b                   33.335(5)
_cell_length_c                   6.1898(8)
_cell_angle_alpha                90
_cell_angle_beta                 90
_cell_angle_gamma                90
_cell_volume                     6878.24
_exptl_crystal_colour            colorless
_exptl_crystal_description       needle
_chemical_melting_point          '123-125 deg.C'
_cell_formula_units_Z            16
_exptl_crystal_recrystallization_method 
'petroleum ether/perfluoromethylcyclohexane'
loop_
_atom_site_label
_atom_site_type_symbol
_atom_site_fract_x
_atom_site_fract_y
_atom_site_fract_z
O1 O 0.35721(3) -0.15057(3) 0.6037(2)
O4 O 0.30962(4) -0.14475(4) 0.8680(2)
C3 C 0.30860(5) -0.09165(5) 0.5661(3)
C4 C 0.27579(5) -0.07012(5) 0.6488(4)
H1 H 0.2655 -0.0767 0.7840
C6 C 0.36718(5) -0.18102(5) 0.7659(3)
C7 C 0.38045(6) -0.21886(6) 0.6513(4)
H5 H 0.3586 -0.2292 0.5666
H6 H 0.3884 -0.2385 0.7561
H7 H 0.4027 -0.2129 0.5584
C8 C 0.19961(6) 0.04757(5) 0.0638(4)
C9 C 0.25840(5) -0.03903(5) 0.5312(4)
H8 H 0.2368 -0.0251 0.5895
C10 C 0.32356(5) -0.07944(5) 0.3660(4)
H9 H 0.3459 -0.0925 0.3093
C11 C 0.21423(5) 0.05749(5) -0.1412(4)
H10 H 0.2373 0.0450 -0.1928
C13 C 0.30625(6) -0.04852(6) 0.2490(4)
H14 H 0.3172 -0.0411 0.1166
C14 C 0.40109(6) -0.16416(6) 0.9007(4)
H15 H 0.3922 -0.1402 0.9723
H16 H 0.4234 -0.1580 0.8088
H17 H 0.4091 -0.1836 1.0065
C15 C 0.32722(5) -0.18483(5) 0.8940(3)
C16 C 0.21864(6) 0.01871(6) 0.2113(4)
H18 H 0.2045 0.0120 0.3356
C18 C 0.27282(6) -0.02849(5) 0.3275(4)
C20 C 0.16053(6) 0.10428(6) -0.1937(4)
H23 H 0.1475 0.1233 -0.2785
C22 C 0.29761(6) -0.21387(6) 0.7924(4)
H25 H 0.2946 -0.2077 0.6418
H26 H 0.2721 -0.2115 0.8632
H27 H 0.3074 -0.2408 0.8081
C23 C 0.33249(6) -0.19383(6) 1.1312(4)
H28 H 0.3513 -0.1752 1.1927
H29 H 0.3424 -0.2207 1.1483
H30 H 0.3071 -0.1913 1.2034
C28 C 0.25372(6) 0.00151(6) 0.1844(4)
H36 H 0.2681 0.0090 0.0621
C31 C 0.19478(5) 0.08570(5) -0.2687(4)
H39 H 0.2048 0.0921 -0.4046
C32 C 0.16485(6) 0.06670(6) 0.1344(4)
H40 H 0.1544 0.0605 0.2696
B1 B 0.32561(6) -0.12894(6) 0.6838(4)
C35 C 0.14572(6) 0.09459(6) 0.0078(4)
H43 H 0.1226 0.1070 0.0583
O2 O 0.45861(3) -0.03050(3) 1.3407(2)
O3 O 0.44346(3) -0.07960(3) 1.0959(2)
C1 C 0.49083(5) -0.06045(5) 1.3599(3)
C2 C 0.47135(5) -0.09786(5) 1.2509(3)
C5 C 0.50129(6) -0.06565(6) 1.5954(3)
H2 H 0.4785 -0.0763 1.6714
H3 H 0.5085 -0.0401 1.6559
H4 H 0.5235 -0.0838 1.6087
C12 C 0.50028(6) -0.12426(6) 1.1275(4)
H11 H 0.5157 -0.1081 1.0297
H12 H 0.4855 -0.1440 1.0474
H13 H 0.5180 -0.1374 1.2272
C17 C 0.44658(6) -0.12272(6) 1.4073(4)
H19 H 0.4287 -0.1055 1.4855
H20 H 0.4641 -0.1361 1.5070
H21 H 0.4313 -0.1423 1.3283
C19 C 0.39363(6) 0.02319(6) 1.1518(4)
H22 H 0.4042 0.0303 1.2855
C21 C 0.38709(6) -0.02322(7) 0.8614(4)
H24 H 0.3930 -0.0478 0.7980
C24 C 0.40410(5) -0.01372(5) 1.0605(4)
C25 C 0.23639(6) 0.17178(6) 0.3383(4)
H31 H 0.2187 0.1895 0.2724
C26 C 0.25134(6) 0.17986(7) 0.5402(4)
H32 H 0.2441 0.2035 0.6100
C27 C 0.52647(5) -0.04375(6) 1.2360(4)
H33 H 0.5194 -0.0406 1.0866
H34 H 0.5487 -0.0619 1.2481
H35 H 0.5338 -0.0182 1.2950
C29 C 0.36160(6) 0.00303(8) 0.7555(4)
H37 H 0.3509 -0.0041 0.6222
C30 C 0.24784(6) 0.13705(6) 0.2338(4)
H38 H 0.2383 0.1315 0.0959
C33 C 0.36794(6) 0.04916(7) 1.0470(5)
H41 H 0.3613 0.0734 1.1127
C34 C 0.27697(7) 0.15346(8) 0.6403(4)
H42 H 0.2870 0.1595 0.7767
C36 C 0.35176(6) 0.04022(8) 0.8472(6)
C37 C 0.27345(6) 0.11083(6) 0.3346(5)
H44 H 0.2812 0.0876 0.2625
C38 C 0.28816(6) 0.11783(7) 0.5402(6)
B2 B 0.43542(6) -0.04175(6) 1.1695(4)
C39 C 0.32609(15) 0.0603(3) 0.6705(13)
H45 H 0.3205 0.0477 0.5400
C40 C 0.31265(16) 0.0961(3) 0.7149(13)
H46 H 0.3177 0.1080 0.8479
C41? C 0.31354(15) 0.0810(2) 0.5866(16)
H47? H 0.3197 0.0624 0.4795
C42? C 0.32668(16) 0.0766(2) 0.7920(15)
H48? H 0.3204 0.0956 0.8969
loop_
_geom_bond_atom_site_label_1
_geom_bond_atom_site_label_2
_geom_bond_site_symmetry_1
_geom_bond_site_symmetry_2
O1 C6 1_555 1_555
O2 C1 1_555 1_555
O3 C2 1_555 1_555
O4 C15 1_555 1_555
C1 C2 1_555 1_555
C2 C12 1_555 1_555
C3 C4 1_555 1_555
C4 H1 1_555 1_555
C5 C1 1_555 1_555
H2 C5 1_555 1_555
H3 C5 1_555 1_555
H4 C5 1_555 1_555
C6 C7 1_555 1_555
C7 H5 1_555 1_555
H6 C7 1_555 1_555
H7 C7 1_555 1_555
C8 C11 1_555 1_555
C9 C4 1_555 1_555
H8 C9 1_555 1_555
C10 C3 1_555 1_555
H9 C10 1_555 1_555
C11 H10 1_555 1_555
C12 H11 1_555 1_555
H12 C12 1_555 1_555
H13 C12 1_555 1_555
C13 C10 1_555 1_555
H14 C13 1_555 1_555
C14 C6 1_555 1_555
H15 C14 1_555 1_555
H16 C14 1_555 1_555
H17 C14 1_555 1_555
C15 C6 1_555 1_555
C16 C8 1_555 1_555
H18 C16 1_555 1_555
C17 C2 1_555 1_555
H19 C17 1_555 1_555
H20 C17 1_555 1_555
H21 C17 1_555 1_555
C18 C9 1_555 1_555
C19 H22 1_555 1_555
C20 H23 1_555 1_555
C21 H24 1_555 1_555
C22 C15 1_555 1_555
H25 C22 1_555 1_555
H26 C22 1_555 1_555
H27 C22 1_555 1_555
C23 C15 1_555 1_555
H28 C23 1_555 1_555
H29 C23 1_555 1_555
H30 C23 1_555 1_555
C24 C19 1_555 1_555
C25 H31 1_555 1_555
C26 C25 1_555 1_555
H32 C26 1_555 1_555
C27 C1 1_555 1_555
H33 C27 1_555 1_555
H34 C27 1_555 1_555
H35 C27 1_555 1_555
C28 C16 1_555 1_555
H36 C28 1_555 1_555
C29 C21 1_555 1_555
H37 C29 1_555 1_555
C30 C25 1_555 1_555
H38 C30 1_555 1_555
C31 C11 1_555 1_555
H39 C31 1_555 1_555
C32 C8 1_555 1_555
H40 C32 1_555 1_555
C33 C19 1_555 1_555
H41 C33 1_555 1_555
C34 C26 1_555 1_555
H42 C34 1_555 1_555
B1 O1 1_555 1_555
C35 C20 1_555 1_555
H43 C35 1_555 1_555
C36 C29 1_555 1_555
C37 C30 1_555 1_555
H44 C37 1_555 1_555
C38 C34 1_555 1_555
B2 O2 1_555 1_555
C39 C36 1_555 1_555
H45 C39 1_555 1_555
C40 C38 1_555 1_555
H46 C40 1_555 1_555
O3 B2 1_555 1_555
O4 B1 1_555 1_555
C3 B1 1_555 1_555
C13 C18 1_555 1_555
C18 C28 1_555 1_555
C20 C31 1_555 1_555
C21 C24 1_555 1_555
C24 B2 1_555 1_555
C32 C35 1_555 1_555
C33 C36 1_555 1_555
C37 C38 1_555 1_555
C39 C40 1_555 1_555

#END
