
#######################################################################
#
#                 Cambridge Crystallographic Data Centre
#                                CCDC 
#
#######################################################################
#
# If this CIF has been generated from an entry in the Cambridge 
# Structural Database, then it will include bibliographic, chemical, 
# crystal, experimental, refinement or atomic coordinate data resulting 
# from the CCDC's data processing and validation procedures.
#
#######################################################################

data_PIGDIV
_chemical_formula_moiety         'C23 H19 Cl1 N4 O2,C3 H7 N1 O1'
_chemical_name_systematic        
"N,N-dimethylformamide solvate 5-chloro-8',8'-dimethyl-1',6',8',9'-tetrahydrospiro[indole-3,11'-pyrazolo[3,4-a]acridine]-2,10'(1H,7'H)-dione"
_symmetry_cell_setting           orthorhombic
_symmetry_space_group_name_H-M   'P b c a'
_symmetry_Int_Tables_number      61
_space_group_name_Hall           '-P 2ac 2ab'
loop_
_symmetry_equiv_pos_site_id
_symmetry_equiv_pos_as_xyz
1 x,y,z
2 1/2-x,-y,1/2+z
3 -x,1/2+y,1/2-z
4 1/2+x,1/2-y,-z
5 -x,-y,-z
6 1/2+x,y,1/2-z
7 x,1/2-y,1/2+z
8 1/2-x,1/2+y,z
_cell_length_a                   14.2428(5)
_cell_length_b                   17.6325(6)
_cell_length_c                   19.6700(7)
_cell_angle_alpha                90
_cell_angle_beta                 90
_cell_angle_gamma                90
_cell_volume                     4939.85
_exptl_crystal_colour            orange
_exptl_crystal_description       block
_cell_formula_units_Z            8
loop_
_atom_site_label
_atom_site_type_symbol
_atom_site_fract_x
_atom_site_fract_y
_atom_site_fract_z
Cl1 Cl 0.44160(4) 0.10715(3) 0.51080(3)
O1 O 0.57764(7) 0.26442(6) 0.25468(6)
O2 O 0.53102(8) 0.44094(6) 0.28068(6)
N1 N 0.59109(9) 0.37528(7) 0.37184(6)
H1 H 0.641074 0.401585 0.378598
N2 N 0.25618(9) 0.31474(8) 0.27565(7)
H2 H 0.200872 0.301468 0.262750
N3 N 0.42590(9) 0.46349(8) 0.44702(7)
H3 H 0.483833 0.451001 0.441877
N4 N 0.39476(10) 0.51579(8) 0.49330(7)
C1 C 0.47868(11) 0.28432(9) 0.38873(8)
C2 C 0.35400(11) 0.43373(9) 0.41022(8)
C3 C 0.35308(10) 0.37915(9) 0.35761(8)
C4 C 0.41999(10) 0.29654(9) 0.26621(8)
C5 C 0.44035(10) 0.33627(9) 0.33333(8)
C6 C 0.49764(11) 0.26460(8) 0.22960(8)
C7 C 0.56708(10) 0.31046(9) 0.40905(8)
C8 C 0.52534(11) 0.39157(9) 0.32350(8)
C9 C 0.26501(11) 0.36441(9) 0.33056(8)
C10 C 0.27185(11) 0.46963(9) 0.43402(8)
C11 C 0.33102(11) 0.28686(8) 0.24214(8)
C12 C 0.43946(11) 0.22137(9) 0.41883(8)
H4 H 0.380574 0.203715 0.405904
C13 C 0.18427(11) 0.45208(9) 0.40503(8)
H5 H 0.129596 0.475273 0.420396
C14 C 0.61824(11) 0.27393(10) 0.45891(8)
H6 H 0.677100 0.291572 0.471902
C15 C 0.18176(11) 0.40001(9) 0.35370(8)
H7 H 0.124614 0.387749 0.333638
C16 C 0.38545(11) 0.19246(10) 0.15297(9)
C17 C 0.57913(12) 0.20995(10) 0.48915(8)
H8 H 0.612076 0.183914 0.522643
C18 C 0.30972(11) 0.24836(9) 0.17574(8)
H9 H 0.302044 0.286747 0.140853
H10 H 0.250593 0.221457 0.179930
C19 C 0.30304(12) 0.51957(10) 0.48548(9)
H11 H 0.263819 0.551079 0.510604
C20 C 0.48046(11) 0.23260(10) 0.15964(8)
H12 H 0.530066 0.196875 0.148858
H13 H 0.483432 0.273479 0.126707
C21 C 0.49111(12) 0.18512(9) 0.46928(8)
C22 C 0.36816(13) 0.16975(12) 0.07908(10)
H14 H 0.309252 0.143566 0.075671
H15 H 0.417825 0.137021 0.063970
H16 H 0.366546 0.214380 0.051151
C23 C 0.38383(13) 0.12170(10) 0.19796(11)
H17 H 0.397271 0.135754 0.244100
H18 H 0.430325 0.086364 0.182303
H19 H 0.322888 0.098582 0.195720
O3 O 0.77389(8) 0.43815(7) 0.36517(6)
N5 N 0.84726(10) 0.52355(8) 0.29634(7)
C24 C 0.78011(11) 0.47422(9) 0.31154(8)
H20 H 0.733777 0.466112 0.279029
C25 C 0.84980(13) 0.56206(10) 0.23087(9)
H21 H 0.905135 0.547013 0.206491
H22 H 0.850822 0.615919 0.237954
H23 H 0.795104 0.548621 0.205017
C26 C 0.92320(13) 0.53965(13) 0.34348(10)
H24 H 0.910744 0.515267 0.386178
H25 H 0.927856 0.593432 0.350280
H26 H 0.981185 0.520887 0.325146
loop_
_geom_bond_atom_site_label_1
_geom_bond_atom_site_label_2
_geom_bond_site_symmetry_1
_geom_bond_site_symmetry_2
Cl1 C21 1_555 1_555
O1 C6 1_555 1_555
O2 C8 1_555 1_555
N1 H1 1_555 1_555
N2 H2 1_555 1_555
N3 H3 1_555 1_555
N4 N3 1_555 1_555
C1 C5 1_555 1_555
C2 N3 1_555 1_555
C3 C2 1_555 1_555
C4 C5 1_555 1_555
C5 C3 1_555 1_555
C6 C4 1_555 1_555
C7 N1 1_555 1_555
C8 N1 1_555 1_555
C9 N2 1_555 1_555
C10 C2 1_555 1_555
C11 N2 1_555 1_555
C12 C1 1_555 1_555
H4 C12 1_555 1_555
C13 C10 1_555 1_555
H5 C13 1_555 1_555
C14 C7 1_555 1_555
H6 C14 1_555 1_555
C15 C9 1_555 1_555
H7 C15 1_555 1_555
C16 C18 1_555 1_555
C17 C14 1_555 1_555
H8 C17 1_555 1_555
C18 C11 1_555 1_555
H9 C18 1_555 1_555
H10 C18 1_555 1_555
C19 N4 1_555 1_555
H11 C19 1_555 1_555
C20 C6 1_555 1_555
H12 C20 1_555 1_555
H13 C20 1_555 1_555
C21 C12 1_555 1_555
C22 C16 1_555 1_555
H14 C22 1_555 1_555
H15 C22 1_555 1_555
H16 C22 1_555 1_555
C23 C16 1_555 1_555
H17 C23 1_555 1_555
H18 C23 1_555 1_555
H19 C23 1_555 1_555
O3 C24 1_555 1_555
N5 C24 1_555 1_555
C24 H20 1_555 1_555
C25 N5 1_555 1_555
H21 C25 1_555 1_555
H22 C25 1_555 1_555
H23 C25 1_555 1_555
C26 N5 1_555 1_555
H24 C26 1_555 1_555
H25 C26 1_555 1_555
H26 C26 1_555 1_555
C1 C7 1_555 1_555
C3 C9 1_555 1_555
C4 C11 1_555 1_555
C5 C8 1_555 1_555
C10 C19 1_555 1_555
C13 C15 1_555 1_555
C16 C20 1_555 1_555
C17 C21 1_555 1_555

#END
