
#######################################################################
#
#                 Cambridge Crystallographic Data Centre
#                                CCDC 
#
#######################################################################
#
# If this CIF has been generated from an entry in the Cambridge 
# Structural Database, then it will include bibliographic, chemical, 
# crystal, experimental, refinement or atomic coordinate data resulting 
# from the CCDC's data processing and validation procedures.
#
#######################################################################

data_PIGGOE
_chemical_formula_moiety         'C20 H16 N2 O2'
_chemical_name_systematic        '2-(4-methoxyphenyl)-7-methylphenazine 5-oxide'
_symmetry_cell_setting           orthorhombic
_symmetry_space_group_name_H-M   'P b c a'
_symmetry_Int_Tables_number      61
_space_group_name_Hall           '-P 2ac 2ab'
loop_
_symmetry_equiv_pos_site_id
_symmetry_equiv_pos_as_xyz
1 x,y,z
2 1/2-x,-y,1/2+z
3 -x,1/2+y,1/2-z
4 1/2+x,1/2-y,-z
5 -x,-y,-z
6 1/2+x,y,1/2-z
7 x,1/2-y,1/2+z
8 1/2-x,1/2+y,z
_cell_length_a                   11.6407(10)
_cell_length_b                   7.2754(3)
_cell_length_c                   36.0753(19)
_cell_angle_alpha                90
_cell_angle_beta                 90
_cell_angle_gamma                90
_cell_volume                     3055.24
_exptl_crystal_colour            yellow
_exptl_crystal_description       needle
_cell_formula_units_Z            8
loop_
_atom_site_label
_atom_site_type_symbol
_atom_site_fract_x
_atom_site_fract_y
_atom_site_fract_z
O1 O 0.66555(16) 0.8444(2) 0.84113(5)
O2 O 0.48883(15) 0.6133(3) 0.55781(5)
N1 N 0.58568(18) 0.6525(3) 0.57286(6)
N2 N 0.79939(19) 0.7322(3) 0.60709(6)
C1 C 0.6064(2) 0.7702(3) 0.68650(7)
C2 C 0.6406(2) 0.8290(3) 0.80426(6)
C3 C 0.6857(2) 0.6507(3) 0.55260(7)
C4 C 0.5908(2) 0.6960(3) 0.61011(7)
C5 C 0.6143(2) 0.7995(3) 0.72713(7)
C6 C 0.6993(2) 0.7327(3) 0.62619(7)
C7 C 0.7198(2) 0.9106(3) 0.78043(7)
H1 H 0.7815 0.9760 0.7901
C8 C 0.7070(2) 0.8950(3) 0.74255(7)
H2 H 0.7610 0.9489 0.7270
C9 C 0.5459(2) 0.7390(3) 0.78966(7)
H3 H 0.4908 0.6886 0.8053
C10 C 0.7905(2) 0.6913(3) 0.57055(7)
C11 C 0.7028(2) 0.7684(3) 0.66472(7)
H4 H 0.7735 0.7916 0.6757
C12 C 0.4902(2) 0.7013(3) 0.63171(7)
H5 H 0.4189 0.6803 0.6208
C13 C 0.7817(2) 0.6007(3) 0.49438(7)
C14 C 0.5341(2) 0.7249(3) 0.75147(7)
H6 H 0.4707 0.6636 0.7419
C15 C 0.4981(2) 0.7377(3) 0.66889(7)
H7 H 0.4314 0.7414 0.6831
C16 C 0.6823(2) 0.6040(3) 0.51425(7)
H8 H 0.6127 0.5760 0.5029
C17 C 0.8917(2) 0.6888(4) 0.54865(7)
H9 H 0.9620 0.7171 0.5595
C18 C 0.8869(2) 0.6456(4) 0.51200(7)
H10 H 0.9543 0.6454 0.4982
C19 C 0.7836(3) 0.5472(4) 0.45415(7)
H11 H 0.8276 0.4366 0.4512
H12 H 0.8179 0.6441 0.4399
H13 H 0.7064 0.5267 0.4457
C20 C 0.5936(3) 0.7476(4) 0.86652(7)
H14 H 0.5962 0.6185 0.8611
H15 H 0.5161 0.7910 0.8642
H16 H 0.6202 0.7682 0.8914
loop_
_geom_bond_atom_site_label_1
_geom_bond_atom_site_label_2
_geom_bond_site_symmetry_1
_geom_bond_site_symmetry_2
O1 C2 1_555 1_555
O2 N1 1_555 1_555
N1 C3 1_555 1_555
N2 C6 1_555 1_555
C1 C5 1_555 1_555
C2 C7 1_555 1_555
C3 C10 1_555 1_555
C4 N1 1_555 1_555
C5 C8 1_555 1_555
C6 C4 1_555 1_555
C7 H1 1_555 1_555
C8 C7 1_555 1_555
H2 C8 1_555 1_555
C9 C2 1_555 1_555
H3 C9 1_555 1_555
C10 N2 1_555 1_555
C11 C1 1_555 1_555
H4 C11 1_555 1_555
C12 C4 1_555 1_555
H5 C12 1_555 1_555
C13 C16 1_555 1_555
C14 C5 1_555 1_555
H6 C14 1_555 1_555
C15 C1 1_555 1_555
H7 C15 1_555 1_555
C16 C3 1_555 1_555
H8 C16 1_555 1_555
C17 C10 1_555 1_555
H9 C17 1_555 1_555
C18 C13 1_555 1_555
H10 C18 1_555 1_555
C19 C13 1_555 1_555
H11 C19 1_555 1_555
H12 C19 1_555 1_555
H13 C19 1_555 1_555
C20 O1 1_555 1_555
H14 C20 1_555 1_555
H15 C20 1_555 1_555
H16 C20 1_555 1_555
C6 C11 1_555 1_555
C9 C14 1_555 1_555
C12 C15 1_555 1_555
C17 C18 1_555 1_555

#END
