
#######################################################################
#
#                 Cambridge Crystallographic Data Centre
#                                CCDC 
#
#######################################################################
#
# If this CIF has been generated from an entry in the Cambridge 
# Structural Database, then it will include bibliographic, chemical, 
# crystal, experimental, refinement or atomic coordinate data resulting 
# from the CCDC's data processing and validation procedures.
#
#######################################################################

data_PIGJOH
_chemical_formula_moiety         'C43 H47 N1 O2 Si1'
_chemical_name_systematic        
5-benzyl-1-methyl-7,7-diphenyl-2-{[tris(propan-2-yl)silyl]oxy}-5,7-dihydro-6H-dibenzo[b,d]azepin-6-one
_symmetry_cell_setting           triclinic
_symmetry_space_group_name_H-M   'P 1'
_symmetry_Int_Tables_number      1
_space_group_name_Hall           'P 1'
loop_
_symmetry_equiv_pos_site_id
_symmetry_equiv_pos_as_xyz
1 x,y,z
_cell_length_a                   9.0779(3)
_cell_length_b                   9.5988(3)
_cell_length_c                   10.7037(4)
_cell_angle_alpha                80.597(3)
_cell_angle_beta                 78.648(3)
_cell_angle_gamma                80.894(3)
_cell_volume                     894.455
_exptl_crystal_colour            colorless
_exptl_crystal_description       irregular
_cell_formula_units_Z            1
loop_
_atom_site_label
_atom_site_type_symbol
_atom_site_fract_x
_atom_site_fract_y
_atom_site_fract_z
Si1 Si 0.47793(11) 0.09327(10) 0.76792(9)
O1 O 0.3724(4) 0.7725(3) 0.0920(3)
O2 O 0.5018(4) 0.2593(3) 0.6990(3)
N1 N 0.4574(4) 0.5770(4) 0.2195(3)
C1 C 0.3764(4) 0.7095(4) 0.2000(4)
C2 C 0.3066(5) 0.7835(4) 0.3218(4)
C3 C 0.4546(4) 0.8154(4) 0.3545(4)
C4 C 0.5072(5) 0.9472(4) 0.3094(4)
H1 H 0.444641 1.021792 0.267629
C5 C 0.6491(5) 0.9708(5) 0.3247(4)
H2 H 0.682738 1.060976 0.293858
C6 C 0.7426(5) 0.8617(5) 0.3855(4)
H3 H 0.839298 0.877498 0.397419
C7 C 0.6924(5) 0.7303(4) 0.4282(4)
H4 H 0.755545 0.656284 0.470109
C8 C 0.5513(4) 0.7042(4) 0.4112(4)
C9 C 0.5152(4) 0.5558(4) 0.4396(4)
C10 C 0.5220(5) 0.4746(5) 0.5604(4)
C11 C 0.4971(5) 0.3318(5) 0.5792(4)
C12 C 0.4666(5) 0.2708(5) 0.4793(4)
H5 H 0.455301 0.172546 0.491386
C13 C 0.4528(5) 0.3532(5) 0.3621(4)
H6 H 0.427497 0.311917 0.295552
C14 C 0.4755(4) 0.4953(4) 0.3411(4)
C15 C 0.5486(5) 0.5210(5) 0.1035(4)
H7 H 0.502294 0.565141 0.027639
H8 H 0.546393 0.416917 0.113130
C16 C 0.7119(5) 0.5499(5) 0.0800(4)
C17 C 0.8274(6) 0.4502(6) 0.0298(6)
H9 H 0.803622 0.362901 0.012970
C18 C 0.9769(6) 0.4768(7) 0.0039(7)
H10 H 1.054462 0.408560 -0.031970
C19 C 1.0136(6) 0.6018(7) 0.0300(5)
H11 H 1.116374 0.618456 0.015146
C20 C 0.8987(6) 0.7031(7) 0.0783(6)
H12 H 0.922351 0.790848 0.094188
C21 C 0.7496(6) 0.6759(6) 0.1033(5)
H13 H 0.671779 0.745314 0.137014
C22 C 0.1973(4) 0.9216(5) 0.2946(4)
C23 C 0.1706(5) 1.0205(5) 0.3807(5)
H14 H 0.223687 1.004194 0.450951
C24 C 0.0674(6) 1.1428(5) 0.3657(6)
H15 H 0.051916 1.209953 0.424673
C25 C -0.0127(6) 1.1673(6) 0.2653(6)
H16 H -0.082595 1.251260 0.254407
C26 C 0.0099(5) 1.0685(6) 0.1814(5)
H17 H -0.045944 1.084217 0.112949
C27 C 0.1137(5) 0.9456(5) 0.1952(4)
H18 H 0.127424 0.878051 0.136837
C28 C 0.2116(4) 0.6913(4) 0.4291(4)
C29 C 0.2004(5) 0.7064(5) 0.5578(4)
H19 H 0.258829 0.768984 0.580672
C30 C 0.1046(6) 0.6308(6) 0.6536(5)
H20 H 0.097204 0.642965 0.741026
C31 C 0.0202(5) 0.5380(6) 0.6218(6)
H21 H -0.043768 0.485075 0.687235
C32 C 0.0298(5) 0.5230(5) 0.4940(6)
H22 H -0.028212 0.459513 0.471839
C33 C 0.1238(5) 0.6000(5) 0.3974(5)
H23 H 0.127920 0.590187 0.309817
C34 C 0.5450(6) 0.5375(5) 0.6748(4)
H24 H 0.466685 0.512664 0.748848
H25 H 0.537889 0.641370 0.653883
H26 H 0.645189 0.499276 0.695697
C35 C 0.6394(5) -0.0349(5) 0.6968(4)
H27 H 0.606572 -0.066650 0.623313
C36 C 0.7836(6) 0.0338(8) 0.6409(6)
H28 H 0.763296 0.110330 0.571301
H29 H 0.864060 -0.038147 0.607015
H30 H 0.815666 0.073284 0.708540
C37 C 0.6739(7) -0.1700(6) 0.7915(6)
H31 H 0.716056 -0.145064 0.861192
H32 H 0.747309 -0.239172 0.746026
H33 H 0.580107 -0.211566 0.827454
C38 C 0.2945(5) 0.0475(5) 0.7362(5)
H34 H 0.317747 0.020129 0.647523
C39 C 0.2398(6) -0.0827(6) 0.8257(5)
H35 H 0.317777 -0.165257 0.815562
H36 H 0.146151 -0.102679 0.803698
H37 H 0.220610 -0.063599 0.915031
C40 C 0.1664(7) 0.1731(7) 0.7341(8)
H38 H 0.135423 0.201450 0.820342
H39 H 0.079742 0.144241 0.707491
H40 H 0.202489 0.253575 0.673264
C41 C 0.4792(5) 0.1045(5) 0.9424(4)
H41 H 0.464063 0.008970 0.992766
C42 C 0.6316(6) 0.1406(6) 0.9602(5)
H42 H 0.711862 0.063830 0.935836
H43 H 0.626998 0.151097 1.050506
H44 H 0.653362 0.229987 0.905694
C43 C 0.3505(6) 0.2137(6) 0.9976(5)
H45 H 0.363471 0.308683 0.950335
H46 H 0.352816 0.213937 1.088694
H47 H 0.252963 0.188258 0.988909
loop_
_geom_bond_atom_site_label_1
_geom_bond_atom_site_label_2
_geom_bond_site_symmetry_1
_geom_bond_site_symmetry_2
Si1 O2 1_555 1_555
O1 C1 1_555 1_555
O2 C11 1_555 1_555
N1 C1 1_555 1_555
C1 C2 1_555 1_555
C2 C3 1_555 1_555
C3 C4 1_555 1_555
C4 H1 1_555 1_555
C5 C4 1_555 1_555
H2 C5 1_555 1_555
C6 C5 1_555 1_555
H3 C6 1_555 1_555
C7 C6 1_555 1_555
H4 C7 1_555 1_555
C8 C3 1_555 1_555
C9 C8 1_555 1_555
C10 C9 1_555 1_555
C11 C10 1_555 1_555
C12 C11 1_555 1_555
H5 C12 1_555 1_555
C13 C12 1_555 1_555
H6 C13 1_555 1_555
C14 N1 1_555 1_555
C15 N1 1_555 1_555
H7 C15 1_555 1_555
H8 C15 1_555 1_555
C16 C15 1_555 1_555
C17 C16 1_555 1_555
H9 C17 1_555 1_555
C18 C17 1_555 1_555
H10 C18 1_555 1_555
C19 C18 1_555 1_555
H11 C19 1_555 1_555
C20 C19 1_555 1_555
H12 C20 1_555 1_555
C21 C16 1_555 1_555
H13 C21 1_555 1_555
C22 C2 1_555 1_555
C23 C22 1_555 1_555
H14 C23 1_555 1_555
C24 C23 1_555 1_555
H15 C24 1_555 1_555
C25 C24 1_555 1_555
H16 C25 1_555 1_555
C26 C25 1_555 1_555
H17 C26 1_555 1_555
C27 C22 1_555 1_555
H18 C27 1_555 1_555
C28 C2 1_555 1_555
C29 C28 1_555 1_555
H19 C29 1_555 1_555
C30 C29 1_555 1_555
H20 C30 1_555 1_555
C31 C30 1_555 1_555
H21 C31 1_555 1_555
C32 C31 1_555 1_555
H22 C32 1_555 1_555
C33 C28 1_555 1_555
H23 C33 1_555 1_555
C34 C10 1_555 1_555
H24 C34 1_555 1_555
H25 C34 1_555 1_555
H26 C34 1_555 1_555
C35 Si1 1_555 1_555
H27 C35 1_555 1_555
C36 C35 1_555 1_555
H28 C36 1_555 1_555
H29 C36 1_555 1_555
H30 C36 1_555 1_555
C37 C35 1_555 1_555
H31 C37 1_555 1_555
H32 C37 1_555 1_555
H33 C37 1_555 1_555
C38 Si1 1_555 1_555
H34 C38 1_555 1_555
C39 C38 1_555 1_555
H35 C39 1_555 1_555
H36 C39 1_555 1_555
H37 C39 1_555 1_555
C40 C38 1_555 1_555
H38 C40 1_555 1_555
H39 C40 1_555 1_555
H40 C40 1_555 1_555
C41 Si1 1_555 1_555
H41 C41 1_555 1_555
C42 C41 1_555 1_555
H42 C42 1_555 1_555
H43 C42 1_555 1_555
H44 C42 1_555 1_555
C43 C41 1_555 1_555
H45 C43 1_555 1_555
H46 C43 1_555 1_555
H47 C43 1_555 1_555
C7 C8 1_555 1_555
C9 C14 1_555 1_555
C13 C14 1_555 1_555
C20 C21 1_555 1_555
C26 C27 1_555 1_555
C32 C33 1_555 1_555

#END
