
#######################################################################
#
#                 Cambridge Crystallographic Data Centre
#                                CCDC 
#
#######################################################################
#
# If this CIF has been generated from an entry in the Cambridge 
# Structural Database, then it will include bibliographic, chemical, 
# crystal, experimental, refinement or atomic coordinate data resulting 
# from the CCDC's data processing and validation procedures.
#
#######################################################################

data_PIGKEW
_chemical_formula_moiety         'C20 H22 O3'
_chemical_name_systematic        
"Ethyl 1-oxo-3,4,4',5',6',6a'-hexahydro-1H,3a'H-spiro(naphthalene-2,1'-pentalene)-3'-carboxylate"
_symmetry_cell_setting           monoclinic
_symmetry_space_group_name_H-M   'P 21/n'
_symmetry_Int_Tables_number      14
_space_group_name_Hall           '-P 2yn'
loop_
_symmetry_equiv_pos_site_id
_symmetry_equiv_pos_as_xyz
1 x,y,z
2 1/2-x,1/2+y,1/2-z
3 -x,-y,-z
4 1/2+x,1/2-y,1/2+z
_cell_length_a                   16.3784(17)
_cell_length_b                   6.4995(6)
_cell_length_c                   16.8446(17)
_cell_angle_alpha                90
_cell_angle_beta                 111.877(2)
_cell_angle_gamma                90
_cell_volume                     1664
_exptl_crystal_colour            colorless
_cell_formula_units_Z            4
loop_
_atom_site_label
_atom_site_type_symbol
_atom_site_fract_x
_atom_site_fract_y
_atom_site_fract_z
O1 O -0.02960(8) 0.23611(19) 0.07019(8)
O2 O -0.05680(9) 0.2956(3) 0.37293(9)
O3 O 0.08688(8) 0.2303(2) 0.42081(7)
C1 C 0.03601(11) 0.1374(3) 0.10899(9)
C2 C 0.12052(11) 0.1789(3) 0.09820(9)
C3 C 0.12718(13) 0.3544(3) 0.05324(11)
H1 H 0.0788 0.4409 0.0302
C4 C 0.20370(15) 0.4008(3) 0.04257(13)
H2 H 0.2078 0.5198 0.0137
C5 C 0.27495(15) 0.2704(4) 0.07484(14)
H3 H 0.3270 0.3006 0.0671
C6 C 0.26900(13) 0.0960(3) 0.11839(12)
H4 H 0.3173 0.0086 0.1395
C7 C 0.19240(11) 0.0473(3) 0.13153(10)
C8 C 0.18734(11) -0.1401(3) 0.18109(11)
H5 H 0.2168 -0.1121 0.2417
H6 H 0.2184 -0.2519 0.1665
C9 C 0.09408(12) -0.2073(3) 0.16415(11)
H7 H 0.0950 -0.3152 0.2043
H8 H 0.0689 -0.2647 0.1070
C10 C 0.03537(10) -0.0316(2) 0.17214(9)
C11 C 0.06553(11) 0.0693(2) 0.25959(9)
H9 H 0.1241 0.0976 0.2926
C12 C -0.00054(11) 0.1125(3) 0.28364(10)
C13 C -0.08771(11) 0.0398(3) 0.22005(11)
C14 C -0.05953(11) -0.0947(3) 0.15903(11)
C15 C -0.07205(13) -0.3141(3) 0.18562(14)
H10 H -0.0802 -0.4104 0.1393
H11 H -0.0220 -0.3573 0.2353
C16 C -0.15350(15) -0.2989(4) 0.20610(16)
H12 H -0.1584 -0.4154 0.2400
H13 H -0.2058 -0.2921 0.1543
C17 C -0.14028(13) -0.1005(4) 0.25658(13)
H14 H -0.1079 -0.1257 0.3170
H15 H -0.1965 -0.0386 0.2494
C18 C 0.00503(12) 0.2216(3) 0.36223(11)
C19 C 0.09752(13) 0.3374(4) 0.49951(12)
H16 H 0.0579 0.2801 0.5246
H17 H 0.0836 0.4820 0.4879
C20 C 0.18904(13) 0.3140(4) 0.55896(12)
H18 H 0.2011 0.1713 0.5733
H19 H 0.1980 0.3915 0.6100
H20 H 0.2279 0.3639 0.5325
H21 H -0.1216(10) 0.160(3) 0.1921(10)
H22 H -0.0971(10) -0.075(2) 0.1021(10)
loop_
_geom_bond_atom_site_label_1
_geom_bond_atom_site_label_2
_geom_bond_site_symmetry_1
_geom_bond_site_symmetry_2
O1 C1 1_555 1_555
O2 C18 1_555 1_555
O3 C18 1_555 1_555
C1 C2 1_555 1_555
C2 C3 1_555 1_555
C3 H1 1_555 1_555
C4 C3 1_555 1_555
H2 C4 1_555 1_555
C5 C4 1_555 1_555
H3 C5 1_555 1_555
C6 C5 1_555 1_555
H4 C6 1_555 1_555
C7 C2 1_555 1_555
C8 C7 1_555 1_555
H5 C8 1_555 1_555
H6 C8 1_555 1_555
C9 C8 1_555 1_555
H7 C9 1_555 1_555
H8 C9 1_555 1_555
C10 C1 1_555 1_555
C11 C10 1_555 1_555
H9 C11 1_555 1_555
C12 C11 1_555 1_555
C13 C12 1_555 1_555
C14 C10 1_555 1_555
C15 C14 1_555 1_555
H10 C15 1_555 1_555
H11 C15 1_555 1_555
C16 C15 1_555 1_555
H12 C16 1_555 1_555
H13 C16 1_555 1_555
C17 C13 1_555 1_555
H14 C17 1_555 1_555
H15 C17 1_555 1_555
C18 C12 1_555 1_555
C19 O3 1_555 1_555
H16 C19 1_555 1_555
H17 C19 1_555 1_555
C20 C19 1_555 1_555
H18 C20 1_555 1_555
H19 C20 1_555 1_555
H20 C20 1_555 1_555
H21 C13 1_555 1_555
H22 C14 1_555 1_555
C6 C7 1_555 1_555
C9 C10 1_555 1_555
C13 C14 1_555 1_555
C16 C17 1_555 1_555

#END
