
#######################################################################
#
#                 Cambridge Crystallographic Data Centre
#                                CCDC 
#
#######################################################################
#
# If this CIF has been generated from an entry in the Cambridge 
# Structural Database, then it will include bibliographic, chemical, 
# crystal, experimental, refinement or atomic coordinate data resulting 
# from the CCDC's data processing and validation procedures.
#
#######################################################################

data_PIGQON
_chemical_formula_moiety         'C22 H22 N3 O2 1+,F6 P1 1-'
_chemical_name_systematic        
'4-(2-(6-(Dimethylamino)-1,3-dioxo-1H-benzo[de]isoquinolin-2(3H)-yl)ethyl)-1-methylpyridinium hexafluorophosphate'
_symmetry_cell_setting           triclinic
_symmetry_space_group_name_H-M   'P -1'
_symmetry_Int_Tables_number      2
_space_group_name_Hall           '-P 1'
loop_
_symmetry_equiv_pos_site_id
_symmetry_equiv_pos_as_xyz
1 x,y,z
2 -x,-y,-z
_cell_length_a                   8.8081(4)
_cell_length_b                   9.2489(4)
_cell_length_c                   14.9085(6)
_cell_angle_alpha                85.580(2)
_cell_angle_beta                 89.039(2)
_cell_angle_gamma                62.137(2)
_cell_volume                     1070.27
_exptl_crystal_colour            orange
_exptl_crystal_description       Plate
_cell_formula_units_Z            2
loop_
_atom_site_label
_atom_site_type_symbol
_atom_site_fract_x
_atom_site_fract_y
_atom_site_fract_z
O1 O 0.6927(3) 0.7292(3) 0.13126(14)
O2 O 0.8827(3) 0.9663(3) 0.32577(13)
N1 N 1.3299(3) 0.7116(3) -0.09337(15)
N2 N 0.7820(3) 0.8584(3) 0.22491(14)
N3 N 0.2429(3) 0.7589(3) 0.47868(14)
C1 C 0.7957(3) 0.7793(3) 0.14557(18)
C2 C 0.9334(3) 0.7640(3) 0.08550(17)
C3 C 0.9502(3) 0.6952(3) 0.00486(18)
H1 H 0.8709 0.6581 -0.0109
C4 C 1.0811(4) 0.6785(3) -0.05414(18)
H2 H 1.0892 0.6293 -0.1088
C5 C 1.2000(3) 0.7320(3) -0.03524(18)
C6 C 1.1787(3) 0.8154(3) 0.04595(17)
C7 C 1.2721(3) 0.8985(3) 0.06590(19)
H3 H 1.3548 0.8997 0.0246
C8 C 1.2470(4) 0.9772(3) 0.1428(2)
H4 H 1.3112 1.0331 0.1537
C9 C 1.1282(4) 0.9764(3) 0.20526(19)
H5 H 1.1160 1.0263 0.2601
C10 C 1.0282(3) 0.9027(3) 0.18731(18)
C11 C 1.0475(3) 0.8254(3) 0.10657(17)
C12 C 0.8957(3) 0.9117(3) 0.25120(18)
C13 C 0.6416(3) 0.8751(3) 0.28501(18)
H6 H 0.5399 0.8946 0.2485
H7 H 0.6092 0.9712 0.3204
C14 C 0.6943(4) 0.7208(4) 0.34934(19)
H8 H 0.7467 0.6218 0.3152
H9 H 0.7801 0.7126 0.3942
C15 C 0.5372(3) 0.7315(3) 0.39617(18)
C16 C 0.4286(4) 0.6834(4) 0.3559(2)
H10 H 0.4555 0.6400 0.2986
C17 C 0.2831(4) 0.6980(4) 0.3980(2)
H11 H 0.2101 0.6645 0.3697
C18 C 0.3439(4) 0.8086(4) 0.51933(18)
H12 H 0.3134 0.8531 0.5762
C19 C 0.4907(4) 0.7953(4) 0.47908(18)
H13 H 0.5613 0.8303 0.5085
C20 C 1.3252(4) 0.6558(4) -0.1817(2)
H14 H 1.2100 0.7206 -0.2089
H15 H 1.3533 0.5397 -0.1752
H16 H 1.4092 0.6698 -0.2205
C21 C 1.5063(4) 0.6646(4) -0.0623(2)
H17 H 1.5137 0.6474 0.0035
H18 H 1.5355 0.7522 -0.0816
H19 H 1.5870 0.5630 -0.0883
C22 C 0.0869(4) 0.7707(4) 0.5232(2)
H20 H -0.0128 0.8327 0.4826
H21 H 0.0697 0.8270 0.5785
H22 H 0.1002 0.6603 0.5382
P1 P 0.19158(8) 0.35231(7) 0.31161(4)
F1 F 0.2537(3) 0.2827(3) 0.21770(12)
F2 F 0.2600(2) 0.1688(2) 0.35926(12)
F3 F 0.1221(3) 0.5354(2) 0.26984(12)
F4 F 0.3743(2) 0.3430(2) 0.33267(12)
F5 F 0.0090(2) 0.3602(2) 0.29476(11)
F6 F 0.1294(2) 0.4214(2) 0.40988(11)
loop_
_geom_bond_atom_site_label_1
_geom_bond_atom_site_label_2
_geom_bond_site_symmetry_1
_geom_bond_site_symmetry_2
O1 C1 1_555 1_555
O2 C12 1_555 1_555
N1 C5 1_555 1_555
N2 C1 1_555 1_555
N3 C17 1_555 1_555
C1 C2 1_555 1_555
C2 C3 1_555 1_555
C3 H1 1_555 1_555
C4 C3 1_555 1_555
H2 C4 1_555 1_555
C5 C4 1_555 1_555
C6 C5 1_555 1_555
C7 C6 1_555 1_555
H3 C7 1_555 1_555
C8 C7 1_555 1_555
H4 C8 1_555 1_555
C9 C8 1_555 1_555
H5 C9 1_555 1_555
C10 C9 1_555 1_555
C11 C2 1_555 1_555
C12 N2 1_555 1_555
C13 N2 1_555 1_555
H6 C13 1_555 1_555
H7 C13 1_555 1_555
C14 C13 1_555 1_555
H8 C14 1_555 1_555
H9 C14 1_555 1_555
C15 C14 1_555 1_555
C16 C15 1_555 1_555
H10 C16 1_555 1_555
C17 C16 1_555 1_555
H11 C17 1_555 1_555
C18 N3 1_555 1_555
H12 C18 1_555 1_555
C19 C15 1_555 1_555
H13 C19 1_555 1_555
C20 N1 1_555 1_555
H14 C20 1_555 1_555
H15 C20 1_555 1_555
H16 C20 1_555 1_555
C21 N1 1_555 1_555
H17 C21 1_555 1_555
H18 C21 1_555 1_555
H19 C21 1_555 1_555
C22 N3 1_555 1_555
H20 C22 1_555 1_555
H21 C22 1_555 1_555
H22 C22 1_555 1_555
P1 F1 1_555 1_555
F2 P1 1_555 1_555
F3 P1 1_555 1_555
F4 P1 1_555 1_555
F5 P1 1_555 1_555
F6 P1 1_555 1_555
C6 C11 1_555 1_555
C10 C11 1_555 1_555
C10 C12 1_555 1_555
C18 C19 1_555 1_555

#END
