
#######################################################################
#
#                 Cambridge Crystallographic Data Centre
#                                CCDC 
#
#######################################################################
#
# If this CIF has been generated from an entry in the Cambridge 
# Structural Database, then it will include bibliographic, chemical, 
# crystal, experimental, refinement or atomic coordinate data resulting 
# from the CCDC's data processing and validation procedures.
#
#######################################################################

data_PIGRAY
_chemical_formula_moiety         'C10 H14 O4'
_chemical_name_systematic        
2,6,10-Trioxatricyclo(7.4.0.0^3,7^)tridecan-5-one
_symmetry_cell_setting           monoclinic
_symmetry_space_group_name_H-M   'P 21/c'
_symmetry_Int_Tables_number      14
_space_group_name_Hall           '-P 2ybc'
loop_
_symmetry_equiv_pos_site_id
_symmetry_equiv_pos_as_xyz
1 x,y,z
2 -x,1/2+y,1/2-z
3 -x,-y,-z
4 x,1/2-y,1/2+z
_cell_length_a                   6.505(3)
_cell_length_b                   15.199(2)
_cell_length_c                   10.129(4)
_cell_angle_alpha                90
_cell_angle_beta                 105.74(2)
_cell_angle_gamma                90
_cell_volume                     963.897
_cell_formula_units_Z            4
loop_
_atom_site_label
_atom_site_type_symbol
_atom_site_fract_x
_atom_site_fract_y
_atom_site_fract_z
O1 O 0.2879(2) 0.08330(7) 0.3989(1)
O2 O -0.2530(2) 0.16173(9) 0.2368(1)
C1 C -0.0601(3) 0.1477(1) 0.3431(2)
C2 C 0.0116(3) 0.0099(1) 0.2283(2)
C3 C 0.0282(3) 0.2368(1) 0.3968(2)
C4 C 0.1007(3) 0.0977(1) 0.2882(2)
C5 C 0.5599(3) 0.1441(1) 0.5782(2)
O3 O 0.2580(2) 0.20382(9) 0.6257(1)
C6 C -0.2003(4) 0.0267(1) 0.1209(2)
C7 C 0.3985(3) 0.1641(1) 0.4442(2)
C8 C -0.3479(4) 0.0788(1) 0.1825(2)
C9 C 0.2550(3) 0.2305(1) 0.4872(2)
O4 O 0.4862(3) 0.1360(1) 0.8004(1)
C10 C 0.4404(4) 0.1581(1) 0.6823(2)
H1 H 0.323(3) 0.287(1) 0.498(2)
H2 H 0.463(3) 0.188(1) 0.372(2)
H3 H 0.140(3) 0.134(1) 0.214(1)
H4 H 0.031(3) 0.269(1) 0.318(2)
H5 H -0.017(3) -0.025(1) 0.305(2)
H6 H -0.093(3) 0.112(1) 0.421(2)
H7 H -0.169(3) 0.061(1) 0.036(2)
H8 H 0.610(3) 0.086(1) 0.585(2)
H9 H -0.066(3) 0.266(1) 0.452(2)
H10 H 0.118(3) -0.021(1) 0.182(2)
H11 H -0.480(4) 0.095(1) 0.105(2)
H12 H -0.269(3) -0.027(1) 0.081(2)
H13 H 0.670(3) 0.185(1) 0.593(2)
H14 H -0.381(3) 0.043(1) 0.263(2)
loop_
_geom_bond_atom_site_label_1
_geom_bond_atom_site_label_2
_geom_bond_site_symmetry_1
_geom_bond_site_symmetry_2
O1 C4 1_555 1_555
O2 C1 1_555 1_555
C1 C3 1_555 1_555
C2 C4 1_555 1_555
C3 C9 1_555 1_555
C4 C1 1_555 1_555
C5 C7 1_555 1_555
O3 C9 1_555 1_555
C6 C2 1_555 1_555
C7 O1 1_555 1_555
C8 O2 1_555 1_555
C9 C7 1_555 1_555
O4 C10 1_555 1_555
C10 C5 1_555 1_555
H1 C9 1_555 1_555
H2 C7 1_555 1_555
H3 C4 1_555 1_555
H4 C3 1_555 1_555
H5 C2 1_555 1_555
H6 C1 1_555 1_555
H7 C6 1_555 1_555
H8 C5 1_555 1_555
H9 C3 1_555 1_555
H10 C2 1_555 1_555
H11 C8 1_555 1_555
H12 C6 1_555 1_555
H13 C5 1_555 1_555
H14 C8 1_555 1_555
O3 C10 1_555 1_555
C6 C8 1_555 1_555

#END
