
#######################################################################
#
#                 Cambridge Crystallographic Data Centre
#                                CCDC 
#
#######################################################################
#
# If this CIF has been generated from an entry in the Cambridge 
# Structural Database, then it will include bibliographic, chemical, 
# crystal, experimental, refinement or atomic coordinate data resulting 
# from the CCDC's data processing and validation procedures.
#
#######################################################################

data_PIGSUW
_chemical_formula_moiety         'C13 H14 Br1 N1'
_chemical_name_systematic        
3-bromo-5,6,7,8,9,10-hexahydrocyclohepta[b]indole
_symmetry_cell_setting           orthorhombic
_symmetry_space_group_name_H-M   'P b c n'
_symmetry_Int_Tables_number      60
_space_group_name_Hall           '-P 2n 2ab'
loop_
_symmetry_equiv_pos_site_id
_symmetry_equiv_pos_as_xyz
1 x,y,z
2 1/2-x,1/2-y,1/2+z
3 1/2+x,1/2-y,-z
4 -x,y,1/2-z
5 -x,-y,-z
6 1/2+x,1/2+y,1/2-z
7 1/2-x,1/2+y,z
8 x,-y,1/2+z
_cell_length_a                   23.769(4)
_cell_length_b                   11.2921(19)
_cell_length_c                   8.2022(11)
_cell_angle_alpha                90
_cell_angle_beta                 90
_cell_angle_gamma                90
_cell_volume                     2201.49
_exptl_crystal_colour            'pale yellow'
_exptl_crystal_description       PLATE
_cell_formula_units_Z            8
loop_
_atom_site_label
_atom_site_type_symbol
_atom_site_fract_x
_atom_site_fract_y
_atom_site_fract_z
Br1 Br 0.078995(18) 0.10973(4) 0.60491(5)
N1 N 0.29182(15) 0.2542(3) 0.6847(4)
H1 H 0.2877 0.3164 0.7481
C1 C 0.24890(19) 0.1875(4) 0.6234(5)
C2 C 0.19062(18) 0.1969(4) 0.6469(5)
H2 H 0.1743 0.2588 0.7095
C3 C 0.15861(17) 0.1103(4) 0.5730(5)
C4 C 0.18146(19) 0.0193(4) 0.4786(5)
H3 H 0.1574 -0.0377 0.4299
C5 C 0.23865(18) 0.0119(4) 0.4558(5)
H4 H 0.2542 -0.0499 0.3915
C6 C 0.27343(19) 0.0958(4) 0.5280(5)
C7 C 0.33344(17) 0.1120(4) 0.5358(5)
C8 C 0.34311(18) 0.2091(4) 0.6319(5)
C9 C 0.39629(19) 0.2637(4) 0.6888(6)
H5 H 0.4102 0.2176 0.7832
H6 H 0.3878 0.3446 0.7284
C10 C 0.44332(19) 0.2723(4) 0.5644(5)
H7 H 0.4749 0.3168 0.6138
H8 H 0.4296 0.3189 0.4703
C11 C 0.42744(19) 0.0898(4) 0.3826(5)
H9 H 0.4500 0.0287 0.3259
H10 H 0.4145 0.1470 0.2992
C12 C 0.37570(19) 0.0298(4) 0.4566(6)
H11 H 0.3563 -0.0152 0.3695
H12 H 0.3886 -0.0281 0.5393
C13 C 0.46577(18) 0.1550(4) 0.5016(6)
H13 H 0.4730 0.1026 0.5962
H14 H 0.5023 0.1695 0.4473
loop_
_geom_bond_atom_site_label_1
_geom_bond_atom_site_label_2
_geom_bond_site_symmetry_1
_geom_bond_site_symmetry_2
Br1 C3 1_555 1_555
N1 H1 1_555 1_555
C1 N1 1_555 1_555
C2 C1 1_555 1_555
H2 C2 1_555 1_555
C3 C2 1_555 1_555
C4 C3 1_555 1_555
H3 C4 1_555 1_555
C5 C4 1_555 1_555
H4 C5 1_555 1_555
C6 C1 1_555 1_555
C7 C6 1_555 1_555
C8 N1 1_555 1_555
C9 C8 1_555 1_555
H5 C9 1_555 1_555
H6 C9 1_555 1_555
C10 C9 1_555 1_555
H7 C10 1_555 1_555
H8 C10 1_555 1_555
C11 H9 1_555 1_555
H10 C11 1_555 1_555
C12 C7 1_555 1_555
H11 C12 1_555 1_555
H12 C12 1_555 1_555
C13 C10 1_555 1_555
H13 C13 1_555 1_555
H14 C13 1_555 1_555
C5 C6 1_555 1_555
C7 C8 1_555 1_555
C11 C12 1_555 1_555
C11 C13 1_555 1_555

#END
