
#######################################################################
#
#                 Cambridge Crystallographic Data Centre
#                                CCDC 
#
#######################################################################
#
# If this CIF has been generated from an entry in the Cambridge 
# Structural Database, then it will include bibliographic, chemical, 
# crystal, experimental, refinement or atomic coordinate data resulting 
# from the CCDC's data processing and validation procedures.
#
#######################################################################

data_PIGTAD
_chemical_formula_moiety         'C13 H14 Br1 N1'
_chemical_name_systematic        
2-bromo-5,6,7,8,9,10-hexahydrocyclohepta[b]indole
_symmetry_cell_setting           monoclinic
_symmetry_space_group_name_H-M   'P 21/c'
_symmetry_Int_Tables_number      14
_space_group_name_Hall           '-P 2ybc'
loop_
_symmetry_equiv_pos_site_id
_symmetry_equiv_pos_as_xyz
1 x,y,z
2 -x,1/2+y,1/2-z
3 -x,-y,-z
4 x,1/2-y,1/2+z
_cell_length_a                   9.5400(4)
_cell_length_b                   6.2063(2)
_cell_length_c                   18.8852(8)
_cell_angle_alpha                90
_cell_angle_beta                 98.4740(10)
_cell_angle_gamma                90
_cell_volume                     1105.95
_exptl_crystal_colour            'pale yellow'
_exptl_crystal_description       plate
_cell_formula_units_Z            4
loop_
_atom_site_label
_atom_site_type_symbol
_atom_site_fract_x
_atom_site_fract_y
_atom_site_fract_z
Br1 Br 0.933405(13) 0.07054(2) 0.336342(8)
N1 N 0.44045(11) 0.67576(19) 0.32380(6)
H1 H 0.4221 0.8057 0.3062
C1 C 0.56209(13) 0.5603(2) 0.31979(7)
C2 C 0.68272(14) 0.6149(2) 0.28983(7)
H2 H 0.6890 0.7488 0.2661
C3 C 0.79327(14) 0.4671(2) 0.29592(7)
H3 H 0.8776 0.4998 0.2769
C4 C 0.77990(13) 0.2700(2) 0.33017(7)
C5 C 0.66103(13) 0.2119(2) 0.35975(7)
H4 H 0.6551 0.0759 0.3822
C6 C 0.54952(13) 0.3613(2) 0.35529(7)
C7 C 0.41505(13) 0.3629(2) 0.38064(7)
C8 C 0.35152(13) 0.5550(2) 0.35994(7)
C9 C 0.21168(13) 0.6392(2) 0.37459(7)
H5 H 0.1351 0.5463 0.3501
H6 H 0.1973 0.7862 0.3545
C10 C 0.20123(15) 0.6463(2) 0.45492(8)
H7 H 0.2869 0.7184 0.4801
H8 H 0.1183 0.7353 0.4620
C11 C 0.18697(14) 0.4254(2) 0.48931(8)
H9 H 0.1638 0.4488 0.5381
H10 H 0.1053 0.3502 0.4615
C12 C 0.31531(14) 0.2752(2) 0.49504(7)
H11 H 0.2969 0.1491 0.5244
H12 H 0.3984 0.3520 0.5209
C13 C 0.35376(14) 0.1931(2) 0.42370(7)
H13 H 0.4231 0.0743 0.4336
H14 H 0.2675 0.1335 0.3948
loop_
_geom_bond_atom_site_label_1
_geom_bond_atom_site_label_2
_geom_bond_site_symmetry_1
_geom_bond_site_symmetry_2
Br1 C4 1_555 1_555
N1 H1 1_555 1_555
C1 N1 1_555 1_555
C2 C1 1_555 1_555
H2 C2 1_555 1_555
C3 C2 1_555 1_555
H3 C3 1_555 1_555
C4 C3 1_555 1_555
C5 C4 1_555 1_555
H4 C5 1_555 1_555
C6 C1 1_555 1_555
C7 C6 1_555 1_555
C8 N1 1_555 1_555
C9 C8 1_555 1_555
H5 C9 1_555 1_555
H6 C9 1_555 1_555
C10 C9 1_555 1_555
H7 C10 1_555 1_555
H8 C10 1_555 1_555
C11 C10 1_555 1_555
H9 C11 1_555 1_555
H10 C11 1_555 1_555
C12 C11 1_555 1_555
H11 C12 1_555 1_555
H12 C12 1_555 1_555
C13 C7 1_555 1_555
H13 C13 1_555 1_555
H14 C13 1_555 1_555
C5 C6 1_555 1_555
C7 C8 1_555 1_555
C12 C13 1_555 1_555

#END
