
#######################################################################
#
#                 Cambridge Crystallographic Data Centre
#                                CCDC 
#
#######################################################################
#
# If this CIF has been generated from an entry in the Cambridge 
# Structural Database, then it will include bibliographic, chemical, 
# crystal, experimental, refinement or atomic coordinate data resulting 
# from the CCDC's data processing and validation procedures.
#
#######################################################################

data_PIGTOR
_chemical_formula_moiety         'C13 H14 Cl1 N1'
_chemical_name_systematic        
2-chloro-5,6,7,8,9,10-hexahydrocyclohepta[b]indole
_symmetry_cell_setting           monoclinic
_symmetry_space_group_name_H-M   'P 21/n'
_symmetry_Int_Tables_number      14
_space_group_name_Hall           '-P 2yn'
loop_
_symmetry_equiv_pos_site_id
_symmetry_equiv_pos_as_xyz
1 x,y,z
2 1/2-x,1/2+y,1/2-z
3 -x,-y,-z
4 1/2+x,1/2-y,1/2+z
_cell_length_a                   9.8035(5)
_cell_length_b                   22.7092(12)
_cell_length_c                   9.9786(6)
_cell_angle_alpha                90
_cell_angle_beta                 101.405(2)
_cell_angle_gamma                90
_cell_volume                     2177.67
_exptl_crystal_colour            colorless
_exptl_crystal_description       PLATE
_cell_formula_units_Z            8
loop_
_atom_site_label
_atom_site_type_symbol
_atom_site_fract_x
_atom_site_fract_y
_atom_site_fract_z
Cl1 Cl 0.16113(3) -0.105318(13) 0.09600(3)
N1 N 0.32298(11) 0.10366(4) 0.42810(11)
H1 H 0.3551 0.1096 0.5158
C1 C 0.29819(12) 0.04944(5) 0.36662(12)
C2 C 0.31199(13) -0.00662(5) 0.42355(13)
H2 H 0.3474 -0.0123 0.5184
C3 C 0.27210(13) -0.05394(5) 0.33662(14)
H3 H 0.2804 -0.0930 0.3715
C4 C 0.21957(12) -0.04408(5) 0.19725(13)
C5 C 0.20915(12) 0.01115(5) 0.13837(13)
H4 H 0.1764 0.0163 0.0429
C6 C 0.24892(11) 0.05955(5) 0.22516(12)
C7 C 0.24567(12) 0.12218(5) 0.20414(12)
C8 C 0.28944(12) 0.14742(5) 0.33024(13)
C9 C 0.30181(13) 0.21097(5) 0.36927(14)
H5 H 0.3845 0.2277 0.3401
H6 H 0.3169 0.2141 0.4701
C10 C 0.17374(14) 0.24760(5) 0.30626(14)
H7 H 0.0898 0.2277 0.3254
H8 H 0.1807 0.2865 0.3520
C11 C 0.15443(14) 0.25738(5) 0.15225(15)
H9 H 0.2443 0.2705 0.1316
H10 H 0.0867 0.2897 0.1262
C12 C 0.10420(13) 0.20379(5) 0.06284(14)
H11 H 0.0194 0.1882 0.0901
H12 H 0.0775 0.2171 -0.0333
C13 C 0.20896(13) 0.15351(6) 0.06927(13)
H13 H 0.1708 0.1243 -0.0020
H14 H 0.2955 0.1695 0.0465
Cl2 Cl 0.06028(4) 0.206920(14) 0.64757(4)
N2 N 0.44333(10) 0.01285(5) 0.82468(11)
H15 H 0.5339 0.0102 0.8541
C14 C 0.37166(12) 0.06421(5) 0.78873(13)
C15 C 0.41828(13) 0.12215(6) 0.78713(13)
H16 H 0.5142 0.1315 0.8145
C16 C 0.32024(14) 0.16573(6) 0.74435(13)
H17 H 0.3484 0.2057 0.7425
C17 C 0.17952(13) 0.15060(5) 0.70386(13)
C18 C 0.13122(12) 0.09357(5) 0.70514(12)
H18 H 0.0350 0.0848 0.6777
C19 C 0.22912(12) 0.04893(5) 0.74841(12)
C20 C 0.21868(12) -0.01379(5) 0.76100(13)
C21 C 0.35155(12) -0.03410(6) 0.80770(13)
C22 C 0.40245(13) -0.09576(6) 0.83594(15)
H19 H 0.3714 -0.1103 0.9185
H20 H 0.5055 -0.0956 0.8557
C23 C 0.35115(14) -0.13812(6) 0.71786(16)
H21 H 0.4042 -0.1754 0.7356
H22 H 0.3719 -0.1209 0.6330
C24 C 0.19567(14) -0.15237(6) 0.69423(16)
H23 H 0.1776 -0.1866 0.6319
H24 H 0.1732 -0.1645 0.7827
C25 C 0.09598(13) -0.10292(6) 0.63475(14)
H25 H 0.1236 -0.0885 0.5503
H26 H 0.0014 -0.1198 0.6080
C26 C 0.08842(12) -0.05017(5) 0.72794(13)
H27 H 0.0109 -0.0244 0.6838
H28 H 0.0659 -0.0646 0.8146
loop_
_geom_bond_atom_site_label_1
_geom_bond_atom_site_label_2
_geom_bond_site_symmetry_1
_geom_bond_site_symmetry_2
Cl1 C4 1_555 1_555
N1 H1 1_555 1_555
C1 N1 1_555 1_555
C2 C1 1_555 1_555
H2 C2 1_555 1_555
C3 C2 1_555 1_555
H3 C3 1_555 1_555
C4 C3 1_555 1_555
C5 C4 1_555 1_555
H4 C5 1_555 1_555
C6 C1 1_555 1_555
C7 C6 1_555 1_555
C8 N1 1_555 1_555
C9 C8 1_555 1_555
H5 C9 1_555 1_555
H6 C9 1_555 1_555
C10 C9 1_555 1_555
H7 C10 1_555 1_555
H8 C10 1_555 1_555
C11 C10 1_555 1_555
H9 C11 1_555 1_555
H10 C11 1_555 1_555
C12 C11 1_555 1_555
H11 C12 1_555 1_555
H12 C12 1_555 1_555
C13 C7 1_555 1_555
H13 C13 1_555 1_555
H14 C13 1_555 1_555
Cl2 C17 1_555 1_555
N2 H15 1_555 1_555
C14 N2 1_555 1_555
C15 C14 1_555 1_555
H16 C15 1_555 1_555
C16 C15 1_555 1_555
H17 C16 1_555 1_555
C17 C16 1_555 1_555
C18 C17 1_555 1_555
H18 C18 1_555 1_555
C19 C14 1_555 1_555
C20 C19 1_555 1_555
C21 N2 1_555 1_555
C22 C21 1_555 1_555
H19 C22 1_555 1_555
H20 C22 1_555 1_555
C23 C22 1_555 1_555
H21 C23 1_555 1_555
H22 C23 1_555 1_555
C24 C23 1_555 1_555
H23 C24 1_555 1_555
H24 C24 1_555 1_555
C25 C24 1_555 1_555
H25 C25 1_555 1_555
H26 C25 1_555 1_555
C26 C20 1_555 1_555
H27 C26 1_555 1_555
H28 C26 1_555 1_555
C5 C6 1_555 1_555
C7 C8 1_555 1_555
C12 C13 1_555 1_555
C18 C19 1_555 1_555
C20 C21 1_555 1_555
C25 C26 1_555 1_555

#END
