
#######################################################################
#
#                 Cambridge Crystallographic Data Centre
#                                CCDC 
#
#######################################################################
#
# If this CIF has been generated from an entry in the Cambridge 
# Structural Database, then it will include bibliographic, chemical, 
# crystal, experimental, refinement or atomic coordinate data resulting 
# from the CCDC's data processing and validation procedures.
#
#######################################################################

data_PIGWAG
_chemical_formula_moiety         'C12 H12 Cl1 N1'
_chemical_name_systematic        6-chloro-2,3,4,9-tetrahydro-1H-carbazole
_symmetry_cell_setting           monoclinic
_symmetry_space_group_name_H-M   'C 2/c'
_symmetry_Int_Tables_number      15
_space_group_name_Hall           '-C 2yn'
loop_
_symmetry_equiv_pos_site_id
_symmetry_equiv_pos_as_xyz
1 x,y,z
2 -x,y,1/2-z
3 1/2+x,1/2+y,z
4 1/2-x,1/2+y,1/2-z
5 -x,-y,-z
6 x,-y,1/2+z
7 1/2-x,1/2-y,-z
8 1/2+x,1/2-y,1/2+z
_cell_length_a                   24.4577(12)
_cell_length_b                   6.0867(3)
_cell_length_c                   16.3090(10)
_cell_angle_alpha                90
_cell_angle_beta                 125.800(3)
_cell_angle_gamma                90
_cell_volume                     1969.15
_exptl_crystal_colour            colorless
_exptl_crystal_description       plate
_cell_formula_units_Z            8
loop_
_atom_site_label
_atom_site_type_symbol
_atom_site_fract_x
_atom_site_fract_y
_atom_site_fract_z
Cl1 Cl 0.455806(13) -0.15353(5) 0.35318(2)
N1 N 0.22210(5) 0.43143(16) 0.14185(7)
H1 H 0.2126 0.5598 0.1555
C1 C 0.28226(5) 0.32026(18) 0.20274(8)
C2 C 0.34070(6) 0.37491(19) 0.29723(9)
H2 H 0.3438 0.5087 0.3297
C3 C 0.39403(5) 0.2275(2) 0.34214(8)
H3 H 0.4346 0.2602 0.4062
C4 C 0.38816(5) 0.03021(19) 0.29305(9)
C5 C 0.33092(5) -0.02521(18) 0.19905(8)
H4 H 0.3284 -0.1594 0.1672
C6 C 0.27678(5) 0.12264(18) 0.15225(8)
C7 C 0.21084(5) 0.12036(18) 0.05860(8)
C8 C 0.17907(5) 0.30778(18) 0.05559(8)
C9 C 0.10755(6) 0.36642(19) -0.02539(9)
H5 H 0.1057 0.4760 -0.0718
H6 H 0.0861 0.4310 0.0050
C10 C 0.07010(9) 0.1568(4) -0.08380(19)
H7 H 0.0636 0.0616 -0.0409
H8 H 0.0250 0.1962 -0.1449
C11 C 0.10927(10) 0.0304(4) -0.11515(18)
H9 H 0.1160 0.1265 -0.1575
H10 H 0.0824 -0.0982 -0.1564
C12 C 0.17813(5) -0.04852(19) -0.02358(9)
H11 H 0.1722 -0.1863 0.0027
H12 H 0.2078 -0.0803 -0.0449
C13? C 0.07934(19) 0.2146(7) -0.1155(3)
H13? H 0.0947 0.2659 -0.1564
H14? H 0.0295 0.2234 -0.1583
C14? C 0.10043(18) -0.0235(7) -0.0857(4)
H15? H 0.0787 -0.1152 -0.1474
H16? H 0.0850 -0.0763 -0.0450
loop_
_geom_bond_atom_site_label_1
_geom_bond_atom_site_label_2
_geom_bond_site_symmetry_1
_geom_bond_site_symmetry_2
Cl1 C4 1_555 1_555
N1 H1 1_555 1_555
C1 N1 1_555 1_555
C2 C1 1_555 1_555
H2 C2 1_555 1_555
C3 C2 1_555 1_555
H3 C3 1_555 1_555
C4 C3 1_555 1_555
C5 C4 1_555 1_555
H4 C5 1_555 1_555
C6 C1 1_555 1_555
C7 C6 1_555 1_555
C8 N1 1_555 1_555
C9 C8 1_555 1_555
H5 C9 1_555 1_555
H6 C9 1_555 1_555
C10 C9 1_555 1_555
H7 C10 1_555 1_555
H8 C10 1_555 1_555
C11 C10 1_555 1_555
H9 C11 1_555 1_555
H10 C11 1_555 1_555
C12 C7 1_555 1_555
H11 C12 1_555 1_555
H12 C12 1_555 1_555
C5 C6 1_555 1_555
C7 C8 1_555 1_555
C11 C12 1_555 1_555

#END
