
#######################################################################
#
#                 Cambridge Crystallographic Data Centre
#                                CCDC 
#
#######################################################################
#
# If this CIF has been generated from an entry in the Cambridge 
# Structural Database, then it will include bibliographic, chemical, 
# crystal, experimental, refinement or atomic coordinate data resulting 
# from the CCDC's data processing and validation procedures.
#
#######################################################################

data_PIGWIO
_chemical_formula_moiety         'C12 H12 F1 N1'
_chemical_name_systematic        7-fluoro-2,3,4,9-tetrahydro-1H-carbazole
_symmetry_cell_setting           orthorhombic
_symmetry_space_group_name_H-M   'P 21 21 21'
_symmetry_Int_Tables_number      19
_space_group_name_Hall           'P 2ac 2ab'
loop_
_symmetry_equiv_pos_site_id
_symmetry_equiv_pos_as_xyz
1 x,y,z
2 1/2-x,-y,1/2+z
3 1/2+x,1/2-y,-z
4 -x,1/2+y,1/2-z
_cell_length_a                   6.1937(6)
_cell_length_b                   7.4492(8)
_cell_length_c                   19.920(2)
_cell_angle_alpha                90
_cell_angle_beta                 90
_cell_angle_gamma                90
_cell_volume                     919.071
_exptl_crystal_colour            colorless
_exptl_crystal_description       plate
_cell_formula_units_Z            4
loop_
_atom_site_label
_atom_site_type_symbol
_atom_site_fract_x
_atom_site_fract_y
_atom_site_fract_z
F1 F 1.09041(15) -0.15162(13) 0.30553(4)
N1 N 1.23200(18) -0.07909(17) 0.54325(6)
H1 H 1.3622 -0.1237 0.5491
C1 C 1.1229(2) -0.07122(19) 0.48324(7)
C2 C 1.1851(2) -0.13009(19) 0.41932(7)
H2 H 1.3192 -0.1882 0.4114
C3 C 1.0386(2) -0.0979(2) 0.36892(7)
C4 C 0.8397(2) -0.0140(2) 0.37787(7)
H3 H 0.7462 0.0047 0.3407
C5 C 0.7798(2) 0.0418(2) 0.44167(7)
H4 H 0.6446 0.0990 0.4487
C6 C 0.9207(2) 0.01295(18) 0.49555(6)
C7 C 0.9132(2) 0.05264(18) 0.56604(6)
C8 C 1.1028(2) -0.00496(19) 0.59332(6)
C9 C 1.1674(2) 0.0110(2) 0.66534(7)
H5 H 1.2753 0.1081 0.6706
H6 H 1.2334 -0.1028 0.6808
C10 C 0.9663(2) 0.0532(2) 0.70753(7)
H7 H 0.8803 -0.0577 0.7133
H8 H 1.0118 0.0945 0.7526
C11 C 0.8252(2) 0.1977(2) 0.67489(7)
H9 H 0.9119 0.3079 0.6682
H10 H 0.7039 0.2274 0.7053
C12 C 0.7354(2) 0.1348(2) 0.60703(7)
H11 H 0.6196 0.0453 0.6144
H12 H 0.6727 0.2382 0.5826
loop_
_geom_bond_atom_site_label_1
_geom_bond_atom_site_label_2
_geom_bond_site_symmetry_1
_geom_bond_site_symmetry_2
F1 C3 1_555 1_555
N1 H1 1_555 1_555
C1 N1 1_555 1_555
C2 C1 1_555 1_555
H2 C2 1_555 1_555
C3 C2 1_555 1_555
C4 C3 1_555 1_555
H3 C4 1_555 1_555
C5 C4 1_555 1_555
H4 C5 1_555 1_555
C6 C1 1_555 1_555
C7 C6 1_555 1_555
C8 N1 1_555 1_555
C9 C8 1_555 1_555
H5 C9 1_555 1_555
H6 C9 1_555 1_555
C10 C9 1_555 1_555
H7 C10 1_555 1_555
H8 C10 1_555 1_555
C11 C10 1_555 1_555
H9 C11 1_555 1_555
H10 C11 1_555 1_555
C12 C7 1_555 1_555
H11 C12 1_555 1_555
H12 C12 1_555 1_555
C5 C6 1_555 1_555
C7 C8 1_555 1_555
C11 C12 1_555 1_555

#END
