
#######################################################################
#
#                 Cambridge Crystallographic Data Centre
#                                CCDC 
#
#######################################################################
#
# If this CIF has been generated from an entry in the Cambridge 
# Structural Database, then it will include bibliographic, chemical, 
# crystal, experimental, refinement or atomic coordinate data resulting 
# from the CCDC's data processing and validation procedures.
#
#######################################################################

data_PIHBAJ
_chemical_formula_moiety         'C30 H27 N3 O1'
_chemical_name_systematic        
N-Methyl-N-(2-(((methylamino)phenylmethylene)amino)-1,2-diphenylethenyl)benzamide
_symmetry_cell_setting           triclinic
_symmetry_space_group_name_H-M   'P -1'
_symmetry_Int_Tables_number      2
_space_group_name_Hall           '-P 1'
loop_
_symmetry_equiv_pos_site_id
_symmetry_equiv_pos_as_xyz
1 x,y,z
2 -x,-y,-z
_cell_length_a                   8.0178(5)
_cell_length_b                   10.1154(9)
_cell_length_c                   15.914(2)
_cell_angle_alpha                93.711(8)
_cell_angle_beta                 96.958(7)
_cell_angle_gamma                102.428(6)
_cell_volume                     1245.65
_chemical_melting_point          '196-198 deg.C'
_cell_formula_units_Z            2
loop_
_atom_site_label
_atom_site_type_symbol
_atom_site_fract_x
_atom_site_fract_y
_atom_site_fract_z
O1 O 0.0272(2) 1.4734(1) 0.23039(9)
N1 N 0.1424(2) 1.3221(1) 0.30053(8)
N2 N 0.2031(2) 0.9783(1) 0.23957(8)
N3 N 0.1686(2) 0.7497(1) 0.20873(9)
C1 C 0.1163(2) 1.3880(2) 0.2304(1)
C2 C 0.2147(2) 1.2038(1) 0.30330(9)
C3 C 0.1279(2) 1.0884(1) 0.25501(9)
C4 C 0.1187(2) 0.8548(2) 0.2455(1)
C5 C 0.1991(2) 1.3630(2) 0.1537(1)
C6 C 0.3662(3) 1.3511(2) 0.1572(1)
C7 C 0.4393(3) 1.3420(2) 0.0823(1)
C8 C 0.3421(4) 1.3423(3) 0.0055(2)
C9 C 0.1748(4) 1.3542(3) 0.0020(2)
C10 C 0.1035(3) 1.3649(2) 0.0748(1)
C11 C 0.0696(3) 1.3645(2) 0.3752(1)
C12 C 0.3796(2) 1.2236(2) 0.36076(9)
C13 C 0.4717(2) 1.3547(2) 0.3907(1)
C14 C 0.6239(2) 1.3780(2) 0.4459(1)
C15 C 0.6888(2) 1.2719(2) 0.4742(1)
C16 C 0.6010(2) 1.1409(2) 0.4456(1)
C17 C 0.4486(2) 1.1167(2) 0.3896(1)
C18 C -0.0448(2) 1.0790(1) 0.20437(9)
C19 C -0.0695(2) 1.0367(2) 0.1185(1)
C20 C -0.2282(2) 1.0233(2) 0.0703(1)
C21 C -0.3642(2) 1.0499(2) 0.1074(1)
C22 C -0.3434(2) 1.0882(2) 0.1929(1)
C23 C -0.1843(2) 1.1034(2) 0.2410(1)
C24 C -0.0295(2) 0.8180(2) 0.2938(1)
C25 C -0.0193(2) 0.8772(2) 0.3760(1)
C26 C -0.1549(3) 0.8443(2) 0.4216(1)
C27 C -0.3021(3) 0.7537(2) 0.3867(1)
C28 C -0.3156(3) 0.6937(2) 0.3048(1)
C29 C -0.1785(2) 0.7246(2) 0.2595(1)
C30 C 0.3019(3) 0.7656(2) 0.1544(1)
H1 H 0.436 1.350 0.213
H2 H 0.562 1.333 0.084
H3 H 0.393 1.335 -0.048
H4 H 0.105 1.354 -0.054
H5 H -0.018 1.375 0.072
H6 H 0.106 1.313 0.423
H7 H 0.114 1.459 0.389
H8 H -0.059 1.346 0.361
H9 H 0.426 1.434 0.371
H10 H 0.688 1.473 0.466
H11 H 0.798 1.290 0.515
H12 H 0.647 1.063 0.466
H13 H 0.386 1.021 0.369
H14 H 0.029 1.015 0.091
H15 H -0.244 0.995 0.008
H16 H -0.479 1.041 0.072
H17 H -0.443 1.106 0.220
H18 H -0.170 1.133 0.303
H19 H 0.088 0.945 0.402
H20 H -0.146 0.887 0.481
H21 H -0.401 0.731 0.420
H22 H -0.423 0.627 0.278
H23 H -0.185 0.680 0.201
H24 H 0.273 0.828 0.108
H25 H 0.316 0.683 0.129
H26 H 0.411 0.818 0.186
H27 H 0.129 0.656 0.227
loop_
_geom_bond_atom_site_label_1
_geom_bond_atom_site_label_2
_geom_bond_site_symmetry_1
_geom_bond_site_symmetry_2
O1 C1 1_555 1_555
N1 C1 1_555 1_555
N2 C3 1_555 1_555
N3 C4 1_555 1_555
C1 C5 1_555 1_555
C2 N1 1_555 1_555
C3 C2 1_555 1_555
C4 N2 1_555 1_555
C5 C6 1_555 1_555
C6 C7 1_555 1_555
C7 C8 1_555 1_555
C8 C9 1_555 1_555
C9 C10 1_555 1_555
C10 C5 1_555 1_555
C11 N1 1_555 1_555
C12 C2 1_555 1_555
C13 C12 1_555 1_555
C14 C13 1_555 1_555
C15 C14 1_555 1_555
C16 C15 1_555 1_555
C17 C12 1_555 1_555
C18 C3 1_555 1_555
C19 C18 1_555 1_555
C20 C19 1_555 1_555
C21 C20 1_555 1_555
C22 C21 1_555 1_555
C23 C18 1_555 1_555
C24 C4 1_555 1_555
C25 C24 1_555 1_555
C26 C25 1_555 1_555
C27 C26 1_555 1_555
C28 C27 1_555 1_555
C29 C24 1_555 1_555
C30 N3 1_555 1_555
H1 C6 1_555 1_555
H2 C7 1_555 1_555
H3 C8 1_555 1_555
H4 C9 1_555 1_555
H5 C10 1_555 1_555
H6 C11 1_555 1_555
H7 C11 1_555 1_555
H8 C11 1_555 1_555
H9 C13 1_555 1_555
H10 C14 1_555 1_555
H11 C15 1_555 1_555
H12 C16 1_555 1_555
H13 C17 1_555 1_555
H14 C19 1_555 1_555
H15 C20 1_555 1_555
H16 C21 1_555 1_555
H17 C22 1_555 1_555
H18 C23 1_555 1_555
H19 C25 1_555 1_555
H20 C26 1_555 1_555
H21 C27 1_555 1_555
H22 C28 1_555 1_555
H23 C29 1_555 1_555
H24 C30 1_555 1_555
H25 C30 1_555 1_555
H26 C30 1_555 1_555
H27 N3 1_555 1_555
C16 C17 1_555 1_555
C22 C23 1_555 1_555
C28 C29 1_555 1_555

#END
