
#######################################################################
#
#                 Cambridge Crystallographic Data Centre
#                                CCDC 
#
#######################################################################
#
# If this CIF has been generated from an entry in the Cambridge 
# Structural Database, then it will include bibliographic, chemical, 
# crystal, experimental, refinement or atomic coordinate data resulting 
# from the CCDC's data processing and validation procedures.
#
#######################################################################

data_PIHDUH
_chemical_formula_moiety         'C19 H23 F3 O2'
_chemical_name_systematic        
Cyclohexyl(2-phenyl-3-(trifluoromethyl)tetrahydro-2H-pyran-2-yl)methanone
_symmetry_cell_setting           monoclinic
_symmetry_space_group_name_H-M   'P 21/n'
_symmetry_Int_Tables_number      14
_space_group_name_Hall           '-P 2yn'
loop_
_symmetry_equiv_pos_site_id
_symmetry_equiv_pos_as_xyz
1 x,y,z
2 1/2-x,1/2+y,1/2-z
3 -x,-y,-z
4 1/2+x,1/2-y,1/2+z
_cell_length_a                   8.6645(2)
_cell_length_b                   10.4339(3)
_cell_length_c                   18.8112(5)
_cell_angle_alpha                90
_cell_angle_beta                 101.207(3)
_cell_angle_gamma                90
_cell_volume                     1668.19
_exptl_crystal_colour            'light yellow'
_exptl_crystal_description       block
_cell_formula_units_Z            4
loop_
_atom_site_label
_atom_site_type_symbol
_atom_site_fract_x
_atom_site_fract_y
_atom_site_fract_z
F1 F 0.55880(9) 0.65946(8) 0.39148(5)
F2 F 0.72029(10) 0.66399(7) 0.31901(4)
F3 F 0.79933(10) 0.60509(7) 0.42913(4)
O1 O 0.76142(9) 0.92945(8) 0.29528(4)
O2 O 0.41000(10) 0.91090(9) 0.36164(5)
C1 C 0.68006(13) 0.93109(11) 0.35434(6)
C2 C 0.74888(13) 0.82703(11) 0.41150(6)
H1 H 0.7040 0.8426 0.4547
C3 C 0.92825(14) 0.84568(12) 0.43378(6)
H2 H 0.9497 0.9257 0.4601
H3 H 0.9724 0.7766 0.4659
C4 C 1.00707(14) 0.84762(13) 0.36786(7)
H4 H 1.1181 0.8670 0.3830
H5 H 0.9974 0.7641 0.3447
C5 C 0.92907(13) 0.94839(12) 0.31476(6)
H6 H 0.9503 1.0326 0.3362
H7 H 0.9739 0.9451 0.2714
C6 C 0.70715(14) 0.69032(12) 0.38724(6)
C7 C 0.68427(12) 1.06506(11) 0.38894(6)
C8 C 0.65810(13) 1.08480(11) 0.45916(6)
H8 H 0.6427 1.0148 0.4876
C9 C 0.65494(13) 1.20836(12) 0.48688(6)
H9 H 0.6363 1.2203 0.5335
C10 C 0.67939(13) 1.31377(12) 0.44556(6)
H10 H 0.6789 1.3961 0.4645
C11 C 0.70464(14) 1.29526(12) 0.37560(6)
H11 H 0.7210 1.3655 0.3475
C12 C 0.70561(13) 1.17235(12) 0.34744(6)
H12 H 0.7207 1.1612 0.3002
C13 C 0.50371(13) 0.90174(11) 0.32180(6)
C14 C 0.45484(13) 0.86775(11) 0.24228(6)
H13 H 0.5410 0.8208 0.2272
C15 C 0.42688(15) 0.99305(12) 0.19860(7)
H14 H 0.3494 1.0445 0.2166
H15 H 0.5241 1.0416 0.2053
C16 C 0.36911(16) 0.96619(15) 0.11781(7)
H16 H 0.3469 1.0466 0.0920
H17 H 0.4510 0.9224 0.0987
C17 C 0.22090(15) 0.88374(14) 0.10555(7)
H18 H 0.1366 0.9302 0.1213
H19 H 0.1882 0.8657 0.0542
C18 C 0.25070(15) 0.75826(13) 0.14729(7)
H20 H 0.3294 0.7089 0.1289
H21 H 0.1544 0.7084 0.1400
C19 C 0.30756(15) 0.78348(13) 0.22845(7)
H22 H 0.2246 0.8254 0.2477
H23 H 0.3307 0.7025 0.2536
loop_
_geom_bond_atom_site_label_1
_geom_bond_atom_site_label_2
_geom_bond_site_symmetry_1
_geom_bond_site_symmetry_2
F1 C6 1_555 1_555
F2 C6 1_555 1_555
F3 C6 1_555 1_555
O1 C1 1_555 1_555
O2 C13 1_555 1_555
C1 C2 1_555 1_555
C2 H1 1_555 1_555
C3 C2 1_555 1_555
H2 C3 1_555 1_555
H3 C3 1_555 1_555
C4 C3 1_555 1_555
H4 C4 1_555 1_555
H5 C4 1_555 1_555
C5 O1 1_555 1_555
H6 C5 1_555 1_555
H7 C5 1_555 1_555
C6 C2 1_555 1_555
C7 C1 1_555 1_555
C8 C7 1_555 1_555
H8 C8 1_555 1_555
C9 C8 1_555 1_555
H9 C9 1_555 1_555
C10 C9 1_555 1_555
H10 C10 1_555 1_555
C11 C10 1_555 1_555
H11 C11 1_555 1_555
C12 C7 1_555 1_555
H12 C12 1_555 1_555
C13 C1 1_555 1_555
C14 C13 1_555 1_555
H13 C14 1_555 1_555
C15 C14 1_555 1_555
H14 C15 1_555 1_555
H15 C15 1_555 1_555
C16 C15 1_555 1_555
H16 C16 1_555 1_555
H17 C16 1_555 1_555
C17 C16 1_555 1_555
H18 C17 1_555 1_555
H19 C17 1_555 1_555
C18 C17 1_555 1_555
H20 C18 1_555 1_555
H21 C18 1_555 1_555
C19 C14 1_555 1_555
H22 C19 1_555 1_555
H23 C19 1_555 1_555
C4 C5 1_555 1_555
C11 C12 1_555 1_555
C18 C19 1_555 1_555

#END
