
#######################################################################
#
#                 Cambridge Crystallographic Data Centre
#                                CCDC 
#
#######################################################################
#
# If this CIF has been generated from an entry in the Cambridge 
# Structural Database, then it will include bibliographic, chemical, 
# crystal, experimental, refinement or atomic coordinate data resulting 
# from the CCDC's data processing and validation procedures.
#
#######################################################################

data_PIHGAQ
_chemical_formula_moiety         'C37 H30 B1 N1'
_chemical_name_systematic        
8,8-Dimethyl-10-(triphenylvinyl)-8H-7\l^5^,8\l^5^-[2,1]benzazaborolo[3,2-a]isoquinoline
_symmetry_cell_setting           orthorhombic
_symmetry_space_group_name_H-M   'P 21 21 21'
_symmetry_Int_Tables_number      19
_space_group_name_Hall           'P 2ac 2ab'
loop_
_symmetry_equiv_pos_site_id
_symmetry_equiv_pos_as_xyz
1 x,y,z
2 1/2+x,1/2-y,-z
3 -x,1/2+y,1/2-z
4 1/2-x,-y,1/2+z
_cell_length_a                   9.8722(14)
_cell_length_b                   12.5757(17)
_cell_length_c                   23.444(3)
_cell_angle_alpha                90
_cell_angle_beta                 90
_cell_angle_gamma                90
_cell_volume                     2910.57
_exptl_crystal_colour            colorless
_exptl_crystal_description       block
_cell_formula_units_Z            4
loop_
_atom_site_label
_atom_site_type_symbol
_atom_site_fract_x
_atom_site_fract_y
_atom_site_fract_z
C1 C 0.5865(4) 0.8079(3) -0.01704(17)
C2 C 0.5309(5) 0.7365(3) 0.0226(2)
H1 H 0.4786 0.7622 0.0526
C3 C 0.3927(5) 0.9535(3) -0.08707(16)
H2 H 0.3394 0.9030 -0.0687
C4 C 0.5160(4) 0.9790(3) -0.06464(15)
C5 C 0.6578(5) 0.7662(4) -0.0625(2)
H3 H 0.6925 0.8115 -0.0902
C6 C 0.5692(5) 1.0964(3) 0.04335(16)
N1 N 0.6554(3) 0.7580(2) 0.26886(13)
C7 C 1.0910(6) 0.5636(4) 0.2945(2)
H4 H 1.1624 0.5217 0.3073
C8 C 0.9749(6) 0.5661(4) 0.3240(2)
H5 H 0.9675 0.5263 0.3573
C9 C 0.5532(7) 0.6284(4) 0.0176(3)
H6 H 0.5180 0.5822 0.0448
C10 C 0.6257(8) 0.5894(5) -0.0265(3)
H7 H 0.6402 0.5166 -0.0294
C11 C 0.4294(10) 1.0761(5) -0.1643(2)
H8 H 0.4005 1.1087 -0.1977
C12 C 0.3451(6) 1.0008(4) -0.1363(2)
H9 H 0.2601 0.9838 -0.1507
C13 C 0.6006(7) 1.0529(4) -0.09347(19)
H10 H 0.6867 1.0690 -0.0799
C14 C 0.5509(10) 1.0999(5) -0.1421(2)
H11 H 0.6040 1.1505 -0.1604
C15 C 0.6785(6) 0.6564(4) -0.0673(3)
H12 H 0.7275 0.6289 -0.0978
C16 C 0.4552(6) 1.1476(4) 0.02484(18)
H13 H 0.3868 1.1084 0.0074
C17 C 0.4392(9) 1.2540(5) 0.0312(2)
H14 H 0.3608 1.2871 0.0183
C18 C 0.5389(11) 1.3123(4) 0.0567(3)
H15 H 0.5279 1.3854 0.0608
C19 C 0.6569(8) 1.2644(5) 0.0769(2)
H16 H 0.7246 1.3038 0.0946
C20 C 0.6690(5) 1.1549(3) 0.06926(18)
H17 H 0.7468 1.1206 0.0821
B1 B 0.5411(5) 0.8421(4) 0.2450(2)
C21 C 1.1056(5) 0.6225(3) 0.2453(2)
H18 H 1.1879 0.6218 0.2260
C22 C 0.5385(6) 0.9434(4) 0.2873(2)
H19 H 0.6292 0.9686 0.2932
H20 H 0.4999 0.9228 0.3233
H21 H 0.4848 0.9989 0.2707
C23 C 0.8618(5) 0.6287(3) 0.30543(18)
C24 C 0.8747(4) 0.6868(3) 0.25343(16)
C25 C 0.7640(4) 0.7491(3) 0.23572(15)
C26 C 0.7398(4) 0.8091(3) 0.18199(14)
C27 C 0.6178(4) 0.8635(3) 0.18614(15)
C28 C 0.5731(4) 0.9217(3) 0.13868(16)
H22 H 0.4928 0.9601 0.1411
C29 C 0.6470(4) 0.9230(3) 0.08796(14)
C30 C 0.5925(4) 0.9777(3) 0.03700(16)
C31 C 0.5647(4) 0.9240(3) -0.01172(16)
C32 C 0.6447(5) 0.7039(4) 0.31826(18)
H23 H 0.5673 0.7122 0.3404
C33 C 0.7425(6) 0.6389(4) 0.3361(2)
H24 H 0.7306 0.6000 0.3695
C34 C 1.0005(4) 0.6820(3) 0.22451(17)
H25 H 1.0119 0.7200 0.1908
C35 C 0.8176(4) 0.8123(3) 0.13257(15)
H26 H 0.9003 0.7770 0.1310
C36 C 0.7715(4) 0.8680(3) 0.08612(15)
H27 H 0.8230 0.8695 0.0529
C37 C 0.3978(5) 0.7836(4) 0.2393(2)
H28 H 0.3329 0.8318 0.2231
H29 H 0.3675 0.7614 0.2763
H30 H 0.4069 0.7226 0.2150
loop_
_geom_bond_atom_site_label_1
_geom_bond_atom_site_label_2
_geom_bond_site_symmetry_1
_geom_bond_site_symmetry_2
C1 C2 1_555 1_555
C2 H1 1_555 1_555
C3 H2 1_555 1_555
C4 C3 1_555 1_555
C5 C1 1_555 1_555
H3 C5 1_555 1_555
C6 C16 1_555 1_555
N1 B1 1_555 1_555
C7 H4 1_555 1_555
C8 C7 1_555 1_555
H5 C8 1_555 1_555
C9 C2 1_555 1_555
H6 C9 1_555 1_555
C10 C9 1_555 1_555
H7 C10 1_555 1_555
C11 H8 1_555 1_555
C12 C3 1_555 1_555
H9 C12 1_555 1_555
C13 C4 1_555 1_555
H10 C13 1_555 1_555
C14 C11 1_555 1_555
H11 C14 1_555 1_555
C15 C5 1_555 1_555
H12 C15 1_555 1_555
C16 H13 1_555 1_555
C17 C16 1_555 1_555
H14 C17 1_555 1_555
C18 C17 1_555 1_555
H15 C18 1_555 1_555
C19 C18 1_555 1_555
H16 C19 1_555 1_555
C20 C6 1_555 1_555
H17 C20 1_555 1_555
B1 C22 1_555 1_555
C21 C7 1_555 1_555
H18 C21 1_555 1_555
C22 H19 1_555 1_555
H20 C22 1_555 1_555
H21 C22 1_555 1_555
C23 C8 1_555 1_555
C24 C23 1_555 1_555
C25 N1 1_555 1_555
C26 C25 1_555 1_555
C27 B1 1_555 1_555
C28 C27 1_555 1_555
H22 C28 1_555 1_555
C29 C28 1_555 1_555
C30 C6 1_555 1_555
C31 C1 1_555 1_555
C32 N1 1_555 1_555
H23 C32 1_555 1_555
C33 C23 1_555 1_555
H24 C33 1_555 1_555
C34 C21 1_555 1_555
H25 C34 1_555 1_555
C35 C26 1_555 1_555
H26 C35 1_555 1_555
C36 C29 1_555 1_555
H27 C36 1_555 1_555
C37 B1 1_555 1_555
H28 C37 1_555 1_555
H29 C37 1_555 1_555
H30 C37 1_555 1_555
C4 C31 1_555 1_555
C10 C15 1_555 1_555
C11 C12 1_555 1_555
C13 C14 1_555 1_555
C19 C20 1_555 1_555
C24 C25 1_555 1_555
C24 C34 1_555 1_555
C26 C27 1_555 1_555
C29 C30 1_555 1_555
C30 C31 1_555 1_555
C32 C33 1_555 1_555
C35 C36 1_555 1_555

#END
