
#######################################################################
#
#                 Cambridge Crystallographic Data Centre
#                                CCDC 
#
#######################################################################
#
# If this CIF has been generated from an entry in the Cambridge 
# Structural Database, then it will include bibliographic, chemical, 
# crystal, experimental, refinement or atomic coordinate data resulting 
# from the CCDC's data processing and validation procedures.
#
#######################################################################

data_PIHGUL
_chemical_formula_moiety         'C30 H24 N2 O3 S1'
_chemical_name_systematic        
'N-(6-ethoxy-1,3-benzothiazol-2-yl)-2-(naphthalen-2-yl)-1,7b-dihydrocyclobuta[b][1]benzofuran-2a(2H)-carboxamide unknown solvate'
_symmetry_cell_setting           orthorhombic
_symmetry_space_group_name_H-M   'P 21 21 21'
_symmetry_Int_Tables_number      19
_space_group_name_Hall           'P 2ac 2ab'
loop_
_symmetry_equiv_pos_site_id
_symmetry_equiv_pos_as_xyz
1 x,y,z
2 1/2-x,-y,1/2+z
3 -x,1/2+y,1/2-z
4 1/2+x,1/2-y,-z
_cell_length_a                   5.70030(10)
_cell_length_b                   15.2735(2)
_cell_length_c                   30.7382(6)
_cell_angle_alpha                90
_cell_angle_beta                 90
_cell_angle_gamma                90
_cell_volume                     2676.18
_exptl_crystal_colour            colorless
_exptl_crystal_description       needle
_cell_formula_units_Z            4
loop_
_atom_site_label
_atom_site_type_symbol
_atom_site_fract_x
_atom_site_fract_y
_atom_site_fract_z
C1 C 0.3466(5) 0.5129(2) 0.42367(11)
O1 O 0.5117(5) 0.50251(14) 0.39933(7)
C2 C 0.2817(5) 0.4445(2) 0.45671(10)
C3 C 0.2286(5) 0.35032(19) 0.43901(10)
H1 H 0.104375 0.324414 0.457487
C4 C 0.4683(6) 0.3197(2) 0.45700(10)
H2 H 0.458648 0.266593 0.474793
H3 H 0.589659 0.313871 0.434606
C5 C 0.4886(6) 0.40462(19) 0.48394(10)
H4 H 0.640133 0.435785 0.481172
C6 C 0.3839(5) 0.40532(19) 0.52854(10)
C7 C 0.4639(6) 0.3723(2) 0.56754(10)
H5 H 0.607113 0.341989 0.568892
C8 C 0.3303(6) 0.3845(2) 0.60483(11)
H6 H 0.381720 0.361061 0.631450
C9 C 0.1229(6) 0.4307(2) 0.60309(11)
H7 H 0.037573 0.439843 0.628864
C10 C 0.0364(6) 0.46415(19) 0.56411(10)
H8 H -0.105925 0.495105 0.562793
C11 C 0.1705(5) 0.4495(2) 0.52768(10)
O2 O 0.1059(4) 0.47833(13) 0.48632(7)
C12 C 0.1602(5) 0.3367(2) 0.39256(10)
C13 C -0.0441(6) 0.3800(2) 0.37681(11)
H9 H -0.122955 0.419859 0.394928
C14 C -0.1265(6) 0.3648(2) 0.33655(12)
H10 H -0.260943 0.394746 0.326941
C15 C -0.0146(6) 0.3048(2) 0.30836(10)
C16 C -0.0989(7) 0.2857(3) 0.26630(12)
H11 H -0.233303 0.314498 0.255850
C17 C 0.0131(8) 0.2255(3) 0.24044(12)
H12 H -0.046530 0.212918 0.212628
C18 C 0.2133(7) 0.1832(3) 0.25494(12)
H13 H 0.288359 0.141988 0.236989
C19 C 0.3025(7) 0.2013(2) 0.29553(11)
H14 H 0.438933 0.172377 0.304968
C20 C 0.1931(5) 0.2622(2) 0.32316(10)
C21 C 0.2748(5) 0.2802(2) 0.36541(11)
H15 H 0.412159 0.252549 0.375262
N1 N 0.2096(5) 0.58550(18) 0.42265(9)
H16 H 0.110(7) 0.580(3) 0.4400(12)
C22 C 0.2524(5) 0.6602(2) 0.39856(9)
N2 N 0.1168(5) 0.72705(16) 0.40128(8)
C23 C 0.2022(6) 0.7940(2) 0.37497(10)
C24 C 0.1010(6) 0.8766(2) 0.36886(11)
H17 H -0.034187 0.892653 0.384458
C25 C 0.2009(6) 0.9342(2) 0.33987(10)
H18 H 0.131075 0.989161 0.335304
C26 C 0.4055(6) 0.9120(2) 0.31701(10)
C27 C 0.5137(6) 0.83222(19) 0.32371(9)
H19 H 0.653336 0.817640 0.309156
C28 C 0.4100(5) 0.77457(18) 0.35248(10)
S1 S 0.49983(15) 0.66823(5) 0.36511(2)
O3 O 0.4822(5) 0.97337(14) 0.28817(7)
C29 C 0.6752(7) 0.9494(2) 0.25996(12)
H20 H 0.643275 0.892871 0.246108
H21 H 0.820001 0.944081 0.276953
C30 C 0.7027(10) 1.0181(3) 0.22638(16)
H22 H 0.831641 1.002868 0.207224
H23 H 0.735388 1.073766 0.240328
H24 H 0.559203 1.022732 0.209587
loop_
_geom_bond_atom_site_label_1
_geom_bond_atom_site_label_2
_geom_bond_site_symmetry_1
_geom_bond_site_symmetry_2
C1 O1 1_555 1_555
C2 C1 1_555 1_555
C3 C2 1_555 1_555
H1 C3 1_555 1_555
C4 C3 1_555 1_555
H2 C4 1_555 1_555
H3 C4 1_555 1_555
C5 C2 1_555 1_555
H4 C5 1_555 1_555
C6 C5 1_555 1_555
C7 C6 1_555 1_555
H5 C7 1_555 1_555
C8 C7 1_555 1_555
H6 C8 1_555 1_555
C9 C8 1_555 1_555
H7 C9 1_555 1_555
C10 C9 1_555 1_555
H8 C10 1_555 1_555
C11 C6 1_555 1_555
O2 C2 1_555 1_555
C12 C3 1_555 1_555
C13 C12 1_555 1_555
H9 C13 1_555 1_555
C14 C13 1_555 1_555
H10 C14 1_555 1_555
C15 C14 1_555 1_555
C16 C15 1_555 1_555
H11 C16 1_555 1_555
C17 C16 1_555 1_555
H12 C17 1_555 1_555
C18 C17 1_555 1_555
H13 C18 1_555 1_555
C19 C18 1_555 1_555
H14 C19 1_555 1_555
C20 C15 1_555 1_555
C21 C12 1_555 1_555
H15 C21 1_555 1_555
N1 C1 1_555 1_555
H16 N1 1_555 1_555
C22 N1 1_555 1_555
N2 C22 1_555 1_555
C23 N2 1_555 1_555
C24 C23 1_555 1_555
H17 C24 1_555 1_555
C25 C24 1_555 1_555
H18 C25 1_555 1_555
C26 C25 1_555 1_555
C27 C26 1_555 1_555
H19 C27 1_555 1_555
C28 C23 1_555 1_555
S1 C22 1_555 1_555
O3 C26 1_555 1_555
C29 O3 1_555 1_555
H20 C29 1_555 1_555
H21 C29 1_555 1_555
C30 C29 1_555 1_555
H22 C30 1_555 1_555
H23 C30 1_555 1_555
H24 C30 1_555 1_555
C4 C5 1_555 1_555
C10 C11 1_555 1_555
C11 O2 1_555 1_555
C19 C20 1_555 1_555
C20 C21 1_555 1_555
C27 C28 1_555 1_555
C28 S1 1_555 1_555

#END
