
#######################################################################
#
#                 Cambridge Crystallographic Data Centre
#                                CCDC 
#
#######################################################################
#
# If this CIF has been generated from an entry in the Cambridge 
# Structural Database, then it will include bibliographic, chemical, 
# crystal, experimental, refinement or atomic coordinate data resulting 
# from the CCDC's data processing and validation procedures.
#
#######################################################################

data_PIHGOF
_chemical_formula_moiety         'C24 H26 O2'
_chemical_name_systematic        3-[(benzyloxy)methyl]-2,4-diphenylbutan-2-ol
_symmetry_cell_setting           monoclinic
_symmetry_space_group_name_H-M   'P 21/c'
_symmetry_Int_Tables_number      14
_space_group_name_Hall           '-P 2ybc'
loop_
_symmetry_equiv_pos_site_id
_symmetry_equiv_pos_as_xyz
1 x,y,z
2 -x,1/2+y,1/2-z
3 -x,-y,-z
4 x,1/2-y,1/2+z
_cell_length_a                   18.4683(6)
_cell_length_b                   5.6835(2)
_cell_length_c                   18.5024(7)
_cell_angle_alpha                90
_cell_angle_beta                 93.1978(16)
_cell_angle_gamma                90
_cell_volume                     1939.07
_exptl_crystal_colour            colorless
_exptl_crystal_description       block
_cell_formula_units_Z            4
loop_
_atom_site_label
_atom_site_type_symbol
_atom_site_fract_x
_atom_site_fract_y
_atom_site_fract_z
C1 C 0.95812(11) 0.4561(4) 0.38927(12)
H1 H 0.971149 0.567463 0.426021
C2 C 1.00666(12) 0.2804(5) 0.37225(15)
H2 H 1.052801 0.272132 0.397521
C3 C 0.98832(13) 0.1179(4) 0.31886(14)
H3 H 1.02161 -0.002248 0.30754
C4 C 0.92181(13) 0.1308(4) 0.28228(12)
H4 H 0.908969 0.019343 0.2455
C5 C 0.87345(11) 0.3054(4) 0.29875(10)
H5 H 0.827679 0.313529 0.27277
C6 C 0.89054(10) 0.4689(3) 0.35253(10)
C7 C 0.83678(12) 0.6532(4) 0.37167(11)
H6 H 0.861239 0.808206 0.373944
H7 H 0.797656 0.660678 0.332924
C8 C 0.76457(10) 0.3944(3) 0.44044(10)
H8 H 0.797674 0.258248 0.437232
H9 H 0.729127 0.389353 0.398309
C9 C 0.72502(9) 0.3810(3) 0.51023(9)
H10 H 0.701887 0.222135 0.511578
C10 C 0.66338(10) 0.5641(3) 0.51073(10)
H11 H 0.643502 0.565615 0.559326
H12 H 0.683786 0.721973 0.502016
C11 C 0.60221(9) 0.5179(3) 0.45479(9)
C12 C 0.58401(10) 0.6819(3) 0.40155(10)
H13 H 0.611465 0.82275 0.399127
C13 C 0.52592(10) 0.6437(3) 0.35131(10)
H14 H 0.514138 0.757974 0.315077
C14 C 0.48549(10) 0.4389(4) 0.35436(11)
H15 H 0.445719 0.412764 0.320513
C15 C 0.50342(10) 0.2729(3) 0.40703(11)
H16 H 0.476182 0.131475 0.409094
C16 C 0.56120(10) 0.3126(3) 0.45692(10)
H17 H 0.572908 0.197824 0.493041
C17 C 0.77629(9) 0.4028(3) 0.57953(9)
C18 C 0.84018(10) 0.2311(3) 0.57877(11)
H18 H 0.869305 0.266356 0.537438
H19 H 0.821781 0.069625 0.574617
H20 H 0.870324 0.247384 0.623786
C19 C 0.73385(9) 0.3607(3) 0.64662(9)
C20 C 0.69676(10) 0.1484(3) 0.65544(10)
H21 H 0.699202 0.028711 0.619811
C21 C 0.65663(10) 0.1106(3) 0.71535(10)
H22 H 0.631066 -0.033176 0.719897
C22 C 0.65338(10) 0.2809(3) 0.76885(10)
H23 H 0.625628 0.255554 0.809853
C23 C 0.69146(10) 0.4887(3) 0.76121(10)
H24 H 0.690467 0.605324 0.797916
C24 C 0.73097(10) 0.5291(3) 0.70091(10)
H25 H 0.756344 0.67338 0.696621
O1 O 0.80518(7) 0.6090(2) 0.43957(7)
O2 O 0.80436(7) 0.6383(2) 0.58496(7)
H26 H 0.81861 0.680512 0.544627
loop_
_geom_bond_atom_site_label_1
_geom_bond_atom_site_label_2
_geom_bond_site_symmetry_1
_geom_bond_site_symmetry_2
C1 H1 1_555 1_555
C2 C1 1_555 1_555
H2 C2 1_555 1_555
C3 C2 1_555 1_555
H3 C3 1_555 1_555
C4 C3 1_555 1_555
H4 C4 1_555 1_555
C5 C4 1_555 1_555
H5 C5 1_555 1_555
C6 C1 1_555 1_555
C7 C6 1_555 1_555
H6 C7 1_555 1_555
H7 C7 1_555 1_555
C8 H8 1_555 1_555
H9 C8 1_555 1_555
C9 C8 1_555 1_555
H10 C9 1_555 1_555
C10 C9 1_555 1_555
H11 C10 1_555 1_555
H12 C10 1_555 1_555
C11 C10 1_555 1_555
C12 C11 1_555 1_555
H13 C12 1_555 1_555
C13 C12 1_555 1_555
H14 C13 1_555 1_555
C14 C13 1_555 1_555
H15 C14 1_555 1_555
C15 C14 1_555 1_555
H16 C15 1_555 1_555
C16 C11 1_555 1_555
H17 C16 1_555 1_555
C17 C9 1_555 1_555
C18 C17 1_555 1_555
H18 C18 1_555 1_555
H19 C18 1_555 1_555
H20 C18 1_555 1_555
C19 C17 1_555 1_555
C20 C19 1_555 1_555
H21 C20 1_555 1_555
C21 C20 1_555 1_555
H22 C21 1_555 1_555
C22 C21 1_555 1_555
H23 C22 1_555 1_555
C23 C22 1_555 1_555
H24 C23 1_555 1_555
C24 C19 1_555 1_555
H25 C24 1_555 1_555
O1 C7 1_555 1_555
O2 C17 1_555 1_555
H26 O2 1_555 1_555
C5 C6 1_555 1_555
C8 O1 1_555 1_555
C15 C16 1_555 1_555
C23 C24 1_555 1_555

#END
