
#######################################################################
#
#                 Cambridge Crystallographic Data Centre
#                                CCDC 
#
#######################################################################
#
# If this CIF has been generated from an entry in the Cambridge 
# Structural Database, then it will include bibliographic, chemical, 
# crystal, experimental, refinement or atomic coordinate data resulting 
# from the CCDC's data processing and validation procedures.
#
#######################################################################

data_PIHJOI
_chemical_formula_moiety         'C26 H15 N1 O2 S1'
_chemical_name_systematic        
2-(10H-phenothiazin-10-yl)anthracene-9,10-dione
_symmetry_cell_setting           monoclinic
_symmetry_space_group_name_H-M   'P 21/n'
_symmetry_Int_Tables_number      14
_space_group_name_Hall           '-P 2yn'
loop_
_symmetry_equiv_pos_site_id
_symmetry_equiv_pos_as_xyz
1 x,y,z
2 1/2-x,1/2+y,1/2-z
3 -x,-y,-z
4 1/2+x,1/2-y,1/2+z
_cell_length_a                   24.092(5)
_cell_length_b                   6.8060(14)
_cell_length_c                   24.843(5)
_cell_angle_alpha                90
_cell_angle_beta                 109.79(3)
_cell_angle_gamma                90
_cell_volume                     3832.93
_exptl_crystal_colour            yellow
_exptl_crystal_description       needle
_cell_formula_units_Z            8
loop_
_atom_site_label
_atom_site_type_symbol
_atom_site_fract_x
_atom_site_fract_y
_atom_site_fract_z
S1 S 0.38804(14) 0.2845(4) 0.87066(10)
O1 O 0.30583(18) -0.1201(8) 0.61954(16)
N1 N 0.42555(19) -0.0821(8) 0.82977(18)
C1 C 0.4677(3) -0.0032(9) 0.8810(2)
O2 O 0.53010(17) -0.1110(7) 0.62502(16)
C2 C 0.5196(3) -0.1033(13) 0.9100(3)
H1 H 0.5265 -0.2257 0.8969
C3 C 0.5609(4) -0.023(2) 0.9582(4)
H2 H 0.5965 -0.0863 0.9766
C4 C 0.5481(5) 0.151(3) 0.9779(5)
H3 H 0.5760 0.2069 1.0098
C5 C 0.4972(5) 0.2441(16) 0.9533(4)
H4 H 0.4893 0.3611 0.9687
C6 C 0.4551(4) 0.1634(9) 0.9034(3)
C7 C 0.3436(3) 0.0817(14) 0.8458(3)
C8 C 0.2855(5) 0.0791(18) 0.8440(4)
H5 H 0.2691 0.1871 0.8561
C9 C 0.2510(4) -0.095(2) 0.8229(4)
H6 H 0.2121 -0.0994 0.8217
C10 C 0.2738(4) -0.251(2) 0.8049(3)
H7 H 0.2496 -0.3576 0.7895
C11 C 0.3319(3) -0.2560(15) 0.8085(3)
H8 H 0.3478 -0.3694 0.7986
C12 C 0.3661(3) -0.0919(12) 0.8268(2)
C13 C 0.4400(2) -0.0871(8) 0.7786(2)
C14 C 0.3932(2) -0.0948(9) 0.7255(2)
H9 H 0.3540 -0.0966 0.7239
C15 C 0.4073(2) -0.0995(8) 0.6761(2)
C16 C 0.3565(3) -0.1131(9) 0.6216(2)
C17 C 0.3714(2) -0.1159(8) 0.5680(2)
C18 C 0.3255(3) -0.1171(9) 0.5151(2)
H10 H 0.2863 -0.1164 0.5133
C19 C 0.3397(3) -0.1195(9) 0.4652(2)
H11 H 0.3094 -0.1226 0.4300
C20 C 0.3959(3) -0.1173(10) 0.4665(2)
H12 H 0.4045 -0.1124 0.4328
C21 C 0.4403(3) -0.1224(9) 0.5183(2)
H13 H 0.4792 -0.1303 0.5195
C22 C 0.4284(2) -0.1160(8) 0.5687(2)
C23 C 0.4797(3) -0.1073(8) 0.6245(2)
C24 C 0.4642(2) -0.0979(8) 0.6756(2)
C25 C 0.5094(2) -0.0837(8) 0.7299(2)
H14 H 0.5484 -0.0760 0.7315
C26 C 0.4973(2) -0.0811(8) 0.7798(2)
H15 H 0.5280 -0.0753 0.8146
S2 S 0.72037(9) 0.0389(4) 0.90267(9)
O3 O 0.39331(16) 0.4027(7) 0.70667(16)
O4 O 0.58521(16) 0.3961(7) 0.64336(14)
N2 N 0.66639(19) 0.4213(8) 0.85915(16)
C27 C 0.7175(2) 0.3791(11) 0.8439(2)
C28 C 0.7395(3) 0.5153(11) 0.8168(3)
H16 H 0.7205 0.6353 0.8063
C29 C 0.7904(3) 0.4754(15) 0.8048(3)
H17 H 0.8040 0.5643 0.7837
C30 C 0.8210(3) 0.3041(18) 0.8241(3)
H18 H 0.8559 0.2789 0.8173
C31 C 0.7990(3) 0.1678(14) 0.8542(3)
H19 H 0.8200 0.0528 0.8676
C32 C 0.7475(3) 0.2012(12) 0.8640(2)
C33 C 0.6994(3) 0.2141(12) 0.9437(3)
C34 C 0.7093(3) 0.1864(15) 1.0022(3)
H20 H 0.7264 0.0709 1.0203
C35 C 0.6933(4) 0.332(2) 1.0324(4)
H21 H 0.6995 0.3136 1.0711
C36 C 0.6682(3) 0.5058(17) 1.0065(3)
H22 H 0.6564 0.6015 1.0271
C37 C 0.6611(3) 0.5344(13) 0.9502(2)
H23 H 0.6470 0.6548 0.9334
C38 C 0.6739(2) 0.3919(12) 0.9182(2)
C39 C 0.6101(2) 0.4148(9) 0.8178(2)
C40 C 0.5588(2) 0.4134(9) 0.8335(2)
H24 H 0.5624 0.4139 0.8720
C41 C 0.5037(2) 0.4114(9) 0.7923(2)
H25 H 0.4706 0.4084 0.8035
C42 C 0.4962(2) 0.4138(7) 0.7343(2)
C43 C 0.4372(2) 0.4044(9) 0.6927(2)
C44 C 0.4317(2) 0.3924(8) 0.6313(2)
C45 C 0.3766(2) 0.3878(9) 0.5887(3)
H26 H 0.3429 0.3883 0.5989
C46 C 0.3711(3) 0.3824(9) 0.5319(2)
H27 H 0.3339 0.3812 0.5039
C47 C 0.4196(3) 0.3789(8) 0.5170(2)
H28 H 0.4155 0.3711 0.4785
C48 C 0.4758(2) 0.3865(9) 0.5575(2)
H29 H 0.5091 0.3880 0.5466
C49 C 0.4808(2) 0.3920(8) 0.6150(2)
C50 C 0.5419(2) 0.4027(9) 0.6579(2)
C51 C 0.5461(2) 0.4103(7) 0.7184(2)
C52 C 0.6020(2) 0.4130(8) 0.7595(2)
H30 H 0.6349 0.4137 0.7479
loop_
_geom_bond_atom_site_label_1
_geom_bond_atom_site_label_2
_geom_bond_site_symmetry_1
_geom_bond_site_symmetry_2
S1 C6 1_555 1_555
O1 C16 1_555 1_555
N1 C1 1_555 1_555
C1 C2 1_555 1_555
O2 C23 1_555 1_555
C2 H1 1_555 1_555
C3 C2 1_555 1_555
H2 C3 1_555 1_555
C4 C3 1_555 1_555
H3 C4 1_555 1_555
C5 C4 1_555 1_555
H4 C5 1_555 1_555
C6 C1 1_555 1_555
C7 S1 1_555 1_555
C8 C7 1_555 1_555
H5 C8 1_555 1_555
C9 C8 1_555 1_555
H6 C9 1_555 1_555
C10 C9 1_555 1_555
H7 C10 1_555 1_555
C11 C10 1_555 1_555
H8 C11 1_555 1_555
C12 N1 1_555 1_555
C13 N1 1_555 1_555
C14 C13 1_555 1_555
H9 C14 1_555 1_555
C15 C14 1_555 1_555
C16 C15 1_555 1_555
C17 C16 1_555 1_555
C18 C17 1_555 1_555
H10 C18 1_555 1_555
C19 C18 1_555 1_555
H11 C19 1_555 1_555
C20 C19 1_555 1_555
H12 C20 1_555 1_555
C21 C20 1_555 1_555
H13 C21 1_555 1_555
C22 C17 1_555 1_555
C23 C22 1_555 1_555
C24 C15 1_555 1_555
C25 C24 1_555 1_555
H14 C25 1_555 1_555
C26 C13 1_555 1_555
H15 C26 1_555 1_555
S2 C32 1_555 1_555
O3 C43 1_555 1_555
O4 C50 1_555 1_555
N2 C27 1_555 1_555
C27 C28 1_555 1_555
C28 H16 1_555 1_555
C29 C28 1_555 1_555
H17 C29 1_555 1_555
C30 C29 1_555 1_555
H18 C30 1_555 1_555
C31 C30 1_555 1_555
H19 C31 1_555 1_555
C32 C27 1_555 1_555
C33 S2 1_555 1_555
C34 C33 1_555 1_555
H20 C34 1_555 1_555
C35 C34 1_555 1_555
H21 C35 1_555 1_555
C36 C35 1_555 1_555
H22 C36 1_555 1_555
C37 C36 1_555 1_555
H23 C37 1_555 1_555
C38 N2 1_555 1_555
C39 N2 1_555 1_555
C40 C39 1_555 1_555
H24 C40 1_555 1_555
C41 C40 1_555 1_555
H25 C41 1_555 1_555
C42 C41 1_555 1_555
C43 C42 1_555 1_555
C44 C43 1_555 1_555
C45 C44 1_555 1_555
H26 C45 1_555 1_555
C46 C45 1_555 1_555
H27 C46 1_555 1_555
C47 C46 1_555 1_555
H28 C47 1_555 1_555
C48 C47 1_555 1_555
H29 C48 1_555 1_555
C49 C44 1_555 1_555
C50 C49 1_555 1_555
C51 C42 1_555 1_555
C52 C39 1_555 1_555
H30 C52 1_555 1_555
C5 C6 1_555 1_555
C7 C12 1_555 1_555
C11 C12 1_555 1_555
C21 C22 1_555 1_555
C23 C24 1_555 1_555
C25 C26 1_555 1_555
C31 C32 1_555 1_555
C33 C38 1_555 1_555
C37 C38 1_555 1_555
C48 C49 1_555 1_555
C50 C51 1_555 1_555
C51 C52 1_555 1_555

#END
