
#######################################################################
#
#                 Cambridge Crystallographic Data Centre
#                                CCDC 
#
#######################################################################
#
# If this CIF has been generated from an entry in the Cambridge 
# Structural Database, then it will include bibliographic, chemical, 
# crystal, experimental, refinement or atomic coordinate data resulting 
# from the CCDC's data processing and validation procedures.
#
#######################################################################

data_PIHKID
_chemical_formula_moiety         'C89 H72 N4 O9,2.5(C3 H6 O1)'
_chemical_name_systematic        
"N^2'^,N^2'^,N^5^,N^5^,N^7'^,N^7'^,N^9^,N^9^-octakis(4-methoxyphenyl)spiro[dibenzo[c,h]xanthene-7,9'-fluorene]-2',5,7',9-tetramine acetone solvate"
_symmetry_cell_setting           monoclinic
_symmetry_space_group_name_H-M   'P 21/c'
_symmetry_Int_Tables_number      14
_space_group_name_Hall           '-P 2ybc'
loop_
_symmetry_equiv_pos_site_id
_symmetry_equiv_pos_as_xyz
1 x,y,z
2 -x,1/2+y,1/2-z
3 -x,-y,-z
4 x,1/2-y,1/2+z
_cell_length_a                   21.310(4)
_cell_length_b                   22.284(5)
_cell_length_c                   16.397(3)
_cell_angle_alpha                90
_cell_angle_beta                 95.97(3)
_cell_angle_gamma                90
_cell_volume                     7744.25
_exptl_crystal_colour            'light yellow'
_exptl_crystal_description       needle
_cell_formula_units_Z            4
_chemical_properties_physical    
Moisture-sensitive,Oxygen-sensitive,Light-sensitive
loop_
_atom_site_label
_atom_site_type_symbol
_atom_site_fract_x
_atom_site_fract_y
_atom_site_fract_z
O1 O 0.29078(6) 0.83425(6) 0.55862(7)
O2 O 0.08446(7) 1.16643(6) 0.24686(9)
O3 O -0.13804(7) 0.80285(7) 0.43301(9)
O4 O 0.05694(7) 0.68502(7) 0.72483(9)
O5 O 0.11339(7) 0.37436(6) 0.34552(9)
O6 O 0.32959(7) 0.45311(6) 0.29859(9)
O7 O 0.67084(7) 0.77110(7) 0.34631(11)
O8 O 0.53506(7) 1.03721(7) 0.41371(10)
O9 O 0.16531(7) 1.12074(6) 0.03779(9)
N1 N 0.07492(7) 0.94558(7) 0.40730(10)
N2 N 0.10728(8) 0.62024(7) 0.40881(10)
N3 N 0.43919(7) 0.67118(7) 0.40610(10)
N4 N 0.33243(8) 0.95442(7) 0.19776(10)
C1 C 0.23950(9) 0.86144(8) 0.51602(11)
C2 C 0.21305(9) 0.90858(8) 0.56055(11)
C3 C 0.24026(9) 0.92684(9) 0.63887(11)
H1 H 0.2768 0.9070 0.6639
C4 C 0.21425(9) 0.97299(9) 0.67876(12)
H2 H 0.2328 0.9851 0.7314
C5 C 0.16016(10) 1.00278(9) 0.64255(12)
H3 H 0.1424 1.0347 0.6710
C6 C 0.13292(9) 0.98616(9) 0.56676(12)
H4 H 0.0965 1.0067 0.5429
C7 C 0.15864(9) 0.93849(8) 0.52347(11)
C8 C 0.13195(9) 0.91893(8) 0.44411(11)
C9 C 0.16035(9) 0.87475(8) 0.40351(11)
H5 H 0.1423 0.8631 0.3505
C10 C 0.21604(9) 0.84585(8) 0.43835(11)
C11 C 0.24889(9) 0.80048(8) 0.38783(11)
C12 C 0.20684(8) 0.74788(8) 0.35677(11)
C13 C 0.17569(9) 0.70831(8) 0.40346(11)
H6 H 0.1771 0.7134 0.4611
C14 C 0.14198(9) 0.66059(8) 0.36438(12)
C15 C 0.14263(9) 0.65313(9) 0.27935(12)
H7 H 0.1215 0.6197 0.2531
C16 C 0.17345(9) 0.69359(8) 0.23304(11)
H8 H 0.1729 0.6883 0.1755
C17 C 0.20516(9) 0.74189(8) 0.27172(11)
C18 C 0.24022(9) 0.79217(8) 0.24032(11)
C19 C 0.24959(9) 0.80928(8) 0.16068(11)
H9 H 0.2337 0.7853 0.1153
C20 C 0.28236(9) 0.86159(9) 0.14864(11)
H10 H 0.2892 0.8732 0.0945
C21 C 0.30554(9) 0.89764(8) 0.21488(12)
C22 C 0.29781(9) 0.87970(8) 0.29496(11)
H11 H 0.3146 0.9031 0.3405
C23 C 0.26522(9) 0.82736(8) 0.30642(11)
C24 C 0.30729(9) 0.77630(8) 0.43819(11)
C25 C 0.34716(9) 0.73515(8) 0.40244(11)
H12 H 0.3378 0.7248 0.3463
C26 C 0.39825(9) 0.71002(8) 0.44575(11)
C27 C 0.41229(9) 0.72260(8) 0.53145(11)
C28 C 0.46179(9) 0.69403(9) 0.58093(12)
H13 H 0.4884 0.6663 0.5571
C29 C 0.47153(10) 0.70614(9) 0.66315(12)
H14 H 0.5046 0.6864 0.6960
C30 C 0.43304(10) 0.74751(9) 0.69940(12)
H15 H 0.4403 0.7554 0.7565
C31 C 0.38551(9) 0.77639(9) 0.65322(12)
H16 H 0.3601 0.8046 0.6782
C32 C 0.37369(9) 0.76455(8) 0.56817(11)
C33 C 0.32281(9) 0.79177(8) 0.51838(11)
C34 C 0.07755(9) 1.00008(8) 0.36520(11)
C35 C 0.13561(9) 1.02791(9) 0.35875(12)
H17 H 0.1732 1.0085 0.3812
C36 C 0.13988(9) 1.08311(9) 0.32047(12)
H18 H 0.1800 1.1012 0.3176
C37 C 0.08585(10) 1.11182(9) 0.28650(12)
C38 C 0.14389(10) 1.19252(9) 0.23537(13)
H19 H 0.1372 1.2310 0.2068
H20 H 0.1680 1.1991 0.2888
H21 H 0.1674 1.1654 0.2026
C39 C 0.02764(9) 1.08436(9) 0.29116(12)
H22 H -0.0097 1.1034 0.2671
C40 C 0.02334(9) 1.02986(9) 0.33023(12)
H23 H -0.0169 1.0123 0.3335
C41 C 0.01854(9) 0.91178(8) 0.41382(11)
C42 C -0.02068(9) 0.89365(8) 0.34534(12)
H24 H -0.0118 0.9058 0.2922
C43 C -0.07263(10) 0.85802(9) 0.35426(12)
H25 H -0.0995 0.8463 0.3071
C44 C -0.08611(9) 0.83908(9) 0.43132(12)
C45 C -0.15000(11) 0.77944(11) 0.51079(14)
H26 H -0.1880 0.7544 0.5043
H27 H -0.1140 0.7551 0.5333
H28 H -0.1562 0.8127 0.5483
C46 C -0.04731(10) 0.85697(9) 0.50004(12)
H29 H -0.0560 0.8445 0.5531
C47 C 0.00438(10) 0.89323(9) 0.49062(12)
H30 H 0.0307 0.9057 0.5379
C48 C 0.09260(9) 0.63680(9) 0.48889(12)
C49 C 0.05835(9) 0.68859(9) 0.50012(13)
H31 H 0.0434 0.7122 0.4539
C50 C 0.04556(10) 0.70655(9) 0.57801(13)
H32 H 0.0227 0.7425 0.5849
C51 C 0.06637(10) 0.67162(9) 0.64564(13)
C52 C 0.01712(11) 0.73512(10) 0.73733(15)
H33 H 0.0140 0.7402 0.7961
H34 H 0.0351 0.7715 0.7155
H35 H -0.0250 0.7280 0.7090
C53 C 0.09945(10) 0.61924(9) 0.63472(13)
H36 H 0.1130 0.5949 0.6807
C54 C 0.11291(9) 0.60218(9) 0.55724(12)
H37 H 0.1362 0.5665 0.5507
C55 C 0.11058(9) 0.55745(9) 0.39113(11)
C56 C 0.05579(10) 0.52316(9) 0.38484(12)
H38 H 0.0164 0.5417 0.3911
C57 C 0.05837(10) 0.46231(9) 0.36956(12)
H39 H 0.0208 0.4391 0.3655
C58 C 0.11601(10) 0.43497(9) 0.36009(11)
C59 C 0.17234(11) 0.34423(10) 0.34418(14)
H40 H 0.1648 0.3014 0.3333
H41 H 0.1953 0.3614 0.3009
H42 H 0.1974 0.3491 0.3974
C60 C 0.17068(10) 0.46875(9) 0.36619(12)
H43 H 0.2101 0.4503 0.3597
C61 C 0.16754(10) 0.52989(9) 0.38193(12)
H44 H 0.2051 0.5531 0.3864
C62 C 0.37257(9) 0.58438(9) 0.42172(11)
H45 H 0.3641 0.5999 0.4734
C63 C 0.34538(9) 0.53100(9) 0.39441(12)
H46 H 0.3185 0.5100 0.4273
C64 C 0.35721(9) 0.50761(9) 0.31864(12)
C65 C 0.34541(12) 0.42551(10) 0.22499(15)
H47 H 0.3231 0.3872 0.2171
H48 H 0.3330 0.4519 0.1783
H49 H 0.3910 0.4184 0.2290
C66 C 0.39545(10) 0.53929(9) 0.27029(12)
H50 H 0.4032 0.5241 0.2181
C67 C 0.42241(9) 0.59333(9) 0.29819(12)
H51 H 0.4481 0.6150 0.2643
C68 C 0.41254(9) 0.61628(8) 0.37457(11)
C69 C 0.49858(9) 0.69385(9) 0.39026(11)
C70 C 0.54717(9) 0.65726(9) 0.36823(12)
H52 H 0.5407 0.6152 0.3634
C71 C 0.60500(10) 0.68150(9) 0.35327(12)
H53 H 0.6374 0.6559 0.3380
C72 C 0.61569(10) 0.74263(9) 0.36046(13)
C73 C 0.72412(10) 0.73417(11) 0.33695(16)
H54 H 0.7602 0.7595 0.3272
H55 H 0.7345 0.7105 0.3869
H56 H 0.7144 0.7071 0.2902
C74 C 0.56819(10) 0.77965(9) 0.38355(12)
H57 H 0.5753 0.8216 0.3894
C75 C 0.51069(9) 0.75558(9) 0.39801(12)
H58 H 0.4785 0.7814 0.4136
C76 C 0.38306(9) 0.97717(9) 0.25276(12)
C77 C 0.43073(10) 0.93872(9) 0.28553(13)
H59 H 0.4294 0.8975 0.2705
C78 C 0.48014(10) 0.95973(10) 0.33978(13)
H60 H 0.5117 0.9327 0.3627
C79 C 0.48366(10) 1.02028(10) 0.36072(13)
C80 C 0.53445(12) 1.09695(11) 0.44547(15)
H61 H 0.5730 1.1040 0.4822
H62 H 0.5323 1.1257 0.4000
H63 H 0.4976 1.1021 0.4760
C81 C 0.43764(10) 1.05899(9) 0.32718(13)
H64 H 0.4402 1.1005 0.3401
C82 C 0.38749(10) 1.03739(9) 0.27458(12)
H65 H 0.3555 1.0644 0.2530
C83 C 0.28853(9) 0.99632(8) 0.15707(11)
C84 C 0.30765(10) 1.03577(9) 0.09820(12)
H66 H 0.3498 1.0346 0.0844
C85 C 0.26537(10) 1.07643(9) 0.06006(12)
H67 H 0.2790 1.1035 0.0207
C86 C 0.20289(10) 1.07837(9) 0.07841(12)
C87 C 0.09871(10) 1.11755(11) 0.04546(13)
H68 H 0.0770 1.1501 0.0138
H69 H 0.0822 1.0788 0.0245
H70 H 0.0916 1.1216 0.1033
C88 C 0.18357(10) 1.03902(9) 0.13650(12)
H71 H 0.1411 1.0394 0.1493
C89 C 0.22662(10) 0.99903(9) 0.17583(12)
H72 H 0.2134 0.9729 0.2165
O10 O 0.38459(8) 0.40853(8) 0.02833(11)
C90 C 0.33344(11) 0.42973(11) 0.00498(13)
C91 C 0.32783(13) 0.49109(12) -0.03203(16)
H73 H 0.3102 0.5187 0.0062
H74 H 0.2999 0.4896 -0.0834
H75 H 0.3696 0.5052 -0.0431
C92 C 0.27403(13) 0.39562(13) 0.01163(18)
H76 H 0.2558 0.3834 -0.0432
H77 H 0.2439 0.4211 0.0368
H78 H 0.2833 0.3599 0.0456
O11 O 0.27539(9) 0.24663(9) 0.37959(14)
C93 C 0.33170(12) 0.25651(12) 0.38804(14)
C94 C 0.35820(13) 0.31772(12) 0.40595(18)
H79 H 0.3238 0.3471 0.4024
H80 H 0.3876 0.3278 0.3659
H81 H 0.3806 0.3184 0.4613
C95 C 0.37807(13) 0.20729(12) 0.37967(17)
H82 H 0.4032 0.2166 0.3345
H83 H 0.3555 0.1694 0.3682
H84 H 0.4060 0.2035 0.4308
O12? O 0.56006(16) 0.56699(15) 0.5068(2)
C96? C 0.5211(3) 0.5293(2) 0.5170(3)
C97? C 0.4858(3) 0.5301(3) 0.5923(4)
H85? H 0.4907 0.4912 0.6202
H86? H 0.4409 0.5376 0.5760
H87? H 0.5028 0.5618 0.6296
C98? C 0.5070(4) 0.4800(3) 0.4545(5)
H88? H 0.4672 0.4888 0.4211
H89? H 0.5035 0.4416 0.4827
H90? H 0.5412 0.4777 0.4190
loop_
_geom_bond_atom_site_label_1
_geom_bond_atom_site_label_2
_geom_bond_site_symmetry_1
_geom_bond_site_symmetry_2
O1 C1 1_555 1_555
O2 C37 1_555 1_555
O3 C44 1_555 1_555
O4 C51 1_555 1_555
O5 C58 1_555 1_555
O6 C64 1_555 1_555
O7 C72 1_555 1_555
O8 C79 1_555 1_555
O9 C86 1_555 1_555
N1 C8 1_555 1_555
N2 C14 1_555 1_555
N3 C26 1_555 1_555
N4 C21 1_555 1_555
C1 C2 1_555 1_555
C2 C3 1_555 1_555
C3 H1 1_555 1_555
C4 C3 1_555 1_555
H2 C4 1_555 1_555
C5 C4 1_555 1_555
H3 C5 1_555 1_555
C6 C5 1_555 1_555
H4 C6 1_555 1_555
C7 C2 1_555 1_555
C8 C7 1_555 1_555
C9 C8 1_555 1_555
H5 C9 1_555 1_555
C10 C1 1_555 1_555
C11 C10 1_555 1_555
C12 C11 1_555 1_555
C13 C12 1_555 1_555
H6 C13 1_555 1_555
C14 C13 1_555 1_555
C15 C14 1_555 1_555
H7 C15 1_555 1_555
C16 C15 1_555 1_555
H8 C16 1_555 1_555
C17 C12 1_555 1_555
C18 C17 1_555 1_555
C19 C18 1_555 1_555
H9 C19 1_555 1_555
C20 C19 1_555 1_555
H10 C20 1_555 1_555
C21 C20 1_555 1_555
C22 C21 1_555 1_555
H11 C22 1_555 1_555
C23 C11 1_555 1_555
C24 C11 1_555 1_555
C25 C24 1_555 1_555
H12 C25 1_555 1_555
C26 C25 1_555 1_555
C27 C26 1_555 1_555
C28 C27 1_555 1_555
H13 C28 1_555 1_555
C29 C28 1_555 1_555
H14 C29 1_555 1_555
C30 C29 1_555 1_555
H15 C30 1_555 1_555
C31 C30 1_555 1_555
H16 C31 1_555 1_555
C32 C27 1_555 1_555
C33 O1 1_555 1_555
C34 N1 1_555 1_555
C35 C34 1_555 1_555
H17 C35 1_555 1_555
C36 C35 1_555 1_555
H18 C36 1_555 1_555
C37 C36 1_555 1_555
C38 O2 1_555 1_555
H19 C38 1_555 1_555
H20 C38 1_555 1_555
H21 C38 1_555 1_555
C39 C37 1_555 1_555
H22 C39 1_555 1_555
C40 C34 1_555 1_555
H23 C40 1_555 1_555
C41 N1 1_555 1_555
C42 C41 1_555 1_555
H24 C42 1_555 1_555
C43 C42 1_555 1_555
H25 C43 1_555 1_555
C44 C43 1_555 1_555
C45 O3 1_555 1_555
H26 C45 1_555 1_555
H27 C45 1_555 1_555
H28 C45 1_555 1_555
C46 C44 1_555 1_555
H29 C46 1_555 1_555
C47 C41 1_555 1_555
H30 C47 1_555 1_555
C48 N2 1_555 1_555
C49 C48 1_555 1_555
H31 C49 1_555 1_555
C50 C49 1_555 1_555
H32 C50 1_555 1_555
C51 C50 1_555 1_555
C52 O4 1_555 1_555
H33 C52 1_555 1_555
H34 C52 1_555 1_555
H35 C52 1_555 1_555
C53 C51 1_555 1_555
H36 C53 1_555 1_555
C54 C48 1_555 1_555
H37 C54 1_555 1_555
C55 N2 1_555 1_555
C56 C55 1_555 1_555
H38 C56 1_555 1_555
C57 C56 1_555 1_555
H39 C57 1_555 1_555
C58 C57 1_555 1_555
C59 O5 1_555 1_555
H40 C59 1_555 1_555
H41 C59 1_555 1_555
H42 C59 1_555 1_555
C60 C58 1_555 1_555
H43 C60 1_555 1_555
C61 C55 1_555 1_555
H44 C61 1_555 1_555
C62 H45 1_555 1_555
C63 C62 1_555 1_555
H46 C63 1_555 1_555
C64 C63 1_555 1_555
C65 O6 1_555 1_555
H47 C65 1_555 1_555
H48 C65 1_555 1_555
H49 C65 1_555 1_555
C66 C64 1_555 1_555
H50 C66 1_555 1_555
C67 C66 1_555 1_555
H51 C67 1_555 1_555
C68 N3 1_555 1_555
C69 N3 1_555 1_555
C70 C69 1_555 1_555
H52 C70 1_555 1_555
C71 C70 1_555 1_555
H53 C71 1_555 1_555
C72 C71 1_555 1_555
C73 O7 1_555 1_555
H54 C73 1_555 1_555
H55 C73 1_555 1_555
H56 C73 1_555 1_555
C74 C72 1_555 1_555
H57 C74 1_555 1_555
C75 C69 1_555 1_555
H58 C75 1_555 1_555
C76 N4 1_555 1_555
C77 C76 1_555 1_555
H59 C77 1_555 1_555
C78 C77 1_555 1_555
H60 C78 1_555 1_555
C79 C78 1_555 1_555
C80 O8 1_555 1_555
H61 C80 1_555 1_555
H62 C80 1_555 1_555
H63 C80 1_555 1_555
C81 C79 1_555 1_555
H64 C81 1_555 1_555
C82 C76 1_555 1_555
H65 C82 1_555 1_555
C83 N4 1_555 1_555
C84 C83 1_555 1_555
H66 C84 1_555 1_555
C85 C84 1_555 1_555
H67 C85 1_555 1_555
C86 C85 1_555 1_555
C87 O9 1_555 1_555
H68 C87 1_555 1_555
H69 C87 1_555 1_555
H70 C87 1_555 1_555
C88 C86 1_555 1_555
H71 C88 1_555 1_555
C89 C83 1_555 1_555
H72 C89 1_555 1_555
O10 C90 1_555 1_555
C90 C91 1_555 1_555
C91 H73 1_555 1_555
H74 C91 1_555 1_555
H75 C91 1_555 1_555
C92 C90 1_555 1_555
H76 C92 1_555 1_555
H77 C92 1_555 1_555
H78 C92 1_555 1_555
O11 C93 1_555 1_555
C93 C94 1_555 1_555
C94 H79 1_555 1_555
H80 C94 1_555 1_555
H81 C94 1_555 1_555
C95 C93 1_555 1_555
H82 C95 1_555 1_555
H83 C95 1_555 1_555
H84 C95 1_555 1_555
C6 C7 1_555 1_555
C9 C10 1_555 1_555
C16 C17 1_555 1_555
C18 C23 1_555 1_555
C22 C23 1_555 1_555
C24 C33 1_555 1_555
C31 C32 1_555 1_555
C32 C33 1_555 1_555
C39 C40 1_555 1_555
C46 C47 1_555 1_555
C53 C54 1_555 1_555
C60 C61 1_555 1_555
C62 C68 1_555 1_555
C67 C68 1_555 1_555
C74 C75 1_555 1_555
C81 C82 1_555 1_555
C88 C89 1_555 1_555

#END
