
#######################################################################
#
#                 Cambridge Crystallographic Data Centre
#                                CCDC 
#
#######################################################################
#
# If this CIF has been generated from an entry in the Cambridge 
# Structural Database, then it will include bibliographic, chemical, 
# crystal, experimental, refinement or atomic coordinate data resulting 
# from the CCDC's data processing and validation procedures.
#
#######################################################################

data_PIHKOJ
_chemical_formula_moiety         'C61 H46 N2 O5'
_chemical_name_systematic        
"N^2'^,N^2'^,N^7'^,N^7'^-tetrakis(4-methoxyphenyl)spiro[dibenzo[c,h]xanthene-7,9'-fluorene]-2',7'-diamine unknown solvate"
_symmetry_cell_setting           triclinic
_symmetry_space_group_name_H-M   'P -1'
_symmetry_Int_Tables_number      2
_space_group_name_Hall           '-P 1'
loop_
_symmetry_equiv_pos_site_id
_symmetry_equiv_pos_as_xyz
1 x,y,z
2 -x,-y,-z
_cell_length_a                   10.6341(5)
_cell_length_b                   16.3753(7)
_cell_length_c                   17.6369(8)
_cell_angle_alpha                64.812(2)
_cell_angle_beta                 87.802(2)
_cell_angle_gamma                88.570(2)
_cell_volume                     2777.03
_exptl_crystal_colour            'light orange'
_exptl_crystal_description       block
_cell_formula_units_Z            2
_chemical_properties_physical    
Moisture-sensitive,Oxygen-sensitive,Light-sensitive
loop_
_atom_site_label
_atom_site_type_symbol
_atom_site_fract_x
_atom_site_fract_y
_atom_site_fract_z
O1 O 0.7487(2) 0.23256(18) 0.23203(17)
O2 O 0.9914(3) 0.6545(2) -0.14953(17)
O3 O 0.5093(3) -0.14669(18) 0.6536(2)
N1 N 0.3979(3) 0.2190(2) 0.5518(2)
O4 O -0.0966(3) 0.3267(2) 0.5756(2)
N2 N 1.0651(3) 0.5845(2) 0.18404(19)
O5 O 1.5378(3) 0.6323(3) 0.2829(2)
C1 C 0.6523(3) 0.3395(2) 0.3982(2)
C2 C 0.6541(3) 0.3590(2) 0.2494(2)
C3 C 0.8208(3) 0.2649(2) 0.3437(2)
C4 C 0.8245(3) 0.2149(2) 0.2985(2)
C5 C 0.7347(3) 0.3463(2) 0.3232(2)
C6 C 0.6764(3) 0.4099(2) 0.4202(2)
C7 C 0.8103(3) 0.4306(2) 0.3064(2)
C8 C 0.7768(3) 0.4643(2) 0.3658(2)
C9 C 0.6644(3) 0.3027(2) 0.2102(2)
C10 C 0.4917(3) 0.2840(2) 0.5062(2)
C11 C 0.6056(3) 0.4176(3) 0.4843(2)
H1 H 0.6202 0.4647 0.4990
C12 C 0.5619(3) 0.2759(2) 0.4413(2)
H2 H 0.5480 0.2282 0.4272
C13 C 0.9679(3) 0.5428(3) 0.2450(2)
C14 C 0.9034(3) 0.4700(2) 0.2462(2)
H3 H 0.9228 0.4477 0.2066
C15 C 0.9093(4) 0.1416(2) 0.3153(3)
C16 C 0.4287(3) 0.1256(2) 0.5776(2)
C17 C 0.2737(3) 0.2459(2) 0.5596(2)
C18 C 1.0444(4) 0.6028(3) 0.0986(2)
C19 C 0.2205(4) 0.3210(3) 0.4975(3)
H4 H 0.2682 0.3550 0.4495
C20 C 1.0026(4) 0.6396(3) -0.0674(2)
C21 C 0.5879(4) 0.3133(3) 0.1424(2)
C22 C 0.5130(4) 0.3551(3) 0.5265(2)
H5 H 0.4646 0.3611 0.5690
C23 C 1.1832(4) 0.6001(3) 0.2083(2)
C24 C 0.4885(4) -0.0564(3) 0.6307(2)
C25 C 0.9906(4) 0.1182(3) 0.3828(3)
C26 C 0.9020(4) 0.2402(3) 0.4110(2)
H6 H 0.8992 0.2727 0.4433
C27 C 0.4989(4) 0.3848(3) 0.1152(2)
C28 C 0.0246(4) 0.2971(3) 0.5743(3)
C29 C 0.2004(4) 0.1978(3) 0.6301(3)
H7 H 0.2349 0.1478 0.6736
C30 C 0.5651(4) 0.4291(3) 0.2209(2)
H8 H 0.5578 0.4679 0.2469
C31 C 0.8422(4) 0.5383(3) 0.3640(3)
H9 H 0.8222 0.5616 0.4027
C32 C 0.0754(4) 0.2224(3) 0.6376(3)
H10 H 0.0269 0.1884 0.6852
C33 C 0.9364(4) 0.5761(3) 0.3041(3)
H11 H 0.9801 0.6251 0.3031
C34 C 1.1129(4) 0.5985(3) -0.0305(2)
H12 H 1.1739 0.5827 -0.0613
C35 C 1.1330(4) 0.5807(3) 0.0513(3)
H13 H 1.2080 0.5532 0.0753
C36 C 1.4217(4) 0.6261(3) 0.2549(3)
C37 C 0.3800(4) -0.0209(3) 0.5879(3)
H14 H 0.3269 -0.0580 0.5760
C38 C 1.2362(4) 0.5385(3) 0.2816(3)
H15 H 1.1915 0.4872 0.3161
C39 C 0.3497(4) 0.0682(3) 0.5627(3)
H16 H 0.2751 0.0907 0.5351
C40 C 0.0985(4) 0.3464(3) 0.5050(3)
H17 H 0.0653 0.3979 0.4625
C41 C 0.5371(4) 0.0894(3) 0.6196(3)
H18 H 0.5911 0.1267 0.6304
C42 C 0.9351(4) 0.6436(3) 0.0616(3)
H19 H 0.8742 0.6592 0.0925
C43 C 1.3525(4) 0.5517(3) 0.3042(3)
H20 H 1.3855 0.5094 0.3538
C44 C 1.2529(4) 0.6752(3) 0.1590(3)
H21 H 1.2199 0.7176 0.1095
C45 C 0.9132(4) 0.6623(3) -0.0216(3)
H22 H 0.8384 0.6900 -0.0458
C46 C 0.9849(4) 0.1699(3) 0.4302(3)
H23 H 1.0383 0.1556 0.4748
C47 C 0.4886(4) 0.4425(3) 0.1559(3)
H24 H 0.4300 0.4895 0.1388
C48 C 0.5683(4) -0.0005(3) 0.6460(3)
H25 H 0.6426 -0.0232 0.6740
C49 C 1.3709(4) 0.6885(3) 0.1819(3)
H26 H 1.4161 0.7397 0.1478
C50 C 0.9155(4) 0.0914(3) 0.2669(3)
H27 H 0.8625 0.1061 0.2221
C51 C 0.5977(5) 0.2552(4) 0.1024(3)
H28 H 0.6556 0.2078 0.1200
C52 C 1.0741(4) 0.0447(3) 0.3996(3)
H29 H 1.1288 0.0291 0.4437
C53 C 0.4235(5) 0.3956(4) 0.0470(3)
H30 H 0.3642 0.4422 0.0282
C54 C 0.9990(5) 0.0217(3) 0.2856(4)
H31 H 1.0042 -0.0098 0.2524
C55 C 1.0770(5) -0.0034(3) 0.3541(4)
H32 H 1.1307 -0.0531 0.3681
C56 C 0.4356(6) 0.3398(5) 0.0086(3)
H33 H 0.3866 0.3491 -0.0369
C57 C 0.8773(5) 0.6921(4) -0.1897(3)
H34 H 0.8850 0.7030 -0.2477
H35 H 0.8598 0.7480 -0.1858
H36 H 0.8098 0.6508 -0.1630
C58 C 0.6225(5) -0.1861(3) 0.6934(3)
H37 H 0.6928 -0.1546 0.6583
H38 H 0.6264 -0.2483 0.7029
H39 H 0.6251 -0.1821 0.7461
C59 C 0.5208(5) 0.2690(5) 0.0370(3)
H40 H 0.5264 0.2298 0.0113
C60 C -0.1794(4) 0.2708(4) 0.6415(4)
H41 H -0.2617 0.2980 0.6338
H42 H -0.1485 0.2640 0.6943
H43 H -0.1838 0.2126 0.6408
C61 C 1.6133(6) 0.7051(5) 0.2334(4)
H44 H 1.6324 0.7030 0.1806
H45 H 1.6900 0.7021 0.2614
H46 H 1.5695 0.7604 0.2239
loop_
_geom_bond_atom_site_label_1
_geom_bond_atom_site_label_2
_geom_bond_site_symmetry_1
_geom_bond_site_symmetry_2
O1 C4 1_555 1_555
O2 C20 1_555 1_555
O3 C24 1_555 1_555
N1 C10 1_555 1_555
O4 C28 1_555 1_555
N2 C13 1_555 1_555
O5 C36 1_555 1_555
C1 C5 1_555 1_555
C2 C5 1_555 1_555
C3 C4 1_555 1_555
C4 C15 1_555 1_555
C5 C3 1_555 1_555
C6 C1 1_555 1_555
C7 C5 1_555 1_555
C8 C6 1_555 1_555
C9 O1 1_555 1_555
C10 C12 1_555 1_555
C11 C6 1_555 1_555
H1 C11 1_555 1_555
C12 C1 1_555 1_555
H2 C12 1_555 1_555
C13 C14 1_555 1_555
C14 C7 1_555 1_555
H3 C14 1_555 1_555
C15 C25 1_555 1_555
C16 N1 1_555 1_555
C17 N1 1_555 1_555
C18 N2 1_555 1_555
C19 C17 1_555 1_555
H4 C19 1_555 1_555
C20 C34 1_555 1_555
C21 C9 1_555 1_555
C22 C10 1_555 1_555
H5 C22 1_555 1_555
C23 N2 1_555 1_555
C24 C37 1_555 1_555
C25 C46 1_555 1_555
C26 C3 1_555 1_555
H6 C26 1_555 1_555
C27 C21 1_555 1_555
C28 C32 1_555 1_555
C29 C17 1_555 1_555
H7 C29 1_555 1_555
C30 C2 1_555 1_555
H8 C30 1_555 1_555
C31 C8 1_555 1_555
H9 C31 1_555 1_555
C32 C29 1_555 1_555
H10 C32 1_555 1_555
C33 C13 1_555 1_555
H11 C33 1_555 1_555
C34 H12 1_555 1_555
C35 C18 1_555 1_555
H13 C35 1_555 1_555
C36 C43 1_555 1_555
C37 H14 1_555 1_555
C38 C23 1_555 1_555
H15 C38 1_555 1_555
C39 C16 1_555 1_555
H16 C39 1_555 1_555
C40 C19 1_555 1_555
H17 C40 1_555 1_555
C41 C16 1_555 1_555
H18 C41 1_555 1_555
C42 C18 1_555 1_555
H19 C42 1_555 1_555
C43 C38 1_555 1_555
H20 C43 1_555 1_555
C44 C23 1_555 1_555
H21 C44 1_555 1_555
C45 C20 1_555 1_555
H22 C45 1_555 1_555
C46 C26 1_555 1_555
H23 C46 1_555 1_555
C47 C27 1_555 1_555
H24 C47 1_555 1_555
C48 C24 1_555 1_555
H25 C48 1_555 1_555
C49 C36 1_555 1_555
H26 C49 1_555 1_555
C50 C15 1_555 1_555
H27 C50 1_555 1_555
C51 C21 1_555 1_555
H28 C51 1_555 1_555
C52 C25 1_555 1_555
H29 C52 1_555 1_555
C53 C27 1_555 1_555
H30 C53 1_555 1_555
C54 C50 1_555 1_555
H31 C54 1_555 1_555
C55 C52 1_555 1_555
H32 C55 1_555 1_555
C56 C53 1_555 1_555
H33 C56 1_555 1_555
C57 O2 1_555 1_555
H34 C57 1_555 1_555
H35 C57 1_555 1_555
H36 C57 1_555 1_555
C58 O3 1_555 1_555
H37 C58 1_555 1_555
H38 C58 1_555 1_555
H39 C58 1_555 1_555
C59 C51 1_555 1_555
H40 C59 1_555 1_555
C60 O4 1_555 1_555
H41 C60 1_555 1_555
H42 C60 1_555 1_555
H43 C60 1_555 1_555
C61 O5 1_555 1_555
H44 C61 1_555 1_555
H45 C61 1_555 1_555
H46 C61 1_555 1_555
C2 C9 1_555 1_555
C7 C8 1_555 1_555
C11 C22 1_555 1_555
C28 C40 1_555 1_555
C30 C47 1_555 1_555
C31 C33 1_555 1_555
C34 C35 1_555 1_555
C37 C39 1_555 1_555
C41 C48 1_555 1_555
C42 C45 1_555 1_555
C44 C49 1_555 1_555
C54 C55 1_555 1_555
C56 C59 1_555 1_555

#END
