
#######################################################################
#
#                 Cambridge Crystallographic Data Centre
#                                CCDC 
#
#######################################################################
#
# If this CIF has been generated from an entry in the Cambridge 
# Structural Database, then it will include bibliographic, chemical, 
# crystal, experimental, refinement or atomic coordinate data resulting 
# from the CCDC's data processing and validation procedures.
#
#######################################################################

data_PIHKAV
_chemical_formula_moiety         'C26 H15 N1 O2 S1,0.5(C4 H8 O2)'
_chemical_name_systematic        
'2-(10H-phenothiazin-10-yl)anthracene-9,10-dione 1,4-dioxane solvate'
_symmetry_cell_setting           triclinic
_symmetry_space_group_name_H-M   'P -1'
_symmetry_Int_Tables_number      2
_space_group_name_Hall           '-P 1'
loop_
_symmetry_equiv_pos_site_id
_symmetry_equiv_pos_as_xyz
1 x,y,z
2 -x,-y,-z
_cell_length_a                   8.1293(7)
_cell_length_b                   8.7471(7)
_cell_length_c                   16.8171(14)
_cell_angle_alpha                84.088(2)
_cell_angle_beta                 80.506(3)
_cell_angle_gamma                62.953(2)
_cell_volume                     1049.92
_exptl_crystal_colour            red
_exptl_crystal_description       plate
_cell_formula_units_Z            2
loop_
_atom_site_label
_atom_site_type_symbol
_atom_site_fract_x
_atom_site_fract_y
_atom_site_fract_z
S1 S 0.85437(7) 0.95128(6) 0.12503(3)
O1 O 0.6888(2) 0.85452(19) 0.62082(8)
O2 O 1.3337(2) 0.57214(19) 0.42126(9)
N1 N 0.9146(2) 1.0949(2) 0.26420(9)
C1 C 0.7059(3) 1.1569(2) 0.16396(10)
C2 C 0.5456(3) 1.2648(2) 0.12966(11)
H1 H 0.5155 1.2289 0.0864
C3 C 0.4309(3) 1.4264(2) 0.16053(12)
H2 H 0.3222 1.4980 0.1386
C4 C 0.4781(3) 1.4813(2) 0.22384(12)
H3 H 0.4015 1.5900 0.2440
C5 C 0.6389(3) 1.3752(2) 0.25736(11)
H4 H 0.6718 1.4140 0.2988
C6 C 0.7513(2) 1.2105(2) 0.22903(10)
C7 C 1.0791(3) 1.0130(2) 0.20824(10)
C8 C 1.2466(3) 1.0087(2) 0.21905(12)
H5 H 1.2530 1.0619 0.2628
C9 C 1.4045(3) 0.9249(3) 0.16446(13)
H6 H 1.5179 0.9179 0.1731
C10 C 1.3951(3) 0.8514(3) 0.09719(12)
H7 H 1.5017 0.7958 0.0608
C11 C 1.2268(3) 0.8608(2) 0.08413(11)
H8 H 1.2193 0.8143 0.0383
C12 C 1.0692(3) 0.9403(2) 0.14003(10)
C13 C 0.8989(3) 1.0233(2) 0.34222(10)
C14 C 0.7309(3) 1.0947(2) 0.39487(11)
H9 H 0.6302 1.1929 0.3790
C15 C 0.7154(3) 1.0190(2) 0.47028(11)
H10 H 0.6039 1.0682 0.5046
C16 C 0.8623(3) 0.8712(2) 0.49612(10)
C17 C 0.8354(3) 0.7897(2) 0.57544(11)
C18 C 0.9927(3) 0.6257(2) 0.59796(11)
C19 C 0.9706(3) 0.5413(3) 0.67134(12)
H11 H 0.8595 0.5890 0.7061
C20 C 1.1144(3) 0.3868(3) 0.69211(13)
H12 H 1.0988 0.3308 0.7408
C21 C 1.2813(3) 0.3145(3) 0.64126(13)
H13 H 1.3773 0.2107 0.6557
C22 C 1.3044(3) 0.3982(2) 0.56847(12)
H14 H 1.4166 0.3505 0.5344
C23 C 1.1605(3) 0.5532(2) 0.54636(11)
C24 C 1.1884(3) 0.6369(2) 0.46652(11)
C25 C 1.0296(2) 0.8001(2) 0.44416(10)
C26 C 1.0484(3) 0.8768(2) 0.36859(10)
H15 H 1.1618 0.8302 0.3353
O3 O 1.1833(2) 0.4423(3) 0.01569(11)
C27 C 1.0673(4) 0.3682(3) 0.05668(16)
H16 H 1.1014 0.3280 0.1103
H17 H 1.0859 0.2703 0.0276
C28 C 1.1293(4) 0.5052(4) -0.06297(15)
H18 H 1.1491 0.4101 -0.0945
H19 H 1.2064 0.5578 -0.0906
O3A O 0.8167(2) 0.5577(3) -0.01569(11)
C27A C 0.9327(4) 0.6318(3) -0.05668(16)
H16A H 0.8986 0.6720 -0.1103
H17A H 0.9141 0.7297 -0.0276
C28A C 0.8707(4) 0.4948(4) 0.06297(15)
H18A H 0.8509 0.5899 0.0945
H19A H 0.7936 0.4422 0.0906
loop_
_geom_bond_atom_site_label_1
_geom_bond_atom_site_label_2
_geom_bond_site_symmetry_1
_geom_bond_site_symmetry_2
S1 C1 1_555 1_555
O1 C17 1_555 1_555
O2 C24 1_555 1_555
N1 C6 1_555 1_555
C1 C2 1_555 1_555
C2 H1 1_555 1_555
C3 C2 1_555 1_555
H2 C3 1_555 1_555
C4 C3 1_555 1_555
H3 C4 1_555 1_555
C5 C4 1_555 1_555
H4 C5 1_555 1_555
C6 C1 1_555 1_555
C7 N1 1_555 1_555
C8 C7 1_555 1_555
H5 C8 1_555 1_555
C9 C8 1_555 1_555
H6 C9 1_555 1_555
C10 C9 1_555 1_555
H7 C10 1_555 1_555
C11 C10 1_555 1_555
H8 C11 1_555 1_555
C12 S1 1_555 1_555
C13 N1 1_555 1_555
C14 C13 1_555 1_555
H9 C14 1_555 1_555
C15 C14 1_555 1_555
H10 C15 1_555 1_555
C16 C15 1_555 1_555
C17 C16 1_555 1_555
C18 C17 1_555 1_555
C19 C18 1_555 1_555
H11 C19 1_555 1_555
C20 C19 1_555 1_555
H12 C20 1_555 1_555
C21 C20 1_555 1_555
H13 C21 1_555 1_555
C22 C21 1_555 1_555
H14 C22 1_555 1_555
C23 C18 1_555 1_555
C24 C23 1_555 1_555
C25 C16 1_555 1_555
C26 C13 1_555 1_555
H15 C26 1_555 1_555
O3 C27 1_555 1_555
C27 H16 1_555 1_555
H17 C27 1_555 1_555
C28 O3 1_555 1_555
H18 C28 1_555 1_555
H19 C28 1_555 1_555
O3A C27A 1_555 1_555
C27A C28 1_555 1_555
H16A C27A 1_555 1_555
H17A C27A 1_555 1_555
C28A C27 1_555 1_555
H18A C28A 1_555 1_555
H19A C28A 1_555 1_555
C5 C6 1_555 1_555
C7 C12 1_555 1_555
C11 C12 1_555 1_555
C22 C23 1_555 1_555
C24 C25 1_555 1_555
C25 C26 1_555 1_555
O3A C28A 1_555 1_555

#END
