
#######################################################################
#
#                 Cambridge Crystallographic Data Centre
#                                CCDC 
#
#######################################################################
#
# If this CIF has been generated from an entry in the Cambridge 
# Structural Database, then it will include bibliographic, chemical, 
# crystal, experimental, refinement or atomic coordinate data resulting 
# from the CCDC's data processing and validation procedures.
#
#######################################################################

data_PIHQUT
_chemical_formula_moiety         'C21 H15 F3 N2 O2'
_chemical_name_systematic        
N,N'-(2-Fluoro-5-methylbenzene-1,3-diyl)-bis(2-fluorobenzamide)
_symmetry_cell_setting           triclinic
_symmetry_space_group_name_H-M   'P -1'
_symmetry_Int_Tables_number      2
_space_group_name_Hall           '-P 1'
loop_
_symmetry_equiv_pos_site_id
_symmetry_equiv_pos_as_xyz
1 x,y,z
2 -x,-y,-z
_cell_length_a                   4.8304(9)
_cell_length_b                   12.954(3)
_cell_length_c                   14.672(3)
_cell_angle_alpha                105.165(4)
_cell_angle_beta                 90.387(4)
_cell_angle_gamma                97.674(4)
_cell_volume                     877.33
_chemical_melting_point          '220-222 deg.C'
_cell_formula_units_Z            2
_exptl_crystal_recrystallization_method chloroform
loop_
_atom_site_label
_atom_site_type_symbol
_atom_site_fract_x
_atom_site_fract_y
_atom_site_fract_z
O1 O 0.0038(5) 0.2941(2) 0.20995(18)
O2 O 0.8782(5) 0.8743(2) 0.3587(2)
N1 N 0.0534(5) 0.4427(2) 0.1567(2)
N2 N 0.4274(6) 0.8069(2) 0.3129(2)
F1 F 0.0825(4) 0.65633(15) 0.18531(12)
F2 F -0.2845(5) 0.43229(19) 0.00769(15)
F3 F 0.2606(5) 0.94917(18) 0.21622(15)
C1 C 0.2577(6) 0.6198(3) 0.2386(2)
C2 C 0.2520(7) 0.5106(3) 0.2241(2)
C3 C 0.4353(6) 0.4753(3) 0.2788(2)
H1 H 0.4353 0.4017 0.2707
C4 C 0.6185(7) 0.5491(3) 0.3455(2)
C5 C 0.6205(6) 0.6584(3) 0.3572(2)
H2 H 0.7414 0.7074 0.4028
C6 C 0.4460(6) 0.6963(3) 0.3024(2)
C7 C -0.0623(7) 0.3413(3) 0.1534(2)
C8 C -0.2933(7) 0.2884(3) 0.0799(2)
C9 C -0.4209(8) 0.1866(3) 0.0806(3)
H3 H -0.3631 0.1551 0.1263
C10 C -0.6285(9) 0.1310(4) 0.0164(3)
H4 H -0.7042 0.0612 0.0167
C11 C -0.7279(9) 0.1789(4) -0.0498(3)
H5 H -0.8766 0.1430 -0.0916
C12 C -0.6056(8) 0.2779(4) -0.0523(3)
H6 H -0.6641 0.3094 -0.0979
C13 C -0.3945(7) 0.3320(3) 0.0126(2)
C14 C 0.6442(7) 0.8878(3) 0.3397(2)
C15 C 0.5700(7) 0.9990(3) 0.3498(2)
C16 C 0.7056(8) 1.0822(3) 0.4227(3)
H7 H 0.8394 1.0678 0.4618
C17 C 0.6423(8) 1.1862(3) 0.4373(3)
H8 H 0.7270 1.2407 0.4882
C18 C 0.4579(10) 1.2094(3) 0.3782(3)
H9 H 0.4227 1.2802 0.3879
C19 C 0.3220(9) 1.1304(3) 0.3043(3)
H10 H 0.1912 1.1460 0.2648
C20 C 0.3870(7) 1.0271(3) 0.2908(2)
C21 C 0.8097(6) 0.5104(3) 0.4077(2)
H11 H 0.7387 0.5218 0.4700
H12 H 0.9938 0.5502 0.4112
H13 H 0.8180 0.4349 0.3815
H14 H -0.002(5) 0.473(2) 0.113(2)
H15 H 0.277(5) 0.818(3) 0.297(2)
loop_
_geom_bond_atom_site_label_1
_geom_bond_atom_site_label_2
_geom_bond_site_symmetry_1
_geom_bond_site_symmetry_2
O1 C7 1_555 1_555
O2 C14 1_555 1_555
N1 C2 1_555 1_555
N2 C6 1_555 1_555
F1 C1 1_555 1_555
F2 C13 1_555 1_555
F3 C20 1_555 1_555
C1 C2 1_555 1_555
C2 C3 1_555 1_555
C3 H1 1_555 1_555
C4 C3 1_555 1_555
C5 C4 1_555 1_555
H2 C5 1_555 1_555
C6 C1 1_555 1_555
C7 N1 1_555 1_555
C8 C7 1_555 1_555
C9 C8 1_555 1_555
H3 C9 1_555 1_555
C10 C9 1_555 1_555
H4 C10 1_555 1_555
C11 C10 1_555 1_555
H5 C11 1_555 1_555
C12 C11 1_555 1_555
H6 C12 1_555 1_555
C13 C8 1_555 1_555
C14 N2 1_555 1_555
C15 C14 1_555 1_555
C16 C15 1_555 1_555
H7 C16 1_555 1_555
C17 C16 1_555 1_555
H8 C17 1_555 1_555
C18 C17 1_555 1_555
H9 C18 1_555 1_555
C19 C18 1_555 1_555
H10 C19 1_555 1_555
C20 C15 1_555 1_555
C21 C4 1_555 1_555
H11 C21 1_555 1_555
H12 C21 1_555 1_555
H13 C21 1_555 1_555
H14 N1 1_555 1_555
H15 N2 1_555 1_555
C5 C6 1_555 1_555
C12 C13 1_555 1_555
C19 C20 1_555 1_555

#END
