
#######################################################################
#
#                 Cambridge Crystallographic Data Centre
#                                CCDC 
#
#######################################################################
#
# If this CIF has been generated from an entry in the Cambridge 
# Structural Database, then it will include bibliographic, chemical, 
# crystal, experimental, refinement or atomic coordinate data resulting 
# from the CCDC's data processing and validation procedures.
#
#######################################################################

data_PIHQED
_chemical_formula_moiety         'C20 H12 F4 N2 O2'
_chemical_name_systematic        
N,N'-(4,6-Difluorobenzene-1,3-diyl)-bis(2-fluorobenzamide)
_symmetry_cell_setting           triclinic
_symmetry_space_group_name_H-M   'P -1'
_symmetry_Int_Tables_number      2
_space_group_name_Hall           '-P 1'
loop_
_symmetry_equiv_pos_site_id
_symmetry_equiv_pos_as_xyz
1 x,y,z
2 -x,-y,-z
_cell_length_a                   7.5701(8)
_cell_length_b                   8.4178(9)
_cell_length_c                   13.5441(15)
_cell_angle_alpha                82.489(2)
_cell_angle_beta                 75.873(2)
_cell_angle_gamma                84.660(2)
_cell_volume                     828.114
_chemical_melting_point          '220-222 deg.C'
_cell_formula_units_Z            2
_exptl_crystal_recrystallization_method chloroform
loop_
_atom_site_label
_atom_site_type_symbol
_atom_site_fract_x
_atom_site_fract_y
_atom_site_fract_z
F1 F 0.23629(15) 0.34825(13) 0.34674(7)
F2 F 0.05152(15) 0.08797(13) 0.67980(8)
F3 F 0.29006(15) 0.73175(13) 0.22034(8)
F4 F -0.03461(16) 0.16659(15) 0.93990(8)
O1 O 0.3009(2) 0.80885(16) 0.50893(10)
O2 O 0.35419(18) 0.48567(17) 0.77715(9)
N1 N 0.3251(2) 0.60550(19) 0.41182(12)
N2 N 0.1323(2) 0.3339(2) 0.76396(11)
C1 C 0.2561(2) 0.4796(2) 0.48544(13)
C2 C 0.2116(2) 0.3450(2) 0.44989(13)
C3 C 0.1443(2) 0.2134(2) 0.51166(13)
H1 H 0.1160 0.1252 0.4850
C4 C 0.1199(2) 0.2165(2) 0.61488(14)
C5 C 0.1622(2) 0.3455(2) 0.65598(12)
C6 C 0.2296(2) 0.4777(2) 0.59104(13)
C7 C 0.3405(2) 0.7597(2) 0.42513(14)
C8 C 0.4103(2) 0.8681(2) 0.32986(13)
C9 C 0.3861(2) 0.8539(2) 0.23347(14)
C10 C 0.4511(3) 0.9574(3) 0.14913(17)
C11 C 0.5450(3) 1.0837(3) 0.15948(19)
C12 C 0.5707(3) 1.1050(3) 0.25374(18)
C13 C 0.5034(3) 0.9996(2) 0.33747(16)
C14 C 0.2310(2) 0.3984(2) 0.81827(13)
C15 C 0.1819(2) 0.3570(2) 0.93210(12)
C16 C 0.0615(2) 0.2478(2) 0.98841(14)
C17 C 0.0281(3) 0.2133(3) 1.09264(15)
C18 C 0.1175(3) 0.2935(3) 1.14573(16)
C19 C 0.2376(3) 0.4053(3) 1.09367(16)
C20 C 0.2705(3) 0.4362(3) 0.98883(15)
H2 H 0.360(3) 0.585(2) 0.3485(14)
H3 H 0.059(3) 0.266(2) 0.7978(14)
H4 H 0.260(2) 0.565(2) 0.6151(12)
H5 H 0.429(2) 0.941(2) 0.0846(13)
H6 H 0.590(3) 1.155(2) 0.1024(15)
H7 H 0.632(3) 1.187(2) 0.2620(14)
H8 H 0.517(2) 1.007(2) 0.4031(12)
H9 H -0.058(2) 0.133(2) 1.1267(13)
H10 H 0.093(2) 0.272(2) 1.2186(14)
H11 H 0.303(2) 0.461(2) 1.1281(14)
H12 H 0.360(2) 0.512(2) 0.9487(12)
loop_
_geom_bond_atom_site_label_1
_geom_bond_atom_site_label_2
_geom_bond_site_symmetry_1
_geom_bond_site_symmetry_2
F1 C2 1_555 1_555
F2 C4 1_555 1_555
F3 C9 1_555 1_555
F4 C16 1_555 1_555
O1 C7 1_555 1_555
O2 C14 1_555 1_555
N1 C1 1_555 1_555
N2 C5 1_555 1_555
C1 C2 1_555 1_555
C2 C3 1_555 1_555
C3 H1 1_555 1_555
C4 C3 1_555 1_555
C5 C4 1_555 1_555
C6 C1 1_555 1_555
C7 N1 1_555 1_555
C8 C7 1_555 1_555
C9 C8 1_555 1_555
C10 C9 1_555 1_555
C11 C10 1_555 1_555
C12 C11 1_555 1_555
C13 C8 1_555 1_555
C14 N2 1_555 1_555
C15 C14 1_555 1_555
C16 C15 1_555 1_555
C17 C16 1_555 1_555
C18 C17 1_555 1_555
C19 C18 1_555 1_555
C20 C15 1_555 1_555
H2 N1 1_555 1_555
H3 N2 1_555 1_555
H4 C6 1_555 1_555
H5 C10 1_555 1_555
H6 C11 1_555 1_555
H7 C12 1_555 1_555
H8 C13 1_555 1_555
H9 C17 1_555 1_555
H10 C18 1_555 1_555
H11 C19 1_555 1_555
H12 C20 1_555 1_555
C5 C6 1_555 1_555
C12 C13 1_555 1_555
C19 C20 1_555 1_555

#END
