
#######################################################################
#
#                 Cambridge Crystallographic Data Centre
#                                CCDC 
#
#######################################################################
#
# If this CIF has been generated from an entry in the Cambridge 
# Structural Database, then it will include bibliographic, chemical, 
# crystal, experimental, refinement or atomic coordinate data resulting 
# from the CCDC's data processing and validation procedures.
#
#######################################################################

data_PIHQIH
_chemical_formula_moiety         'C14 H10 F2 N2 O2'
_chemical_name_systematic        N,N'-bis(2-Fluorobenzoyl)hydrazine
_symmetry_cell_setting           monoclinic
_symmetry_space_group_name_H-M   'P 21/c'
_symmetry_Int_Tables_number      14
_space_group_name_Hall           '-P 2ybc'
loop_
_symmetry_equiv_pos_site_id
_symmetry_equiv_pos_as_xyz
1 x,y,z
2 -x,1/2+y,1/2-z
3 -x,-y,-z
4 x,1/2-y,1/2+z
_cell_length_a                   4.7817(8)
_cell_length_b                   6.9484(12)
_cell_length_c                   18.366(3)
_cell_angle_alpha                90.00
_cell_angle_beta                 93.863(3)
_cell_angle_gamma                90.00
_cell_volume                     608.827
_chemical_melting_point          '193-194 deg.C'
_cell_formula_units_Z            2
_exptl_crystal_recrystallization_method chloroform
loop_
_atom_site_label
_atom_site_type_symbol
_atom_site_fract_x
_atom_site_fract_y
_atom_site_fract_z
N1 N 0.0449(3) 0.0691(2) 0.02524(7)
O1 O -0.3821(2) 0.20160(17) 0.01851(7)
F1 F 0.3149(2) 0.16476(17) 0.15826(6)
C1 C -0.1377(3) 0.2038(2) 0.04344(8)
C2 C -0.0318(3) 0.3565(2) 0.09540(8)
C3 C -0.1672(4) 0.5341(2) 0.09096(10)
C4 C -0.0873(4) 0.6823(3) 0.13762(11)
C5 C 0.1259(4) 0.6557(3) 0.19043(11)
C6 C 0.2618(4) 0.4822(3) 0.19673(10)
C7 C 0.1813(3) 0.3363(2) 0.14954(8)
H1 H 0.214(4) 0.075(3) 0.0334(9)
H2 H -0.315(4) 0.550(3) 0.0569(10)
H3 H -0.182(4) 0.798(3) 0.1338(13)
H4 H 0.176(4) 0.751(4) 0.2233(12)
H5 H 0.409(4) 0.460(3) 0.2307(12)
N1B N -0.0449(3) -0.0691(2) -0.02524(7)
O1B O 0.3821(2) -0.20160(17) -0.01851(7)
F1B F -0.3149(2) -0.16476(17) -0.15826(6)
C1B C 0.1377(3) -0.2038(2) -0.04344(8)
C2B C 0.0318(3) -0.3565(2) -0.09540(8)
C3B C 0.1672(4) -0.5341(2) -0.09096(10)
C4B C 0.0873(4) -0.6823(3) -0.13762(11)
C5B C -0.1259(4) -0.6557(3) -0.19043(11)
C6B C -0.2618(4) -0.4822(3) -0.19673(10)
C7B C -0.1813(3) -0.3363(2) -0.14954(8)
H1B H -0.214(4) -0.075(3) -0.0334(9)
H2B H 0.315(4) -0.550(3) -0.0569(10)
H3B H 0.182(4) -0.798(3) -0.1338(13)
H4B H -0.176(4) -0.751(4) -0.2233(12)
H5B H -0.409(4) -0.460(3) -0.2307(12)
loop_
_geom_bond_atom_site_label_1
_geom_bond_atom_site_label_2
_geom_bond_site_symmetry_1
_geom_bond_site_symmetry_2
N1 C1 1_555 1_555
O1 C1 1_555 1_555
F1 C7 1_555 1_555
C1 C2 1_555 1_555
C2 C3 1_555 1_555
C3 C4 1_555 1_555
C4 C5 1_555 1_555
C5 C6 1_555 1_555
C6 C7 1_555 1_555
C7 C2 1_555 1_555
H1 N1 1_555 1_555
H2 C3 1_555 1_555
H3 C4 1_555 1_555
H4 C5 1_555 1_555
H5 C6 1_555 1_555
N1B N1 1_555 1_555
O1B C1B 1_555 1_555
F1B C7B 1_555 1_555
C1B N1B 1_555 1_555
C2B C1B 1_555 1_555
C3B C2B 1_555 1_555
C4B C3B 1_555 1_555
C5B C4B 1_555 1_555
C6B C5B 1_555 1_555
C7B C2B 1_555 1_555
H1B N1B 1_555 1_555
H2B C3B 1_555 1_555
H3B C4B 1_555 1_555
H4B C5B 1_555 1_555
H5B C6B 1_555 1_555
C6B C7B 1_555 1_555

#END
