
#######################################################################
#
#                 Cambridge Crystallographic Data Centre
#                                CCDC 
#
#######################################################################
#
# If this CIF has been generated from an entry in the Cambridge 
# Structural Database, then it will include bibliographic, chemical, 
# crystal, experimental, refinement or atomic coordinate data resulting 
# from the CCDC's data processing and validation procedures.
#
#######################################################################

data_PIHRAA
_chemical_formula_moiety         'C28 H28 N2 O9'
_chemical_name_systematic        
"Dimethyl 3,3'-((2-methoxy-5-methylbenzene-1,3-diyl)dicarbamoyl)-bis(2-methoxybenzoate)"
_symmetry_cell_setting           monoclinic
_symmetry_space_group_name_H-M   'P 21/c'
_symmetry_Int_Tables_number      14
_space_group_name_Hall           '-P 2ybc'
loop_
_symmetry_equiv_pos_site_id
_symmetry_equiv_pos_as_xyz
1 x,y,z
2 -x,1/2+y,1/2-z
3 -x,-y,-z
4 x,1/2-y,1/2+z
_cell_length_a                   18.5875(18)
_cell_length_b                   7.3555(7)
_cell_length_c                   20.905(2)
_cell_angle_alpha                90.00
_cell_angle_beta                 114.532(2)
_cell_angle_gamma                90.00
_cell_volume                     2600.13
_chemical_melting_point          '150-152 deg.C'
_cell_formula_units_Z            4
loop_
_atom_site_label
_atom_site_type_symbol
_atom_site_fract_x
_atom_site_fract_y
_atom_site_fract_z
O1 O 0.57865(17) 0.5932(6) 0.05812(16)
O2 O 1.03426(15) 0.8348(5) 0.19969(13)
O3 O 0.5862(2) 0.5403(5) 0.37465(17)
O4 O 0.45873(17) 0.5923(4) 0.33891(14)
O5 O 0.63963(14) 0.6184(3) 0.27228(12)
O6 O 1.19591(17) 0.7999(4) 0.57184(15)
O7 O 1.09244(14) 0.6186(4) 0.51806(11)
O8 O 1.00958(12) 0.7777(3) 0.38803(11)
O9 O 0.81235(12) 0.7553(3) 0.26654(11)
N1 N 0.66893(19) 0.6974(4) 0.15963(17)
N2 N 0.94653(18) 0.7917(4) 0.24672(17)
C1 C 0.7331(2) 0.7328(5) 0.14205(19)
C2 C 0.7272(2) 0.7370(5) 0.07379(18)
H1 H 0.6782 0.7216 0.0362
C3 C 0.7939(2) 0.7641(5) 0.06145(17)
C4 C 0.8673(2) 0.7856(5) 0.11741(19)
H2 H 0.9120 0.8029 0.1087
C5 C 0.8744(2) 0.7816(4) 0.18625(18)
C6 C 0.8060(2) 0.7605(4) 0.19758(18)
C7 C 0.7871(2) 0.7637(5) -0.01308(17)
H3 H 0.7810 0.6411 -0.0302
H4 H 0.8340 0.8156 -0.0140
H5 H 0.7419 0.8343 -0.0424
C8 C 0.5987(2) 0.6270(6) 0.1196(2)
C9 C 0.5418(2) 0.5935(5) 0.15323(19)
C10 C 0.4648(2) 0.5647(5) 0.1078(2)
H6 H 0.4509 0.5648 0.0596
C11 C 0.4072(2) 0.5355(6) 0.1323(2)
H7 H 0.3550 0.5162 0.1009
C12 C 0.4278(2) 0.5352(5) 0.2032(2)
H8 H 0.3886 0.5167 0.2193
C13 C 0.5044(2) 0.5615(5) 0.2512(2)
C14 C 0.5622(2) 0.5884(5) 0.22553(19)
C15 C 0.5234(3) 0.5629(6) 0.3281(2)
C16 C 0.4726(3) 0.5934(7) 0.4132(2)
H9 H 0.5025 0.4876 0.4360
H10 H 0.4228 0.5926 0.4168
H11 H 0.5016 0.7007 0.4354
C17 C 0.6848(2) 0.4561(6) 0.2980(2)
H12 H 0.6630 0.3877 0.3249
H13 H 0.7386 0.4874 0.3273
H14 H 0.6830 0.3841 0.2590
C18 C 1.0204(2) 0.8070(5) 0.25098(19)
C19 C 1.08813(19) 0.7890(4) 0.32196(18)
C20 C 1.1637(2) 0.7882(5) 0.3229(2)
H15 H 1.1688 0.8000 0.2807
C21 C 1.2306(2) 0.7705(5) 0.3840(2)
H16 H 1.2801 0.7701 0.3829
C22 C 1.2244(2) 0.7534(5) 0.4472(2)
H17 H 1.2698 0.7426 0.4888
C23 C 1.1507(2) 0.7524(4) 0.44893(19)
C24 C 1.08335(19) 0.7730(4) 0.38663(18)
C25 C 1.1497(2) 0.7298(5) 0.5197(2)
C26 C 1.0864(2) 0.5855(6) 0.58417(17)
H18 H 1.1257 0.4986 0.6113
H19 H 1.0348 0.5389 0.5749
H20 H 1.0947 0.6973 0.6100
C27 C 0.9936(2) 0.9406(6) 0.4164(2)
H21 H 1.0382 0.9705 0.4593
H22 H 0.9478 0.9235 0.4259
H23 H 0.9840 1.0377 0.3832
C28 C 0.7949(2) 0.9266(6) 0.28965(18)
H24 H 0.8339 1.0145 0.2915
H25 H 0.7957 0.9129 0.3356
H26 H 0.7435 0.9670 0.2574
H27 H 0.6798(18) 0.708(4) 0.2025(11)
H28 H 0.940(2) 0.775(5) 0.2849(19)
loop_
_geom_bond_atom_site_label_1
_geom_bond_atom_site_label_2
_geom_bond_site_symmetry_1
_geom_bond_site_symmetry_2
O1 C8 1_555 1_555
O2 C18 1_555 1_555
O3 C15 1_555 1_555
O4 C15 1_555 1_555
O5 C14 1_555 1_555
O6 C25 1_555 1_555
O7 C25 1_555 1_555
O8 C24 1_555 1_555
O9 C6 1_555 1_555
N1 C1 1_555 1_555
N2 C5 1_555 1_555
C1 C2 1_555 1_555
C2 H1 1_555 1_555
C3 C2 1_555 1_555
C4 C3 1_555 1_555
H2 C4 1_555 1_555
C5 C4 1_555 1_555
C6 C1 1_555 1_555
C7 C3 1_555 1_555
H3 C7 1_555 1_555
H4 C7 1_555 1_555
H5 C7 1_555 1_555
C8 N1 1_555 1_555
C9 C8 1_555 1_555
C10 C9 1_555 1_555
H6 C10 1_555 1_555
C11 C10 1_555 1_555
H7 C11 1_555 1_555
C12 C11 1_555 1_555
H8 C12 1_555 1_555
C13 C12 1_555 1_555
C14 C9 1_555 1_555
C15 C13 1_555 1_555
C16 O4 1_555 1_555
H9 C16 1_555 1_555
H10 C16 1_555 1_555
H11 C16 1_555 1_555
C17 O5 1_555 1_555
H12 C17 1_555 1_555
H13 C17 1_555 1_555
H14 C17 1_555 1_555
C18 N2 1_555 1_555
C19 C18 1_555 1_555
C20 C19 1_555 1_555
H15 C20 1_555 1_555
C21 C20 1_555 1_555
H16 C21 1_555 1_555
C22 C21 1_555 1_555
H17 C22 1_555 1_555
C23 C22 1_555 1_555
C24 C19 1_555 1_555
C25 C23 1_555 1_555
C26 O7 1_555 1_555
H18 C26 1_555 1_555
H19 C26 1_555 1_555
H20 C26 1_555 1_555
C27 O8 1_555 1_555
H21 C27 1_555 1_555
H22 C27 1_555 1_555
H23 C27 1_555 1_555
C28 O9 1_555 1_555
H24 C28 1_555 1_555
H25 C28 1_555 1_555
H26 C28 1_555 1_555
H27 N1 1_555 1_555
H28 N2 1_555 1_555
C5 C6 1_555 1_555
C13 C14 1_555 1_555
C23 C24 1_555 1_555

#END
