
#######################################################################
#
#                 Cambridge Crystallographic Data Centre
#                                CCDC 
#
#######################################################################
#
# If this CIF has been generated from an entry in the Cambridge 
# Structural Database, then it will include bibliographic, chemical, 
# crystal, experimental, refinement or atomic coordinate data resulting 
# from the CCDC's data processing and validation procedures.
#
#######################################################################

data_PIHSOQ
_chemical_formula_moiety         'C21 H24 N4 O2,C1 H4 O1'
_chemical_name_systematic        
"N'-(4-(Diethylamino)-2-hydroxybenzylidene)-2-(1H-indol-3-yl)acetohydrazide methanol solvate"
_chemical_properties_biological  'antibacterial activity'
_symmetry_cell_setting           monoclinic
_symmetry_space_group_name_H-M   'P c'
_symmetry_Int_Tables_number      7
_space_group_name_Hall           'P -2yc'
loop_
_symmetry_equiv_pos_site_id
_symmetry_equiv_pos_as_xyz
1 x,y,z
2 x,-y,1/2+z
_cell_length_a                   6.5790(10)
_cell_length_b                   15.112(2)
_cell_length_c                   10.676(2)
_cell_angle_alpha                90
_cell_angle_beta                 90.030(2)
_cell_angle_gamma                90
_cell_volume                     1061.43
_exptl_crystal_colour            colorless
_exptl_crystal_description       needle
_cell_formula_units_Z            2
loop_
_atom_site_label
_atom_site_type_symbol
_atom_site_fract_x
_atom_site_fract_y
_atom_site_fract_z
N1 N 0.8086(4) 0.4799(2) 0.0325(3)
N2 N 0.3712(4) 0.40658(18) 0.3521(2)
N3 N 0.2901(4) 0.34789(16) 0.4373(2)
N4 N 0.1641(5) 0.0190(2) 0.8065(3)
O1 O 0.0803(4) 0.47978(15) 0.3384(2)
O2 O -0.0009(4) 0.27497(16) 0.5750(3)
H1 H 0.0516 0.3156 0.5357
C1 C 0.5138(5) 0.49362(19) 0.1328(3)
C2 C 0.5059(5) 0.4173(2) 0.0564(3)
C3 C 0.3607(6) 0.3531(2) 0.0345(4)
H2 H 0.2340 0.3556 0.0729
C4 C 0.4096(9) 0.2850(3) -0.0464(5)
H3 H 0.3146 0.2408 -0.0619
C5 C 0.5976(10) 0.2812(3) -0.1049(4)
H4 H 0.6253 0.2346 -0.1590
C6 C 0.7413(7) 0.3435(3) -0.0854(4)
H5 H 0.8672 0.3406 -0.1248
C7 C 0.6941(5) 0.4110(2) -0.0053(3)
C8 C 0.6987(5) 0.5294(2) 0.1148(3)
H6 H 0.7450 0.5808 0.1533
C9 C 0.3490(5) 0.5303(2) 0.2119(3)
H7 H 0.2419 0.5512 0.1568
H8 H 0.4024 0.5815 0.2558
C10 C 0.2552(5) 0.46993(19) 0.3066(3)
C11 C 0.4127(5) 0.2931(2) 0.4847(3)
H9 H 0.5499 0.2963 0.4640
C12 C 0.3443(5) 0.2259(2) 0.5700(3)
C13 C 0.1440(5) 0.2175(2) 0.6119(3)
C14 C 0.0866(5) 0.1507(2) 0.6899(3)
H10 H -0.0479 0.1478 0.7164
C15 C 0.2220(5) 0.0873(2) 0.7308(3)
C16 C 0.4206(5) 0.0951(2) 0.6893(4)
H11 H 0.5167 0.0535 0.7141
C17 C 0.4776(5) 0.1631(2) 0.6122(3)
H12 H 0.6128 0.1668 0.5875
C18 C 0.3056(8) -0.0473(3) 0.8458(5)
H13 H 0.2534 -0.0760 0.9204
H14 H 0.4330 -0.0190 0.8679
C19 C 0.3461(10) -0.1169(3) 0.7469(7)
H15 H 0.2210 -0.1459 0.7253
H16 H 0.4406 -0.1597 0.7789
H17 H 0.4022 -0.0893 0.6737
C20 C -0.0422(7) 0.0083(3) 0.8503(5)
H18 H -0.0682 -0.0540 0.8649
H19 H -0.1351 0.0283 0.7857
C21 C -0.0826(10) 0.0578(4) 0.9664(6)
H20 H 0.0072 0.0375 1.0312
H21 H -0.2209 0.0484 0.9916
H22 H -0.0604 0.1197 0.9520
H23 H 0.5054(19) 0.401(2) 0.339(4)
H24 H 0.917(4) 0.500(2) -0.009(3)
O3 O 0.7871(4) 0.35186(18) 0.3172(3)
H25 H 0.8756 0.3901 0.3183
C22 C 0.8554(8) 0.2796(3) 0.2507(5)
H26 H 1.0002 0.2833 0.2412
H27 H 0.7923 0.2788 0.1696
H28 H 0.8212 0.2264 0.2951
loop_
_geom_bond_atom_site_label_1
_geom_bond_atom_site_label_2
_geom_bond_site_symmetry_1
_geom_bond_site_symmetry_2
N1 C7 1_555 1_555
N2 N3 1_555 1_555
N3 C11 1_555 1_555
N4 C15 1_555 1_555
O1 C10 1_555 1_555
O2 H1 1_555 1_555
C1 C2 1_555 1_555
C2 C3 1_555 1_555
C3 H2 1_555 1_555
C4 C3 1_555 1_555
H3 C4 1_555 1_555
C5 C4 1_555 1_555
H4 C5 1_555 1_555
C6 C5 1_555 1_555
H5 C6 1_555 1_555
C7 C2 1_555 1_555
C8 N1 1_555 1_555
H6 C8 1_555 1_555
C9 C1 1_555 1_555
H7 C9 1_555 1_555
H8 C9 1_555 1_555
C10 N2 1_555 1_555
C11 H9 1_555 1_555
C12 C11 1_555 1_555
C13 O2 1_555 1_555
C14 C13 1_555 1_555
H10 C14 1_555 1_555
C15 C14 1_555 1_555
C16 C15 1_555 1_555
H11 C16 1_555 1_555
C17 C12 1_555 1_555
H12 C17 1_555 1_555
C18 N4 1_555 1_555
H13 C18 1_555 1_555
H14 C18 1_555 1_555
C19 C18 1_555 1_555
H15 C19 1_555 1_555
H16 C19 1_555 1_555
H17 C19 1_555 1_555
C20 N4 1_555 1_555
H18 C20 1_555 1_555
H19 C20 1_555 1_555
C21 C20 1_555 1_555
H20 C21 1_555 1_555
H21 C21 1_555 1_555
H22 C21 1_555 1_555
H23 N2 1_555 1_555
H24 N1 1_555 1_555
O3 H25 1_555 1_555
C22 O3 1_555 1_555
H26 C22 1_555 1_555
H27 C22 1_555 1_555
H28 C22 1_555 1_555
C1 C8 1_555 1_555
C6 C7 1_555 1_555
C9 C10 1_555 1_555
C12 C13 1_555 1_555
C16 C17 1_555 1_555

#END
