
#######################################################################
#
#                 Cambridge Crystallographic Data Centre
#                                CCDC 
#
#######################################################################
#
# If this CIF has been generated from an entry in the Cambridge 
# Structural Database, then it will include bibliographic, chemical, 
# crystal, experimental, refinement or atomic coordinate data resulting 
# from the CCDC's data processing and validation procedures.
#
#######################################################################

data_PIJBES
_chemical_formula_moiety         'C18 H29 N1 O5'
_chemical_name_systematic        
'methyl 7a-[(t-butoxycarbonyl)amino]-1,3-dimethyl-2-oxooctahydro-1H-indene-1-carboxylate'
_symmetry_cell_setting           orthorhombic
_symmetry_space_group_name_H-M   'P 21 21 21'
_symmetry_Int_Tables_number      19
_space_group_name_Hall           'P 2ac 2ab'
loop_
_symmetry_equiv_pos_site_id
_symmetry_equiv_pos_as_xyz
1 x,y,z
2 1/2+x,1/2-y,-z
3 -x,1/2+y,1/2-z
4 1/2-x,-y,1/2+z
_cell_length_a                   6.7000(8)
_cell_length_b                   14.8009(16)
_cell_length_c                   18.902(2)
_cell_angle_alpha                90
_cell_angle_beta                 90
_cell_angle_gamma                90
_cell_volume                     1874.44
_exptl_crystal_colour            colorless
_exptl_crystal_description       needle
_cell_formula_units_Z            4
loop_
_atom_site_label
_atom_site_type_symbol
_atom_site_fract_x
_atom_site_fract_y
_atom_site_fract_z
C1 C 0.1999(15) 0.1154(6) 0.2087(5)
C2 C 0.2364(17) 0.1969(7) 0.2582(6)
C3 C 0.0737(14) 0.2664(6) 0.2464(4)
H1 H 0.1387 0.3205 0.2274
C4 C -0.1603(15) 0.2984(7) 0.1442(6)
H2 H -0.2264 0.3418 0.1748
H3 H -0.2620 0.2679 0.1166
C5 C -0.0170(15) 0.3496(6) 0.0933(5)
H4 H -0.0939 0.3874 0.0614
H5 H 0.0713 0.3883 0.1204
C6 C 0.1067(17) 0.2816(7) 0.0505(5)
H6 H 0.0187 0.2465 0.0204
H7 H 0.1997 0.3139 0.0204
C7 C 0.2222(14) 0.2180(7) 0.0991(5)
H8 H 0.3133 0.2528 0.1282
H9 H 0.3005 0.1764 0.0707
C8 C 0.0769(12) 0.1635(5) 0.1475(5)
C9 C -0.0513(13) 0.2295(6) 0.1895(4)
H10 H -0.1547 0.1932 0.2127
C10 C 0.3908(16) 0.0739(7) 0.1846(5)
O1 O 0.5368(9) 0.1062(4) 0.1662(4)
C11 C 0.5522(17) -0.0631(9) 0.1651(8)
H11 H 0.5549 -0.0610 0.1144
H12 H 0.5536 -0.1249 0.1804
H13 H 0.6671 -0.0324 0.1836
O2 O 0.3781(11) -0.0207(5) 0.1898(5)
C12 C 0.0624(15) 0.0507(6) 0.2516(5)
H14 H 0.0510 -0.0059 0.2272
H15 H -0.0675 0.0774 0.2565
H16 H 0.1189 0.0407 0.2976
O3 O 0.3759(15) 0.2001(5) 0.3001(4)
C13 C -0.0161(16) 0.2924(6) 0.3158(4)
H17 H -0.1200 0.3360 0.3082
H18 H 0.0850 0.3180 0.3457
H19 H -0.0712 0.2398 0.3382
C14 C 0.0309(16) 0.0385(6) 0.0588(5)
N1 N -0.0400(10) 0.1001(4) 0.1071(3)
H20 H -0.1668 0.1008 0.1140
O4 O 0.2070(11) 0.0246(5) 0.0430(4)
C15 C -0.081(2) -0.0663(7) -0.0306(5)
O5 O -0.1189(10) -0.0025(5) 0.0334(4)
C16 C 0.029(2) -0.1428(7) -0.0121(6)
H21 H 0.0070 -0.1894 -0.0466
H22 H -0.0131 -0.1638 0.0336
H23 H 0.1682 -0.1279 -0.0107
C17 C -0.0116(18) -0.0100(7) -0.0914(6)
H24 H 0.1049 0.0235 -0.0777
H25 H -0.1155 0.0312 -0.1049
H26 H 0.0204 -0.0485 -0.1306
C18 C -0.293(2) -0.1021(10) -0.0419(7)
H27 H -0.2906 -0.1504 -0.0758
H28 H -0.3768 -0.0542 -0.0592
H29 H -0.3455 -0.1241 0.0021
loop_
_geom_bond_atom_site_label_1
_geom_bond_atom_site_label_2
_geom_bond_site_symmetry_1
_geom_bond_site_symmetry_2
C1 C2 1_555 1_555
C2 C3 1_555 1_555
C3 H1 1_555 1_555
C4 H2 1_555 1_555
H3 C4 1_555 1_555
C5 C4 1_555 1_555
H4 C5 1_555 1_555
H5 C5 1_555 1_555
C6 C5 1_555 1_555
H6 C6 1_555 1_555
H7 C6 1_555 1_555
C7 C6 1_555 1_555
H8 C7 1_555 1_555
H9 C7 1_555 1_555
C8 C1 1_555 1_555
C9 C3 1_555 1_555
H10 C9 1_555 1_555
C10 C1 1_555 1_555
O1 C10 1_555 1_555
C11 H11 1_555 1_555
H12 C11 1_555 1_555
H13 C11 1_555 1_555
O2 C10 1_555 1_555
C12 C1 1_555 1_555
H14 C12 1_555 1_555
H15 C12 1_555 1_555
H16 C12 1_555 1_555
O3 C2 1_555 1_555
C13 C3 1_555 1_555
H17 C13 1_555 1_555
H18 C13 1_555 1_555
H19 C13 1_555 1_555
C14 N1 1_555 1_555
N1 C8 1_555 1_555
H20 N1 1_555 1_555
O4 C14 1_555 1_555
C15 O5 1_555 1_555
O5 C14 1_555 1_555
C16 C15 1_555 1_555
H21 C16 1_555 1_555
H22 C16 1_555 1_555
H23 C16 1_555 1_555
C17 C15 1_555 1_555
H24 C17 1_555 1_555
H25 C17 1_555 1_555
H26 C17 1_555 1_555
C18 C15 1_555 1_555
H27 C18 1_555 1_555
H28 C18 1_555 1_555
H29 C18 1_555 1_555
C4 C9 1_555 1_555
C7 C8 1_555 1_555
C8 C9 1_555 1_555
C11 O2 1_555 1_555

#END
