
#######################################################################
#
#                 Cambridge Crystallographic Data Centre
#                                CCDC 
#
#######################################################################
#
# If this CIF has been generated from an entry in the Cambridge 
# Structural Database, then it will include bibliographic, chemical, 
# crystal, experimental, refinement or atomic coordinate data resulting 
# from the CCDC's data processing and validation procedures.
#
#######################################################################

data_PIJBAO
_chemical_formula_moiety         'C17 H27 N1 O5'
_chemical_name_systematic        
'methyl {7a-[(t-butoxycarbonyl)amino]-3-methylhexahydro-1-benzofuran-2(3H)-ylidene}acetate'
_symmetry_cell_setting           monoclinic
_symmetry_space_group_name_H-M   'P 21/c'
_symmetry_Int_Tables_number      14
_space_group_name_Hall           '-P 2ybc'
loop_
_symmetry_equiv_pos_site_id
_symmetry_equiv_pos_as_xyz
1 x,y,z
2 -x,1/2+y,1/2-z
3 -x,-y,-z
4 x,1/2-y,1/2+z
_cell_length_a                   20.869(4)
_cell_length_b                   11.404(2)
_cell_length_c                   17.328(4)
_cell_angle_alpha                90
_cell_angle_beta                 113.57(3)
_cell_angle_gamma                90
_cell_volume                     3779.84
_exptl_crystal_colour            colorless
_exptl_crystal_description       block
_cell_formula_units_Z            8
loop_
_atom_site_label
_atom_site_type_symbol
_atom_site_fract_x
_atom_site_fract_y
_atom_site_fract_z
O1 O 0.2128(2) 1.0346(4) 0.2373(3)
C1 C 0.1753(4) 0.9863(5) 0.1517(5)
C2 C 0.2017(4) 1.1510(6) 0.2360(5)
C3 C 0.1198(4) 1.0791(6) 0.1085(5)
H1 H 0.0814 1.0669 0.1266
C4 C 0.1567(4) 1.1919(6) 0.1490(5)
H2 H 0.1875 1.2147 0.1211
C5 C 0.2278(4) 0.9715(7) 0.1129(5)
H3 H 0.2561 0.9028 0.1369
H4 H 0.2586 1.0391 0.1271
C6 C 0.1457(5) 1.0615(8) -0.0223(5)
H5 H 0.1726 1.1336 -0.0104
H6 H 0.1241 1.0512 -0.0829
C7 C 0.0893(4) 1.0701(7) 0.0122(5)
H7 H 0.0595 1.0014 -0.0052
H8 H 0.0606 1.1385 -0.0117
C8 C 0.1940(4) 0.9585(7) 0.0176(5)
H9 H 0.1675 0.8860 0.0031
H10 H 0.2301 0.9546 -0.0042
C9 C 0.1093(5) 1.2950(7) 0.1440(6)
H11 H 0.0806 1.3117 0.0861
H12 H 0.1372 1.3626 0.1695
H13 H 0.0801 1.2761 0.1733
C10 C 0.2295(5) 1.2172(7) 0.3052(6)
H14 H 0.2194 1.2970 0.3004
C11 C 0.2751(5) 1.1716(7) 0.3883(6)
C12 C 0.3328(8) 1.2251(11) 0.5302(7)
H15 H 0.3165 1.1524 0.5438
H16 H 0.3311 1.2850 0.5682
H17 H 0.3800 1.2159 0.5353
O2 O 0.2973(3) 1.0763(5) 0.4061(4)
O3 O 0.2883(4) 1.2584(6) 0.4442(5)
N1 N 0.1493(3) 0.8734(5) 0.1604(4)
H18 H 0.1641 0.8142 0.1415
C13 C 0.1032(4) 0.8517(7) 0.1961(5)
C14 C 0.0481(4) 0.6832(6) 0.2341(6)
C15 C 0.0689(5) 0.7186(8) 0.3247(6)
H19 H 0.0470 0.6671 0.3508
H20 H 0.0540 0.7977 0.3271
H21 H 0.1187 0.7137 0.3539
C16 C -0.0255(4) 0.7153(7) 0.1806(5)
H22 H -0.0344 0.7022 0.1225
H23 H -0.0330 0.7966 0.1889
H24 H -0.0566 0.6679 0.1959
C17 C 0.0594(5) 0.5537(6) 0.2264(7)
H25 H 0.1080 0.5353 0.2567
H26 H 0.0455 0.5336 0.1681
H27 H 0.0320 0.5097 0.2495
O4 O 0.0960(3) 0.7350(4) 0.1999(4)
O5 O 0.0723(3) 0.9243(4) 0.2184(4)
O6 O 0.2853(2) 0.7114(4) 0.2629(3)
C18 C 0.2943(4) 0.5948(6) 0.2665(6)
C19 C 0.3255(4) 0.7623(6) 0.3466(5)
C20 C 0.3410(4) 0.5565(6) 0.3542(5)
H28 H 0.3116 0.5393 0.3850
C21 C 0.2753(4) 0.7785(6) 0.3911(5)
H29 H 0.2451 0.8452 0.3666
H30 H 0.2460 0.7095 0.3815
C22 C 0.3805(4) 0.6691(6) 0.3890(5)
H31 H 0.4171 0.6766 0.3673
C23 C 0.3136(4) 0.7979(7) 0.4849(5)
H32 H 0.3392 0.8712 0.4946
H33 H 0.2799 0.8038 0.5103
C24 C 0.3634(5) 0.7002(8) 0.5257(5)
H34 H 0.3374 0.6281 0.5209
H35 H 0.3887 0.7173 0.5851
C25 C 0.4151(4) 0.6838(7) 0.4849(6)
H36 H 0.4435 0.6152 0.5091
H37 H 0.4460 0.7512 0.4980
C26 C 0.3864(4) 0.4489(6) 0.3596(6)
H38 H 0.3569 0.3830 0.3341
H39 H 0.4145 0.4316 0.4176
H40 H 0.4162 0.4646 0.3306
C27 C 0.2646(5) 0.5261(6) 0.1988(7)
H41 H 0.2745 0.4463 0.2062
C28 C 0.2183(5) 0.5642(8) 0.1150(6)
C29 C 0.1557(6) 0.5025(9) -0.0253(7)
H42 H 0.1128 0.5344 -0.0262
H43 H 0.1458 0.4328 -0.0592
H44 H 0.1778 0.5592 -0.0474
O7 O 0.1981(3) 0.6626(5) 0.0939(4)
O8 O 0.2008(4) 0.4744(5) 0.0587(5)
O9 O 0.4061(3) 1.0134(4) 0.3006(3)
N2 N 0.3514(3) 0.8755(5) 0.3363(4)
H45 H 0.3343 0.9356 0.3513
C30 C 0.4008(4) 0.8958(7) 0.3048(5)
C31 C 0.4596(4) 1.0656(6) 0.2760(6)
C32 C 0.4444(4) 1.0314(7) 0.1849(5)
H46 H 0.4540 0.9495 0.1824
H47 H 0.4735 1.0767 0.1651
H48 H 0.3961 1.0467 0.1502
C33 C 0.5319(4) 1.0308(7) 0.3364(6)
H49 H 0.5378 1.0495 0.3929
H50 H 0.5660 1.0727 0.3229
H51 H 0.5381 0.9480 0.3320
C34 C 0.4454(5) 1.1959(6) 0.2813(6)
H52 H 0.3981 1.2133 0.2440
H53 H 0.4770 1.2411 0.2654
H54 H 0.4521 1.2152 0.3380
O10 O 0.4319(3) 0.8235(4) 0.2846(4)
loop_
_geom_bond_atom_site_label_1
_geom_bond_atom_site_label_2
_geom_bond_site_symmetry_1
_geom_bond_site_symmetry_2
O1 C1 1_555 1_555
C1 C3 1_555 1_555
C2 O1 1_555 1_555
C3 H1 1_555 1_555
C4 C2 1_555 1_555
H2 C4 1_555 1_555
C5 C1 1_555 1_555
H3 C5 1_555 1_555
H4 C5 1_555 1_555
C6 H5 1_555 1_555
H6 C6 1_555 1_555
C7 C3 1_555 1_555
H7 C7 1_555 1_555
H8 C7 1_555 1_555
C8 C5 1_555 1_555
H9 C8 1_555 1_555
H10 C8 1_555 1_555
C9 C4 1_555 1_555
H11 C9 1_555 1_555
H12 C9 1_555 1_555
H13 C9 1_555 1_555
C10 C2 1_555 1_555
H14 C10 1_555 1_555
C11 C10 1_555 1_555
C12 H15 1_555 1_555
H16 C12 1_555 1_555
H17 C12 1_555 1_555
O2 C11 1_555 1_555
O3 C11 1_555 1_555
N1 C1 1_555 1_555
H18 N1 1_555 1_555
C13 N1 1_555 1_555
C14 C15 1_555 1_555
C15 H19 1_555 1_555
H20 C15 1_555 1_555
H21 C15 1_555 1_555
C16 C14 1_555 1_555
H22 C16 1_555 1_555
H23 C16 1_555 1_555
H24 C16 1_555 1_555
C17 C14 1_555 1_555
H25 C17 1_555 1_555
H26 C17 1_555 1_555
H27 C17 1_555 1_555
O4 C13 1_555 1_555
O5 C13 1_555 1_555
O6 C18 1_555 1_555
C18 C20 1_555 1_555
C19 O6 1_555 1_555
C20 H28 1_555 1_555
C21 C19 1_555 1_555
H29 C21 1_555 1_555
H30 C21 1_555 1_555
C22 C19 1_555 1_555
H31 C22 1_555 1_555
C23 C21 1_555 1_555
H32 C23 1_555 1_555
H33 C23 1_555 1_555
C24 C23 1_555 1_555
H34 C24 1_555 1_555
H35 C24 1_555 1_555
C25 C22 1_555 1_555
H36 C25 1_555 1_555
H37 C25 1_555 1_555
C26 C20 1_555 1_555
H38 C26 1_555 1_555
H39 C26 1_555 1_555
H40 C26 1_555 1_555
C27 C18 1_555 1_555
H41 C27 1_555 1_555
C28 C27 1_555 1_555
C29 H42 1_555 1_555
H43 C29 1_555 1_555
H44 C29 1_555 1_555
O7 C28 1_555 1_555
O8 C28 1_555 1_555
O9 C30 1_555 1_555
N2 C19 1_555 1_555
H45 N2 1_555 1_555
C30 N2 1_555 1_555
C31 O9 1_555 1_555
C32 C31 1_555 1_555
H46 C32 1_555 1_555
H47 C32 1_555 1_555
H48 C32 1_555 1_555
C33 C31 1_555 1_555
H49 C33 1_555 1_555
H50 C33 1_555 1_555
H51 C33 1_555 1_555
C34 C31 1_555 1_555
H52 C34 1_555 1_555
H53 C34 1_555 1_555
H54 C34 1_555 1_555
O10 C30 1_555 1_555
C3 C4 1_555 1_555
C6 C7 1_555 1_555
C6 C8 1_555 1_555
C12 O3 1_555 1_555
C14 O4 1_555 1_555
C20 C22 1_555 1_555
C24 C25 1_555 1_555
C29 O8 1_555 1_555

#END
