
#######################################################################
#
#                 Cambridge Crystallographic Data Centre
#                                CCDC 
#
#######################################################################
#
# If this CIF has been generated from an entry in the Cambridge 
# Structural Database, then it will include bibliographic, chemical, 
# crystal, experimental, refinement or atomic coordinate data resulting 
# from the CCDC's data processing and validation procedures.
#
#######################################################################

data_PIJDUK
_chemical_formula_moiety         'C18 H13 N1 O2'
_chemical_name_systematic        N-(1-formylnaphthalen-2-yl)benzamide
_symmetry_cell_setting           orthorhombic
_symmetry_space_group_name_H-M   'P b c a'
_symmetry_Int_Tables_number      61
_space_group_name_Hall           '-P 2ac 2ab'
loop_
_symmetry_equiv_pos_site_id
_symmetry_equiv_pos_as_xyz
1 x,y,z
2 1/2-x,-y,1/2+z
3 -x,1/2+y,1/2-z
4 1/2+x,1/2-y,-z
5 -x,-y,-z
6 1/2+x,y,1/2-z
7 x,1/2-y,1/2+z
8 1/2-x,1/2+y,z
_cell_length_a                   11.6111(3)
_cell_length_b                   8.5608(2)
_cell_length_c                   26.6519(6)
_cell_angle_alpha                90
_cell_angle_beta                 90
_cell_angle_gamma                90
_cell_volume                     2649.21
_exptl_crystal_colour            colorless
_exptl_crystal_description       block
_cell_formula_units_Z            8
loop_
_atom_site_label
_atom_site_type_symbol
_atom_site_fract_x
_atom_site_fract_y
_atom_site_fract_z
O1 O 0.54898(7) 0.72716(9) 0.39721(3)
N1 N 0.37652(8) 0.52616(11) 0.40104(3)
C1 C 0.43850(11) 0.49682(15) 0.29705(4)
H1 H 0.4842 0.5639 0.3173
O2 O 0.21597(8) 0.37930(11) 0.38611(3)
C2 C 0.46751(13) 0.47392(16) 0.24714(5)
H2 H 0.5324 0.5260 0.2334
C3 C 0.40258(15) 0.37586(17) 0.21740(5)
H3 H 0.4225 0.3603 0.1832
C4 C 0.30874(16) 0.30076(18) 0.23763(5)
H4 H 0.2644 0.2321 0.2174
C5 C 0.27825(12) 0.32427(16) 0.28734(5)
H5 H 0.2126 0.2729 0.3007
C6 C 0.34315(10) 0.42255(13) 0.31773(4)
C7 C 0.30487(10) 0.43959(13) 0.37135(4)
C8 C 0.36706(8) 0.56091(12) 0.45173(4)
C9 C 0.28687(9) 0.48220(12) 0.48303(4)
H6 H 0.2374 0.4049 0.4692
C10 C 0.28085(9) 0.51734(12) 0.53273(4)
H7 H 0.2269 0.4631 0.5531
C11 C 0.35209(9) 0.63197(12) 0.55528(4)
C12 C 0.34281(10) 0.66652(13) 0.60703(4)
H8 H 0.2871 0.6136 0.6268
C13 C 0.41290(11) 0.77487(14) 0.62886(4)
H9 H 0.4056 0.7980 0.6636
C14 C 0.49587(10) 0.85196(13) 0.59970(4)
H10 H 0.5451 0.9267 0.6150
C15 C 0.50712(9) 0.82124(12) 0.54948(4)
H11 H 0.5642 0.8749 0.5306
C16 C 0.43500(9) 0.71050(11) 0.52506(4)
C17 C 0.44186(8) 0.67298(12) 0.47230(4)
C18 C 0.52749(9) 0.75211(13) 0.44138(4)
H12 H 0.5713 0.8317 0.4573
H13 H 0.4347(12) 0.5793(17) 0.3867(5)
loop_
_geom_bond_atom_site_label_1
_geom_bond_atom_site_label_2
_geom_bond_site_symmetry_1
_geom_bond_site_symmetry_2
O1 C18 1_555 1_555
N1 C7 1_555 1_555
C1 H1 1_555 1_555
O2 C7 1_555 1_555
C2 C1 1_555 1_555
H2 C2 1_555 1_555
C3 C2 1_555 1_555
H3 C3 1_555 1_555
C4 C3 1_555 1_555
H4 C4 1_555 1_555
C5 C4 1_555 1_555
H5 C5 1_555 1_555
C6 C1 1_555 1_555
C7 C6 1_555 1_555
C8 N1 1_555 1_555
C9 C8 1_555 1_555
H6 C9 1_555 1_555
C10 C9 1_555 1_555
H7 C10 1_555 1_555
C11 C10 1_555 1_555
C12 C11 1_555 1_555
H8 C12 1_555 1_555
C13 C12 1_555 1_555
H9 C13 1_555 1_555
C14 C13 1_555 1_555
H10 C14 1_555 1_555
C15 C14 1_555 1_555
H11 C15 1_555 1_555
C16 C11 1_555 1_555
C17 C8 1_555 1_555
C18 C17 1_555 1_555
H12 C18 1_555 1_555
H13 N1 1_555 1_555
C5 C6 1_555 1_555
C15 C16 1_555 1_555
C16 C17 1_555 1_555

#END
