
#######################################################################
#
#                 Cambridge Crystallographic Data Centre
#                                CCDC 
#
#######################################################################
#
# If this CIF has been generated from an entry in the Cambridge 
# Structural Database, then it will include bibliographic, chemical, 
# crystal, experimental, refinement or atomic coordinate data resulting 
# from the CCDC's data processing and validation procedures.
#
#######################################################################

data_PIJFAS
_chemical_formula_moiety         'C17 H32 N2 2+,2(I1 1-)'
_chemical_name_systematic        '1,16-dimethylmatridine-1,16-diium bis(iodide)'
_symmetry_cell_setting           monoclinic
_symmetry_space_group_name_H-M   'P 21'
_symmetry_Int_Tables_number      4
_space_group_name_Hall           'P 2yb'
loop_
_symmetry_equiv_pos_site_id
_symmetry_equiv_pos_as_xyz
1 x,y,z
2 -x,1/2+y,-z
_cell_length_a                   10.5038(4)
_cell_length_b                   15.9405(7)
_cell_length_c                   12.7153(4)
_cell_angle_alpha                90
_cell_angle_beta                 103.9612(12)
_cell_angle_gamma                90
_cell_volume                     2066.1
_exptl_crystal_colour            colorless
_exptl_crystal_description       block
_cell_formula_units_Z            4
loop_
_atom_site_label
_atom_site_type_symbol
_atom_site_fract_x
_atom_site_fract_y
_atom_site_fract_z
I1 I 0.77434(9) 0.17897(5) 1.20260(7)
I2 I 0.66646(9) 0.46616(6) 0.60966(7)
I3 I 0.73653(9) 0.76742(6) 1.12398(8)
I4 I 1.19131(16) 0.52364(8) 1.28340(11)
N1 N 0.5466(10) 0.4947(6) 0.9847(8)
C1 C 0.5321(16) 0.4678(11) 1.2148(12)
H1 H 0.453344 0.433860 1.203800
H2 H 0.566166 0.476103 1.292019
N2 N 0.9319(11) 0.3880(7) 0.9741(8)
C2 C 0.7044(11) 0.3684(7) 1.0043(9)
H3 H 0.740827 0.326084 1.059227
C3 C 0.7820(14) 0.2756(10) 0.8719(12)
H4 H 0.815017 0.234286 0.927815
H5 H 0.757082 0.246757 0.802871
C4 C 0.5933(12) 0.4107(7) 1.0433(10)
H6 H 0.518358 0.372237 1.028182
C5 C 0.8768(15) 0.5683(10) 0.9331(12)
H7 H 0.842160 0.614644 0.885249
H8 H 0.912676 0.590925 1.004988
C6 C 0.6634(13) 0.5495(7) 0.9843(9)
H9 H 0.703540 0.566454 1.058145
H10 H 0.633275 0.599898 0.942941
C7 C 0.8166(12) 0.4303(8) 1.0052(10)
H11 H 0.848083 0.449780 1.080111
C8 C 0.5001(15) 0.5521(9) 1.1585(11)
H12 H 0.432075 0.579912 1.185391
H13 H 0.577496 0.587497 1.174573
C9 C 0.6613(13) 0.3196(9) 0.8951(11)
H14 H 0.594912 0.278431 0.899860
H15 H 0.624102 0.358235 0.836816
C10 C 0.7668(12) 0.5072(7) 0.9368(9)
H16 H 0.725678 0.489014 0.862784
C11 C 0.4557(14) 0.5402(8) 1.0419(11)
H17 H 0.437091 0.595047 1.008769
H18 H 0.373468 0.509624 1.027775
C12 C 0.4683(13) 0.4788(9) 0.8686(10)
H19 H 0.527072 0.463205 0.824661
H20 H 0.421960 0.528914 0.839961
H21 H 0.406591 0.434292 0.868159
C13 C 1.0331(14) 0.4518(11) 0.9618(13)
H22 H 1.077673 0.471483 1.033445
H23 H 1.097825 0.423996 0.931085
C14 C 0.6349(13) 0.4234(8) 1.1667(10)
H24 H 0.715275 0.455912 1.184140
H25 H 0.653765 0.369009 1.201168
C15 C 0.8871(14) 0.3383(10) 0.8692(11)
H26 H 0.854814 0.377205 0.810079
H27 H 0.962034 0.309257 0.854529
C16 C 0.9983(15) 0.3293(11) 1.0629(12)
H28 H 1.029527 0.360273 1.128786
H29 H 1.071006 0.302522 1.042961
H30 H 0.936919 0.287435 1.073578
C17 C 0.9828(16) 0.5258(11) 0.8938(13)
H31 H 0.948981 0.508103 0.819285
H32 H 1.054002 0.564962 0.895686
N3 N 1.0042(10) 0.3638(6) 1.4991(9)
N4 N 1.3698(11) 0.2306(7) 1.4944(8)
C18 C 1.2572(16) 0.2513(9) 1.2988(10)
H33 H 1.182923 0.233080 1.242131
H34 H 1.251665 0.311802 1.304502
C19 C 1.4921(16) 0.2132(11) 1.4539(13)
H35 H 1.499211 0.153200 1.444254
H36 H 1.568310 0.230922 1.509014
C20 C 0.8991(14) 0.3740(9) 1.3928(12)
H37 H 0.879491 0.320171 1.358791
H38 H 0.930874 0.410910 1.345291
H39 H 0.820987 0.397129 1.407897
C21 C 1.2633(15) 0.4347(9) 1.6103(12)
H40 H 1.338088 0.439390 1.672049
H41 H 1.278016 0.471411 1.553541
C22 C 1.381(2) 0.2299(12) 1.2654(13)
H42 H 1.385622 0.169746 1.254991
H43 H 1.381163 0.257221 1.197288
C23 C 0.9576(16) 0.3072(10) 1.5759(12)
H44 H 0.875826 0.328819 1.587656
H45 H 1.021671 0.307069 1.645023
C24 C 0.9365(14) 0.2179(9) 1.5335(13)
H46 H 0.868041 0.216912 1.466922
H47 H 0.909004 0.182761 1.586298
C25 C 1.2495(12) 0.3447(8) 1.5700(10)
H48 H 1.240698 0.307619 1.629344
C26 C 1.1332(12) 0.3333(7) 1.4760(9)
H49 H 1.148828 0.367203 1.416112
C27 C 1.0253(14) 0.4528(8) 1.5475(11)
H50 H 1.036419 0.491364 1.491368
H51 H 0.947055 0.469548 1.569920
C28 C 1.3731(12) 0.3204(9) 1.5327(11)
H52 H 1.381791 0.357307 1.474242
H53 H 1.449456 0.328351 1.592334
C29 C 1.2454(13) 0.2122(8) 1.4065(8)
H54 H 1.239769 0.151282 1.396329
C30 C 1.1198(12) 0.2408(7) 1.4371(10)
H55 H 1.052218 0.241472 1.368841
C31 C 1.3849(15) 0.1708(12) 1.5921(11)
H56 H 1.377762 0.113789 1.567114
H57 H 1.317203 0.182192 1.629137
H58 H 1.469184 0.179269 1.640926
C32 C 1.0661(14) 0.1835(9) 1.5121(12)
H59 H 1.130901 0.177929 1.580433
H60 H 1.050496 0.128167 1.479693
C33 C 1.4942(18) 0.2569(13) 1.3478(14)
H61 H 1.491643 0.317291 1.356891
H62 H 1.574089 0.242783 1.326330
C34 C 1.1412(15) 0.4605(10) 1.6424(13)
H63 H 1.149563 0.518110 1.667804
H64 H 1.128528 0.425171 1.701153
loop_
_geom_bond_atom_site_label_1
_geom_bond_atom_site_label_2
_geom_bond_site_symmetry_1
_geom_bond_site_symmetry_2
N1 C4 1_555 1_555
C1 H1 1_555 1_555
H2 C1 1_555 1_555
N2 C7 1_555 1_555
C2 H3 1_555 1_555
C3 H4 1_555 1_555
H5 C3 1_555 1_555
C4 C2 1_555 1_555
H6 C4 1_555 1_555
C5 H7 1_555 1_555
H8 C5 1_555 1_555
C6 N1 1_555 1_555
H9 C6 1_555 1_555
H10 C6 1_555 1_555
C7 C2 1_555 1_555
H11 C7 1_555 1_555
C8 C1 1_555 1_555
H12 C8 1_555 1_555
H13 C8 1_555 1_555
C9 C2 1_555 1_555
H14 C9 1_555 1_555
H15 C9 1_555 1_555
C10 C5 1_555 1_555
H16 C10 1_555 1_555
C11 N1 1_555 1_555
H17 C11 1_555 1_555
H18 C11 1_555 1_555
C12 N1 1_555 1_555
H19 C12 1_555 1_555
H20 C12 1_555 1_555
H21 C12 1_555 1_555
C13 N2 1_555 1_555
H22 C13 1_555 1_555
H23 C13 1_555 1_555
C14 C1 1_555 1_555
H24 C14 1_555 1_555
H25 C14 1_555 1_555
C15 N2 1_555 1_555
H26 C15 1_555 1_555
H27 C15 1_555 1_555
C16 N2 1_555 1_555
H28 C16 1_555 1_555
H29 C16 1_555 1_555
H30 C16 1_555 1_555
C17 C5 1_555 1_555
H31 C17 1_555 1_555
H32 C17 1_555 1_555
N3 C20 1_555 1_555
N4 C19 1_555 1_555
C18 H33 1_555 1_555
H34 C18 1_555 1_555
C19 H35 1_555 1_555
H36 C19 1_555 1_555
C20 H37 1_555 1_555
H38 C20 1_555 1_555
H39 C20 1_555 1_555
C21 H40 1_555 1_555
H41 C21 1_555 1_555
C22 C18 1_555 1_555
H42 C22 1_555 1_555
H43 C22 1_555 1_555
C23 N3 1_555 1_555
H44 C23 1_555 1_555
H45 C23 1_555 1_555
C24 C23 1_555 1_555
H46 C24 1_555 1_555
H47 C24 1_555 1_555
C25 C21 1_555 1_555
H48 C25 1_555 1_555
C26 N3 1_555 1_555
H49 C26 1_555 1_555
C27 N3 1_555 1_555
H50 C27 1_555 1_555
H51 C27 1_555 1_555
C28 N4 1_555 1_555
H52 C28 1_555 1_555
H53 C28 1_555 1_555
C29 N4 1_555 1_555
H54 C29 1_555 1_555
C30 C26 1_555 1_555
H55 C30 1_555 1_555
C31 N4 1_555 1_555
H56 C31 1_555 1_555
H57 C31 1_555 1_555
H58 C31 1_555 1_555
C32 C24 1_555 1_555
H59 C32 1_555 1_555
H60 C32 1_555 1_555
C33 C19 1_555 1_555
H61 C33 1_555 1_555
H62 C33 1_555 1_555
C34 C21 1_555 1_555
H63 C34 1_555 1_555
H64 C34 1_555 1_555
C3 C9 1_555 1_555
C3 C15 1_555 1_555
C4 C14 1_555 1_555
C6 C10 1_555 1_555
C7 C10 1_555 1_555
C8 C11 1_555 1_555
C13 C17 1_555 1_555
C18 C29 1_555 1_555
C22 C33 1_555 1_555
C25 C26 1_555 1_555
C25 C28 1_555 1_555
C27 C34 1_555 1_555
C29 C30 1_555 1_555
C30 C32 1_555 1_555

#END
