
#######################################################################
#
#                 Cambridge Crystallographic Data Centre
#                                CCDC 
#
#######################################################################
#
# If this CIF has been generated from an entry in the Cambridge 
# Structural Database, then it will include bibliographic, chemical, 
# crystal, experimental, refinement or atomic coordinate data resulting 
# from the CCDC's data processing and validation procedures.
#
#######################################################################

data_PIJGOH
_chemical_formula_moiety         'C58 H72 N2 O4 S7'
_chemical_name_systematic        
4,10,14,17-tetrakis[(2-ethylhexyl)oxy]bisthieno[2'',3'':5',6'][1]benzothieno[2',3':4,5]thieno[3,2-e:2',3'-g][2,1,3]benzothiadiazole
_symmetry_cell_setting           triclinic
_symmetry_space_group_name_H-M   'P -1'
_symmetry_Int_Tables_number      2
_space_group_name_Hall           '-P 1'
loop_
_symmetry_equiv_pos_site_id
_symmetry_equiv_pos_as_xyz
1 x,y,z
2 -x,-y,-z
_cell_length_a                   8.8951(9)
_cell_length_b                   17.642(3)
_cell_length_c                   19.855(4)
_cell_angle_alpha                115.095(2)
_cell_angle_beta                 94.914(3)
_cell_angle_gamma                90.583(3)
_cell_volume                     2807.57
_exptl_crystal_colour            yellow
_exptl_crystal_description       needle
_cell_formula_units_Z            2
loop_
_atom_site_label
_atom_site_type_symbol
_atom_site_fract_x
_atom_site_fract_y
_atom_site_fract_z
S1 S 0.3581(3) 0.72317(14) 0.47979(14)
S2 S 0.5880(3) 0.08534(17) 0.08026(15)
S3 S 0.5496(2) 0.46975(14) 0.27813(12)
S4 S 0.3676(2) 0.33049(13) 0.38196(12)
S5 S 0.1615(2) 0.41053(13) 0.53802(12)
S6 S 0.0644(2) 0.66321(13) 0.65932(12)
S7 S -0.2239(3) 0.4428(2) 0.79657(16)
O1 O 0.6416(7) 0.3829(4) 0.1131(4)
O2 O 0.4826(7) 0.1698(4) 0.2436(4)
O3 O -0.0432(7) 0.3789(4) 0.6525(4)
O4 O -0.1263(7) 0.7244(4) 0.7972(3)
N1 N 0.4201(8) 0.6344(4) 0.4217(4)
N2 N 0.2662(8) 0.6924(4) 0.5316(4)
C1 C 0.6431(11) 0.1150(8) 0.0128(6)
H1 H 0.663162 0.075000 -0.035301
C2 C 0.6556(11) 0.1967(8) 0.0325(5)
H2 H 0.685394 0.221480 0.001280
C3 C 0.6172(10) 0.2435(7) 0.1091(5)
C4 C 0.5780(10) 0.1915(6) 0.1427(5)
C5 C 0.5309(9) 0.2214(6) 0.2134(5)
C6 C 0.5247(9) 0.3086(5) 0.2526(5)
C7 C 0.5696(9) 0.3633(6) 0.2204(5)
C8 C 0.6143(9) 0.3320(6) 0.1463(5)
C9 C 0.4640(9) 0.3572(5) 0.3228(4)
C10 C 0.4696(9) 0.4414(5) 0.3416(4)
C11 C 0.3943(8) 0.4886(5) 0.4064(4)
C12 C 0.3338(9) 0.4356(5) 0.4337(4)
C13 C 0.2459(9) 0.4680(5) 0.4985(4)
C14 C 0.2223(8) 0.5549(5) 0.5329(4)
C15 C 0.2814(9) 0.6084(5) 0.5055(4)
C16 C 0.3684(9) 0.5757(5) 0.4423(4)
C17 C 0.1320(8) 0.5716(5) 0.5943(4)
C18 C 0.0913(9) 0.5009(5) 0.6030(5)
C19 C 0.0036(9) 0.5170(6) 0.6651(5)
C20 C -0.0165(9) 0.6080(5) 0.7013(4)
C21 C -0.1011(9) 0.6400(6) 0.7644(5)
C22 C -0.1596(10) 0.5844(6) 0.7909(5)
C23 C -0.1379(9) 0.4967(6) 0.7532(5)
C24 C -0.0592(10) 0.4624(6) 0.6908(5)
C25 C -0.2437(10) 0.6048(8) 0.8548(5)
H3 H -0.269983 0.659671 0.886651
C26 C -0.2789(11) 0.5368(8) 0.8627(6)
H4 H -0.332133 0.539122 0.902913
C27 C 0.7804(14) 0.4279(7) 0.1337(7)
H5 H 0.863544 0.389322 0.127719
H6 H 0.786630 0.469062 0.186771
C28 C 0.937(2) 0.3688(13) -0.0180(13)
H7 H 0.970731 0.368168 -0.063965
H8 H 0.906395 0.311697 -0.026546
H9 H 1.019899 0.390808 0.022113
C29 C 0.809(2) 0.4220(11) 0.0033(10)
H10 H 0.810451 0.458946 -0.022777
H11 H 0.716315 0.385100 -0.017114
C30 C 0.7947(17) 0.4749(9) 0.0815(8)
H12 H 0.891710 0.509547 0.100767
C31 C 0.681(2) 0.5333(10) 0.0842(10)
H13 H 0.707728 0.560104 0.051668
H14 H 0.584296 0.500392 0.061172
C32 C 0.654(3) 0.5956(14) 0.1511(11)
H15 H 0.748949 0.627832 0.178207
H16 H 0.609058 0.572065 0.182539
C33 C 0.551(3) 0.6764(16) 0.0735(19)
H17 H 0.465477 0.711877 0.076575
H18 H 0.645531 0.708560 0.079369
H19 H 0.541196 0.627663 0.024807
C34 C 0.552(4) 0.647(2) 0.1344(16)
H20 H 0.554306 0.699305 0.181234
H21 H 0.451309 0.619445 0.127372
C35 C 0.6032(14) 0.1429(8) 0.2806(7)
H22 H 0.653478 0.192363 0.323309
H23 H 0.679236 0.115859 0.245312
C36 C 0.491(3) -0.0423(14) 0.1995(13)
H24 H 0.557978 -0.012877 0.180822
H25 H 0.407961 -0.072161 0.160870
H26 H 0.547620 -0.082448 0.212241
C37 C 0.429(3) 0.0177(13) 0.2653(13)
H27 H 0.340194 0.042432 0.250592
H28 H 0.397058 -0.010423 0.295885
C38 C 0.5445(17) 0.0826(10) 0.3081(9)
H29 H 0.493821 0.119547 0.352792
C39 C 0.6826(19) 0.0654(11) 0.3403(9)
H30 H 0.751990 0.041903 0.300829
H31 H 0.730387 0.119080 0.378639
C40 C 0.667(3) 0.0088(11) 0.3742(7)
H32 H 0.767086 -0.013520 0.379556
H33 H 0.597694 -0.038989 0.340795
C41 C 0.611(2) 0.0473(12) 0.4460(8)
H34 H 0.502996 0.029630 0.438793
H35 H 0.616388 0.108503 0.461080
C42 C 0.6768(14) 0.0347(15) 0.5087(9)
H36 H 0.622696 0.066222 0.552409
H37 H 0.669115 -0.025083 0.497142
H38 H 0.783381 0.054398 0.519601
C43 C 0.0792(13) 0.3486(7) 0.6845(7)
H39 H 0.069730 0.365571 0.738278
H40 H 0.176883 0.372376 0.679725
C44 C 0.357(3) 0.2416(18) 0.6421(18)
H41 H 0.442272 0.220181 0.661930
H42 H 0.349334 0.215074 0.587327
H43 H 0.371435 0.302435 0.660202
C45 C 0.214(2) 0.2219(14) 0.6676(14)
H44 H 0.202542 0.160407 0.650276
H45 H 0.224583 0.247534 0.722956
C46 C 0.0727(15) 0.2508(9) 0.6417(9)
H46 H 0.069592 0.234266 0.586732
C47 C -0.0646(17) 0.2178(10) 0.6575(8)
H47 H -0.094823 0.165099 0.612692
H48 H -0.143235 0.257679 0.659090
C48 C -0.080(3) 0.1991(15) 0.7216(9)
H49 H -0.022072 0.245547 0.764205
H50 H -0.021456 0.148743 0.711868
C49 C -0.216(3) 0.185(2) 0.7520(12)
H51 H -0.238595 0.123560 0.723510
H52 H -0.294767 0.211313 0.732548
C50 C -0.260(5) 0.203(3) 0.8305(12)
H53 H -0.364731 0.182292 0.826596
H54 H -0.193015 0.173777 0.852797
H55 H -0.250166 0.263061 0.861992
C51 C -0.0080(13) 0.7759(7) 0.8540(6)
H56 H 0.084288 0.778832 0.830453
H57 H 0.017281 0.751236 0.889739
C52 C -0.014(2) 0.9078(13) 0.7991(11)
H58 H -0.010125 0.850521 0.760431
H59 H 0.088039 0.929834 0.822228
H60 H -0.058081 0.943350 0.776422
C53 C -0.1049(18) 0.9076(10) 0.8542(9)
H61 H -0.113238 0.966737 0.889899
H62 H -0.207513 0.886224 0.829026
C54 C -0.0653(17) 0.8642(9) 0.8952(8)
H63 H 0.028207 0.896529 0.926122
C55 C -0.1613(19) 0.8686(11) 0.9513(9)
H64 H -0.196752 0.926399 0.972425
H65 H -0.251313 0.831295 0.924108
C56 C -0.119(2) 0.8508(12) 1.0131(9)
H66 H -0.039703 0.893626 1.045545
H67 H -0.070737 0.796229 0.993754
C57 C -0.230(3) 0.8469(19) 1.0600(16)
H68 H -0.304963 0.801673 1.027276
H69 H -0.282529 0.899916 1.075462
C58 C -0.195(4) 0.8335(19) 1.1296(17)
H70 H -0.288948 0.833135 1.151980
H71 H -0.148232 0.779667 1.116691
H72 H -0.125583 0.878849 1.165339
loop_
_geom_bond_atom_site_label_1
_geom_bond_atom_site_label_2
_geom_bond_site_symmetry_1
_geom_bond_site_symmetry_2
S1 N1 1_555 1_555
S2 C1 1_555 1_555
S3 C7 1_555 1_555
S4 C9 1_555 1_555
S5 C13 1_555 1_555
S6 C17 1_555 1_555
S7 C23 1_555 1_555
O1 C8 1_555 1_555
O2 C5 1_555 1_555
O3 C24 1_555 1_555
O4 C21 1_555 1_555
N1 C16 1_555 1_555
N2 S1 1_555 1_555
C1 H1 1_555 1_555
C2 C1 1_555 1_555
H2 C2 1_555 1_555
C3 C2 1_555 1_555
C4 S2 1_555 1_555
C5 C4 1_555 1_555
C6 C5 1_555 1_555
C7 C6 1_555 1_555
C8 C3 1_555 1_555
C9 C6 1_555 1_555
C10 S3 1_555 1_555
C11 C10 1_555 1_555
C12 S4 1_555 1_555
C13 C12 1_555 1_555
C14 C13 1_555 1_555
C15 N2 1_555 1_555
C16 C11 1_555 1_555
C17 C14 1_555 1_555
C18 S5 1_555 1_555
C19 C18 1_555 1_555
C20 S6 1_555 1_555
C21 C20 1_555 1_555
C22 C21 1_555 1_555
C23 C22 1_555 1_555
C24 C19 1_555 1_555
C25 C22 1_555 1_555
H3 C25 1_555 1_555
C26 S7 1_555 1_555
H4 C26 1_555 1_555
C27 O1 1_555 1_555
H5 C27 1_555 1_555
H6 C27 1_555 1_555
C28 H7 1_555 1_555
H8 C28 1_555 1_555
H9 C28 1_555 1_555
C29 C28 1_555 1_555
H10 C29 1_555 1_555
H11 C29 1_555 1_555
C30 C27 1_555 1_555
H12 C30 1_555 1_555
C31 C30 1_555 1_555
H13 C31 1_555 1_555
H14 C31 1_555 1_555
C32 C31 1_555 1_555
H15 C32 1_555 1_555
H16 C32 1_555 1_555
C33 H17 1_555 1_555
H18 C33 1_555 1_555
H19 C33 1_555 1_555
C34 C32 1_555 1_555
H20 C34 1_555 1_555
H21 C34 1_555 1_555
C35 O2 1_555 1_555
H22 C35 1_555 1_555
H23 C35 1_555 1_555
C36 H24 1_555 1_555
H25 C36 1_555 1_555
H26 C36 1_555 1_555
C37 C36 1_555 1_555
H27 C37 1_555 1_555
H28 C37 1_555 1_555
C38 C35 1_555 1_555
H29 C38 1_555 1_555
C39 C38 1_555 1_555
H30 C39 1_555 1_555
H31 C39 1_555 1_555
C40 C39 1_555 1_555
H32 C40 1_555 1_555
H33 C40 1_555 1_555
C41 C40 1_555 1_555
H34 C41 1_555 1_555
H35 C41 1_555 1_555
C42 C41 1_555 1_555
H36 C42 1_555 1_555
H37 C42 1_555 1_555
H38 C42 1_555 1_555
C43 O3 1_555 1_555
H39 C43 1_555 1_555
H40 C43 1_555 1_555
C44 H41 1_555 1_555
H42 C44 1_555 1_555
H43 C44 1_555 1_555
C45 C44 1_555 1_555
H44 C45 1_555 1_555
H45 C45 1_555 1_555
C46 C43 1_555 1_555
H46 C46 1_555 1_555
C47 C46 1_555 1_555
H47 C47 1_555 1_555
H48 C47 1_555 1_555
C48 C47 1_555 1_555
H49 C48 1_555 1_555
H50 C48 1_555 1_555
C49 C48 1_555 1_555
H51 C49 1_555 1_555
H52 C49 1_555 1_555
C50 C49 1_555 1_555
H53 C50 1_555 1_555
H54 C50 1_555 1_555
H55 C50 1_555 1_555
C51 O4 1_555 1_555
H56 C51 1_555 1_555
H57 C51 1_555 1_555
C52 H58 1_555 1_555
H59 C52 1_555 1_555
H60 C52 1_555 1_555
C53 C52 1_555 1_555
H61 C53 1_555 1_555
H62 C53 1_555 1_555
C54 C51 1_555 1_555
H63 C54 1_555 1_555
C55 C54 1_555 1_555
H64 C55 1_555 1_555
H65 C55 1_555 1_555
C56 C55 1_555 1_555
H66 C56 1_555 1_555
H67 C56 1_555 1_555
C57 C56 1_555 1_555
H68 C57 1_555 1_555
H69 C57 1_555 1_555
C58 C57 1_555 1_555
H70 C58 1_555 1_555
H71 C58 1_555 1_555
H72 C58 1_555 1_555
C3 C4 1_555 1_555
C7 C8 1_555 1_555
C9 C10 1_555 1_555
C11 C12 1_555 1_555
C14 C15 1_555 1_555
C15 C16 1_555 1_555
C17 C18 1_555 1_555
C19 C20 1_555 1_555
C23 C24 1_555 1_555
C25 C26 1_555 1_555
C29 C30 1_555 1_555
C33 C34 1_555 1_555
C37 C38 1_555 1_555
C45 C46 1_555 1_555
C53 C54 1_555 1_555

#END
