
#######################################################################
#
#                 Cambridge Crystallographic Data Centre
#                                CCDC 
#
#######################################################################
#
# If this CIF has been generated from an entry in the Cambridge 
# Structural Database, then it will include bibliographic, chemical, 
# crystal, experimental, refinement or atomic coordinate data resulting 
# from the CCDC's data processing and validation procedures.
#
#######################################################################

data_PIJKEA
_chemical_formula_moiety         'C9 H15 Cl2 F4 N4 O3 P3'
_chemical_name_systematic        
1,8-Dichloro-4,4,5,5-tetrafluoro-10-methoxy-10-(pyrrolidin-1-yl)-2,7-dioxa-9,11,12-triaza-1\l^5^,8\l^5^,10\l^5^-triphosphabicyclo[6.3.1]dodeca-1(12),8,10-triene
_symmetry_cell_setting           orthorhombic
_symmetry_space_group_name_H-M   'P 21 21 21'
_symmetry_Int_Tables_number      19
_space_group_name_Hall           'P 2ac 2ab'
loop_
_symmetry_equiv_pos_site_id
_symmetry_equiv_pos_as_xyz
1 x,y,z
2 1/2-x,-y,1/2+z
3 -x,1/2+y,1/2-z
4 1/2+x,1/2-y,-z
_cell_length_a                   8.2682(2)
_cell_length_b                   13.1798(4)
_cell_length_c                   16.1482(5)
_cell_angle_alpha                90
_cell_angle_beta                 90
_cell_angle_gamma                90
_cell_volume                     1759.72
_exptl_crystal_colour            colorless
_exptl_crystal_description       plate
_cell_formula_units_Z            4
loop_
_atom_site_label
_atom_site_type_symbol
_atom_site_fract_x
_atom_site_fract_y
_atom_site_fract_z
C1 C 0.9687(3) 0.24619(18) 0.89034(16)
H1 H 0.9703 0.1909 0.9318
H2 H 0.9109 0.2211 0.8407
C2 C 0.8775(3) 0.33786(19) 0.92624(15)
C3 C 0.7071(3) 0.35679(18) 0.89156(16)
C4 C 0.6858(3) 0.37715(18) 0.79997(15)
H3 H 0.7253 0.3182 0.7678
H4 H 0.5696 0.3866 0.7874
C5 C 1.3264(4) 0.5910(3) 0.94393(18)
H5 H 1.4302 0.6213 0.9260
H6 H 1.3438 0.5185 0.9572
C6 C 1.2569(4) 0.6478(3) 1.01810(19)
H7 H 1.2914 0.7198 1.0179
H8 H 1.2912 0.6160 1.0708
C7 C 1.0741(4) 0.6389(2) 1.00624(18)
H9 H 1.0159 0.6922 1.0376
H10 H 1.0342 0.5715 1.0239
C8 C 1.0541(4) 0.6536(2) 0.91267(17)
H11 H 0.9543 0.6205 0.8922
H12 H 1.0516 0.7265 0.8978
C9 C 1.4108(3) 0.5590(2) 0.66770(16)
H13 H 1.4462 0.4891 0.6777
H14 H 1.5027 0.5994 0.6482
H15 H 1.3255 0.5593 0.6256
N1 N 1.0091(2) 0.34808(14) 0.73451(13)
N2 N 1.0447(3) 0.55300(15) 0.74302(13)
N3 N 1.2780(2) 0.42851(16) 0.80468(13)
N4 N 1.2009(3) 0.60323(17) 0.87946(14)
O1 O 1.1316(2) 0.27201(13) 0.86819(11)
O2 O 0.7741(2) 0.46654(13) 0.77621(10)
O3 O 1.3490(2) 0.60199(13) 0.74390(11)
F1 F 0.96509(19) 0.42416(11) 0.91773(9)
F2 F 0.8589(2) 0.32420(12) 1.00996(9)
F3 F 0.6432(2) 0.43524(13) 0.93523(9)
F4 F 0.61786(18) 0.27309(13) 0.90950(9)
P1 P 1.17113(7) 0.33302(5) 0.78591(4)
P2 P 0.93630(7) 0.45854(5) 0.72451(4)
P3 P 1.21218(8) 0.54254(5) 0.79253(4)
Cl1 Cl 1.31164(8) 0.23232(5) 0.72690(4)
Cl2 Cl 0.85382(8) 0.47100(5) 0.60793(4)
loop_
_geom_bond_atom_site_label_1
_geom_bond_atom_site_label_2
_geom_bond_site_symmetry_1
_geom_bond_site_symmetry_2
C1 H1 1_555 1_555
H2 C1 1_555 1_555
C2 C1 1_555 1_555
C3 C2 1_555 1_555
C4 C3 1_555 1_555
H3 C4 1_555 1_555
H4 C4 1_555 1_555
C5 H5 1_555 1_555
H6 C5 1_555 1_555
C6 C5 1_555 1_555
H7 C6 1_555 1_555
H8 C6 1_555 1_555
C7 C6 1_555 1_555
H9 C7 1_555 1_555
H10 C7 1_555 1_555
C8 C7 1_555 1_555
H11 C8 1_555 1_555
H12 C8 1_555 1_555
C9 H13 1_555 1_555
H14 C9 1_555 1_555
H15 C9 1_555 1_555
N1 P1 1_555 1_555
N2 P2 1_555 1_555
N3 P1 1_555 1_555
N4 C5 1_555 1_555
O1 C1 1_555 1_555
O2 C4 1_555 1_555
O3 C9 1_555 1_555
F1 C2 1_555 1_555
F2 C2 1_555 1_555
F3 C3 1_555 1_555
F4 C3 1_555 1_555
P1 O1 1_555 1_555
P2 N1 1_555 1_555
P3 N2 1_555 1_555
Cl1 P1 1_555 1_555
Cl2 P2 1_555 1_555
C8 N4 1_555 1_555
N3 P3 1_555 1_555
N4 P3 1_555 1_555
O2 P2 1_555 1_555
O3 P3 1_555 1_555

#END
