
#######################################################################
#
#                 Cambridge Crystallographic Data Centre
#                                CCDC 
#
#######################################################################
#
# If this CIF has been generated from an entry in the Cambridge 
# Structural Database, then it will include bibliographic, chemical, 
# crystal, experimental, refinement or atomic coordinate data resulting 
# from the CCDC's data processing and validation procedures.
#
#######################################################################

data_PIJLAY
_chemical_formula_moiety         'C31 H24 Br1 F6 N3 O1'
_chemical_name_systematic        
N-(2-bromo-4-{2,2-dimethyl-1-[1-(naphthalen-1-yl)-2-(trifluoromethyl)-1H-benzimidazol-6-yl]propyl}phenyl)-2,2,2-trifluoroacetamide
_symmetry_cell_setting           orthorhombic
_symmetry_space_group_name_H-M   'P 21 21 21'
_symmetry_Int_Tables_number      19
_space_group_name_Hall           'P 2ac 2ab'
loop_
_symmetry_equiv_pos_site_id
_symmetry_equiv_pos_as_xyz
1 x,y,z
2 1/2-x,-y,1/2+z
3 -x,1/2+y,1/2-z
4 1/2+x,1/2-y,-z
_cell_length_a                   8.1140(4)
_cell_length_b                   15.5819(7)
_cell_length_c                   22.0846(10)
_cell_angle_alpha                90
_cell_angle_beta                 90
_cell_angle_gamma                90
_cell_volume                     2792.19
_exptl_crystal_colour            colorless
_exptl_crystal_description       Needle
_cell_formula_units_Z            4
loop_
_atom_site_label
_atom_site_type_symbol
_atom_site_fract_x
_atom_site_fract_y
_atom_site_fract_z
Br1 Br 0.64230(5) 0.12613(2) 0.65475(2)
F1 F 1.2041(4) 0.0941(2) 0.80018(13)
F2 F 1.0708(3) 0.01886(16) 0.73590(12)
F3 F 1.3275(4) 0.04207(19) 0.72231(17)
F4 F 0.2527(3) 0.84435(14) 0.73672(10)
F5 F 0.0180(3) 0.79108(14) 0.71081(10)
F6 F 0.1696(3) 0.85463(14) 0.64471(9)
O1 O 1.2645(4) 0.21448(18) 0.70193(14)
N1 N 1.0011(4) 0.1660(2) 0.68435(14)
N2 N 0.3902(4) 0.71340(18) 0.64142(12)
N3 N 0.1953(4) 0.64322(19) 0.69486(12)
C1 C 0.6747(5) 0.4481(2) 0.56575(15)
H1 H 0.7650 0.4913 0.5615
C2 C 0.7549(4) 0.3727(3) 0.59838(14)
C3 C 0.6753(5) 0.2952(2) 0.61117(15)
H2 H 0.5628 0.2880 0.6005
C4 C 0.7595(5) 0.2289(2) 0.63929(15)
C5 C 0.9258(5) 0.2359(2) 0.65512(16)
C6 C 1.0059(5) 0.3125(2) 0.64181(15)
H3 H 1.1190 0.3194 0.6519
C7 C 0.9213(5) 0.3789(3) 0.61390(15)
H4 H 0.9786 0.4306 0.6050
C8 C 1.1557(6) 0.1615(3) 0.70628(16)
C9 C 1.1896(6) 0.0780(3) 0.7419(2)
C10 C 0.5418(5) 0.4942(2) 0.60303(15)
C11 C 0.4211(5) 0.4518(2) 0.63786(15)
H5 H 0.4223 0.3908 0.6390
C12 C 0.3016(5) 0.4943(2) 0.67034(15)
H6 H 0.2221 0.4638 0.6934
C13 C 0.3011(5) 0.5842(2) 0.66820(14)
C14 C 0.4226(4) 0.6255(2) 0.63449(14)
C15 C 0.5430(5) 0.5837(2) 0.60204(15)
H7 H 0.6238 0.6145 0.5798
C16 C 0.2544(5) 0.7179(2) 0.67751(15)
C17 C 0.1735(5) 0.8021(2) 0.69265(16)
C18 C 0.4927(5) 0.7836(2) 0.62194(16)
C19 C 0.5901(5) 0.8243(2) 0.66385(16)
H8 H 0.5923 0.8048 0.7046
C20 C 0.6864(5) 0.8946(2) 0.64625(17)
H9 H 0.7533 0.9231 0.6753
C21 C 0.6846(5) 0.9227(2) 0.58747(17)
H10 H 0.7484 0.9713 0.5763
C22 C 0.5890(4) 0.8800(2) 0.54345(15)
C23 C 0.5878(5) 0.9070(2) 0.48164(17)
H11 H 0.6501 0.9558 0.4698
C24 C 0.4981(5) 0.8632(3) 0.43942(16)
H12 H 0.5000 0.8814 0.3984
C25 C 0.4036(5) 0.7920(2) 0.45598(16)
H13 H 0.3435 0.7616 0.4259
C26 C 0.3966(5) 0.7655(2) 0.51521(15)
H14 H 0.3287 0.7183 0.5262
C27 C 0.4912(5) 0.8086(2) 0.56009(16)
C28 C 0.6212(5) 0.4273(2) 0.49833(15)
C29 C 0.4592(5) 0.3783(3) 0.49469(17)
H15 H 0.3752 0.4082 0.5186
H16 H 0.4747 0.3202 0.5108
H17 H 0.4235 0.3748 0.4524
C30 C 0.6013(6) 0.5124(3) 0.46466(17)
H18 H 0.5781 0.5010 0.4219
H19 H 0.7032 0.5458 0.4682
H20 H 0.5098 0.5448 0.4824
C31 C 0.7600(6) 0.3773(3) 0.46756(17)
H21 H 0.7373 0.3728 0.4241
H22 H 0.7667 0.3196 0.4851
H23 H 0.8647 0.4073 0.4738
H24 H 0.939(5) 0.128(3) 0.6969(16)
loop_
_geom_bond_atom_site_label_1
_geom_bond_atom_site_label_2
_geom_bond_site_symmetry_1
_geom_bond_site_symmetry_2
Br1 C4 1_555 1_555
F1 C9 1_555 1_555
F2 C9 1_555 1_555
F3 C9 1_555 1_555
F4 C17 1_555 1_555
F5 C17 1_555 1_555
F6 C17 1_555 1_555
O1 C8 1_555 1_555
N1 C5 1_555 1_555
N2 C14 1_555 1_555
N3 C13 1_555 1_555
C1 H1 1_555 1_555
C2 C1 1_555 1_555
C3 C2 1_555 1_555
H2 C3 1_555 1_555
C4 C3 1_555 1_555
C5 C4 1_555 1_555
C6 C5 1_555 1_555
H3 C6 1_555 1_555
C7 C2 1_555 1_555
H4 C7 1_555 1_555
C8 N1 1_555 1_555
C9 C8 1_555 1_555
C10 C1 1_555 1_555
C11 C10 1_555 1_555
H5 C11 1_555 1_555
C12 C11 1_555 1_555
H6 C12 1_555 1_555
C13 C12 1_555 1_555
C14 C13 1_555 1_555
C15 C10 1_555 1_555
H7 C15 1_555 1_555
C16 N2 1_555 1_555
C17 C16 1_555 1_555
C18 N2 1_555 1_555
C19 C18 1_555 1_555
H8 C19 1_555 1_555
C20 C19 1_555 1_555
H9 C20 1_555 1_555
C21 C20 1_555 1_555
H10 C21 1_555 1_555
C22 C21 1_555 1_555
C23 C22 1_555 1_555
H11 C23 1_555 1_555
C24 C23 1_555 1_555
H12 C24 1_555 1_555
C25 C24 1_555 1_555
H13 C25 1_555 1_555
C26 C25 1_555 1_555
H14 C26 1_555 1_555
C27 C18 1_555 1_555
C28 C1 1_555 1_555
C29 C28 1_555 1_555
H15 C29 1_555 1_555
H16 C29 1_555 1_555
H17 C29 1_555 1_555
C30 C28 1_555 1_555
H18 C30 1_555 1_555
H19 C30 1_555 1_555
H20 C30 1_555 1_555
C31 C28 1_555 1_555
H21 C31 1_555 1_555
H22 C31 1_555 1_555
H23 C31 1_555 1_555
H24 N1 1_555 1_555
N3 C16 1_555 1_555
C6 C7 1_555 1_555
C14 C15 1_555 1_555
C22 C27 1_555 1_555
C26 C27 1_555 1_555

#END
