
#######################################################################
#
#                 Cambridge Crystallographic Data Centre
#                                CCDC 
#
#######################################################################
#
# If this CIF has been generated from an entry in the Cambridge 
# Structural Database, then it will include bibliographic, chemical, 
# crystal, experimental, refinement or atomic coordinate data resulting 
# from the CCDC's data processing and validation procedures.
#
#######################################################################

data_PIJLEC
_chemical_formula_moiety         'C31 H24 Br1 F6 N3 O1'
_chemical_name_systematic        
N-(2-bromo-4-{2,2-dimethyl-1-[1-(naphthalen-1-yl)-2-(trifluoromethyl)-1H-benzimidazol-6-yl]propyl}phenyl)-2,2,2-trifluoroacetamide
_symmetry_cell_setting           orthorhombic
_symmetry_space_group_name_H-M   'P 21 21 21'
_symmetry_Int_Tables_number      19
_space_group_name_Hall           'P 2ac 2ab'
loop_
_symmetry_equiv_pos_site_id
_symmetry_equiv_pos_as_xyz
1 x,y,z
2 1/2-x,-y,1/2+z
3 -x,1/2+y,1/2-z
4 1/2+x,1/2-y,-z
_cell_length_a                   8.13430(10)
_cell_length_b                   15.5692(3)
_cell_length_c                   22.0584(3)
_cell_angle_alpha                90
_cell_angle_beta                 90
_cell_angle_gamma                90
_cell_volume                     2793.58
_exptl_crystal_colour            colorless
_exptl_crystal_description       plate
_cell_formula_units_Z            4
loop_
_atom_site_label
_atom_site_type_symbol
_atom_site_fract_x
_atom_site_fract_y
_atom_site_fract_z
Br1 Br 0.64273(4) 0.87412(2) 0.65515(2)
F1 F 0.0184(2) 0.20910(12) 0.71052(9)
F2 F 0.2531(3) 0.15578(11) 0.73652(9)
F3 F 0.1697(3) 0.14549(11) 0.64413(8)
F4 F 1.2045(3) 0.9052(2) 0.80038(12)
F5 F 1.0708(3) 0.98067(13) 0.73623(10)
F6 F 1.3266(3) 0.95765(16) 0.72220(16)
O1 O 1.2639(3) 0.78561(15) 0.70173(12)
N1 N 0.1947(3) 0.35669(15) 0.69471(11)
N2 N 0.3905(3) 0.28680(15) 0.64135(11)
N3 N 1.0009(3) 0.83384(17) 0.68466(12)
H1 H 0.939(5) 0.873(3) 0.6983(16)
C1 C 0.6744(4) 0.55228(19) 0.56584(13)
H2 H 0.7644 0.5090 0.5616
C2 C 0.5416(4) 0.50606(18) 0.60289(13)
C3 C 0.4208(4) 0.54857(19) 0.63794(13)
H3 H 0.4221 0.6096 0.6393
C4 C 0.3014(4) 0.5056(2) 0.67020(13)
H4 H 0.2217 0.5361 0.6932
C5 C 0.3009(4) 0.41594(19) 0.66803(12)
C6 C 0.4217(3) 0.3744(2) 0.63430(12)
C7 C 0.5429(4) 0.41666(19) 0.60172(13)
H5 H 0.6236 0.3858 0.5795
C8 C 0.7545(3) 0.6275(2) 0.59846(12)
C9 C 0.6754(4) 0.70481(19) 0.61141(13)
H6 H 0.5631 0.7120 0.6008
C10 C 0.7589(4) 0.77094(19) 0.63946(13)
C11 C 0.9247(4) 0.76387(18) 0.65543(14)
C12 C 1.0046(4) 0.68758(19) 0.64176(13)
H7 H 1.1177 0.6810 0.6515
C13 C 0.9205(4) 0.6209(2) 0.61406(13)
H8 H 0.9775 0.5690 0.6054
C14 C 0.6213(4) 0.57287(19) 0.49857(14)
C15 C 0.7591(5) 0.6236(3) 0.46740(15)
H9 H 0.7681 0.6806 0.4860
H10 H 0.7338 0.6299 0.4242
H11 H 0.8634 0.5929 0.4721
C16 C 1.1901(4) 0.9222(3) 0.74143(18)
C17 C 0.4591(4) 0.6225(2) 0.49437(14)
H12 H 0.3747 0.5929 0.5182
H13 H 0.4242 0.6258 0.4519
H14 H 0.4748 0.6807 0.5103
C18 C 0.6010(5) 0.4877(2) 0.46460(15)
H15 H 0.7032 0.4545 0.4674
H16 H 0.5760 0.4992 0.4219
H17 H 0.5109 0.4548 0.4828
C19 C 0.2534(4) 0.28226(19) 0.67717(13)
C20 C 0.1737(4) 0.1976(2) 0.69242(14)
C21 C 0.4933(4) 0.21673(19) 0.62173(14)
C22 C 0.5897(4) 0.17625(19) 0.66398(14)
H18 H 0.5910 0.1956 0.7048
C23 C 0.6870(4) 0.1055(2) 0.64619(15)
H19 H 0.7543 0.0773 0.6752
C24 C 0.6851(4) 0.0774(2) 0.58789(15)
H20 H 0.7492 0.0289 0.5768
C25 C 0.5883(4) 0.1198(2) 0.54317(13)
C26 C 0.5876(4) 0.0929(2) 0.48174(15)
H21 H 0.6506 0.0442 0.4700
C27 C 0.4975(4) 0.1360(2) 0.43916(14)
H22 H 0.4988 0.1174 0.3981
C28 C 0.4028(4) 0.2078(2) 0.45597(14)
H23 H 0.3426 0.2382 0.4259
C29 C 0.3965(4) 0.23452(19) 0.51514(13)
H24 H 0.3290 0.2818 0.5261
C30 C 0.4903(4) 0.19170(18) 0.56006(14)
C31 C 1.1554(4) 0.8382(2) 0.70640(13)
loop_
_geom_bond_atom_site_label_1
_geom_bond_atom_site_label_2
_geom_bond_site_symmetry_1
_geom_bond_site_symmetry_2
Br1 C10 1_555 1_555
F1 C20 1_555 1_555
F2 C20 1_555 1_555
F3 C20 1_555 1_555
F4 C16 1_555 1_555
F5 C16 1_555 1_555
F6 C16 1_555 1_555
O1 C31 1_555 1_555
N1 C5 1_555 1_555
N2 C6 1_555 1_555
N3 H1 1_555 1_555
C1 H2 1_555 1_555
C2 C1 1_555 1_555
C3 C2 1_555 1_555
H3 C3 1_555 1_555
C4 C3 1_555 1_555
H4 C4 1_555 1_555
C5 C4 1_555 1_555
C6 C5 1_555 1_555
C7 C2 1_555 1_555
H5 C7 1_555 1_555
C8 C1 1_555 1_555
C9 C8 1_555 1_555
H6 C9 1_555 1_555
C10 C9 1_555 1_555
C11 N3 1_555 1_555
C12 C11 1_555 1_555
H7 C12 1_555 1_555
C13 C8 1_555 1_555
H8 C13 1_555 1_555
C14 C1 1_555 1_555
C15 C14 1_555 1_555
H9 C15 1_555 1_555
H10 C15 1_555 1_555
H11 C15 1_555 1_555
C16 C31 1_555 1_555
C17 C14 1_555 1_555
H12 C17 1_555 1_555
H13 C17 1_555 1_555
H14 C17 1_555 1_555
C18 C14 1_555 1_555
H15 C18 1_555 1_555
H16 C18 1_555 1_555
H17 C18 1_555 1_555
C19 N1 1_555 1_555
C20 C19 1_555 1_555
C21 N2 1_555 1_555
C22 C21 1_555 1_555
H18 C22 1_555 1_555
C23 C22 1_555 1_555
H19 C23 1_555 1_555
C24 C23 1_555 1_555
H20 C24 1_555 1_555
C25 C24 1_555 1_555
C26 C25 1_555 1_555
H21 C26 1_555 1_555
C27 C26 1_555 1_555
H22 C27 1_555 1_555
C28 C27 1_555 1_555
H23 C28 1_555 1_555
C29 C28 1_555 1_555
H24 C29 1_555 1_555
C30 C21 1_555 1_555
C31 N3 1_555 1_555
N2 C19 1_555 1_555
C6 C7 1_555 1_555
C10 C11 1_555 1_555
C12 C13 1_555 1_555
C25 C30 1_555 1_555
C29 C30 1_555 1_555

#END
