
#######################################################################
#
#                 Cambridge Crystallographic Data Centre
#                                CCDC 
#
#######################################################################
#
# If this CIF has been generated from an entry in the Cambridge 
# Structural Database, then it will include bibliographic, chemical, 
# crystal, experimental, refinement or atomic coordinate data resulting 
# from the CCDC's data processing and validation procedures.
#
#######################################################################

data_PIJNUR
_chemical_formula_moiety         'C28 H42 Br1 N3 O4'
_chemical_name_systematic        
N^\a^-p-Bromobenzoyl-C^\a^-methyl-D-leucyl-C^\a^-ethyl-D-leucyl-C^\a^-methyl-D-leucine-oxazol-5(4H)-one
_symmetry_cell_setting           monoclinic
_symmetry_space_group_name_H-M   'P 21'
_symmetry_Int_Tables_number      4
_space_group_name_Hall           'P 2yb'
loop_
_symmetry_equiv_pos_site_id
_symmetry_equiv_pos_as_xyz
1 x,y,z
2 -x,1/2+y,-z
_cell_length_a                   13.302(2)
_cell_length_b                   11.276(2)
_cell_length_c                   11.169(2)
_cell_angle_alpha                90
_cell_angle_beta                 111.9(2)
_cell_angle_gamma                90
_cell_volume                     1554.38
_cell_formula_units_Z            2
loop_
_atom_site_label
_atom_site_type_symbol
_atom_site_fract_x
_atom_site_fract_y
_atom_site_fract_z
Br1 Br 0.00395(10) 1.00000 0.64649(14)
O1 O 0.34119(67) 0.58954(62) 0.55112(84)
O2 O 0.48810(44) 0.50656(75) 0.38619(61)
O3 O 0.14311(61) 0.68660(75) 0.01203(76)
O4 O 0.00299(71) 0.7934(12) -0.11957(92)
N1 N 0.44283(64) 0.74939(72) 0.55443(84)
N2 N 0.38261(60) 0.66578(73) 0.30647(84)
N3 N 0.23192(71) 0.81801(90) 0.17093(90)
C1 C 0.11584(53) 0.90394(67) 0.63831(89)
C2 C 0.21371(53) 0.95782(67) 0.65105(89)
C3 C 0.29521(53) 0.89169(67) 0.63218(89)
C4 C 0.27883(53) 0.77168(67) 0.60057(89)
C5 C 0.18096(53) 0.71780(67) 0.58784(89)
C6 C 0.09947(53) 0.78393(67) 0.60671(89)
C7 C 0.35615(89) 0.6965(10) 0.5659(12)
C8 C 0.52089(70) 0.68112(96) 0.5194(12)
C9 C 0.5883(11) 0.5995(13) 0.6319(13)
C10 C 0.59315(89) 0.7784(11) 0.4860(14)
C11 C 0.67916(96) 0.7319(14) 0.4365(16)
C12 C 0.6893(16) 0.8096(22) 0.3392(19)
C13 C 0.7860(20) 0.7163(26) 0.5415(24)
C14 C 0.46175(70) 0.60739(78) 0.3994(10)
C15 C 0.30108(79) 0.61283(90) 0.1895(11)
C16 C 0.2353(10) 0.5172(15) 0.2271(14)
C17 C 0.3501(12) 0.5562(13) 0.0978(12)
C18 C 0.4298(13) 0.6332(17) 0.0625(16)
C19 C 0.5084(31) 0.5546(37) 0.0211(34)
C20 C 0.3808(29) 0.7327(44) -0.0213(35)
C21 C 0.22715(83) 0.71290(98) 0.12579(91)
C22 C 0.0826(10) 0.7899(12) -0.0237(13)
C23 C 0.1395(10) 0.8832(14) 0.0725(12)
C24 C 0.1890(13) 0.9753(14) 0.0016(17)
C25 C 0.0711(11) 0.9518(13) 0.1279(14)
C26 C 0.0295(13) 0.8788(18) 0.2155(16)
C27 C -0.0328(17) 0.9657(21) 0.2734(19)
C28 C -0.0413(27) 0.7813(31) 0.1569(30)
H1 H 0.45362 0.84523 0.56981
H2 H 0.37729 0.76112 0.31817
H3 H 0.22742 1.05063 0.67785
H4 H 0.37115 0.93254 0.64339
H5 H 0.16809 0.62444 0.56791
H6 H 0.02437 0.74254 0.60237
H7 H 0.66708 0.63770 0.68661
H8 H 0.59625 0.51231 0.60240
H9 H 0.55386 0.59482 0.68952
H10 H 0.53831 0.83817 0.41629
H11 H 0.63414 0.82729 0.57547
H12 H 0.65674 0.64357 0.39198
H13 H 0.74762 0.76515 0.29758
H14 H 0.72303 0.88971 0.37819
H15 H 0.64142 0.83412 0.25608
H16 H 0.81575 0.80606 0.58084
H17 H 0.84758 0.68240 0.50492
H18 H 0.79267 0.67784 0.60165
H19 H 0.26430 0.43254 0.22056
H20 H 0.15144 0.52837 0.16607
H21 H 0.23310 0.52084 0.31209
H22 H 0.28712 0.53140 0.00966
H23 H 0.39521 0.47525 0.14401
H24 H 0.49060 0.66085 0.15411
H25 H 0.56973 0.50707 0.09601
H26 H 0.55111 0.60891 -0.03033
H27 H 0.43959 0.51591 -0.03456
H28 H 0.45983 0.78459 -0.02804
H29 H 0.34160 0.79102 0.00788
H30 H 0.35748 0.66941 -0.09108
H31 H 0.26530 0.93510 -0.00150
H32 H 0.20561 1.05821 0.04364
H33 H 0.13019 0.98201 -0.10712
H34 H 0.11323 1.02552 0.18057
H35 H -0.00150 0.98086 0.04698
H36 H 0.09680 0.84131 0.29837
H37 H -0.12250 0.94437 0.24307
H38 H -0.02742 1.05587 0.25032
H39 H -0.00076 0.95510 0.37965
H40 H -0.10233 0.77494 0.21551
H41 H -0.00093 0.70047 0.17855
H42 H -0.08286 0.78054 0.09635
loop_
_geom_bond_atom_site_label_1
_geom_bond_atom_site_label_2
_geom_bond_site_symmetry_1
_geom_bond_site_symmetry_2
Br1 C1 1_555 1_555
O1 C7 1_555 1_555
O2 C14 1_555 1_555
O3 C21 1_555 1_555
O4 C22 1_555 1_555
N1 C7 1_555 1_555
N2 C14 1_555 1_555
N3 C21 1_555 1_555
C1 C2 1_555 1_555
C2 C3 1_555 1_555
C3 C4 1_555 1_555
C4 C5 1_555 1_555
C5 C6 1_555 1_555
C6 C1 1_555 1_555
C7 C4 1_555 1_555
C8 N1 1_555 1_555
C9 C8 1_555 1_555
C10 C8 1_555 1_555
C11 C10 1_555 1_555
C12 C11 1_555 1_555
C13 C11 1_555 1_555
C14 C8 1_555 1_555
C15 N2 1_555 1_555
C16 C15 1_555 1_555
C17 C15 1_555 1_555
C18 C17 1_555 1_555
C19 C18 1_555 1_555
C20 C18 1_555 1_555
C21 C15 1_555 1_555
C22 O3 1_555 1_555
C23 N3 1_555 1_555
C24 C23 1_555 1_555
C25 C23 1_555 1_555
C26 C25 1_555 1_555
C27 C26 1_555 1_555
C28 C26 1_555 1_555
H1 N1 1_555 1_555
H2 N2 1_555 1_555
H3 C2 1_555 1_555
H4 C3 1_555 1_555
H5 C5 1_555 1_555
H6 C6 1_555 1_555
H7 C9 1_555 1_555
H8 C9 1_555 1_555
H9 C9 1_555 1_555
H10 C10 1_555 1_555
H11 C10 1_555 1_555
H12 C11 1_555 1_555
H13 C12 1_555 1_555
H14 C12 1_555 1_555
H15 C12 1_555 1_555
H16 C13 1_555 1_555
H17 C13 1_555 1_555
H18 C13 1_555 1_555
H19 C16 1_555 1_555
H20 C16 1_555 1_555
H21 C16 1_555 1_555
H22 C17 1_555 1_555
H23 C17 1_555 1_555
H24 C18 1_555 1_555
H25 C19 1_555 1_555
H26 C19 1_555 1_555
H27 C19 1_555 1_555
H28 C20 1_555 1_555
H29 C20 1_555 1_555
H30 C20 1_555 1_555
H31 C24 1_555 1_555
H32 C24 1_555 1_555
H33 C24 1_555 1_555
H34 C25 1_555 1_555
H35 C25 1_555 1_555
H36 C26 1_555 1_555
H37 C27 1_555 1_555
H38 C27 1_555 1_555
H39 C27 1_555 1_555
H40 C28 1_555 1_555
H41 C28 1_555 1_555
H42 C28 1_555 1_555
C22 C23 1_555 1_555

#END
