
#######################################################################
#
#                 Cambridge Crystallographic Data Centre
#                                CCDC 
#
#######################################################################
#
# If this CIF has been generated from an entry in the Cambridge 
# Structural Database, then it will include bibliographic, chemical, 
# crystal, experimental, refinement or atomic coordinate data resulting 
# from the CCDC's data processing and validation procedures.
#
#######################################################################

data_PIJTOT
_chemical_formula_moiety         'C100 H88 O8,C7 H16,C1 H2 Cl2'
_chemical_name_systematic        
"4,4',4'',4''',4'''',4''''',4'''''',4'''''''-(Cyclooctacosa-1,2,8,9,15,16,22,23-octaene-4,6,11,13,18,20,25,27-octayne-1,3,8,10,15,17,22,24-octayloctapropane-2,2-diyl)octaphenol n-heptane dichloromethane solvate"
_symmetry_cell_setting           monoclinic
_symmetry_space_group_name_H-M   'C 2'
_symmetry_Int_Tables_number      5
_space_group_name_Hall           'C 2y'
loop_
_symmetry_equiv_pos_site_id
_symmetry_equiv_pos_as_xyz
1 x,y,z
2 -x,y,-z
3 1/2+x,1/2+y,z
4 1/2-x,1/2+y,-z
_cell_length_a                   27.930(3)
_cell_length_b                   8.9770(9)
_cell_length_c                   20.9383(15)
_cell_angle_alpha                90
_cell_angle_beta                 111.190(6)
_cell_angle_gamma                90
_cell_volume                     4894.85
_exptl_crystal_colour            yellow
_exptl_crystal_description       rod
_cell_formula_units_Z            2
loop_
_atom_site_label
_atom_site_type_symbol
_atom_site_fract_x
_atom_site_fract_y
_atom_site_fract_z
H45 H 0.1230 0.2798 0.0488
H46 H 0.1219 0.1545 0.1141
H47 H 0.1596 0.3195 0.1362
C51 C 0.0789(14) 0.355(7) 0.1073(19)
H48 H 0.0545 0.2748 0.1202
H49 H 0.0935 0.4323 0.1500
C52 C 0.0464(14) 0.440(5) 0.045(2)
H50 H 0.0697 0.4715 0.0156
H51 H 0.0329 0.5417 0.0617
C53 C 0.0000 0.349(8) 0.0000
H52 H -0.0125 0.2772 0.0329
C54 C 0.1240(10) 0.271(4) 0.1012(14)
H45A H -0.1230 0.2798 -0.0488
H46A H -0.1219 0.1545 -0.1141
H47A H -0.1596 0.3195 -0.1362
C51A C -0.0789(14) 0.355(7) -0.1073(19)
H48A H -0.0545 0.2748 -0.1202
H49A H -0.0935 0.4323 -0.1500
C52A C -0.0464(14) 0.440(5) -0.045(2)
H50A H -0.0697 0.4715 -0.0156
H51A H -0.0329 0.5417 -0.0617
H52A H 0.0125 0.2772 -0.0329
C54A C -0.1240(10) 0.271(4) -0.1012(14)
C55 C 0.0785(17) 0.856(8) -0.0036(19)
H53 H 0.0511 0.7751 -0.0352
H54 H 0.1172 0.8249 0.0002
H55 H 0.0693 0.9662 -0.0269
C56 C 0.0757(11) 0.860(6) 0.0676(17)
H56 H 0.0941 0.9595 0.0953
H57 H 0.0942 0.7618 0.0971
C57 C 0.0172(12) 0.860(5) 0.0534(19)
H58 H 0.0090 0.8342 0.0994
H59 H -0.0006 0.9661 0.0323
C58 C 0.0000 0.733(6) 0.0000
H60 H -0.0313 0.6650 0.0033
C55A C -0.0785(17) 0.856(8) 0.0036(19)
H53A H -0.0511 0.7751 0.0352
H54A H -0.1172 0.8249 -0.0002
H55A H -0.0693 0.9662 0.0269
C56A C -0.0757(11) 0.860(6) -0.0676(17)
H56A H -0.0941 0.9595 -0.0953
H57A H -0.0942 0.7618 -0.0971
C57A C -0.0172(12) 0.860(5) -0.0534(19)
H58A H -0.0090 0.8342 -0.0994
H59A H 0.0006 0.9661 -0.0323
H60A H 0.0313 0.6650 -0.0033
O1 O -0.1642(5) 0.4149(13) 0.4742(4)
H1 H -0.1438 0.3231 0.4838
O2 O -0.0922(6) 0.8590(17) 0.4540(4)
H2 H -0.1219 0.8171 0.4173
O3 O 0.0546(4) 0.1048(15) 0.5702(4)
H3 H 0.0709 0.0096 0.5674
O4 O 0.1386(3) 0.6053(11) 0.6057(3)
H4 H 0.1523 0.5217 0.5875
C1 C -0.2002(3) 0.6251(11) 0.7496(4)
C2 C -0.1633(3) 0.7009(11) 0.7410(3)
C3 C -0.1238(3) 0.7742(12) 0.7347(4)
C4 C -0.0757(4) 0.6968(14) 0.7572(4)
C5 C -0.0360(4) 0.6356(15) 0.7769(4)
C6 C 0.0116(4) 0.5585(15) 0.8015(5)
C7 C 0.0524(3) 0.4905(16) 0.8278(5)
C8 C 0.0971(4) 0.4161(15) 0.8581(4)
C9 C 0.1407(4) 0.4938(13) 0.8935(5)
C10 C 0.1822(3) 0.5663(11) 0.9290(4)
C11 C 0.1921(3) 0.5892(11) 0.9997(5)
C12 C 0.1986(3) 0.6096(12) 1.0585(5)
C13 C 0.2040(3) 0.6252(12) 1.1266(5)
C14 C 0.2046(3) 0.6294(12) 1.1854(5)
C15 C -0.2379(4) 0.5275(13) 0.6947(4)
C16 C -0.2916(4) 0.5991(17) 0.6729(6)
H5 H -0.3040 0.6030 0.7167
H6 H -0.3188 0.5330 0.6322
H7 H -0.2901 0.7119 0.6544
C17 C -0.2403(6) 0.3717(14) 0.7264(6)
H8 H -0.2024 0.3203 0.7435
H9 H -0.2676 0.3011 0.6879
H10 H -0.2526 0.3848 0.7698
C18 C -0.2196(4) 0.5071(14) 0.6340(5)
C19 C -0.1737(5) 0.4360(14) 0.6453(5)
H11 H -0.1516 0.4005 0.6969
C20 C -0.1537(7) 0.4065(15) 0.5932(8)
H12 H -0.1163 0.3562 0.6054
C21 C -0.1824(7) 0.4427(16) 0.5280(6)
C22 C -0.2297(5) 0.5144(19) 0.5120(5)
H13 H -0.2517 0.5439 0.4595
C23 C -0.2497(5) 0.5500(15) 0.5665(5)
H14 H -0.2859 0.6067 0.5552
C24 C -0.1251(3) 0.9302(13) 0.7054(4)
C25 C -0.0841(4) 1.0220(16) 0.7585(5)
H15 H -0.0938 1.0337 0.8042
H16 H -0.0819 1.1318 0.7376
H17 H -0.0471 0.9662 0.7718
C26 C -0.1781(4) 0.9961(12) 0.6928(5)
H18 H -0.2075 0.9227 0.6589
H19 H -0.1809 1.1053 0.6689
H20 H -0.1838 1.0073 0.7414
C27 C -0.1142(4) 0.9148(12) 0.6400(4)
C28 C -0.0768(5) 0.994(2) 0.6282(5)
H21 H -0.0550 1.0746 0.6655
C29 C -0.0656(8) 0.972(3) 0.5677(8)
H22 H -0.0321 1.0186 0.5609
C30 C -0.1045(7) 0.878(2) 0.5139(6)
C31 C -0.1389(4) 0.8040(15) 0.5254(5)
H23 H -0.1624 0.7265 0.4876
C32 C -0.1464(4) 0.8230(14) 0.5877(5)
H24 H -0.1778 0.7656 0.5957
C33 C 0.0975(4) 0.2487(17) 0.8510(5)
C34 C 0.1514(6) 0.1835(18) 0.8894(7)
H25 H 0.1784 0.2291 0.8678
H26 H 0.1500 0.0626 0.8840
H27 H 0.1638 0.2126 0.9435
C35 C 0.0577(5) 0.185(2) 0.8775(7)
H28 H 0.0595 0.2447 0.9238
H29 H 0.0654 0.0674 0.8893
H30 H 0.0195 0.1982 0.8385
C36 C 0.0860(3) 0.2097(16) 0.7755(5)
C37 C 0.0954(4) 0.307(2) 0.7301(5)
H31 H 0.1124 0.4138 0.7493
C38 C 0.0842(4) 0.275(2) 0.6613(7)
H32 H 0.0904 0.3564 0.6270
C39 C 0.0656(5) 0.142(2) 0.6395(7)
C40 C 0.0561(5) 0.0340(19) 0.6797(7)
H33 H 0.0415 -0.0741 0.6592
C41 C 0.0663(5) 0.0706(17) 0.7502(6)
H34 H 0.0586 -0.0101 0.7836
C42 C 0.2217(3) 0.6138(11) 0.8975(4)
C43 C 0.2683(3) 0.5159(14) 0.9288(4)
H35 H 0.2831 0.5297 0.9842
H36 H 0.2977 0.5475 0.9085
H37 H 0.2576 0.3999 0.9161
C44 C 0.2371(4) 0.7775(12) 0.9192(4)
H38 H 0.2033 0.8485 0.9002
H39 H 0.2653 0.8145 0.8978
H40 H 0.2537 0.7845 0.9749
C45 C 0.1984(3) 0.6063(12) 0.8188(4)
C46 C 0.1578(4) 0.6948(14) 0.7843(5)
H41 H 0.1414 0.7672 0.8122
C47 C 0.1374(4) 0.6919(16) 0.7130(5)
H42 H 0.1044 0.7598 0.6855
C48 C 0.1592(4) 0.6025(15) 0.6772(4)
C49 C 0.1985(4) 0.5143(13) 0.7102(4)
H43 H 0.2146 0.4422 0.6818
C50 C 0.2190(3) 0.5149(12) 0.7819(4)
H44 H 0.2512 0.4436 0.8087
O1A O 0.1642(5) 0.4149(13) 1.5258(4)
H1A H 0.1438 0.3231 1.5162
O2A O 0.0922(6) 0.8590(17) 1.5460(4)
H2A H 0.1219 0.8171 1.5827
O3A O -0.0546(4) 0.1048(15) 1.4298(4)
H3A H -0.0709 0.0096 1.4326
O4A O -0.1386(3) 0.6053(11) 1.3943(3)
H4A H -0.1523 0.5217 1.4125
C1A C 0.2002(3) 0.6251(11) 1.2504(4)
C2A C 0.1633(3) 0.7009(11) 1.2590(3)
C3A C 0.1238(3) 0.7742(12) 1.2653(4)
C4A C 0.0757(4) 0.6968(14) 1.2428(4)
C5A C 0.0360(4) 0.6356(15) 1.2231(4)
C6A C -0.0116(4) 0.5585(15) 1.1985(5)
C7A C -0.0524(3) 0.4905(16) 1.1722(5)
C8A C -0.0971(4) 0.4161(15) 1.1419(4)
C9A C -0.1407(4) 0.4938(13) 1.1065(5)
C10A C -0.1822(3) 0.5663(11) 1.0710(4)
C11A C -0.1921(3) 0.5892(11) 1.0003(5)
C12A C -0.1986(3) 0.6096(12) 0.9415(5)
C13A C -0.2040(3) 0.6252(12) 0.8734(5)
C14A C -0.2046(3) 0.6294(12) 0.8146(5)
C15A C 0.2379(4) 0.5275(13) 1.3053(4)
C16A C 0.2916(4) 0.5991(17) 1.3271(6)
H5A H 0.3040 0.6030 1.2833
H6A H 0.3188 0.5330 1.3678
H7A H 0.2901 0.7119 1.3456
C17A C 0.2403(6) 0.3717(14) 1.2736(6)
H8A H 0.2024 0.3203 1.2565
H9A H 0.2676 0.3011 1.3121
H10A H 0.2526 0.3848 1.2302
C18A C 0.2196(4) 0.5071(14) 1.3660(5)
C19A C 0.1737(5) 0.4360(14) 1.3547(5)
H11A H 0.1516 0.4005 1.3031
C20A C 0.1537(7) 0.4065(15) 1.4068(8)
H12A H 0.1163 0.3562 1.3946
C21A C 0.1824(7) 0.4427(16) 1.4720(6)
C22A C 0.2297(5) 0.5144(19) 1.4880(5)
H13A H 0.2517 0.5439 1.5405
C23A C 0.2497(5) 0.5500(15) 1.4335(5)
H14A H 0.2859 0.6067 1.4448
C24A C 0.1251(3) 0.9302(13) 1.2946(4)
C25A C 0.0841(4) 1.0220(16) 1.2415(5)
H15A H 0.0938 1.0337 1.1958
H16A H 0.0819 1.1318 1.2624
H17A H 0.0471 0.9662 1.2282
C26A C 0.1781(4) 0.9961(12) 1.3072(5)
H18A H 0.2075 0.9227 1.3411
H19A H 0.1809 1.1053 1.3311
H20A H 0.1838 1.0073 1.2586
C27A C 0.1142(4) 0.9148(12) 1.3600(4)
C28A C 0.0768(5) 0.994(2) 1.3718(5)
H21A H 0.0550 1.0746 1.3345
C29A C 0.0656(8) 0.972(3) 1.4323(8)
H22A H 0.0321 1.0186 1.4391
C30A C 0.1045(7) 0.878(2) 1.4861(6)
C31A C 0.1389(4) 0.8040(15) 1.4746(5)
H23A H 0.1624 0.7265 1.5124
C32A C 0.1464(4) 0.8230(14) 1.4123(5)
H24A H 0.1778 0.7656 1.4043
C33A C -0.0975(4) 0.2487(17) 1.1490(5)
C34A C -0.1514(6) 0.1835(18) 1.1106(7)
H25A H -0.1784 0.2291 1.1322
H26A H -0.1500 0.0626 1.1160
H27A H -0.1638 0.2126 1.0565
C35A C -0.0577(5) 0.185(2) 1.1225(7)
H28A H -0.0595 0.2447 1.0762
H29A H -0.0654 0.0674 1.1107
H30A H -0.0195 0.1982 1.1615
C36A C -0.0860(3) 0.2097(16) 1.2245(5)
C37A C -0.0954(4) 0.307(2) 1.2699(5)
H31A H -0.1124 0.4138 1.2507
C38A C -0.0842(4) 0.275(2) 1.3387(7)
H32A H -0.0904 0.3564 1.3730
C39A C -0.0656(5) 0.142(2) 1.3605(7)
C40A C -0.0561(5) 0.0340(19) 1.3203(7)
H33A H -0.0415 -0.0741 1.3408
C41A C -0.0663(5) 0.0706(17) 1.2498(6)
H34A H -0.0586 -0.0101 1.2164
C42A C -0.2217(3) 0.6138(11) 1.1025(4)
C43A C -0.2683(3) 0.5159(14) 1.0712(4)
H35A H -0.2831 0.5297 1.0158
H36A H -0.2977 0.5475 1.0915
H37A H -0.2576 0.3999 1.0839
C44A C -0.2371(4) 0.7775(12) 1.0808(4)
H38A H -0.2033 0.8485 1.0998
H39A H -0.2653 0.8145 1.1022
H40A H -0.2537 0.7845 1.0251
C45A C -0.1984(3) 0.6063(12) 1.1812(4)
C46A C -0.1578(4) 0.6948(14) 1.2157(5)
H41A H -0.1414 0.7672 1.1878
C47A C -0.1374(4) 0.6919(16) 1.2870(5)
H42A H -0.1044 0.7598 1.3145
C48A C -0.1592(4) 0.6025(15) 1.3228(4)
C49A C -0.1985(4) 0.5143(13) 1.2898(4)
H43A H -0.2146 0.4422 1.3182
C50A C -0.2190(3) 0.5149(12) 1.2181(4)
H44A H -0.2512 0.4436 1.1913
H61? H -0.0125 0.2771 0.0329
H62? H -0.0313 0.6650 0.0033
Cl1? Cl 0.0616(7) 0.342(2) 1.4896(9)
Cl2? Cl 0.0018(19) 0.564(5) 1.525(2)
C59? C 0.009(3) 0.463(9) 1.454(2)
H63? H -0.0261 0.3996 1.4274
H64? H 0.0156 0.5397 1.4183
loop_
_geom_bond_atom_site_label_1
_geom_bond_atom_site_label_2
_geom_bond_site_symmetry_1
_geom_bond_site_symmetry_2
O1 H1 1_555 1_555
O2 H2 1_555 1_555
O3 H3 1_555 1_555
O4 H4 1_555 1_555
C1 C2 1_555 1_555
C2 C3 1_555 1_555
C3 C4 1_555 1_555
C4 C5 1_555 1_555
C5 C6 1_555 1_555
C6 C7 1_555 1_555
C7 C8 1_555 1_555
C8 C9 1_555 1_555
C9 C10 1_555 1_555
C10 C11 1_555 1_555
C11 C12 1_555 1_555
C12 C13 1_555 1_555
C13 C14 1_555 1_555
C14 C1A 1_555 1_555
C15 C1 1_555 1_555
C16 C15 1_555 1_555
H5 C16 1_555 1_555
H6 C16 1_555 1_555
H7 C16 1_555 1_555
C17 C15 1_555 1_555
H8 C17 1_555 1_555
H9 C17 1_555 1_555
H10 C17 1_555 1_555
C18 C15 1_555 1_555
C19 C18 1_555 1_555
H11 C19 1_555 1_555
C20 C19 1_555 1_555
H12 C20 1_555 1_555
C21 O1 1_555 1_555
C22 C21 1_555 1_555
H13 C22 1_555 1_555
C23 C18 1_555 1_555
H14 C23 1_555 1_555
C24 C3 1_555 1_555
C25 C24 1_555 1_555
H15 C25 1_555 1_555
H16 C25 1_555 1_555
H17 C25 1_555 1_555
C26 C24 1_555 1_555
H18 C26 1_555 1_555
H19 C26 1_555 1_555
H20 C26 1_555 1_555
C27 C24 1_555 1_555
C28 C27 1_555 1_555
H21 C28 1_555 1_555
C29 C28 1_555 1_555
H22 C29 1_555 1_555
C30 O2 1_555 1_555
C31 C30 1_555 1_555
H23 C31 1_555 1_555
C32 C27 1_555 1_555
H24 C32 1_555 1_555
C33 C8 1_555 1_555
C34 C33 1_555 1_555
H25 C34 1_555 1_555
H26 C34 1_555 1_555
H27 C34 1_555 1_555
C35 C33 1_555 1_555
H28 C35 1_555 1_555
H29 C35 1_555 1_555
H30 C35 1_555 1_555
C36 C33 1_555 1_555
C37 C36 1_555 1_555
H31 C37 1_555 1_555
C38 C37 1_555 1_555
H32 C38 1_555 1_555
C39 O3 1_555 1_555
C40 C39 1_555 1_555
H33 C40 1_555 1_555
C41 C36 1_555 1_555
H34 C41 1_555 1_555
C42 C10 1_555 1_555
C43 C42 1_555 1_555
H35 C43 1_555 1_555
H36 C43 1_555 1_555
H37 C43 1_555 1_555
C44 C42 1_555 1_555
H38 C44 1_555 1_555
H39 C44 1_555 1_555
H40 C44 1_555 1_555
C45 C42 1_555 1_555
C46 C45 1_555 1_555
H41 C46 1_555 1_555
C47 C46 1_555 1_555
H42 C47 1_555 1_555
C48 O4 1_555 1_555
C49 C48 1_555 1_555
H43 C49 1_555 1_555
C50 C45 1_555 1_555
H44 C50 1_555 1_555
H45 C54 1_555 1_555
H46 C54 1_555 1_555
H47 C54 1_555 1_555
C51 H48 1_555 1_555
H49 C51 1_555 1_555
C52 C51 1_555 1_555
H50 C52 1_555 1_555
H51 C52 1_555 1_555
C53 C52 1_555 1_555
H52 C53 1_555 1_555
C54 C51 1_555 1_555
C55 H53 1_555 1_555
H54 C55 1_555 1_555
H55 C55 1_555 1_555
C56 C55 1_555 1_555
H56 C56 1_555 1_555
H57 C56 1_555 1_555
C57 C56 1_555 1_555
H58 C57 1_555 1_555
H59 C57 1_555 1_555
C58 C57 1_555 1_555
H60 C58 1_555 1_555
O1A H1A 1_555 1_555
O2A H2A 1_555 1_555
O3A H3A 1_555 1_555
O4A H4A 1_555 1_555
C1A C2A 1_555 1_555
C2A C3A 1_555 1_555
C3A C4A 1_555 1_555
C4A C5A 1_555 1_555
C5A C6A 1_555 1_555
C6A C7A 1_555 1_555
C7A C8A 1_555 1_555
C8A C9A 1_555 1_555
C9A C10A 1_555 1_555
C10A C11A 1_555 1_555
C11A C12A 1_555 1_555
C12A C13A 1_555 1_555
C13A C14A 1_555 1_555
C14A C1 1_555 1_555
C15A C1A 1_555 1_555
C16A C15A 1_555 1_555
H5A C16A 1_555 1_555
H6A C16A 1_555 1_555
H7A C16A 1_555 1_555
C17A C15A 1_555 1_555
H8A C17A 1_555 1_555
H9A C17A 1_555 1_555
H10A C17A 1_555 1_555
C18A C15A 1_555 1_555
C19A C18A 1_555 1_555
H11A C19A 1_555 1_555
C20A C19A 1_555 1_555
H12A C20A 1_555 1_555
C21A O1A 1_555 1_555
C22A C21A 1_555 1_555
H13A C22A 1_555 1_555
C23A C18A 1_555 1_555
H14A C23A 1_555 1_555
C24A C3A 1_555 1_555
C25A C24A 1_555 1_555
H15A C25A 1_555 1_555
H16A C25A 1_555 1_555
H17A C25A 1_555 1_555
C26A C24A 1_555 1_555
H18A C26A 1_555 1_555
H19A C26A 1_555 1_555
H20A C26A 1_555 1_555
C27A C24A 1_555 1_555
C28A C27A 1_555 1_555
H21A C28A 1_555 1_555
C29A C28A 1_555 1_555
H22A C29A 1_555 1_555
C30A O2A 1_555 1_555
C31A C30A 1_555 1_555
H23A C31A 1_555 1_555
C32A C27A 1_555 1_555
H24A C32A 1_555 1_555
C33A C8A 1_555 1_555
C34A C33A 1_555 1_555
H25A C34A 1_555 1_555
H26A C34A 1_555 1_555
H27A C34A 1_555 1_555
C35A C33A 1_555 1_555
H28A C35A 1_555 1_555
H29A C35A 1_555 1_555
H30A C35A 1_555 1_555
C36A C33A 1_555 1_555
C37A C36A 1_555 1_555
H31A C37A 1_555 1_555
C38A C37A 1_555 1_555
H32A C38A 1_555 1_555
C39A O3A 1_555 1_555
C40A C39A 1_555 1_555
H33A C40A 1_555 1_555
C41A C36A 1_555 1_555
H34A C41A 1_555 1_555
C42A C10A 1_555 1_555
C43A C42A 1_555 1_555
H35A C43A 1_555 1_555
H36A C43A 1_555 1_555
H37A C43A 1_555 1_555
C44A C42A 1_555 1_555
H38A C44A 1_555 1_555
H39A C44A 1_555 1_555
H40A C44A 1_555 1_555
C45A C42A 1_555 1_555
C46A C45A 1_555 1_555
H41A C46A 1_555 1_555
C47A C46A 1_555 1_555
H42A C47A 1_555 1_555
C48A O4A 1_555 1_555
C49A C48A 1_555 1_555
H43A C49A 1_555 1_555
C50A C45A 1_555 1_555
H44A C50A 1_555 1_555
H45A C54A 1_555 1_555
H46A C54A 1_555 1_555
H47A C54A 1_555 1_555
C51A H48A 1_555 1_555
H49A C51A 1_555 1_555
C52A C53 1_555 1_555
H50A C52A 1_555 1_555
H51A C52A 1_555 1_555
H52A C53 1_555 1_555
C54A C51A 1_555 1_555
C55A H53A 1_555 1_555
H54A C55A 1_555 1_555
H55A C55A 1_555 1_555
C56A C55A 1_555 1_555
H56A C56A 1_555 1_555
H57A C56A 1_555 1_555
C57A C58 1_555 1_555
H58A C57A 1_555 1_555
H59A C57A 1_555 1_555
H60A C58 1_555 1_555
C20 C21 1_555 1_555
C22 C23 1_555 1_555
C29 C30 1_555 1_555
C31 C32 1_555 1_555
C38 C39 1_555 1_555
C40 C41 1_555 1_555
C47 C48 1_555 1_555
C49 C50 1_555 1_555
C20A C21A 1_555 1_555
C22A C23A 1_555 1_555
C29A C30A 1_555 1_555
C31A C32A 1_555 1_555
C38A C39A 1_555 1_555
C40A C41A 1_555 1_555
C47A C48A 1_555 1_555
C49A C50A 1_555 1_555
C51A C52A 1_555 1_555
C56A C57A 1_555 1_555

#END
