
#######################################################################
#
#                 Cambridge Crystallographic Data Centre
#                                CCDC 
#
#######################################################################
#
# If this CIF has been generated from an entry in the Cambridge 
# Structural Database, then it will include bibliographic, chemical, 
# crystal, experimental, refinement or atomic coordinate data resulting 
# from the CCDC's data processing and validation procedures.
#
#######################################################################

data_PIKDOC03
_chemical_formula_moiety         'C8 H20 N1 1+,Cl1 O4 1-'
_chemical_name_systematic        'tetraethylammonium perchlorate'
_symmetry_cell_setting           monoclinic
_symmetry_space_group_name_H-M   'C c'
_symmetry_Int_Tables_number      9
_space_group_name_Hall           'C -2yc'
loop_
_symmetry_equiv_pos_site_id
_symmetry_equiv_pos_as_xyz
1 x,y,z
2 x,-y,1/2+z
3 1/2+x,1/2+y,z
4 1/2+x,1/2-y,1/2+z
_cell_length_a                   12.518(8)
_cell_length_b                   7.417(4)
_cell_length_c                   13.997(9)
_cell_angle_alpha                90
_cell_angle_beta                 115.009(10)
_cell_angle_gamma                90
_cell_volume                     1177.72
_exptl_crystal_colour            colorless
_exptl_crystal_description       Prism
_cell_formula_units_Z            4
loop_
_atom_site_label
_atom_site_type_symbol
_atom_site_fract_x
_atom_site_fract_y
_atom_site_fract_z
Cl1 Cl 0.00000(9) -0.87269(12) 0.00000(9)
O1 O 0.0104(4) -0.9903(6) 0.0835(3)
O2 O 0.0409(5) -0.9575(8) -0.0675(4)
O3 O -0.1173(5) -0.8303(13) -0.0585(6)
O4 O 0.0623(9) -0.7188(9) 0.0373(5)
N1 N -0.6300(3) -0.8795(5) -0.2512(2)
C1 C -0.5061(4) -0.8777(6) -0.1633(3)
H1 H -0.5033 -0.7887 -0.1096
H2 H -0.4894 -0.9977 -0.1292
C2 C -0.6403(4) -1.0069(6) -0.3393(4)
H3 H -0.5932 -0.9575 -0.3750
H4 H -0.7237 -1.0095 -0.3918
C3 C -0.7134(4) -0.9422(7) -0.2056(3)
H5 H -0.7933 -0.9529 -0.2636
H6 H -0.6888 -1.0640 -0.1753
C4 C -0.6598(4) -0.6907(6) -0.2959(3)
H7 H -0.6464 -0.6061 -0.2373
H8 H -0.6046 -0.6574 -0.3270
C5 C -0.4097(5) -0.8326(9) -0.1977(5)
H9 H -0.3331 -0.8344 -0.1363
H10 H -0.4098 -0.9218 -0.2494
H11 H -0.4237 -0.7123 -0.2297
C6 C -0.6006(7) -1.1991(8) -0.3059(6)
H12 H -0.6105 -1.2707 -0.3680
H13 H -0.5173 -1.1993 -0.2557
H14 H -0.6482 -1.2515 -0.2725
C7 C -0.7201(6) -0.8215(10) -0.1215(5)
H15 H -0.7760 -0.8723 -0.0966
H16 H -0.6419 -0.8126 -0.0625
H17 H -0.7466 -0.7012 -0.1509
C8 C -0.7841(5) -0.6661(9) -0.3787(5)
H18 H -0.7955 -0.5407 -0.4031
H19 H -0.7979 -0.7465 -0.4383
H20 H -0.8398 -0.6951 -0.3484
loop_
_geom_bond_atom_site_label_1
_geom_bond_atom_site_label_2
_geom_bond_site_symmetry_1
_geom_bond_site_symmetry_2
Cl1 O1 1_555 1_555
O2 Cl1 1_555 1_555
O3 Cl1 1_555 1_555
O4 Cl1 1_555 1_555
N1 C1 1_555 1_555
C1 H1 1_555 1_555
H2 C1 1_555 1_555
C2 N1 1_555 1_555
H3 C2 1_555 1_555
H4 C2 1_555 1_555
C3 N1 1_555 1_555
H5 C3 1_555 1_555
H6 C3 1_555 1_555
C4 N1 1_555 1_555
H7 C4 1_555 1_555
H8 C4 1_555 1_555
C5 C1 1_555 1_555
H9 C5 1_555 1_555
H10 C5 1_555 1_555
H11 C5 1_555 1_555
C6 C2 1_555 1_555
H12 C6 1_555 1_555
H13 C6 1_555 1_555
H14 C6 1_555 1_555
C7 C3 1_555 1_555
H15 C7 1_555 1_555
H16 C7 1_555 1_555
H17 C7 1_555 1_555
C8 C4 1_555 1_555
H18 C8 1_555 1_555
H19 C8 1_555 1_555
H20 C8 1_555 1_555

#END
