
#######################################################################
#
#                 Cambridge Crystallographic Data Centre
#                                CCDC 
#
#######################################################################
#
# If this CIF has been generated from an entry in the Cambridge 
# Structural Database, then it will include bibliographic, chemical, 
# crystal, experimental, refinement or atomic coordinate data resulting 
# from the CCDC's data processing and validation procedures.
#
#######################################################################

data_PIKDIW
_chemical_formula_moiety         'C18 H18 N2 O3 S1'
_chemical_name_systematic        
4-Methyl-N-(2-methyl-6-methoxy-8-quinolyl)benzenesulfonamide
_symmetry_cell_setting           triclinic
_symmetry_space_group_name_H-M   'P -1'
_symmetry_Int_Tables_number      2
_space_group_name_Hall           '-P 1'
loop_
_symmetry_equiv_pos_site_id
_symmetry_equiv_pos_as_xyz
1 x,y,z
2 -x,-y,-z
_cell_length_a                   9.868(1)
_cell_length_b                   10.917(1)
_cell_length_c                   7.986(1)
_cell_angle_alpha                99.83(1)
_cell_angle_beta                 99.67(1)
_cell_angle_gamma                102.73(1)
_cell_volume                     807.716
_chemical_melting_point          '455-457 K'
_cell_formula_units_Z            2
loop_
_atom_site_label
_atom_site_type_symbol
_atom_site_fract_x
_atom_site_fract_y
_atom_site_fract_z
S1 S 0.42476(9) 0.70510(8) 0.3836(1)
O1 O 0.0114(2) 0.8695(2) 0.6102(3)
O2 O 0.3980(2) 0.8127(2) 0.3197(3)
O3 O 0.5089(2) 0.6323(2) 0.3035(3)
N1 N 0.0445(3) 0.4323(2) 0.1894(3)
N2 N 0.2782(3) 0.6008(3) 0.3744(4)
C1 C -0.0694(4) 0.3466(3) 0.0942(4)
C2 C -0.0483(5) 0.2298(4) -0.0124(6)
C3 C -0.2053(4) 0.3637(4) 0.0931(5)
C4 C -0.2237(4) 0.4690(4) 0.1903(5)
C5 C -0.1056(3) 0.5619(3) 0.2963(4)
C6 C -0.1148(4) 0.6729(3) 0.4041(5)
C7 C 0.0046(3) 0.7582(3) 0.5008(4)
C8 C -0.1184(5) 0.8985(5) 0.6292(7)
C9 C 0.1382(4) 0.7368(3) 0.4919(5)
C10 C 0.1495(3) 0.6307(3) 0.3888(4)
C11 C 0.0260(3) 0.5381(3) 0.2881(4)
C12 C 0.5018(3) 0.7589(3) 0.6049(4)
C13 C 0.5403(4) 0.6740(3) 0.6987(5)
C14 C 0.6045(4) 0.7170(4) 0.8692(5)
C15 C 0.6354(3) 0.8441(3) 0.9493(5)
C16 C 0.7083(5) 0.8910(5) 1.1365(6)
C17 C 0.5966(4) 0.9267(3) 0.8523(5)
C18 C 0.5300(4) 0.8857(3) 0.6818(5)
H1 H -0.113(5) 0.203(5) -0.104(6)
H2 H 0.042(5) 0.233(4) -0.031(6)
H3 H -0.055(5) 0.159(5) 0.052(7)
H4 H -0.291(3) 0.300(3) 0.011(4)
H5 H -0.314(3) 0.485(3) 0.191(4)
H6 H -0.200(3) 0.686(3) 0.409(4)
H7 H -0.094(4) 0.978(3) 0.717(5)
H8 H -0.162(4) 0.908(4) 0.531(5)
H9 H -0.180(5) 0.824(4) 0.674(6)
H10 H 0.217(3) 0.796(3) 0.555(4)
H11 H 0.277(4) 0.537(3) 0.313(5)
H12 H 0.520(3) 0.580(3) 0.642(4)
H13 H 0.637(3) 0.669(3) 0.942(4)
H14 H 0.786(5) 0.961(5) 1.153(7)
H15 H 0.656(6) 0.922(6) 1.200(8)
H16 H 0.736(5) 0.831(5) 1.171(7)
H17 H 0.615(4) 1.010(3) 0.909(5)
H18 H 0.505(3) 0.941(3) 0.610(4)
loop_
_geom_bond_atom_site_label_1
_geom_bond_atom_site_label_2
_geom_bond_site_symmetry_1
_geom_bond_site_symmetry_2
S1 O2 1_555 1_555
O1 C7 1_555 1_555
O3 S1 1_555 1_555
N1 C1 1_555 1_555
N2 S1 1_555 1_555
C1 C2 1_555 1_555
C2 H1 1_555 1_555
C3 C1 1_555 1_555
C4 C3 1_555 1_555
C5 C4 1_555 1_555
C6 C5 1_555 1_555
C7 C6 1_555 1_555
C8 O1 1_555 1_555
C9 C7 1_555 1_555
C10 N2 1_555 1_555
C11 N1 1_555 1_555
C12 S1 1_555 1_555
C13 C12 1_555 1_555
C14 C13 1_555 1_555
C15 C14 1_555 1_555
C16 C15 1_555 1_555
C17 C15 1_555 1_555
C18 C12 1_555 1_555
H2 C2 1_555 1_555
H3 C2 1_555 1_555
H4 C3 1_555 1_555
H5 C4 1_555 1_555
H6 C6 1_555 1_555
H7 C8 1_555 1_555
H8 C8 1_555 1_555
H9 C8 1_555 1_555
H10 C9 1_555 1_555
H11 N2 1_555 1_555
H12 C13 1_555 1_555
H13 C14 1_555 1_555
H14 C16 1_555 1_555
H15 C16 1_555 1_555
H16 C16 1_555 1_555
H17 C17 1_555 1_555
H18 C18 1_555 1_555
C5 C11 1_555 1_555
C9 C10 1_555 1_555
C10 C11 1_555 1_555
C17 C18 1_555 1_555

#END
