
#######################################################################
#
#                 Cambridge Crystallographic Data Centre
#                                CCDC 
#
#######################################################################
#
# If this CIF has been generated from an entry in the Cambridge 
# Structural Database, then it will include bibliographic, chemical, 
# crystal, experimental, refinement or atomic coordinate data resulting 
# from the CCDC's data processing and validation procedures.
#
#######################################################################

data_PIKMIG
_chemical_formula_moiety         'C44 H44 Cl4 N10'
_chemical_name_systematic        
(E)-3-(4-Chlorophenyl)-N'-((Z,2E)-3-(4-chlorophenyl)-3-(5-(4-chlorophenyl)-3-dimethylamino-1H-pyrazol-1-yl)-1-(dimethylamino)-2-propenylidene)-3-(5-(4-chlorophenyl)-3-dimethylamino-1H-pyrazol-1-yl)-N,N-dimethyl-2-propenylhydrazonamide
_symmetry_cell_setting           triclinic
_symmetry_space_group_name_H-M   'P -1'
_symmetry_Int_Tables_number      2
_space_group_name_Hall           '-P 1'
loop_
_symmetry_equiv_pos_site_id
_symmetry_equiv_pos_as_xyz
1 x,y,z
2 -x,-y,-z
_cell_length_a                   10.1628(6)
_cell_length_b                   10.2509(6)
_cell_length_c                   12.0489(9)
_cell_angle_alpha                73.108(6)
_cell_angle_beta                 73.238(6)
_cell_angle_gamma                75.134(6)
_cell_volume                     1129.41
_exptl_crystal_colour            orange
_exptl_crystal_description       block
_chemical_melting_point          234deg.C(dec.)
_cell_formula_units_Z            1
loop_
_atom_site_label
_atom_site_type_symbol
_atom_site_fract_x
_atom_site_fract_y
_atom_site_fract_z
Cl1 Cl 0.45793(10) 0.67147(12) 0.89026(8)
N1 N -0.0723(2) 1.0242(2) 1.5055(2)
C1 C -0.1919(3) 0.7141(3) 1.4308(3)
Cl2 Cl 0.01496(16) 0.66873(14) 1.86027(10)
N2 N -0.2575(3) 1.0361(3) 1.4284(3)
C2 C -0.3036(4) 0.6672(4) 1.4238(3)
H1 H -0.3663 0.6220 1.4868
C3 C -0.3038(4) 0.7018(4) 1.3015(3)
N3 N -0.3939(4) 0.6761(6) 1.2469(4)
N4 N -0.1995(3) 0.7671(3) 1.2352(3)
C4 C -0.0232(3) 0.8535(3) 1.2717(2)
C5 C -0.0173(3) 0.9518(3) 1.3213(2)
H2 H 0.0613 0.9927 1.2873
N5 N -0.1318(3) 0.7743(3) 1.3168(2)
C6 C -0.1151(3) 1.0058(3) 1.4210(3)
C7 C -0.3076(5) 1.0881(5) 1.3202(4)
H3 H -0.4080 1.1040 1.3398
H4 H -0.2715 1.0213 1.2720
H5 H -0.2767 1.1737 1.2769
C8 C -0.3438(4) 1.0938(5) 1.5286(4)
H6 H -0.4404 1.1113 1.5261
H7 H -0.3177 1.1791 1.5241
H8 H -0.3302 1.0289 1.6018
C9 C -0.3594(7) 0.7022(8) 1.1197(5)
H9 H -0.4318 0.6829 1.0938
H10 H -0.2722 0.6435 1.0937
H11 H -0.3510 0.7977 1.0862
C10 C -0.4969(6) 0.6000(7) 1.3130(5)
H12 H -0.5510 0.5941 1.2618
H13 H -0.5570 0.6449 1.3742
H14 H -0.4543 0.5083 1.3489
C11 C -0.1391(3) 0.7000(3) 1.5353(3)
C12 C 0.0024(3) 0.6580(3) 1.5350(3)
H15 H 0.0661 0.6371 1.4667
C13 C 0.0502(4) 0.6469(3) 1.6351(3)
H16 H 0.1450 0.6181 1.6338
C14 C -0.0430(4) 0.6786(4) 1.7355(3)
C15 C -0.1853(4) 0.7195(4) 1.7388(3)
H17 H -0.2483 0.7406 1.8072
C16 C -0.2322(4) 0.7286(3) 1.6397(3)
H18 H -0.3275 0.7543 1.6424
C17 C 0.0876(3) 0.8114(3) 1.1713(2)
C18 C 0.1276(4) 0.6733(4) 1.1641(3)
H19 H 0.0781 0.6080 1.2193
C19 C 0.2393(4) 0.6309(4) 1.0770(3)
H20 H 0.2641 0.5382 1.0730
C20 C 0.3131(3) 0.7267(4) 0.9965(3)
C21 C 0.2744(4) 0.8637(4) 0.9981(3)
H21 H 0.3234 0.9283 0.9411
C22 C 0.1610(4) 0.9065(4) 1.0855(3)
H22 H 0.1341 1.0001 1.0862
Cl1A Cl -0.45793(10) 1.32853(12) 2.10974(8)
N1A N 0.0723(2) 0.9758(2) 1.4945(2)
C1A C 0.1919(3) 1.2859(3) 1.5692(3)
Cl2A Cl -0.01496(16) 1.33127(14) 1.13973(10)
N2A N 0.2575(3) 0.9639(3) 1.5716(3)
C2A C 0.3036(4) 1.3328(4) 1.5762(3)
H1A H 0.3663 1.3780 1.5132
C3A C 0.3038(4) 1.2982(4) 1.6985(3)
N3A N 0.3939(4) 1.3239(6) 1.7531(4)
N4A N 0.1995(3) 1.2329(3) 1.7648(3)
C4A C 0.0232(3) 1.1465(3) 1.7283(2)
C5A C 0.0173(3) 1.0482(3) 1.6787(2)
H2A H -0.0613 1.0073 1.7127
N5A N 0.1318(3) 1.2257(3) 1.6832(2)
C6A C 0.1151(3) 0.9942(3) 1.5790(3)
C7A C 0.3076(5) 0.9119(5) 1.6798(4)
H3A H 0.4080 0.8960 1.6602
H4A H 0.2715 0.9787 1.7280
H5A H 0.2767 0.8263 1.7231
C8A C 0.3438(4) 0.9062(5) 1.4714(4)
H6A H 0.4404 0.8887 1.4739
H7A H 0.3177 0.8209 1.4759
H8A H 0.3302 0.9711 1.3982
C9A C 0.3594(7) 1.2978(8) 1.8803(5)
H9A H 0.4318 1.3171 1.9062
H10A H 0.2722 1.3565 1.9063
H11A H 0.3510 1.2023 1.9138
C10A C 0.4969(6) 1.4000(7) 1.6870(5)
H12A H 0.5510 1.4059 1.7382
H13A H 0.5570 1.3551 1.6258
H14A H 0.4543 1.4917 1.6511
C11A C 0.1391(3) 1.3000(3) 1.4647(3)
C12A C -0.0024(3) 1.3420(3) 1.4650(3)
H15A H -0.0661 1.3629 1.5333
C13A C -0.0502(4) 1.3531(3) 1.3649(3)
H16A H -0.1450 1.3819 1.3662
C14A C 0.0430(4) 1.3214(4) 1.2645(3)
C15A C 0.1853(4) 1.2805(4) 1.2612(3)
H17A H 0.2483 1.2594 1.1928
C16A C 0.2322(4) 1.2714(3) 1.3603(3)
H18A H 0.3275 1.2457 1.3576
C17A C -0.0876(3) 1.1886(3) 1.8287(2)
C18A C -0.1276(4) 1.3267(4) 1.8359(3)
H19A H -0.0781 1.3920 1.7807
C19A C -0.2393(4) 1.3691(4) 1.9230(3)
H20A H -0.2641 1.4618 1.9270
C20A C -0.3131(3) 1.2733(4) 2.0035(3)
C21A C -0.2744(4) 1.1363(4) 2.0019(3)
H21A H -0.3234 1.0717 2.0589
C22A C -0.1610(4) 1.0935(4) 1.9145(3)
H22A H -0.1341 0.9999 1.9138
loop_
_geom_bond_atom_site_label_1
_geom_bond_atom_site_label_2
_geom_bond_site_symmetry_1
_geom_bond_site_symmetry_2
Cl1 C20 1_555 1_555
N1 C6 1_555 1_555
C1 C2 1_555 1_555
Cl2 C14 1_555 1_555
N2 C6 1_555 1_555
C2 H1 1_555 1_555
C3 C2 1_555 1_555
N3 C3 1_555 1_555
N4 C3 1_555 1_555
C4 C5 1_555 1_555
C5 H2 1_555 1_555
N5 C1 1_555 1_555
C6 C5 1_555 1_555
C7 N2 1_555 1_555
H3 C7 1_555 1_555
H4 C7 1_555 1_555
H5 C7 1_555 1_555
C8 N2 1_555 1_555
H6 C8 1_555 1_555
H7 C8 1_555 1_555
H8 C8 1_555 1_555
C9 N3 1_555 1_555
H9 C9 1_555 1_555
H10 C9 1_555 1_555
H11 C9 1_555 1_555
C10 N3 1_555 1_555
H12 C10 1_555 1_555
H13 C10 1_555 1_555
H14 C10 1_555 1_555
C11 C1 1_555 1_555
C12 C11 1_555 1_555
H15 C12 1_555 1_555
C13 C12 1_555 1_555
H16 C13 1_555 1_555
C14 C13 1_555 1_555
C15 C14 1_555 1_555
H17 C15 1_555 1_555
C16 C11 1_555 1_555
H18 C16 1_555 1_555
C17 C4 1_555 1_555
C18 C17 1_555 1_555
H19 C18 1_555 1_555
C19 C18 1_555 1_555
H20 C19 1_555 1_555
C20 C19 1_555 1_555
C21 C20 1_555 1_555
H21 C21 1_555 1_555
C22 C17 1_555 1_555
H22 C22 1_555 1_555
Cl1A C20A 1_555 1_555
N1A N1 1_555 1_555
C1A C2A 1_555 1_555
Cl2A C14A 1_555 1_555
N2A C6A 1_555 1_555
C2A H1A 1_555 1_555
C3A C2A 1_555 1_555
N3A C3A 1_555 1_555
N4A C3A 1_555 1_555
C4A C5A 1_555 1_555
C5A H2A 1_555 1_555
N5A C1A 1_555 1_555
C6A N1A 1_555 1_555
C7A N2A 1_555 1_555
H3A C7A 1_555 1_555
H4A C7A 1_555 1_555
H5A C7A 1_555 1_555
C8A N2A 1_555 1_555
H6A C8A 1_555 1_555
H7A C8A 1_555 1_555
H8A C8A 1_555 1_555
C9A N3A 1_555 1_555
H9A C9A 1_555 1_555
H10A C9A 1_555 1_555
H11A C9A 1_555 1_555
C10A N3A 1_555 1_555
H12A C10A 1_555 1_555
H13A C10A 1_555 1_555
H14A C10A 1_555 1_555
C11A C1A 1_555 1_555
C12A C11A 1_555 1_555
H15A C12A 1_555 1_555
C13A C12A 1_555 1_555
H16A C13A 1_555 1_555
C14A C13A 1_555 1_555
C15A C14A 1_555 1_555
H17A C15A 1_555 1_555
C16A C11A 1_555 1_555
H18A C16A 1_555 1_555
C17A C4A 1_555 1_555
C18A C17A 1_555 1_555
H19A C18A 1_555 1_555
C19A C18A 1_555 1_555
H20A C19A 1_555 1_555
C20A C19A 1_555 1_555
C21A C20A 1_555 1_555
H21A C21A 1_555 1_555
C22A C17A 1_555 1_555
H22A C22A 1_555 1_555
N4 N5 1_555 1_555
C4 N5 1_555 1_555
C15 C16 1_555 1_555
C21 C22 1_555 1_555
N4A N5A 1_555 1_555
C4A N5A 1_555 1_555
C5A C6A 1_555 1_555
C15A C16A 1_555 1_555
C21A C22A 1_555 1_555

#END
