
#######################################################################
#
#                 Cambridge Crystallographic Data Centre
#                                CCDC 
#
#######################################################################
#
# If this CIF has been generated from an entry in the Cambridge 
# Structural Database, then it will include bibliographic, chemical, 
# crystal, experimental, refinement or atomic coordinate data resulting 
# from the CCDC's data processing and validation procedures.
#
#######################################################################

data_PIKQEH
_chemical_formula_moiety         'C20 H32 B2 N8 2+,2(Br1 1-),4(H2 O1)'
_chemical_name_systematic        
"B,B'-bis(1,2'-ethanebis(imidazole))bis(dimethylborate) dibromide tetrahydrate"
_symmetry_cell_setting           hexagonal
_symmetry_space_group_name_H-M   'P 65 2 2'
_symmetry_Int_Tables_number      179
_space_group_name_Hall           "P 65 2' (0,0,1)"
loop_
_symmetry_equiv_pos_site_id
_symmetry_equiv_pos_as_xyz
1 x,y,z
2 -y,x-y,2/3+z
3 -x+y,-x,1/3+z
4 -x,-y,1/2+z
5 y,-x+y,1/6+z
6 x-y,x,5/6+z
7 y,x,2/3-z
8 x-y,-y,-z
9 -x,-x+y,1/3-z
10 -y,-x,1/6-z
11 -x+y,y,1/2-z
12 x,x-y,5/6-z
_cell_length_a                   13.4806(4)
_cell_length_b                   13.4806(4)
_cell_length_c                   29.3772(9)
_cell_angle_alpha                90
_cell_angle_beta                 90
_cell_angle_gamma                120
_cell_volume                     4623.38
_exptl_crystal_colour            colorless
_exptl_crystal_description       rod
_cell_formula_units_Z            6
loop_
_atom_site_label
_atom_site_type_symbol
_atom_site_fract_x
_atom_site_fract_y
_atom_site_fract_z
B1 B 0.7895(8) 0.7494(9) 0.1020(3)
N1 N 0.7313(5) 0.6571(6) 0.0607(2)
N2 N 0.6590(6) 0.5822(6) -0.0046(2)
N3 N 0.4188(6) 0.4121(6) -0.0276(2)
C1 C 0.6741(7) 0.5029(7) 0.0185(3)
H1 H 0.6570 0.4296 0.0078
C2 C 0.6958(7) 0.6765(7) 0.0223(3)
H2 H 0.6956 0.7447 0.0144
C3 C 0.7180(7) 0.5491(7) 0.0594(3)
H3 H 0.7366 0.5133 0.0831
N4 N 0.3261(6) 0.2778(6) 0.0193(2)
C4 C 0.3554(8) 0.2322(7) -0.0161(3)
H4 H 0.3376 0.1548 -0.0187
C5 C 0.3661(7) 0.3856(7) 0.0117(2)
H5 H 0.3586 0.4373 0.0314
C6 C 0.4125(9) 0.3141(8) -0.0459(3)
H6 H 0.4432 0.3076 -0.0741
C7 C 0.6094(8) 0.5712(7) -0.0500(3)
H7 H 0.6232 0.5178 -0.0684
H8 H 0.6481 0.6468 -0.0653
C8 C 0.4809(8) 0.5273(7) -0.0479(3)
H9 H 0.4668 0.5807 -0.0296
H10 H 0.4516 0.5248 -0.0791
C9 C 0.7643(9) 0.8554(7) 0.0931(3)
H11 H 0.7919 0.9079 0.1192
H12 H 0.6817 0.8246 0.0894
H13 H 0.8042 0.8969 0.0655
C10 C 0.9272(7) 0.7904(9) 0.1022(3)
H14 H 0.9670 0.8523 0.1244
H15 H 0.9592 0.8179 0.0718
H16 H 0.9370 0.7254 0.1105
B1I B 0.2506(9) 0.2105(8) 0.0647(3)
N1I N 0.3429(6) 0.2687(5) 0.1060(2)
N2I N 0.4178(6) 0.3410(6) 0.1713(2)
N3I N 0.5879(6) 0.5812(6) 0.1943(2)
C1I C 0.4971(7) 0.3259(7) 0.1482(3)
H1I H 0.5704 0.3430 0.1589
C2I C 0.3235(7) 0.3042(7) 0.1444(3)
H2I H 0.2553 0.3044 0.1523
C3I C 0.4509(7) 0.2820(7) 0.1073(3)
H3I H 0.4867 0.2634 0.0836
N4I N 0.7222(6) 0.6739(6) 0.1474(2)
C4I C 0.7678(7) 0.6446(8) 0.1828(3)
H4I H 0.8452 0.6624 0.1854
C5I C 0.6144(7) 0.6339(7) 0.1550(2)
H5I H 0.5627 0.6414 0.1353
C6I C 0.6859(8) 0.5875(9) 0.2126(3)
H6I H 0.6924 0.5568 0.2408
C7I C 0.4288(7) 0.3906(8) 0.2167(3)
H7I H 0.4822 0.3768 0.2351
H8I H 0.3532 0.3519 0.2320
C8I C 0.4727(7) 0.5191(8) 0.2146(3)
H9I H 0.4193 0.5332 0.1963
H10I H 0.4752 0.5484 0.2458
C9I C 0.1446(7) 0.2357(9) 0.0736(3)
H11I H 0.0921 0.2081 0.0475
H12I H 0.1754 0.3183 0.0773
H13I H 0.1031 0.1958 0.1012
C10I C 0.2096(9) 0.0728(7) 0.0645(3)
H14I H 0.1477 0.0330 0.0423
H15I H 0.1821 0.0408 0.0949
H16I H 0.2746 0.0630 0.0562
Br1 Br 0.37938(6) 0.62062(6) 0.0833
O1 O 0.6573(8) 0.2307(7) 0.0042(4)
H17 H 0.658(15) 0.265(13) 0.031(3)
H18 H 0.691(12) 0.186(11) 0.006(5)
O2 O 0.7979(9) 0.1316(13) 0.0353(5)
H19 H 0.837(9) 0.209(3) 0.041(2)
H20 H 0.796(3) 0.112(3) 0.0052(10)
Br2 Br 0.43317(13) 1.0000 0.0000
loop_
_geom_bond_atom_site_label_1
_geom_bond_atom_site_label_2
_geom_bond_site_symmetry_1
_geom_bond_site_symmetry_2
B1 N1 1_555 1_555
N1 C2 1_555 1_555
N2 C1 1_555 1_555
N3 C5 1_555 1_555
C1 H1 1_555 1_555
C2 N2 1_555 1_555
H2 C2 1_555 1_555
C3 N1 1_555 1_555
H3 C3 1_555 1_555
N4 C4 1_555 1_555
C4 H4 1_555 1_555
C5 N4 1_555 1_555
H5 C5 1_555 1_555
C6 N3 1_555 1_555
H6 C6 1_555 1_555
C7 N2 1_555 1_555
H7 C7 1_555 1_555
H8 C7 1_555 1_555
C8 N3 1_555 1_555
H9 C8 1_555 1_555
H10 C8 1_555 1_555
C9 B1 1_555 1_555
H11 C9 1_555 1_555
H12 C9 1_555 1_555
H13 C9 1_555 1_555
C10 B1 1_555 1_555
H14 C10 1_555 1_555
H15 C10 1_555 1_555
H16 C10 1_555 1_555
O1 H17 1_555 1_555
H18 O1 1_555 1_555
O2 H19 1_555 1_555
H20 O2 1_555 1_555
B1I N4 1_555 1_555
N1I B1I 1_555 1_555
N2I C1I 1_555 1_555
N3I C5I 1_555 1_555
C1I H1I 1_555 1_555
C2I N1I 1_555 1_555
H2I C2I 1_555 1_555
C3I N1I 1_555 1_555
H3I C3I 1_555 1_555
N4I B1 1_555 1_555
C4I N4I 1_555 1_555
H4I C4I 1_555 1_555
C5I N4I 1_555 1_555
H5I C5I 1_555 1_555
C6I N3I 1_555 1_555
H6I C6I 1_555 1_555
C7I N2I 1_555 1_555
H7I C7I 1_555 1_555
H8I C7I 1_555 1_555
C8I N3I 1_555 1_555
H9I C8I 1_555 1_555
H10I C8I 1_555 1_555
C9I B1I 1_555 1_555
H11I C9I 1_555 1_555
H12I C9I 1_555 1_555
H13I C9I 1_555 1_555
C10I B1I 1_555 1_555
H14I C10I 1_555 1_555
H15I C10I 1_555 1_555
H16I C10I 1_555 1_555
C1 C3 1_555 1_555
C4 C6 1_555 1_555
C7 C8 1_555 1_555
N2I C2I 1_555 1_555
C1I C3I 1_555 1_555
C4I C6I 1_555 1_555
C7I C8I 1_555 1_555

#END
