
#######################################################################
#
#                 Cambridge Crystallographic Data Centre
#                                CCDC 
#
#######################################################################
#
# If this CIF has been generated from an entry in the Cambridge 
# Structural Database, then it will include bibliographic, chemical, 
# crystal, experimental, refinement or atomic coordinate data resulting 
# from the CCDC's data processing and validation procedures.
#
#######################################################################

data_PIKQEI
_chemical_name_common            10-bromine-7-hexyl-7-monoaza[6]helicene
_chemical_formula_moiety         'C30 H26 Br1 N1'
_chemical_name_systematic        
10-bromo-7-hexyl-7H-phenanthro[3,4-c]carbazole
_symmetry_cell_setting           monoclinic
_symmetry_space_group_name_H-M   'P 21/c'
_symmetry_Int_Tables_number      14
_space_group_name_Hall           '-P 2ybc'
loop_
_symmetry_equiv_pos_site_id
_symmetry_equiv_pos_as_xyz
1 x,y,z
2 -x,1/2+y,1/2-z
3 -x,-y,-z
4 x,1/2-y,1/2+z
_cell_length_a                   4.8790(14)
_cell_length_b                   16.015(5)
_cell_length_c                   29.901(9)
_cell_angle_alpha                90
_cell_angle_beta                 90.00
_cell_angle_gamma                90
_cell_volume                     2336.38
_exptl_crystal_colour            colorless
_exptl_crystal_description       block
_cell_formula_units_Z            4
_exptl_crystal_preparation       Luminescent
loop_
_atom_site_label
_atom_site_type_symbol
_atom_site_fract_x
_atom_site_fract_y
_atom_site_fract_z
Br1 Br 0.76730(10) 0.71627(2) 0.465591(13)
N1 N -0.0708(7) 0.49707(16) 0.37694(10)
C1 C 0.1149(7) 0.5424(2) 0.40202(11)
C2 C 0.2367(7) 0.60414(18) 0.37518(10)
C3 C 0.1529(8) 0.7901(2) 0.34864(12)
H1 H 0.0138 0.7515 0.3536
C4 C 0.1091(7) 0.59669(19) 0.33142(11)
C5 C 0.1470(8) 0.6364(2) 0.28856(11)
C6 C 0.5092(7) 0.64298(19) 0.43853(11)
C7 C 0.3832(8) 0.5834(2) 0.46475(11)
H2 H 0.4290 0.5789 0.4948
C8 C 0.3286(8) 0.7795(2) 0.31209(13)
C9 C 0.4430(7) 0.65340(19) 0.39389(11)
H3 H 0.5348 0.6927 0.3766
C10 C 0.1823(10) 0.8563(2) 0.37723(14)
H4 H 0.0648 0.8617 0.4016
C11 C -0.0727(7) 0.5284(2) 0.33398(12)
C12 C 0.1910(8) 0.5310(2) 0.44674(12)
H5 H 0.1127 0.4887 0.4638
C13 C 0.3015(8) 0.7124(2) 0.28075(11)
C14 C -0.2221(9) 0.2760(2) 0.41569(12)
H6 H -0.3887 0.2662 0.3988
H7 H -0.2748 0.2930 0.4456
C15 C 0.0373(9) 0.5932(3) 0.25108(13)
C16 C -0.2294(8) 0.4268(2) 0.39305(13)
H8 H -0.3881 0.4193 0.3739
H9 H -0.2949 0.4389 0.4230
C17 C -0.0653(9) 0.34607(19) 0.39403(13)
H10 H -0.0179 0.3303 0.3637
H11 H 0.1039 0.3552 0.4104
C18 C 0.4162(10) 0.7232(3) 0.23794(15)
C19 C -0.0611(10) 0.1952(2) 0.41855(13)
H12 H 0.0983 0.2042 0.4373
H13 H 0.0039 0.1808 0.3889
C20 C -0.1520(10) 0.5274(3) 0.25680(15)
H14 H -0.2400 0.5055 0.2318
C21 C -0.2087(9) 0.4956(2) 0.29736(14)
H15 H -0.3356 0.4527 0.3007
C22 C 0.5157(10) 0.8438(3) 0.30312(18)
C23 C 0.6103(12) 0.7883(4) 0.23125(19)
H16 H 0.6982 0.7922 0.2037
C24 C 0.3848(13) 0.9154(3) 0.3703(2)
H17 H 0.4105 0.9584 0.3908
C25 C 0.3257(13) 0.6716(4) 0.20204(16)
H18 H 0.4056 0.6773 0.1740
C26 C 0.5437(12) 0.9099(3) 0.3338(2)
H19 H 0.6754 0.9508 0.3287
C27 C 0.1284(13) 0.6154(3) 0.20814(15)
H20 H 0.0488 0.5901 0.1833
C28 C 0.6707(11) 0.8436(4) 0.2626(2)
H21 H 0.8120 0.8818 0.2583
C29 C -0.2235(16) 0.1219(3) 0.4371(2)
H22 H -0.3915 0.1462 0.4486
H23 H -0.2764 0.0894 0.4111
C30 C -0.163(3) 0.0756(6) 0.4622(3)
H24 H -0.0090 0.0442 0.4513
H25 H -0.3132 0.0385 0.4679
H26 H -0.1128 0.1036 0.4894
loop_
_geom_bond_atom_site_label_1
_geom_bond_atom_site_label_2
_geom_bond_site_symmetry_1
_geom_bond_site_symmetry_2
Br1 C6 1_555 1_555
N1 C1 1_555 1_555
C1 C2 1_555 1_555
C2 C4 1_555 1_555
C3 H1 1_555 1_555
C4 C5 1_555 1_555
C5 C13 1_555 1_555
C6 C7 1_555 1_555
C7 H2 1_555 1_555
C8 C3 1_555 1_555
C9 C2 1_555 1_555
H3 C9 1_555 1_555
C10 C3 1_555 1_555
H4 C10 1_555 1_555
C11 N1 1_555 1_555
C12 C1 1_555 1_555
H5 C12 1_555 1_555
C13 C8 1_555 1_555
C14 H6 1_555 1_555
H7 C14 1_555 1_555
C15 C5 1_555 1_555
C16 N1 1_555 1_555
H8 C16 1_555 1_555
H9 C16 1_555 1_555
C17 C14 1_555 1_555
H10 C17 1_555 1_555
H11 C17 1_555 1_555
C18 C13 1_555 1_555
C19 C14 1_555 1_555
H12 C19 1_555 1_555
H13 C19 1_555 1_555
C20 C15 1_555 1_555
H14 C20 1_555 1_555
C21 C11 1_555 1_555
H15 C21 1_555 1_555
C22 C8 1_555 1_555
C23 C18 1_555 1_555
H16 C23 1_555 1_555
C24 C10 1_555 1_555
H17 C24 1_555 1_555
C25 C18 1_555 1_555
H18 C25 1_555 1_555
C26 C22 1_555 1_555
H19 C26 1_555 1_555
C27 C15 1_555 1_555
H20 C27 1_555 1_555
C28 C22 1_555 1_555
H21 C28 1_555 1_555
C29 C19 1_555 1_555
H22 C29 1_555 1_555
H23 C29 1_555 1_555
C30 C29 1_555 1_555
H24 C30 1_555 1_555
H25 C30 1_555 1_555
H26 C30 1_555 1_555
C4 C11 1_555 1_555
C6 C9 1_555 1_555
C7 C12 1_555 1_555
C16 C17 1_555 1_555
C20 C21 1_555 1_555
C23 C28 1_555 1_555
C24 C26 1_555 1_555
C25 C27 1_555 1_555

#END
