
#######################################################################
#
#                 Cambridge Crystallographic Data Centre
#                                CCDC 
#
#######################################################################
#
# If this CIF has been generated from an entry in the Cambridge 
# Structural Database, then it will include bibliographic, chemical, 
# crystal, experimental, refinement or atomic coordinate data resulting 
# from the CCDC's data processing and validation procedures.
#
#######################################################################

data_PIKQUY
_chemical_name_common            
5-bromo-2-(4-(trifluoromethyl)phenyl)isoindoline-1,3-dione
_chemical_formula_moiety         'C15 H7 Br1 F3 N1 O2'
_chemical_name_systematic        
5-bromo-2-[4-(trifluoromethyl)phenyl]-1H-isoindole-1,3(2H)-dione
_symmetry_cell_setting           monoclinic
_symmetry_space_group_name_H-M   'C c'
_symmetry_Int_Tables_number      9
_space_group_name_Hall           'C -2yc'
loop_
_symmetry_equiv_pos_site_id
_symmetry_equiv_pos_as_xyz
1 x,y,z
2 x,-y,1/2+z
3 1/2+x,1/2+y,z
4 1/2+x,1/2-y,1/2+z
_cell_length_a                   29.9642(5)
_cell_length_b                   7.78860(10)
_cell_length_c                   5.78230(10)
_cell_angle_alpha                90
_cell_angle_beta                 97.163(2)
_cell_angle_gamma                90
_cell_volume                     1338.94
_exptl_crystal_colour            colorless
_exptl_crystal_description       block
_cell_formula_units_Z            4
_exptl_crystal_preparation       Luminescent
loop_
_atom_site_label
_atom_site_type_symbol
_atom_site_fract_x
_atom_site_fract_y
_atom_site_fract_z
Br1 Br 0.70807(3) 0.32641(9) 0.28541(6)
O1 O 0.51210(15) 0.3964(5) 0.1542(8)
O2 O 0.52133(17) 0.1017(5) 0.8457(8)
N1 N 0.50423(18) 0.2472(6) 0.4957(9)
C1 C 0.6144(3) 0.3318(7) 0.3054(13)
H1 H 0.6124 0.3882 0.1627
C2 C 0.6553(2) 0.2837(9) 0.4252(13)
C3 C 0.5793(2) 0.2070(8) 0.6235(11)
C4 C 0.5765(2) 0.2911(8) 0.4100(11)
C5 C 0.5281(2) 0.3216(6) 0.3261(12)
C6 C 0.4309(3) 0.1824(7) 0.2832(13)
H2 H 0.4449 0.1368 0.1622
C7 C 0.4566(2) 0.2477(8) 0.4814(10)
C8 C 0.6211(3) 0.1601(7) 0.7420(13)
H3 H 0.6232 0.1036 0.8847
F1 F 0.2979(2) 0.4019(11) 0.502(2)
F2 F 0.2926(3) 0.231(2) 0.2276(19)
C9 C 0.4360(3) 0.3152(7) 0.6647(13)
H4 H 0.4534 0.3585 0.7962
C10 C 0.6594(3) 0.2007(9) 0.6398(13)
H5 H 0.6877 0.1724 0.7149
C11 C 0.5329(3) 0.1748(6) 0.6812(12)
C12 C 0.3640(2) 0.2542(8) 0.4517(14)
C13 C 0.3897(3) 0.3173(8) 0.6499(15)
H6 H 0.3758 0.3608 0.7724
C14 C 0.3843(3) 0.1861(9) 0.2679(15)
H7 H 0.3668 0.1436 0.1362
F3 F 0.2993(3) 0.1373(15) 0.572(3)
C15 C 0.3133(3) 0.2557(13) 0.4408(19)
loop_
_geom_bond_atom_site_label_1
_geom_bond_atom_site_label_2
_geom_bond_site_symmetry_1
_geom_bond_site_symmetry_2
Br1 C2 1_555 1_555
O1 C5 1_555 1_555
O2 C11 1_555 1_555
N1 C5 1_555 1_555
C1 H1 1_555 1_555
C2 C1 1_555 1_555
C3 C4 1_555 1_555
C4 C1 1_555 1_555
C5 C4 1_555 1_555
C6 H2 1_555 1_555
C7 N1 1_555 1_555
C8 C3 1_555 1_555
H3 C8 1_555 1_555
F1 C15 1_555 1_555
F2 C15 1_555 1_555
C9 C7 1_555 1_555
H4 C9 1_555 1_555
C10 C2 1_555 1_555
H5 C10 1_555 1_555
C11 N1 1_555 1_555
C12 C13 1_555 1_555
C13 C9 1_555 1_555
H6 C13 1_555 1_555
C14 C6 1_555 1_555
H7 C14 1_555 1_555
F3 C15 1_555 1_555
C15 C12 1_555 1_555
C3 C11 1_555 1_555
C6 C7 1_555 1_555
C8 C10 1_555 1_555
C12 C14 1_555 1_555

#END
