
#######################################################################
#
#                 Cambridge Crystallographic Data Centre
#                                CCDC 
#
#######################################################################
#
# If this CIF has been generated from an entry in the Cambridge 
# Structural Database, then it will include bibliographic, chemical, 
# crystal, experimental, refinement or atomic coordinate data resulting 
# from the CCDC's data processing and validation procedures.
#
#######################################################################

data_PIKQOR
_chemical_formula_moiety         'C22 H36 B2 N8 2+,2(C2 H6 O1 S1),2(I1 1-)'
_chemical_name_systematic        
"B,B'-bis(1,1'-Methylenebis(4,5-dimethylimidazole))diborate diiodide dimethylsulfoxide solvate"
_symmetry_cell_setting           triclinic
_symmetry_space_group_name_H-M   'P -1'
_symmetry_Int_Tables_number      2
_space_group_name_Hall           '-P 1'
loop_
_symmetry_equiv_pos_site_id
_symmetry_equiv_pos_as_xyz
1 x,y,z
2 -x,-y,-z
_cell_length_a                   8.5435(5)
_cell_length_b                   8.6724(5)
_cell_length_c                   12.6108(8)
_cell_angle_alpha                96.930(2)
_cell_angle_beta                 95.430(2)
_cell_angle_gamma                97.572(2)
_cell_volume                     913.635
_exptl_crystal_colour            yellow
_exptl_crystal_description       block
_cell_formula_units_Z            1
loop_
_atom_site_label
_atom_site_type_symbol
_atom_site_fract_x
_atom_site_fract_y
_atom_site_fract_z
I1 I 0.238770(14) 0.722348(13) 0.591402(9)
B1 B 0.0763(2) -0.1748(2) 0.24930(16)
H1 H 0.0596 -0.1927 0.1698
H2 H 0.1445 -0.2500 0.2743
N1 N 0.15722(17) -0.00067(17) 0.29017(11)
N2 N 0.25979(17) 0.20781(16) 0.40196(11)
N3 N 0.25888(17) 0.25728(18) 0.59302(11)
N4 N 0.08680(17) 0.19763(16) 0.70350(11)
C1 C 0.1954(2) 0.05685(19) 0.39366(13)
H3 H 0.1794 -0.0003 0.4524
C2 C 0.2012(2) 0.1193(2) 0.23028(13)
C3 C 0.2649(2) 0.2505(2) 0.29966(13)
C4 C 0.1824(3) 0.0984(3) 0.11037(15)
H4 H 0.218(3) 0.199(2) 0.0851(5)
H5 H 0.070(2) 0.062(3) 0.0833(6)
H6 H 0.248(2) 0.019(2) 0.0833(6)
C5 C 0.3295(3) 0.4123(2) 0.28138(17)
H7 H 0.444(2) 0.4334(10) 0.3058(17)
H8 H 0.275(2) 0.4892(16) 0.3222(16)
H9 H 0.312(2) 0.4214(8) 0.2040(16)
C6 C 0.3218(2) 0.3147(2) 0.50076(14)
H10 H 0.4392 0.3246 0.5105
H11 H 0.2924 0.4201 0.4943
C7 C 0.1111(2) 0.2689(2) 0.61811(13)
H12 H 0.0360 0.3202 0.5805
C8 C 0.3335(2) 0.1753(2) 0.66681(13)
C9 C 0.2256(2) 0.1396(2) 0.73578(13)
C10 C 0.4985(2) 0.1403(3) 0.6632(2)
H13 H 0.5735 0.2321 0.6975
H14 H 0.5182 0.1152 0.5882
H15 H 0.5127 0.0505 0.7016
C11 C 0.2420(3) 0.0564(3) 0.83149(16)
H16 H 0.351(2) 0.036(2) 0.8445(11)
H17 H 0.170(2) -0.043(2) 0.8189(7)
H18 H 0.216(3) 0.1215(17) 0.8940(13)
B1A B -0.0763(2) 0.1748(2) 0.75070(16)
H1A H -0.0596 0.1927 0.8302
H2A H -0.1445 0.2500 0.7257
N1A N -0.15722(17) 0.00067(17) 0.70983(11)
N2A N -0.25979(17) -0.20781(16) 0.59804(11)
N3A N -0.25888(17) -0.25728(18) 0.40698(11)
N4A N -0.08680(17) -0.19763(16) 0.29650(11)
C1A C -0.1954(2) -0.05685(19) 0.60634(13)
H3A H -0.1794 0.0003 0.5476
C2A C -0.2012(2) -0.1193(2) 0.76972(13)
C3A C -0.2649(2) -0.2505(2) 0.70034(13)
C4A C -0.1824(3) -0.0984(3) 0.88963(15)
H4A H -0.218(3) -0.199(2) 0.9149(5)
H5A H -0.070(2) -0.062(3) 0.9167(6)
H6A H -0.248(2) -0.019(2) 0.9167(6)
C5A C -0.3295(3) -0.4123(2) 0.71862(17)
H7A H -0.444(2) -0.4334(10) 0.6942(17)
H8A H -0.275(2) -0.4892(16) 0.6778(16)
H9A H -0.312(2) -0.4214(8) 0.7960(16)
C6A C -0.3218(2) -0.3147(2) 0.49924(14)
H10A H -0.4392 -0.3246 0.4895
H11A H -0.2924 -0.4201 0.5057
C7A C -0.1111(2) -0.2689(2) 0.38189(13)
H12A H -0.0360 -0.3202 0.4195
C8A C -0.3335(2) -0.1753(2) 0.33319(13)
C9A C -0.2256(2) -0.1396(2) 0.26422(13)
C10A C -0.4985(2) -0.1403(3) 0.3368(2)
H13A H -0.5735 -0.2321 0.3025
H14A H -0.5182 -0.1152 0.4118
H15A H -0.5127 -0.0505 0.2984
C11A C -0.2420(3) -0.0564(3) 0.16851(16)
H16A H -0.351(2) -0.036(2) 0.1555(11)
H17A H -0.170(2) 0.043(2) 0.1811(7)
H18A H -0.216(3) -0.1215(17) 0.1060(13)
C12 C 0.9147(3) 0.4135(3) 0.1231(2)
H19 H 0.9280(15) 0.345(3) 0.0646(17)
H20 H 0.9139(12) 0.363(3) 0.183(2)
H21 H 0.997(2) 0.495(2) 0.134(2)
C13 C 0.6069(4) 0.3043(4) 0.0687(3)
H22 H 0.496(3) 0.3217(6) 0.043(2)
H23 H 0.604(3) 0.250(2) 0.1348(19)
H24 H 0.649(2) 0.237(2) 0.010(2)
S1 S 0.73101(7) 0.48693(6) 0.09962(5)
O1 O 0.7367(3) 0.5608(3) -0.0019(2)
loop_
_geom_bond_atom_site_label_1
_geom_bond_atom_site_label_2
_geom_bond_site_symmetry_1
_geom_bond_site_symmetry_2
B1 H1 1_555 1_555
H2 B1 1_555 1_555
N1 B1 1_555 1_555
N2 C1 1_555 1_555
N3 C6 1_555 1_555
N4 C7 1_555 1_555
C1 N1 1_555 1_555
H3 C1 1_555 1_555
C2 N1 1_555 1_555
C3 N2 1_555 1_555
C4 C2 1_555 1_555
H4 C4 1_555 1_555
H5 C4 1_555 1_555
H6 C4 1_555 1_555
C5 C3 1_555 1_555
H7 C5 1_555 1_555
H8 C5 1_555 1_555
H9 C5 1_555 1_555
C6 N2 1_555 1_555
H10 C6 1_555 1_555
H11 C6 1_555 1_555
C7 N3 1_555 1_555
H12 C7 1_555 1_555
C8 N3 1_555 1_555
C9 N4 1_555 1_555
C10 C8 1_555 1_555
H13 C10 1_555 1_555
H14 C10 1_555 1_555
H15 C10 1_555 1_555
C11 C9 1_555 1_555
H16 C11 1_555 1_555
H17 C11 1_555 1_555
H18 C11 1_555 1_555
C12 H19 1_555 1_555
H20 C12 1_555 1_555
H21 C12 1_555 1_555
C13 H22 1_555 1_555
H23 C13 1_555 1_555
H24 C13 1_555 1_555
S1 C12 1_555 1_555
O1 S1 1_555 1_555
B1A N4 1_555 1_555
H1A B1A 1_555 1_555
H2A B1A 1_555 1_555
N1A B1A 1_555 1_555
N2A C1A 1_555 1_555
N3A C6A 1_555 1_555
N4A B1 1_555 1_555
C1A N1A 1_555 1_555
H3A C1A 1_555 1_555
C2A N1A 1_555 1_555
C3A N2A 1_555 1_555
C4A C2A 1_555 1_555
H4A C4A 1_555 1_555
H5A C4A 1_555 1_555
H6A C4A 1_555 1_555
C5A C3A 1_555 1_555
H7A C5A 1_555 1_555
H8A C5A 1_555 1_555
H9A C5A 1_555 1_555
C6A N2A 1_555 1_555
H10A C6A 1_555 1_555
H11A C6A 1_555 1_555
C7A N3A 1_555 1_555
H12A C7A 1_555 1_555
C8A N3A 1_555 1_555
C9A N4A 1_555 1_555
C10A C8A 1_555 1_555
H13A C10A 1_555 1_555
H14A C10A 1_555 1_555
H15A C10A 1_555 1_555
C11A C9A 1_555 1_555
H16A C11A 1_555 1_555
H17A C11A 1_555 1_555
H18A C11A 1_555 1_555
C2 C3 1_555 1_555
C8 C9 1_555 1_555
C13 S1 1_555 1_555
N4A C7A 1_555 1_555
C2A C3A 1_555 1_555
C8A C9A 1_555 1_555

#END
