
#######################################################################
#
#                 Cambridge Crystallographic Data Centre
#                                CCDC 
#
#######################################################################
#
# If this CIF has been generated from an entry in the Cambridge 
# Structural Database, then it will include bibliographic, chemical, 
# crystal, experimental, refinement or atomic coordinate data resulting 
# from the CCDC's data processing and validation procedures.
#
#######################################################################

data_PIKZER
_chemical_formula_moiety         'C27 H19 Cl1 F6 N2 O2'
_chemical_name_systematic        
1-benzyl-3'-(4-chlorobenzene-1-carbonyl)-4',5'-bis(trifluoromethyl)spiro[indole-3,2'-pyrrolidin]-2(1H)-one
_symmetry_cell_setting           orthorhombic
_symmetry_space_group_name_H-M   'P 21 21 21'
_symmetry_Int_Tables_number      19
_space_group_name_Hall           'P 2ac 2ab'
loop_
_symmetry_equiv_pos_site_id
_symmetry_equiv_pos_as_xyz
1 x,y,z
2 1/2-x,-y,1/2+z
3 -x,1/2+y,1/2-z
4 1/2+x,1/2-y,-z
_cell_length_a                   5.9113(2)
_cell_length_b                   10.5093(3)
_cell_length_c                   40.3691(11)
_cell_angle_alpha                90
_cell_angle_beta                 90
_cell_angle_gamma                90
_cell_volume                     2507.87
_exptl_crystal_colour            colorless
_exptl_crystal_description       block
_cell_formula_units_Z            4
loop_
_atom_site_label
_atom_site_type_symbol
_atom_site_fract_x
_atom_site_fract_y
_atom_site_fract_z
Cl1 Cl 0.2561(2) 0.03121(11) 0.52228(3)
O1 O 0.3658(3) 0.7160(2) 0.65048(5)
O2 O 0.2519(3) 0.6079(2) 0.58551(6)
F1 F 0.9872(5) 0.94657(19) 0.64259(6)
F2 F 0.6418(4) 0.9534(2) 0.62817(6)
F3 F 0.8972(5) 1.00242(18) 0.59336(6)
N1 N 0.8567(4) 0.7003(2) 0.63526(5)
F4 F 0.5619(5) 0.7070(3) 0.52844(5)
F5 F 0.7388(5) 0.8796(2) 0.53845(5)
F6 F 0.9164(5) 0.7036(3) 0.53729(5)
N2 N 0.4530(4) 0.5195(3) 0.67169(5)
C1 C 0.6507(4) 0.5975(2) 0.59184(5)
H1 H 0.7704 0.5497 0.5806
C2 C 0.6976(4) 0.5956(2) 0.62980(5)
C3 C 0.4215(4) 0.5446(3) 0.58118(6)
C4 C 0.6763(5) 0.7396(2) 0.58337(6)
H2 H 0.5361 0.7841 0.5892
C5 C 0.7741(4) 0.4683(2) 0.64279(6)
C6 C 0.8668(5) 0.7845(2) 0.60655(6)
H3 H 1.0125 0.7729 0.5954
C7 C 0.3981(4) 0.4168(3) 0.56582(6)
C8 C 0.6220(5) 0.4268(3) 0.66674(6)
C9 C 0.4831(4) 0.6214(3) 0.65118(6)
C10 C 0.9546(5) 0.3927(3) 0.63379(7)
H4 H 1.0583 0.4203 0.6180
C11 C 0.8456(6) 0.9217(3) 0.61753(8)
C12 C 0.7235(7) 0.7584(3) 0.54692(7)
C13 C 0.3980(6) 0.5058(3) 0.73230(7)
C14 C 0.6446(7) 0.3089(3) 0.68173(8)
H5 H 0.5416 0.2813 0.6976
C15 C 0.2883(5) 0.5180(4) 0.69884(7)
H6 H 0.1849 0.4474 0.6956
H7 H 0.2006 0.5960 0.6982
C16 C 0.9784(6) 0.2736(3) 0.64884(8)
H8 H 1.0984 0.2211 0.6429
C17 C 0.5516(6) 0.3187(3) 0.56996(8)
H9 H 0.6848 0.3331 0.5816
C18 C 0.8254(7) 0.2337(3) 0.67234(8)
H10 H 0.8441 0.1543 0.6821
C19 C 0.2035(5) 0.3940(4) 0.54749(8)
H11 H 0.1006 0.4597 0.5441
C20 C 0.3112(6) 0.1791(3) 0.53953(9)
C21 C 0.1603(6) 0.2756(4) 0.53421(9)
H12 H 0.0302 0.2616 0.5218
C22 C 0.5953(7) 0.5683(4) 0.73971(9)
H13 H 0.6637 0.6204 0.7240
C23 C 0.5085(7) 0.1991(4) 0.55685(10)
H14 H 0.6118 0.1332 0.5597
C24 C 0.2988(9) 0.4305(4) 0.75634(8)
H15 H 0.1645 0.3881 0.7517
C25 C 0.5929(12) 0.4780(6) 0.79409(11)
H16 H 0.6598 0.4680 0.8148
C26 C 0.6928(9) 0.5532(6) 0.77100(11)
H17 H 0.8271 0.5949 0.7760
C27 C 0.3969(12) 0.4177(5) 0.78718(9)
H18 H 0.3279 0.3674 0.8032
H19 H 0.998(7) 0.671(3) 0.6408(8)
loop_
_geom_bond_atom_site_label_1
_geom_bond_atom_site_label_2
_geom_bond_site_symmetry_1
_geom_bond_site_symmetry_2
Cl1 C20 1_555 1_555
O1 C9 1_555 1_555
O2 C3 1_555 1_555
F1 C11 1_555 1_555
F2 C11 1_555 1_555
F3 C11 1_555 1_555
N1 C2 1_555 1_555
F4 C12 1_555 1_555
F5 C12 1_555 1_555
F6 C12 1_555 1_555
N2 C8 1_555 1_555
C1 H1 1_555 1_555
C2 C1 1_555 1_555
C3 C1 1_555 1_555
C4 C1 1_555 1_555
H2 C4 1_555 1_555
C5 C2 1_555 1_555
C6 N1 1_555 1_555
H3 C6 1_555 1_555
C7 C3 1_555 1_555
C8 C5 1_555 1_555
C9 N2 1_555 1_555
C10 C5 1_555 1_555
H4 C10 1_555 1_555
C11 C6 1_555 1_555
C12 C4 1_555 1_555
C13 C15 1_555 1_555
C14 C8 1_555 1_555
H5 C14 1_555 1_555
C15 N2 1_555 1_555
H6 C15 1_555 1_555
H7 C15 1_555 1_555
C16 C10 1_555 1_555
H8 C16 1_555 1_555
C17 C7 1_555 1_555
H9 C17 1_555 1_555
C18 C14 1_555 1_555
H10 C18 1_555 1_555
C19 C7 1_555 1_555
H11 C19 1_555 1_555
C20 C21 1_555 1_555
C21 C19 1_555 1_555
H12 C21 1_555 1_555
C22 C13 1_555 1_555
H13 C22 1_555 1_555
C23 C17 1_555 1_555
H14 C23 1_555 1_555
C24 C13 1_555 1_555
H15 C24 1_555 1_555
C25 H16 1_555 1_555
C26 C22 1_555 1_555
H17 C26 1_555 1_555
C27 C24 1_555 1_555
H18 C27 1_555 1_555
H19 N1 1_555 1_555
C2 C9 1_555 1_555
C4 C6 1_555 1_555
C16 C18 1_555 1_555
C20 C23 1_555 1_555
C25 C26 1_555 1_555
C25 C27 1_555 1_555

#END
