
#######################################################################
#
#                 Cambridge Crystallographic Data Centre
#                                CCDC 
#
#######################################################################
#
# If this CIF has been generated from an entry in the Cambridge 
# Structural Database, then it will include bibliographic, chemical, 
# crystal, experimental, refinement or atomic coordinate data resulting 
# from the CCDC's data processing and validation procedures.
#
#######################################################################

data_PILCUK
_chemical_formula_moiety         'C9 H6 O7,C10 H8 N2 O2'
_chemical_name_systematic        
'2-Hydroxybenzene-1,3,5-tricarboxylic acid 4-(1H-imidazol-1-yl)benzoic acid'
_symmetry_cell_setting           triclinic
_symmetry_space_group_name_H-M   'P -1'
_symmetry_Int_Tables_number      2
_space_group_name_Hall           '-P 1'
loop_
_symmetry_equiv_pos_site_id
_symmetry_equiv_pos_as_xyz
1 x,y,z
2 -x,-y,-z
_cell_length_a                   8.0830(16)
_cell_length_b                   9.6180(19)
_cell_length_c                   11.538(2)
_cell_angle_alpha                91.14(3)
_cell_angle_beta                 101.74(3)
_cell_angle_gamma                98.74(3)
_cell_volume                     866.831
_exptl_crystal_colour            yellow
_exptl_crystal_description       block
_cell_formula_units_Z            2
loop_
_atom_site_label
_atom_site_type_symbol
_atom_site_fract_x
_atom_site_fract_y
_atom_site_fract_z
O1 O 0.2436(5) 1.3137(4) 0.4761(3)
H1 H 0.1424 1.3115 0.4782
O2 O -0.0730(6) 1.1737(7) 0.4551(6)
H2 H 0.0179 1.2158 0.4938
O3 O -0.1510(6) 1.0147(9) 0.3263(8)
O4 O 0.2240(5) 0.7628(3) 0.1789(3)
H3 H 0.2550 0.7012 0.1420
O5 O 0.4924(5) 0.8449(4) 0.2104(3)
O6 O 0.6046(7) 1.3091(5) 0.5658(4)
O7 O 0.6611(6) 1.3515(5) 0.3971(4)
H4 H 0.6222 1.3226 0.3281
C1 C 0.2612(6) 1.2038(4) 0.4232(4)
C2 C 0.1303(5) 1.0931(5) 0.3672(4)
C3 C 0.1578(5) 0.9796(4) 0.3025(4)
H5 H 0.0667 0.9112 0.2665
C4 C 0.3207(5) 0.9696(4) 0.2922(3)
C5 C 0.4589(5) 1.0707(4) 0.3446(3)
H6 H 0.5695 1.0631 0.3367
C6 C 0.4274(5) 1.1807(4) 0.4075(3)
C7 C -0.0442(6) 1.0952(5) 0.3760(5)
C8 C 0.3484(5) 0.8513(3) 0.2228(3)
C9 C 0.5735(5) 1.2879(4) 0.4627(3)
O8 O -0.2898(4) 0.9770(3) 1.0154(3)
O9 O -0.5286(4) 0.8377(3) 0.9248(3)
H7 H -0.5715 0.8996 0.9519
N1 N 0.0307(4) 0.5061(3) 0.7824(3)
N2 N 0.1211(5) 0.3802(4) 0.6596(3)
C10 C 0.0007(5) 0.4549(4) 0.6702(4)
H8 H -0.0896 0.4696 0.6099
C11 C 0.1758(6) 0.4618(4) 0.8439(4)
H9 H 0.2259 0.4819 0.9236
C12 C 0.2314(6) 0.3836(5) 0.7664(4)
H10 H 0.3278 0.3396 0.7827
C13 C 0.0101(5) 0.7056(4) 0.9073(4)
H11 H 0.1288 0.7225 0.9305
C14 C -0.0880(5) 0.7924(4) 0.9502(4)
H12 H -0.0349 0.8680 1.0029
C15 C -0.2636(5) 0.7678(4) 0.9153(3)
C16 C -0.3441(5) 0.6529(4) 0.8380(3)
H13 H -0.4629 0.6356 0.8153
C17 C -0.2479(5) 0.5645(4) 0.7949(3)
H14 H -0.3009 0.4873 0.7438
C18 C -0.0717(5) 0.5931(3) 0.8291(3)
C19 C -0.3678(5) 0.8663(4) 0.9550(3)
loop_
_geom_bond_atom_site_label_1
_geom_bond_atom_site_label_2
_geom_bond_site_symmetry_1
_geom_bond_site_symmetry_2
O1 H1 1_555 1_555
O2 H2 1_555 1_555
O3 C7 1_555 1_555
O4 H3 1_555 1_555
O5 C8 1_555 1_555
O6 C9 1_555 1_555
O7 H4 1_555 1_555
C1 O1 1_555 1_555
C2 C1 1_555 1_555
C3 C2 1_555 1_555
H5 C3 1_555 1_555
C4 C3 1_555 1_555
C5 C4 1_555 1_555
H6 C5 1_555 1_555
C6 C1 1_555 1_555
C7 O2 1_555 1_555
C8 O4 1_555 1_555
C9 O7 1_555 1_555
O8 C19 1_555 1_555
O9 H7 1_555 1_555
N1 C10 1_555 1_555
N2 C10 1_555 1_555
C10 H8 1_555 1_555
C11 N1 1_555 1_555
H9 C11 1_555 1_555
C12 N2 1_555 1_555
H10 C12 1_555 1_555
C13 H11 1_555 1_555
C14 C13 1_555 1_555
H12 C14 1_555 1_555
C15 C14 1_555 1_555
C16 C15 1_555 1_555
H13 C16 1_555 1_555
C17 C16 1_555 1_555
H14 C17 1_555 1_555
C18 N1 1_555 1_555
C19 O9 1_555 1_555
C2 C7 1_555 1_555
C4 C8 1_555 1_555
C5 C6 1_555 1_555
C6 C9 1_555 1_555
C11 C12 1_555 1_555
C13 C18 1_555 1_555
C15 C19 1_555 1_555
C17 C18 1_555 1_555

#END
