
#######################################################################
#
#                 Cambridge Crystallographic Data Centre
#                                CCDC 
#
#######################################################################
#
# If this CIF has been generated from an entry in the Cambridge 
# Structural Database, then it will include bibliographic, chemical, 
# crystal, experimental, refinement or atomic coordinate data resulting 
# from the CCDC's data processing and validation procedures.
#
#######################################################################

data_PILFAS
_chemical_formula_moiety         'C16 H14 Cl1 N3 O2'
_chemical_name_systematic        
1-(5-(2-Chloropyridin-3-yl)-2-methyl-2-phenyl-1,3,4-oxadiazol-3(2H)-yl)ethanone
_symmetry_cell_setting           monoclinic
_symmetry_space_group_name_H-M   'P 21/c'
_symmetry_Int_Tables_number      14
_space_group_name_Hall           '-P 2ybc'
loop_
_symmetry_equiv_pos_site_id
_symmetry_equiv_pos_as_xyz
1 x,y,z
2 -x,1/2+y,1/2-z
3 -x,-y,-z
4 x,1/2-y,1/2+z
_cell_length_a                   7.7788(7)
_cell_length_b                   24.625(2)
_cell_length_c                   7.9948(8)
_cell_angle_alpha                90
_cell_angle_beta                 93.0300(10)
_cell_angle_gamma                90
_cell_volume                     1529.29
_exptl_crystal_colour            colorless
_exptl_crystal_description       block
_cell_formula_units_Z            4
_exptl_crystal_recrystallization_method ethanol
loop_
_atom_site_label
_atom_site_type_symbol
_atom_site_fract_x
_atom_site_fract_y
_atom_site_fract_z
C1 C 0.28346(18) 0.52714(5) -0.02816(18)
C2 C 0.27771(17) 0.50607(5) 0.13417(17)
C3 C 0.3456(2) 0.53918(6) 0.2626(2)
H1 H 0.3440 0.5276 0.3732
C4 C 0.4152(2) 0.58909(7) 0.2260(2)
H2 H 0.4613 0.6114 0.3107
C5 C 0.4145(2) 0.60475(7) 0.0619(2)
H3 H 0.4621 0.6383 0.0375
C6 C 0.20863(17) 0.45270(5) 0.17689(16)
C7 C 0.14495(19) 0.38600(5) 0.36193(16)
C8 C 0.01531(18) 0.32860(5) 0.12329(17)
C9 C -0.0074(2) 0.32372(7) -0.06330(19)
H4 H 0.1034 0.3215 -0.1103
H5 H -0.0680 0.3550 -0.1076
H6 H -0.0723 0.2915 -0.0915
C10 C -0.0073(2) 0.39235(7) 0.47005(19)
H7 H 0.0315 0.4056 0.5785
H8 H -0.0627 0.3578 0.4818
H9 H -0.0876 0.4177 0.4185
C11 C 0.28433(17) 0.34702(5) 0.42702(16)
C12 C 0.2521(2) 0.30728(6) 0.54395(18)
H10 H 0.1425 0.3042 0.5844
C13 C 0.3805(2) 0.27214(7) 0.6013(2)
H11 H 0.3576 0.2463 0.6821
C14 C 0.5419(2) 0.27503(7) 0.5398(2)
H12 H 0.6281 0.2513 0.5784
C15 C 0.5750(2) 0.31361(8) 0.4199(2)
H13 H 0.6832 0.3153 0.3759
C16 C 0.4476(2) 0.34980(7) 0.36515(18)
H14 H 0.4717 0.3761 0.2864
Cl1 Cl 0.20295(6) 0.491105(16) -0.20175(5)
N1 N 0.34943(18) 0.57466(5) -0.06525(18)
N2 N 0.13810(15) 0.41731(4) 0.07904(14)
N3 N 0.09365(16) 0.37466(5) 0.18324(14)
O1 O -0.02848(15) 0.29362(4) 0.22043(13)
O2 O 0.22132(15) 0.43973(4) 0.34306(12)
loop_
_geom_bond_atom_site_label_1
_geom_bond_atom_site_label_2
_geom_bond_site_symmetry_1
_geom_bond_site_symmetry_2
C1 C2 1_555 1_555
C2 C3 1_555 1_555
C3 H1 1_555 1_555
C4 C3 1_555 1_555
H2 C4 1_555 1_555
C5 C4 1_555 1_555
H3 C5 1_555 1_555
C6 C2 1_555 1_555
C7 C10 1_555 1_555
C8 C9 1_555 1_555
C9 H4 1_555 1_555
H5 C9 1_555 1_555
H6 C9 1_555 1_555
C10 H7 1_555 1_555
H8 C10 1_555 1_555
H9 C10 1_555 1_555
C11 C7 1_555 1_555
C12 C11 1_555 1_555
H10 C12 1_555 1_555
C13 C12 1_555 1_555
H11 C13 1_555 1_555
C14 C13 1_555 1_555
H12 C14 1_555 1_555
C15 C14 1_555 1_555
H13 C15 1_555 1_555
C16 C11 1_555 1_555
H14 C16 1_555 1_555
Cl1 C1 1_555 1_555
N1 C1 1_555 1_555
N2 C6 1_555 1_555
N3 C7 1_555 1_555
O1 C8 1_555 1_555
O2 C6 1_555 1_555
C5 N1 1_555 1_555
C7 O2 1_555 1_555
C8 N3 1_555 1_555
C15 C16 1_555 1_555
N2 N3 1_555 1_555

#END
