
#######################################################################
#
#                 Cambridge Crystallographic Data Centre
#                                CCDC 
#
#######################################################################
#
# If this CIF has been generated from an entry in the Cambridge 
# Structural Database, then it will include bibliographic, chemical, 
# crystal, experimental, refinement or atomic coordinate data resulting 
# from the CCDC's data processing and validation procedures.
#
#######################################################################

data_PILGIB
_chemical_formula_moiety         'C22 H28 O6 S1'
_chemical_name_systematic        
1-((E)-4-Benzenesulfonyl-3-methyl-but-2-enyl)-2,3,4,5-tetramethoxy-6-methylbenzene
_symmetry_cell_setting           monoclinic
_symmetry_space_group_name_H-M   'P 21/c'
_symmetry_Int_Tables_number      14
_space_group_name_Hall           '-P 2ybc'
loop_
_symmetry_equiv_pos_site_id
_symmetry_equiv_pos_as_xyz
1 x,y,z
2 -x,1/2+y,1/2-z
3 -x,-y,-z
4 x,1/2-y,1/2+z
_cell_length_a                   9.8351(6)
_cell_length_b                   20.5513(14)
_cell_length_c                   10.9955(7)
_cell_angle_alpha                90
_cell_angle_beta                 102.8410(10)
_cell_angle_gamma                90
_cell_volume                     2166.87
_exptl_crystal_colour            colorless
_exptl_crystal_description       block
_chemical_melting_point          '350 K'
_cell_formula_units_Z            4
_exptl_crystal_recrystallization_method 'petroleum ether/acetone'
loop_
_atom_site_label
_atom_site_type_symbol
_atom_site_fract_x
_atom_site_fract_y
_atom_site_fract_z
S1 S 0.29374(6) 0.26316(3) 0.94801(4)
O1 O 0.18082(16) 0.46913(7) 0.28067(16)
O2 O -0.04892(17) 0.42801(8) 0.10933(13)
O3 O -0.26927(17) 0.36823(9) 0.18912(16)
O4 O -0.24997(19) 0.34571(9) 0.43847(18)
O5 O 0.3724(2) 0.20406(8) 0.97480(15)
O6 O 0.25134(18) 0.29583(8) 1.04922(13)
C1 C 0.0750(2) 0.43765(9) 0.32173(19)
C2 C -0.0431(2) 0.41838(10) 0.23398(18)
C3 C -0.1507(2) 0.38721(10) 0.27361(19)
C4 C -0.1422(2) 0.37809(10) 0.4003(2)
C5 C -0.0264(2) 0.39874(10) 0.48855(19)
C6 C 0.0848(2) 0.42754(10) 0.44898(19)
C7 C 0.2138(3) 0.44833(13) 0.5409(2)
H1 H 0.1898 0.4818 0.5960
H2 H 0.2813 0.4660 0.4961
H3 H 0.2547 0.4108 0.5907
C8 C -0.0224(3) 0.38985(13) 0.6256(2)
H4 H 0.0181 0.4293 0.6712
H5 H -0.1191 0.3852 0.6369
C9 C 0.0612(2) 0.33153(10) 0.68133(18)
H6 H 0.1258 0.3143 0.6372
C10 C 0.0527(2) 0.30221(10) 0.78600(17)
C11 C -0.0446(3) 0.32196(14) 0.8673(2)
H7 H -0.1069 0.3564 0.8259
H8 H 0.0097 0.3381 0.9474
H9 H -0.1000 0.2843 0.8818
C12 C 0.1445(2) 0.24476(9) 0.82806(18)
H10 H 0.1759 0.2267 0.7555
H11 H 0.0891 0.2108 0.8587
C13 C 0.3925(2) 0.31897(10) 0.88015(18)
C14 C 0.3929(3) 0.38410(11) 0.9102(2)
H12 H 0.3380 0.3995 0.9652
C15 C 0.4738(3) 0.42674(13) 0.8599(3)
H13 H 0.4747 0.4717 0.8804
C16 C 0.5532(3) 0.40439(14) 0.7800(3)
H14 H 0.6092 0.4339 0.7459
C17 C 0.5515(3) 0.33968(13) 0.7496(2)
H15 H 0.6058 0.3246 0.6939
C18 C 0.4713(2) 0.29623(12) 0.7996(2)
H16 H 0.4704 0.2514 0.7787
C19 C 0.2678(3) 0.42452(12) 0.2322(3)
H17 H 0.3112 0.3940 0.2979
H18 H 0.3405 0.4488 0.2034
H19 H 0.2110 0.4003 0.1622
C20 C -0.1450(3) 0.47747(13) 0.0544(2)
H20 H -0.2390 0.4657 0.0629
H21 H -0.1441 0.4817 -0.0342
H22 H -0.1178 0.5190 0.0968
C21 C -0.2566(3) 0.30972(14) 0.1250(3)
H23 H -0.1913 0.3161 0.0704
H24 H -0.3480 0.2972 0.0747
H25 H -0.2215 0.2753 0.1855
C22 C -0.3725(3) 0.38408(19) 0.4270(4)
H26 H -0.3517 0.4223 0.4811
H27 H -0.4455 0.3582 0.4518
H28 H -0.4046 0.3981 0.3402
loop_
_geom_bond_atom_site_label_1
_geom_bond_atom_site_label_2
_geom_bond_site_symmetry_1
_geom_bond_site_symmetry_2
S1 O5 1_555 1_555
O1 C1 1_555 1_555
O2 C2 1_555 1_555
O3 C3 1_555 1_555
O4 C4 1_555 1_555
O6 S1 1_555 1_555
C1 C2 1_555 1_555
C2 C3 1_555 1_555
C3 C4 1_555 1_555
C4 C5 1_555 1_555
C5 C6 1_555 1_555
C6 C1 1_555 1_555
C7 C6 1_555 1_555
H1 C7 1_555 1_555
H2 C7 1_555 1_555
H3 C7 1_555 1_555
C8 C5 1_555 1_555
H4 C8 1_555 1_555
H5 C8 1_555 1_555
C9 C8 1_555 1_555
H6 C9 1_555 1_555
C10 C9 1_555 1_555
C11 C10 1_555 1_555
H7 C11 1_555 1_555
H8 C11 1_555 1_555
H9 C11 1_555 1_555
C12 S1 1_555 1_555
H10 C12 1_555 1_555
H11 C12 1_555 1_555
C13 S1 1_555 1_555
C14 C13 1_555 1_555
H12 C14 1_555 1_555
C15 C14 1_555 1_555
H13 C15 1_555 1_555
C16 C15 1_555 1_555
H14 C16 1_555 1_555
C17 C16 1_555 1_555
H15 C17 1_555 1_555
C18 C13 1_555 1_555
H16 C18 1_555 1_555
C19 O1 1_555 1_555
H17 C19 1_555 1_555
H18 C19 1_555 1_555
H19 C19 1_555 1_555
C20 O2 1_555 1_555
H20 C20 1_555 1_555
H21 C20 1_555 1_555
H22 C20 1_555 1_555
C21 O3 1_555 1_555
H23 C21 1_555 1_555
H24 C21 1_555 1_555
H25 C21 1_555 1_555
C22 O4 1_555 1_555
H26 C22 1_555 1_555
H27 C22 1_555 1_555
H28 C22 1_555 1_555
C10 C12 1_555 1_555
C17 C18 1_555 1_555

#END
