
#######################################################################
#
#                 Cambridge Crystallographic Data Centre
#                                CCDC 
#
#######################################################################
#
# If this CIF has been generated from an entry in the Cambridge 
# Structural Database, then it will include bibliographic, chemical, 
# crystal, experimental, refinement or atomic coordinate data resulting 
# from the CCDC's data processing and validation procedures.
#
#######################################################################

data_PILGOJ
_chemical_name_common            'sulfadiazine N,N-dimethylacetamide solvate'
_chemical_formula_moiety         'C10 H10 N4 O2 S1,1.5(C4 H9 N1 O1)'
_chemical_name_systematic        
'4-amino-N-(pyrimidin-2-yl)benzene-1-sulfonamide N,N-dimethylacetamide solvate'
_chemical_properties_biological  'Sulfadiazine is an antibiotic.'
_symmetry_cell_setting           triclinic
_symmetry_space_group_name_H-M   'P -1'
_symmetry_Int_Tables_number      2
_space_group_name_Hall           '-P 1'
loop_
_symmetry_equiv_pos_site_id
_symmetry_equiv_pos_as_xyz
1 x,y,z
2 -x,-y,-z
_cell_length_a                   8.5961(17)
_cell_length_b                   10.200(2)
_cell_length_c                   11.908(2)
_cell_angle_alpha                111.57(3)
_cell_angle_beta                 103.07(3)
_cell_angle_gamma                98.47(3)
_cell_volume                     914.712
_exptl_crystal_colour            colorless
_exptl_crystal_description       prism
_cell_formula_units_Z            2
loop_
_atom_site_label
_atom_site_type_symbol
_atom_site_fract_x
_atom_site_fract_y
_atom_site_fract_z
S1 S 0.35515(4) 0.30584(4) 0.62566(3)
O1 O 0.22968(12) 0.30158(11) 0.68628(10)
O2 O 0.31226(13) 0.30362(11) 0.50068(9)
N1 N 0.55104(15) -0.00539(13) 0.65111(11)
N2 N 0.48223(15) 0.18026(13) 0.81095(11)
N3 N 0.42454(15) 0.15810(13) 0.60238(11)
H1 H 0.435(2) 0.1138(17) 0.5253(10)
N4 N 0.90807(16) 0.82195(13) 0.95775(12)
H2 H 0.903(2) 0.8776(16) 1.0328(10)
H3 H 0.9765(18) 0.8572(17) 0.9248(13)
C1 C 0.6154(2) -0.05309(16) 0.73815(14)
H4 H 0.6614 -0.1345 0.7129
C2 C 0.6173(2) 0.01157(17) 0.86265(14)
H5 H 0.6636 -0.0229 0.9234
C3 C 0.54849(19) 0.12896(17) 0.89446(14)
H6 H 0.5480 0.1757 0.9796
C4 C 0.48841(17) 0.11011(14) 0.69374(13)
C5 C 0.51958(17) 0.45594(14) 0.72526(13)
C6 C 0.53651(18) 0.52563(15) 0.85432(13)
H7 H 0.4594 0.4896 0.8887
C7 C 0.66596(18) 0.64729(15) 0.93199(13)
H8 H 0.6773 0.6945 1.0197
C8 C 0.78082(17) 0.70173(15) 0.88217(13)
C9 C 0.76192(18) 0.62923(15) 0.75157(14)
H9 H 0.8397 0.6635 0.7168
C10 C 0.63203(18) 0.50943(15) 0.67418(13)
H10 H 0.6187 0.4631 0.5861
O3 O 0.13835(16) 0.92344(14) 0.83621(11)
N5 N 0.16363(19) 0.77661(18) 0.65212(14)
C11 C 0.0435(2) 0.97887(19) 0.65867(18)
H11 H 0.0346 1.0684 0.7231
H12 H -0.0667 0.9219 0.6004
H13 H 0.1133 1.0039 0.6111
C12 C 0.1185(2) 0.89122(17) 0.72156(15)
C13 C 0.1480(3) 0.7356(3) 0.51771(18)
H14 H 0.0700 0.7825 0.4832
H15 H 0.1074 0.6295 0.4711
H16 H 0.2561 0.7675 0.5089
C14 C 0.2399(3) 0.6893(2) 0.7108(3)
H17 H 0.2402 0.7248 0.7993
H18 H 0.3536 0.6975 0.7075
H19 H 0.1769 0.5870 0.6648
O4? O 0.828(2) 0.392(2) 1.0342(17)
N6? N 1.0384(14) 0.5455(11) 1.0234(12)
C15? C 0.898(4) 0.318(2) 0.8424(15)
H20? H 0.7808 0.2829 0.7936
H21? H 0.9417 0.2344 0.8439
H22? H 0.9588 0.3674 0.8028
C16? C 0.9189(15) 0.4216(13) 0.9754(12)
C17? C 1.071(5) 0.647(4) 1.154(2)
H23? H 1.1160 0.7464 1.1646
H24? H 1.1510 0.6213 1.2102
H25? H 0.9680 0.6425 1.1767
C18? C 1.135(4) 0.569(4) 0.943(3)
H26? H 1.2193 0.5135 0.9430
H27? H 1.1889 0.6728 0.9765
H28? H 1.0622 0.5355 0.8567
O5? O 0.8372(13) 0.4155(13) 1.0522(10)
N7? N 1.0012(7) 0.4599(5) 0.9402(4)
C19? C 1.0540(14) 0.6357(13) 1.1599(8)
H29? H 1.0091 0.6483 1.2308
H30? H 1.0476 0.7177 1.1363
H31? H 1.1695 0.6323 1.1852
C20? C 0.9553(7) 0.4957(6) 1.0484(5)
C21? C 0.9046(18) 0.3284(12) 0.8297(8)
H32? H 0.8465 0.2606 0.8565
H33? H 0.9779 0.2825 0.7846
H34? H 0.8239 0.3532 0.7734
C22? C 1.1362(12) 0.5506(10) 0.9243(8)
H35? H 1.0988 0.6299 0.9079
H36? H 1.1696 0.4909 0.8527
H37? H 1.2304 0.5917 1.0018
loop_
_geom_bond_atom_site_label_1
_geom_bond_atom_site_label_2
_geom_bond_site_symmetry_1
_geom_bond_site_symmetry_2
S1 O1 1_555 1_555
O2 S1 1_555 1_555
N1 C1 1_555 1_555
N2 C3 1_555 1_555
N3 S1 1_555 1_555
H1 N3 1_555 1_555
N4 H2 1_555 1_555
H3 N4 1_555 1_555
C1 H4 1_555 1_555
C2 C1 1_555 1_555
H5 C2 1_555 1_555
C3 C2 1_555 1_555
H6 C3 1_555 1_555
C4 N1 1_555 1_555
C5 S1 1_555 1_555
C6 C5 1_555 1_555
H7 C6 1_555 1_555
C7 C6 1_555 1_555
H8 C7 1_555 1_555
C8 N4 1_555 1_555
C9 C8 1_555 1_555
H9 C9 1_555 1_555
C10 C5 1_555 1_555
H10 C10 1_555 1_555
O3 C12 1_555 1_555
N5 C12 1_555 1_555
C11 H11 1_555 1_555
H12 C11 1_555 1_555
H13 C11 1_555 1_555
C12 C11 1_555 1_555
C13 N5 1_555 1_555
H14 C13 1_555 1_555
H15 C13 1_555 1_555
H16 C13 1_555 1_555
C14 N5 1_555 1_555
H17 C14 1_555 1_555
H18 C14 1_555 1_555
H19 C14 1_555 1_555
N2 C4 1_555 1_555
N3 C4 1_555 1_555
C7 C8 1_555 1_555
C9 C10 1_555 1_555

#END
