
#######################################################################
#
#                 Cambridge Crystallographic Data Centre
#                                CCDC 
#
#######################################################################
#
# If this CIF has been generated from an entry in the Cambridge 
# Structural Database, then it will include bibliographic, chemical, 
# crystal, experimental, refinement or atomic coordinate data resulting 
# from the CCDC's data processing and validation procedures.
#
#######################################################################

data_PILHIC
_chemical_formula_moiety         'C23 H22 Cl1 N1 O8'
_chemical_name_systematic        
rac-Tetramethyl-1-(4-chlorobenzyl)-3a,7a-dihydro-1H-indole-2,3,3a,4-tetracarboxylate
_symmetry_cell_setting           monoclinic
_symmetry_space_group_name_H-M   'P 21/n'
_symmetry_Int_Tables_number      14
_space_group_name_Hall           '-P 2yn'
loop_
_symmetry_equiv_pos_site_id
_symmetry_equiv_pos_as_xyz
1 x,y,z
2 1/2-x,1/2+y,1/2-z
3 -x,-y,-z
4 1/2+x,1/2-y,1/2+z
_cell_length_a                   12.8844(8)
_cell_length_b                   12.3350(7)
_cell_length_c                   15.3485(9)
_cell_angle_alpha                90
_cell_angle_beta                 112.4710(10)
_cell_angle_gamma                90
_cell_volume                     2254.11
_exptl_crystal_colour            yellow
_exptl_crystal_description       block
_cell_formula_units_Z            4
_exptl_crystal_recrystallization_method methanol
loop_
_atom_site_label
_atom_site_type_symbol
_atom_site_fract_x
_atom_site_fract_y
_atom_site_fract_z
Cl1 Cl 0.81143(4) 0.32249(4) 0.20324(3)
O1 O 0.45128(10) 0.85362(10) -0.04992(8)
O2 O 0.33449(9) 0.91151(9) -0.19189(8)
O3 O 0.69018(9) 0.76987(9) 0.03583(7)
O4 O 0.55635(9) 0.64221(9) -0.01694(7)
O5 O 0.77351(9) 0.98920(9) -0.13061(8)
O6 O 0.59618(9) 0.98517(8) -0.13705(8)
O7 O 0.89923(10) 0.81442(11) -0.20986(8)
O8 O 0.95022(9) 0.81130(10) -0.05262(8)
N1 N 0.74121(10) 0.65145(10) -0.15598(9)
C1 C 0.55594(13) 0.62580(13) -0.28022(11)
H1 H 0.5841 0.5799 -0.3140
C2 C 0.46045(13) 0.67819(13) -0.32558(10)
H2 H 0.4229 0.6680 -0.3901
C3 C 0.41351(12) 0.75158(12) -0.27551(10)
H3 H 0.3411 0.7780 -0.3066
C4 C 0.47138(11) 0.78200(11) -0.18640(10)
C5 C 0.68261(11) 0.82092(12) -0.14121(10)
C6 C 0.76738(12) 0.75793(12) -0.14440(9)
C7 C 0.59195(11) 0.74492(11) -0.13385(9)
C8 C 0.61985(11) 0.63855(12) -0.17588(10)
H4 H 0.6078 0.5753 -0.1423
C9 C 0.42044(12) 0.85190(12) -0.13475(10)
C10 C 0.27820(17) 0.97607(16) -0.14419(15)
H5 H 0.2180 1.0161 -0.1899
H6 H 0.3308 1.0256 -0.1017
H7 H 0.2485 0.9293 -0.1094
C11 C 0.61854(12) 0.72414(12) -0.02791(10)
C12 C 0.57395(16) 0.61703(15) 0.07972(11)
H8 H 0.5260 0.5580 0.0810
H9 H 0.5565 0.6795 0.1089
H10 H 0.6510 0.5969 0.1135
C13 C 0.69099(12) 0.93752(12) -0.13481(10)
C14 C 0.59806(16) 1.10186(13) -0.13296(13)
H11 H 0.5269 1.1279 -0.1352
H12 H 0.6122 1.1303 -0.1856
H13 H 0.6564 1.1251 -0.0753
C15 C 0.87881(12) 0.79818(13) -0.14117(10)
C16 C 1.05624(14) 0.86206(17) -0.04081(14)
H14 H 1.1019 0.8681 0.0252
H15 H 1.0425 0.9330 -0.0687
H16 H 1.0946 0.8187 -0.0711
C17 C 0.81662(13) 0.55840(13) -0.13847(11)
H17 H 0.8915 0.5832 -0.1293
H18 H 0.7909 0.5106 -0.1928
C18 C 0.82047(12) 0.49683(12) -0.05216(10)
C19 C 0.75483(14) 0.40459(13) -0.06175(12)
H19 H 0.7134 0.3777 -0.1217
C20 C 0.75027(15) 0.35201(14) 0.01665(12)
H20 H 0.7047 0.2915 0.0097
C21 C 0.81471(13) 0.39120(13) 0.10511(11)
C22 C 0.88103(13) 0.48238(13) 0.11721(11)
H21 H 0.9239 0.5076 0.1774
C23 C 0.88276(12) 0.53567(13) 0.03828(11)
H22 H 0.9259 0.5980 0.0457
loop_
_geom_bond_atom_site_label_1
_geom_bond_atom_site_label_2
_geom_bond_site_symmetry_1
_geom_bond_site_symmetry_2
Cl1 C21 1_555 1_555
O1 C9 1_555 1_555
O2 C9 1_555 1_555
O3 C11 1_555 1_555
O4 C11 1_555 1_555
O5 C13 1_555 1_555
O6 C13 1_555 1_555
O7 C15 1_555 1_555
O8 C15 1_555 1_555
N1 C6 1_555 1_555
C1 H1 1_555 1_555
C2 C1 1_555 1_555
H2 C2 1_555 1_555
C3 C2 1_555 1_555
H3 C3 1_555 1_555
C4 C3 1_555 1_555
C5 C6 1_555 1_555
C6 C15 1_555 1_555
C7 C4 1_555 1_555
C8 N1 1_555 1_555
H4 C8 1_555 1_555
C9 C4 1_555 1_555
C10 O2 1_555 1_555
H5 C10 1_555 1_555
H6 C10 1_555 1_555
H7 C10 1_555 1_555
C11 C7 1_555 1_555
C12 O4 1_555 1_555
H8 C12 1_555 1_555
H9 C12 1_555 1_555
H10 C12 1_555 1_555
C13 C5 1_555 1_555
C14 O6 1_555 1_555
H11 C14 1_555 1_555
H12 C14 1_555 1_555
H13 C14 1_555 1_555
C16 O8 1_555 1_555
H14 C16 1_555 1_555
H15 C16 1_555 1_555
H16 C16 1_555 1_555
C17 N1 1_555 1_555
H17 C17 1_555 1_555
H18 C17 1_555 1_555
C18 C17 1_555 1_555
C19 C18 1_555 1_555
H19 C19 1_555 1_555
C20 C19 1_555 1_555
H20 C20 1_555 1_555
C21 C20 1_555 1_555
C22 C21 1_555 1_555
H21 C22 1_555 1_555
C23 C18 1_555 1_555
H22 C23 1_555 1_555
C1 C8 1_555 1_555
C5 C7 1_555 1_555
C7 C8 1_555 1_555
C22 C23 1_555 1_555

#END
