
#######################################################################
#
#                 Cambridge Crystallographic Data Centre
#                                CCDC 
#
#######################################################################
#
# If this CIF has been generated from an entry in the Cambridge 
# Structural Database, then it will include bibliographic, chemical, 
# crystal, experimental, refinement or atomic coordinate data resulting 
# from the CCDC's data processing and validation procedures.
#
#######################################################################

data_PILLAY
_chemical_formula_moiety         'C24 H24 N4 O8,2(C3 H7 N1 O1)'
_chemical_name_systematic        
'Dimethyl 2,5-bis(2-(2-hydroxybenzoyl)hydrazino)cyclohexa-1,4-diene-1,4-dicarboxylate N,N-dimethylformamide solvate'
_symmetry_cell_setting           monoclinic
_symmetry_space_group_name_H-M   'P 21/n'
_symmetry_Int_Tables_number      14
_space_group_name_Hall           '-P 2yn'
loop_
_symmetry_equiv_pos_site_id
_symmetry_equiv_pos_as_xyz
1 x,y,z
2 1/2-x,1/2+y,1/2-z
3 -x,-y,-z
4 1/2+x,1/2-y,1/2+z
_cell_length_a                   6.227(2)
_cell_length_b                   28.113(9)
_cell_length_c                   9.376(3)
_cell_angle_alpha                90
_cell_angle_beta                 103.850(14)
_cell_angle_gamma                90
_cell_volume                     1593.64
_exptl_crystal_colour            yellow
_exptl_crystal_description       stick
_cell_formula_units_Z            2
loop_
_atom_site_label
_atom_site_type_symbol
_atom_site_fract_x
_atom_site_fract_y
_atom_site_fract_z
N1 N 0.0085(5) 0.12965(10) 0.4387(3)
H1 H -0.0106 0.1403 0.3505
N2 N 0.1573(5) 0.09293(10) 0.4882(3)
H2 H 0.2968 0.0989 0.5111
O1 O -0.0940(5) 0.13189(9) 0.6539(3)
O2 O -0.4852(5) 0.17016(9) 0.6376(3)
H3 H -0.3942 0.1486 0.6590
O3 O 0.5415(5) -0.01121(9) 0.7430(3)
O4 O 0.5249(4) 0.06460(9) 0.6729(3)
C1 C -0.1059(6) 0.14848(12) 0.5312(4)
C2 C -0.2469(6) 0.18971(12) 0.4759(4)
C3 C -0.4309(7) 0.19869(13) 0.5337(4)
C4 C -0.5660(7) 0.23722(14) 0.4857(5)
H4 H -0.6889 0.2428 0.5235
C5 C -0.5186(8) 0.26754(14) 0.3816(5)
H5 H -0.6099 0.2935 0.3496
C6 C -0.3375(8) 0.25971(14) 0.3248(5)
H6 H -0.3061 0.2805 0.2553
C7 C -0.2032(7) 0.22132(13) 0.3708(4)
H7 H -0.0813 0.2162 0.3317
C8 C 0.0855(6) 0.04753(12) 0.5011(4)
C9 C 0.2168(6) 0.01363(12) 0.5801(4)
C10 C -0.1455(6) 0.03709(12) 0.4164(4)
H8 H -0.2463 0.0569 0.4546
H9 H -0.1590 0.0462 0.3148
C11 C 0.4371(6) 0.02576(13) 0.6663(4)
C12 C 0.7623(8) -0.00190(17) 0.8290(6)
H10 H 0.8351 0.0197 0.7767
H11 H 0.8437 -0.0312 0.8463
H12 H 0.7550 0.0120 0.9213
N1B N -0.0085(5) -0.12965(10) 0.5613(3)
H1B H 0.0106 -0.1403 0.6495
N2B N -0.1573(5) -0.09293(10) 0.5118(3)
H2B H -0.2968 -0.0989 0.4889
O1B O 0.0940(5) -0.13189(9) 0.3461(3)
O2B O 0.4852(5) -0.17016(9) 0.3624(3)
H3B H 0.3942 -0.1486 0.3410
O3B O -0.5415(5) 0.01121(9) 0.2570(3)
O4B O -0.5249(4) -0.06460(9) 0.3271(3)
C1B C 0.1059(6) -0.14848(12) 0.4688(4)
C2B C 0.2469(6) -0.18971(12) 0.5241(4)
C3B C 0.4309(7) -0.19869(13) 0.4663(4)
C4B C 0.5660(7) -0.23722(14) 0.5143(5)
H4B H 0.6889 -0.2428 0.4765
C5B C 0.5186(8) -0.26754(14) 0.6184(5)
H5B H 0.6099 -0.2935 0.6504
C6B C 0.3375(8) -0.25971(14) 0.6752(5)
H6B H 0.3061 -0.2805 0.7447
C7B C 0.2032(7) -0.22132(13) 0.6292(4)
H7B H 0.0813 -0.2162 0.6683
C8B C -0.0855(6) -0.04753(12) 0.4989(4)
C9B C -0.2168(6) -0.01363(12) 0.4199(4)
C10B C 0.1455(6) -0.03709(12) 0.5836(4)
H8B H 0.2463 -0.0569 0.5454
H9B H 0.1590 -0.0462 0.6852
C11B C -0.4371(6) -0.02576(13) 0.3337(4)
C12B C -0.7623(8) 0.00190(17) 0.1710(6)
H10B H -0.8351 -0.0197 0.2233
H11B H -0.8437 0.0312 0.1537
H12B H -0.7550 -0.0120 0.0787
N3 N 0.2346(6) 0.12473(12) 0.0477(4)
O5 O -0.0794(6) 0.13231(13) 0.1286(3)
C13 C 0.0200(8) 0.12140(15) 0.0339(5)
H13 H -0.0644 0.1098 -0.0549
C14 C 0.3778(9) 0.1427(2) 0.1822(6)
H14 H 0.3458 0.1757 0.1937
H15 H 0.5294 0.1393 0.1777
H16 H 0.3528 0.1250 0.2643
C15 C 0.3392(9) 0.1104(2) -0.0693(5)
H17 H 0.2276 0.1008 -0.1539
H18 H 0.4377 0.0842 -0.0361
H19 H 0.4212 0.1367 -0.0947
loop_
_geom_bond_atom_site_label_1
_geom_bond_atom_site_label_2
_geom_bond_site_symmetry_1
_geom_bond_site_symmetry_2
N1 H1 1_555 1_555
N2 N1 1_555 1_555
H2 N2 1_555 1_555
N3 C13 1_555 1_555
O1 C1 1_555 1_555
O2 H3 1_555 1_555
O3 C11 1_555 1_555
O4 C11 1_555 1_555
O5 C13 1_555 1_555
C1 N1 1_555 1_555
C2 C1 1_555 1_555
C3 O2 1_555 1_555
C4 C3 1_555 1_555
H4 C4 1_555 1_555
C5 C4 1_555 1_555
H5 C5 1_555 1_555
C6 C5 1_555 1_555
H6 C6 1_555 1_555
C7 C2 1_555 1_555
H7 C7 1_555 1_555
C8 N2 1_555 1_555
C9 C8 1_555 1_555
C10 C8 1_555 1_555
H8 C10 1_555 1_555
H9 C10 1_555 1_555
C11 C9 1_555 1_555
C12 O3 1_555 1_555
H10 C12 1_555 1_555
H11 C12 1_555 1_555
H12 C12 1_555 1_555
C13 H13 1_555 1_555
C14 N3 1_555 1_555
H14 C14 1_555 1_555
H15 C14 1_555 1_555
H16 C14 1_555 1_555
C15 N3 1_555 1_555
H17 C15 1_555 1_555
H18 C15 1_555 1_555
H19 C15 1_555 1_555
N1B H1B 1_555 1_555
N2B N1B 1_555 1_555
H2B N2B 1_555 1_555
O1B C1B 1_555 1_555
O2B H3B 1_555 1_555
O3B C11B 1_555 1_555
O4B C11B 1_555 1_555
C1B N1B 1_555 1_555
C2B C1B 1_555 1_555
C3B O2B 1_555 1_555
C4B C3B 1_555 1_555
H4B C4B 1_555 1_555
C5B C4B 1_555 1_555
H5B C5B 1_555 1_555
C6B C5B 1_555 1_555
H6B C6B 1_555 1_555
C7B C2B 1_555 1_555
H7B C7B 1_555 1_555
C8B N2B 1_555 1_555
C9B C10 1_555 1_555
C10B C9 1_555 1_555
H8B C10B 1_555 1_555
H9B C10B 1_555 1_555
C11B C9B 1_555 1_555
C12B O3B 1_555 1_555
H10B C12B 1_555 1_555
H11B C12B 1_555 1_555
H12B C12B 1_555 1_555
C2 C3 1_555 1_555
C6 C7 1_555 1_555
C2B C3B 1_555 1_555
C6B C7B 1_555 1_555
C8B C9B 1_555 1_555
C8B C10B 1_555 1_555

#END
