
#######################################################################
#
#                 Cambridge Crystallographic Data Centre
#                                CCDC 
#
#######################################################################
#
# If this CIF has been generated from an entry in the Cambridge 
# Structural Database, then it will include bibliographic, chemical, 
# crystal, experimental, refinement or atomic coordinate data resulting 
# from the CCDC's data processing and validation procedures.
#
#######################################################################

data_PILQUX
_chemical_formula_moiety         'C10 H9 N7 S2'
_chemical_name_systematic        
(2-Pyridyl)bis(1,3,4-thiadiazol-2-ylamino)methane
_symmetry_cell_setting           monoclinic
_symmetry_space_group_name_H-M   'P 21/n'
_symmetry_Int_Tables_number      14
_space_group_name_Hall           '-P 2yn'
loop_
_symmetry_equiv_pos_site_id
_symmetry_equiv_pos_as_xyz
1 x,y,z
2 1/2-x,1/2+y,1/2-z
3 -x,-y,-z
4 1/2+x,1/2-y,1/2+z
_cell_length_a                   11.283(2)
_cell_length_b                   8.7613(18)
_cell_length_c                   13.151(3)
_cell_angle_alpha                90
_cell_angle_beta                 97.13(3)
_cell_angle_gamma                90
_cell_volume                     1289.97
_exptl_crystal_colour            colorless
_exptl_crystal_description       block
_cell_formula_units_Z            4
_exptl_crystal_recrystallization_method methanol
loop_
_atom_site_label
_atom_site_type_symbol
_atom_site_fract_x
_atom_site_fract_y
_atom_site_fract_z
C1 C 0.39112(15) 0.06831(18) 0.76159(12)
C2 C 0.55007(17) -0.0844(2) 0.82008(16)
H1 H 0.5793 -0.1714 0.8552
C3 C 0.62985(18) 0.0092(2) 0.77961(16)
H2 H 0.7109 -0.0138 0.7871
C4 C 0.58714(18) 0.1363(2) 0.72823(15)
H3 H 0.6389 0.2016 0.6996
C5 C 0.46582(17) 0.1680(2) 0.71879(13)
H4 H 0.4353 0.2549 0.6843
C6 C 0.25742(15) 0.09060(19) 0.75500(12)
H5 H 0.2199 -0.0105 0.7517
C7 C 0.17955(14) 0.10493(19) 0.57373(13)
C8 C 0.1164(2) 0.0319(2) 0.40249(15)
H6 H 0.0864 0.0218 0.3337
C9 C 0.11296(16) 0.1562(2) 0.86842(13)
C10 C -0.0725(2) 0.1710(3) 0.93144(19)
H7 H -0.1392 0.1909 0.9644
N1 N 0.43237(13) -0.05732(15) 0.81182(12)
N2 N 0.20837(14) 0.17587(16) 0.66401(11)
H8 H 0.1978 0.2728 0.6682
N3 N 0.20509(14) -0.03795(17) 0.55573(11)
N4 N 0.16735(16) -0.07900(18) 0.45482(12)
N5 N 0.22648(13) 0.16712(16) 0.84586(11)
H9 H 0.2792 0.2184 0.8846
N6 N 0.03642(14) 0.05646(18) 0.82607(13)
N7 N -0.07234(16) 0.0652(2) 0.86360(15)
S1 S 0.10722(5) 0.20038(6) 0.46841(4)
S2 S 0.05728(5) 0.27312(7) 0.95736(4)
loop_
_geom_bond_atom_site_label_1
_geom_bond_atom_site_label_2
_geom_bond_site_symmetry_1
_geom_bond_site_symmetry_2
C1 C5 1_555 1_555
C2 H1 1_555 1_555
C3 C2 1_555 1_555
H2 C3 1_555 1_555
C4 C3 1_555 1_555
H3 C4 1_555 1_555
C5 C4 1_555 1_555
H4 C5 1_555 1_555
C6 C1 1_555 1_555
H5 C6 1_555 1_555
C7 N2 1_555 1_555
C8 H6 1_555 1_555
C9 N5 1_555 1_555
C10 H7 1_555 1_555
N1 C1 1_555 1_555
N2 C6 1_555 1_555
H8 N2 1_555 1_555
N3 C7 1_555 1_555
N4 C8 1_555 1_555
N5 C6 1_555 1_555
H9 N5 1_555 1_555
N6 C9 1_555 1_555
N7 C10 1_555 1_555
S1 C7 1_555 1_555
S2 C9 1_555 1_555
C2 N1 1_555 1_555
C8 S1 1_555 1_555
C10 S2 1_555 1_555
N3 N4 1_555 1_555
N6 N7 1_555 1_555

#END
