
#######################################################################
#
#                 Cambridge Crystallographic Data Centre
#                                CCDC 
#
#######################################################################
#
# If this CIF has been generated from an entry in the Cambridge 
# Structural Database, then it will include bibliographic, chemical, 
# crystal, experimental, refinement or atomic coordinate data resulting 
# from the CCDC's data processing and validation procedures.
#
#######################################################################

data_PILTEL
_chemical_formula_moiety         'C21 H23 N1 O6'
_chemical_name_systematic        
'Methyl (4-(6-hydroxy-4,13-dioxo-3-oxa-11-azatetracyclo[5.5.2.0^2,6^.0^8,12^]tetradec-11-yl)phenyl)acetate'
_symmetry_cell_setting           monoclinic
_symmetry_space_group_name_H-M   'P 21/c'
_symmetry_Int_Tables_number      14
_space_group_name_Hall           '-P 2ybc'
loop_
_symmetry_equiv_pos_site_id
_symmetry_equiv_pos_as_xyz
1 x,y,z
2 -x,1/2+y,1/2-z
3 -x,-y,-z
4 x,1/2-y,1/2+z
_cell_length_a                   10.549(4)
_cell_length_b                   10.981(3)
_cell_length_c                   16.736(5)
_cell_angle_alpha                90
_cell_angle_beta                 107.629(8)
_cell_angle_gamma                90
_cell_volume                     1847.63
_exptl_crystal_colour            colorless
_exptl_crystal_description       Prism
_cell_formula_units_Z            4
loop_
_atom_site_label
_atom_site_type_symbol
_atom_site_fract_x
_atom_site_fract_y
_atom_site_fract_z
O1 O 0.14104(13) 0.02177(11) -0.05152(7)
O2 O 0.1829(2) 0.01046(17) -0.17326(10)
O3 O 0.11950(15) 0.32100(13) -0.01332(10)
H1 H 0.151(3) 0.393(3) 0.0034(18)
O4 O 0.42319(14) -0.07018(13) 0.09773(9)
O5 O 0.2061(2) -0.04587(13) 0.57029(9)
O6 O 0.16883(14) -0.23247(11) 0.60747(8)
N1 N 0.32799(14) 0.11840(14) 0.24878(8)
C1 C 0.1846(2) 0.0697(2) -0.11343(11)
C2 C 0.2279(2) 0.1976(2) -0.09356(11)
H2 H 0.1732 0.2522 -0.1356
H3 H 0.3199 0.2074 -0.0923
C3 C 0.21256(17) 0.22620(15) -0.00753(10)
C4 C 0.34351(16) 0.25124(15) 0.06150(10)
H4 H 0.3857 0.3245 0.0476
C5 C 0.3124(2) 0.27035(16) 0.14444(10)
H5 H 0.2502 0.3386 0.1378
C6 C 0.24564(17) 0.15414(15) 0.16586(9)
H6 H 0.1562 0.1743 0.1679
C7 C 0.23586(16) 0.05439(14) 0.09856(9)
H7 H 0.1958 -0.0203 0.1121
C8 C 0.15110(16) 0.10812(15) 0.01515(10)
H8 H 0.0619 0.1259 0.0186
C9 C 0.37231(17) 0.02963(16) 0.09032(9)
C10 C 0.43595(18) 0.14209(18) 0.06886(12)
H9 H 0.4549 0.1301 0.0162
H10 H 0.5194 0.1575 0.1121
C11 C 0.4325(3) 0.2940(2) 0.22142(12)
H11 H 0.5105 0.3126 0.2044
H12 H 0.4151 0.3622 0.2534
C12 C 0.4549(2) 0.1792(2) 0.27362(11)
H13 H 0.5228 0.1288 0.2620
H14 H 0.4819 0.1985 0.3329
C13 C 0.28903(16) 0.03692(15) 0.29974(9)
C14 C 0.38082(16) -0.00679(16) 0.37295(10)
H15 H 0.4695 0.0167 0.3862
C15 C 0.34170(18) -0.08455(17) 0.42601(10)
H16 H 0.4052 -0.1127 0.4741
C16 C 0.21119(19) -0.12178(16) 0.40986(10)
C17 C 0.12028(18) -0.07888(17) 0.33737(11)
H17 H 0.0317 -0.1023 0.3249
C18 C 0.15742(17) -0.00183(17) 0.28264(10)
H18 H 0.0939 0.0243 0.2340
C19 C 0.1720(2) -0.20641(17) 0.46964(12)
H19 H 0.0807 -0.2320 0.4442
H20 H 0.2276 -0.2785 0.4779
C20 C 0.18432(18) -0.15099(16) 0.55321(10)
C21 C 0.1670(2) -0.1861(2) 0.68782(12)
H21 H 0.1547 -0.2524 0.7222
H22 H 0.0952 -0.1291 0.6799
H23 H 0.2498 -0.1461 0.7149
loop_
_geom_bond_atom_site_label_1
_geom_bond_atom_site_label_2
_geom_bond_site_symmetry_1
_geom_bond_site_symmetry_2
O1 C1 1_555 1_555
O2 C1 1_555 1_555
O3 H1 1_555 1_555
O4 C9 1_555 1_555
O5 C20 1_555 1_555
O6 C20 1_555 1_555
N1 C6 1_555 1_555
C1 C2 1_555 1_555
C2 H2 1_555 1_555
H3 C2 1_555 1_555
C3 O3 1_555 1_555
C4 C3 1_555 1_555
H4 C4 1_555 1_555
C5 C4 1_555 1_555
H5 C5 1_555 1_555
C6 C5 1_555 1_555
H6 C6 1_555 1_555
C7 C6 1_555 1_555
H7 C7 1_555 1_555
C8 O1 1_555 1_555
H8 C8 1_555 1_555
C9 C7 1_555 1_555
C10 C4 1_555 1_555
H9 C10 1_555 1_555
H10 C10 1_555 1_555
C11 C5 1_555 1_555
H11 C11 1_555 1_555
H12 C11 1_555 1_555
C12 N1 1_555 1_555
H13 C12 1_555 1_555
H14 C12 1_555 1_555
C13 N1 1_555 1_555
C14 C13 1_555 1_555
H15 C14 1_555 1_555
C15 C14 1_555 1_555
H16 C15 1_555 1_555
C16 C15 1_555 1_555
C17 C16 1_555 1_555
H17 C17 1_555 1_555
C18 C13 1_555 1_555
H18 C18 1_555 1_555
C19 C16 1_555 1_555
H19 C19 1_555 1_555
H20 C19 1_555 1_555
C20 C19 1_555 1_555
C21 O6 1_555 1_555
H21 C21 1_555 1_555
H22 C21 1_555 1_555
H23 C21 1_555 1_555
C2 C3 1_555 1_555
C3 C8 1_555 1_555
C7 C8 1_555 1_555
C9 C10 1_555 1_555
C11 C12 1_555 1_555
C17 C18 1_555 1_555

#END
