
#######################################################################
#
#                 Cambridge Crystallographic Data Centre
#                                CCDC 
#
#######################################################################
#
# If this CIF has been generated from an entry in the Cambridge 
# Structural Database, then it will include bibliographic, chemical, 
# crystal, experimental, refinement or atomic coordinate data resulting 
# from the CCDC's data processing and validation procedures.
#
#######################################################################

data_PILTOV
_chemical_formula_moiety         'C15 H13 Br1 N2 O3,H2 O1'
_chemical_name_systematic        
"N'-(5-Bromo-2-hydroxybenzylidene)-4-methoxybenzohydrazide monohydrate"
_symmetry_cell_setting           orthorhombic
_symmetry_space_group_name_H-M   'P 21 21 21'
_symmetry_Int_Tables_number      19
_space_group_name_Hall           'P 2ac 2ab'
loop_
_symmetry_equiv_pos_site_id
_symmetry_equiv_pos_as_xyz
1 x,y,z
2 1/2-x,-y,1/2+z
3 -x,1/2+y,1/2-z
4 1/2+x,1/2-y,-z
_cell_length_a                   4.4851(2)
_cell_length_b                   6.6824(2)
_cell_length_c                   51.1491(17)
_cell_angle_alpha                90
_cell_angle_beta                 90
_cell_angle_gamma                90
_cell_volume                     1533
_exptl_crystal_colour            white
_exptl_crystal_description       block
_cell_formula_units_Z            4
loop_
_atom_site_label
_atom_site_type_symbol
_atom_site_fract_x
_atom_site_fract_y
_atom_site_fract_z
Br1 Br 1.03508(8) -0.06540(5) 0.983367(6)
N1 N 0.2388(5) 0.2517(4) 0.88609(4)
N2 N 0.0446(6) 0.1648(3) 0.86858(4)
O1 O 0.5491(5) 0.5476(3) 0.90857(5)
H1 H 0.4140 0.5019 0.8996
O2 O 0.0131(6) 0.4455(3) 0.84402(4)
O3 O -0.7613(6) -0.1184(3) 0.77217(4)
C1 C 0.5627(6) 0.2023(4) 0.92263(5)
C2 C 0.6539(7) 0.4034(4) 0.92463(6)
C3 C 0.8601(7) 0.4596(5) 0.94342(6)
H2 H 0.9235 0.5920 0.9442
C4 C 0.9731(7) 0.3220(5) 0.96103(6)
H3 H 1.1086 0.3612 0.9738
C5 C 0.8802(7) 0.1244(4) 0.95927(6)
C6 C 0.6797(6) 0.0668(5) 0.94044(5)
H4 H 0.6208 -0.0664 0.9396
C7 C 0.3541(7) 0.1335(4) 0.90309(6)
H5 H 0.3015 -0.0011 0.9028
C8 C -0.0567(7) 0.2701(4) 0.84778(5)
C9 C -0.2521(6) 0.1604(4) 0.82934(5)
C10 C -0.3805(7) -0.0255(4) 0.83446(6)
H6 H -0.3478 -0.0860 0.8506
C11 C -0.5552(8) -0.1219(4) 0.81614(5)
H7 H -0.6407 -0.2452 0.8200
C12 C -0.6024(7) -0.0345(5) 0.79207(5)
C13 C -0.4822(8) 0.1521(5) 0.78681(6)
H8 H -0.5174 0.2129 0.7708
C14 C -0.3112(8) 0.2476(5) 0.80526(6)
H9 H -0.2333 0.3734 0.8015
C15 C -0.8961(9) -0.3081(6) 0.77700(7)
H10 H -0.7437 -0.4062 0.7801
H11 H -1.0126 -0.3469 0.7621
H12 H -1.0228 -0.2989 0.7921
H13 H 0.018(11) 0.033(2) 0.8706(8)
O4 O 1.0222(7) 0.7426(3) 0.88028(5)
H14 H 1.022(10) 0.674(5) 0.8664(5)
H15 H 0.873(7) 0.706(7) 0.8892(6)
loop_
_geom_bond_atom_site_label_1
_geom_bond_atom_site_label_2
_geom_bond_site_symmetry_1
_geom_bond_site_symmetry_2
Br1 C5 1_555 1_555
N1 N2 1_555 1_555
N2 C8 1_555 1_555
O1 H1 1_555 1_555
O2 C8 1_555 1_555
O3 C12 1_555 1_555
C1 C2 1_555 1_555
C2 O1 1_555 1_555
C3 C2 1_555 1_555
H2 C3 1_555 1_555
C4 C3 1_555 1_555
H3 C4 1_555 1_555
C5 C4 1_555 1_555
C6 C1 1_555 1_555
H4 C6 1_555 1_555
C7 N1 1_555 1_555
H5 C7 1_555 1_555
C8 C9 1_555 1_555
C9 C10 1_555 1_555
C10 H6 1_555 1_555
C11 C10 1_555 1_555
H7 C11 1_555 1_555
C12 C11 1_555 1_555
C13 C12 1_555 1_555
H8 C13 1_555 1_555
C14 C9 1_555 1_555
H9 C14 1_555 1_555
C15 O3 1_555 1_555
H10 C15 1_555 1_555
H11 C15 1_555 1_555
H12 C15 1_555 1_555
H13 N2 1_555 1_555
O4 H14 1_555 1_555
H15 O4 1_555 1_555
C1 C7 1_555 1_555
C5 C6 1_555 1_555
C13 C14 1_555 1_555

#END
