
#######################################################################
#
#                 Cambridge Crystallographic Data Centre
#                                CCDC 
#
#######################################################################
#
# If this CIF has been generated from an entry in the Cambridge 
# Structural Database, then it will include bibliographic, chemical, 
# crystal, experimental, refinement or atomic coordinate data resulting 
# from the CCDC's data processing and validation procedures.
#
#######################################################################

data_PILWIT
_chemical_formula_moiety         'C20 H19 N5 O1,H2 O1'
_chemical_name_systematic        
'6-amino-8-(2-methoxyphenyl)-2-methyl-2,3,8,8a-tetrahydroisoquinoline-5,7,7(1H)-tricarbonitrile monohydrate'
_symmetry_cell_setting           monoclinic
_symmetry_space_group_name_H-M   'P 21/c'
_symmetry_Int_Tables_number      14
_space_group_name_Hall           '-P 2ybc'
loop_
_symmetry_equiv_pos_site_id
_symmetry_equiv_pos_as_xyz
1 x,y,z
2 -x,1/2+y,1/2-z
3 -x,-y,-z
4 x,1/2-y,1/2+z
_cell_length_a                   14.594(4)
_cell_length_b                   9.366(5)
_cell_length_c                   14.147(4)
_cell_angle_alpha                90
_cell_angle_beta                 93.749(18)
_cell_angle_gamma                90
_cell_volume                     1929.58
_exptl_crystal_colour            yellow
_exptl_crystal_description       block
_cell_formula_units_Z            4
loop_
_atom_site_label
_atom_site_type_symbol
_atom_site_fract_x
_atom_site_fract_y
_atom_site_fract_z
O1 O 0.44937(11) 0.7916(2) 0.52297(14)
N1 N 0.21574(12) 1.1754(2) 0.71135(15)
N2 N 0.02070(14) 1.1087(2) 0.32157(18)
N3 N 0.10546(13) 0.7542(2) 0.35244(15)
H1 H 0.069953 0.795997 0.310111
H2 H 0.119588 0.665815 0.345827
N4 N 0.30992(14) 0.5610(3) 0.41960(18)
N5 N 0.09206(15) 0.6047(2) 0.61049(19)
C1 C 0.33464(14) 0.7584(2) 0.63136(17)
C2 C 0.30775(16) 0.7022(3) 0.71698(18)
H3 H 0.249533 0.723152 0.736230
C3 C 0.36616(18) 0.6154(3) 0.7743(2)
H4 H 0.347369 0.580521 0.831444
C4 C 0.45242(18) 0.5818(3) 0.7450(2)
H5 H 0.490618 0.520969 0.781508
C5 C 0.48195(16) 0.6379(3) 0.6623(2)
H6 H 0.540528 0.616349 0.644310
C6 C 0.42448(14) 0.7273(3) 0.60479(19)
C7 C 0.5339(2) 0.7496(5) 0.4850(3)
H7 H 0.542450 0.802795 0.428249
H8 H 0.583993 0.768568 0.530737
H9 H 0.532019 0.649465 0.470668
C8 C 0.26883(13) 0.8446(2) 0.56429(16)
H10 H 0.306876 0.894833 0.520374
C9 C 0.21083(13) 0.9596(2) 0.61114(16)
H11 H 0.166744 0.911557 0.649740
C10 C 0.15770(14) 1.0459(2) 0.53468(17)
C11 C 0.12199(14) 0.9688(3) 0.44856(17)
C12 C 0.06474(15) 1.0455(3) 0.37805(19)
C13 C 0.13910(13) 0.8276(2) 0.42941(17)
C14 C 0.20240(13) 0.7427(2) 0.50190(16)
C15 C 0.26066(15) 0.6386(2) 0.45294(17)
C16 C 0.14140(15) 0.6611(2) 0.56299(18)
C17 C 0.14534(18) 1.1868(3) 0.5469(2)
H12 H 0.112636 1.236972 0.498977
C18 C 0.1807(2) 1.2675(3) 0.6321(2)
H13 H 0.229685 1.330118 0.614543
H14 H 0.131722 1.326890 0.653586
C19 C 0.27131(14) 1.0585(2) 0.67573(18)
H15 H 0.298916 1.004212 0.728623
H16 H 0.320313 1.097621 0.640499
C20 C 0.26917(18) 1.2600(3) 0.7836(2)
H17 H 0.231516 1.335432 0.805710
H18 H 0.288851 1.199413 0.835788
H19 H 0.321900 1.300163 0.756328
O2 O 0.10596(13) 1.0467(2) 0.85330(16)
H20 H 0.131(3) 1.087(4) 0.806(2)
H21 H 0.0511(13) 1.071(3) 0.848(2)
loop_
_geom_bond_atom_site_label_1
_geom_bond_atom_site_label_2
_geom_bond_site_symmetry_1
_geom_bond_site_symmetry_2
O1 C6 1_555 1_555
N1 C18 1_555 1_555
N2 C12 1_555 1_555
N3 H1 1_555 1_555
H2 N3 1_555 1_555
N4 C15 1_555 1_555
N5 C16 1_555 1_555
C1 C2 1_555 1_555
C2 H3 1_555 1_555
C3 C2 1_555 1_555
H4 C3 1_555 1_555
C4 C3 1_555 1_555
H5 C4 1_555 1_555
C5 C4 1_555 1_555
H6 C5 1_555 1_555
C6 C1 1_555 1_555
C7 O1 1_555 1_555
H7 C7 1_555 1_555
H8 C7 1_555 1_555
H9 C7 1_555 1_555
C8 C1 1_555 1_555
H10 C8 1_555 1_555
C9 C8 1_555 1_555
H11 C9 1_555 1_555
C10 C9 1_555 1_555
C11 C10 1_555 1_555
C12 C11 1_555 1_555
C13 N3 1_555 1_555
C14 C8 1_555 1_555
C15 C14 1_555 1_555
C16 C14 1_555 1_555
C17 C10 1_555 1_555
H12 C17 1_555 1_555
C18 C17 1_555 1_555
H13 C18 1_555 1_555
H14 C18 1_555 1_555
C19 N1 1_555 1_555
H15 C19 1_555 1_555
H16 C19 1_555 1_555
C20 N1 1_555 1_555
H17 C20 1_555 1_555
H18 C20 1_555 1_555
H19 C20 1_555 1_555
O2 H20 1_555 1_555
H21 O2 1_555 1_555
C5 C6 1_555 1_555
C9 C19 1_555 1_555
C11 C13 1_555 1_555
C13 C14 1_555 1_555

#END
