
#######################################################################
#
#                 Cambridge Crystallographic Data Centre
#                                CCDC 
#
#######################################################################
#
# If this CIF has been generated from an entry in the Cambridge 
# Structural Database, then it will include bibliographic, chemical, 
# crystal, experimental, refinement or atomic coordinate data resulting 
# from the CCDC's data processing and validation procedures.
#
#######################################################################

data_PILXAL
_chemical_formula_moiety         'C10 H13 N1 O3'
_chemical_name_systematic        'Ethyl (4-aminophenoxy)acetate'
_symmetry_cell_setting           triclinic
_symmetry_space_group_name_H-M   'P -1'
_symmetry_Int_Tables_number      2
_space_group_name_Hall           '-P 1'
loop_
_symmetry_equiv_pos_site_id
_symmetry_equiv_pos_as_xyz
1 x,y,z
2 -x,-y,-z
_cell_length_a                   8.3456(17)
_cell_length_b                   10.630(2)
_cell_length_c                   11.977(2)
_cell_angle_alpha                101.13(3)
_cell_angle_beta                 91.88(3)
_cell_angle_gamma                104.20(3)
_cell_volume                     1007.09
_cell_formula_units_Z            4
loop_
_atom_site_label
_atom_site_type_symbol
_atom_site_fract_x
_atom_site_fract_y
_atom_site_fract_z
O1 O 0.1295(2) 0.66135(19) 0.27549(14)
O2 O -0.29699(19) 0.52163(17) 0.27952(13)
C1 C 0.4058(3) 0.7581(2) 0.2529(2)
H1 H 0.4144 0.8017 0.3289
C2 C 0.2564(3) 0.6743(2) 0.20392(19)
C3 C -0.1441(3) 0.5889(2) 0.3203(2)
C4 C -0.0308(3) 0.5897(3) 0.22683(19)
H2 H -0.0307 0.4996 0.1913
H3 H -0.0672 0.6315 0.1690
O3 O -0.1056(2) 0.6408(2) 0.41815(15)
C5 C 0.5427(3) 0.7781(2) 0.1911(2)
H4 H 0.6425 0.8348 0.2259
C6 C 0.3820(3) 0.6327(3) 0.0294(2)
H5 H 0.3722 0.5904 -0.0470
C7 C 0.5333(3) 0.7146(2) 0.0772(2)
C8 C -0.4192(3) 0.5065(3) 0.3623(2)
H6 H -0.4363 0.5922 0.3965
H7 H -0.3818 0.4683 0.4224
N1 N 0.6698(3) 0.7370(2) 0.01367(18)
H8 H 0.6612 0.6993 -0.0574
H9 H 0.7629 0.7885 0.0454
C9 C 0.2442(3) 0.6114(3) 0.0913(2)
H10 H 0.1440 0.5548 0.0569
C10 C -0.5768(3) 0.4172(3) 0.3009(2)
H11 H -0.6606 0.4056 0.3537
H12 H -0.5587 0.3326 0.2678
H13 H -0.6125 0.4559 0.2415
O4 O 0.07210(19) 0.85854(18) 0.99470(14)
O5 O 0.20679(19) 1.01461(17) 1.28049(13)
O6 O -0.0395(2) 0.88480(18) 1.20030(14)
C11 C 0.0109(3) 0.7577(3) 0.8023(2)
H14 H -0.0966 0.7233 0.8201
C12 C 0.1867(3) 0.9413(2) 1.0841(2)
H15 H 0.2211 1.0306 1.0703
H16 H 0.2842 0.9078 1.0896
C13 C 0.1014(3) 0.9418(2) 1.1922(2)
C14 C 0.1275(3) 0.8365(2) 0.8871(2)
C15 C 0.1430(3) 1.0185(3) 1.3917(2)
H17 H 0.0976 0.9291 1.4030
H18 H 0.0555 1.0644 1.3978
C16 C 0.3261(3) 0.8564(3) 0.7478(2)
H19 H 0.4337 0.8906 0.7303
C17 C 0.2865(3) 0.8855(3) 0.8596(2)
H20 H 0.3673 0.9382 0.9161
C18 C 0.0513(3) 0.7291(3) 0.6911(2)
H21 H -0.0295 0.6760 0.6347
N2 N 0.2527(3) 0.7468(3) 0.55002(19)
H22 H 0.3526 0.7767 0.5336
H23 H 0.1787 0.6977 0.4974
C19 C 0.2104(3) 0.7781(3) 0.6623(2)
C20 C 0.2825(3) 1.0896(3) 1.4789(2)
H24 H 0.2436 1.0935 1.5537
H25 H 0.3261 1.1780 1.4672
H26 H 0.3682 1.0432 1.4722
loop_
_geom_bond_atom_site_label_1
_geom_bond_atom_site_label_2
_geom_bond_site_symmetry_1
_geom_bond_site_symmetry_2
O1 C2 1_555 1_555
O2 C3 1_555 1_555
C1 H1 1_555 1_555
C2 C1 1_555 1_555
C3 C4 1_555 1_555
C4 O1 1_555 1_555
H2 C4 1_555 1_555
H3 C4 1_555 1_555
O3 C3 1_555 1_555
C5 C1 1_555 1_555
H4 C5 1_555 1_555
C6 H5 1_555 1_555
C7 C5 1_555 1_555
C8 O2 1_555 1_555
H6 C8 1_555 1_555
H7 C8 1_555 1_555
N1 C7 1_555 1_555
H8 N1 1_555 1_555
H9 N1 1_555 1_555
C9 C2 1_555 1_555
H10 C9 1_555 1_555
C10 C8 1_555 1_555
H11 C10 1_555 1_555
H12 C10 1_555 1_555
H13 C10 1_555 1_555
O4 C12 1_555 1_555
O5 C13 1_555 1_555
O6 C13 1_555 1_555
C11 H14 1_555 1_555
C12 H15 1_555 1_555
H16 C12 1_555 1_555
C13 C12 1_555 1_555
C14 O4 1_555 1_555
C15 O5 1_555 1_555
H17 C15 1_555 1_555
H18 C15 1_555 1_555
C16 H19 1_555 1_555
C17 C14 1_555 1_555
H20 C17 1_555 1_555
C18 C11 1_555 1_555
H21 C18 1_555 1_555
N2 H22 1_555 1_555
H23 N2 1_555 1_555
C19 C16 1_555 1_555
C20 C15 1_555 1_555
H24 C20 1_555 1_555
H25 C20 1_555 1_555
H26 C20 1_555 1_555
C6 C7 1_555 1_555
C6 C9 1_555 1_555
C11 C14 1_555 1_555
C16 C17 1_555 1_555
C18 C19 1_555 1_555
N2 C19 1_555 1_555

#END
