
#######################################################################
#
#                 Cambridge Crystallographic Data Centre
#                                CCDC 
#
#######################################################################
#
# If this CIF has been generated from an entry in the Cambridge 
# Structural Database, then it will include bibliographic, chemical, 
# crystal, experimental, refinement or atomic coordinate data resulting 
# from the CCDC's data processing and validation procedures.
#
#######################################################################

data_PIMBAQ
_chemical_compound_source        'Chloranthus multistachys'
_chemical_formula_moiety         'C15 H20 O4'
_chemical_name_systematic        
6,9a-Dihydroxy-3,8a-dimethyl-5-methylene-4a,5,6,7,8,8a,9,9a-octahydronaphtho[2,3-b]furan-2(4H)-one
_symmetry_cell_setting           orthorhombic
_symmetry_space_group_name_H-M   'P 21 21 21'
_symmetry_Int_Tables_number      19
_space_group_name_Hall           'P 2ac 2ab'
loop_
_symmetry_equiv_pos_site_id
_symmetry_equiv_pos_as_xyz
1 x,y,z
2 1/2-x,-y,1/2+z
3 1/2+x,1/2-y,-z
4 -x,1/2+y,1/2-z
_cell_length_a                   9.760(5)
_cell_length_b                   10.510(10)
_cell_length_c                   13.217(7)
_cell_angle_alpha                90
_cell_angle_beta                 90
_cell_angle_gamma                90
_cell_volume                     1355.77
_exptl_crystal_colour            colorless
_exptl_crystal_description       block
_cell_formula_units_Z            4
_exptl_crystal_recrystallization_method 'petroleum ether, acetone'
loop_
_atom_site_label
_atom_site_type_symbol
_atom_site_fract_x
_atom_site_fract_y
_atom_site_fract_z
O1 O 1.3655(2) -0.0544(2) 0.23068(19)
H1 H 1.4260 -0.0445 0.2730
O2 O 0.8020(2) 0.2904(2) 0.15327(17)
H2 H 0.7518 0.3315 0.1908
O3 O 0.69847(18) 0.1114(2) 0.22092(15)
O4 O 0.5932(2) 0.0407(3) 0.35972(19)
C1 C 1.1372(3) 0.0086(3) 0.0693(3)
H3 H 1.1142 -0.0687 0.1056
H4 H 1.1037 -0.0003 0.0006
C2 C 1.2933(3) 0.0233(4) 0.0668(2)
H5 H 1.3331 -0.0560 0.0436
H6 H 1.3166 0.0886 0.0179
C3 C 1.3571(3) 0.0577(3) 0.1673(3)
H7 H 1.4501 0.0894 0.1551
C4 C 1.2766(3) 0.1596(3) 0.2217(2)
C5 C 1.1246(2) 0.1330(3) 0.2278(2)
H8 H 1.1154 0.0485 0.2584
C6 C 1.0440(3) 0.2245(3) 0.2959(2)
H9 H 1.0816 0.2237 0.3638
H10 H 1.0499 0.3105 0.2697
C7 C 0.8994(3) 0.1817(3) 0.2975(2)
C8 C 0.8297(3) 0.1725(3) 0.1969(2)
C9 C 0.9097(3) 0.0891(3) 0.1250(2)
H11 H 0.8707 0.0970 0.0578
H12 H 0.8998 0.0011 0.1460
C10 C 1.0639(3) 0.1223(3) 0.1201(2)
C11 C 0.8180(3) 0.1373(3) 0.3706(2)
C12 C 0.6910(3) 0.0920(3) 0.3225(3)
C13 C 0.8407(4) 0.1280(5) 0.4819(3)
H13 H 0.9293 0.1618 0.4984
H14 H 0.8360 0.0404 0.5023
H15 H 0.7713 0.1757 0.5167
C14 C 1.0869(3) 0.2439(3) 0.0585(3)
H16 H 1.0478 0.2337 -0.0077
H17 H 1.1834 0.2598 0.0524
H18 H 1.0438 0.3143 0.0921
C15 C 1.3373(3) 0.2617(3) 0.2576(3)
H19 H 1.2860 0.3244 0.2896
H20 H 1.4316 0.2712 0.2509
loop_
_geom_bond_atom_site_label_1
_geom_bond_atom_site_label_2
_geom_bond_site_symmetry_1
_geom_bond_site_symmetry_2
O1 H1 1_555 1_555
O2 H2 1_555 1_555
O3 C8 1_555 1_555
O4 C12 1_555 1_555
C1 H3 1_555 1_555
H4 C1 1_555 1_555
C2 C1 1_555 1_555
H5 C2 1_555 1_555
H6 C2 1_555 1_555
C3 O1 1_555 1_555
H7 C3 1_555 1_555
C4 C3 1_555 1_555
C5 C4 1_555 1_555
H8 C5 1_555 1_555
C6 C5 1_555 1_555
H9 C6 1_555 1_555
H10 C6 1_555 1_555
C7 C6 1_555 1_555
C8 O2 1_555 1_555
C9 C8 1_555 1_555
H11 C9 1_555 1_555
H12 C9 1_555 1_555
C10 C1 1_555 1_555
C11 C7 1_555 1_555
C12 O3 1_555 1_555
C13 C11 1_555 1_555
H13 C13 1_555 1_555
H14 C13 1_555 1_555
H15 C13 1_555 1_555
C14 C10 1_555 1_555
H16 C14 1_555 1_555
H17 C14 1_555 1_555
H18 C14 1_555 1_555
C15 C4 1_555 1_555
H19 C15 1_555 1_555
H20 C15 1_555 1_555
C2 C3 1_555 1_555
C5 C10 1_555 1_555
C7 C8 1_555 1_555
C9 C10 1_555 1_555
C11 C12 1_555 1_555

#END
