
#######################################################################
#
#                 Cambridge Crystallographic Data Centre
#                                CCDC 
#
#######################################################################
#
# If this CIF has been generated from an entry in the Cambridge 
# Structural Database, then it will include bibliographic, chemical, 
# crystal, experimental, refinement or atomic coordinate data resulting 
# from the CCDC's data processing and validation procedures.
#
#######################################################################

data_PIMBAP05
_chemical_formula_moiety         'C6 H5 N1 O3'
_chemical_name_systematic        '2-Oxo-1,2-dihydropyridine-3-carboxylic acid'
_symmetry_cell_setting           monoclinic
_symmetry_space_group_name_H-M   'P 21/n'
_symmetry_Int_Tables_number      14
_space_group_name_Hall           '-P 2yn'
loop_
_symmetry_equiv_pos_site_id
_symmetry_equiv_pos_as_xyz
1 x,y,z
2 1/2-x,1/2+y,1/2-z
3 -x,-y,-z
4 1/2+x,1/2-y,1/2+z
_cell_length_a                   3.640(1)
_cell_length_b                   11.584(3)
_cell_length_c                   13.565(3)
_cell_angle_alpha                90
_cell_angle_beta                 94.64(1)
_cell_angle_gamma                90
_cell_volume                     570.104
_exptl_crystal_colour            colorless
_exptl_crystal_description       'thick lath'
_cell_formula_units_Z            4
loop_
_atom_site_label
_atom_site_type_symbol
_atom_site_fract_x
_atom_site_fract_y
_atom_site_fract_z
C1 C 0.5633(4) 0.25484(14) 0.33937(12)
C2 C 0.4124(4) 0.18122(14) 0.41096(12)
C3 C 0.3141(4) 0.06996(14) 0.38714(12)
H1 H 0.2153 0.0222 0.4354
C4 C 0.3568(4) 0.02535(15) 0.29270(12)
H2 H 0.2937 -0.0524 0.2768
C5 C 0.4913(4) 0.09673(15) 0.22447(12)
H3 H 0.5201 0.0685 0.1598
C6 C 0.3601(4) 0.22936(15) 0.51047(12)
N1 N 0.5846(4) 0.20702(13) 0.24719(10)
H4 H 0.6636 0.2508 0.2003
O1 O 0.4619(4) 0.33727(10) 0.52644(9)
H5 H 0.5445 0.3644 0.4752
O2 O 0.2246(3) 0.17228(10) 0.57449(8)
O3 O 0.6713(3) 0.35672(10) 0.35588(9)
loop_
_geom_bond_atom_site_label_1
_geom_bond_atom_site_label_2
_geom_bond_site_symmetry_1
_geom_bond_site_symmetry_2
C1 C2 1_555 1_555
C2 C3 1_555 1_555
C3 H1 1_555 1_555
C4 C3 1_555 1_555
H2 C4 1_555 1_555
C5 C4 1_555 1_555
H3 C5 1_555 1_555
C6 C2 1_555 1_555
N1 C1 1_555 1_555
H4 N1 1_555 1_555
O1 C6 1_555 1_555
H5 O1 1_555 1_555
O2 C6 1_555 1_555
O3 C1 1_555 1_555
C5 N1 1_555 1_555

#END
