
#######################################################################
#
#                 Cambridge Crystallographic Data Centre
#                                CCDC 
#
#######################################################################
#
# If this CIF has been generated from an entry in the Cambridge 
# Structural Database, then it will include bibliographic, chemical, 
# crystal, experimental, refinement or atomic coordinate data resulting 
# from the CCDC's data processing and validation procedures.
#
#######################################################################

data_PIMBAP06
_chemical_formula_moiety         'C6 H5 N1 O3'
_chemical_name_systematic        '2-Oxo-1,2-dihydropyridine-3-carboxylic acid'
_symmetry_cell_setting           monoclinic
_symmetry_space_group_name_H-M   'P 21/n'
_symmetry_Int_Tables_number      14
_space_group_name_Hall           '-P 2yn'
loop_
_symmetry_equiv_pos_site_id
_symmetry_equiv_pos_as_xyz
1 x,y,z
2 1/2-x,1/2+y,1/2-z
3 -x,-y,-z
4 1/2+x,1/2-y,1/2+z
_cell_length_a                   3.725(1)
_cell_length_b                   7.368(2)
_cell_length_c                   20.417(4)
_cell_angle_alpha                90
_cell_angle_beta                 91.47(1)
_cell_angle_gamma                90
_cell_volume                     560.176
_exptl_crystal_colour            colorless
_exptl_crystal_description       'thick needle'
_cell_formula_units_Z            4
loop_
_atom_site_label
_atom_site_type_symbol
_atom_site_fract_x
_atom_site_fract_y
_atom_site_fract_z
C1 C 0.2287(4) 0.3893(2) 0.07618(7)
C2 C 0.0524(4) 0.3075(2) 0.13028(7)
C3 C 0.0055(4) 0.4065(2) 0.18654(7)
H1 H -0.1112 0.3521 0.2224
C4 C 0.1263(4) 0.5859(2) 0.19194(7)
H2 H 0.0949 0.6528 0.2312
C5 C 0.2902(4) 0.6627(2) 0.13968(8)
H3 H 0.3727 0.7846 0.1423
C6 C -0.0778(4) 0.1165(2) 0.12578(7)
O1 O 0.2898(3) 0.30844(15) 0.02302(5)
N1 N 0.3354(3) 0.56572(17) 0.08429(6)
H4 H 0.4401 0.6195 0.0514
O2 O -0.0119(3) 0.02815(15) 0.07075(5)
H5 H 0.1032 0.0958 0.0457
O3 O -0.2376(3) 0.04360(15) 0.16969(5)
loop_
_geom_bond_atom_site_label_1
_geom_bond_atom_site_label_2
_geom_bond_site_symmetry_1
_geom_bond_site_symmetry_2
C1 C2 1_555 1_555
C2 C3 1_555 1_555
C3 H1 1_555 1_555
C4 C3 1_555 1_555
H2 C4 1_555 1_555
C5 C4 1_555 1_555
H3 C5 1_555 1_555
C6 C2 1_555 1_555
O1 C1 1_555 1_555
N1 C1 1_555 1_555
H4 N1 1_555 1_555
O2 C6 1_555 1_555
H5 O2 1_555 1_555
O3 C6 1_555 1_555
C5 N1 1_555 1_555

#END
