
#######################################################################
#
#                 Cambridge Crystallographic Data Centre
#                                CCDC 
#
#######################################################################
#
# If this CIF has been generated from an entry in the Cambridge 
# Structural Database, then it will include bibliographic, chemical, 
# crystal, experimental, refinement or atomic coordinate data resulting 
# from the CCDC's data processing and validation procedures.
#
#######################################################################

data_PIMBAP08
_chemical_formula_moiety         'C6 H5 N1 O3'
_chemical_name_systematic        '2-Oxo-1,2-dihydropyridine-3-carboxylic acid'
_symmetry_cell_setting           monoclinic
_symmetry_space_group_name_H-M   'P 21/c'
_symmetry_Int_Tables_number      14
_space_group_name_Hall           '-P 2ybc'
loop_
_symmetry_equiv_pos_site_id
_symmetry_equiv_pos_as_xyz
1 x,y,z
2 -x,1/2+y,1/2-z
3 -x,-y,-z
4 x,1/2-y,1/2+z
_cell_length_a                   9.773(2)
_cell_length_b                   4.0520(8)
_cell_length_c                   14.993(5)
_cell_angle_alpha                90
_cell_angle_beta                 109.95(3)
_cell_angle_gamma                90
_cell_volume                     558.097
_exptl_crystal_colour            colorless
_exptl_crystal_description       'long block, needle'
_cell_formula_units_Z            4
loop_
_atom_site_label
_atom_site_type_symbol
_atom_site_fract_x
_atom_site_fract_y
_atom_site_fract_z
O1 O 0.14592(10) 0.4661(3) 0.30288(6)
H1 H 0.0946 0.5936 0.3225
O2 O 0.34208(10) 0.1547(3) 0.36515(6)
O3 O 0.05249(9) 0.8099(3) 0.41393(6)
N1 N 0.16055(11) 0.7493(3) 0.57373(7)
H2 H 0.0951 0.8838 0.5819
C1 C 0.15264(14) 0.6801(3) 0.48294(9)
C2 C 0.26049(13) 0.4586(3) 0.47288(8)
C3 C 0.36702(14) 0.3385(3) 0.55211(9)
H3 H 0.4404 0.1981 0.5450
C4 C 0.36878(14) 0.4208(4) 0.64376(9)
H4 H 0.4422 0.3364 0.6985
C5 C 0.26297(14) 0.6240(3) 0.65213(9)
H5 H 0.2608 0.6783 0.7133
C6 C 0.25449(14) 0.3472(4) 0.37658(9)
loop_
_geom_bond_atom_site_label_1
_geom_bond_atom_site_label_2
_geom_bond_site_symmetry_1
_geom_bond_site_symmetry_2
O1 H1 1_555 1_555
O2 C6 1_555 1_555
O3 C1 1_555 1_555
N1 H2 1_555 1_555
C1 N1 1_555 1_555
C2 C1 1_555 1_555
C3 C2 1_555 1_555
H3 C3 1_555 1_555
C4 C3 1_555 1_555
H4 C4 1_555 1_555
C5 N1 1_555 1_555
H5 C5 1_555 1_555
C6 O1 1_555 1_555
C2 C6 1_555 1_555
C4 C5 1_555 1_555

#END
