
#######################################################################
#
#                 Cambridge Crystallographic Data Centre
#                                CCDC 
#
#######################################################################
#
# If this CIF has been generated from an entry in the Cambridge 
# Structural Database, then it will include bibliographic, chemical, 
# crystal, experimental, refinement or atomic coordinate data resulting 
# from the CCDC's data processing and validation procedures.
#
#######################################################################

data_PIMBAP07
_chemical_formula_moiety         'C6 H5 N1 O3'
_chemical_name_systematic        '2-Oxo-1,2-dihydropyridine-3-carboxylic acid'
_symmetry_cell_setting           monoclinic
_symmetry_space_group_name_H-M   'P 21/c'
_symmetry_Int_Tables_number      14
_space_group_name_Hall           '-P 2ybc'
loop_
_symmetry_equiv_pos_site_id
_symmetry_equiv_pos_as_xyz
1 x,y,z
2 -x,1/2+y,1/2-z
3 -x,-y,-z
4 x,1/2-y,1/2+z
_cell_length_a                   9.997(2)
_cell_length_b                   3.754(1)
_cell_length_c                   15.362(3)
_cell_angle_alpha                90
_cell_angle_beta                 106.31(3)
_cell_angle_gamma                90
_cell_volume                     553.315
_exptl_crystal_colour            colorless
_exptl_crystal_description       needle
_cell_formula_units_Z            4
loop_
_atom_site_label
_atom_site_type_symbol
_atom_site_fract_x
_atom_site_fract_y
_atom_site_fract_z
C1 C 0.35224(14) 0.2723(4) 0.40230(10)
C2 C 0.24359(14) 0.4274(4) 0.33117(9)
C3 C 0.13334(15) 0.5926(4) 0.35085(10)
H1 H 0.0612 0.6923 0.3030
C4 C 0.12520(15) 0.6173(4) 0.44013(10)
H2 H 0.0482 0.7308 0.4533
C5 C 0.23038(15) 0.4747(4) 0.50780(10)
H3 H 0.2275 0.4917 0.5690
C6 C 0.25236(15) 0.4153(4) 0.23561(10)
N1 N 0.33889(12) 0.3090(4) 0.48845(8)
H4 H 0.4048 0.2194 0.5338
O1 O 0.36517(11) 0.2626(3) 0.22257(7)
H5 H 0.4179 0.1952 0.2726
O2 O 0.16204(11) 0.5401(3) 0.17263(7)
O3 O 0.45649(10) 0.1097(3) 0.39036(7)
loop_
_geom_bond_atom_site_label_1
_geom_bond_atom_site_label_2
_geom_bond_site_symmetry_1
_geom_bond_site_symmetry_2
C1 C2 1_555 1_555
C2 C3 1_555 1_555
C3 H1 1_555 1_555
C4 C3 1_555 1_555
H2 C4 1_555 1_555
C5 C4 1_555 1_555
H3 C5 1_555 1_555
C6 C2 1_555 1_555
N1 C1 1_555 1_555
H4 N1 1_555 1_555
O1 C6 1_555 1_555
H5 O1 1_555 1_555
O2 C6 1_555 1_555
O3 C1 1_555 1_555
C5 N1 1_555 1_555

#END
