
#######################################################################
#
#                 Cambridge Crystallographic Data Centre
#                                CCDC 
#
#######################################################################
#
# If this CIF has been generated from an entry in the Cambridge 
# Structural Database, then it will include bibliographic, chemical, 
# crystal, experimental, refinement or atomic coordinate data resulting 
# from the CCDC's data processing and validation procedures.
#
#######################################################################

data_PIMCOG
_chemical_formula_moiety         'C10 H13 N1 O2'
_chemical_name_systematic        'methyl (1-phenylethyl)carbamate'
_symmetry_cell_setting           monoclinic
_symmetry_space_group_name_H-M   'P 21'
_symmetry_Int_Tables_number      4
_space_group_name_Hall           'P 2yb'
loop_
_symmetry_equiv_pos_site_id
_symmetry_equiv_pos_as_xyz
1 x,y,z
2 -x,1/2+y,-z
_cell_length_a                   9.9882(7)
_cell_length_b                   8.5202(6)
_cell_length_c                   23.1403(18)
_cell_angle_alpha                90
_cell_angle_beta                 91.010(2)
_cell_angle_gamma                90
_cell_volume                     1968.97
_exptl_crystal_colour            colorless
_exptl_crystal_description       block
_cell_formula_units_Z            8
loop_
_atom_site_label
_atom_site_type_symbol
_atom_site_fract_x
_atom_site_fract_y
_atom_site_fract_z
O1 O 0.60629(15) 1.10819(19) 0.95547(7)
O2 O 0.44376(13) 0.98681(19) 0.90310(7)
N1 N 0.66202(17) 0.9735(2) 0.87845(8)
H1 H 0.738(2) 0.999(3) 0.8882(10)
C1 C 0.5056(3) 1.1659(4) 0.99337(12)
H2 H 0.4423 1.2318 0.9715
H3 H 0.5480 1.2282 1.0242
H4 H 0.4577 1.0772 1.0103
C2 C 0.56111(19) 1.0192(2) 0.91123(9)
C3 C 0.6450(2) 0.8765(2) 0.82735(9)
H5 H 0.5490 0.8830 0.8146
C4 C 0.7303(2) 0.9453(3) 0.77927(10)
H6 H 0.7014 1.0530 0.7711
H7 H 0.7195 0.8814 0.7443
H8 H 0.8247 0.9455 0.7916
C5 C 0.67765(19) 0.7044(2) 0.83888(9)
C6 C 0.7199(2) 0.6507(3) 0.89245(9)
H9 H 0.7290 0.7224 0.9237
C7 C 0.7494(2) 0.4925(3) 0.90126(10)
H10 H 0.7772 0.4571 0.9385
C8 C 0.7384(2) 0.3877(3) 0.85652(12)
H11 H 0.7605 0.2804 0.8623
C9 C 0.6949(2) 0.4397(3) 0.80298(11)
H12 H 0.6858 0.3673 0.7719
C10 C 0.6645(2) 0.5960(3) 0.79413(10)
H13 H 0.6342 0.6300 0.7570
O3 O 0.09585(14) 1.08211(18) 0.96694(7)
O4 O -0.05797(14) 1.0114(2) 0.89966(7)
N2 N 0.15492(18) 0.9229(2) 0.89644(8)
H14 H 0.230(3) 0.942(3) 0.9106(12)
C11 C -0.0048(3) 1.1743(4) 0.99480(13)
H15 H -0.0349 1.2584 0.9688
H16 H 0.0329 1.2203 1.0303
H17 H -0.0810 1.1072 1.0043
C12 C 0.05556(19) 1.0054(2) 0.91884(9)
C13 C 0.1386(2) 0.8344(2) 0.84268(9)
H18 H 0.0411 0.8351 0.8320
C14 C 0.2129(2) 0.9146(3) 0.79409(10)
H19 H 0.1772 1.0206 0.7883
H20 H 0.2011 0.8539 0.7584
H21 H 0.3085 0.9208 0.8042
C15 C 0.1802(2) 0.6645(2) 0.85115(9)
C16 C 0.0860(2) 0.5460(3) 0.84920(9)
H22 H -0.0055 0.5715 0.8422
C17 C 0.1225(3) 0.3905(3) 0.85723(11)
H23 H 0.0562 0.3106 0.8560
C18 C 0.2543(3) 0.3516(3) 0.86688(11)
H24 H 0.2797 0.2450 0.8720
C19 C 0.3495(2) 0.4685(3) 0.86909(11)
H25 H 0.4408 0.4422 0.8760
C20 C 0.3131(2) 0.6243(3) 0.86134(11)
H26 H 0.3796 0.7040 0.8630
O5 O 0.38607(14) 0.03322(18) 0.54082(6)
O6 O 0.20286(14) 0.1213(2) 0.58636(7)
N3 N 0.40982(18) 0.2200(2) 0.60562(8)
H27 H 0.489(2) 0.207(3) 0.6017(10)
C21 C 0.3055(3) -0.0822(3) 0.51168(12)
H28 H 0.2619 -0.1489 0.5403
H29 H 0.3624 -0.1470 0.4871
H30 H 0.2372 -0.0298 0.4877
C22 C 0.32299(19) 0.1245(2) 0.57879(9)
C23 C 0.3727(2) 0.3192(2) 0.65363(10)
H31 H 0.2729 0.3291 0.6525
C24 C 0.4114(3) 0.2426(3) 0.71083(11)
H32 H 0.3670 0.1403 0.7137
H33 H 0.3833 0.3099 0.7427
H34 H 0.5087 0.2281 0.7129
C25 C 0.43006(19) 0.4834(2) 0.64871(9)
C26 C 0.5627(2) 0.5082(2) 0.63401(9)
H35 H 0.6191 0.4212 0.6263
C27 C 0.6133(2) 0.6598(3) 0.63053(10)
H36 H 0.7039 0.6757 0.6202
C28 C 0.5333(2) 0.7868(3) 0.64198(10)
H37 H 0.5682 0.8903 0.6395
C29 C 0.4016(3) 0.7626(3) 0.65722(12)
H38 H 0.3458 0.8498 0.6656
C30 C 0.3509(2) 0.6118(3) 0.66035(10)
H39 H 0.2602 0.5964 0.6707
O7 O 0.83908(14) 0.03316(18) 0.53816(7)
O8 O 0.69544(13) 0.14204(18) 0.60124(7)
N4 N 0.91922(17) 0.1796(2) 0.60927(8)
H40 H 0.993(2) 0.156(3) 0.5961(9)
C31 C 0.7278(2) -0.0397(3) 0.50809(11)
H41 H 0.6843 -0.1146 0.5339
H42 H 0.7603 -0.0952 0.4740
H43 H 0.6633 0.0410 0.4960
C32 C 0.80904(19) 0.1205(2) 0.58448(9)
C33 C 0.9162(2) 0.2770(2) 0.66051(9)
H44 H 0.8220 0.2765 0.6744
C34 C 1.0034(2) 0.2041(3) 0.70809(10)
H45 H 0.9678 0.1007 0.7182
H46 H 1.0031 0.2720 0.7423
H47 H 1.0952 0.1928 0.6945
C35 C 0.95261(18) 0.4468(2) 0.64811(9)
C36 C 0.9849(2) 0.4992(2) 0.59351(9)
H48 H 0.9876 0.4269 0.5623
C37 C 1.0136(2) 0.6574(3) 0.58386(11)
H49 H 1.0348 0.6920 0.5461
C38 C 1.0112(2) 0.7638(2) 0.62885(12)
H50 H 1.0314 0.8712 0.6223
C39 C 0.9795(2) 0.7123(3) 0.68291(12)
H51 H 0.9772 0.7851 0.7140
C40 C 0.9508(2) 0.5556(3) 0.69308(10)
H52 H 0.9296 0.5221 0.7310
loop_
_geom_bond_atom_site_label_1
_geom_bond_atom_site_label_2
_geom_bond_site_symmetry_1
_geom_bond_site_symmetry_2
O1 C1 1_555 1_555
O2 C2 1_555 1_555
N1 H1 1_555 1_555
C1 H2 1_555 1_555
H3 C1 1_555 1_555
H4 C1 1_555 1_555
C2 O1 1_555 1_555
C3 N1 1_555 1_555
H5 C3 1_555 1_555
C4 C3 1_555 1_555
H6 C4 1_555 1_555
H7 C4 1_555 1_555
H8 C4 1_555 1_555
C5 C3 1_555 1_555
C6 C5 1_555 1_555
H9 C6 1_555 1_555
C7 C6 1_555 1_555
H10 C7 1_555 1_555
C8 C7 1_555 1_555
H11 C8 1_555 1_555
C9 C8 1_555 1_555
H12 C9 1_555 1_555
C10 C5 1_555 1_555
H13 C10 1_555 1_555
O3 C11 1_555 1_555
O4 C12 1_555 1_555
N2 H14 1_555 1_555
C11 H15 1_555 1_555
H16 C11 1_555 1_555
H17 C11 1_555 1_555
C12 O3 1_555 1_555
C13 N2 1_555 1_555
H18 C13 1_555 1_555
C14 C13 1_555 1_555
H19 C14 1_555 1_555
H20 C14 1_555 1_555
H21 C14 1_555 1_555
C15 C13 1_555 1_555
C16 C15 1_555 1_555
H22 C16 1_555 1_555
C17 C16 1_555 1_555
H23 C17 1_555 1_555
C18 C17 1_555 1_555
H24 C18 1_555 1_555
C19 C18 1_555 1_555
H25 C19 1_555 1_555
C20 C15 1_555 1_555
H26 C20 1_555 1_555
O5 C21 1_555 1_555
O6 C22 1_555 1_555
N3 H27 1_555 1_555
C21 H28 1_555 1_555
H29 C21 1_555 1_555
H30 C21 1_555 1_555
C22 O5 1_555 1_555
C23 N3 1_555 1_555
H31 C23 1_555 1_555
C24 C23 1_555 1_555
H32 C24 1_555 1_555
H33 C24 1_555 1_555
H34 C24 1_555 1_555
C25 C23 1_555 1_555
C26 C25 1_555 1_555
H35 C26 1_555 1_555
C27 C26 1_555 1_555
H36 C27 1_555 1_555
C28 C27 1_555 1_555
H37 C28 1_555 1_555
C29 C28 1_555 1_555
H38 C29 1_555 1_555
C30 C25 1_555 1_555
H39 C30 1_555 1_555
O7 C31 1_555 1_555
O8 C32 1_555 1_555
N4 H40 1_555 1_555
C31 H41 1_555 1_555
H42 C31 1_555 1_555
H43 C31 1_555 1_555
C32 O7 1_555 1_555
C33 N4 1_555 1_555
H44 C33 1_555 1_555
C34 C33 1_555 1_555
H45 C34 1_555 1_555
H46 C34 1_555 1_555
H47 C34 1_555 1_555
C35 C33 1_555 1_555
C36 C35 1_555 1_555
H48 C36 1_555 1_555
C37 C36 1_555 1_555
H49 C37 1_555 1_555
C38 C37 1_555 1_555
H50 C38 1_555 1_555
C39 C38 1_555 1_555
H51 C39 1_555 1_555
C40 C35 1_555 1_555
H52 C40 1_555 1_555
N1 C2 1_555 1_555
C9 C10 1_555 1_555
N2 C12 1_555 1_555
C19 C20 1_555 1_555
N3 C22 1_555 1_555
C29 C30 1_555 1_555
N4 C32 1_555 1_555
C39 C40 1_555 1_555

#END
