
#######################################################################
#
#                 Cambridge Crystallographic Data Centre
#                                CCDC 
#
#######################################################################
#
# If this CIF has been generated from an entry in the Cambridge 
# Structural Database, then it will include bibliographic, chemical, 
# crystal, experimental, refinement or atomic coordinate data resulting 
# from the CCDC's data processing and validation procedures.
#
#######################################################################

data_PIMCUM
_chemical_name_common            '7-bromo-1-cyclopropyl-8-methyl-4-oxo-1,4 acid'
_chemical_formula_moiety         'C14 H12 Br1 N1 O3'
_chemical_name_systematic        
'7-bromo-1-cyclopropyl-8-methyl-4-oxo-1,4-dihydroquinoline-3-carboxylic acid'
_symmetry_cell_setting           triclinic
_symmetry_space_group_name_H-M   'P -1'
_symmetry_Int_Tables_number      2
_space_group_name_Hall           '-P 1'
loop_
_symmetry_equiv_pos_site_id
_symmetry_equiv_pos_as_xyz
1 x,y,z
2 -x,-y,-z
_cell_length_a                   8.4134(5)
_cell_length_b                   9.5365(6)
_cell_length_c                   9.6154(7)
_cell_angle_alpha                60.728(2)
_cell_angle_beta                 83.130(2)
_cell_angle_gamma                66.331(2)
_cell_volume                     613.518
_exptl_crystal_colour            colorless
_exptl_crystal_description       block
_cell_formula_units_Z            2
loop_
_atom_site_label
_atom_site_type_symbol
_atom_site_fract_x
_atom_site_fract_y
_atom_site_fract_z
Br1 Br 0.14206(5) 1.02473(4) 0.15304(4)
C1 C 0.2259(4) 0.4913(3) 0.9178(3)
H1 H 0.2088 0.3910 0.9922
C2 C 0.2661(3) 0.5808(3) 0.9744(3)
C3 C 0.3101(4) 0.7248(4) 0.8656(3)
C4 C 0.2831(3) 0.7821(3) 0.6958(3)
C5 C 0.2181(3) 0.6979(3) 0.6454(3)
C6 C 0.1596(3) 0.7751(3) 0.4819(3)
C7 C 0.1994(4) 0.9173(4) 0.3769(3)
C8 C 0.2778(4) 0.9933(4) 0.4227(4)
H2 H 0.3054 1.0862 0.3465
C9 C 0.3136(4) 0.9286(4) 0.5822(4)
H3 H 0.3589 0.9829 0.6155
C10 C 0.2114(4) 0.4070(4) 0.7235(3)
H4 H 0.0977 0.4155 0.6974
C11 C 0.3573(4) 0.3455(4) 0.6366(4)
H5 H 0.4448 0.3946 0.6099
H6 H 0.3320 0.3194 0.5582
C12 C 0.3505(4) 0.2272(4) 0.8082(4)
H7 H 0.4337 0.2046 0.8860
H8 H 0.3208 0.1293 0.8342
C13 C 0.2746(4) 0.5161(4) 1.1494(4)
C14 C 0.0465(4) 0.7212(4) 0.4252(4)
H9 H -0.0263 0.8200 0.3307
H10 H -0.0252 0.6793 0.5077
H11 H 0.1188 0.6298 0.4011
N1 N 0.2095(3) 0.5382(3) 0.7629(3)
O1 O 0.2275(3) 0.4029(3) 1.2444(3)
O2 O 0.3394(3) 0.5939(3) 1.1972(3)
H12 H 0.352(5) 0.678(5) 1.112(4)
O3 O 0.3649(3) 0.8020(3) 0.9109(3)
loop_
_geom_bond_atom_site_label_1
_geom_bond_atom_site_label_2
_geom_bond_site_symmetry_1
_geom_bond_site_symmetry_2
Br1 C7 1_555 1_555
C1 H1 1_555 1_555
C2 C1 1_555 1_555
C3 C2 1_555 1_555
C4 C3 1_555 1_555
C5 C4 1_555 1_555
C6 C5 1_555 1_555
C7 C6 1_555 1_555
C8 C7 1_555 1_555
H2 C8 1_555 1_555
C9 C4 1_555 1_555
H3 C9 1_555 1_555
C10 H4 1_555 1_555
C11 C10 1_555 1_555
H5 C11 1_555 1_555
H6 C11 1_555 1_555
C12 C10 1_555 1_555
H7 C12 1_555 1_555
H8 C12 1_555 1_555
C13 C2 1_555 1_555
C14 C6 1_555 1_555
H9 C14 1_555 1_555
H10 C14 1_555 1_555
H11 C14 1_555 1_555
N1 C1 1_555 1_555
O1 C13 1_555 1_555
O2 C13 1_555 1_555
H12 O2 1_555 1_555
O3 C3 1_555 1_555
C5 N1 1_555 1_555
C8 C9 1_555 1_555
C10 N1 1_555 1_555
C11 C12 1_555 1_555

#END
