
#######################################################################
#
#                 Cambridge Crystallographic Data Centre
#                                CCDC 
#
#######################################################################
#
# If this CIF has been generated from an entry in the Cambridge 
# Structural Database, then it will include bibliographic, chemical, 
# crystal, experimental, refinement or atomic coordinate data resulting 
# from the CCDC's data processing and validation procedures.
#
#######################################################################

data_PIMELA07
_chemical_formula_moiety         'C7 H12 O4'
_chemical_name_systematic        'Pimelic acid'
_symmetry_cell_setting           monoclinic
_symmetry_space_group_name_H-M   'C 2/c'
_symmetry_Int_Tables_number      15
_space_group_name_Hall           '-C 2yn'
loop_
_symmetry_equiv_pos_site_id
_symmetry_equiv_pos_as_xyz
1 x,y,z
2 -x,y,1/2-z
3 1/2+x,1/2+y,z
4 1/2-x,1/2+y,1/2-z
5 -x,-y,-z
6 x,-y,1/2+z
7 1/2-x,1/2-y,-z
8 1/2+x,1/2-y,1/2+z
_cell_length_a                   17.692(6)
_cell_length_b                   4.7069(16)
_cell_length_c                   9.626(3)
_cell_angle_alpha                90
_cell_angle_beta                 106.776(5)
_cell_angle_gamma                90
_cell_volume                     767.484
_exptl_crystal_colour            yellow
_exptl_crystal_description       needle
_cell_formula_units_Z            4
loop_
_atom_site_label
_atom_site_type_symbol
_atom_site_fract_x
_atom_site_fract_y
_atom_site_fract_z
O1 O 0.2424(1) 0.0487(2) 0.1124(1)
O2 O 0.1643(1) -0.3264(1) 0.0315(1)
C1 C 0.0000 0.0135(3) 0.2500
C2 C 0.0607(1) -0.1633(2) 0.2025(1)
C3 C 0.1232(1) 0.0314(2) 0.1733(1)
C4 C 0.1783(1) -0.1046(2) 0.1002(1)
H1 H 0.2696(12) -0.0090(40) 0.0590(30)
H2 H 0.0357(9) -0.2710(30) 0.1199(17)
H3 H 0.0270(9) 0.1380(30) 0.3312(16)
H4 H 0.0984(9) 0.1860(30) 0.1068(16)
H5 H 0.0864(8) -0.2960(30) 0.2776(15)
H6 H 0.1528(9) 0.1200(30) 0.2592(17)
C2A C -0.0607(1) -0.1633(2) 0.2975(1)
C3A C -0.1232(1) 0.0314(2) 0.3267(1)
C4A C -0.1783(1) -0.1046(2) 0.3998(1)
O1A O -0.2424(1) 0.0487(2) 0.3876(1)
H1A H -0.2696(12) -0.0090(40) 0.4410(30)
O2A O -0.1643(1) -0.3264(1) 0.4685(1)
H4A H -0.0984(9) 0.1860(30) 0.3932(16)
H6A H -0.1528(9) 0.1200(30) 0.2408(17)
H2A H -0.0357(9) -0.2710(30) 0.3801(17)
H5A H -0.0864(8) -0.2960(30) 0.2224(15)
H3A H -0.0270(9) 0.1380(30) 0.1688(16)
loop_
_geom_bond_atom_site_label_1
_geom_bond_atom_site_label_2
_geom_bond_site_symmetry_1
_geom_bond_site_symmetry_2
O1 C4 1_555 1_555
O2 C4 1_555 1_555
C1 C2 1_555 1_555
C2 C3 1_555 1_555
C3 C4 1_555 1_555
H1 O1 1_555 1_555
H2 C2 1_555 1_555
H3 C1 1_555 1_555
H4 C3 1_555 1_555
H5 C2 1_555 1_555
H6 C3 1_555 1_555
C2A C1 1_555 1_555
C3A C2A 1_555 1_555
C4A C3A 1_555 1_555
O1A C4A 1_555 1_555
H1A O1A 1_555 1_555
O2A C4A 1_555 1_555
H4A C3A 1_555 1_555
H6A C3A 1_555 1_555
H2A C2A 1_555 1_555
H5A C2A 1_555 1_555
H3A C1 1_555 1_555

#END
