
#######################################################################
#
#                 Cambridge Crystallographic Data Centre
#                                CCDC 
#
#######################################################################
#
# If this CIF has been generated from an entry in the Cambridge 
# Structural Database, then it will include bibliographic, chemical, 
# crystal, experimental, refinement or atomic coordinate data resulting 
# from the CCDC's data processing and validation procedures.
#
#######################################################################

data_PIMFEZ
_chemical_formula_moiety         'C17 H10 O1'
_chemical_name_systematic        pyrene-2-carbaldehyde
_symmetry_cell_setting           monoclinic
_symmetry_space_group_name_H-M   'P 21/c'
_symmetry_Int_Tables_number      14
_space_group_name_Hall           '-P 2ybc'
loop_
_symmetry_equiv_pos_site_id
_symmetry_equiv_pos_as_xyz
1 x,y,z
2 -x,1/2+y,1/2-z
3 -x,-y,-z
4 x,1/2-y,1/2+z
_cell_length_a                   8.1312(16)
_cell_length_b                   7.8252(16)
_cell_length_c                   17.231(3)
_cell_angle_alpha                90
_cell_angle_beta                 92.47(3)
_cell_angle_gamma                90
_cell_volume                     1095.36
_exptl_crystal_colour            yellow
_exptl_crystal_description       Block
_cell_formula_units_Z            4
loop_
_atom_site_label
_atom_site_type_symbol
_atom_site_fract_x
_atom_site_fract_y
_atom_site_fract_z
O1 O 0.9439(2) 0.2050(2) -0.10678(9)
C1 C 0.5362(3) 0.2907(2) -0.04617(12)
H1 H 0.5026 0.3529 -0.0900
C2 C 0.6942(3) 0.2235(2) -0.04090(12)
C3 C 0.7474(3) 0.1309(2) 0.02406(12)
H2 H 0.8537 0.0869 0.0269
C4 C 0.6443(3) 0.1027(2) 0.08490(11)
C5 C 0.6931(3) 0.0038(2) 0.15243(12)
H3 H 0.7988 -0.0418 0.1566
C6 C 0.5892(3) -0.0239(3) 0.20932(12)
H4 H 0.6252 -0.0880 0.2522
C7 C 0.4241(3) 0.0420(2) 0.20639(11)
C8 C 0.3144(3) 0.0129(3) 0.26496(13)
H5 H 0.3470 -0.0537 0.3076
C9 C 0.1562(3) 0.0824(3) 0.26035(14)
H6 H 0.0848 0.0638 0.3002
C10 C 0.1054(3) 0.1797(3) 0.19605(13)
H7 H -0.0002 0.2257 0.1936
C11 C 0.2095(3) 0.2094(2) 0.13542(13)
C12 C 0.1593(3) 0.3056(3) 0.06735(14)
H8 H 0.0533 0.3503 0.0631
C13 C 0.2631(3) 0.3320(3) 0.00954(13)
H9 H 0.2268 0.3947 -0.0338
C14 C 0.4269(3) 0.2667(2) 0.01291(12)
C15 C 0.4810(3) 0.1715(2) 0.07997(12)
C16 C 0.3715(3) 0.1419(2) 0.14055(11)
C17 C 0.8042(3) 0.2533(3) -0.10544(14)
H10 H 0.7620 0.3140 -0.1482
loop_
_geom_bond_atom_site_label_1
_geom_bond_atom_site_label_2
_geom_bond_site_symmetry_1
_geom_bond_site_symmetry_2
O1 C17 1_555 1_555
C1 H1 1_555 1_555
C2 C1 1_555 1_555
C3 C2 1_555 1_555
H2 C3 1_555 1_555
C4 C3 1_555 1_555
C5 C4 1_555 1_555
H3 C5 1_555 1_555
C6 C5 1_555 1_555
H4 C6 1_555 1_555
C7 C6 1_555 1_555
C8 C7 1_555 1_555
H5 C8 1_555 1_555
C9 C8 1_555 1_555
H6 C9 1_555 1_555
C10 C9 1_555 1_555
H7 C10 1_555 1_555
C11 C10 1_555 1_555
C12 C11 1_555 1_555
H8 C12 1_555 1_555
C13 C12 1_555 1_555
H9 C13 1_555 1_555
C14 C1 1_555 1_555
C15 C4 1_555 1_555
C16 C7 1_555 1_555
C17 C2 1_555 1_555
H10 C17 1_555 1_555
C11 C16 1_555 1_555
C13 C14 1_555 1_555
C14 C15 1_555 1_555
C15 C16 1_555 1_555

#END
