
#######################################################################
#
#                 Cambridge Crystallographic Data Centre
#                                CCDC 
#
#######################################################################
#
# If this CIF has been generated from an entry in the Cambridge 
# Structural Database, then it will include bibliographic, chemical, 
# crystal, experimental, refinement or atomic coordinate data resulting 
# from the CCDC's data processing and validation procedures.
#
#######################################################################

data_PIMHOL
_chemical_formula_moiety         'C17 H25 N5 O2 S2,0.5(C4 H8 O2)'
_chemical_name_systematic        
"N,N'-(6-phenyl-1,3,5-triazine-2,4-diyl)bis(2-methylpropane-2-sulfinamide) ethyl acetate solvate"
_symmetry_cell_setting           monoclinic
_symmetry_space_group_name_H-M   'P 21'
_symmetry_Int_Tables_number      4
_space_group_name_Hall           'P 2yb'
loop_
_symmetry_equiv_pos_site_id
_symmetry_equiv_pos_as_xyz
1 x,y,z
2 -x,1/2+y,-z
_cell_length_a                   11.9542(5)
_cell_length_b                   11.4057(5)
_cell_length_c                   17.2763(8)
_cell_angle_alpha                90
_cell_angle_beta                 96.3800(10)
_cell_angle_gamma                90
_cell_volume                     2340.97
_exptl_crystal_colour            colorless
_exptl_crystal_description       block
_cell_formula_units_Z            4
loop_
_atom_site_label
_atom_site_type_symbol
_atom_site_fract_x
_atom_site_fract_y
_atom_site_fract_z
S1 S 0.40769(5) 0.78248(6) 0.23155(4)
S2 S 0.89296(5) 0.39931(6) 0.13515(4)
O1 O 0.87458(19) 0.3043(2) 0.07720(12)
O2 O 0.38248(18) 0.7759(2) 0.31350(12)
N1 N 0.61810(19) 0.7383(2) 0.16220(13)
N2 N 0.61384(19) 0.5339(2) 0.19061(13)
N3 N 0.77421(19) 0.6182(2) 0.14149(14)
N4 N 0.4665(2) 0.6523(2) 0.21369(15)
H1 H 0.4287 0.5879 0.2212
N5 N 0.7682(2) 0.4212(2) 0.17092(15)
H2 H 0.7356 0.3622 0.1924
C1 C 0.7386(2) 0.9358(3) 0.11704(18)
H3 H 0.6739 0.9487 0.1432
C2 C 0.7924(3) 1.0297(3) 0.0864(2)
H4 H 0.7640 1.1069 0.0912
C3 C 0.8877(3) 1.0114(3) 0.0488(2)
H5 H 0.9245 1.0761 0.0279
C4 C 0.9290(3) 0.8998(3) 0.04158(18)
H6 H 0.9940 0.8877 0.0156
C5 C 0.8758(2) 0.8047(3) 0.07226(17)
H7 H 0.9051 0.7278 0.0678
C6 C 0.7795(2) 0.8223(2) 0.10949(15)
C7 C 0.7205(2) 0.7205(2) 0.13985(15)
C8 C 0.5705(2) 0.6422(2) 0.18811(15)
C9 C 0.7176(2) 0.5281(2) 0.16715(16)
C10 C 0.2725(3) 0.7653(3) 0.17097(17)
C11 C 0.3002(4) 0.7561(5) 0.0870(2)
H8 H 0.3503 0.8205 0.0761
H9 H 0.2305 0.7608 0.0515
H10 H 0.3375 0.6810 0.0797
C12 C 0.2108(3) 0.8793(4) 0.1831(3)
H11 H 0.1960 0.8852 0.2376
H12 H 0.1394 0.8805 0.1492
H13 H 0.2573 0.9457 0.1702
C13 C 0.2083(3) 0.6615(4) 0.1965(3)
H14 H 0.2500 0.5895 0.1884
H15 H 0.1343 0.6581 0.1658
H16 H 0.1986 0.6694 0.2518
C14 C 0.9727(3) 0.3355(3) 0.22198(19)
C15 C 1.0885(3) 0.3141(5) 0.1945(3)
H17 H 1.0818 0.2550 0.1531
H18 H 1.1408 0.2862 0.2383
H19 H 1.1168 0.3875 0.1745
C16 C 0.9213(3) 0.2210(4) 0.2450(2)
H20 H 0.8450 0.2354 0.2585
H21 H 0.9676 0.1876 0.2900
H22 H 0.9181 0.1658 0.2013
C17 C 0.9803(4) 0.4273(5) 0.2855(3)
H23 H 1.0045 0.5020 0.2648
H24 H 1.0350 0.4022 0.3288
H25 H 0.9063 0.4371 0.3041
S3 S 0.51085(5) 0.20116(5) 0.19187(3)
S4 S 0.23671(6) 0.60015(6) 0.46966(4)
O3 O 0.63326(16) 0.21359(18) 0.18538(12)
O4 O 0.16248(18) 0.6952(2) 0.43785(13)
N6 N 0.2794(2) 0.3762(2) 0.40077(13)
N7 N 0.35589(19) 0.2500(2) 0.31097(13)
N8 N 0.39602(19) 0.45497(19) 0.31038(13)
N9 N 0.3257(2) 0.5732(2) 0.40131(14)
H26 H 0.3674 0.6305 0.3860
N10 N 0.4738(2) 0.3315(2) 0.22706(14)
H27 H 0.4994 0.3953 0.2066
C18 C 0.1408(2) 0.1975(3) 0.44344(17)
H28 H 0.1279 0.2756 0.4592
C19 C 0.0760(3) 0.1064(3) 0.46787(19)
H29 H 0.0179 0.1221 0.4997
C20 C 0.0964(3) -0.0071(3) 0.4456(2)
H30 H 0.0520 -0.0693 0.4624
C21 C 0.1804(3) -0.0312(3) 0.3993(2)
H31 H 0.1944 -0.1098 0.3849
C22 C 0.2443(3) 0.0594(3) 0.37380(17)
H32 H 0.3014 0.0430 0.3412
C23 C 0.2249(2) 0.1742(2) 0.39578(16)
C24 C 0.2915(2) 0.2722(2) 0.36819(15)
C25 C 0.4062(2) 0.3445(2) 0.28556(15)
C26 C 0.3333(2) 0.4644(2) 0.36991(15)
C27 C 0.4399(2) 0.2135(3) 0.09162(16)
C28 C 0.3145(3) 0.2173(4) 0.0993(2)
H33 H 0.2952 0.1541 0.1338
H34 H 0.2721 0.2072 0.0478
H35 H 0.2954 0.2931 0.1211
C29 C 0.4718(3) 0.1009(4) 0.0521(2)
H36 H 0.5532 0.0996 0.0494
H37 H 0.4324 0.0974 -0.0007
H38 H 0.4503 0.0332 0.0821
C30 C 0.4811(3) 0.3208(3) 0.05165(18)
H39 H 0.4561 0.3917 0.0768
H40 H 0.4504 0.3205 -0.0034
H41 H 0.5635 0.3197 0.0556
C31 C 0.3405(3) 0.6655(3) 0.54442(18)
C32 C 0.4022(3) 0.7682(3) 0.5129(2)
H42 H 0.4505 0.7398 0.4746
H43 H 0.4485 0.8069 0.5558
H44 H 0.3474 0.8242 0.4879
C33 C 0.2672(4) 0.7051(5) 0.6066(2)
H45 H 0.2179 0.7691 0.5860
H46 H 0.3155 0.7326 0.6527
H47 H 0.2214 0.6391 0.6212
C34 C 0.4188(4) 0.5665(4) 0.5745(2)
H48 H 0.3740 0.4985 0.5871
H49 H 0.4659 0.5924 0.6215
H50 H 0.4669 0.5447 0.5344
O5 O 0.7875(2) 0.7031(3) 0.34262(15)
O6 O 0.8043(5) 0.8988(6) 0.3534(5)
C35 C 0.6573(4) 0.5825(6) 0.3969(3)
H51 H 0.6548 0.5364 0.3489
H52 H 0.5835 0.5799 0.4166
H53 H 0.7143 0.5497 0.4361
C36 C 0.6866(4) 0.7067(6) 0.3805(2)
H54 H 0.6248 0.7442 0.3462
H55 H 0.6992 0.7520 0.4295
C37 C 0.8379(4) 0.8076(4) 0.3325(2)
C38 C 0.9444(4) 0.7926(5) 0.2967(3)
H56 H 1.0050 0.7708 0.3371
H57 H 0.9637 0.8664 0.2723
H58 H 0.9348 0.7308 0.2572
loop_
_geom_bond_atom_site_label_1
_geom_bond_atom_site_label_2
_geom_bond_site_symmetry_1
_geom_bond_site_symmetry_2
S1 O2 1_555 1_555
S2 O1 1_555 1_555
N1 C7 1_555 1_555
N2 C8 1_555 1_555
N3 C7 1_555 1_555
N4 S1 1_555 1_555
H1 N4 1_555 1_555
N5 S2 1_555 1_555
H2 N5 1_555 1_555
C1 H3 1_555 1_555
C2 C1 1_555 1_555
H4 C2 1_555 1_555
C3 C2 1_555 1_555
H5 C3 1_555 1_555
C4 C3 1_555 1_555
H6 C4 1_555 1_555
C5 C4 1_555 1_555
H7 C5 1_555 1_555
C6 C1 1_555 1_555
C7 C6 1_555 1_555
C8 N1 1_555 1_555
C9 N2 1_555 1_555
C10 S1 1_555 1_555
C11 C10 1_555 1_555
H8 C11 1_555 1_555
H9 C11 1_555 1_555
H10 C11 1_555 1_555
C12 C10 1_555 1_555
H11 C12 1_555 1_555
H12 C12 1_555 1_555
H13 C12 1_555 1_555
C13 C10 1_555 1_555
H14 C13 1_555 1_555
H15 C13 1_555 1_555
H16 C13 1_555 1_555
C14 S2 1_555 1_555
C15 C14 1_555 1_555
H17 C15 1_555 1_555
H18 C15 1_555 1_555
H19 C15 1_555 1_555
C16 C14 1_555 1_555
H20 C16 1_555 1_555
H21 C16 1_555 1_555
H22 C16 1_555 1_555
C17 C14 1_555 1_555
H23 C17 1_555 1_555
H24 C17 1_555 1_555
H25 C17 1_555 1_555
S3 O3 1_555 1_555
S4 O4 1_555 1_555
N6 C24 1_555 1_555
N7 C24 1_555 1_555
N8 C25 1_555 1_555
N9 S4 1_555 1_555
H26 N9 1_555 1_555
N10 S3 1_555 1_555
H27 N10 1_555 1_555
C18 H28 1_555 1_555
C19 C18 1_555 1_555
H29 C19 1_555 1_555
C20 C19 1_555 1_555
H30 C20 1_555 1_555
C21 C20 1_555 1_555
H31 C21 1_555 1_555
C22 C21 1_555 1_555
H32 C22 1_555 1_555
C23 C18 1_555 1_555
C24 C23 1_555 1_555
C25 N7 1_555 1_555
C26 N6 1_555 1_555
C27 S3 1_555 1_555
C28 C27 1_555 1_555
H33 C28 1_555 1_555
H34 C28 1_555 1_555
H35 C28 1_555 1_555
C29 C27 1_555 1_555
H36 C29 1_555 1_555
H37 C29 1_555 1_555
H38 C29 1_555 1_555
C30 C27 1_555 1_555
H39 C30 1_555 1_555
H40 C30 1_555 1_555
H41 C30 1_555 1_555
C31 S4 1_555 1_555
C32 C31 1_555 1_555
H42 C32 1_555 1_555
H43 C32 1_555 1_555
H44 C32 1_555 1_555
C33 C31 1_555 1_555
H45 C33 1_555 1_555
H46 C33 1_555 1_555
H47 C33 1_555 1_555
C34 C31 1_555 1_555
H48 C34 1_555 1_555
H49 C34 1_555 1_555
H50 C34 1_555 1_555
O5 C36 1_555 1_555
O6 C37 1_555 1_555
C35 H51 1_555 1_555
H52 C35 1_555 1_555
H53 C35 1_555 1_555
C36 C35 1_555 1_555
H54 C36 1_555 1_555
H55 C36 1_555 1_555
C37 O5 1_555 1_555
C38 C37 1_555 1_555
H56 C38 1_555 1_555
H57 C38 1_555 1_555
H58 C38 1_555 1_555
N3 C9 1_555 1_555
N4 C8 1_555 1_555
N5 C9 1_555 1_555
C5 C6 1_555 1_555
N8 C26 1_555 1_555
N9 C26 1_555 1_555
N10 C25 1_555 1_555
C22 C23 1_555 1_555

#END
