
#######################################################################
#
#                 Cambridge Crystallographic Data Centre
#                                CCDC 
#
#######################################################################
#
# If this CIF has been generated from an entry in the Cambridge 
# Structural Database, then it will include bibliographic, chemical, 
# crystal, experimental, refinement or atomic coordinate data resulting 
# from the CCDC's data processing and validation procedures.
#
#######################################################################

data_PIMLAB
_chemical_formula_moiety         'C6 H8 N1 1+,C15 H9 O7 S1 1-,H2 O1'
_chemical_name_systematic        
'anilinium 5,7-dihydroxy-4-oxo-2-phenyl-4H-1-benzopyran-8-sulfonate monohydrate'
_symmetry_cell_setting           triclinic
_symmetry_space_group_name_H-M   'P -1'
_symmetry_Int_Tables_number      2
_space_group_name_Hall           '-P 1'
loop_
_symmetry_equiv_pos_site_id
_symmetry_equiv_pos_as_xyz
1 x,y,z
2 -x,-y,-z
_cell_length_a                   7.2884(9)
_cell_length_b                   11.9469(15)
_cell_length_c                   12.2002(16)
_cell_angle_alpha                95.862(2)
_cell_angle_beta                 106.659(2)
_cell_angle_gamma                93.189(2)
_cell_volume                     1008.38
_exptl_crystal_colour            colorless
_exptl_crystal_description       lamellar
_cell_formula_units_Z            2
loop_
_atom_site_label
_atom_site_type_symbol
_atom_site_fract_x
_atom_site_fract_y
_atom_site_fract_z
C1 C 0.1069(5) 0.6851(3) 0.3115(3)
C2 C 0.1640(5) 0.6420(3) 0.4170(3)
C3 C 0.1817(5) 0.7063(3) 0.5220(3)
C4 C 0.1423(5) 0.8205(3) 0.5198(3)
C5 C 0.0867(5) 0.8653(3) 0.4181(3)
H1 H 0.060127 0.940558 0.418188
C6 C 0.0695(5) 0.7997(3) 0.3146(3)
C7 C 0.2395(5) 0.6556(3) 0.6272(3)
C8 C 0.2754(5) 0.5395(3) 0.6149(3)
H2 H 0.310793 0.502506 0.680291
C9 C 0.2597(5) 0.4818(3) 0.5115(3)
C10 C 0.2940(5) 0.3637(3) 0.4846(3)
C11 C 0.3706(6) 0.2984(3) 0.5720(4)
H3 H 0.401398 0.330252 0.648496
C12 C 0.4016(6) 0.1869(4) 0.5469(5)
H4 H 0.451711 0.143870 0.606102
C13 C 0.3582(6) 0.1402(4) 0.4342(5)
H5 H 0.379658 0.065377 0.416899
C14 C 0.2830(6) 0.2033(3) 0.3464(4)
H6 H 0.253021 0.170897 0.270075
C15 C 0.2520(6) 0.3150(3) 0.3717(4)
H7 H 0.202463 0.357610 0.312001
O1 O 0.2821(4) 0.5702(2) 0.1859(2)
O2 O -0.0397(4) 0.4983(2) 0.1784(2)
O3 O 0.0125(4) 0.6659(2) 0.0912(2)
O4 O 0.1610(4) 0.8873(2) 0.6191(2)
H8 H 0.194411 0.850398 0.673523
O5 O 0.2547(4) 0.7112(2) 0.7236(2)
O6 O 0.2064(3) 0.53216(18) 0.41350(19)
O7 O 0.0169(5) 0.8521(2) 0.2201(2)
H9 H 0.021824 0.809650 0.164023
S1 S 0.08852(16) 0.59618(8) 0.18321(8)
C16 C 0.5162(7) 0.1776(4) 0.8906(4)
H10 H 0.436140 0.231456 0.859320
C17 C 0.4838(12) 0.0686(6) 0.8378(5)
H11 H 0.381979 0.048436 0.771074
C18 C 0.5949(16) -0.0055(7) 0.8811(9)
H12 H 0.569268 -0.079044 0.843834
C19 C 0.7491(11) 0.0167(6) 0.9787(9)
H13 H 0.827232 -0.039291 1.006386
C20 C 0.7843(7) 0.1304(5) 1.0363(5)
H14 H 0.884837 0.150441 1.103710
C21 C 0.6649(6) 0.2078(3) 0.9885(3)
N1 N 0.6928(5) 0.3246(3) 1.0418(3)
H15 H 0.750062 0.367098 1.003163
H16 H 0.766061 0.328763 1.114549
H17 H 0.579235 0.349399 1.040221
O8 O 0.3528(6) 0.3790(5) 0.0654(5)
H18 H 0.257(6) 0.378(8) 0.006(4)
H19 H 0.292(14) 0.415(8) 0.105(8)
loop_
_geom_bond_atom_site_label_1
_geom_bond_atom_site_label_2
_geom_bond_site_symmetry_1
_geom_bond_site_symmetry_2
C1 C2 1_555 1_555
C2 C3 1_555 1_555
C3 C4 1_555 1_555
C4 C5 1_555 1_555
C5 H1 1_555 1_555
C6 C1 1_555 1_555
C7 C3 1_555 1_555
C8 C7 1_555 1_555
H2 C8 1_555 1_555
C9 C8 1_555 1_555
C10 C9 1_555 1_555
C11 C10 1_555 1_555
H3 C11 1_555 1_555
C12 C11 1_555 1_555
H4 C12 1_555 1_555
C13 C12 1_555 1_555
H5 C13 1_555 1_555
C14 C13 1_555 1_555
H6 C14 1_555 1_555
C15 C10 1_555 1_555
H7 C15 1_555 1_555
O1 S1 1_555 1_555
O2 S1 1_555 1_555
O3 S1 1_555 1_555
O4 C4 1_555 1_555
H8 O4 1_555 1_555
O5 C7 1_555 1_555
O6 C2 1_555 1_555
O7 C6 1_555 1_555
H9 O7 1_555 1_555
S1 C1 1_555 1_555
C16 H10 1_555 1_555
C17 C16 1_555 1_555
H11 C17 1_555 1_555
C18 C17 1_555 1_555
H12 C18 1_555 1_555
C19 C18 1_555 1_555
H13 C19 1_555 1_555
C20 C19 1_555 1_555
H14 C20 1_555 1_555
C21 C16 1_555 1_555
N1 C21 1_555 1_555
H15 N1 1_555 1_555
H16 N1 1_555 1_555
H17 N1 1_555 1_555
O8 H18 1_555 1_555
H19 O8 1_555 1_555
C5 C6 1_555 1_555
C9 O6 1_555 1_555
C14 C15 1_555 1_555
C20 C21 1_555 1_555

#END
