
#######################################################################
#
#                 Cambridge Crystallographic Data Centre
#                                CCDC 
#
#######################################################################
#
# If this CIF has been generated from an entry in the Cambridge 
# Structural Database, then it will include bibliographic, chemical, 
# crystal, experimental, refinement or atomic coordinate data resulting 
# from the CCDC's data processing and validation procedures.
#
#######################################################################

data_PIMROU
_chemical_name_common            
11,12-bis(perfluoropropyl)-dibenz[a,c]phenazine
_chemical_formula_moiety         'C26 H10 F14 N2'
_chemical_name_systematic        
11,12-bis(heptafluoropropyl)dibenzo[a,c]phenazine
_symmetry_cell_setting           orthorhombic
_symmetry_space_group_name_H-M   'C c c a'
_symmetry_Int_Tables_number      68
_space_group_name_Hall           '-C 2b 2bc'
loop_
_symmetry_equiv_pos_site_id
_symmetry_equiv_pos_as_xyz
1 x,y,z
2 1/2-x,-y,z
3 1/2+x,-y,1/2-z
4 -x,y,1/2-z
5 1/2+x,1/2+y,z
6 -x,1/2-y,z
7 x,1/2-y,1/2-z
8 1/2-x,1/2+y,1/2-z
9 -x,-y,-z
10 1/2+x,y,-z
11 1/2-x,y,1/2+z
12 x,-y,1/2+z
13 1/2-x,1/2-y,-z
14 x,1/2+y,-z
15 -x,1/2+y,1/2+z
16 1/2+x,1/2-y,1/2+z
_cell_length_a                   16.966(4)
_cell_length_b                   38.644(10)
_cell_length_c                   6.9694(18)
_cell_angle_alpha                90
_cell_angle_beta                 90
_cell_angle_gamma                90
_cell_volume                     4569.38
_exptl_crystal_colour            yellow
_exptl_crystal_description       Needle
_cell_formula_units_Z            8
loop_
_atom_site_label
_atom_site_type_symbol
_atom_site_fract_x
_atom_site_fract_y
_atom_site_fract_z
F1 F 0.16606(7) 0.15380(3) 0.29573(19)
F2 F 0.04268(8) 0.17084(3) -0.08945(18)
F3 F 0.06675(7) 0.18813(3) 0.32672(18)
F4 F 0.16301(7) 0.15280(3) -0.0654(2)
F5 F 0.08323(9) 0.23365(3) 0.0332(2)
F6 F 0.20024(9) 0.21685(4) 0.0985(3)
F7 F 0.15898(11) 0.21586(4) -0.1927(3)
C1 C 0.04192(12) -0.05655(5) 0.2222(3)
C2 C 0.08156(12) -0.02502(5) 0.1937(3)
N1 N 0.08021(9) 0.03699(4) 0.1951(2)
C3 C 0.07948(12) 0.09877(5) 0.2073(3)
H1 H 0.1330 0.0988 0.1781
C4 C 0.04015(12) 0.06682(5) 0.2244(3)
C5 C 0.04061(11) 0.00779(5) 0.2210(3)
C6 C 0.16069(12) -0.02515(5) 0.1387(3)
H2 H 0.1864 -0.0042 0.1178
C7 C 0.10920(13) 0.17404(5) 0.0145(4)
C8 C 0.16297(13) -0.08660(6) 0.1459(3)
H3 H 0.1904 -0.1073 0.1315
C9 C 0.09413(12) 0.16142(5) 0.2208(3)
C10 C 0.08484(12) -0.08726(5) 0.1977(3)
H4 H 0.0600 -0.1084 0.2168
C11 C 0.20126(13) -0.05549(6) 0.1150(3)
H5 H 0.2540 -0.0552 0.0784
C12 C 0.04187(12) 0.12972(5) 0.2322(3)
C13 C 0.13859(16) 0.21097(6) -0.0103(4)
F1C F -0.16606(7) 0.15380(3) 0.20427(19)
F2C F -0.04268(8) 0.17084(3) 0.58945(18)
F3C F -0.06675(7) 0.18813(3) 0.17328(18)
F4C F -0.16301(7) 0.15280(3) 0.5654(2)
F5C F -0.08323(9) 0.23365(3) 0.4668(2)
F6C F -0.20024(9) 0.21685(4) 0.4015(3)
F7C F -0.15898(11) 0.21586(4) 0.6927(3)
C1C C -0.04192(12) -0.05655(5) 0.2778(3)
C2C C -0.08156(12) -0.02502(5) 0.3063(3)
N1C N -0.08021(9) 0.03699(4) 0.3049(2)
C3C C -0.07948(12) 0.09877(5) 0.2927(3)
H1C H -0.1330 0.0988 0.3219
C4C C -0.04015(12) 0.06682(5) 0.2756(3)
C5C C -0.04061(11) 0.00779(5) 0.2790(3)
C6C C -0.16069(12) -0.02515(5) 0.3613(3)
H2C H -0.1864 -0.0042 0.3822
C7C C -0.10920(13) 0.17404(5) 0.4855(4)
C8C C -0.16297(13) -0.08660(6) 0.3541(3)
H3C H -0.1904 -0.1073 0.3685
C9C C -0.09413(12) 0.16142(5) 0.2792(3)
C10C C -0.08484(12) -0.08726(5) 0.3023(3)
H4C H -0.0600 -0.1084 0.2832
C11C C -0.20126(13) -0.05549(6) 0.3850(3)
H5C H -0.2540 -0.0552 0.4216
C12C C -0.04187(12) 0.12972(5) 0.2678(3)
C13C C -0.13859(16) 0.21097(6) 0.5103(4)
loop_
_geom_bond_atom_site_label_1
_geom_bond_atom_site_label_2
_geom_bond_site_symmetry_1
_geom_bond_site_symmetry_2
F1 C9 1_555 1_555
F2 C7 1_555 1_555
F3 C9 1_555 1_555
F4 C7 1_555 1_555
F5 C13 1_555 1_555
F6 C13 1_555 1_555
F7 C13 1_555 1_555
C1 C2 1_555 1_555
C2 C5 1_555 1_555
N1 C4 1_555 1_555
C3 H1 1_555 1_555
C4 C3 1_555 1_555
C5 N1 1_555 1_555
C6 C2 1_555 1_555
H2 C6 1_555 1_555
C7 C9 1_555 1_555
C8 H3 1_555 1_555
C9 C12 1_555 1_555
C10 C1 1_555 1_555
H4 C10 1_555 1_555
C11 C6 1_555 1_555
H5 C11 1_555 1_555
C12 C3 1_555 1_555
C13 C7 1_555 1_555
F1C C9C 1_555 1_555
F2C C7C 1_555 1_555
F3C C9C 1_555 1_555
F4C C7C 1_555 1_555
F5C C13C 1_555 1_555
F6C C13C 1_555 1_555
F7C C13C 1_555 1_555
C1C C1 1_555 1_555
C2C C1C 1_555 1_555
N1C C4C 1_555 1_555
C3C H1C 1_555 1_555
C4C C4 1_555 1_555
C5C C5 1_555 1_555
C6C C2C 1_555 1_555
H2C C6C 1_555 1_555
C7C C9C 1_555 1_555
C8C H3C 1_555 1_555
C9C C12C 1_555 1_555
C10C C1C 1_555 1_555
H4C C10C 1_555 1_555
C11C C6C 1_555 1_555
H5C C11C 1_555 1_555
C12C C12 1_555 1_555
C13C C7C 1_555 1_555
C8 C10 1_555 1_555
C8 C11 1_555 1_555
C2C C5C 1_555 1_555
N1C C5C 1_555 1_555
C3C C4C 1_555 1_555
C3C C12C 1_555 1_555
C8C C10C 1_555 1_555
C8C C11C 1_555 1_555

#END
