
#######################################################################
#
#                 Cambridge Crystallographic Data Centre
#                                CCDC 
#
#######################################################################
#
# If this CIF has been generated from an entry in the Cambridge 
# Structural Database, then it will include bibliographic, chemical, 
# crystal, experimental, refinement or atomic coordinate data resulting 
# from the CCDC's data processing and validation procedures.
#
#######################################################################

data_PIMSIQ
_chemical_formula_moiety         'C27 H21 N3 O2,C1 H2 Cl2'
_chemical_name_systematic        
'1^2^,3^2^-dimethyl-2^3^-oxo-1^1^H,3^1^H-[1^3^,2^2^:2^2^,3^3^-terindole]-2^1^(2^3^H)-carbaldehyde dichloromethane solvate'
_symmetry_cell_setting           triclinic
_symmetry_space_group_name_H-M   'P -1'
_symmetry_Int_Tables_number      2
_space_group_name_Hall           '-P 1'
loop_
_symmetry_equiv_pos_site_id
_symmetry_equiv_pos_as_xyz
1 x,y,z
2 -x,-y,-z
_cell_length_a                   9.1731(9)
_cell_length_b                   12.2931(11)
_cell_length_c                   12.4614(12)
_cell_angle_alpha                64.335(2)
_cell_angle_beta                 84.712(3)
_cell_angle_gamma                79.181(3)
_cell_volume                     1243.98
_exptl_crystal_colour            'light yellow'
_exptl_crystal_description       block
_cell_formula_units_Z            2
loop_
_atom_site_label
_atom_site_type_symbol
_atom_site_fract_x
_atom_site_fract_y
_atom_site_fract_z
O1 O 0.7786(3) 0.3542(3) 0.0268(3)
O2 O 0.4016(3) -0.0059(2) 0.2770(2)
N1 N 0.6063(3) 0.2288(2) 0.1073(2)
N2 N 0.0933(3) 0.3277(3) 0.0607(3)
H1 H -0.0018 0.3374 0.0677
C1 C 0.4792(4) 0.2156(3) 0.2953(3)
C2 C 0.4014(4) 0.3120(3) 0.3250(3)
C3 C 0.3010(4) 0.4200(4) 0.2680(4)
H2 H 0.2671 0.4412 0.1923
C4 C 0.2531(5) 0.4941(4) 0.3252(4)
H3 H 0.1861 0.5657 0.2875
C5 C 0.3026(6) 0.4646(5) 0.4384(5)
H4 H 0.2680 0.5166 0.4748
C6 C 0.4012(6) 0.3602(5) 0.4968(4)
H5 H 0.4332 0.3396 0.5729
C7 C 0.4513(4) 0.2868(4) 0.4388(3)
C8 C 0.5909(4) 0.0385(3) 0.1245(4)
C9 C 0.6305(5) -0.0648(4) 0.1014(5)
H6 H 0.5823 -0.1321 0.1400
C10 C 0.7425(6) -0.0643(5) 0.0200(5)
H7 H 0.7707 -0.1319 0.0031
C11 C 0.8129(5) 0.0354(5) -0.0364(5)
H8 H 0.8877 0.0337 -0.0917
C12 C 0.7776(4) 0.1382(4) -0.0146(4)
H9 H 0.8272 0.2046 -0.0531
C13 C 0.6636(4) 0.1378(3) 0.0681(3)
C14 C 0.3224(3) 0.3418(3) -0.0175(3)
C15 C 0.4213(4) 0.3809(3) -0.1144(3)
H10 H 0.5232 0.3581 -0.1027
C16 C 0.3659(5) 0.4536(3) -0.2275(3)
H11 H 0.4316 0.4782 -0.2917
C17 C 0.2143(5) 0.4908(4) -0.2473(4)
H12 H 0.1806 0.5419 -0.3240
C18 C 0.1143(5) 0.4537(4) -0.1561(4)
H13 H 0.0127 0.4775 -0.1695
C19 C 0.1691(4) 0.3790(3) -0.0427(3)
C20 C 0.6663(4) 0.3287(3) 0.0853(3)
H14 H 0.6183 0.3819 0.1173
C21 C 0.4782(4) 0.0627(3) 0.2060(3)
C22 C 0.4708(4) 0.1988(3) 0.1826(3)
C23 C 0.3318(3) 0.2665(3) 0.1092(3)
C24 C 0.1894(4) 0.2586(3) 0.1521(3)
C25 C 0.1259(5) 0.1914(4) 0.2735(4)
H15 H 0.0195 0.2079 0.2700
H16 H 0.1579 0.2182 0.3279
H17 H 0.1597 0.1051 0.3002
N3 N 0.5549(4) 0.1828(3) 0.4732(3)
H18 H 0.6016 0.1491 0.5396
C26 C 0.5741(4) 0.1399(3) 0.3873(3)
C27 C 0.6897(5) 0.0319(4) 0.4024(4)
H19 H 0.7355 0.0006 0.4786
H20 H 0.7636 0.0558 0.3406
H21 H 0.6447 -0.0304 0.3978
Cl1 Cl 0.0864(3) 0.2275(3) 0.7026(2)
Cl2 Cl -0.0976(3) 0.1920(3) 0.5534(3)
C28 C 0.0388(8) 0.2640(8) 0.5607(7)
H22 H 0.0065 0.3517 0.5203
H23 H 0.1259 0.2429 0.5188
loop_
_geom_bond_atom_site_label_1
_geom_bond_atom_site_label_2
_geom_bond_site_symmetry_1
_geom_bond_site_symmetry_2
O1 C20 1_555 1_555
O2 C21 1_555 1_555
N1 C13 1_555 1_555
N2 H1 1_555 1_555
C1 C2 1_555 1_555
C2 C3 1_555 1_555
C3 H2 1_555 1_555
C4 C3 1_555 1_555
H3 C4 1_555 1_555
C5 C4 1_555 1_555
H4 C5 1_555 1_555
C6 C5 1_555 1_555
H5 C6 1_555 1_555
C7 C2 1_555 1_555
C8 C9 1_555 1_555
C9 H6 1_555 1_555
C10 C9 1_555 1_555
H7 C10 1_555 1_555
C11 C10 1_555 1_555
H8 C11 1_555 1_555
C12 C11 1_555 1_555
H9 C12 1_555 1_555
C13 C8 1_555 1_555
C14 C15 1_555 1_555
C15 H10 1_555 1_555
C16 C15 1_555 1_555
H11 C16 1_555 1_555
C17 C16 1_555 1_555
H12 C17 1_555 1_555
C18 C17 1_555 1_555
H13 C18 1_555 1_555
C19 N2 1_555 1_555
C20 N1 1_555 1_555
H14 C20 1_555 1_555
C21 C8 1_555 1_555
C22 N1 1_555 1_555
C23 C14 1_555 1_555
C24 N2 1_555 1_555
C25 C24 1_555 1_555
H15 C25 1_555 1_555
H16 C25 1_555 1_555
H17 C25 1_555 1_555
N3 C7 1_555 1_555
H18 N3 1_555 1_555
C26 C1 1_555 1_555
C27 C26 1_555 1_555
H19 C27 1_555 1_555
H20 C27 1_555 1_555
H21 C27 1_555 1_555
Cl1 C28 1_555 1_555
Cl2 C28 1_555 1_555
C28 H22 1_555 1_555
H23 C28 1_555 1_555
C1 C22 1_555 1_555
C6 C7 1_555 1_555
C12 C13 1_555 1_555
C14 C19 1_555 1_555
C18 C19 1_555 1_555
C21 C22 1_555 1_555
C22 C23 1_555 1_555
C23 C24 1_555 1_555
N3 C26 1_555 1_555

#END
