
#######################################################################
#
#                 Cambridge Crystallographic Data Centre
#                                CCDC 
#
#######################################################################
#
# If this CIF has been generated from an entry in the Cambridge 
# Structural Database, then it will include bibliographic, chemical, 
# crystal, experimental, refinement or atomic coordinate data resulting 
# from the CCDC's data processing and validation procedures.
#
#######################################################################

data_PIMSAI
_chemical_formula_moiety         'C36 H40 O8,2(C6 Cl4 O2),2(C1 H2 Cl2)'
_chemical_name_systematic        
'2,3,7,8,12,13,17,18-octamethoxy-5,10,15,20-tetrahydrotetrabenzo[a,d,g,j][12]annulene 2,3,5,6-tetrachlorocyclohexa-2,5-diene-1,4-dion dichloromethane solvate'
_symmetry_cell_setting           triclinic
_symmetry_space_group_name_H-M   'P -1'
_symmetry_Int_Tables_number      2
_space_group_name_Hall           '-P 1'
loop_
_symmetry_equiv_pos_site_id
_symmetry_equiv_pos_as_xyz
1 x,y,z
2 -x,-y,-z
_cell_length_a                   9.0593(2)
_cell_length_b                   12.1761(2)
_cell_length_c                   12.5506(2)
_cell_angle_alpha                74.4930(10)
_cell_angle_beta                 89.5790(10)
_cell_angle_gamma                84.4840(10)
_cell_volume                     1327.6
_exptl_crystal_colour            'dark red'
_exptl_crystal_description       block
_cell_formula_units_Z            1
loop_
_atom_site_label
_atom_site_type_symbol
_atom_site_fract_x
_atom_site_fract_y
_atom_site_fract_z
Cl1 Cl 0.26810(4) 0.16224(3) 0.33056(3)
Cl2 Cl 0.60008(4) 0.10598(3) 0.25758(3)
O1 O 0.22476(12) 0.04832(9) 0.56137(9)
C1 C 0.34948(17) 0.02573(12) 0.53324(13)
C2 C 0.39952(17) 0.07434(12) 0.41819(13)
C3 C 0.53833(18) 0.05119(13) 0.38824(13)
Cl1A Cl 0.73190(4) -0.16224(3) 0.66944(3)
Cl2A Cl 0.39992(4) -0.10598(3) 0.74242(3)
O1A O 0.77524(12) -0.04832(9) 0.43863(9)
C1A C 0.65052(17) -0.02573(12) 0.46676(13)
C2A C 0.60048(17) -0.07434(12) 0.58181(13)
C3A C 0.46167(18) -0.05119(13) 0.61176(13)
Cl3 Cl 0.24573(4) 0.60452(3) 0.10583(3)
Cl4 Cl 0.09833(5) 0.73870(3) -0.12880(3)
O2 O 0.12980(13) 0.38435(9) 0.19195(9)
C4 C 0.06983(17) 0.43742(13) 0.10538(13)
C5 C 0.11265(17) 0.55214(13) 0.04287(13)
C6 C 0.04998(18) 0.60840(13) -0.05421(13)
Cl3A Cl -0.24573(4) 0.39548(3) -0.10583(3)
Cl4A Cl -0.09833(5) 0.26130(3) 0.12880(3)
O2A O -0.12980(13) 0.61565(9) -0.19195(9)
C4A C -0.06983(17) 0.56258(13) -0.10538(13)
C5A C -0.11265(17) 0.44786(13) -0.04287(13)
C6A C -0.04998(18) 0.39160(13) 0.05421(13)
O3 O 0.26562(12) -0.19356(9) 0.50338(9)
O4 O 0.51062(12) -0.20365(9) 0.39709(9)
O5 O -0.31522(12) -0.36575(9) 0.02793(9)
O6 O -0.13060(12) -0.42518(9) 0.19584(9)
C7 C 0.25302(17) -0.04719(13) 0.03245(12)
C8 C 0.25053(17) -0.07876(12) 0.15840(12)
C9 C 0.11964(17) -0.06987(12) 0.21616(13)
C10 C 0.12297(17) -0.10708(12) 0.33177(13)
C11 C 0.25301(17) -0.15368(12) 0.39046(12)
C12 C 0.38556(17) -0.16079(12) 0.33251(13)
C13 C 0.38258(17) -0.12390(12) 0.21794(13)
C14 C 0.12943(19) -0.20410(16) 0.56220(14)
C15 C 0.63988(18) -0.23432(15) 0.34108(14)
C16 C -0.02772(17) -0.02403(13) 0.15740(13)
C17 C -0.10604(16) -0.11100(13) 0.11630(12)
C18 C -0.20871(16) -0.07805(12) 0.02828(12)
C19 C -0.27877(17) -0.16278(13) -0.00308(13)
C20 C -0.25123(16) -0.27784(13) 0.05294(12)
C21 C -0.15041(16) -0.31002(12) 0.14290(12)
C22 C -0.07782(17) -0.22740(13) 0.17159(12)
C23 C -0.42932(19) -0.33436(14) -0.05572(14)
C24 C -0.0624(2) -0.45694(14) 0.30394(13)
H1 H 0.352(2) -0.0682(16) 0.0101(15)
H2 H 0.193(2) -0.0953(16) 0.0052(15)
H3 H 0.037(2) -0.0998(15) 0.3696(15)
H4 H 0.470(2) -0.1301(14) 0.1779(14)
H5 H 0.157(2) -0.2431(17) 0.6375(18)
H6 H 0.078(2) -0.1313(18) 0.5586(16)
H7 H 0.065(2) -0.2492(17) 0.5336(17)
H8 H 0.620(2) -0.2911(17) 0.3016(16)
H9 H 0.714(2) -0.2645(17) 0.3968(17)
H10 H 0.675(2) -0.1685(17) 0.2893(16)
H11 H -0.0133(19) 0.0410(15) 0.0948(15)
H12 H -0.093(2) 0.0017(15) 0.2083(15)
H13 H -0.342(2) -0.1410(15) -0.0634(15)
H14 H -0.011(2) -0.2500(15) 0.2319(16)
H15 H -0.469(2) -0.4042(17) -0.0596(15)
H16 H -0.507(2) -0.2837(17) -0.0382(16)
H17 H -0.392(2) -0.2991(16) -0.1266(16)
H18 H -0.067(2) -0.5372(18) 0.3330(16)
H19 H 0.041(2) -0.4449(16) 0.3022(16)
H20 H -0.114(2) -0.4178(17) 0.3526(17)
O3A O -0.26562(12) 0.19356(9) -0.50338(9)
O4A O -0.51062(12) 0.20365(9) -0.39709(9)
O5A O 0.31522(12) 0.36575(9) -0.02793(9)
O6A O 0.13060(12) 0.42518(9) -0.19584(9)
C7A C -0.25302(17) 0.04719(13) -0.03245(12)
C8A C -0.25053(17) 0.07876(12) -0.15840(12)
C9A C -0.11964(17) 0.06987(12) -0.21616(13)
C10A C -0.12297(17) 0.10708(12) -0.33177(13)
C11A C -0.25301(17) 0.15368(12) -0.39046(12)
C12A C -0.38556(17) 0.16079(12) -0.33251(13)
C13A C -0.38258(17) 0.12390(12) -0.21794(13)
C14A C -0.12943(19) 0.20410(16) -0.56220(14)
C15A C -0.63988(18) 0.23432(15) -0.34108(14)
C16A C 0.02772(17) 0.02403(13) -0.15740(13)
C17A C 0.10604(16) 0.11100(13) -0.11630(12)
C18A C 0.20871(16) 0.07805(12) -0.02828(12)
C19A C 0.27877(17) 0.16278(13) 0.00308(13)
C20A C 0.25123(16) 0.27784(13) -0.05294(12)
C21A C 0.15041(16) 0.31002(12) -0.14290(12)
C22A C 0.07782(17) 0.22740(13) -0.17159(12)
C23A C 0.42932(19) 0.33436(14) 0.05572(14)
C24A C 0.0624(2) 0.45694(14) -0.30394(13)
H1A H -0.352(2) 0.0682(16) -0.0101(15)
H2A H -0.193(2) 0.0953(16) -0.0052(15)
H3A H -0.037(2) 0.0998(15) -0.3696(15)
H4A H -0.470(2) 0.1301(14) -0.1779(14)
H5A H -0.157(2) 0.2431(17) -0.6375(18)
H6A H -0.078(2) 0.1313(18) -0.5586(16)
H7A H -0.065(2) 0.2492(17) -0.5336(17)
H8A H -0.620(2) 0.2911(17) -0.3016(16)
H9A H -0.714(2) 0.2645(17) -0.3968(17)
H10A H -0.675(2) 0.1685(17) -0.2893(16)
H11A H 0.0133(19) -0.0410(15) -0.0948(15)
H12A H 0.093(2) -0.0017(15) -0.2083(15)
H13A H 0.342(2) 0.1410(15) 0.0634(15)
H14A H 0.011(2) 0.2500(15) -0.2319(16)
H15A H 0.469(2) 0.4042(17) 0.0596(15)
H16A H 0.507(2) 0.2837(17) 0.0382(16)
H17A H 0.392(2) 0.2991(16) 0.1266(16)
H18A H 0.067(2) 0.5372(18) -0.3330(16)
H19A H -0.041(2) 0.4449(16) -0.3022(16)
H20A H 0.114(2) 0.4178(17) -0.3526(17)
Cl5 Cl 0.66333(5) -0.53293(4) 0.58622(4)
Cl6 Cl 0.42590(5) -0.46913(4) 0.72420(4)
C25 C 0.5704(2) -0.42021(16) 0.63426(16)
H21 H 0.526(2) -0.3636(18) 0.5708(18)
H22 H 0.639(2) -0.3925(18) 0.6770(17)
loop_
_geom_bond_atom_site_label_1
_geom_bond_atom_site_label_2
_geom_bond_site_symmetry_1
_geom_bond_site_symmetry_2
Cl1 C2 1_555 1_555
Cl2 C3 1_555 1_555
O1 C1 1_555 1_555
C1 C2 1_555 1_555
C2 C3 1_555 1_555
C3 C1A 1_555 1_555
Cl3 C5 1_555 1_555
Cl4 C6 1_555 1_555
O2 C4 1_555 1_555
C4 C5 1_555 1_555
C5 C6 1_555 1_555
C6 C4A 1_555 1_555
O3 C11 1_555 1_555
O4 C12 1_555 1_555
O5 C20 1_555 1_555
O6 C21 1_555 1_555
C7 C8 1_555 1_555
C8 C9 1_555 1_555
C9 C10 1_555 1_555
C10 C11 1_555 1_555
C11 C12 1_555 1_555
C12 C13 1_555 1_555
C13 C8 1_555 1_555
C14 O3 1_555 1_555
C15 O4 1_555 1_555
C16 C9 1_555 1_555
C17 C16 1_555 1_555
C18 C17 1_555 1_555
C19 C18 1_555 1_555
C20 C19 1_555 1_555
C21 C20 1_555 1_555
C22 C17 1_555 1_555
C23 O5 1_555 1_555
C24 O6 1_555 1_555
H1 C7 1_555 1_555
H2 C7 1_555 1_555
H3 C10 1_555 1_555
H4 C13 1_555 1_555
H5 C14 1_555 1_555
H6 C14 1_555 1_555
H7 C14 1_555 1_555
H8 C15 1_555 1_555
H9 C15 1_555 1_555
H10 C15 1_555 1_555
H11 C16 1_555 1_555
H12 C16 1_555 1_555
H13 C19 1_555 1_555
H14 C22 1_555 1_555
H15 C23 1_555 1_555
H16 C23 1_555 1_555
H17 C23 1_555 1_555
H18 C24 1_555 1_555
H19 C24 1_555 1_555
H20 C24 1_555 1_555
Cl5 C25 1_555 1_555
Cl6 C25 1_555 1_555
C25 H21 1_555 1_555
H22 C25 1_555 1_555
Cl1A C2A 1_555 1_555
Cl2A C3A 1_555 1_555
O1A C1A 1_555 1_555
C1A C2A 1_555 1_555
C2A C3A 1_555 1_555
C3A C1 1_555 1_555
Cl3A C5A 1_555 1_555
Cl4A C6A 1_555 1_555
O2A C4A 1_555 1_555
C4A C5A 1_555 1_555
C5A C6A 1_555 1_555
C6A C4 1_555 1_555
O3A C11A 1_555 1_555
O4A C12A 1_555 1_555
O5A C20A 1_555 1_555
O6A C21A 1_555 1_555
C7A C18 1_555 1_555
C8A C7A 1_555 1_555
C9A C8A 1_555 1_555
C10A C9A 1_555 1_555
C11A C10A 1_555 1_555
C12A C11A 1_555 1_555
C13A C8A 1_555 1_555
C14A O3A 1_555 1_555
C15A O4A 1_555 1_555
C16A C9A 1_555 1_555
C17A C16A 1_555 1_555
C18A C7 1_555 1_555
C19A C18A 1_555 1_555
C20A C19A 1_555 1_555
C21A C20A 1_555 1_555
C22A C17A 1_555 1_555
C23A O5A 1_555 1_555
C24A O6A 1_555 1_555
H1A C7A 1_555 1_555
H2A C7A 1_555 1_555
H3A C10A 1_555 1_555
H4A C13A 1_555 1_555
H5A C14A 1_555 1_555
H6A C14A 1_555 1_555
H7A C14A 1_555 1_555
H8A C15A 1_555 1_555
H9A C15A 1_555 1_555
H10A C15A 1_555 1_555
H11A C16A 1_555 1_555
H12A C16A 1_555 1_555
H13A C19A 1_555 1_555
H14A C22A 1_555 1_555
H15A C23A 1_555 1_555
H16A C23A 1_555 1_555
H17A C23A 1_555 1_555
H18A C24A 1_555 1_555
H19A C24A 1_555 1_555
H20A C24A 1_555 1_555
C21 C22 1_555 1_555
C12A C13A 1_555 1_555
C17A C18A 1_555 1_555
C21A C22A 1_555 1_555

#END
