
#######################################################################
#
#                 Cambridge Crystallographic Data Centre
#                                CCDC 
#
#######################################################################
#
# If this CIF has been generated from an entry in the Cambridge 
# Structural Database, then it will include bibliographic, chemical, 
# crystal, experimental, refinement or atomic coordinate data resulting 
# from the CCDC's data processing and validation procedures.
#
#######################################################################

data_PIMSAH
_chemical_name_common            
11,12-bis(perfluorohexyl)-dibenz[a,c]phenazine
_chemical_formula_moiety         'C32 H10 F26 N2'
_chemical_name_systematic        
11,12-bis(tridecafluorohexyl)dibenzo[a,c]phenazine
_symmetry_cell_setting           orthorhombic
_symmetry_space_group_name_H-M   'P b c a'
_symmetry_Int_Tables_number      61
_space_group_name_Hall           '-P 2ac 2ab'
loop_
_symmetry_equiv_pos_site_id
_symmetry_equiv_pos_as_xyz
1 x,y,z
2 1/2-x,-y,1/2+z
3 1/2+x,1/2-y,-z
4 -x,1/2+y,1/2-z
5 -x,-y,-z
6 1/2+x,y,1/2-z
7 1/2-x,1/2+y,z
8 x,1/2-y,1/2+z
_cell_length_a                   7.5302(8)
_cell_length_b                   18.595(2)
_cell_length_c                   45.450(5)
_cell_angle_alpha                90
_cell_angle_beta                 90
_cell_angle_gamma                90
_cell_volume                     6364.09
_exptl_crystal_colour            yellow
_exptl_crystal_description       Needle
_cell_formula_units_Z            8
loop_
_atom_site_label
_atom_site_type_symbol
_atom_site_fract_x
_atom_site_fract_y
_atom_site_fract_z
F1 F 1.0746(3) 0.05220(14) 0.62412(5)
F2 F 0.8210(3) 0.11252(13) 0.58643(5)
F3 F 0.4374(3) 0.08175(13) 0.60255(5)
F4 F 0.7095(3) -0.00146(12) 0.60842(6)
F5 F 0.6103(3) 0.16877(14) 0.54088(5)
F6 F 0.4109(3) 0.19573(14) 0.59412(5)
F7 F 0.9187(3) -0.12008(13) 0.60882(5)
F8 F 0.7235(3) -0.04764(13) 0.65208(5)
F9 F 1.0545(3) -0.03189(13) 0.65730(5)
F10 F 0.7347(3) 0.22184(14) 0.59343(5)
F11 F 1.2172(3) -0.15199(14) 0.63008(5)
F12 F 1.3368(3) -0.04866(14) 0.62031(6)
F13 F 1.1682(4) -0.16461(14) 0.56681(6)
F14 F 1.0216(3) -0.03402(13) 0.58101(5)
F15 F 0.5638(3) 0.05518(14) 0.55009(5)
F16 F 0.1961(4) 0.10097(14) 0.56023(6)
F17 F 1.4066(3) -0.24198(14) 0.59598(6)
F18 F 1.5755(4) -0.15109(15) 0.60234(8)
F19 F 0.2772(3) 0.19918(15) 0.53788(5)
F20 F 0.2808(4) 0.02067(16) 0.51581(6)
F21 F 1.3509(4) -0.07377(14) 0.56420(6)
F22 F 0.4327(4) 0.10495(16) 0.49449(6)
F23 F 0.1395(4) 0.18024(19) 0.48411(6)
F24 F 1.5286(4) -0.19302(16) 0.55869(7)
N1 N 0.7351(5) 0.1379(2) 0.72562(10)
F25 F -0.0194(5) 0.10988(19) 0.51103(8)
N2 N 0.6370(5) 0.2657(2) 0.69584(10)
F26 F 0.1023(5) 0.07005(19) 0.47183(8)
C1 C 0.5908(6) 0.3251(3) 0.74222(12)
C2 C 0.4974(6) 0.4498(3) 0.74312(12)
H1 H 0.4662 0.4918 0.7333
C3 C 0.7116(6) 0.1441(3) 0.63397(10)
C4 C 0.5417(6) 0.3851(3) 0.78810(12)
H2 H 0.5392 0.3847 0.8086
C5 C 0.6922(6) 0.1971(3) 0.74004(10)
C6 C 0.6962(6) 0.1947(3) 0.77220(10)
C7 C 0.6801(6) 0.2046(3) 0.68117(11)
C8 C 0.7509(6) 0.1329(3) 0.78689(12)
H3 H 0.7890 0.0933 0.7761
C9 C 0.5894(6) 0.3221(3) 0.77313(12)
C10 C 0.6352(6) 0.2490(3) 0.81910(12)
H4 H 0.5937 0.2873 0.8303
C11 C 0.7512(6) 0.0782(2) 0.64915(11)
C12 C 0.7278(6) 0.1411(3) 0.69593(12)
C13 C 0.6400(6) 0.2554(3) 0.78822(11)
C14 C 0.9898(6) -0.0094(3) 0.63094(10)
C15 C 0.6754(6) 0.2047(3) 0.65019(11)
H5 H 0.6470 0.2471 0.6404
C16 C 0.6898(6) 0.1881(3) 0.83298(11)
H6 H 0.6869 0.1859 0.8534
C17 C 0.5436(6) 0.3883(3) 0.72777(11)
H7 H 0.5432 0.3892 0.7073
C18 C 0.4990(6) 0.4468(3) 0.77372(13)
H8 H 0.4704 0.4877 0.7845
C19 C 0.7498(6) 0.1291(3) 0.81701(12)
H9 H 0.7885 0.0878 0.8266
C20 C 0.5113(6) 0.1374(3) 0.58809(10)
C21 C 1.0373(6) -0.0660(3) 0.60744(10)
C22 C 0.3140(7) 0.1292(3) 0.54152(10)
C23 C 0.7895(6) 0.0067(3) 0.63476(11)
C24 C 0.6989(6) 0.1527(3) 0.60058(10)
C25 C 0.7625(6) 0.0791(2) 0.67911(12)
H10 H 0.7945 0.0370 0.6888
C26 C 0.5031(7) 0.1219(3) 0.55485(10)
C27 C 0.6417(6) 0.2618(3) 0.72503(13)
C28 C 1.2239(6) -0.0985(3) 0.60997(11)
C29 C 1.2989(7) -0.1287(3) 0.58111(11)
C30 C 0.2897(8) 0.0917(3) 0.51152(12)
C31 C 1.4546(7) -0.1795(3) 0.58468(12)
C32 C 0.1229(9) 0.1132(4) 0.49434(14)
loop_
_geom_bond_atom_site_label_1
_geom_bond_atom_site_label_2
_geom_bond_site_symmetry_1
_geom_bond_site_symmetry_2
F1 C14 1_555 1_555
F2 C24 1_555 1_555
F3 C20 1_555 1_555
F4 C23 1_555 1_555
F5 C26 1_555 1_555
F6 C20 1_555 1_555
F7 C21 1_555 1_555
F8 C23 1_555 1_555
F9 C14 1_555 1_555
F10 C24 1_555 1_555
F11 C28 1_555 1_555
F12 C28 1_555 1_555
F13 C29 1_555 1_555
F14 C21 1_555 1_555
F15 C26 1_555 1_555
F16 C22 1_555 1_555
F17 C31 1_555 1_555
F18 C31 1_555 1_555
F19 C22 1_555 1_555
F20 C30 1_555 1_555
F21 C29 1_555 1_555
F22 C30 1_555 1_555
F23 C32 1_555 1_555
F24 C31 1_555 1_555
N1 C5 1_555 1_555
F25 C32 1_555 1_555
N2 C7 1_555 1_555
F26 C32 1_555 1_555
C1 C9 1_555 1_555
C2 H1 1_555 1_555
C3 C11 1_555 1_555
C4 H2 1_555 1_555
C5 C6 1_555 1_555
C6 C8 1_555 1_555
C7 C12 1_555 1_555
C8 H3 1_555 1_555
C9 C4 1_555 1_555
C10 H4 1_555 1_555
C11 C23 1_555 1_555
C12 N1 1_555 1_555
C13 C6 1_555 1_555
C14 C21 1_555 1_555
C15 C3 1_555 1_555
H5 C15 1_555 1_555
C16 C10 1_555 1_555
H6 C16 1_555 1_555
C17 C1 1_555 1_555
H7 C17 1_555 1_555
C18 C2 1_555 1_555
H8 C18 1_555 1_555
C19 C8 1_555 1_555
H9 C19 1_555 1_555
C20 C24 1_555 1_555
C21 C28 1_555 1_555
C22 C26 1_555 1_555
C23 C14 1_555 1_555
C24 C3 1_555 1_555
C25 C11 1_555 1_555
H10 C25 1_555 1_555
C26 C20 1_555 1_555
C27 N2 1_555 1_555
C28 C29 1_555 1_555
C29 C31 1_555 1_555
C30 C22 1_555 1_555
C32 C30 1_555 1_555
C1 C27 1_555 1_555
C2 C17 1_555 1_555
C4 C18 1_555 1_555
C5 C27 1_555 1_555
C7 C15 1_555 1_555
C9 C13 1_555 1_555
C10 C13 1_555 1_555
C12 C25 1_555 1_555
C16 C19 1_555 1_555

#END
