
#######################################################################
#
#                 Cambridge Crystallographic Data Centre
#                                CCDC 
#
#######################################################################
#
# If this CIF has been generated from an entry in the Cambridge 
# Structural Database, then it will include bibliographic, chemical, 
# crystal, experimental, refinement or atomic coordinate data resulting 
# from the CCDC's data processing and validation procedures.
#
#######################################################################

data_PIMWAM
_chemical_formula_moiety         'C16 H13 Cl1 O3'
_chemical_name_systematic        
2-(4-chlorophenyl)-6-methoxy-2,3-dihydro-4H-1-benzopyran-4-one
_symmetry_cell_setting           triclinic
_symmetry_space_group_name_H-M   'P -1'
_symmetry_Int_Tables_number      2
_space_group_name_Hall           '-P 1'
loop_
_symmetry_equiv_pos_site_id
_symmetry_equiv_pos_as_xyz
1 x,y,z
2 -x,-y,-z
_cell_length_a                   9.1046(5)
_cell_length_b                   9.2078(6)
_cell_length_c                   16.6396(11)
_cell_angle_alpha                81.659(5)
_cell_angle_beta                 88.514(5)
_cell_angle_gamma                84.809(5)
_cell_volume                     1374.42
_exptl_crystal_colour            white
_exptl_crystal_description       plate
_cell_formula_units_Z            4
loop_
_atom_site_label
_atom_site_type_symbol
_atom_site_fract_x
_atom_site_fract_y
_atom_site_fract_z
Cl1 Cl 0.48580(9) -0.60707(8) 0.80328(5)
O1 O 0.35836(18) 0.06004(18) 0.59684(10)
O2 O 0.1060(2) 0.08095(19) 0.39545(11)
O3 O 0.1899(2) 0.61459(19) 0.43716(12)
C1 C 0.2205(2) 0.2092(2) 0.48648(14)
C2 C 0.1768(3) 0.3494(3) 0.44566(14)
H1 H 0.1142 0.3599 0.4015
C3 C 0.3142(3) 0.1936(3) 0.55293(14)
C4 C 0.1783(3) 0.0755(3) 0.45676(15)
C5 C 0.2556(3) -0.0499(3) 0.59343(15)
H2 H 0.1602 -0.0151 0.6156
C6 C 0.3138(3) -0.1890(3) 0.64610(14)
C7 C 0.2171(3) -0.2781(3) 0.69039(16)
H3 H 0.1163 -0.2506 0.6879
C8 C 0.2356(3) -0.0686(3) 0.50538(15)
H4 H 0.3294 -0.1029 0.4826
H5 H 0.1668 -0.1420 0.5024
C9 C 0.4181(3) -0.4462(3) 0.74225(15)
C10 C 0.2683(3) -0.4080(3) 0.73853(16)
H6 H 0.2027 -0.4680 0.7677
C11 C 0.5167(3) -0.3602(3) 0.69852(15)
H7 H 0.6174 -0.3879 0.7012
C12 C 0.2264(3) 0.4720(3) 0.47081(15)
C13 C 0.4637(3) -0.2317(3) 0.65039(16)
H8 H 0.5297 -0.1731 0.6205
C14 C 0.0774(3) 0.6425(3) 0.37819(16)
H9 H 0.1111 0.6027 0.3301
H10 H 0.0537 0.7468 0.3651
H11 H -0.0089 0.5968 0.3995
C15 C 0.3664(3) 0.3185(3) 0.57665(16)
H12 H 0.4302 0.3089 0.6203
C16 C 0.3240(3) 0.4550(3) 0.53582(16)
H13 H 0.3604 0.5377 0.5514
Cl2 Cl 0.17750(10) 1.15866(9) -0.23029(5)
O4 O 0.23429(19) 0.48540(18) -0.02222(10)
O5 O 0.3146(2) -0.06153(19) 0.16416(11)
O6 O 0.1256(3) 0.4586(2) 0.21908(11)
C17 C 0.2270(3) 0.3400(3) 0.11133(15)
C18 C 0.2472(3) 0.2017(3) 0.15882(15)
H14 H 0.2295 0.1927 0.2145
C19 C 0.2542(3) 0.3537(3) 0.02822(15)
C20 C 0.3185(3) 0.0939(3) 0.03991(15)
H15 H 0.3490 0.0109 0.0159
C21 C 0.1629(3) 0.4682(3) 0.14792(16)
C22 C 0.1943(3) 0.9990(3) -0.16041(15)
C23 C 0.3354(3) 0.7850(3) -0.09703(16)
H16 H 0.4233 0.7246 -0.0933
C24 C 0.2194(3) 0.7472(3) -0.04527(16)
C25 C 0.2931(3) 0.0788(3) 0.12350(16)
C26 C 0.2996(3) 0.2288(3) -0.00773(15)
H17 H 0.3168 0.2370 -0.0635
C27 C 0.3242(3) 0.9096(3) -0.15393(16)
H18 H 0.4040 0.9333 -0.1878
C28 C 0.0771(3) 0.9638(3) -0.11030(19)
H19 H -0.0107 1.0243 -0.1145
C29 C 0.0897(3) 0.8383(3) -0.05363(19)
H20 H 0.0092 0.8145 -0.0203
C30 C 0.1392(3) 0.6090(3) 0.09033(17)
H21 H 0.0379 0.6209 0.0721
H22 H 0.1543 0.6910 0.1188
C31 C 0.2398(3) 0.6131(3) 0.01849(17)
H23 H 0.3403 0.6098 0.0388
C32 C 0.2904(4) -0.0810(4) 0.24996(19)
H24 H 0.1920 -0.0423 0.2618
H25 H 0.3601 -0.0299 0.2749
H26 H 0.3028 -0.1841 0.2709
loop_
_geom_bond_atom_site_label_1
_geom_bond_atom_site_label_2
_geom_bond_site_symmetry_1
_geom_bond_site_symmetry_2
Cl1 C9 1_555 1_555
O1 C3 1_555 1_555
O2 C4 1_555 1_555
O3 C12 1_555 1_555
C1 C2 1_555 1_555
C2 H1 1_555 1_555
C3 C1 1_555 1_555
C4 C1 1_555 1_555
C5 O1 1_555 1_555
H2 C5 1_555 1_555
C6 C5 1_555 1_555
C7 C6 1_555 1_555
H3 C7 1_555 1_555
C8 C4 1_555 1_555
H4 C8 1_555 1_555
H5 C8 1_555 1_555
C9 C10 1_555 1_555
C10 C7 1_555 1_555
H6 C10 1_555 1_555
C11 C9 1_555 1_555
H7 C11 1_555 1_555
C12 C2 1_555 1_555
C13 C6 1_555 1_555
H8 C13 1_555 1_555
C14 O3 1_555 1_555
H9 C14 1_555 1_555
H10 C14 1_555 1_555
H11 C14 1_555 1_555
C15 C3 1_555 1_555
H12 C15 1_555 1_555
C16 C12 1_555 1_555
H13 C16 1_555 1_555
Cl2 C22 1_555 1_555
O4 C19 1_555 1_555
O5 C25 1_555 1_555
O6 C21 1_555 1_555
C17 C18 1_555 1_555
C18 H14 1_555 1_555
C19 C17 1_555 1_555
C20 H15 1_555 1_555
C21 C17 1_555 1_555
C22 C27 1_555 1_555
C23 H16 1_555 1_555
C24 C23 1_555 1_555
C25 C18 1_555 1_555
C26 C19 1_555 1_555
H17 C26 1_555 1_555
C27 C23 1_555 1_555
H18 C27 1_555 1_555
C28 C22 1_555 1_555
H19 C28 1_555 1_555
C29 C24 1_555 1_555
H20 C29 1_555 1_555
C30 C21 1_555 1_555
H21 C30 1_555 1_555
H22 C30 1_555 1_555
C31 O4 1_555 1_555
H23 C31 1_555 1_555
C32 O5 1_555 1_555
H24 C32 1_555 1_555
H25 C32 1_555 1_555
H26 C32 1_555 1_555
C5 C8 1_555 1_555
C11 C13 1_555 1_555
C15 C16 1_555 1_555
C20 C25 1_555 1_555
C20 C26 1_555 1_555
C24 C31 1_555 1_555
C28 C29 1_555 1_555
C30 C31 1_555 1_555

#END
