
#######################################################################
#
#                 Cambridge Crystallographic Data Centre
#                                CCDC 
#
#######################################################################
#
# If this CIF has been generated from an entry in the Cambridge 
# Structural Database, then it will include bibliographic, chemical, 
# crystal, experimental, refinement or atomic coordinate data resulting 
# from the CCDC's data processing and validation procedures.
#
#######################################################################

data_PIMXIV
_chemical_formula_moiety         'C16 H11 Cl1 N2 O5'
_chemical_name_systematic        
'methyl 1-(3-chlorophenyl)-6-methyl-2,5,7-trioxo-2,5,6,7-tetrahydro-1H-pyrrolo[3,4-b]pyridine-4-carboxylate'
_symmetry_cell_setting           monoclinic
_symmetry_space_group_name_H-M   'P 21/c'
_symmetry_Int_Tables_number      14
_space_group_name_Hall           '-P 2ybc'
loop_
_symmetry_equiv_pos_site_id
_symmetry_equiv_pos_as_xyz
1 x,y,z
2 -x,1/2+y,1/2-z
3 -x,-y,-z
4 x,1/2-y,1/2+z
_cell_length_a                   11.8511(19)
_cell_length_b                   10.4552(18)
_cell_length_c                   15.964(2)
_cell_angle_alpha                90
_cell_angle_beta                 128.609(8)
_cell_angle_gamma                90
_cell_volume                     1545.68
_exptl_crystal_colour            colorless
_exptl_crystal_description       block
_cell_formula_units_Z            4
loop_
_atom_site_label
_atom_site_type_symbol
_atom_site_fract_x
_atom_site_fract_y
_atom_site_fract_z
C1 C 0.6665(8) 0.6027(6) 0.6850(6)
H1 H 0.6822 0.6128 0.6351
C2 C 0.6111(7) 0.4883(7) 0.6927(7)
C3 C 0.5894(9) 0.4721(8) 0.7668(8)
H2 H 0.5514 0.3957 0.7692
C4 C 0.6234(9) 0.5675(8) 0.8368(7)
H3 H 0.6119 0.5559 0.8888
C5 C 0.6764(7) 0.6842(7) 0.8297(6)
H4 H 0.6977 0.7508 0.8761
C6 C 0.6966(6) 0.7000(6) 0.7558(5)
C7 C 0.8871(6) 0.8623(5) 0.8357(4)
C8 C 1.0066(6) 0.7845(5) 0.9290(4)
C9 C 1.2664(7) 0.8287(7) 1.0794(6)
H5 H 1.2716 0.7370 1.0827
H6 H 1.2891 0.8614 1.1446
H7 H 1.3343 0.8615 1.0709
C10 C 1.0890(6) 0.9873(5) 0.9388(5)
C11 C 0.9357(6) 0.9812(5) 0.8405(4)
C12 C 0.6597(7) 0.9026(7) 0.6608(5)
C13 C 0.7184(8) 1.0263(6) 0.6664(5)
H8 H 0.6644 1.0801 0.6072
C14 C 0.8493(6) 1.0674(5) 0.7547(5)
C15 C 0.9012(7) 1.2017(6) 0.7597(5)
C16 C 0.9929(10) 1.3913(6) 0.8601(7)
H9 H 0.9486 1.4344 0.7931
H10 H 1.0949 1.3842 0.8978
H11 H 0.9762 1.4393 0.9027
Cl1 Cl 0.5682(3) 0.3645(2) 0.6075(2)
N1 N 0.7526(5) 0.8196(4) 0.7510(4)
N2 N 1.1204(5) 0.8684(4) 0.9884(4)
O1 O 1.0078(5) 0.6735(4) 0.9491(3)
O2 O 1.1743(5) 1.0741(5) 0.9712(4)
O3 O 0.5408(6) 0.8627(5) 0.5858(5)
O4 O 0.9101(11) 1.2416(7) 0.6946(6)
O5 O 0.9314(6) 1.2651(4) 0.8403(4)
loop_
_geom_bond_atom_site_label_1
_geom_bond_atom_site_label_2
_geom_bond_site_symmetry_1
_geom_bond_site_symmetry_2
C1 H1 1_555 1_555
C2 C1 1_555 1_555
C3 C2 1_555 1_555
H2 C3 1_555 1_555
C4 C3 1_555 1_555
H3 C4 1_555 1_555
C5 C4 1_555 1_555
H4 C5 1_555 1_555
C6 C1 1_555 1_555
C7 C8 1_555 1_555
C8 N2 1_555 1_555
C9 H5 1_555 1_555
H6 C9 1_555 1_555
H7 C9 1_555 1_555
C10 C11 1_555 1_555
C11 C7 1_555 1_555
C12 C13 1_555 1_555
C13 H8 1_555 1_555
C14 C11 1_555 1_555
C15 C14 1_555 1_555
C16 H9 1_555 1_555
H10 C16 1_555 1_555
H11 C16 1_555 1_555
Cl1 C2 1_555 1_555
N1 C6 1_555 1_555
N2 C9 1_555 1_555
O1 C8 1_555 1_555
O2 C10 1_555 1_555
O3 C12 1_555 1_555
O4 C15 1_555 1_555
O5 C15 1_555 1_555
C5 C6 1_555 1_555
C7 N1 1_555 1_555
C10 N2 1_555 1_555
C12 N1 1_555 1_555
C13 C14 1_555 1_555
C16 O5 1_555 1_555

#END
