
#######################################################################
#
#                 Cambridge Crystallographic Data Centre
#                                CCDC 
#
#######################################################################
#
# If this CIF has been generated from an entry in the Cambridge 
# Structural Database, then it will include bibliographic, chemical, 
# crystal, experimental, refinement or atomic coordinate data resulting 
# from the CCDC's data processing and validation procedures.
#
#######################################################################

data_PIMXAN
_chemical_formula_moiety         'C35 H30 Cl1 N2 O6 P1'
_chemical_name_systematic        
'dimethyl 2-{4-[(4-chlorophenyl)amino]-1-methyl-2,5-dioxo-2,5-dihydro-1H-pyrrol-3-yl}-3-(triphenylphosphanylidene)butanedioate'
_symmetry_cell_setting           monoclinic
_symmetry_space_group_name_H-M   'C 2/c'
_symmetry_Int_Tables_number      15
_space_group_name_Hall           '-C 2yn'
loop_
_symmetry_equiv_pos_site_id
_symmetry_equiv_pos_as_xyz
1 x,y,z
2 -x,y,1/2-z
3 1/2+x,1/2+y,z
4 1/2-x,1/2+y,1/2-z
5 -x,-y,-z
6 x,-y,1/2+z
7 1/2-x,1/2-y,-z
8 1/2+x,1/2-y,1/2+z
_cell_length_a                   18.7055(12)
_cell_length_b                   10.6194(7)
_cell_length_c                   32.237(2)
_cell_angle_alpha                90
_cell_angle_beta                 100.392(2)
_cell_angle_gamma                90
_cell_volume                     6298.56
_exptl_crystal_colour            yellow
_exptl_crystal_description       block
_cell_formula_units_Z            8
loop_
_atom_site_label
_atom_site_type_symbol
_atom_site_fract_x
_atom_site_fract_y
_atom_site_fract_z
C1 C 0.17986(15) 0.3196(2) 0.02345(7)
H1 H 0.2095 0.2519 0.0335
C2 C 0.14755(16) 0.3236(3) -0.01864(7)
H2 H 0.1546 0.2575 -0.0364
C3 C 0.10622(15) 0.4218(2) -0.03412(7)
C4 C 0.0939(2) 0.5149(3) -0.00774(10)
H3 H 0.0642 0.5823 -0.0181
C5 C 0.12482(17) 0.5108(2) 0.03425(9)
H4 H 0.1156 0.5756 0.0520
C6 C 0.16877(10) 0.41358(18) 0.05041(6)
C7 C 0.24399(9) 0.33594(17) 0.11804(5)
C8 C 0.22700(10) 0.19614(18) 0.11828(6)
C9 C 0.27414(15) 0.0146(2) 0.16406(8)
H5 H 0.2257 -0.0187 0.1576
H6 H 0.2921 0.0075 0.1938
H7 H 0.3051 -0.0321 0.1489
C10 C 0.31840(10) 0.24005(17) 0.17274(6)
C11 C 0.29798(9) 0.35994(16) 0.15105(5)
C12 C 0.33484(9) 0.47981(16) 0.16873(5)
H8 H 0.3830 0.4539 0.1836
C13 C 0.29663(10) 0.53407(18) 0.20272(5)
C14 C 0.29886(16) 0.7017(3) 0.25119(8)
H9 H 0.2468 0.6964 0.2446
H10 H 0.3134 0.7885 0.2526
H11 H 0.3159 0.6620 0.2779
C15 C 0.34901(9) 0.57904(15) 0.13741(5)
C16 C 0.29345(9) 0.66249(16) 0.12063(5)
C17 C 0.26173(14) 0.8202(2) 0.06794(7)
H12 H 0.2401 0.7625 0.0463
H13 H 0.2833 0.8890 0.0553
H14 H 0.2250 0.8518 0.0825
C18 C 0.42944(9) 0.60497(16) 0.06877(5)
C19 C 0.37528(11) 0.53309(19) 0.04509(6)
H15 H 0.3432 0.4884 0.0585
C20 C 0.36828(13) 0.5269(2) 0.00174(6)
H16 H 0.3316 0.4783 -0.0138
C21 C 0.41477(13) 0.5917(2) -0.01820(6)
H17 H 0.4099 0.5873 -0.0474
C22 C 0.46868(13) 0.6632(2) 0.00464(7)
H18 H 0.5003 0.7076 -0.0092
C23 C 0.47683(11) 0.6703(2) 0.04829(6)
H19 H 0.5139 0.7186 0.0636
C24 C 0.49661(9) 0.48240(16) 0.14702(5)
C25 C 0.52845(13) 0.4848(2) 0.18928(7)
H20 H 0.5170 0.5490 0.2066
C26 C 0.57688(15) 0.3924(2) 0.20578(9)
H21 H 0.5968 0.3928 0.2344
C27 C 0.59598(13) 0.2994(2) 0.18015(10)
H22 H 0.6302 0.2391 0.1912
C28 C 0.56492(14) 0.2957(2) 0.13886(9)
H23 H 0.5775 0.2322 0.1216
C29 C 0.51428(12) 0.3863(2) 0.12211(7)
H24 H 0.4922 0.3820 0.0939
C30 C 0.47756(9) 0.74860(16) 0.14865(5)
C31 C 0.44081(10) 0.82453(18) 0.17237(6)
H25 H 0.3934 0.8046 0.1750
C32 C 0.47407(13) 0.9306(2) 0.19230(7)
H26 H 0.4488 0.9823 0.2079
C33 C 0.54432(14) 0.9594(2) 0.18890(7)
H27 H 0.5667 1.0304 0.2023
C34 C 0.58163(13) 0.8833(2) 0.16572(7)
H28 H 0.6292 0.9032 0.1634
C35 C 0.54919(11) 0.7781(2) 0.14585(7)
H29 H 0.5750 0.7265 0.1305
Cl1 Cl 0.0603(15) 0.4337(12) -0.0850(5)
N1 N 0.20264(9) 0.42111(15) 0.09298(5)
H30 H 0.1961 0.4912 0.1051
N2 N 0.27340(9) 0.14604(14) 0.15170(5)
O1 O 0.17964(8) 0.13914(14) 0.09521(5)
O2 O 0.36470(8) 0.22079(13) 0.20344(4)
O3 O 0.24607(8) 0.48714(16) 0.21486(5)
O4 O 0.32965(8) 0.63854(13) 0.21886(4)
O5 O 0.22911(6) 0.65783(12) 0.12545(4)
O6 O 0.31639(7) 0.75644(12) 0.09712(4)
P1 P 0.43440(2) 0.60592(4) 0.12560(2)
Cl2? Cl 0.0767(5) 0.4245(11) -0.0897(3)
loop_
_geom_bond_atom_site_label_1
_geom_bond_atom_site_label_2
_geom_bond_site_symmetry_1
_geom_bond_site_symmetry_2
C1 H1 1_555 1_555
C2 C1 1_555 1_555
H2 C2 1_555 1_555
C3 C2 1_555 1_555
C4 C3 1_555 1_555
H3 C4 1_555 1_555
C5 C4 1_555 1_555
H4 C5 1_555 1_555
C6 C1 1_555 1_555
C7 C8 1_555 1_555
C8 N2 1_555 1_555
C9 H5 1_555 1_555
H6 C9 1_555 1_555
H7 C9 1_555 1_555
C10 C11 1_555 1_555
C11 C7 1_555 1_555
C12 C11 1_555 1_555
H8 C12 1_555 1_555
C13 C12 1_555 1_555
C14 H9 1_555 1_555
H10 C14 1_555 1_555
H11 C14 1_555 1_555
C15 C12 1_555 1_555
C16 C15 1_555 1_555
C17 H12 1_555 1_555
H13 C17 1_555 1_555
H14 C17 1_555 1_555
C18 C19 1_555 1_555
C19 H15 1_555 1_555
C20 C19 1_555 1_555
H16 C20 1_555 1_555
C21 C20 1_555 1_555
H17 C21 1_555 1_555
C22 C21 1_555 1_555
H18 C22 1_555 1_555
C23 C18 1_555 1_555
H19 C23 1_555 1_555
C24 C25 1_555 1_555
C25 H20 1_555 1_555
C26 C25 1_555 1_555
H21 C26 1_555 1_555
C27 C26 1_555 1_555
H22 C27 1_555 1_555
C28 C27 1_555 1_555
H23 C28 1_555 1_555
C29 C24 1_555 1_555
H24 C29 1_555 1_555
C30 C31 1_555 1_555
C31 H25 1_555 1_555
C32 C31 1_555 1_555
H26 C32 1_555 1_555
C33 C32 1_555 1_555
H27 C33 1_555 1_555
C34 C33 1_555 1_555
H28 C34 1_555 1_555
C35 C30 1_555 1_555
H29 C35 1_555 1_555
Cl1 C3 1_555 1_555
N1 C6 1_555 1_555
H30 N1 1_555 1_555
N2 C9 1_555 1_555
O1 C8 1_555 1_555
O2 C10 1_555 1_555
O3 C13 1_555 1_555
O4 C13 1_555 1_555
O5 C16 1_555 1_555
O6 C16 1_555 1_555
P1 C15 1_555 1_555
C5 C6 1_555 1_555
C7 N1 1_555 1_555
C10 N2 1_555 1_555
C14 O4 1_555 1_555
C17 O6 1_555 1_555
C18 P1 1_555 1_555
C22 C23 1_555 1_555
C24 P1 1_555 1_555
C28 C29 1_555 1_555
C30 P1 1_555 1_555
C34 C35 1_555 1_555

#END
