
#######################################################################
#
#                 Cambridge Crystallographic Data Centre
#                                CCDC 
#
#######################################################################
#
# If this CIF has been generated from an entry in the Cambridge 
# Structural Database, then it will include bibliographic, chemical, 
# crystal, experimental, refinement or atomic coordinate data resulting 
# from the CCDC's data processing and validation procedures.
#
#######################################################################

data_PIMYES
_chemical_formula_moiety         'C14 H15 Cl1 F2 N2 O2'
_chemical_name_systematic        
3-[(6-chloropyridin-3-yl)methyl]-4-[(2,2-difluoroethyl)amino]-5,5-dimethylfuran-2(5H)-one
_symmetry_cell_setting           triclinic
_symmetry_space_group_name_H-M   'P -1'
_symmetry_Int_Tables_number      2
_space_group_name_Hall           '-P 1'
loop_
_symmetry_equiv_pos_site_id
_symmetry_equiv_pos_as_xyz
1 x,y,z
2 -x,-y,-z
_cell_length_a                   12.0454(4)
_cell_length_b                   14.2453(7)
_cell_length_c                   17.2788(9)
_cell_angle_alpha                79.643(4)
_cell_angle_beta                 79.979(3)
_cell_angle_gamma                89.985(3)
_cell_volume                     2870.6
_cell_formula_units_Z            8
loop_
_atom_site_label
_atom_site_type_symbol
_atom_site_fract_x
_atom_site_fract_y
_atom_site_fract_z
Cl1 Cl 0.91639(11) 0.40367(13) 0.43628(8)
F1 F 0.4369(3) 0.0668(3) 0.7603(3)
F2 F 0.5041(5) -0.0599(4) 0.8015(4)
O1 O 0.6534(3) 0.2679(2) 0.9209(2)
O2 O 0.5827(4) 0.3951(3) 0.8510(3)
N1 N 0.6576(4) 0.0786(3) 0.8083(3)
H1 H 0.6830 0.0320 0.8408
N2 N 0.8444(6) 0.3189(6) 0.5827(4)
C1 C 0.6223(10) 0.3700(9) 0.5836(7)
H2 H 0.5488 0.3947 0.5856
C2 C 0.7027(11) 0.3920(10) 0.5133(8)
H3 H 0.6828 0.4221 0.4641
C3 C 0.5609(5) 0.2811(5) 0.7255(4)
H4 H 0.5124 0.3361 0.7326
H5 H 0.5129 0.2295 0.7158
C4 C 0.6789(4) 0.1693(3) 0.9121(3)
C5 C 0.8052(4) 0.1594(4) 0.9080(3)
H6 H 0.8453 0.2077 0.8644
H7 H 0.8264 0.0956 0.8981
H8 H 0.8255 0.1685 0.9587
C6 C 0.6095(5) 0.1034(4) 0.9831(3)
H9 H 0.6200 0.0369 0.9764
H10 H 0.5296 0.1182 0.9862
H11 H 0.6343 0.1126 1.0324
C7 C 0.8107(4) 0.3680(3) 0.5193(3)
C8 C 0.6432(4) 0.1627(3) 0.8334(3)
C9 C 0.6358(5) 0.0568(4) 0.7337(3)
H12 H 0.6956 0.0155 0.7128
H13 H 0.6386 0.1167 0.6941
C10 C 0.7659(8) 0.2958(8) 0.6490(6)
H14 H 0.7898 0.2674 0.6972
C11 C 0.6516(4) 0.3112(4) 0.6510(3)
C12 C 0.6103(5) 0.3105(4) 0.8563(4)
C13 C 0.6037(4) 0.2470(4) 0.8017(3)
C14 C 0.5217(5) 0.0066(5) 0.7437(4)
H15 H 0.5149 -0.0175 0.6938
Cl2 Cl 0.11524(12) 0.90370(13) 0.43632(8)
F4 F 0.3433(5) 0.4396(4) 0.8017(4)
F5 F 0.4334(3) 0.5666(3) 0.7600(3)
O3 O 0.1356(3) 0.7676(2) 0.9216(2)
O4 O 0.2421(5) 0.8951(3) 0.8509(3)
N4 N 0.1873(4) 0.5783(3) 0.8083(3)
H20 H 0.1452 0.5317 0.8404
N5 N 0.1126(6) 0.8192(6) 0.5830(4)
C18 C 0.2915(11) 0.8946(10) 0.5140(8)
H21 H 0.3362 0.9259 0.4654
C19 C 0.3345(10) 0.8721(9) 0.5837(7)
H22 H 0.4063 0.8977 0.5864
C20 C 0.1790(4) 0.8688(3) 0.5191(3)
C21 C 0.1146(4) 0.6696(3) 0.9121(3)
C22 C 0.2453(5) 0.7476(3) 0.8012(3)
C23 C -0.0096(4) 0.6588(4) 0.9079(3)
H23 H -0.0556 0.6695 0.9580
H24 H -0.0256 0.5942 0.8996
H25 H -0.0278 0.7056 0.8633
C24 C 0.1487(5) 0.6035(4) 0.9828(3)
H26 H 0.2281 0.6162 0.9844
H27 H 0.1382 0.5370 0.9773
H28 H 0.1017 0.6147 1.0324
C25 C 0.2733(4) 0.8117(4) 0.6505(3)
C26 C 0.1891(4) 0.6620(3) 0.8338(3)
C27 C 0.2111(6) 0.8106(4) 0.8569(4)
C28 C 0.1586(8) 0.7961(8) 0.6498(6)
H29 H 0.1110 0.7681 0.6983
C29 C 0.2471(4) 0.5566(4) 0.7338(3)
H30 H 0.2640 0.6166 0.6943
H31 H 0.1980 0.5154 0.7126
C30 C 0.3266(5) 0.7815(4) 0.7244(4)
H32 H 0.3790 0.7297 0.7147
H33 H 0.3720 0.8363 0.7314
C31 C 0.3566(5) 0.5064(4) 0.7433(3)
H34 H 0.3881 0.4821 0.6935
Cl3 Cl 0.4166(3) 0.4372(2) 0.44702(19)
F7 F 0.0188(6) -0.0194(4) 0.6804(4)
F8 F -0.0630(3) 0.0667(2) 0.7587(2)
O5 O 0.0822(5) 0.3945(3) 0.8520(3)
O6 O 0.1528(4) 0.2672(3) 0.9211(3)
N7 N 0.3371(8) 0.3814(6) 0.5982(6)
N8 N 0.1582(4) 0.0786(3) 0.8085(3)
H39 H 0.1840 0.0321 0.8409
C35 C 0.3125(15) 0.3859(12) 0.5259(10)
C36 C 0.2542(11) 0.3448(8) 0.6598(8)
H40 H 0.2681 0.3423 0.7125
C37 C 0.0615(4) 0.2820(3) 0.7243(3)
H41 H 0.0130 0.2306 0.7148
H42 H 0.0134 0.3373 0.7314
C38 C 0.1510(4) 0.3111(3) 0.6508(3)
C39 C 0.2041(4) 0.3712(4) 0.5101(3)
H43 H 0.1877 0.3805 0.4575
C40 C 0.1051(4) 0.2475(3) 0.8011(3)
C41 C 0.0242(5) 0.0068(4) 0.7415(4)
H44 H 0.0175 -0.0500 0.7857
C42 C 0.1436(5) 0.1621(4) 0.8332(3)
C43 C 0.1234(4) 0.3421(4) 0.5775(3)
H45 H 0.0461 0.3437 0.5726
C44 C 0.1360(5) 0.0568(4) 0.7339(3)
H46 H 0.1964 0.0162 0.7128
H47 H 0.1389 0.1170 0.6946
C45 C 0.1791(5) 0.1698(5) 0.9125(4)
C46 C 0.1102(5) 0.3126(4) 0.8562(3)
C47 C 0.3062(6) 0.1580(8) 0.9083(4)
H48 H 0.3469 0.2022 0.8620
H49 H 0.3251 0.0923 0.9031
H50 H 0.3279 0.1721 0.9572
C48 C 0.1094(6) 0.1029(5) 0.9832(4)
H51 H 0.1280 0.1166 1.0331
H52 H 0.1266 0.0366 0.9790
H53 H 0.0290 0.1127 0.9827
Cl5 Cl 0.6092(3) -0.0631(2) 0.44686(19)
F10 F 0.9331(3) -0.4333(2) 0.7586(2)
F11 F 0.8905(5) -0.5189(4) 0.6805(4)
O7 O 0.6369(4) -0.2325(3) 0.9207(2)
O8 O 0.7413(5) -0.1056(3) 0.8521(3)
N10 N 0.6126(8) -0.1176(6) 0.5985(6)
N11 N 0.6885(4) -0.4214(3) 0.8086(3)
H57 H 0.6474 -0.4679 0.8414
C51 C 0.6747(14) -0.1149(12) 0.5269(9)
C52 C 0.6675(10) -0.1541(8) 0.6594(7)
H58 H 0.6284 -0.1554 0.7123
C53 C 0.7904(4) -0.1290(4) 0.5104(3)
H59 H 0.8328 -0.1194 0.4577
C54 C 0.8262(4) -0.2184(4) 0.7251(3)
H60 H 0.8793 -0.2698 0.7156
H61 H 0.8709 -0.1632 0.7323
C55 C 0.8550(5) -0.4926(4) 0.7422(4)
H62 H 0.8399 -0.5494 0.7864
C56 C 0.7449(5) -0.2527(4) 0.8017(3)
C57 C 0.8374(4) -0.1583(4) 0.5778(3)
H63 H 0.9172 -0.1570 0.5729
C58 C 0.7470(5) -0.4433(4) 0.7339(3)
H64 H 0.7634 -0.3833 0.6943
H65 H 0.6972 -0.4845 0.7133
C59 C 0.7733(4) -0.1888(3) 0.6510(3)
C60 C 0.6907(4) -0.3372(4) 0.8329(3)
C61 C 0.6153(5) -0.3306(5) 0.9127(4)
C62 C 0.7116(5) -0.1878(5) 0.8562(3)
C63 C 0.6492(6) -0.3967(5) 0.9834(4)
H66 H 0.7279 -0.3826 0.9861
H67 H 0.6412 -0.4632 0.9769
H68 H 0.6005 -0.3871 1.0328
C64 C 0.4906(6) -0.3418(8) 0.9086(4)
H69 H 0.4447 -0.3276 0.9575
H70 H 0.4739 -0.4074 0.9033
H71 H 0.4732 -0.2975 0.8623
F3? F 0.5225(6) -0.0352(5) 0.6721(4)
N3? N 0.8397(6) 0.3606(6) 0.5927(5)
C15? C 0.7072(12) 0.3450(11) 0.5086(9)
H16? H 0.6919 0.3533 0.4557
C16? C 0.6228(11) 0.3102(10) 0.5712(8)
H17? H 0.5519 0.2873 0.5641
C17? C 0.7568(8) 0.3260(8) 0.6560(6)
H18? H 0.7772 0.3116 0.7075
H19? H 0.5157 -0.0470 0.7905
F6? F 0.3934(6) 0.4645(5) 0.6724(4)
N6? N 0.1144(6) 0.8606(6) 0.5931(5)
C32? C 0.2894(12) 0.8474(11) 0.5078(9)
H35? H 0.3315 0.8574 0.4549
C33? C 0.3425(11) 0.8116(10) 0.5707(8)
H36? H 0.4170 0.7887 0.5636
C34? C 0.1638(8) 0.8258(8) 0.6566(6)
H37? H 0.1176 0.8109 0.7080
H38? H 0.3393 0.4529 0.7902
Cl4? Cl 0.4155(3) 0.3698(2) 0.42528(19)
F9? F 0.0073(5) -0.0781(4) 0.7967(4)
N9? N 0.3486(8) 0.2990(6) 0.5763(6)
C49? C 0.2698(10) 0.2788(8) 0.6444(7)
H54? H 0.2918 0.2421 0.6905
C50? C 0.3120(16) 0.3493(12) 0.5142(10)
H55? H 0.1842 0.4056 0.4624
H56? H 0.0199 -0.0093 0.6881
Cl6? Cl 0.6228(3) -0.1300(2) 0.42543(19)
F12? F 0.8451(5) -0.5785(4) 0.7969(4)
N12? N 0.6148(8) -0.2021(6) 0.5767(6)
C65? C 0.6606(10) -0.2226(9) 0.6429(7)
H72? H 0.6171 -0.2620 0.6882
C66? C 0.6819(15) -0.1533(12) 0.5144(10)
H73? H 0.8333 -0.0930 0.4630
H74? H 0.8861 -0.5085 0.6888
loop_
_geom_bond_atom_site_label_1
_geom_bond_atom_site_label_2
_geom_bond_site_symmetry_1
_geom_bond_site_symmetry_2
Cl1 C7 1_555 1_555
F1 C14 1_555 1_555
F2 C14 1_555 1_555
O1 C4 1_555 1_555
O2 C12 1_555 1_555
N1 H1 1_555 1_555
N2 C7 1_555 1_555
C1 H2 1_555 1_555
C2 C1 1_555 1_555
H3 C2 1_555 1_555
C3 H4 1_555 1_555
H5 C3 1_555 1_555
C4 C5 1_555 1_555
C5 H6 1_555 1_555
H7 C5 1_555 1_555
H8 C5 1_555 1_555
C6 C4 1_555 1_555
H9 C6 1_555 1_555
H10 C6 1_555 1_555
H11 C6 1_555 1_555
C7 C2 1_555 1_555
C8 N1 1_555 1_555
C9 N1 1_555 1_555
H12 C9 1_555 1_555
H13 C9 1_555 1_555
C10 N2 1_555 1_555
H14 C10 1_555 1_555
C11 C1 1_555 1_555
C12 O1 1_555 1_555
C13 C3 1_555 1_555
C14 C9 1_555 1_555
H15 C14 1_555 1_555
Cl2 C20 1_555 1_555
F4 C31 1_555 1_555
F5 C31 1_555 1_555
O3 C21 1_555 1_555
O4 C27 1_555 1_555
N4 H20 1_555 1_555
N5 C20 1_555 1_555
C18 H21 1_555 1_555
C19 C18 1_555 1_555
H22 C19 1_555 1_555
C20 C18 1_555 1_555
C21 C23 1_555 1_555
C22 C26 1_555 1_555
C23 H23 1_555 1_555
H24 C23 1_555 1_555
H25 C23 1_555 1_555
C24 C21 1_555 1_555
H26 C24 1_555 1_555
H27 C24 1_555 1_555
H28 C24 1_555 1_555
C25 C19 1_555 1_555
C26 N4 1_555 1_555
C27 O3 1_555 1_555
C28 N5 1_555 1_555
H29 C28 1_555 1_555
C29 N4 1_555 1_555
H30 C29 1_555 1_555
H31 C29 1_555 1_555
C30 C22 1_555 1_555
H32 C30 1_555 1_555
H33 C30 1_555 1_555
C31 C29 1_555 1_555
H34 C31 1_555 1_555
Cl3 C35 1_555 1_555
F7 C41 1_555 1_555
F8 C41 1_555 1_555
O5 C46 1_555 1_555
O6 C45 1_555 1_555
N7 C35 1_555 1_555
N8 H39 1_555 1_555
C35 C39 1_555 1_555
C36 N7 1_555 1_555
H40 C36 1_555 1_555
C37 H41 1_555 1_555
H42 C37 1_555 1_555
C38 C36 1_555 1_555
C39 H43 1_555 1_555
C40 C37 1_555 1_555
C41 H44 1_555 1_555
C42 N8 1_555 1_555
C43 C38 1_555 1_555
H45 C43 1_555 1_555
C44 N8 1_555 1_555
H46 C44 1_555 1_555
H47 C44 1_555 1_555
C45 C42 1_555 1_555
C46 O6 1_555 1_555
C47 C45 1_555 1_555
H48 C47 1_555 1_555
H49 C47 1_555 1_555
H50 C47 1_555 1_555
C48 C45 1_555 1_555
H51 C48 1_555 1_555
H52 C48 1_555 1_555
H53 C48 1_555 1_555
Cl5 C51 1_555 1_555
F10 C55 1_555 1_555
F11 C55 1_555 1_555
O7 C61 1_555 1_555
O8 C62 1_555 1_555
N10 C51 1_555 1_555
N11 H57 1_555 1_555
C51 C53 1_555 1_555
C52 N10 1_555 1_555
H58 C52 1_555 1_555
C53 H59 1_555 1_555
C54 H60 1_555 1_555
H61 C54 1_555 1_555
C55 H62 1_555 1_555
C56 C54 1_555 1_555
C57 C53 1_555 1_555
H63 C57 1_555 1_555
C58 N11 1_555 1_555
H64 C58 1_555 1_555
H65 C58 1_555 1_555
C59 C52 1_555 1_555
C60 N11 1_555 1_555
C61 C60 1_555 1_555
C62 O7 1_555 1_555
C63 C61 1_555 1_555
H66 C63 1_555 1_555
H67 C63 1_555 1_555
H68 C63 1_555 1_555
C64 C61 1_555 1_555
H69 C64 1_555 1_555
H70 C64 1_555 1_555
H71 C64 1_555 1_555
C3 C11 1_555 1_555
C4 C8 1_555 1_555
C8 C13 1_555 1_555
C10 C11 1_555 1_555
C12 C13 1_555 1_555
C21 C26 1_555 1_555
C22 C27 1_555 1_555
C25 C28 1_555 1_555
C25 C30 1_555 1_555
C37 C38 1_555 1_555
C39 C43 1_555 1_555
C40 C42 1_555 1_555
C40 C46 1_555 1_555
C41 C44 1_555 1_555
C54 C59 1_555 1_555
C55 C58 1_555 1_555
C56 C60 1_555 1_555
C56 C62 1_555 1_555
C57 C59 1_555 1_555

#END
