
#######################################################################
#
#                 Cambridge Crystallographic Data Centre
#                                CCDC 
#
#######################################################################
#
# If this CIF has been generated from an entry in the Cambridge 
# Structural Database, then it will include bibliographic, chemical, 
# crystal, experimental, refinement or atomic coordinate data resulting 
# from the CCDC's data processing and validation procedures.
#
#######################################################################

data_PINCUK
_chemical_formula_moiety         
'1.5(C2 H10 N2 2+),C25 H5 Ba1 F30 O10 3-,C2 H6 O1'
_chemical_name_systematic        
"Ethylene-1,2-diammonium tetrakis(1,1,1,5,5,5-hexafluoro-2,4-pentanedionato-O,O')-(1,1,1,5,5,5-hexafluoro-2,4-pentane-dionato-O)-barium ethanol solvate"
_symmetry_cell_setting           monoclinic
_symmetry_space_group_name_H-M   'C 2/c'
_symmetry_Int_Tables_number      15
_space_group_name_Hall           '-C 2yn'
loop_
_symmetry_equiv_pos_site_id
_symmetry_equiv_pos_as_xyz
1 x,y,z
2 1/2+x,1/2+y,z
3 -x,y,1/2-z
4 1/2-x,1/2+y,1/2-z
5 -x,-y,-z
6 1/2-x,1/2-y,-z
7 x,-y,1/2+z
8 1/2+x,1/2-y,1/2+z
_cell_length_a                   22.379(7)
_cell_length_b                   12.143(3)
_cell_length_c                   34.800(8)
_cell_angle_alpha                90
_cell_angle_beta                 102.22(2)
_cell_angle_gamma                90
_cell_volume                     9242.56
_exptl_crystal_colour            colorless
_cell_formula_units_Z            8
loop_
_atom_site_label
_atom_site_type_symbol
_atom_site_fract_x
_atom_site_fract_y
_atom_site_fract_z
Ba1 Ba 0.1561(1) 0.1238(1) 0.1151(1)
O1 O 0.0918(3) 0.2608(5) 0.1596(2)
O2 O 0.0544(3) 0.2426(6) 0.0744(2)
C1 C 0.0225(5) 0.3568(8) 0.1905(3)
C2 C 0.0430(5) 0.3167(8) 0.1540(3)
C3 C 0.0063(5) 0.3480(7) 0.1178(3)
C4 C 0.0173(5) 0.3114(9) 0.0819(3)
C5 C -0.0221(7) 0.3699(11) 0.0457(3)
F1 F -0.0060(3) 0.4538(5) 0.1860(2)
F2 F -0.0169(4) 0.2876(6) 0.2004(2)
F3 F 0.0690(3) 0.3676(7) 0.2206(2)
F4 F -0.0773(4) 0.3950(8) 0.0498(2)
F5 F -0.0287(4) 0.3095(6) 0.0137(2)
F6 F 0.0041(5) 0.4618(6) 0.0390(2)
O3 O 0.1680(3) 0.2260(5) 0.0473(2)
O4 O 0.2005(3) 0.3372(5) 0.1228(2)
C6 C 0.1669(7) 0.3334(9) -0.0084(3)
C7 C 0.1797(5) 0.3190(9) 0.0366(3)
C8 C 0.1990(5) 0.4113(8) 0.0596(3)
C9 C 0.2092(5) 0.4118(8) 0.1002(3)
C10 C 0.2309(8) 0.5181(9) 0.1214(3)
F7 F 0.1842(4) 0.2464(5) -0.0258(2)
F8 F 0.1933(4) 0.4192(6) -0.0204(2)
F9 F 0.1077(4) 0.3423(7) -0.0223(2)
F10 F 0.2831(5) 0.5007(7) 0.1474(3)
F11 F 0.1946(5) 0.5544(6) 0.1428(2)
F12 F 0.2391(5) 0.5996(6) 0.0985(2)
O5 O 0.0515(3) 0.0064(5) 0.1195(2)
O6 O 0.1462(3) 0.0464(5) 0.1884(2)
C11 C -0.0515(3) 0.0123(6) 0.1226(2)
F13 F -0.0661(5) 0.0985(8) 0.1002(3)
F14 F -0.0617(5) -0.0768(8) 0.1012(3)
F15 F -0.0846(4) 0.0103(11) 0.1493(3)
C12 C 0.0189(5) 0.0186(7) 0.1436(3)
C13 C 0.0380(5) 0.0406(8) 0.1842(3)
C14 C 0.1001(6) 0.0493(8) 0.2032(3)
C15 C 0.1142(6) 0.0690(10) 0.2473(3)
F16 F 0.1436(4) -0.0207(6) 0.2651(2)
F17 F 0.0676(4) 0.0905(7) 0.2628(2)
F18 F 0.1538(4) 0.1514(6) 0.2580(2)
O7 O 0.1509(3) -0.0158(5) 0.0508(2)
O8 O 0.2256(3) -0.0722(5) 0.1274(2)
C16 C 0.1808(6) -0.0957(8) -0.0034(3)
C17 C 0.1917(5) -0.0748(8) 0.0414(3)
C18 C 0.2421(5) -0.1235(8) 0.0643(3)
C19 C 0.2552(5) -0.1193(8) 0.1055(3)
C20 C 0.3143(6) -0.1751(9) 0.1272(3)
F19 F 0.2305(3) -0.1243(5) -0.0155(1)
F20 F 0.1568(4) -0.0101(6) -0.0243(2)
F21 F 0.1412(3) -0.1802(6) -0.0134(2)
F22 F 0.3427(3) -0.2354(5) 0.1049(2)
F23 F 0.3019(3) -0.2420(4) 0.1558(2)
F24 F 0.3537(3) -0.0998(5) 0.1457(2)
O9 O 0.2644(3) 0.1556(5) 0.1713(2)
O10 O 0.3000(4) 0.2166(5) 0.2519(2)
C21 C 0.3394(6) 0.1770(9) 0.1330(3)
C22 C 0.3193(5) 0.1743(8) 0.1723(3)
C23 C 0.3640(5) 0.1960(9) 0.2060(3)
C24 C 0.3513(6) 0.2128(8) 0.2426(3)
C25 C 0.4057(6) 0.2254(12) 0.2774(3)
F25 F 0.3921(3) 0.1271(7) 0.1344(2)
F26 F 0.3427(4) 0.2780(5) 0.1205(2)
F27 F 0.2987(3) 0.1248(5) 0.1047(2)
F28 F 0.3927(3) 0.2969(5) 0.3038(2)
F29 F 0.4145(5) 0.1323(7) 0.2974(3)
F30 F 0.4551(4) 0.2586(12) 0.2694(3)
H1 H -0.0281 0.3953 0.1177
H2 H 0.2052 0.4787 0.0466
H3 H 0.0075 0.0500 0.1996
H4 H 0.2694 -0.1633 0.0515
H5 H 0.4059 0.1994 0.2035
N1 N 0.2037(4) 0.3327(6) 0.2040(2)
N2 N 0.2620(4) 0.3947(7) 0.2931(2)
C26 C 0.2045(5) 0.4383(7) 0.2256(3)
C27 C 0.2019(5) 0.4244(8) 0.2678(3)
H6 H 0.2061 0.3447 0.1788
H7 H 0.2355 0.2911 0.2159
H8 H 0.1685 0.2975 0.2046
H9 H 0.2590 0.3857 0.3183
H10 H 0.2754 0.3318 0.2841
H11 H 0.2886 0.4494 0.2916
H12 H 0.1709 0.4830 0.2125
H13 H 0.2417 0.4762 0.2244
H14 H 0.1873 0.4909 0.2776
H15 H 0.1734 0.3666 0.2697
N3 N 0.0509(4) 0.1236(7) 0.0036(2)
C28 C 0.0017(7) 0.0493(9) 0.0129(3)
H16 H 0.0532 0.1857 0.0179
H17 H 0.0867 0.0875 0.0096
H18 H 0.0425 0.1409 -0.0222
H19 H -0.0371 0.0863 0.0064
H20 H 0.0099 0.0296 0.0402
C28D C -0.0017(7) -0.0493(9) -0.0129(3)
N3D N -0.0509(4) -0.1236(7) -0.0036(2)
H19D H 0.0371 -0.0863 -0.0064
H20D H -0.0099 -0.0296 -0.0402
H16D H -0.0532 -0.1857 -0.0179
H17D H -0.0867 -0.0875 -0.0096
H18D H -0.0425 -0.1409 0.0222
O11 O -0.0232(5) 0.1774(7) -0.0665(2)
C29 C -0.0195(14) 0.2745(21) -0.0892(8)
C30 C -0.0921(17) 0.3016(32) -0.0901(11)
H21 H -0.0375 0.1214 -0.0799
H22 H 0.0074 0.3306 -0.0759
H23 H -0.0122 0.2604 -0.1149
H24 H -0.1064 0.3673 -0.1045
H25 H -0.0963 0.3093 -0.0634
H26 H -0.1157 0.2398 -0.1019
C31? C -0.0576(18) 0.2784(25) -0.0823(9)
C32? C -0.0302(14) 0.3334(22) -0.1073(8)
H27? H -0.0980 0.2588 -0.0961
H28? H -0.0611 0.3265 -0.0610
H29? H -0.0518 0.3989 -0.1177
H30? H -0.0271 0.2847 -0.1285
H31? H 0.0100 0.3528 -0.0932
loop_
_geom_bond_atom_site_label_1
_geom_bond_atom_site_label_2
_geom_bond_site_symmetry_1
_geom_bond_site_symmetry_2
Ba1 O1 1_555 1_555
O1 C2 1_555 1_555
O2 Ba1 1_555 1_555
C1 C2 1_555 1_555
C2 C3 1_555 1_555
C3 C4 1_555 1_555
C4 O2 1_555 1_555
C5 C4 1_555 1_555
F1 C1 1_555 1_555
F2 C1 1_555 1_555
F3 C1 1_555 1_555
F4 C5 1_555 1_555
F5 C5 1_555 1_555
F6 C5 1_555 1_555
O3 Ba1 1_555 1_555
O4 Ba1 1_555 1_555
C6 C7 1_555 1_555
C7 O3 1_555 1_555
C8 C7 1_555 1_555
C9 O4 1_555 1_555
C10 C9 1_555 1_555
F7 C6 1_555 1_555
F8 C6 1_555 1_555
F9 C6 1_555 1_555
F10 C10 1_555 1_555
F11 C10 1_555 1_555
F12 C10 1_555 1_555
O5 Ba1 1_555 1_555
O6 Ba1 1_555 1_555
C11 F13 1_555 1_555
F14 C11 1_555 1_555
F15 C11 1_555 1_555
C12 O5 1_555 1_555
C13 C12 1_555 1_555
C14 O6 1_555 1_555
C15 C14 1_555 1_555
F16 C15 1_555 1_555
F17 C15 1_555 1_555
F18 C15 1_555 1_555
O7 Ba1 1_555 1_555
O8 Ba1 1_555 1_555
C16 C17 1_555 1_555
C17 O7 1_555 1_555
C18 C17 1_555 1_555
C19 O8 1_555 1_555
C20 C19 1_555 1_555
F19 C16 1_555 1_555
F20 C16 1_555 1_555
F21 C16 1_555 1_555
F22 C20 1_555 1_555
F23 C20 1_555 1_555
F24 C20 1_555 1_555
O9 Ba1 1_555 1_555
O10 C24 1_555 1_555
C21 C22 1_555 1_555
C22 O9 1_555 1_555
C23 C22 1_555 1_555
C24 C23 1_555 1_555
C25 C24 1_555 1_555
F25 C21 1_555 1_555
F26 C21 1_555 1_555
F27 C21 1_555 1_555
F28 C25 1_555 1_555
F29 C25 1_555 1_555
F30 C25 1_555 1_555
N1 C26 1_555 1_555
N2 C27 1_555 1_555
C26 C27 1_555 1_555
C27 H14 1_555 1_555
N3 C28 1_555 1_555
C28 H19 1_555 1_555
O11 C29 1_555 1_555
C29 C30 1_555 1_555
C30 H24 1_555 1_555
H1 C3 1_555 1_555
H2 C8 1_555 1_555
H3 C13 1_555 1_555
H4 C18 1_555 1_555
H5 C23 1_555 1_555
H6 N1 1_555 1_555
H7 N1 1_555 1_555
H8 N1 1_555 1_555
H9 N2 1_555 1_555
H10 N2 1_555 1_555
H11 N2 1_555 1_555
H12 C26 1_555 1_555
H13 C26 1_555 1_555
H15 C27 1_555 1_555
H16 N3 1_555 1_555
H17 N3 1_555 1_555
H18 N3 1_555 1_555
H20 C28 1_555 1_555
H21 O11 1_555 1_555
H22 C29 1_555 1_555
H23 C29 1_555 1_555
H25 C30 1_555 1_555
H26 C30 1_555 1_555
C28D C28 1_555 1_555
N3D C28D 1_555 1_555
H19D C28D 1_555 1_555
H20D C28D 1_555 1_555
H16D N3D 1_555 1_555
H17D N3D 1_555 1_555
H18D N3D 1_555 1_555
C8 C9 1_555 1_555
C11 C12 1_555 1_555
C13 C14 1_555 1_555
C18 C19 1_555 1_555

#END
