
#######################################################################
#
#                 Cambridge Crystallographic Data Centre
#                                CCDC 
#
#######################################################################
#
# If this CIF has been generated from an entry in the Cambridge 
# Structural Database, then it will include bibliographic, chemical, 
# crystal, experimental, refinement or atomic coordinate data resulting 
# from the CCDC's data processing and validation procedures.
#
#######################################################################

data_PINHUR
_chemical_formula_moiety         'C56 H80 O8,0.5(C1 H1 Cl3),0.5(C1 H4 O1)'
_chemical_name_systematic        
'2,8,14,20-Tetrahexyl-4,10,16,22-tetrahydroxy-6,12,18,24-tetramethoxyresorcinarene chloroform methanol solvate'
_symmetry_cell_setting           triclinic
_symmetry_space_group_name_H-M   'P -1'
_symmetry_Int_Tables_number      2
_space_group_name_Hall           '-P 1'
loop_
_symmetry_equiv_pos_site_id
_symmetry_equiv_pos_as_xyz
1 x,y,z
2 -x,-y,-z
_cell_length_a                   15.471(2)
_cell_length_b                   19.952(3)
_cell_length_c                   20.666(3)
_cell_angle_alpha                69.020(2)
_cell_angle_beta                 68.721(2)
_cell_angle_gamma                88.957(2)
_cell_volume                     5504.2
_chemical_melting_point          '179-180 deg.C'
_cell_formula_units_Z            4
loop_
_atom_site_label
_atom_site_type_symbol
_atom_site_fract_x
_atom_site_fract_y
_atom_site_fract_z
C1 C 0.3475(4) 0.8073(4) 0.8232(4)
C2 C 0.4287(5) 0.7752(4) 0.8110(4)
C3 C 0.5065(4) 0.8068(4) 0.7457(4)
H1 H 0.5609 0.7849 0.7390
C4 C 0.5046(5) 0.8702(4) 0.6905(4)
C5 C 0.6623(5) 0.8706(5) 0.6101(4)
H2 H 0.6900 0.8713 0.6446
H3 H 0.7054 0.8967 0.5597
H4 H 0.6477 0.8215 0.6167
C6 C 0.4242(4) 0.9042(3) 0.7002(4)
C7 C 0.3482(4) 0.8700(3) 0.7666(3)
H5 H 0.2933 0.8913 0.7734
C8 C 0.4173(4) 0.9746(3) 0.6413(3)
H6 H 0.4803 0.9909 0.6023
C9 C 0.3929(5) 1.0342(4) 0.6714(4)
H7 H 0.3329 1.0188 0.7132
H8 H 0.3868 1.0768 0.6326
C10 C 0.4657(5) 1.0539(4) 0.6973(4)
H9 H 0.4737 1.0107 0.7346
H10 H 0.5252 1.0709 0.6549
C11 C 0.4402(5) 1.1116(4) 0.7305(5)
H11 H 0.3796 1.0954 0.7715
H12 H 0.4348 1.1554 0.6925
C12 C 0.5111(7) 1.1293(5) 0.7593(6)
H13 H 0.5177 1.0852 0.7963
H14 H 0.5714 1.1466 0.7180
C13 C 0.4855(8) 1.1851(7) 0.7939(6)
H15 H 0.4213 1.1713 0.8298
H16 H 0.5249 1.1843 0.8214
C14 C 0.4945(8) 1.2603(7) 0.7402(6)
H17 H 0.5586 1.2759 0.7064
H18 H 0.4745 1.2917 0.7673
H19 H 0.4561 1.2618 0.7123
C15 C 0.3554(5) 0.9614(3) 0.6031(4)
C16 C 0.3859(5) 0.9276(4) 0.5526(4)
C17 C 0.3295(5) 0.9146(4) 0.5181(3)
H20 H 0.3508 0.8913 0.4845
C18 C 0.2419(5) 0.9363(4) 0.5342(4)
C19 C 0.2204(7) 0.9032(7) 0.4401(6)
H21 H 0.2711 0.9382 0.4001
H22 H 0.1726 0.8977 0.4223
H23 H 0.2429 0.8576 0.4569
C20 C 0.2075(4) 0.9693(4) 0.5852(4)
C21 C 0.2660(4) 0.9812(3) 0.6185(3)
H24 H 0.2441 1.0036 0.6528
C22 C 0.1083(4) 0.9898(4) 0.6032(4)
H25 H 0.0999 1.0105 0.5554
C23 C 0.0895(5) 1.0473(4) 0.6382(4)
H26 H 0.1379 1.0883 0.6075
H27 H 0.0922 1.0273 0.6875
C24 C -0.0057(5) 1.0730(5) 0.6452(5)
H28 H -0.0066 1.0962 0.5954
H29 H -0.0536 1.0314 0.6724
C25 C -0.0287(6) 1.1241(6) 0.6837(6)
H30 H 0.0159 1.1676 0.6536
H31 H -0.0210 1.1027 0.7311
C26 C -0.1278(8) 1.1455(6) 0.6989(8)
H32 H -0.1328 1.1718 0.6511
H33 H -0.1717 1.1016 0.7236
C27 C -0.1563(9) 1.1897(9) 0.7445(9)
H34 H -0.1142 1.2347 0.7194
H35 H -0.1508 1.1643 0.7922
C28 C -0.2522(10) 1.2062(10) 0.7580(10)
H36 H -0.2576 1.2331 0.7110
H37 H -0.2678 1.2344 0.7888
H38 H -0.2943 1.1619 0.7830
C29 C 0.0372(4) 0.9222(3) 0.6513(3)
C30 C -0.0264(5) 0.8969(4) 0.6285(4)
C31 C -0.0935(4) 0.8395(4) 0.6759(4)
H39 H -0.1341 0.8236 0.6590
C32 C -0.1011(5) 0.8051(4) 0.7488(4)
C33 C -0.2416(6) 0.7317(5) 0.7799(5)
H40 H -0.2656 0.7760 0.7605
H41 H -0.2905 0.6984 0.8235
H42 H -0.2192 0.7110 0.7424
C34 C -0.0400(4) 0.8260(4) 0.7754(4)
C35 C 0.0267(4) 0.8838(4) 0.7259(4)
H43 H 0.0680 0.8987 0.7429
C36 C -0.0473(4) 0.7899(4) 0.8564(3)
H44 H -0.1026 0.7534 0.8830
C37 C -0.0657(5) 0.8451(4) 0.8940(4)
H45 H -0.0668 0.8217 0.9443
H46 H -0.0138 0.8838 0.8665
C38 C -0.1548(6) 0.8779(5) 0.8989(5)
H47 H -0.1553 0.8999 0.8489
H48 H -0.2073 0.8398 0.9286
C39 C -0.1675(8) 0.9343(7) 0.9334(6)
H49 H -0.1652 0.9118 0.9828
H50 H -0.1144 0.9718 0.9033
C40 C -0.2531(11) 0.9692(12) 0.9416(10)
H51 H -0.2493 0.9989 0.8915
H52 H -0.3051 0.9313 0.9628
C41 C -0.2762(14) 1.0125(11) 0.9842(14)
H53 H -0.2282 1.0536 0.9619
H54 H -0.2799 0.9848 1.0346
C42 C -0.3619(17) 1.0365(15) 0.987(2)
H55 H -0.3972 1.0361 1.0358
H56 H -0.3960 1.0050 0.9758
H57 H -0.3517 1.0848 0.9502
C43 C 0.0368(4) 0.7496(4) 0.8605(3)
C44 C 0.0484(5) 0.6853(4) 0.8498(3)
C45 C 0.1245(4) 0.6502(4) 0.8522(3)
H58 H 0.1307 0.6075 0.8432
C46 C 0.1921(5) 0.6779(4) 0.8680(3)
C47 C 0.2781(5) 0.5760(4) 0.8664(5)
H59 H 0.2244 0.5422 0.9035
H60 H 0.3335 0.5586 0.8737
H61 H 0.2826 0.5810 0.8173
C48 C 0.1855(4) 0.7438(4) 0.8790(3)
C49 C 0.1075(4) 0.7784(3) 0.8750(3)
H62 H 0.1017 0.8219 0.8822
C50 C 0.2611(4) 0.7742(3) 0.8954(3)
H63 H 0.2791 0.7332 0.9293
C51 C 0.2303(4) 0.8279(4) 0.9347(4)
H64 H 0.2840 0.8458 0.9403
H65 H 0.2118 0.8689 0.9021
C52 C 0.1503(5) 0.7987(4) 1.0114(4)
H66 H 0.1344 0.8385 1.0282
H67 H 0.0961 0.7823 1.0053
C53 C 0.1672(6) 0.7380(5) 1.0723(5)
H68 H 0.2185 0.7544 1.0818
H69 H 0.1848 0.6980 1.0561
C54 C 0.0777(7) 0.7119(6) 1.1459(5)
H70 H 0.0631 0.7521 1.1623
H71 H 0.0261 0.7000 1.1341
C55 C 0.0824(9) 0.6509(7) 1.2073(7)
H72 H 0.1331 0.6630 1.2199
H73 H 0.0977 0.6108 1.1909
C56 C -0.0030(8) 0.6267(7) 1.2753(6)
H74 H -0.0081 0.6589 1.3013
H75 H -0.0005 0.5786 1.3072
H76 H -0.0563 0.6268 1.2619
O1 O 0.4365(3) 0.7104(3) 0.8612(3)
H77 H 0.3881 0.6827 0.8787
O2 O 0.5788(3) 0.9039(2) 0.6240(3)
O3 O 0.4704(3) 0.9020(3) 0.5346(3)
H78 H 0.4978 0.9083 0.5597
O4 O 0.1830(3) 0.9268(3) 0.4997(3)
O5 O -0.0196(3) 0.9288(3) 0.5551(3)
H79 H -0.0720 0.9336 0.5544
O6 O -0.1676(3) 0.7461(3) 0.7993(3)
O7 O -0.0145(3) 0.6544(3) 0.8314(3)
H80 H -0.0674 0.6629 0.8521
O8 O 0.2691(3) 0.6451(3) 0.8734(2)
C57 C 0.7127(4) 0.6441(3) 0.0500(3)
C58 C 0.7388(5) 0.6081(4) 0.0015(4)
C59 C 0.6791(5) 0.5912(4) -0.0282(3)
H81 H 0.6981 0.5648 -0.0590
C60 C 0.5913(5) 0.6134(3) -0.0124(3)
C61 C 0.5555(5) 0.5702(4) -0.0957(4)
H82 H 0.6077 0.6010 -0.1384
H83 H 0.5043 0.5664 -0.1105
H84 H 0.5731 0.5230 -0.0763
C62 C 0.5605(5) 0.6502(3) 0.0367(3)
C63 C 0.6226(4) 0.6644(3) 0.0662(3)
H85 H 0.6030 0.6889 0.0987
C64 C 0.4632(4) 0.6740(3) 0.0530(4)
H86 H 0.4524 0.6875 0.0064
C65 C 0.4547(5) 0.7412(4) 0.0728(4)
H87 H 0.3900 0.7505 0.0868
H88 H 0.4708 0.7314 0.1163
C66 C 0.5161(5) 0.8092(4) 0.0101(5)
H89 H 0.5122 0.8475 0.0293
H90 H 0.5806 0.7996 -0.0056
C67 C 0.4887(7) 0.8348(5) -0.0569(6)
H91 H 0.4233 0.8421 -0.0398
H92 H 0.4937 0.7962 -0.0757
C68 C 0.5440(9) 0.9035(6) -0.1220(7)
H93 H 0.5075 0.9236 -0.1522
H94 H 0.5544 0.9388 -0.1023
C69 C 0.6329(9) 0.8916(6) -0.1688(8)
H95 H 0.6222 0.8531 -0.1844
H96 H 0.6706 0.8748 -0.1389
C70 C 0.6890(8) 0.9574(7) -0.2389(6)
H97 H 0.6529 0.9744 -0.2695
H98 H 0.7462 0.9438 -0.2669
H99 H 0.7031 0.9951 -0.2243
C71 C 0.3884(4) 0.6128(3) 0.1105(4)
C72 C 0.3235(5) 0.5842(4) 0.0920(4)
C73 C 0.2509(5) 0.5297(4) 0.1464(4)
H100 H 0.2060 0.5132 0.1336
C74 C 0.2464(5) 0.5008(4) 0.2192(4)
C75 C 0.1030(6) 0.4253(5) 0.2605(6)
H101 H 0.0788 0.4682 0.2378
H102 H 0.0551 0.3950 0.3070
H103 H 0.1229 0.3995 0.2274
C76 C 0.3114(5) 0.5268(4) 0.2396(4)
C77 C 0.3799(5) 0.5817(4) 0.1848(4)
H104 H 0.4233 0.5992 0.1983
C78 C 0.3092(5) 0.4958(4) 0.3195(4)
H105 H 0.2552 0.4581 0.3480
C79 C 0.2901(6) 0.5497(5) 0.3591(5)
H106 H 0.3011 0.5290 0.4052
H107 H 0.3339 0.5935 0.3272
C80 C 0.1936(11) 0.5690(10) 0.3770(9)
H108 H 0.1490 0.5260 0.3974
H109 H 0.1869 0.6026 0.3322
C81 C 0.1758(18) 0.6057(14) 0.4378(11)
H110 H 0.2128 0.6530 0.4131
H111 H 0.1980 0.5765 0.4759
C82 C 0.3933(5) 0.4566(4) 0.3225(3)
C83 C 0.4000(5) 0.3904(5) 0.3145(4)
C84 C 0.4765(6) 0.3540(4) 0.3176(4)
H112 H 0.4802 0.3097 0.3118
C85 C 0.5475(5) 0.3833(4) 0.3291(3)
C86 C 0.6285(6) 0.2788(4) 0.3330(5)
H113 H 0.5785 0.2463 0.3765
H114 H 0.6874 0.2634 0.3338
H115 H 0.6219 0.2787 0.2886
C87 C 0.5428(5) 0.4502(4) 0.3373(3)
C88 C 0.4659(5) 0.4846(4) 0.3335(3)
H116 H 0.4624 0.5291 0.3386
C89 C 0.6226(4) 0.4810(3) 0.3493(3)
H117 H 0.6385 0.4408 0.3856
C90 C 0.5973(5) 0.5398(4) 0.3824(4)
H118 H 0.5838 0.5812 0.3467
H119 H 0.5409 0.5213 0.4275
C91 C 0.6733(6) 0.5644(5) 0.4014(5)
H120 H 0.6835 0.5238 0.4399
H121 H 0.7309 0.5796 0.3572
C92 C 0.6516(7) 0.6254(6) 0.4283(6)
H122 H 0.6299 0.6617 0.3938
H123 H 0.5996 0.6070 0.4765
C93 C 0.7260(12) 0.6624(10) 0.4370(10)
H124 H 0.7691 0.6887 0.3859
H125 H 0.7581 0.6233 0.4579
C94 C 0.7258(19) 0.7133(15) 0.4768(13)
H126 H 0.6857 0.6930 0.5296
H127 H 0.7882 0.7292 0.4706
C95 C 0.6860(18) 0.7705(11) 0.4323(15)
H128 H 0.7259 0.7863 0.3802
H129 H 0.6812 0.8107 0.4481
H130 H 0.6250 0.7520 0.4395
C96 C 0.7104(4) 0.5079(3) 0.2760(3)
C97 C 0.7934(5) 0.4799(4) 0.2716(4)
C98 C 0.8705(5) 0.5060(4) 0.2033(4)
H131 H 0.9260 0.4857 0.1991
C99 C 0.8650(4) 0.5617(4) 0.1418(4)
C100 C 1.0262(5) 0.5603(5) 0.0630(4)
H132 H 1.0462 0.5631 0.1010
H133 H 1.0719 0.5887 0.0144
H134 H 1.0196 0.5108 0.0679
C101 C 0.7843(4) 0.5940(3) 0.1467(3)
C102 C 0.7075(4) 0.5645(3) 0.2137(3)
H135 H 0.6514 0.5836 0.2172
C103 C 0.7788(4) 0.6613(4) 0.0836(3)
H136 H 0.8414 0.6757 0.0438
C104 C 0.7552(5) 0.7234(4) 0.1102(4)
H137 H 0.7458 0.7637 0.0710
H138 H 0.6968 0.7083 0.1537
C105 C 0.8296(5) 0.7489(4) 0.1308(4)
H139 H 0.8876 0.7654 0.0870
H140 H 0.8403 0.7084 0.1691
C106 C 0.8032(7) 0.8107(5) 0.1598(6)
H141 H 0.7872 0.8495 0.1232
H142 H 0.7480 0.7929 0.2059
C107 C 0.8805(9) 0.8411(8) 0.1745(9)
H143 H 0.8946 0.8024 0.2124
H144 H 0.9364 0.8567 0.1289
C108 C 0.8594(12) 0.9015(10) 0.1991(10)
H145 H 0.8993 0.9051 0.2250
H146 H 0.7950 0.8923 0.2344
C109 C 0.8735(14) 0.9722(9) 0.1348(11)
H147 H 0.9256 0.9725 0.0915
H148 H 0.8857 1.0113 0.1481
H149 H 0.8181 0.9777 0.1236
O9 O 0.8258(3) 0.5857(3) -0.0202(2)
H150 H 0.8566 0.5973 0.0000
O10 O 0.5281(3) 0.5999(2) -0.0399(2)
O11 O 0.3249(3) 0.6068(3) 0.0210(3)
H151 H 0.3687 0.6388 -0.0074
O12 O 0.1801(4) 0.4450(3) 0.2744(3)
O13 O 0.3336(4) 0.3563(3) 0.3034(3)
H152 H 0.2906 0.3810 0.3027
O14 O 0.6248(4) 0.3503(3) 0.3334(3)
O15 O 0.8003(3) 0.4278(3) 0.3322(3)
H153 H 0.8537 0.4169 0.3212
O16 O 0.9381(3) 0.5877(3) 0.0718(2)
C110 C 0.0496(17) 0.617(2) 0.485(3)
H154 H 0.0224 0.6167 0.4498
H155 H 0.0250 0.5705 0.5266
C111 C -0.011(3) 0.678(2) 0.5230(16)
H156 H -0.0081 0.6587 0.5723
H157 H 0.0357 0.7203 0.4954
C112 C -0.101(2) 0.714(3) 0.540(3)
H158 H -0.1523 0.6817 0.5478
H159 H -0.0933 0.7580 0.4980
H160 H -0.1127 0.7242 0.5839
C113 C 0.1273(7) 0.7466(5) 0.6382(6)
H161 H 0.0810 0.7741 0.6240
H162 H 0.1789 0.7484 0.5940
H163 H 0.1491 0.7668 0.6661
O17 O 0.0876(4) 0.6742(3) 0.6828(4)
H164 H 0.0433 0.6727 0.7205
C114 C 0.385(2) 0.7266(14) 0.4972(15)
H165 H 0.3472 0.7052 0.5511
Cl1 Cl 0.320(2) 0.7330(9) 0.4670(9)
Cl2 Cl 0.3805(15) 0.6398(9) 0.4638(7)
Cl3 Cl 0.4580(19) 0.7982(16) 0.4904(15)
loop_
_geom_bond_atom_site_label_1
_geom_bond_atom_site_label_2
_geom_bond_site_symmetry_1
_geom_bond_site_symmetry_2
C1 C2 1_555 1_555
C2 C3 1_555 1_555
C3 H1 1_555 1_555
C4 C3 1_555 1_555
C5 H2 1_555 1_555
H3 C5 1_555 1_555
H4 C5 1_555 1_555
C6 C4 1_555 1_555
C7 C1 1_555 1_555
H5 C7 1_555 1_555
C8 C6 1_555 1_555
H6 C8 1_555 1_555
C9 C8 1_555 1_555
H7 C9 1_555 1_555
H8 C9 1_555 1_555
C10 C9 1_555 1_555
H9 C10 1_555 1_555
H10 C10 1_555 1_555
C11 C10 1_555 1_555
H11 C11 1_555 1_555
H12 C11 1_555 1_555
C12 C11 1_555 1_555
H13 C12 1_555 1_555
H14 C12 1_555 1_555
C13 C12 1_555 1_555
H15 C13 1_555 1_555
H16 C13 1_555 1_555
C14 C13 1_555 1_555
H17 C14 1_555 1_555
H18 C14 1_555 1_555
H19 C14 1_555 1_555
C15 C8 1_555 1_555
C16 C15 1_555 1_555
C17 C16 1_555 1_555
H20 C17 1_555 1_555
C18 C17 1_555 1_555
C19 H21 1_555 1_555
H22 C19 1_555 1_555
H23 C19 1_555 1_555
C20 C18 1_555 1_555
C21 C15 1_555 1_555
H24 C21 1_555 1_555
C22 C20 1_555 1_555
H25 C22 1_555 1_555
C23 C22 1_555 1_555
H26 C23 1_555 1_555
H27 C23 1_555 1_555
C24 C23 1_555 1_555
H28 C24 1_555 1_555
H29 C24 1_555 1_555
C25 C24 1_555 1_555
H30 C25 1_555 1_555
H31 C25 1_555 1_555
C26 C25 1_555 1_555
H32 C26 1_555 1_555
H33 C26 1_555 1_555
C27 C26 1_555 1_555
H34 C27 1_555 1_555
H35 C27 1_555 1_555
C28 C27 1_555 1_555
H36 C28 1_555 1_555
H37 C28 1_555 1_555
H38 C28 1_555 1_555
C29 C22 1_555 1_555
C30 C29 1_555 1_555
C31 C30 1_555 1_555
H39 C31 1_555 1_555
C32 C31 1_555 1_555
C33 H40 1_555 1_555
H41 C33 1_555 1_555
H42 C33 1_555 1_555
C34 C32 1_555 1_555
C35 C29 1_555 1_555
H43 C35 1_555 1_555
C36 C34 1_555 1_555
H44 C36 1_555 1_555
C37 C36 1_555 1_555
H45 C37 1_555 1_555
H46 C37 1_555 1_555
C38 C37 1_555 1_555
H47 C38 1_555 1_555
H48 C38 1_555 1_555
C39 C38 1_555 1_555
H49 C39 1_555 1_555
H50 C39 1_555 1_555
C40 C39 1_555 1_555
H51 C40 1_555 1_555
H52 C40 1_555 1_555
C41 C40 1_555 1_555
H53 C41 1_555 1_555
H54 C41 1_555 1_555
C42 C41 1_555 1_555
H55 C42 1_555 1_555
H56 C42 1_555 1_555
H57 C42 1_555 1_555
C43 C36 1_555 1_555
C44 C43 1_555 1_555
C45 C44 1_555 1_555
H58 C45 1_555 1_555
C46 C45 1_555 1_555
C47 H59 1_555 1_555
H60 C47 1_555 1_555
H61 C47 1_555 1_555
C48 C46 1_555 1_555
C49 C43 1_555 1_555
H62 C49 1_555 1_555
C50 C1 1_555 1_555
H63 C50 1_555 1_555
C51 C50 1_555 1_555
H64 C51 1_555 1_555
H65 C51 1_555 1_555
C52 C51 1_555 1_555
H66 C52 1_555 1_555
H67 C52 1_555 1_555
C53 C52 1_555 1_555
H68 C53 1_555 1_555
H69 C53 1_555 1_555
C54 C53 1_555 1_555
H70 C54 1_555 1_555
H71 C54 1_555 1_555
C55 C54 1_555 1_555
H72 C55 1_555 1_555
H73 C55 1_555 1_555
C56 C55 1_555 1_555
H74 C56 1_555 1_555
H75 C56 1_555 1_555
H76 C56 1_555 1_555
O1 C2 1_555 1_555
H77 O1 1_555 1_555
O2 C4 1_555 1_555
O3 C16 1_555 1_555
H78 O3 1_555 1_555
O4 C18 1_555 1_555
O5 C30 1_555 1_555
H79 O5 1_555 1_555
O6 C32 1_555 1_555
O7 C44 1_555 1_555
H80 O7 1_555 1_555
O8 C46 1_555 1_555
C57 C58 1_555 1_555
C58 C59 1_555 1_555
C59 H81 1_555 1_555
C60 C59 1_555 1_555
C61 H82 1_555 1_555
H83 C61 1_555 1_555
H84 C61 1_555 1_555
C62 C60 1_555 1_555
C63 C57 1_555 1_555
H85 C63 1_555 1_555
C64 C62 1_555 1_555
H86 C64 1_555 1_555
C65 C64 1_555 1_555
H87 C65 1_555 1_555
H88 C65 1_555 1_555
C66 C65 1_555 1_555
H89 C66 1_555 1_555
H90 C66 1_555 1_555
C67 C66 1_555 1_555
H91 C67 1_555 1_555
H92 C67 1_555 1_555
C68 C67 1_555 1_555
H93 C68 1_555 1_555
H94 C68 1_555 1_555
C69 C68 1_555 1_555
H95 C69 1_555 1_555
H96 C69 1_555 1_555
C70 C69 1_555 1_555
H97 C70 1_555 1_555
H98 C70 1_555 1_555
H99 C70 1_555 1_555
C71 C64 1_555 1_555
C72 C71 1_555 1_555
C73 C72 1_555 1_555
H100 C73 1_555 1_555
C74 C73 1_555 1_555
C75 H101 1_555 1_555
H102 C75 1_555 1_555
H103 C75 1_555 1_555
C76 C74 1_555 1_555
C77 C71 1_555 1_555
H104 C77 1_555 1_555
C78 C76 1_555 1_555
H105 C78 1_555 1_555
C79 C78 1_555 1_555
H106 C79 1_555 1_555
H107 C79 1_555 1_555
C80 C79 1_555 1_555
H108 C80 1_555 1_555
H109 C80 1_555 1_555
C81 C80 1_555 1_555
H110 C81 1_555 1_555
H111 C81 1_555 1_555
C82 C78 1_555 1_555
C83 C82 1_555 1_555
C84 C83 1_555 1_555
H112 C84 1_555 1_555
C85 C84 1_555 1_555
C86 H113 1_555 1_555
H114 C86 1_555 1_555
H115 C86 1_555 1_555
C87 C85 1_555 1_555
C88 C82 1_555 1_555
H116 C88 1_555 1_555
C89 C87 1_555 1_555
H117 C89 1_555 1_555
C90 C89 1_555 1_555
H118 C90 1_555 1_555
H119 C90 1_555 1_555
C91 C90 1_555 1_555
H120 C91 1_555 1_555
H121 C91 1_555 1_555
C92 C91 1_555 1_555
H122 C92 1_555 1_555
H123 C92 1_555 1_555
C93 C92 1_555 1_555
H124 C93 1_555 1_555
H125 C93 1_555 1_555
C94 C93 1_555 1_555
H126 C94 1_555 1_555
H127 C94 1_555 1_555
C95 C94 1_555 1_555
H128 C95 1_555 1_555
H129 C95 1_555 1_555
H130 C95 1_555 1_555
C96 C89 1_555 1_555
C97 C96 1_555 1_555
C98 C97 1_555 1_555
H131 C98 1_555 1_555
C99 C98 1_555 1_555
C100 H132 1_555 1_555
H133 C100 1_555 1_555
H134 C100 1_555 1_555
C101 C99 1_555 1_555
C102 C96 1_555 1_555
H135 C102 1_555 1_555
C103 C57 1_555 1_555
H136 C103 1_555 1_555
C104 C103 1_555 1_555
H137 C104 1_555 1_555
H138 C104 1_555 1_555
C105 C104 1_555 1_555
H139 C105 1_555 1_555
H140 C105 1_555 1_555
C106 C105 1_555 1_555
H141 C106 1_555 1_555
H142 C106 1_555 1_555
C107 C106 1_555 1_555
H143 C107 1_555 1_555
H144 C107 1_555 1_555
C108 C107 1_555 1_555
H145 C108 1_555 1_555
H146 C108 1_555 1_555
C109 C108 1_555 1_555
H147 C109 1_555 1_555
H148 C109 1_555 1_555
H149 C109 1_555 1_555
O9 C58 1_555 1_555
H150 O9 1_555 1_555
O10 C60 1_555 1_555
O11 C72 1_555 1_555
H151 O11 1_555 1_555
O12 C74 1_555 1_555
O13 C83 1_555 1_555
H152 O13 1_555 1_555
O14 C85 1_555 1_555
O15 C97 1_555 1_555
H153 O15 1_555 1_555
O16 C99 1_555 1_555
C110 C81 1_555 1_555
H154 C110 1_555 1_555
H155 C110 1_555 1_555
C111 C110 1_555 1_555
H156 C111 1_555 1_555
H157 C111 1_555 1_555
C112 C111 1_555 1_555
H158 C112 1_555 1_555
H159 C112 1_555 1_555
H160 C112 1_555 1_555
C113 H161 1_555 1_555
H162 C113 1_555 1_555
H163 C113 1_555 1_555
O17 C113 1_555 1_555
H164 O17 1_555 1_555
C114 H165 1_555 1_555
Cl1 C114 1_555 1_555
Cl2 C114 1_555 1_555
Cl3 C114 1_555 1_555
C5 O2 1_555 1_555
C6 C7 1_555 1_555
C19 O4 1_555 1_555
C20 C21 1_555 1_555
C33 O6 1_555 1_555
C34 C35 1_555 1_555
C47 O8 1_555 1_555
C48 C49 1_555 1_555
C48 C50 1_555 1_555
C61 O10 1_555 1_555
C62 C63 1_555 1_555
C75 O12 1_555 1_555
C76 C77 1_555 1_555
C86 O14 1_555 1_555
C87 C88 1_555 1_555
C100 O16 1_555 1_555
C101 C102 1_555 1_555
C101 C103 1_555 1_555

#END
