
#######################################################################
#
#                 Cambridge Crystallographic Data Centre
#                                CCDC 
#
#######################################################################
#
# If this CIF has been generated from an entry in the Cambridge 
# Structural Database, then it will include bibliographic, chemical, 
# crystal, experimental, refinement or atomic coordinate data resulting 
# from the CCDC's data processing and validation procedures.
#
#######################################################################

data_PINHIF
_chemical_name_common            
2,8,14,20-Tetrahexyl-4,10,16,22-tetramethoxycarbonylmethoxy-6,12,18,24-tetramethoxyresorcinarene
_chemical_formula_moiety         'C68 H96 O16'
_chemical_name_systematic        
"Tetramethyl 2,2',2'',2'''-((2,8,14,20-tetrahexyl-6,12,18,24-tetramethoxypentacyclo[19.3.1.1^3,7^.1^9,13^.1^15,19^]octacosa-1(25),3(28),4,6,9(27),10,12,15(26),16,18,21,23-dodecaene-4,10,16,22-tetrayl)tetrakis(oxy))tetraacetate"
_symmetry_cell_setting           triclinic
_symmetry_space_group_name_H-M   'P -1'
_symmetry_Int_Tables_number      2
_space_group_name_Hall           '-P 1'
loop_
_symmetry_equiv_pos_site_id
_symmetry_equiv_pos_as_xyz
1 x,y,z
2 -x,-y,-z
_cell_length_a                   10.1849(14)
_cell_length_b                   16.251(2)
_cell_length_c                   21.444(3)
_cell_angle_alpha                100.599(2)
_cell_angle_beta                 100.318(2)
_cell_angle_gamma                99.959(2)
_cell_volume                     3353.63
_chemical_melting_point          '89-90 deg.C'
_cell_formula_units_Z            2
loop_
_atom_site_label
_atom_site_type_symbol
_atom_site_fract_x
_atom_site_fract_y
_atom_site_fract_z
C1 C 1.0207(3) 0.4521(2) 0.82409(16)
O1 O 1.1372(3) 0.59670(18) 0.85780(12)
C2 C 1.0946(3) 0.5191(2) 0.87405(17)
O2 O 1.1149(2) 0.41746(16) 1.01393(11)
C3 C 1.1281(3) 0.5105(2) 0.93729(16)
H1 H 1.1770 0.5572 0.9700
O3 O 1.3883(3) 0.4212(2) 1.02597(15)
C4 C 1.0886(3) 0.4326(2) 0.95143(15)
O4 O 1.4375(3) 0.5288(2) 1.11314(13)
C5 C 1.0124(3) 0.3621(2) 0.90401(15)
O5 O 0.5220(2) 0.24283(16) 0.58392(11)
C6 C 0.9801(3) 0.3737(2) 0.84071(15)
H2 H 0.9294 0.3274 0.8081
O6 O 0.7346(2) 0.49171(17) 0.75626(12)
C7 C 0.8473(3) 0.2179(2) 0.87775(15)
O7 O 0.7424(4) 0.6449(2) 0.8274(2)
C8 C 0.7187(3) 0.2299(2) 0.88483(16)
O8 O 0.5206(4) 0.6289(3) 0.7968(2)
C9 C 0.6010(3) 0.1770(2) 0.84480(18)
H3 H 0.5158 0.1869 0.8498
O9 O 0.6347(3) -0.12303(19) 0.63672(14)
C10 C 0.6106(3) 0.1098(2) 0.79764(17)
O10 O 0.6615(2) 0.05298(16) 0.47851(11)
C11 C 0.7354(3) 0.0929(2) 0.78917(16)
O11 O 0.8325(4) -0.0888(3) 0.4397(2)
C12 C 0.8499(3) 0.1491(2) 0.82957(16)
H4 H 0.9350 0.1399 0.8238
O12 O 0.8518(3) 0.0214(3) 0.39579(18)
C13 C 0.7150(3) 0.0260(2) 0.67046(16)
O13 O 0.7142(2) 0.29596(17) 0.93454(12)
C14 C 0.7452(3) 0.1050(2) 0.65407(16)
H5 H 0.7777 0.1539 0.6873
O14 O 0.4979(2) 0.05380(18) 0.75670(13)
C15 C 0.7286(3) 0.1139(2) 0.59002(16)
O15 O 0.3813(4) 0.1778(3) 0.7096(2)
C16 C 0.6802(3) 0.0403(3) 0.54148(17)
O16 O 0.2124(3) 0.1521(2) 0.75984(16)
C17 C 0.6473(3) -0.0391(2) 0.55524(18)
H6 H 0.6139 -0.0878 0.5219
C18 C 0.6650(3) -0.0452(2) 0.61961(18)
C19 C 0.7589(3) 0.2756(2) 0.62332(15)
C20 C 0.6325(3) 0.2956(2) 0.62704(16)
C21 C 0.6223(3) 0.3662(2) 0.67124(16)
H7 H 0.5371 0.3783 0.6735
C22 C 0.7386(3) 0.4190(2) 0.71220(16)
C23 C 0.8666(3) 0.4023(2) 0.71103(15)
C24 C 0.8719(3) 0.3301(2) 0.66637(16)
H8 H 0.9571 0.3174 0.6652
C25 C 0.9914(3) 0.4641(2) 0.75443(15)
H9 H 0.9715 0.5213 0.7571
C26 C 1.1215(3) 0.4662(3) 0.72737(16)
H10 H 1.1982 0.5018 0.7603
H11 H 1.1382 0.4086 0.7187
C27 C 1.1152(4) 0.5000(3) 0.66548(19)
H12 H 1.0409 0.4629 0.6319
H13 H 1.0947 0.5566 0.6736
C28 C 1.2432(4) 0.5052(3) 0.6411(2)
H14 H 1.2608 0.4480 0.6307
H15 H 1.3183 0.5395 0.6757
C29 C 1.2407(5) 0.5440(4) 0.5810(2)
H16 H 1.1636 0.5107 0.5471
H17 H 1.2257 0.6017 0.5920
C30 C 1.3640(6) 0.5474(4) 0.5549(3)
H18 H 1.3796 0.4898 0.5443
H19 H 1.4410 0.5812 0.5887
C31 C 1.3606(6) 0.5841(4) 0.4965(3)
H20 H 1.4453 0.5841 0.4828
H21 H 1.3476 0.6418 0.5066
H22 H 1.2866 0.5501 0.4622
C32 C 0.7674(3) 0.2001(2) 0.57223(16)
H23 H 0.6980 0.1990 0.5338
C33 C 0.9022(3) 0.2070(2) 0.54986(17)
H24 H 0.9768 0.2227 0.5879
H25 H 0.9058 0.1512 0.5255
C34 C 0.9238(4) 0.2719(3) 0.5078(2)
H26 H 0.8464 0.2586 0.4712
H27 H 0.9266 0.3285 0.5331
C35 C 1.0517(5) 0.2739(3) 0.4828(2)
H28 H 1.1288 0.2981 0.5192
H29 H 1.0574 0.2153 0.4659
C36 C 1.0669(5) 0.3226(4) 0.4311(3)
H30 H 0.9857 0.3025 0.3965
H31 H 1.0714 0.3826 0.4492
C37 C 1.1877(7) 0.3161(5) 0.4027(3)
H32 H 1.2687 0.3378 0.4374
H33 H 1.1845 0.2559 0.3862
C38 C 1.2042(8) 0.3613(6) 0.3500(4)
H34 H 1.2869 0.3537 0.3363
H35 H 1.2086 0.4212 0.3654
H36 H 1.1277 0.3383 0.3139
C39 C 0.7410(3) 0.0146(2) 0.74030(16)
H37 H 0.6670 -0.0314 0.7425
C40 C 0.8740(4) -0.0181(3) 0.75409(18)
H38 H 0.8737 -0.0627 0.7171
H39 H 0.9502 0.0287 0.7574
C41 C 0.8988(5) -0.0533(3) 0.8146(2)
H40 H 0.8266 -0.1027 0.8104
H41 H 0.8949 -0.0102 0.8517
C42 C 1.0353(9) -0.0793(6) 0.8272(4)
H42 H 1.1050 -0.0268 0.8411
H43 H 1.0379 -0.1062 0.8640
C43 C 1.0768(10) -0.1336(7) 0.7788(5)
H44 H 1.0737 -0.1063 0.7421
H45 H 1.0062 -0.1856 0.7648
C44 C 1.2134(10) -0.1618(8) 0.7892(6)
H46 H 1.2834 -0.1105 0.8091
H47 H 1.2112 -0.1967 0.8213
C45 C 1.2620(17) -0.2090(12) 0.7357(7)
H48 H 1.3503 -0.2193 0.7522
H49 H 1.2685 -0.1758 0.7033
H50 H 1.1990 -0.2627 0.7168
C46 C 0.9756(3) 0.2763(2) 0.92222(16)
H51 H 0.9549 0.2891 0.9654
C47 C 1.1018(3) 0.2364(2) 0.93022(18)
H52 H 1.1163 0.2141 0.8874
H53 H 1.1809 0.2811 0.9529
C48 C 1.0927(4) 0.1655(3) 0.9666(2)
H54 H 1.0743 0.1868 1.0088
H55 H 1.0165 0.1193 0.9429
C49 C 1.2206(5) 0.1308(4) 0.9761(3)
H56 H 1.2358 0.1067 0.9338
H57 H 1.2974 0.1778 0.9974
C50 C 1.2175(8) 0.0638(6) 1.0153(5)
H58 H 1.1452 0.0146 0.9929
H59 H 1.1982 0.0863 1.0570
C51 C 1.3546(12) 0.0360(10) 1.0259(8)
H60 H 1.3749 0.0153 0.9841
H61 H 1.4262 0.0851 1.0492
C52 C 1.2086(3) 0.4789(3) 1.06439(17)
H62 H 1.1890 0.4715 1.1059
H63 H 1.1984 0.5358 1.0597
C53 C 1.5820(4) 0.5278(4) 1.1194(2)
H64 H 1.6345 0.5717 1.1560
H65 H 1.6098 0.5382 1.0806
H66 H 1.5969 0.4729 1.1258
C54 C 1.1128(8) 0.6691(4) 0.8928(3)
H67 H 1.1477 0.7174 0.8762
H68 H 1.1572 0.6774 0.9376
H69 H 1.0162 0.6635 0.8892
C55 C 0.6130(4) 0.5211(3) 0.75056(19)
H70 H 0.5433 0.4809 0.7615
H71 H 0.5814 0.5255 0.7061
C56 C 0.6364(6) 0.6061(4) 0.7950(3)
C57 C 0.5278(12) 0.7109(7) 0.8428(5)
H72 H 0.4376 0.7218 0.8407
H73 H 0.5843 0.7568 0.8311
H74 H 0.5662 0.7071 0.8862
C58 C 0.3939(3) 0.2661(3) 0.58101(19)
H75 H 0.3255 0.2236 0.5490
H76 H 0.3988 0.3207 0.5694
H77 H 0.3705 0.2698 0.6227
C59 C 0.3675(4) 0.0642(3) 0.7654(2)
H78 H 0.3666 0.0709 0.8112
H79 H 0.3011 0.0126 0.7420
C60 C 0.3249(4) 0.1393(3) 0.7427(2)
C61 C 0.1533(6) 0.2189(4) 0.7373(3)
H80 H 0.0712 0.2221 0.7529
H81 H 0.1321 0.2062 0.6906
H82 H 0.2173 0.2728 0.7534
C62 C 0.5864(4) 0.2984(3) 0.9512(2)
H83 H 0.5964 0.3472 0.9859
H84 H 0.5544 0.2470 0.9649
H85 H 0.5218 0.3027 0.9140
C63 C 0.6459(4) -0.0180(3) 0.42549(17)
H86 H 0.6011 -0.0056 0.3855
H87 H 0.5901 -0.0685 0.4328
C64 C 0.7845(5) -0.0336(3) 0.4203(2)
C65 C 0.9936(4) 0.0180(4) 0.3961(3)
H88 H 1.0331 0.0622 0.3767
H89 H 0.9980 -0.0369 0.3718
H90 H 1.0433 0.0265 0.4401
C66 C 0.5351(6) -0.1881(3) 0.5965(3)
H91 H 0.5263 -0.2372 0.6157
H92 H 0.5593 -0.2030 0.5553
H93 H 0.4498 -0.1699 0.5904
C67 C 1.3534(18) -0.0269(16) 1.0603(12)
H94 H 1.4357 -0.0482 1.0607
H95 H 1.2759 -0.0728 1.0402
H96 H 1.3479 -0.0039 1.1041
C68 C 1.3522(4) 0.4710(3) 1.06355(19)
loop_
_geom_bond_atom_site_label_1
_geom_bond_atom_site_label_2
_geom_bond_site_symmetry_1
_geom_bond_site_symmetry_2
C1 C2 1_555 1_555
O1 C2 1_555 1_555
C2 C3 1_555 1_555
O2 C4 1_555 1_555
C3 H1 1_555 1_555
O3 C68 1_555 1_555
C4 C3 1_555 1_555
O4 C53 1_555 1_555
C5 C4 1_555 1_555
O5 C20 1_555 1_555
C6 C1 1_555 1_555
H2 C6 1_555 1_555
O6 C22 1_555 1_555
C7 C8 1_555 1_555
O7 C56 1_555 1_555
C8 C9 1_555 1_555
O8 C56 1_555 1_555
C9 H3 1_555 1_555
O9 C18 1_555 1_555
C10 C9 1_555 1_555
O10 C16 1_555 1_555
C11 C10 1_555 1_555
O11 C64 1_555 1_555
C12 C7 1_555 1_555
H4 C12 1_555 1_555
O12 C64 1_555 1_555
C13 C14 1_555 1_555
O13 C8 1_555 1_555
C14 H5 1_555 1_555
O14 C10 1_555 1_555
C15 C14 1_555 1_555
O15 C60 1_555 1_555
C16 C15 1_555 1_555
O16 C60 1_555 1_555
C17 C16 1_555 1_555
H6 C17 1_555 1_555
C18 C13 1_555 1_555
C19 C20 1_555 1_555
C20 C21 1_555 1_555
C21 H7 1_555 1_555
C22 C21 1_555 1_555
C23 C22 1_555 1_555
C24 C19 1_555 1_555
H8 C24 1_555 1_555
C25 C1 1_555 1_555
H9 C25 1_555 1_555
C26 C25 1_555 1_555
H10 C26 1_555 1_555
H11 C26 1_555 1_555
C27 C26 1_555 1_555
H12 C27 1_555 1_555
H13 C27 1_555 1_555
C28 C27 1_555 1_555
H14 C28 1_555 1_555
H15 C28 1_555 1_555
C29 C28 1_555 1_555
H16 C29 1_555 1_555
H17 C29 1_555 1_555
C30 C29 1_555 1_555
H18 C30 1_555 1_555
H19 C30 1_555 1_555
C31 C30 1_555 1_555
H20 C31 1_555 1_555
H21 C31 1_555 1_555
H22 C31 1_555 1_555
C32 C15 1_555 1_555
H23 C32 1_555 1_555
C33 C32 1_555 1_555
H24 C33 1_555 1_555
H25 C33 1_555 1_555
C34 C33 1_555 1_555
H26 C34 1_555 1_555
H27 C34 1_555 1_555
C35 C34 1_555 1_555
H28 C35 1_555 1_555
H29 C35 1_555 1_555
C36 C35 1_555 1_555
H30 C36 1_555 1_555
H31 C36 1_555 1_555
C37 C36 1_555 1_555
H32 C37 1_555 1_555
H33 C37 1_555 1_555
C38 C37 1_555 1_555
H34 C38 1_555 1_555
H35 C38 1_555 1_555
H36 C38 1_555 1_555
C39 C11 1_555 1_555
H37 C39 1_555 1_555
C40 C39 1_555 1_555
H38 C40 1_555 1_555
H39 C40 1_555 1_555
C41 C40 1_555 1_555
H40 C41 1_555 1_555
H41 C41 1_555 1_555
C42 C41 1_555 1_555
H42 C42 1_555 1_555
H43 C42 1_555 1_555
C43 C42 1_555 1_555
H44 C43 1_555 1_555
H45 C43 1_555 1_555
C44 C43 1_555 1_555
H46 C44 1_555 1_555
H47 C44 1_555 1_555
C45 C44 1_555 1_555
H48 C45 1_555 1_555
H49 C45 1_555 1_555
H50 C45 1_555 1_555
C46 C5 1_555 1_555
H51 C46 1_555 1_555
C47 C46 1_555 1_555
H52 C47 1_555 1_555
H53 C47 1_555 1_555
C48 C47 1_555 1_555
H54 C48 1_555 1_555
H55 C48 1_555 1_555
C49 C48 1_555 1_555
H56 C49 1_555 1_555
H57 C49 1_555 1_555
C50 C49 1_555 1_555
H58 C50 1_555 1_555
H59 C50 1_555 1_555
C51 C50 1_555 1_555
H60 C51 1_555 1_555
H61 C51 1_555 1_555
C52 O2 1_555 1_555
H62 C52 1_555 1_555
H63 C52 1_555 1_555
C53 H64 1_555 1_555
H65 C53 1_555 1_555
H66 C53 1_555 1_555
C54 O1 1_555 1_555
H67 C54 1_555 1_555
H68 C54 1_555 1_555
H69 C54 1_555 1_555
C55 O6 1_555 1_555
H70 C55 1_555 1_555
H71 C55 1_555 1_555
C56 C55 1_555 1_555
C57 O8 1_555 1_555
H72 C57 1_555 1_555
H73 C57 1_555 1_555
H74 C57 1_555 1_555
C58 O5 1_555 1_555
H75 C58 1_555 1_555
H76 C58 1_555 1_555
H77 C58 1_555 1_555
C59 O14 1_555 1_555
H78 C59 1_555 1_555
H79 C59 1_555 1_555
C60 C59 1_555 1_555
C61 O16 1_555 1_555
H80 C61 1_555 1_555
H81 C61 1_555 1_555
H82 C61 1_555 1_555
C62 O13 1_555 1_555
H83 C62 1_555 1_555
H84 C62 1_555 1_555
H85 C62 1_555 1_555
C63 O10 1_555 1_555
H86 C63 1_555 1_555
H87 C63 1_555 1_555
C64 C63 1_555 1_555
C65 O12 1_555 1_555
H88 C65 1_555 1_555
H89 C65 1_555 1_555
H90 C65 1_555 1_555
C66 O9 1_555 1_555
H91 C66 1_555 1_555
H92 C66 1_555 1_555
H93 C66 1_555 1_555
C67 C51 1_555 1_555
H94 C67 1_555 1_555
H95 C67 1_555 1_555
H96 C67 1_555 1_555
C68 O4 1_555 1_555
C5 C6 1_555 1_555
C7 C46 1_555 1_555
C11 C12 1_555 1_555
C13 C39 1_555 1_555
C17 C18 1_555 1_555
C19 C32 1_555 1_555
C23 C24 1_555 1_555
C23 C25 1_555 1_555
C52 C68 1_555 1_555

#END
