
#######################################################################
#
#                 Cambridge Crystallographic Data Centre
#                                CCDC 
#
#######################################################################
#
# If this CIF has been generated from an entry in the Cambridge 
# Structural Database, then it will include bibliographic, chemical, 
# crystal, experimental, refinement or atomic coordinate data resulting 
# from the CCDC's data processing and validation procedures.
#
#######################################################################

data_PINJAZ01
_chemical_name_common            
2,8,14,20-Tetraethyl-4,10,16,22-tetrahydroxy-6,12,18,24-tetramethoxyresorcinarene
_chemical_formula_moiety         'C40 H48 O8'
_chemical_name_systematic        
2,8,14,20-tetraethyl-6,12,18,24-tetramethoxypentacyclo[19.3.1.1^3,7^.1^9,13^.1^15,19^]octacosa-1(25),3(28),4,6,9(27),10,12,15(26),16,18,21,23-dodecaene-4,10,16,22-tetrol
_symmetry_cell_setting           triclinic
_symmetry_space_group_name_H-M   'P -1'
_symmetry_Int_Tables_number      2
_space_group_name_Hall           '-P 1'
loop_
_symmetry_equiv_pos_site_id
_symmetry_equiv_pos_as_xyz
1 x,y,z
2 -x,-y,-z
_cell_length_a                   12.2313(11)
_cell_length_b                   12.4236(11)
_cell_length_c                   12.4593(10)
_cell_angle_alpha                74.448(2)
_cell_angle_beta                 77.250(2)
_cell_angle_gamma                76.876(2)
_cell_volume                     1750.36
_exptl_crystal_colour            colorless
_exptl_crystal_description       block
_chemical_melting_point          '478 K'
_cell_formula_units_Z            2
_exptl_crystal_recrystallization_method 'Dichloromethane and tetrahydrofuran'
loop_
_atom_site_label
_atom_site_type_symbol
_atom_site_fract_x
_atom_site_fract_y
_atom_site_fract_z
O1 O -0.10184(15) 0.64173(16) 0.46355(14)
O2 O 0.12696(17) 0.77900(19) 0.64313(16)
H1 H 0.164(3) 0.8428(19) 0.629(3)
O3 O 0.31862(17) 0.91538(19) 0.61396(17)
O4 O 0.66255(16) 0.74835(19) 0.4066(2)
H2 H 0.709(2) 0.711(3) 0.350(2)
O5 O 0.60639(16) 0.53632(15) 0.35381(16)
O6 O 0.37450(17) 0.35962(17) 0.21672(19)
H3 H 0.318(2) 0.380(3) 0.169(2)
O7 O 0.16739(16) 0.39708(18) 0.09533(18)
O8 O -0.17866(15) 0.61709(19) 0.25213(18)
H4 H -0.2074 0.5522 0.2474
C1 C -0.00637(19) 0.7903(2) 0.3594(2)
C2 C -0.03012(18) 0.7124(2) 0.4619(2)
C3 C 0.0165(2) 0.7099(2) 0.5540(2)
H5 H 0.0003 0.6561 0.6230
C4 C 0.0874(2) 0.7861(2) 0.5457(2)
C5 C 0.11398(19) 0.8642(2) 0.4460(2)
C6 C 0.0656(2) 0.8648(2) 0.3543(2)
H6 H 0.0824 0.9183 0.2852
C7 C 0.1925(2) 0.9459(2) 0.4396(2)
H7 H 0.1694 0.9743 0.5107
C8 C 0.3161(2) 0.8847(2) 0.4357(2)
C9 C 0.3790(2) 0.8769(2) 0.5199(2)
C10 C 0.4942(2) 0.8306(2) 0.5079(2)
H8 H 0.5361 0.8272 0.5649
C11 C 0.5483(2) 0.7894(2) 0.4132(2)
C12 C 0.4885(2) 0.79155(19) 0.3286(2)
C13 C 0.3727(2) 0.8388(2) 0.3451(2)
H9 H 0.3299 0.8393 0.2900
C14 C 0.5437(2) 0.7492(2) 0.2222(2)
H10 H 0.6264 0.7217 0.2266
C15 C 0.49552(19) 0.6475(2) 0.2181(2)
C16 C 0.52902(19) 0.5408(2) 0.2871(2)
C17 C 0.4858(2) 0.4470(2) 0.2864(2)
H11 H 0.5080 0.3755 0.3348
C18 C 0.4096(2) 0.4584(2) 0.2142(2)
C19 C 0.3745(2) 0.5616(2) 0.1435(2)
C20 C 0.4185(2) 0.6547(2) 0.1489(2)
H12 H 0.3940 0.7267 0.1024
C21 C 0.2939(2) 0.5716(3) 0.0624(2)
H13 H 0.3154 0.5002 0.0343
C22 C 0.1699(2) 0.5778(2) 0.1218(2)
C23 C 0.1072(2) 0.4935(2) 0.1298(2)
C24 C -0.0090(2) 0.5074(2) 0.1734(2)
H14 H -0.0511 0.4509 0.1762
C25 C -0.0627(2) 0.6032(2) 0.2127(2)
C26 C -0.0033(2) 0.6871(2) 0.21213(19)
C27 C 0.1123(2) 0.6706(2) 0.16580(19)
H15 H 0.1544 0.7267 0.1642
C28 C -0.0597(2) 0.7907(2) 0.2597(2)
H16 H -0.1409 0.7826 0.2904
C29 C -0.1390(2) 0.5686(2) 0.5688(2)
H17 H -0.0731 0.5158 0.5964
H18 H -0.1923 0.5257 0.5581
H19 H -0.1772 0.6142 0.6241
C30 C 0.1842(2) 1.0501(2) 0.3399(3)
H20 H 0.2097 1.0248 0.2681
H21 H 0.1036 1.0885 0.3423
C31 C 0.2564(3) 1.1342(3) 0.3426(4)
H22 H 0.2365 1.1537 0.4165
H23 H 0.2419 1.2031 0.2833
H24 H 0.3372 1.0998 0.3297
C32 C 0.3822(3) 0.9187(3) 0.6969(3)
H25 H 0.4234 0.8423 0.7251
H26 H 0.3297 0.9457 0.7599
H27 H 0.4367 0.9703 0.6624
C33 C 0.5365(3) 0.8471(3) 0.1171(3)
H28 H 0.4555 0.8731 0.1084
H29 H 0.5636 0.9112 0.1297
C34 C 0.6018(4) 0.8194(4) 0.0118(3)
H30 H 0.6802 0.7847 0.0221
H31 H 0.6019 0.8888 -0.0484
H32 H 0.5669 0.7659 -0.0090
C35 C 0.6402(2) 0.4312(2) 0.4296(2)
H33 H 0.5727 0.4058 0.4802
H34 H 0.6920 0.4416 0.4745
H35 H 0.6792 0.3741 0.3864
C36 C 0.3058(2) 0.6700(3) -0.0417(2)
H36 H 0.2777 0.7429 -0.0183
H37 H 0.3873 0.6670 -0.0758
C37 C 0.2393(3) 0.6650(4) -0.1297(3)
H38 H 0.2620 0.5902 -0.1479
H39 H 0.2554 0.7239 -0.1983
H40 H 0.1575 0.6777 -0.0994
C38 C 0.1030(3) 0.3119(3) 0.0985(3)
H41 H 0.0649 0.2857 0.1762
H42 H 0.1546 0.2476 0.0726
H43 H 0.0459 0.3446 0.0491
C39 C -0.0617(3) 0.9025(3) 0.1687(3)
H44 H -0.0892 0.9672 0.2057
H45 H 0.0168 0.9078 0.1278
C40 C -0.1386(4) 0.9112(4) 0.0836(3)
H46 H -0.1034 0.8567 0.0363
H47 H -0.1483 0.9883 0.0358
H48 H -0.2131 0.8940 0.1245
C41? C 0.6329(14) 0.9158(12) 0.0945(13)
H49? H 0.6251 0.9777 0.0272
H50? H 0.7068 0.8658 0.0822
H51? H 0.6282 0.9475 0.1598
H52? H 0.4620 0.8983 0.1275
H53? H 0.5410 0.8161 0.0506
C42? C -0.1082(8) 0.9953(11) 0.1817(14)
H54? H -0.1619(13) 1.050(6) 0.137(3)
H55? H -0.045(3) 1.031(5) 0.182(8)
H56? H -0.1473(13) 0.972(8) 0.259(3)
C43? C -0.0617(3) 0.9025(3) 0.1687(3)
H57? H 0.0191 0.9084 0.1380
H58? H -0.0932 0.8904 0.1070
loop_
_geom_bond_atom_site_label_1
_geom_bond_atom_site_label_2
_geom_bond_site_symmetry_1
_geom_bond_site_symmetry_2
O1 C2 1_555 1_555
O2 H1 1_555 1_555
O3 C9 1_555 1_555
O4 H2 1_555 1_555
O5 C16 1_555 1_555
O6 H3 1_555 1_555
O7 C23 1_555 1_555
O8 H4 1_555 1_555
C1 C2 1_555 1_555
C2 C3 1_555 1_555
C3 H5 1_555 1_555
C4 O2 1_555 1_555
C5 C4 1_555 1_555
C6 C1 1_555 1_555
H6 C6 1_555 1_555
C7 C5 1_555 1_555
H7 C7 1_555 1_555
C8 C7 1_555 1_555
C9 C8 1_555 1_555
C10 C9 1_555 1_555
H8 C10 1_555 1_555
C11 O4 1_555 1_555
C12 C11 1_555 1_555
C13 C8 1_555 1_555
H9 C13 1_555 1_555
C14 C12 1_555 1_555
H10 C14 1_555 1_555
C15 C14 1_555 1_555
C16 C15 1_555 1_555
C17 C16 1_555 1_555
H11 C17 1_555 1_555
C18 O6 1_555 1_555
C19 C18 1_555 1_555
C20 C15 1_555 1_555
H12 C20 1_555 1_555
C21 C19 1_555 1_555
H13 C21 1_555 1_555
C22 C21 1_555 1_555
C23 C22 1_555 1_555
C24 C23 1_555 1_555
H14 C24 1_555 1_555
C25 O8 1_555 1_555
C26 C25 1_555 1_555
C27 C22 1_555 1_555
H15 C27 1_555 1_555
C28 C1 1_555 1_555
H16 C28 1_555 1_555
C29 O1 1_555 1_555
H17 C29 1_555 1_555
H18 C29 1_555 1_555
H19 C29 1_555 1_555
C30 C7 1_555 1_555
H20 C30 1_555 1_555
H21 C30 1_555 1_555
C31 C30 1_555 1_555
H22 C31 1_555 1_555
H23 C31 1_555 1_555
H24 C31 1_555 1_555
C32 O3 1_555 1_555
H25 C32 1_555 1_555
H26 C32 1_555 1_555
H27 C32 1_555 1_555
C33 C14 1_555 1_555
H28 C33 1_555 1_555
H29 C33 1_555 1_555
C34 C33 1_555 1_555
H30 C34 1_555 1_555
H31 C34 1_555 1_555
H32 C34 1_555 1_555
C35 O5 1_555 1_555
H33 C35 1_555 1_555
H34 C35 1_555 1_555
H35 C35 1_555 1_555
C36 C21 1_555 1_555
H36 C36 1_555 1_555
H37 C36 1_555 1_555
C37 C36 1_555 1_555
H38 C37 1_555 1_555
H39 C37 1_555 1_555
H40 C37 1_555 1_555
C38 O7 1_555 1_555
H41 C38 1_555 1_555
H42 C38 1_555 1_555
H43 C38 1_555 1_555
C39 C28 1_555 1_555
H44 C39 1_555 1_555
H45 C39 1_555 1_555
C40 C39 1_555 1_555
H46 C40 1_555 1_555
H47 C40 1_555 1_555
H48 C40 1_555 1_555
C3 C4 1_555 1_555
C5 C6 1_555 1_555
C10 C11 1_555 1_555
C12 C13 1_555 1_555
C17 C18 1_555 1_555
C19 C20 1_555 1_555
C24 C25 1_555 1_555
C26 C27 1_555 1_555
C26 C28 1_555 1_555

#END
