
#######################################################################
#
#                 Cambridge Crystallographic Data Centre
#                                CCDC 
#
#######################################################################
#
# If this CIF has been generated from an entry in the Cambridge 
# Structural Database, then it will include bibliographic, chemical, 
# crystal, experimental, refinement or atomic coordinate data resulting 
# from the CCDC's data processing and validation procedures.
#
#######################################################################

data_PINMAD
_chemical_formula_moiety         'C294 H294,4(C3 H6 O1),2(C1 H2 Cl2)'
_chemical_name_systematic        
'hexakis(8-t-butyl-5,11-dihexyltetrabenzo[a,fg,l,op]tetracen-17-yl)benzene acetone dichloromethane solvate'
_symmetry_cell_setting           triclinic
_symmetry_space_group_name_H-M   'P -1'
_symmetry_Int_Tables_number      2
_space_group_name_Hall           '-P 1'
loop_
_symmetry_equiv_pos_site_id
_symmetry_equiv_pos_as_xyz
1 x,y,z
2 -x,-y,-z
_cell_length_a                   17.0891(9)
_cell_length_b                   20.0238(11)
_cell_length_c                   20.4347(11)
_cell_angle_alpha                118.368(6)
_cell_angle_beta                 90.509(5)
_cell_angle_gamma                99.877(5)
_cell_volume                     6028.59
_exptl_crystal_colour            yellow
_exptl_crystal_description       block
_cell_formula_units_Z            1
loop_
_atom_site_label
_atom_site_type_symbol
_atom_site_fract_x
_atom_site_fract_y
_atom_site_fract_z
Cl1 Cl 0.70415(15) 0.55529(17) 0.55607(17)
Cl2 Cl 0.8773(2) 0.5886(3) 0.5717(2)
C1 C 0.8026(9) 0.5892(8) 0.6064(8)
H1 H 0.804729 0.642386 0.644446
H2 H 0.804853 0.559849 0.632647
C2 C 0.3921(5) 0.7499(5) 0.6442(4)
C3 C 0.4586(5) 0.8069(5) 0.6932(4)
C4 C 0.4555(5) 0.6694(4) 0.3815(4)
C5 C 0.5162(4) 0.4769(5) 0.4263(4)
C6 C 0.5752(6) 0.3998(4) 0.1258(5)
C7 C 0.5333(5) 0.4502(4) 0.3468(4)
C8 C 0.5081(4) 0.5521(5) 0.4721(5)
C9 C 0.5374(5) 0.7928(4) 0.6842(4)
C10 C 0.6003(5) 0.7098(4) 0.4247(4)
C11 C 0.3127(5) 0.7694(5) 0.6501(5)
C12 C 0.6264(5) 0.4324(4) 0.2532(5)
C13 C 0.6875(5) 0.8527(4) 0.7122(5)
C14 C 0.4911(4) 0.5759(4) 0.5467(5)
C15 C 0.5314(5) 0.7907(4) 0.3904(4)
C16 C 0.7778(5) 0.4459(4) 0.2784(5)
C17 C 0.5103(5) 0.9311(5) 0.8074(5)
C18 C 0.5912(5) 0.9180(5) 0.7946(5)
C19 C 0.4290(5) 0.3563(4) 0.0871(5)
C20 C 0.4818(5) 0.6578(4) 0.5947(4)
C21 C 0.3863(5) 0.6779(5) 0.3469(4)
C22 C 0.3866(5) 0.7491(5) 0.3482(4)
C23 C 0.4693(4) 0.4163(4) 0.2901(5)
H3 H 0.417420 0.410696 0.302859
C24 C 0.5459(4) 0.7162(5) 0.6352(4)
H4 H 0.596806 0.704951 0.630335
C25 C 0.4068(5) 0.6755(4) 0.5971(4)
H5 H 0.364198 0.636483 0.566420
C26 C 0.6058(5) 0.8546(5) 0.7291(5)
C27 C 0.2971(5) 0.8320(5) 0.7155(5)
C28 C 0.4447(6) 0.8765(5) 0.7555(5)
C29 C 0.3147(5) 0.6184(5) 0.3111(4)
C30 C 0.1681(6) 0.7313(4) 0.6076(5)
C31 C 0.5605(5) 0.4059(4) 0.1986(5)
C32 C 0.5916(4) 0.6543(4) 0.4491(4)
H6 H 0.636122 0.647863 0.470294
C33 C 0.5304(5) 0.7222(4) 0.3981(4)
C34 C 0.6095(5) 0.4557(4) 0.3270(5)
H7 H 0.651928 0.475816 0.364239
C35 C 0.5167(5) 0.6084(4) 0.4419(4)
C36 C 0.4813(5) 0.3909(4) 0.2150(5)
C37 C 0.3656(5) 0.8888(5) 0.7685(5)
C38 C 0.4158(5) 0.3544(4) 0.1544(5)
C39 C 0.6046(5) 0.8465(5) 0.4119(4)
C40 C 0.6766(5) 0.7595(5) 0.4319(4)
C41 C 0.4517(5) 0.6156(4) 0.4070(4)
H8 H 0.402932 0.583004 0.400139
C42 C 0.2429(5) 0.6376(5) 0.2969(4)
C43 C 0.4619(6) 0.8051(5) 0.3691(4)
C44 C 0.3388(5) 0.3170(4) 0.1607(4)
C45 C 0.3623(6) 0.3337(4) 0.0344(4)
H9 H 0.370881 0.336174 -0.009328
C46 C 0.7204(5) 0.4406(4) 0.1659(5)
C47 C 0.7625(5) 0.6644(5) 0.4166(4)
H10 H 0.717904 0.624387 0.395587
C48 C 0.2475(5) 0.7238(4) 0.5916(5)
C49 C 0.2863(5) 0.3084(4) 0.0439(5)
C50 C 0.2430(5) 0.7152(5) 0.3115(4)
C51 C 0.8385(6) 0.4345(4) 0.3793(4)
H11 H 0.832801 0.420464 0.416621
C52 C 0.1050(5) 0.6842(5) 0.5508(6)
H12 H 0.052677 0.686614 0.562301
C53 C 0.8553(6) 0.4725(4) 0.2662(5)
C54 C 0.6535(5) 0.4211(4) 0.1111(5)
C55 C 0.2731(5) 0.2981(4) 0.1086(5)
C56 C 0.3150(5) 0.5393(5) 0.2846(4)
H13 H 0.362676 0.524547 0.288886
C57 C 0.9140(5) 0.4667(4) 0.3712(5)
H14 H 0.957972 0.475600 0.403504
C58 C 0.7081(5) 0.4396(4) 0.2333(5)
C59 C 0.5091(6) 0.3804(4) 0.0735(5)
C60 C 0.3533(5) 0.9569(5) 0.8303(5)
H15 H 0.301585 0.965133 0.839261
C61 C 0.7724(5) 0.4227(4) 0.3343(5)
H16 H 0.723182 0.399127 0.340263
C62 C 0.3235(5) 0.2919(4) 0.2152(4)
H17 H 0.366167 0.296742 0.246793
C63 C 0.8246(5) 0.7978(5) 0.4630(4)
C64 C 0.7518(6) 0.9033(5) 0.7681(5)
C65 C 0.6760(5) 0.8300(5) 0.4329(4)
C66 C 0.5244(5) 0.3801(4) 0.0062(5)
H18 H 0.481457 0.365781 -0.029170
C67 C 0.2593(5) 0.6757(4) 0.5158(5)
H19 H 0.311098 0.674213 0.502383
C68 C 0.7082(5) 0.8052(4) 0.6408(5)
H20 H 0.667989 0.775617 0.601575
C69 C 0.6570(6) 0.9686(4) 0.8489(5)
H21 H 0.646857 1.009759 0.892861
C70 C 0.1965(6) 0.6317(4) 0.4620(5)
H22 H 0.206305 0.599213 0.413380
C71 C 0.3144(6) 0.7648(4) 0.3319(4)
H23 H 0.315585 0.812984 0.335424
C72 C 0.7527(5) 0.7401(5) 0.4376(4)
C73 C 0.1537(5) 0.7881(5) 0.6795(6)
C74 C 0.8642(5) 0.4834(4) 0.2009(5)
C75 C 0.1726(5) 0.5789(5) 0.2640(4)
H24 H 0.125104 0.591695 0.255506
C76 C 0.1965(5) 0.2664(4) 0.1167(5)
H25 H 0.153620 0.256239 0.082776
C77 C 0.1183(5) 0.6350(5) 0.4791(5)
H26 H 0.075695 0.604290 0.442630
C78 C 0.2491(6) 0.2613(4) 0.2224(4)
H27 H 0.241458 0.247604 0.259740
C79 C 0.6632(5) 0.4207(4) 0.0426(6)
H28 H 0.714485 0.435072 0.032535
C80 C 0.7330(6) 0.9596(5) 0.8394(5)
C81 C 0.2464(6) 0.4837(5) 0.2527(4)
H29 H 0.248128 0.431991 0.236198
C82 C 0.8972(5) 0.7791(5) 0.4723(4)
H30 H 0.943097 0.817634 0.490229
C83 C 0.4649(5) 0.8737(5) 0.3639(4)
H31 H 0.418774 0.882831 0.347833
C84 C 0.5356(6) 0.9271(5) 0.3824(4)
C85 C 0.4929(5) 0.9969(5) 0.8677(5)
H32 H 0.534876 1.032480 0.902812
C86 C 0.8487(5) 0.8476(5) 0.6837(6)
H33 H 0.901325 0.843695 0.674189
C87 C 0.1845(5) 0.2503(4) 0.1747(5)
H34 H 0.133184 0.232095 0.181729
C88 C 0.9225(5) 0.4851(4) 0.3148(5)
H35 H 0.972855 0.506061 0.308222
C89 C 0.2171(6) 0.8387(5) 0.7296(5)
H36 H 0.207333 0.879010 0.774446
C90 C 0.8313(5) 0.8980(5) 0.7522(6)
H37 H 0.872767 0.929944 0.789534
C91 C 0.7986(6) 0.4627(5) 0.1529(4)
H38 H 0.805814 0.463069 0.107978
C92 C 0.4175(6) 1.0122(4) 0.8783(4)
C93 C 0.7853(6) 0.8013(5) 0.6274(5)
H39 H 0.796569 0.767214 0.579845
C94 C 0.6029(5) 0.9129(5) 0.4065(4)
H40 H 0.649908 0.949693 0.420015
C95 C 0.2186(5) 0.2862(5) -0.0157(4)
H41 H 0.240814 0.279522 -0.061394
H42 H 0.185859 0.236963 -0.025958
C96 C 0.6006(6) 0.4000(5) -0.0101(5)
C97 C 0.0699(5) 0.7956(5) 0.7028(5)
H43 H 0.035673 0.789025 0.661226
H44 H 0.071820 0.847374 0.743808
C98 C 0.7509(6) 0.8842(5) 0.4547(4)
H45 H 0.750841 0.930816 0.455075
C99 C 0.6145(5) 0.3973(5) -0.0854(5)
C100 C 0.1746(5) 0.5041(5) 0.2448(4)
H46 H 0.127760 0.466601 0.226335
C101 C 0.5397(5) 0.9988(5) 0.3716(5)
C102 C 0.1681(5) 0.7428(5) 0.3068(5)
H47 H 0.132910 0.702301 0.263600
H48 H 0.181509 0.787526 0.299223
C103 C 0.8342(6) 0.6466(5) 0.4256(4)
H49 H 0.837673 0.595898 0.411977
C104 C 0.8207(5) 0.8736(5) 0.4744(5)
C105 C 0.7969(5) 1.0072(4) 0.9057(5)
H50 H 0.775631 1.048266 0.945365
H51 H 0.842248 1.030878 0.890482
C106 C 0.9002(5) 0.9494(5) 1.0390(5)
H52 H 0.853996 0.911692 1.035398
H53 H 0.937042 0.921197 1.005824
C107 C 0.9026(5) 0.7062(6) 0.4558(5)
H54 H 0.951389 0.695526 0.464477
C108 C 0.8732(5) 1.0016(5) 1.0115(4)
H55 H 0.841259 1.034301 1.047539
H56 H 0.919924 1.035027 1.008826
C109 C 0.9433(5) 0.5208(5) 0.1896(4)
H57 H 0.943408 0.508459 0.137635
H58 H 0.985444 0.499984 0.201116
C110 C 0.1735(5) 0.8254(5) 0.4494(5)
H59 H 0.212916 0.802216 0.461331
H60 H 0.201814 0.867457 0.442405
C111 C 0.1234(5) 0.7647(5) 0.3764(5)
H61 H 0.077258 0.784146 0.370234
H62 H 0.104070 0.718300 0.380208
C112 C 0.4054(5) 1.0898(5) 0.9443(5)
C113 C 0.8249(5) 0.9565(5) 0.9355(4)
H63 H 0.778344 0.923112 0.938542
H64 H 0.856952 0.923468 0.899865
C114 C 0.9144(5) 0.7355(6) 0.2692(5)
H65 H 0.933708 0.756195 0.321313
H66 H 0.957561 0.749869 0.245034
C115 C 0.1241(5) 0.8579(5) 0.5145(6)
H67 H 0.093629 0.815259 0.519405
H68 H 0.086407 0.882982 0.503141
C116 C 0.1666(5) 0.3456(5) 0.0067(5)
H69 H 0.196183 0.391847 0.007447
H70 H 0.152118 0.359610 0.056759
C117 C 0.0333(5) 0.7368(5) 0.7271(5)
H71 H -0.022509 0.739464 0.733279
H72 H 0.035306 0.685246 0.687438
C118 C 0.9600(5) 0.6089(5) 0.2393(5)
H73 H 0.969323 0.620938 0.291039
H74 H 1.008503 0.631009 0.226455
C119 C 0.8929(5) 0.9400(5) 0.5070(6)
H75 H 0.887347 0.976985 0.490116
H76 H 0.940802 0.920137 0.489041
C120 C 0.9015(6) 0.9821(6) 0.5951(7)
H77 H 0.915425 0.946934 0.611305
H78 H 0.945324 1.026510 0.613664
C121 C 0.8929(5) 0.6468(5) 0.2325(5)
H79 H 0.847663 0.632547 0.254794
H80 H 0.876162 0.626148 0.179815
C122 C 0.8278(6) 1.0093(6) 0.6299(6)
H81 H 0.787645 0.964141 0.620176
H82 H 0.806994 1.034428 0.604973
C123 C 0.0737(6) 0.7483(6) 0.7988(6)
H83 H 0.079879 0.802345 0.836416
H84 H 0.126706 0.736775 0.790107
C124 C 0.4596(6) 1.1567(5) 0.9400(5)
H85 H 0.514473 1.153726 0.945948
H86 H 0.450340 1.205167 0.978986
H87 H 0.448028 1.153246 0.892249
C125 C 0.9403(5) 0.9910(5) 1.1184(5)
H88 H 0.904129 1.020258 1.151711
H89 H 0.987524 1.027591 1.121914
C126 C 0.1725(6) 0.9160(5) 0.5894(6)
H90 H 0.209146 0.890620 0.601741
H91 H 0.204155 0.958105 0.584369
C127 C 0.0288(6) 0.6985(6) 0.8291(6)
H92 H 0.019583 0.644827 0.790103
H93 H -0.023025 0.712406 0.840425
C128 C 0.8458(6) 0.7719(6) 0.2652(6)
H94 H 0.821801 0.746253 0.213878
H95 H 0.805581 0.763511 0.295209
C129 C 0.9647(6) 0.9370(5) 1.1452(5)
H96 H 1.003999 0.910997 1.115311
H97 H 0.918616 0.899397 1.140463
H98 H 0.986626 0.966864 1.196640
C130 C 0.3190(6) 1.1012(5) 0.9406(6)
H99 H 0.306045 1.101115 0.894776
H100 H 0.313837 1.149832 0.982229
H101 H 0.283149 1.059879 0.942687
C131 C 0.0894(5) 0.3138(6) -0.0486(5)
H102 H 0.104528 0.295276 -0.098987
H103 H 0.058384 0.269833 -0.046082
C132 C 0.8389(7) 1.0654(6) 0.7146(7)
H104 H 0.862297 1.042053 0.740133
H105 H 0.875706 1.112658 0.724790
C133 C 0.7602(8) 1.0850(7) 0.7450(7)
H106 H 0.726205 1.038393 0.739927
H107 H 0.733826 1.101532 0.714606
C134 C 0.1213(6) 0.9494(6) 0.6533(6)
H108 H 0.083728 0.973199 0.640921
H109 H 0.154867 0.987445 0.697956
H110 H 0.093099 0.908617 0.661410
C135 C 0.0380(6) 0.3713(6) -0.0339(6)
H111 H 0.066363 0.412216 -0.042587
H112 H 0.027809 0.394458 0.018204
C136 C 0.4612(6) 1.0147(7) 0.3603(10)
H113 H 0.436599 0.977556 0.310884
H114 H 0.467937 1.065918 0.366102
H115 H 0.427942 1.011093 0.396528
C137 C 0.5864(7) 1.0707(6) 0.4370(7)
H116 H 0.565430 1.076309 0.482379
H117 H 0.582001 1.115040 0.431520
H118 H 0.641454 1.066867 0.438918
C138 C 0.0705(8) 0.7052(6) 0.8990(7)
H119 H 0.039483 0.668142 0.911388
H120 H 0.122450 0.691501 0.888021
C139 C -0.0431(6) 0.3347(7) -0.0841(6)
H121 H -0.032935 0.310601 -0.136221
H122 H -0.072020 0.294613 -0.074613
C140 C 0.6990(6) 0.4300(10) -0.0888(6)
H123 H 0.714025 0.482198 -0.048626
H124 H 0.703660 0.429543 -0.135718
H125 H 0.733638 0.399071 -0.084082
C141 C 0.4275(8) 1.0916(6) 1.0175(5)
H126 H 0.393673 1.049361 1.019765
H127 H 0.420495 1.139715 1.058696
H128 H 0.482225 1.086877 1.020213
C142 C 0.5619(7) 0.4443(8) -0.0997(7)
H129 H 0.506783 0.423134 -0.100734
H130 H 0.571049 0.442121 -0.146920
H131 H 0.574802 0.497156 -0.060579
C143 C 0.8692(6) 0.8568(6) 0.2918(7)
H132 H 0.909777 0.865782 0.263120
H133 H 0.889521 0.883148 0.343670
H134 H 0.823416 0.875896 0.285687
C144 C 0.5872(10) 0.9863(8) 0.3064(8)
H135 H 0.634664 0.969065 0.311835
H136 H 0.601634 1.034070 0.304942
H137 H 0.555491 0.947832 0.260730
C145 C -0.0948(7) 0.3940(9) -0.0702(7)
H138 H -0.141010 0.370213 -0.106309
H139 H -0.064640 0.436478 -0.074703
H140 H -0.111366 0.412815 -0.020792
C146 C 0.7680(9) 1.1480(7) 0.8266(7)
H141 H 0.806444 1.192508 0.833672
H142 H 0.785289 1.128847 0.858166
H143 H 0.717186 1.162266 0.839218
C147 C 0.5913(10) 0.3152(8) -0.1450(6)
H144 H 0.630865 0.287095 -0.143464
H145 H 0.587466 0.312983 -0.192942
H146 H 0.540517 0.292359 -0.137268
C148 C 0.0813(9) 0.7826(7) 0.9642(7)
H147 H 0.117917 0.818604 0.954918
H148 H 0.102388 0.781542 1.007271
H149 H 0.030822 0.798520 0.972935
C2A C 0.6079(5) 0.2501(5) 0.3558(4)
C3A C 0.5414(5) 0.1931(5) 0.3068(4)
C4A C 0.5445(5) 0.3306(4) 0.6185(4)
C5A C 0.4838(4) 0.5231(5) 0.5737(4)
C6A C 0.4248(6) 0.6002(4) 0.8742(5)
C7A C 0.4667(5) 0.5498(4) 0.6532(4)
C8A C 0.4919(4) 0.4479(5) 0.5279(5)
C9A C 0.4626(5) 0.2072(4) 0.3158(4)
C10A C 0.3997(5) 0.2902(4) 0.5753(4)
C11A C 0.6873(5) 0.2306(5) 0.3499(5)
C12A C 0.3736(5) 0.5676(4) 0.7468(5)
C13A C 0.3125(5) 0.1473(4) 0.2878(5)
C14A C 0.5089(4) 0.4241(4) 0.4533(5)
C15A C 0.4686(5) 0.2093(4) 0.6096(4)
C16A C 0.2222(5) 0.5541(4) 0.7216(5)
C17A C 0.4897(5) 0.0689(5) 0.1926(5)
C18A C 0.4088(5) 0.0820(5) 0.2054(5)
C19A C 0.5710(5) 0.6437(4) 0.9129(5)
C20A C 0.5182(5) 0.3422(4) 0.4053(4)
C21A C 0.6137(5) 0.3221(5) 0.6531(4)
C22A C 0.6134(5) 0.2509(5) 0.6518(4)
C23A C 0.5307(4) 0.5837(4) 0.7099(5)
H3A H 0.582580 0.589304 0.697141
C24A C 0.4541(4) 0.2838(5) 0.3648(4)
H4A H 0.403194 0.295049 0.369665
C25A C 0.5932(5) 0.3245(4) 0.4029(4)
H5A H 0.635802 0.363517 0.433580
C26A C 0.3942(5) 0.1454(5) 0.2709(5)
C27A C 0.7029(5) 0.1680(5) 0.2845(5)
C28A C 0.5553(6) 0.1235(5) 0.2445(5)
C29A C 0.6853(5) 0.3816(5) 0.6889(4)
C30A C 0.8319(6) 0.2687(4) 0.3924(5)
C31A C 0.4395(5) 0.5941(4) 0.8014(5)
C32A C 0.4084(4) 0.3457(4) 0.5509(4)
H6A H 0.363878 0.352137 0.529706
C33A C 0.4696(5) 0.2778(4) 0.6019(4)
C34A C 0.3905(5) 0.5443(4) 0.6730(5)
H7A H 0.348072 0.524184 0.635761
C35A C 0.4833(5) 0.3916(4) 0.5581(4)
C36A C 0.5187(5) 0.6091(4) 0.7850(5)
C37A C 0.6344(5) 0.1112(5) 0.2315(5)
C38A C 0.5842(5) 0.6456(4) 0.8456(5)
C39A C 0.3954(5) 0.1535(5) 0.5881(4)
C40A C 0.3234(5) 0.2405(5) 0.5681(4)
C41A C 0.5483(5) 0.3844(4) 0.5930(4)
H8A H 0.597068 0.416996 0.599861
C42A C 0.7571(5) 0.3624(5) 0.7031(4)
C43A C 0.5381(6) 0.1949(5) 0.6309(4)
C44A C 0.6612(5) 0.6830(4) 0.8393(4)
C45A C 0.6377(6) 0.6663(4) 0.9656(4)
H9A H 0.629119 0.663826 1.009328
C46A C 0.2796(5) 0.5594(4) 0.8341(5)
C47A C 0.2375(5) 0.3356(5) 0.5834(4)
H10A H 0.282096 0.375613 0.604413
C48A C 0.7525(5) 0.2762(4) 0.4084(5)
C49A C 0.7137(5) 0.6916(4) 0.9561(5)
C50A C 0.7570(5) 0.2848(5) 0.6885(4)
C51A C 0.1615(6) 0.5655(4) 0.6207(4)
H11A H 0.167199 0.579536 0.583379
C52A C 0.8950(5) 0.3158(5) 0.4492(6)
H12A H 0.947323 0.313386 0.437699
C53A C 0.1447(6) 0.5275(4) 0.7338(5)
C54A C 0.3465(5) 0.5789(4) 0.8889(5)
C55A C 0.7269(5) 0.7019(4) 0.8914(5)
C56A C 0.6850(5) 0.4607(5) 0.7154(4)
H13A H 0.637324 0.475453 0.711114
C57A C 0.0860(5) 0.5333(4) 0.6288(5)
H14A H 0.042028 0.524400 0.596496
C58A C 0.2919(5) 0.5604(4) 0.7667(5)
C59A C 0.4909(6) 0.6196(4) 0.9265(5)
C60A C 0.6467(5) 0.0431(5) 0.1697(5)
H15A H 0.698415 0.034867 0.160739
C61A C 0.2276(5) 0.5773(4) 0.6657(5)
H16A H 0.276818 0.600873 0.659737
C62A C 0.6765(5) 0.7081(4) 0.7848(4)
H17A H 0.633833 0.703258 0.753207
C63A C 0.1754(5) 0.2022(5) 0.5370(4)
C64A C 0.2482(6) 0.0967(5) 0.2319(5)
C65A C 0.3240(5) 0.1700(5) 0.5671(4)
C66A C 0.4756(5) 0.6199(4) 0.9938(5)
H18A H 0.518543 0.634219 1.029170
C67A C 0.7407(5) 0.3243(4) 0.4842(5)
H19A H 0.688902 0.325787 0.497617
C68A C 0.2918(5) 0.1948(4) 0.3592(5)
H20A H 0.332011 0.224383 0.398425
C69A C 0.3430(6) 0.0314(4) 0.1511(5)
H21A H 0.353143 -0.009759 0.107139
C70A C 0.8035(6) 0.3683(4) 0.5380(5)
H22A H 0.793695 0.400787 0.586620
C71A C 0.6856(6) 0.2352(4) 0.6681(4)
H23A H 0.684415 0.187016 0.664576
C72A C 0.2473(5) 0.2599(5) 0.5624(4)
C73A C 0.8463(5) 0.2119(5) 0.3205(6)
C74A C 0.1358(5) 0.5166(4) 0.7991(5)
C75A C 0.8274(5) 0.4211(5) 0.7360(4)
H24A H 0.874896 0.408305 0.744494
C76A C 0.8035(5) 0.7336(4) 0.8833(5)
H25A H 0.846380 0.743761 0.917224
C77A C 0.8817(5) 0.3650(5) 0.5209(5)
H26A H 0.924305 0.395710 0.557370
C78A C 0.7509(6) 0.7387(4) 0.7776(4)
H27A H 0.758542 0.752396 0.740260
C79A C 0.3368(5) 0.5793(4) 0.9574(6)
H28A H 0.285515 0.564928 0.967465
C80A C 0.2670(6) 0.0404(5) 0.1606(5)
C81A C 0.7536(6) 0.5163(5) 0.7473(4)
H29A H 0.751872 0.568009 0.763802
C82A C 0.1028(5) 0.2209(5) 0.5277(4)
H30A H 0.056903 0.182366 0.509771
C83A C 0.5351(5) 0.1263(5) 0.6361(4)
H31A H 0.581226 0.117169 0.652167
C84A C 0.4644(6) 0.0729(5) 0.6176(4)
C85A C 0.5071(5) 0.0031(5) 0.1323(5)
H32A H 0.465124 -0.032480 0.097188
C86A C 0.1513(5) 0.1524(5) 0.3163(6)
H33A H 0.098675 0.156305 0.325811
C87A C 0.8155(5) 0.7497(4) 0.8253(5)
H34A H 0.866816 0.767905 0.818271
C88A C 0.0775(5) 0.5149(4) 0.6852(5)
H35A H 0.027145 0.493939 0.691778
C89A C 0.7829(6) 0.1613(5) 0.2704(5)
H36A H 0.792667 0.120990 0.225554
C90A C 0.1687(5) 0.1020(5) 0.2478(6)
H37A H 0.127233 0.070056 0.210466
C91A C 0.2014(6) 0.5373(5) 0.8471(4)
H38A H 0.194186 0.536931 0.892022
C92A C 0.5825(6) -0.0122(4) 0.1217(4)
C93A C 0.2147(6) 0.1987(5) 0.3726(5)
H39A H 0.203431 0.232786 0.420155
C94A C 0.3971(5) 0.0871(5) 0.5935(4)
H40A H 0.350092 0.050307 0.579985
C95A C 0.7814(5) 0.7138(5) 1.0157(4)
H41A H 0.759186 0.720478 1.061394
H42A H 0.814141 0.763037 1.025958
C96A C 0.3994(6) 0.6000(5) 1.0101(5)
C97A C 0.9301(5) 0.2044(5) 0.2972(5)
H43A H 0.964327 0.210975 0.338774
H44A H 0.928180 0.152626 0.256192
C98A C 0.2491(6) 0.1158(5) 0.5453(4)
H45A H 0.249159 0.069184 0.544925
C99A C 0.3855(5) 0.6027(5) 1.0854(5)
C100A C 0.8254(5) 0.4959(5) 0.7552(4)
H46A H 0.872240 0.533399 0.773665
C101A C 0.4603(5) 0.0012(5) 0.6284(5)
C102A C 0.8319(5) 0.2572(5) 0.6932(5)
H47A H 0.867090 0.297699 0.736400
H48A H 0.818491 0.212474 0.700777
C103A C 0.1658(6) 0.3534(5) 0.5744(4)
H49A H 0.162327 0.404102 0.588023
C104A C 0.1793(5) 0.1264(5) 0.5256(5)
C105A C 0.2031(5) -0.0072(4) 0.0943(5)
H50A H 0.224369 -0.048266 0.054635
H51A H 0.157752 -0.030878 0.109518
C106A C 0.0998(5) 0.0506(5) -0.0390(5)
H52A H 0.146004 0.088308 -0.035398
H53A H 0.062958 0.078803 -0.005824
C107A C 0.0974(5) 0.2938(6) 0.5442(5)
H54A H 0.048611 0.304474 0.535523
C108A C 0.1268(5) -0.0016(5) -0.0115(4)
H55A H 0.158741 -0.034301 -0.047539
H56A H 0.080076 -0.035027 -0.008826
C109A C 0.0567(5) 0.4792(5) 0.8104(4)
H57A H 0.056592 0.491541 0.862365
H58A H 0.014556 0.500016 0.798884
C110A C 0.8265(5) 0.1746(5) 0.5506(5)
H59A H 0.787084 0.197784 0.538669
H60A H 0.798186 0.132543 0.557595
C111A C 0.8766(5) 0.2353(5) 0.6236(5)
H61A H 0.922742 0.215854 0.629766
H62A H 0.895930 0.281700 0.619792
C112A C 0.5946(5) -0.0898(5) 0.0557(5)
C113A C 0.1751(5) 0.0435(5) 0.0645(4)
H63A H 0.221656 0.076888 0.061458
H64A H 0.143048 0.076532 0.100135
C114A C 0.0856(5) 0.2645(6) 0.7308(5)
H65A H 0.066292 0.243805 0.678687
H66A H 0.042439 0.250131 0.754966
C115A C 0.8759(5) 0.1421(5) 0.4855(6)
H67A H 0.906371 0.184741 0.480595
H68A H 0.913593 0.117018 0.496859
C116A C 0.8334(5) 0.6544(5) 0.9933(5)
H69A H 0.803817 0.608153 0.992553
H70A H 0.847882 0.640390 0.943241
C117A C 0.9667(5) 0.2632(5) 0.2729(5)
H71A H 1.022509 0.260536 0.266721
H72A H 0.964694 0.314754 0.312562
C118A C 0.0400(5) 0.3911(5) 0.7607(5)
H73A H 0.030677 0.379062 0.708961
H74A H -0.008503 0.368991 0.773545
C119A C 0.1071(5) 0.0600(5) 0.4930(6)
H75A H 0.112653 0.023015 0.509884
H76A H 0.059198 0.079863 0.510959
C120A C 0.0985(6) 0.0179(6) 0.4049(7)
H77A H 0.084575 0.053066 0.388695
H78A H 0.054676 -0.026510 0.386336
C121A C 0.1071(5) 0.3532(5) 0.7675(5)
H79A H 0.152337 0.367453 0.745206
H80A H 0.123838 0.373852 0.820185
C122A C 0.1722(6) -0.0093(6) 0.3701(6)
H81A H 0.212355 0.035859 0.379824
H82A H 0.193006 -0.034428 0.395027
C123A C 0.9263(6) 0.2517(6) 0.2012(6)
H83A H 0.920121 0.197655 0.163584
H84A H 0.873294 0.263225 0.209893
C124A C 0.5404(6) -0.1567(5) 0.0600(5)
H85A H 0.485527 -0.153726 0.054052
H86A H 0.549660 -0.205167 0.021014
H87A H 0.551972 -0.153246 0.107751
C125A C 0.0597(5) 0.0090(5) -0.1184(5)
H88A H 0.095871 -0.020258 -0.151711
H89A H 0.012476 -0.027591 -0.121914
C126A C 0.8275(6) 0.0840(5) 0.4106(6)
H90A H 0.790854 0.109380 0.398259
H91A H 0.795845 0.041895 0.415631
C127A C 0.9712(6) 0.3015(6) 0.1709(6)
H92A H 0.980417 0.355173 0.209897
H93A H 1.023025 0.287594 0.159575
C128A C 0.1542(6) 0.2281(6) 0.7348(6)
H94A H 0.178199 0.253747 0.786122
H95A H 0.194419 0.236489 0.704791
C129A C 0.0353(6) 0.0630(5) -0.1452(5)
H96A H -0.003999 0.089003 -0.115311
H97A H 0.081384 0.100603 -0.140463
H98A H 0.013374 0.033136 -0.196640
C130A C 0.6810(6) -0.1012(5) 0.0594(6)
H99A H 0.693955 -0.101115 0.105224
H100A H 0.686163 -0.149832 0.017771
H101A H 0.716851 -0.059879 0.057313
C131A C 0.9106(5) 0.6862(6) 1.0486(5)
H102A H 0.895472 0.704724 1.098987
H103A H 0.941616 0.730167 1.046082
C132A C 0.1611(7) -0.0654(6) 0.2854(7)
H104A H 0.137703 -0.042053 0.259867
H105A H 0.124294 -0.112658 0.275210
C133A C 0.2398(8) -0.0850(7) 0.2550(7)
H106A H 0.273795 -0.038393 0.260073
H107A H 0.266174 -0.101532 0.285394
C134A C 0.8787(6) 0.0506(6) 0.3467(6)
H108A H 0.916272 0.026801 0.359079
H109A H 0.845133 0.012555 0.302044
H110A H 0.906901 0.091383 0.338590
C135A C 0.9620(6) 0.6287(6) 1.0339(6)
H111A H 0.933637 0.587784 1.042587
H112A H 0.972191 0.605542 0.981796
C136A C 0.5388(6) -0.0147(7) 0.6397(10)
H113A H 0.563401 0.022444 0.689116
H114A H 0.532063 -0.065918 0.633898
H115A H 0.572058 -0.011093 0.603472
C137A C 0.4136(7) -0.0707(6) 0.5630(7)
H116A H 0.434570 -0.076309 0.517621
H117A H 0.417999 -0.115040 0.568480
H118A H 0.358546 -0.066867 0.561082
C138A C 0.9295(8) 0.2948(6) 0.1010(7)
H119A H 0.960517 0.331858 0.088612
H120A H 0.877550 0.308499 0.111979
C139A C 1.0431(6) 0.6653(7) 1.0841(6)
H121A H 1.032935 0.689399 1.136221
H122A H 1.072020 0.705387 1.074613
C140A C 0.3010(6) 0.5700(10) 1.0888(6)
H123A H 0.285975 0.517802 1.048626
H124A H 0.296340 0.570457 1.135718
H125A H 0.266362 0.600929 1.084082
C141A C 0.5725(8) -0.0916(6) -0.0175(5)
H126A H 0.606327 -0.049361 -0.019765
H127A H 0.579505 -0.139715 -0.058696
H128A H 0.517775 -0.086877 -0.020213
C142A C 0.4381(7) 0.5557(8) 1.0997(7)
H129A H 0.493217 0.576866 1.100734
H130A H 0.428951 0.557879 1.146920
H131A H 0.425198 0.502844 1.060579
C143A C 0.1308(6) 0.1432(6) 0.7082(7)
H132A H 0.090223 0.134218 0.736880
H133A H 0.110479 0.116852 0.656330
H134A H 0.176584 0.124104 0.714313
C144A C 0.4128(10) 0.0137(8) 0.6936(8)
H135A H 0.365336 0.030935 0.688165
H136A H 0.398366 -0.034070 0.695058
H137A H 0.444509 0.052168 0.739270
C145A C 1.0948(7) 0.6060(9) 1.0702(7)
H138A H 1.141010 0.629787 1.106309
H139A H 1.064640 0.563522 1.074703
H140A H 1.111366 0.587185 1.020792
C146A C 0.2320(9) -0.1480(7) 0.1734(7)
H141A H 0.193556 -0.192508 0.166328
H142A H 0.214711 -0.128847 0.141834
H143A H 0.282814 -0.162266 0.160782
C147A C 0.4087(10) 0.6848(8) 1.1450(6)
H144A H 0.369135 0.712905 1.143464
H145A H 0.412534 0.687017 1.192942
H146A H 0.459483 0.707641 1.137268
C148A C 0.9187(9) 0.2174(7) 0.0358(7)
H147A H 0.882083 0.181396 0.045082
H148A H 0.897612 0.218458 -0.007271
H149A H 0.969178 0.201480 0.027065
O1 O 0.3389(5) 0.3603(5) -0.1190(6)
C149 C 0.3615(6) 0.2392(5) -0.2132(6)
H150 H 0.360196 0.228352 -0.172187
H151 H 0.411285 0.231560 -0.234343
H152 H 0.318169 0.205052 -0.250643
C150 C 0.3533(7) 0.3251(12) -0.1845(9)
C151 C 0.3630(7) 0.3686(7) -0.2240(7)
H153 H 0.353761 0.419747 -0.192208
H154 H 0.325308 0.343161 -0.267906
H155 H 0.416242 0.371860 -0.238304
O2 O 0.6618(7) 1.1194(6) 1.0334(7)
C152 C 0.6670(8) 1.1841(10) 1.0674(11)
C153 C 0.6910(8) 1.2251(9) 1.0131(9)
H156 H 0.700997 1.186460 0.964945
H157 H 0.737994 1.265013 1.036113
H158 H 0.647569 1.247231 1.007275
C154 C 0.6390(13) 1.2257(7) 1.1400(8)
H159 H 0.590530 1.195400 1.142909
H160 H 0.629185 1.274290 1.146879
H161 H 0.678906 1.234939 1.178342
loop_
_geom_bond_atom_site_label_1
_geom_bond_atom_site_label_2
_geom_bond_site_symmetry_1
_geom_bond_site_symmetry_2
Cl1 C1 1_555 1_555
Cl2 C1 1_555 1_555
C1 H1 1_555 1_555
H2 C1 1_555 1_555
C2 C3 1_555 1_555
C3 C9 1_555 1_555
C4 C21 1_555 1_555
C5 C7 1_555 1_555
C6 C31 1_555 1_555
C7 C23 1_555 1_555
C8 C5 1_555 1_555
C9 C24 1_555 1_555
C10 C32 1_555 1_555
C11 C2 1_555 1_555
C12 C31 1_555 1_555
C13 C26 1_555 1_555
C14 C8 1_555 1_555
C15 C33 1_555 1_555
C16 C53 1_555 1_555
C17 C18 1_555 1_555
C18 C26 1_555 1_555
C19 C38 1_555 1_555
C20 C14 1_555 1_555
C21 C22 1_555 1_555
C22 C43 1_555 1_555
C23 H3 1_555 1_555
C24 C20 1_555 1_555
H4 C24 1_555 1_555
C25 C2 1_555 1_555
H5 C25 1_555 1_555
C26 C9 1_555 1_555
C27 C11 1_555 1_555
C28 C3 1_555 1_555
C29 C21 1_555 1_555
C30 C48 1_555 1_555
C31 C36 1_555 1_555
C32 H6 1_555 1_555
C33 C4 1_555 1_555
C34 C7 1_555 1_555
H7 C34 1_555 1_555
C35 C8 1_555 1_555
C36 C23 1_555 1_555
C37 C27 1_555 1_555
C38 C36 1_555 1_555
C39 C15 1_555 1_555
C40 C10 1_555 1_555
C41 C4 1_555 1_555
H8 C41 1_555 1_555
C42 C29 1_555 1_555
C43 C15 1_555 1_555
C44 C38 1_555 1_555
C45 C19 1_555 1_555
H9 C45 1_555 1_555
C46 C54 1_555 1_555
C47 H10 1_555 1_555
C48 C11 1_555 1_555
C49 C45 1_555 1_555
C50 C42 1_555 1_555
C51 H11 1_555 1_555
C52 C30 1_555 1_555
H12 C52 1_555 1_555
C53 C74 1_555 1_555
C54 C6 1_555 1_555
C55 C44 1_555 1_555
C56 C29 1_555 1_555
H13 C56 1_555 1_555
C57 C51 1_555 1_555
H14 C57 1_555 1_555
C58 C12 1_555 1_555
C59 C6 1_555 1_555
C60 C37 1_555 1_555
H15 C60 1_555 1_555
C61 C16 1_555 1_555
H16 C61 1_555 1_555
C62 C44 1_555 1_555
H17 C62 1_555 1_555
C63 C72 1_555 1_555
C64 C13 1_555 1_555
C65 C39 1_555 1_555
C66 C59 1_555 1_555
H18 C66 1_555 1_555
C67 C48 1_555 1_555
H19 C67 1_555 1_555
C68 C13 1_555 1_555
H20 C68 1_555 1_555
C69 C18 1_555 1_555
H21 C69 1_555 1_555
C70 C67 1_555 1_555
H22 C70 1_555 1_555
C71 C22 1_555 1_555
H23 C71 1_555 1_555
C72 C40 1_555 1_555
C73 C30 1_555 1_555
C74 C91 1_555 1_555
C75 C42 1_555 1_555
H24 C75 1_555 1_555
C76 C55 1_555 1_555
H25 C76 1_555 1_555
C77 C52 1_555 1_555
H26 C77 1_555 1_555
C78 C62 1_555 1_555
H27 C78 1_555 1_555
C79 C54 1_555 1_555
H28 C79 1_555 1_555
C80 C64 1_555 1_555
C81 C56 1_555 1_555
H29 C81 1_555 1_555
C82 C63 1_555 1_555
H30 C82 1_555 1_555
C83 C43 1_555 1_555
H31 C83 1_555 1_555
C84 C83 1_555 1_555
C85 C17 1_555 1_555
H32 C85 1_555 1_555
C86 H33 1_555 1_555
C87 C76 1_555 1_555
H34 C87 1_555 1_555
C88 C53 1_555 1_555
H35 C88 1_555 1_555
C89 C27 1_555 1_555
H36 C89 1_555 1_555
C90 C64 1_555 1_555
H37 C90 1_555 1_555
C91 C46 1_555 1_555
H38 C91 1_555 1_555
C92 C60 1_555 1_555
C93 C68 1_555 1_555
H39 C93 1_555 1_555
C94 C39 1_555 1_555
H40 C94 1_555 1_555
C95 C49 1_555 1_555
H41 C95 1_555 1_555
H42 C95 1_555 1_555
C96 C66 1_555 1_555
C97 C73 1_555 1_555
H43 C97 1_555 1_555
H44 C97 1_555 1_555
C98 C65 1_555 1_555
H45 C98 1_555 1_555
C99 C96 1_555 1_555
C100 C75 1_555 1_555
H46 C100 1_555 1_555
C101 C84 1_555 1_555
C102 C50 1_555 1_555
H47 C102 1_555 1_555
H48 C102 1_555 1_555
C103 C47 1_555 1_555
H49 C103 1_555 1_555
C104 C63 1_555 1_555
C105 C80 1_555 1_555
H50 C105 1_555 1_555
H51 C105 1_555 1_555
C106 H52 1_555 1_555
H53 C106 1_555 1_555
C107 C82 1_555 1_555
H54 C107 1_555 1_555
C108 C106 1_555 1_555
H55 C108 1_555 1_555
H56 C108 1_555 1_555
C109 C74 1_555 1_555
H57 C109 1_555 1_555
H58 C109 1_555 1_555
C110 H59 1_555 1_555
H60 C110 1_555 1_555
C111 C102 1_555 1_555
H61 C111 1_555 1_555
H62 C111 1_555 1_555
C112 C92 1_555 1_555
C113 C105 1_555 1_555
H63 C113 1_555 1_555
H64 C113 1_555 1_555
C114 H65 1_555 1_555
H66 C114 1_555 1_555
C115 C110 1_555 1_555
H67 C115 1_555 1_555
H68 C115 1_555 1_555
C116 C95 1_555 1_555
H69 C116 1_555 1_555
H70 C116 1_555 1_555
C117 C97 1_555 1_555
H71 C117 1_555 1_555
H72 C117 1_555 1_555
C118 C109 1_555 1_555
H73 C118 1_555 1_555
H74 C118 1_555 1_555
C119 C104 1_555 1_555
H75 C119 1_555 1_555
H76 C119 1_555 1_555
C120 C119 1_555 1_555
H77 C120 1_555 1_555
H78 C120 1_555 1_555
C121 C114 1_555 1_555
H79 C121 1_555 1_555
H80 C121 1_555 1_555
C122 C120 1_555 1_555
H81 C122 1_555 1_555
H82 C122 1_555 1_555
C123 C117 1_555 1_555
H83 C123 1_555 1_555
H84 C123 1_555 1_555
C124 C112 1_555 1_555
H85 C124 1_555 1_555
H86 C124 1_555 1_555
H87 C124 1_555 1_555
C125 C106 1_555 1_555
H88 C125 1_555 1_555
H89 C125 1_555 1_555
C126 C115 1_555 1_555
H90 C126 1_555 1_555
H91 C126 1_555 1_555
C127 C123 1_555 1_555
H92 C127 1_555 1_555
H93 C127 1_555 1_555
C128 C114 1_555 1_555
H94 C128 1_555 1_555
H95 C128 1_555 1_555
C129 C125 1_555 1_555
H96 C129 1_555 1_555
H97 C129 1_555 1_555
H98 C129 1_555 1_555
C130 C112 1_555 1_555
H99 C130 1_555 1_555
H100 C130 1_555 1_555
H101 C130 1_555 1_555
C131 C116 1_555 1_555
H102 C131 1_555 1_555
H103 C131 1_555 1_555
C132 C122 1_555 1_555
H104 C132 1_555 1_555
H105 C132 1_555 1_555
C133 C132 1_555 1_555
H106 C133 1_555 1_555
H107 C133 1_555 1_555
C134 C126 1_555 1_555
H108 C134 1_555 1_555
H109 C134 1_555 1_555
H110 C134 1_555 1_555
C135 C131 1_555 1_555
H111 C135 1_555 1_555
H112 C135 1_555 1_555
C136 C101 1_555 1_555
H113 C136 1_555 1_555
H114 C136 1_555 1_555
H115 C136 1_555 1_555
C137 C101 1_555 1_555
H116 C137 1_555 1_555
H117 C137 1_555 1_555
H118 C137 1_555 1_555
C138 C127 1_555 1_555
H119 C138 1_555 1_555
H120 C138 1_555 1_555
C139 C135 1_555 1_555
H121 C139 1_555 1_555
H122 C139 1_555 1_555
C140 C99 1_555 1_555
H123 C140 1_555 1_555
H124 C140 1_555 1_555
H125 C140 1_555 1_555
C141 C112 1_555 1_555
H126 C141 1_555 1_555
H127 C141 1_555 1_555
H128 C141 1_555 1_555
C142 C99 1_555 1_555
H129 C142 1_555 1_555
H130 C142 1_555 1_555
H131 C142 1_555 1_555
C143 C128 1_555 1_555
H132 C143 1_555 1_555
H133 C143 1_555 1_555
H134 C143 1_555 1_555
C144 C101 1_555 1_555
H135 C144 1_555 1_555
H136 C144 1_555 1_555
H137 C144 1_555 1_555
C145 C139 1_555 1_555
H138 C145 1_555 1_555
H139 C145 1_555 1_555
H140 C145 1_555 1_555
C146 C133 1_555 1_555
H141 C146 1_555 1_555
H142 C146 1_555 1_555
H143 C146 1_555 1_555
C147 C99 1_555 1_555
H144 C147 1_555 1_555
H145 C147 1_555 1_555
H146 C147 1_555 1_555
C148 C138 1_555 1_555
H147 C148 1_555 1_555
H148 C148 1_555 1_555
H149 C148 1_555 1_555
O1 C150 1_555 1_555
C149 H150 1_555 1_555
H151 C149 1_555 1_555
H152 C149 1_555 1_555
C150 C149 1_555 1_555
C151 C150 1_555 1_555
H153 C151 1_555 1_555
H154 C151 1_555 1_555
H155 C151 1_555 1_555
O2 C152 1_555 1_555
C152 C153 1_555 1_555
C153 H156 1_555 1_555
H157 C153 1_555 1_555
H158 C153 1_555 1_555
C154 C152 1_555 1_555
H159 C154 1_555 1_555
H160 C154 1_555 1_555
H161 C154 1_555 1_555
C2A C3A 1_555 1_555
C3A C9A 1_555 1_555
C4A C21A 1_555 1_555
C5A C14 1_555 1_555
C6A C31A 1_555 1_555
C7A C5A 1_555 1_555
C8A C5A 1_555 1_555
C9A C24A 1_555 1_555
C10A C32A 1_555 1_555
C11A C2A 1_555 1_555
C12A C31A 1_555 1_555
C13A C26A 1_555 1_555
C14A C5 1_555 1_555
C15A C33A 1_555 1_555
C16A C53A 1_555 1_555
C17A C18A 1_555 1_555
C18A C26A 1_555 1_555
C19A C38A 1_555 1_555
C20A C14A 1_555 1_555
C21A C22A 1_555 1_555
C22A C43A 1_555 1_555
C23A C7A 1_555 1_555
H3A C23A 1_555 1_555
C24A C20A 1_555 1_555
H4A C24A 1_555 1_555
C25A C2A 1_555 1_555
H5A C25A 1_555 1_555
C26A C9A 1_555 1_555
C27A C11A 1_555 1_555
C28A C3A 1_555 1_555
C29A C21A 1_555 1_555
C30A C48A 1_555 1_555
C31A C36A 1_555 1_555
C32A H6A 1_555 1_555
C33A C4A 1_555 1_555
C34A C7A 1_555 1_555
H7A C34A 1_555 1_555
C35A C8A 1_555 1_555
C36A C23A 1_555 1_555
C37A C27A 1_555 1_555
C38A C36A 1_555 1_555
C39A C15A 1_555 1_555
C40A C10A 1_555 1_555
C41A C4A 1_555 1_555
H8A C41A 1_555 1_555
C42A C29A 1_555 1_555
C43A C15A 1_555 1_555
C44A C38A 1_555 1_555
C45A C19A 1_555 1_555
H9A C45A 1_555 1_555
C46A C54A 1_555 1_555
C47A H10A 1_555 1_555
C48A C11A 1_555 1_555
C49A C45A 1_555 1_555
C50A C42A 1_555 1_555
C51A H11A 1_555 1_555
C52A C30A 1_555 1_555
H12A C52A 1_555 1_555
C53A C74A 1_555 1_555
C54A C6A 1_555 1_555
C55A C44A 1_555 1_555
C56A C29A 1_555 1_555
H13A C56A 1_555 1_555
C57A C51A 1_555 1_555
H14A C57A 1_555 1_555
C58A C12A 1_555 1_555
C59A C6A 1_555 1_555
C60A C37A 1_555 1_555
H15A C60A 1_555 1_555
C61A C16A 1_555 1_555
H16A C61A 1_555 1_555
C62A C44A 1_555 1_555
H17A C62A 1_555 1_555
C63A C72A 1_555 1_555
C64A C13A 1_555 1_555
C65A C39A 1_555 1_555
C66A C59A 1_555 1_555
H18A C66A 1_555 1_555
C67A C48A 1_555 1_555
H19A C67A 1_555 1_555
C68A C13A 1_555 1_555
H20A C68A 1_555 1_555
C69A C18A 1_555 1_555
H21A C69A 1_555 1_555
C70A C67A 1_555 1_555
H22A C70A 1_555 1_555
C71A C22A 1_555 1_555
H23A C71A 1_555 1_555
C72A C40A 1_555 1_555
C73A C30A 1_555 1_555
C74A C91A 1_555 1_555
C75A C42A 1_555 1_555
H24A C75A 1_555 1_555
C76A C55A 1_555 1_555
H25A C76A 1_555 1_555
C77A C52A 1_555 1_555
H26A C77A 1_555 1_555
C78A C62A 1_555 1_555
H27A C78A 1_555 1_555
C79A C54A 1_555 1_555
H28A C79A 1_555 1_555
C80A C64A 1_555 1_555
C81A C56A 1_555 1_555
H29A C81A 1_555 1_555
C82A C63A 1_555 1_555
H30A C82A 1_555 1_555
C83A C43A 1_555 1_555
H31A C83A 1_555 1_555
C84A C83A 1_555 1_555
C85A C17A 1_555 1_555
H32A C85A 1_555 1_555
C86A H33A 1_555 1_555
C87A C76A 1_555 1_555
H34A C87A 1_555 1_555
C88A C53A 1_555 1_555
H35A C88A 1_555 1_555
C89A C27A 1_555 1_555
H36A C89A 1_555 1_555
C90A C64A 1_555 1_555
H37A C90A 1_555 1_555
C91A C46A 1_555 1_555
H38A C91A 1_555 1_555
C92A C60A 1_555 1_555
C93A C68A 1_555 1_555
H39A C93A 1_555 1_555
C94A C39A 1_555 1_555
H40A C94A 1_555 1_555
C95A C49A 1_555 1_555
H41A C95A 1_555 1_555
H42A C95A 1_555 1_555
C96A C66A 1_555 1_555
C97A C73A 1_555 1_555
H43A C97A 1_555 1_555
H44A C97A 1_555 1_555
C98A C65A 1_555 1_555
H45A C98A 1_555 1_555
C99A C96A 1_555 1_555
C100A C75A 1_555 1_555
H46A C100A 1_555 1_555
C101A C84A 1_555 1_555
C102A C50A 1_555 1_555
H47A C102A 1_555 1_555
H48A C102A 1_555 1_555
C103A C47A 1_555 1_555
H49A C103A 1_555 1_555
C104A C63A 1_555 1_555
C105A C80A 1_555 1_555
H50A C105A 1_555 1_555
H51A C105A 1_555 1_555
C106A H52A 1_555 1_555
H53A C106A 1_555 1_555
C107A C82A 1_555 1_555
H54A C107A 1_555 1_555
C108A C106A 1_555 1_555
H55A C108A 1_555 1_555
H56A C108A 1_555 1_555
C109A C74A 1_555 1_555
H57A C109A 1_555 1_555
H58A C109A 1_555 1_555
C110A H59A 1_555 1_555
H60A C110A 1_555 1_555
C111A C102A 1_555 1_555
H61A C111A 1_555 1_555
H62A C111A 1_555 1_555
C112A C92A 1_555 1_555
C113A C105A 1_555 1_555
H63A C113A 1_555 1_555
H64A C113A 1_555 1_555
C114A H65A 1_555 1_555
H66A C114A 1_555 1_555
C115A C110A 1_555 1_555
H67A C115A 1_555 1_555
H68A C115A 1_555 1_555
C116A C95A 1_555 1_555
H69A C116A 1_555 1_555
H70A C116A 1_555 1_555
C117A C97A 1_555 1_555
H71A C117A 1_555 1_555
H72A C117A 1_555 1_555
C118A C109A 1_555 1_555
H73A C118A 1_555 1_555
H74A C118A 1_555 1_555
C119A C104A 1_555 1_555
H75A C119A 1_555 1_555
H76A C119A 1_555 1_555
C120A C119A 1_555 1_555
H77A C120A 1_555 1_555
H78A C120A 1_555 1_555
C121A C114A 1_555 1_555
H79A C121A 1_555 1_555
H80A C121A 1_555 1_555
C122A C120A 1_555 1_555
H81A C122A 1_555 1_555
H82A C122A 1_555 1_555
C123A C117A 1_555 1_555
H83A C123A 1_555 1_555
H84A C123A 1_555 1_555
C124A C112A 1_555 1_555
H85A C124A 1_555 1_555
H86A C124A 1_555 1_555
H87A C124A 1_555 1_555
C125A C106A 1_555 1_555
H88A C125A 1_555 1_555
H89A C125A 1_555 1_555
C126A C115A 1_555 1_555
H90A C126A 1_555 1_555
H91A C126A 1_555 1_555
C127A C123A 1_555 1_555
H92A C127A 1_555 1_555
H93A C127A 1_555 1_555
C128A C114A 1_555 1_555
H94A C128A 1_555 1_555
H95A C128A 1_555 1_555
C129A C125A 1_555 1_555
H96A C129A 1_555 1_555
H97A C129A 1_555 1_555
H98A C129A 1_555 1_555
C130A C112A 1_555 1_555
H99A C130A 1_555 1_555
H100A C130A 1_555 1_555
H101A C130A 1_555 1_555
C131A C116A 1_555 1_555
H102A C131A 1_555 1_555
H103A C131A 1_555 1_555
C132A C122A 1_555 1_555
H104A C132A 1_555 1_555
H105A C132A 1_555 1_555
C133A C132A 1_555 1_555
H106A C133A 1_555 1_555
H107A C133A 1_555 1_555
C134A C126A 1_555 1_555
H108A C134A 1_555 1_555
H109A C134A 1_555 1_555
H110A C134A 1_555 1_555
C135A C131A 1_555 1_555
H111A C135A 1_555 1_555
H112A C135A 1_555 1_555
C136A C101A 1_555 1_555
H113A C136A 1_555 1_555
H114A C136A 1_555 1_555
H115A C136A 1_555 1_555
C137A C101A 1_555 1_555
H116A C137A 1_555 1_555
H117A C137A 1_555 1_555
H118A C137A 1_555 1_555
C138A C127A 1_555 1_555
H119A C138A 1_555 1_555
H120A C138A 1_555 1_555
C139A C135A 1_555 1_555
H121A C139A 1_555 1_555
H122A C139A 1_555 1_555
C140A C99A 1_555 1_555
H123A C140A 1_555 1_555
H124A C140A 1_555 1_555
H125A C140A 1_555 1_555
C141A C112A 1_555 1_555
H126A C141A 1_555 1_555
H127A C141A 1_555 1_555
H128A C141A 1_555 1_555
C142A C99A 1_555 1_555
H129A C142A 1_555 1_555
H130A C142A 1_555 1_555
H131A C142A 1_555 1_555
C143A C128A 1_555 1_555
H132A C143A 1_555 1_555
H133A C143A 1_555 1_555
H134A C143A 1_555 1_555
C144A C101A 1_555 1_555
H135A C144A 1_555 1_555
H136A C144A 1_555 1_555
H137A C144A 1_555 1_555
C145A C139A 1_555 1_555
H138A C145A 1_555 1_555
H139A C145A 1_555 1_555
H140A C145A 1_555 1_555
C146A C133A 1_555 1_555
H141A C146A 1_555 1_555
H142A C146A 1_555 1_555
H143A C146A 1_555 1_555
C147A C99A 1_555 1_555
H144A C147A 1_555 1_555
H145A C147A 1_555 1_555
H146A C147A 1_555 1_555
C148A C138A 1_555 1_555
H147A C148A 1_555 1_555
H148A C148A 1_555 1_555
H149A C148A 1_555 1_555
C10 C33 1_555 1_555
C12 C34 1_555 1_555
C16 C58 1_555 1_555
C17 C28 1_555 1_555
C19 C59 1_555 1_555
C20 C25 1_555 1_555
C28 C37 1_555 1_555
C32 C35 1_555 1_555
C35 C41 1_555 1_555
C40 C65 1_555 1_555
C46 C58 1_555 1_555
C47 C72 1_555 1_555
C49 C55 1_555 1_555
C50 C71 1_555 1_555
C51 C61 1_555 1_555
C57 C88 1_555 1_555
C69 C80 1_555 1_555
C70 C77 1_555 1_555
C73 C89 1_555 1_555
C78 C87 1_555 1_555
C79 C96 1_555 1_555
C81 C100 1_555 1_555
C84 C94 1_555 1_555
C85 C92 1_555 1_555
C86 C90 1_555 1_555
C86 C93 1_555 1_555
C98 C104 1_555 1_555
C103 C107 1_555 1_555
C108 C113 1_555 1_555
C110 C111 1_555 1_555
C118 C121 1_555 1_555
C8A C14A 1_555 1_555
C10A C33A 1_555 1_555
C12A C34A 1_555 1_555
C16A C58A 1_555 1_555
C17A C28A 1_555 1_555
C19A C59A 1_555 1_555
C20A C25A 1_555 1_555
C28A C37A 1_555 1_555
C32A C35A 1_555 1_555
C35A C41A 1_555 1_555
C40A C65A 1_555 1_555
C46A C58A 1_555 1_555
C47A C72A 1_555 1_555
C49A C55A 1_555 1_555
C50A C71A 1_555 1_555
C51A C61A 1_555 1_555
C57A C88A 1_555 1_555
C69A C80A 1_555 1_555
C70A C77A 1_555 1_555
C73A C89A 1_555 1_555
C78A C87A 1_555 1_555
C79A C96A 1_555 1_555
C81A C100A 1_555 1_555
C84A C94A 1_555 1_555
C85A C92A 1_555 1_555
C86A C90A 1_555 1_555
C86A C93A 1_555 1_555
C98A C104A 1_555 1_555
C103A C107A 1_555 1_555
C108A C113A 1_555 1_555
C110A C111A 1_555 1_555
C118A C121A 1_555 1_555

#END
