
#######################################################################
#
#                 Cambridge Crystallographic Data Centre
#                                CCDC 
#
#######################################################################
#
# If this CIF has been generated from an entry in the Cambridge 
# Structural Database, then it will include bibliographic, chemical, 
# crystal, experimental, refinement or atomic coordinate data resulting 
# from the CCDC's data processing and validation procedures.
#
#######################################################################

data_PINMII
_chemical_formula_moiety         'C12 H20 O6'
_chemical_name_systematic        (+-)-1,2:5,6-Di-O-isopropylidene-myo-inositol
_symmetry_cell_setting           monoclinic
_symmetry_space_group_name_H-M   'P 21/n'
_symmetry_Int_Tables_number      14
_space_group_name_Hall           '-P 2yn'
loop_
_symmetry_equiv_pos_site_id
_symmetry_equiv_pos_as_xyz
1 x,y,z
2 1/2-x,1/2+y,1/2-z
3 -x,-y,-z
4 1/2+x,1/2-y,1/2+z
_cell_length_a                   11.543(3)
_cell_length_b                   6.860(1)
_cell_length_c                   16.895(4)
_cell_angle_alpha                90
_cell_angle_beta                 97.64(1)
_cell_angle_gamma                90
_cell_volume                     1325.95
_exptl_crystal_colour            colorless
_chemical_melting_point          '167 deg.C'
_cell_formula_units_Z            4
loop_
_atom_site_label
_atom_site_type_symbol
_atom_site_fract_x
_atom_site_fract_y
_atom_site_fract_z
O1 O 1.1347(5) -0.0111(9) 0.4163(3)
O2 O 1.2195(5) 0.2685(9) 0.4648(3)
O3 O 1.0099(6) 0.438(1) 0.4199(4)
O4 O 1.1051(6) 0.6277(9) 0.2403(4)
O5 O 0.9369(6) 0.2705(9) 0.1843(4)
O6 O 0.9951(5) -0.0221(9) 0.2424(3)
C1 C 1.1447(8) 0.104(1) 0.3473(5)
C2 C 1.1892(8) 0.305(1) 0.3810(5)
C3 C 1.0992(8) 0.472(1) 0.3708(5)
C4 C 1.0412(7) 0.494(1) 0.2826(5)
C5 C 1.0381(8) 0.300(1) 0.2424(5)
C6 C 1.0279(8) 0.130(1) 0.2974(5)
C7 C 1.2203(8) 0.064(1) 0.4774(5)
C8 C 1.3406(9) -0.021(2) 0.4707(6)
C9 C 1.177(1) 0.018(2) 0.5564(6)
C10 C 0.9202(9) 0.062(1) 0.1743(6)
C11 C 0.966(1) -0.005(2) 0.1000(6)
C12 C 0.794(1) 0.017(2) 0.1801(7)
loop_
_geom_bond_atom_site_label_1
_geom_bond_atom_site_label_2
_geom_bond_site_symmetry_1
_geom_bond_site_symmetry_2
O1 C1 1_555 1_555
O2 C2 1_555 1_555
O3 C3 1_555 1_555
O4 C4 1_555 1_555
O5 C5 1_555 1_555
O6 C6 1_555 1_555
C1 C2 1_555 1_555
C2 C3 1_555 1_555
C3 C4 1_555 1_555
C4 C5 1_555 1_555
C5 C6 1_555 1_555
C6 C1 1_555 1_555
C7 O1 1_555 1_555
C8 C7 1_555 1_555
C9 C7 1_555 1_555
C10 O5 1_555 1_555
C11 C10 1_555 1_555
C12 C10 1_555 1_555
O2 C7 1_555 1_555
O6 C10 1_555 1_555

#END
