
#######################################################################
#
#                 Cambridge Crystallographic Data Centre
#                                CCDC 
#
#######################################################################
#
# If this CIF has been generated from an entry in the Cambridge 
# Structural Database, then it will include bibliographic, chemical, 
# crystal, experimental, refinement or atomic coordinate data resulting 
# from the CCDC's data processing and validation procedures.
#
#######################################################################

data_PINZIY
_chemical_formula_moiety         'C24 H18 Cl1 N1 O3'
_chemical_name_systematic        
1-benzyl-5-chloro-2'H,5'H-spiro[indole-3,4'-[2,5]methano[1,3]benzodioxepin]-2(1H)-one
_symmetry_cell_setting           monoclinic
_symmetry_space_group_name_H-M   'P 21'
_symmetry_Int_Tables_number      4
_space_group_name_Hall           'P 2yb'
loop_
_symmetry_equiv_pos_site_id
_symmetry_equiv_pos_as_xyz
1 x,y,z
2 -x,1/2+y,-z
_cell_length_a                   5.5810(4)
_cell_length_b                   18.9438(14)
_cell_length_c                   9.1233(7)
_cell_angle_alpha                90
_cell_angle_beta                 93.554(5)
_cell_angle_gamma                90
_cell_volume                     962.709
_exptl_crystal_colour            colorless
_exptl_crystal_description       block
_cell_formula_units_Z            2
loop_
_atom_site_label
_atom_site_type_symbol
_atom_site_fract_x
_atom_site_fract_y
_atom_site_fract_z
Cl1 Cl 0.26353(16) 0.60081(5) -0.18004(10)
C1 C 0.5617(5) 0.51119(16) -0.0309(3)
H1 H 0.4689 0.4750 -0.0736
C2 C 0.6471(6) 0.63510(17) -0.0009(4)
H2 H 0.6087 0.6816 -0.0250
O1 O 0.5488(4) 0.30039(12) 0.0092(3)
N1 N 1.0759(5) 0.52387(14) 0.2245(3)
C3 C 0.8939(5) 0.55104(16) 0.1271(3)
C4 C 0.7151(6) 0.31366(17) 0.1309(4)
H3 H 0.6902 0.2799 0.2099
C5 C 0.5091(5) 0.58099(17) -0.0609(3)
C6 C 0.8490(6) 0.40483(17) -0.2635(3)
H4 H 0.9854 0.4323 -0.2724
C7 C 1.0934(5) 0.61421(17) 0.4182(3)
C8 C 0.7560(5) 0.49695(15) 0.0642(3)
C9 C 1.0512(6) 0.45270(16) 0.2388(4)
C10 C 0.8096(5) 0.37299(15) -0.1307(3)
C11 C 0.8427(6) 0.62070(16) 0.0950(3)
H5 H 0.9367 0.6569 0.1365
C12 C 0.9752(5) 0.38056(15) 0.0054(4)
H6 H 1.1377 0.3954 -0.0158
C13 C 0.8224(9) 0.7004(3) 0.5871(5)
H7 H 0.7294 0.7292 0.6434
C14 C 0.6868(7) 0.3961(2) -0.3831(4)
H8 H 0.7149 0.4176 -0.4721
C15 C 0.6036(6) 0.33237(15) -0.1213(4)
C16 C 0.8603(5) 0.42816(15) 0.1190(3)
C17 C 0.4425(6) 0.32342(17) -0.2406(4)
H9 H 0.3066 0.2956 -0.2326
C18 C 0.9047(6) 0.5876(2) 0.4906(4)
H10 H 0.8674 0.5399 0.4828
C19 C 1.1456(7) 0.6850(2) 0.4326(4)
H11 H 1.2731 0.7041 0.3849
C20 C 1.0086(9) 0.7281(2) 0.5183(5)
H12 H 1.0449 0.7759 0.5281
C21 C 0.4837(7) 0.35563(19) -0.3709(4)
H13 H 0.3746 0.3502 -0.4514
C22 C 0.7714(7) 0.6307(3) 0.5741(4)
H14 H 0.6442 0.6119 0.6226
C23 C 0.9699(6) 0.30984(17) 0.0874(4)
H15 H 0.9964 0.2700 0.0236
H16 H 1.0842 0.3085 0.1719
C24 C 1.2333(6) 0.56692(18) 0.3214(4)
H17 H 1.3345 0.5957 0.2627
H18 H 1.3367 0.5363 0.3826
O2 O 0.6855(4) 0.38368(11) 0.1822(2)
O3 O 1.1599(5) 0.41590(14) 0.3280(3)
loop_
_geom_bond_atom_site_label_1
_geom_bond_atom_site_label_2
_geom_bond_site_symmetry_1
_geom_bond_site_symmetry_2
Cl1 C5 1_555 1_555
C1 H1 1_555 1_555
C2 H2 1_555 1_555
O1 C4 1_555 1_555
N1 C3 1_555 1_555
C3 C8 1_555 1_555
C4 H3 1_555 1_555
C5 C1 1_555 1_555
C6 H4 1_555 1_555
C7 C18 1_555 1_555
C8 C1 1_555 1_555
C9 N1 1_555 1_555
C10 C6 1_555 1_555
C11 C2 1_555 1_555
H5 C11 1_555 1_555
C12 C10 1_555 1_555
H6 C12 1_555 1_555
C13 H7 1_555 1_555
C14 C6 1_555 1_555
H8 C14 1_555 1_555
C15 O1 1_555 1_555
C16 C8 1_555 1_555
C17 C15 1_555 1_555
H9 C17 1_555 1_555
C18 H10 1_555 1_555
C19 C7 1_555 1_555
H11 C19 1_555 1_555
C20 C13 1_555 1_555
H12 C20 1_555 1_555
C21 C14 1_555 1_555
H13 C21 1_555 1_555
C22 C13 1_555 1_555
H14 C22 1_555 1_555
C23 C4 1_555 1_555
H15 C23 1_555 1_555
H16 C23 1_555 1_555
C24 N1 1_555 1_555
H17 C24 1_555 1_555
H18 C24 1_555 1_555
O2 C4 1_555 1_555
O3 C9 1_555 1_555
C2 C5 1_555 1_555
C3 C11 1_555 1_555
C7 C24 1_555 1_555
C9 C16 1_555 1_555
C10 C15 1_555 1_555
C12 C16 1_555 1_555
C12 C23 1_555 1_555
C16 O2 1_555 1_555
C17 C21 1_555 1_555
C18 C22 1_555 1_555
C19 C20 1_555 1_555

#END
