
#######################################################################
#
#                 Cambridge Crystallographic Data Centre
#                                CCDC 
#
#######################################################################
#
# If this CIF has been generated from an entry in the Cambridge 
# Structural Database, then it will include bibliographic, chemical, 
# crystal, experimental, refinement or atomic coordinate data resulting 
# from the CCDC's data processing and validation procedures.
#
#######################################################################

data_PIPCBZ01
_chemical_formula_moiety         'C5 H12 N1 1+,C7 H4 Cl1 O2 1-'
_chemical_name_systematic        'piperidin-1-ium 4-chlorobenzoate'
_symmetry_cell_setting           orthorhombic
_symmetry_space_group_name_H-M   'P b c a'
_symmetry_Int_Tables_number      61
_space_group_name_Hall           '-P 2ac 2ab'
loop_
_symmetry_equiv_pos_site_id
_symmetry_equiv_pos_as_xyz
1 x,y,z
2 1/2-x,-y,1/2+z
3 -x,1/2+y,1/2-z
4 1/2+x,1/2-y,-z
5 -x,-y,-z
6 1/2+x,y,1/2-z
7 x,1/2-y,1/2+z
8 1/2-x,1/2+y,z
_cell_length_a                   9.071(6)
_cell_length_b                   10.731(8)
_cell_length_c                   26.67(2)
_cell_angle_alpha                90
_cell_angle_beta                 90
_cell_angle_gamma                90
_cell_volume                     2596.08
_cell_formula_units_Z            8
loop_
_atom_site_label
_atom_site_type_symbol
_atom_site_fract_x
_atom_site_fract_y
_atom_site_fract_z
C1 C 0.1481(2) 1.1461(2) 0.0757(1)
C2 C 0.1587(2) 1.0858(2) 0.1275(1)
C3 C 0.0646(2) 1.1228(2) 0.1663(1)
C4 C 0.0720(2) 1.0682(2) 0.2139(1)
C5 C 0.1744(2) 0.9759(2) 0.2223(1)
C6 C 0.2689(2) 0.9368(2) 0.1845(1)
C7 C 0.2608(2) 0.9915(2) 0.1370(1)
Cl1 Cl 0.1846(1) 0.9051(1) 0.2818(1)
O1 O 0.0421(2) 1.2204(2) 0.0686(1)
O2 O 0.2442(2) 1.1184(1) 0.0432(1)
H1 H -0.0070(30) 1.1840(20) 0.1597(9)
H2 H 0.0050(30) 1.001094(2) 0.2404(10)
H3 H 0.3370(30) 0.8710(20) 0.1915(10)
H4 H 0.3290(20) 0.9619(18) 0.1089(8)
C8 C 0.1638(2) 0.3749(2) 0.9624(1)
C9 C 0.1739(3) 0.4116(2) 0.9072(1)
C10 C 0.1741(2) 0.2975(2) 0.8733(1)
C11 C 0.0393(2) 0.2177(2) 0.8835(1)
C12 C 0.0303(2) 0.1812(2) 0.9388(1)
N1 N 0.0316(2) 0.2942(2) 0.9718(1)
H5 H 0.2470(30) 0.3270(20) 0.9731(9)
H6 H 0.2640(30) 0.4630(20) 0.8994(10)
H7 H 0.2700(30) 0.2470(20) 0.8797(9)
H8 H 0.0420(20) 0.1415(19) 0.8643(9)
H9 H 0.1150(30) 0.1294(18) 0.9502(9)
H10 H 0.1550(30) 0.4440(20) 0.9836(9)
H11 H 0.0900(30) 0.4670(20) 0.8973(9)
H12 H 0.1700(30) 0.3240(20) 0.8407(10)
H13 H -0.0490(30) 0.2600(20) 0.8749(9)
H14 H -0.0610(30) 0.1367(19) 0.9473(9)
H15 H -0.0560(30) 0.3370(20) 0.9657(9)
H16 H 0.0280(30) 0.2690(20) 1.0072(12)
loop_
_geom_bond_atom_site_label_1
_geom_bond_atom_site_label_2
_geom_bond_site_symmetry_1
_geom_bond_site_symmetry_2
C1 C2 1_555 1_555
C2 C3 1_555 1_555
C3 C4 1_555 1_555
C4 C5 1_555 1_555
C5 C6 1_555 1_555
C6 C7 1_555 1_555
C7 C2 1_555 1_555
Cl1 C5 1_555 1_555
O1 C1 1_555 1_555
O2 C1 1_555 1_555
H1 C3 1_555 1_555
H2 C4 1_555 1_555
H3 C6 1_555 1_555
H4 C7 1_555 1_555
C8 C9 1_555 1_555
C9 C10 1_555 1_555
C10 C11 1_555 1_555
C11 C12 1_555 1_555
C12 N1 1_555 1_555
N1 C8 1_555 1_555
H5 C8 1_555 1_555
H6 C9 1_555 1_555
H7 C10 1_555 1_555
H8 C11 1_555 1_555
H9 C12 1_555 1_555
H10 C8 1_555 1_555
H11 C9 1_555 1_555
H12 C10 1_555 1_555
H13 C11 1_555 1_555
H14 C12 1_555 1_555
H15 N1 1_555 1_555
H16 N1 1_555 1_555

#END
