
#######################################################################
#
#                 Cambridge Crystallographic Data Centre
#                                CCDC 
#
#######################################################################
#
# If this CIF has been generated from an entry in the Cambridge 
# Structural Database, then it will include bibliographic, chemical, 
# crystal, experimental, refinement or atomic coordinate data resulting 
# from the CCDC's data processing and validation procedures.
#
#######################################################################

data_PIPCBZ02
_chemical_formula_moiety         'C5 H10 D2 N1 1+,C7 H4 Cl1 O2 1-'
_chemical_name_systematic        'dideuteropiperidin-1-ium 4-chlorobenzoate'
_symmetry_cell_setting           orthorhombic
_symmetry_space_group_name_H-M   'P b c a'
_symmetry_Int_Tables_number      61
_space_group_name_Hall           '-P 2ac 2ab'
loop_
_symmetry_equiv_pos_site_id
_symmetry_equiv_pos_as_xyz
1 x,y,z
2 1/2-x,-y,1/2+z
3 -x,1/2+y,1/2-z
4 1/2+x,1/2-y,-z
5 -x,-y,-z
6 1/2+x,y,1/2-z
7 x,1/2-y,1/2+z
8 1/2-x,1/2+y,z
_cell_length_a                   9.000(4)
_cell_length_b                   10.657(5)
_cell_length_c                   26.297(14)
_cell_angle_alpha                90
_cell_angle_beta                 90
_cell_angle_gamma                90
_cell_volume                     2522.22
_cell_formula_units_Z            8
loop_
_atom_site_label
_atom_site_type_symbol
_atom_site_fract_x
_atom_site_fract_y
_atom_site_fract_z
C1 C 0.1741(3) 1.0239(3) 0.2778(1)
C2 C 0.2689(3) 1.0633(3) 0.3151(1)
C3 C 0.2595(3) 1.0077(3) 0.3627(1)
C4 C 0.1581(2) 0.9138(2) 0.3725(1)
C5 C 0.0639(3) 0.8771(3) 0.3337(1)
C6 C 0.0716(3) 0.9307(3) 0.2861(1)
C7 C 0.1475(2) 0.8535(2) 0.4244(1)
Cl1 Cl 0.1844(1) 1.0946(1) 0.2183(1)
O1 O 0.2434(2) 0.8812(2) 0.4568(1)
O2 O 0.0419(2) 0.7787(2) 0.4313(1)
H1 H 0.3410(30) 1.1310(30) 0.3071(10)
H2 H 0.3250(30) 1.0360(20) 0.3878(11)
H3 H 0.0(30) 0.8200(20) 0.3382(7)
H4 H 0.0040(40) 0.9050(30) 0.2596(9)
C8 C 0.0300(4) 0.8190(3) 0.5612(1)
C9 C 0.0396(3) 0.7829(3) 0.6166(1)
C10 C 0.1734(4) 0.7026(3) 0.6266(1)
C11 C 0.1734(4) 0.5881(3) 0.5930(1)
C12 C 0.1622(4) 0.6248(3) 0.5378(1)
N1 N 0.0309(2) 0.7057(2) 0.5285(1)
H5 H 0.1190(30) 0.8700(20) 0.5519(10)
H6 H 0.00400(30) 0.8610(20) 0.6400(9)
H7 H 0.2660(40) 0.7530(30) 0.6224(11)
H8 H 0.2690(50) 0.5400(30) 0.6042(14)
H9 H 0.2520(30) 0.6740(30) 0.5290(9)
H10 H -0.00590(40) 0.8650(20) 0.5522(10)
H11 H -0.0510(30) 0.7390(20) 0.6278(10)
H12 H 0.1690(30) 0.6700(30) 0.6664(13)
H13 H 0.0890(30) 0.5290(30) 0.6064(12)
H14 H 0.1570(30) 0.5580(20) 0.5175(11)
D1 D 0.0340(30) 0.7310(30) 0.4939(12)
D2 D -0.0510(30) 0.6640(20) 0.5346(9)
loop_
_geom_bond_atom_site_label_1
_geom_bond_atom_site_label_2
_geom_bond_site_symmetry_1
_geom_bond_site_symmetry_2
C1 C2 1_555 1_555
C2 C3 1_555 1_555
C3 C4 1_555 1_555
C4 C5 1_555 1_555
C5 C6 1_555 1_555
C6 C1 1_555 1_555
C7 C4 1_555 1_555
Cl1 C1 1_555 1_555
O1 C7 1_555 1_555
O2 C7 1_555 1_555
H1 C2 1_555 1_555
H2 C3 1_555 1_555
H3 C5 1_555 1_555
H4 C6 1_555 1_555
C8 C9 1_555 1_555
C9 C10 1_555 1_555
C10 C11 1_555 1_555
C11 C12 1_555 1_555
C12 N1 1_555 1_555
N1 C8 1_555 1_555
H5 C8 1_555 1_555
H6 C9 1_555 1_555
H7 C10 1_555 1_555
H8 C11 1_555 1_555
H9 C12 1_555 1_555
H10 C8 1_555 1_555
H11 C9 1_555 1_555
H12 C10 1_555 1_555
H13 C11 1_555 1_555
H14 C12 1_555 1_555
D1 N1 1_555 1_555
D2 N1 1_555 1_555

#END
