
#######################################################################
#
#                 Cambridge Crystallographic Data Centre
#                                CCDC 
#
#######################################################################
#
# If this CIF has been generated from an entry in the Cambridge 
# Structural Database, then it will include bibliographic, chemical, 
# crystal, experimental, refinement or atomic coordinate data resulting 
# from the CCDC's data processing and validation procedures.
#
#######################################################################

data_PIPLUY
_chemical_formula_moiety         'C4 H12 N1 O3 1+,C7 H6 N1 O2 1-'
_chemical_name_systematic        
'1,3-dihydroxy-2-(hydroxymethyl)propan-2-aminium 4-aminobenzoate'
_symmetry_cell_setting           monoclinic
_symmetry_space_group_name_H-M   'P 21/c'
_symmetry_Int_Tables_number      14
_space_group_name_Hall           '-P 2ybc'
loop_
_symmetry_equiv_pos_site_id
_symmetry_equiv_pos_as_xyz
1 x,y,z
2 -x,1/2+y,1/2-z
3 -x,-y,-z
4 x,1/2-y,1/2+z
_cell_length_a                   10.6705(11)
_cell_length_b                   14.9510(14)
_cell_length_c                   8.0245(6)
_cell_angle_alpha                90
_cell_angle_beta                 103.049(2)
_cell_angle_gamma                90
_cell_volume                     1247.13
_exptl_crystal_colour            colorless
_exptl_crystal_description       block
_cell_formula_units_Z            4
loop_
_atom_site_label
_atom_site_type_symbol
_atom_site_fract_x
_atom_site_fract_y
_atom_site_fract_z
N1 N 0.4181(2) 0.14502(14) 1.0119(3)
H1 H 0.4823 0.1078 1.0069
H2 H 0.4249 0.1625 1.1196
H3 H 0.4221 0.1926 0.9466
O1 O 0.29561(17) 0.12565(13) 0.6501(2)
H4 H 0.3666 0.1235 0.6271
O2 O 0.1847(2) 0.20566(12) 1.0979(2)
H5 H 0.2180 0.2552 1.1008
O3 O 0.3899(2) -0.03256(14) 1.1004(2)
H6 H 0.4054 -0.0525 1.1981
C1 C 0.2877(3) 0.05938(18) 0.7731(3)
H7 H 0.3585 0.0177 0.7808
H8 H 0.2082 0.0262 0.7354
C2 C 0.1829(3) 0.16527(19) 0.9402(4)
H9 H 0.1894 0.2112 0.8573
H10 H 0.1013 0.1348 0.9007
C3 C 0.2812(3) 0.02457(18) 1.0760(4)
H11 H 0.2756 0.0510 1.1845
H12 H 0.2036 -0.0099 1.0333
C4 C 0.2921(2) 0.09815(17) 0.9491(3)
N2 N 1.0536(2) 0.12107(16) 0.3358(3)
H13 H 1.1123 0.1118 0.4324
H14 H 1.0747 0.1695 0.2837
O4 O 0.46641(17) 0.19177(12) 0.3602(2)
O5 O 0.53126(18) 0.11691(14) 0.6016(2)
C5 C 0.5538(3) 0.15179(18) 0.4683(3)
C6 C 0.6860(2) 0.14730(17) 0.4387(3)
C7 C 0.7844(3) 0.10340(18) 0.5512(3)
H15 H 0.7678 0.0772 0.6491
C8 C 0.9066(3) 0.09765(18) 0.5213(3)
H16 H 0.9710 0.0688 0.6005
C9 C 0.9350(3) 0.13436(17) 0.3748(4)
C10 C 0.8374(3) 0.18125(19) 0.2641(4)
H17 H 0.8542 0.2084 0.1672
C11 C 0.7167(3) 0.18774(18) 0.2968(4)
H18 H 0.6537 0.2201 0.2219
loop_
_geom_bond_atom_site_label_1
_geom_bond_atom_site_label_2
_geom_bond_site_symmetry_1
_geom_bond_site_symmetry_2
N1 H1 1_555 1_555
H2 N1 1_555 1_555
H3 N1 1_555 1_555
O1 H4 1_555 1_555
O2 H5 1_555 1_555
O3 H6 1_555 1_555
C1 O1 1_555 1_555
H7 C1 1_555 1_555
H8 C1 1_555 1_555
C2 O2 1_555 1_555
H9 C2 1_555 1_555
H10 C2 1_555 1_555
C3 O3 1_555 1_555
H11 C3 1_555 1_555
H12 C3 1_555 1_555
C4 N1 1_555 1_555
N2 H13 1_555 1_555
H14 N2 1_555 1_555
O4 C5 1_555 1_555
O5 C5 1_555 1_555
C5 C6 1_555 1_555
C6 C7 1_555 1_555
C7 H15 1_555 1_555
C8 C7 1_555 1_555
H16 C8 1_555 1_555
C9 N2 1_555 1_555
C10 C9 1_555 1_555
H17 C10 1_555 1_555
C11 C6 1_555 1_555
H18 C11 1_555 1_555
C1 C4 1_555 1_555
C2 C4 1_555 1_555
C3 C4 1_555 1_555
C8 C9 1_555 1_555
C10 C11 1_555 1_555

#END
