
#######################################################################
#
#                 Cambridge Crystallographic Data Centre
#                                CCDC 
#
#######################################################################
#
# If this CIF has been generated from an entry in the Cambridge 
# Structural Database, then it will include bibliographic, chemical, 
# crystal, experimental, refinement or atomic coordinate data resulting 
# from the CCDC's data processing and validation procedures.
#
#######################################################################

data_PIPTHS01
_chemical_formula_moiety         'C12 H20 N2 S4'
_chemical_name_systematic        bis(Piperidinyldithiocarbamate)
_symmetry_cell_setting           orthorhombic
_symmetry_space_group_name_H-M   'P 21 21 21'
_symmetry_Int_Tables_number      19
_space_group_name_Hall           'P 2ac 2ab'
loop_
_symmetry_equiv_pos_site_id
_symmetry_equiv_pos_as_xyz
1 x,y,z
2 1/2+x,1/2-y,-z
3 -x,1/2+y,1/2-z
4 1/2-x,-y,1/2+z
_cell_length_a                   8.980(7)
_cell_length_b                   11.81(7)
_cell_length_c                   15.03
_cell_angle_alpha                90
_cell_angle_beta                 90
_cell_angle_gamma                90
_cell_volume                     1593.99
_cell_formula_units_Z            4
loop_
_atom_site_label
_atom_site_type_symbol
_atom_site_fract_x
_atom_site_fract_y
_atom_site_fract_z
S1 S 0.5442(2) 0.3004(1) 0.81743(8)
S2 S 0.4490(2) 0.2965(1) 0.93758(8)
S3 S 0.3335(1) 0.5010(1) 0.80713(9)
S4 S 0.6964(2) 0.4702(1) 0.9624(1)
N1 N 0.4865(5) 0.4111(3) 0.6714(3)
C1 C 0.4472(5) 0.4119(4) 0.7574(3)
C2 C 0.5622(5) 0.3928(4) 1.0046(3)
C3 C 0.5678(7) 0.3188(5) 0.6257(4)
C4 C 0.4671(8) 0.2632(5) 0.5602(5)
C5 C 0.3998(8) 0.3456(8) 0.4954(5)
C6 C 0.3224(8) 0.4437(8) 0.5441(5)
C7 C 0.4278(7) 0.4961(5) 0.6094(3)
N2 N 0.5143(5) 0.3919(4) 1.0898(3)
C8 C 0.4147(6) 0.3047(6) 1.1291(4)
C9 C 0.5011(1) 0.2283(7) 1.1885(5)
C10 C 0.587(1) 0.296(1) 1.2586(5)
C11 C 0.6790(9) 0.390(1) 1.2193(5)
C12 C 0.5853(8) 0.4620(7) 1.1578(4)
loop_
_geom_bond_atom_site_label_1
_geom_bond_atom_site_label_2
_geom_bond_site_symmetry_1
_geom_bond_site_symmetry_2
S1 S2 1_555 1_555
S2 C2 1_555 1_555
S3 C1 1_555 1_555
S4 C2 1_555 1_555
N1 C1 1_555 1_555
C1 S1 1_555 1_555
C2 N2 1_555 1_555
C3 N1 1_555 1_555
C4 C3 1_555 1_555
C5 C4 1_555 1_555
C6 C5 1_555 1_555
C7 N1 1_555 1_555
N2 C8 1_555 1_555
C8 C9 1_555 1_555
C9 C10 1_555 1_555
C10 C11 1_555 1_555
C11 C12 1_555 1_555
C12 N2 1_555 1_555
C6 C7 1_555 1_555

#END
