
#######################################################################
#
#                 Cambridge Crystallographic Data Centre
#                                CCDC 
#
#######################################################################
#
# If this CIF has been generated from an entry in the Cambridge 
# Structural Database, then it will include bibliographic, chemical, 
# crystal, experimental, refinement or atomic coordinate data resulting 
# from the CCDC's data processing and validation procedures.
#
#######################################################################

data_PIQCUQ
_chemical_formula_moiety         'C18 H19 N1 O2'
_chemical_name_systematic        
5-cyclopropyl-2-methyl-1,7,8,12b-tetrahydro-1,5-epoxyazepino[2,1-a]isoquinolin-4(5H)-one
_symmetry_cell_setting           monoclinic
_symmetry_space_group_name_H-M   'C 2/c'
_symmetry_Int_Tables_number      15
_space_group_name_Hall           '-C 2yn'
loop_
_symmetry_equiv_pos_site_id
_symmetry_equiv_pos_as_xyz
1 x,y,z
2 -x,y,1/2-z
3 1/2+x,1/2+y,z
4 1/2-x,1/2+y,1/2-z
5 -x,-y,-z
6 x,-y,1/2+z
7 1/2-x,1/2-y,-z
8 1/2+x,1/2-y,1/2+z
_cell_length_a                   23.4142(13)
_cell_length_b                   7.4636(3)
_cell_length_c                   16.3989(13)
_cell_angle_alpha                90
_cell_angle_beta                 94.534(4)
_cell_angle_gamma                90
_cell_volume                     2856.81
_exptl_crystal_colour            colorless
_exptl_crystal_description       block
_cell_formula_units_Z            8
loop_
_atom_site_label
_atom_site_type_symbol
_atom_site_fract_x
_atom_site_fract_y
_atom_site_fract_z
O1 O 0.69176(4) 0.59685(12) 0.11671(5)
O2 O 0.59540(3) 0.50292(10) 0.26286(4)
N1 N 0.66071(4) 0.28080(12) 0.23757(5)
C1 C 0.70762(6) 0.69474(17) 0.41172(8)
H1 H 0.678861 0.767222 0.436880
H2 H 0.740866 0.769493 0.402241
H3 H 0.719669 0.595571 0.448298
C2 C 0.68240(5) 0.62136(15) 0.33196(7)
C3 C 0.63418(5) 0.48694(15) 0.33460(7)
H4 H 0.613758 0.500597 0.385533
C4 C 0.65826(5) 0.29419(15) 0.32683(6)
H5 H 0.698021 0.288995 0.353904
C5 C 0.62149(5) 0.15375(15) 0.36450(7)
C6 C 0.61852(5) 0.15554(16) 0.44941(7)
H6 H 0.639600 0.242457 0.481639
C7 C 0.58509(5) 0.03155(17) 0.48690(7)
H7 H 0.582548 0.035381 0.544406
C8 C 0.55525(5) -0.09863(17) 0.43992(7)
H8 H 0.532281 -0.183827 0.465322
C9 C 0.55912(5) -0.10363(16) 0.35624(7)
H9 H 0.539123 -0.193816 0.324647
C10 C 0.59204(5) 0.02208(15) 0.31737(7)
C11 C 0.59699(5) 0.01144(15) 0.22644(7)
H10 H 0.563831 0.072408 0.197254
H11 H 0.596554 -0.115607 0.209058
C12 C 0.65249(5) 0.10000(15) 0.20427(7)
H12 H 0.685260 0.024376 0.224842
H13 H 0.652473 0.105684 0.143950
C13 C 0.62816(4) 0.43347(15) 0.20004(6)
C14 C 0.58995(5) 0.39735(15) 0.12373(7)
H14 H 0.607959 0.328291 0.080222
C15 C 0.52661(5) 0.36822(17) 0.12780(7)
H15 H 0.507337 0.281702 0.089001
H16 H 0.511173 0.372720 0.182250
C16 C 0.54834(5) 0.54013(17) 0.09351(7)
H17 H 0.542338 0.559037 0.033697
H18 H 0.546174 0.650037 0.126929
C17 C 0.67548(5) 0.57209(15) 0.18464(7)
C18 C 0.70091(5) 0.66049(15) 0.25896(7)
H19 H 0.730668 0.745884 0.255116
loop_
_geom_bond_atom_site_label_1
_geom_bond_atom_site_label_2
_geom_bond_site_symmetry_1
_geom_bond_site_symmetry_2
O1 C17 1_555 1_555
O2 C3 1_555 1_555
N1 C4 1_555 1_555
C1 H1 1_555 1_555
H2 C1 1_555 1_555
H3 C1 1_555 1_555
C2 C1 1_555 1_555
C3 C2 1_555 1_555
H4 C3 1_555 1_555
C4 C3 1_555 1_555
H5 C4 1_555 1_555
C5 C4 1_555 1_555
C6 C5 1_555 1_555
H6 C6 1_555 1_555
C7 C6 1_555 1_555
H7 C7 1_555 1_555
C8 C7 1_555 1_555
H8 C8 1_555 1_555
C9 C8 1_555 1_555
H9 C9 1_555 1_555
C10 C5 1_555 1_555
C11 C10 1_555 1_555
H10 C11 1_555 1_555
H11 C11 1_555 1_555
C12 N1 1_555 1_555
H12 C12 1_555 1_555
H13 C12 1_555 1_555
C13 O2 1_555 1_555
C14 C13 1_555 1_555
H14 C14 1_555 1_555
C15 C14 1_555 1_555
H15 C15 1_555 1_555
H16 C15 1_555 1_555
C16 C14 1_555 1_555
H17 C16 1_555 1_555
H18 C16 1_555 1_555
C17 C13 1_555 1_555
C18 C2 1_555 1_555
H19 C18 1_555 1_555
N1 C13 1_555 1_555
C9 C10 1_555 1_555
C11 C12 1_555 1_555
C15 C16 1_555 1_555
C17 C18 1_555 1_555

#END
