
#######################################################################
#
#                 Cambridge Crystallographic Data Centre
#                                CCDC 
#
#######################################################################
#
# If this CIF has been generated from an entry in the Cambridge 
# Structural Database, then it will include bibliographic, chemical, 
# crystal, experimental, refinement or atomic coordinate data resulting 
# from the CCDC's data processing and validation procedures.
#
#######################################################################

data_PIQHUV
_chemical_formula_moiety         'C40 H34 N4 O2 2+,2(F6 P1 1-),C2 H3 N1'
_chemical_name_systematic        
'22,29-dioxa-5,12,21,30-tetra-azaheptacyclo[30.2.2.2^2,5^.2^7,10^.2^12,15^.2^16,19^.2^24,27^]hexatetraconta-1(34),2,4,7,9,12,14,16,18,20,24,26,30,32,35,37,39,41,43,45-icosaene-5,12-di-ium hexafluorophosphate acetonitrile unknown solvate'
_symmetry_cell_setting           triclinic
_symmetry_space_group_name_H-M   'P -1'
_symmetry_Int_Tables_number      2
_space_group_name_Hall           '-P 1'
loop_
_symmetry_equiv_pos_site_id
_symmetry_equiv_pos_as_xyz
1 x,y,z
2 -x,-y,-z
_cell_length_a                   15.0950(13)
_cell_length_b                   16.4285(14)
_cell_length_c                   18.2164(15)
_cell_angle_alpha                94.049(4)
_cell_angle_beta                 97.799(4)
_cell_angle_gamma                94.099(4)
_cell_volume                     4449.45
_exptl_crystal_colour            colorless
_exptl_crystal_description       prismatic
_cell_formula_units_Z            4
loop_
_atom_site_label
_atom_site_type_symbol
_atom_site_fract_x
_atom_site_fract_y
_atom_site_fract_z
P1 P 0.42914(6) 0.22810(5) 0.77474(5)
F1 F 0.3552(2) 0.16670(17) 0.7286(2)
F2 F 0.5067(2) 0.29093(17) 0.81895(15)
F3 F 0.49152(18) 0.21755(14) 0.71198(13)
F4 F 0.3714(2) 0.2429(2) 0.83907(16)
F5 F 0.38769(14) 0.30260(12) 0.73467(12)
F6 F 0.47223(19) 0.15380(16) 0.81429(14)
P2 P 0.19458(6) 0.77404(5) 0.41024(5)
F7 F 0.10638(15) 0.73010(14) 0.36224(13)
F8 F 0.2844(2) 0.8149(2) 0.45684(14)
F9 F 0.24126(17) 0.77400(14) 0.33665(12)
F10 F 0.1503(2) 0.77199(17) 0.48361(14)
F11 F 0.22832(17) 0.68536(14) 0.42374(13)
F12 F 0.1631(2) 0.86097(14) 0.39393(16)
P3 P 0.21271(6) 0.73036(5) 0.00338(5)
F13 F 0.2511(2) 0.7249(3) -0.07178(15)
F14 F 0.1746(2) 0.73692(18) 0.07876(16)
F15 F 0.2818(2) 0.6729(3) 0.0354(2)
F16 F 0.1306(2) 0.7726(3) -0.0371(2)
F17 F 0.1457(3) 0.6488(2) -0.0131(2)
F18 F 0.2617(5) 0.8119(3) 0.0207(3)
P4 P 0.74708(6) 0.74123(5) 0.67415(4)
F19 F 0.65580(13) 0.70839(13) 0.62187(11)
F20 F 0.83602(14) 0.77435(15) 0.72827(13)
F21 F 0.72627(13) 0.67521(11) 0.73177(10)
F22 F 0.76629(17) 0.80784(14) 0.61784(12)
F23 F 0.79985(15) 0.67703(15) 0.63180(13)
F24 F 0.69161(14) 0.80447(12) 0.71708(11)
N1 N 0.15291(16) 0.28694(15) 0.03336(13)
N2 N 0.67083(19) 0.02979(18) 0.14729(17)
N3 N 0.83901(19) 0.3837(2) 0.3626(2)
N4 N 0.27759(18) 0.57208(15) 0.29693(16)
O1 O 0.75165(18) -0.00621(17) 0.14206(15)
O2 O 0.91756(17) 0.35140(19) 0.39365(16)
C1 C 0.1938(2) 0.2715(2) -0.02648(16)
H1 H 0.1704 0.2907 -0.0726
C2 C 0.2685(2) 0.2287(2) -0.02249(17)
H2 H 0.2953 0.2177 -0.0660
C3 C 0.30591(19) 0.20071(16) 0.04491(15)
C4 C 0.2604(2) 0.21722(17) 0.10543(16)
H3 H 0.2819 0.1985 0.1522
C5 C 0.1863(2) 0.25915(19) 0.09881(17)
H4 H 0.1570 0.2694 0.1411
C6 C 0.38731(19) 0.15701(17) 0.05293(16)
C7 C 0.4421(2) 0.15279(18) -0.00311(17)
H5 H 0.4243 0.1757 -0.0487
C8 C 0.5212(2) 0.1161(2) 0.00683(19)
H6 H 0.5574 0.1142 -0.0319
C9 C 0.5492(2) 0.08144(18) 0.07268(18)
C10 C 0.4941(2) 0.0823(2) 0.12778(19)
H7 H 0.5110 0.0569 0.1722
C11 C 0.4147(2) 0.1199(2) 0.11827(18)
H8 H 0.3781 0.1205 0.1567
C12 C 0.6347(2) 0.0455(2) 0.0824(2)
H9 H 0.6641 0.0336 0.0405
C13 C 0.8004(3) -0.0028(3) 0.2145(2)
H10 H 0.8506 -0.0384 0.2138
H11 H 0.7605 -0.0247 0.2487
C14 C 0.8376(2) 0.0825(3) 0.2440(2)
C15 C 0.8499(2) 0.1445(3) 0.1966(2)
H12 H 0.8321 0.1337 0.1446
C16 C 0.8875(2) 0.2206(3) 0.2246(2)
H13 H 0.8954 0.2619 0.1915
C17 C 0.9144(2) 0.2386(3) 0.3006(2)
C18 C 0.9003(3) 0.1760(4) 0.3468(2)
H14 H 0.9180 0.1866 0.3989
C19 C 0.8623(3) 0.1009(3) 0.3201(2)
H15 H 0.8524 0.0604 0.3534
C20 C 0.9581(3) 0.3199(3) 0.3312(3)
H16 H 1.0228 0.3151 0.3472
H17 H 0.9527 0.3587 0.2919
C21 C 0.7912(2) 0.3985(2) 0.4188(2)
H18 H 0.8121 0.3865 0.4681
C22 C 0.7050(2) 0.43400(18) 0.40003(18)
C23 C 0.6391(2) 0.42418(19) 0.44664(17)
H19 H 0.6521 0.3983 0.4914
C24 C 0.5557(2) 0.45166(18) 0.42823(17)
H20 H 0.5110 0.4427 0.4595
C25 C 0.5356(2) 0.49279(17) 0.36383(17)
C26 C 0.6024(2) 0.50390(19) 0.31870(18)
H21 H 0.5905 0.5322 0.2752
C27 C 0.6854(2) 0.4746(2) 0.33606(19)
H22 H 0.7295 0.4822 0.3041
C28 C 0.4458(2) 0.52166(17) 0.34259(17)
C29 C 0.3690(2) 0.48566(19) 0.36616(19)
H23 H 0.3740 0.4428 0.3985
C30 C 0.2868(2) 0.5118(2) 0.3429(2)
H24 H 0.2351 0.4870 0.3596
C31 C 0.3503(2) 0.6095(2) 0.2749(2)
H25 H 0.3435 0.6531 0.2435
C32 C 0.4343(2) 0.58574(19) 0.2972(2)
H26 H 0.4851 0.6133 0.2816
C33 C 0.1857(2) 0.5917(2) 0.2650(2)
H27 H 0.1884 0.6471 0.2468
H28 H 0.1457 0.5910 0.3039
C34 C 0.14916(19) 0.52882(17) 0.20163(18)
C35 C 0.0952(2) 0.46059(18) 0.21394(17)
H29 H 0.0780 0.4554 0.2618
C36 C 0.06606(19) 0.40025(18) 0.15752(17)
H30 H 0.0284 0.3543 0.1665
C37 C 0.09175(18) 0.40660(18) 0.08762(16)
C38 C 0.1434(2) 0.4762(2) 0.07435(18)
H31 H 0.1592 0.4823 0.0262
C39 C 0.1715(2) 0.53642(19) 0.13125(19)
H32 H 0.2068 0.5838 0.1218
C40 C 0.0727(2) 0.3352(2) 0.03022(18)
H33 H 0.0201 0.3002 0.0400
H34 H 0.0589 0.3549 -0.0198
N5 N 0.38462(16) 0.75091(14) 0.68105(13)
N6 N 0.69605(18) 0.52864(16) 1.08137(13)
N7 N 0.96609(18) 0.87490(16) 1.11626(16)
N8 N 0.6741(2) 1.05809(16) 0.68932(17)
O3 O 0.71738(15) 0.49661(14) 1.15108(12)
O4 O 1.03424(16) 0.85188(15) 1.16796(14)
C41 C 0.7311(2) 1.0021(2) 0.6772(2)
H35 H 0.7314 0.9791 0.6279
C42 C 0.7893(2) 0.9767(2) 0.73401(19)
H36 H 0.8294 0.9369 0.7235
C43 C 0.7899(2) 1.00889(18) 0.80697(19)
C44 C 0.7336(2) 1.0721(2) 0.8160(2)
H37 H 0.7353 1.1000 0.8637
C45 C 0.6766(2) 1.0940(2) 0.7578(2)
H38 H 0.6378 1.1358 0.7660
C46 C 0.8441(2) 0.97567(17) 0.86981(18)
C47 C 0.9204(2) 0.93408(18) 0.86103(18)
H39 H 0.9392 0.9278 0.8134
C48 C 0.9684(2) 0.90219(18) 0.92061(18)
H40 H 1.0203 0.8748 0.9135
C49 C 0.9420(2) 0.90947(17) 0.99113(17)
C50 C 0.8653(2) 0.95135(18) 0.99949(19)
H41 H 0.8461 0.9575 1.0470
C51 C 0.8184(2) 0.98316(18) 0.94054(18)
H42 H 0.7669 1.0111 0.9477
C52 C 0.9960(2) 0.87810(18) 1.05263(18)
H43 H 1.0531 0.8598 1.0468
C53 C 0.9931(3) 0.8250(2) 1.23143(19)
H44 H 0.9495 0.8641 1.2442
H45 H 1.0401 0.8250 1.2750
C54 C 0.9458(2) 0.7404(2) 1.21456(17)
C55 C 0.8613(3) 0.7218(2) 1.23353(18)
H46 H 0.8325 0.7634 1.2576
C56 C 0.8173(2) 0.6434(2) 1.21821(18)
H47 H 0.7596 0.6321 1.2322
C57 C 0.8583(2) 0.58209(19) 1.18243(16)
C58 C 0.9428(2) 0.60127(19) 1.16228(19)
H48 H 0.9712 0.5602 1.1370
C59 C 0.9864(2) 0.6792(2) 1.17838(19)
H49 H 1.0442 0.6906 1.1646
C60 C 0.8127(2) 0.4968(2) 1.16550(19)
H50 H 0.8346 0.4703 1.1216
H51 H 0.8291 0.4641 1.2082
C61 C 0.6164(2) 0.55138(18) 1.07465(17)
H52 H 0.5828 0.5480 1.1150
C62 C 0.57626(19) 0.58264(17) 1.00569(16)
C63 C 0.5006(2) 0.62593(18) 1.00542(16)
H53 H 0.4751 0.6345 1.0500
C64 C 0.46190(19) 0.65667(17) 0.94109(16)
H54 H 0.4104 0.6865 0.9421
C65 C 0.49741(18) 0.64455(16) 0.87482(15)
C66 C 0.5731(2) 0.59999(18) 0.87500(17)
H55 H 0.5983 0.5910 0.8304
C67 C 0.6114(2) 0.56909(19) 0.93886(17)
H56 H 0.6622 0.5383 0.9377
C68 C 0.45722(18) 0.68009(16) 0.80703(15)
C69 C 0.3705(2) 0.70437(19) 0.79896(17)
H57 H 0.3344 0.6962 0.8371
C70 C 0.3364(2) 0.7400(2) 0.73650(17)
H58 H 0.2773 0.7573 0.7325
C71 C 0.4686(2) 0.72688(18) 0.68655(17)
H59 H 0.5026 0.7345 0.6469
C72 C 0.50586(19) 0.69190(17) 0.74790(16)
H60 H 0.5652 0.6754 0.7505
C73 C 0.3494(2) 0.7925(2) 0.61434(18)
H61 H 0.2868 0.8055 0.6171
H62 H 0.3498 0.7562 0.5687
C74 C 0.4081(2) 0.86997(19) 0.61216(17)
C75 C 0.4710(2) 0.8725(2) 0.56310(18)
H63 H 0.4718 0.8280 0.5270
C76 C 0.5322(2) 0.9397(2) 0.56708(19)
H64 H 0.5753 0.9412 0.5337
C77 C 0.5311(2) 1.00502(19) 0.61944(19)
C78 C 0.4656(2) 1.0033(2) 0.6665(2)
H65 H 0.4630 1.0487 0.7013
C79 C 0.4048(2) 0.9360(2) 0.6628(2)
H66 H 0.3604 0.9349 0.6951
C80 C 0.6037(3) 1.0748(2) 0.6281(2)
H67 H 0.6297 1.0786 0.5812
H68 H 0.5784 1.1273 0.6401
N9 N 1.0769(3) 0.5122(3) 0.4075(3)
C81 C 1.0216(3) 0.5553(3) 0.4176(3)
C82 C 0.9556(4) 0.6106(4) 0.4329(3)
H69 H 0.9111 0.6114 0.3885
H70 H 0.9849 0.6658 0.4464
H71 H 0.9257 0.5923 0.4741
N10 N 0.5150(4) 0.6883(3) 0.4636(2)
C83 C 0.5864(5) 0.6992(3) 0.4539(2)
C84 C 0.6782(5) 0.7077(6) 0.4429(3)
H72 H 0.6878 0.6689 0.4018
H73 H 0.7163 0.6962 0.4884
H74 H 0.6938 0.7637 0.4309
loop_
_geom_bond_atom_site_label_1
_geom_bond_atom_site_label_2
_geom_bond_site_symmetry_1
_geom_bond_site_symmetry_2
P1 F1 1_555 1_555
F2 P1 1_555 1_555
F3 P1 1_555 1_555
F4 P1 1_555 1_555
F5 P1 1_555 1_555
F6 P1 1_555 1_555
P2 F7 1_555 1_555
F8 P2 1_555 1_555
F9 P2 1_555 1_555
F10 P2 1_555 1_555
F11 P2 1_555 1_555
F12 P2 1_555 1_555
P3 F13 1_555 1_555
F14 P3 1_555 1_555
F15 P3 1_555 1_555
F16 P3 1_555 1_555
F17 P3 1_555 1_555
F18 P3 1_555 1_555
P4 F19 1_555 1_555
F20 P4 1_555 1_555
F21 P4 1_555 1_555
F22 P4 1_555 1_555
F23 P4 1_555 1_555
F24 P4 1_555 1_555
N1 C1 1_555 1_555
N2 O1 1_555 1_555
N3 O2 1_555 1_555
N4 C30 1_555 1_555
O1 C13 1_555 1_555
O2 C20 1_555 1_555
C1 H1 1_555 1_555
C2 C1 1_555 1_555
H2 C2 1_555 1_555
C3 C2 1_555 1_555
C4 C3 1_555 1_555
H3 C4 1_555 1_555
C5 N1 1_555 1_555
H4 C5 1_555 1_555
C6 C3 1_555 1_555
C7 C6 1_555 1_555
H5 C7 1_555 1_555
C8 C7 1_555 1_555
H6 C8 1_555 1_555
C9 C8 1_555 1_555
C10 C9 1_555 1_555
H7 C10 1_555 1_555
C11 C6 1_555 1_555
H8 C11 1_555 1_555
C12 N2 1_555 1_555
H9 C12 1_555 1_555
C13 H10 1_555 1_555
H11 C13 1_555 1_555
C14 C13 1_555 1_555
C15 C14 1_555 1_555
H12 C15 1_555 1_555
C16 C15 1_555 1_555
H13 C16 1_555 1_555
C17 C16 1_555 1_555
C18 C17 1_555 1_555
H14 C18 1_555 1_555
C19 C14 1_555 1_555
H15 C19 1_555 1_555
C20 C17 1_555 1_555
H16 C20 1_555 1_555
H17 C20 1_555 1_555
C21 N3 1_555 1_555
H18 C21 1_555 1_555
C22 C21 1_555 1_555
C23 C22 1_555 1_555
H19 C23 1_555 1_555
C24 C23 1_555 1_555
H20 C24 1_555 1_555
C25 C24 1_555 1_555
C26 C25 1_555 1_555
H21 C26 1_555 1_555
C27 C22 1_555 1_555
H22 C27 1_555 1_555
C28 C25 1_555 1_555
C29 C28 1_555 1_555
H23 C29 1_555 1_555
C30 C29 1_555 1_555
H24 C30 1_555 1_555
C31 N4 1_555 1_555
H25 C31 1_555 1_555
C32 C28 1_555 1_555
H26 C32 1_555 1_555
C33 N4 1_555 1_555
H27 C33 1_555 1_555
H28 C33 1_555 1_555
C34 C33 1_555 1_555
C35 C34 1_555 1_555
H29 C35 1_555 1_555
C36 C35 1_555 1_555
H30 C36 1_555 1_555
C37 C36 1_555 1_555
C38 C37 1_555 1_555
H31 C38 1_555 1_555
C39 C34 1_555 1_555
H32 C39 1_555 1_555
C40 N1 1_555 1_555
H33 C40 1_555 1_555
H34 C40 1_555 1_555
N5 C70 1_555 1_555
N6 O3 1_555 1_555
N7 O4 1_555 1_555
N8 C41 1_555 1_555
O3 C60 1_555 1_555
O4 C53 1_555 1_555
C41 H35 1_555 1_555
C42 C41 1_555 1_555
H36 C42 1_555 1_555
C43 C42 1_555 1_555
C44 C43 1_555 1_555
H37 C44 1_555 1_555
C45 N8 1_555 1_555
H38 C45 1_555 1_555
C46 C43 1_555 1_555
C47 C46 1_555 1_555
H39 C47 1_555 1_555
C48 C47 1_555 1_555
H40 C48 1_555 1_555
C49 C48 1_555 1_555
C50 C49 1_555 1_555
H41 C50 1_555 1_555
C51 C46 1_555 1_555
H42 C51 1_555 1_555
C52 N7 1_555 1_555
H43 C52 1_555 1_555
C53 H44 1_555 1_555
H45 C53 1_555 1_555
C54 C53 1_555 1_555
C55 C54 1_555 1_555
H46 C55 1_555 1_555
C56 C55 1_555 1_555
H47 C56 1_555 1_555
C57 C56 1_555 1_555
C58 C57 1_555 1_555
H48 C58 1_555 1_555
C59 C54 1_555 1_555
H49 C59 1_555 1_555
C60 C57 1_555 1_555
H50 C60 1_555 1_555
H51 C60 1_555 1_555
C61 N6 1_555 1_555
H52 C61 1_555 1_555
C62 C61 1_555 1_555
C63 C62 1_555 1_555
H53 C63 1_555 1_555
C64 C63 1_555 1_555
H54 C64 1_555 1_555
C65 C64 1_555 1_555
C66 C65 1_555 1_555
H55 C66 1_555 1_555
C67 C62 1_555 1_555
H56 C67 1_555 1_555
C68 C65 1_555 1_555
C69 C68 1_555 1_555
H57 C69 1_555 1_555
C70 C69 1_555 1_555
H58 C70 1_555 1_555
C71 N5 1_555 1_555
H59 C71 1_555 1_555
C72 C68 1_555 1_555
H60 C72 1_555 1_555
C73 N5 1_555 1_555
H61 C73 1_555 1_555
H62 C73 1_555 1_555
C74 C73 1_555 1_555
C75 C74 1_555 1_555
H63 C75 1_555 1_555
C76 C75 1_555 1_555
H64 C76 1_555 1_555
C77 C76 1_555 1_555
C78 C77 1_555 1_555
H65 C78 1_555 1_555
C79 C74 1_555 1_555
H66 C79 1_555 1_555
C80 N8 1_555 1_555
H67 C80 1_555 1_555
H68 C80 1_555 1_555
N9 C81 1_555 1_555
C81 C82 1_555 1_555
C82 H69 1_555 1_555
H70 C82 1_555 1_555
H71 C82 1_555 1_555
N10 C83 1_555 1_555
C83 C84 1_555 1_555
C84 H72 1_555 1_555
H73 C84 1_555 1_555
H74 C84 1_555 1_555
C4 C5 1_555 1_555
C9 C12 1_555 1_555
C10 C11 1_555 1_555
C18 C19 1_555 1_555
C26 C27 1_555 1_555
C31 C32 1_555 1_555
C37 C40 1_555 1_555
C38 C39 1_555 1_555
C44 C45 1_555 1_555
C49 C52 1_555 1_555
C50 C51 1_555 1_555
C58 C59 1_555 1_555
C66 C67 1_555 1_555
C71 C72 1_555 1_555
C77 C80 1_555 1_555
C78 C79 1_555 1_555

#END
