
#######################################################################
#
#                 Cambridge Crystallographic Data Centre
#                                CCDC 
#
#######################################################################
#
# If this CIF has been generated from an entry in the Cambridge 
# Structural Database, then it will include bibliographic, chemical, 
# crystal, experimental, refinement or atomic coordinate data resulting 
# from the CCDC's data processing and validation procedures.
#
#######################################################################

data_PIQJAD
_chemical_formula_moiety         
'C40 H34 N4 O2 2+,0.5(C4 H10 O1),2(F6 P1 1-),C2 H3 N1'
_chemical_name_systematic        
'22,29-dioxa-5,12,21,30-tetra-azaheptacyclo[30.2.2.2^2,5^.2^7,10^.2^12,15^.2^16,19^.2^24,27^]hexatetraconta-1(34),2,4,7,9,12,14,16,18,20,24,26,30,32,35,37,39,41,43,45-icosaene-5,12-di-ium bis(hexafluorophosphate) acetonitrile diethyl ether solvate'
_symmetry_cell_setting           triclinic
_symmetry_space_group_name_H-M   'P -1'
_symmetry_Int_Tables_number      2
_space_group_name_Hall           '-P 1'
loop_
_symmetry_equiv_pos_site_id
_symmetry_equiv_pos_as_xyz
1 x,y,z
2 -x,-y,-z
_cell_length_a                   15.0840(4)
_cell_length_b                   16.4591(4)
_cell_length_c                   18.1935(5)
_cell_angle_alpha                93.775(2)
_cell_angle_beta                 97.128(2)
_cell_angle_gamma                94.141(2)
_cell_volume                     4457.49
_exptl_crystal_colour            colorless
_exptl_crystal_description       prism
_cell_formula_units_Z            4
loop_
_atom_site_label
_atom_site_type_symbol
_atom_site_fract_x
_atom_site_fract_y
_atom_site_fract_z
P1 P 0.57155(8) 0.77290(7) 1.22472(6)
F1 F 0.5095(2) 0.7838(2) 1.28806(17)
F2 F 0.6471(3) 0.8312(2) 1.2700(2)
F3 F 0.61129(17) 0.69677(16) 1.26340(14)
F4 F 0.6285(3) 0.7578(3) 1.1596(2)
F5 F 0.4924(2) 0.7123(2) 1.18102(19)
F6 F 0.5303(2) 0.84807(19) 1.18632(17)
P2 P 0.21121(8) 0.73094(7) 1.00317(6)
F7 F 0.2825(3) 0.6768(3) 1.0365(2)
F8 F 0.2500(3) 0.7263(4) 0.92836(19)
F9 F 0.1455(4) 0.6496(3) 0.9882(3)
F10 F 0.1304(3) 0.7744(3) 0.9627(2)
F11 F 0.2633(6) 0.8120(4) 1.0206(3)
F12 F 0.1720(3) 0.7378(2) 1.0784(2)
P3 P 0.74832(7) 0.74070(7) 0.67194(6)
F13 F 0.72723(17) 0.67522(15) 0.73014(13)
F14 F 0.65776(16) 0.70709(16) 0.62001(13)
F15 F 0.69203(17) 0.80352(15) 0.71424(13)
F16 F 0.83676(17) 0.77475(18) 0.72557(15)
F17 F 0.80192(19) 0.67673(19) 0.63031(16)
F18 F 0.7674(2) 0.80725(18) 0.61473(14)
P4 P 0.79883(10) 1.23118(8) 0.59113(6)
F19 F 0.8212(4) 1.1412(2) 0.6046(2)
F20 F 0.7531(2) 1.23284(19) 0.66564(15)
F21 F 0.7057(3) 1.1982(3) 0.54606(19)
F22 F 0.7737(2) 1.32215(19) 0.58003(17)
F23 F 0.8424(3) 1.2311(2) 0.51652(18)
F24 F 0.8906(2) 1.2675(2) 0.63781(18)
O1 O 0.71633(18) 0.49651(19) 1.15042(15)
O2 O 1.03344(18) 0.84979(18) 1.16513(16)
N1 N 0.6724(2) 1.0587(2) 0.6892(2)
N2 N 0.3860(2) 0.74963(19) 0.68134(17)
N3 N 0.6949(2) 0.5281(2) 1.08034(18)
N4 N 0.9648(2) 0.8736(2) 1.11316(18)
C1 C 0.6016(3) 1.0749(3) 0.6278(3)
H1 H 0.627932 1.079387 0.580854
H2 H 0.575502 1.126838 0.639906
C2 C 0.5298(3) 1.0049(3) 0.6191(2)
C3 C 0.4640(3) 1.0017(3) 0.6664(2)
H3 H 0.460271 1.046273 0.701434
C4 C 0.4045(3) 0.9337(3) 0.6622(2)
H4 H 0.359774 0.931868 0.694571
C5 C 0.4086(3) 0.8685(2) 0.6120(2)
C6 C 0.4716(3) 0.8727(3) 0.5625(2)
H5 H 0.473232 0.828973 0.526019
C7 C 0.5320(3) 0.9407(3) 0.5667(2)
H6 H 0.575463 0.943276 0.533129
C8 C 0.3504(3) 0.7910(3) 0.6144(2)
H7 H 0.287653 0.803445 0.617482
H8 H 0.351552 0.754884 0.568851
C9 C 0.4696(2) 0.7261(2) 0.6865(2)
H9 H 0.503521 0.733201 0.646354
C10 C 0.5070(2) 0.6921(2) 0.7481(2)
H10 H 0.566690 0.676468 0.750621
C11 C 0.4584(2) 0.6799(2) 0.8079(2)
C12 C 0.3708(2) 0.7040(3) 0.8000(2)
H11 H 0.334640 0.696028 0.838543
C13 C 0.3367(3) 0.7388(3) 0.7374(2)
H12 H 0.277435 0.755633 0.733341
C14 C 0.4981(2) 0.6446(2) 0.87545(19)
C15 C 0.5737(3) 0.6005(2) 0.8753(2)
H13 H 0.599375 0.592210 0.830597
C16 C 0.6116(3) 0.5688(3) 0.9388(2)
H14 H 0.661932 0.537536 0.937194
C17 C 0.5764(2) 0.5823(2) 1.0059(2)
C18 C 0.5009(3) 0.6259(2) 1.0059(2)
H15 H 0.475473 0.634722 1.050737
C19 C 0.4622(3) 0.6568(2) 0.9420(2)
H16 H 0.410671 0.686498 0.943362
C20 C 0.6156(3) 0.5518(3) 1.0746(2)
H17 H 0.582182 0.549368 1.115470
C21 C 0.8121(3) 0.4960(3) 1.1635(2)
H18 H 0.833655 0.469876 1.119218
H19 H 0.828533 0.462938 1.205963
C22 C 0.8576(3) 0.5804(3) 1.1800(2)
C23 C 0.8179(3) 0.6417(3) 1.2159(2)
H20 H 0.760134 0.630610 1.230375
C24 C 0.8610(3) 0.7190(3) 1.2311(2)
H21 H 0.832101 0.760375 1.255555
C25 C 0.9463(3) 0.7376(3) 1.2111(2)
C26 C 0.9857(3) 0.6761(3) 1.1746(2)
H22 H 1.043570 0.687043 1.160254
C27 C 0.9419(3) 0.5989(3) 1.1588(2)
H23 H 0.969874 0.557853 1.133102
C28 C 0.9940(3) 0.8214(3) 1.2280(2)
H24 H 0.950915 0.860166 1.242648
H25 H 1.041577 0.820139 1.270507
C29 C 0.9942(3) 0.8788(2) 1.0501(2)
H26 H 1.051457 0.861084 1.043568
C30 C 0.9402(2) 0.9116(2) 0.9885(2)
C31 C 0.9668(3) 0.9043(2) 0.9180(2)
H27 H 1.018492 0.876699 0.910614
C32 C 0.9191(3) 0.9365(2) 0.8586(2)
H28 H 0.938237 0.930701 0.810799
C33 C 0.8426(2) 0.9777(2) 0.8682(2)
C34 C 0.8166(2) 0.9849(2) 0.9392(2)
H29 H 0.765195 1.012897 0.946917
C35 C 0.8638(2) 0.9523(2) 0.9981(2)
H30 H 0.844447 0.957509 1.045798
C36 C 0.7883(3) 1.0103(2) 0.8051(2)
C37 C 0.7334(3) 1.0738(3) 0.8152(2)
H31 H 0.736184 1.102016 0.862829
C38 C 0.6755(3) 1.0960(3) 0.7570(3)
H32 H 0.637300 1.138205 0.765012
C39 C 0.7275(3) 1.0010(3) 0.6767(2)
H33 H 0.726314 0.976655 0.627712
C40 C 0.7860(3) 0.9761(3) 0.7331(2)
H34 H 0.825128 0.935255 0.722828
O3 O 0.0845(2) 0.6461(2) 0.60650(18)
O4 O 0.2473(2) 1.0054(2) 0.85470(18)
N5 N 0.8465(2) 0.7154(2) 0.96488(16)
N6 N 0.7242(2) 0.4289(2) 0.7063(2)
N7 N 0.1641(2) 0.6154(2) 0.6368(2)
N8 N 0.3293(2) 0.9698(2) 0.8507(2)
C41 C 0.9274(3) 0.6683(3) 0.9680(2)
H35 H 0.941993 0.649738 1.018387
H36 H 0.979345 0.703402 0.956615
C42 C 0.9087(2) 0.5961(3) 0.9122(2)
C43 C 0.8572(3) 0.5270(3) 0.9267(2)
H37 H 0.840644 0.521891 0.975025
C44 C 0.8300(3) 0.4663(3) 0.8717(3)
H38 H 0.795489 0.419017 0.882565
C45 C 0.8521(2) 0.4727(2) 0.8006(2)
C46 C 0.9057(3) 0.5398(2) 0.7865(2)
H39 H 0.923151 0.544190 0.738451
C47 C 0.9340(3) 0.6006(3) 0.8419(2)
H40 H 0.971358 0.646286 0.831694
C48 C 0.8155(3) 0.4093(3) 0.7383(3)
H41 H 0.855767 0.409083 0.699226
H42 H 0.812305 0.354400 0.757447
C49 C 0.6511(3) 0.3918(3) 0.7292(3)
H43 H 0.657635 0.349242 0.761860
C50 C 0.5675(3) 0.4147(3) 0.7060(3)
H44 H 0.516365 0.386903 0.721373
C51 C 0.5569(3) 0.4783(2) 0.6601(2)
C52 C 0.6341(3) 0.5133(3) 0.6360(2)
H45 H 0.629160 0.555279 0.602596
C53 C 0.7164(3) 0.4886(3) 0.6595(3)
H46 H 0.768251 0.513522 0.642734
C54 C 0.4675(3) 0.5074(2) 0.6385(2)
C55 C 0.4482(3) 0.5471(2) 0.5739(2)
H47 H 0.493153 0.555364 0.542303
C56 C 0.3646(3) 0.5746(3) 0.5550(2)
H48 H 0.352293 0.600500 0.510148
C57 C 0.2979(3) 0.5648(2) 0.6014(2)
C58 C 0.3169(3) 0.5251(3) 0.6661(2)
H49 H 0.272286 0.517653 0.698099
C59 C 0.4002(3) 0.4964(3) 0.6842(2)
H50 H 0.411871 0.468886 0.728301
C60 C 0.2124(3) 0.5999(3) 0.5828(3)
H51 H 0.192302 0.611279 0.533258
C61 C 0.0433(3) 0.6798(4) 0.6685(3)
H52 H 0.047327 0.641670 0.708504
H53 H -0.020971 0.684956 0.652086
C62 C 0.0869(3) 0.7611(3) 0.6985(3)
C63 C 0.1018(3) 0.8220(4) 0.6510(3)
H54 H 0.085345 0.810622 0.598978
C64 C 0.1396(3) 0.8975(4) 0.6774(3)
H55 H 0.150126 0.937823 0.643763
C65 C 0.1628(3) 0.9163(3) 0.7537(3)
C66 C 0.1493(3) 0.8550(3) 0.8010(3)
H56 H 0.166419 0.865807 0.852924
C67 C 0.1120(3) 0.7797(4) 0.7738(3)
H57 H 0.102905 0.738858 0.807307
C68 C 0.1992(3) 1.0017(3) 0.7824(3)
H58 H 0.239211 1.023600 0.747977
H59 H 0.148700 1.036854 0.783013
C69 C 0.3643(3) 0.9548(3) 0.9151(3)
H60 H 0.334030 0.966859 0.956770
C70 C 0.4496(3) 0.9197(3) 0.9256(2)
C71 C 0.5058(3) 0.9186(3) 0.8697(2)
H61 H 0.489490 0.943755 0.825004
C72 C 0.5846(3) 0.8812(3) 0.8796(2)
H62 H 0.621783 0.880495 0.841048
C73 C 0.6115(2) 0.8443(2) 0.9449(2)
C74 C 0.5560(3) 0.8486(3) 1.0013(2)
H63 H 0.573174 0.825763 1.047008
C75 C 0.4772(3) 0.8855(3) 0.9910(2)
H64 H 0.440674 0.887505 1.029907
C76 C 0.6935(2) 0.8009(2) 0.9531(2)
C77 C 0.7391(3) 0.7842(2) 0.8922(2)
H65 H 0.717345 0.802112 0.845229
C78 C 0.8141(3) 0.7426(2) 0.8989(2)
H66 H 0.844187 0.732440 0.856755
C79 C 0.8051(3) 0.7308(3) 1.0248(2)
H67 H 0.828331 0.712084 1.071028
C80 C 0.7299(3) 0.7729(3) 1.0203(2)
H68 H 0.702000 0.783371 1.063630
O5 O 0.8938(4) 0.9432(4) 1.4200(4)
C81 C 0.8392(7) 0.8883(7) 1.4533(6)
H69 H 0.868477 0.877308 1.503026
H70 H 0.826747 0.835998 1.422382
C82 C 0.7523(6) 0.9294(7) 1.4598(6)
H71 H 0.724157 0.939737 1.410168
H72 H 0.765855 0.981206 1.490193
H73 H 0.711243 0.893404 1.483198
C83 C 0.9833(7) 0.9183(8) 1.4216(7)
H74 H 0.982491 0.863323 1.395906
H75 H 1.011586 0.916667 1.473561
C84 C 1.0365(6) 0.9835(8) 1.3807(6)
H76 H 0.999951 0.994978 1.334708
H77 H 1.092478 0.962213 1.368782
H78 H 1.050280 1.034019 1.413048
N9 N 0.5143(4) 0.6875(3) 0.4638(3)
C85 C 0.6783(5) 0.6973(6) 0.4410(4)
H79 H 0.687468 0.650914 0.406944
H80 H 0.716299 0.694735 0.488429
H81 H 0.694122 0.748445 0.419276
C86 C 0.5859(5) 0.6941(4) 0.4533(3)
N10 N 0.9241(5) 0.4889(4) 0.5929(4)
C87 C 1.0430(5) 0.3872(5) 0.5649(4)
H82 H 1.075683 0.407014 0.525456
H83 H 1.011984 0.333481 0.548430
H84 H 1.085255 0.382594 0.609610
C88 C 0.9772(5) 0.4447(5) 0.5817(4)
loop_
_geom_bond_atom_site_label_1
_geom_bond_atom_site_label_2
_geom_bond_site_symmetry_1
_geom_bond_site_symmetry_2
P1 F1 1_555 1_555
F2 P1 1_555 1_555
F3 P1 1_555 1_555
F4 P1 1_555 1_555
F5 P1 1_555 1_555
F6 P1 1_555 1_555
P2 F7 1_555 1_555
F8 P2 1_555 1_555
F9 P2 1_555 1_555
F10 P2 1_555 1_555
F11 P2 1_555 1_555
F12 P2 1_555 1_555
P3 F13 1_555 1_555
F14 P3 1_555 1_555
F15 P3 1_555 1_555
F16 P3 1_555 1_555
F17 P3 1_555 1_555
F18 P3 1_555 1_555
P4 F19 1_555 1_555
F20 P4 1_555 1_555
F21 P4 1_555 1_555
F22 P4 1_555 1_555
F23 P4 1_555 1_555
F24 P4 1_555 1_555
O1 N3 1_555 1_555
O2 N4 1_555 1_555
N1 C1 1_555 1_555
N2 C8 1_555 1_555
N3 C20 1_555 1_555
N4 C29 1_555 1_555
C1 H1 1_555 1_555
H2 C1 1_555 1_555
C2 C1 1_555 1_555
C3 C2 1_555 1_555
H3 C3 1_555 1_555
C4 C3 1_555 1_555
H4 C4 1_555 1_555
C5 C4 1_555 1_555
C6 C5 1_555 1_555
H5 C6 1_555 1_555
C7 C2 1_555 1_555
H6 C7 1_555 1_555
C8 C5 1_555 1_555
H7 C8 1_555 1_555
H8 C8 1_555 1_555
C9 N2 1_555 1_555
H9 C9 1_555 1_555
C10 C9 1_555 1_555
H10 C10 1_555 1_555
C11 C10 1_555 1_555
C12 C11 1_555 1_555
H11 C12 1_555 1_555
C13 N2 1_555 1_555
H12 C13 1_555 1_555
C14 C11 1_555 1_555
C15 C14 1_555 1_555
H13 C15 1_555 1_555
C16 C15 1_555 1_555
H14 C16 1_555 1_555
C17 C16 1_555 1_555
C18 C17 1_555 1_555
H15 C18 1_555 1_555
C19 C14 1_555 1_555
H16 C19 1_555 1_555
C20 C17 1_555 1_555
H17 C20 1_555 1_555
C21 O1 1_555 1_555
H18 C21 1_555 1_555
H19 C21 1_555 1_555
C22 C21 1_555 1_555
C23 C22 1_555 1_555
H20 C23 1_555 1_555
C24 C23 1_555 1_555
H21 C24 1_555 1_555
C25 C24 1_555 1_555
C26 C25 1_555 1_555
H22 C26 1_555 1_555
C27 C22 1_555 1_555
H23 C27 1_555 1_555
C28 O2 1_555 1_555
H24 C28 1_555 1_555
H25 C28 1_555 1_555
C29 H26 1_555 1_555
C30 C29 1_555 1_555
C31 C30 1_555 1_555
H27 C31 1_555 1_555
C32 C31 1_555 1_555
H28 C32 1_555 1_555
C33 C32 1_555 1_555
C34 C33 1_555 1_555
H29 C34 1_555 1_555
C35 C30 1_555 1_555
H30 C35 1_555 1_555
C36 C33 1_555 1_555
C37 C36 1_555 1_555
H31 C37 1_555 1_555
C38 N1 1_555 1_555
H32 C38 1_555 1_555
C39 N1 1_555 1_555
H33 C39 1_555 1_555
C40 C36 1_555 1_555
H34 C40 1_555 1_555
O3 N7 1_555 1_555
O4 N8 1_555 1_555
N5 C41 1_555 1_555
N6 C48 1_555 1_555
N7 C60 1_555 1_555
N8 C69 1_555 1_555
C41 H35 1_555 1_555
H36 C41 1_555 1_555
C42 C41 1_555 1_555
C43 C42 1_555 1_555
H37 C43 1_555 1_555
C44 C43 1_555 1_555
H38 C44 1_555 1_555
C45 C44 1_555 1_555
C46 C45 1_555 1_555
H39 C46 1_555 1_555
C47 C42 1_555 1_555
H40 C47 1_555 1_555
C48 C45 1_555 1_555
H41 C48 1_555 1_555
H42 C48 1_555 1_555
C49 N6 1_555 1_555
H43 C49 1_555 1_555
C50 C49 1_555 1_555
H44 C50 1_555 1_555
C51 C50 1_555 1_555
C52 C51 1_555 1_555
H45 C52 1_555 1_555
C53 N6 1_555 1_555
H46 C53 1_555 1_555
C54 C51 1_555 1_555
C55 C54 1_555 1_555
H47 C55 1_555 1_555
C56 C55 1_555 1_555
H48 C56 1_555 1_555
C57 C56 1_555 1_555
C58 C57 1_555 1_555
H49 C58 1_555 1_555
C59 C54 1_555 1_555
H50 C59 1_555 1_555
C60 C57 1_555 1_555
H51 C60 1_555 1_555
C61 O3 1_555 1_555
H52 C61 1_555 1_555
H53 C61 1_555 1_555
C62 C61 1_555 1_555
C63 C62 1_555 1_555
H54 C63 1_555 1_555
C64 C63 1_555 1_555
H55 C64 1_555 1_555
C65 C64 1_555 1_555
C66 C65 1_555 1_555
H56 C66 1_555 1_555
C67 C62 1_555 1_555
H57 C67 1_555 1_555
C68 O4 1_555 1_555
H58 C68 1_555 1_555
H59 C68 1_555 1_555
C69 H60 1_555 1_555
C70 C69 1_555 1_555
C71 C70 1_555 1_555
H61 C71 1_555 1_555
C72 C71 1_555 1_555
H62 C72 1_555 1_555
C73 C72 1_555 1_555
C74 C73 1_555 1_555
H63 C74 1_555 1_555
C75 C70 1_555 1_555
H64 C75 1_555 1_555
C76 C73 1_555 1_555
C77 C76 1_555 1_555
H65 C77 1_555 1_555
C78 N5 1_555 1_555
H66 C78 1_555 1_555
C79 N5 1_555 1_555
H67 C79 1_555 1_555
C80 C76 1_555 1_555
H68 C80 1_555 1_555
O5 C81 1_555 1_555
C81 H69 1_555 1_555
H70 C81 1_555 1_555
C82 C81 1_555 1_555
H71 C82 1_555 1_555
H72 C82 1_555 1_555
H73 C82 1_555 1_555
C83 O5 1_555 1_555
H74 C83 1_555 1_555
H75 C83 1_555 1_555
C84 C83 1_555 1_555
H76 C84 1_555 1_555
H77 C84 1_555 1_555
H78 C84 1_555 1_555
N9 C86 1_555 1_555
C85 H79 1_555 1_555
H80 C85 1_555 1_555
H81 C85 1_555 1_555
C86 C85 1_555 1_555
N10 C88 1_555 1_555
C87 H82 1_555 1_555
H83 C87 1_555 1_555
H84 C87 1_555 1_555
C88 C87 1_555 1_555
C6 C7 1_555 1_555
C12 C13 1_555 1_555
C18 C19 1_555 1_555
C25 C28 1_555 1_555
C26 C27 1_555 1_555
C34 C35 1_555 1_555
C37 C38 1_555 1_555
C39 C40 1_555 1_555
C46 C47 1_555 1_555
C52 C53 1_555 1_555
C58 C59 1_555 1_555
C65 C68 1_555 1_555
C66 C67 1_555 1_555
C74 C75 1_555 1_555
C77 C78 1_555 1_555
C79 C80 1_555 1_555

#END
