
#######################################################################
#
#                 Cambridge Crystallographic Data Centre
#                                CCDC 
#
#######################################################################
#
# If this CIF has been generated from an entry in the Cambridge 
# Structural Database, then it will include bibliographic, chemical, 
# crystal, experimental, refinement or atomic coordinate data resulting 
# from the CCDC's data processing and validation procedures.
#
#######################################################################

data_PIQNOV
_chemical_name_common            
'(E)-2-(((4-methyl-N-phenylphenyl)sulfonamido)methylene)-4-(triisopropylsilyl)but-3-yn-1-yl 2-iodobenzoate'
_chemical_formula_moiety         'C34 H40 I1 N1 O4 S1 Si1'
_chemical_name_systematic        
'2-({[(4-methylphenyl)sulfonyl](phenyl)amino}methylidene)-4-[tris(propan-2-yl)silyl]but-3-yn-1-yl 2-iodobenzoate'
_symmetry_cell_setting           monoclinic
_symmetry_space_group_name_H-M   'P 21/c'
_symmetry_Int_Tables_number      14
_space_group_name_Hall           '-P 2ybc'
loop_
_symmetry_equiv_pos_site_id
_symmetry_equiv_pos_as_xyz
1 x,y,z
2 -x,1/2+y,1/2-z
3 -x,-y,-z
4 x,1/2-y,1/2+z
_cell_length_a                   20.5230(5)
_cell_length_b                   14.3909(3)
_cell_length_c                   12.0172(4)
_cell_angle_alpha                90
_cell_angle_beta                 101.394(3)
_cell_angle_gamma                90
_cell_volume                     3479.26
_exptl_crystal_colour            colorless
_exptl_crystal_description       block
_cell_formula_units_Z            4
loop_
_atom_site_label
_atom_site_type_symbol
_atom_site_fract_x
_atom_site_fract_y
_atom_site_fract_z
I1 I 0.69335(2) 0.08441(3) 0.34758(4)
S1 S 0.54620(5) 0.61684(8) -0.14866(9)
Si1 Si 0.88830(6) 0.60708(11) 0.15129(11)
N1 N 0.61616(16) 0.6152(2) -0.0495(3)
C1 C 0.65657(18) 0.6984(3) -0.0418(3)
C2 C 0.7986(2) 0.5879(3) 0.1341(4)
C3 C 0.6951(2) 0.7147(4) -0.1224(4)
H1 H 0.6983 0.6713 -0.1784
C4 C 0.7412(2) 0.5664(3) 0.1221(4)
C5 C 0.7024(3) 0.2997(3) 0.2245(4)
C6 C 0.6538(2) 0.7615(3) 0.0423(4)
H2 H 0.6280 0.7491 0.0962
C7 C 0.8167(4) 0.0895(4) 0.1017(7)
H3 H 0.8428 0.0448 0.0755
C8 C 0.7406(2) 0.2246(3) 0.1834(4)
O1 O 0.70359(19) 0.3776(2) 0.1672(3)
C9 C 0.4685(2) 0.6967(3) -0.0180(4)
H4 H 0.4688 0.6393 0.0175
C10 C 0.9020(3) 0.7287(5) 0.1047(8)
H5 H 0.8749 0.7345 0.0282
C11 C 0.50094(18) 0.7099(3) -0.1090(4)
C12 C 0.67565(19) 0.5318(3) 0.1172(3)
C13 C 0.6888(3) 0.8428(3) 0.0475(5)
H6 H 0.6871 0.8853 0.1051
C14 C 0.7756(4) 0.2448(4) 0.0983(6)
H7 H 0.7738 0.3048 0.0691
C15 C 0.6215(2) 0.5526(3) 0.0392(3)
H8 H 0.5828 0.5212 0.0454
C16 C 0.7826(3) 0.0687(4) 0.1833(6)
H9 H 0.7851 0.0086 0.2124
C17 C 0.5014(2) 0.7961(4) -0.1611(4)
H10 H 0.5233 0.8046 -0.2212
O2 O 0.6742(3) 0.2957(4) 0.3010(5)
C18 C 0.4362(3) 0.7716(4) 0.0168(5)
H11 H 0.4140 0.7641 0.0765
C19 C 0.6691(2) 0.4574(3) 0.2016(4)
H12 H 0.6895 0.4768 0.2779
H13 H 0.6227 0.4430 0.1995
C20 C 0.4688(3) 0.8678(4) -0.1213(6)
H14 H 0.4692 0.9259 -0.1552
C21 C 0.4357(2) 0.8581(4) -0.0341(5)
C22 C 0.7441(2) 0.1329(3) 0.2254(4)
C23 C 0.4016(4) 0.9392(5) 0.0086(7)
H15 H 0.3570 0.9222 0.0130
H16 H 0.4007 0.9907 -0.0425
H17 H 0.4254 0.9567 0.0827
C24 C 0.7292(3) 0.8006(5) -0.1153(5)
H18 H 0.7543 0.8154 -0.1695
C25 C 0.9186(3) 0.5255(6) 0.0517(7)
H19 H 0.9670 0.5321 0.0631
C26 C 0.7259(3) 0.8615(4) -0.0310(6)
H20 H 0.7495 0.9170 -0.0269
O3 O 0.51347(15) 0.5308(2) -0.1367(3)
O4 O 0.56467(17) 0.6391(3) -0.2538(3)
C27 C 0.8121(4) 0.1802(5) 0.0567(7)
H21 H 0.8340 0.1955 -0.0015
C28 C 1.0011(4) 0.5777(12) 0.3241(8)
H22 H 1.0124 0.5133 0.3193
H23 H 1.0203 0.6009 0.3982
H24 H 1.0182 0.6123 0.2678
C29 C 0.9745(4) 0.7455(9) 0.0914(14)
H25 H 1.0044 0.7264 0.1594
H26 H 0.9808 0.8104 0.0782
H27 H 0.9833 0.7101 0.0282
C30 C 0.8757(6) 0.7995(7) 0.1749(12)
H28 H 0.8286 0.8063 0.1481
H29 H 0.8972 0.8580 0.1689
H30 H 0.8841 0.7799 0.2527
C31 C 0.8897(5) 0.5523(14) -0.0689(10)
H31 H 0.8771 0.4973 -0.1131
H32 H 0.9224 0.5859 -0.1001
H33 H 0.8514 0.5908 -0.0706
C32 C 0.9033(7) 0.4250(6) 0.074(2)
H34 H 0.9257 0.4081 0.1494
H35 H 0.9183 0.3858 0.0198
H36 H 0.8563 0.4175 0.0680
C33 C 0.9242(3) 0.5883(8) 0.3031(7)
H37 H 0.9163 0.6463 0.3411
C34 C 0.8932(5) 0.5147(14) 0.3604(10)
H38 H 0.8474 0.5296 0.3576
H39 H 0.9159 0.5100 0.4381
H40 H 0.8963 0.4564 0.3228
loop_
_geom_bond_atom_site_label_1
_geom_bond_atom_site_label_2
_geom_bond_site_symmetry_1
_geom_bond_site_symmetry_2
I1 C22 1_555 1_555
S1 N1 1_555 1_555
Si1 C2 1_555 1_555
N1 C1 1_555 1_555
C1 C3 1_555 1_555
C2 C4 1_555 1_555
C3 H1 1_555 1_555
C4 C12 1_555 1_555
C5 C8 1_555 1_555
C6 C1 1_555 1_555
H2 C6 1_555 1_555
C7 H3 1_555 1_555
C8 C14 1_555 1_555
O1 C5 1_555 1_555
C9 H4 1_555 1_555
C10 Si1 1_555 1_555
H5 C10 1_555 1_555
C11 S1 1_555 1_555
C12 C15 1_555 1_555
C13 C6 1_555 1_555
H6 C13 1_555 1_555
C14 H7 1_555 1_555
C15 N1 1_555 1_555
H8 C15 1_555 1_555
C16 C7 1_555 1_555
H9 C16 1_555 1_555
C17 C11 1_555 1_555
H10 C17 1_555 1_555
O2 C5 1_555 1_555
C18 C9 1_555 1_555
H11 C18 1_555 1_555
C19 O1 1_555 1_555
H12 C19 1_555 1_555
H13 C19 1_555 1_555
C20 C17 1_555 1_555
H14 C20 1_555 1_555
C21 C18 1_555 1_555
C22 C8 1_555 1_555
C23 C21 1_555 1_555
H15 C23 1_555 1_555
H16 C23 1_555 1_555
H17 C23 1_555 1_555
C24 C3 1_555 1_555
H18 C24 1_555 1_555
C25 Si1 1_555 1_555
H19 C25 1_555 1_555
C26 C13 1_555 1_555
H20 C26 1_555 1_555
O3 S1 1_555 1_555
O4 S1 1_555 1_555
C27 C7 1_555 1_555
H21 C27 1_555 1_555
C28 H22 1_555 1_555
H23 C28 1_555 1_555
H24 C28 1_555 1_555
C29 C10 1_555 1_555
H25 C29 1_555 1_555
H26 C29 1_555 1_555
H27 C29 1_555 1_555
C30 C10 1_555 1_555
H28 C30 1_555 1_555
H29 C30 1_555 1_555
H30 C30 1_555 1_555
C31 C25 1_555 1_555
H31 C31 1_555 1_555
H32 C31 1_555 1_555
H33 C31 1_555 1_555
C32 C25 1_555 1_555
H34 C32 1_555 1_555
H35 C32 1_555 1_555
H36 C32 1_555 1_555
C33 Si1 1_555 1_555
H37 C33 1_555 1_555
C34 C33 1_555 1_555
H38 C34 1_555 1_555
H39 C34 1_555 1_555
H40 C34 1_555 1_555
C9 C11 1_555 1_555
C12 C19 1_555 1_555
C14 C27 1_555 1_555
C16 C22 1_555 1_555
C20 C21 1_555 1_555
C24 C26 1_555 1_555
C28 C33 1_555 1_555

#END
