
#######################################################################
#
#                 Cambridge Crystallographic Data Centre
#                                CCDC 
#
#######################################################################
#
# If this CIF has been generated from an entry in the Cambridge 
# Structural Database, then it will include bibliographic, chemical, 
# crystal, experimental, refinement or atomic coordinate data resulting 
# from the CCDC's data processing and validation procedures.
#
#######################################################################

data_PIQQUE
_chemical_formula_moiety         'C23 H30 O6'
_chemical_name_systematic        
5-{2-[(4-methoxyphenyl)methoxy]ethyl}-3,3a-dimethyl-6-methylidenehexahydro-3,5,7-(ethane[1,1,2]triyl)-1-benzofuran-4,7a,9(2H)-triol
_symmetry_cell_setting           monoclinic
_symmetry_space_group_name_H-M   'P 21'
_symmetry_Int_Tables_number      4
_space_group_name_Hall           'P 2yb'
loop_
_symmetry_equiv_pos_site_id
_symmetry_equiv_pos_as_xyz
1 x,y,z
2 -x,1/2+y,-z
_cell_length_a                   6.471(3)
_cell_length_b                   22.927(12)
_cell_length_c                   7.360(4)
_cell_angle_alpha                90
_cell_angle_beta                 115.977(7)
_cell_angle_gamma                90
_cell_volume                     981.616
_exptl_crystal_colour            colorless
_exptl_crystal_description       block
_cell_formula_units_Z            2
loop_
_atom_site_label
_atom_site_type_symbol
_atom_site_fract_x
_atom_site_fract_y
_atom_site_fract_z
O1 O 0.8714(6) 0.97684(16) 0.5051(6)
O2 O 0.6958(9) 1.1309(2) -0.2613(7)
O3 O 1.0560(5) 0.87129(15) 0.6106(5)
H1 H 1.0299 0.9048 0.5679
O4 O 0.5318(6) 0.78509(14) 0.5619(5)
H2 H 0.4216 0.8001 0.4681
O5 O 0.8201(6) 0.82372(15) 1.2161(5)
H3 H 0.9017 0.8360 1.3298
O6 O 1.1590(5) 0.80844(16) 1.1927(5)
C1 C 1.0161(10) 1.0592(3) 0.2150(9)
H4 H 1.1576 1.0407 0.2809
C2 C 0.5988(11) 1.1137(2) 0.0159(9)
H5 H 0.4565 1.1318 -0.0509
C3 C 0.8751(9) 1.0629(2) 0.3083(8)
C4 C 0.6669(10) 1.0913(2) 0.2079(8)
H6 H 0.5706 1.0954 0.2709
C5 C 0.4753(13) 1.1576(3) -0.3723(10)
H7 H 0.4540 1.1879 -0.2919
H8 H 0.3569 1.1288 -0.4042
H9 H 0.4676 1.1741 -0.4950
C6 C 0.7418(11) 1.1090(2) -0.0742(8)
C7 C 0.9532(11) 1.0823(3) 0.0243(9)
H10 H 1.0522 1.0799 -0.0365
C8 C 0.5882(7) 0.9074(2) 0.4931(7)
H11 H 0.6174 0.8840 0.3969
H12 H 0.4253 0.9044 0.4566
C9 C 0.6396(8) 0.9699(2) 0.4661(8)
H13 H 0.5415 0.9822 0.3289
H14 H 0.6064 0.9945 0.5574
C10 C 0.9424(10) 1.0364(3) 0.5141(8)
H15 H 1.1081 1.0385 0.5910
H16 H 0.8744 1.0591 0.5852
C11 C 0.7190(7) 0.87997(19) 0.7016(6)
C12 C 1.0138(7) 0.7986(2) 0.8361(7)
C13 C 0.9848(7) 0.8641(2) 0.7665(6)
C14 C 0.8163(7) 0.7934(2) 0.9002(7)
C15 C 0.6117(7) 0.8227(2) 0.7307(6)
H17 H 0.4900 0.8308 0.7724
C16 C 0.9295(7) 0.8316(2) 1.0950(7)
C17 C 1.1103(7) 0.9032(2) 0.9498(7)
H18 H 1.1193 0.9432 0.9109
H19 H 1.2636 0.8889 1.0356
C18 C 0.7295(7) 0.9160(2) 0.8791(7)
C19 C 0.9485(8) 0.8971(2) 1.0513(7)
H20 H 0.9929 0.9218 1.1712
C20 C 0.5788(9) 0.9533(2) 0.8857(8)
H21 H 0.6037 0.9709 1.0073
H22 H 0.4472 0.9620 0.7686
C21 C 0.7624(9) 0.7332(2) 0.9523(8)
H23 H 0.7134 0.7085 0.8354
H24 H 0.6422 0.7359 0.9949
H25 H 0.8976 0.7170 1.0595
C22 C 1.0176(9) 0.7554(2) 0.6802(7)
H26 H 1.0057 0.7164 0.7221
H27 H 1.1591 0.7595 0.6687
H28 H 0.8905 0.7631 0.5516
C23 C 1.2204(8) 0.7869(2) 1.0390(7)
H29 H 1.2532 0.7454 1.0568
H30 H 1.3555 0.8070 1.0457
loop_
_geom_bond_atom_site_label_1
_geom_bond_atom_site_label_2
_geom_bond_site_symmetry_1
_geom_bond_site_symmetry_2
O1 C9 1_555 1_555
O2 C5 1_555 1_555
O3 H1 1_555 1_555
O4 H2 1_555 1_555
O5 H3 1_555 1_555
O6 C16 1_555 1_555
C1 H4 1_555 1_555
C2 H5 1_555 1_555
C3 C1 1_555 1_555
C4 C2 1_555 1_555
H6 C4 1_555 1_555
C5 H7 1_555 1_555
H8 C5 1_555 1_555
H9 C5 1_555 1_555
C6 O2 1_555 1_555
C7 C1 1_555 1_555
H10 C7 1_555 1_555
C8 H11 1_555 1_555
H12 C8 1_555 1_555
C9 C8 1_555 1_555
H13 C9 1_555 1_555
H14 C9 1_555 1_555
C10 O1 1_555 1_555
H15 C10 1_555 1_555
H16 C10 1_555 1_555
C11 C8 1_555 1_555
C12 C13 1_555 1_555
C13 O3 1_555 1_555
C14 C12 1_555 1_555
C15 O4 1_555 1_555
H17 C15 1_555 1_555
C16 O5 1_555 1_555
C17 C13 1_555 1_555
H18 C17 1_555 1_555
H19 C17 1_555 1_555
C18 C11 1_555 1_555
C19 C16 1_555 1_555
H20 C19 1_555 1_555
C20 C18 1_555 1_555
H21 C20 1_555 1_555
H22 C20 1_555 1_555
C21 C14 1_555 1_555
H23 C21 1_555 1_555
H24 C21 1_555 1_555
H25 C21 1_555 1_555
C22 C12 1_555 1_555
H26 C22 1_555 1_555
H27 C22 1_555 1_555
H28 C22 1_555 1_555
C23 O6 1_555 1_555
H29 C23 1_555 1_555
H30 C23 1_555 1_555
C2 C6 1_555 1_555
C3 C4 1_555 1_555
C3 C10 1_555 1_555
C6 C7 1_555 1_555
C11 C13 1_555 1_555
C11 C15 1_555 1_555
C12 C23 1_555 1_555
C14 C15 1_555 1_555
C14 C16 1_555 1_555
C17 C19 1_555 1_555
C18 C19 1_555 1_555

#END
