
#######################################################################
#
#                 Cambridge Crystallographic Data Centre
#                                CCDC 
#
#######################################################################
#
# If this CIF has been generated from an entry in the Cambridge 
# Structural Database, then it will include bibliographic, chemical, 
# crystal, experimental, refinement or atomic coordinate data resulting 
# from the CCDC's data processing and validation procedures.
#
#######################################################################

data_PIQRAL
_chemical_formula_moiety         'C23 H30 O6'
_chemical_name_systematic        
3b,7-dihydroxy-6a-{2-[(4-methoxyphenyl)methoxy]ethyl}-3a,6,7a-trimethyl-3a,3b,4,6a,7,7a-hexahydropentaleno[1,2-c]furan-1(3H)-one
_symmetry_cell_setting           triclinic
_symmetry_space_group_name_H-M   'P -1'
_symmetry_Int_Tables_number      2
_space_group_name_Hall           '-P 1'
loop_
_symmetry_equiv_pos_site_id
_symmetry_equiv_pos_as_xyz
1 x,y,z
2 -x,-y,-z
_cell_length_a                   7.4813(7)
_cell_length_b                   8.7835(8)
_cell_length_c                   17.8242(17)
_cell_angle_alpha                98.1964(16)
_cell_angle_beta                 92.3705(16)
_cell_angle_gamma                111.7096(15)
_cell_volume                     1071.42
_exptl_crystal_colour            colorless
_exptl_crystal_description       block
_cell_formula_units_Z            2
loop_
_atom_site_label
_atom_site_type_symbol
_atom_site_fract_x
_atom_site_fract_y
_atom_site_fract_z
O1 O 0.7517(2) 0.7638(3) 0.11184(10)
H1 H 0.7573 0.7276 0.0674
O2 O 0.1707(3) 0.5058(2) 0.04937(10)
O3 O 0.3615(3) 0.3633(2) 0.04515(10)
O4 O 0.4018(3) 0.8270(2) 0.29569(9)
H2 H 0.4629 0.9198 0.3204
O5 O 0.6464(3) 1.1445(2) 0.33480(10)
O6 O 0.0370(4) 1.2675(4) 0.54455(17)
C1 C 0.5647(3) 0.7619(3) 0.12077(12)
H3 H 0.5089 0.7682 0.0711
C2 C 0.4251(3) 0.6022(3) 0.14685(12)
C3 C 0.2644(3) 0.6581(3) 0.17598(13)
C4 C 0.3696(3) 0.8399(3) 0.21786(12)
C5 C 0.5618(3) 0.9115(3) 0.17909(12)
C6 C 0.3226(4) 0.4764(3) 0.07682(13)
C7 C 0.1488(4) 0.6421(3) 0.09961(15)
H4 H 0.0135 0.6176 0.1064
H5 H 0.1999 0.7443 0.0789
C8 C 0.5264(5) 0.5325(4) 0.20119(16)
H6 H 0.4340 0.4333 0.2145
H7 H 0.5827 0.6137 0.2464
H8 H 0.6262 0.5070 0.1767
C9 C 0.1315(5) 0.5425(4) 0.22457(18)
H9 H 0.0760 0.4316 0.1961
H10 H 0.0302 0.5805 0.2380
H11 H 0.2051 0.5431 0.2701
C10 C 0.2581(4) 0.9535(3) 0.20794(17)
H12 H 0.1246 0.8886 0.1881
H13 H 0.2611 1.0224 0.2560
C11 C 0.3627(4) 1.0562(3) 0.15280(17)
H14 H 0.3168 1.1261 0.1306
C12 C 0.5275(4) 1.0402(3) 0.13773(14)
C13 C 0.6674(5) 1.1281(4) 0.08558(18)
H15 H 0.6218 1.2033 0.0644
H16 H 0.6781 1.0480 0.0452
H17 H 0.7918 1.1894 0.1137
C14 C 0.7497(3) 0.9899(3) 0.23438(14)
H18 H 0.7474 0.9127 0.2685
H19 H 0.8583 1.0014 0.2047
C15 C 0.7867(4) 1.1567(4) 0.28216(15)
H20 H 0.9145 1.1992 0.3097
H21 H 0.7831 1.2346 0.2492
C16 C 0.6736(5) 1.2996(4) 0.3804(2)
H22 H 0.6860 1.3818 0.3478
H23 H 0.7919 1.3374 0.4143
C17 C 0.5078(4) 1.2831(3) 0.42578(17)
C18 C 0.3781(6) 1.3487(5) 0.40658(17)
H24 H 0.3937 1.3991 0.3635
C19 C 0.2266(6) 1.3450(6) 0.4466(2)
H25 H 0.1446 1.3959 0.4322
C20 C 0.1962(5) 1.2659(4) 0.5078(2)
C21 C 0.3192(7) 1.1981(5) 0.5311(2)
H26 H 0.2988 1.1457 0.5735
C22 C 0.4803(6) 1.2077(5) 0.4898(3)
H27 H 0.5676 1.1633 0.5059
C23 C -0.0037(8) 1.1913(6) 0.6061(3)
H28 H -0.0399 1.0737 0.5907
H29 H -0.1084 1.2122 0.6287
H30 H 0.1085 1.2338 0.6427
loop_
_geom_bond_atom_site_label_1
_geom_bond_atom_site_label_2
_geom_bond_site_symmetry_1
_geom_bond_site_symmetry_2
O1 H1 1_555 1_555
O2 C6 1_555 1_555
O3 C6 1_555 1_555
O4 H2 1_555 1_555
O5 C15 1_555 1_555
O6 C20 1_555 1_555
C1 O1 1_555 1_555
H3 C1 1_555 1_555
C2 C1 1_555 1_555
C3 C2 1_555 1_555
C4 O4 1_555 1_555
C5 C1 1_555 1_555
C6 C2 1_555 1_555
C7 O2 1_555 1_555
H4 C7 1_555 1_555
H5 C7 1_555 1_555
C8 C2 1_555 1_555
H6 C8 1_555 1_555
H7 C8 1_555 1_555
H8 C8 1_555 1_555
C9 C3 1_555 1_555
H9 C9 1_555 1_555
H10 C9 1_555 1_555
H11 C9 1_555 1_555
C10 C4 1_555 1_555
H12 C10 1_555 1_555
H13 C10 1_555 1_555
C11 C10 1_555 1_555
H14 C11 1_555 1_555
C12 C5 1_555 1_555
C13 C12 1_555 1_555
H15 C13 1_555 1_555
H16 C13 1_555 1_555
H17 C13 1_555 1_555
C14 C5 1_555 1_555
H18 C14 1_555 1_555
H19 C14 1_555 1_555
C15 C14 1_555 1_555
H20 C15 1_555 1_555
H21 C15 1_555 1_555
C16 O5 1_555 1_555
H22 C16 1_555 1_555
H23 C16 1_555 1_555
C17 C16 1_555 1_555
C18 C17 1_555 1_555
H24 C18 1_555 1_555
C19 C18 1_555 1_555
H25 C19 1_555 1_555
C20 C19 1_555 1_555
C21 C20 1_555 1_555
H26 C21 1_555 1_555
C22 C17 1_555 1_555
H27 C22 1_555 1_555
C23 O6 1_555 1_555
H28 C23 1_555 1_555
H29 C23 1_555 1_555
H30 C23 1_555 1_555
C3 C4 1_555 1_555
C3 C7 1_555 1_555
C4 C5 1_555 1_555
C11 C12 1_555 1_555
C21 C22 1_555 1_555

#END
