
#######################################################################
#
#                 Cambridge Crystallographic Data Centre
#                                CCDC 
#
#######################################################################
#
# If this CIF has been generated from an entry in the Cambridge 
# Structural Database, then it will include bibliographic, chemical, 
# crystal, experimental, refinement or atomic coordinate data resulting 
# from the CCDC's data processing and validation procedures.
#
#######################################################################

data_PIQYOG
_chemical_formula_moiety         'C19 H25 F2 N1 O5'
_chemical_name_systematic        
'5-ethoxy-4,4-difluoro-5-oxo-2-{[(tricyclo[3.3.1.1^3,7^]decane-1-carbonyl)amino]methylidene}pentanoic acid'
_symmetry_cell_setting           monoclinic
_symmetry_space_group_name_H-M   'P 21/c'
_symmetry_Int_Tables_number      14
_space_group_name_Hall           '-P 2ybc'
loop_
_symmetry_equiv_pos_site_id
_symmetry_equiv_pos_as_xyz
1 x,y,z
2 -x,1/2+y,1/2-z
3 -x,-y,-z
4 x,1/2-y,1/2+z
_cell_length_a                   12.1264(7)
_cell_length_b                   12.1086(4)
_cell_length_c                   13.6351(9)
_cell_angle_alpha                90
_cell_angle_beta                 111.794(7)
_cell_angle_gamma                90
_cell_volume                     1858.99
_exptl_crystal_colour            'light colorless'
_exptl_crystal_description       block
_cell_formula_units_Z            4
loop_
_atom_site_label
_atom_site_type_symbol
_atom_site_fract_x
_atom_site_fract_y
_atom_site_fract_z
F1 F 0.47459(10) 0.86116(9) 0.01013(9)
F2 F 0.65999(11) 0.87753(8) 0.02808(9)
O1 O 0.25195(11) 0.88728(9) 0.24314(11)
O2 O 0.50729(12) 0.56142(9) 0.26394(10)
O3 O 0.66881(12) 0.59423(9) 0.22548(11)
H1 H 0.6797 0.5279 0.2375
O4 O 0.48641(12) 0.64489(11) -0.02325(11)
O5 O 0.68022(12) 0.66773(10) 0.00453(10)
N1 N 0.36056(13) 0.73429(11) 0.24912(11)
H2 H 0.3674 0.6642 0.2600
C1 C 0.18293(16) 0.72192(13) 0.29741(13)
C2 C 0.05570(16) 0.73482(14) 0.21430(15)
H3 H 0.0364 0.8126 0.2022
H4 H 0.0515 0.7023 0.1480
C3 C -0.03411(17) 0.67845(15) 0.25193(16)
H5 H -0.1143 0.6875 0.1987
C4 C -0.0279(2) 0.72975(18) 0.3559(2)
H6 H -0.0850 0.6942 0.3799
H7 H -0.0474 0.8077 0.3457
C5 C 0.0972(2) 0.71543(19) 0.43865(18)
H8 H 0.1006 0.7484 0.5053
C6 C 0.18745(19) 0.77332(16) 0.40212(16)
H9 H 0.2666 0.7653 0.4554
H10 H 0.1692 0.8515 0.3923
C7 C 0.1285(2) 0.59282(19) 0.45627(18)
H11 H 0.2082 0.5843 0.5085
H12 H 0.0737 0.5560 0.4823
C8 C 0.12085(18) 0.54135(15) 0.35200(16)
H13 H 0.1394 0.4624 0.3626
C9 C 0.21139(16) 0.59776(14) 0.31440(15)
H14 H 0.2085 0.5644 0.2488
H15 H 0.2908 0.5878 0.3667
C10 C -0.00449(18) 0.55557(15) 0.26998(17)
H16 H -0.0611 0.5197 0.2944
H17 H -0.0099 0.5212 0.2041
C11 C 0.26764(16) 0.78781(14) 0.26166(14)
C12 C 0.44371(16) 0.78752(14) 0.21990(14)
H18 H 0.4313 0.8623 0.2042
C13 C 0.54076(16) 0.74245(13) 0.21175(13)
C14 C 0.56897(16) 0.62454(14) 0.23664(14)
C15 C 0.62010(16) 0.81258(13) 0.17397(14)
H19 H 0.6192 0.8878 0.1981
H20 H 0.7009 0.7854 0.2056
C16 C 0.58353(17) 0.81303(14) 0.05546(15)
C17 C 0.57586(17) 0.69827(15) 0.00556(14)
C18 C 0.6858(2) 0.55448(15) -0.03020(17)
H21 H 0.6212 0.5407 -0.0970
H22 H 0.6794 0.5025 0.0216
C19 C 0.8024(2) 0.54184(17) -0.04207(17)
H23 H 0.8058 0.5909 -0.0962
H24 H 0.8113 0.4670 -0.0612
H25 H 0.8653 0.5595 0.0236
loop_
_geom_bond_atom_site_label_1
_geom_bond_atom_site_label_2
_geom_bond_site_symmetry_1
_geom_bond_site_symmetry_2
F1 C16 1_555 1_555
F2 C16 1_555 1_555
O1 C11 1_555 1_555
O2 C14 1_555 1_555
O3 H1 1_555 1_555
O4 C17 1_555 1_555
O5 C17 1_555 1_555
N1 H2 1_555 1_555
C1 C2 1_555 1_555
C2 H3 1_555 1_555
H4 C2 1_555 1_555
C3 C2 1_555 1_555
H5 C3 1_555 1_555
C4 C3 1_555 1_555
H6 C4 1_555 1_555
H7 C4 1_555 1_555
C5 C4 1_555 1_555
H8 C5 1_555 1_555
C6 C1 1_555 1_555
H9 C6 1_555 1_555
H10 C6 1_555 1_555
C7 C5 1_555 1_555
H11 C7 1_555 1_555
H12 C7 1_555 1_555
C8 C7 1_555 1_555
H13 C8 1_555 1_555
C9 C1 1_555 1_555
H14 C9 1_555 1_555
H15 C9 1_555 1_555
C10 C3 1_555 1_555
H16 C10 1_555 1_555
H17 C10 1_555 1_555
C11 N1 1_555 1_555
C12 N1 1_555 1_555
H18 C12 1_555 1_555
C13 C12 1_555 1_555
C14 O3 1_555 1_555
C15 C13 1_555 1_555
H19 C15 1_555 1_555
H20 C15 1_555 1_555
C16 C15 1_555 1_555
C17 C16 1_555 1_555
C18 O5 1_555 1_555
H21 C18 1_555 1_555
H22 C18 1_555 1_555
C19 C18 1_555 1_555
H23 C19 1_555 1_555
H24 C19 1_555 1_555
H25 C19 1_555 1_555
C1 C11 1_555 1_555
C5 C6 1_555 1_555
C8 C9 1_555 1_555
C8 C10 1_555 1_555
C13 C14 1_555 1_555

#END
