
#######################################################################
#
#                 Cambridge Crystallographic Data Centre
#                                CCDC 
#
#######################################################################
#
# If this CIF has been generated from an entry in the Cambridge 
# Structural Database, then it will include bibliographic, chemical, 
# crystal, experimental, refinement or atomic coordinate data resulting 
# from the CCDC's data processing and validation procedures.
#
#######################################################################

data_PIQYUM
_chemical_formula_moiety         'C36 H30 F4 O4'
_chemical_name_systematic        
"diethyl 3,3'-([9H,9'H-9,9'-bifluorene]-9,9'-diyl)bis(2,2-difluoropropanoate)"
_symmetry_cell_setting           monoclinic
_symmetry_space_group_name_H-M   'P 21/c'
_symmetry_Int_Tables_number      14
_space_group_name_Hall           '-P 2ybc'
loop_
_symmetry_equiv_pos_site_id
_symmetry_equiv_pos_as_xyz
1 x,y,z
2 -x,1/2+y,1/2-z
3 -x,-y,-z
4 x,1/2-y,1/2+z
_cell_length_a                   17.5468(8)
_cell_length_b                   10.6086(5)
_cell_length_c                   16.1722(7)
_cell_angle_alpha                90
_cell_angle_beta                 105.657(2)
_cell_angle_gamma                90
_cell_volume                     2898.7
_exptl_crystal_colour            'light colorless'
_exptl_crystal_description       block
_cell_formula_units_Z            4
loop_
_atom_site_label
_atom_site_type_symbol
_atom_site_fract_x
_atom_site_fract_y
_atom_site_fract_z
F1 F 0.40995(7) 0.20423(13) 0.67990(9)
O1 O 0.28487(10) 0.26696(14) 0.74263(10)
C1 C 0.26797(10) 0.42660(15) 0.53460(11)
F2 F 0.32788(8) 0.14219(11) 0.56182(8)
O2 O 0.21861(8) 0.13974(14) 0.63572(9)
C2 C 0.20715(10) 0.33831(16) 0.47750(11)
C3 C 0.21551(12) 0.25158(17) 0.41644(13)
H1 H 0.2656 0.2391 0.4056
F3 F 0.38258(8) 0.50183(11) 0.29465(8)
O3 O 0.47444(8) 0.65747(14) 0.41616(11)
C4 C 0.14980(15) 0.1830(2) 0.37118(15)
H2 H 0.1547 0.1247 0.3283
F4 F 0.28067(7) 0.62093(11) 0.29046(7)
O4 O 0.37382(7) 0.79288(12) 0.36805(9)
C5 C 0.07697(14) 0.1995(2) 0.38861(16)
H3 H 0.0324 0.1530 0.3568
C6 C 0.06827(12) 0.2824(2) 0.45147(14)
H4 H 0.0186 0.2916 0.4639
C7 C 0.13367(11) 0.35195(18) 0.49615(12)
C8 C 0.14207(10) 0.44061(18) 0.56687(12)
C9 C 0.08690(12) 0.4818(2) 0.60913(14)
H5 H 0.0334 0.4547 0.5908
C10 C 0.11190(13) 0.5627(2) 0.67809(14)
H6 H 0.0749 0.5922 0.7070
C11 C 0.24506(12) 0.56119(17) 0.66331(12)
H7 H 0.2987 0.5877 0.6822
C12 C 0.19020(13) 0.6015(2) 0.70590(14)
H8 H 0.2065 0.6557 0.7542
C13 C 0.22049(10) 0.48203(16) 0.59306(11)
C14 C 0.10790(16) 0.0134(3) 0.6380(2)
H9 H 0.0660 -0.0023 0.6663
H10 H 0.1421 -0.0610 0.6440
H11 H 0.0841 0.0306 0.5769
C15 C 0.27725(12) 0.21553(18) 0.67527(13)
C16 C 0.33808(11) 0.23235(18) 0.62466(13)
C17 C 0.34443(10) 0.36084(17) 0.58758(12)
H12 H 0.3808 0.3538 0.5505
H13 H 0.3700 0.4175 0.6357
C18 C 0.29126(10) 0.53997(16) 0.47847(11)
C19 C 0.42400(12) 0.62215(19) 0.58496(13)
H14 H 0.4523 0.5469 0.5813
C20 C 0.46086(14) 0.7206(2) 0.63764(15)
H15 H 0.5145 0.7122 0.6701
C21 C 0.42044(16) 0.8296(2) 0.64314(16)
H16 H 0.4461 0.8949 0.6806
C22 C 0.34278(16) 0.84605(19) 0.59481(16)
H17 H 0.3153 0.9221 0.5986
C23 C 0.30535(12) 0.74799(17) 0.54001(13)
C24 C 0.34556(11) 0.63478(16) 0.53776(12)
C25 C 0.21782(11) 0.62077(17) 0.44084(12)
C26 C 0.22752(12) 0.74010(18) 0.47962(14)
C27 C 0.16811(15) 0.8309(2) 0.45601(18)
H18 H 0.1748 0.9120 0.4820
C28 C 0.09994(16) 0.8009(3) 0.39464(19)
H19 H 0.0588 0.8616 0.3787
C29 C 0.08978(13) 0.6838(3) 0.35537(16)
H20 H 0.0422 0.6657 0.3125
C30 C 0.14900(11) 0.5916(2) 0.37813(13)
H21 H 0.1421 0.5112 0.3513
C31 C 0.32928(11) 0.48534(16) 0.41051(12)
H22 H 0.3793 0.4436 0.4414
H23 H 0.2936 0.4189 0.3787
C32 C 0.34773(11) 0.57445(17) 0.34494(12)
C33 C 0.40646(11) 0.68070(17) 0.38049(13)
C34 C 0.42610(13) 0.89828(19) 0.40595(16)
H24 H 0.4694 0.9066 0.3778
H25 H 0.4498 0.8835 0.4680
C35 C 0.37734(15) 1.0140(2) 0.39277(17)
H26 H 0.4097 1.0852 0.4209
H27 H 0.3326 1.0025 0.4175
H28 H 0.3574 1.0311 0.3311
C36 C 0.15598(14) 0.1243(2) 0.67867(17)
H29 H 0.1226 0.2009 0.6713
H30 H 0.1790 0.1094 0.7408
loop_
_geom_bond_atom_site_label_1
_geom_bond_atom_site_label_2
_geom_bond_site_symmetry_1
_geom_bond_site_symmetry_2
F1 C16 1_555 1_555
O1 C15 1_555 1_555
C1 C2 1_555 1_555
F2 C16 1_555 1_555
O2 C15 1_555 1_555
C2 C3 1_555 1_555
C3 H1 1_555 1_555
F3 C32 1_555 1_555
O3 C33 1_555 1_555
C4 C3 1_555 1_555
H2 C4 1_555 1_555
F4 C32 1_555 1_555
O4 C33 1_555 1_555
C5 C4 1_555 1_555
H3 C5 1_555 1_555
C6 C5 1_555 1_555
H4 C6 1_555 1_555
C7 C2 1_555 1_555
C8 C7 1_555 1_555
C9 C8 1_555 1_555
H5 C9 1_555 1_555
C10 C9 1_555 1_555
H6 C10 1_555 1_555
C11 H7 1_555 1_555
C12 C10 1_555 1_555
H8 C12 1_555 1_555
C13 C1 1_555 1_555
C14 H9 1_555 1_555
H10 C14 1_555 1_555
H11 C14 1_555 1_555
C15 C16 1_555 1_555
C16 C17 1_555 1_555
C17 C1 1_555 1_555
H12 C17 1_555 1_555
H13 C17 1_555 1_555
C18 C1 1_555 1_555
C19 H14 1_555 1_555
C20 C19 1_555 1_555
H15 C20 1_555 1_555
C21 C20 1_555 1_555
H16 C21 1_555 1_555
C22 C21 1_555 1_555
H17 C22 1_555 1_555
C23 C22 1_555 1_555
C24 C18 1_555 1_555
C25 C18 1_555 1_555
C26 C23 1_555 1_555
C27 C26 1_555 1_555
H18 C27 1_555 1_555
C28 C27 1_555 1_555
H19 C28 1_555 1_555
C29 C28 1_555 1_555
H20 C29 1_555 1_555
C30 C25 1_555 1_555
H21 C30 1_555 1_555
C31 C18 1_555 1_555
H22 C31 1_555 1_555
H23 C31 1_555 1_555
C32 C31 1_555 1_555
C33 C32 1_555 1_555
C34 O4 1_555 1_555
H24 C34 1_555 1_555
H25 C34 1_555 1_555
C35 C34 1_555 1_555
H26 C35 1_555 1_555
H27 C35 1_555 1_555
H28 C35 1_555 1_555
C36 O2 1_555 1_555
H29 C36 1_555 1_555
H30 C36 1_555 1_555
C6 C7 1_555 1_555
C8 C13 1_555 1_555
C11 C12 1_555 1_555
C11 C13 1_555 1_555
C14 C36 1_555 1_555
C19 C24 1_555 1_555
C23 C24 1_555 1_555
C25 C26 1_555 1_555
C29 C30 1_555 1_555

#END
