
#######################################################################
#
#                 Cambridge Crystallographic Data Centre
#                                CCDC 
#
#######################################################################
#
# If this CIF has been generated from an entry in the Cambridge 
# Structural Database, then it will include bibliographic, chemical, 
# crystal, experimental, refinement or atomic coordinate data resulting 
# from the CCDC's data processing and validation procedures.
#
#######################################################################

data_PIQYIA
_chemical_formula_moiety         'C13 H19 F2 N1 O5'
_chemical_name_systematic        
'2-{[(2,2-dimethylpropanoyl)amino]methylidene}-5-ethoxy-4,4-difluoro-5-oxopentanoic acid'
_symmetry_cell_setting           triclinic
_symmetry_space_group_name_H-M   'P -1'
_symmetry_Int_Tables_number      2
_space_group_name_Hall           '-P 1'
loop_
_symmetry_equiv_pos_site_id
_symmetry_equiv_pos_as_xyz
1 x,y,z
2 -x,-y,-z
_cell_length_a                   5.7929(11)
_cell_length_b                   10.1326(13)
_cell_length_c                   13.119(3)
_cell_angle_alpha                92.577(13)
_cell_angle_beta                 94.129(16)
_cell_angle_gamma                93.294(13)
_cell_volume                     765.847
_exptl_crystal_colour            'light colorless'
_exptl_crystal_description       block
_cell_formula_units_Z            2
loop_
_atom_site_label
_atom_site_type_symbol
_atom_site_fract_x
_atom_site_fract_y
_atom_site_fract_z
F1 F 0.9718(2) 0.17236(11) 0.13781(9)
F2 F 1.3081(2) 0.09913(12) 0.18201(11)
O1 O 0.7446(3) 0.60288(14) 0.01691(10)
O2 O 0.9012(3) 0.53396(15) 0.38525(10)
O3 O 1.1863(3) 0.40114(15) 0.42558(10)
H1 H 1.1560 0.4241 0.4836
O4 O 0.8440(3) 0.15832(15) 0.32477(12)
O5 O 1.1587(3) 0.04779(19) 0.36068(14)
N1 N 0.8080(3) 0.57441(15) 0.18621(11)
H2 H 0.7695 0.5958 0.2466
C1 C 0.5701(3) 0.75663(17) 0.12973(14)
C2 C 0.7094(3) 0.63752(17) 0.10361(14)
C3 C 0.9643(3) 0.47940(17) 0.17524(14)
H3 H 0.9923 0.4522 0.1088
C4 C 1.0813(3) 0.42165(17) 0.25219(14)
C5 C 1.0471(4) 0.45659(18) 0.35827(14)
C6 C 1.2508(3) 0.31964(18) 0.22692(14)
H4 H 1.3746 0.3235 0.2810
H5 H 1.3193 0.3422 0.1642
C7 C 1.1450(4) 0.17980(19) 0.21399(15)
C8 C 1.0508(4) 0.11957(19) 0.30939(16)
C9 C 0.7276(5) 0.1024(3) 0.4098(2)
H6 H 0.5766 0.0627 0.3849
H7 H 0.8181 0.0335 0.4386
C10 C 0.7000(6) 0.2045(3) 0.4891(2)
H8 H 0.6244 0.2769 0.4592
H9 H 0.8496 0.2355 0.5200
H10 H 0.6077 0.1684 0.5402
C11 C 0.4780(4) 0.7553(2) 0.23584(16)
H11 H 0.3886 0.6738 0.2424
H12 H 0.3818 0.8284 0.2448
H13 H 0.6058 0.7630 0.2870
C12 C 0.7366(4) 0.87790(19) 0.1230(2)
H14 H 0.8654 0.8743 0.1729
H15 H 0.6570 0.9567 0.1361
H16 H 0.7920 0.8789 0.0558
C13 C 0.3675(4) 0.7605(2) 0.04865(17)
H17 H 0.4258 0.7623 -0.0180
H18 H 0.2848 0.8384 0.0610
H19 H 0.2648 0.6833 0.0520
loop_
_geom_bond_atom_site_label_1
_geom_bond_atom_site_label_2
_geom_bond_site_symmetry_1
_geom_bond_site_symmetry_2
F1 C7 1_555 1_555
F2 C7 1_555 1_555
O1 C2 1_555 1_555
O2 C5 1_555 1_555
O3 H1 1_555 1_555
O4 C8 1_555 1_555
O5 C8 1_555 1_555
N1 H2 1_555 1_555
C1 C2 1_555 1_555
C2 N1 1_555 1_555
C3 N1 1_555 1_555
H3 C3 1_555 1_555
C4 C3 1_555 1_555
C5 O3 1_555 1_555
C6 C4 1_555 1_555
H4 C6 1_555 1_555
H5 C6 1_555 1_555
C7 C6 1_555 1_555
C8 C7 1_555 1_555
C9 O4 1_555 1_555
H6 C9 1_555 1_555
H7 C9 1_555 1_555
C10 C9 1_555 1_555
H8 C10 1_555 1_555
H9 C10 1_555 1_555
H10 C10 1_555 1_555
C11 C1 1_555 1_555
H11 C11 1_555 1_555
H12 C11 1_555 1_555
H13 C11 1_555 1_555
C12 C1 1_555 1_555
H14 C12 1_555 1_555
H15 C12 1_555 1_555
H16 C12 1_555 1_555
C13 C1 1_555 1_555
H17 C13 1_555 1_555
H18 C13 1_555 1_555
H19 C13 1_555 1_555
C4 C5 1_555 1_555

#END
