
#######################################################################
#
#                 Cambridge Crystallographic Data Centre
#                                CCDC 
#
#######################################################################
#
# If this CIF has been generated from an entry in the Cambridge 
# Structural Database, then it will include bibliographic, chemical, 
# crystal, experimental, refinement or atomic coordinate data resulting 
# from the CCDC's data processing and validation procedures.
#
#######################################################################

data_PIQZIA
_chemical_formula_moiety         'C22 H17 F6 N1 O2 S1'
_chemical_name_systematic        
4-(3,3,4,4,5,5-Hexafluoro-2-(5-methoxy-1,2-dimethyl-1H-indol-3-yl)cyclopent-1-en-1-yl)-5-methylthiophene-2-carbaldehyde
_symmetry_cell_setting           monoclinic
_symmetry_space_group_name_H-M   'P 21/c'
_symmetry_Int_Tables_number      14
_space_group_name_Hall           '-P 2ybc'
loop_
_symmetry_equiv_pos_site_id
_symmetry_equiv_pos_as_xyz
1 x,y,z
2 -x,1/2+y,1/2-z
3 -x,-y,-z
4 x,1/2-y,1/2+z
_cell_length_a                   9.009(2)
_cell_length_b                   13.070(3)
_cell_length_c                   18.020(4)
_cell_angle_alpha                90
_cell_angle_beta                 103.765(6)
_cell_angle_gamma                90
_cell_volume                     2060.87
_exptl_crystal_colour            colorless
_exptl_crystal_description       Prism
_cell_formula_units_Z            4
loop_
_atom_site_label
_atom_site_type_symbol
_atom_site_fract_x
_atom_site_fract_y
_atom_site_fract_z
S1 S 0.36778(7) 1.06325(5) 0.41566(4)
F1 F 0.0635(3) 0.5575(2) 0.33526(15)
F2 F 0.2376(3) 0.56825(19) 0.27144(15)
F3 F -0.1084(2) 0.69272(19) 0.25276(16)
F4 F 0.0052(4) 0.6313(3) 0.1689(2)
F5 F -0.0103(2) 0.85684(15) 0.21651(11)
F6 F 0.1812(2) 0.7965(2) 0.17862(10)
O1 O 0.8438(2) 0.83065(16) 0.41162(11)
O2 O 0.4911(3) 1.22262(17) 0.31479(14)
N1 N 0.4398(2) 0.61233(16) 0.53514(12)
C1 C 0.3305(3) 0.68471(19) 0.42233(14)
C2 C 0.4911(3) 0.71128(19) 0.44138(13)
C3 C 0.5854(3) 0.76754(19) 0.40431(14)
H1 H 0.5449 0.7989 0.3562
C4 C 0.7392(3) 0.7759(2) 0.44000(14)
C5 C 0.8009(3) 0.7280(2) 0.51108(15)
H2 H 0.9068 0.7349 0.5342
C6 C 0.7101(3) 0.6718(2) 0.54730(14)
H3 H 0.7516 0.6392 0.5949
C7 C 0.5547(3) 0.66405(19) 0.51179(14)
C8 C 0.3042(3) 0.62537(19) 0.48184(15)
C9 C 0.1576(3) 0.5858(2) 0.49609(17)
H4 H 0.1524 0.5115 0.4886
H5 H 0.0712 0.6182 0.4604
H6 H 0.1531 0.6019 0.5486
C10 C 0.4625(3) 0.5550(2) 0.60611(15)
H7 H 0.4718 0.6027 0.6490
H8 H 0.5560 0.5141 0.6133
H9 H 0.3750 0.5096 0.6039
C11 C 0.7855(3) 0.8929(2) 0.34586(17)
H10 H 0.7383 0.8491 0.3025
H11 H 0.8694 0.9318 0.3335
H12 H 0.7089 0.9403 0.3566
C12 C 0.2222(3) 0.71105(19) 0.35086(14)
C13 C 0.1304(3) 0.6287(2) 0.30165(17)
C14 C 0.0418(4) 0.6810(2) 0.23135(18)
C15 C 0.1032(3) 0.7884(2) 0.23364(15)
C16 C 0.2038(3) 0.80115(19) 0.31271(14)
C17 C 0.2694(3) 0.90173(19) 0.33743(14)
C18 C 0.3270(3) 0.9683(2) 0.28840(15)
H13 H 0.3252 0.9520 0.2368
C19 C 0.3851(3) 1.0579(2) 0.32235(15)
C20 C 0.4458(4) 1.1414(2) 0.28569(18)
H14 H 0.4506 1.1316 0.2341
C21 C 0.2824(3) 0.94500(19) 0.40899(14)
C22 C 0.2276(3) 0.9039(2) 0.47555(15)
H15 H 0.1342 0.8640 0.4568
H16 H 0.2062 0.9610 0.5067
H17 H 0.3067 0.8600 0.5066
F7? F -0.0198(7) 0.6295(6) 0.3264(3)
F8? F 0.1719(9) 0.5387(4) 0.3112(4)
F9? F -0.0568(10) 0.6486(9) 0.1750(6)
F10? F 0.1786(8) 0.6401(5) 0.1904(4)
loop_
_geom_bond_atom_site_label_1
_geom_bond_atom_site_label_2
_geom_bond_site_symmetry_1
_geom_bond_site_symmetry_2
S1 C19 1_555 1_555
F1 C13 1_555 1_555
F2 C13 1_555 1_555
F3 C14 1_555 1_555
F4 C14 1_555 1_555
F5 C15 1_555 1_555
F6 C15 1_555 1_555
O1 C4 1_555 1_555
O2 C20 1_555 1_555
N1 C7 1_555 1_555
C1 C2 1_555 1_555
C2 C3 1_555 1_555
C3 H1 1_555 1_555
C4 C3 1_555 1_555
C5 C4 1_555 1_555
H2 C5 1_555 1_555
C6 C5 1_555 1_555
H3 C6 1_555 1_555
C7 C2 1_555 1_555
C8 N1 1_555 1_555
C9 C8 1_555 1_555
H4 C9 1_555 1_555
H5 C9 1_555 1_555
H6 C9 1_555 1_555
C10 N1 1_555 1_555
H7 C10 1_555 1_555
H8 C10 1_555 1_555
H9 C10 1_555 1_555
C11 O1 1_555 1_555
H10 C11 1_555 1_555
H11 C11 1_555 1_555
H12 C11 1_555 1_555
C12 C1 1_555 1_555
C13 C12 1_555 1_555
C14 C13 1_555 1_555
C15 C14 1_555 1_555
C16 C12 1_555 1_555
C17 C16 1_555 1_555
C18 C17 1_555 1_555
H13 C18 1_555 1_555
C19 C18 1_555 1_555
C20 C19 1_555 1_555
H14 C20 1_555 1_555
C21 S1 1_555 1_555
C22 C21 1_555 1_555
H15 C22 1_555 1_555
H16 C22 1_555 1_555
H17 C22 1_555 1_555
C1 C8 1_555 1_555
C6 C7 1_555 1_555
C15 C16 1_555 1_555
C17 C21 1_555 1_555

#END
