
#######################################################################
#
#                 Cambridge Crystallographic Data Centre
#                                CCDC 
#
#######################################################################
#
# If this CIF has been generated from an entry in the Cambridge 
# Structural Database, then it will include bibliographic, chemical, 
# crystal, experimental, refinement or atomic coordinate data resulting 
# from the CCDC's data processing and validation procedures.
#
#######################################################################

data_PIRCEA
_chemical_formula_moiety         'C16 H12 F7 N1 O1'
_chemical_name_systematic        
3-(2,3,3,4,4,5,5-Heptafluorocyclopent-1-en-1-yl)-5-methoxy-1,2-dimethyl-1H-indole
_symmetry_cell_setting           triclinic
_symmetry_space_group_name_H-M   'P -1'
_symmetry_Int_Tables_number      2
_space_group_name_Hall           '-P 1'
loop_
_symmetry_equiv_pos_site_id
_symmetry_equiv_pos_as_xyz
1 x,y,z
2 -x,-y,-z
_cell_length_a                   7.0821(17)
_cell_length_b                   8.8161(17)
_cell_length_c                   11.938(2)
_cell_angle_alpha                96.041(12)
_cell_angle_beta                 95.13(3)
_cell_angle_gamma                95.69(4)
_cell_volume                     733.811
_exptl_crystal_colour            colorless
_exptl_crystal_description       Prism
_cell_formula_units_Z            2
loop_
_atom_site_label
_atom_site_type_symbol
_atom_site_fract_x
_atom_site_fract_y
_atom_site_fract_z
F1 F 0.4041(2) 0.47511(18) 0.11461(11)
F2 F 0.4087(2) 0.76631(18) 0.01415(12)
F3 F 0.2633(2) 0.90204(16) 0.27371(11)
F4 F 0.1709(2) 0.59773(18) -0.05241(11)
F5 F 0.1496(3) 0.93393(17) 0.07103(12)
F6 F -0.0658(2) 0.7380(2) 0.05565(13)
F7 F -0.0199(2) 0.78341(19) 0.27137(13)
N1 N 0.2390(3) 0.3694(2) 0.45173(16)
O1 O 0.3049(3) 0.9547(2) 0.67032(14)
C1 C 0.2573(3) 0.6282(3) 0.45495(18)
C2 C 0.2580(3) 0.5061(3) 0.52277(18)
C3 C 0.1892(4) 0.2725(3) 0.2475(2)
H1 H 0.3098 0.2336 0.2311
H2 H 0.1309 0.3108 0.1799
H3 H 0.1025 0.1895 0.2694
C4 C 0.2752(3) 0.5317(3) 0.64035(19)
H4 H 0.2761 0.4483 0.6847
C5 C 0.2915(3) 0.8031(3) 0.62552(19)
C6 C 0.2764(3) 0.7788(3) 0.50813(18)
H5 H 0.2790 0.8631 0.4646
C7 C 0.2260(3) 0.3998(3) 0.34210(18)
C8 C 0.1446(3) 0.7779(3) 0.22447(18)
C9 C 0.2525(4) 0.6833(3) 0.04409(18)
C10 C 0.2393(3) 0.5574(3) 0.33876(18)
C11 C 0.3256(4) 0.9878(3) 0.79059(19)
H6 H 0.2130 0.9407 0.8213
H7 H 0.3384 1.0991 0.8112
H8 H 0.4397 0.9461 0.8219
C12 C 0.2910(3) 0.6810(3) 0.69122(18)
H9 H 0.3016 0.7009 0.7714
C13 C 0.2324(3) 0.6308(3) 0.23572(18)
C14 C 0.2986(3) 0.5900(3) 0.13702(19)
C15 C 0.1156(4) 0.7903(3) 0.09534(19)
C16 C 0.2317(4) 0.2178(3) 0.4901(2)
H10 H 0.0984 0.1767 0.4920
H11 H 0.2990 0.2253 0.5662
H12 H 0.2928 0.1492 0.4380
loop_
_geom_bond_atom_site_label_1
_geom_bond_atom_site_label_2
_geom_bond_site_symmetry_1
_geom_bond_site_symmetry_2
F1 C14 1_555 1_555
F2 C9 1_555 1_555
F3 C8 1_555 1_555
F4 C9 1_555 1_555
F5 C15 1_555 1_555
F6 C15 1_555 1_555
F7 C8 1_555 1_555
N1 C2 1_555 1_555
O1 C5 1_555 1_555
C1 C2 1_555 1_555
C2 C4 1_555 1_555
C3 H1 1_555 1_555
H2 C3 1_555 1_555
H3 C3 1_555 1_555
C4 H4 1_555 1_555
C5 C6 1_555 1_555
C6 C1 1_555 1_555
H5 C6 1_555 1_555
C7 N1 1_555 1_555
C8 C13 1_555 1_555
C9 C14 1_555 1_555
C10 C1 1_555 1_555
C11 O1 1_555 1_555
H6 C11 1_555 1_555
H7 C11 1_555 1_555
H8 C11 1_555 1_555
C12 C4 1_555 1_555
H9 C12 1_555 1_555
C13 C10 1_555 1_555
C14 C13 1_555 1_555
C15 C8 1_555 1_555
C16 N1 1_555 1_555
H10 C16 1_555 1_555
H11 C16 1_555 1_555
H12 C16 1_555 1_555
C3 C7 1_555 1_555
C5 C12 1_555 1_555
C7 C10 1_555 1_555
C9 C15 1_555 1_555

#END
