
#######################################################################
#
#                 Cambridge Crystallographic Data Centre
#                                CCDC 
#
#######################################################################
#
# If this CIF has been generated from an entry in the Cambridge 
# Structural Database, then it will include bibliographic, chemical, 
# crystal, experimental, refinement or atomic coordinate data resulting 
# from the CCDC's data processing and validation procedures.
#
#######################################################################

data_PIRGOM
_chemical_formula_moiety         'C6 H2 I2 S4'
_chemical_name_systematic        2,6-Di-iodo-tetrathiafulvalene
_symmetry_cell_setting           orthorhombic
_symmetry_space_group_name_H-M   'P n a 21'
_symmetry_Int_Tables_number      33
_space_group_name_Hall           'P 2c -2n'
loop_
_symmetry_equiv_pos_site_id
_symmetry_equiv_pos_as_xyz
1 x,y,z
2 1/2-x,1/2+y,1/2+z
3 1/2+x,1/2-y,z
4 -x,-y,1/2+z
_cell_length_a                   19.100(4)
_cell_length_b                   5.375(2)
_cell_length_c                   10.899(2)
_cell_angle_alpha                90
_cell_angle_beta                 90
_cell_angle_gamma                90
_cell_volume                     1118.92
_exptl_crystal_colour            orange
_chemical_melting_point          '100 deg.C (dec)'
_cell_formula_units_Z            4
loop_
_atom_site_label
_atom_site_type_symbol
_atom_site_fract_x
_atom_site_fract_y
_atom_site_fract_z
I1 I 0.5658(1) -0.1938(3) 0.1348(2)
I2 I 0.1937(1) 1.2121(3) 0.2189
S1 S 0.3068(3) 0.8019(14) 0.1222(8)
S2 S 0.3504(3) 0.6222(11) 0.3693(8)
S3 S 0.4096(4) 0.4040(13) -0.0057(8)
S4 S 0.4546(4) 0.2191(12) 0.2392(9)
C1 C 0.2679(11) 0.9368(33) 0.2533(23)
C2 C 0.2856(12) 0.8576(45) 0.3592(23)
C3 C 0.3610(11) 0.5921(38) 0.2096(26)
C4 C 0.4012(13) 0.4237(41) 0.1587(19)
C5 C 0.4722(14) 0.1696(43) 0.0024(27)
C6 C 0.4936(12) 0.0847(41) 0.1018(26)
H1 H 0.2637 0.9224 0.4315
H2 H 0.4907 0.1040 -0.0729
loop_
_geom_bond_atom_site_label_1
_geom_bond_atom_site_label_2
_geom_bond_site_symmetry_1
_geom_bond_site_symmetry_2
I1 C6 1_555 1_555
I2 C1 1_555 1_555
S1 C1 1_555 1_555
S2 C2 1_555 1_555
S3 C4 1_555 1_555
S4 C4 1_555 1_555
C1 C2 1_555 1_555
C2 H1 1_555 1_555
C3 S1 1_555 1_555
C4 C3 1_555 1_555
C5 S3 1_555 1_555
C6 S4 1_555 1_555
H2 C5 1_555 1_555
S2 C3 1_555 1_555
C5 C6 1_555 1_555

#END
