
#######################################################################
#
#                 Cambridge Crystallographic Data Centre
#                                CCDC 
#
#######################################################################
#
# If this CIF has been generated from an entry in the Cambridge 
# Structural Database, then it will include bibliographic, chemical, 
# crystal, experimental, refinement or atomic coordinate data resulting 
# from the CCDC's data processing and validation procedures.
#
#######################################################################

data_PIRGUV
_chemical_formula_moiety         'C18 H28 N2 O3'
_chemical_name_systematic        
't-butyl 4-(3-hydroxypropyl)-4-(pyridin-4-yl)piperidine-1-carboxylate'
_symmetry_cell_setting           monoclinic
_symmetry_space_group_name_H-M   'P 21/c'
_symmetry_Int_Tables_number      14
_space_group_name_Hall           '-P 2ybc'
loop_
_symmetry_equiv_pos_site_id
_symmetry_equiv_pos_as_xyz
1 x,y,z
2 -x,1/2+y,1/2-z
3 -x,-y,-z
4 x,1/2-y,1/2+z
_cell_length_a                   17.7524(8)
_cell_length_b                   8.0659(3)
_cell_length_c                   12.9622(5)
_cell_angle_alpha                90
_cell_angle_beta                 104.9837(16)
_cell_angle_gamma                90
_cell_volume                     1792.94
_exptl_crystal_colour            colorless
_exptl_crystal_description       plate
_chemical_melting_point          '420 K'
_cell_formula_units_Z            4
_exptl_crystal_recrystallization_method 
'Re-crystallisation from solvent: dichloromethane/ethyl acetate/hexane'
loop_
_atom_site_label
_atom_site_type_symbol
_atom_site_fract_x
_atom_site_fract_y
_atom_site_fract_z
O1 O 0.64215(6) 1.27492(13) 0.07039(9)
H1 H 0.5978(12) 1.281(3) 0.0909(16)
C1 C 0.63970(9) 1.12490(18) 0.01409(11)
H2 H 0.685087 1.118697 -0.014322
H3 H 0.593772 1.124696 -0.045859
C2 C 0.63782(8) 0.97226(16) 0.08218(10)
H4 H 0.636374 0.873759 0.038780
H5 H 0.590604 0.974113 0.106653
C3 C 0.70824(7) 0.96286(15) 0.17855(10)
H6 H 0.709992 1.063911 0.219680
H7 H 0.754903 0.960303 0.152820
C4 C 0.71115(7) 0.81352(14) 0.25474(9)
C5 C 0.78531(7) 0.83011(14) 0.34750(10)
H8 H 0.830326 0.837447 0.318357
H9 H 0.782416 0.932289 0.385751
C6 C 0.79667(7) 0.68622(14) 0.42545(10)
H10 H 0.845698 0.699596 0.479183
H11 H 0.755006 0.686142 0.461315
N1 N 0.50140(7) 0.82769(16) 0.37030(10)
C7 C 0.73236(8) 0.50081(15) 0.27474(10)
H12 H 0.684763 0.481027 0.296400
H13 H 0.743030 0.402948 0.237382
C8 C 0.72064(8) 0.64843(15) 0.19955(9)
H14 H 0.674618 0.629649 0.141346
H15 H 0.765040 0.656945 0.169214
C9 C 0.83070(8) 0.38927(15) 0.42193(10)
O2 O 0.87697(6) 0.42726(12) 0.51920(8)
O3 O 0.82090(8) 0.25086(12) 0.38467(9)
C10 C 0.92144(9) 0.29710(18) 0.58846(12)
C11 C 0.96228(17) 0.3949(3) 0.68630(18)
H16 H 0.994198 0.478974 0.666548
H17 H 0.994429 0.321827 0.737797
H18 H 0.924172 0.446024 0.716745
C12 C 0.86722(12) 0.1715(3) 0.61568(16)
H19 H 0.827271 0.227415 0.640020
H20 H 0.895989 0.099687 0.671030
H21 H 0.843723 0.107071 0.553405
C13 C 0.97964(13) 0.2223(3) 0.5362(2)
H22 H 0.952747 0.159150 0.474939
H23 H 1.014283 0.150895 0.586019
H24 H 1.009130 0.308974 0.514163
C14 C 0.63776(7) 0.81629(13) 0.29563(9)
C15 C 0.63108(7) 0.92088(15) 0.37856(9)
H25 H 0.672180 0.990446 0.410920
C16 C 0.56354(8) 0.92125(17) 0.41267(10)
H26 H 0.561297 0.991276 0.468799
N2 N 0.79689(6) 0.52768(12) 0.37001(8)
C17 C 0.50697(9) 0.7311(2) 0.28956(13)
H27 H 0.464106 0.666224 0.257006
C18 C 0.57243(8) 0.72096(18) 0.25090(11)
H28 H 0.572696 0.649786 0.194548
loop_
_geom_bond_atom_site_label_1
_geom_bond_atom_site_label_2
_geom_bond_site_symmetry_1
_geom_bond_site_symmetry_2
O1 H1 1_555 1_555
C1 O1 1_555 1_555
H2 C1 1_555 1_555
H3 C1 1_555 1_555
C2 C1 1_555 1_555
H4 C2 1_555 1_555
H5 C2 1_555 1_555
C3 C2 1_555 1_555
H6 C3 1_555 1_555
H7 C3 1_555 1_555
C4 C3 1_555 1_555
C5 C4 1_555 1_555
H8 C5 1_555 1_555
H9 C5 1_555 1_555
C6 C5 1_555 1_555
H10 C6 1_555 1_555
H11 C6 1_555 1_555
N1 C16 1_555 1_555
C7 H12 1_555 1_555
H13 C7 1_555 1_555
C8 C4 1_555 1_555
H14 C8 1_555 1_555
H15 C8 1_555 1_555
C9 O2 1_555 1_555
O2 C10 1_555 1_555
O3 C9 1_555 1_555
C10 C11 1_555 1_555
C11 H16 1_555 1_555
H17 C11 1_555 1_555
H18 C11 1_555 1_555
C12 C10 1_555 1_555
H19 C12 1_555 1_555
H20 C12 1_555 1_555
H21 C12 1_555 1_555
C13 C10 1_555 1_555
H22 C13 1_555 1_555
H23 C13 1_555 1_555
H24 C13 1_555 1_555
C14 C4 1_555 1_555
C15 C14 1_555 1_555
H25 C15 1_555 1_555
C16 C15 1_555 1_555
H26 C16 1_555 1_555
N2 C6 1_555 1_555
C17 N1 1_555 1_555
H27 C17 1_555 1_555
C18 C14 1_555 1_555
H28 C18 1_555 1_555
C7 C8 1_555 1_555
C7 N2 1_555 1_555
C9 N2 1_555 1_555
C17 C18 1_555 1_555

#END
