
#######################################################################
#
#                 Cambridge Crystallographic Data Centre
#                                CCDC 
#
#######################################################################
#
# If this CIF has been generated from an entry in the Cambridge 
# Structural Database, then it will include bibliographic, chemical, 
# crystal, experimental, refinement or atomic coordinate data resulting 
# from the CCDC's data processing and validation procedures.
#
#######################################################################

data_PIRHUV
_chemical_formula_moiety         'C12 H8 Br1 F3 O2'
_chemical_name_systematic        
'3-(4-Bromo-3-(trifluoromethyl)phenyl)prop-2-yn-1-yl acetate'
_symmetry_cell_setting           triclinic
_symmetry_space_group_name_H-M   'P -1'
_symmetry_Int_Tables_number      2
_space_group_name_Hall           '-P 1'
loop_
_symmetry_equiv_pos_site_id
_symmetry_equiv_pos_as_xyz
1 x,y,z
2 -x,-y,-z
_cell_length_a                   4.8939(2)
_cell_length_b                   10.3858(4)
_cell_length_c                   12.7466(6)
_cell_angle_alpha                111.408(2)
_cell_angle_beta                 100.495(2)
_cell_angle_gamma                91.023(2)
_cell_volume                     590.559
_exptl_crystal_colour            colorless
_exptl_crystal_description       prism
_cell_formula_units_Z            2
loop_
_atom_site_label
_atom_site_type_symbol
_atom_site_fract_x
_atom_site_fract_y
_atom_site_fract_z
Br1 Br -0.39141(3) 0.685613(15) 0.710956(13)
C1 C 0.4107(3) 0.23308(15) 0.67203(12)
C2 C 0.5692(3) 0.14563(15) 0.66019(13)
C3 C 0.7647(3) 0.03874(15) 0.64587(13)
H1 H 0.6621 -0.0543 0.6185
H2 H 0.8763 0.0402 0.5888
C4 C 1.1543(3) -0.01436(14) 0.75675(13)
C5 C 1.3382(4) 0.02918(17) 0.87304(14)
H3 H 1.4596 -0.0441 0.8756
H4 H 1.2230 0.0453 0.9312
H5 H 1.4530 0.1150 0.8888
C6 C 0.2193(3) 0.33872(14) 0.68401(12)
C7 C 0.0487(3) 0.34665(15) 0.58675(12)
H6 H 0.0565 0.2813 0.5125
C8 C -0.1328(3) 0.44991(15) 0.59825(12)
H7 H -0.2508 0.4542 0.5318
C9 C -0.1428(3) 0.54644(14) 0.70582(12)
C10 C 0.0258(3) 0.53957(14) 0.80437(12)
C11 C 0.2046(3) 0.43470(14) 0.79253(12)
H8 H 0.3179 0.4284 0.8591
C12 C 0.0235(3) 0.64379(15) 0.92246(13)
F1 F -0.22902(19) 0.64465(10) 0.94992(8)
F2 F 0.0958(2) 0.77377(9) 0.93265(8)
F3 F 0.2022(2) 0.61957(10) 1.00458(8)
O1 O 0.9449(2) 0.06870(11) 0.75690(9)
O2 O 1.1842(2) -0.10903(11) 0.67222(9)
loop_
_geom_bond_atom_site_label_1
_geom_bond_atom_site_label_2
_geom_bond_site_symmetry_1
_geom_bond_site_symmetry_2
Br1 C9 1_555 1_555
C1 C2 1_555 1_555
C2 C3 1_555 1_555
C3 H1 1_555 1_555
H2 C3 1_555 1_555
C4 C5 1_555 1_555
C5 H3 1_555 1_555
H4 C5 1_555 1_555
H5 C5 1_555 1_555
C6 C1 1_555 1_555
C7 C6 1_555 1_555
H6 C7 1_555 1_555
C8 C7 1_555 1_555
H7 C8 1_555 1_555
C9 C8 1_555 1_555
C10 C9 1_555 1_555
C11 C6 1_555 1_555
H8 C11 1_555 1_555
C12 C10 1_555 1_555
F1 C12 1_555 1_555
F2 C12 1_555 1_555
F3 C12 1_555 1_555
O1 C3 1_555 1_555
O2 C4 1_555 1_555
C4 O1 1_555 1_555
C10 C11 1_555 1_555

#END
