
#######################################################################
#
#                 Cambridge Crystallographic Data Centre
#                                CCDC 
#
#######################################################################
#
# If this CIF has been generated from an entry in the Cambridge 
# Structural Database, then it will include bibliographic, chemical, 
# crystal, experimental, refinement or atomic coordinate data resulting 
# from the CCDC's data processing and validation procedures.
#
#######################################################################

data_PIRHEG
_chemical_formula_moiety         'C19 H25 N1 O3'
_chemical_name_systematic        
'methyl 2-((1r,3s,5R,7S)-1-(2-hydroxyethyl)adamantan-2-yl)isonicotinate'
_symmetry_cell_setting           monoclinic
_symmetry_space_group_name_H-M   'P 21/n'
_symmetry_Int_Tables_number      14
_space_group_name_Hall           '-P 2yn'
loop_
_symmetry_equiv_pos_site_id
_symmetry_equiv_pos_as_xyz
1 x,y,z
2 1/2-x,1/2+y,1/2-z
3 -x,-y,-z
4 1/2+x,1/2-y,1/2+z
_cell_length_a                   6.5214(4)
_cell_length_b                   22.2313(14)
_cell_length_c                   11.2886(6)
_cell_angle_alpha                90
_cell_angle_beta                 91.284(2)
_cell_angle_gamma                90
_cell_volume                     1636.2
_exptl_crystal_colour            colorless
_exptl_crystal_description       rod
_chemical_melting_point          '352 K'
_cell_formula_units_Z            4
_exptl_crystal_recrystallization_method 
'Re-crystallisation from solvent: ethyl acetate/Hexane'
loop_
_atom_site_label
_atom_site_type_symbol
_atom_site_fract_x
_atom_site_fract_y
_atom_site_fract_z
C1 C 0.8932(2) 0.16461(7) 0.25978(12)
H1 H 0.745063 0.155135 0.244425
C2 C 0.9335(2) 0.15335(7) 0.39439(12)
C3 C 0.7710(2) 0.19022(8) 0.46041(13)
H2 H 0.632373 0.175852 0.436668
H3 H 0.789114 0.183787 0.546786
C4 C 0.7877(2) 0.25735(7) 0.43340(13)
H4 H 0.680638 0.279761 0.477538
C5 C 1.0000(2) 0.28061(8) 0.47055(14)
H5 H 1.021113 0.275772 0.557152
H6 H 1.011150 0.323914 0.451281
C6 C 1.1638(2) 0.24511(8) 0.40484(13)
H7 H 1.303148 0.259838 0.429650
C7 C 1.1452(2) 0.17842(8) 0.43397(13)
H8 H 1.164694 0.172560 0.520424
H9 H 1.254407 0.155877 0.393640
C8 C 1.1323(2) 0.25404(8) 0.27093(13)
H10 H 1.148026 0.297138 0.250975
H11 H 1.237229 0.231036 0.227945
C9 C 0.9182(2) 0.23253(7) 0.23280(12)
H12 H 0.897496 0.239477 0.145831
C10 C 0.7556(2) 0.26757(8) 0.30047(14)
H13 H 0.766654 0.311007 0.282395
H14 H 0.616926 0.253797 0.275456
C11 C 1.0118(2) 0.12732(6) 0.17211(12)
N1 N 1.2058(2) 0.11129(6) 0.19616(11)
C12 C 1.3077(3) 0.08101(8) 0.11299(16)
H15 H 1.444620 0.068903 0.130966
C13 C 1.2254(3) 0.06643(8) 0.00283(15)
H16 H 1.304325 0.045691 -0.053911
C14 C 1.0246(2) 0.08291(7) -0.02233(13)
C15 C 0.9165(2) 0.11311(7) 0.06354(12)
H17 H 0.777605 0.124161 0.048658
C16 C 0.9321(3) 0.06895(8) -0.14149(14)
O1 O 0.7326(2) 0.07904(6) -0.14833(10)
O2 O 1.0295(3) 0.05121(9) -0.22344(13)
C17 C 0.6324(4) 0.06630(11) -0.26183(17)
H18 H 0.688550 0.092677 -0.322642
H19 H 0.484676 0.073398 -0.256062
H20 H 0.656473 0.024216 -0.283350
O3 O 0.7050(4) 0.03822(11) 0.2825(2)
H21 H 0.794877 0.013475 0.261984
C18 C 0.930(2) 0.0889(5) 0.4273(10)
H22 H 0.959211 0.086167 0.513484
H23 H 1.044093 0.068886 0.386806
C19 C 0.7341(13) 0.0522(5) 0.4007(10)
H24 H 0.740481 0.014432 0.446945
H25 H 0.614060 0.075376 0.427570
O4? O 0.7094(7) -0.00348(17) 0.4274(4)
H26? H 0.632027 -0.008979 0.484839
C20? C 0.912(3) 0.0841(7) 0.4291(16)
H27? H 1.020935 0.061037 0.389931
H28? H 0.933990 0.079950 0.515788
C21? C 0.705(3) 0.0563(9) 0.3952(18)
H29? H 0.593406 0.077292 0.436779
H30? H 0.678721 0.060026 0.308815
loop_
_geom_bond_atom_site_label_1
_geom_bond_atom_site_label_2
_geom_bond_site_symmetry_1
_geom_bond_site_symmetry_2
C1 H1 1_555 1_555
C2 C1 1_555 1_555
C3 C2 1_555 1_555
H2 C3 1_555 1_555
H3 C3 1_555 1_555
C4 C3 1_555 1_555
H4 C4 1_555 1_555
C5 C4 1_555 1_555
H5 C5 1_555 1_555
H6 C5 1_555 1_555
C6 C5 1_555 1_555
H7 C6 1_555 1_555
C7 C2 1_555 1_555
H8 C7 1_555 1_555
H9 C7 1_555 1_555
C8 C6 1_555 1_555
H10 C8 1_555 1_555
H11 C8 1_555 1_555
C9 C1 1_555 1_555
H12 C9 1_555 1_555
C10 C4 1_555 1_555
H13 C10 1_555 1_555
H14 C10 1_555 1_555
C11 C1 1_555 1_555
N1 C11 1_555 1_555
C12 N1 1_555 1_555
H15 C12 1_555 1_555
C13 C12 1_555 1_555
H16 C13 1_555 1_555
C14 C13 1_555 1_555
C15 C11 1_555 1_555
H17 C15 1_555 1_555
C16 C14 1_555 1_555
O1 C16 1_555 1_555
O2 C16 1_555 1_555
C17 O1 1_555 1_555
H18 C17 1_555 1_555
H19 C17 1_555 1_555
H20 C17 1_555 1_555
O3 H21 1_555 1_555
C18 C2 1_555 1_555
H22 C18 1_555 1_555
H23 C18 1_555 1_555
C19 O3 1_555 1_555
H24 C19 1_555 1_555
H25 C19 1_555 1_555
C6 C7 1_555 1_555
C8 C9 1_555 1_555
C9 C10 1_555 1_555
C14 C15 1_555 1_555
C18 C19 1_555 1_555

#END
