
#######################################################################
#
#                 Cambridge Crystallographic Data Centre
#                                CCDC 
#
#######################################################################
#
# If this CIF has been generated from an entry in the Cambridge 
# Structural Database, then it will include bibliographic, chemical, 
# crystal, experimental, refinement or atomic coordinate data resulting 
# from the CCDC's data processing and validation procedures.
#
#######################################################################

data_PIRJAD
_chemical_formula_moiety         'C25 H17 F3 O2'
_chemical_name_systematic        
1,4-bis((4-Methoxyphenyl)ethynyl)-2-(trifluoromethyl)benzene
_symmetry_cell_setting           monoclinic
_symmetry_space_group_name_H-M   'P 21/c'
_symmetry_Int_Tables_number      14
_space_group_name_Hall           '-P 2ybc'
loop_
_symmetry_equiv_pos_site_id
_symmetry_equiv_pos_as_xyz
1 x,y,z
2 -x,1/2+y,1/2-z
3 -x,-y,-z
4 x,1/2-y,1/2+z
_cell_length_a                   11.3045(3)
_cell_length_b                   7.0648(2)
_cell_length_c                   25.4239(7)
_cell_angle_alpha                90
_cell_angle_beta                 102.843(1)
_cell_angle_gamma                90
_cell_volume                     1979.66
_exptl_crystal_colour            colorless
_exptl_crystal_description       prism
_cell_formula_units_Z            4
loop_
_atom_site_label
_atom_site_type_symbol
_atom_site_fract_x
_atom_site_fract_y
_atom_site_fract_z
C1 C 0.59073(13) 0.7537(2) 0.68485(6)
C2 C 0.55371(13) 0.7511(2) 0.63714(6)
C3 C 0.31695(13) 0.7662(2) 0.41512(6)
C4 C 0.26344(13) 0.7648(2) 0.36894(5)
C5 C 0.62829(12) 0.75537(19) 0.74265(5)
C6 C 0.55131(12) 0.6809(2) 0.77376(6)
H1 H 0.4752 0.6286 0.7564
C7 C 0.58493(13) 0.6829(2) 0.82922(6)
H2 H 0.5318 0.6333 0.8499
C8 C 0.69678(13) 0.7576(2) 0.85494(5)
C9 C 0.77433(12) 0.8317(2) 0.82475(5)
H3 H 0.8507 0.8828 0.8422
C10 C 0.73933(12) 0.83058(19) 0.76897(5)
H4 H 0.7921 0.8821 0.7483
C11 C 0.84251(18) 0.8030(3) 0.93708(7)
H5 H 0.9009 0.7201 0.9251
H6 H 0.8512 0.7895 0.9761
H7 H 0.8580 0.9347 0.9286
C12 C 0.49694(14) 0.7553(2) 0.58068(6)
C13 C 0.56227(13) 0.7430(2) 0.54031(6)
H8 H 0.6481 0.7319 0.5499
C14 C 0.50343(14) 0.7469(2) 0.48643(6)
H9 H 0.5494 0.7374 0.4595
C15 C 0.37713(13) 0.7647(2) 0.47110(5)
C16 C 0.31173(13) 0.7791(2) 0.51203(6)
C17 C 0.37041(14) 0.7735(2) 0.56575(6)
H10 H 0.3247 0.7820 0.5928
C18 C 0.17632(14) 0.7989(3) 0.49730(6)
C19 C 0.20081(12) 0.75961(19) 0.31335(5)
C20 C 0.25650(12) 0.67877(19) 0.27476(5)
H11 H 0.3357 0.6269 0.2858
C21 C 0.19850(12) 0.6733(2) 0.22121(5)
H12 H 0.2376 0.6178 0.1956
C22 C 0.08220(12) 0.74923(19) 0.20445(5)
C23 C 0.02425(12) 0.82907(19) 0.24213(5)
H13 H -0.0550 0.8805 0.2309
C24 C 0.08336(12) 0.83281(19) 0.29613(5)
H14 H 0.0435 0.8859 0.3219
C25 C -0.08646(15) 0.8090(3) 0.13090(6)
H15 H -0.1433 0.7392 0.1477
H16 H -0.1097 0.7935 0.0916
H17 H -0.0886 0.9436 0.1400
F1 F 0.12235(8) 0.64926(17) 0.46902(4)
F2 F 0.12762(9) 0.81377(18) 0.54050(4)
F3 F 0.13981(9) 0.95191(16) 0.46665(4)
O1 O 0.72248(11) 0.75169(18) 0.91011(4)
O2 O 0.03321(9) 0.73738(15) 0.15040(4)
loop_
_geom_bond_atom_site_label_1
_geom_bond_atom_site_label_2
_geom_bond_site_symmetry_1
_geom_bond_site_symmetry_2
C1 C2 1_555 1_555
C2 C12 1_555 1_555
C3 C4 1_555 1_555
C4 C19 1_555 1_555
C5 C1 1_555 1_555
C6 C5 1_555 1_555
H1 C6 1_555 1_555
C7 C6 1_555 1_555
H2 C7 1_555 1_555
C8 C7 1_555 1_555
C9 C8 1_555 1_555
H3 C9 1_555 1_555
C10 C5 1_555 1_555
H4 C10 1_555 1_555
C11 H5 1_555 1_555
H6 C11 1_555 1_555
H7 C11 1_555 1_555
C12 C13 1_555 1_555
C13 H8 1_555 1_555
C14 C13 1_555 1_555
H9 C14 1_555 1_555
C15 C3 1_555 1_555
C16 C15 1_555 1_555
C17 C12 1_555 1_555
H10 C17 1_555 1_555
C18 C16 1_555 1_555
C19 C20 1_555 1_555
C20 H11 1_555 1_555
C21 C20 1_555 1_555
H12 C21 1_555 1_555
C22 C21 1_555 1_555
C23 C22 1_555 1_555
H13 C23 1_555 1_555
C24 C19 1_555 1_555
H14 C24 1_555 1_555
C25 H15 1_555 1_555
H16 C25 1_555 1_555
H17 C25 1_555 1_555
F1 C18 1_555 1_555
F2 C18 1_555 1_555
F3 C18 1_555 1_555
O1 C8 1_555 1_555
O2 C22 1_555 1_555
C9 C10 1_555 1_555
C11 O1 1_555 1_555
C14 C15 1_555 1_555
C16 C17 1_555 1_555
C23 C24 1_555 1_555
C25 O2 1_555 1_555

#END
