
#######################################################################
#
#                 Cambridge Crystallographic Data Centre
#                                CCDC 
#
#######################################################################
#
# If this CIF has been generated from an entry in the Cambridge 
# Structural Database, then it will include bibliographic, chemical, 
# crystal, experimental, refinement or atomic coordinate data resulting 
# from the CCDC's data processing and validation procedures.
#
#######################################################################

data_PIRKEJ
_chemical_formula_moiety         'C14 H18 O4'
_chemical_name_systematic        
'methyl 1-methylidene-9-oxooctahydro-4a,7-epoxybenzo[7]annulene-9a(5H)-carboxylate'
_symmetry_cell_setting           orthorhombic
_symmetry_space_group_name_H-M   'P n a 21'
_symmetry_Int_Tables_number      33
_space_group_name_Hall           'P 2c -2n'
loop_
_symmetry_equiv_pos_site_id
_symmetry_equiv_pos_as_xyz
1 x,y,z
2 -x,-y,1/2+z
3 1/2+x,1/2-y,z
4 1/2-x,1/2+y,1/2+z
_cell_length_a                   13.4252(10)
_cell_length_b                   12.2284(9)
_cell_length_c                   7.5676(6)
_cell_angle_alpha                90
_cell_angle_beta                 90
_cell_angle_gamma                90
_cell_volume                     1242.36
_exptl_crystal_colour            colorless
_exptl_crystal_description       block
_cell_formula_units_Z            4
loop_
_atom_site_label
_atom_site_type_symbol
_atom_site_fract_x
_atom_site_fract_y
_atom_site_fract_z
O1 O 0.94390(9) 0.40137(10) 0.45440(19)
O2 O 0.60654(10) 0.52030(12) 0.48633(18)
O3 O 0.66015(10) 0.46653(13) 0.2224(2)
O4 O 0.67141(11) 0.28756(14) 0.5576(3)
C1 C 0.67386(13) 0.47672(15) 0.3788(2)
C2 C 0.86098(13) 0.43543(15) 0.3472(3)
C3 C 0.76927(14) 0.44375(15) 0.4766(3)
C4 C 0.88735(15) 0.54637(15) 0.2708(3)
H1 H 0.945552 0.538752 0.191426
H2 H 0.830706 0.573862 0.199790
C5 C 0.79371(15) 0.52779(18) 0.6202(3)
C6 C 0.75321(15) 0.32826(18) 0.5508(3)
C7 C 0.51216(14) 0.54819(17) 0.4048(3)
H3 H 0.522559 0.606141 0.317232
H4 H 0.465661 0.573846 0.495581
H5 H 0.484473 0.483447 0.346355
C8 C 0.84857(14) 0.34253(15) 0.2104(3)
H6 H 0.777583 0.322302 0.196853
H7 H 0.875298 0.364650 0.093878
C9 C 0.82617(16) 0.63628(17) 0.5492(3)
H8 H 0.847754 0.683045 0.648871
H9 H 0.768535 0.672320 0.492025
C10 C 0.91140(16) 0.62801(15) 0.4152(3)
H10 H 0.923351 0.700736 0.361772
H11 H 0.973081 0.605230 0.476707
C11 C 0.90886(16) 0.24710(17) 0.2880(3)
H12 H 0.869252 0.178813 0.289421
H13 H 0.970888 0.234648 0.220183
C12 C 0.93150(14) 0.28613(16) 0.4748(3)
H14 H 0.994316 0.251945 0.519399
C13 C 0.84621(16) 0.26685(18) 0.6045(3)
H15 H 0.831291 0.187639 0.610093
H16 H 0.866956 0.290850 0.723919
C14 C 0.7839(2) 0.5076(3) 0.7918(4)
H17 H 0.801(3) 0.562(3) 0.871(5)
H18 H 0.758(2) 0.437(3) 0.835(5)
loop_
_geom_bond_atom_site_label_1
_geom_bond_atom_site_label_2
_geom_bond_site_symmetry_1
_geom_bond_site_symmetry_2
O1 C2 1_555 1_555
O2 C1 1_555 1_555
O3 C1 1_555 1_555
O4 C6 1_555 1_555
C1 C3 1_555 1_555
C2 C3 1_555 1_555
C3 C5 1_555 1_555
C4 C2 1_555 1_555
H1 C4 1_555 1_555
H2 C4 1_555 1_555
C5 C9 1_555 1_555
C6 C3 1_555 1_555
C7 O2 1_555 1_555
H3 C7 1_555 1_555
H4 C7 1_555 1_555
H5 C7 1_555 1_555
C8 C2 1_555 1_555
H6 C8 1_555 1_555
H7 C8 1_555 1_555
C9 H8 1_555 1_555
H9 C9 1_555 1_555
C10 C4 1_555 1_555
H10 C10 1_555 1_555
H11 C10 1_555 1_555
C11 C8 1_555 1_555
H12 C11 1_555 1_555
H13 C11 1_555 1_555
C12 O1 1_555 1_555
H14 C12 1_555 1_555
C13 C6 1_555 1_555
H15 C13 1_555 1_555
H16 C13 1_555 1_555
C14 C5 1_555 1_555
H17 C14 1_555 1_555
H18 C14 1_555 1_555
C9 C10 1_555 1_555
C11 C12 1_555 1_555
C12 C13 1_555 1_555

#END
