
#######################################################################
#
#                 Cambridge Crystallographic Data Centre
#                                CCDC 
#
#######################################################################
#
# If this CIF has been generated from an entry in the Cambridge 
# Structural Database, then it will include bibliographic, chemical, 
# crystal, experimental, refinement or atomic coordinate data resulting 
# from the CCDC's data processing and validation procedures.
#
#######################################################################

data_PIRMOV
_chemical_formula_moiety         'C11 H16 O3'
_chemical_name_systematic        
1a-methylhexahydro-1aH,4H-3a,6-epoxyazuleno[1,8a-b]oxiren-8-ol
_symmetry_cell_setting           monoclinic
_symmetry_space_group_name_H-M   'C c'
_symmetry_Int_Tables_number      9
_space_group_name_Hall           'C -2yc'
loop_
_symmetry_equiv_pos_site_id
_symmetry_equiv_pos_as_xyz
1 x,y,z
2 x,-y,1/2+z
3 1/2+x,1/2+y,z
4 1/2+x,1/2-y,1/2+z
_cell_length_a                   24.7788(9)
_cell_length_b                   5.68660(10)
_cell_length_c                   24.5249(6)
_cell_angle_alpha                90
_cell_angle_beta                 120.1410(10)
_cell_angle_gamma                90
_cell_volume                     2988.49
_exptl_crystal_colour            colorless
_exptl_crystal_description       needle
_cell_formula_units_Z            12
loop_
_atom_site_label
_atom_site_type_symbol
_atom_site_fract_x
_atom_site_fract_y
_atom_site_fract_z
O1 O 0.44142(10) 0.5605(4) 0.46725(10)
H1 H 0.468616 0.454801 0.478170
O2 O 0.25491(10) 0.5919(4) 0.33582(10)
O3 O 0.39191(10) 0.3558(4) 0.33542(10)
C1 C 0.35600(14) 0.4701(5) 0.35972(14)
C2 C 0.33520(14) 0.5834(6) 0.44487(15)
H2 H 0.344580 0.538974 0.487794
H3 H 0.340393 0.755724 0.444112
C3 C 0.42947(16) 0.7702(6) 0.34456(18)
H4 H 0.461135 0.728908 0.387817
H5 H 0.414984 0.931304 0.343678
H6 H 0.447602 0.759252 0.317165
C4 C 0.38097(14) 0.4597(5) 0.42991(14)
H7 H 0.383346 0.290708 0.442168
C5 C 0.37588(14) 0.6052(5) 0.32183(15)
C6 C 0.25585(15) 0.2512(6) 0.38971(17)
H8 H 0.212487 0.214482 0.378738
H9 H 0.285028 0.166653 0.428909
C7 C 0.28652(14) 0.4181(5) 0.31936(14)
C8 C 0.32017(16) 0.6382(6) 0.25681(16)
H10 H 0.331715 0.610789 0.224103
H11 H 0.303142 0.799279 0.251757
C9 C 0.26783(15) 0.5173(6) 0.39734(16)
H12 H 0.238516 0.595190 0.408557
C10 C 0.26726(16) 0.1844(6) 0.33537(16)
H13 H 0.300905 0.065920 0.349137
H14 H 0.228822 0.121975 0.298774
C11 C 0.27223(16) 0.4549(6) 0.25176(16)
H15 H 0.229154 0.513867 0.224866
H16 H 0.277016 0.305952 0.233693
O4 O 0.54689(9) 0.9323(4) 0.74729(10)
O5 O 0.48799(11) 0.8951(4) 0.55851(10)
H17 H 0.470210 0.790126 0.531058
O6 O 0.40708(10) 0.7062(3) 0.60963(10)
C12 C 0.51231(14) 0.7946(5) 0.61976(14)
H18 H 0.521780 0.625121 0.617449
C13 C 0.57334(14) 0.9190(6) 0.66541(16)
H19 H 0.606178 0.872767 0.655774
H20 H 0.567402 1.091255 0.659566
C14 C 0.49895(14) 0.7562(5) 0.71602(14)
C15 C 0.59454(14) 0.8571(6) 0.73393(15)
H21 H 0.634939 0.937054 0.762929
C16 C 0.38256(17) 1.1255(6) 0.57406(17)
H22 H 0.391183 1.079697 0.540654
H23 H 0.399019 1.283700 0.589055
H24 H 0.337393 1.124741 0.557410
C17 C 0.46850(14) 0.8085(5) 0.64565(14)
C18 C 0.40728(15) 0.9927(5) 0.68529(16)
H25 H 0.363264 0.977903 0.674737
H26 H 0.422881 1.150247 0.703691
C19 C 0.44740(16) 0.7992(6) 0.73116(16)
H27 H 0.464952 0.851442 0.775392
H28 H 0.422572 0.654690 0.724540
C20 C 0.41312(14) 0.9556(5) 0.62740(15)
C21 C 0.53440(16) 0.5234(6) 0.73565(16)
H29 H 0.514599 0.404866 0.701643
H30 H 0.536614 0.460610 0.774369
C22 C 0.59986(16) 0.5922(6) 0.74764(17)
H31 H 0.632294 0.559434 0.791814
H32 H 0.610146 0.505524 0.719029
O7 O 0.53233(10) 0.2279(4) 0.51143(11)
H33 H 0.523072 0.125197 0.529993
O8 O 0.66260(9) 0.0313(3) 0.59495(9)
O9 O 0.66257(10) 0.2445(4) 0.45454(10)
C23 C 0.67581(15) 0.2791(5) 0.58901(15)
C24 C 0.74028(15) 0.3055(6) 0.59749(16)
H34 H 0.772729 0.285213 0.642298
H35 H 0.745328 0.462391 0.583119
C25 C 0.63839(14) 0.1338(5) 0.53280(14)
C26 C 0.55435(14) 0.2445(6) 0.42658(15)
H36 H 0.555792 0.417188 0.432276
H37 H 0.511655 0.201563 0.393142
C27 C 0.66084(15) -0.1606(6) 0.46844(15)
H38 H 0.646373 -0.275091 0.488760
H39 H 0.696689 -0.228465 0.466612
C28 C 0.65329(16) 0.4573(6) 0.61816(16)
H40 H 0.611451 0.413907 0.609534
H41 H 0.651802 0.612678 0.600158
H42 H 0.681917 0.461805 0.663829
C29 C 0.60109(16) 0.1724(6) 0.40615(15)
H43 H 0.590126 0.248558 0.365103
C30 C 0.56895(13) 0.1240(5) 0.48802(14)
H44 H 0.556583 -0.044964 0.478545
C31 C 0.67822(14) 0.0723(5) 0.50351(15)
C32 C 0.74495(14) 0.1104(6) 0.55666(16)
H45 H 0.771996 0.160168 0.539753
H46 H 0.762179 -0.035493 0.581467
C33 C 0.60756(16) -0.0937(6) 0.40200(16)
H47 H 0.618579 -0.133267 0.369478
H48 H 0.568371 -0.175524 0.391967
loop_
_geom_bond_atom_site_label_1
_geom_bond_atom_site_label_2
_geom_bond_site_symmetry_1
_geom_bond_site_symmetry_2
O1 H1 1_555 1_555
O2 C7 1_555 1_555
O3 C1 1_555 1_555
C1 C4 1_555 1_555
C2 H2 1_555 1_555
H3 C2 1_555 1_555
C3 H4 1_555 1_555
H5 C3 1_555 1_555
H6 C3 1_555 1_555
C4 O1 1_555 1_555
H7 C4 1_555 1_555
C5 O3 1_555 1_555
C6 H8 1_555 1_555
H9 C6 1_555 1_555
C7 C1 1_555 1_555
C8 C5 1_555 1_555
H10 C8 1_555 1_555
H11 C8 1_555 1_555
C9 O2 1_555 1_555
H12 C9 1_555 1_555
C10 C6 1_555 1_555
H13 C10 1_555 1_555
H14 C10 1_555 1_555
C11 C7 1_555 1_555
H15 C11 1_555 1_555
H16 C11 1_555 1_555
O4 C14 1_555 1_555
O5 H17 1_555 1_555
O6 C17 1_555 1_555
C12 O5 1_555 1_555
H18 C12 1_555 1_555
C13 C12 1_555 1_555
H19 C13 1_555 1_555
H20 C13 1_555 1_555
C14 C17 1_555 1_555
C15 O4 1_555 1_555
H21 C15 1_555 1_555
C16 H22 1_555 1_555
H23 C16 1_555 1_555
H24 C16 1_555 1_555
C17 C12 1_555 1_555
C18 H25 1_555 1_555
H26 C18 1_555 1_555
C19 C14 1_555 1_555
H27 C19 1_555 1_555
H28 C19 1_555 1_555
C20 O6 1_555 1_555
C21 C14 1_555 1_555
H29 C21 1_555 1_555
H30 C21 1_555 1_555
C22 C15 1_555 1_555
H31 C22 1_555 1_555
H32 C22 1_555 1_555
O7 H33 1_555 1_555
O8 C23 1_555 1_555
O9 C29 1_555 1_555
C23 C24 1_555 1_555
C24 H34 1_555 1_555
H35 C24 1_555 1_555
C25 O8 1_555 1_555
C26 H36 1_555 1_555
H37 C26 1_555 1_555
C27 H38 1_555 1_555
H39 C27 1_555 1_555
C28 C23 1_555 1_555
H40 C28 1_555 1_555
H41 C28 1_555 1_555
H42 C28 1_555 1_555
C29 C26 1_555 1_555
H43 C29 1_555 1_555
C30 O7 1_555 1_555
H44 C30 1_555 1_555
C31 O9 1_555 1_555
C32 C24 1_555 1_555
H45 C32 1_555 1_555
H46 C32 1_555 1_555
C33 C27 1_555 1_555
H47 C33 1_555 1_555
H48 C33 1_555 1_555
C1 C5 1_555 1_555
C2 C4 1_555 1_555
C2 C9 1_555 1_555
C3 C5 1_555 1_555
C6 C9 1_555 1_555
C7 C10 1_555 1_555
C8 C11 1_555 1_555
C13 C15 1_555 1_555
C16 C20 1_555 1_555
C17 C20 1_555 1_555
C18 C19 1_555 1_555
C18 C20 1_555 1_555
C21 C22 1_555 1_555
C23 C25 1_555 1_555
C25 C30 1_555 1_555
C25 C31 1_555 1_555
C26 C30 1_555 1_555
C27 C31 1_555 1_555
C29 C33 1_555 1_555
C31 C32 1_555 1_555

#END
