
#######################################################################
#
#                 Cambridge Crystallographic Data Centre
#                                CCDC 
#
#######################################################################
#
# If this CIF has been generated from an entry in the Cambridge 
# Structural Database, then it will include bibliographic, chemical, 
# crystal, experimental, refinement or atomic coordinate data resulting 
# from the CCDC's data processing and validation procedures.
#
#######################################################################

data_PIRRUD
_chemical_formula_moiety         'C38 H60 O4 Si2'
_chemical_name_systematic        
E-1,6-Di-isobutyl-3,4-bis((tri-isopropylsilyl)ethynyl)-hex-3-ene-1,5-diyne-1,6-dicarboxylate
_symmetry_cell_setting           monoclinic
_symmetry_space_group_name_H-M   'P 21/c'
_symmetry_Int_Tables_number      14
_space_group_name_Hall           '-P 2ybc'
loop_
_symmetry_equiv_pos_site_id
_symmetry_equiv_pos_as_xyz
1 x,y,z
2 -x,1/2+y,1/2-z
3 -x,-y,-z
4 x,1/2-y,1/2+z
_cell_length_a                   13.896(12)
_cell_length_b                   10.810(10)
_cell_length_c                   14.999(11)
_cell_angle_alpha                90
_cell_angle_beta                 116.16(6)
_cell_angle_gamma                90
_cell_volume                     2022.29
_exptl_crystal_colour            colorless
_cell_formula_units_Z            2
loop_
_atom_site_label
_atom_site_type_symbol
_atom_site_fract_x
_atom_site_fract_y
_atom_site_fract_z
Si1 Si 0.1670(1) 0.0968(1) 0.3527(1)
O1 O -0.3990(3) -0.0623(4) -0.1232(3)
C1 C -0.0242(3) 0.0166(4) 0.0287(3)
C2 C 0.0838(3) 0.0707(4) 0.2182(3)
C3 C 0.0355(3) 0.0467(4) 0.1312(3)
O2 O -0.3863(3) 0.1070(5) -0.0374(4)
C4 C -0.2321(4) 0.0243(5) -0.0385(3)
C5 C 0.1340(4) 0.1765(6) 0.5173(3)
C6 C -0.3461(4) 0.0303(6) -0.0659(4)
C7 C -0.1389(4) 0.0221(4) -0.0107(3)
C8 C -0.6799(4) -0.1786(6) -0.2478(5)
C9 C 0.2689(4) 0.2152(5) 0.3643(3)
C10 C -0.5595(4) -0.1761(6) -0.2129(4)
C11 C 0.2303(4) -0.0563(5) 0.4013(4)
C12 C -0.5097(5) -0.2931(7) -0.1637(5)
C13 C -0.5147(4) -0.0655(6) -0.1525(5)
C14 C 0.0779(4) 0.1559(7) 0.4067(4)
C15 C 0.2202(5) 0.3372(6) 0.3150(5)
C16 C 0.3469(4) 0.1731(7) 0.3254(4)
C17 C 0.3236(5) -0.0556(6) 0.5036(4)
C18 C 0.1511(5) -0.1563(6) 0.3942(5)
C19 C -0.0291(5) 0.1297(8) 0.3651(5)
H1 H 0.0860 0.2094 0.5417
H2 H 0.1604 0.0976 0.5476
H3 H 0.1930 0.2323 0.5332
H4 H -0.7115 -0.2495 -0.2889
H5 H -0.6941 -0.1812 -0.1908
H6 H -0.7101 -0.1046 -0.2850
H7 H 0.3107 0.2316 0.4338
H8 H -0.5456 -0.1694 -0.2699
H9 H 0.2605 -0.0824 0.3579
H10 H -0.4338 -0.2920 -0.1431
H11 H -0.5232 -0.3001 -0.1064
H12 H -0.5410 -0.3625 -0.2068
H13 H -0.5496 0.0073 -0.1891
H14 H -0.5268 -0.0708 -0.0943
H15 H 0.0718 0.2405 0.3853
H16 H 0.2754 0.3958 0.3230
H17 H 0.1761 0.3231 0.2456
H18 H 0.1770 0.3693 0.3450
H19 H 0.3985 0.2361 0.3325
H20 H 0.3834 0.1007 0.3616
H21 H 0.3067 0.1527 0.2564
H22 H 0.3534 -0.1367 0.5237
H23 H 0.3780 -0.0008 0.5037
H24 H 0.2975 -0.0254 0.5490
H25 H 0.1872 -0.2336 0.4185
H26 H 0.1157 -0.1314 0.4337
H27 H 0.0990 -0.1658 0.3263
H28 H -0.0644 0.1701 0.3996
H29 H -0.0630 0.1532 0.2964
H30 H -0.0339 0.0417 0.3705
C1B C 0.0242(3) -0.0166(4) -0.0287(3)
C3B C -0.0355(3) -0.0467(4) -0.1312(3)
C7B C 0.1389(4) -0.0221(4) 0.0107(3)
C2B C -0.0838(3) -0.0707(4) -0.2182(3)
C4B C 0.2321(4) -0.0243(5) 0.0385(3)
Si1B Si -0.1670(1) -0.0968(1) -0.3527(1)
C6B C 0.3461(4) -0.0303(6) 0.0659(4)
C9B C -0.2689(4) -0.2152(5) -0.3643(3)
C11B C -0.2303(4) 0.0563(5) -0.4013(4)
C14B C -0.0779(4) -0.1559(7) -0.4067(4)
O1B O 0.3990(3) 0.0623(4) 0.1232(3)
O2B O 0.3863(3) -0.1070(5) 0.0374(4)
C15B C -0.2202(5) -0.3372(6) -0.3150(5)
C16B C -0.3469(4) -0.1731(7) -0.3254(4)
H7B H -0.3107 -0.2316 -0.4338
C17B C -0.3236(5) 0.0556(6) -0.5036(4)
C18B C -0.1511(5) 0.1563(6) -0.3942(5)
H9B H -0.2605 0.0824 -0.3579
C5B C -0.1340(4) -0.1765(6) -0.5173(3)
C19B C 0.0291(5) -0.1297(8) -0.3651(5)
H15B H -0.0718 -0.2405 -0.3853
C13B C 0.5147(4) 0.0655(6) 0.1525(5)
H16B H -0.2754 -0.3958 -0.3230
H17B H -0.1761 -0.3231 -0.2456
H18B H -0.1770 -0.3693 -0.3450
H19B H -0.3985 -0.2361 -0.3325
H20B H -0.3834 -0.1007 -0.3616
H21B H -0.3067 -0.1527 -0.2564
H22B H -0.3534 0.1367 -0.5237
H23B H -0.3780 0.0008 -0.5037
H24B H -0.2975 0.0254 -0.5490
H25B H -0.1872 0.2336 -0.4185
H26B H -0.1157 0.1314 -0.4337
H27B H -0.0990 0.1658 -0.3263
H1B H -0.0860 -0.2094 -0.5417
H2B H -0.1604 -0.0976 -0.5476
H3B H -0.1930 -0.2323 -0.5332
H28B H 0.0644 -0.1701 -0.3996
H29B H 0.0630 -0.1532 -0.2964
H30B H 0.0339 -0.0417 -0.3705
C10B C 0.5595(4) 0.1761(6) 0.2129(4)
H13B H 0.5496 -0.0073 0.1891
H14B H 0.5268 0.0708 0.0943
C8B C 0.6799(4) 0.1786(6) 0.2478(5)
C12B C 0.5097(5) 0.2931(7) 0.1637(5)
H8B H 0.5456 0.1694 0.2699
H4B H 0.7115 0.2495 0.2889
H5B H 0.6941 0.1812 0.1908
H6B H 0.7101 0.1046 0.2850
H10B H 0.4338 0.2920 0.1431
H11B H 0.5232 0.3001 0.1064
H12B H 0.5410 0.3625 0.2068
loop_
_geom_bond_atom_site_label_1
_geom_bond_atom_site_label_2
_geom_bond_site_symmetry_1
_geom_bond_site_symmetry_2
Si1 C2 1_555 1_555
O1 C6 1_555 1_555
C1 C3 1_555 1_555
C2 C3 1_555 1_555
O2 C6 1_555 1_555
C4 C6 1_555 1_555
C5 C14 1_555 1_555
C7 C1 1_555 1_555
C8 C10 1_555 1_555
C9 Si1 1_555 1_555
C10 C12 1_555 1_555
C11 Si1 1_555 1_555
C12 H10 1_555 1_555
C13 O1 1_555 1_555
C14 Si1 1_555 1_555
C15 C9 1_555 1_555
C16 C9 1_555 1_555
C17 C11 1_555 1_555
C18 C11 1_555 1_555
C19 C14 1_555 1_555
H1 C5 1_555 1_555
H2 C5 1_555 1_555
H3 C5 1_555 1_555
H4 C8 1_555 1_555
H5 C8 1_555 1_555
H6 C8 1_555 1_555
H7 C9 1_555 1_555
H8 C10 1_555 1_555
H9 C11 1_555 1_555
H11 C12 1_555 1_555
H12 C12 1_555 1_555
H13 C13 1_555 1_555
H14 C13 1_555 1_555
H15 C14 1_555 1_555
H16 C15 1_555 1_555
H17 C15 1_555 1_555
H18 C15 1_555 1_555
H19 C16 1_555 1_555
H20 C16 1_555 1_555
H21 C16 1_555 1_555
H22 C17 1_555 1_555
H23 C17 1_555 1_555
H24 C17 1_555 1_555
H25 C18 1_555 1_555
H26 C18 1_555 1_555
H27 C18 1_555 1_555
H28 C19 1_555 1_555
H29 C19 1_555 1_555
H30 C19 1_555 1_555
C1B C1 1_555 1_555
C3B C1B 1_555 1_555
C7B C1B 1_555 1_555
C2B C3B 1_555 1_555
C4B C7B 1_555 1_555
Si1B C2B 1_555 1_555
C6B C4B 1_555 1_555
C9B Si1B 1_555 1_555
C11B Si1B 1_555 1_555
C14B Si1B 1_555 1_555
O1B C6B 1_555 1_555
O2B C6B 1_555 1_555
C15B C9B 1_555 1_555
C16B C9B 1_555 1_555
H7B C9B 1_555 1_555
C17B C11B 1_555 1_555
C18B C11B 1_555 1_555
H9B C11B 1_555 1_555
C5B C14B 1_555 1_555
C19B C14B 1_555 1_555
H15B C14B 1_555 1_555
C13B O1B 1_555 1_555
H16B C15B 1_555 1_555
H17B C15B 1_555 1_555
H18B C15B 1_555 1_555
H19B C16B 1_555 1_555
H20B C16B 1_555 1_555
H21B C16B 1_555 1_555
H22B C17B 1_555 1_555
H23B C17B 1_555 1_555
H24B C17B 1_555 1_555
H25B C18B 1_555 1_555
H26B C18B 1_555 1_555
H27B C18B 1_555 1_555
H1B C5B 1_555 1_555
H2B C5B 1_555 1_555
H3B C5B 1_555 1_555
H28B C19B 1_555 1_555
H29B C19B 1_555 1_555
H30B C19B 1_555 1_555
C10B C13B 1_555 1_555
H13B C13B 1_555 1_555
H14B C13B 1_555 1_555
C8B C10B 1_555 1_555
C12B C10B 1_555 1_555
H8B C10B 1_555 1_555
H4B C8B 1_555 1_555
H5B C8B 1_555 1_555
H6B C8B 1_555 1_555
H10B C12B 1_555 1_555
H11B C12B 1_555 1_555
H12B C12B 1_555 1_555
C4 C7 1_555 1_555
C10 C13 1_555 1_555

#END
