
#######################################################################
#
#                 Cambridge Crystallographic Data Centre
#                                CCDC 
#
#######################################################################
#
# If this CIF has been generated from an entry in the Cambridge 
# Structural Database, then it will include bibliographic, chemical, 
# crystal, experimental, refinement or atomic coordinate data resulting 
# from the CCDC's data processing and validation procedures.
#
#######################################################################

data_PIRREN
_chemical_formula_moiety         'C28 H44 Si2'
_chemical_name_systematic        
E-1,2-Diethynyl-1,2-bis((tri-isopropylsilyl)ethynyl)-ethene
_symmetry_cell_setting           monoclinic
_symmetry_space_group_name_H-M   'P 21/c'
_symmetry_Int_Tables_number      14
_space_group_name_Hall           '-P 2ybc'
loop_
_symmetry_equiv_pos_site_id
_symmetry_equiv_pos_as_xyz
1 x,y,z
2 -x,1/2+y,1/2-z
3 -x,-y,-z
4 x,1/2-y,1/2+z
_cell_length_a                   13.443(4)
_cell_length_b                   11.762(5)
_cell_length_c                   8.904(1)
_cell_angle_alpha                90
_cell_angle_beta                 92.85
_cell_angle_gamma                90
_cell_volume                     1406.13
_exptl_crystal_colour            yellow
_cell_formula_units_Z            2
loop_
_atom_site_label
_atom_site_type_symbol
_atom_site_fract_x
_atom_site_fract_y
_atom_site_fract_z
Si1 Si 0.2280(1) 0.4774(1) 0.1145(1)
C1 C 0.4508(2) 0.7385(2) 0.6087(3)
C2 C 0.4597(2) 0.6481(2) 0.5498(3)
C3 C 0.4653(2) 0.5398(2) 0.4776(3)
C4 C 0.3936(2) 0.5178(2) 0.3559(2)
C5 C 0.3309(2) 0.5032(2) 0.2560(3)
C6 C 0.1181(2) 0.5593(2) 0.1809(3)
C7 C 0.0874(2) 0.5169(3) 0.3356(3)
C8 C 0.1370(2) 0.6874(2) 0.1845(3)
C9 C 0.2671(2) 0.5356(2) -0.0700(3)
C10 C 0.1874(2) 0.5208(3) -0.1976(3)
C11 C 0.3679(2) 0.4903(3) -0.1177(3)
C12 C 0.2036(2) 0.3195(2) 0.1224(3)
C13 C 0.1044(2) 0.2846(2) 0.0422(3)
C14 C 0.2899(2) 0.2472(2) 0.0682(3)
H1 H 0.0631 0.5459 0.1102
H2 H 0.0313 0.5599 0.3666
H3 H 0.0698 0.4380 0.3287
H4 H 0.1422 0.5263 0.4079
H5 H 0.0794 0.7260 0.2185
H6 H 0.1932 0.7032 0.2522
H7 H 0.4507 0.7864 0.5855
H8 H 0.2754 0.6160 -0.0557
H9 H 0.2113 0.5522 -0.2885
H10 H 0.1735 0.4414 -0.2119
H11 H 0.1276 0.5596 -0.1725
H12 H 0.3833 0.5237 -0.2121
H13 H 0.4191 0.5096 -0.0429
H14 H 0.3644 0.4091 -0.1282
H15 H 0.1980 0.3012 0.2267
H16 H 0.0960 0.2038 0.0503
H17 H 0.0504 0.3225 0.0880
H18 H 0.1049 0.3055 -0.0620
H19 H 0.2732 0.1681 0.0752
H20 H 0.3011 0.2660 -0.0345
H21 H 0.3491 0.2624 0.1295
C3B C 0.5347(2) 0.4602(2) 0.5224(3)
C2B C 0.5403(2) 0.3519(2) 0.4502(3)
C4B C 0.6064(2) 0.4822(2) 0.6441(2)
C1B C 0.5492(2) 0.2615(2) 0.3913(3)
C5B C 0.6691(2) 0.4968(2) 0.7440(3)
H7B H 0.5493 0.2136 0.4145
Si1B Si 0.7720(1) 0.5226(1) 0.8855(1)
C6B C 0.8819(2) 0.4407(2) 0.8191(3)
C9B C 0.7329(2) 0.4644(2) 1.0700(3)
C12B C 0.7964(2) 0.6805(2) 0.8776(3)
C7B C 0.9126(2) 0.4831(3) 0.6644(3)
C8B C 0.8630(2) 0.3126(2) 0.8155(3)
H1B H 0.9369 0.4541 0.8898
C10B C 0.8126(2) 0.4792(3) 1.1976(3)
C11B C 0.6321(2) 0.5097(3) 1.1177(3)
H8B H 0.7246 0.3840 1.0557
C13B C 0.8956(2) 0.7154(2) 0.9578(3)
C14B C 0.7101(2) 0.7528(2) 0.9318(3)
H15B H 0.8020 0.6988 0.7733
H2B H 0.9687 0.4401 0.6334
H3B H 0.9302 0.5620 0.6713
H4B H 0.8578 0.4737 0.5921
H5B H 0.9206 0.2740 0.7815
H6B H 0.8068 0.2968 0.7478
H9B H 0.7887 0.4478 1.2885
H10B H 0.8265 0.5586 1.2119
H11B H 0.8724 0.4404 1.1725
H12B H 0.6167 0.4763 1.2121
H13B H 0.5809 0.4904 1.0429
H14B H 0.6356 0.5909 1.1282
H16B H 0.9040 0.7962 0.9497
H17B H 0.9496 0.6775 0.9120
H18B H 0.8951 0.6945 1.0620
H19B H 0.7268 0.8319 0.9248
H20B H 0.6989 0.7340 1.0345
H21B H 0.6509 0.7376 0.8705
loop_
_geom_bond_atom_site_label_1
_geom_bond_atom_site_label_2
_geom_bond_site_symmetry_1
_geom_bond_site_symmetry_2
Si1 C5 1_555 1_555
C1 C2 1_555 1_555
C2 C3 1_555 1_555
C3 C4 1_555 1_555
C4 C5 1_555 1_555
C6 Si1 1_555 1_555
C7 C6 1_555 1_555
C8 C6 1_555 1_555
C9 Si1 1_555 1_555
C10 C9 1_555 1_555
C11 C9 1_555 1_555
C12 Si1 1_555 1_555
C13 C12 1_555 1_555
C14 C12 1_555 1_555
H1 C6 1_555 1_555
H2 C7 1_555 1_555
H3 C7 1_555 1_555
H4 C7 1_555 1_555
H5 C8 1_555 1_555
H6 C8 1_555 1_555
H7 C1 1_555 1_555
H8 C9 1_555 1_555
H9 C10 1_555 1_555
H10 C10 1_555 1_555
H11 C10 1_555 1_555
H12 C11 1_555 1_555
H13 C11 1_555 1_555
H14 C11 1_555 1_555
H15 C12 1_555 1_555
H16 C13 1_555 1_555
H17 C13 1_555 1_555
H18 C13 1_555 1_555
H19 C14 1_555 1_555
H20 C14 1_555 1_555
H21 C14 1_555 1_555
C3B C3 1_555 1_555
C2B C3B 1_555 1_555
C4B C3B 1_555 1_555
C1B C2B 1_555 1_555
C5B C4B 1_555 1_555
H7B C1B 1_555 1_555
Si1B C5B 1_555 1_555
C6B Si1B 1_555 1_555
C9B Si1B 1_555 1_555
C12B Si1B 1_555 1_555
C7B C6B 1_555 1_555
C8B C6B 1_555 1_555
H1B C6B 1_555 1_555
C10B C9B 1_555 1_555
C11B C9B 1_555 1_555
H8B C9B 1_555 1_555
C13B C12B 1_555 1_555
C14B C12B 1_555 1_555
H15B C12B 1_555 1_555
H2B C7B 1_555 1_555
H3B C7B 1_555 1_555
H4B C7B 1_555 1_555
H5B C8B 1_555 1_555
H6B C8B 1_555 1_555
H9B C10B 1_555 1_555
H10B C10B 1_555 1_555
H11B C10B 1_555 1_555
H12B C11B 1_555 1_555
H13B C11B 1_555 1_555
H14B C11B 1_555 1_555
H16B C13B 1_555 1_555
H17B C13B 1_555 1_555
H18B C13B 1_555 1_555
H19B C14B 1_555 1_555
H20B C14B 1_555 1_555
H21B C14B 1_555 1_555

#END
