
#######################################################################
#
#                 Cambridge Crystallographic Data Centre
#                                CCDC 
#
#######################################################################
#
# If this CIF has been generated from an entry in the Cambridge 
# Structural Database, then it will include bibliographic, chemical, 
# crystal, experimental, refinement or atomic coordinate data resulting 
# from the CCDC's data processing and validation procedures.
#
#######################################################################

data_PIRRIR
_chemical_formula_moiety         'C44 H52 Si2'
_chemical_name_systematic        
E-1,10-Diphenyl-5,6-bis((tri-isopropylsilyl)ethynyl)-dec-5-ene-1,3,7,9-tetrayne
_symmetry_cell_setting           monoclinic
_symmetry_space_group_name_H-M   'P 21/c'
_symmetry_Int_Tables_number      14
_space_group_name_Hall           '-P 2ybc'
loop_
_symmetry_equiv_pos_site_id
_symmetry_equiv_pos_as_xyz
1 x,y,z
2 -x,1/2+y,1/2-z
3 -x,-y,-z
4 x,1/2-y,1/2+z
_cell_length_a                   8.40(2)
_cell_length_b                   15.570(6)
_cell_length_c                   15.57(4)
_cell_angle_alpha                90
_cell_angle_beta                 96.76(2)
_cell_angle_gamma                90
_cell_volume                     2022.21
_exptl_crystal_colour            'golden yellow'
_chemical_melting_point          '142-143 deg.C'
_cell_formula_units_Z            2
loop_
_atom_site_label
_atom_site_type_symbol
_atom_site_fract_x
_atom_site_fract_y
_atom_site_fract_z
Si1 Si 0.4247(1) -0.1831(1) -0.0821(1)
C1 C 0.0406(3) -0.0313(2) 0.0243(2)
C2 C 0.0047(4) -0.0487(2) 0.1101(2)
C3 C -0.0266(4) -0.0624(2) 0.1813(2)
C4 C 0.1639(4) -0.0803(2) -0.0083(2)
C5 C 0.4152(6) -0.3249(3) -0.1973(3)
C6 C -0.0475(4) -0.1575(3) 0.4760(3)
C7 C -0.0633(4) -0.0759(2) 0.2641(2)
C8 C -0.0928(4) -0.0855(2) 0.3363(2)
C9 C 0.5321(4) -0.2424(2) 0.0109(2)
C10 C 0.4232(5) -0.3025(3) 0.0537(2)
C11 C 0.1920(5) -0.2195(3) -0.2264(2)
C12 C -0.1210(5) -0.0931(3) 0.4249(2)
C13 C -0.2320(7) -0.0417(4) 0.5474(3)
C14 C 0.3148(4) -0.2598(2) -0.1609(2)
C15 C 0.5624(5) -0.1059(2) -0.1273(3)
C16 C -0.2163(5) -0.0352(3) 0.4610(3)
C17 C 0.6165(5) -0.1820(3) 0.0782(2)
C18 C 0.2664(4) -0.1196(2) -0.0378(2)
C19 C 0.7145(5) -0.1459(3) -0.1527(3)
C20 C 0.4881(6) -0.0464(3) -0.1951(3)
C21 C -0.1593(8) -0.1020(5) 0.5976(3)
C22 C -0.0673(6) -0.1605(4) 0.5624(3)
H1 H 0.3499 -0.3617 -0.2363
H2 H 0.4917 -0.2956 -0.2281
H3 H 0.4707 -0.3586 -0.1517
H4 H 0.0153 -0.1996 0.4500
H5 H 0.6127 -0.2773 -0.0108
H6 H 0.4829 -0.3322 0.1009
H7 H 0.3405 -0.2687 0.0749
H8 H 0.3757 -0.3434 0.0123
H9 H 0.1405 -0.2630 -0.2635
H10 H 0.1132 -0.1902 -0.1973
H11 H 0.2444 -0.1791 -0.2603
H12 H -0.2969 -0.0008 0.5738
H13 H 0.2519 -0.2934 -0.1256
H14 H 0.5998 -0.0683 -0.0804
H15 H -0.2697 0.0088 0.4253
H16 H 0.6712 -0.2145 0.1250
H17 H 0.6925 -0.1474 0.0522
H18 H 0.5380 -0.1456 0.0998
H19 H 0.7825 -0.1039 -0.1752
H20 H 0.7718 -0.1736 -0.1034
H21 H 0.6828 -0.1879 -0.1965
H22 H 0.5664 -0.0081 -0.2144
H23 H 0.4430 -0.0813 -0.2426
H24 H 0.4047 -0.0135 -0.1735
H25 H -0.1712 -0.1054 0.6581
H26 H -0.0147 -0.2047 0.5982
C1B C -0.0406(3) 0.0313(2) -0.0243(2)
C2B C -0.0047(4) 0.0487(2) -0.1101(2)
C4B C -0.1639(4) 0.0803(2) 0.0083(2)
C3B C 0.0266(4) 0.0624(2) -0.1813(2)
C18B C -0.2664(4) 0.1196(2) 0.0378(2)
C7B C 0.0633(4) 0.0759(2) -0.2641(2)
Si1B Si -0.4247(1) 0.1831(1) 0.0821(1)
C8B C 0.0928(4) 0.0855(2) -0.3363(2)
C9B C -0.5321(4) 0.2424(2) -0.0109(2)
C14B C -0.3148(4) 0.2598(2) 0.1609(2)
C15B C -0.5624(5) 0.1059(2) 0.1273(3)
C12B C 0.1210(5) 0.0931(3) -0.4249(2)
C10B C -0.4232(5) 0.3025(3) -0.0537(2)
C17B C -0.6165(5) 0.1820(3) -0.0782(2)
H5B H -0.6127 0.2773 0.0108
C5B C -0.4152(6) 0.3249(3) 0.1973(3)
C11B C -0.1920(5) 0.2195(3) 0.2264(2)
H13B H -0.2519 0.2934 0.1256
C19B C -0.7145(5) 0.1459(3) 0.1527(3)
C20B C -0.4881(6) 0.0464(3) 0.1951(3)
H14B H -0.5998 0.0683 0.0804
C6B C 0.0475(4) 0.1575(3) -0.4760(3)
C16B C 0.2163(5) 0.0352(3) -0.4610(3)
H6B H -0.4829 0.3322 -0.1009
H7B H -0.3405 0.2687 -0.0749
H8B H -0.3757 0.3434 -0.0123
H16B H -0.6712 0.2145 -0.1250
H17B H -0.6925 0.1474 -0.0522
H18B H -0.5380 0.1456 -0.0998
H1B H -0.3499 0.3617 0.2363
H2B H -0.4917 0.2956 0.2281
H3B H -0.4707 0.3586 0.1517
H9B H -0.1405 0.2630 0.2635
H10B H -0.1132 0.1902 0.1973
H11B H -0.2444 0.1791 0.2603
H19B H -0.7825 0.1039 0.1752
H20B H -0.7718 0.1736 0.1034
H21B H -0.6828 0.1879 0.1965
H22B H -0.5664 0.0081 0.2144
H23B H -0.4430 0.0813 0.2426
H24B H -0.4047 0.0135 0.1735
C22B C 0.0673(6) 0.1605(4) -0.5624(3)
H4B H -0.0153 0.1996 -0.4500
C13B C 0.2320(7) 0.0417(4) -0.5474(3)
H15B H 0.2697 -0.0088 -0.4253
C21B C 0.1593(8) 0.1020(5) -0.5976(3)
H26B H 0.0147 0.2047 -0.5982
H12B H 0.2969 0.0008 -0.5738
H25B H 0.1712 0.1054 -0.6581
loop_
_geom_bond_atom_site_label_1
_geom_bond_atom_site_label_2
_geom_bond_site_symmetry_1
_geom_bond_site_symmetry_2
Si1 C9 1_555 1_555
C1 C2 1_555 1_555
C2 C3 1_555 1_555
C3 C7 1_555 1_555
C4 C1 1_555 1_555
C5 C14 1_555 1_555
C6 C12 1_555 1_555
C7 C8 1_555 1_555
C8 C12 1_555 1_555
C9 C10 1_555 1_555
C10 H6 1_555 1_555
C11 C14 1_555 1_555
C12 C16 1_555 1_555
C13 C16 1_555 1_555
C14 Si1 1_555 1_555
C15 Si1 1_555 1_555
C16 H15 1_555 1_555
C17 C9 1_555 1_555
C18 Si1 1_555 1_555
C19 C15 1_555 1_555
C20 C15 1_555 1_555
C21 C13 1_555 1_555
C22 C6 1_555 1_555
H1 C5 1_555 1_555
H2 C5 1_555 1_555
H3 C5 1_555 1_555
H4 C6 1_555 1_555
H5 C9 1_555 1_555
H7 C10 1_555 1_555
H8 C10 1_555 1_555
H9 C11 1_555 1_555
H10 C11 1_555 1_555
H11 C11 1_555 1_555
H12 C13 1_555 1_555
H13 C14 1_555 1_555
H14 C15 1_555 1_555
H16 C17 1_555 1_555
H17 C17 1_555 1_555
H18 C17 1_555 1_555
H19 C19 1_555 1_555
H20 C19 1_555 1_555
H21 C19 1_555 1_555
H22 C20 1_555 1_555
H23 C20 1_555 1_555
H24 C20 1_555 1_555
H25 C21 1_555 1_555
H26 C22 1_555 1_555
C1B C1 1_555 1_555
C2B C1B 1_555 1_555
C4B C1B 1_555 1_555
C3B C2B 1_555 1_555
C18B C4B 1_555 1_555
C7B C3B 1_555 1_555
Si1B C18B 1_555 1_555
C8B C7B 1_555 1_555
C9B Si1B 1_555 1_555
C14B Si1B 1_555 1_555
C15B Si1B 1_555 1_555
C12B C8B 1_555 1_555
C10B C9B 1_555 1_555
C17B C9B 1_555 1_555
H5B C9B 1_555 1_555
C5B C14B 1_555 1_555
C11B C14B 1_555 1_555
H13B C14B 1_555 1_555
C19B C15B 1_555 1_555
C20B C15B 1_555 1_555
H14B C15B 1_555 1_555
C6B C12B 1_555 1_555
C16B C12B 1_555 1_555
H6B C10B 1_555 1_555
H7B C10B 1_555 1_555
H8B C10B 1_555 1_555
H16B C17B 1_555 1_555
H17B C17B 1_555 1_555
H18B C17B 1_555 1_555
H1B C5B 1_555 1_555
H2B C5B 1_555 1_555
H3B C5B 1_555 1_555
H9B C11B 1_555 1_555
H10B C11B 1_555 1_555
H11B C11B 1_555 1_555
H19B C19B 1_555 1_555
H20B C19B 1_555 1_555
H21B C19B 1_555 1_555
H22B C20B 1_555 1_555
H23B C20B 1_555 1_555
H24B C20B 1_555 1_555
C22B C6B 1_555 1_555
H4B C6B 1_555 1_555
C13B C16B 1_555 1_555
H15B C16B 1_555 1_555
C21B C22B 1_555 1_555
H26B C22B 1_555 1_555
H12B C13B 1_555 1_555
H25B C21B 1_555 1_555
C4 C18 1_555 1_555
C21 C22 1_555 1_555
C13B C21B 1_555 1_555

#END
