
#######################################################################
#
#                 Cambridge Crystallographic Data Centre
#                                CCDC 
#
#######################################################################
#
# If this CIF has been generated from an entry in the Cambridge 
# Structural Database, then it will include bibliographic, chemical, 
# crystal, experimental, refinement or atomic coordinate data resulting 
# from the CCDC's data processing and validation procedures.
#
#######################################################################

data_PIRWOF
_chemical_formula_moiety         'C15 H13 F2 N1 O4'
_chemical_name_systematic        
'ethyl 2,2-difluoro-3-(6-oxo-2-phenyl-6H-1,3-oxazin-5-yl)propanoate'
_symmetry_cell_setting           triclinic
_symmetry_space_group_name_H-M   'P -1'
_symmetry_Int_Tables_number      2
_space_group_name_Hall           '-P 1'
loop_
_symmetry_equiv_pos_site_id
_symmetry_equiv_pos_as_xyz
1 x,y,z
2 -x,-y,-z
_cell_length_a                   5.7510(16)
_cell_length_b                   7.1296(16)
_cell_length_c                   17.125(4)
_cell_angle_alpha                78.696(19)
_cell_angle_beta                 87.63(2)
_cell_angle_gamma                81.59(2)
_cell_volume                     681.081
_exptl_crystal_colour            colorless
_exptl_crystal_description       block
_cell_formula_units_Z            2
loop_
_atom_site_label
_atom_site_type_symbol
_atom_site_fract_x
_atom_site_fract_y
_atom_site_fract_z
F1 F 1.0138(3) -0.1115(2) 0.34077(9)
F2 F 1.3884(3) -0.1995(3) 0.32470(9)
O1 O 0.9060(3) 0.2557(3) 0.11528(9)
O2 O 0.7849(3) 0.2777(3) 0.23835(10)
O3 O 1.2460(3) 0.0519(3) 0.47401(10)
O4 O 1.2911(3) -0.2695(3) 0.47683(10)
N1 N 1.2911(4) 0.1377(3) 0.08216(12)
C1 C 0.7701(4) 0.3405(4) -0.04011(15)
H1 H 0.6631 0.3688 -0.0004
C2 C 0.7037(5) 0.3859(4) -0.11887(15)
H2 H 0.5514 0.4448 -0.1320
C3 C 0.8609(5) 0.3448(4) -0.17839(16)
H3 H 0.8155 0.3774 -0.2314
C4 C 1.0868(5) 0.2547(4) -0.15868(15)
H4 H 1.1925 0.2260 -0.1987
C5 C 1.1563(5) 0.2071(4) -0.08013(14)
H5 H 1.3077 0.1455 -0.0673
C6 C 0.9985(4) 0.2518(4) -0.02019(14)
C7 C 1.0781(4) 0.2086(4) 0.06254(14)
C8 C 0.9495(5) 0.2320(4) 0.19667(14)
C9 C 1.1888(4) 0.1566(4) 0.21928(14)
C10 C 1.3433(5) 0.1139(4) 0.16211(14)
H6 H 1.4970 0.0647 0.1773
C11 C 1.2536(5) 0.1331(4) 0.30502(14)
H7 H 1.4147 0.1568 0.3077
H8 H 1.1533 0.2290 0.3288
C12 C 1.2302(5) -0.0639(4) 0.35225(15)
C13 C 1.2605(4) -0.0862(4) 0.44266(15)
C14 C 1.3105(5) -0.3198(4) 0.56378(14)
H9 H 1.2452 -0.2103 0.5875
H10 H 1.4741 -0.3563 0.5788
C15 C 1.1759(5) -0.4858(4) 0.59169(15)
H11 H 1.2408 -0.5925 0.5673
H12 H 1.0140 -0.4472 0.5772
H13 H 1.1866 -0.5240 0.6485
loop_
_geom_bond_atom_site_label_1
_geom_bond_atom_site_label_2
_geom_bond_site_symmetry_1
_geom_bond_site_symmetry_2
F1 C12 1_555 1_555
F2 C12 1_555 1_555
O1 C7 1_555 1_555
O2 C8 1_555 1_555
O3 C13 1_555 1_555
O4 C13 1_555 1_555
N1 C7 1_555 1_555
C1 H1 1_555 1_555
C2 C1 1_555 1_555
H2 C2 1_555 1_555
C3 C2 1_555 1_555
H3 C3 1_555 1_555
C4 C3 1_555 1_555
H4 C4 1_555 1_555
C5 C4 1_555 1_555
H5 C5 1_555 1_555
C6 C1 1_555 1_555
C7 C6 1_555 1_555
C8 O1 1_555 1_555
C9 C8 1_555 1_555
C10 N1 1_555 1_555
H6 C10 1_555 1_555
C11 C9 1_555 1_555
H7 C11 1_555 1_555
H8 C11 1_555 1_555
C12 C11 1_555 1_555
C13 C12 1_555 1_555
C14 O4 1_555 1_555
H9 C14 1_555 1_555
H10 C14 1_555 1_555
C15 C14 1_555 1_555
H11 C15 1_555 1_555
H12 C15 1_555 1_555
H13 C15 1_555 1_555
C5 C6 1_555 1_555
C9 C10 1_555 1_555

#END
