
#######################################################################
#
#                 Cambridge Crystallographic Data Centre
#                                CCDC 
#
#######################################################################
#
# If this CIF has been generated from an entry in the Cambridge 
# Structural Database, then it will include bibliographic, chemical, 
# crystal, experimental, refinement or atomic coordinate data resulting 
# from the CCDC's data processing and validation procedures.
#
#######################################################################

data_PIRXIA
_chemical_formula_moiety         'C78 H56 N4'
_chemical_name_systematic        
{ethene-1,1,2,2-tetrayltetrakis[([1,1'-biphenyl]-4',4-diyl)]}tetrakis(N-phenylmethanimine)
_symmetry_cell_setting           triclinic
_symmetry_space_group_name_H-M   'P -1'
_symmetry_Int_Tables_number      2
_space_group_name_Hall           '-P 1'
loop_
_symmetry_equiv_pos_site_id
_symmetry_equiv_pos_as_xyz
1 x,y,z
2 -x,-y,-z
_cell_length_a                   10.5113(9)
_cell_length_b                   17.0038(15)
_cell_length_c                   20.4271(18)
_cell_angle_alpha                110.194(3)
_cell_angle_beta                 102.613(3)
_cell_angle_gamma                95.107(4)
_cell_volume                     3289.55
_exptl_crystal_colour            yellow
_exptl_crystal_description       'Rectangular Rod'
_cell_formula_units_Z            2
loop_
_atom_site_label
_atom_site_type_symbol
_atom_site_fract_x
_atom_site_fract_y
_atom_site_fract_z
N1 N -0.4132(2) 0.36687(13) -0.02368(10)
N2 N 0.6758(2) 0.98308(16) 0.34851(15)
N3 N 0.9237(2) 0.66095(15) 1.08278(11)
N4 N -0.1782(3) -0.06828(16) 0.64218(14)
C1 C -0.6178(2) 0.31756(18) -0.23870(12)
H1 H -0.659773 0.309035 -0.287397
C2 C -0.6310(2) 0.38737(17) -0.18275(13)
H2 H -0.685211 0.425722 -0.192994
C3 C -0.5657(2) 0.40241(17) -0.11141(13)
H3 H -0.576883 0.450084 -0.073088
C4 C -0.4761(3) 0.27435(18) -0.15294(14)
H4 H -0.424612 0.234612 -0.142971
C5 C -0.5430(3) 0.2598(2) -0.22348(14)
H5 H -0.537665 0.209967 -0.261722
C6 C -0.4838(2) 0.34709(16) -0.09643(12)
C7 C -0.2964(2) 0.35076(15) -0.01111(12)
H6 H -0.258960 0.328012 -0.050511
C8 C -0.2178(2) 0.36619(14) 0.06225(12)
C9 C -0.2703(2) 0.39820(15) 0.12184(12)
H7 H -0.357423 0.410656 0.114844
C10 C -0.1955(2) 0.41162(14) 0.19058(11)
H8 H -0.231878 0.433675 0.230509
C11 C -0.0669(2) 0.39331(14) 0.20258(11)
C12 C -0.0145(2) 0.36295(15) 0.14316(12)
H9 H 0.073130 0.351311 0.150206
C13 C -0.0889(2) 0.34967(16) 0.07413(12)
H10 H -0.051608 0.329056 0.034370
C14 C 0.0080(2) 0.40589(13) 0.27690(11)
C15 C -0.0596(2) 0.39225(14) 0.32514(11)
H11 H -0.152769 0.373047 0.308980
C16 C 0.0059(2) 0.40600(14) 0.39548(11)
H12 H -0.042850 0.395816 0.426708
C17 C 0.1428(2) 0.43470(14) 0.42161(11)
C18 C 0.2115(2) 0.44602(14) 0.37276(11)
H13 H 0.305019 0.463756 0.388602
C19 C 0.1456(2) 0.43184(15) 0.30198(12)
H14 H 0.194548 0.439836 0.270090
C20 C 0.2085(2) 0.44914(14) 0.49827(11)
C21 C 0.30170(19) 0.51908(14) 0.54274(11)
C22 C 0.16120(19) 0.38101(14) 0.52244(11)
C23 C 0.1366(2) 0.29547(15) 0.47685(11)
H15 H 0.150580 0.280688 0.429992
C24 C 0.0922(2) 0.23118(15) 0.49839(12)
H16 H 0.077328 0.173404 0.466324
C25 C 0.06895(19) 0.25060(14) 0.56681(11)
C26 C 0.0896(2) 0.33640(14) 0.61156(11)
H17 H 0.072666 0.351334 0.657746
C27 C 0.1343(2) 0.40027(14) 0.59015(11)
H18 H 0.146940 0.458091 0.621781
C28 C 0.0254(2) 0.18278(14) 0.59191(12)
C29 C -0.0509(2) 0.10438(15) 0.54447(13)
H19 H -0.076217 0.092809 0.494020
C30 C -0.0906(2) 0.04266(16) 0.56995(15)
H20 H -0.144173 -0.010025 0.536851
C31 C -0.0523(3) 0.05754(16) 0.64369(15)
C32 C 0.0262(3) 0.13484(17) 0.69115(14)
H21 H 0.055359 0.145170 0.741279
C33 C 0.0622(2) 0.19682(16) 0.66598(13)
H22 H 0.113039 0.250177 0.699510
C34 C -0.0906(3) -0.00393(18) 0.67592(17)
H23 H -0.046029 0.006439 0.724661
C35 C -0.2010(3) -0.12163(18) 0.68136(17)
C36 C -0.3275(3) -0.15099(19) 0.67798(19)
H24 H -0.399081 -0.135464 0.650608
C37 C -0.3526(4) -0.2035(2) 0.7143(2)
H25 H -0.441606 -0.223565 0.711566
C38 C -0.2507(4) -0.2272(2) 0.7542(2)
H26 H -0.269275 -0.262809 0.779253
C39 C -0.1234(4) -0.1992(2) 0.7575(2)
H27 H -0.052410 -0.215304 0.784757
C40 C -0.0970(3) -0.1461(2) 0.7203(2)
H28 H -0.008244 -0.127123 0.721924
C41 C 0.38040(19) 0.52775(14) 0.61585(11)
C42 C 0.4378(2) 0.46113(15) 0.62824(12)
H29 H 0.423575 0.407868 0.589256
C43 C 0.5147(2) 0.47092(15) 0.69576(12)
H30 H 0.552805 0.424527 0.702005
C44 C 0.53739(19) 0.54776(15) 0.75501(11)
C45 C 0.4802(2) 0.61471(15) 0.74278(11)
H31 H 0.493076 0.667715 0.781882
C46 C 0.4051(2) 0.60479(14) 0.67454(11)
H32 H 0.369639 0.651732 0.667711
C47 C 0.6221(2) 0.55857(15) 0.82735(11)
C48 C 0.6439(4) 0.6334(2) 0.88677(15)
H33 H 0.602444 0.679154 0.881658
C49 C 0.7245(4) 0.6436(2) 0.95371(16)
H34 H 0.737806 0.696103 0.993384
C50 C 0.7857(2) 0.57846(17) 0.96343(13)
C51 C 0.7626(2) 0.50290(17) 0.90536(13)
H35 H 0.802566 0.456882 0.911108
C52 C 0.6821(2) 0.49273(17) 0.83852(13)
H36 H 0.667416 0.439607 0.799337
C53 C 0.8770(2) 0.58882(17) 1.03268(13)
H37 H 0.901936 0.539552 1.040088
C54 C 1.0123(2) 0.66527(17) 1.14780(12)
C55 C 1.1159(3) 0.73387(18) 1.18062(13)
H38 H 1.124662 0.775071 1.159404
C56 C 1.2066(3) 0.74297(19) 1.24380(14)
H39 H 1.278062 0.789953 1.265494
C57 C 1.1942(2) 0.68401(18) 1.27598(13)
H40 H 1.257036 0.690349 1.319482
C58 C 1.0895(2) 0.61580(17) 1.24422(13)
H41 H 1.080235 0.575458 1.266235
C59 C 0.9983(2) 0.60610(17) 1.18057(12)
H42 H 0.926372 0.559398 1.159136
C60 C 0.3362(2) 0.59270(14) 0.52209(11)
C61 C 0.2417(2) 0.62851(14) 0.48685(11)
H43 H 0.150141 0.606515 0.476492
C62 C 0.2792(2) 0.69520(14) 0.46694(11)
H44 H 0.212881 0.718038 0.443199
C63 C 0.4131(2) 0.72980(14) 0.48105(11)
C64 C 0.5066(2) 0.69680(15) 0.51943(11)
H45 H 0.597903 0.720608 0.531985
C65 C 0.4691(2) 0.63063(15) 0.53937(11)
H46 H 0.535352 0.610131 0.565612
C66 C 0.4568(2) 0.79708(14) 0.45577(11)
C67 C 0.3779(2) 0.85643(14) 0.44676(12)
H47 H 0.294613 0.854466 0.457634
C68 C 0.4194(2) 0.91822(15) 0.42217(12)
H48 H 0.364903 0.958526 0.417002
C69 C 0.5408(2) 0.92158(14) 0.40496(11)
C70 C 0.6203(2) 0.86253(14) 0.41390(12)
H49 H 0.703537 0.864370 0.402887
C71 C 0.5785(2) 0.80150(14) 0.43868(11)
H50 H 0.633565 0.761605 0.444264
C72 C 0.5807(2) 0.98490(15) 0.37620(13)
H51 H 0.531781 1.029720 0.378743
C73 C 0.7010(3) 1.0450(2) 0.31883(18)
C74 C 0.7082(4) 1.0191(2) 0.2462(2)
H52 H 0.697779 0.960349 0.217546
C75 C 0.7305(4) 1.0801(3) 0.2174(2)
H53 H 0.734351 1.062178 0.168451
C76 C 0.7478(4) 1.1679(2) 0.2584(2)
H54 H 0.754187 1.209338 0.237164
C77 C 0.7552(3) 1.1911(2) 0.3326(2)
H55 H 0.781050 1.249360 0.363748
C78 C 0.7258(3) 1.13154(19) 0.36077(18)
H56 H 0.722432 1.149678 0.409765
loop_
_geom_bond_atom_site_label_1
_geom_bond_atom_site_label_2
_geom_bond_site_symmetry_1
_geom_bond_site_symmetry_2
N1 C6 1_555 1_555
N2 C72 1_555 1_555
N3 C53 1_555 1_555
N4 C34 1_555 1_555
C1 H1 1_555 1_555
C2 C1 1_555 1_555
H2 C2 1_555 1_555
C3 C2 1_555 1_555
H3 C3 1_555 1_555
C4 H4 1_555 1_555
C5 C1 1_555 1_555
H5 C5 1_555 1_555
C6 C3 1_555 1_555
C7 N1 1_555 1_555
H6 C7 1_555 1_555
C8 C7 1_555 1_555
C9 C8 1_555 1_555
H7 C9 1_555 1_555
C10 C9 1_555 1_555
H8 C10 1_555 1_555
C11 C10 1_555 1_555
C12 C11 1_555 1_555
H9 C12 1_555 1_555
C13 C8 1_555 1_555
H10 C13 1_555 1_555
C14 C11 1_555 1_555
C15 C14 1_555 1_555
H11 C15 1_555 1_555
C16 C15 1_555 1_555
H12 C16 1_555 1_555
C17 C16 1_555 1_555
C18 C17 1_555 1_555
H13 C18 1_555 1_555
C19 C14 1_555 1_555
H14 C19 1_555 1_555
C20 C17 1_555 1_555
C21 C20 1_555 1_555
C22 C20 1_555 1_555
C23 C22 1_555 1_555
H15 C23 1_555 1_555
C24 C23 1_555 1_555
H16 C24 1_555 1_555
C25 C24 1_555 1_555
C26 C25 1_555 1_555
H17 C26 1_555 1_555
C27 C22 1_555 1_555
H18 C27 1_555 1_555
C28 C25 1_555 1_555
C29 C28 1_555 1_555
H19 C29 1_555 1_555
C30 C29 1_555 1_555
H20 C30 1_555 1_555
C31 C30 1_555 1_555
C32 C31 1_555 1_555
H21 C32 1_555 1_555
C33 C28 1_555 1_555
H22 C33 1_555 1_555
C34 C31 1_555 1_555
H23 C34 1_555 1_555
C35 N4 1_555 1_555
C36 C35 1_555 1_555
H24 C36 1_555 1_555
C37 C36 1_555 1_555
H25 C37 1_555 1_555
C38 C37 1_555 1_555
H26 C38 1_555 1_555
C39 C38 1_555 1_555
H27 C39 1_555 1_555
C40 C35 1_555 1_555
H28 C40 1_555 1_555
C41 C21 1_555 1_555
C42 C41 1_555 1_555
H29 C42 1_555 1_555
C43 C42 1_555 1_555
H30 C43 1_555 1_555
C44 C43 1_555 1_555
C45 C44 1_555 1_555
H31 C45 1_555 1_555
C46 C41 1_555 1_555
H32 C46 1_555 1_555
C47 C44 1_555 1_555
C48 C47 1_555 1_555
H33 C48 1_555 1_555
C49 C48 1_555 1_555
H34 C49 1_555 1_555
C50 C49 1_555 1_555
C51 C50 1_555 1_555
H35 C51 1_555 1_555
C52 C47 1_555 1_555
H36 C52 1_555 1_555
C53 C50 1_555 1_555
H37 C53 1_555 1_555
C54 N3 1_555 1_555
C55 C54 1_555 1_555
H38 C55 1_555 1_555
C56 C55 1_555 1_555
H39 C56 1_555 1_555
C57 C56 1_555 1_555
H40 C57 1_555 1_555
C58 C57 1_555 1_555
H41 C58 1_555 1_555
C59 C54 1_555 1_555
H42 C59 1_555 1_555
C60 C21 1_555 1_555
C61 C60 1_555 1_555
H43 C61 1_555 1_555
C62 C61 1_555 1_555
H44 C62 1_555 1_555
C63 C62 1_555 1_555
C64 C63 1_555 1_555
H45 C64 1_555 1_555
C65 C60 1_555 1_555
H46 C65 1_555 1_555
C66 C63 1_555 1_555
C67 C66 1_555 1_555
H47 C67 1_555 1_555
C68 C67 1_555 1_555
H48 C68 1_555 1_555
C69 C68 1_555 1_555
C70 C69 1_555 1_555
H49 C70 1_555 1_555
C71 C66 1_555 1_555
H50 C71 1_555 1_555
C72 C69 1_555 1_555
H51 C72 1_555 1_555
C73 N2 1_555 1_555
C74 C73 1_555 1_555
H52 C74 1_555 1_555
C75 C74 1_555 1_555
H53 C75 1_555 1_555
C76 C75 1_555 1_555
H54 C76 1_555 1_555
C77 C76 1_555 1_555
H55 C77 1_555 1_555
C78 C73 1_555 1_555
H56 C78 1_555 1_555
C4 C5 1_555 1_555
C4 C6 1_555 1_555
C12 C13 1_555 1_555
C18 C19 1_555 1_555
C26 C27 1_555 1_555
C32 C33 1_555 1_555
C39 C40 1_555 1_555
C45 C46 1_555 1_555
C51 C52 1_555 1_555
C58 C59 1_555 1_555
C64 C65 1_555 1_555
C70 C71 1_555 1_555
C77 C78 1_555 1_555

#END
