
#######################################################################
#
#                 Cambridge Crystallographic Data Centre
#                                CCDC 
#
#######################################################################
#
# If this CIF has been generated from an entry in the Cambridge 
# Structural Database, then it will include bibliographic, chemical, 
# crystal, experimental, refinement or atomic coordinate data resulting 
# from the CCDC's data processing and validation procedures.
#
#######################################################################

data_PIRYAT
_chemical_formula_moiety         'C33 H28 O10,C1 H2 Cl2'
_chemical_name_systematic        
"diethyl 2,2'-[(4,12-diformyl-8H,16H-8,16-methanodinaphtho[2,1-d:1',2'-g][1,3]dioxocine-3,13-diyl)bis(oxy)]diacetate dichloromethane solvate"
_symmetry_cell_setting           triclinic
_symmetry_space_group_name_H-M   'P -1'
_symmetry_Int_Tables_number      2
_space_group_name_Hall           '-P 1'
loop_
_symmetry_equiv_pos_site_id
_symmetry_equiv_pos_as_xyz
1 x,y,z
2 -x,-y,-z
_cell_length_a                   7.2745(5)
_cell_length_b                   14.4002(10)
_cell_length_c                   15.1479(11)
_cell_angle_alpha                68.324(3)
_cell_angle_beta                 87.022(3)
_cell_angle_gamma                79.772(3)
_cell_volume                     1451.01
_exptl_crystal_colour            colorless
_exptl_crystal_description       needle
_cell_formula_units_Z            2
loop_
_atom_site_label
_atom_site_type_symbol
_atom_site_fract_x
_atom_site_fract_y
_atom_site_fract_z
O1 O 0.2970(4) 0.0911(2) 0.4754(2)
O2 O 0.2075(4) 0.8704(2) -0.2048(2)
O3 O 0.2697(4) 0.6038(2) -0.0953(2)
O4 O 0.2185(4) 0.1002(2) 0.3264(2)
O5 O 0.7376(4) 0.5620(2) 0.4200(2)
O6 O 0.3451(4) 0.7474(2) -0.2568(2)
O7 O 0.4557(5) 0.3394(3) -0.1071(2)
O8 O 0.9112(5) 0.2926(3) 0.6027(3)
O9 O 0.7627(9) 0.7768(6) 0.2033(5)
O10 O 0.9344(11) 0.5932(5) 0.2642(5)
C1 C 0.3327(5) 0.2694(3) 0.4058(3)
C2 C 0.2467(6) 0.5270(3) -0.0126(3)
C3 C 0.2388(5) 0.1841(3) 0.2483(3)
C4 C 0.2052(5) 0.2819(3) 0.2484(3)
C5 C 0.4406(5) 0.3425(3) 0.4076(3)
C6 C 0.5914(6) 0.3159(3) 0.4725(3)
C7 C 0.3863(5) 0.1708(3) 0.4686(3)
C8 C 0.5373(6) 0.1425(3) 0.5322(3)
H1 H 0.5704 0.0737 0.5733
C9 C 0.3061(5) 0.4283(3) -0.0088(3)
C10 C 0.2860(5) 0.3451(3) 0.0770(3)
C11 C 0.1586(6) 0.2939(3) 0.3431(3)
H2 H 0.0915 0.3642 0.3325
C12 C 0.2996(6) 0.1649(3) 0.1658(3)
H3 H 0.3207 0.0973 0.1674
C13 C 0.2678(6) 0.7738(3) -0.1965(3)
C14 C 0.2168(5) 0.3634(3) 0.1604(3)
C15 C 0.6932(5) 0.3935(3) 0.4739(3)
C16 C 0.1648(6) 0.5451(3) 0.0678(3)
H4 H 0.1202 0.6125 0.0643
C17 C 0.6372(6) 0.2128(3) 0.5358(3)
H5 H 0.7373 0.1931 0.5803
C18 C 0.2162(6) 0.7050(3) -0.0988(3)
H6 H 0.2829 0.7153 -0.0488
H7 H 0.0801 0.7197 -0.0891
C19 C 0.1502(5) 0.4654(3) 0.1499(3)
H8 H 0.0928 0.4789 0.2027
C20 C 0.7062(6) 0.6630(3) 0.3531(3)
H9 H 0.7486 0.7071 0.3822
H10 H 0.5699 0.6850 0.3415
C21 C 0.3286(6) 0.2422(3) 0.0836(3)
H11 H 0.3778 0.2272 0.0301
C22 C 0.3831(6) 0.4169(4) -0.0977(3)
H12 H 0.3740 0.4770 -0.1528
C23 C 0.3993(6) 0.4453(3) 0.3431(3)
H13 H 0.2983 0.4648 0.2991
C24 C 0.5019(6) 0.5164(3) 0.3431(3)
H14 H 0.4760 0.5831 0.2968
C25 C 0.0335(6) 0.2168(3) 0.3952(3)
H15 H -0.0058 0.2232 0.4565
H16 H -0.0796 0.2282 0.3564
C26 C 0.1455(6) 0.1134(3) 0.4116(3)
H17 H 0.0616 0.0625 0.4411
C27 C 0.6454(6) 0.4917(3) 0.4110(3)
C28 C 0.8459(6) 0.3727(3) 0.5443(3)
H18 H 0.8972 0.4296 0.5425
C29 C 0.2470(7) 0.9480(4) -0.2956(3)
H19 H 0.2139 0.9305 -0.3494
H20 H 0.3813 0.9531 -0.2993
C30 C 0.7982(13) 0.6808(9) 0.2602(9)
C31 C 0.1309(10) 1.0456(4) -0.2989(4)
H21 H 0.1446 1.0986 -0.3608
H22 H 0.1724 1.0648 -0.2485
H23 H -0.0005 1.0375 -0.2896
C32 C 0.8601(16) 0.8017(8) 0.1105(7)
H24 H 0.9964 0.7942 0.1199
H25 H 0.8374 0.7567 0.0777
C33 C 0.780(3) 0.9083(11) 0.0552(10)
H26 H 0.8277 0.9276 -0.0096
H27 H 0.8145 0.9524 0.0854
H28 H 0.6432 0.9157 0.0530
Cl1 Cl 1.2900(5) 0.8531(5) 0.2086(3)
C34 C 1.4173(19) 0.8791(10) 0.1063(11)
H31 H 1.4891 0.9328 0.1022
H32 H 1.5087 0.8175 0.1113
Cl2 Cl 1.2933(4) 0.9168(3) 0.0033(2)
H29? H 0.7320 0.7105 0.3825
H30? H 0.5749 0.6828 0.3301
C35? C 1.119(3) 0.7896(11) 0.1451(10)
H33? H 1.1156 0.8514 0.1587
H34? H 1.1982 0.7926 0.0901
H35? H 1.1701 0.7304 0.2005
O11? O 0.8244(9) 0.7600(5) 0.2104(5)
C36? C 0.8422(13) 0.6656(9) 0.2691(9)
O12? O 0.9083(11) 0.6183(5) 0.2379(5)
C37? C 0.9326(15) 0.7816(8) 0.1247(7)
H36? H 0.9375 0.7267 0.0996
H37? H 0.8728 0.8460 0.0757
loop_
_geom_bond_atom_site_label_1
_geom_bond_atom_site_label_2
_geom_bond_site_symmetry_1
_geom_bond_site_symmetry_2
O1 C7 1_555 1_555
O2 C13 1_555 1_555
O3 C2 1_555 1_555
O4 C3 1_555 1_555
O5 C20 1_555 1_555
O6 C13 1_555 1_555
O7 C22 1_555 1_555
O8 C28 1_555 1_555
O9 C30 1_555 1_555
O10 C30 1_555 1_555
C1 C5 1_555 1_555
C2 C9 1_555 1_555
C3 C4 1_555 1_555
C4 C11 1_555 1_555
C5 C6 1_555 1_555
C6 C15 1_555 1_555
C7 C1 1_555 1_555
C8 C7 1_555 1_555
H1 C8 1_555 1_555
C9 C10 1_555 1_555
C10 C14 1_555 1_555
C11 C1 1_555 1_555
H2 C11 1_555 1_555
C12 C3 1_555 1_555
H3 C12 1_555 1_555
C13 C18 1_555 1_555
C14 C4 1_555 1_555
C15 C27 1_555 1_555
C16 C2 1_555 1_555
H4 C16 1_555 1_555
C17 C6 1_555 1_555
H5 C17 1_555 1_555
C18 O3 1_555 1_555
H6 C18 1_555 1_555
H7 C18 1_555 1_555
C19 C14 1_555 1_555
H8 C19 1_555 1_555
C20 H9 1_555 1_555
H10 C20 1_555 1_555
C21 C10 1_555 1_555
H11 C21 1_555 1_555
C22 C9 1_555 1_555
H12 C22 1_555 1_555
C23 C5 1_555 1_555
H13 C23 1_555 1_555
C24 C23 1_555 1_555
H14 C24 1_555 1_555
C25 C11 1_555 1_555
H15 C25 1_555 1_555
H16 C25 1_555 1_555
C26 O1 1_555 1_555
H17 C26 1_555 1_555
C27 O5 1_555 1_555
C28 C15 1_555 1_555
H18 C28 1_555 1_555
C29 O2 1_555 1_555
H19 C29 1_555 1_555
H20 C29 1_555 1_555
C30 C20 1_555 1_555
C31 C29 1_555 1_555
H21 C31 1_555 1_555
H22 C31 1_555 1_555
H23 C31 1_555 1_555
C32 O9 1_555 1_555
H24 C32 1_555 1_555
H25 C32 1_555 1_555
C33 C32 1_555 1_555
H26 C33 1_555 1_555
H27 C33 1_555 1_555
H28 C33 1_555 1_555
Cl1 C34 1_555 1_555
C34 H31 1_555 1_555
H32 C34 1_555 1_555
Cl2 C34 1_555 1_555
O4 C26 1_555 1_555
C8 C17 1_555 1_555
C12 C21 1_555 1_555
C16 C19 1_555 1_555
C24 C27 1_555 1_555
C25 C26 1_555 1_555

#END
