
#######################################################################
#
#                 Cambridge Crystallographic Data Centre
#                                CCDC 
#
#######################################################################
#
# If this CIF has been generated from an entry in the Cambridge 
# Structural Database, then it will include bibliographic, chemical, 
# crystal, experimental, refinement or atomic coordinate data resulting 
# from the CCDC's data processing and validation procedures.
#
#######################################################################

data_PIRYEX
_chemical_formula_moiety         'C33 H32 O6'
_chemical_name_systematic        
3,13-dibutoxy-8H,16H-8,16-methanodinaphtho[2,1-d:1',2'-g][1,3]dioxocine-4,12-dicarbaldehyde
_symmetry_cell_setting           monoclinic
_symmetry_space_group_name_H-M   'P 21/c'
_symmetry_Int_Tables_number      14
_space_group_name_Hall           '-P 2ybc'
loop_
_symmetry_equiv_pos_site_id
_symmetry_equiv_pos_as_xyz
1 x,y,z
2 -x,1/2+y,1/2-z
3 -x,-y,-z
4 x,1/2-y,1/2+z
_cell_length_a                   8.0555(4)
_cell_length_b                   13.3482(7)
_cell_length_c                   24.3506(13)
_cell_angle_alpha                90
_cell_angle_beta                 94.774(4)
_cell_angle_gamma                90
_cell_volume                     2609.25
_exptl_crystal_colour            yellow
_exptl_crystal_description       needle
_cell_formula_units_Z            4
loop_
_atom_site_label
_atom_site_type_symbol
_atom_site_fract_x
_atom_site_fract_y
_atom_site_fract_z
C1 C 0.7307(2) 0.77524(14) 0.75802(7)
H1 H 0.7036 0.7910 0.7956
C2 C 0.6086(2) 0.82889(14) 0.71855(7)
H2 H 0.6235 0.9008 0.7221
H3 H 0.4955 0.8125 0.7261
C3 C 0.6418(2) 0.79456(13) 0.66028(7)
H4 H 0.5705 0.8315 0.6327
C4 C 0.5974(2) 0.68375(13) 0.65835(7)
C5 C 0.5018(2) 0.63377(13) 0.61417(7)
C6 C 0.4217(2) 0.68815(14) 0.56938(7)
H5 H 0.4323 0.7575 0.5690
C7 C 0.3299(2) 0.64277(14) 0.52683(7)
H6 H 0.2788 0.6811 0.4983
C8 C 0.3126(2) 0.53836(14) 0.52615(7)
C9 C 0.3843(2) 0.47993(13) 0.56960(7)
C10 C 0.4773(2) 0.52797(13) 0.61537(7)
C11 C 0.5420(2) 0.47482(14) 0.66291(7)
H7 H 0.5316 0.4055 0.6643
C12 C 0.6196(2) 0.52529(14) 0.70670(7)
H8 H 0.6552 0.4902 0.7385
C13 C 0.6463(2) 0.62790(14) 0.70452(7)
C14 C 0.3558(2) 0.37184(14) 0.56580(8)
H9 H 0.3069 0.3486 0.5323
C15 C 0.1409(2) 0.54481(14) 0.43994(7)
H10 H 0.2215 0.5852 0.4224
H11 H 0.0573 0.5889 0.4532
C16 C 0.0609(2) 0.47020(14) 0.39973(7)
H12 H -0.0202 0.4311 0.4178
H13 H 0.1453 0.4246 0.3884
C17 C -0.0249(2) 0.52059(14) 0.34909(7)
H14 H -0.1106 0.5653 0.3605
H15 H 0.0558 0.5607 0.3314
C18 C -0.1033(3) 0.44583(16) 0.30783(8)
H16 H -0.1570 0.4811 0.2769
H17 H -0.1841 0.4063 0.3250
H18 H -0.0185 0.4028 0.2955
C19 C 0.9362(2) 0.82353(14) 0.69894(7)
C20 C 0.8255(2) 0.81546(13) 0.65286(7)
C21 C 0.8888(2) 0.83417(13) 0.60037(7)
C22 C 0.7862(2) 0.82345(14) 0.55065(7)
H19 H 0.6753 0.8054 0.5525
C23 C 0.8432(2) 0.83850(14) 0.49999(8)
H20 H 0.7729 0.8280 0.4682
C24 C 1.0080(2) 0.86980(14) 0.49604(7)
C25 C 1.1147(2) 0.88629(13) 0.54322(7)
C26 C 1.0569(2) 0.86515(13) 0.59665(7)
C27 C 1.1616(2) 0.87292(14) 0.64614(7)
H21 H 1.2718 0.8930 0.6449
C28 C 1.1022(2) 0.85125(15) 0.69549(8)
H22 H 1.1734 0.8550 0.7275
C29 C 1.2794(2) 0.92832(14) 0.53499(8)
H23 H 1.3010 0.9417 0.4988
C30 C 0.9742(3) 0.86218(16) 0.39604(8)
H24 H 0.8755 0.9039 0.3911
H25 H 0.9402 0.7925 0.3959
C31 C 1.0881(3) 0.88180(16) 0.35090(8)
H26 H 1.0261 0.8714 0.3155
H27 H 1.1231 0.9513 0.3527
O1 O 0.72634(16) 0.66880(9) 0.75157(5)
O2 O 0.38777(19) 0.30887(10) 0.60079(6)
O3 O 0.22214(16) 0.48873(9) 0.48502(5)
O4 O 0.89534(16) 0.80769(10) 0.75228(5)
O5 O 1.39127(18) 0.94770(11) 0.57050(6)
O6 O 1.07062(17) 0.88673(12) 0.44698(5)
C32 C 1.2388(3) 0.81660(18) 0.35444(9)
H28 H 1.2046 0.7480 0.3468
H29 H 1.2909 0.8189 0.3918
C33 C 1.3666(4) 0.8467(2) 0.31484(11)
H30 H 1.3195 0.8383 0.2776
H31 H 1.4636 0.8052 0.3210
H32 H 1.3972 0.9156 0.3209
loop_
_geom_bond_atom_site_label_1
_geom_bond_atom_site_label_2
_geom_bond_site_symmetry_1
_geom_bond_site_symmetry_2
C1 H1 1_555 1_555
C2 C1 1_555 1_555
H2 C2 1_555 1_555
H3 C2 1_555 1_555
C3 C2 1_555 1_555
H4 C3 1_555 1_555
C4 C3 1_555 1_555
C5 C4 1_555 1_555
C6 C5 1_555 1_555
H5 C6 1_555 1_555
C7 C6 1_555 1_555
H6 C7 1_555 1_555
C8 C7 1_555 1_555
C9 C8 1_555 1_555
C10 C5 1_555 1_555
C11 C10 1_555 1_555
H7 C11 1_555 1_555
C12 C11 1_555 1_555
H8 C12 1_555 1_555
C13 C4 1_555 1_555
C14 C9 1_555 1_555
H9 C14 1_555 1_555
C15 H10 1_555 1_555
H11 C15 1_555 1_555
C16 C15 1_555 1_555
H12 C16 1_555 1_555
H13 C16 1_555 1_555
C17 C16 1_555 1_555
H14 C17 1_555 1_555
H15 C17 1_555 1_555
C18 C17 1_555 1_555
H16 C18 1_555 1_555
H17 C18 1_555 1_555
H18 C18 1_555 1_555
C19 C20 1_555 1_555
C20 C3 1_555 1_555
C21 C20 1_555 1_555
C22 C21 1_555 1_555
H19 C22 1_555 1_555
C23 C22 1_555 1_555
H20 C23 1_555 1_555
C24 C23 1_555 1_555
C25 C24 1_555 1_555
C26 C21 1_555 1_555
C27 C26 1_555 1_555
H21 C27 1_555 1_555
C28 C19 1_555 1_555
H22 C28 1_555 1_555
C29 C25 1_555 1_555
H23 C29 1_555 1_555
C30 H24 1_555 1_555
H25 C30 1_555 1_555
C31 C30 1_555 1_555
H26 C31 1_555 1_555
H27 C31 1_555 1_555
O1 C1 1_555 1_555
O2 C14 1_555 1_555
O3 C8 1_555 1_555
O4 C1 1_555 1_555
O5 C29 1_555 1_555
O6 C24 1_555 1_555
C32 C31 1_555 1_555
H28 C32 1_555 1_555
H29 C32 1_555 1_555
C33 C32 1_555 1_555
H30 C33 1_555 1_555
H31 C33 1_555 1_555
H32 C33 1_555 1_555
C9 C10 1_555 1_555
C12 C13 1_555 1_555
C13 O1 1_555 1_555
C15 O3 1_555 1_555
C19 O4 1_555 1_555
C25 C26 1_555 1_555
C27 C28 1_555 1_555
C30 O6 1_555 1_555

#END
