
#######################################################################
#
#                 Cambridge Crystallographic Data Centre
#                                CCDC 
#
#######################################################################
#
# If this CIF has been generated from an entry in the Cambridge 
# Structural Database, then it will include bibliographic, chemical, 
# crystal, experimental, refinement or atomic coordinate data resulting 
# from the CCDC's data processing and validation procedures.
#
#######################################################################

data_PIRZAS
_chemical_formula_moiety         'C9 H12 N2 O5 Se1'
_chemical_name_systematic        1-(4-Seleno-\b-D-ribofuranosyl)uracil
_symmetry_cell_setting           orthorhombic
_symmetry_space_group_name_H-M   'P 21 21 21'
_symmetry_Int_Tables_number      19
_space_group_name_Hall           'P 2ac 2ab'
loop_
_symmetry_equiv_pos_site_id
_symmetry_equiv_pos_as_xyz
1 x,y,z
2 1/2-x,-y,1/2+z
3 1/2+x,1/2-y,-z
4 -x,1/2+y,1/2-z
_cell_length_a                   4.95195(12)
_cell_length_b                   13.4320(3)
_cell_length_c                   16.9083(5)
_cell_angle_alpha                90
_cell_angle_beta                 90
_cell_angle_gamma                90
_cell_volume                     1124.65
_exptl_crystal_colour            white
_chemical_melting_point          '198-200 deg.C'
_cell_formula_units_Z            4
_exptl_crystal_recrystallization_method methanol/water
loop_
_atom_site_label
_atom_site_type_symbol
_atom_site_fract_x
_atom_site_fract_y
_atom_site_fract_z
N1 N 1.1971(4) 0.52655(13) 0.09220(13)
C1 C 1.1211(5) 0.42637(16) 0.08842(15)
N2 N 1.2778(5) 0.36941(15) 0.03877(14)
C2 C 1.4946(6) 0.39996(16) -0.00595(14)
C3 C 1.5498(6) 0.50539(18) -0.00232(17)
C4 C 1.4052(5) 0.56257(18) 0.04637(17)
O1 O 0.9335(4) 0.39224(13) 0.12480(12)
O2 O 1.6260(5) 0.33903(14) -0.04586(12)
C5 C 1.0529(5) 0.58969(16) 0.14956(14)
C6 C 1.2127(5) 0.60451(17) 0.22624(15)
C7 C 1.0836(5) 0.69102(17) 0.27065(15)
C8 C 1.0737(4) 0.78059(17) 0.21588(14)
Se1 Se 0.97778(5) 0.725397(15) 0.110270(14)
C9 C 1.3329(5) 0.83977(18) 0.21471(18)
O3 O 1.2262(5) 0.51599(14) 0.27168(15)
O4 O 0.8166(4) 0.66261(14) 0.29249(12)
O5 O 1.2820(4) 0.93273(13) 0.17697(14)
H1 H 1.233(8) 0.301(3) 0.034(2)
H2 H 1.685(7) 0.532(2) -0.035(2)
H3 H 1.442(5) 0.6350(18) 0.0527(14)
H4 H 0.877(4) 0.5609(16) 0.1600(13)
H5 H 1.386(5) 0.6211(18) 0.2133(14)
H6 H 1.109(7) 0.504(3) 0.285(2)
H7 H 1.191(5) 0.7065(18) 0.3170(16)
H8 H 0.814(7) 0.661(2) 0.346(2)
H9 H 0.941(5) 0.8197(19) 0.2293(14)
H10 H 1.487(6) 0.801(2) 0.1854(18)
H11 H 1.375(5) 0.849(2) 0.2734(16)
H12 H 1.402(7) 0.963(2) 0.185(2)
loop_
_geom_bond_atom_site_label_1
_geom_bond_atom_site_label_2
_geom_bond_site_symmetry_1
_geom_bond_site_symmetry_2
N1 C1 1_555 1_555
C1 N2 1_555 1_555
N2 C2 1_555 1_555
C2 C3 1_555 1_555
C3 C4 1_555 1_555
C4 N1 1_555 1_555
O1 C1 1_555 1_555
O2 C2 1_555 1_555
C5 N1 1_555 1_555
C6 C5 1_555 1_555
C7 C6 1_555 1_555
C8 C7 1_555 1_555
Se1 C5 1_555 1_555
C9 C8 1_555 1_555
O3 C6 1_555 1_555
O4 C7 1_555 1_555
O5 C9 1_555 1_555
H1 N2 1_555 1_555
H2 C3 1_555 1_555
H3 C4 1_555 1_555
H4 C5 1_555 1_555
H5 C6 1_555 1_555
H6 O3 1_555 1_555
H7 C7 1_555 1_555
H8 O4 1_555 1_555
H9 C8 1_555 1_555
H10 C9 1_555 1_555
H11 C9 1_555 1_555
H12 O5 1_555 1_555
C8 Se1 1_555 1_555

#END
