
#######################################################################
#
#                 Cambridge Crystallographic Data Centre
#                                CCDC 
#
#######################################################################
#
# If this CIF has been generated from an entry in the Cambridge 
# Structural Database, then it will include bibliographic, chemical, 
# crystal, experimental, refinement or atomic coordinate data resulting 
# from the CCDC's data processing and validation procedures.
#
#######################################################################

data_PIRZUO
_chemical_formula_moiety         'C19 H22 O6'
_chemical_name_systematic        
5a-{2-[(4-methoxyphenyl)methoxy]ethyl}-1b,4a-dimethyldihydro-1aH-oxireno[3,4]cyclopenta[1,2-c]furan-2,5(1bH,5aH)-dione
_symmetry_cell_setting           orthorhombic
_symmetry_space_group_name_H-M   'P c a 21'
_symmetry_Int_Tables_number      29
_space_group_name_Hall           'P 2c -2ac'
loop_
_symmetry_equiv_pos_site_id
_symmetry_equiv_pos_as_xyz
1 x,y,z
2 -x,-y,1/2+z
3 1/2+x,-y,z
4 1/2-x,y,1/2+z
_cell_length_a                   23.134(5)
_cell_length_b                   9.790(2)
_cell_length_c                   7.6283(15)
_cell_angle_alpha                90
_cell_angle_beta                 90
_cell_angle_gamma                90
_cell_volume                     1727.67
_exptl_crystal_colour            colorless
_exptl_crystal_description       block
_cell_formula_units_Z            4
loop_
_atom_site_label
_atom_site_type_symbol
_atom_site_fract_x
_atom_site_fract_y
_atom_site_fract_z
O1 O -0.64423(7) -0.47215(17) -0.7615(2)
O2 O -0.54730(6) -0.12961(16) -0.6891(2)
O3 O -0.27906(6) -0.16912(17) -0.5661(2)
O4 O -0.59444(8) -0.38454(19) -0.2066(2)
O5 O -0.71606(7) -0.25925(19) -0.4805(2)
O6 O -0.51251(8) -0.4278(2) -0.3493(3)
C1 C -0.45174(9) -0.0570(2) -0.6147(3)
C2 C -0.37704(10) -0.2116(2) -0.5171(3)
H1 H -0.366347 -0.291988 -0.460795
C3 C -0.64165(9) -0.3379(2) -0.6773(3)
C4 C -0.40922(10) 0.0260(2) -0.6828(3)
H2 H -0.419893 0.106367 -0.739134
C5 C -0.63783(10) -0.2145(2) -0.7925(3)
H3 H -0.676588 -0.185914 -0.824281
H4 H -0.617644 -0.238738 -0.899511
C6 C -0.33490(10) -0.1260(2) -0.5865(3)
C7 C -0.56390(11) -0.4389(3) -0.3397(4)
C8 C -0.35086(10) -0.0065(2) -0.6701(3)
H5 H -0.322980 0.051287 -0.717104
C9 C -0.60688(9) -0.0961(2) -0.7063(3)
H6 H -0.611184 -0.014447 -0.777124
H7 H -0.623453 -0.078472 -0.591732
C10 C -0.66450(10) -0.4691(3) -0.4069(3)
C11 C -0.67963(9) -0.3426(2) -0.5181(3)
C12 C -0.43481(10) -0.1774(2) -0.5318(3)
H8 H -0.462748 -0.235539 -0.485751
C13 C -0.51445(9) -0.0172(2) -0.6260(3)
H9 H -0.528347 0.009531 -0.511008
H10 H -0.518850 0.060026 -0.704460
C14 C -0.59648(10) -0.4405(2) -0.6481(3)
H11 H -0.557821 -0.426864 -0.697572
C15 C -0.65419(11) -0.4257(3) -0.2178(3)
H12 H -0.679392 -0.350295 -0.186794
H13 H -0.661751 -0.501162 -0.138614
C16 C -0.23395(10) -0.0818(3) -0.6273(4)
H14 H -0.238071 0.006870 -0.575046
H15 H -0.236288 -0.073783 -0.752502
H16 H -0.197168 -0.119810 -0.595436
C17 C -0.71281(10) -0.5747(3) -0.4201(4)
H17 H -0.717772 -0.601164 -0.540296
H18 H -0.748156 -0.535880 -0.376823
H19 H -0.702915 -0.653436 -0.351344
C18 C -0.60338(9) -0.5101(2) -0.4719(3)
C19 C -0.58920(11) -0.6629(3) -0.4837(4)
H20 H -0.596326 -0.705366 -0.372300
H21 H -0.549273 -0.674321 -0.514719
H22 H -0.613124 -0.704750 -0.571392
loop_
_geom_bond_atom_site_label_1
_geom_bond_atom_site_label_2
_geom_bond_site_symmetry_1
_geom_bond_site_symmetry_2
O1 C3 1_555 1_555
O2 C9 1_555 1_555
O3 C6 1_555 1_555
O4 C7 1_555 1_555
O5 C11 1_555 1_555
O6 C7 1_555 1_555
C1 C4 1_555 1_555
C2 H1 1_555 1_555
C3 C5 1_555 1_555
C4 H2 1_555 1_555
C5 H3 1_555 1_555
H4 C5 1_555 1_555
C6 C2 1_555 1_555
C7 C18 1_555 1_555
C8 C4 1_555 1_555
H5 C8 1_555 1_555
C9 C5 1_555 1_555
H6 C9 1_555 1_555
H7 C9 1_555 1_555
C10 C11 1_555 1_555
C11 C3 1_555 1_555
C12 C1 1_555 1_555
H8 C12 1_555 1_555
C13 O2 1_555 1_555
H9 C13 1_555 1_555
H10 C13 1_555 1_555
C14 O1 1_555 1_555
H11 C14 1_555 1_555
C15 O4 1_555 1_555
H12 C15 1_555 1_555
H13 C15 1_555 1_555
C16 O3 1_555 1_555
H14 C16 1_555 1_555
H15 C16 1_555 1_555
H16 C16 1_555 1_555
C17 C10 1_555 1_555
H17 C17 1_555 1_555
H18 C17 1_555 1_555
H19 C17 1_555 1_555
C18 C10 1_555 1_555
C19 C18 1_555 1_555
H20 C19 1_555 1_555
H21 C19 1_555 1_555
H22 C19 1_555 1_555
C1 C13 1_555 1_555
C2 C12 1_555 1_555
C3 C14 1_555 1_555
C6 C8 1_555 1_555
C10 C15 1_555 1_555
C14 C18 1_555 1_555

#END
