
#######################################################################
#
#                 Cambridge Crystallographic Data Centre
#                                CCDC 
#
#######################################################################
#
# If this CIF has been generated from an entry in the Cambridge 
# Structural Database, then it will include bibliographic, chemical, 
# crystal, experimental, refinement or atomic coordinate data resulting 
# from the CCDC's data processing and validation procedures.
#
#######################################################################

data_PITHUV
_chemical_formula_moiety         'C20 H31 N3 P2'
_chemical_name_systematic        
erythro-((Isopropyl-(isopropylamino)phenylphosphino)-(ethylamino-phenyl)phosphino)amine
_symmetry_cell_setting           monoclinic
_symmetry_space_group_name_H-M   'P 21/n'
_symmetry_Int_Tables_number      14
_space_group_name_Hall           '-P 2yn'
loop_
_symmetry_equiv_pos_site_id
_symmetry_equiv_pos_as_xyz
1 x,y,z
2 1/2-x,1/2+y,1/2-z
3 -x,-y,-z
4 1/2+x,1/2-y,1/2+z
_cell_length_a                   10.678(4)
_cell_length_b                   16.159(12)
_cell_length_c                   13.291(4)
_cell_angle_alpha                90
_cell_angle_beta                 107.839(26)
_cell_angle_gamma                90
_cell_volume                     2183.05
_exptl_crystal_colour            colorless
_chemical_melting_point          '84-88 deg.C'
_cell_formula_units_Z            4
loop_
_atom_site_label
_atom_site_type_symbol
_atom_site_fract_x
_atom_site_fract_y
_atom_site_fract_z
P1 P -0.0064(1) 0.2957(1) 0.0045(1)
P2 P 0.1870(1) 0.3668(1) 0.1941(1)
N1 N -0.1109(3) 0.3721(3) 0.0118(3)
N2 N 0.1049(3) 0.2829(2) 0.1277(2)
N3 N 0.3429(3) 0.3390(2) 0.2522(3)
C1 C -0.2421(5) 0.3578(5) 0.0152(6)
C2 C 0.1230(5) 0.1985(3) 0.1760(4)
C3 C 0.4484(5) 0.3629(4) 0.2145(4)
C4 C -0.3322(6) 0.4224(5) -0.0334(6)
C5 C 0.2104(6) 0.1450(3) 0.1322(5)
C6 C -0.0028(6) 0.1540(4) 0.1673(5)
C7 C 0.5553(7) 0.4056(5) 0.2960(7)
C8 C 0.5214(9) 0.2969(6) 0.1909(7)
C9 C 0.0888(4) 0.3503(3) -0.0666(3)
C10 C 0.0327(5) 0.4104(3) -0.1419(3)
C11 C 0.1015(6) 0.4413(3) -0.2065(4)
C12 C 0.2250(6) 0.4142(4) -0.1970(4)
C13 C 0.2825(5) 0.3563(3) -0.1238(4)
C14 C 0.2158(4) 0.3244(3) -0.0595(3)
C15 C 0.1312(4) 0.3692(2) 0.3116(3)
C16 C 0.2079(5) 0.4056(3) 0.4045(3)
C17 C 0.1593(6) 0.4159(4) 0.4889(4)
C18 C 0.0368(7) 0.3906(4) 0.4836(4)
C19 C -0.0406(5) 0.3572(3) 0.3937(4)
C20 C 0.0050(5) 0.3456(3) 0.3078(4)
H1 H -0.0820 0.4247 0.0180
H2 H 0.3755 0.3002 0.3217
H3 H -0.2445 0.3457 0.0852
H4 H -0.2723 0.3096 -0.0276
H5 H 0.1671 0.2057 0.2502
H6 H 0.4098 0.3956 0.1524
H7 H -0.4197 0.4079 -0.0342
H8 H -0.3038 0.4706 0.0099
H9 H -0.3319 0.4341 -0.1042
H10 H 0.2193 0.0911 0.1639
H11 H 0.1738 0.1399 0.0569
H12 H 0.2952 0.1709 0.1490
H13 H 0.0162 0.1005 0.1996
H14 H -0.0528 0.1856 0.2027
H15 H -0.0526 0.1477 0.0942
H16 H 0.6178 0.4249 0.2625
H17 H 0.5227 0.4516 0.3262
H18 H 0.5974 0.3669 0.3507
H19 H 0.5837 0.3159 0.1571
H20 H 0.5674 0.2719 0.2575
H21 H 0.4639 0.2568 0.1465
H22 H -0.0546 0.4294 -0.1485
H23 H 0.0596 0.4825 -0.2579
H24 H 0.2706 0.4358 -0.2433
H25 H 0.3716 0.3391 -0.1135
H26 H 0.2543 0.2814 -0.0099
H27 H 0.2961 0.4227 0.4109
H28 H 0.2151 0.4418 0.5517
H29 H 0.0077 0.3985 0.5444
H30 H -0.1291 0.3424 0.3897
H31 H -0.0487 0.3169 0.2464
loop_
_geom_bond_atom_site_label_1
_geom_bond_atom_site_label_2
_geom_bond_site_symmetry_1
_geom_bond_site_symmetry_2
P1 N1 1_555 1_555
P2 N2 1_555 1_555
N1 C1 1_555 1_555
N2 P1 1_555 1_555
N3 P2 1_555 1_555
C1 C4 1_555 1_555
C2 N2 1_555 1_555
C3 N3 1_555 1_555
C4 H7 1_555 1_555
C5 C2 1_555 1_555
C6 C2 1_555 1_555
C7 C3 1_555 1_555
C8 C3 1_555 1_555
C9 P1 1_555 1_555
C10 C9 1_555 1_555
C11 C10 1_555 1_555
C12 C11 1_555 1_555
C13 C12 1_555 1_555
C14 C9 1_555 1_555
C15 P2 1_555 1_555
C16 C15 1_555 1_555
C17 C16 1_555 1_555
C18 C17 1_555 1_555
C19 C18 1_555 1_555
C20 C15 1_555 1_555
H1 N1 1_555 1_555
H2 N3 1_555 1_555
H3 C1 1_555 1_555
H4 C1 1_555 1_555
H5 C2 1_555 1_555
H6 C3 1_555 1_555
H8 C4 1_555 1_555
H9 C4 1_555 1_555
H10 C5 1_555 1_555
H11 C5 1_555 1_555
H12 C5 1_555 1_555
H13 C6 1_555 1_555
H14 C6 1_555 1_555
H15 C6 1_555 1_555
H16 C7 1_555 1_555
H17 C7 1_555 1_555
H18 C7 1_555 1_555
H19 C8 1_555 1_555
H20 C8 1_555 1_555
H21 C8 1_555 1_555
H22 C10 1_555 1_555
H23 C11 1_555 1_555
H24 C12 1_555 1_555
H25 C13 1_555 1_555
H26 C14 1_555 1_555
H27 C16 1_555 1_555
H28 C17 1_555 1_555
H29 C18 1_555 1_555
H30 C19 1_555 1_555
H31 C20 1_555 1_555
C13 C14 1_555 1_555
C19 C20 1_555 1_555

#END
