
#######################################################################
#
#                 Cambridge Crystallographic Data Centre
#                                CCDC 
#
#######################################################################
#
# If this CIF has been generated from an entry in the Cambridge 
# Structural Database, then it will include bibliographic, chemical, 
# crystal, experimental, refinement or atomic coordinate data resulting 
# from the CCDC's data processing and validation procedures.
#
#######################################################################

data_PITHOP
_chemical_formula_moiety         'C30 H26 N2 O1 Si2'
_chemical_name_systematic        
2,2,7,7-Tetraphenyl-4,5-benzo-2,7,1,3,6-disiloxadiazepine
_symmetry_cell_setting           orthorhombic
_symmetry_space_group_name_H-M   'F d d 2'
_symmetry_Int_Tables_number      43
_space_group_name_Hall           'F 2 -2d'
loop_
_symmetry_equiv_pos_site_id
_symmetry_equiv_pos_as_xyz
1 x,y,z
2 x,1/2+y,1/2+z
3 1/2+x,y,1/2+z
4 1/2+x,1/2+y,z
5 1/4-x,1/4+y,1/4+z
6 1/4-x,3/4+y,3/4+z
7 3/4-x,1/4+y,3/4+z
8 3/4-x,3/4+y,1/4+z
9 1/4+x,1/4-y,1/4+z
10 1/4+x,3/4-y,3/4+z
11 3/4+x,1/4-y,3/4+z
12 3/4+x,3/4-y,1/4+z
13 1/2-x,-y,1/2+z
14 1/2-x,1/2-y,z
15 -x,-y,z
16 -x,1/2-y,1/2+z
_cell_length_a                   18.211(6)
_cell_length_b                   28.344(11)
_cell_length_c                   9.752(3)
_cell_angle_alpha                90
_cell_angle_beta                 90
_cell_angle_gamma                90
_cell_volume                     5033.72
_exptl_crystal_colour            'pale yellow'
_chemical_melting_point          '230-231 deg.C'
_cell_formula_units_Z            8
loop_
_atom_site_label
_atom_site_type_symbol
_atom_site_fract_x
_atom_site_fract_y
_atom_site_fract_z
O1 O 0.0000 0.0000 0.1058
Si1 Si 0.0234(1) 0.0483(1) 0.0238(2)
N1 N -0.0223(1) 0.0492(1) -0.1322(3)
C1 C -0.0120(1) 0.0999(1) 0.1199(3)
C2 C -0.0844(1) 0.1009(1) 0.1656(3)
C3 C -0.1138(1) 0.1409(1) 0.2265(4)
C4 C -0.0705(1) 0.1806(1) 0.2455(3)
C5 C 0.0014(1) 0.1803(1) 0.2027(3)
C6 C 0.0305(1) 0.1401(1) 0.1406(3)
C7 C 0.1245(1) 0.0512(1) 0.0002(3)
C8 C 0.1546(1) 0.0623(1) -0.1273(3)
C9 C 0.2301(1) 0.0656(1) -0.1460(4)
C10 C 0.2771(1) 0.0583(1) -0.0366(4)
C11 C 0.2486(1) 0.0472(1) 0.0908(3)
C12 C 0.1732(1) 0.0437(1) 0.1094(3)
C13 C -0.0118(1) 0.0239(1) -0.2549(3)
C14 C -0.0252(1) 0.0456(1) -0.3811(3)
C15 C -0.0133(1) 0.0229(1) -0.5048(3)
H1 H -0.0599 0.0698 -0.1354
H2 H -0.1145 0.0733 0.1556
H3 H -0.1640 0.1409 0.2567
H4 H -0.0914 0.2084 0.2860
H5 H 0.0316 0.2076 0.2169
H6 H 0.0809 0.1398 0.1121
H7 H 0.1220 0.0673 -0.2033
H8 H 0.2494 0.0735 -0.2348
H9 H 0.3293 0.0606 -0.0490
H10 H 0.2811 0.0423 0.1670
H11 H 0.1537 0.0356 0.1978
H12 H -0.0431 0.0774 -0.3815
H13 H -0.0242 0.0385 -0.5898
Si1N Si -0.0234(1) -0.0483(1) 0.0238(2)
C13N C 0.0118(1) -0.0239(1) -0.2549(3)
C15N C 0.0133(1) -0.0229(1) -0.5048(3)
N1N N 0.0223(1) -0.0492(1) -0.1322(3)
C1N C 0.0120(1) -0.0999(1) 0.1199(3)
C7N C -0.1245(1) -0.0512(1) 0.0002(3)
C14N C 0.0252(1) -0.0456(1) -0.3811(3)
H13N H 0.0242 -0.0385 -0.5898
H1N H 0.0599 -0.0698 -0.1354
C2N C 0.0844(1) -0.1009(1) 0.1656(3)
C6N C -0.0305(1) -0.1401(1) 0.1406(3)
C8N C -0.1546(1) -0.0623(1) -0.1273(3)
C12N C -0.1732(1) -0.0437(1) 0.1094(3)
H12N H 0.0431 -0.0774 -0.3815
C3N C 0.1138(1) -0.1409(1) 0.2265(4)
H2N H 0.1145 -0.0733 0.1556
C5N C -0.0014(1) -0.1803(1) 0.2027(3)
H6N H -0.0809 -0.1398 0.1121
C9N C -0.2301(1) -0.0656(1) -0.1460(4)
H7N H -0.1220 -0.0673 -0.2033
C11N C -0.2486(1) -0.0472(1) 0.0908(3)
H11N H -0.1537 -0.0356 0.1978
C4N C 0.0705(1) -0.1806(1) 0.2455(3)
H3N H 0.1640 -0.1409 0.2567
H5N H -0.0316 -0.2076 0.2169
C10N C -0.2771(1) -0.0583(1) -0.0366(4)
H8N H -0.2494 -0.0735 -0.2348
H10N H -0.2811 -0.0423 0.1670
H4N H 0.0914 -0.2084 0.2860
H9N H -0.3293 -0.0606 -0.0490
loop_
_geom_bond_atom_site_label_1
_geom_bond_atom_site_label_2
_geom_bond_site_symmetry_1
_geom_bond_site_symmetry_2
O1 Si1 1_555 1_555
Si1 N1 1_555 1_555
N1 C13 1_555 1_555
C1 Si1 1_555 1_555
C2 C1 1_555 1_555
C3 C2 1_555 1_555
C4 C3 1_555 1_555
C5 C4 1_555 1_555
C6 C1 1_555 1_555
C7 Si1 1_555 1_555
C8 C7 1_555 1_555
C9 C8 1_555 1_555
C10 C9 1_555 1_555
C11 C10 1_555 1_555
C12 C7 1_555 1_555
C13 C14 1_555 1_555
C14 C15 1_555 1_555
C15 H13 1_555 1_555
H1 N1 1_555 1_555
H2 C2 1_555 1_555
H3 C3 1_555 1_555
H4 C4 1_555 1_555
H5 C5 1_555 1_555
H6 C6 1_555 1_555
H7 C8 1_555 1_555
H8 C9 1_555 1_555
H9 C10 1_555 1_555
H10 C11 1_555 1_555
H11 C12 1_555 1_555
H12 C14 1_555 1_555
Si1N O1 1_555 1_555
C13N C13 1_555 1_555
C15N C15 1_555 1_555
N1N Si1N 1_555 1_555
C1N Si1N 1_555 1_555
C7N Si1N 1_555 1_555
C14N C13N 1_555 1_555
H13N C15N 1_555 1_555
H1N N1N 1_555 1_555
C2N C1N 1_555 1_555
C6N C1N 1_555 1_555
C8N C7N 1_555 1_555
C12N C7N 1_555 1_555
H12N C14N 1_555 1_555
C3N C2N 1_555 1_555
H2N C2N 1_555 1_555
C5N C6N 1_555 1_555
H6N C6N 1_555 1_555
C9N C8N 1_555 1_555
H7N C8N 1_555 1_555
C11N C12N 1_555 1_555
H11N C12N 1_555 1_555
C4N C3N 1_555 1_555
H3N C3N 1_555 1_555
H5N C5N 1_555 1_555
C10N C9N 1_555 1_555
H8N C9N 1_555 1_555
H10N C11N 1_555 1_555
H4N C4N 1_555 1_555
H9N C10N 1_555 1_555
C5 C6 1_555 1_555
C11 C12 1_555 1_555
C13N N1N 1_555 1_555
C15N C14N 1_555 1_555
C5N C4N 1_555 1_555
C11N C10N 1_555 1_555

#END
