
#######################################################################
#
#                 Cambridge Crystallographic Data Centre
#                                CCDC 
#
#######################################################################
#
# If this CIF has been generated from an entry in the Cambridge 
# Structural Database, then it will include bibliographic, chemical, 
# crystal, experimental, refinement or atomic coordinate data resulting 
# from the CCDC's data processing and validation procedures.
#
#######################################################################

data_PITJEH
_chemical_formula_moiety         'C27 H29 N3 P2'
_chemical_name_systematic        
meso-(Isopropyl-bis((phenyl-phenylamino)phosphino))amine
_symmetry_cell_setting           triclinic
_symmetry_space_group_name_H-M   'P -1'
_symmetry_Int_Tables_number      2
_space_group_name_Hall           '-P 1'
loop_
_symmetry_equiv_pos_site_id
_symmetry_equiv_pos_as_xyz
1 x,y,z
2 -x,-y,-z
_cell_length_a                   10.226(5)
_cell_length_b                   10.793(4)
_cell_length_c                   13.370(6)
_cell_angle_alpha                69.17(3)
_cell_angle_beta                 71.13(4)
_cell_angle_gamma                68.86(3)
_cell_volume                     1253.72
_exptl_crystal_colour            colorless
_chemical_melting_point          '144-146 deg.C'
_cell_formula_units_Z            2
loop_
_atom_site_label
_atom_site_type_symbol
_atom_site_fract_x
_atom_site_fract_y
_atom_site_fract_z
P1 P 0.4690(1) 0.8138(1) 0.8425(1)
P2 P 0.3393(1) 0.9081(1) 0.6485(1)
N1 N 0.6135(3) 0.8616(4) 0.7516(3)
N2 N 0.1630(3) 0.9342(4) 0.6555(3)
N3 N 0.3778(3) 0.7877(3) 0.7677(2)
C1 C 0.3425(4) 0.6535(4) 0.8064(3)
C2 C 0.4745(5) 0.5285(4) 0.8245(5)
C3 C 0.2208(5) 0.6479(5) 0.9077(4)
C4 C 0.3628(4) 0.9815(4) 0.8672(3)
C5 C 0.4279(5) 1.0635(4) 0.8824(4)
C6 C 0.3468(6) 1.1791(5) 0.9197(4)
C7 C 0.1988(6) 1.2152(5) 0.9402(4)
C8 C 0.1335(5) 1.1358(5) 0.9265(4)
C9 C 0.2133(4) 1.0183(5) 0.8912(4)
C10 C 0.4177(4) 0.8020(4) 0.5513(3)
C11 C 0.3491(5) 0.8031(5) 0.4772(3)
C12 C 0.4180(7) 0.7263(6) 0.4015(4)
C13 C 0.5586(6) 0.6490(6) 0.3992(5)
C14 C 0.6299(6) 0.6468(6) 0.4699(4)
C15 C 0.5612(4) 0.7229(5) 0.5451(4)
C16 C 0.7546(3) 0.7733(4) 0.7355(3)
C17 C 0.8490(4) 0.7991(5) 0.6347(4)
C18 C 0.9893(5) 0.7127(6) 0.6210(5)
C19 C 1.0341(5) 0.6036(6) 0.7050(5)
C20 C 0.9396(5) 0.5769(5) 0.8038(5)
C21 C 0.7995(4) 0.6621(5) 0.8203(4)
C22 C 0.0527(4) 1.0425(4) 0.6936(3)
C23 C 0.0696(6) 1.1727(5) 0.6589(4)
C24 C -0.0385(7) 1.2797(6) 0.6976(5)
C25 C -0.1608(7) 1.2545(8) 0.7705(6)
C26 C -0.1788(5) 1.1252(8) 0.8051(5)
C27 C -0.0738(4) 1.0183(5) 0.7670(4)
H1 H 0.6040(43) 0.9219(40) 0.7074(32)
H2 H 0.1330(38) 0.8691(37) 0.6631(30)
H3 H 0.3079 0.6487 0.7495
H4 H 0.5486 0.5336 0.7583
H5 H 0.5089 0.5303 0.8826
H6 H 0.4486 0.4443 0.8443
H7 H 0.1385 0.7255 0.8950
H8 H 0.1943 0.5640 0.9278
H9 H 0.2546 0.6500 0.9661
H10 H 0.5311 1.0389 0.8663
H11 H 0.3939 1.2323 0.9330
H12 H 0.1421 1.2976 0.9625
H13 H 0.0304 1.1630 0.9404
H14 H 0.1650 0.9604 0.8856
H15 H 0.2510 0.8578 0.4795
H16 H 0.3685 0.7274 0.3511
H17 H 0.6076 0.5946 0.3477
H18 H 0.7286 0.5935 0.4659
H19 H 0.6120 0.7212 0.5949
H20 H 0.8179 0.8751 0.5751
H21 H 1.0562 0.7282 0.5514
H22 H 1.1317 0.5468 0.6941
H23 H 0.9716 0.4994 0.8623
H24 H 0.7329 0.6436 0.8896
H25 H 0.1577 1.1880 0.6092
H26 H -0.0292 1.3719 0.6722
H27 H -0.2346 1.3272 0.7983
H28 H -0.2650 1.1103 0.8580
H29 H -0.0876 0.9282 0.7889
loop_
_geom_bond_atom_site_label_1
_geom_bond_atom_site_label_2
_geom_bond_site_symmetry_1
_geom_bond_site_symmetry_2
P1 N1 1_555 1_555
P2 N2 1_555 1_555
N1 C16 1_555 1_555
N2 C22 1_555 1_555
N3 P1 1_555 1_555
C1 N3 1_555 1_555
C2 C1 1_555 1_555
C3 C1 1_555 1_555
C4 P1 1_555 1_555
C5 C4 1_555 1_555
C6 C5 1_555 1_555
C7 C6 1_555 1_555
C8 C7 1_555 1_555
C9 C4 1_555 1_555
C10 P2 1_555 1_555
C11 C10 1_555 1_555
C12 C11 1_555 1_555
C13 C12 1_555 1_555
C14 C13 1_555 1_555
C15 C10 1_555 1_555
C16 C17 1_555 1_555
C17 C18 1_555 1_555
C18 C19 1_555 1_555
C19 C20 1_555 1_555
C20 C21 1_555 1_555
C21 C16 1_555 1_555
C22 C23 1_555 1_555
C23 C24 1_555 1_555
C24 C25 1_555 1_555
C25 C26 1_555 1_555
C26 C27 1_555 1_555
C27 C22 1_555 1_555
H1 N1 1_555 1_555
H2 N2 1_555 1_555
H3 C1 1_555 1_555
H4 C2 1_555 1_555
H5 C2 1_555 1_555
H6 C2 1_555 1_555
H7 C3 1_555 1_555
H8 C3 1_555 1_555
H9 C3 1_555 1_555
H10 C5 1_555 1_555
H11 C6 1_555 1_555
H12 C7 1_555 1_555
H13 C8 1_555 1_555
H14 C9 1_555 1_555
H15 C11 1_555 1_555
H16 C12 1_555 1_555
H17 C13 1_555 1_555
H18 C14 1_555 1_555
H19 C15 1_555 1_555
H20 C17 1_555 1_555
H21 C18 1_555 1_555
H22 C19 1_555 1_555
H23 C20 1_555 1_555
H24 C21 1_555 1_555
H25 C23 1_555 1_555
H26 C24 1_555 1_555
H27 C25 1_555 1_555
H28 C26 1_555 1_555
H29 C27 1_555 1_555
P2 N3 1_555 1_555
C8 C9 1_555 1_555
C14 C15 1_555 1_555

#END
