
#######################################################################
#
#                 Cambridge Crystallographic Data Centre
#                                CCDC 
#
#######################################################################
#
# If this CIF has been generated from an entry in the Cambridge 
# Structural Database, then it will include bibliographic, chemical, 
# crystal, experimental, refinement or atomic coordinate data resulting 
# from the CCDC's data processing and validation procedures.
#
#######################################################################

data_PITPIU
_chemical_formula_moiety         'C30 H36 N2 O3 S1'
_chemical_name_systematic        
N-benzyl-N-[1-(1-benzyl-3-methyl-2-oxo-2,3-dihydro-1H-indol-3-yl)-3-hydroxypropan-2-yl]-2-methylpropane-2-sulfinamide
_symmetry_cell_setting           orthorhombic
_symmetry_space_group_name_H-M   'P 21 21 21'
_symmetry_Int_Tables_number      19
_space_group_name_Hall           'P 2ac 2ab'
loop_
_symmetry_equiv_pos_site_id
_symmetry_equiv_pos_as_xyz
1 x,y,z
2 1/2+x,1/2-y,-z
3 -x,1/2+y,1/2-z
4 1/2-x,-y,1/2+z
_cell_length_a                   11.9046(17)
_cell_length_b                   12.6632(18)
_cell_length_c                   18.593(3)
_cell_angle_alpha                90
_cell_angle_beta                 90
_cell_angle_gamma                90
_cell_volume                     2802.9
_exptl_crystal_colour            colorless
_exptl_crystal_description       block
_cell_formula_units_Z            4
loop_
_atom_site_label
_atom_site_type_symbol
_atom_site_fract_x
_atom_site_fract_y
_atom_site_fract_z
S1 S 0.49880(3) 1.02645(2) 0.315952(16)
O1 O 0.49078(9) 1.14283(8) 0.32995(6)
O2 O 0.07792(9) 1.10686(8) 0.25510(6)
O3 O 0.37777(12) 0.76002(8) 0.26556(6)
H1 H 0.4160 0.7103 0.2484
N1 N 0.37068(9) 0.97119(9) 0.32425(6)
N2 N 0.03961(10) 0.94528(10) 0.20342(6)
C1 C 0.03388(15) 0.82637(14) 0.46019(9)
H2 H -0.0220 0.7831 0.4817
C2 C 0.13450(17) 0.78277(14) 0.43817(9)
H3 H 0.1469 0.7091 0.4436
C3 C 0.21795(14) 0.84602(12) 0.40801(8)
H4 H 0.2871 0.8154 0.3932
C4 C 0.20011(11) 0.95403(11) 0.39953(7)
C5 C 0.28948(11) 1.02766(11) 0.37016(7)
H5 H 0.2531 1.0843 0.3418
H6 H 0.3299 1.0611 0.4107
C6 C 0.32149(11) 0.94050(10) 0.25343(7)
H7 H 0.2441 0.9132 0.2631
C7 C 0.30922(11) 1.03462(11) 0.20085(7)
H8 H 0.3155 1.1011 0.2285
H9 H 0.3724 1.0327 0.1662
C8 C 0.19761(12) 1.03630(11) 0.15825(7)
C9 C 0.09904(12) 1.03714(11) 0.21185(8)
C10 C -0.06010(13) 0.91762(13) 0.24516(8)
H10 H -0.0639 0.9631 0.2884
H11 H -0.0539 0.8434 0.2614
C11 C -0.16667(12) 0.93070(11) 0.20204(8)
C12 C -0.20220(13) 1.03026(12) 0.18012(9)
H12 H -0.1591 1.0907 0.1926
C13 C -0.29994(15) 1.04227(14) 0.14018(10)
H13 H -0.3242 1.1107 0.1262
C14 C -0.36199(14) 0.95403(15) 0.12080(9)
H14 H -0.4278 0.9620 0.0924
C15 C 0.01475(13) 0.93335(14) 0.45083(8)
H15 H -0.0547 0.9634 0.4654
C16 C 0.09714(13) 0.99693(12) 0.42004(8)
H16 H 0.0831 1.0700 0.4130
C17 C 0.57540(12) 0.97046(13) 0.39305(8)
C18 C 0.51837(15) 0.98991(14) 0.46501(8)
H17 H 0.4489 0.9486 0.4676
H18 H 0.5007 1.0652 0.4698
H19 H 0.5688 0.9685 0.5040
C19 C 0.68933(15) 1.02585(19) 0.38970(11)
H20 H 0.6795 1.1013 0.3996
H21 H 0.7219 1.0167 0.3417
H22 H 0.7398 0.9951 0.4257
C20 C 0.58754(17) 0.85299(15) 0.37656(10)
H23 H 0.6334 0.8194 0.4139
H24 H 0.6239 0.8440 0.3297
H25 H 0.5131 0.8200 0.3755
C21 C 0.08392(12) 0.88370(11) 0.14666(7)
C22 C 0.17666(13) 0.93546(11) 0.11706(7)
C23 C 0.23401(13) 0.89089(12) 0.06019(8)
H26 H 0.2969 0.9259 0.0397
C24 C 0.19836(14) 0.79378(13) 0.03325(8)
H27 H 0.2366 0.7624 -0.0062
C25 C 0.10703(15) 0.74292(13) 0.06410(9)
H28 H 0.0839 0.6767 0.0453
C26 C 0.04850(14) 0.78588(12) 0.12160(9)
H29 H -0.0131 0.7499 0.1429
C27 C -0.23133(13) 0.84274(12) 0.18345(9)
H30 H -0.2087 0.7744 0.1988
C28 C -0.32826(13) 0.85407(13) 0.14277(9)
H31 H -0.3714 0.7938 0.1300
C29 C 0.19174(15) 1.13537(12) 0.11100(9)
H32 H 0.2549 1.1355 0.0772
H33 H 0.1956 1.1984 0.1415
H34 H 0.1209 1.1355 0.0841
C30 C 0.38820(13) 0.85024(11) 0.22085(8)
H35 H 0.3594 0.8341 0.1721
H36 H 0.4682 0.8705 0.2166
loop_
_geom_bond_atom_site_label_1
_geom_bond_atom_site_label_2
_geom_bond_site_symmetry_1
_geom_bond_site_symmetry_2
S1 O1 1_555 1_555
O2 C9 1_555 1_555
O3 H1 1_555 1_555
N1 S1 1_555 1_555
N2 C9 1_555 1_555
C1 H2 1_555 1_555
C2 C1 1_555 1_555
H3 C2 1_555 1_555
C3 C2 1_555 1_555
H4 C3 1_555 1_555
C4 C3 1_555 1_555
C5 N1 1_555 1_555
H5 C5 1_555 1_555
H6 C5 1_555 1_555
C6 N1 1_555 1_555
H7 C6 1_555 1_555
C7 C6 1_555 1_555
H8 C7 1_555 1_555
H9 C7 1_555 1_555
C8 C7 1_555 1_555
C9 C8 1_555 1_555
C10 N2 1_555 1_555
H10 C10 1_555 1_555
H11 C10 1_555 1_555
C11 C10 1_555 1_555
C12 C11 1_555 1_555
H12 C12 1_555 1_555
C13 C12 1_555 1_555
H13 C13 1_555 1_555
C14 C13 1_555 1_555
H14 C14 1_555 1_555
C15 C1 1_555 1_555
H15 C15 1_555 1_555
C16 C4 1_555 1_555
H16 C16 1_555 1_555
C17 S1 1_555 1_555
C18 C17 1_555 1_555
H17 C18 1_555 1_555
H18 C18 1_555 1_555
H19 C18 1_555 1_555
C19 C17 1_555 1_555
H20 C19 1_555 1_555
H21 C19 1_555 1_555
H22 C19 1_555 1_555
C20 C17 1_555 1_555
H23 C20 1_555 1_555
H24 C20 1_555 1_555
H25 C20 1_555 1_555
C21 N2 1_555 1_555
C22 C8 1_555 1_555
C23 C22 1_555 1_555
H26 C23 1_555 1_555
C24 C23 1_555 1_555
H27 C24 1_555 1_555
C25 C24 1_555 1_555
H28 C25 1_555 1_555
C26 C21 1_555 1_555
H29 C26 1_555 1_555
C27 C11 1_555 1_555
H30 C27 1_555 1_555
C28 C14 1_555 1_555
H31 C28 1_555 1_555
C29 C8 1_555 1_555
H32 C29 1_555 1_555
H33 C29 1_555 1_555
H34 C29 1_555 1_555
C30 O3 1_555 1_555
H35 C30 1_555 1_555
H36 C30 1_555 1_555
C4 C5 1_555 1_555
C6 C30 1_555 1_555
C15 C16 1_555 1_555
C21 C22 1_555 1_555
C25 C26 1_555 1_555
C27 C28 1_555 1_555

#END
