
#######################################################################
#
#                 Cambridge Crystallographic Data Centre
#                                CCDC 
#
#######################################################################
#
# If this CIF has been generated from an entry in the Cambridge 
# Structural Database, then it will include bibliographic, chemical, 
# crystal, experimental, refinement or atomic coordinate data resulting 
# from the CCDC's data processing and validation procedures.
#
#######################################################################

data_PITSAN
_chemical_name_common            
'(2)-(24-(4-amino-2-methyl-1,5-pyridinium)-crown-6)-(acetylenedicarboxylate)-pseudorotaxane chloride bis(acetylenedicarboxylate) acetylenedicarboxylic acid decahydrate'
_chemical_formula_moiety         
'C36 H48 N18 6+,2.92(C4 O4 2-),0.16(C4 H2 O4),10(H2 O1),0.16(Cl1 1-)'
_chemical_name_systematic        
'(2)-(1^4^,3^4^,5^4^,7^4^,9^4^,11^4^-hexa-amino-1^2^,3^2^,5^2^,7^2^,9^2^,11^2^-hexamethyl-1,3,5,7,9,11(1,5)hexapyrimidiniocyclododecaphane)-(acetylenedicarboxylate)-pseudorotaxane chloride bis(acetylenedicarboxylate) acetylenedicarboxylic acid decahydrate'
_symmetry_cell_setting           triclinic
_symmetry_space_group_name_H-M   'P -1'
_symmetry_Int_Tables_number      2
_space_group_name_Hall           '-P 1'
loop_
_symmetry_equiv_pos_site_id
_symmetry_equiv_pos_as_xyz
1 x,y,z
2 -x,-y,-z
_cell_length_a                   13.543(3)
_cell_length_b                   14.354(8)
_cell_length_c                   17.484(8)
_cell_angle_alpha                74.35
_cell_angle_beta                 79.12
_cell_angle_gamma                69.770(10)
_cell_volume                     3053.74
_exptl_crystal_colour            colorless
_exptl_crystal_description       block
_cell_formula_units_Z            2
loop_
_atom_site_label
_atom_site_type_symbol
_atom_site_fract_x
_atom_site_fract_y
_atom_site_fract_z
O1 O 0.2668(6) 1.7004(6) 0.8834(6)
O2 O 0.3153(6) 1.8379(8) 0.8209(6)
C1 C 0.3268(11) 1.7457(14) 0.8365(9)
C2 C 0.4191(10) 1.6785(10) 0.7910(8)
C3 C 0.4847(11) 1.6303(10) 0.7489(8)
C4 C 0.5612(14) 1.5684(11) 0.7004(11)
O3 O 0.5279(7) 1.5501(7) 0.6457(7)
O4 O 0.6560(6) 1.5369(6) 0.7152(5)
O5 O 0.9847(9) 0.4495(9) 0.8932(8)
O6 O 0.8645(7) 0.4714(7) 0.8122(6)
C5 C 0.9564(16) 0.4366(12) 0.8324(11)
C6 C 1.0387(11) 0.3760(12) 0.7822(10)
C7 C 1.1066(12) 0.3292(10) 0.7441(11)
C8 C 1.1958(11) 0.2703(12) 0.6942(10)
O7 O 1.2073(6) 0.1770(7) 0.7051(5)
O8 O 1.2522(6) 0.3177(7) 0.6455(6)
O9 O 0.8043(9) 1.1654(10) 0.5854(6)
O10 O 0.7821(13) 1.0383(11) 0.5578(8)
C9 C 0.7904(12) 1.0791(13) 0.6047(11)
C10 C 0.7645(10) 1.0420(11) 0.6922(10)
C11 C 0.7393(10) 1.0154(11) 0.7595(10)
C12 C 0.7071(12) 0.9874(15) 0.8462(11)
O11 O 0.6171(10) 1.0428(10) 0.8670(6)
O12 O 0.7645(9) 0.9159(9) 0.8889(7)
O13 O 0.8409(7) 1.0701(7) 0.9194(5)
O14 O 1.2335(8) 1.1353(7) 0.9481(6)
O15 O 0.6589(7) 0.9121(7) 0.5792(5)
O16 O 0.2739(8) 0.8661(8) 0.5929(7)
O17 O 1.3163(8) 0.6359(10) 0.6365(7)
O18 O 0.6658(7) 0.5049(7) 1.0642(5)
O19 O 0.6079(8) 1.4755(8) 0.5143(6)
O20 O 0.2289(10) 1.3516(10) 0.9103(8)
O21 O 1.0993(18) 0.469(2) 0.9826(14)
O22 O 0.8136(10) 1.4852(10) 0.4377(9)
Cl1 Cl 0.840(3) 1.285(4) 0.451(2)
O23 O 0.890(3) 1.562(3) 0.479(2)
N1 N 0.6655(7) 1.3129(7) 0.7756(6)
C13 C 0.5883(9) 1.3484(9) 0.8317(8)
N2 N 0.4866(8) 1.3621(7) 0.8263(6)
C14 C 0.4659(9) 1.3430(9) 0.7588(9)
C15 C 0.5394(9) 1.3060(8) 0.7003(8)
C16 C 0.6436(9) 1.2912(8) 0.7100(8)
H1 H 0.6982 1.2668 0.6723
C17 C 0.6105(9) 1.3746(9) 0.9010(7)
H2 H 0.6655 1.3189 0.9271
H3 H 0.5476 1.3878 0.9377
H4 H 0.6329 1.4342 0.8834
N3 N 0.3610(7) 1.3561(7) 0.7577(6)
H5 H 0.3411 1.3410 0.7200
H6 H 0.3151 1.3794 0.7948
C18 C 0.5204(9) 1.2844(8) 0.6257(7)
H7 H 0.5845 1.2772 0.5889
H8 H 0.4653 1.3421 0.6003
N4 N 0.4879(7) 1.1880(7) 0.6407(7)
C19 C 0.4554(9) 1.1663(10) 0.5796(8)
N5 N 0.4215(7) 1.0874(8) 0.5889(6)
C20 C 0.4171(8) 1.0256(9) 0.6644(9)
C21 C 0.4500(8) 1.0448(8) 0.7297(8)
C22 C 0.4834(8) 1.1277(9) 0.7134(8)
H9 H 0.5042 1.1432 0.7550
C23 C 0.4558(10) 1.2333(10) 0.4979(8)
H10 H 0.4432 1.2010 0.4609
H11 H 0.5233 1.2446 0.4823
H12 H 0.4012 1.2973 0.4981
N6 N 0.3805(6) 0.9483(7) 0.6721(6)
H13 H 0.3612 0.9391 0.6314
H14 H 0.3762 0.9075 0.7179
C24 C 0.4352(9) 0.9905(8) 0.8143(7)
H15 H 0.3645 0.9845 0.8256
H16 H 0.4408 1.0310 0.8487
N7 N 0.5132(7) 0.8871(7) 0.8339(6)
C25 C 0.5073(9) 0.8295(10) 0.9091(8)
N8 N 0.5713(8) 0.7352(8) 0.9312(6)
C26 C 0.6449(9) 0.6937(9) 0.8754(8)
C27 C 0.6595(8) 0.7533(9) 0.7987(7)
C28 C 0.5915(8) 0.8484(8) 0.7783(7)
H17 H 0.5981 0.8874 0.7268
C29 C 0.4242(12) 0.8742(10) 0.9716(8)
H18 H 0.4348 0.8283 1.0228
H19 H 0.3552 0.8843 0.9581
H20 H 0.4300 0.9383 0.9735
N9 N 0.7040(7) 0.5977(7) 0.9001(6)
H21 H 0.6941 0.5660 0.9488
H22 H 0.7521 0.5673 0.8673
C30 C 0.7436(8) 0.7112(9) 0.7334(7)
H23 H 0.7389 0.6461 0.7309
H24 H 0.7285 0.7575 0.6821
N10 N 0.8552(7) 0.6970(7) 0.7477(7)
C31 C 0.9379(12) 0.6479(10) 0.6995(9)
N11 N 1.0390(8) 0.6288(7) 0.7108(7)
C32 C 1.0591(9) 0.6587(9) 0.7711(8)
C33 C 0.9780(9) 0.7061(8) 0.8260(7)
C34 C 0.8757(9) 0.7236(8) 0.8104(8)
H25 H 0.8193 0.7547 0.8441
C35 C 0.9180(8) 0.6144(9) 0.6332(8)
H26 H 0.9823 0.5969 0.5984
H27 H 0.8649 0.6685 0.6039
H28 H 0.8940 0.5560 0.6540
N12 N 1.1607(7) 0.6445(7) 0.7768(7)
H29 H 1.2094 0.6175 0.7428
H30 H 1.1772 0.6625 0.8146
C36 C 0.9949(9) 0.7319(9) 0.8986(7)
H31 H 1.0478 0.6744 0.9267
H32 H 0.9294 0.7432 0.9338
N13 N 1.0302(7) 0.8246(7) 0.8797(7)
C37 C 1.0621(10) 0.8455(10) 0.9422(9)
N14 N 1.0943(7) 0.9271(8) 0.9311(7)
C38 C 1.1035(9) 0.9822(9) 0.8556(9)
C39 C 1.0697(8) 0.9649(9) 0.7894(8)
C40 C 1.0341(8) 0.8831(9) 0.8067(8)
H33 H 1.0117 0.8676 0.7659
C41 C 1.0582(10) 0.7841(11) 1.0225(8)
H34 H 0.9905 0.7729 1.0370
H35 H 1.0684 0.8187 1.0588
H36 H 1.1130 0.7198 1.0250
N15 N 1.1403(6) 1.0615(7) 0.8457(6)
H37 H 1.1563 1.0744 0.8862
H38 H 1.1477 1.0990 0.7988
C42 C 1.0829(8) 1.0216(8) 0.7058(7)
H39 H 1.0730 0.9839 0.6710
H40 H 1.1553 1.0234 0.6936
N16 N 1.0102(7) 1.1285(7) 0.6860(6)
C43 C 1.0263(10) 1.1910(10) 0.6140(8)
N17 N 0.9674(8) 1.2839(8) 0.5944(6)
C44 C 0.8819(9) 1.3216(9) 0.6468(8)
C45 C 0.8614(8) 1.2617(9) 0.7215(7)
C46 C 0.9260(8) 1.1655(8) 0.7400(7)
H41 H 0.9141 1.1236 0.7892
C47 C 1.1169(11) 1.1496(10) 0.5547(7)
H42 H 1.1109 1.1970 0.5039
H43 H 1.1147 1.0857 0.5490
H44 H 1.1828 1.1397 0.5734
N18 N 0.8232(7) 1.4142(8) 0.6220(6)
H45 H 0.8385 1.4484 0.5754
H46 H 0.7688 1.4416 0.6522
C48 C 0.7788(8) 1.2992(8) 0.7873(7)
H47 H 0.7827 1.3639 0.7913
H48 H 0.7960 1.2513 0.8376
O24? O 1.029(2) 1.145(2) 0.3511(18)
O25? O 0.890(2) 1.227(2) 0.450(2)
C49? C 0.958(3) 1.1495(15) 0.424(2)
C50? C 0.989(3) 1.0419(12) 0.4780(19)
O26? O 1.0038(17) 0.8650(17) 0.6268(14)
loop_
_geom_bond_atom_site_label_1
_geom_bond_atom_site_label_2
_geom_bond_site_symmetry_1
_geom_bond_site_symmetry_2
O1 C1 1_555 1_555
O2 C1 1_555 1_555
C1 C2 1_555 1_555
C2 C3 1_555 1_555
C3 C4 1_555 1_555
C4 O3 1_555 1_555
O4 C4 1_555 1_555
O5 C5 1_555 1_555
O6 C5 1_555 1_555
C5 C6 1_555 1_555
C6 C7 1_555 1_555
C7 C8 1_555 1_555
C8 O7 1_555 1_555
O8 C8 1_555 1_555
O9 C9 1_555 1_555
O10 C9 1_555 1_555
C9 C10 1_555 1_555
C10 C11 1_555 1_555
C11 C12 1_555 1_555
C12 O11 1_555 1_555
O12 C12 1_555 1_555
N1 C13 1_555 1_555
C13 N2 1_555 1_555
N2 C14 1_555 1_555
C14 C15 1_555 1_555
C15 C16 1_555 1_555
C16 N1 1_555 1_555
H1 C16 1_555 1_555
C17 C13 1_555 1_555
H2 C17 1_555 1_555
H3 C17 1_555 1_555
H4 C17 1_555 1_555
N3 C14 1_555 1_555
H5 N3 1_555 1_555
H6 N3 1_555 1_555
C18 C15 1_555 1_555
H7 C18 1_555 1_555
H8 C18 1_555 1_555
N4 C18 1_555 1_555
C19 N4 1_555 1_555
N5 C19 1_555 1_555
C20 N5 1_555 1_555
C21 C20 1_555 1_555
C22 N4 1_555 1_555
H9 C22 1_555 1_555
C23 C19 1_555 1_555
H10 C23 1_555 1_555
H11 C23 1_555 1_555
H12 C23 1_555 1_555
N6 C20 1_555 1_555
H13 N6 1_555 1_555
H14 N6 1_555 1_555
C24 C21 1_555 1_555
H15 C24 1_555 1_555
H16 C24 1_555 1_555
N7 C24 1_555 1_555
C25 N7 1_555 1_555
N8 C25 1_555 1_555
C26 N8 1_555 1_555
C27 C26 1_555 1_555
C28 N7 1_555 1_555
H17 C28 1_555 1_555
C29 C25 1_555 1_555
H18 C29 1_555 1_555
H19 C29 1_555 1_555
H20 C29 1_555 1_555
N9 C26 1_555 1_555
H21 N9 1_555 1_555
H22 N9 1_555 1_555
C30 C27 1_555 1_555
H23 C30 1_555 1_555
H24 C30 1_555 1_555
N10 C30 1_555 1_555
C31 N10 1_555 1_555
N11 C31 1_555 1_555
C32 N11 1_555 1_555
C33 C32 1_555 1_555
C34 N10 1_555 1_555
H25 C34 1_555 1_555
C35 C31 1_555 1_555
H26 C35 1_555 1_555
H27 C35 1_555 1_555
H28 C35 1_555 1_555
N12 C32 1_555 1_555
H29 N12 1_555 1_555
H30 N12 1_555 1_555
C36 C33 1_555 1_555
H31 C36 1_555 1_555
H32 C36 1_555 1_555
N13 C36 1_555 1_555
C37 N13 1_555 1_555
N14 C37 1_555 1_555
C38 N14 1_555 1_555
C39 C38 1_555 1_555
C40 N13 1_555 1_555
H33 C40 1_555 1_555
C41 C37 1_555 1_555
H34 C41 1_555 1_555
H35 C41 1_555 1_555
H36 C41 1_555 1_555
N15 C38 1_555 1_555
H37 N15 1_555 1_555
H38 N15 1_555 1_555
C42 C39 1_555 1_555
H39 C42 1_555 1_555
H40 C42 1_555 1_555
N16 C42 1_555 1_555
C43 N16 1_555 1_555
N17 C43 1_555 1_555
C44 N17 1_555 1_555
C45 C44 1_555 1_555
C46 N16 1_555 1_555
H41 C46 1_555 1_555
C47 C43 1_555 1_555
H42 C47 1_555 1_555
H43 C47 1_555 1_555
H44 C47 1_555 1_555
N18 C44 1_555 1_555
H45 N18 1_555 1_555
H46 N18 1_555 1_555
C48 N1 1_555 1_555
H47 C48 1_555 1_555
H48 C48 1_555 1_555
C21 C22 1_555 1_555
C27 C28 1_555 1_555
C33 C34 1_555 1_555
C39 C40 1_555 1_555
C45 C46 1_555 1_555
C45 C48 1_555 1_555

#END
