
#######################################################################
#
#                 Cambridge Crystallographic Data Centre
#                                CCDC 
#
#######################################################################
#
# If this CIF has been generated from an entry in the Cambridge 
# Structural Database, then it will include bibliographic, chemical, 
# crystal, experimental, refinement or atomic coordinate data resulting 
# from the CCDC's data processing and validation procedures.
#
#######################################################################

data_PIVBIG
_chemical_formula_moiety         'C19 H24 O2 Si1'
_chemical_name_systematic        
(5E)-1,3,4,4a,5,6-Hexahydro-5-((trimethylsilyl)methylene)-7-phenylcyclopenta(c)pyran-4a-carbaldehdye
_symmetry_cell_setting           orthorhombic
_symmetry_space_group_name_H-M   'P b c a'
_symmetry_Int_Tables_number      61
_space_group_name_Hall           '-P 2ac 2ab'
loop_
_symmetry_equiv_pos_site_id
_symmetry_equiv_pos_as_xyz
1 x,y,z
2 1/2-x,-y,1/2+z
3 -x,1/2+y,1/2-z
4 1/2+x,1/2-y,-z
5 -x,-y,-z
6 1/2+x,y,1/2-z
7 x,1/2-y,1/2+z
8 1/2-x,1/2+y,z
_cell_length_a                   7.6498(4)
_cell_length_b                   16.9929(10)
_cell_length_c                   27.4065(17)
_cell_angle_alpha                90
_cell_angle_beta                 90
_cell_angle_gamma                90
_cell_volume                     3562.63
_exptl_crystal_colour            colorless
_exptl_crystal_description       columnar
_cell_formula_units_Z            8
loop_
_atom_site_label
_atom_site_type_symbol
_atom_site_fract_x
_atom_site_fract_y
_atom_site_fract_z
Si1 Si 0.1229(2) 0.34440(8) 0.03202(5)
O1 O -0.0983(6) 0.0642(3) 0.1134(2)
O2 O 0.3364(4) 0.07155(17) 0.20646(12)
C1 C 0.0664(6) 0.2642(3) 0.29236(18)
H1 H 0.0265 0.2125 0.2919
C2 C 0.0673(6) 0.3050(3) 0.33587(18)
H2 H 0.0285 0.2807 0.3643
C3 C 0.1251(7) 0.3814(3) 0.3374(2)
H3 H 0.1256 0.4089 0.3667
C4 C 0.1820(7) 0.4165(3) 0.2955(2)
H4 H 0.2214 0.4682 0.2963
C5 C 0.1812(6) 0.3757(3) 0.25234(19)
H5 H 0.2204 0.4008 0.2242
C6 C 0.1239(5) 0.2987(3) 0.24921(16)
C7 C 0.1192(6) 0.2572(3) 0.20225(17)
C8 C 0.1381(6) 0.1792(3) 0.19371(16)
C9 C 0.1929(6) 0.1142(3) 0.22712(18)
H6 H 0.2270 0.1359 0.2584
H7 H 0.0953 0.0787 0.2324
C10 C 0.2950(8) 0.0394(3) 0.15975(18)
H8 H 0.1924 0.0062 0.1625
H9 H 0.3914 0.0069 0.1486
C11 C 0.2606(7) 0.1035(2) 0.12273(18)
H10 H 0.2265 0.0800 0.0919
H11 H 0.3667 0.1335 0.1174
C12 C 0.1163(6) 0.1583(2) 0.14036(17)
C13 C -0.0648(8) 0.1225(3) 0.1334(2)
H12 H -0.1583 0.1503 0.1466
C14 C 0.1094(6) 0.2395(2) 0.11558(18)
C15 C 0.0898(7) 0.3005(3) 0.15473(16)
H13 H -0.0262 0.3234 0.1539
H14 H 0.1754 0.3420 0.1506
C16 C 0.1207(7) 0.2506(3) 0.06756(19)
H15 H 0.1286 0.2049 0.0490
C17 C 0.1170(12) 0.3162(5) -0.0330(2)
C18 C -0.0703(9) 0.4058(3) 0.0467(2)
H16 H -0.1750 0.3766 0.0401
H17 H -0.0686 0.4525 0.0270
H18 H -0.0674 0.4201 0.0805
C19 C 0.3276(8) 0.3999(3) 0.0436(2)
H19 H 0.4263 0.3674 0.0357
H20 H 0.3329 0.4146 0.0774
H21 H 0.3295 0.4463 0.0237
H22 H 0.128(7) 0.357(4) -0.048(2)
H23 H 0.022(10) 0.283(4) -0.041(2)
H24 H 0.209(10) 0.284(4) -0.041(2)
loop_
_geom_bond_atom_site_label_1
_geom_bond_atom_site_label_2
_geom_bond_site_symmetry_1
_geom_bond_site_symmetry_2
Si1 C16 1_555 1_555
O1 C13 1_555 1_555
O2 C9 1_555 1_555
C1 H1 1_555 1_555
C2 C1 1_555 1_555
H2 C2 1_555 1_555
C3 C2 1_555 1_555
H3 C3 1_555 1_555
C4 C3 1_555 1_555
H4 C4 1_555 1_555
C5 C4 1_555 1_555
H5 C5 1_555 1_555
C6 C1 1_555 1_555
C7 C6 1_555 1_555
C8 C7 1_555 1_555
C9 C8 1_555 1_555
H6 C9 1_555 1_555
H7 C9 1_555 1_555
C10 O2 1_555 1_555
H8 C10 1_555 1_555
H9 C10 1_555 1_555
C11 C10 1_555 1_555
H10 C11 1_555 1_555
H11 C11 1_555 1_555
C12 C8 1_555 1_555
C13 C12 1_555 1_555
H12 C13 1_555 1_555
C14 C12 1_555 1_555
C15 C7 1_555 1_555
H13 C15 1_555 1_555
H14 C15 1_555 1_555
C16 C14 1_555 1_555
H15 C16 1_555 1_555
C17 Si1 1_555 1_555
C18 Si1 1_555 1_555
H16 C18 1_555 1_555
H17 C18 1_555 1_555
H18 C18 1_555 1_555
C19 Si1 1_555 1_555
H19 C19 1_555 1_555
H20 C19 1_555 1_555
H21 C19 1_555 1_555
H22 C17 1_555 1_555
H23 C17 1_555 1_555
H24 C17 1_555 1_555
C5 C6 1_555 1_555
C11 C12 1_555 1_555
C14 C15 1_555 1_555

#END
