
#######################################################################
#
#                 Cambridge Crystallographic Data Centre
#                                CCDC 
#
#######################################################################
#
# If this CIF has been generated from an entry in the Cambridge 
# Structural Database, then it will include bibliographic, chemical, 
# crystal, experimental, refinement or atomic coordinate data resulting 
# from the CCDC's data processing and validation procedures.
#
#######################################################################

data_PIVBAY
_chemical_formula_moiety         'C38 H56 S2'
_chemical_name_systematic        
2,7-Didodecyl-benzothieno(3,2-b)benzothiophene
_symmetry_cell_setting           monoclinic
_symmetry_space_group_name_H-M   'P 21/a'
_symmetry_Int_Tables_number      14
_space_group_name_Hall           '-P 2yab'
loop_
_symmetry_equiv_pos_site_id
_symmetry_equiv_pos_as_xyz
1 x,y,z
2 1/2-x,1/2+y,-z
3 -x,-y,-z
4 1/2+x,1/2-y,z
_cell_length_a                   5.864(5)
_cell_length_b                   7.740(7)
_cell_length_c                   37.91(3)
_cell_angle_alpha                90
_cell_angle_beta                 90.589(3)
_cell_angle_gamma                90
_cell_volume                     1720.54
_exptl_crystal_colour            colorless
_exptl_crystal_description       Platelet
_cell_formula_units_Z            2
loop_
_atom_site_label
_atom_site_type_symbol
_atom_site_fract_x
_atom_site_fract_y
_atom_site_fract_z
S1 S 0.78406(11) 0.11205(9) 0.476421(19)
C1 C 0.5993(4) 0.0497(3) 0.44245(7)
C2 C 0.6346(4) 0.0769(4) 0.40677(8)
C3 C 0.4717(5) 0.0204(4) 0.38262(8)
C4 C 0.2777(5) -0.0644(4) 0.39500(8)
C5 C 0.2415(4) -0.0906(3) 0.43041(8)
C6 C 0.4006(4) -0.0315(3) 0.45501(7)
C7 C 0.5958(4) 0.0362(3) 0.50756(7)
C8 C 0.4982(5) 0.0593(4) 0.34399(8)
C9 C 0.6958(6) -0.0247(4) 0.32563(9)
C10 C 0.7217(6) 0.0349(4) 0.28781(9)
C11 C 0.9200(6) -0.0395(4) 0.26827(9)
C12 C 0.9447(6) 0.0306(5) 0.23131(9)
C13 C 1.1418(7) -0.0401(5) 0.21086(10)
C14 C 1.1638(7) 0.0333(5) 0.17430(10)
C15 C 1.3578(7) -0.0386(5) 0.15299(10)
C16 C 1.3785(7) 0.0359(6) 0.11673(11)
C17 C 1.5699(8) -0.0358(6) 0.09522(11)
C18 C 1.5874(9) 0.0382(7) 0.05879(12)
C19 C 1.7736(10) -0.0326(9) 0.03636(14)
H1 H 0.7698 0.1337 0.3990
H2 H 0.1677 -0.1083 0.3782
H3 H 0.1034 -0.1495 0.4379
H4 H 0.3593 0.0235 0.3318
H5 H 0.5115 0.1817 0.3408
H6 H 0.8316 -0.0005 0.3388
H7 H 0.6730 -0.1484 0.3260
H8 H 0.5858 0.0074 0.2750
H9 H 0.7394 0.1581 0.2880
H10 H 1.0566 -0.0170 0.2817
H11 H 0.9005 -0.1632 0.2673
H12 H 0.8081 0.0079 0.2182
H13 H 0.9652 0.1535 0.2325
H14 H 1.2793 -0.0219 0.2242
H15 H 1.1211 -0.1653 0.2092
H16 H 1.0241 0.0153 0.1614
H17 H 1.1862 0.1566 0.1763
H18 H 1.4939 -0.0196 0.1662
H19 H 1.3319 -0.1611 0.1514
H20 H 1.2366 0.0182 0.1040
H21 H 1.3990 0.1595 0.1188
H22 H 1.7096 -0.0157 0.1077
H23 H 1.5481 -0.1587 0.0934
H24 H 1.4395 0.0248 0.0466
H25 H 1.6087 0.1634 0.0606
H26 H 1.7433 -0.1555 0.0334
H27 H 1.7695 0.0186 0.0135
H28 H 1.9126 -0.0169 0.0474
S1B S 0.21594(11) -0.11205(9) 0.523579(19)
C1B C 0.4007(4) -0.0497(3) 0.55755(7)
C2B C 0.3654(4) -0.0769(4) 0.59323(8)
C3B C 0.5283(5) -0.0204(4) 0.61738(8)
C4B C 0.7223(5) 0.0644(4) 0.60500(8)
C5B C 0.7585(4) 0.0906(3) 0.56959(8)
C6B C 0.5994(4) 0.0315(3) 0.54499(7)
C7B C 0.4042(4) -0.0362(3) 0.49244(7)
C8B C 0.5018(5) -0.0593(4) 0.65601(8)
C9B C 0.3042(6) 0.0247(4) 0.67437(9)
C10B C 0.2783(6) -0.0349(4) 0.71219(9)
C11B C 0.0800(6) 0.0395(4) 0.73173(9)
C12B C 0.0553(6) -0.0306(5) 0.76869(9)
C13B C -0.1418(7) 0.0401(5) 0.78914(10)
C14B C -0.1638(7) -0.0333(5) 0.82570(10)
C15B C -0.3578(7) 0.0386(5) 0.84701(10)
C16B C -0.3785(7) -0.0359(6) 0.88327(11)
C17B C -0.5699(8) 0.0358(6) 0.90478(11)
C18B C -0.5874(9) -0.0382(7) 0.94121(12)
C19B C -0.7736(10) 0.0326(9) 0.96364(14)
H1B H 0.2302 -0.1337 0.6010
H2B H 0.8323 0.1083 0.6218
H3B H 0.8966 0.1495 0.5621
H4B H 0.6407 -0.0235 0.6682
H5B H 0.4885 -0.1817 0.6592
H6B H 0.1684 0.0005 0.6612
H7B H 0.3270 0.1484 0.6740
H8B H 0.4142 -0.0074 0.7250
H9B H 0.2606 -0.1581 0.7120
H10B H -0.0566 0.0170 0.7183
H11B H 0.0995 0.1632 0.7327
H12B H 0.1919 -0.0079 0.7818
H13B H 0.0348 -0.1535 0.7675
H14B H -0.2793 0.0219 0.7758
H15B H -0.1211 0.1653 0.7908
H16B H -0.0241 -0.0153 0.8386
H17B H -0.1862 -0.1566 0.8237
H18B H -0.4939 0.0196 0.8338
H19B H -0.3319 0.1611 0.8486
H20B H -0.2366 -0.0182 0.8960
H21B H -0.3990 -0.1595 0.8812
H22B H -0.7096 0.0157 0.8923
H23B H -0.5481 0.1587 0.9066
H24B H -0.4395 -0.0248 0.9534
H25B H -0.6087 -0.1634 0.9394
H26B H -0.7433 0.1555 0.9666
H27B H -0.7695 -0.0186 0.9865
H28B H -0.9126 0.0169 0.9526
loop_
_geom_bond_atom_site_label_1
_geom_bond_atom_site_label_2
_geom_bond_site_symmetry_1
_geom_bond_site_symmetry_2
S1 C1 1_555 1_555
C1 C2 1_555 1_555
C2 C3 1_555 1_555
C3 C4 1_555 1_555
C4 C5 1_555 1_555
C5 C6 1_555 1_555
C6 C1 1_555 1_555
C7 S1 1_555 1_555
C8 C3 1_555 1_555
C9 C8 1_555 1_555
C10 C9 1_555 1_555
C11 C10 1_555 1_555
C12 C11 1_555 1_555
C13 C12 1_555 1_555
C14 C13 1_555 1_555
C15 C14 1_555 1_555
C16 C15 1_555 1_555
C17 C16 1_555 1_555
C18 C17 1_555 1_555
C19 C18 1_555 1_555
H1 C2 1_555 1_555
H2 C4 1_555 1_555
H3 C5 1_555 1_555
H4 C8 1_555 1_555
H5 C8 1_555 1_555
H6 C9 1_555 1_555
H7 C9 1_555 1_555
H8 C10 1_555 1_555
H9 C10 1_555 1_555
H10 C11 1_555 1_555
H11 C11 1_555 1_555
H12 C12 1_555 1_555
H13 C12 1_555 1_555
H14 C13 1_555 1_555
H15 C13 1_555 1_555
H16 C14 1_555 1_555
H17 C14 1_555 1_555
H18 C15 1_555 1_555
H19 C15 1_555 1_555
H20 C16 1_555 1_555
H21 C16 1_555 1_555
H22 C17 1_555 1_555
H23 C17 1_555 1_555
H24 C18 1_555 1_555
H25 C18 1_555 1_555
H26 C19 1_555 1_555
H27 C19 1_555 1_555
H28 C19 1_555 1_555
S1B C1B 1_555 1_555
C1B C2B 1_555 1_555
C2B C3B 1_555 1_555
C3B C4B 1_555 1_555
C4B C5B 1_555 1_555
C5B C6B 1_555 1_555
C6B C7 1_555 1_555
C7B C6 1_555 1_555
C8B C3B 1_555 1_555
C9B C8B 1_555 1_555
C10B C9B 1_555 1_555
C11B C10B 1_555 1_555
C12B C11B 1_555 1_555
C13B C12B 1_555 1_555
C14B C13B 1_555 1_555
C15B C14B 1_555 1_555
C16B C15B 1_555 1_555
C17B C16B 1_555 1_555
C18B C17B 1_555 1_555
C19B C18B 1_555 1_555
H1B C2B 1_555 1_555
H2B C4B 1_555 1_555
H3B C5B 1_555 1_555
H4B C8B 1_555 1_555
H5B C8B 1_555 1_555
H6B C9B 1_555 1_555
H7B C9B 1_555 1_555
H8B C10B 1_555 1_555
H9B C10B 1_555 1_555
H10B C11B 1_555 1_555
H11B C11B 1_555 1_555
H12B C12B 1_555 1_555
H13B C12B 1_555 1_555
H14B C13B 1_555 1_555
H15B C13B 1_555 1_555
H16B C14B 1_555 1_555
H17B C14B 1_555 1_555
H18B C15B 1_555 1_555
H19B C15B 1_555 1_555
H20B C16B 1_555 1_555
H21B C16B 1_555 1_555
H22B C17B 1_555 1_555
H23B C17B 1_555 1_555
H24B C18B 1_555 1_555
H25B C18B 1_555 1_555
H26B C19B 1_555 1_555
H27B C19B 1_555 1_555
H28B C19B 1_555 1_555
C7 C7B 1_555 1_555
S1B C7B 1_555 1_555
C1B C6B 1_555 1_555

#END
