
#######################################################################
#
#                 Cambridge Crystallographic Data Centre
#                                CCDC 
#
#######################################################################
#
# If this CIF has been generated from an entry in the Cambridge 
# Structural Database, then it will include bibliographic, chemical, 
# crystal, experimental, refinement or atomic coordinate data resulting 
# from the CCDC's data processing and validation procedures.
#
#######################################################################

data_PIVDOO
_chemical_formula_moiety         'C15 H10 N4 O1,0.5(C15 H12 N4)'
_chemical_name_systematic        
'bis(Benzimidazol-2-yl)methanone hemikis(bis(benzimidazol-2-yl)methane)'
_symmetry_cell_setting           monoclinic
_symmetry_space_group_name_H-M   'C 2'
_symmetry_Int_Tables_number      5
_space_group_name_Hall           'C 2y'
loop_
_symmetry_equiv_pos_site_id
_symmetry_equiv_pos_as_xyz
1 x,y,z
2 -x,y,-z
3 1/2+x,1/2+y,z
4 1/2-x,1/2+y,-z
_cell_length_a                   24.829(5)
_cell_length_b                   5.7159(11)
_cell_length_c                   13.147(3)
_cell_angle_alpha                90
_cell_angle_beta                 93.91(3)
_cell_angle_gamma                90
_cell_volume                     1861.48
_exptl_crystal_colour            'light yellow'
_exptl_crystal_description       prismatic
_cell_formula_units_Z            4
loop_
_atom_site_label
_atom_site_type_symbol
_atom_site_fract_x
_atom_site_fract_y
_atom_site_fract_z
N1 N 0.18486(14) 0.7162(7) 0.2434(3)
N2 N 0.12845(15) 0.7480(8) 0.1036(3)
N3 N 0.16733(17) 0.3752(8) 0.3823(3)
N4 N 0.10207(15) 0.1127(7) 0.3464(3)
O1 O 0.07262(14) 0.3565(7) 0.1647(2)
C1 C 0.16558(18) 0.9244(8) 0.0985(3)
C2 C 0.1717(2) 1.1022(10) 0.0274(4)
H1 H 0.1483 1.1169 -0.0306
C3 C 0.2138(2) 1.2538(11) 0.0470(4)
H2 H 0.2189 1.3752 0.0015
C4 C 0.2491(2) 1.2313(10) 0.1326(4)
H3 H 0.2775 1.3366 0.1425
C5 C 0.2434(2) 1.0583(9) 0.2033(4)
H4 H 0.2672 1.0454 0.2608
C6 C 0.20072(18) 0.9031(9) 0.1859(3)
C7 C 0.14208(18) 0.6305(9) 0.1914(3)
C8 C 0.11078(17) 0.4266(9) 0.2202(3)
C9 C 0.12625(18) 0.3046(8) 0.3165(3)
C10 C 0.17123(18) 0.2196(8) 0.4623(3)
C11 C 0.2051(2) 0.2104(10) 0.5504(3)
H5 H 0.2320 0.3211 0.5648
C12 C 0.1964(2) 0.0273(10) 0.6154(4)
H6 H 0.2183 0.0116 0.6752
C13 C 0.1557(2) -0.1337(11) 0.5932(4)
H7 H 0.1507 -0.2530 0.6397
C14 C 0.1225(2) -0.1250(10) 0.5059(4)
H8 H 0.0959 -0.2370 0.4919
C15 C 0.13025(18) 0.0581(8) 0.4390(3)
H14 H 0.095(2) 0.734(14) 0.053(5)
H15 H 0.185(2) 0.494(11) 0.370(4)
N5 N 1.00556(17) 0.9206(8) 0.1799(3)
N6 N 0.94495(17) 0.7606(9) 0.0708(3)
C16 C 0.98178(18) 0.7476(10) 0.2338(3)
C17 C 0.9901(2) 0.6665(12) 0.3331(4)
H9 H 1.0149 0.7373 0.3797
C18 C 0.9600(3) 0.4759(13) 0.3594(5)
H10 H 0.9652 0.4148 0.4249
C19 C 0.9228(3) 0.3745(12) 0.2918(5)
H11 H 0.9033 0.2461 0.3124
C20 C 0.9135(2) 0.4573(12) 0.1943(5)
H12 H 0.8877 0.3886 0.1491
C21 C 0.9436(2) 0.6459(9) 0.1652(4)
C22 C 0.98261(19) 0.9220(10) 0.0843(4)
C23 C 1.0000 1.0728(15) 0.0000
H13 H 1.0299(19) 1.215(11) 0.029(4)
H16 H 1.034(2) 1.007(11) 0.206(4)
N5A N 0.99444(17) 0.9206(8) -0.1799(3)
N6A N 1.05505(17) 0.7606(9) -0.0708(3)
C16A C 1.01822(18) 0.7476(10) -0.2338(3)
C17A C 1.0099(2) 0.6665(12) -0.3331(4)
H9A H 0.9851 0.7373 -0.3797
C18A C 1.0400(3) 0.4759(13) -0.3594(5)
H10A H 1.0348 0.4148 -0.4249
C19A C 1.0772(3) 0.3745(12) -0.2918(5)
H11A H 1.0967 0.2461 -0.3124
C20A C 1.0865(2) 0.4573(12) -0.1943(5)
H12A H 1.1123 0.3886 -0.1491
C21A C 1.0564(2) 0.6459(9) -0.1652(4)
C22A C 1.01739(19) 0.9220(10) -0.0843(4)
H13A H 0.9701(19) 1.215(11) -0.029(4)
H16A H 0.966(2) 1.007(11) -0.206(4)
loop_
_geom_bond_atom_site_label_1
_geom_bond_atom_site_label_2
_geom_bond_site_symmetry_1
_geom_bond_site_symmetry_2
N1 C6 1_555 1_555
N2 C1 1_555 1_555
N3 C9 1_555 1_555
N4 C9 1_555 1_555
N5 C16 1_555 1_555
N6 C21 1_555 1_555
O1 C8 1_555 1_555
C1 C2 1_555 1_555
C2 H1 1_555 1_555
C3 C2 1_555 1_555
H2 C3 1_555 1_555
C4 C3 1_555 1_555
H3 C4 1_555 1_555
C5 C4 1_555 1_555
H4 C5 1_555 1_555
C6 C1 1_555 1_555
C7 N1 1_555 1_555
C8 C7 1_555 1_555
C9 C8 1_555 1_555
C10 N3 1_555 1_555
C11 C10 1_555 1_555
H5 C11 1_555 1_555
C12 C11 1_555 1_555
H6 C12 1_555 1_555
C13 C12 1_555 1_555
H7 C13 1_555 1_555
C14 C13 1_555 1_555
H8 C14 1_555 1_555
C15 N4 1_555 1_555
C16 C17 1_555 1_555
C17 H9 1_555 1_555
C18 C17 1_555 1_555
H10 C18 1_555 1_555
C19 C18 1_555 1_555
H11 C19 1_555 1_555
C20 C19 1_555 1_555
H12 C20 1_555 1_555
C21 C16 1_555 1_555
C22 N5 1_555 1_555
C23 C22 1_555 1_555
H13 C23 1_555 1_555
H14 N2 1_555 1_555
H15 N3 1_555 1_555
H16 N5 1_555 1_555
N5A C16A 1_555 1_555
N6A C21A 1_555 1_555
C16A C17A 1_555 1_555
C17A H9A 1_555 1_555
C18A C17A 1_555 1_555
H10A C18A 1_555 1_555
C19A C18A 1_555 1_555
H11A C19A 1_555 1_555
C20A C19A 1_555 1_555
H12A C20A 1_555 1_555
C21A C16A 1_555 1_555
C22A C23 1_555 1_555
H13A C23 1_555 1_555
H16A N5A 1_555 1_555
N2 C7 1_555 1_555
N6 C22 1_555 1_555
C5 C6 1_555 1_555
C10 C15 1_555 1_555
C14 C15 1_555 1_555
C20 C21 1_555 1_555
N5A C22A 1_555 1_555
N6A C22A 1_555 1_555
C20A C21A 1_555 1_555

#END
