
#######################################################################
#
#                 Cambridge Crystallographic Data Centre
#                                CCDC 
#
#######################################################################
#
# If this CIF has been generated from an entry in the Cambridge 
# Structural Database, then it will include bibliographic, chemical, 
# crystal, experimental, refinement or atomic coordinate data resulting 
# from the CCDC's data processing and validation procedures.
#
#######################################################################

data_PIVGOT
_chemical_formula_moiety         'C14 H18 N2 O2'
_chemical_name_systematic        
3-(benzylamino)-5-ethenyl-1-hydroxy-5-methylpyrrolidin-2-one
_symmetry_cell_setting           monoclinic
_symmetry_space_group_name_H-M   'P 21/c'
_symmetry_Int_Tables_number      14
_space_group_name_Hall           '-P 2ybc'
loop_
_symmetry_equiv_pos_site_id
_symmetry_equiv_pos_as_xyz
1 x,y,z
2 -x,1/2+y,1/2-z
3 -x,-y,-z
4 x,1/2-y,1/2+z
_cell_length_a                   11.2942(11)
_cell_length_b                   6.7605(6)
_cell_length_c                   18.7490(19)
_cell_angle_alpha                90
_cell_angle_beta                 102.899(3)
_cell_angle_gamma                90
_cell_volume                     1395.44
_exptl_crystal_colour            colorless
_exptl_crystal_description       prismatic
_cell_formula_units_Z            4
loop_
_atom_site_label
_atom_site_type_symbol
_atom_site_fract_x
_atom_site_fract_y
_atom_site_fract_z
O1 O 0.47487(9) 0.20293(15) 0.44878(5)
O2 O 0.29739(10) 0.48941(16) 0.39379(5)
H1 H 0.3586(17) 0.591(3) 0.3914(11)
N1 N 0.33287(11) 0.42891(17) 0.46621(6)
N2 N 0.53988(11) 0.21317(19) 0.60810(6)
H2 H 0.5701(13) 0.119(2) 0.5868(8)
C1 C 0.41367(12) 0.2841(2) 0.48668(7)
C2 C 0.41514(13) 0.2408(2) 0.56617(7)
H3 H 0.3685 0.1200 0.5691
C3 C 0.34825(13) 0.4172(2) 0.58958(8)
H4 H 0.4041 0.5241 0.6079
H5 H 0.3058 0.3795 0.6271
C4 C 0.25825(13) 0.4778(2) 0.51869(8)
C5 C 0.14556(15) 0.3518(3) 0.50654(10)
H6 H 0.0917 0.3778 0.5364
C6 C 0.11532(16) 0.2102(3) 0.45870(11)
H7 H 0.1659 0.1782 0.4275
H8 H 0.0431 0.1412 0.4558
C7 C 0.22628(16) 0.6967(2) 0.51542(10)
H9 H 0.1753 0.7270 0.4685
H10 H 0.2994 0.7737 0.5226
H11 H 0.1840 0.7274 0.5531
C8 C 0.54377(14) 0.1449(3) 0.68318(8)
H12 H 0.4939 0.0275 0.6816
H13 H 0.5109 0.2468 0.7097
C9 C 0.67138(14) 0.0987(2) 0.72227(8)
C10 C 0.71797(16) -0.0893(3) 0.71838(9)
H14 H 0.6692 -0.1878 0.6924
C11 C 0.83619(19) -0.1313(4) 0.75283(11)
H15 H 0.8666 -0.2582 0.7500
C12 C 0.90950(19) 0.0120(4) 0.79121(12)
H16 H 0.9891 -0.0174 0.8147
C13 C 0.86463(19) 0.1988(4) 0.79471(11)
H17 H 0.9142 0.2973 0.8201
C14 C 0.74607(17) 0.2416(3) 0.76064(9)
H18 H 0.7162 0.3688 0.7637
loop_
_geom_bond_atom_site_label_1
_geom_bond_atom_site_label_2
_geom_bond_site_symmetry_1
_geom_bond_site_symmetry_2
O1 C1 1_555 1_555
O2 H1 1_555 1_555
N1 O2 1_555 1_555
N2 H2 1_555 1_555
C1 N1 1_555 1_555
C2 N2 1_555 1_555
H3 C2 1_555 1_555
C3 C2 1_555 1_555
H4 C3 1_555 1_555
H5 C3 1_555 1_555
C4 N1 1_555 1_555
C5 C4 1_555 1_555
H6 C5 1_555 1_555
C6 C5 1_555 1_555
H7 C6 1_555 1_555
H8 C6 1_555 1_555
C7 C4 1_555 1_555
H9 C7 1_555 1_555
H10 C7 1_555 1_555
H11 C7 1_555 1_555
C8 N2 1_555 1_555
H12 C8 1_555 1_555
H13 C8 1_555 1_555
C9 C8 1_555 1_555
C10 C9 1_555 1_555
H14 C10 1_555 1_555
C11 C10 1_555 1_555
H15 C11 1_555 1_555
C12 C11 1_555 1_555
H16 C12 1_555 1_555
C13 C12 1_555 1_555
H17 C13 1_555 1_555
C14 C9 1_555 1_555
H18 C14 1_555 1_555
C1 C2 1_555 1_555
C3 C4 1_555 1_555
C13 C14 1_555 1_555

#END
