
#######################################################################
#
#                 Cambridge Crystallographic Data Centre
#                                CCDC 
#
#######################################################################
#
# If this CIF has been generated from an entry in the Cambridge 
# Structural Database, then it will include bibliographic, chemical, 
# crystal, experimental, refinement or atomic coordinate data resulting 
# from the CCDC's data processing and validation procedures.
#
#######################################################################

data_PIVPAO
_chemical_formula_moiety         'C29 H24 N2 O2 S1'
_chemical_name_systematic        
N-[2-([1,1'-biphenyl]-2-yl)-3-methylisoquinolin-1(2H)-ylidene]-4-methylbenzene-1-sulfonamide
_symmetry_cell_setting           monoclinic
_symmetry_space_group_name_H-M   'P 21/n'
_symmetry_Int_Tables_number      14
_space_group_name_Hall           '-P 2yn'
loop_
_symmetry_equiv_pos_site_id
_symmetry_equiv_pos_as_xyz
1 x,y,z
2 1/2-x,1/2+y,1/2-z
3 -x,-y,-z
4 1/2+x,1/2-y,1/2+z
_cell_length_a                   16.92875(16)
_cell_length_b                   16.93807(16)
_cell_length_c                   17.1386(2)
_cell_angle_alpha                90
_cell_angle_beta                 101.7085(11)
_cell_angle_gamma                90
_cell_volume                     4812.07
_exptl_crystal_colour            'light colorless'
_exptl_crystal_description       plate
_cell_formula_units_Z            8
loop_
_atom_site_label
_atom_site_type_symbol
_atom_site_fract_x
_atom_site_fract_y
_atom_site_fract_z
S1 S 0.90193(2) 0.64796(3) 0.38473(3)
O1 O 0.91392(9) 0.60280(9) 0.31725(10)
O2 O 0.95570(8) 0.63040(9) 0.45879(10)
N1 N 0.67778(8) 0.62192(8) 0.36556(8)
N2 N 0.81080(8) 0.65189(9) 0.39281(9)
C1 C 0.75593(9) 0.59494(10) 0.38373(9)
C2 C 0.66568(9) 0.70696(10) 0.35923(10)
C3 C 0.65310(10) 0.74337(11) 0.28523(11)
C4 C 0.76706(10) 0.51059(10) 0.39164(10)
C5 C 0.64928(11) 0.70020(11) 0.20854(11)
C6 C 0.85086(12) 0.39636(12) 0.43110(12)
H1 H 0.900601 0.374430 0.453731
C7 C 0.61015(10) 0.57270(11) 0.35048(11)
C8 C 0.84325(11) 0.47647(11) 0.42392(11)
H2 H 0.888047 0.508684 0.440199
C9 C 0.69975(11) 0.46069(11) 0.36979(11)
C10 C 0.92095(10) 0.74856(11) 0.36589(11)
C11 C 0.71233(13) 0.65380(13) 0.19412(12)
H3 H 0.757862 0.646051 0.234016
C12 C 0.66382(11) 0.74786(12) 0.42839(12)
H4 H 0.670546 0.721249 0.476756
C13 C 0.64146(12) 0.82532(12) 0.28411(13)
H5 H 0.633554 0.851997 0.235713
C14 C 0.62107(11) 0.49417(12) 0.34942(13)
H6 H 0.576570 0.461169 0.335165
C15 C 0.58164(12) 0.70957(13) 0.14775(12)
H7 H 0.538385 0.739487 0.156974
C16 C 0.78473(13) 0.34714(12) 0.40482(13)
H8 H 0.791129 0.292643 0.408335
C17 C 0.97127(14) 0.90359(13) 0.35280(13)
C18 C 0.64145(14) 0.86710(13) 0.35257(15)
H9 H 0.634399 0.921563 0.350134
C19 C 0.65187(13) 0.82879(13) 0.42546(14)
H10 H 0.650842 0.857060 0.471763
C20 C 0.70721(17) 0.61905(16) 0.12006(15)
H11 H 0.749407 0.587720 0.110628
C21 C 0.52872(10) 0.61087(13) 0.33724(14)
H12 H 0.525108 0.643481 0.382189
H13 H 0.487790 0.570821 0.331034
H14 H 0.521064 0.642761 0.289994
C22 C 1.01694(15) 0.84186(14) 0.33620(16)
H15 H 1.065791 0.851783 0.321169
C23 C 0.57766(16) 0.67521(16) 0.07400(14)
H16 H 0.532363 0.682583 0.033743
C24 C 0.71134(13) 0.37820(12) 0.37423(14)
H17 H 0.667978 0.344751 0.355913
C25 C 0.87262(13) 0.80973(13) 0.37958(16)
H18 H 0.823174 0.799675 0.393296
C26 C 0.99178(13) 0.76509(14) 0.34137(16)
H19 H 1.022972 0.723919 0.328157
C27 C 0.64057(19) 0.63032(17) 0.06044(15)
H20 H 0.638257 0.607355 0.010739
C28 C 0.89797(16) 0.88645(14) 0.37285(18)
H21 H 0.864852 0.927775 0.382041
C29 C 1.00059(19) 0.98710(15) 0.35011(18)
H22 H 1.027940 1.002897 0.402436
H23 H 0.955447 1.021418 0.332088
H24 H 1.037131 0.990335 0.314092
S2 S 0.59497(2) 0.61206(3) 0.60967(3)
O3 O 0.54146(8) 0.59271(9) 0.53621(10)
O4 O 0.58485(9) 0.56691(8) 0.67805(10)
N3 N 0.81923(8) 0.58872(8) 0.63278(8)
N4 N 0.68633(8) 0.61763(9) 0.60234(9)
C30 C 0.73112(9) 0.47677(10) 0.59956(9)
C31 C 0.74142(9) 0.56104(10) 0.61092(9)
C32 C 0.83082(9) 0.67304(10) 0.64745(10)
C33 C 0.84488(11) 0.65293(11) 0.79708(10)
C34 C 0.65493(10) 0.44159(11) 0.56885(10)
H25 H 0.609371 0.473161 0.554304
C35 C 0.84302(10) 0.70214(11) 0.72491(10)
C36 C 0.88750(9) 0.54024(11) 0.64384(10)
C37 C 0.64848(11) 0.36157(11) 0.56067(11)
H26 H 0.598300 0.339277 0.540452
C38 C 0.83325(10) 0.72164(11) 0.58350(11)
H27 H 0.826686 0.700438 0.532539
C39 C 0.79940(10) 0.42726(11) 0.61750(11)
C40 C 0.57399(10) 0.71225(10) 0.62817(11)
C41 C 0.85590(12) 0.78390(12) 0.73454(12)
H28 H 0.864257 0.805403 0.785490
C42 C 0.87762(10) 0.46171(11) 0.63859(12)
H29 H 0.922734 0.429092 0.648913
C43 C 0.71537(12) 0.31266(12) 0.58192(13)
H30 H 0.709567 0.258164 0.577308
C44 C 0.52643(13) 0.86648(12) 0.65228(11)
C45 C 0.84543(12) 0.80186(13) 0.59498(13)
H31 H 0.846160 0.834798 0.551714
C46 C 0.85648(13) 0.83285(12) 0.67079(14)
H32 H 0.864327 0.886828 0.678750
C47 C 0.78098(14) 0.60534(14) 0.80595(13)
H33 H 0.736192 0.600982 0.764580
C48 C 0.96845(10) 0.57947(12) 0.65997(13)
H34 H 0.972097 0.614725 0.616990
H35 H 1.009908 0.540087 0.664421
H36 H 0.975244 0.608738 0.708849
C49 C 0.91130(13) 0.65781(14) 0.85997(12)
H37 H 0.955046 0.689214 0.854906
C50 C 0.78938(12) 0.34499(12) 0.60952(13)
H38 H 0.834066 0.312154 0.623335
C51 C 0.63026(12) 0.77037(13) 0.64633(15)
H39 H 0.684678 0.758714 0.650819
C52 C 0.49366(12) 0.73038(13) 0.62272(16)
H40 H 0.454919 0.690909 0.610570
C53 C 0.47035(13) 0.80644(13) 0.63511(16)
H41 H 0.415994 0.817594 0.631878
C54 C 0.60618(14) 0.84728(13) 0.65818(16)
H42 H 0.645080 0.886597 0.670391
C55 C 0.49957(16) 0.94955(13) 0.66171(14)
H43 H 0.473576 0.969974 0.610691
H44 H 0.545557 0.981637 0.683318
H45 H 0.462353 0.950301 0.697160
C56 C 0.91288(19) 0.61666(18) 0.92947(14)
H46 H 0.957489 0.620576 0.971089
C57 C 0.8491(2) 0.5700(2) 0.93761(15)
H47 H 0.850370 0.542375 0.984727
C58 C 0.78332(19) 0.56403(19) 0.87632(15)
H48 H 0.740090 0.532145 0.881915
loop_
_geom_bond_atom_site_label_1
_geom_bond_atom_site_label_2
_geom_bond_site_symmetry_1
_geom_bond_site_symmetry_2
S1 O1 1_555 1_555
O2 S1 1_555 1_555
N1 C1 1_555 1_555
N2 S1 1_555 1_555
C1 N2 1_555 1_555
C2 N1 1_555 1_555
C3 C2 1_555 1_555
C4 C1 1_555 1_555
C5 C3 1_555 1_555
C6 H1 1_555 1_555
C7 N1 1_555 1_555
C8 C4 1_555 1_555
H2 C8 1_555 1_555
C9 C4 1_555 1_555
C10 S1 1_555 1_555
C11 C5 1_555 1_555
H3 C11 1_555 1_555
C12 C2 1_555 1_555
H4 C12 1_555 1_555
C13 C3 1_555 1_555
H5 C13 1_555 1_555
C14 C7 1_555 1_555
H6 C14 1_555 1_555
C15 C5 1_555 1_555
H7 C15 1_555 1_555
C16 C6 1_555 1_555
H8 C16 1_555 1_555
C17 C22 1_555 1_555
C18 C13 1_555 1_555
H9 C18 1_555 1_555
C19 C12 1_555 1_555
H10 C19 1_555 1_555
C20 C11 1_555 1_555
H11 C20 1_555 1_555
C21 C7 1_555 1_555
H12 C21 1_555 1_555
H13 C21 1_555 1_555
H14 C21 1_555 1_555
C22 H15 1_555 1_555
C23 C15 1_555 1_555
H16 C23 1_555 1_555
C24 C9 1_555 1_555
H17 C24 1_555 1_555
C25 C10 1_555 1_555
H18 C25 1_555 1_555
C26 C10 1_555 1_555
H19 C26 1_555 1_555
C27 C20 1_555 1_555
H20 C27 1_555 1_555
C28 C17 1_555 1_555
H21 C28 1_555 1_555
C29 C17 1_555 1_555
H22 C29 1_555 1_555
H23 C29 1_555 1_555
H24 C29 1_555 1_555
S2 O3 1_555 1_555
O4 S2 1_555 1_555
N3 C31 1_555 1_555
N4 S2 1_555 1_555
C30 C31 1_555 1_555
C31 N4 1_555 1_555
C32 N3 1_555 1_555
C33 C35 1_555 1_555
C34 C30 1_555 1_555
H25 C34 1_555 1_555
C35 C32 1_555 1_555
C36 N3 1_555 1_555
C37 C34 1_555 1_555
H26 C37 1_555 1_555
C38 C32 1_555 1_555
H27 C38 1_555 1_555
C39 C30 1_555 1_555
C40 S2 1_555 1_555
C41 C35 1_555 1_555
H28 C41 1_555 1_555
C42 C36 1_555 1_555
H29 C42 1_555 1_555
C43 C37 1_555 1_555
H30 C43 1_555 1_555
C44 C53 1_555 1_555
C45 C38 1_555 1_555
H31 C45 1_555 1_555
C46 C41 1_555 1_555
H32 C46 1_555 1_555
C47 C33 1_555 1_555
H33 C47 1_555 1_555
C48 C36 1_555 1_555
H34 C48 1_555 1_555
H35 C48 1_555 1_555
H36 C48 1_555 1_555
C49 C33 1_555 1_555
H37 C49 1_555 1_555
C50 C39 1_555 1_555
H38 C50 1_555 1_555
C51 C40 1_555 1_555
H39 C51 1_555 1_555
C52 C40 1_555 1_555
H40 C52 1_555 1_555
C53 C52 1_555 1_555
H41 C53 1_555 1_555
C54 C44 1_555 1_555
H42 C54 1_555 1_555
C55 C44 1_555 1_555
H43 C55 1_555 1_555
H44 C55 1_555 1_555
H45 C55 1_555 1_555
C56 C49 1_555 1_555
H46 C56 1_555 1_555
C57 C56 1_555 1_555
H47 C57 1_555 1_555
C58 C47 1_555 1_555
H48 C58 1_555 1_555
C6 C8 1_555 1_555
C9 C14 1_555 1_555
C16 C24 1_555 1_555
C18 C19 1_555 1_555
C22 C26 1_555 1_555
C23 C27 1_555 1_555
C25 C28 1_555 1_555
C39 C42 1_555 1_555
C43 C50 1_555 1_555
C45 C46 1_555 1_555
C51 C54 1_555 1_555
C57 C58 1_555 1_555

#END
