
#######################################################################
#
#                 Cambridge Crystallographic Data Centre
#                                CCDC 
#
#######################################################################
#
# If this CIF has been generated from an entry in the Cambridge 
# Structural Database, then it will include bibliographic, chemical, 
# crystal, experimental, refinement or atomic coordinate data resulting 
# from the CCDC's data processing and validation procedures.
#
#######################################################################

data_PIVQOC
_chemical_formula_moiety         'C42 H36 N2 O6,C1 H2 Cl2'
_chemical_name_systematic        
"3',9'-bis(diethylamino)-3H,3''H-dispiro[2-benzofuran-1,12'-chromeno[3,2-b]xanthene-14',1''-[2]benzofuran]-3,3''-dione dichloromethane solvate"
_symmetry_cell_setting           monoclinic
_symmetry_space_group_name_H-M   'P 21/c'
_symmetry_Int_Tables_number      14
_space_group_name_Hall           '-P 2ybc'
loop_
_symmetry_equiv_pos_site_id
_symmetry_equiv_pos_as_xyz
1 x,y,z
2 -x,1/2+y,1/2-z
3 -x,-y,-z
4 x,1/2-y,1/2+z
_cell_length_a                   16.048(3)
_cell_length_b                   16.026(3)
_cell_length_c                   17.851(3)
_cell_angle_alpha                90
_cell_angle_beta                 123.639(3)
_cell_angle_gamma                90
_cell_volume                     3822.22
_exptl_crystal_colour            'light pink'
_exptl_crystal_description       prism
_cell_formula_units_Z            4
loop_
_atom_site_label
_atom_site_type_symbol
_atom_site_fract_x
_atom_site_fract_y
_atom_site_fract_z
Cl1 Cl 0.5330(3) 0.31051(19) 0.0690(3)
Cl2 Cl 0.6267(2) 0.46859(19) 0.0853(2)
C1 C 0.5521(7) 0.4107(5) 0.1093(6)
H1 H 0.5839 0.4091 0.1739
H2 H 0.4879 0.4383 0.0829
O1 O 0.3654(3) 0.4093(2) 0.4782(2)
O2 O 0.7136(3) 0.4067(2) 0.6524(2)
O3 O 0.3476(3) 0.4179(2) 0.2508(2)
O4 O 0.3499(4) 0.4199(3) 0.1265(3)
O5 O 0.7366(3) 0.4137(2) 0.4471(2)
O6 O 0.7419(4) 0.4183(3) 0.3247(3)
N1 N 0.0153(4) 0.4191(3) 0.3378(4)
N2 N 1.0649(4) 0.4069(4) 0.8629(4)
C2 C 0.2734(4) 0.3957(3) 0.3990(4)
C3 C 0.1929(5) 0.4112(3) 0.4058(4)
H3 H 0.2045 0.4290 0.4604
C4 C 0.0943(4) 0.4004(3) 0.3316(4)
C5 C 0.0829(5) 0.3709(4) 0.2518(4)
H4 H 0.0189 0.3615 0.2011
C6 C 0.1643(4) 0.3557(4) 0.2475(4)
H5 H 0.1536 0.3368 0.1936
C7 C 0.2629(4) 0.3676(3) 0.3211(3)
C8 C 0.3505(4) 0.3538(3) 0.3143(3)
C9 C 0.4478(4) 0.3657(3) 0.4039(3)
C10 C 0.5396(4) 0.3517(3) 0.4149(3)
H6 H 0.5397 0.3331 0.3655
C11 C 0.6315(4) 0.3641(3) 0.4961(3)
C12 C 0.7272(4) 0.3490(3) 0.5033(3)
C13 C 0.8165(4) 0.3588(3) 0.5990(3)
C14 C 0.9143(4) 0.3438(3) 0.6244(4)
H7 H 0.9249 0.3230 0.5816
C15 C 0.9948(5) 0.3581(4) 0.7088(4)
H8 H 1.0587 0.3474 0.7224
C16 C 0.9829(4) 0.3891(4) 0.7763(4)
C17 C 0.8858(5) 0.4038(3) 0.7532(4)
H9 H 0.8752 0.4232 0.7963
C18 C 0.8047(4) 0.3895(3) 0.6654(3)
C19 C 0.6294(4) 0.3919(3) 0.5697(3)
C20 C 0.5404(4) 0.4056(3) 0.5620(3)
H10 H 0.5403 0.4231 0.6117
C21 C 0.4505(4) 0.3932(3) 0.4796(3)
C22 C 0.3487(4) 0.2732(3) 0.2688(3)
C23 C 0.3487(5) 0.1921(3) 0.2938(4)
H11 H 0.3484 0.1801 0.3446
C24 C 0.3492(6) 0.1286(4) 0.2412(5)
H12 H 0.3464 0.0734 0.2558
C25 C 0.3536(6) 0.1454(4) 0.1689(5)
H13 H 0.3563 0.1016 0.1361
C26 C 0.3541(5) 0.2261(4) 0.1437(4)
H14 H 0.3562 0.2377 0.0937
C27 C 0.3514(4) 0.2894(3) 0.1946(4)
C28 C 0.3498(5) 0.3804(4) 0.1839(4)
C29 C 0.7257(4) 0.2694(3) 0.4571(3)
C30 C 0.7147(4) 0.1882(3) 0.4771(4)
H15 H 0.7126 0.1762 0.5270
C31 C 0.7069(5) 0.1258(4) 0.4201(5)
H16 H 0.7000 0.0707 0.4321
C32 C 0.7092(5) 0.1438(4) 0.3455(5)
H17 H 0.7034 0.1007 0.3081
C33 C 0.7200(5) 0.2240(4) 0.3259(4)
H18 H 0.7215 0.2363 0.2757
C34 C 0.7286(4) 0.2862(3) 0.3835(4)
C35 C 0.7358(4) 0.3773(4) 0.3777(4)
C36 C -0.0916(6) 0.4099(5) 0.2569(6)
H19 H -0.1348 0.4473 0.2633
H20 H -0.0949 0.4255 0.2028
C37 C -0.1266(7) 0.3250(6) 0.2483(6)
H21 H -0.1930 0.3202 0.1951
H22 H -0.1273 0.3107 0.3001
H23 H -0.0826 0.2878 0.2438
C38 C 0.0282(5) 0.4429(4) 0.4209(5)
H24 H -0.0328 0.4698 0.4074
H25 H 0.0815 0.4839 0.4500
C39 C 0.0526(6) 0.3728(5) 0.4865(6)
H26 H 0.0690 0.3955 0.5429
H27 H 0.1085 0.3416 0.4955
H28 H -0.0043 0.3366 0.4628
C40 C 1.1696(6) 0.4008(6) 0.8868(6)
H29 H 1.1733 0.4140 0.8357
H30 H 1.2140 0.4377 0.9363
C41 C 1.1939(9) 0.3139(6) 0.9127(7)
H31 H 1.2639 0.3050 0.9388
H32 H 1.1555 0.2791 0.8606
H33 H 1.1783 0.3002 0.9560
C42 C 1.0519(6) 0.4387(5) 0.9309(5)
H34 H 0.9993 0.4804 0.9041
H35 H 1.1133 0.4662 0.9768
C43 C 1.0257(8) 0.3729(6) 0.9753(6)
H36 H 1.0097 0.3994 1.0141
H37 H 1.0817 0.3362 1.0101
H38 H 0.9690 0.3414 0.9300
loop_
_geom_bond_atom_site_label_1
_geom_bond_atom_site_label_2
_geom_bond_site_symmetry_1
_geom_bond_site_symmetry_2
Cl1 C1 1_555 1_555
Cl2 C1 1_555 1_555
C1 H1 1_555 1_555
H2 C1 1_555 1_555
O1 C2 1_555 1_555
O2 C18 1_555 1_555
O3 C8 1_555 1_555
O4 C28 1_555 1_555
O5 C12 1_555 1_555
O6 C35 1_555 1_555
N1 C4 1_555 1_555
N2 C16 1_555 1_555
C2 C3 1_555 1_555
C3 H3 1_555 1_555
C4 C3 1_555 1_555
C5 C4 1_555 1_555
H4 C5 1_555 1_555
C6 C5 1_555 1_555
H5 C6 1_555 1_555
C7 C2 1_555 1_555
C8 C7 1_555 1_555
C9 C8 1_555 1_555
C10 C9 1_555 1_555
H6 C10 1_555 1_555
C11 C10 1_555 1_555
C12 C11 1_555 1_555
C13 C12 1_555 1_555
C14 C13 1_555 1_555
H7 C14 1_555 1_555
C15 C14 1_555 1_555
H8 C15 1_555 1_555
C16 C15 1_555 1_555
C17 C16 1_555 1_555
H9 C17 1_555 1_555
C18 C13 1_555 1_555
C19 O2 1_555 1_555
C20 C19 1_555 1_555
H10 C20 1_555 1_555
C21 O1 1_555 1_555
C22 C8 1_555 1_555
C23 C22 1_555 1_555
H11 C23 1_555 1_555
C24 C23 1_555 1_555
H12 C24 1_555 1_555
C25 C24 1_555 1_555
H13 C25 1_555 1_555
C26 C25 1_555 1_555
H14 C26 1_555 1_555
C27 C22 1_555 1_555
C28 O3 1_555 1_555
C29 C12 1_555 1_555
C30 C29 1_555 1_555
H15 C30 1_555 1_555
C31 C30 1_555 1_555
H16 C31 1_555 1_555
C32 C31 1_555 1_555
H17 C32 1_555 1_555
C33 C32 1_555 1_555
H18 C33 1_555 1_555
C34 C29 1_555 1_555
C35 O5 1_555 1_555
C36 N1 1_555 1_555
H19 C36 1_555 1_555
H20 C36 1_555 1_555
C37 C36 1_555 1_555
H21 C37 1_555 1_555
H22 C37 1_555 1_555
H23 C37 1_555 1_555
C38 N1 1_555 1_555
H24 C38 1_555 1_555
H25 C38 1_555 1_555
C39 C38 1_555 1_555
H26 C39 1_555 1_555
H27 C39 1_555 1_555
H28 C39 1_555 1_555
C40 N2 1_555 1_555
H29 C40 1_555 1_555
H30 C40 1_555 1_555
C41 C40 1_555 1_555
H31 C41 1_555 1_555
H32 C41 1_555 1_555
H33 C41 1_555 1_555
C42 N2 1_555 1_555
H34 C42 1_555 1_555
H35 C42 1_555 1_555
C43 C42 1_555 1_555
H36 C43 1_555 1_555
H37 C43 1_555 1_555
H38 C43 1_555 1_555
C6 C7 1_555 1_555
C9 C21 1_555 1_555
C11 C19 1_555 1_555
C17 C18 1_555 1_555
C20 C21 1_555 1_555
C26 C27 1_555 1_555
C27 C28 1_555 1_555
C33 C34 1_555 1_555
C34 C35 1_555 1_555

#END
