
#######################################################################
#
#                 Cambridge Crystallographic Data Centre
#                                CCDC 
#
#######################################################################
#
# If this CIF has been generated from an entry in the Cambridge 
# Structural Database, then it will include bibliographic, chemical, 
# crystal, experimental, refinement or atomic coordinate data resulting 
# from the CCDC's data processing and validation procedures.
#
#######################################################################

data_PIVVUM
_chemical_formula_moiety         'C30 H36 N6,2(H2 O1)'
_chemical_name_systematic        
'1,3,5-Trimethyl-2,4,6-tris((3-pyridylmethyl)aminomethyl)benzene dihydrate'
_symmetry_cell_setting           triclinic
_symmetry_space_group_name_H-M   'P -1'
_symmetry_Int_Tables_number      2
_space_group_name_Hall           '-P 1'
loop_
_symmetry_equiv_pos_site_id
_symmetry_equiv_pos_as_xyz
1 x,y,z
2 -x,-y,-z
_cell_length_a                   10.207(3)
_cell_length_b                   11.812(3)
_cell_length_c                   13.956(3)
_cell_angle_alpha                113.858(4)
_cell_angle_beta                 100.138(5)
_cell_angle_gamma                101.997(5)
_cell_volume                     1440.19
_exptl_crystal_colour            colorless
_exptl_crystal_description       blocks
_chemical_melting_point          '56-59 deg.C'
_cell_formula_units_Z            2
_exptl_crystal_recrystallization_method acetone
loop_
_atom_site_label
_atom_site_type_symbol
_atom_site_fract_x
_atom_site_fract_y
_atom_site_fract_z
C1 C 0.38168(17) 0.16747(16) 0.44502(13)
C2 C 0.44527(17) 0.24668(16) 0.55803(14)
C3 C 0.40105(17) 0.21064(16) 0.63544(14)
C4 C 0.29070(17) 0.09522(16) 0.59849(13)
C5 C 0.22707(17) 0.01497(16) 0.48521(14)
C6 C 0.27044(17) 0.05302(16) 0.40893(13)
C7 C 0.43083(19) 0.20573(18) 0.36186(14)
H1 H 0.4021 0.1302 0.2919
H2 H 0.5310 0.2413 0.3859
H3 H 0.3903 0.2697 0.3556
C8 C 0.47373(19) 0.29642(18) 0.75724(14)
H4 H 0.4246 0.3573 0.7869
H5 H 0.5683 0.3430 0.7677
H6 H 0.4741 0.2431 0.7940
C9 C 0.11249(18) -0.11290(17) 0.44582(14)
H7 H 0.0228 -0.0988 0.4369
H8 H 0.1262 -0.1450 0.4988
H9 H 0.1163 -0.1755 0.3770
C10 C 0.56345(18) 0.37118(16) 0.59719(14)
H10 H 0.5557 0.4022 0.5425
H11 H 0.5583 0.4380 0.6644
N1 N 0.69976(15) 0.34392(14) 0.61665(12)
H12 H 0.7066 0.2719 0.6152
C11 C 0.82114(18) 0.45280(17) 0.63861(14)
H13 H 0.9054 0.4297 0.6544
H14 H 0.8251 0.5281 0.7040
C12 C 0.82290(17) 0.49245(17) 0.54686(14)
C13 C 0.81240(18) 0.39925(17) 0.44116(14)
H15 H 0.8051 0.3146 0.4295
N2 N 0.81233(16) 0.42593(15) 0.35554(13)
C14 C 0.82409(19) 0.55097(18) 0.37482(15)
H16 H 0.8227 0.5707 0.3166
C15 C 0.83810(19) 0.65069(18) 0.47703(16)
H17 H 0.8474 0.7350 0.4868
C16 C 0.83786(18) 0.62134(17) 0.56450(15)
H18 H 0.8475 0.6862 0.6336
C17 C 0.24290(18) 0.05385(17) 0.68038(14)
H19 H 0.2690 0.1292 0.7514
H20 H 0.1419 0.0160 0.6561
N3 N 0.31064(16) -0.04425(14) 0.68925(12)
H21 H 0.3607 -0.0765 0.6484
C18 C 0.28231(19) -0.07952(17) 0.77531(14)
H22 H 0.3198 -0.1500 0.7706
H23 H 0.1817 -0.1125 0.7599
C19 C 0.34166(18) 0.02929(17) 0.89226(14)
C20 C 0.25899(19) 0.05629(18) 0.96474(15)
H24 H 0.1651 0.0067 0.9381
N4 N 0.30645(17) 0.14901(16) 1.07005(13)
C21 C 0.4427(2) 0.21865(18) 1.10658(15)
H25 H 0.4782 0.2833 1.1788
C22 C 0.53440(19) 0.19915(18) 1.04172(15)
H26 H 0.6281 0.2495 1.0708
C23 C 0.48303(19) 0.10318(18) 0.93303(14)
H27 H 0.5418 0.0886 0.8884
C24 C 0.19645(18) -0.02956(17) 0.28740(13)
H28 H 0.1020 -0.0791 0.2770
H29 H 0.1905 0.0265 0.2528
N5 N 0.27445(15) -0.12137(14) 0.23473(12)
H30 H 0.3540 -0.1208 0.2684
C25 C 0.19892(19) -0.21228(17) 0.11904(14)
H31 H 0.2528 -0.2699 0.0899
H32 H 0.1932 -0.1627 0.0783
C26 C 0.05195(19) -0.29453(17) 0.09978(13)
C27 C 0.0335(2) -0.39231(17) 0.13415(14)
H33 H 0.1128 -0.4043 0.1678
N6 N -0.09231(17) -0.46892(15) 0.12100(13)
C28 C -0.2068(2) -0.44906(18) 0.07248(16)
H34 H -0.2947 -0.5015 0.0629
C29 C -0.2004(2) -0.3542(2) 0.03601(17)
H35 H -0.2815 -0.3435 0.0036
C30 C -0.0684(2) -0.27622(18) 0.04977(15)
H36 H -0.0602 -0.2127 0.0260
O1 O 0.89180(14) 0.30356(13) 0.15704(11)
H37 H 0.868(3) 0.324(3) 0.215(2)
H38 H 0.901(3) 0.375(3) 0.146(2)
O2 O 0.07620(16) 0.15387(15) 0.16913(12)
H39 H 0.029(3) 0.211(3) 0.160(2)
H40 H 0.146(3) 0.160(3) 0.143(2)
loop_
_geom_bond_atom_site_label_1
_geom_bond_atom_site_label_2
_geom_bond_site_symmetry_1
_geom_bond_site_symmetry_2
C1 C2 1_555 1_555
C2 C3 1_555 1_555
C3 C4 1_555 1_555
C4 C5 1_555 1_555
C5 C6 1_555 1_555
C6 C1 1_555 1_555
C7 C1 1_555 1_555
H1 C7 1_555 1_555
H2 C7 1_555 1_555
H3 C7 1_555 1_555
C8 C3 1_555 1_555
H4 C8 1_555 1_555
H5 C8 1_555 1_555
H6 C8 1_555 1_555
C9 C5 1_555 1_555
H7 C9 1_555 1_555
H8 C9 1_555 1_555
H9 C9 1_555 1_555
C10 C2 1_555 1_555
H10 C10 1_555 1_555
H11 C10 1_555 1_555
N1 C10 1_555 1_555
H12 N1 1_555 1_555
C11 N1 1_555 1_555
H13 C11 1_555 1_555
H14 C11 1_555 1_555
C12 C11 1_555 1_555
C13 C12 1_555 1_555
H15 C13 1_555 1_555
N2 C13 1_555 1_555
C14 N2 1_555 1_555
H16 C14 1_555 1_555
C15 C14 1_555 1_555
H17 C15 1_555 1_555
C16 C12 1_555 1_555
H18 C16 1_555 1_555
C17 C4 1_555 1_555
H19 C17 1_555 1_555
H20 C17 1_555 1_555
N3 C17 1_555 1_555
H21 N3 1_555 1_555
C18 N3 1_555 1_555
H22 C18 1_555 1_555
H23 C18 1_555 1_555
C19 C18 1_555 1_555
C20 C19 1_555 1_555
H24 C20 1_555 1_555
N4 C20 1_555 1_555
C21 N4 1_555 1_555
H25 C21 1_555 1_555
C22 C21 1_555 1_555
H26 C22 1_555 1_555
C23 C19 1_555 1_555
H27 C23 1_555 1_555
C24 C6 1_555 1_555
H28 C24 1_555 1_555
H29 C24 1_555 1_555
N5 C24 1_555 1_555
H30 N5 1_555 1_555
C25 N5 1_555 1_555
H31 C25 1_555 1_555
H32 C25 1_555 1_555
C26 C25 1_555 1_555
C27 C26 1_555 1_555
H33 C27 1_555 1_555
N6 C27 1_555 1_555
C28 N6 1_555 1_555
H34 C28 1_555 1_555
C29 C28 1_555 1_555
H35 C29 1_555 1_555
C30 C26 1_555 1_555
H36 C30 1_555 1_555
O1 H37 1_555 1_555
H38 O1 1_555 1_555
O2 H39 1_555 1_555
H40 O2 1_555 1_555
C15 C16 1_555 1_555
C22 C23 1_555 1_555
C29 C30 1_555 1_555

#END
