
#######################################################################
#
#                 Cambridge Crystallographic Data Centre
#                                CCDC 
#
#######################################################################
#
# If this CIF has been generated from an entry in the Cambridge 
# Structural Database, then it will include bibliographic, chemical, 
# crystal, experimental, refinement or atomic coordinate data resulting 
# from the CCDC's data processing and validation procedures.
#
#######################################################################

data_PIVYAX
_chemical_formula_moiety         'C20 H15 N3 O1'
_chemical_name_systematic        
(Z)-N,3,5-Triphenyl-1,3,4-oxadiazol-2(3H)-imine
_symmetry_cell_setting           orthorhombic
_symmetry_space_group_name_H-M   'P 21 21 21'
_symmetry_Int_Tables_number      19
_space_group_name_Hall           'P 2ac 2ab'
loop_
_symmetry_equiv_pos_site_id
_symmetry_equiv_pos_as_xyz
1 x,y,z
2 1/2-x,-y,1/2+z
3 1/2+x,1/2-y,-z
4 -x,1/2+y,1/2-z
_cell_length_a                   5.4149(2)
_cell_length_b                   13.0168(6)
_cell_length_c                   22.7754(11)
_cell_angle_alpha                90
_cell_angle_beta                 90
_cell_angle_gamma                90
_cell_volume                     1605.32
_exptl_crystal_colour            colorless
_exptl_crystal_description       prism
_chemical_melting_point          '100-101 deg.C'
_cell_formula_units_Z            4
_exptl_crystal_recrystallization_method 
'Re-crystallisation from solvent: dichloromethane/hexane'
loop_
_atom_site_label
_atom_site_type_symbol
_atom_site_fract_x
_atom_site_fract_y
_atom_site_fract_z
C1 C 0.8694(10) 0.1883(4) 0.4277(2)
H1 H 0.7618 0.2195 0.4541
C2 C 1.0533(10) 0.1259(4) 0.4471(2)
H2 H 1.0700 0.1140 0.4872
C3 C 1.2144(10) 0.0802(4) 0.4089(2)
H3 H 1.3397 0.0383 0.4233
C4 C 1.1922(9) 0.0958(4) 0.3493(2)
H4 H 1.3014 0.0645 0.3233
C5 C 1.0078(9) 0.1580(3) 0.3286(2)
H5 H 0.9920 0.1688 0.2884
C6 C 0.8446(9) 0.2050(3) 0.36680(18)
C7 C 0.6512(8) 0.2718(3) 0.34485(19)
C8 C 0.4320(8) 0.3498(3) 0.27714(18)
C9 C 0.4341(8) 0.3492(3) 0.17181(18)
C10 C 0.6438(10) 0.2937(4) 0.1587(2)
H6 H 0.7474 0.2715 0.1887
C11 C 0.7013(9) 0.2706(4) 0.0999(2)
H7 H 0.8402 0.2315 0.0911
C12 C 0.5526(10) 0.3057(4) 0.0557(2)
H8 H 0.5929 0.2919 0.0168
C13 C 0.3473(9) 0.3604(4) 0.06838(19)
H9 H 0.2453 0.3829 0.0382
C14 C 0.2883(8) 0.3829(4) 0.12547(19)
H10 H 0.1477 0.4216 0.1333
C15 C 0.1593(8) 0.4415(3) 0.35009(18)
C16 C 0.1144(9) 0.4523(4) 0.40917(19)
H11 H 0.2127 0.4185 0.4365
C17 C -0.0802(10) 0.5144(4) 0.4276(2)
H12 H -0.1133 0.5210 0.4675
C18 C -0.2238(10) 0.5662(4) 0.3876(2)
H13 H -0.3510 0.6090 0.4000
C19 C -0.1761(11) 0.5534(4) 0.3293(2)
H14 H -0.2745 0.5867 0.3018
C20 C 0.0151(10) 0.4922(4) 0.3106(2)
H15 H 0.0463 0.4854 0.2706
N1 N 0.4993(7) 0.3253(3) 0.37458(15)
N2 N 0.3563(7) 0.3758(3) 0.33211(16)
N3 N 0.3470(7) 0.3800(3) 0.22884(17)
O1 O 0.6249(6) 0.2817(2) 0.28457(12)
loop_
_geom_bond_atom_site_label_1
_geom_bond_atom_site_label_2
_geom_bond_site_symmetry_1
_geom_bond_site_symmetry_2
C1 H1 1_555 1_555
C2 C1 1_555 1_555
H2 C2 1_555 1_555
C3 C2 1_555 1_555
H3 C3 1_555 1_555
C4 C3 1_555 1_555
H4 C4 1_555 1_555
C5 C4 1_555 1_555
H5 C5 1_555 1_555
C6 C1 1_555 1_555
C7 C6 1_555 1_555
C8 N2 1_555 1_555
C9 C10 1_555 1_555
C10 H6 1_555 1_555
C11 C10 1_555 1_555
H7 C11 1_555 1_555
C12 C11 1_555 1_555
H8 C12 1_555 1_555
C13 C12 1_555 1_555
H9 C13 1_555 1_555
C14 C9 1_555 1_555
H10 C14 1_555 1_555
C15 C16 1_555 1_555
C16 H11 1_555 1_555
C17 C16 1_555 1_555
H12 C17 1_555 1_555
C18 C17 1_555 1_555
H13 C18 1_555 1_555
C19 C18 1_555 1_555
H14 C19 1_555 1_555
C20 C15 1_555 1_555
H15 C20 1_555 1_555
N1 C7 1_555 1_555
N2 C15 1_555 1_555
N3 C8 1_555 1_555
O1 C7 1_555 1_555
C5 C6 1_555 1_555
C8 O1 1_555 1_555
C9 N3 1_555 1_555
C13 C14 1_555 1_555
C19 C20 1_555 1_555
N1 N2 1_555 1_555

#END
