
#######################################################################
#
#                 Cambridge Crystallographic Data Centre
#                                CCDC 
#
#######################################################################
#
# If this CIF has been generated from an entry in the Cambridge 
# Structural Database, then it will include bibliographic, chemical, 
# crystal, experimental, refinement or atomic coordinate data resulting 
# from the CCDC's data processing and validation procedures.
#
#######################################################################

data_PIWCII
_chemical_formula_moiety         'C18 H21 Cl1 N2 O1'
_chemical_name_systematic        
'(2-(2-Chlorophenyl)-1-methylethyl)(Z)-(4-(dimethylamino)phenyl)methylidene ammoniumolate'
_chemical_properties_biological  
'antimicrobial activity against E. coli, Pseudomonas, Salmonella and S. aureus'
_symmetry_cell_setting           monoclinic
_symmetry_space_group_name_H-M   'P 21'
_symmetry_Int_Tables_number      4
_space_group_name_Hall           'P 2yb'
loop_
_symmetry_equiv_pos_site_id
_symmetry_equiv_pos_as_xyz
1 x,y,z
2 -x,1/2+y,-z
_cell_length_a                   5.7993(2)
_cell_length_b                   7.5966(8)
_cell_length_c                   18.8985(11)
_cell_angle_alpha                90
_cell_angle_beta                 93.450(10)
_cell_angle_gamma                90
_cell_volume                     831.064
_exptl_crystal_colour            colorless
_exptl_crystal_description       needle
_chemical_melting_point          '105 deg.C'
_cell_formula_units_Z            2
loop_
_atom_site_label
_atom_site_type_symbol
_atom_site_fract_x
_atom_site_fract_y
_atom_site_fract_z
C1 C 0.937(3) 0.219(4) 0.4058(9)
H1 H 0.8743 0.2554 0.3601
H2 H 1.0588 0.1351 0.4001
H3 H 0.9975 0.3189 0.4317
C2 C 0.577(3) 0.067(3) 0.4010(8)
H4 H 0.5582 -0.0549 0.4120
H5 H 0.6116 0.0793 0.3522
H6 H 0.4365 0.1294 0.4089
N1 N 0.758(2) 0.138(2) 0.4444(6)
C3 C 0.749(3) 0.143(2) 0.5168(8)
C4 C 0.565(3) 0.081(2) 0.5528(7)
H7 H 0.4409 0.0297 0.5267
C5 C 0.931(3) 0.217(2) 0.5594(8)
H8 H 1.0535 0.2692 0.5379
C6 C 0.557(2) 0.090(2) 0.6253(7)
H9 H 0.4252 0.0531 0.6469
C7 C 0.932(2) 0.214(2) 0.6323(8)
H10 H 1.0636 0.2515 0.6587
C8 C 0.746(2) 0.1570(19) 0.6668(7)
C9 C 0.747(2) 0.1579(19) 0.7454(8)
H11 H 0.8921 0.1654 0.7692
N2 N 0.5795(19) 0.1499(16) 0.7841(6)
O1 O 0.3671(16) 0.1281(17) 0.7617(6)
C10 C 0.626(2) 0.1682(17) 0.8619(7)
H12 H 0.7920 0.1572 0.8736
C11 C 0.497(3) 0.024(2) 0.8999(7)
H13 H 0.3507 0.0026 0.8749
H14 H 0.4729 0.0611 0.9474
H15 H 0.5872 -0.0820 0.9011
C12 C 0.542(3) 0.355(2) 0.8843(7)
H16 H 0.3838 0.3731 0.8656
H17 H 0.5429 0.3614 0.9356
C13 C 0.690(3) 0.4988(18) 0.8580(7)
C14 C 0.900(3) 0.544(2) 0.8939(7)
Cl1 Cl 0.9875(7) 0.4370(6) 0.9732(2)
C15 C 1.046(3) 0.670(2) 0.8689(9)
H18 H 1.1861 0.6943 0.8934
C16 C 0.983(4) 0.757(2) 0.8085(10)
H19 H 1.0766 0.8463 0.7925
C17 C 0.781(4) 0.714(3) 0.7707(10)
H20 H 0.7399 0.7717 0.7283
C18 C 0.640(3) 0.585(2) 0.7961(8)
H21 H 0.5042 0.5561 0.7698
loop_
_geom_bond_atom_site_label_1
_geom_bond_atom_site_label_2
_geom_bond_site_symmetry_1
_geom_bond_site_symmetry_2
C1 H1 1_555 1_555
H2 C1 1_555 1_555
H3 C1 1_555 1_555
C2 H4 1_555 1_555
H5 C2 1_555 1_555
H6 C2 1_555 1_555
N1 C1 1_555 1_555
C3 N1 1_555 1_555
C4 C3 1_555 1_555
H7 C4 1_555 1_555
C5 C3 1_555 1_555
H8 C5 1_555 1_555
C6 C4 1_555 1_555
H9 C6 1_555 1_555
C7 C5 1_555 1_555
H10 C7 1_555 1_555
C8 C6 1_555 1_555
C9 C8 1_555 1_555
H11 C9 1_555 1_555
N2 C9 1_555 1_555
O1 N2 1_555 1_555
C10 N2 1_555 1_555
H12 C10 1_555 1_555
C11 C10 1_555 1_555
H13 C11 1_555 1_555
H14 C11 1_555 1_555
H15 C11 1_555 1_555
C12 C10 1_555 1_555
H16 C12 1_555 1_555
H17 C12 1_555 1_555
C13 C12 1_555 1_555
C14 C13 1_555 1_555
Cl1 C14 1_555 1_555
C15 C14 1_555 1_555
H18 C15 1_555 1_555
C16 C15 1_555 1_555
H19 C16 1_555 1_555
C17 C16 1_555 1_555
H20 C17 1_555 1_555
C18 C13 1_555 1_555
H21 C18 1_555 1_555
C2 N1 1_555 1_555
C7 C8 1_555 1_555
C17 C18 1_555 1_555

#END
