
#######################################################################
#
#                 Cambridge Crystallographic Data Centre
#                                CCDC 
#
#######################################################################
#
# If this CIF has been generated from an entry in the Cambridge 
# Structural Database, then it will include bibliographic, chemical, 
# crystal, experimental, refinement or atomic coordinate data resulting 
# from the CCDC's data processing and validation procedures.
#
#######################################################################

data_PIWDEE
_chemical_formula_moiety         'C18 H17 N1 O5 S1'
_chemical_name_systematic        
trans-9,9a-Dihydro-3-methoxy-4-methyl-9-(phenylsulfonyl)-3H-1,2-dioxino(3,4-b)indole
_symmetry_cell_setting           monoclinic
_symmetry_space_group_name_H-M   'P 21/n'
_symmetry_Int_Tables_number      14
_space_group_name_Hall           '-P 2yn'
loop_
_symmetry_equiv_pos_site_id
_symmetry_equiv_pos_as_xyz
1 x,y,z
2 1/2-x,1/2+y,1/2-z
3 -x,-y,-z
4 1/2+x,1/2-y,1/2+z
_cell_length_a                   10.443(2)
_cell_length_b                   19.157(3)
_cell_length_c                   8.643(1)
_cell_angle_alpha                90
_cell_angle_beta                 107.34(1)
_cell_angle_gamma                90
_cell_volume                     1650.51
_exptl_crystal_colour            colorless
_chemical_melting_point          '100-102 deg.C'
_cell_formula_units_Z            4
loop_
_atom_site_label
_atom_site_type_symbol
_atom_site_fract_x
_atom_site_fract_y
_atom_site_fract_z
C1 C 0.6432(4) 0.6673(2) 0.3597(5)
C2 C 0.6077(4) 0.6639(2) 0.5019(5)
C3 C 0.6922(4) 0.6905(2) 0.6461(5)
C4 C 0.8133(4) 0.7205(2) 0.6489(4)
C5 C 0.8522(4) 0.7232(2) 0.5091(5)
C6 C 0.7663(3) 0.6970(2) 0.3643(4)
C7 C 0.7913(4) 0.5660(2) 0.1005(4)
C8 C 0.7240(4) 0.4421(2) -0.0772(5)
C9 C 0.8460(3) 0.4437(2) 0.0695(4)
C10 C 0.8786(3) 0.5031(2) 0.1547(4)
C11 C 1.0001(4) 0.5264(2) 0.2775(4)
C12 C 0.9995(4) 0.5997(2) 0.2791(4)
C13 C 1.1056(4) 0.6383(2) 0.3756(5)
C14 C 1.2141(4) 0.6015(2) 0.4770(5)
C15 C 1.2158(4) 0.5287(2) 0.4781(5)
C16 C 1.1099(4) 0.4905(2) 0.3784(5)
C17 C 0.9263(4) 0.3771(2) 0.1028(5)
C18 C 0.5936(4) 0.3971(2) 0.0828(5)
N1 N 0.8799(3) 0.6256(1) 0.1612(4)
O1 O 0.6912(2) 0.7056(1) 0.0508(3)
O2 O 0.9142(3) 0.7531(1) 0.2032(3)
O3 O 0.7463(3) 0.5678(1) -0.0734(3)
O4 O 0.6517(3) 0.5083(1) -0.1100(3)
O5 O 0.6251(3) 0.3952(1) -0.0692(3)
S1 S 0.8112(1) 0.7018(1) 0.1842(1)
H1 H 0.5826 0.6483 0.2558
H2 H 0.5201 0.6424 0.5006
H3 H 0.6652 0.6878 0.7476
H4 H 0.8729 0.7403 0.7525
H5 H 0.9407 0.7437 0.5112
H6 H 0.7107 0.5660 0.1403
H7 H 0.7666 0.4287 -0.1624
H8 H 1.1044 0.6905 0.3724
H9 H 1.2910 0.6278 0.5508
H10 H 1.2948 0.5035 0.5508
H11 H 1.1115 0.4383 0.3789
H12 H 0.9065 0.3508 0.1929
H13 H 1.0244 0.3877 0.1329
H14 H 0.9004 0.3479 0.0023
H15 H 0.5101 0.3698 0.0734
H16 H 0.5803 0.4466 0.1120
H17 H 0.6699 0.3762 0.1694
loop_
_geom_bond_atom_site_label_1
_geom_bond_atom_site_label_2
_geom_bond_site_symmetry_1
_geom_bond_site_symmetry_2
C1 C2 1_555 1_555
C2 C3 1_555 1_555
C3 C4 1_555 1_555
C4 C5 1_555 1_555
C5 C6 1_555 1_555
C6 C1 1_555 1_555
C7 C10 1_555 1_555
C8 C9 1_555 1_555
C9 C10 1_555 1_555
C10 C11 1_555 1_555
C11 C12 1_555 1_555
C12 C13 1_555 1_555
C13 C14 1_555 1_555
C14 C15 1_555 1_555
C15 C16 1_555 1_555
C16 C11 1_555 1_555
C17 C9 1_555 1_555
C18 O5 1_555 1_555
N1 C7 1_555 1_555
O1 S1 1_555 1_555
O2 S1 1_555 1_555
O3 C7 1_555 1_555
O4 C8 1_555 1_555
O5 C8 1_555 1_555
S1 C6 1_555 1_555
H1 C1 1_555 1_555
H2 C2 1_555 1_555
H3 C3 1_555 1_555
H4 C4 1_555 1_555
H5 C5 1_555 1_555
H6 C7 1_555 1_555
H7 C8 1_555 1_555
H8 C13 1_555 1_555
H9 C14 1_555 1_555
H10 C15 1_555 1_555
H11 C16 1_555 1_555
H12 C17 1_555 1_555
H13 C17 1_555 1_555
H14 C17 1_555 1_555
H15 C18 1_555 1_555
H16 C18 1_555 1_555
H17 C18 1_555 1_555
C12 N1 1_555 1_555
N1 S1 1_555 1_555
O3 O4 1_555 1_555

#END
