
#######################################################################
#
#                 Cambridge Crystallographic Data Centre
#                                CCDC 
#
#######################################################################
#
# If this CIF has been generated from an entry in the Cambridge 
# Structural Database, then it will include bibliographic, chemical, 
# crystal, experimental, refinement or atomic coordinate data resulting 
# from the CCDC's data processing and validation procedures.
#
#######################################################################

data_PIWFAD
_chemical_formula_moiety         'C17 H18 N4 O4 S1,C2 H3 N1'
_chemical_name_systematic        
'1,5-bis(2-Hydroxy-3-methoxyphenylmethylene)thiocarbohydrazone acetonitrile solvate'
_symmetry_cell_setting           triclinic
_symmetry_space_group_name_H-M   'P -1'
_symmetry_Int_Tables_number      2
_space_group_name_Hall           '-P 1'
loop_
_symmetry_equiv_pos_site_id
_symmetry_equiv_pos_as_xyz
1 x,y,z
2 -x,-y,-z
_cell_length_a                   9.983(1)
_cell_length_b                   10.509(1)
_cell_length_c                   10.748(1)
_cell_angle_alpha                90.089(2)
_cell_angle_beta                 110.033(2)
_cell_angle_gamma                103.069(2)
_cell_volume                     1028.07
_exptl_crystal_colour            colorless
_exptl_crystal_description       needle
_cell_formula_units_Z            2
loop_
_atom_site_label
_atom_site_type_symbol
_atom_site_fract_x
_atom_site_fract_y
_atom_site_fract_z
N5 N 0.1323(7) 0.6059(6) 0.7086(7)
H5 H 0.1428 0.6651 0.6637
C18 C 0.1197(7) 0.3770(6) 0.6177(6)
H20 H 0.2003 0.3448 0.6744
H21 H 0.0309 0.3199 0.6199
H22 H 0.1195 0.3708 0.5286
C19 C 0.1267(7) 0.4759(6) 0.6555(6)
S1 S 0.63266(15) 0.06808(13) 0.37781(14)
O1 O 0.5371(4) -0.6494(3) 0.9168(3)
O2 O 0.4906(4) -0.4270(3) 0.8152(3)
H1 H 0.4651 -0.4672 0.8719
O3 O 0.8617(3) 0.1406(3) 0.1624(3)
H2 H 0.8256 0.0927 0.2087
O4 O 0.9975(4) 0.2788(3) 0.0239(3)
N1 N 0.6557(4) -0.2625(3) 0.5417(3)
N2 N 0.6145(4) -0.1484(4) 0.4993(3)
H3 H 0.5465 -0.1262 0.5200
N3 N 0.7846(4) -0.1147(4) 0.3998(3)
H4 H 0.8086 -0.1850 0.4305
N4 N 0.8528(4) -0.0430(4) 0.3224(3)
C1 C 0.5686(5) -0.4953(4) 0.7682(4)
C2 C 0.5928(5) -0.6131(5) 0.8175(5)
C3 C 0.6728(5) -0.6794(5) 0.7732(5)
H6 H 0.6907 -0.7574 0.8080
C4 C 0.7276(5) -0.6292(5) 0.6752(5)
H7 H 0.7805 -0.6746 0.6431
C5 C 0.7028(5) -0.5123(5) 0.6263(5)
H8 H 0.7407 -0.4788 0.5620
C6 C 0.6227(5) -0.4437(4) 0.6709(4)
C7 C 0.5938(5) -0.3210(4) 0.6207(4)
H9 H 0.5297 -0.2838 0.6458
C8 C 0.6795(5) -0.0721(4) 0.4264(4)
C9 C 0.9702(5) -0.0645(4) 0.3161(4)
H10 H 1.0099 -0.1291 0.3639
C10 C 1.0429(4) 0.0108(4) 0.2348(4)
C11 C 1.1715(5) -0.0141(5) 0.2275(4)
H11 H 1.2107 -0.0782 0.2766
C12 C 1.2415(5) 0.0542(5) 0.1493(5)
H12 H 1.3246 0.0337 0.1423
C13 C 1.1867(5) 0.1544(5) 0.0806(4)
H13 H 1.2361 0.2031 0.0304
C14 C 1.0616(5) 0.1823(5) 0.0858(5)
C15 C 0.9871(5) 0.1093(5) 0.1643(4)
C16 C 0.5396(6) -0.7773(5) 0.9600(5)
H14 H 0.4982 -0.7905 1.0289
H15 H 0.6392 -0.7858 0.9939
H16 H 0.4831 -0.8417 0.8865
C17 C 1.0702(7) 0.3562(6) -0.0530(6)
H17 H 1.0173 0.4205 -0.0920
H18 H 1.0743 0.3008 -0.1221
H19 H 1.1682 0.3995 0.0031
loop_
_geom_bond_atom_site_label_1
_geom_bond_atom_site_label_2
_geom_bond_site_symmetry_1
_geom_bond_site_symmetry_2
S1 C8 1_555 1_555
O1 C2 1_555 1_555
O2 H1 1_555 1_555
O3 H2 1_555 1_555
O4 C14 1_555 1_555
N1 N2 1_555 1_555
N2 H3 1_555 1_555
N3 H4 1_555 1_555
N4 N3 1_555 1_555
N5 H5 1_555 1_555
C1 O2 1_555 1_555
C2 C1 1_555 1_555
C3 C2 1_555 1_555
H6 C3 1_555 1_555
C4 C3 1_555 1_555
H7 C4 1_555 1_555
C5 C4 1_555 1_555
H8 C5 1_555 1_555
C6 C1 1_555 1_555
C7 N1 1_555 1_555
H9 C7 1_555 1_555
C8 N2 1_555 1_555
C9 N4 1_555 1_555
H10 C9 1_555 1_555
C10 C9 1_555 1_555
C11 C10 1_555 1_555
H11 C11 1_555 1_555
C12 C11 1_555 1_555
H12 C12 1_555 1_555
C13 C12 1_555 1_555
H13 C13 1_555 1_555
C14 C13 1_555 1_555
C15 O3 1_555 1_555
C16 O1 1_555 1_555
H14 C16 1_555 1_555
H15 C16 1_555 1_555
H16 C16 1_555 1_555
C17 O4 1_555 1_555
H17 C17 1_555 1_555
H18 C17 1_555 1_555
H19 C17 1_555 1_555
C18 H20 1_555 1_555
H21 C18 1_555 1_555
H22 C18 1_555 1_555
C19 N5 1_555 1_555
N3 C8 1_555 1_555
C5 C6 1_555 1_555
C6 C7 1_555 1_555
C10 C15 1_555 1_555
C14 C15 1_555 1_555
C18 C19 1_555 1_555

#END
