
#######################################################################
#
#                 Cambridge Crystallographic Data Centre
#                                CCDC 
#
#######################################################################
#
# If this CIF has been generated from an entry in the Cambridge 
# Structural Database, then it will include bibliographic, chemical, 
# crystal, experimental, refinement or atomic coordinate data resulting 
# from the CCDC's data processing and validation procedures.
#
#######################################################################

data_PIWLEM01
_chemical_name_common            'Cholic acid isopropyl acetate clathrate'
_chemical_formula_moiety         'C24 H40 O5,C5 H10 O2'
_chemical_name_systematic        
'3,7,12-Trihydroxycholan-24-oic acid isopropyl acetate clathrate'
_symmetry_cell_setting           monoclinic
_symmetry_space_group_name_H-M   'P 21'
_symmetry_Int_Tables_number      4
_space_group_name_Hall           'P 2yb'
loop_
_symmetry_equiv_pos_site_id
_symmetry_equiv_pos_as_xyz
1 x,y,z
2 -x,1/2+y,-z
_cell_length_a                   11.8627(3)
_cell_length_b                   7.9815(2)
_cell_length_c                   15.2486(4)
_cell_angle_alpha                90
_cell_angle_beta                 106.2841(11)
_cell_angle_gamma                90
_cell_volume                     1385.85
_exptl_crystal_colour            colorless
_cell_formula_units_Z            2
loop_
_atom_site_label
_atom_site_type_symbol
_atom_site_fract_x
_atom_site_fract_y
_atom_site_fract_z
O1 O 0.50694(4) 0.78901(6) -0.19872(3)
H1 H 0.4659(9) 0.7578(13) -0.2473(7)
O2 O 0.48174(5) 0.52450(7) -0.15911(4)
O3 O 0.62722(4) 0.77561(6) 0.28253(3)
H2 H 0.6080(8) 0.8384(14) 0.2446(7)
O4 O 0.63600(4) 0.23432(6) 0.36639(3)
H3 H 0.6119(8) 0.1559(13) 0.3816(7)
O5 O 0.46907(4) 0.45886(6) 0.59870(3)
H4 H 0.4560(8) 0.3871(13) 0.6300(7)
C1 C 0.51625(5) 0.66609(8) -0.13863(4)
C2 C 0.57594(5) 0.71849(9) -0.04180(4)
H5 H 0.5428(8) 0.6504(12) -0.0019(6)
H6 H 0.5588(8) 0.8376(13) -0.0326(6)
C3 C 0.70952(5) 0.69570(8) -0.01903(4)
H7 H 0.7413(8) 0.7675(12) -0.0582(6)
H8 H 0.7247(8) 0.5854(12) -0.0338(6)
C4 C 0.77605(5) 0.73340(8) 0.08150(4)
H9 H 0.8601(8) 0.7064(11) 0.0882(6)
C5 C 0.73454(5) 0.61674(7) 0.14671(4)
H10 H 0.6530(7) 0.6378(11) 0.1390(6)
C6 C 0.79494(5) 0.62691(7) 0.25153(4)
C7 C 0.75340(5) 0.76599(7) 0.30606(4)
H11 H 0.7859(7) 0.8735(12) 0.2949(6)
C8 C 0.79672(5) 0.73158(7) 0.40921(4)
H12 H 0.7676(7) 0.8224(12) 0.4389(6)
H13 H 0.8830(7) 0.7429(11) 0.4293(6)
C9 C 0.76070(5) 0.55976(7) 0.43843(4)
H14 H 0.6771(7) 0.5569(11) 0.4224(6)
C10 C 0.80017(5) 0.42006(7) 0.38316(4)
H15 H 0.8851(7) 0.4193(11) 0.4013(6)
C11 C 0.76141(5) 0.24598(7) 0.40474(4)
H16 H 0.7998(7) 0.1606(12) 0.3792(6)
C12 C 0.80046(5) 0.21308(7) 0.50763(4)
H17 H 0.8874(8) 0.2044(11) 0.5250(6)
H18 H 0.7732(8) 0.1098(11) 0.5223(6)
C13 C 0.76648(5) 0.35078(7) 0.56577(4)
H19 H 0.8089(7) 0.3278(11) 0.6286(6)
C14 C 0.63443(5) 0.34119(7) 0.55763(4)
H20 H 0.5891(7) 0.3620(11) 0.4959(6)
H21 H 0.6148(7) 0.2260(11) 0.5763(6)
C15 C 0.59476(5) 0.46991(8) 0.61566(4)
H22 H 0.6289(7) 0.4497(12) 0.6798(6)
C16 C 0.62510(5) 0.64417(7) 0.58929(4)
H23 H 0.6019(7) 0.7305(11) 0.6260(6)
H24 H 0.5793(7) 0.6594(12) 0.5255(6)
C17 C 0.75665(5) 0.65750(7) 0.59933(4)
H25 H 0.7982(7) 0.6390(11) 0.6624(6)
H26 H 0.7760(7) 0.7729(12) 0.5826(6)
C18 C 0.80533(5) 0.52816(7) 0.54346(4)
C19 C 0.94013(5) 0.54250(8) 0.57793(4)
H27 H 0.9661(8) 0.6615(13) 0.5766(6)
H28 H 0.9814(8) 0.4791(13) 0.5438(6)
H29 H 0.9685(8) 0.5069(12) 0.6399(7)
C20 C 0.75404(5) 0.45854(7) 0.28165(4)
H30 H 0.6710(7) 0.4705(11) 0.2679(6)
C21 C 0.77848(5) 0.33128(8) 0.21456(4)
H31 H 0.7309(7) 0.2335(12) 0.2120(6)
H32 H 0.8598(8) 0.2984(12) 0.2356(6)
C22 C 0.74912(6) 0.42895(8) 0.12356(4)
H33 H 0.6788(8) 0.3838(12) 0.0822(6)
H34 H 0.8110(8) 0.4188(12) 0.0948(6)
C23 C 0.92882(5) 0.63654(8) 0.26928(4)
H35 H 0.9523(8) 0.7486(12) 0.2576(6)
H36 H 0.9588(8) 0.5613(13) 0.2322(6)
H37 H 0.9719(8) 0.6076(12) 0.3291(7)
C24 C 0.76733(6) 0.91980(8) 0.10207(4)
H38 H 0.7894(9) 0.9839(14) 0.0565(7)
H39 H 0.8182(9) 0.9486(13) 0.1653(7)
H40 H 0.6851(9) 0.9518(13) 0.0996(7)
O6 O 0.83116(5) 0.29667(7) 0.82641(3)
O7 O 0.92896(5) 0.33965(8) 0.97423(4)
C25 C 0.92995(7) 0.55360(11) 0.86339(5)
H41 H 0.9746(10) 0.6133(15) 0.9102(8)
H42 H 0.8585(10) 0.6179(15) 0.8404(8)
H43 H 0.9708(9) 0.5321(15) 0.8166(8)
C26 C 0.89867(6) 0.38717(9) 0.89608(5)
C27 C 0.78371(7) 0.13801(9) 0.84918(5)
H44 H 0.8452(9) 0.0856(14) 0.8957(7)
C28 C 0.67275(8) 0.17474(11) 0.87569(7)
H45 H 0.6927(11) 0.2489(16) 0.9315(8)
H46 H 0.6336(11) 0.0715(18) 0.8858(8)
H47 H 0.6211(11) 0.2264(17) 0.8260(9)
C29 C 0.76108(8) 0.02994(12) 0.76445(6)
H48 H 0.6995(11) 0.0808(17) 0.7109(9)
H49 H 0.7233(11) -0.0737(17) 0.7745(8)
H50 H 0.8389(11) 0.0196(16) 0.7442(9)
loop_
_geom_bond_atom_site_label_1
_geom_bond_atom_site_label_2
_geom_bond_site_symmetry_1
_geom_bond_site_symmetry_2
O1 H1 1_555 1_555
O2 C1 1_555 1_555
O3 H2 1_555 1_555
O4 H3 1_555 1_555
O5 H4 1_555 1_555
C1 O1 1_555 1_555
C2 C1 1_555 1_555
H5 C2 1_555 1_555
H6 C2 1_555 1_555
C3 C2 1_555 1_555
H7 C3 1_555 1_555
H8 C3 1_555 1_555
C4 C3 1_555 1_555
H9 C4 1_555 1_555
C5 C4 1_555 1_555
H10 C5 1_555 1_555
C6 C5 1_555 1_555
C7 O3 1_555 1_555
H11 C7 1_555 1_555
C8 C7 1_555 1_555
H12 C8 1_555 1_555
H13 C8 1_555 1_555
C9 C8 1_555 1_555
H14 C9 1_555 1_555
C10 C9 1_555 1_555
H15 C10 1_555 1_555
C11 O4 1_555 1_555
H16 C11 1_555 1_555
C12 C11 1_555 1_555
H17 C12 1_555 1_555
H18 C12 1_555 1_555
C13 C12 1_555 1_555
H19 C13 1_555 1_555
C14 C13 1_555 1_555
H20 C14 1_555 1_555
H21 C14 1_555 1_555
C15 O5 1_555 1_555
H22 C15 1_555 1_555
C16 C15 1_555 1_555
H23 C16 1_555 1_555
H24 C16 1_555 1_555
C17 C16 1_555 1_555
H25 C17 1_555 1_555
H26 C17 1_555 1_555
C18 C9 1_555 1_555
C19 C18 1_555 1_555
H27 C19 1_555 1_555
H28 C19 1_555 1_555
H29 C19 1_555 1_555
C20 C6 1_555 1_555
H30 C20 1_555 1_555
C21 C20 1_555 1_555
H31 C21 1_555 1_555
H32 C21 1_555 1_555
C22 C5 1_555 1_555
H33 C22 1_555 1_555
H34 C22 1_555 1_555
C23 C6 1_555 1_555
H35 C23 1_555 1_555
H36 C23 1_555 1_555
H37 C23 1_555 1_555
C24 C4 1_555 1_555
H38 C24 1_555 1_555
H39 C24 1_555 1_555
H40 C24 1_555 1_555
O6 C26 1_555 1_555
O7 C26 1_555 1_555
C25 H41 1_555 1_555
H42 C25 1_555 1_555
H43 C25 1_555 1_555
C26 C25 1_555 1_555
C27 O6 1_555 1_555
H44 C27 1_555 1_555
C28 C27 1_555 1_555
H45 C28 1_555 1_555
H46 C28 1_555 1_555
H47 C28 1_555 1_555
C29 C27 1_555 1_555
H48 C29 1_555 1_555
H49 C29 1_555 1_555
H50 C29 1_555 1_555
C6 C7 1_555 1_555
C10 C11 1_555 1_555
C10 C20 1_555 1_555
C13 C18 1_555 1_555
C14 C15 1_555 1_555
C17 C18 1_555 1_555
C21 C22 1_555 1_555

#END
