
#######################################################################
#
#                 Cambridge Crystallographic Data Centre
#                                CCDC 
#
#######################################################################
#
# If this CIF has been generated from an entry in the Cambridge 
# Structural Database, then it will include bibliographic, chemical, 
# crystal, experimental, refinement or atomic coordinate data resulting 
# from the CCDC's data processing and validation procedures.
#
#######################################################################

data_PIWLOY
_chemical_name_common            '9-Dihydroxymethyltritonide methanol solvate'
_chemical_formula_moiety         'C22 H26 O8,C1 H4 O1'
_chemical_name_systematic        
'3,3-bis(Hydroxymethyl)-6a-isopropyl-8b-methyl-3b,4,4a,7a,7b,8b,9,10-octahydrotrisoxireno[6,7:8a,9:4b,5]phenanthro[1,2-c]furan-1,6(3H,6aH)-dione methanol solvate'
_symmetry_cell_setting           orthorhombic
_symmetry_space_group_name_H-M   'P 21 21 21'
_symmetry_Int_Tables_number      19
_space_group_name_Hall           'P 2ac 2ab'
loop_
_symmetry_equiv_pos_site_id
_symmetry_equiv_pos_as_xyz
1 x,y,z
2 1/2+x,1/2-y,-z
3 -x,1/2+y,1/2-z
4 1/2-x,-y,1/2+z
_cell_length_a                   6.54730(10)
_cell_length_b                   13.1839(2)
_cell_length_c                   25.2796(4)
_cell_angle_alpha                90
_cell_angle_beta                 90
_cell_angle_gamma                90
_cell_volume                     2182.11
_exptl_crystal_colour            colorless
_exptl_crystal_description       block
_chemical_melting_point          '241-243 deg.C'
_cell_formula_units_Z            4
loop_
_atom_site_label
_atom_site_type_symbol
_atom_site_fract_x
_atom_site_fract_y
_atom_site_fract_z
O1 O 0.05622(16) 1.00139(8) 0.76164(5)
H1 H 0.078(3) 1.0631(15) 0.7651(9)
O2 O 0.75290(17) 0.86847(9) 0.74918(5)
H2 H 0.824(3) 0.9221(16) 0.7524(9)
O3 O 0.50513(17) 1.06010(8) 0.75461(5)
O4 O 0.62635(18) 1.17238(8) 0.81365(5)
O5 O 0.01524(17) 0.68981(9) 0.88995(5)
O6 O 0.39248(18) 0.71298(8) 0.97675(5)
O7 O 0.57961(18) 0.53950(8) 0.88091(4)
O8 O 0.0812(2) 0.49726(10) 0.92212(7)
C1 C 0.6577(3) 0.34249(13) 0.92209(8)
H3 H 0.7645 0.3719 0.9431
H4 H 0.6853 0.3544 0.8853
H5 H 0.6518 0.2708 0.9286
C2 C 0.4547(3) 0.39050(12) 0.93677(7)
H6 H 0.3477 0.3546 0.9172
C3 C 0.4424(2) 0.50186(12) 0.92157(7)
C4 C 0.2334(3) 0.54592(13) 0.91438(7)
C5 C 0.2223(2) 0.65537(12) 0.89554(7)
C6 C 0.1362(2) 0.67717(12) 0.84289(7)
H7 H 0.1035 0.6181 0.8210
C7 C 0.1934(3) 0.77294(12) 0.81342(7)
H8 H 0.0775 0.8188 0.8134
H9 H 0.2240 0.7559 0.7769
C8 C 0.3789(2) 0.82743(11) 0.83783(6)
H10 H 0.4975 0.7842 0.8306
C9 C 0.4267(2) 0.92968(11) 0.81373(7)
C10 C 0.4229(2) 0.95674(11) 0.75567(6)
C11 C 0.2130(2) 0.96065(12) 0.72896(7)
H11 H 0.2232 1.0014 0.6971
H12 H 0.1746 0.8925 0.7184
C12 C 0.5660(2) 0.89034(12) 0.72275(7)
H13 H 0.4974 0.8271 0.7144
H14 H 0.5958 0.9246 0.6897
C13 C 0.5529(2) 1.09009(11) 0.80447(7)
C14 C 0.5041(2) 1.00731(11) 0.84102(7)
C15 C 0.3715(2) 0.72846(11) 0.92004(6)
C16 C 0.5601(2) 0.68494(12) 0.94208(7)
H15 H 0.6789 0.7302 0.9427
C17 C 0.6058(2) 0.57464(11) 0.93433(6)
H16 H 0.7237 0.5477 0.9536
C18 C 0.4085(4) 0.37860(15) 0.99531(8)
H17 H 0.5104 0.4136 1.0156
H18 H 0.4095 0.3079 1.0044
H19 H 0.2765 0.4067 1.0029
C19 C 0.3664(2) 0.83790(11) 0.89911(7)
C20 C 0.1733(3) 0.89386(12) 0.91785(7)
H20 H 0.1809 0.9048 0.9553
H21 H 0.0550 0.8537 0.9098
H22 H 0.1634 0.9580 0.9001
C21 C 0.5560(3) 0.89741(12) 0.91827(7)
H23 H 0.5600 0.8967 0.9566
H24 H 0.6786 0.8642 0.9054
C22 C 0.5530(3) 1.00780(12) 0.89872(7)
H25 H 0.4508 1.0463 0.9179
H26 H 0.6851 1.0392 0.9046
O9 O 0.1074(2) 0.19143(9) 0.79235(6)
H27 H 0.148(4) 0.2427(18) 0.7777(10)
C23 C 0.0975(3) 0.20816(15) 0.84757(8)
H28 H 0.0171 0.1558 0.8637
H29 H 0.0357 0.2729 0.8543
H30 H 0.2329 0.2072 0.8621
loop_
_geom_bond_atom_site_label_1
_geom_bond_atom_site_label_2
_geom_bond_site_symmetry_1
_geom_bond_site_symmetry_2
O1 H1 1_555 1_555
O2 H2 1_555 1_555
O3 C10 1_555 1_555
O4 C13 1_555 1_555
O5 C5 1_555 1_555
O6 C15 1_555 1_555
O7 C3 1_555 1_555
O8 C4 1_555 1_555
C1 H3 1_555 1_555
H4 C1 1_555 1_555
H5 C1 1_555 1_555
C2 C1 1_555 1_555
H6 C2 1_555 1_555
C3 C2 1_555 1_555
C4 C3 1_555 1_555
C5 C4 1_555 1_555
C6 O5 1_555 1_555
H7 C6 1_555 1_555
C7 C6 1_555 1_555
H8 C7 1_555 1_555
H9 C7 1_555 1_555
C8 C7 1_555 1_555
H10 C8 1_555 1_555
C9 C8 1_555 1_555
C10 C9 1_555 1_555
C11 O1 1_555 1_555
H11 C11 1_555 1_555
H12 C11 1_555 1_555
C12 O2 1_555 1_555
H13 C12 1_555 1_555
H14 C12 1_555 1_555
C13 O3 1_555 1_555
C14 C9 1_555 1_555
C15 C5 1_555 1_555
C16 O6 1_555 1_555
H15 C16 1_555 1_555
C17 O7 1_555 1_555
H16 C17 1_555 1_555
C18 C2 1_555 1_555
H17 C18 1_555 1_555
H18 C18 1_555 1_555
H19 C18 1_555 1_555
C19 C8 1_555 1_555
C20 C19 1_555 1_555
H20 C20 1_555 1_555
H21 C20 1_555 1_555
H22 C20 1_555 1_555
C21 C19 1_555 1_555
H23 C21 1_555 1_555
H24 C21 1_555 1_555
C22 C14 1_555 1_555
H25 C22 1_555 1_555
H26 C22 1_555 1_555
O9 H27 1_555 1_555
C23 O9 1_555 1_555
H28 C23 1_555 1_555
H29 C23 1_555 1_555
H30 C23 1_555 1_555
C3 C17 1_555 1_555
C5 C6 1_555 1_555
C10 C11 1_555 1_555
C10 C12 1_555 1_555
C13 C14 1_555 1_555
C15 C16 1_555 1_555
C15 C19 1_555 1_555
C16 C17 1_555 1_555
C21 C22 1_555 1_555

#END
