
#######################################################################
#
#                 Cambridge Crystallographic Data Centre
#                                CCDC 
#
#######################################################################
#
# If this CIF has been generated from an entry in the Cambridge 
# Structural Database, then it will include bibliographic, chemical, 
# crystal, experimental, refinement or atomic coordinate data resulting 
# from the CCDC's data processing and validation procedures.
#
#######################################################################

data_PIWLUE
_chemical_formula_moiety         'C20 H24 O7'
_chemical_name_systematic        
3,6-Dihydroxy-6a-isopropyl-8b-methyl-3b,4,4a,6,6a,7a,7b,8b,9,10-decahydrotrisoxireno[6,7:8a,9:4b,5]phenanthro[1,2-c]furan-1(3H)-one
_symmetry_cell_setting           orthorhombic
_symmetry_space_group_name_H-M   'P 21 21 21'
_symmetry_Int_Tables_number      19
_space_group_name_Hall           'P 2ac 2ab'
loop_
_symmetry_equiv_pos_site_id
_symmetry_equiv_pos_as_xyz
1 x,y,z
2 1/2-x,-y,1/2+z
3 -x,1/2+y,1/2-z
4 1/2+x,1/2-y,-z
_cell_length_a                   9.092(3)
_cell_length_b                   9.397(3)
_cell_length_c                   21.496(7)
_cell_angle_alpha                90
_cell_angle_beta                 90
_cell_angle_gamma                90
_cell_volume                     1836.57
_exptl_crystal_colour            colorless
_exptl_crystal_description       prismatic
_chemical_melting_point          '232-235 deg.C'
_cell_formula_units_Z            4
loop_
_atom_site_label
_atom_site_type_symbol
_atom_site_fract_x
_atom_site_fract_y
_atom_site_fract_z
O1 O 0.12042(17) 0.14244(16) 0.65046(7)
O2 O 0.35570(18) 0.22966(17) 0.76558(7)
O3 O 0.18417(17) -0.09734(15) 0.81321(7)
O4 O 0.8878(2) -0.0625(2) 0.53516(8)
O5 O 0.68482(19) -0.19328(18) 0.52071(7)
O6 O 0.50816(19) -0.33267(17) 0.57066(7)
H1 H 0.4683 -0.3805 0.5436
O7 O 0.0211(2) 0.24029(18) 0.76785(8)
H2 H -0.0286 0.2676 0.7383
C1 C 0.6083(2) 0.0965(3) 0.69576(10)
H3 H 0.6256 0.1836 0.7189
H4 H 0.6207 0.0172 0.7242
C2 C 0.7220(2) 0.0846(3) 0.64331(11)
H5 H 0.7299 0.1747 0.6215
H6 H 0.8176 0.0611 0.6604
C3 C 0.6733(3) -0.0290(2) 0.59958(10)
C4 C 0.5420(2) -0.0888(2) 0.59852(9)
C5 C 0.4181(2) -0.0517(2) 0.64119(9)
H7 H 0.4211 -0.1207 0.6753
C6 C 0.2658(2) -0.0646(2) 0.61159(9)
H8 H 0.2649 -0.0125 0.5726
H9 H 0.2464 -0.1639 0.6023
C7 C 0.1452(2) -0.0085(2) 0.65294(9)
H10 H 0.0570 -0.0679 0.6560
C8 C 0.1775(2) 0.0817(2) 0.70748(9)
C9 C 0.3357(2) 0.1118(2) 0.72338(9)
C10 C 0.4486(2) 0.0967(2) 0.67061(9)
C11 C 0.3759(3) 0.0830(3) 0.78826(10)
H11 H 0.4777 0.0529 0.7955
C12 C 0.2649(3) 0.0289(3) 0.83308(10)
H12 H 0.2935 0.0317 0.8770
C13 C 0.1084(2) 0.0368(2) 0.82064(9)
C14 C 0.0615(2) 0.0958(2) 0.75861(9)
H13 H -0.0263 0.0437 0.7452
C15 C -0.0033(3) 0.0457(2) 0.87372(10)
H14 H 0.0014 0.1424 0.8906
C16 C 0.0345(4) -0.0568(3) 0.92660(11)
H15 H 0.0365 -0.1524 0.9109
H16 H -0.0385 -0.0494 0.9587
H17 H 0.1292 -0.0329 0.9434
C17 C -0.1604(3) 0.0203(3) 0.85229(13)
H18 H -0.1881 0.0928 0.8231
H19 H -0.2253 0.0234 0.8875
H20 H -0.1672 -0.0713 0.8327
C18 C 0.7633(3) -0.0923(3) 0.55038(11)
C19 C 0.5370(3) -0.1999(2) 0.54804(10)
H21 H 0.4633 -0.1738 0.5168
C20 C 0.4319(3) 0.2201(2) 0.62385(11)
H22 H 0.3309 0.2274 0.6112
H23 H 0.4924 0.2022 0.5881
H24 H 0.4619 0.3075 0.6432
loop_
_geom_bond_atom_site_label_1
_geom_bond_atom_site_label_2
_geom_bond_site_symmetry_1
_geom_bond_site_symmetry_2
O1 C7 1_555 1_555
O2 C9 1_555 1_555
O3 C12 1_555 1_555
O4 C18 1_555 1_555
O5 C18 1_555 1_555
O6 H1 1_555 1_555
O7 H2 1_555 1_555
C1 H3 1_555 1_555
H4 C1 1_555 1_555
C2 C1 1_555 1_555
H5 C2 1_555 1_555
H6 C2 1_555 1_555
C3 C2 1_555 1_555
C4 C3 1_555 1_555
C5 C4 1_555 1_555
H7 C5 1_555 1_555
C6 C5 1_555 1_555
H8 C6 1_555 1_555
H9 C6 1_555 1_555
C7 C6 1_555 1_555
H10 C7 1_555 1_555
C8 O1 1_555 1_555
C9 C8 1_555 1_555
C10 C1 1_555 1_555
C11 O2 1_555 1_555
H11 C11 1_555 1_555
C12 C11 1_555 1_555
H12 C12 1_555 1_555
C13 O3 1_555 1_555
C14 O7 1_555 1_555
H13 C14 1_555 1_555
C15 C13 1_555 1_555
H14 C15 1_555 1_555
C16 C15 1_555 1_555
H15 C16 1_555 1_555
H16 C16 1_555 1_555
H17 C16 1_555 1_555
C17 C15 1_555 1_555
H18 C17 1_555 1_555
H19 C17 1_555 1_555
H20 C17 1_555 1_555
C18 C3 1_555 1_555
C19 O5 1_555 1_555
H21 C19 1_555 1_555
C20 C10 1_555 1_555
H22 C20 1_555 1_555
H23 C20 1_555 1_555
H24 C20 1_555 1_555
O6 C19 1_555 1_555
C4 C19 1_555 1_555
C5 C10 1_555 1_555
C7 C8 1_555 1_555
C8 C14 1_555 1_555
C9 C10 1_555 1_555
C9 C11 1_555 1_555
C12 C13 1_555 1_555
C13 C14 1_555 1_555

#END
