
#######################################################################
#
#                 Cambridge Crystallographic Data Centre
#                                CCDC 
#
#######################################################################
#
# If this CIF has been generated from an entry in the Cambridge 
# Structural Database, then it will include bibliographic, chemical, 
# crystal, experimental, refinement or atomic coordinate data resulting 
# from the CCDC's data processing and validation procedures.
#
#######################################################################

data_PIWMEN
_chemical_formula_moiety         'C28 H44 Br1 N3 O5,H2 O1'
_chemical_name_systematic        
'p-Bromobenzoyl-bis(D-\a-methyl-leucyl)-D-\a-methyl-leucine monohydrate'
_symmetry_cell_setting           orthorhombic
_symmetry_space_group_name_H-M   'P 21 21 21'
_symmetry_Int_Tables_number      19
_space_group_name_Hall           'P 2ac 2ab'
loop_
_symmetry_equiv_pos_site_id
_symmetry_equiv_pos_as_xyz
1 x,y,z
2 1/2+x,1/2-y,-z
3 -x,1/2+y,1/2-z
4 1/2-x,-y,1/2+z
_cell_length_a                   9.805(2)
_cell_length_b                   17.453(3)
_cell_length_c                   19.535(3)
_cell_angle_alpha                90
_cell_angle_beta                 90
_cell_angle_gamma                90
_cell_volume                     3342.96
_exptl_crystal_colour            colorless
_chemical_melting_point          '219-220 deg.C'
_cell_formula_units_Z            4
loop_
_atom_site_label
_atom_site_type_symbol
_atom_site_fract_x
_atom_site_fract_y
_atom_site_fract_z
Br1 Br 0.0732(2) 0.8710(1) 0.9291(1)
C1 C 0.193(1) 0.9482(7) 0.8953(8)
C2 C 0.230(1) 0.9495(8) 0.8267(7)
C3 C 0.321(2) 1.0039(9) 0.8030(9)
C4 C 0.365(1) 1.0597(8) 0.8475(7)
C5 C 0.319(2) 1.0618(8) 0.9150(7)
C6 C 0.228(2) 1.003(1) 0.9370(9)
C7 C 0.463(1) 1.1230(7) 0.8246(6)
O1 O 0.462(1) 1.1836(4) 0.8563(5)
N1 N 0.538(1) 1.1094(5) 0.7673(5)
C8 C 0.640(1) 1.1669(7) 0.7436(8)
C9 C 0.681(2) 1.1432(7) 0.6717(6)
C10 C 0.765(2) 1.1743(7) 0.7916(7)
C11 C 0.842(2) 1.097(1) 0.804(1)
C12 C 0.980(2) 1.114(1) 0.790(2)
C13 C 0.819(3) 1.065(1) 0.873(1)
C14 C 0.568(2) 1.2478(8) 0.7380(6)
O2 O 0.6359(9) 1.3053(4) 0.7521(5)
N2 N 0.440(1) 1.2485(6) 0.7126(5)
C15 C 0.370(2) 1.3229(7) 0.7026(7)
C16 C 0.217(2) 1.2974(9) 0.697(1)
C17 C 0.418(2) 1.3606(7) 0.6391(5)
C18 C 0.403(2) 1.317(1) 0.5718(8)
C19 C 0.529(3) 1.306(1) 0.538(1)
C20 C 0.322(3) 1.352(2) 0.526(1)
C21 C 0.384(1) 1.3722(9) 0.7623(6)
O3 O 0.384(1) 1.4437(5) 0.7580(5)
N3 N 0.384(1) 1.3417(6) 0.8248(6)
C22 C 0.402(2) 1.3844(8) 0.8903(8)
C23 C 0.444(2) 1.3300(9) 0.9478(8)
C24 C 0.274(2) 1.429(1) 0.9043(9)
C25 C 0.136(3) 1.390(1) 0.895(2)
C26 C 0.096(4) 1.334(2) 0.939(3)
C27 C 0.036(3) 1.443(2) 0.902(2)
C28 C 0.522(2) 1.4411(8) 0.8815(8)
O4 O 0.521(1) 1.5013(6) 0.9099(5)
O5 O 0.634(1) 1.4147(6) 0.8463(6)
H1 H 0.524(1) 1.0568(5) 0.7389(5)
H2 H 0.389(1) 1.1955(6) 0.6997(5)
H3 H 0.370(1) 1.2804(6) 0.8283(6)
H6 H 0.188(1) 0.9078(8) 0.7917(7)
H7 H 0.356(2) 1.0028(9) 0.7506(9)
H8 H 0.351(2) 1.1066(8) 0.9496(7)
H9 H 0.188(2) 1.004(1) 0.9884(9)
H10 H 0.755(2) 1.1831(7) 0.6518(6)
H11 H 0.592(2) 1.1431(7) 0.6392(6)
H12 H 0.725(2) 1.0864(7) 0.6731(6)
H13 H 0.836(2) 1.2148(7) 0.7694(7)
H14 H 0.730(2) 1.1957(7) 0.8404(7)
H15 H 0.804(2) 1.053(1) 0.771(1)
H16 H 1.041(2) 1.063(1) 0.797(2)
H17 H 1.016(2) 1.158(1) 0.824(2)
H18 H 0.990(2) 1.133(1) 0.737(2)
H19 H 0.712(3) 1.054(1) 0.880(1)
H20 H 0.854(3) 1.105(1) 0.911(1)
H21 H 0.875(3) 1.012(1) 0.878(1)
H22 H 0.153(2) 1.3472(9) 0.689(1)
H23 H 0.187(2) 1.2685(9) 0.743(1)
H24 H 0.206(2) 1.2589(9) 0.654(1)
H25 H 0.362(2) 1.4137(7) 0.6340(5)
H26 H 0.525(2) 1.3730(7) 0.6457(5)
H27 H 0.358(2) 1.264(1) 0.5883(8)
H28 H 0.600(3) 1.278(1) 0.572(1)
H29 H 0.570(3) 1.361(1) 0.522(1)
H30 H 0.513(3) 1.270(1) 0.493(1)
H31 H 0.223(3) 1.363(2) 0.548(1)
H32 H 0.310(3) 1.316(2) 0.481(1)
H33 H 0.367(3) 1.406(2) 0.510(1)
H34 H 0.364(2) 1.2888(9) 0.9566(8)
H35 H 0.462(2) 1.3623(9) 0.9941(8)
H36 H 0.536(2) 1.3003(9) 0.9333(8)
H37 H 0.279(2) 1.448(1) 0.9569(9)
H38 H 0.275(2) 1.478(1) 0.8708(9)
H39 H 0.150(3) 1.363(1) 0.845(2)
H40 H 0.169(4) 1.288(2) 0.938(3)
H41 H -0.003(4) 1.313(2) 0.925(3)
H42 H 0.092(4) 1.358(2) 0.990(3)
H43 H 0.056(3) 1.491(2) 0.868(2)
H44 H 0.034(3) 1.463(2) 0.954(2)
H45 H -0.061(3) 1.418(2) 0.889(2)
O6 O 0.293(2) 0.1134(9) 0.6434(7)
H4 H 0.35(1) 0.122(7) 0.614(5)
H5 H 0.17(1) 0.101(6) 0.657(5)
loop_
_geom_bond_atom_site_label_1
_geom_bond_atom_site_label_2
_geom_bond_site_symmetry_1
_geom_bond_site_symmetry_2
Br1 C1 1_555 1_555
C1 C2 1_555 1_555
C2 C3 1_555 1_555
C3 C4 1_555 1_555
C4 C5 1_555 1_555
C5 C6 1_555 1_555
C6 C1 1_555 1_555
C7 C4 1_555 1_555
O1 C7 1_555 1_555
N1 C7 1_555 1_555
C8 N1 1_555 1_555
C9 C8 1_555 1_555
C10 C8 1_555 1_555
C11 C10 1_555 1_555
C12 C11 1_555 1_555
C13 C11 1_555 1_555
C14 C8 1_555 1_555
O2 C14 1_555 1_555
N2 C14 1_555 1_555
C15 N2 1_555 1_555
C16 C15 1_555 1_555
C17 C15 1_555 1_555
C18 C17 1_555 1_555
C19 C18 1_555 1_555
C20 C18 1_555 1_555
C21 C15 1_555 1_555
O3 C21 1_555 1_555
N3 C21 1_555 1_555
C22 N3 1_555 1_555
C23 C22 1_555 1_555
C24 C22 1_555 1_555
C25 C24 1_555 1_555
C26 C25 1_555 1_555
C27 C25 1_555 1_555
C28 C22 1_555 1_555
O4 C28 1_555 1_555
O5 C28 1_555 1_555
O6 H4 1_555 1_555
H1 N1 1_555 1_555
H2 N2 1_555 1_555
H3 N3 1_555 1_555
H5 O6 1_555 1_555
H6 C2 1_555 1_555
H7 C3 1_555 1_555
H8 C5 1_555 1_555
H9 C6 1_555 1_555
H10 C9 1_555 1_555
H11 C9 1_555 1_555
H12 C9 1_555 1_555
H13 C10 1_555 1_555
H14 C10 1_555 1_555
H15 C11 1_555 1_555
H16 C12 1_555 1_555
H17 C12 1_555 1_555
H18 C12 1_555 1_555
H19 C13 1_555 1_555
H20 C13 1_555 1_555
H21 C13 1_555 1_555
H22 C16 1_555 1_555
H23 C16 1_555 1_555
H24 C16 1_555 1_555
H25 C17 1_555 1_555
H26 C17 1_555 1_555
H27 C18 1_555 1_555
H28 C19 1_555 1_555
H29 C19 1_555 1_555
H30 C19 1_555 1_555
H31 C20 1_555 1_555
H32 C20 1_555 1_555
H33 C20 1_555 1_555
H34 C23 1_555 1_555
H35 C23 1_555 1_555
H36 C23 1_555 1_555
H37 C24 1_555 1_555
H38 C24 1_555 1_555
H39 C25 1_555 1_555
H40 C26 1_555 1_555
H41 C26 1_555 1_555
H42 C26 1_555 1_555
H43 C27 1_555 1_555
H44 C27 1_555 1_555
H45 C27 1_555 1_555

#END
