
#######################################################################
#
#                 Cambridge Crystallographic Data Centre
#                                CCDC 
#
#######################################################################
#
# If this CIF has been generated from an entry in the Cambridge 
# Structural Database, then it will include bibliographic, chemical, 
# crystal, experimental, refinement or atomic coordinate data resulting 
# from the CCDC's data processing and validation procedures.
#
#######################################################################

data_PIWMEP
_chemical_formula_moiety         'C21 H28 O3'
_chemical_name_systematic        
7-Isopropyl-6-methoxy-9b-methyl-3a,3b,4,5,9b,10,11,11a-octahydrophenanthro[1,2-c]furan-1(3H)-one
_symmetry_cell_setting           orthorhombic
_symmetry_space_group_name_H-M   'P 21 21 21'
_symmetry_Int_Tables_number      19
_space_group_name_Hall           'P 2ac 2ab'
loop_
_symmetry_equiv_pos_site_id
_symmetry_equiv_pos_as_xyz
1 x,y,z
2 1/2-x,-y,1/2+z
3 -x,1/2+y,1/2-z
4 1/2+x,1/2-y,-z
_cell_length_a                   5.7135(6)
_cell_length_b                   17.5953(17)
_cell_length_c                   18.3007(18)
_cell_angle_alpha                90
_cell_angle_beta                 90
_cell_angle_gamma                90
_cell_volume                     1839.78
_exptl_crystal_colour            colorless
_exptl_crystal_description       prismatic
_cell_formula_units_Z            4
loop_
_atom_site_label
_atom_site_type_symbol
_atom_site_fract_x
_atom_site_fract_y
_atom_site_fract_z
O1 O 1.2647(3) 0.38307(10) 0.79486(11)
O2 O 1.1768(3) 0.30684(9) 0.70239(9)
O3 O 1.1787(2) -0.06416(6) 0.88139(7)
C1 C 0.8869(3) 0.26075(10) 0.90501(10)
H1 H 0.8273 0.2630 0.9546
H2 H 1.0562 0.2578 0.9077
C2 C 0.8182(4) 0.33343(10) 0.86488(11)
H3 H 0.6522 0.3424 0.8720
H4 H 0.9023 0.3759 0.8862
C3 C 0.8690(4) 0.33071(10) 0.78385(11)
H5 H 0.7755 0.3705 0.7604
C4 C 0.8187(4) 0.25596(10) 0.74367(10)
H6 H 0.6532 0.2521 0.7300
C5 C 0.8957(3) 0.18759(9) 0.78954(9)
H7 H 1.0656 0.1925 0.7953
C6 C 0.8552(4) 0.11045(9) 0.75380(9)
H8 H 0.6915 0.0964 0.7579
H9 H 0.8953 0.1129 0.7024
C7 C 1.0061(4) 0.05184(9) 0.79167(9)
H10 H 1.1685 0.0600 0.7784
H11 H 0.9617 0.0015 0.7750
C8 C 0.9821(3) 0.05569(9) 0.87427(9)
C9 C 0.8738(3) 0.11714(9) 0.90897(9)
C10 C 0.7929(3) 0.18824(10) 0.86776(9)
C11 C 0.8348(4) 0.11188(11) 0.98400(10)
H12 H 0.7610 0.1519 1.0079
C12 C 0.9023(4) 0.04921(11) 1.02358(10)
H13 H 0.8687 0.0471 1.0733
C13 C 1.0195(3) -0.01098(10) 0.99104(10)
C14 C 1.0609(3) -0.00532(9) 0.91644(9)
C15 C 1.0895(5) -0.08149(12) 1.03372(12)
H14 H 1.2229 -0.1049 1.0087
C16 C 1.1648(7) -0.06318(17) 1.11170(15)
H15 H 1.2000 -0.1095 1.1371
H16 H 1.0404 -0.0371 1.1364
H17 H 1.3015 -0.0315 1.1106
C17 C 0.8905(7) -0.13835(16) 1.03391(18)
H18 H 0.7563 -0.1163 1.0573
H19 H 0.9375 -0.1831 1.0601
H20 H 0.8517 -0.1517 0.9845
C18 C 0.5243(3) 0.18974(12) 0.86732(12)
H21 H 0.4677 0.1928 0.9166
H22 H 0.4663 0.1442 0.8449
H23 H 0.4711 0.2331 0.8402
C19 C 1.1222(4) 0.34453(11) 0.76401(13)
C20 C 0.9728(5) 0.26581(12) 0.67671(12)
H24 H 1.0174 0.2168 0.6568
H25 H 0.8918 0.2945 0.6392
C21 C 1.4247(4) -0.05186(13) 0.87593(14)
H26 H 1.4872 -0.0410 0.9235
H27 H 1.4542 -0.0096 0.8440
H28 H 1.4983 -0.0966 0.8566
loop_
_geom_bond_atom_site_label_1
_geom_bond_atom_site_label_2
_geom_bond_site_symmetry_1
_geom_bond_site_symmetry_2
O1 C19 1_555 1_555
O2 C19 1_555 1_555
O3 C14 1_555 1_555
C1 H1 1_555 1_555
H2 C1 1_555 1_555
C2 C1 1_555 1_555
H3 C2 1_555 1_555
H4 C2 1_555 1_555
C3 C2 1_555 1_555
H5 C3 1_555 1_555
C4 C3 1_555 1_555
H6 C4 1_555 1_555
C5 C4 1_555 1_555
H7 C5 1_555 1_555
C6 C5 1_555 1_555
H8 C6 1_555 1_555
H9 C6 1_555 1_555
C7 C6 1_555 1_555
H10 C7 1_555 1_555
H11 C7 1_555 1_555
C8 C7 1_555 1_555
C9 C8 1_555 1_555
C10 C1 1_555 1_555
C11 C9 1_555 1_555
H12 C11 1_555 1_555
C12 C11 1_555 1_555
H13 C12 1_555 1_555
C13 C12 1_555 1_555
C14 C8 1_555 1_555
C15 C13 1_555 1_555
H14 C15 1_555 1_555
C16 C15 1_555 1_555
H15 C16 1_555 1_555
H16 C16 1_555 1_555
H17 C16 1_555 1_555
C17 C15 1_555 1_555
H18 C17 1_555 1_555
H19 C17 1_555 1_555
H20 C17 1_555 1_555
C18 C10 1_555 1_555
H21 C18 1_555 1_555
H22 C18 1_555 1_555
H23 C18 1_555 1_555
C19 C3 1_555 1_555
C20 O2 1_555 1_555
H24 C20 1_555 1_555
H25 C20 1_555 1_555
C21 O3 1_555 1_555
H26 C21 1_555 1_555
H27 C21 1_555 1_555
H28 C21 1_555 1_555
C4 C20 1_555 1_555
C5 C10 1_555 1_555
C9 C10 1_555 1_555
C13 C14 1_555 1_555

#END
