
#######################################################################
#
#                 Cambridge Crystallographic Data Centre
#                                CCDC 
#
#######################################################################
#
# If this CIF has been generated from an entry in the Cambridge 
# Structural Database, then it will include bibliographic, chemical, 
# crystal, experimental, refinement or atomic coordinate data resulting 
# from the CCDC's data processing and validation procedures.
#
#######################################################################

data_PIWMIT
_chemical_formula_moiety         'C20 H24 O6'
_chemical_name_systematic        
6a-Isopropyl-8b-methyldecahydrotrisoxireno[6,7:8a,9:4b,5]phenanthro[1,2-c]furan-1,6(3H,6aH)-dione
_symmetry_cell_setting           orthorhombic
_symmetry_space_group_name_H-M   'P 21 21 21'
_symmetry_Int_Tables_number      19
_space_group_name_Hall           'P 2ac 2ab'
loop_
_symmetry_equiv_pos_site_id
_symmetry_equiv_pos_as_xyz
1 x,y,z
2 1/2-x,-y,1/2+z
3 -x,1/2+y,1/2-z
4 1/2+x,1/2-y,-z
_cell_length_a                   6.824(3)
_cell_length_b                   10.927(4)
_cell_length_c                   23.463(9)
_cell_angle_alpha                90
_cell_angle_beta                 90
_cell_angle_gamma                90
_cell_volume                     1749.54
_exptl_crystal_colour            colorless
_exptl_crystal_description       prismatic
_cell_formula_units_Z            4
loop_
_atom_site_label
_atom_site_type_symbol
_atom_site_fract_x
_atom_site_fract_y
_atom_site_fract_z
O1 O -0.2791(5) 0.1942(3) 0.57371(12)
O2 O 0.0159(5) 0.2799(2) 0.58012(11)
O3 O 0.5373(3) -0.0385(3) 0.74699(11)
O4 O 0.1103(4) -0.15405(19) 0.77511(9)
O5 O 0.0939(4) 0.1360(2) 0.84237(10)
O6 O 0.5259(4) -0.0284(3) 0.86109(11)
C1 C -0.0566(5) -0.0492(3) 0.66393(13)
H1 H -0.1076 -0.1266 0.6778
H2 H -0.1327 0.0158 0.6814
C2 C -0.0830(6) -0.0436(3) 0.59941(14)
H3 H -0.2218 -0.0408 0.5906
H4 H -0.0294 -0.1173 0.5825
C3 C 0.0179(6) 0.0682(3) 0.57318(13)
H5 H 0.0406 0.0503 0.5328
C4 C 0.2117(6) 0.1079(3) 0.59857(14)
H6 H 0.3184 0.0623 0.5804
C5 C 0.2255(5) 0.0929(3) 0.66349(14)
H7 H 0.1327 0.1514 0.6801
C6 C 0.1575(5) -0.0367(3) 0.68247(13)
C7 C 0.4317(5) 0.1318(4) 0.68371(17)
H8 H 0.5275 0.1007 0.6568
H9 H 0.4394 0.2204 0.6830
C8 C 0.4855(6) 0.0888(3) 0.74177(16)
H10 H 0.5632 0.1459 0.7647
C9 C 0.3596(5) 0.0032(3) 0.77408(15)
C10 C 0.1751(4) -0.0424(3) 0.74735(13)
C11 C 0.0038(5) -0.0423(3) 0.78519(13)
H11 H -0.1232 -0.0365 0.7659
C12 C 0.0119(5) 0.0154(3) 0.84218(14)
H12 H -0.1023 0.0026 0.8668
C13 C 0.1978(5) 0.0388(3) 0.87116(14)
C14 C 0.3766(5) 0.0014(3) 0.83742(16)
C15 C 0.2191(6) 0.0511(3) 0.93473(15)
H13 H 0.2769 -0.0251 0.9490
C16 C 0.0252(8) 0.0693(4) 0.96501(16)
H14 H -0.0532 -0.0032 0.9611
H15 H -0.0427 0.1375 0.9484
H16 H 0.0485 0.0852 1.0047
C17 C 0.3612(8) 0.1548(4) 0.94847(18)
H17 H 0.3246 0.2266 0.9274
H18 H 0.4917 0.1309 0.9381
H19 H 0.3565 0.1722 0.9886
C18 C -0.1049(7) 0.1827(4) 0.57630(14)
C19 C 0.2188(7) 0.2407(3) 0.57925(17)
H20 H 0.2974 0.2896 0.6051
H21 H 0.2732 0.2473 0.5412
C20 C 0.2807(6) -0.1414(3) 0.65612(15)
H22 H 0.2369 -0.2185 0.6711
H23 H 0.4164 -0.1297 0.6655
H24 H 0.2653 -0.1409 0.6155
loop_
_geom_bond_atom_site_label_1
_geom_bond_atom_site_label_2
_geom_bond_site_symmetry_1
_geom_bond_site_symmetry_2
O1 C18 1_555 1_555
O2 C18 1_555 1_555
O3 C8 1_555 1_555
O4 C10 1_555 1_555
O5 C12 1_555 1_555
O6 C14 1_555 1_555
C1 H1 1_555 1_555
H2 C1 1_555 1_555
C2 C1 1_555 1_555
H3 C2 1_555 1_555
H4 C2 1_555 1_555
C3 C2 1_555 1_555
H5 C3 1_555 1_555
C4 C3 1_555 1_555
H6 C4 1_555 1_555
C5 C4 1_555 1_555
H7 C5 1_555 1_555
C6 C1 1_555 1_555
C7 C5 1_555 1_555
H8 C7 1_555 1_555
H9 C7 1_555 1_555
C8 C7 1_555 1_555
H10 C8 1_555 1_555
C9 O3 1_555 1_555
C10 C6 1_555 1_555
C11 O4 1_555 1_555
H11 C11 1_555 1_555
C12 C11 1_555 1_555
H12 C12 1_555 1_555
C13 O5 1_555 1_555
C14 C9 1_555 1_555
C15 C13 1_555 1_555
H13 C15 1_555 1_555
C16 C15 1_555 1_555
H14 C16 1_555 1_555
H15 C16 1_555 1_555
H16 C16 1_555 1_555
C17 C15 1_555 1_555
H17 C17 1_555 1_555
H18 C17 1_555 1_555
H19 C17 1_555 1_555
C18 C3 1_555 1_555
C19 O2 1_555 1_555
H20 C19 1_555 1_555
H21 C19 1_555 1_555
C20 C6 1_555 1_555
H22 C20 1_555 1_555
H23 C20 1_555 1_555
H24 C20 1_555 1_555
C4 C19 1_555 1_555
C5 C6 1_555 1_555
C8 C9 1_555 1_555
C9 C10 1_555 1_555
C10 C11 1_555 1_555
C12 C13 1_555 1_555
C13 C14 1_555 1_555

#END
