
#######################################################################
#
#                 Cambridge Crystallographic Data Centre
#                                CCDC 
#
#######################################################################
#
# If this CIF has been generated from an entry in the Cambridge 
# Structural Database, then it will include bibliographic, chemical, 
# crystal, experimental, refinement or atomic coordinate data resulting 
# from the CCDC's data processing and validation procedures.
#
#######################################################################

data_PIWSAS
_chemical_formula_moiety         'C27 H22 N1 O2 P1'
_chemical_name_systematic        
(E)-N-[2-(diphenylphosphoryl)-2-phenylethenyl]benzamide
_symmetry_cell_setting           triclinic
_symmetry_space_group_name_H-M   'P 1'
_symmetry_Int_Tables_number      1
_space_group_name_Hall           'P 1'
loop_
_symmetry_equiv_pos_site_id
_symmetry_equiv_pos_as_xyz
1 x,y,z
_cell_length_a                   6.0253(6)
_cell_length_b                   9.0011(9)
_cell_length_c                   10.3679(11)
_cell_angle_alpha                75.005(3)
_cell_angle_beta                 76.437(3)
_cell_angle_gamma                89.090(3)
_cell_volume                     527.401
_exptl_crystal_colour            colorless
_exptl_crystal_description       block
_cell_formula_units_Z            1
_chemical_properties_physical    ', Heat-sensitive,Light-sensitive'
_exptl_crystal_recrystallization_method 'Re-crystallisation from solvent'
loop_
_atom_site_label
_atom_site_type_symbol
_atom_site_fract_x
_atom_site_fract_y
_atom_site_fract_z
P1 P 0.16769(10) 0.51336(8) 0.38967(7)
N1 N 0.5271(4) 0.4059(3) 0.6825(3)
H1 H 0.5171 0.4872 0.7154
O1 O 0.6568(4) 0.1666(2) 0.7007(2)
C1 C 0.7784(5) 0.3123(3) 0.8352(3)
O2 O -0.0804(3) 0.5438(2) 0.4220(2)
C2 C 0.9434(5) 0.2084(4) 0.8671(3)
H2 H 0.9654 0.1228 0.8284
C3 C 1.0755(5) 0.2281(4) 0.9540(3)
H3 H 1.1883 0.1569 0.9746
C4 C 1.0430(6) 0.3522(4) 1.0112(3)
H4 H 1.1352 0.3668 1.0701
C5 C 0.8774(6) 0.4545(4) 0.9828(3)
H5 H 0.8544 0.5386 1.0233
C6 C 0.7445(5) 0.4353(4) 0.8956(3)
H6 H 0.6300 0.5059 0.8768
C7 C 0.6497(5) 0.2866(3) 0.7353(3)
C8 C 0.4176(5) 0.4048(3) 0.5793(3)
H7 H 0.4198 0.3141 0.5483
C9 C 0.3082(5) 0.5257(3) 0.5208(3)
C10 C 0.2983(5) 0.6729(3) 0.5618(3)
C11 C 0.4985(5) 0.7595(3) 0.5466(3)
H8 H 0.6423 0.7258 0.5068
C12 C 0.4886(5) 0.8932(3) 0.5891(3)
H9 H 0.6258 0.9500 0.5793
C13 C 0.2803(5) 0.9451(4) 0.6458(3)
H10 H 0.2741 1.0374 0.6745
C14 C 0.0809(5) 0.8614(4) 0.6603(3)
H11 H -0.0625 0.8969 0.6987
C15 C 0.0888(5) 0.7264(3) 0.6191(3)
H12 H -0.0490 0.6697 0.6300
C16 C 0.3214(5) 0.6496(3) 0.2343(3)
C17 C 0.5429(5) 0.7082(3) 0.2130(3)
H13 H 0.6252 0.6764 0.2825
C18 C 0.6430(6) 0.8136(4) 0.0898(3)
H14 H 0.7935 0.8549 0.0760
C19 C 0.5274(6) 0.8593(4) -0.0128(3)
H15 H 0.5976 0.9317 -0.0966
C20 C 0.3079(6) 0.7989(4) 0.0071(3)
H16 H 0.2284 0.8281 -0.0640
C21 C 0.2050(5) 0.6959(4) 0.1309(3)
H17 H 0.0533 0.6566 0.1451
C22 C 0.2167(5) 0.3290(3) 0.3527(3)
C23 C 0.0281(5) 0.2270(3) 0.3813(3)
H18 H -0.1181 0.2513 0.4274
C24 C 0.4304(5) 0.2915(4) 0.2856(3)
H19 H 0.5593 0.3599 0.2666
C25 C 0.4560(5) 0.1552(4) 0.2463(3)
H20 H 0.6019 0.1305 0.2001
C26 C 0.2677(6) 0.0545(4) 0.2749(3)
H21 H 0.2848 -0.0392 0.2482
C27 C 0.0548(6) 0.0908(4) 0.3422(3)
H22 H -0.0735 0.0217 0.3617
loop_
_geom_bond_atom_site_label_1
_geom_bond_atom_site_label_2
_geom_bond_site_symmetry_1
_geom_bond_site_symmetry_2
P1 O2 1_555 1_555
N1 H1 1_555 1_555
O1 C7 1_555 1_555
C1 C2 1_555 1_555
C2 H2 1_555 1_555
C3 C2 1_555 1_555
H3 C3 1_555 1_555
C4 C3 1_555 1_555
H4 C4 1_555 1_555
C5 C4 1_555 1_555
H5 C5 1_555 1_555
C6 C1 1_555 1_555
H6 C6 1_555 1_555
C7 N1 1_555 1_555
C8 N1 1_555 1_555
H7 C8 1_555 1_555
C9 P1 1_555 1_555
C10 C9 1_555 1_555
C11 C10 1_555 1_555
H8 C11 1_555 1_555
C12 C11 1_555 1_555
H9 C12 1_555 1_555
C13 C12 1_555 1_555
H10 C13 1_555 1_555
C14 C13 1_555 1_555
H11 C14 1_555 1_555
C15 C10 1_555 1_555
H12 C15 1_555 1_555
C16 P1 1_555 1_555
C17 C16 1_555 1_555
H13 C17 1_555 1_555
C18 C17 1_555 1_555
H14 C18 1_555 1_555
C19 C18 1_555 1_555
H15 C19 1_555 1_555
C20 C19 1_555 1_555
H16 C20 1_555 1_555
C21 C16 1_555 1_555
H17 C21 1_555 1_555
C22 P1 1_555 1_555
C23 C22 1_555 1_555
H18 C23 1_555 1_555
C24 C22 1_555 1_555
H19 C24 1_555 1_555
C25 C24 1_555 1_555
H20 C25 1_555 1_555
C26 C25 1_555 1_555
H21 C26 1_555 1_555
C27 C23 1_555 1_555
H22 C27 1_555 1_555
C1 C7 1_555 1_555
C5 C6 1_555 1_555
C8 C9 1_555 1_555
C14 C15 1_555 1_555
C20 C21 1_555 1_555
C26 C27 1_555 1_555

#END
