
#######################################################################
#
#                 Cambridge Crystallographic Data Centre
#                                CCDC 
#
#######################################################################
#
# If this CIF has been generated from an entry in the Cambridge 
# Structural Database, then it will include bibliographic, chemical, 
# crystal, experimental, refinement or atomic coordinate data resulting 
# from the CCDC's data processing and validation procedures.
#
#######################################################################

data_PIWTEX
_chemical_formula_moiety         'C40 H50 B2 S4 Si4,C6 H14'
_chemical_name_systematic        
"(7,14-diphenyl-7,14-dihydro[1,6]diborecino[3,2-b:4,5-b':8,7-b'':9,10-b''']tetrakisthiene-2,5,9,12-tetrayl)tetrakis(trimethylsilane) n-hexane solvate"
_symmetry_cell_setting           orthorhombic
_symmetry_space_group_name_H-M   'P b c n'
_symmetry_Int_Tables_number      60
_space_group_name_Hall           '-P 2n 2ab'
loop_
_symmetry_equiv_pos_site_id
_symmetry_equiv_pos_as_xyz
1 x,y,z
2 1/2-x,1/2-y,1/2+z
3 -x,y,1/2-z
4 1/2+x,1/2-y,-z
5 -x,-y,-z
6 1/2+x,1/2+y,1/2-z
7 x,-y,1/2+z
8 1/2-x,1/2+y,z
_cell_length_a                   11.709(2)
_cell_length_b                   34.941(7)
_cell_length_c                   13.482(3)
_cell_angle_alpha                90
_cell_angle_beta                 90
_cell_angle_gamma                90
_cell_volume                     5515.81
_exptl_crystal_colour            colorless
_exptl_crystal_description       block
_cell_formula_units_Z            4
loop_
_atom_site_label
_atom_site_type_symbol
_atom_site_fract_x
_atom_site_fract_y
_atom_site_fract_z
S1 S 0.02373(9) 0.18833(3) 0.06079(9)
S2 S 0.22697(9) 0.12234(3) 0.01696(8)
Si1 Si 0.46966(11) 0.08323(4) 0.02795(11)
Si2 Si -0.18836(13) 0.24336(4) 0.07226(11)
B1 B -0.1158(3) 0.09548(13) 0.2043(3)
C1 C 0.3232(3) 0.09270(11) 0.0764(3)
C2 C 0.2768(3) 0.08154(11) 0.1645(3)
H1 H 0.3139 0.0644 0.2062
C3 C 0.1680(3) 0.09756(10) 0.1898(3)
C4 C 0.1307(3) 0.12106(10) 0.1137(3)
C5 C 0.0251(3) 0.14290(10) 0.1107(3)
C6 C -0.0772(3) 0.13420(10) 0.1562(3)
C7 C -0.1532(3) 0.16624(12) 0.1496(3)
H2 H -0.2254 0.1658 0.1784
C8 C -0.1144(3) 0.19731(12) 0.0990(3)
C9 C -0.1231(3) 0.05827(11) 0.1424(3)
C10 C -0.1371(4) 0.02241(12) 0.1864(4)
H3 H -0.1363 0.0203 0.2551
C11 C -0.1521(4) -0.01025(14) 0.1283(5)
H4 H -0.1603 -0.0340 0.1586
C12 C -0.1548(5) -0.00766(19) 0.0273(5)
H5 H -0.1664 -0.0294 -0.0110
C13 C -0.1404(5) 0.02692(18) -0.0167(4)
H6 H -0.1416 0.0287 -0.0856
C14 C -0.1240(4) 0.05941(14) 0.0389(3)
H7 H -0.1133 0.0827 0.0068
C15 C 0.5607(5) 0.1253(2) 0.0600(6)
H8 H 0.5334 0.1475 0.0252
H9 H 0.6382 0.1203 0.0411
H10 H 0.5571 0.1299 0.1302
C16 C 0.4612(5) 0.07558(19) -0.1071(4)
H11 H 0.4090 0.0551 -0.1208
H12 H 0.5354 0.0691 -0.1322
H13 H 0.4347 0.0986 -0.1386
C17 C 0.5252(5) 0.04086(18) 0.0943(4)
H14 H 0.5298 0.0463 0.1640
H15 H 0.5999 0.0347 0.0697
H16 H 0.4749 0.0196 0.0837
C18 C -0.1955(6) 0.2511(2) -0.0615(4)
H17 H -0.1218 0.2464 -0.0904
H18 H -0.2177 0.2771 -0.0746
H19 H -0.2505 0.2340 -0.0901
C19 C -0.1044(7) 0.28275(17) 0.1278(7)
H20 H -0.0944 0.2781 0.1974
H21 H -0.1442 0.3065 0.1186
H22 H -0.0311 0.2841 0.0961
C20 C -0.3301(5) 0.24120(17) 0.1296(4)
H23 H -0.3759 0.2225 0.0957
H24 H -0.3661 0.2658 0.1249
H25 H -0.3226 0.2341 0.1981
S1B S -0.02373(9) 0.18833(3) 0.43921(9)
S2B S -0.22697(9) 0.12234(3) 0.48304(8)
Si1B Si -0.46966(11) 0.08323(4) 0.47205(11)
Si2B Si 0.18836(13) 0.24336(4) 0.42774(11)
B1B B 0.1158(3) 0.09548(13) 0.2957(3)
C1B C -0.3232(3) 0.09270(11) 0.4236(3)
C2B C -0.2768(3) 0.08154(11) 0.3355(3)
H1B H -0.3139 0.0644 0.2938
C3B C -0.1680(3) 0.09756(10) 0.3102(3)
C4B C -0.1307(3) 0.12106(10) 0.3863(3)
C5B C -0.0251(3) 0.14290(10) 0.3893(3)
C6B C 0.0772(3) 0.13420(10) 0.3438(3)
C7B C 0.1532(3) 0.16624(12) 0.3504(3)
H2B H 0.2254 0.1658 0.3216
C8B C 0.1144(3) 0.19731(12) 0.4010(3)
C9B C 0.1231(3) 0.05827(11) 0.3576(3)
C10B C 0.1371(4) 0.02241(12) 0.3136(4)
H3B H 0.1363 0.0203 0.2449
C11B C 0.1521(4) -0.01025(14) 0.3717(5)
H4B H 0.1603 -0.0340 0.3414
C12B C 0.1548(5) -0.00766(19) 0.4727(5)
H5B H 0.1664 -0.0294 0.5110
C13B C 0.1404(5) 0.02692(18) 0.5167(4)
H6B H 0.1416 0.0287 0.5856
C14B C 0.1240(4) 0.05941(14) 0.4611(3)
H7B H 0.1133 0.0827 0.4932
C15B C -0.5607(5) 0.1253(2) 0.4400(6)
H8B H -0.5334 0.1475 0.4748
H9B H -0.6382 0.1203 0.4589
H10B H -0.5571 0.1299 0.3698
C16B C -0.4612(5) 0.07558(19) 0.6071(4)
H11B H -0.4090 0.0551 0.6208
H12B H -0.5354 0.0691 0.6322
H13B H -0.4347 0.0986 0.6386
C17B C -0.5252(5) 0.04086(18) 0.4057(4)
H14B H -0.5298 0.0463 0.3360
H15B H -0.5999 0.0347 0.4303
H16B H -0.4749 0.0196 0.4163
C18B C 0.1955(6) 0.2511(2) 0.5615(4)
H17B H 0.1218 0.2464 0.5904
H18B H 0.2177 0.2771 0.5746
H19B H 0.2505 0.2340 0.5901
C19B C 0.1044(7) 0.28275(17) 0.3722(7)
H20B H 0.0944 0.2781 0.3026
H21B H 0.1442 0.3065 0.3814
H22B H 0.0311 0.2841 0.4039
C20B C 0.3301(5) 0.24120(17) 0.3704(4)
H23B H 0.3759 0.2225 0.4043
H24B H 0.3661 0.2658 0.3751
H25B H 0.3226 0.2341 0.3019
C21 C 0.7700(15) 0.1330(5) 0.8155(13)
C22 C 0.864(2) 0.1463(7) 0.785(2)
C23 C 0.9464(17) 0.1291(5) 0.7740(18)
C21B C 1.2300(15) 0.1330(5) 0.6845(13)
C22B C 1.136(2) 0.1463(7) 0.715(2)
C23B C 1.0536(17) 0.1291(5) 0.7260(18)
loop_
_geom_bond_atom_site_label_1
_geom_bond_atom_site_label_2
_geom_bond_site_symmetry_1
_geom_bond_site_symmetry_2
S1 C5 1_555 1_555
S2 C1 1_555 1_555
Si1 C1 1_555 1_555
Si2 C8 1_555 1_555
B1 C6 1_555 1_555
C1 C2 1_555 1_555
C2 H1 1_555 1_555
C3 C2 1_555 1_555
C4 S2 1_555 1_555
C5 C4 1_555 1_555
C6 C5 1_555 1_555
C7 C6 1_555 1_555
H2 C7 1_555 1_555
C8 S1 1_555 1_555
C9 B1 1_555 1_555
C10 C9 1_555 1_555
H3 C10 1_555 1_555
C11 C10 1_555 1_555
H4 C11 1_555 1_555
C12 C11 1_555 1_555
H5 C12 1_555 1_555
C13 C12 1_555 1_555
H6 C13 1_555 1_555
C14 C9 1_555 1_555
H7 C14 1_555 1_555
C15 Si1 1_555 1_555
H8 C15 1_555 1_555
H9 C15 1_555 1_555
H10 C15 1_555 1_555
C16 Si1 1_555 1_555
H11 C16 1_555 1_555
H12 C16 1_555 1_555
H13 C16 1_555 1_555
C17 Si1 1_555 1_555
H14 C17 1_555 1_555
H15 C17 1_555 1_555
H16 C17 1_555 1_555
C18 Si2 1_555 1_555
H17 C18 1_555 1_555
H18 C18 1_555 1_555
H19 C18 1_555 1_555
C19 Si2 1_555 1_555
H20 C19 1_555 1_555
H21 C19 1_555 1_555
H22 C19 1_555 1_555
C20 Si2 1_555 1_555
H23 C20 1_555 1_555
H24 C20 1_555 1_555
H25 C20 1_555 1_555
C21 C22 1_555 1_555
C22 C23 1_555 1_555
C23 C23B 1_555 1_555
S1B C5B 1_555 1_555
S2B C1B 1_555 1_555
Si1B C1B 1_555 1_555
Si2B C8B 1_555 1_555
B1B C3 1_555 1_555
C1B C2B 1_555 1_555
C2B H1B 1_555 1_555
C3B B1 1_555 1_555
C4B S2B 1_555 1_555
C5B C4B 1_555 1_555
C6B B1B 1_555 1_555
C7B C6B 1_555 1_555
H2B C7B 1_555 1_555
C8B S1B 1_555 1_555
C9B B1B 1_555 1_555
C10B C9B 1_555 1_555
H3B C10B 1_555 1_555
C11B C10B 1_555 1_555
H4B C11B 1_555 1_555
C12B C11B 1_555 1_555
H5B C12B 1_555 1_555
C13B C12B 1_555 1_555
H6B C13B 1_555 1_555
C14B C9B 1_555 1_555
H7B C14B 1_555 1_555
C15B Si1B 1_555 1_555
H8B C15B 1_555 1_555
H9B C15B 1_555 1_555
H10B C15B 1_555 1_555
C16B Si1B 1_555 1_555
H11B C16B 1_555 1_555
H12B C16B 1_555 1_555
H13B C16B 1_555 1_555
C17B Si1B 1_555 1_555
H14B C17B 1_555 1_555
H15B C17B 1_555 1_555
H16B C17B 1_555 1_555
C18B Si2B 1_555 1_555
H17B C18B 1_555 1_555
H18B C18B 1_555 1_555
H19B C18B 1_555 1_555
C19B Si2B 1_555 1_555
H20B C19B 1_555 1_555
H21B C19B 1_555 1_555
H22B C19B 1_555 1_555
C20B Si2B 1_555 1_555
H23B C20B 1_555 1_555
H24B C20B 1_555 1_555
H25B C20B 1_555 1_555
C21B C22B 1_555 1_555
C22B C23B 1_555 1_555
C3 C4 1_555 1_555
C7 C8 1_555 1_555
C13 C14 1_555 1_555
C2B C3B 1_555 1_555
C3B C4B 1_555 1_555
C5B C6B 1_555 1_555
C7B C8B 1_555 1_555
C13B C14B 1_555 1_555

#END
