
#######################################################################
#
#                 Cambridge Crystallographic Data Centre
#                                CCDC 
#
#######################################################################
#
# If this CIF has been generated from an entry in the Cambridge 
# Structural Database, then it will include bibliographic, chemical, 
# crystal, experimental, refinement or atomic coordinate data resulting 
# from the CCDC's data processing and validation procedures.
#
#######################################################################

data_PIWWUQ
_chemical_formula_moiety         'C58 H46 N2 O2 S1,0.5(C6 H14)'
_chemical_name_systematic        
"2,12-di(9H-carbazol-9-yl)-10,10,15,15-tetraethyl-10,15-dihydro-5H-5-benzo[b]indeno[1',2':1,2]fluoreno[3,4-d]thiophene-5,5-dione hexane solvate"
_symmetry_cell_setting           triclinic
_symmetry_space_group_name_H-M   'P -1'
_symmetry_Int_Tables_number      2
_space_group_name_Hall           '-P 1'
loop_
_symmetry_equiv_pos_site_id
_symmetry_equiv_pos_as_xyz
1 x,y,z
2 -x,-y,-z
_cell_length_a                   7.6557(3)
_cell_length_b                   18.1570(4)
_cell_length_c                   19.4036(5)
_cell_angle_alpha                113.399(2)
_cell_angle_beta                 91.820(2)
_cell_angle_gamma                97.360(2)
_cell_volume                     2444.84
_exptl_crystal_colour            'light yellow'
_exptl_crystal_description       needle
_cell_formula_units_Z            2
_exptl_crystal_recrystallization_method 
'dichloromethane/petroleum ether by slow evaporation'
loop_
_atom_site_label
_atom_site_type_symbol
_atom_site_fract_x
_atom_site_fract_y
_atom_site_fract_z
S1 S 0.20213(10) 0.33221(4) 0.44692(4)
O1 O 0.0135(3) 0.30861(12) 0.43151(12)
O2 O 0.2810(3) 0.32956(12) 0.51405(11)
N1 N 0.8742(3) 0.19327(15) -0.00956(14)
N2 N 0.0737(3) -0.08394(15) 0.38496(14)
C1 C 0.2657(4) 0.42618(18) 0.44247(17)
C2 C 0.2238(4) 0.49870(19) 0.49337(17)
H1 H 0.1628 0.5008 0.5359
C3 C 0.2726(4) 0.56807(19) 0.48097(18)
H2 H 0.2449 0.6188 0.5148
C4 C 0.3616(4) 0.56288(19) 0.41937(18)
H3 H 0.3935 0.6105 0.4105
C5 C 0.4064(4) 0.48965(18) 0.36943(17)
H4 H 0.4707 0.4883 0.3280
C6 C 0.3580(4) 0.41856(17) 0.37959(16)
C7 C 0.3874(4) 0.33256(17) 0.33482(16)
C8 C 0.4735(4) 0.29799(17) 0.26951(16)
C9 C 0.5680(4) 0.33789(18) 0.22140(16)
C10 C 0.6281(4) 0.26488(18) 0.16022(16)
C11 C 0.7235(4) 0.26632(18) 0.10098(17)
H5 H 0.7538 0.3154 0.0945
C12 C 0.7739(4) 0.19440(19) 0.05137(16)
C13 C 0.7305(4) 0.12314(18) 0.06159(16)
H6 H 0.7655 0.0743 0.0274
C14 C 0.6365(4) 0.12253(18) 0.12112(16)
H7 H 0.6086 0.0736 0.1281
C15 C 0.5827(4) 0.19396(17) 0.17111(16)
C16 C 0.4831(4) 0.21306(17) 0.23913(16)
C17 C 0.4047(4) 0.16317(17) 0.27234(16)
C18 C 0.3895(4) 0.07103(17) 0.24925(16)
C19 C 0.2844(4) 0.06036(17) 0.31089(16)
C20 C 0.2299(4) -0.01135(18) 0.31799(16)
H8 H 0.2611 -0.0609 0.2835
C21 C 0.1286(4) -0.00993(17) 0.37629(16)
C22 C 0.0834(4) 0.06239(18) 0.42676(17)
H9 H 0.0141 0.0623 0.4665
C23 C 0.1379(4) 0.13495(18) 0.41998(16)
H10 H 0.1065 0.1844 0.4546
C24 C 0.2400(4) 0.13379(17) 0.36124(16)
C25 C 0.3159(4) 0.19794(17) 0.33753(16)
C26 C 0.3105(4) 0.28025(17) 0.36676(16)
C27 C 0.4453(4) 0.37534(19) 0.18388(18)
H11 H 0.4156 0.4257 0.2232
H12 H 0.5111 0.3908 0.1473
C28 C 0.2758(5) 0.3209(2) 0.1435(2)
H13 H 0.3031 0.2707 0.1044
H14 H 0.2081 0.3487 0.1203
H15 H 0.2057 0.3077 0.1797
C29 C 0.7355(4) 0.39926(19) 0.26434(18)
H16 H 0.7938 0.4196 0.2291
H17 H 0.6980 0.4462 0.3053
C30 C 0.8704(5) 0.3661(2) 0.2984(2)
H18 H 0.8163 0.3481 0.3352
H19 H 0.9716 0.4088 0.3235
H20 H 0.9106 0.3201 0.2584
C31 C 0.2778(4) 0.02221(18) 0.17256(16)
H21 H 0.3427 0.0306 0.1323
H22 H 0.2651 -0.0363 0.1620
C32 C 0.0940(4) 0.0453(2) 0.16929(18)
H23 H 0.0245 0.0323 0.2057
H24 H 0.0348 0.0148 0.1184
H25 H 0.1047 0.1037 0.1817
C33 C 0.5697(4) 0.04112(18) 0.25210(17)
H26 H 0.5469 -0.0151 0.2489
H27 H 0.6298 0.0395 0.2072
C34 C 0.6934(5) 0.0926(2) 0.3219(2)
H28 H 0.7192 0.1483 0.3252
H29 H 0.8037 0.0699 0.3190
H30 H 0.6372 0.0931 0.3667
C35 C 0.8347(4) 0.22313(18) -0.06361(17)
C36 C 0.6909(4) 0.2585(2) -0.07245(18)
H31 H 0.6027 0.2680 -0.0379
C37 C 0.6802(5) 0.2795(2) -0.1334(2)
H32 H 0.5823 0.3035 -0.1411
C38 C 0.8109(5) 0.2660(2) -0.1839(2)
H33 H 0.8001 0.2807 -0.2255
C39 C 0.9549(5) 0.2317(2) -0.17431(18)
H34 H 1.0439 0.2233 -0.2085
C40 C 0.9679(4) 0.20961(18) -0.11356(17)
C41 C 1.0943(4) 0.17073(18) -0.08886(17)
C42 C 1.2542(4) 0.1458(2) -0.11319(19)
H35 H 1.2989 0.1521 -0.1560
C43 C 1.3466(4) 0.1120(2) -0.07456(19)
H36 H 1.4565 0.0954 -0.0906
C44 C 1.2823(4) 0.1017(2) -0.01251(19)
H37 H 1.3486 0.0776 0.0128
C45 C 1.1241(4) 0.12554(19) 0.01339(18)
H38 H 1.0804 0.1185 0.0560
C46 C 1.0317(4) 0.16037(18) -0.02555(16)
C47 C 0.1826(4) -0.12284(18) 0.41345(16)
C48 C 0.3549(5) -0.09632(19) 0.44509(17)
H39 H 0.4182 -0.0467 0.4475
C49 C 0.4317(5) -0.1443(2) 0.47295(19)
H40 H 0.5504 -0.1276 0.4950
C50 C 0.3384(5) -0.2175(2) 0.46961(19)
H41 H 0.3941 -0.2491 0.4902
C51 C 0.1681(5) -0.24413(19) 0.43713(18)
H42 H 0.1059 -0.2940 0.4346
C52 C 0.0873(4) -0.19679(18) 0.40770(16)
C53 C -0.0875(4) -0.20375(19) 0.37205(16)
C54 C -0.2380(5) -0.2630(2) 0.34877(18)
H43 H -0.2399 -0.3113 0.3570
C55 C -0.3836(5) -0.2504(2) 0.3138(2)
H44 H -0.4858 -0.2908 0.2972
C56 C -0.3831(5) -0.1789(2) 0.30233(19)
H45 H -0.4854 -0.1716 0.2783
C57 C -0.2381(5) -0.1192(2) 0.32508(18)
H46 H -0.2390 -0.0706 0.3177
C58 C -0.0901(4) -0.13242(19) 0.35926(16)
C59 C 1.1018(16) 0.5565(6) 0.2538(8)
H47 H 1.0161 0.5338 0.2793
H48 H 1.1182 0.6159 0.2783
H49 H 1.2151 0.5377 0.2567
C60 C 1.0442(15) 0.5330(6) 0.1843(8)
H50 H 1.0243 0.4729 0.1608
H51 H 1.1371 0.5519 0.1581
C61 C 0.8882(13) 0.5603(6) 0.1726(7)
H52 H 0.9000 0.6196 0.2024
H53 H 0.7892 0.5337 0.1903
C62 C 0.8467(16) 0.5415(9) 0.0889(8)
H54 H 0.8083 0.4825 0.0599
H55 H 0.9527 0.5587 0.0679
C63 C 0.6960(16) 0.5895(8) 0.0847(7)
H56 H 0.5810 0.5602 0.0885
H57 H 0.7158 0.6437 0.1272
C64 C 0.6925(19) 0.5989(8) 0.0118(8)
H58 H 0.6012 0.5575 -0.0243
H59 H 0.8080 0.5923 -0.0083
H60 H 0.6660 0.6530 0.0200
loop_
_geom_bond_atom_site_label_1
_geom_bond_atom_site_label_2
_geom_bond_site_symmetry_1
_geom_bond_site_symmetry_2
S1 O1 1_555 1_555
O2 S1 1_555 1_555
N1 C12 1_555 1_555
N2 C21 1_555 1_555
C1 S1 1_555 1_555
C2 C1 1_555 1_555
H1 C2 1_555 1_555
C3 C2 1_555 1_555
H2 C3 1_555 1_555
C4 C3 1_555 1_555
H3 C4 1_555 1_555
C5 C4 1_555 1_555
H4 C5 1_555 1_555
C6 C1 1_555 1_555
C7 C6 1_555 1_555
C8 C7 1_555 1_555
C9 C8 1_555 1_555
C10 C9 1_555 1_555
C11 C10 1_555 1_555
H5 C11 1_555 1_555
C12 C11 1_555 1_555
C13 C12 1_555 1_555
H6 C13 1_555 1_555
C14 C13 1_555 1_555
H7 C14 1_555 1_555
C15 C10 1_555 1_555
C16 C8 1_555 1_555
C17 C16 1_555 1_555
C18 C17 1_555 1_555
C19 C18 1_555 1_555
C20 C19 1_555 1_555
H8 C20 1_555 1_555
C21 C20 1_555 1_555
C22 C21 1_555 1_555
H9 C22 1_555 1_555
C23 C22 1_555 1_555
H10 C23 1_555 1_555
C24 C19 1_555 1_555
C25 C17 1_555 1_555
C26 S1 1_555 1_555
C27 C9 1_555 1_555
H11 C27 1_555 1_555
H12 C27 1_555 1_555
C28 C27 1_555 1_555
H13 C28 1_555 1_555
H14 C28 1_555 1_555
H15 C28 1_555 1_555
C29 C9 1_555 1_555
H16 C29 1_555 1_555
H17 C29 1_555 1_555
C30 C29 1_555 1_555
H18 C30 1_555 1_555
H19 C30 1_555 1_555
H20 C30 1_555 1_555
C31 C18 1_555 1_555
H21 C31 1_555 1_555
H22 C31 1_555 1_555
C32 C31 1_555 1_555
H23 C32 1_555 1_555
H24 C32 1_555 1_555
H25 C32 1_555 1_555
C33 C18 1_555 1_555
H26 C33 1_555 1_555
H27 C33 1_555 1_555
C34 C33 1_555 1_555
H28 C34 1_555 1_555
H29 C34 1_555 1_555
H30 C34 1_555 1_555
C35 N1 1_555 1_555
C36 C35 1_555 1_555
H31 C36 1_555 1_555
C37 C36 1_555 1_555
H32 C37 1_555 1_555
C38 C37 1_555 1_555
H33 C38 1_555 1_555
C39 C38 1_555 1_555
H34 C39 1_555 1_555
C40 C35 1_555 1_555
C41 C40 1_555 1_555
C42 C41 1_555 1_555
H35 C42 1_555 1_555
C43 C42 1_555 1_555
H36 C43 1_555 1_555
C44 C43 1_555 1_555
H37 C44 1_555 1_555
C45 C44 1_555 1_555
H38 C45 1_555 1_555
C46 N1 1_555 1_555
C47 N2 1_555 1_555
C48 C47 1_555 1_555
H39 C48 1_555 1_555
C49 C48 1_555 1_555
H40 C49 1_555 1_555
C50 C49 1_555 1_555
H41 C50 1_555 1_555
C51 C50 1_555 1_555
H42 C51 1_555 1_555
C52 C47 1_555 1_555
C53 C52 1_555 1_555
C54 C53 1_555 1_555
H43 C54 1_555 1_555
C55 C54 1_555 1_555
H44 C55 1_555 1_555
C56 C55 1_555 1_555
H45 C56 1_555 1_555
C57 C56 1_555 1_555
H46 C57 1_555 1_555
C58 N2 1_555 1_555
C59 H47 1_555 1_555
H48 C59 1_555 1_555
H49 C59 1_555 1_555
C60 C59 1_555 1_555
H50 C60 1_555 1_555
H51 C60 1_555 1_555
C61 C60 1_555 1_555
H52 C61 1_555 1_555
H53 C61 1_555 1_555
C62 C61 1_555 1_555
H54 C62 1_555 1_555
H55 C62 1_555 1_555
C63 C62 1_555 1_555
H56 C63 1_555 1_555
H57 C63 1_555 1_555
C64 C63 1_555 1_555
H58 C64 1_555 1_555
H59 C64 1_555 1_555
H60 C64 1_555 1_555
C5 C6 1_555 1_555
C7 C26 1_555 1_555
C14 C15 1_555 1_555
C15 C16 1_555 1_555
C23 C24 1_555 1_555
C24 C25 1_555 1_555
C25 C26 1_555 1_555
C39 C40 1_555 1_555
C41 C46 1_555 1_555
C45 C46 1_555 1_555
C51 C52 1_555 1_555
C53 C58 1_555 1_555
C57 C58 1_555 1_555

#END
