
#######################################################################
#
#                 Cambridge Crystallographic Data Centre
#                                CCDC 
#
#######################################################################
#
# If this CIF has been generated from an entry in the Cambridge 
# Structural Database, then it will include bibliographic, chemical, 
# crystal, experimental, refinement or atomic coordinate data resulting 
# from the CCDC's data processing and validation procedures.
#
#######################################################################

data_PIXDEG
_chemical_formula_moiety         'C36 H51 P1'
_chemical_name_systematic        tris(2,6-Diisopropylphenyl)phosphine
_symmetry_cell_setting           rhombohedral
_symmetry_space_group_name_H-M   'R 3'
_symmetry_Int_Tables_number      146
_space_group_name_Hall           'R 3'
loop_
_symmetry_equiv_pos_site_id
_symmetry_equiv_pos_as_xyz
1 x,y,z
2 -y,x-y,z
3 -x+y,-x,z
4 2/3+x,1/3+y,1/3+z
5 2/3-y,1/3+x-y,1/3+z
6 2/3-x+y,1/3-x,1/3+z
7 1/3+x,2/3+y,2/3+z
8 1/3-y,2/3+x-y,2/3+z
9 1/3-x+y,2/3-x,2/3+z
_cell_length_a                   16.5047(7)
_cell_length_b                   16.5047(7)
_cell_length_c                   10.2363(9)
_cell_angle_alpha                90
_cell_angle_beta                 90
_cell_angle_gamma                120.00
_cell_volume                     2414.84
_exptl_crystal_colour            colorless
_exptl_crystal_description       prism
_cell_formula_units_Z            3
_exptl_crystal_recrystallization_method hexanes/chloroform
loop_
_atom_site_label
_atom_site_type_symbol
_atom_site_fract_x
_atom_site_fract_y
_atom_site_fract_z
P1 P 0.3333 0.6667 0.12664(6)
C1 C 0.24422(10) 0.54751(11) 0.17939(16)
C2 C 0.23506(13) 0.47649(11) 0.09168(15)
C3 C 0.15918(15) 0.38648(14) 0.1035(2)
H1 H 0.1532 0.3392 0.0448
C4 C 0.09178(15) 0.36449(15) 0.1999(2)
H2 H 0.0393 0.3031 0.2054
C5 C 0.10177(16) 0.43199(17) 0.2867(2)
H3 H 0.0558 0.4163 0.3527
C6 C 0.17777(13) 0.52350(14) 0.28104(19)
C7 C 0.30499(15) 0.49441(15) -0.0163(2)
H4 H 0.3609 0.5575 -0.0009
C8 C 0.3379(2) 0.4225(2) -0.0152(3)
H5 H 0.3830 0.4366 -0.0859
H6 H 0.2840 0.3597 -0.0279
H7 H 0.3676 0.4253 0.0688
C9 C 0.2640(2) 0.4965(2) -0.1495(2)
H8 H 0.3104 0.5091 -0.2179
H9 H 0.2474 0.5458 -0.1500
H10 H 0.2078 0.4358 -0.1660
C10 C 0.18538(15) 0.59044(17) 0.38784(18)
H11 H 0.2478 0.6485 0.3790
C11 C 0.1811(2) 0.5493(2) 0.5235(2)
H12 H 0.1850 0.5934 0.5905
H13 H 0.2336 0.5378 0.5337
H14 H 0.1220 0.4902 0.5329
C12 C 0.1104(2) 0.6187(2) 0.3763(3)
H15 H 0.1187 0.6627 0.4464
H16 H 0.0483 0.5629 0.3836
H17 H 0.1161 0.6486 0.2914
C1A C 0.45249(11) 0.69671(15) 0.17939(16)
C1B C 0.30329(15) 0.75578(10) 0.17939(16)
C2A C 0.52351(11) 0.75857(17) 0.09168(15)
C2B C 0.24143(17) 0.76494(13) 0.09168(15)
C3A C 0.61352(14) 0.77270(21) 0.1035(2)
C3B C 0.22730(21) 0.84082(15) 0.1035(2)
H1A H 0.6608 0.8140 0.0448
H1B H 0.1860 0.8468 0.0448
C4A C 0.63551(15) 0.72729(21) 0.1999(2)
C4B C 0.27271(21) 0.90822(15) 0.1999(2)
H2A H 0.6969 0.7362 0.2054
H2B H 0.2638 0.9607 0.2054
C5A C 0.56801(17) 0.66978(23) 0.2867(2)
C5B C 0.33022(23) 0.89823(16) 0.2867(2)
H3A H 0.5837 0.6395 0.3527
H3B H 0.3605 0.9442 0.3527
C6A C 0.47650(14) 0.65427(19) 0.28104(19)
C6B C 0.34573(19) 0.82223(13) 0.28104(19)
C7A C 0.50559(15) 0.81058(21) -0.0163(2)
C7B C 0.18942(21) 0.69501(15) -0.0163(2)
H4A H 0.4425 0.8034 -0.0009
H4B H 0.1966 0.6391 -0.0009
C8A C 0.5775(2) 0.9154(3) -0.0152(3)
C8B C 0.0846(3) 0.6621(2) -0.0152(3)
H5A H 0.5634 0.9464 -0.0859
H5B H 0.0536 0.6170 -0.0859
H6A H 0.6403 0.9243 -0.0279
H6B H 0.0757 0.7160 -0.0279
H7A H 0.5747 0.9423 0.0688
H7B H 0.0577 0.6324 0.0688
C9A C 0.5035(2) 0.7675(3) -0.1495(2)
C9B C 0.2325(3) 0.7360(2) -0.1495(2)
H8A H 0.4909 0.8013 -0.2179
H8B H 0.1987 0.6896 -0.2179
H9A H 0.4542 0.7016 -0.1500
H9B H 0.2984 0.7526 -0.1500
H10A H 0.5642 0.7720 -0.1660
H10B H 0.2280 0.7922 -0.1660
C10A C 0.40956(17) 0.59494(23) 0.38784(18)
C10B C 0.40506(23) 0.81462(15) 0.38784(18)
H11A H 0.3515 0.5993 0.3790
H11B H 0.4007 0.7522 0.3790
C11A C 0.4507(2) 0.6318(3) 0.5235(2)
C11B C 0.3682(3) 0.8189(2) 0.5235(2)
H12A H 0.4066 0.5916 0.5905
H12B H 0.4084 0.8150 0.5905
H13A H 0.4622 0.6958 0.5337
H13B H 0.3042 0.7664 0.5337
H14A H 0.5098 0.6318 0.5329
H14B H 0.3682 0.8780 0.5329
C12A C 0.3813(2) 0.4917(3) 0.3763(3)
C12B C 0.5083(3) 0.8896(2) 0.3763(3)
H15A H 0.3373 0.4560 0.4464
H15B H 0.5440 0.8813 0.4464
H16A H 0.4371 0.4854 0.3836
H16B H 0.5146 0.9517 0.3836
H17A H 0.3514 0.4675 0.2914
H17B H 0.5325 0.8839 0.2914
loop_
_geom_bond_atom_site_label_1
_geom_bond_atom_site_label_2
_geom_bond_site_symmetry_1
_geom_bond_site_symmetry_2
P1 C1 1_555 1_555
C1 C2 1_555 1_555
C2 C3 1_555 1_555
C3 H1 1_555 1_555
C4 C3 1_555 1_555
H2 C4 1_555 1_555
C5 C4 1_555 1_555
H3 C5 1_555 1_555
C6 C1 1_555 1_555
C7 C2 1_555 1_555
H4 C7 1_555 1_555
C8 C7 1_555 1_555
H5 C8 1_555 1_555
H6 C8 1_555 1_555
H7 C8 1_555 1_555
C9 C7 1_555 1_555
H8 C9 1_555 1_555
H9 C9 1_555 1_555
H10 C9 1_555 1_555
C10 C6 1_555 1_555
H11 C10 1_555 1_555
C11 C10 1_555 1_555
H12 C11 1_555 1_555
H13 C11 1_555 1_555
H14 C11 1_555 1_555
C12 C10 1_555 1_555
H15 C12 1_555 1_555
H16 C12 1_555 1_555
H17 C12 1_555 1_555
C1A P1 1_555 1_555
C1B P1 1_555 1_555
C2A C1A 1_555 1_555
C2B C1B 1_555 1_555
C3A C2A 1_555 1_555
C3B C2B 1_555 1_555
H1A C3A 1_555 1_555
H1B C3B 1_555 1_555
C4A C3A 1_555 1_555
C4B C3B 1_555 1_555
H2A C4A 1_555 1_555
H2B C4B 1_555 1_555
C5A C4A 1_555 1_555
C5B C4B 1_555 1_555
H3A C5A 1_555 1_555
H3B C5B 1_555 1_555
C6A C1A 1_555 1_555
C6B C1B 1_555 1_555
C7A C2A 1_555 1_555
C7B C2B 1_555 1_555
H4A C7A 1_555 1_555
H4B C7B 1_555 1_555
C8A C7A 1_555 1_555
C8B C7B 1_555 1_555
H5A C8A 1_555 1_555
H5B C8B 1_555 1_555
H6A C8A 1_555 1_555
H6B C8B 1_555 1_555
H7A C8A 1_555 1_555
H7B C8B 1_555 1_555
C9A C7A 1_555 1_555
C9B C7B 1_555 1_555
H8A C9A 1_555 1_555
H8B C9B 1_555 1_555
H9A C9A 1_555 1_555
H9B C9B 1_555 1_555
H10A C9A 1_555 1_555
H10B C9B 1_555 1_555
C10A C6A 1_555 1_555
C10B C6B 1_555 1_555
H11A C10A 1_555 1_555
H11B C10B 1_555 1_555
C11A C10A 1_555 1_555
C11B C10B 1_555 1_555
H12A C11A 1_555 1_555
H12B C11B 1_555 1_555
H13A C11A 1_555 1_555
H13B C11B 1_555 1_555
H14A C11A 1_555 1_555
H14B C11B 1_555 1_555
C12A C10A 1_555 1_555
C12B C10B 1_555 1_555
H15A C12A 1_555 1_555
H15B C12B 1_555 1_555
H16A C12A 1_555 1_555
H16B C12B 1_555 1_555
H17A C12A 1_555 1_555
H17B C12B 1_555 1_555
C5 C6 1_555 1_555
C5A C6A 1_555 1_555
C5B C6B 1_555 1_555

#END
