
#######################################################################
#
#                 Cambridge Crystallographic Data Centre
#                                CCDC 
#
#######################################################################
#
# If this CIF has been generated from an entry in the Cambridge 
# Structural Database, then it will include bibliographic, chemical, 
# crystal, experimental, refinement or atomic coordinate data resulting 
# from the CCDC's data processing and validation procedures.
#
#######################################################################

data_PIXLEO
_chemical_formula_moiety         'C29 H29 N1 O2 S1'
_chemical_name_systematic        
1-Benzyl-5-methyl-3-phenyl-2-(p-tosyl)-4,5,6,7-tetrahydro-2H-isoindole
_symmetry_cell_setting           monoclinic
_symmetry_space_group_name_H-M   'P 21/c'
_symmetry_Int_Tables_number      14
_space_group_name_Hall           '-P 2ybc'
loop_
_symmetry_equiv_pos_site_id
_symmetry_equiv_pos_as_xyz
1 x,y,z
2 -x,1/2+y,1/2-z
3 -x,-y,-z
4 x,1/2-y,1/2+z
_cell_length_a                   8.6485(10)
_cell_length_b                   32.699(3)
_cell_length_c                   9.0126(12)
_cell_angle_alpha                90
_cell_angle_beta                 109.287(2)
_cell_angle_gamma                90
_cell_volume                     2405.69
_cell_formula_units_Z            4
loop_
_atom_site_label
_atom_site_type_symbol
_atom_site_fract_x
_atom_site_fract_y
_atom_site_fract_z
S1 S 0.08627(6) 0.079647(15) 0.16894(6)
O1 O 0.11348(18) 0.03677(4) 0.17916(18)
O2 O 0.00334(18) 0.09827(5) 0.26361(18)
N1 N 0.27103(18) 0.10230(5) 0.21470(19)
C1 C 0.2829(2) 0.14497(6) 0.2511(2)
C2 C 0.3828(2) 0.16192(6) 0.1805(2)
C3 C 0.4358(2) 0.13064(6) 0.0968(2)
C4 C 0.3673(2) 0.09487(6) 0.1159(2)
C5 C 0.4485(3) 0.20477(6) 0.1946(3)
H1 H 0.4725 0.2142 0.3019
H2 H 0.3661 0.2227 0.1264
C6 C 0.6026(8) 0.20682(15) 0.1502(8)
H5 H 0.6928 0.1941 0.2340
C7 C 0.5795(9) 0.18406(15) -0.0024(9)
H6 H 0.4837 0.1947 -0.0835
H7 H 0.6739 0.1887 -0.0356
C10 C 0.5585(3) 0.13899(7) 0.0156(3)
H11 H 0.5225 0.1262 -0.0873
H12 H 0.6631 0.1271 0.0760
C11 C 0.6442(4) 0.25265(9) 0.1363(4)
H15 H 0.7418 0.2546 0.1081
H16 H 0.6616 0.2660 0.2353
H17 H 0.5550 0.2656 0.0568
C12 C 0.2213(2) 0.16293(6) 0.3699(2)
C13 C 0.2479(3) 0.14425(7) 0.5143(3)
H21 H 0.3029 0.1194 0.5354
C14 C 0.1941(4) 0.16197(9) 0.6269(3)
H22 H 0.2113 0.1488 0.7225
C15 C 0.1151(4) 0.19897(9) 0.5980(4)
H23 H 0.0789 0.2110 0.6740
C16 C 0.0900(4) 0.21801(9) 0.4576(4)
H24 H 0.0371 0.2432 0.4387
C17 C 0.1420(3) 0.20035(7) 0.3428(3)
H25 H 0.1237 0.2136 0.2473
C18 C 0.3925(3) 0.05331(6) 0.0572(2)
H26 H 0.4299 0.0566 -0.0324
H27 H 0.2878 0.0393 0.0208
C19 C 0.5140(2) 0.02667(6) 0.1782(2)
C20 C 0.6796(3) 0.03167(7) 0.2096(3)
H28 H 0.7168 0.0522 0.1585
C21 C 0.7918(3) 0.00676(8) 0.3155(3)
H29 H 0.9032 0.0105 0.3340
C22 C 0.7411(3) -0.02317(8) 0.3929(3)
H30 H 0.8169 -0.0397 0.4653
C23 C 0.5779(4) -0.02867(9) 0.3632(4)
H31 H 0.5418 -0.0492 0.4153
C24 C 0.4647(3) -0.00393(8) 0.2560(4)
H32 H 0.3534 -0.0082 0.2367
C25 C -0.0134(2) 0.09270(6) -0.0289(2)
C26 C -0.0472(3) 0.06293(7) -0.1434(3)
H33 H -0.0147 0.0360 -0.1172
C27 C -0.1296(3) 0.07355(8) -0.2970(3)
H34 H -0.1527 0.0534 -0.3742
C28 C -0.1785(3) 0.11303(8) -0.3392(3)
C29 C -0.1423(3) 0.14238(7) -0.2216(3)
H35 H -0.1740 0.1693 -0.2479
C30 C -0.0608(3) 0.13261(7) -0.0669(3)
H36 H -0.0382 0.1526 0.0107
C31 C -0.2672(4) 0.12442(11) -0.5085(3)
H37 H -0.3142 0.1512 -0.5129
H38 H -0.3525 0.1049 -0.5545
H39 H -0.1912 0.1244 -0.5658
H3? H 0.5231 0.2088 0.3008
H4? H 0.3581 0.2237 0.1786
C8? C 0.5375(15) 0.2154(3) 0.0805(17)
H8? H 0.4577 0.2206 -0.0238
C9? C 0.6478(18) 0.1800(3) 0.0715(18)
H9? H 0.7283 0.1759 0.1747
H10? H 0.7064 0.1874 0.0005
H13? H 0.5032 0.1400 -0.0971
H14? H 0.6381 0.1170 0.0377
H18? H 0.5828 0.2768 0.0929
H19? H 0.7382 0.2509 0.1024
H20? H 0.6794 0.2540 0.2489
loop_
_geom_bond_atom_site_label_1
_geom_bond_atom_site_label_2
_geom_bond_site_symmetry_1
_geom_bond_site_symmetry_2
S1 O1 1_555 1_555
O2 S1 1_555 1_555
N1 S1 1_555 1_555
C1 N1 1_555 1_555
C2 C1 1_555 1_555
C3 C2 1_555 1_555
C4 N1 1_555 1_555
C5 C2 1_555 1_555
H1 C5 1_555 1_555
H2 C5 1_555 1_555
C6 C5 1_555 1_555
H5 C6 1_555 1_555
C7 C6 1_555 1_555
H6 C7 1_555 1_555
H7 C7 1_555 1_555
C10 C3 1_555 1_555
H11 C10 1_555 1_555
H12 C10 1_555 1_555
C11 C6 1_555 1_555
H15 C11 1_555 1_555
H16 C11 1_555 1_555
H17 C11 1_555 1_555
C12 C1 1_555 1_555
C13 C12 1_555 1_555
H21 C13 1_555 1_555
C14 C13 1_555 1_555
H22 C14 1_555 1_555
C15 C14 1_555 1_555
H23 C15 1_555 1_555
C16 C15 1_555 1_555
H24 C16 1_555 1_555
C17 C12 1_555 1_555
H25 C17 1_555 1_555
C18 C4 1_555 1_555
H26 C18 1_555 1_555
H27 C18 1_555 1_555
C19 C18 1_555 1_555
C20 C19 1_555 1_555
H28 C20 1_555 1_555
C21 C20 1_555 1_555
H29 C21 1_555 1_555
C22 C21 1_555 1_555
H30 C22 1_555 1_555
C23 C22 1_555 1_555
H31 C23 1_555 1_555
C24 C19 1_555 1_555
H32 C24 1_555 1_555
C25 S1 1_555 1_555
C26 C25 1_555 1_555
H33 C26 1_555 1_555
C27 C26 1_555 1_555
H34 C27 1_555 1_555
C28 C27 1_555 1_555
C29 C28 1_555 1_555
H35 C29 1_555 1_555
C30 C25 1_555 1_555
H36 C30 1_555 1_555
C31 C28 1_555 1_555
H37 C31 1_555 1_555
H38 C31 1_555 1_555
H39 C31 1_555 1_555
C3 C4 1_555 1_555
C7 C10 1_555 1_555
C16 C17 1_555 1_555
C23 C24 1_555 1_555
C29 C30 1_555 1_555

#END
