
#######################################################################
#
#                 Cambridge Crystallographic Data Centre
#                                CCDC 
#
#######################################################################
#
# If this CIF has been generated from an entry in the Cambridge 
# Structural Database, then it will include bibliographic, chemical, 
# crystal, experimental, refinement or atomic coordinate data resulting 
# from the CCDC's data processing and validation procedures.
#
#######################################################################

data_PIXMAN
_chemical_formula_moiety         'C24 H29 N1 O2'
_chemical_name_systematic        
3-[3-methoxy-4-(octyloxy)phenyl]-2-phenylprop-2-enenitrile
_symmetry_cell_setting           monoclinic
_symmetry_space_group_name_H-M   'P 21/n'
_symmetry_Int_Tables_number      14
_space_group_name_Hall           '-P 2yn'
loop_
_symmetry_equiv_pos_site_id
_symmetry_equiv_pos_as_xyz
1 x,y,z
2 1/2-x,1/2+y,1/2-z
3 -x,-y,-z
4 1/2+x,1/2-y,1/2+z
_cell_length_a                   20.4466(11)
_cell_length_b                   7.8077(3)
_cell_length_c                   28.6136(13)
_cell_angle_alpha                90
_cell_angle_beta                 110.268(6)
_cell_angle_gamma                90
_cell_volume                     4285.07
_exptl_crystal_colour            colorless
_exptl_crystal_description       block
_cell_formula_units_Z            8
loop_
_atom_site_label
_atom_site_type_symbol
_atom_site_fract_x
_atom_site_fract_y
_atom_site_fract_z
O1 O 0.22060(7) -0.00099(19) 0.23556(5)
O2 O 0.10105(7) 0.0404(2) 0.24332(5)
C1 C 0.22071(10) 0.0077(2) 0.28306(7)
C2 C 0.20739(10) 0.0263(2) 0.37726(7)
C3 C 0.27082(10) 0.0053(3) 0.17265(7)
H1 H 0.2377 0.0960 0.1579
H2 H 0.2490 -0.1025 0.1589
C4 C 0.15487(10) 0.0288(2) 0.28748(7)
C5 C 0.27183(10) 0.0044(3) 0.37180(7)
H3 H 0.3115 -0.0050 0.4001
C6 C 0.28610(10) 0.0042(3) 0.22785(7)
H4 H 0.3139 -0.0952 0.2428
H5 H 0.3118 0.1064 0.2429
C7 C 0.14890(10) 0.0384(2) 0.33376(7)
H6 H 0.1051 0.0532 0.3362
C8 C 0.20637(11) 0.0385(2) 0.42791(7)
H7 H 0.2501 0.0291 0.4525
C9 C 0.33442(10) 0.0310(3) 0.15816(7)
H8 H 0.3672 -0.0610 0.1722
H9 H 0.3568 0.1378 0.1723
C10 C 0.16416(12) 0.0766(3) 0.49952(8)
C11 C 0.27853(11) -0.0036(3) 0.32542(7)
H10 H 0.3224 -0.0167 0.3229
C12 C 0.31712(10) 0.0349(3) 0.10211(7)
H11 H 0.2967 -0.0743 0.0885
H12 H 0.2821 0.1225 0.0882
C13 C 0.15418(11) 0.0609(3) 0.44562(8)
C14 C 0.37818(11) 0.0694(3) 0.08531(8)
H13 H 0.4123 -0.0211 0.0976
H14 H 0.4000 0.1763 0.0999
C15 C 0.35783(11) 0.0803(3) 0.02911(8)
H15 H 0.3368 -0.0276 0.0147
H16 H 0.3228 0.1688 0.0169
C16 C 0.22902(14) 0.0611(3) 0.53593(9)
H17 H 0.2676 0.0387 0.5268
C17 C 0.10809(14) 0.1075(3) 0.51489(10)
H18 H 0.0636 0.1176 0.4913
C18 C 0.03338(11) 0.0735(4) 0.24494(9)
H19 H 0.0007 0.0848 0.2116
H20 H 0.0343 0.1777 0.2630
H21 H 0.0195 -0.0197 0.2613
C19 C 0.41746(13) 0.1185(4) 0.01104(9)
H22 H 0.4522 0.0289 0.0225
H23 H 0.4391 0.2257 0.0256
C20 C 0.18157(19) 0.1095(4) 0.60000(11)
H24 H 0.1875 0.1211 0.6336
C21 C 0.11739(18) 0.1235(4) 0.56501(12)
H25 H 0.0791 0.1441 0.5747
C22 C 0.08323(15) 0.0706(4) 0.41286(10)
C23 C 0.23762(16) 0.0783(4) 0.58574(10)
H26 H 0.2819 0.0684 0.6097
C24 C 0.39504(16) 0.1313(4) -0.04506(10)
H27 H 0.3762 0.0235 -0.0597
H28 H 0.4346 0.1599 -0.0543
H29 H 0.3601 0.2187 -0.0568
N1 N 0.02622(13) 0.0761(5) 0.38823(10)
O3 O 0.88731(7) 0.01264(19) 0.10054(5)
O4 O 1.01216(7) 0.11334(18) 0.11528(5)
C25 C 0.96705(10) 0.1294(2) 0.06757(7)
C26 C 0.98393(10) 0.1924(2) 0.02841(7)
H30 H 1.0293 0.2292 0.0340
C27 C 1.00695(10) 0.3252(2) -0.06898(7)
C28 C 1.01026(11) 0.3753(3) -0.11838(8)
C29 C 0.89838(10) 0.0732(3) 0.05940(8)
C30 C 0.94932(10) 0.2633(3) -0.06296(7)
H31 H 0.9111 0.2583 -0.0924
C31 C 1.07066(12) 0.3507(3) -0.02788(8)
C32 C 0.93472(10) 0.2025(2) -0.01976(7)
C33 C 0.86778(11) 0.1457(3) -0.02671(8)
H32 H 0.8342 0.1501 -0.0584
C34 C 0.84977(11) 0.0827(3) 0.01231(8)
H33 H 0.8043 0.0465 0.0066
N2 N 1.12285(11) 0.3741(3) 0.00307(7)
C35 C 1.05723(13) 0.4984(3) -0.12181(9)
H34 H 1.0878 0.5478 -0.0929
C36 C 0.96649(11) 0.3010(3) -0.16223(8)
H35 H 0.9354 0.2158 -0.1608
C37 C 1.08060(11) 0.1804(3) 0.12577(8)
H36 H 1.1031 0.1207 0.1062
H37 H 1.1070 0.1655 0.1605
H38 H 1.0777 0.3001 0.1177
C38 C 0.96869(13) 0.3522(3) -0.20763(9)
H39 H 0.9385 0.3027 -0.2367
C39 C 0.82466(13) -0.1276(3) 0.14461(10)
H40 H 0.8659 -0.1982 0.1585
H41 H 0.7843 -0.1993 0.1406
C40 C 0.82154(12) -0.0656(3) 0.09429(9)
H42 H 0.8132 -0.1607 0.0712
H43 H 0.7841 0.0169 0.0813
C41 C 1.01482(15) 0.4753(4) -0.21061(10)
H44 H 1.0162 0.5090 -0.2414
C42 C 0.82653(14) 0.0131(3) 0.18113(9)
H45 H 0.8624 0.0947 0.1814
H46 H 0.7822 0.0728 0.1697
C43 C 1.05917(15) 0.5487(3) -0.16756(11)
H47 H 1.0906 0.6325 -0.1693
C44 C 0.87274(18) 0.2392(5) 0.27708(12)
H48 H 0.8592 0.3027 0.2460
H49 H 0.9210 0.2052 0.2851
C45 C 0.84043(17) -0.0481(5) 0.23334(12)
H50 H 0.8881 -0.0893 0.2467
H51 H 0.8101 -0.1447 0.2322
C46 C 0.9104(3) 0.5120(7) 0.32533(17)
H52 H 0.8960 0.5796 0.2955
H53 H 0.9586 0.4812 0.3338
H54 H 0.9044 0.5771 0.3520
C47 C 0.8678(2) 0.3558(7) 0.31720(14)
H55 H 0.8194 0.3891 0.3091
H56 H 0.8813 0.2920 0.3482
C48 C 0.8301(2) 0.0853(7) 0.26943(14)
H57 H 0.7815 0.1197 0.2573
H58 H 0.8392 0.0306 0.3015
loop_
_geom_bond_atom_site_label_1
_geom_bond_atom_site_label_2
_geom_bond_site_symmetry_1
_geom_bond_site_symmetry_2
O1 C1 1_555 1_555
O2 C4 1_555 1_555
C1 C4 1_555 1_555
C2 C5 1_555 1_555
C3 H1 1_555 1_555
H2 C3 1_555 1_555
C4 C7 1_555 1_555
C5 H3 1_555 1_555
C6 O1 1_555 1_555
H4 C6 1_555 1_555
H5 C6 1_555 1_555
C7 C2 1_555 1_555
H6 C7 1_555 1_555
C8 C2 1_555 1_555
H7 C8 1_555 1_555
C9 C3 1_555 1_555
H8 C9 1_555 1_555
H9 C9 1_555 1_555
C10 C13 1_555 1_555
C11 C1 1_555 1_555
H10 C11 1_555 1_555
C12 C9 1_555 1_555
H11 C12 1_555 1_555
H12 C12 1_555 1_555
C13 C8 1_555 1_555
C14 C12 1_555 1_555
H13 C14 1_555 1_555
H14 C14 1_555 1_555
C15 C14 1_555 1_555
H15 C15 1_555 1_555
H16 C15 1_555 1_555
C16 C10 1_555 1_555
H17 C16 1_555 1_555
C17 C10 1_555 1_555
H18 C17 1_555 1_555
C18 O2 1_555 1_555
H19 C18 1_555 1_555
H20 C18 1_555 1_555
H21 C18 1_555 1_555
C19 C15 1_555 1_555
H22 C19 1_555 1_555
H23 C19 1_555 1_555
C20 H24 1_555 1_555
C21 C17 1_555 1_555
H25 C21 1_555 1_555
C22 C13 1_555 1_555
C23 C16 1_555 1_555
H26 C23 1_555 1_555
C24 C19 1_555 1_555
H27 C24 1_555 1_555
H28 C24 1_555 1_555
H29 C24 1_555 1_555
N1 C22 1_555 1_555
O3 C29 1_555 1_555
O4 C25 1_555 1_555
C25 C26 1_555 1_555
C26 H30 1_555 1_555
C27 C28 1_555 1_555
C28 C35 1_555 1_555
C29 C25 1_555 1_555
C30 C27 1_555 1_555
H31 C30 1_555 1_555
C31 C27 1_555 1_555
C32 C26 1_555 1_555
C33 C32 1_555 1_555
H32 C33 1_555 1_555
C34 C29 1_555 1_555
H33 C34 1_555 1_555
N2 C31 1_555 1_555
C35 H34 1_555 1_555
C36 C28 1_555 1_555
H35 C36 1_555 1_555
C37 O4 1_555 1_555
H36 C37 1_555 1_555
H37 C37 1_555 1_555
H38 C37 1_555 1_555
C38 C36 1_555 1_555
H39 C38 1_555 1_555
C39 H40 1_555 1_555
H41 C39 1_555 1_555
C40 O3 1_555 1_555
H42 C40 1_555 1_555
H43 C40 1_555 1_555
C41 C38 1_555 1_555
H44 C41 1_555 1_555
C42 C39 1_555 1_555
H45 C42 1_555 1_555
H46 C42 1_555 1_555
C43 C35 1_555 1_555
H47 C43 1_555 1_555
C44 H48 1_555 1_555
H49 C44 1_555 1_555
C45 C42 1_555 1_555
H50 C45 1_555 1_555
H51 C45 1_555 1_555
C46 H52 1_555 1_555
H53 C46 1_555 1_555
H54 C46 1_555 1_555
C47 C44 1_555 1_555
H55 C47 1_555 1_555
H56 C47 1_555 1_555
C48 C44 1_555 1_555
H57 C48 1_555 1_555
H58 C48 1_555 1_555
C3 C6 1_555 1_555
C5 C11 1_555 1_555
C20 C21 1_555 1_555
C20 C23 1_555 1_555
C30 C32 1_555 1_555
C33 C34 1_555 1_555
C39 C40 1_555 1_555
C41 C43 1_555 1_555
C45 C48 1_555 1_555
C46 C47 1_555 1_555

#END
