
#######################################################################
#
#                 Cambridge Crystallographic Data Centre
#                                CCDC 
#
#######################################################################
#
# If this CIF has been generated from an entry in the Cambridge 
# Structural Database, then it will include bibliographic, chemical, 
# crystal, experimental, refinement or atomic coordinate data resulting 
# from the CCDC's data processing and validation procedures.
#
#######################################################################

data_PIXNOC
_chemical_formula_moiety         'C21 H16 O3'
_chemical_name_systematic        2,6-dimethoxy-9-phenyl-1H-phenalen-1-one
_symmetry_cell_setting           tetragonal
_symmetry_space_group_name_H-M   'I 41/a'
_symmetry_Int_Tables_number      88
_space_group_name_Hall           '-I 4ad'
loop_
_symmetry_equiv_pos_site_id
_symmetry_equiv_pos_as_xyz
1 x,y,z
2 3/4-y,1/4+x,1/4+z
3 -x,1/2-y,z
4 1/4+y,1/4-x,1/4+z
5 1/2+x,1/2+y,1/2+z
6 1/4-y,3/4+x,3/4+z
7 1/2-x,-y,1/2+z
8 3/4+y,3/4-x,3/4+z
9 -x,-y,-z
10 1/4+y,3/4-x,3/4-z
11 x,1/2+y,-z
12 3/4-y,3/4+x,3/4-z
13 1/2-x,1/2-y,1/2-z
14 3/4+y,1/4-x,1/4-z
15 1/2+x,y,1/2-z
16 1/4-y,1/4+x,1/4-z
_cell_length_a                   32.6613(5)
_cell_length_b                   32.6613(5)
_cell_length_c                   5.65050(10)
_cell_angle_alpha                90
_cell_angle_beta                 90
_cell_angle_gamma                90
_cell_volume                     6027.73
_exptl_crystal_colour            red
_exptl_crystal_description       needle
_cell_formula_units_Z            16
loop_
_atom_site_label
_atom_site_type_symbol
_atom_site_fract_x
_atom_site_fract_y
_atom_site_fract_z
O1 O 0.39140(3) 0.62760(3) 1.01245(17)
O2 O 0.54094(3) 0.53765(3) 0.23309(18)
O3 O 0.44736(3) 0.66519(3) 1.25895(18)
C1 C 0.40839(4) 0.57124(4) 0.6259(2)
C2 C 0.46096(4) 0.64125(4) 1.0773(2)
C3 C 0.42692(4) 0.62071(4) 0.9531(2)
C4 C 0.48032(4) 0.58848(4) 0.6904(2)
C5 C 0.36316(4) 0.57235(4) 0.6670(2)
C6 C 0.51131(4) 0.61051(4) 0.8146(2)
C7 C 0.43811(4) 0.59245(4) 0.7559(2)
C8 C 0.46114(4) 0.54235(4) 0.3705(2)
H1 H 0.468409 0.525197 0.241382
C9 C 0.55150(4) 0.60758(4) 0.7395(3)
H2 H 0.572025 0.622353 0.822576
C10 C 0.53379(4) 0.56159(4) 0.4246(2)
C11 C 0.49159(4) 0.56368(4) 0.4951(2)
C12 C 0.42088(4) 0.54633(4) 0.4354(2)
H3 H 0.400660 0.531756 0.348759
C13 C 0.50042(4) 0.63617(4) 1.0122(2)
H4 H 0.521379 0.649765 1.098318
C14 C 0.56298(4) 0.58350(4) 0.5448(3)
H5 H 0.590813 0.582382 0.496508
C15 C 0.30311(4) 0.55342(4) 0.8921(2)
H6 H 0.291305 0.541902 1.030587
C16 C 0.34525(4) 0.55570(4) 0.8698(2)
H7 H 0.362195 0.545818 0.993931
C17 C 0.27797(4) 0.56804(4) 0.7114(2)
H8 H 0.249035 0.566668 0.726674
C18 C 0.58208(4) 0.53612(5) 0.1485(3)
H9 H 0.583144 0.519812 0.003078
H10 H 0.599641 0.523548 0.268886
H11 H 0.591701 0.563964 0.115485
C19 C 0.29546(4) 0.58455(4) 0.5096(2)
H12 H 0.278417 0.594628 0.386458
C20 C 0.33793(4) 0.58650(4) 0.4860(2)
H13 H 0.349667 0.597506 0.345926
C21 C 0.47782(5) 0.68629(5) 1.3922(3)
H14 H 0.492561 0.705297 1.288520
H15 H 0.497131 0.666451 1.459101
H16 H 0.464719 0.701623 1.520606
loop_
_geom_bond_atom_site_label_1
_geom_bond_atom_site_label_2
_geom_bond_site_symmetry_1
_geom_bond_site_symmetry_2
O1 C3 1_555 1_555
O2 C10 1_555 1_555
O3 C2 1_555 1_555
C1 C5 1_555 1_555
C2 C3 1_555 1_555
C3 C7 1_555 1_555
C4 C6 1_555 1_555
C5 C16 1_555 1_555
C6 C9 1_555 1_555
C7 C1 1_555 1_555
C8 H1 1_555 1_555
C9 H2 1_555 1_555
C10 C11 1_555 1_555
C11 C4 1_555 1_555
C12 C1 1_555 1_555
H3 C12 1_555 1_555
C13 C2 1_555 1_555
H4 C13 1_555 1_555
C14 C9 1_555 1_555
H5 C14 1_555 1_555
C15 H6 1_555 1_555
C16 C15 1_555 1_555
H7 C16 1_555 1_555
C17 C15 1_555 1_555
H8 C17 1_555 1_555
C18 O2 1_555 1_555
H9 C18 1_555 1_555
H10 C18 1_555 1_555
H11 C18 1_555 1_555
C19 C17 1_555 1_555
H12 C19 1_555 1_555
C20 C5 1_555 1_555
H13 C20 1_555 1_555
C21 O3 1_555 1_555
H14 C21 1_555 1_555
H15 C21 1_555 1_555
H16 C21 1_555 1_555
C4 C7 1_555 1_555
C6 C13 1_555 1_555
C8 C11 1_555 1_555
C8 C12 1_555 1_555
C10 C14 1_555 1_555
C19 C20 1_555 1_555

#END
