
#######################################################################
#
#                 Cambridge Crystallographic Data Centre
#                                CCDC 
#
#######################################################################
#
# If this CIF has been generated from an entry in the Cambridge 
# Structural Database, then it will include bibliographic, chemical, 
# crystal, experimental, refinement or atomic coordinate data resulting 
# from the CCDC's data processing and validation procedures.
#
#######################################################################

data_PIXPAO
_chemical_formula_moiety         'C56 H56 I2 O10 Te4 2+,2(I1 1-),2(C1 H1 Cl3)'
_chemical_name_systematic        
'bis(\m~2~-Oxo)-bis(\m~2~-iodo)-octakis(4-methoxyphenyl)-tetra-tellurium(iv) bis(iodide) chloroform solvate'
_symmetry_cell_setting           triclinic
_symmetry_space_group_name_H-M   'P -1'
_symmetry_Int_Tables_number      2
_space_group_name_Hall           '-P 1'
loop_
_symmetry_equiv_pos_site_id
_symmetry_equiv_pos_as_xyz
1 x,y,z
2 -x,-y,-z
_cell_length_a                   10.828(5)
_cell_length_b                   12.311(6)
_cell_length_c                   14.229(7)
_cell_angle_alpha                70.935(10)
_cell_angle_beta                 89.197(12)
_cell_angle_gamma                74.478(9)
_cell_volume                     1721.73
_exptl_crystal_colour            yellow
_exptl_crystal_description       plate
_cell_formula_units_Z            1
loop_
_atom_site_label
_atom_site_type_symbol
_atom_site_fract_x
_atom_site_fract_y
_atom_site_fract_z
I1 I 0.27263(5) 0.57172(4) 0.54033(4)
I2 I 0.55886(6) 0.26944(5) 0.80957(5)
Te1 Te 0.48002(4) 0.28570(4) 0.58162(4)
Te2 Te 0.56935(4) 0.53238(4) 0.66229(4)
C1 C 0.6079(7) 0.1155(6) 0.6030(6)
O1 O 0.4301(5) 0.3133(5) 0.4399(4)
O2 O 1.0919(6) 0.4607(6) 0.8856(5)
O3 O 0.1883(7) 0.8185(7) 0.8892(6)
O4 O -0.0265(6) 0.1520(6) 0.7094(5)
O5 O 0.8677(6) -0.2138(5) 0.6420(6)
C2 C 0.7522(8) 0.5578(8) 0.8126(7)
H1 H 0.6776 0.6020 0.8306
C3 C 0.4482(7) 0.6260(7) 0.7455(6)
C4 C 0.7378(7) 0.1043(7) 0.6144(7)
H2 H 0.7647 0.1701 0.6141
C5 C 0.3163(7) 0.2267(6) 0.6251(6)
C6 C 0.8292(8) -0.0048(7) 0.6264(8)
H3 H 0.9165 -0.0117 0.6329
C7 C 0.3813(8) 0.7441(7) 0.6971(7)
H4 H 0.3936 0.7815 0.6308
C8 C 0.0902(7) 0.1704(8) 0.6860(7)
C9 C 0.7456(7) 0.5138(6) 0.7366(6)
C10 C 0.8553(8) 0.4518(8) 0.7060(7)
H5 H 0.8500 0.4228 0.6538
C11 C 0.1982(8) 0.1197(8) 0.7514(7)
H6 H 0.1961 0.0667 0.8149
C12 C 0.2953(9) 0.8071(8) 0.7477(7)
H7 H 0.2510 0.8869 0.7154
C13 C 0.9820(8) 0.4739(8) 0.8325(7)
C14 C 0.9751(8) 0.4329(8) 0.7543(7)
H8 H 1.0499 0.3926 0.7335
C15 C 0.2068(8) 0.2737(8) 0.5584(7)
H9 H 0.2091 0.3241 0.4938
C16 C 0.8696(8) 0.5366(8) 0.8630(7)
H10 H 0.8737 0.5637 0.9164
C17 C 0.6566(8) -0.0920(7) 0.6173(8)
H11 H 0.6295 -0.1580 0.6185
C18 C -0.0418(9) 0.0954(11) 0.8107(9)
H12 H -0.1276 0.0876 0.8175
H13 H -0.0269 0.1426 0.8491
H14 H 0.0187 0.0175 0.8344
C19 C 0.3123(8) 0.1500(8) 0.7202(7)
H15 H 0.3858 0.1179 0.7641
C20 C 0.5666(7) 0.0166(7) 0.6042(7)
H16 H 0.4794 0.0239 0.5962
C21 C 0.0948(8) 0.2443(8) 0.5893(7)
H17 H 0.0218 0.2744 0.5450
C22 C 1.0033(9) -0.2305(9) 0.6593(9)
H18 H 1.0494 -0.3115 0.6667
H19 H 1.0188 -0.2142 0.7189
H20 H 1.0321 -0.1768 0.6037
C23 C 1.2097(8) 0.3971(10) 0.8577(9)
H21 H 1.2804 0.3936 0.8996
H22 H 1.2069 0.3174 0.8655
H23 H 1.2207 0.4378 0.7893
C24 C 0.7872(8) -0.1031(7) 0.6286(7)
C25 C 0.4316(8) 0.5714(8) 0.8445(7)
H24 H 0.4782 0.4924 0.8772
C27 C 0.2761(9) 0.7503(9) 0.8466(8)
C28 C 0.3471(9) 0.6322(9) 0.8955(7)
H26 H 0.3373 0.5947 0.9623
C29 C 0.1570(13) 0.7598(14) 0.9875(9)
H27 H 0.0941 0.8162 1.0092
H28 H 0.1227 0.6958 0.9867
H29 H 0.2331 0.7280 1.0326
I2A I 0.44114(6) 0.73056(5) 0.19043(5)
Te1A Te 0.51998(4) 0.71430(4) 0.41838(4)
Te2A Te 0.43065(4) 0.46762(4) 0.33771(4)
C1A C 0.3921(7) 0.8845(6) 0.3970(6)
O1A O 0.5699(5) 0.6867(5) 0.5601(4)
O2A O -0.0919(6) 0.5393(6) 0.1144(5)
O3A O 0.8117(7) 0.1815(7) 0.1108(6)
O4A O 1.0265(6) 0.8480(6) 0.2906(5)
O5A O 0.1323(6) 1.2138(5) 0.3580(6)
C2A C 0.2478(8) 0.4422(8) 0.1874(7)
H1A H 0.3224 0.3980 0.1694
C3A C 0.5518(7) 0.3740(7) 0.2545(6)
C4A C 0.2622(7) 0.8957(7) 0.3856(7)
H2A H 0.2353 0.8299 0.3859
C5A C 0.6837(7) 0.7733(6) 0.3749(6)
C6A C 0.1708(8) 1.0048(7) 0.3736(8)
H3A H 0.0835 1.0117 0.3671
C7A C 0.6187(8) 0.2559(7) 0.3029(7)
H4A H 0.6064 0.2185 0.3692
C8A C 0.9098(7) 0.8296(8) 0.3140(7)
C9A C 0.2544(7) 0.4862(6) 0.2634(6)
C10A C 0.1447(8) 0.5482(8) 0.2940(7)
H5A H 0.1500 0.5772 0.3462
C11A C 0.8018(8) 0.8803(8) 0.2486(7)
H6A H 0.8039 0.9333 0.1851
C12A C 0.7047(9) 0.1929(8) 0.2523(7)
H7A H 0.7490 0.1131 0.2846
C13A C 0.0180(8) 0.5261(8) 0.1675(7)
C14A C 0.0249(8) 0.5671(8) 0.2457(7)
H8A H -0.0499 0.6074 0.2665
C15A C 0.7932(8) 0.7263(8) 0.4416(7)
H9A H 0.7909 0.6759 0.5062
C16A C 0.1304(8) 0.4634(8) 0.1370(7)
H10A H 0.1263 0.4363 0.0836
C17A C 0.3434(8) 1.0920(7) 0.3827(8)
H11A H 0.3705 1.1580 0.3815
C18A C 1.0418(9) 0.9046(11) 0.1893(9)
H12A H 1.1276 0.9124 0.1825
H13A H 1.0269 0.8574 0.1509
H14A H 0.9813 0.9825 0.1656
C19A C 0.6877(8) 0.8500(8) 0.2798(7)
H15A H 0.6142 0.8821 0.2359
C20A C 0.4334(7) 0.9834(7) 0.3958(7)
H16A H 0.5206 0.9761 0.4038
C21A C 0.9052(8) 0.7557(8) 0.4107(7)
H17A H 0.9782 0.7256 0.4550
C22A C -0.0033(9) 1.2305(9) 0.3407(9)
H18A H -0.0494 1.3115 0.3333
H19A H -0.0188 1.2142 0.2811
H20A H -0.0321 1.1768 0.3963
C23A C -0.2097(8) 0.6029(10) 0.1423(9)
H21A H -0.2804 0.6064 0.1004
H22A H -0.2069 0.6826 0.1345
H23A H -0.2207 0.5622 0.2107
C24A C 0.2128(8) 1.1031(7) 0.3714(7)
C25A C 0.5684(8) 0.4286(8) 0.1555(7)
H24A H 0.5218 0.5076 0.1228
C27A C 0.7239(9) 0.2497(9) 0.1534(8)
C28A C 0.6529(9) 0.3678(9) 0.1045(7)
H26A H 0.6627 0.4053 0.0377
C29A C 0.8430(13) 0.2402(14) 0.0125(9)
H27A H 0.9059 0.1838 -0.0092
H28A H 0.8773 0.3042 0.0133
H29A H 0.7669 0.2720 -0.0326
Cl1 Cl 0.4387(4) 0.1543(4) 0.1130(3)
Cl2 Cl 0.1668(4) 0.1832(3) 0.1112(3)
Cl3 Cl 0.3208(5) 0.0478(3) -0.0001(3)
C26 C 0.3175(12) 0.0866(10) 0.1075(9)
H25 H 0.3317 0.0136 0.1657
loop_
_geom_bond_atom_site_label_1
_geom_bond_atom_site_label_2
_geom_bond_site_symmetry_1
_geom_bond_site_symmetry_2
I2 Te1 1_555 1_555
Te1 C1 1_555 1_555
Te2 I2 1_555 1_555
Cl1 C26 1_555 1_555
C1 C4 1_555 1_555
Cl2 C26 1_555 1_555
Cl3 C26 1_555 1_555
O1 Te1 1_555 1_555
O2 C13 1_555 1_555
O3 C27 1_555 1_555
O4 C8 1_555 1_555
O5 C22 1_555 1_555
C2 H1 1_555 1_555
C3 Te2 1_555 1_555
C4 H2 1_555 1_555
C5 Te1 1_555 1_555
C6 C4 1_555 1_555
H3 C6 1_555 1_555
C7 C3 1_555 1_555
H4 C7 1_555 1_555
C8 C11 1_555 1_555
C9 Te2 1_555 1_555
C10 C9 1_555 1_555
H5 C10 1_555 1_555
C11 H6 1_555 1_555
C12 C7 1_555 1_555
H7 C12 1_555 1_555
C13 C14 1_555 1_555
C14 C10 1_555 1_555
H8 C14 1_555 1_555
C15 C5 1_555 1_555
H9 C15 1_555 1_555
C16 C2 1_555 1_555
H10 C16 1_555 1_555
C17 H11 1_555 1_555
C18 O4 1_555 1_555
H12 C18 1_555 1_555
H13 C18 1_555 1_555
H14 C18 1_555 1_555
C19 C5 1_555 1_555
H15 C19 1_555 1_555
C20 C1 1_555 1_555
H16 C20 1_555 1_555
C21 C8 1_555 1_555
H17 C21 1_555 1_555
C22 H18 1_555 1_555
H19 C22 1_555 1_555
H20 C22 1_555 1_555
C23 O2 1_555 1_555
H21 C23 1_555 1_555
H22 C23 1_555 1_555
H23 C23 1_555 1_555
C24 O5 1_555 1_555
C25 C3 1_555 1_555
H24 C25 1_555 1_555
C26 H25 1_555 1_555
C27 C12 1_555 1_555
C28 C25 1_555 1_555
H26 C28 1_555 1_555
C29 O3 1_555 1_555
H27 C29 1_555 1_555
H28 C29 1_555 1_555
H29 C29 1_555 1_555
I2A Te1A 1_555 1_555
Te1A C1A 1_555 1_555
Te2A O1 1_555 1_555
C1A C4A 1_555 1_555
O1A Te2 1_555 1_555
O2A C13A 1_555 1_555
O3A C27A 1_555 1_555
O4A C8A 1_555 1_555
O5A C22A 1_555 1_555
C2A H1A 1_555 1_555
C3A Te2A 1_555 1_555
C4A H2A 1_555 1_555
C5A Te1A 1_555 1_555
C6A C4A 1_555 1_555
H3A C6A 1_555 1_555
C7A C3A 1_555 1_555
H4A C7A 1_555 1_555
C8A C11A 1_555 1_555
C9A Te2A 1_555 1_555
C10A C9A 1_555 1_555
H5A C10A 1_555 1_555
C11A H6A 1_555 1_555
C12A C7A 1_555 1_555
H7A C12A 1_555 1_555
C13A C14A 1_555 1_555
C14A C10A 1_555 1_555
H8A C14A 1_555 1_555
C15A C5A 1_555 1_555
H9A C15A 1_555 1_555
C16A C2A 1_555 1_555
H10A C16A 1_555 1_555
C17A H11A 1_555 1_555
C18A O4A 1_555 1_555
H12A C18A 1_555 1_555
H13A C18A 1_555 1_555
H14A C18A 1_555 1_555
C19A C5A 1_555 1_555
H15A C19A 1_555 1_555
C20A C1A 1_555 1_555
H16A C20A 1_555 1_555
C21A C8A 1_555 1_555
H17A C21A 1_555 1_555
C22A H18A 1_555 1_555
H19A C22A 1_555 1_555
H20A C22A 1_555 1_555
C23A O2A 1_555 1_555
H21A C23A 1_555 1_555
H22A C23A 1_555 1_555
H23A C23A 1_555 1_555
C24A O5A 1_555 1_555
C25A C3A 1_555 1_555
H24A C25A 1_555 1_555
C27A C12A 1_555 1_555
C28A C25A 1_555 1_555
H26A C28A 1_555 1_555
C29A O3A 1_555 1_555
H27A C29A 1_555 1_555
H28A C29A 1_555 1_555
H29A C29A 1_555 1_555
C2 C9 1_555 1_555
C6 C24 1_555 1_555
C11 C19 1_555 1_555
C13 C16 1_555 1_555
C15 C21 1_555 1_555
C17 C20 1_555 1_555
C17 C24 1_555 1_555
C27 C28 1_555 1_555
I2A Te2A 1_555 1_555
Te1A O1A 1_555 1_555
C2A C9A 1_555 1_555
C6A C24A 1_555 1_555
C11A C19A 1_555 1_555
C13A C16A 1_555 1_555
C15A C21A 1_555 1_555
C17A C20A 1_555 1_555
C17A C24A 1_555 1_555
C27A C28A 1_555 1_555

#END
