
#######################################################################
#
#                 Cambridge Crystallographic Data Centre
#                                CCDC 
#
#######################################################################
#
# If this CIF has been generated from an entry in the Cambridge 
# Structural Database, then it will include bibliographic, chemical, 
# crystal, experimental, refinement or atomic coordinate data resulting 
# from the CCDC's data processing and validation procedures.
#
#######################################################################

data_PIXPIW
_chemical_formula_moiety         'C4 H12 I2 O1 Te2'
_chemical_name_systematic        
(\m~2~-Oxo)-di-iodo-tetramethyl-di-tellurium(iv)
_symmetry_cell_setting           orthorhombic
_symmetry_space_group_name_H-M   'P b c a'
_symmetry_Int_Tables_number      61
_space_group_name_Hall           '-P 2ac 2ab'
loop_
_symmetry_equiv_pos_site_id
_symmetry_equiv_pos_as_xyz
1 x,y,z
2 1/2-x,-y,1/2+z
3 1/2+x,1/2-y,-z
4 -x,1/2+y,1/2-z
5 -x,-y,-z
6 1/2+x,y,1/2-z
7 1/2-x,1/2+y,z
8 x,1/2-y,1/2+z
_cell_length_a                   16.041(4)
_cell_length_b                   15.587(4)
_cell_length_c                   21.001(5)
_cell_angle_alpha                90
_cell_angle_beta                 90
_cell_angle_gamma                90
_cell_volume                     5250.9
_exptl_crystal_colour            colorless
_exptl_crystal_description       plate
_cell_formula_units_Z            16
loop_
_atom_site_label
_atom_site_type_symbol
_atom_site_fract_x
_atom_site_fract_y
_atom_site_fract_z
Te1 Te 0.021313(14) 0.546386(14) 0.167949(10)
I1 I -0.015405(15) 0.684372(16) 0.061896(11)
Te3 Te 0.116662(15) 0.448561(14) 0.297982(10)
I3 I 0.242939(17) 0.417353(16) 0.411240(12)
O2 O 0.03161(18) 0.45197(17) 0.23045(13)
C2 C -0.1039(2) 0.5621(3) 0.19563(19)
H4 H -0.1072 0.6040 0.2290
H5 H -0.1255 0.5084 0.2107
H6 H -0.1361 0.5811 0.1598
C5 C 0.1384(3) 0.3179(2) 0.2765(2)
H13 H 0.1825 0.3135 0.2458
H14 H 0.0885 0.2929 0.2593
H15 H 0.1540 0.2880 0.3146
C6 C 0.0016(3) 0.4531(3) 0.0967(2)
H16 H 0.0540 0.4375 0.0780
H17 H -0.0345 0.4761 0.0644
H18 H -0.0238 0.4032 0.1153
C8 C 0.0196(3) 0.4250(3) 0.3639(2)
H22 H -0.0005 0.4786 0.3805
H23 H 0.0404 0.3904 0.3982
H24 H -0.0251 0.3954 0.3429
Te2 Te 0.362068(14) 0.274182(13) 0.947794(10)
Te4 Te 0.283897(15) 0.150278(15) 1.072467(10)
I2 I 0.251995(18) -0.017400(18) 1.154266(13)
I4 I 0.454285(17) 0.323875(17) 0.818621(12)
O1 O 0.29516(18) 0.26050(16) 1.02612(13)
C1 C 0.1530(3) 0.1616(4) 1.0691(3)
H1 H 0.1324 0.1336 1.0315
H2 H 0.1379 0.2212 1.0680
H3 H 0.1292 0.1352 1.1061
C3 C 0.4101(3) 0.3902(2) 0.98585(18)
H7 H 0.4603 0.3784 1.0091
H8 H 0.3696 0.4152 1.0139
H9 H 0.4220 0.4293 0.9518
C4 C 0.2573(2) 0.3294(3) 0.9032(2)
H10 H 0.2257 0.2854 0.8822
H11 H 0.2754 0.3710 0.8725
H12 H 0.2231 0.3569 0.9346
C7 C 0.2971(3) 0.2186(3) 1.15889(19)
H19 H 0.3550 0.2215 1.1702
H20 H 0.2668 0.1896 1.1919
H21 H 0.2755 0.2756 1.1538
loop_
_geom_bond_atom_site_label_1
_geom_bond_atom_site_label_2
_geom_bond_site_symmetry_1
_geom_bond_site_symmetry_2
Te1 I1 1_555 1_555
Te2 I4 1_555 1_555
Te3 I3 1_555 1_555
Te4 I2 1_555 1_555
O1 Te2 1_555 1_555
O2 Te1 1_555 1_555
C1 Te4 1_555 1_555
H1 C1 1_555 1_555
H2 C1 1_555 1_555
H3 C1 1_555 1_555
C2 Te1 1_555 1_555
H4 C2 1_555 1_555
H5 C2 1_555 1_555
H6 C2 1_555 1_555
C3 Te2 1_555 1_555
H7 C3 1_555 1_555
H8 C3 1_555 1_555
H9 C3 1_555 1_555
C4 Te2 1_555 1_555
H10 C4 1_555 1_555
H11 C4 1_555 1_555
H12 C4 1_555 1_555
C5 Te3 1_555 1_555
H13 C5 1_555 1_555
H14 C5 1_555 1_555
H15 C5 1_555 1_555
C6 Te1 1_555 1_555
H16 C6 1_555 1_555
H17 C6 1_555 1_555
H18 C6 1_555 1_555
C7 Te4 1_555 1_555
H19 C7 1_555 1_555
H20 C7 1_555 1_555
H21 C7 1_555 1_555
C8 Te3 1_555 1_555
H22 C8 1_555 1_555
H23 C8 1_555 1_555
H24 C8 1_555 1_555
Te3 O2 1_555 1_555
Te4 O1 1_555 1_555

#END
