
#######################################################################
#
#                 Cambridge Crystallographic Data Centre
#                                CCDC 
#
#######################################################################
#
# If this CIF has been generated from an entry in the Cambridge 
# Structural Database, then it will include bibliographic, chemical, 
# crystal, experimental, refinement or atomic coordinate data resulting 
# from the CCDC's data processing and validation procedures.
#
#######################################################################

data_PIXPOD
_chemical_formula_moiety         'C34 H20 S4'
_chemical_name_systematic        
2,2',2'',2'''-Tetracene-5,6,11,12-tetrayltetrathiophene
_symmetry_cell_setting           monoclinic
_symmetry_space_group_name_H-M   'P 21'
_symmetry_Int_Tables_number      4
_space_group_name_Hall           'P 2yb'
loop_
_symmetry_equiv_pos_site_id
_symmetry_equiv_pos_as_xyz
1 x,y,z
2 -x,1/2+y,-z
_cell_length_a                   11.401(2)
_cell_length_b                   8.9944(18)
_cell_length_c                   13.989(3)
_cell_angle_alpha                90
_cell_angle_beta                 113.59(3)
_cell_angle_gamma                90
_cell_volume                     1314.63
_exptl_crystal_colour            red
_exptl_crystal_description       block
_cell_formula_units_Z            2
loop_
_atom_site_label
_atom_site_type_symbol
_atom_site_fract_x
_atom_site_fract_y
_atom_site_fract_z
S1 S 0.59745(6) 0.30042(8) 0.84238(5)
C1 C 0.3828(2) 0.3715(3) 0.44515(19)
H1 H 0.3852 0.2833 0.4086
S2 S 0.86329(6) 0.70432(8) 0.82694(5)
C2 C 0.6244(2) 0.8222(3) 0.92207(17)
S3 S 0.16203(7) 0.83177(9) 0.76593(6)
C3 C 0.5043(2) 0.9003(3) 0.88681(18)
S4 S 0.31070(10) 1.03479(9) 0.52930(8)
C4 C 0.1583(4) 1.0983(5) 0.4599(5)
H2 H 0.1386 1.1935 0.4281
C5 C 0.0692(5) 0.9954(7) 0.4560(7)
H3 H -0.0205 1.0115 0.4229
C6 C 0.1259(5) 0.8609(9) 0.5075(7)
H4 H 0.0778 0.7753 0.5088
C7 C 0.5463(2) 0.5378(3) 0.70745(17)
C8 C 0.4558(2) 0.5146(3) 0.60535(17)
C9 C 0.5811(2) 1.0341(3) 1.05186(19)
H5 H 0.5675 1.1055 1.0964
C10 C 0.3631(2) 0.6276(3) 0.55422(18)
C11 C 0.7439(2) 0.3668(3) 0.74962(18)
H6 H 0.7789 0.4126 0.7057
C12 C 0.4315(2) 0.7662(3) 0.71933(18)
C13 C 0.4577(2) 0.3828(3) 0.54846(19)
H7 H 0.5120 0.3025 0.5835
C14 C 0.5422(2) 0.6705(3) 0.76258(17)
C15 C 0.8399(2) 0.5480(3) 0.97317(18)
H8 H 0.8075 0.5044 1.0195
C16 C 0.4869(2) 1.0059(3) 0.95672(19)
H9 H 0.4078 1.0573 0.9361
C17 C 0.3482(2) 0.7500(3) 0.61135(18)
C18 C 0.6992(3) 0.9581(3) 1.08509(19)
H10 H 0.7640 0.9782 1.1521
C19 C 0.6422(2) 0.7088(3) 0.85958(18)
C20 C 0.7210(2) 0.8567(3) 1.02225(19)
H11 H 0.8016 0.8081 1.0452
C21 C 0.2893(2) 0.6118(3) 0.44418(19)
H12 H 0.2310 0.6881 0.4075
C22 C 0.7712(2) 0.6442(3) 0.89222(18)
C23 C 0.7293(3) 0.1923(3) 0.8667(2)
H13 H 0.7515 0.1088 0.9121
C24 C 0.6350(2) 0.4149(3) 0.75931(17)
C25 C 0.2556(2) 0.8672(3) 0.55436(18)
C26 C 0.4104(2) 0.8736(3) 0.78655(18)
C27 C 0.2824(2) 0.9421(3) 0.75964(19)
C28 C 0.2422(3) 1.0863(3) 0.7384(2)
H14 H 0.2953 1.1652 0.7341
C29 C 0.3012(2) 0.4895(3) 0.39136(19)
H15 H 0.2545 0.4835 0.3180
C30 C 0.9660(3) 0.5235(3) 0.9773(2)
H16 H 1.0267 0.4600 1.0270
C31 C 0.7986(3) 0.2401(3) 0.8133(2)
H17 H 0.8756 0.1940 0.8178
C32 C 0.0578(3) 0.9777(4) 0.7364(2)
H18 H -0.0282 0.9701 0.7297
C33 C 0.9906(3) 0.5997(3) 0.9036(2)
H19 H 1.0695 0.5952 0.8957
C34 C 0.1124(3) 1.1051(4) 0.7236(2)
H20 H 0.0686 1.1975 0.7065
S5? S 0.0951(7) 0.8476(15) 0.5086(12)
C35? C 0.075(2) 1.015(4) 0.446(5)
H21? H -0.0061 1.0531 0.4003
C36? C 0.187(2) 1.088(3) 0.470(4)
H22? H 0.1937 1.1903 0.4551
C37? C 0.294(2) 0.993(2) 0.521(2)
H23? H 0.3791 1.0137 0.5292
loop_
_geom_bond_atom_site_label_1
_geom_bond_atom_site_label_2
_geom_bond_site_symmetry_1
_geom_bond_site_symmetry_2
S1 C23 1_555 1_555
C1 H1 1_555 1_555
S2 C22 1_555 1_555
C2 C3 1_555 1_555
S3 C27 1_555 1_555
C3 C16 1_555 1_555
S4 C4 1_555 1_555
C4 H2 1_555 1_555
C5 C4 1_555 1_555
H3 C5 1_555 1_555
C6 C5 1_555 1_555
H4 C6 1_555 1_555
C7 C8 1_555 1_555
C8 C10 1_555 1_555
C9 H5 1_555 1_555
C10 C17 1_555 1_555
C11 H6 1_555 1_555
C12 C14 1_555 1_555
C13 C1 1_555 1_555
H7 C13 1_555 1_555
C14 C7 1_555 1_555
C15 H8 1_555 1_555
C16 C9 1_555 1_555
H9 C16 1_555 1_555
C17 C12 1_555 1_555
C18 C9 1_555 1_555
H10 C18 1_555 1_555
C19 C2 1_555 1_555
C20 C2 1_555 1_555
H11 C20 1_555 1_555
C21 C10 1_555 1_555
H12 C21 1_555 1_555
C22 C15 1_555 1_555
C23 H13 1_555 1_555
C24 S1 1_555 1_555
C25 S4 1_555 1_555
C26 C3 1_555 1_555
C27 C26 1_555 1_555
C28 C27 1_555 1_555
H14 C28 1_555 1_555
C29 C1 1_555 1_555
H15 C29 1_555 1_555
C30 C15 1_555 1_555
H16 C30 1_555 1_555
C31 C11 1_555 1_555
H17 C31 1_555 1_555
C32 S3 1_555 1_555
H18 C32 1_555 1_555
C33 S2 1_555 1_555
H19 C33 1_555 1_555
C34 C28 1_555 1_555
H20 C34 1_555 1_555
C6 C25 1_555 1_555
C7 C24 1_555 1_555
C8 C13 1_555 1_555
C11 C24 1_555 1_555
C12 C26 1_555 1_555
C14 C19 1_555 1_555
C17 C25 1_555 1_555
C18 C20 1_555 1_555
C19 C22 1_555 1_555
C21 C29 1_555 1_555
C23 C31 1_555 1_555
C30 C33 1_555 1_555
C32 C34 1_555 1_555

#END
