
#######################################################################
#
#                 Cambridge Crystallographic Data Centre
#                                CCDC 
#
#######################################################################
#
# If this CIF has been generated from an entry in the Cambridge 
# Structural Database, then it will include bibliographic, chemical, 
# crystal, experimental, refinement or atomic coordinate data resulting 
# from the CCDC's data processing and validation procedures.
#
#######################################################################

data_PIXPUI
_chemical_formula_moiety         'C12 H24 I2 O2 Te3'
_chemical_name_systematic        
bis(\m~2~-Oxo)-di-iodo-tris(butane-1,4-diyl)-tri-tellurium(iv)
_symmetry_cell_setting           orthorhombic
_symmetry_space_group_name_H-M   'P 21 21 21'
_symmetry_Int_Tables_number      19
_space_group_name_Hall           'P 2ac 2ab'
loop_
_symmetry_equiv_pos_site_id
_symmetry_equiv_pos_as_xyz
1 x,y,z
2 1/2-x,-y,1/2+z
3 1/2+x,1/2-y,-z
4 -x,1/2+y,1/2-z
_cell_length_a                   9.712(4)
_cell_length_b                   10.483(4)
_cell_length_c                   20.230(8)
_cell_angle_alpha                90
_cell_angle_beta                 90
_cell_angle_gamma                90
_cell_volume                     2059.63
_exptl_crystal_colour            colorless
_exptl_crystal_description       block
_chemical_melting_point          '185 deg.C (dec.)'
_cell_formula_units_Z            4
loop_
_atom_site_label
_atom_site_type_symbol
_atom_site_fract_x
_atom_site_fract_y
_atom_site_fract_z
Te1 Te 0.80954(10) 0.73404(10) 0.87500(5)
Te2 Te 0.93036(10) 0.42892(10) 0.85163(5)
Te3 Te 0.59665(10) 0.93088(11) 0.78444(5)
I1 I 0.93100(14) 0.15472(12) 0.76749(6)
I2 I 0.44514(11) 0.97814(12) 0.64034(5)
O1 O 0.6826(13) 0.9023(13) 0.8689(6)
O2 O 0.9295(13) 0.5828(11) 0.9057(6)
C1 C 0.7470(16) 0.7405(15) 0.9749(7)
H1 H 0.6608 0.7866 0.9788
H2 H 0.7335 0.6547 0.9916
C2 C 0.921(2) 0.9159(18) 0.9689(8)
H3 H 0.8517 0.9802 0.9599
H4 H 0.9969 0.9563 0.9920
C3 C 0.5368(17) 1.120(2) 0.8101(10)
H5 H 0.5927 1.1518 0.8464
H6 H 0.5486 1.1770 0.7726
C4 C 0.857(2) 0.807(2) 1.0135(9)
H7 H 0.9283 0.7461 1.0259
H8 H 0.8187 0.8428 1.0536
C5 C 0.356(3) 0.987(3) 0.8634(11)
H9 H 0.4066 0.9805 0.9045
H10 H 0.2582 0.9809 0.8735
C6 C 0.3953(19) 0.8831(18) 0.8192(8)
H11 H 0.3313 0.8764 0.7825
H12 H 0.3968 0.8025 0.8427
C7 C 0.9715(19) 0.8584(16) 0.9047(8)
H13 H 1.0564 0.8114 0.9115
H14 H 0.9872 0.9241 0.8718
C8 C 0.386(2) 1.115(2) 0.8304(16)
H15 H 0.3279 1.1254 0.7918
H16 H 0.3658 1.1840 0.8609
C9 C 1.1437(17) 0.3951(17) 0.8719(10)
H17 H 1.1825 0.3352 0.8404
H18 H 1.1959 0.4739 0.8701
C10 C 0.895(2) 0.3063(19) 0.9373(9)
H19 H 0.8507 0.3538 0.9724
H20 H 0.8369 0.2348 0.9253
C11 C 1.034(3) 0.260(4) 0.9595(17)
H21 H 1.0345 0.2529 1.0073
H22 H 1.0497 0.1750 0.9416
C12 C 1.144(2) 0.341(4) 0.9395(15)
H23 H 1.2296 0.2938 0.9447
H24 H 1.1479 0.4120 0.9703
loop_
_geom_bond_atom_site_label_1
_geom_bond_atom_site_label_2
_geom_bond_site_symmetry_1
_geom_bond_site_symmetry_2
Te1 O1 1_555 1_555
Te2 I1 1_555 1_555
Te3 I2 1_555 1_555
O1 Te3 1_555 1_555
O2 Te1 1_555 1_555
C1 Te1 1_555 1_555
H1 C1 1_555 1_555
H2 C1 1_555 1_555
C2 H3 1_555 1_555
H4 C2 1_555 1_555
C3 Te3 1_555 1_555
H5 C3 1_555 1_555
H6 C3 1_555 1_555
C4 C1 1_555 1_555
H7 C4 1_555 1_555
H8 C4 1_555 1_555
C5 H9 1_555 1_555
H10 C5 1_555 1_555
C6 Te3 1_555 1_555
H11 C6 1_555 1_555
H12 C6 1_555 1_555
C7 Te1 1_555 1_555
H13 C7 1_555 1_555
H14 C7 1_555 1_555
C8 C3 1_555 1_555
H15 C8 1_555 1_555
H16 C8 1_555 1_555
C9 Te2 1_555 1_555
H17 C9 1_555 1_555
H18 C9 1_555 1_555
C10 Te2 1_555 1_555
H19 C10 1_555 1_555
H20 C10 1_555 1_555
C11 C10 1_555 1_555
H21 C11 1_555 1_555
H22 C11 1_555 1_555
C12 C9 1_555 1_555
H23 C12 1_555 1_555
H24 C12 1_555 1_555
Te2 O2 1_555 1_555
C2 C4 1_555 1_555
C2 C7 1_555 1_555
C5 C6 1_555 1_555
C5 C8 1_555 1_555
C11 C12 1_555 1_555

#END
