
#######################################################################
#
#                 Cambridge Crystallographic Data Centre
#                                CCDC 
#
#######################################################################
#
# If this CIF has been generated from an entry in the Cambridge 
# Structural Database, then it will include bibliographic, chemical, 
# crystal, experimental, refinement or atomic coordinate data resulting 
# from the CCDC's data processing and validation procedures.
#
#######################################################################

data_PIXVAW
_chemical_formula_moiety         'C25 H16 Cl2 N4 O2'
_chemical_name_systematic        
'6-amino-4-(3,4-dichlorophenyl)-3-(2-phenoxyphenyl)-2,4-dihydropyrano[2,3-c]pyrazole-5-carbonitrile unknown solvate'
_symmetry_cell_setting           orthorhombic
_symmetry_space_group_name_H-M   'P 21 21 21'
_symmetry_Int_Tables_number      19
_space_group_name_Hall           'P 2ac 2ab'
loop_
_symmetry_equiv_pos_site_id
_symmetry_equiv_pos_as_xyz
1 x,y,z
2 1/2+x,1/2-y,-z
3 -x,1/2+y,1/2-z
4 1/2-x,-y,1/2+z
_cell_length_a                   7.7520(2)
_cell_length_b                   9.7512(2)
_cell_length_c                   33.2930(6)
_cell_angle_alpha                90
_cell_angle_beta                 90
_cell_angle_gamma                90
_cell_volume                     2516.66
_exptl_crystal_colour            colorless
_exptl_crystal_description       plate
_cell_formula_units_Z            4
loop_
_atom_site_label
_atom_site_type_symbol
_atom_site_fract_x
_atom_site_fract_y
_atom_site_fract_z
C1 C 0.7090(5) 0.3061(4) -0.22225(10)
C2 C 0.5695(5) 0.3561(3) -0.20207(10)
C3 C 0.4504(4) 0.2733(3) -0.17502(10)
H1 H 0.3285 0.2933 -0.1828
C4 C 0.4874(4) 0.1249(3) -0.18399(9)
C5 C 0.6300(4) 0.0840(3) -0.20590(9)
C6 C 0.4127(4) 0.0029(3) -0.17237(9)
C7 C 0.5374(6) 0.4984(4) -0.20300(11)
C8 C 0.3992(13) 0.3230(11) -0.0599(3)
H2 H 0.3125 0.3170 -0.0399
C9 C 0.3583(13) 0.2973(13) -0.0999(3)
H3 H 0.2436 0.2736 -0.1071
C10 C 0.4853(15) 0.3062(12) -0.1293(2)
C11 C 0.6532(12) 0.3408(12) -0.1187(2)
H4 H 0.7400 0.3469 -0.1387
C12 C 0.6941(10) 0.3666(11) -0.0787(2)
C13 C 0.5671(13) 0.3577(9) -0.04937(19)
Cl1 Cl 0.9022(7) 0.4107(8) -0.06628(18)
Cl2 Cl 0.6097(14) 0.3926(7) 0.00053(15)
C14 C 0.2565(4) -0.0208(3) -0.14845(10)
C15 C 0.1064(4) 0.0530(4) -0.15679(10)
H5 H 0.1030 0.1118 -0.1795
C16 C -0.0390(5) 0.0417(4) -0.13215(11)
H6 H -0.1405 0.0924 -0.1381
C17 C -0.0341(5) -0.0435(4) -0.09907(11)
H7 H -0.1316 -0.0493 -0.0819
C18 C 0.1104(5) -0.1201(4) -0.09078(10)
H8 H 0.1123 -0.1801 -0.0683
C19 C 0.2542(4) -0.1086(4) -0.11576(9)
C20 C 0.4965(5) -0.1692(4) -0.07516(10)
C21 C 0.4969(5) -0.0447(4) -0.05504(11)
H9 H 0.4251 0.0283 -0.0638
C22 C 0.6038(5) -0.0281(5) -0.02186(11)
H10 H 0.6042 0.0568 -0.0079
C23 C 0.7083(6) -0.1321(6) -0.00902(13)
H11 H 0.7810 -0.1194 0.0136
C24 C 0.7074(6) -0.2541(6) -0.02894(15)
H12 H 0.7789 -0.3267 -0.0197
C25 C 0.6025(6) -0.2748(4) -0.06297(15)
H13 H 0.6048 -0.3593 -0.0771
N1 N 0.5121(4) -0.0978(3) -0.18775(8)
H14 H 0.4894 -0.1855 -0.1852
N2 N 0.6488(4) -0.0494(3) -0.20917(8)
N3 N 0.8241(5) 0.3789(4) -0.24370(9)
H15 H 0.9313 0.3277 -0.2498
H16 H 0.8033 0.4793 -0.2436
N4 N 0.5064(6) 0.6140(3) -0.20205(11)
O1 O 0.7491(3) 0.1700(3) -0.22344(7)
O2 O 0.3966(3) -0.1924(3) -0.10924(7)
C26? C 0.471(2) 0.305(2) -0.1326(4)
C27? C 0.636(2) 0.3121(18) -0.1140(4)
H17? H 0.7366 0.2985 -0.1300
C28? C 0.6550(15) 0.3378(16) -0.0737(4)
C29? C 0.513(2) 0.3519(18) -0.0491(3)
C30? C 0.354(2) 0.3495(18) -0.0670(5)
H18? H 0.2543 0.3651 -0.0509
C31? C 0.333(2) 0.3256(19) -0.1070(5)
H19? H 0.2195 0.3226 -0.1178
Cl3? Cl 0.8629(8) 0.3423(17) -0.0545(2)
Cl4? Cl 0.5383(13) 0.3822(10) 0.0018(2)
loop_
_geom_bond_atom_site_label_1
_geom_bond_atom_site_label_2
_geom_bond_site_symmetry_1
_geom_bond_site_symmetry_2
C1 C2 1_555 1_555
C2 C3 1_555 1_555
C3 H1 1_555 1_555
C4 C3 1_555 1_555
C5 C4 1_555 1_555
C6 C4 1_555 1_555
C7 C2 1_555 1_555
C8 H2 1_555 1_555
C9 C8 1_555 1_555
H3 C9 1_555 1_555
C10 C3 1_555 1_555
C11 C10 1_555 1_555
H4 C11 1_555 1_555
C12 C11 1_555 1_555
C13 C8 1_555 1_555
Cl1 C12 1_555 1_555
Cl2 C13 1_555 1_555
C14 C6 1_555 1_555
C15 C14 1_555 1_555
H5 C15 1_555 1_555
C16 C15 1_555 1_555
H6 C16 1_555 1_555
C17 C16 1_555 1_555
H7 C17 1_555 1_555
C18 C17 1_555 1_555
H8 C18 1_555 1_555
C19 C14 1_555 1_555
C20 C21 1_555 1_555
C21 H9 1_555 1_555
C22 C21 1_555 1_555
H10 C22 1_555 1_555
C23 C22 1_555 1_555
H11 C23 1_555 1_555
C24 C23 1_555 1_555
H12 C24 1_555 1_555
C25 C20 1_555 1_555
H13 C25 1_555 1_555
N1 C6 1_555 1_555
H14 N1 1_555 1_555
N2 C5 1_555 1_555
N3 C1 1_555 1_555
H15 N3 1_555 1_555
H16 N3 1_555 1_555
N4 C7 1_555 1_555
O1 C1 1_555 1_555
O2 C19 1_555 1_555
C5 O1 1_555 1_555
C9 C10 1_555 1_555
C12 C13 1_555 1_555
C18 C19 1_555 1_555
C20 O2 1_555 1_555
C24 C25 1_555 1_555
N1 N2 1_555 1_555

#END
