
#######################################################################
#
#                 Cambridge Crystallographic Data Centre
#                                CCDC 
#
#######################################################################
#
# If this CIF has been generated from an entry in the Cambridge 
# Structural Database, then it will include bibliographic, chemical, 
# crystal, experimental, refinement or atomic coordinate data resulting 
# from the CCDC's data processing and validation procedures.
#
#######################################################################

data_PIXVIE
_chemical_formula_moiety         'C24 H18 N1 O3 P1'
_chemical_name_systematic        
2-(diphenylphosphoryl)-3-(phenylamino)cyclohexa-2,5-diene-1,4-dione
_symmetry_cell_setting           monoclinic
_symmetry_space_group_name_H-M   'P 21/n'
_symmetry_Int_Tables_number      14
_space_group_name_Hall           '-P 2yn'
loop_
_symmetry_equiv_pos_site_id
_symmetry_equiv_pos_as_xyz
1 x,y,z
2 1/2-x,1/2+y,1/2-z
3 -x,-y,-z
4 1/2+x,1/2-y,1/2+z
_cell_length_a                   8.4342(5)
_cell_length_b                   10.1007(7)
_cell_length_c                   23.1908(14)
_cell_angle_alpha                90
_cell_angle_beta                 93.282(6)
_cell_angle_gamma                90
_cell_volume                     1972.41
_exptl_crystal_colour            yellow
_exptl_crystal_description       parallelepiped
_cell_formula_units_Z            4
loop_
_atom_site_label
_atom_site_type_symbol
_atom_site_fract_x
_atom_site_fract_y
_atom_site_fract_z
P1 P 0.73578(6) 0.75610(5) 0.10122(2)
O1 O 0.82958(17) 0.86234(14) 0.07347(6)
O2 O 0.56638(17) 0.49738(15) 0.11866(6)
O3 O 0.90472(17) 0.46515(15) -0.06540(6)
N1 N 0.8676(2) 0.71700(18) -0.01922(7)
H1 H 0.881(3) 0.783(3) 0.0065(11)
C1 C 0.8209(2) 0.7100(2) 0.17153(8)
C2 C 0.8963(2) 0.5900(2) 0.18280(9)
H2 H 0.8985 0.5243 0.1535
C3 C 0.9693(3) 0.5663(2) 0.23759(9)
H3 H 1.0197 0.4837 0.2457
C4 C 0.9683(3) 0.6619(3) 0.27961(9)
H4 H 1.0181 0.6450 0.3167
C5 C 0.8955(3) 0.7823(3) 0.26852(9)
H5 H 0.8960 0.8483 0.2977
C6 C 0.8214(3) 0.8069(2) 0.21447(9)
H6 H 0.7710 0.8896 0.2068
C7 C 0.5369(2) 0.8159(2) 0.11084(8)
C8 C 0.4331(2) 0.7604(2) 0.14891(9)
H7 H 0.4674 0.6895 0.1735
C9 C 0.2792(3) 0.8095(3) 0.15074(9)
H8 H 0.2087 0.7720 0.1768
C10 C 0.2281(3) 0.9124(3) 0.11496(10)
H9 H 0.1223 0.9442 0.1158
C11 C 0.3314(3) 0.9685(2) 0.07806(10)
H10 H 0.2966 1.0398 0.0538
C12 C 0.4860(3) 0.9219(2) 0.07586(9)
H11 H 0.5567 0.9620 0.0506
C13 C 0.7254(2) 0.6121(2) 0.05531(8)
C14 C 0.6375(2) 0.4981(2) 0.07332(8)
C15 C 0.6272(2) 0.3792(2) 0.03602(9)
H12 H 0.5642 0.3063 0.0469
C16 C 0.7044(2) 0.3719(2) -0.01248(9)
H13 H 0.6938 0.2950 -0.0360
C17 C 0.8052(2) 0.4809(2) -0.02978(8)
C18 C 0.7942(2) 0.6116(2) 0.00213(8)
C19 C 0.9133(2) 0.7424(2) -0.07649(8)
C20 C 0.8198(3) 0.7057(2) -0.12499(9)
H14 H 0.7239 0.6580 -0.1212
C21 C 0.8688(3) 0.7397(2) -0.17945(9)
H15 H 0.8054 0.7150 -0.2129
C22 C 1.0078(3) 0.8088(3) -0.18541(10)
H16 H 1.0417 0.8289 -0.2228
C23 C 1.0974(3) 0.8487(2) -0.13700(10)
H17 H 1.1921 0.8979 -0.1410
C24 C 1.0497(3) 0.8170(2) -0.08219(9)
H18 H 1.1102 0.8464 -0.0488
loop_
_geom_bond_atom_site_label_1
_geom_bond_atom_site_label_2
_geom_bond_site_symmetry_1
_geom_bond_site_symmetry_2
P1 O1 1_555 1_555
O2 C14 1_555 1_555
O3 C17 1_555 1_555
N1 H1 1_555 1_555
C1 P1 1_555 1_555
C2 C1 1_555 1_555
H2 C2 1_555 1_555
C3 C2 1_555 1_555
H3 C3 1_555 1_555
C4 C3 1_555 1_555
H4 C4 1_555 1_555
C5 C4 1_555 1_555
H5 C5 1_555 1_555
C6 C1 1_555 1_555
H6 C6 1_555 1_555
C7 P1 1_555 1_555
C8 C7 1_555 1_555
H7 C8 1_555 1_555
C9 C8 1_555 1_555
H8 C9 1_555 1_555
C10 C9 1_555 1_555
H9 C10 1_555 1_555
C11 C10 1_555 1_555
H10 C11 1_555 1_555
C12 C7 1_555 1_555
H11 C12 1_555 1_555
C13 P1 1_555 1_555
C14 C13 1_555 1_555
C15 C14 1_555 1_555
H12 C15 1_555 1_555
C16 C15 1_555 1_555
H13 C16 1_555 1_555
C17 C16 1_555 1_555
C18 N1 1_555 1_555
C19 N1 1_555 1_555
C20 C19 1_555 1_555
H14 C20 1_555 1_555
C21 C20 1_555 1_555
H15 C21 1_555 1_555
C22 C21 1_555 1_555
H16 C22 1_555 1_555
C23 C22 1_555 1_555
H17 C23 1_555 1_555
C24 C19 1_555 1_555
H18 C24 1_555 1_555
C5 C6 1_555 1_555
C11 C12 1_555 1_555
C13 C18 1_555 1_555
C17 C18 1_555 1_555
C23 C24 1_555 1_555

#END
