
#######################################################################
#
#                 Cambridge Crystallographic Data Centre
#                                CCDC 
#
#######################################################################
#
# If this CIF has been generated from an entry in the Cambridge 
# Structural Database, then it will include bibliographic, chemical, 
# crystal, experimental, refinement or atomic coordinate data resulting 
# from the CCDC's data processing and validation procedures.
#
#######################################################################

data_PIXVOK
_chemical_formula_moiety         'C28 H23 N2 O1 P1'
_chemical_name_systematic        
N-[(diphenylphosphoryl)(phenyl)methyl]quinolin-8-amine
_symmetry_cell_setting           orthorhombic
_symmetry_space_group_name_H-M   'P b c n'
_symmetry_Int_Tables_number      60
_space_group_name_Hall           '-P 2n 2ab'
loop_
_symmetry_equiv_pos_site_id
_symmetry_equiv_pos_as_xyz
1 x,y,z
2 1/2-x,1/2-y,1/2+z
3 -x,y,1/2-z
4 1/2+x,1/2-y,-z
5 -x,-y,-z
6 1/2+x,1/2+y,1/2-z
7 x,-y,1/2+z
8 1/2-x,1/2+y,z
_cell_length_a                   23.6040(15)
_cell_length_b                   11.2932(6)
_cell_length_c                   17.8938(12)
_cell_angle_alpha                90
_cell_angle_beta                 90
_cell_angle_gamma                90
_cell_volume                     4769.86
_exptl_crystal_colour            brown
_exptl_crystal_description       parallelepiped
_cell_formula_units_Z            8
loop_
_atom_site_label
_atom_site_type_symbol
_atom_site_fract_x
_atom_site_fract_y
_atom_site_fract_z
P1 P 0.26018(3) 0.54607(7) 1.03227(4)
O1 O 0.25548(9) 0.67511(18) 1.01519(12)
N1 N 0.17825(11) 0.5013(3) 0.93988(17)
H1 H 0.1718(16) 0.570(4) 0.946(2)
N2 N 0.07990(13) 0.6140(3) 0.9308(2)
C1 C 0.33207(12) 0.5005(3) 1.05102(16)
C2 C 0.34555(13) 0.3828(3) 1.06538(19)
H2 H 0.3164 0.3247 1.0667
C3 C 0.40127(15) 0.3500(3) 1.0777(2)
H3 H 0.4105 0.2694 1.0869
C4 C 0.44340(14) 0.4349(3) 1.0766(2)
H4 H 0.4816 0.4127 1.0857
C5 C 0.43038(15) 0.5511(3) 1.0624(3)
H5 H 0.4597 0.6088 1.0612
C6 C 0.37454(14) 0.5850(3) 1.0498(2)
H6 H 0.3656 0.6656 1.0404
C7 C 0.21643(12) 0.5037(3) 1.11035(17)
C8 C 0.19915(15) 0.5910(3) 1.16033(19)
H7 H 0.2111 0.6705 1.1531
C9 C 0.16470(17) 0.5630(4) 1.2206(2)
H8 H 0.1527 0.6233 1.2540
C10 C 0.14787(15) 0.4471(4) 1.2318(2)
H9 H 0.1245 0.4277 1.2732
C11 C 0.16490(16) 0.3596(3) 1.1829(2)
H10 H 0.1532 0.2801 1.1909
C12 C 0.19888(14) 0.3869(3) 1.12225(19)
H11 H 0.2103 0.3263 1.0887
C13 C 0.13282(12) 0.4351(3) 0.91821(16)
C14 C 0.07988(13) 0.4970(3) 0.9124(2)
C15 C 0.03133(18) 0.6706(4) 0.9269(3)
H12 H 0.0309 0.7521 0.9400
C16 C -0.02001(19) 0.6185(5) 0.9045(4)
H13 H -0.0541 0.6634 0.9037
C17 C -0.01993(16) 0.5029(4) 0.8838(3)
H14 H -0.0540 0.4665 0.8672
C18 C 0.03067(15) 0.4366(3) 0.8872(2)
C19 C 0.03508(15) 0.3152(3) 0.8675(2)
H15 H 0.0031 0.2743 0.8482
C20 C 0.08542(15) 0.2573(3) 0.8764(2)
H16 H 0.0875 0.1752 0.8652
C21 C 0.13431(13) 0.3162(3) 0.90157(18)
H17 H 0.1687 0.2734 0.9071
C22 C 0.23495(12) 0.4565(3) 0.95319(15)
H18 H 0.2322 0.3719 0.9695
C23 C 0.27489(13) 0.4641(3) 0.88713(16)
C24 C 0.27256(15) 0.5581(3) 0.83677(18)
H19 H 0.2448 0.6182 0.8430
C25 C 0.31055(17) 0.5646(3) 0.77753(19)
H20 H 0.3082 0.6286 0.7432
C26 C 0.35151(17) 0.4795(4) 0.7681(2)
H21 H 0.3774 0.4846 0.7276
C27 C 0.35472(17) 0.3863(4) 0.8181(2)
H22 H 0.3832 0.3276 0.8121
C28 C 0.31671(15) 0.3780(3) 0.87690(19)
H23 H 0.3191 0.3132 0.9106
loop_
_geom_bond_atom_site_label_1
_geom_bond_atom_site_label_2
_geom_bond_site_symmetry_1
_geom_bond_site_symmetry_2
P1 O1 1_555 1_555
N1 H1 1_555 1_555
N2 C14 1_555 1_555
C1 P1 1_555 1_555
C2 C1 1_555 1_555
H2 C2 1_555 1_555
C3 C2 1_555 1_555
H3 C3 1_555 1_555
C4 C3 1_555 1_555
H4 C4 1_555 1_555
C5 C4 1_555 1_555
H5 C5 1_555 1_555
C6 C1 1_555 1_555
H6 C6 1_555 1_555
C7 P1 1_555 1_555
C8 C7 1_555 1_555
H7 C8 1_555 1_555
C9 C8 1_555 1_555
H8 C9 1_555 1_555
C10 C9 1_555 1_555
H9 C10 1_555 1_555
C11 C10 1_555 1_555
H10 C11 1_555 1_555
C12 C7 1_555 1_555
H11 C12 1_555 1_555
C13 N1 1_555 1_555
C14 C13 1_555 1_555
C15 N2 1_555 1_555
H12 C15 1_555 1_555
C16 C15 1_555 1_555
H13 C16 1_555 1_555
C17 C16 1_555 1_555
H14 C17 1_555 1_555
C18 C14 1_555 1_555
C19 C18 1_555 1_555
H15 C19 1_555 1_555
C20 C19 1_555 1_555
H16 C20 1_555 1_555
C21 C13 1_555 1_555
H17 C21 1_555 1_555
C22 P1 1_555 1_555
H18 C22 1_555 1_555
C23 C22 1_555 1_555
C24 C23 1_555 1_555
H19 C24 1_555 1_555
C25 C24 1_555 1_555
H20 C25 1_555 1_555
C26 C25 1_555 1_555
H21 C26 1_555 1_555
C27 C26 1_555 1_555
H22 C27 1_555 1_555
C28 C23 1_555 1_555
H23 C28 1_555 1_555
N1 C22 1_555 1_555
C5 C6 1_555 1_555
C11 C12 1_555 1_555
C17 C18 1_555 1_555
C20 C21 1_555 1_555
C27 C28 1_555 1_555

#END
