
#######################################################################
#
#                 Cambridge Crystallographic Data Centre
#                                CCDC 
#
#######################################################################
#
# If this CIF has been generated from an entry in the Cambridge 
# Structural Database, then it will include bibliographic, chemical, 
# crystal, experimental, refinement or atomic coordinate data resulting 
# from the CCDC's data processing and validation procedures.
#
#######################################################################

data_PIYHIQ
_chemical_formula_moiety         'C15 H16 N4 O2'
_chemical_name_systematic        N,N'-bis(pyridin-4-yl)pentanediamide
_symmetry_cell_setting           trigonal
_symmetry_space_group_name_H-M   'P 31 2 1'
_symmetry_Int_Tables_number      152
_space_group_name_Hall           'P 31 2"'
loop_
_symmetry_equiv_pos_site_id
_symmetry_equiv_pos_as_xyz
1 x,y,z
2 -y,x-y,1/3+z
3 -x+y,-x,2/3+z
4 y,x,-z
5 -x,-x+y,1/3-z
6 x-y,-y,2/3-z
_cell_length_a                   8.6065(4)
_cell_length_b                   8.6065(4)
_cell_length_c                   16.4884(18)
_cell_angle_alpha                90
_cell_angle_beta                 90
_cell_angle_gamma                120
_cell_volume                     1057.7
_exptl_crystal_colour            yellow
_exptl_crystal_description       rod
_cell_formula_units_Z            3
loop_
_atom_site_label
_atom_site_type_symbol
_atom_site_fract_x
_atom_site_fract_y
_atom_site_fract_z
N1 N 0.5897(6) 0.4322(6) -0.1285(2)
N2 N 0.3459(4) 0.0601(4) 0.05886(19)
H1 H 0.4108 0.0914 0.1020
C1 C 0.4193(5) 0.1794(5) -0.00577(19)
C2 C 0.5897(6) 0.3281(6) 0.0035(2)
H2 H 0.6525 0.3441 0.0516
C3 C 0.6647(6) 0.4498(6) -0.0573(2)
H3 H 0.7756 0.5515 -0.0479
C4 C 0.4261(7) 0.2877(7) -0.1383(2)
H4 H 0.3698 0.2729 -0.1881
C5 C 0.3376(6) 0.1621(6) -0.0805(2)
H5 H 0.2237 0.0656 -0.0907
O1 O 0.0900(5) -0.1608(6) 0.0076(3)
C6 C 0.1904(6) -0.0956(7) 0.0649(4)
C7 C 0.1587(8) -0.1831(9) 0.1484(5)
H6 H 0.2633 -0.1937 0.1606
H7 H 0.1585 -0.0982 0.1870
C8 C 0.0000 -0.3588(11) 0.1667
H8 H -0.0260 -0.4381 0.1206
N1D N -0.5897(6) -0.1575(8) 0.4618(2)
N2D N -0.3459(4) -0.2858(6) 0.27447(19)
H1D H -0.4108 -0.3194 0.2313
C1D C -0.4193(5) -0.2399(7) 0.33910(19)
C2D C -0.5897(6) -0.2616(8) 0.3298(2)
H2D H -0.6525 -0.3084 0.2817
C3D C -0.6647(6) -0.2149(8) 0.3906(2)
H3D H -0.7756 -0.2241 0.3812
C4D C -0.4261(7) -0.1384(10) 0.4716(2)
H4D H -0.3698 -0.0969 0.5214
C5D C -0.3376(6) -0.1755(8) 0.4138(2)
H5D H -0.2237 -0.1581 0.4240
O1D O -0.0900(5) -0.2508(8) 0.3257(3)
C6D C -0.1904(6) -0.2860(9) 0.2684(4)
C7D C -0.1587(8) -0.3418(12) 0.1849(5)
H6D H -0.2633 -0.4570 0.1727
H7D H -0.1585 -0.2567 0.1463
H8D H 0.0260 -0.4121 0.2127
H9? H -0.0260 -0.4380 0.1205
loop_
_geom_bond_atom_site_label_1
_geom_bond_atom_site_label_2
_geom_bond_site_symmetry_1
_geom_bond_site_symmetry_2
N1 C3 1_555 1_555
N2 H1 1_555 1_555
C1 N2 1_555 1_555
C2 C1 1_555 1_555
H2 C2 1_555 1_555
C3 C2 1_555 1_555
H3 C3 1_555 1_555
C4 N1 1_555 1_555
H4 C4 1_555 1_555
C5 C1 1_555 1_555
H5 C5 1_555 1_555
O1 C6 1_555 1_555
C6 N2 1_555 1_555
C7 C6 1_555 1_555
H6 C7 1_555 1_555
H7 C7 1_555 1_555
C8 C7 1_555 1_555
H8 C8 1_555 1_555
N1D C3D 1_555 1_555
N2D H1D 1_555 1_555
C1D N2D 1_555 1_555
C2D C1D 1_555 1_555
H2D C2D 1_555 1_555
C3D C2D 1_555 1_555
H3D C3D 1_555 1_555
C4D N1D 1_555 1_555
H4D C4D 1_555 1_555
C5D C1D 1_555 1_555
H5D C5D 1_555 1_555
O1D C6D 1_555 1_555
C6D N2D 1_555 1_555
C7D C8 1_555 1_555
H6D C7D 1_555 1_555
H7D C7D 1_555 1_555
H8D C8 1_555 1_555
C4 C5 1_555 1_555
C4D C5D 1_555 1_555
C6D C7D 1_555 1_555

#END
