
#######################################################################
#
#                 Cambridge Crystallographic Data Centre
#                                CCDC 
#
#######################################################################
#
# If this CIF has been generated from an entry in the Cambridge 
# Structural Database, then it will include bibliographic, chemical, 
# crystal, experimental, refinement or atomic coordinate data resulting 
# from the CCDC's data processing and validation procedures.
#
#######################################################################

data_PIYMAN
_chemical_formula_moiety         'C28 H20 N2'
_chemical_name_systematic        tetraphenylpyrimidine
_symmetry_cell_setting           orthorhombic
_symmetry_space_group_name_H-M   'F d d 2'
_symmetry_Int_Tables_number      43
_space_group_name_Hall           'F 2 -2d'
loop_
_symmetry_equiv_pos_site_id
_symmetry_equiv_pos_as_xyz
1 x,y,z
2 -x,-y,z
3 1/4+x,1/4-y,1/4+z
4 1/4-x,1/4+y,1/4+z
5 x,1/2+y,1/2+z
6 -x,1/2-y,1/2+z
7 1/4+x,3/4-y,3/4+z
8 1/4-x,3/4+y,3/4+z
9 1/2+x,y,1/2+z
10 1/2-x,-y,1/2+z
11 3/4+x,1/4-y,3/4+z
12 3/4-x,1/4+y,3/4+z
13 1/2+x,1/2+y,z
14 1/2-x,1/2-y,z
15 3/4+x,3/4-y,1/4+z
16 3/4-x,3/4+y,1/4+z
_cell_length_a                   23.9708(17)
_cell_length_b                   58.339(4)
_cell_length_c                   5.9056(4)
_cell_angle_alpha                90
_cell_angle_beta                 90
_cell_angle_gamma                90
_cell_volume                     8258.58
_exptl_crystal_colour            colorless
_exptl_crystal_description       prismatic
_cell_formula_units_Z            16
loop_
_atom_site_label
_atom_site_type_symbol
_atom_site_fract_x
_atom_site_fract_y
_atom_site_fract_z
N1 N 0.26053(7) 0.05552(3) 0.2064(3)
N2 N 0.28756(7) 0.08257(3) -0.0722(3)
C1 C 0.24957(8) 0.07159(3) 0.0527(4)
C2 C 0.34081(8) 0.07598(3) -0.0494(4)
C3 C 0.35632(8) 0.05764(3) 0.0907(3)
C4 C 0.31355(8) 0.04815(3) 0.2240(3)
C5 C 0.32070(8) 0.02910(3) 0.3904(3)
C6 C 0.35367(9) 0.01001(3) 0.3488(4)
H1 H 0.3746 0.0092 0.2166
C7 C 0.35558(9) -0.00780(4) 0.5018(5)
H2 H 0.3775 -0.0206 0.4713
C8 C 0.32532(9) -0.00675(4) 0.6994(4)
H3 H 0.3270 -0.0188 0.8027
C9 C 0.29263(9) 0.01200(4) 0.7441(4)
H4 H 0.2723 0.0128 0.8781
C10 C 0.29000(8) 0.02972(3) 0.5890(4)
H5 H 0.2672 0.0423 0.6186
C11 C 0.19026(9) 0.07739(3) 0.0115(4)
C12 C 0.14926(9) 0.07217(4) 0.1688(5)
H6 H 0.1588 0.0649 0.3037
C13 C 0.09424(10) 0.07774(4) 0.1250(6)
H7 H 0.0668 0.0742 0.2306
C14 C 0.07989(10) 0.08852(4) -0.0744(6)
H8 H 0.0428 0.0923 -0.1026
C15 C 0.12014(10) 0.09370(4) -0.2310(5)
H9 H 0.1104 0.1009 -0.3660
C16 C 0.17501(9) 0.08829(4) -0.1882(5)
H10 H 0.2022 0.0920 -0.2943
C17 C 0.38074(8) 0.08999(3) -0.1865(4)
C18 C 0.36372(11) 0.09813(4) -0.3958(4)
H11 H 0.3288 0.0941 -0.4518
C19 C 0.39803(13) 0.11218(5) -0.5218(5)
H12 H 0.3862 0.1175 -0.6622
C20 C 0.44939(13) 0.11830(4) -0.4408(7)
H13 H 0.4724 0.1278 -0.5261
C21 C 0.46691(11) 0.11045(4) -0.2343(6)
H14 H 0.5018 0.1147 -0.1794
C22 C 0.43284(9) 0.09625(4) -0.1068(5)
H15 H 0.4450 0.0909 0.0330
C23 C 0.41422(8) 0.04843(3) 0.0875(4)
C24 C 0.43383(9) 0.03793(3) -0.1078(4)
H16 H 0.4106 0.0367 -0.2333
C25 C 0.48725(10) 0.02940(4) -0.1177(5)
H17 H 0.5000 0.0224 -0.2493
C26 C 0.52188(10) 0.03128(5) 0.0670(6)
H18 H 0.5581 0.0256 0.0603
C27 C 0.50282(10) 0.04157(4) 0.2615(5)
H19 H 0.5262 0.0427 0.3866
C28 C 0.44947(9) 0.05020(4) 0.2731(4)
H20 H 0.4371 0.0572 0.4052
loop_
_geom_bond_atom_site_label_1
_geom_bond_atom_site_label_2
_geom_bond_site_symmetry_1
_geom_bond_site_symmetry_2
N1 C1 1_555 1_555
N2 C1 1_555 1_555
C1 C11 1_555 1_555
C2 N2 1_555 1_555
C3 C2 1_555 1_555
C4 N1 1_555 1_555
C5 C4 1_555 1_555
C6 C5 1_555 1_555
H1 C6 1_555 1_555
C7 C6 1_555 1_555
H2 C7 1_555 1_555
C8 C7 1_555 1_555
H3 C8 1_555 1_555
C9 C8 1_555 1_555
H4 C9 1_555 1_555
C10 C5 1_555 1_555
H5 C10 1_555 1_555
C11 C12 1_555 1_555
C12 H6 1_555 1_555
C13 C12 1_555 1_555
H7 C13 1_555 1_555
C14 C13 1_555 1_555
H8 C14 1_555 1_555
C15 C14 1_555 1_555
H9 C15 1_555 1_555
C16 C11 1_555 1_555
H10 C16 1_555 1_555
C17 C2 1_555 1_555
C18 C17 1_555 1_555
H11 C18 1_555 1_555
C19 C18 1_555 1_555
H12 C19 1_555 1_555
C20 C19 1_555 1_555
H13 C20 1_555 1_555
C21 C20 1_555 1_555
H14 C21 1_555 1_555
C22 C17 1_555 1_555
H15 C22 1_555 1_555
C23 C3 1_555 1_555
C24 C23 1_555 1_555
H16 C24 1_555 1_555
C25 C24 1_555 1_555
H17 C25 1_555 1_555
C26 C25 1_555 1_555
H18 C26 1_555 1_555
C27 C26 1_555 1_555
H19 C27 1_555 1_555
C28 C23 1_555 1_555
H20 C28 1_555 1_555
C3 C4 1_555 1_555
C9 C10 1_555 1_555
C15 C16 1_555 1_555
C21 C22 1_555 1_555
C27 C28 1_555 1_555

#END
