
#######################################################################
#
#                 Cambridge Crystallographic Data Centre
#                                CCDC 
#
#######################################################################
#
# If this CIF has been generated from an entry in the Cambridge 
# Structural Database, then it will include bibliographic, chemical, 
# crystal, experimental, refinement or atomic coordinate data resulting 
# from the CCDC's data processing and validation procedures.
#
#######################################################################

data_PIYMEP
_chemical_formula_moiety         'C14 H23 Te1 1+,Br1 1-'
_chemical_name_systematic        'bis(Isobutyl)-phenyl-tellurium bromide'
_symmetry_cell_setting           monoclinic
_symmetry_space_group_name_H-M   'P 21/c'
_symmetry_Int_Tables_number      14
_space_group_name_Hall           '-P 2ybc'
loop_
_symmetry_equiv_pos_site_id
_symmetry_equiv_pos_as_xyz
1 x,y,z
2 -x,1/2+y,1/2-z
3 -x,-y,-z
4 x,1/2-y,1/2+z
_cell_length_a                   9.161(4)
_cell_length_b                   14.496(8)
_cell_length_c                   13.198(6)
_cell_angle_alpha                90
_cell_angle_beta                 106.86(3)
_cell_angle_gamma                90
_cell_volume                     1677.33
_exptl_crystal_colour            white
_chemical_melting_point          '136-138 deg.C'
_cell_formula_units_Z            4
loop_
_atom_site_label
_atom_site_type_symbol
_atom_site_fract_x
_atom_site_fract_y
_atom_site_fract_z
Te1 Te 0.4306(1) 0.0822(1) 0.1283(1)
C1 C 0.3639(14) 0.0291(9) 0.2573(9)
C2 C 0.3667(18) 0.0800(11) 0.3445(12)
C3 C 0.3221(20) 0.0356(14) 0.4260(13)
C4 C 0.2752(20) -0.0520(13) 0.4219(15)
C5 C 0.2753(23) -0.0997(11) 0.3382(18)
C6 C 0.3134(20) -0.0598(11) 0.2558(16)
C7 C 0.6416(18) 0.1335(11) 0.2257(12)
C8 C 0.7678(20) 0.0625(15) 0.2636(19)
C9 C 0.7974(35) -0.0116(23) 0.1937(26)
C10 C 0.8953(27) 0.1109(21) 0.3455(18)
C11 C 0.3184(20) 0.2095(11) 0.1294(14)
C12 C 0.1455(24) 0.1972(16) 0.0922(22)
C13 C 0.0775(27) 0.1653(23) -0.0213(21)
C14 C 0.0848(41) 0.2871(19) 0.1215(29)
H1 H 0.3983 0.1434 0.3503
H2 H 0.3246 0.0709 0.4879
H3 H 0.2435 -0.0789 0.4785
H4 H 0.2478 -0.1638 0.3344
H5 H 0.3050 -0.0961 0.1936
H6 H 0.6233 0.1614 0.2869
H7 H 0.6768 0.1795 0.1861
H8 H 0.7327 0.0116 0.2968
H9 H 0.8820 -0.0489 0.2322
H10 H 0.8198 0.0152 0.1334
H11 H 0.7077 -0.0493 0.1705
H12 H 0.9781 0.0685 0.3720
H13 H 0.8590 0.1318 0.4029
H14 H 0.9301 0.1627 0.3136
H15 H 0.3477 0.2519 0.0830
H16 H 0.3478 0.2338 0.2001
H17 H 0.1149 0.1457 0.1270
H18 H 0.1232 0.1079 -0.0319
H19 H 0.0974 0.2111 -0.0681
H20 H -0.0306 0.1572 -0.0358
H21 H -0.0246 0.2849 0.1005
H22 H 0.1176 0.3369 0.0854
H23 H 0.1223 0.2968 0.1966
Br1 Br 0.5477(2) 0.1882(1) -0.0546(1)
loop_
_geom_bond_atom_site_label_1
_geom_bond_atom_site_label_2
_geom_bond_site_symmetry_1
_geom_bond_site_symmetry_2
Te1 C1 1_555 1_555
C1 C2 1_555 1_555
C2 C3 1_555 1_555
C3 C4 1_555 1_555
C4 C5 1_555 1_555
C5 C6 1_555 1_555
C6 C1 1_555 1_555
C7 Te1 1_555 1_555
C8 C7 1_555 1_555
C9 C8 1_555 1_555
C10 C8 1_555 1_555
C11 Te1 1_555 1_555
C12 C11 1_555 1_555
C13 C12 1_555 1_555
C14 C12 1_555 1_555
H1 C2 1_555 1_555
H2 C3 1_555 1_555
H3 C4 1_555 1_555
H4 C5 1_555 1_555
H5 C6 1_555 1_555
H6 C7 1_555 1_555
H7 C7 1_555 1_555
H8 C8 1_555 1_555
H9 C9 1_555 1_555
H10 C9 1_555 1_555
H11 C9 1_555 1_555
H12 C10 1_555 1_555
H13 C10 1_555 1_555
H14 C10 1_555 1_555
H15 C11 1_555 1_555
H16 C11 1_555 1_555
H17 C12 1_555 1_555
H18 C13 1_555 1_555
H19 C13 1_555 1_555
H20 C13 1_555 1_555
H21 C14 1_555 1_555
H22 C14 1_555 1_555
H23 C14 1_555 1_555

#END
