
#######################################################################
#
#                 Cambridge Crystallographic Data Centre
#                                CCDC 
#
#######################################################################
#
# If this CIF has been generated from an entry in the Cambridge 
# Structural Database, then it will include bibliographic, chemical, 
# crystal, experimental, refinement or atomic coordinate data resulting 
# from the CCDC's data processing and validation procedures.
#
#######################################################################

data_PIYMOZ
_chemical_formula_moiety         'C13 H13 Te1 1+,C24 H20 B1 1-'
_chemical_name_systematic        'Methyldiphenyl-tellurium tetraphenylborate'
_symmetry_cell_setting           orthorhombic
_symmetry_space_group_name_H-M   'P 21 21 21'
_symmetry_Int_Tables_number      19
_space_group_name_Hall           'P 2ac 2ab'
loop_
_symmetry_equiv_pos_site_id
_symmetry_equiv_pos_as_xyz
1 x,y,z
2 1/2+x,1/2-y,-z
3 -x,1/2+y,1/2-z
4 1/2-x,-y,1/2+z
_cell_length_a                   8.777(5)
_cell_length_b                   16.689(5)
_cell_length_c                   20.523(8)
_cell_angle_alpha                90
_cell_angle_beta                 90
_cell_angle_gamma                90
_cell_volume                     3006.2
_exptl_crystal_colour            colorless
_chemical_melting_point          '201-202 deg.C'
_cell_formula_units_Z            4
loop_
_atom_site_label
_atom_site_type_symbol
_atom_site_fract_x
_atom_site_fract_y
_atom_site_fract_z
Te1 Te 0.7777(1) 0.0571(1) 0.9132(1)
C1 C 0.8869(8) -0.0209(3) 0.8455(3)
C2 C 0.8731(6) 0.0037(4) 0.9977(3)
C3 C 0.9236(7) 0.0515(4) 1.0475(3)
C4 C 0.9847(9) 0.0155(5) 1.1023(3)
C5 C 0.9959(8) -0.0633(6) 1.1073(3)
C6 C 0.9411(9) -0.1125(5) 1.0585(3)
C7 C 0.8792(8) -0.0782(4) 1.0034(3)
C8 C 0.5727(6) -0.0093(3) 0.9246(2)
C9 C 0.5014(8) -0.0043(4) 0.9850(3)
C10 C 0.3692(8) -0.0475(5) 0.9958(3)
C11 C 0.3109(8) -0.0941(5) 0.9474(4)
C12 C 0.3812(9) -0.0988(5) 0.8883(4)
C13 C 0.5135(7) -0.0551(4) 0.8764(3)
H4 H 0.8578 -0.0067 0.8019
H5 H 0.8563 -0.0751 0.8544
H6 H 0.9954 -0.0164 0.8500
H19 H 0.8390 -0.1110 0.9690
H21 H 0.9177 0.1088 1.0439
H22 H 0.2233 -0.1273 0.9551
H23 H 0.5445 0.0289 1.0184
H25 H 0.9470 -0.1696 1.0635
H27 H 0.3160 -0.0434 1.0366
H28 H 0.5620 -0.0570 0.8345
H30 H 1.0205 0.0482 1.1375
H31 H 0.3384 -0.1313 0.8543
H32 H 1.0412 -0.0861 1.1456
B1 B 0.9490(7) 0.2826(3) 0.7982(3)
C14 C 1.0388(6) 0.2425(3) 0.8603(2)
C15 C 1.1076(6) 0.1672(3) 0.8557(3)
C16 C 1.1750(6) 0.1283(3) 0.9082(3)
C17 C 1.1788(7) 0.1651(4) 0.9673(3)
C18 C 1.1113(9) 0.2383(4) 0.9756(3)
C19 C 1.0417(7) 0.2763(3) 0.9228(2)
C20 C 1.0434(6) 0.2693(3) 0.7292(2)
C21 C 0.9727(7) 0.2628(3) 0.6686(2)
C22 C 1.0500(9) 0.2535(3) 0.6107(3)
C23 C 1.2089(9) 0.2517(3) 0.6108(3)
C24 C 1.2825(8) 0.2590(3) 0.6689(3)
C25 C 1.2030(7) 0.2679(3) 0.7269(3)
C26 C 0.9335(6) 0.3807(3) 0.8045(2)
C27 C 1.0498(7) 0.4286(3) 0.8311(2)
C28 C 1.0376(9) 0.5111(3) 0.8346(3)
C29 C 0.9123(8) 0.5484(3) 0.8108(3)
C30 C 0.7988(8) 0.5053(3) 0.7819(3)
C31 C 0.8099(6) 0.4223(3) 0.7793(2)
C32 C 0.7854(6) 0.2374(3) 0.7988(2)
C33 C 0.7596(6) 0.1649(3) 0.7665(2)
C34 C 0.6245(6) 0.1224(3) 0.7721(3)
C35 C 0.5074(6) 0.1498(3) 0.8118(3)
C36 C 0.5287(7) 0.2207(3) 0.8450(3)
C37 C 0.6642(6) 0.2618(3) 0.8390(2)
H1 H 0.8396 0.1441 0.7395
H2 H 0.6759 0.3109 0.8629
H3 H 1.1075 0.1412 0.8140
H7 H 0.7123 0.5322 0.7635
H8 H 1.2587 0.2731 0.7669
H9 H 0.4494 0.2408 0.8727
H10 H 0.9921 0.3269 0.9295
H11 H 1.1186 0.5418 0.8538
H12 H 0.6115 0.0737 0.7478
H13 H 1.2663 0.2448 0.5714
H14 H 0.9030 0.6055 0.8146
H15 H 1.1396 0.4026 0.8474
H16 H 1.2188 0.0760 0.9028
H17 H 0.7293 0.3922 0.7593
H18 H 0.8633 0.2638 0.6680
H20 H 1.3918 0.2582 0.6697
H24 H 0.9958 0.2496 0.5701
H26 H 0.4145 0.1200 0.8164
H29 H 1.2299 0.1400 1.0033
H33 H 1.1113 0.2635 1.0176
loop_
_geom_bond_atom_site_label_1
_geom_bond_atom_site_label_2
_geom_bond_site_symmetry_1
_geom_bond_site_symmetry_2
Te1 C1 1_555 1_555
B1 C14 1_555 1_555
C1 H4 1_555 1_555
C2 Te1 1_555 1_555
C3 C2 1_555 1_555
C4 C3 1_555 1_555
C5 C4 1_555 1_555
C6 C5 1_555 1_555
C7 C2 1_555 1_555
C8 Te1 1_555 1_555
C9 C8 1_555 1_555
C10 C9 1_555 1_555
C11 C10 1_555 1_555
C12 C11 1_555 1_555
C13 C8 1_555 1_555
C14 C15 1_555 1_555
C15 C16 1_555 1_555
C16 C17 1_555 1_555
C17 C18 1_555 1_555
C18 C19 1_555 1_555
C19 C14 1_555 1_555
C20 B1 1_555 1_555
C21 C20 1_555 1_555
C22 C21 1_555 1_555
C23 C22 1_555 1_555
C24 C23 1_555 1_555
C25 C20 1_555 1_555
C26 B1 1_555 1_555
C27 C26 1_555 1_555
C28 C27 1_555 1_555
C29 C28 1_555 1_555
C30 C29 1_555 1_555
C31 C26 1_555 1_555
C32 B1 1_555 1_555
C33 C32 1_555 1_555
C34 C33 1_555 1_555
C35 C34 1_555 1_555
C36 C35 1_555 1_555
C37 C32 1_555 1_555
H1 C33 1_555 1_555
H2 C37 1_555 1_555
H3 C15 1_555 1_555
H5 C1 1_555 1_555
H6 C1 1_555 1_555
H7 C30 1_555 1_555
H8 C25 1_555 1_555
H9 C36 1_555 1_555
H10 C19 1_555 1_555
H11 C28 1_555 1_555
H12 C34 1_555 1_555
H13 C23 1_555 1_555
H14 C29 1_555 1_555
H15 C27 1_555 1_555
H16 C16 1_555 1_555
H17 C31 1_555 1_555
H18 C21 1_555 1_555
H19 C7 1_555 1_555
H20 C24 1_555 1_555
H21 C3 1_555 1_555
H22 C11 1_555 1_555
H23 C9 1_555 1_555
H24 C22 1_555 1_555
H25 C6 1_555 1_555
H26 C35 1_555 1_555
H27 C10 1_555 1_555
H28 C13 1_555 1_555
H29 C17 1_555 1_555
H30 C4 1_555 1_555
H31 C12 1_555 1_555
H32 C5 1_555 1_555
H33 C18 1_555 1_555
C6 C7 1_555 1_555
C12 C13 1_555 1_555
C24 C25 1_555 1_555
C30 C31 1_555 1_555
C36 C37 1_555 1_555

#END
