
#######################################################################
#
#                 Cambridge Crystallographic Data Centre
#                                CCDC 
#
#######################################################################
#
# If this CIF has been generated from an entry in the Cambridge 
# Structural Database, then it will include bibliographic, chemical, 
# crystal, experimental, refinement or atomic coordinate data resulting 
# from the CCDC's data processing and validation procedures.
#
#######################################################################

data_PIYTID
_chemical_formula_moiety         'C32 H44 B4 N4 O6'
_chemical_name_systematic        
1,6-dimethyl-5,10-diphenyl-5,10-bis((4,4,5,5-tetramethyl-1,3,2-dioxaborolan-2-yl)oxy)-5H,10H-diimidazo[2,1-c:2',1'-f][1,4,2,5]diazadiborinine-1,6-diium-5,10-diuide
_symmetry_cell_setting           monoclinic
_symmetry_space_group_name_H-M   'P 21/n'
_symmetry_Int_Tables_number      14
_space_group_name_Hall           '-P 2yn'
loop_
_symmetry_equiv_pos_site_id
_symmetry_equiv_pos_as_xyz
1 x,y,z
2 1/2-x,1/2+y,1/2-z
3 -x,-y,-z
4 1/2+x,1/2-y,1/2+z
_cell_length_a                   7.0474(3)
_cell_length_b                   10.6520(4)
_cell_length_c                   22.2574(9)
_cell_angle_alpha                90
_cell_angle_beta                 90.2535(8)
_cell_angle_gamma                90
_cell_volume                     1670.82
_exptl_crystal_colour            colorless
_exptl_crystal_description       needle
_cell_formula_units_Z            2
loop_
_atom_site_label
_atom_site_type_symbol
_atom_site_fract_x
_atom_site_fract_y
_atom_site_fract_z
B1 B 0.4982(4) 1.0913(2) 0.05978(10)
B2 B 0.6209(4) 0.9578(2) 0.14879(11)
C1 C 0.3407(3) 0.91864(18) -0.00816(9)
C2 C 0.0785(3) 0.8795(2) 0.04425(10)
H1 H -0.0394 0.8444 0.0562
C3 C 0.1803(3) 0.96818(19) 0.07359(10)
H2 H 0.1458 1.0072 0.1103
C4 C 0.1237(3) 0.7575(2) -0.05178(11)
H3 H 0.179 0.7798 -0.0907
H4 H -0.015 0.7564 -0.0553
H5 H 0.1688 0.6742 -0.0396
C5 C 0.4044(3) 1.23095(19) 0.06186(9)
C6 C 0.3716(3) 1.3015(2) 0.00988(10)
H6 H 0.4049 1.2672 -0.028
C7 C 0.2914(4) 1.4208(2) 0.01231(11)
H7 H 0.2715 1.4669 -0.0237
C8 C 0.2411(4) 1.4723(2) 0.06643(11)
H8 H 0.1861 1.5537 0.068
C9 C 0.2711(4) 1.4046(2) 0.11900(11)
H9 H 0.236 1.4393 0.1567
C10 C 0.3528(3) 1.2859(2) 0.11630(10)
H10 H 0.3739 1.2409 0.1526
C11 C 0.6467(5) 0.7520(2) 0.17421(11)
C12 C 0.4418(6) 0.7139(4) 0.18812(19)
H11 H 0.3743 0.7856 0.2055
H12 H 0.4421 0.6441 0.2168
H13 H 0.3781 0.6877 0.1509
C13 C 0.7612(9) 0.6402(3) 0.15626(13)
H14 H 0.6972 0.5964 0.1232
H15 H 0.7744 0.5834 0.1906
H16 H 0.8872 0.6676 0.1432
C14 C 0.7343(4) 0.8342(2) 0.22446(10)
C15 C 0.9494(5) 0.8398(4) 0.22138(16)
H17 H 0.9884 0.856 0.1799
H18 H 1.0027 0.7596 0.2348
H19 H 0.9959 0.9074 0.2474
C16 C 0.6759(5) 0.7995(3) 0.28760(10)
H20 H 0.743 0.8534 0.3164
H21 H 0.7082 0.7115 0.2954
H22 H 0.5388 0.8113 0.292
N1 N 0.3422(3) 0.99239(16) 0.04124(8)
N2 N 0.1807(3) 0.85026(16) -0.00661(8)
O1 O 0.5736(2) 1.06376(13) 0.11989(7)
O2 O 0.6347(3) 0.84065(15) 0.12409(7)
O3 O 0.6629(3) 0.95811(14) 0.20935(7)
B1B B 0.5018(4) 0.9087(2) -0.05978(10)
B2B B 0.3791(4) 1.0422(2) -0.14879(11)
C1B C 0.6593(3) 1.08136(18) 0.00816(9)
C2B C 0.9215(3) 1.1205(2) -0.04425(10)
H1B H 1.0394 1.1556 -0.0562
C3B C 0.8197(3) 1.03182(19) -0.07359(10)
H2B H 0.8542 0.9928 -0.1103
C4B C 0.8763(3) 1.2425(2) 0.05178(11)
H3B H 0.821 1.2202 0.0907
H4B H 1.015 1.2436 0.0553
H5B H 0.8312 1.3258 0.0396
C5B C 0.5956(3) 0.76905(19) -0.06186(9)
C6B C 0.6284(3) 0.6985(2) -0.00988(10)
H6B H 0.5951 0.7328 0.028
C7B C 0.7086(4) 0.5792(2) -0.01231(11)
H7B H 0.7285 0.5331 0.0237
C8B C 0.7589(4) 0.5277(2) -0.06643(11)
H8B H 0.8139 0.4463 -0.068
C9B C 0.7289(4) 0.5954(2) -0.11900(11)
H9B H 0.764 0.5607 -0.1567
C10B C 0.6472(3) 0.7141(2) -0.11630(10)
H10B H 0.6261 0.7591 -0.1526
C11B C 0.3533(5) 1.2480(2) -0.17421(11)
C12B C 0.5582(6) 1.2861(4) -0.18812(19)
H11B H 0.6257 1.2144 -0.2055
H12B H 0.5579 1.3559 -0.2168
H13B H 0.6219 1.3123 -0.1509
C13B C 0.2388(9) 1.3598(3) -0.15626(13)
H14B H 0.3028 1.4036 -0.1232
H15B H 0.2256 1.4166 -0.1906
H16B H 0.1128 1.3324 -0.1432
C14B C 0.2657(4) 1.1658(2) -0.22446(10)
C15B C 0.0506(5) 1.1602(4) -0.22138(16)
H17B H 0.0116 1.144 -0.1799
H18B H -0.0027 1.2404 -0.2348
H19B H 0.0041 1.0926 -0.2474
C16B C 0.3241(5) 1.2005(3) -0.28760(10)
H20B H 0.257 1.1466 -0.3164
H21B H 0.2918 1.2885 -0.2954
H22B H 0.4612 1.1887 -0.292
N1B N 0.6578(3) 1.00761(16) -0.04124(8)
N2B N 0.8193(3) 1.14974(16) 0.00661(8)
O1B O 0.4264(2) 0.93624(13) -0.11989(7)
O2B O 0.3653(3) 1.15935(15) -0.12409(7)
O3B O 0.3371(3) 1.04189(14) -0.20935(7)
loop_
_geom_bond_atom_site_label_1
_geom_bond_atom_site_label_2
_geom_bond_site_symmetry_1
_geom_bond_site_symmetry_2
B1 C5 1_555 1_555
B2 O1 1_555 1_555
C1 N1 1_555 1_555
C2 H1 1_555 1_555
C3 C2 1_555 1_555
H2 C3 1_555 1_555
C4 H3 1_555 1_555
H4 C4 1_555 1_555
H5 C4 1_555 1_555
C5 C6 1_555 1_555
C6 H6 1_555 1_555
C7 C6 1_555 1_555
H7 C7 1_555 1_555
C8 C7 1_555 1_555
H8 C8 1_555 1_555
C9 C8 1_555 1_555
H9 C9 1_555 1_555
C10 C5 1_555 1_555
H10 C10 1_555 1_555
C11 C12 1_555 1_555
C12 H11 1_555 1_555
H12 C12 1_555 1_555
H13 C12 1_555 1_555
C13 C11 1_555 1_555
H14 C13 1_555 1_555
H15 C13 1_555 1_555
H16 C13 1_555 1_555
C14 C11 1_555 1_555
C15 C14 1_555 1_555
H17 C15 1_555 1_555
H18 C15 1_555 1_555
H19 C15 1_555 1_555
C16 C14 1_555 1_555
H20 C16 1_555 1_555
H21 C16 1_555 1_555
H22 C16 1_555 1_555
N1 B1 1_555 1_555
N2 C1 1_555 1_555
O1 B1 1_555 1_555
O2 B2 1_555 1_555
O3 B2 1_555 1_555
B1B C1 1_555 1_555
B2B O1B 1_555 1_555
C1B B1 1_555 1_555
C2B H1B 1_555 1_555
C3B C2B 1_555 1_555
H2B C3B 1_555 1_555
C4B H3B 1_555 1_555
H4B C4B 1_555 1_555
H5B C4B 1_555 1_555
C5B B1B 1_555 1_555
C6B C5B 1_555 1_555
H6B C6B 1_555 1_555
C7B C6B 1_555 1_555
H7B C7B 1_555 1_555
C8B C7B 1_555 1_555
H8B C8B 1_555 1_555
C9B C8B 1_555 1_555
H9B C9B 1_555 1_555
C10B C5B 1_555 1_555
H10B C10B 1_555 1_555
C11B C12B 1_555 1_555
C12B H11B 1_555 1_555
H12B C12B 1_555 1_555
H13B C12B 1_555 1_555
C13B C11B 1_555 1_555
H14B C13B 1_555 1_555
H15B C13B 1_555 1_555
H16B C13B 1_555 1_555
C14B C11B 1_555 1_555
C15B C14B 1_555 1_555
H17B C15B 1_555 1_555
H18B C15B 1_555 1_555
H19B C15B 1_555 1_555
C16B C14B 1_555 1_555
H20B C16B 1_555 1_555
H21B C16B 1_555 1_555
H22B C16B 1_555 1_555
N1B B1B 1_555 1_555
N2B C1B 1_555 1_555
O1B B1B 1_555 1_555
O2B B2B 1_555 1_555
O3B B2B 1_555 1_555
C2 N2 1_555 1_555
C3 N1 1_555 1_555
C4 N2 1_555 1_555
C9 C10 1_555 1_555
C11 O2 1_555 1_555
C14 O3 1_555 1_555
C1B N1B 1_555 1_555
C2B N2B 1_555 1_555
C3B N1B 1_555 1_555
C4B N2B 1_555 1_555
C9B C10B 1_555 1_555
C11B O2B 1_555 1_555
C14B O3B 1_555 1_555

#END
