
#######################################################################
#
#                 Cambridge Crystallographic Data Centre
#                                CCDC 
#
#######################################################################
#
# If this CIF has been generated from an entry in the Cambridge 
# Structural Database, then it will include bibliographic, chemical, 
# crystal, experimental, refinement or atomic coordinate data resulting 
# from the CCDC's data processing and validation procedures.
#
#######################################################################

data_PIYTAT
_chemical_compound_source        'whole plant of Saussurea cauloptera'
_chemical_name_common            Gerin
_chemical_formula_moiety         'C18 H22 O5'
_chemical_name_systematic        
'Methyl 2-((2S*,3R*,4aS*,8aR*)-3-acetoxy-1,2,3,4,4a,7,8,8a-octahydro-4a-methyl-8-methylidene-7-oxonaphthalen-2-yl)prop-2-enoate'
_chemical_properties_biological  
'strong inhibitory activity against human gastric carcinoma (SGC-7901) cells'
_symmetry_cell_setting           orthorhombic
_symmetry_space_group_name_H-M   'P 21 21 21'
_symmetry_Int_Tables_number      19
_space_group_name_Hall           'P 2ac 2ab'
loop_
_symmetry_equiv_pos_site_id
_symmetry_equiv_pos_as_xyz
1 x,y,z
2 1/2-x,-y,1/2+z
3 -x,1/2+y,1/2-z
4 1/2+x,1/2-y,-z
_cell_length_a                   9.6583(7)
_cell_length_b                   11.9316(8)
_cell_length_c                   14.9874(10)
_cell_angle_alpha                90
_cell_angle_beta                 90
_cell_angle_gamma                90
_cell_volume                     1727.13
_exptl_crystal_colour            colorless
_cell_formula_units_Z            4
_exptl_crystal_recrystallization_method acetone/methanol
loop_
_atom_site_label
_atom_site_type_symbol
_atom_site_fract_x
_atom_site_fract_y
_atom_site_fract_z
C1 C 0.3504(3) 0.4971(2) 0.14244(19)
H1 H 0.3684 0.5164 0.2042
H2 H 0.4017 0.5485 0.1048
C2 C 0.1960(3) 0.5072(2) 0.12306(17)
H3 H 0.1830 0.4869 0.0603
C3 C 0.3975(3) 0.3765(2) 0.12430(18)
H4 H 0.3662 0.3593 0.0636
C4 C 0.1118(3) 0.4238(2) 0.17801(17)
H5 H 0.0150 0.4256 0.1585
C5 C 0.5506(3) 0.3576(2) 0.12403(19)
C6 C 0.3236(3) 0.2914(2) 0.18543(17)
C7 C 0.5925(4) 0.2408(3) 0.1013(2)
C8 C 0.3650(3) 0.3036(3) 0.28503(18)
H6 H 0.4634 0.2951 0.2909
H7 H 0.3191 0.2469 0.3196
H8 H 0.3381 0.3764 0.3062
C9 C 0.1666(3) 0.3046(2) 0.17126(19)
H9 H 0.1433 0.2753 0.1128
H10 H 0.1190 0.2589 0.2151
C10 C 0.3687(4) 0.1758(3) 0.1566(2)
H11 H 0.3088 0.1163 0.1671
C11 C 0.6474(3) 0.4313(3) 0.1437(2)
H12 H 0.7401 0.4101 0.1432
H13 H 0.6232 0.5045 0.1580
C12 C 0.4883(4) 0.1542(3) 0.1174(2)
H14 H 0.5069 0.0812 0.0993
O1 O 0.12010(18) 0.45841(16) 0.27138(12)
O2 O -0.1041(2) 0.5012(2) 0.27553(18)
O3 O 0.7063(2) 0.2174(2) 0.07154(17)
C13 C 0.0052(3) 0.4961(2) 0.31152(19)
C14 C 0.0345(4) 0.5304(3) 0.40466(19)
H15 H 0.0975 0.5927 0.4045
H16 H 0.0754 0.4688 0.4364
H17 H -0.0502 0.5520 0.4334
C15 C 0.1416(3) 0.6258(2) 0.13375(19)
C16 C 0.1944(4) 0.7003(3) 0.1890(2)
H18 H 0.1555 0.7715 0.1929
H19 H 0.2704 0.6818 0.2240
C17 C -0.1568(4) 0.6125(3) -0.0192(3)
H20 H -0.2261 0.6448 0.0189
H21 H -0.1936 0.5469 -0.0477
H22 H -0.1302 0.6661 -0.0638
C18 C 0.0211(4) 0.6630(3) 0.0810(2)
O4 O -0.0372(2) 0.58211(18) 0.03345(16)
O5 O -0.0238(3) 0.7564(2) 0.0801(2)
loop_
_geom_bond_atom_site_label_1
_geom_bond_atom_site_label_2
_geom_bond_site_symmetry_1
_geom_bond_site_symmetry_2
C1 H1 1_555 1_555
H2 C1 1_555 1_555
C2 C1 1_555 1_555
H3 C2 1_555 1_555
C3 C1 1_555 1_555
H4 C3 1_555 1_555
C4 C2 1_555 1_555
H5 C4 1_555 1_555
C5 C3 1_555 1_555
C6 C3 1_555 1_555
C7 C5 1_555 1_555
C8 C6 1_555 1_555
H6 C8 1_555 1_555
H7 C8 1_555 1_555
H8 C8 1_555 1_555
C9 C4 1_555 1_555
H9 C9 1_555 1_555
H10 C9 1_555 1_555
C10 C6 1_555 1_555
H11 C10 1_555 1_555
C11 C5 1_555 1_555
H12 C11 1_555 1_555
H13 C11 1_555 1_555
C12 C7 1_555 1_555
H14 C12 1_555 1_555
O1 C4 1_555 1_555
O2 C13 1_555 1_555
O3 C7 1_555 1_555
C13 O1 1_555 1_555
C14 C13 1_555 1_555
H15 C14 1_555 1_555
H16 C14 1_555 1_555
H17 C14 1_555 1_555
C15 C2 1_555 1_555
C16 C15 1_555 1_555
H18 C16 1_555 1_555
H19 C16 1_555 1_555
C17 H20 1_555 1_555
H21 C17 1_555 1_555
H22 C17 1_555 1_555
C18 C15 1_555 1_555
O4 C17 1_555 1_555
O5 C18 1_555 1_555
C6 C9 1_555 1_555
C10 C12 1_555 1_555
C18 O4 1_555 1_555

#END
