
#######################################################################
#
#                 Cambridge Crystallographic Data Centre
#                                CCDC 
#
#######################################################################
#
# If this CIF has been generated from an entry in the Cambridge 
# Structural Database, then it will include bibliographic, chemical, 
# crystal, experimental, refinement or atomic coordinate data resulting 
# from the CCDC's data processing and validation procedures.
#
#######################################################################

data_PIYTEZ
_chemical_formula_moiety         'C40 H40 B4 N8 O2,C2 H4 Cl2'
_chemical_name_systematic        
'7,15,20,25-tetramethyl-1,3,9,11-tetraphenyl-2,10-dioxa-4\l^5^,7,12\l^5^,15,17\l^5^,20,22\l^5^,25-octaaza-1\l^5^,3\l^5^,9\l^5^,11\l^5^-tetraboraheptacyclo[9.5.5.5^3,9^.0^4,8^.0^12,16^.0^17,21^.0^22,26^]hexacosa-4(8),5,12(16),13,17(21),18,22(26),23-octaene 1,2-dichloroethane solvate'
_symmetry_cell_setting           triclinic
_symmetry_space_group_name_H-M   'P -1'
_symmetry_Int_Tables_number      2
_space_group_name_Hall           '-P 1'
loop_
_symmetry_equiv_pos_site_id
_symmetry_equiv_pos_as_xyz
1 x,y,z
2 -x,-y,-z
_cell_length_a                   11.1827(2)
_cell_length_b                   13.5841(2)
_cell_length_c                   13.7474(2)
_cell_angle_alpha                83.0226(11)
_cell_angle_beta                 81.9334(10)
_cell_angle_gamma                86.2235(11)
_cell_volume                     2049.82
_exptl_crystal_colour            colorless
_exptl_crystal_description       block
_cell_formula_units_Z            2
loop_
_atom_site_label
_atom_site_type_symbol
_atom_site_fract_x
_atom_site_fract_y
_atom_site_fract_z
B1 B 0.4629(3) 0.7589(2) 0.1427(2)
B2 B 0.5285(2) 0.7524(2) 0.3694(2)
B3 B 0.3024(3) 0.7914(2) 0.4360(2)
B4 B 0.2413(3) 0.8087(2) 0.2070(2)
C1 C 0.5413(2) 0.74267(18) 0.03583(19)
C2 C 0.4898(3) 0.7548(2) -0.0514(2)
H1 H 0.4065 0.7746 -0.0495
C3 C 0.5580(3) 0.7385(2) -0.1420(2)
H2 H 0.5211 0.7477 -0.2008
C4 C 0.6783(3) 0.7092(2) -0.1456(2)
H3 H 0.7242 0.6975 -0.2071
C5 C 0.7328(3) 0.6965(2) -0.0605(2)
H4 H 0.8159 0.6758 -0.063
C6 C 0.6647(3) 0.7143(2) 0.0288(2)
H5 H 0.703 0.7071 0.0869
C7 C 0.5535(2) 0.93358(19) 0.13401(19)
H6 H 0.5475 0.9524 0.0659
C8 C 0.5909(2) 0.9909(2) 0.19646(19)
H7 H 0.6164 1.057 0.1811
C9 C 0.6169(3) 0.9675(2) 0.3766(2)
H8 H 0.58 0.9255 0.4347
H9 H 0.5871 1.0366 0.3807
H10 H 0.705 0.9629 0.3746
C10 C 0.5453(2) 0.84376(18) 0.28015(18)
C11 C 0.6538(2) 0.73013(19) 0.41737(19)
C12 C 0.7661(2) 0.7231(2) 0.3588(2)
H11 H 0.7688 0.7291 0.2889
C13 C 0.8736(3) 0.7078(2) 0.3992(3)
H12 H 0.9484 0.7044 0.357
C14 C 0.8722(3) 0.6974(2) 0.5003(3)
H13 H 0.9456 0.6871 0.5283
C15 C 0.7630(3) 0.7023(3) 0.5602(2)
H14 H 0.761 0.6944 0.63
C16 C 0.6552(3) 0.7188(2) 0.5190(2)
H15 H 0.5809 0.7225 0.5617
C17 C 0.4793(2) 0.66077(19) 0.22186(19)
C18 C 0.4181(3) 0.5349(2) 0.1225(2)
H16 H 0.3459 0.4964 0.1431
H17 H 0.482 0.4937 0.0884
H18 H 0.3983 0.5936 0.0777
C19 C 0.4794(3) 0.5042(2) 0.2935(2)
H19 H 0.4719 0.4343 0.304
C20 C 0.5110(2) 0.56202(19) 0.3580(2)
H20 H 0.53 0.5401 0.4226
C21 C 0.2281(2) 0.80892(19) 0.5442(2)
C22 C 0.1109(3) 0.8531(2) 0.5534(2)
H21 H 0.0724 0.8704 0.4959
C23 C 0.0491(3) 0.8723(3) 0.6456(3)
H22 H -0.0296 0.9036 0.6501
C24 C 0.1028(4) 0.8458(3) 0.7299(3)
H23 H 0.0612 0.8588 0.7925
C25 C 0.2168(3) 0.8003(2) 0.7233(2)
H24 H 0.2533 0.7809 0.7815
C26 C 0.2791(3) 0.7827(2) 0.6311(2)
H25 H 0.3582 0.752 0.6276
C27 C 0.2416(2) 0.70782(19) 0.38411(18)
C28 C 0.2253(3) 0.5730(2) 0.5264(2)
H26 H 0.232 0.5004 0.5296
H27 H 0.1548 0.5932 0.5718
H28 H 0.2986 0.5969 0.5454
C29 C 0.1674(2) 0.5660(2) 0.3575(2)
H29 H 0.1399 0.5004 0.3675
C30 C 0.1716(2) 0.6293(2) 0.2734(2)
H30 H 0.1475 0.616 0.2129
C31 C 0.2675(2) 0.89787(19) 0.26905(18)
C32 C 0.2579(3) 1.0353(2) 0.1316(2)
H31 H 0.1761 1.0657 0.1299
H32 H 0.2703 0.9816 0.089
H33 H 0.3174 1.0855 0.1079
C33 C 0.2917(2) 1.0499(2) 0.3068(2)
H34 H 0.2981 1.1198 0.3014
C34 C 0.2996(2) 0.9850(2) 0.3880(2)
H35 H 0.3131 1.001 0.4508
C35 C 0.1155(2) 0.8338(2) 0.16006(19)
C36 C 0.1005(3) 0.8026(3) 0.0696(2)
H36 H 0.1663 0.7692 0.0335
C37 C -0.0087(3) 0.8193(3) 0.0314(3)
H37 H -0.0175 0.7956 -0.0293
C38 C -0.1048(3) 0.8704(3) 0.0815(3)
H38 H -0.1789 0.8828 0.0548
C39 C -0.0921(3) 0.9029(3) 0.1699(3)
H39 H -0.1574 0.9382 0.2046
C40 C 0.0166(3) 0.8841(2) 0.2088(2)
H40 H 0.0237 0.9063 0.2706
N1 N 0.52536(18) 0.84310(15) 0.18611(15)
N2 N 0.58479(19) 0.93406(16) 0.28710(16)
N3 N 0.51067(18) 0.65904(16) 0.31309(15)
N4 N 0.4600(2) 0.56610(16) 0.20946(17)
N5 N 0.28484(18) 0.89093(16) 0.36426(15)
N6 N 0.27235(19) 0.99486(16) 0.23303(16)
N7 N 0.21679(18) 0.71648(16) 0.29062(16)
N8 N 0.2112(2) 0.61559(16) 0.42586(16)
O1 O 0.33877(15) 0.78551(13) 0.13172(13)
O2 O 0.42841(15) 0.76744(13) 0.44480(12)
Cl1 Cl 1.01371(9) 0.42263(9) 0.21475(11)
Cl2 Cl 0.7911(2) 0.42267(12) 0.07172(14)
C41 C 0.9041(4) 0.5212(4) 0.1865(4)
H41 H 0.8943 0.5663 0.2387
H42 H 0.9341 0.56 0.1231
C42 C 0.7885(4) 0.4839(4) 0.1793(4)
H43 H 0.7271 0.5398 0.1779
H44 H 0.7644 0.4368 0.2386
loop_
_geom_bond_atom_site_label_1
_geom_bond_atom_site_label_2
_geom_bond_site_symmetry_1
_geom_bond_site_symmetry_2
B1 C1 1_555 1_555
B2 C10 1_555 1_555
B3 C21 1_555 1_555
B4 C31 1_555 1_555
C1 C2 1_555 1_555
C2 H1 1_555 1_555
C3 C2 1_555 1_555
H2 C3 1_555 1_555
C4 C3 1_555 1_555
H3 C4 1_555 1_555
C5 C4 1_555 1_555
H4 C5 1_555 1_555
C6 C1 1_555 1_555
H5 C6 1_555 1_555
C7 H6 1_555 1_555
C8 C7 1_555 1_555
H7 C8 1_555 1_555
C9 H8 1_555 1_555
H9 C9 1_555 1_555
H10 C9 1_555 1_555
C10 N1 1_555 1_555
C11 B2 1_555 1_555
C12 C11 1_555 1_555
H11 C12 1_555 1_555
C13 C12 1_555 1_555
H12 C13 1_555 1_555
C14 C13 1_555 1_555
H13 C14 1_555 1_555
C15 C14 1_555 1_555
H14 C15 1_555 1_555
C16 C11 1_555 1_555
H15 C16 1_555 1_555
C17 B1 1_555 1_555
C18 H16 1_555 1_555
H17 C18 1_555 1_555
H18 C18 1_555 1_555
C19 H19 1_555 1_555
C20 C19 1_555 1_555
H20 C20 1_555 1_555
C21 C22 1_555 1_555
C22 H21 1_555 1_555
C23 C22 1_555 1_555
H22 C23 1_555 1_555
C24 C23 1_555 1_555
H23 C24 1_555 1_555
C25 C24 1_555 1_555
H24 C25 1_555 1_555
C26 C21 1_555 1_555
H25 C26 1_555 1_555
C27 B3 1_555 1_555
C28 H26 1_555 1_555
H27 C28 1_555 1_555
H28 C28 1_555 1_555
C29 H29 1_555 1_555
C30 C29 1_555 1_555
H30 C30 1_555 1_555
C31 N5 1_555 1_555
C32 H31 1_555 1_555
H32 C32 1_555 1_555
H33 C32 1_555 1_555
C33 H34 1_555 1_555
C34 C33 1_555 1_555
H35 C34 1_555 1_555
C35 B4 1_555 1_555
C36 C35 1_555 1_555
H36 C36 1_555 1_555
C37 C36 1_555 1_555
H37 C37 1_555 1_555
C38 C37 1_555 1_555
H38 C38 1_555 1_555
C39 C38 1_555 1_555
H39 C39 1_555 1_555
C40 C35 1_555 1_555
H40 C40 1_555 1_555
N1 B1 1_555 1_555
N2 C8 1_555 1_555
N3 B2 1_555 1_555
N4 C17 1_555 1_555
N5 B3 1_555 1_555
N6 C31 1_555 1_555
N7 B4 1_555 1_555
N8 C27 1_555 1_555
O1 B1 1_555 1_555
O2 B2 1_555 1_555
Cl1 C41 1_555 1_555
Cl2 C42 1_555 1_555
C41 H41 1_555 1_555
H42 C41 1_555 1_555
C42 C41 1_555 1_555
H43 C42 1_555 1_555
H44 C42 1_555 1_555
B3 O2 1_555 1_555
B4 O1 1_555 1_555
C5 C6 1_555 1_555
C7 N1 1_555 1_555
C9 N2 1_555 1_555
C10 N2 1_555 1_555
C15 C16 1_555 1_555
C17 N3 1_555 1_555
C18 N4 1_555 1_555
C19 N4 1_555 1_555
C20 N3 1_555 1_555
C25 C26 1_555 1_555
C27 N7 1_555 1_555
C28 N8 1_555 1_555
C29 N8 1_555 1_555
C30 N7 1_555 1_555
C32 N6 1_555 1_555
C33 N6 1_555 1_555
C34 N5 1_555 1_555
C39 C40 1_555 1_555

#END
