
#######################################################################
#
#                 Cambridge Crystallographic Data Centre
#                                CCDC 
#
#######################################################################
#
# If this CIF has been generated from an entry in the Cambridge 
# Structural Database, then it will include bibliographic, chemical, 
# crystal, experimental, refinement or atomic coordinate data resulting 
# from the CCDC's data processing and validation procedures.
#
#######################################################################

data_PIYTAV
_chemical_formula_moiety         'C38 H56 B2 N6 O2'
_chemical_name_systematic        
1,6-dimethyl-5,10-diphenyl-5,10-bis((2,2,6,6-tetramethylpiperidin-1-yl)oxy)-5,10-dihydro-1H-4,5-diimidazo[2,1-c:2',1'-f][1,4,2,5]diazadiborinin-6-ium-10-uide
_symmetry_cell_setting           monoclinic
_symmetry_space_group_name_H-M   'P 21/c'
_symmetry_Int_Tables_number      14
_space_group_name_Hall           '-P 2ybc'
loop_
_symmetry_equiv_pos_site_id
_symmetry_equiv_pos_as_xyz
1 x,y,z
2 -x,1/2+y,1/2-z
3 -x,-y,-z
4 x,1/2-y,1/2+z
_cell_length_a                   8.1816(5)
_cell_length_b                   26.3954(16)
_cell_length_c                   17.1380(11)
_cell_angle_alpha                90
_cell_angle_beta                 99.443(4)
_cell_angle_gamma                90
_cell_volume                     3650.91
_exptl_crystal_colour            colorless
_exptl_crystal_description       needle
_cell_formula_units_Z            4
loop_
_atom_site_label
_atom_site_type_symbol
_atom_site_fract_x
_atom_site_fract_y
_atom_site_fract_z
B1 B 0.7419(5) 0.29387(14) 0.7803(2)
B2 B 0.5301(5) 0.38844(14) 0.6902(2)
C1 C 0.8994(4) 0.17154(13) 0.7321(2)
C2 C 0.8481(5) 0.13584(13) 0.7951(2)
H1 H 0.800592 0.155769 0.834123
H2 H 0.945721 0.11746 0.821669
H3 H 0.765581 0.111587 0.769596
C3 C 1.0628(4) 0.19746(13) 0.7683(2)
H4 H 1.104637 0.217403 0.727593
H5 H 1.144644 0.171638 0.789005
H6 H 1.043217 0.219843 0.81149
C4 C 0.9366(5) 0.14189(13) 0.6606(2)
H7 H 0.993306 0.164594 0.627581
H8 H 1.013689 0.113899 0.679308
C5 C 0.7828(5) 0.11982(14) 0.6095(2)
H9 H 0.813697 0.102531 0.562728
H10 H 0.729215 0.094837 0.640167
C6 C 0.6652(5) 0.16332(13) 0.5835(2)
H11 H 0.56262 0.149541 0.551868
H12 H 0.717095 0.186149 0.548776
C7 C 0.6189(4) 0.19427(13) 0.6524(2)
C8 C 0.5000(4) 0.16437(14) 0.6964(2)
H13 H 0.543092 0.130033 0.707611
H14 H 0.390384 0.162551 0.663406
H15 H 0.490995 0.181538 0.746252
C9 C 0.5267(4) 0.24149(13) 0.6170(2)
H16 H 0.481505 0.259749 0.65845
H17 H 0.436084 0.231401 0.575169
H18 H 0.603616 0.263568 0.594678
C10 C 0.8774(4) 0.30757(13) 0.8589(2)
C11 C 0.9340(4) 0.27140(14) 0.9166(2)
H19 H 0.88868 0.238199 0.911402
C12 C 1.0546(5) 0.28255(15) 0.9815(2)
H20 H 1.09152 0.256928 1.019268
C13 C 1.1210(4) 0.33071(14) 0.9913(2)
H21 H 1.204424 0.338337 1.035154
C14 C 1.0638(4) 0.36778(14) 0.9360(2)
H22 H 1.1071 0.401185 0.942473
C15 C 0.9437(4) 0.35633(13) 0.8715(2)
H23 H 0.905356 0.38236 0.834797
C16 C 0.9124(4) 0.31130(13) 0.6678(2)
H24 H 0.997183 0.287319 0.685184
C17 C 0.8986(4) 0.33941(13) 0.6012(2)
H25 H 0.970666 0.338873 0.562997
C18 C 0.7022(5) 0.40383(14) 0.5343(2)
H26 H 0.633709 0.385307 0.491292
H27 H 0.79781 0.418617 0.514898
H28 H 0.636365 0.430882 0.55307
C19 C 0.6907(4) 0.36000(12) 0.66439(19)
C20 C 0.5550(4) 0.31184(12) 0.78843(19)
C21 C 0.4986(5) 0.24829(14) 0.8897(2)
H29 H 0.57498 0.224763 0.869937
H30 H 0.398525 0.23003 0.897933
H31 H 0.552467 0.262917 0.939967
C22 C 0.2985(4) 0.31033(13) 0.8165(2)
H32 H 0.204332 0.301203 0.839268
C23 C 0.3068(4) 0.34709(13) 0.7623(2)
H33 H 0.218305 0.368488 0.739601
C24 C 0.3844(4) 0.39864(13) 0.6148(2)
C25 C 0.3351(4) 0.36217(14) 0.5564(2)
H34 H 0.381913 0.3292 0.562837
C26 C 0.2198(5) 0.37263(15) 0.4893(2)
H35 H 0.192308 0.347415 0.449799
C27 C 0.1445(5) 0.42012(15) 0.4801(2)
H36 H 0.065617 0.427484 0.43434
C28 C 0.1861(5) 0.45637(15) 0.5382(2)
H37 H 0.133415 0.488556 0.533202
C29 C 0.3054(4) 0.44565(14) 0.6041(2)
H38 H 0.333831 0.471191 0.642985
C30 C 0.8019(4) 0.48868(13) 0.7632(2)
C31 C 0.7130(5) 0.53540(14) 0.7222(2)
H39 H 0.614654 0.524454 0.685468
H40 H 0.788306 0.553445 0.692876
H41 H 0.679486 0.557989 0.7621
C32 C 0.8956(5) 0.46349(14) 0.7036(2)
H42 H 0.937707 0.430489 0.724005
H43 H 0.988687 0.48506 0.695149
H44 H 0.820719 0.45877 0.653301
C33 C 0.9339(5) 0.50469(14) 0.8334(2)
H45 H 1.005172 0.47518 0.851037
H46 H 1.004932 0.531238 0.815549
C34 C 0.8602(5) 0.52464(14) 0.9025(2)
H47 H 0.949439 0.533191 0.946883
H48 H 0.794992 0.555658 0.886881
C35 C 0.7500(5) 0.48408(13) 0.9276(2)
H49 H 0.697789 0.497366 0.971567
H50 H 0.819732 0.454808 0.948063
C36 C 0.6124(4) 0.46530(13) 0.8616(2)
C37 C 0.4760(5) 0.50556(14) 0.8433(2)
H51 H 0.526709 0.538774 0.838143
H52 H 0.410836 0.506619 0.886421
H53 H 0.403475 0.496985 0.793717
C38 C 0.5370(5) 0.41890(13) 0.8943(2)
H54 H 0.438177 0.408384 0.857566
H55 H 0.506226 0.42712 0.945721
H56 H 0.61811 0.391255 0.900705
N1 N 0.7771(3) 0.21197(10) 0.70233(16)
N2 N 0.7831(3) 0.32333(10) 0.70605(16)
N3 N 0.7601(3) 0.36889(11) 0.59961(17)
N4 N 0.4648(3) 0.34810(10) 0.74597(16)
N5 N 0.4537(3) 0.28875(10) 0.83207(16)
N6 N 0.6931(3) 0.44949(11) 0.79227(16)
O1 O 0.7332(3) 0.23742(8) 0.77060(13)
O2 O 0.5601(3) 0.43913(9) 0.72663(13)
loop_
_geom_bond_atom_site_label_1
_geom_bond_atom_site_label_2
_geom_bond_site_symmetry_1
_geom_bond_site_symmetry_2
B1 C10 1_555 1_555
B2 C19 1_555 1_555
C1 C2 1_555 1_555
C2 H1 1_555 1_555
H2 C2 1_555 1_555
H3 C2 1_555 1_555
C3 C1 1_555 1_555
H4 C3 1_555 1_555
H5 C3 1_555 1_555
H6 C3 1_555 1_555
C4 C1 1_555 1_555
H7 C4 1_555 1_555
H8 C4 1_555 1_555
C5 C4 1_555 1_555
H9 C5 1_555 1_555
H10 C5 1_555 1_555
C6 C5 1_555 1_555
H11 C6 1_555 1_555
H12 C6 1_555 1_555
C7 C6 1_555 1_555
C8 C7 1_555 1_555
H13 C8 1_555 1_555
H14 C8 1_555 1_555
H15 C8 1_555 1_555
C9 C7 1_555 1_555
H16 C9 1_555 1_555
H17 C9 1_555 1_555
H18 C9 1_555 1_555
C10 C11 1_555 1_555
C11 H19 1_555 1_555
C12 C11 1_555 1_555
H20 C12 1_555 1_555
C13 C12 1_555 1_555
H21 C13 1_555 1_555
C14 C13 1_555 1_555
H22 C14 1_555 1_555
C15 C10 1_555 1_555
H23 C15 1_555 1_555
C16 H24 1_555 1_555
C17 C16 1_555 1_555
H25 C17 1_555 1_555
C18 H26 1_555 1_555
H27 C18 1_555 1_555
H28 C18 1_555 1_555
C19 N2 1_555 1_555
C20 B1 1_555 1_555
C21 H29 1_555 1_555
H30 C21 1_555 1_555
H31 C21 1_555 1_555
C22 H32 1_555 1_555
C23 C22 1_555 1_555
H33 C23 1_555 1_555
C24 B2 1_555 1_555
C25 C24 1_555 1_555
H34 C25 1_555 1_555
C26 C25 1_555 1_555
H35 C26 1_555 1_555
C27 C26 1_555 1_555
H36 C27 1_555 1_555
C28 C27 1_555 1_555
H37 C28 1_555 1_555
C29 C24 1_555 1_555
H38 C29 1_555 1_555
C30 C31 1_555 1_555
C31 H39 1_555 1_555
H40 C31 1_555 1_555
H41 C31 1_555 1_555
C32 C30 1_555 1_555
H42 C32 1_555 1_555
H43 C32 1_555 1_555
H44 C32 1_555 1_555
C33 C30 1_555 1_555
H45 C33 1_555 1_555
H46 C33 1_555 1_555
C34 C33 1_555 1_555
H47 C34 1_555 1_555
H48 C34 1_555 1_555
C35 C34 1_555 1_555
H49 C35 1_555 1_555
H50 C35 1_555 1_555
C36 C35 1_555 1_555
C37 C36 1_555 1_555
H51 C37 1_555 1_555
H52 C37 1_555 1_555
H53 C37 1_555 1_555
C38 C36 1_555 1_555
H54 C38 1_555 1_555
H55 C38 1_555 1_555
H56 C38 1_555 1_555
N1 C1 1_555 1_555
N2 B1 1_555 1_555
N3 C17 1_555 1_555
N4 B2 1_555 1_555
N5 C20 1_555 1_555
N6 C30 1_555 1_555
O1 B1 1_555 1_555
O2 B2 1_555 1_555
C7 N1 1_555 1_555
C14 C15 1_555 1_555
C16 N2 1_555 1_555
C18 N3 1_555 1_555
C19 N3 1_555 1_555
C20 N4 1_555 1_555
C21 N5 1_555 1_555
C22 N5 1_555 1_555
C23 N4 1_555 1_555
C28 C29 1_555 1_555
C36 N6 1_555 1_555
N1 O1 1_555 1_555
N6 O2 1_555 1_555

#END
