
#######################################################################
#
#                 Cambridge Crystallographic Data Centre
#                                CCDC 
#
#######################################################################
#
# If this CIF has been generated from an entry in the Cambridge 
# Structural Database, then it will include bibliographic, chemical, 
# crystal, experimental, refinement or atomic coordinate data resulting 
# from the CCDC's data processing and validation procedures.
#
#######################################################################

data_PIYXIH
_chemical_formula_moiety         'C20 H22 N3 O2 1+,F6 P1 1-'
_chemical_name_systematic        
'1-(1,3-dioxo-2-propyl-2,3-dihydro-1H-benzo[de]isoquinolin-6-yl)-3-ethyl-4,5-dihydro-1H-imidazol-3-ium hexafluorophosphate'
_symmetry_cell_setting           monoclinic
_symmetry_space_group_name_H-M   'P 21/n'
_symmetry_Int_Tables_number      14
_space_group_name_Hall           '-P 2yn'
loop_
_symmetry_equiv_pos_site_id
_symmetry_equiv_pos_as_xyz
1 x,y,z
2 1/2-x,1/2+y,1/2-z
3 -x,-y,-z
4 1/2+x,1/2-y,1/2+z
_cell_length_a                   15.6492(11)
_cell_length_b                   8.2325(6)
_cell_length_c                   16.7492(11)
_cell_angle_alpha                90
_cell_angle_beta                 104.075(7)
_cell_angle_gamma                90
_cell_volume                     2093.05
_exptl_crystal_colour            orange
_exptl_crystal_description       needle
_cell_formula_units_Z            4
_exptl_crystal_recrystallization_method ether/acetone
loop_
_atom_site_label
_atom_site_type_symbol
_atom_site_fract_x
_atom_site_fract_y
_atom_site_fract_z
O1 O 0.5200(2) 0.8998(5) 0.4063(2)
O2 O 0.4369(2) 0.3798(5) 0.3374(2)
N1 N 0.4789(3) 0.6415(5) 0.3714(2)
N2 N 0.0587(3) 0.6826(5) 0.3345(2)
N3 N -0.0846(3) 0.6830(6) 0.2884(3)
C1 C 0.4611(3) 0.8018(7) 0.3901(3)
C2 C 0.4157(3) 0.5186(7) 0.3496(3)
C3 C 0.3225(3) 0.5649(6) 0.3425(3)
C4 C 0.3024(3) 0.7247(7) 0.3655(3)
C5 C 0.3686(3) 0.8410(7) 0.3912(3)
C6 C 0.3493(4) 0.9949(7) 0.4123(3)
H1 H 0.3949 1.0727 0.4294
C7 C 0.2617(4) 1.0366(7) 0.4086(3)
H2 H 0.2483 1.1433 0.4234
C8 C 0.1947(4) 0.9256(7) 0.3839(3)
H3 H 0.1356 0.9568 0.3813
C9 C 0.2129(3) 0.7659(6) 0.3625(3)
C10 C 0.1481(3) 0.6446(7) 0.3359(3)
C11 C 0.1689(3) 0.4943(7) 0.3118(3)
H4 H 0.1235 0.4173 0.2918
C12 C 0.2571(3) 0.4526(7) 0.3162(3)
H5 H 0.2713 0.3466 0.3011
C13 C 0.5702(3) 0.6014(7) 0.3713(3)
H6 H 0.5973 0.6957 0.3502
H7 H 0.5702 0.5092 0.3333
C14 C 0.6257(3) 0.5567(8) 0.4560(3)
H8 H 0.6060 0.4507 0.4730
H9 H 0.6179 0.6396 0.4965
C15 C 0.7225(4) 0.5464(8) 0.4551(3)
H10 H 0.7576 0.5205 0.5104
H11 H 0.7417 0.6508 0.4374
H12 H 0.7305 0.4611 0.4167
C16 C -0.0090(3) 0.6650(6) 0.2705(3)
H13 H -0.0030 0.6414 0.2166
C17 C 0.0264(4) 0.7054(8) 0.4114(3)
H14 H 0.0497 0.8068 0.4404
H15 H 0.0431 0.6123 0.4495
C18 C -0.0725(3) 0.7142(7) 0.3773(3)
H16 H -0.1029 0.6307 0.4029
H17 H -0.0953 0.8227 0.3869
C19 C -0.1718(4) 0.6750(7) 0.2333(4)
H18 H -0.2003 0.7826 0.2321
H19 H -0.2076 0.5958 0.2555
C20 C -0.1721(4) 0.6265(9) 0.1458(4)
H20 H -0.1461 0.5182 0.1460
H21 H -0.1376 0.7051 0.1228
H22 H -0.2329 0.6250 0.1122
P2 P 0.5500(16) 0.6960(16) 0.1451(14)
F7 F 0.5808(8) 0.5950(9) 0.0765(4)
F8 F 0.6367(7) 0.6525(17) 0.2087(7)
F9 F 0.5032(6) 0.5567(11) 0.1725(5)
F10 F 0.4636(7) 0.7515(19) 0.0781(6)
F11 F 0.6043(9) 0.8501(13) 0.1144(7)
F12 F 0.5258(8) 0.8190(11) 0.2108(5)
P1? P 0.5509(18) 0.728(2) 0.1411(16)
F1? F 0.5119(9) 0.5925(11) 0.0710(5)
F2? F 0.6154(8) 0.5824(12) 0.1926(7)
F3? F 0.4753(5) 0.6530(16) 0.1881(5)
F4? F 0.4841(7) 0.8448(14) 0.0956(6)
F5? F 0.6211(7) 0.7750(17) 0.0996(7)
F6? F 0.5818(10) 0.8418(12) 0.2172(6)
loop_
_geom_bond_atom_site_label_1
_geom_bond_atom_site_label_2
_geom_bond_site_symmetry_1
_geom_bond_site_symmetry_2
O1 C1 1_555 1_555
O2 C2 1_555 1_555
N1 C1 1_555 1_555
N2 C10 1_555 1_555
N3 C16 1_555 1_555
C1 C5 1_555 1_555
C2 N1 1_555 1_555
C3 C2 1_555 1_555
C4 C3 1_555 1_555
C5 C4 1_555 1_555
C6 C5 1_555 1_555
H1 C6 1_555 1_555
C7 C6 1_555 1_555
H2 C7 1_555 1_555
C8 C7 1_555 1_555
H3 C8 1_555 1_555
C9 C4 1_555 1_555
C10 C9 1_555 1_555
C11 C10 1_555 1_555
H4 C11 1_555 1_555
C12 C3 1_555 1_555
H5 C12 1_555 1_555
C13 N1 1_555 1_555
H6 C13 1_555 1_555
H7 C13 1_555 1_555
C14 C13 1_555 1_555
H8 C14 1_555 1_555
H9 C14 1_555 1_555
C15 C14 1_555 1_555
H10 C15 1_555 1_555
H11 C15 1_555 1_555
H12 C15 1_555 1_555
C16 N2 1_555 1_555
H13 C16 1_555 1_555
C17 N2 1_555 1_555
H14 C17 1_555 1_555
H15 C17 1_555 1_555
C18 N3 1_555 1_555
H16 C18 1_555 1_555
H17 C18 1_555 1_555
C19 N3 1_555 1_555
H18 C19 1_555 1_555
H19 C19 1_555 1_555
C20 C19 1_555 1_555
H20 C20 1_555 1_555
H21 C20 1_555 1_555
H22 C20 1_555 1_555
P2 F7 1_555 1_555
F8 P2 1_555 1_555
F9 P2 1_555 1_555
F10 P2 1_555 1_555
F11 P2 1_555 1_555
F12 P2 1_555 1_555
C8 C9 1_555 1_555
C11 C12 1_555 1_555
C17 C18 1_555 1_555

#END
