
#######################################################################
#
#                 Cambridge Crystallographic Data Centre
#                                CCDC 
#
#######################################################################
#
# If this CIF has been generated from an entry in the Cambridge 
# Structural Database, then it will include bibliographic, chemical, 
# crystal, experimental, refinement or atomic coordinate data resulting 
# from the CCDC's data processing and validation procedures.
#
#######################################################################

data_PIYXUR
_chemical_formula_moiety         'C20 H19 F2 N1 O1'
_chemical_name_systematic        
2,4-bis(4-fluorophenyl)-3-azabicyclo(3.3.1)nonan-9-one
_symmetry_cell_setting           orthorhombic
_symmetry_space_group_name_H-M   'P n m a'
_symmetry_Int_Tables_number      62
_space_group_name_Hall           '-P 2ac 2n'
loop_
_symmetry_equiv_pos_site_id
_symmetry_equiv_pos_as_xyz
1 x,y,z
2 1/2-x,-y,1/2+z
3 -x,1/2+y,-z
4 1/2+x,1/2-y,1/2-z
5 -x,-y,-z
6 1/2+x,y,1/2-z
7 x,1/2-y,z
8 1/2-x,1/2+y,1/2+z
_cell_length_a                   7.6153(3)
_cell_length_b                   21.1392(9)
_cell_length_c                   10.0878(4)
_cell_angle_alpha                90
_cell_angle_beta                 90
_cell_angle_gamma                90
_cell_volume                     1623.95
_exptl_crystal_colour            colorless
_exptl_crystal_description       Block
_cell_formula_units_Z            4
_exptl_crystal_recrystallization_method ethanol
loop_
_atom_site_label
_atom_site_type_symbol
_atom_site_fract_x
_atom_site_fract_y
_atom_site_fract_z
C1 C 0.92315(17) 0.30735(5) 0.39201(12)
H1 H 0.8839 0.3055 0.2996
C2 C 0.75726(16) 0.30901(5) 0.48153(14)
H2 H 0.6864 0.3460 0.4576
C3 C 0.79266(19) 0.31054(6) 0.63140(13)
H3 H 0.8701 0.3458 0.6508
H4 H 0.6827 0.3181 0.6773
C4 C 0.8751(3) 0.2500 0.68562(18)
H5 H 0.9993 0.2500 0.6644
H6 H 0.8642 0.2500 0.7814
C5 C 0.6527(2) 0.2500 0.45348(18)
C6 C 1.03437(17) 0.36590(5) 0.40791(12)
C7 C 0.9916(2) 0.41937(6) 0.33533(16)
H7 H 0.8976 0.4179 0.2766
C8 C 1.0856(2) 0.47481(7) 0.34848(19)
H8 H 1.0550 0.5107 0.3003
C9 C 1.2238(2) 0.47573(7) 0.4334(2)
C10 C 1.2733(2) 0.42414(8) 0.50616(19)
H9 H 1.3688 0.4261 0.5634
C11 C 1.1771(2) 0.36882(7) 0.49220(15)
H10 H 1.2091 0.3331 0.5404
F1 F 1.31755(17) 0.53023(5) 0.44594(17)
H11 H 1.121(3) 0.2500 0.369(2)
N1 N 1.0241(2) 0.2500 0.41923(15)
O1 O 0.50237(19) 0.2500 0.41536(17)
C1F C 0.92315(17) 0.19265(5) 0.39201(12)
H1F H 0.8839 0.1945 0.2996
C2F C 0.75726(16) 0.19099(5) 0.48153(14)
H2F H 0.6864 0.1540 0.4576
C3F C 0.79266(19) 0.18946(6) 0.63140(13)
H3F H 0.8701 0.1542 0.6508
H4F H 0.6827 0.1819 0.6773
C6F C 1.03437(17) 0.13410(5) 0.40791(12)
C7F C 0.9916(2) 0.08063(6) 0.33533(16)
H7F H 0.8976 0.0821 0.2766
C8F C 1.0856(2) 0.02519(7) 0.34848(19)
H8F H 1.0550 -0.0107 0.3003
C9F C 1.2238(2) 0.02427(7) 0.4334(2)
C10F C 1.2733(2) 0.07586(8) 0.50616(19)
H9F H 1.3688 0.0739 0.5634
C11F C 1.1771(2) 0.13118(7) 0.49220(15)
H10F H 1.2091 0.1669 0.5404
F1F F 1.31755(17) -0.03023(5) 0.44594(17)
loop_
_geom_bond_atom_site_label_1
_geom_bond_atom_site_label_2
_geom_bond_site_symmetry_1
_geom_bond_site_symmetry_2
C1 H1 1_555 1_555
C2 C1 1_555 1_555
H2 C2 1_555 1_555
C3 C2 1_555 1_555
H3 C3 1_555 1_555
H4 C3 1_555 1_555
C4 C3 1_555 1_555
H5 C4 1_555 1_555
H6 C4 1_555 1_555
C5 C2 1_555 1_555
C6 C1 1_555 1_555
C7 C6 1_555 1_555
H7 C7 1_555 1_555
C8 C7 1_555 1_555
H8 C8 1_555 1_555
C9 C8 1_555 1_555
C10 C9 1_555 1_555
H9 C10 1_555 1_555
C11 C6 1_555 1_555
H10 C11 1_555 1_555
F1 C9 1_555 1_555
H11 N1 1_555 1_555
N1 C1 1_555 1_555
O1 C5 1_555 1_555
C1F N1 1_555 1_555
H1F C1F 1_555 1_555
C2F C5 1_555 1_555
H2F C2F 1_555 1_555
C3F C4 1_555 1_555
H3F C3F 1_555 1_555
H4F C3F 1_555 1_555
C6F C1F 1_555 1_555
C7F C6F 1_555 1_555
H7F C7F 1_555 1_555
C8F C7F 1_555 1_555
H8F C8F 1_555 1_555
C9F C8F 1_555 1_555
C10F C9F 1_555 1_555
H9F C10F 1_555 1_555
C11F C6F 1_555 1_555
H10F C11F 1_555 1_555
F1F C9F 1_555 1_555
C10 C11 1_555 1_555
C1F C2F 1_555 1_555
C2F C3F 1_555 1_555
C10F C11F 1_555 1_555

#END
