
#######################################################################
#
#                 Cambridge Crystallographic Data Centre
#                                CCDC 
#
#######################################################################
#
# If this CIF has been generated from an entry in the Cambridge 
# Structural Database, then it will include bibliographic, chemical, 
# crystal, experimental, refinement or atomic coordinate data resulting 
# from the CCDC's data processing and validation procedures.
#
#######################################################################

data_PIYYIG
_chemical_name_common            3beta-acetoxy-8-epi-sclareolide
_chemical_formula_moiety         'C18 H28 O4'
_chemical_name_systematic        
'(3aS,7S,9aS,9bR)-3a,6,6,9a-tetramethyl-2-oxoperhydronaphtho(2,1-b)furan-7-yl acetate'
_symmetry_cell_setting           monoclinic
_symmetry_space_group_name_H-M   'P 21'
_symmetry_Int_Tables_number      4
_space_group_name_Hall           'P 2yb'
loop_
_symmetry_equiv_pos_site_id
_symmetry_equiv_pos_as_xyz
1 x,y,z
2 -x,1/2+y,-z
_cell_length_a                   10.1935(5)
_cell_length_b                   7.3226(3)
_cell_length_c                   11.3056(4)
_cell_angle_alpha                90
_cell_angle_beta                 99.29400(10)
_cell_angle_gamma                90
_cell_volume                     832.805
_exptl_crystal_colour            colorless
_exptl_crystal_description       block
_cell_formula_units_Z            2
loop_
_atom_site_label
_atom_site_type_symbol
_atom_site_fract_x
_atom_site_fract_y
_atom_site_fract_z
O1 O 0.15453(13) 0.2174(2) 0.55280(13)
O2 O 0.10361(18) 0.3434(4) 0.37252(14)
O3 O 0.78754(11) 0.58869(17) 0.86839(11)
O4 O 0.77677(15) 0.8581(2) 0.96045(15)
C1 C 0.44238(16) 0.6709(2) 0.70097(15)
H1 H 0.4104 0.7464 0.6295
H2 H 0.4025 0.7199 0.7687
C2 C 0.59341(16) 0.6859(2) 0.73086(15)
H3 H 0.6341 0.6395 0.6630
H4 H 0.6194 0.8154 0.7443
C3 C 0.64282(15) 0.5757(2) 0.84229(14)
H5 H 0.6051 0.6290 0.9110
C4 C 0.60784(14) 0.3708(2) 0.83267(13)
C5 C 0.45489(14) 0.3533(2) 0.78539(13)
H6 H 0.4102 0.3959 0.8529
C6 C 0.40994(16) 0.1550(2) 0.76243(16)
H7 H 0.4350 0.1121 0.6861
H8 H 0.4551 0.0762 0.8277
C7 C 0.25934(17) 0.1404(3) 0.75616(17)
H9 H 0.2310 0.0175 0.7257
H10 H 0.2388 0.1502 0.8386
C8 C 0.17711(15) 0.2812(3) 0.67859(15)
C9 C 0.24142(15) 0.4709(3) 0.66974(15)
H11 H 0.2175 0.5507 0.7348
C10 C 0.39595(14) 0.4729(2) 0.67643(13)
C11 C 0.1657(2) 0.5373(3) 0.54912(19)
H12 H 0.0824 0.6003 0.5595
H13 H 0.2210 0.6213 0.5093
C12 C 0.13711(18) 0.3637(4) 0.47870(18)
C13 C 0.43749(17) 0.4084(3) 0.55821(14)
H14 H 0.5347 0.4090 0.5663
H15 H 0.4000 0.4909 0.4932
H16 H 0.4043 0.2844 0.5399
C14 C 0.03976(18) 0.2954(4) 0.7163(2)
H17 H -0.0028 0.1750 0.7102
H18 H -0.0153 0.3816 0.6635
H19 H 0.0494 0.3388 0.7993
C15 C 0.84029(17) 0.7424(3) 0.92062(16)
C16 C 0.98747(19) 0.7482(3) 0.9221(2)
H20 H 1.0279 0.8355 0.9830
H21 H 1.0056 0.7864 0.8432
H22 H 1.0252 0.6266 0.9411
C17 C 0.69680(16) 0.2695(3) 0.75667(16)
H23 H 0.6594 0.1485 0.7353
H24 H 0.7863 0.2562 0.8028
H25 H 0.7014 0.3393 0.6835
C18 C 0.63524(17) 0.2918(3) 0.96055(16)
H26 H 0.7252 0.3255 0.9987
H27 H 0.6274 0.1585 0.9569
H28 H 0.5705 0.3412 1.0074
loop_
_geom_bond_atom_site_label_1
_geom_bond_atom_site_label_2
_geom_bond_site_symmetry_1
_geom_bond_site_symmetry_2
O1 C8 1_555 1_555
O2 C12 1_555 1_555
O3 C3 1_555 1_555
O4 C15 1_555 1_555
C1 H1 1_555 1_555
H2 C1 1_555 1_555
C2 C1 1_555 1_555
H3 C2 1_555 1_555
H4 C2 1_555 1_555
C3 C2 1_555 1_555
H5 C3 1_555 1_555
C4 C3 1_555 1_555
C5 C4 1_555 1_555
H6 C5 1_555 1_555
C6 C5 1_555 1_555
H7 C6 1_555 1_555
H8 C6 1_555 1_555
C7 C6 1_555 1_555
H9 C7 1_555 1_555
H10 C7 1_555 1_555
C8 C7 1_555 1_555
C9 C8 1_555 1_555
H11 C9 1_555 1_555
C10 C1 1_555 1_555
C11 C9 1_555 1_555
H12 C11 1_555 1_555
H13 C11 1_555 1_555
C12 O1 1_555 1_555
C13 C10 1_555 1_555
H14 C13 1_555 1_555
H15 C13 1_555 1_555
H16 C13 1_555 1_555
C14 C8 1_555 1_555
H17 C14 1_555 1_555
H18 C14 1_555 1_555
H19 C14 1_555 1_555
C15 O3 1_555 1_555
C16 C15 1_555 1_555
H20 C16 1_555 1_555
H21 C16 1_555 1_555
H22 C16 1_555 1_555
C17 C4 1_555 1_555
H23 C17 1_555 1_555
H24 C17 1_555 1_555
H25 C17 1_555 1_555
C18 C4 1_555 1_555
H26 C18 1_555 1_555
H27 C18 1_555 1_555
H28 C18 1_555 1_555
C5 C10 1_555 1_555
C9 C10 1_555 1_555
C11 C12 1_555 1_555

#END
