
#######################################################################
#
#                 Cambridge Crystallographic Data Centre
#                                CCDC 
#
#######################################################################
#
# If this CIF has been generated from an entry in the Cambridge 
# Structural Database, then it will include bibliographic, chemical, 
# crystal, experimental, refinement or atomic coordinate data resulting 
# from the CCDC's data processing and validation procedures.
#
#######################################################################

data_PIYZON
_chemical_formula_moiety         'C24 H24 O8'
_chemical_name_systematic        
3-Hydroxy-8-methoxy-5-methyl-2,10,24,25-tetraoxaheptacyclo(11.8.2.2^3,7^.1^4,18^.0^1,18^.0^7,26^.0^16,22^)hexacosa-4,13,15,22-tetraene-6,9-dione
_symmetry_cell_setting           triclinic
_symmetry_space_group_name_H-M   'P -1'
_symmetry_Int_Tables_number      2
_space_group_name_Hall           '-P 1'
loop_
_symmetry_equiv_pos_site_id
_symmetry_equiv_pos_as_xyz
1 x,y,z
2 -x,-y,-z
_cell_length_a                   8.0348(16)
_cell_length_b                   8.7388(17)
_cell_length_c                   14.579(3)
_cell_angle_alpha                87.51(3)
_cell_angle_beta                 77.91(3)
_cell_angle_gamma                89.79(3)
_cell_volume                     999.992
_exptl_crystal_colour            colorless
_exptl_crystal_description       parallelepiped
_chemical_melting_point          218-219deg.C
_cell_formula_units_Z            2
loop_
_atom_site_label
_atom_site_type_symbol
_atom_site_fract_x
_atom_site_fract_y
_atom_site_fract_z
O1 O 0.4960(3) 0.6017(3) 0.39953(15)
O2 O 0.1456(3) 0.5897(2) 0.40828(15)
O3 O 0.1882(3) 0.4426(3) 0.11004(15)
O4 O 0.2103(4) 0.2332(3) 0.02794(19)
O5 O -0.0010(3) 0.1959(3) 0.23403(17)
O6 O 0.2358(3) 0.1958(2) 0.35115(16)
O7 O 0.2487(3) 0.3952(3) 0.48896(15)
H1 H 0.1584 0.4134 0.5248
O8 O 0.5137(3) 0.2786(3) 0.15304(18)
C1 C 0.4971(5) 0.8720(4) 0.1634(2)
H2 H 0.6012 0.9226 0.1449
C2 C 0.4087(5) 0.8293(4) 0.0977(2)
H3 H 0.4550 0.8504 0.0345
C3 C 0.2552(4) 0.7570(4) 0.1224(2)
C4 C 0.1854(4) 0.7266(4) 0.2164(2)
H4 H 0.0798 0.6785 0.2348
C5 C 0.2734(4) 0.7678(4) 0.2816(2)
C6 C 0.4299(4) 0.8390(4) 0.2570(2)
C7 C 0.5000(4) 0.8608(4) 0.3432(2)
H5 H 0.4789 0.9638 0.3652
H6 H 0.6213 0.8413 0.3314
C8 C 0.4020(4) 0.7428(4) 0.4134(2)
C9 C 0.2293(4) 0.7344(4) 0.3859(2)
C10 C 0.1250(4) 0.8526(4) 0.4439(2)
H7 H 0.0124 0.8121 0.4712
H8 H 0.1127 0.9430 0.4049
C11 C 0.2168(5) 0.8939(4) 0.5215(3)
H9 H 0.2579 0.9988 0.5122
H10 H 0.1408 0.8824 0.5827
C12 C 0.3641(5) 0.7832(4) 0.5145(2)
H11 H 0.4618 0.8315 0.5309
H12 H 0.3321 0.6930 0.5554
C13 C 0.1693(5) 0.6963(5) 0.0500(3)
H13 H 0.0470 0.6986 0.0732
H14 H 0.1959 0.7628 -0.0062
C14 C 0.2199(5) 0.5387(5) 0.0251(2)
H15 H 0.1547 0.5021 -0.0186
H16 H 0.3397 0.5363 -0.0047
C15 C 0.1961(4) 0.2925(5) 0.1008(3)
C16 C 0.1738(4) 0.2072(4) 0.1939(2)
H17 H 0.2192 0.1037 0.1838
C17 C 0.2586(4) 0.2804(4) 0.2625(2)
C18 C 0.1668(4) 0.3448(4) 0.3498(2)
H18 H 0.0428 0.3506 0.3578
C19 C 0.2467(4) 0.4590(4) 0.3995(2)
C20 C 0.4252(4) 0.4970(4) 0.3535(2)
C21 C 0.5183(4) 0.4333(4) 0.2783(2)
C22 C 0.4384(4) 0.3283(4) 0.2269(2)
C23 C 0.6985(4) 0.4795(4) 0.2395(3)
H19 H 0.7023 0.5570 0.1904
H20 H 0.7622 0.3920 0.2146
H21 H 0.7470 0.5192 0.2885
C24 C -0.0867(5) 0.0779(4) 0.2000(3)
H22 H -0.0658 0.0875 0.1327
H23 H -0.2067 0.0850 0.2252
H24 H -0.0460 -0.0195 0.2188
loop_
_geom_bond_atom_site_label_1
_geom_bond_atom_site_label_2
_geom_bond_site_symmetry_1
_geom_bond_site_symmetry_2
O1 C8 1_555 1_555
O2 C9 1_555 1_555
O3 C14 1_555 1_555
O4 C15 1_555 1_555
O5 C16 1_555 1_555
O6 C17 1_555 1_555
O7 H1 1_555 1_555
O8 C22 1_555 1_555
C1 H2 1_555 1_555
C2 C1 1_555 1_555
H3 C2 1_555 1_555
C3 C2 1_555 1_555
C4 C3 1_555 1_555
H4 C4 1_555 1_555
C5 C4 1_555 1_555
C6 C1 1_555 1_555
C7 C6 1_555 1_555
H5 C7 1_555 1_555
H6 C7 1_555 1_555
C8 C7 1_555 1_555
C9 C5 1_555 1_555
C10 C9 1_555 1_555
H7 C10 1_555 1_555
H8 C10 1_555 1_555
C11 C10 1_555 1_555
H9 C11 1_555 1_555
H10 C11 1_555 1_555
C12 C8 1_555 1_555
H11 C12 1_555 1_555
H12 C12 1_555 1_555
C13 C3 1_555 1_555
H13 C13 1_555 1_555
H14 C13 1_555 1_555
C14 C13 1_555 1_555
H15 C14 1_555 1_555
H16 C14 1_555 1_555
C15 O3 1_555 1_555
C16 C15 1_555 1_555
H17 C16 1_555 1_555
C17 C16 1_555 1_555
C18 O6 1_555 1_555
H18 C18 1_555 1_555
C19 O2 1_555 1_555
C20 O1 1_555 1_555
C21 C20 1_555 1_555
C22 C17 1_555 1_555
C23 C21 1_555 1_555
H19 C23 1_555 1_555
H20 C23 1_555 1_555
H21 C23 1_555 1_555
C24 O5 1_555 1_555
H22 C24 1_555 1_555
H23 C24 1_555 1_555
H24 C24 1_555 1_555
O7 C19 1_555 1_555
C5 C6 1_555 1_555
C8 C9 1_555 1_555
C11 C12 1_555 1_555
C17 C18 1_555 1_555
C18 C19 1_555 1_555
C19 C20 1_555 1_555
C21 C22 1_555 1_555

#END
