
#######################################################################
#
#                 Cambridge Crystallographic Data Centre
#                                CCDC 
#
#######################################################################
#
# If this CIF has been generated from an entry in the Cambridge 
# Structural Database, then it will include bibliographic, chemical, 
# crystal, experimental, refinement or atomic coordinate data resulting 
# from the CCDC's data processing and validation procedures.
#
#######################################################################

data_PIYZEE
_chemical_formula_moiety         'C16 H13 Br2 Cl1 O2'
_chemical_name_systematic        
2,3-dibromo-3-(4-chlorophenyl)-1-(4-methoxyphenyl)propan-1-one
_symmetry_cell_setting           monoclinic
_symmetry_space_group_name_H-M   'P 21'
_symmetry_Int_Tables_number      4
_space_group_name_Hall           'P 2yb'
loop_
_symmetry_equiv_pos_site_id
_symmetry_equiv_pos_as_xyz
1 x,y,z
2 -x,1/2+y,-z
_cell_length_a                   5.645(4)
_cell_length_b                   7.855(6)
_cell_length_c                   18.421(14)
_cell_angle_alpha                90
_cell_angle_beta                 95.363(9)
_cell_angle_gamma                90
_cell_volume                     813.239
_exptl_crystal_colour            colorless
_exptl_crystal_description       block
_cell_formula_units_Z            2
loop_
_atom_site_label
_atom_site_type_symbol
_atom_site_fract_x
_atom_site_fract_y
_atom_site_fract_z
Br1 Br 0.0373(3) 0.40689(17) 0.21944(10)
Br2 Br 0.1918(3) -0.1671(2) 0.21788(9)
C1 C 0.016(2) 0.1786(19) 0.0479(7)
H1 H 0.1585 0.2366 0.0448
C2 C -0.133(2) 0.1466(17) -0.0148(7)
H2 H -0.0921 0.1844 -0.0598
C3 C -0.348(2) 0.0566(18) -0.0102(8)
C4 C -0.402(2) 0.0059(19) 0.0565(9)
H3 H -0.5441 -0.0528 0.0599
C5 C -0.257(2) 0.037(2) 0.1202(8)
H4 H -0.3002 0.0000 0.1650
C6 C -0.047(3) 0.124(2) 0.1158(8)
C7 C 0.129(3) 0.155(3) 0.1813(11)
H5 H 0.2923 0.1537 0.1673
C8 C 0.118(3) 0.081(2) 0.2495(8)
H6 H -0.0404 0.0912 0.2668
C9 C 0.312(3) 0.131(2) 0.3066(8)
C10 C 0.285(2) 0.1115(17) 0.3834(8)
C11 C 0.080(2) 0.035(2) 0.4103(9)
H7 H -0.0426 -0.0077 0.3780
C12 C 0.066(2) 0.024(2) 0.4845(8)
H8 H -0.0648 -0.0291 0.5014
C13 C 0.238(3) 0.0894(17) 0.5347(8)
C14 C 0.439(2) 0.167(2) 0.5084(8)
H9 H 0.5605 0.2103 0.5408
C15 C 0.453(2) 0.1770(19) 0.4355(8)
H10 H 0.5851 0.2315 0.4194
Cl1 Cl -0.5357(7) 0.0197(6) -0.0857(2)
C16 C 0.381(4) 0.123(3) 0.6576(8)
H11 H 0.5257 0.0642 0.6510
H12 H 0.3320 0.0978 0.7050
H13 H 0.4059 0.2438 0.6536
O1 O 0.5121(16) 0.1585(17) 0.2862(6)
O2 O 0.204(2) 0.0721(15) 0.6044(5)
loop_
_geom_bond_atom_site_label_1
_geom_bond_atom_site_label_2
_geom_bond_site_symmetry_1
_geom_bond_site_symmetry_2
Br1 C7 1_555 1_555
Br2 C8 1_555 1_555
C1 H1 1_555 1_555
C2 C1 1_555 1_555
H2 C2 1_555 1_555
C3 C2 1_555 1_555
C4 C3 1_555 1_555
H3 C4 1_555 1_555
C5 C4 1_555 1_555
H4 C5 1_555 1_555
C6 C1 1_555 1_555
C7 C6 1_555 1_555
H5 C7 1_555 1_555
C8 C7 1_555 1_555
H6 C8 1_555 1_555
C9 C8 1_555 1_555
C10 C9 1_555 1_555
C11 C10 1_555 1_555
H7 C11 1_555 1_555
C12 C11 1_555 1_555
H8 C12 1_555 1_555
C13 C12 1_555 1_555
C14 C13 1_555 1_555
H9 C14 1_555 1_555
C15 C10 1_555 1_555
H10 C15 1_555 1_555
Cl1 C3 1_555 1_555
C16 H11 1_555 1_555
H12 C16 1_555 1_555
H13 C16 1_555 1_555
O1 C9 1_555 1_555
O2 C13 1_555 1_555
C5 C6 1_555 1_555
C14 C15 1_555 1_555
C16 O2 1_555 1_555

#END
