
#######################################################################
#
#                 Cambridge Crystallographic Data Centre
#                                CCDC 
#
#######################################################################
#
# If this CIF has been generated from an entry in the Cambridge 
# Structural Database, then it will include bibliographic, chemical, 
# crystal, experimental, refinement or atomic coordinate data resulting 
# from the CCDC's data processing and validation procedures.
#
#######################################################################

data_PIYZII
_chemical_formula_moiety         'C17 H17 Br1 O2'
_chemical_name_systematic        
2-bromo-3-hydroxy-1,3-bis(4-methylphenyl)propan-1-one
_symmetry_cell_setting           monoclinic
_symmetry_space_group_name_H-M   'P 21/c'
_symmetry_Int_Tables_number      14
_space_group_name_Hall           '-P 2ybc'
loop_
_symmetry_equiv_pos_site_id
_symmetry_equiv_pos_as_xyz
1 x,y,z
2 -x,1/2+y,1/2-z
3 -x,-y,-z
4 x,1/2-y,1/2+z
_cell_length_a                   16.29(3)
_cell_length_b                   27.32(4)
_cell_length_c                   10.771(18)
_cell_angle_alpha                90
_cell_angle_beta                 105.225(19)
_cell_angle_gamma                90
_cell_volume                     4625.31
_cell_formula_units_Z            12
loop_
_atom_site_label
_atom_site_type_symbol
_atom_site_fract_x
_atom_site_fract_y
_atom_site_fract_z
Br1 Br 0.48897(6) 0.04695(4) 0.88182(10)
C1 C 0.5757(6) 0.0513(4) 0.6941(9)
O1 O 0.5728(4) 0.0128(3) 0.6386(7)
C2 C 0.7328(7) 0.0543(4) 0.7481(10)
C3 C 0.6577(7) 0.1261(4) 0.7957(11)
C4 C 0.6563(6) 0.0784(4) 0.7483(9)
C5 C 0.8138(7) 0.1240(4) 0.8512(10)
C6 C 0.7379(7) 0.1499(4) 0.8504(11)
C7 C 0.8101(6) 0.0773(5) 0.8016(11)
O2 O 0.4238(3) 0.0740(2) 0.4918(6)
C8 C 0.2455(7) 0.1443(4) 0.6643(9)
C9 C 0.3317(5) 0.0757(4) 0.6374(8)
C10 C 0.2700(7) 0.0420(3) 0.6499(8)
C11 C 0.1933(7) 0.0610(5) 0.6703(10)
C12 C 0.4122(5) 0.0546(3) 0.6120(9)
C13 C 0.3213(6) 0.1260(4) 0.6433(9)
C14 C 0.1800(6) 0.1106(5) 0.6766(9)
C15 C 0.4935(5) 0.0728(3) 0.7172(8)
C16 C 0.9005(6) 0.1508(4) 0.9094(11)
C17 C 0.0974(6) 0.1304(4) 0.7022(11)
Br2 Br 0.45948(6) 0.31328(4) 0.41528(11)
C18 C 0.5093(5) 0.2478(3) 0.4520(9)
O3 O 0.4896(3) 0.1677(2) 0.5005(6)
C19 C 0.2183(7) 0.2024(3) 0.1512(12)
C20 C 0.6696(5) 0.2487(3) 0.5846(9)
C21 C 0.2845(6) 0.2165(3) 0.3826(10)
C22 C 0.4429(5) 0.2123(3) 0.4781(9)
C23 C 0.3648(5) 0.2081(3) 0.3602(10)
O4 O 0.5608(4) 0.2657(3) 0.6809(7)
C24 C 0.5791(6) 0.2552(3) 0.5821(11)
C25 C 0.2119(6) 0.2135(3) 0.2721(12)
C26 C 0.3733(6) 0.1992(3) 0.2363(10)
C27 C 0.2993(6) 0.1952(3) 0.1319(10)
C28 C 0.8165(6) 0.2686(4) 0.6817(11)
C29 C 0.7810(8) 0.2097(4) 0.5120(12)
C30 C 0.6917(6) 0.2169(4) 0.5007(11)
C31 C 0.7301(6) 0.2753(4) 0.6761(11)
C32 C 0.1391(5) 0.1988(4) 0.0383(10)
C33 C 0.8415(7) 0.2357(4) 0.5997(12)
C34 C 0.9389(5) 0.2287(4) 0.6129(11)
Br3 Br 1.00891(7) 0.14535(4) 0.31050(14)
O5 O 1.0122(4) -0.0042(2) 0.2877(6)
C35 C 1.1498(7) 0.0469(4) 0.0288(10)
C36 C 1.1108(6) 0.0534(3) 0.2320(11)
C37 C 1.0518(6) 0.0428(4) 0.3186(10)
C38 C 1.2513(6) 0.0773(4) 0.2195(11)
C39 C 1.1939(6) 0.0722(3) 0.2932(10)
C40 C 1.2323(7) 0.0651(4) 0.0902(12)
C41 C 0.7788(7) 0.0837(4) 0.2046(11)
O6 O 0.9530(4) 0.0561(3) 0.4862(8)
C42 C 0.6460(7) 0.0934(3) 0.2728(13)
C43 C 0.9178(8) 0.0692(4) 0.3758(12)
C44 C 0.8239(7) 0.0800(3) 0.3328(12)
C45 C 0.6955(8) 0.0900(4) 0.4024(12)
C46 C 0.5492(6) 0.1003(4) 0.2379(11)
C47 C 0.6895(7) 0.0898(4) 0.1743(10)
C48 C 0.7849(7) 0.0819(4) 0.4336(11)
C49 C 0.9726(6) 0.0762(3) 0.2811(10)
C50 C 1.0888(6) 0.0416(4) 0.1020(11)
C51 C 1.2990(7) 0.0675(4) 0.0145(11)
loop_
_geom_bond_atom_site_label_1
_geom_bond_atom_site_label_2
_geom_bond_site_symmetry_1
_geom_bond_site_symmetry_2
Br1 C15 1_555 1_555
C1 O1 1_555 1_555
C2 C4 1_555 1_555
C3 C4 1_555 1_555
C4 C1 1_555 1_555
C5 C6 1_555 1_555
C6 C3 1_555 1_555
C7 C2 1_555 1_555
O2 C12 1_555 1_555
C8 C13 1_555 1_555
C9 C10 1_555 1_555
C10 C11 1_555 1_555
C11 C14 1_555 1_555
C12 C9 1_555 1_555
C13 C9 1_555 1_555
C14 C8 1_555 1_555
C15 C1 1_555 1_555
C16 C5 1_555 1_555
C17 C14 1_555 1_555
Br2 C18 1_555 1_555
C18 C22 1_555 1_555
O3 C22 1_555 1_555
C19 C25 1_555 1_555
C20 C24 1_555 1_555
C21 C23 1_555 1_555
C22 C23 1_555 1_555
C23 C26 1_555 1_555
O4 C24 1_555 1_555
C24 C18 1_555 1_555
C25 C21 1_555 1_555
C26 C27 1_555 1_555
C27 C19 1_555 1_555
C28 C31 1_555 1_555
C29 C30 1_555 1_555
C30 C20 1_555 1_555
C31 C20 1_555 1_555
C32 C19 1_555 1_555
C33 C28 1_555 1_555
C34 C33 1_555 1_555
Br3 C49 1_555 1_555
O5 C37 1_555 1_555
C35 C40 1_555 1_555
C36 C37 1_555 1_555
C37 C49 1_555 1_555
C38 C39 1_555 1_555
C39 C36 1_555 1_555
C40 C38 1_555 1_555
C41 C44 1_555 1_555
O6 C43 1_555 1_555
C42 C45 1_555 1_555
C43 C44 1_555 1_555
C44 C48 1_555 1_555
C45 C48 1_555 1_555
C46 C42 1_555 1_555
C47 C41 1_555 1_555
C49 C43 1_555 1_555
C50 C35 1_555 1_555
C51 C40 1_555 1_555
C5 C7 1_555 1_555
C12 C15 1_555 1_555
C29 C33 1_555 1_555
C36 C50 1_555 1_555
C42 C47 1_555 1_555

#END
