
#######################################################################
#
#                 Cambridge Crystallographic Data Centre
#                                CCDC 
#
#######################################################################
#
# If this CIF has been generated from an entry in the Cambridge 
# Structural Database, then it will include bibliographic, chemical, 
# crystal, experimental, refinement or atomic coordinate data resulting 
# from the CCDC's data processing and validation procedures.
#
#######################################################################

data_PIZCEI
_chemical_formula_moiety         'C20 H22 N2 O8'
_chemical_name_systematic        
1,1'-but-2-ene-1,4-diylbis(2,3-dimethoxy-6-nitrobenzene)
_symmetry_cell_setting           monoclinic
_symmetry_space_group_name_H-M   'P 21/c'
_symmetry_Int_Tables_number      14
_space_group_name_Hall           '-P 2ybc'
loop_
_symmetry_equiv_pos_site_id
_symmetry_equiv_pos_as_xyz
1 x,y,z
2 -x,1/2+y,1/2-z
3 -x,-y,-z
4 x,1/2-y,1/2+z
_cell_length_a                   4.2724(7)
_cell_length_b                   10.1264(17)
_cell_length_c                   23.916(4)
_cell_angle_alpha                90
_cell_angle_beta                 92.338(3)
_cell_angle_gamma                90
_cell_volume                     1033.84
_exptl_crystal_colour            'pale red'
_exptl_crystal_description       Tabular
_cell_formula_units_Z            2
loop_
_atom_site_label
_atom_site_type_symbol
_atom_site_fract_x
_atom_site_fract_y
_atom_site_fract_z
O1 O 0.2138(4) 0.01003(15) 0.10698(6)
O2 O 0.5358(3) 0.17686(13) 0.04507(5)
C1 C 0.0539(7) -0.0842(3) 0.14034(13)
H1 H 0.1634 -0.0936 0.1760
H2 H 0.0470 -0.1680 0.1215
H3 H -0.1557 -0.0542 0.1458
C2 C 0.2463(5) 0.1356(2) 0.12687(9)
C3 C 0.4121(4) 0.22276(19) 0.09345(7)
C4 C 0.4730(4) 0.35273(19) 0.10969(7)
C5 C 0.6690(4) 0.43765(19) 0.07220(8)
H4 H 0.7806 0.5028 0.0951
H5 H 0.8236 0.3822 0.0551
C6 C 0.3106(5) 0.1572(2) -0.00088(9)
H6 H 0.1444 0.1013 0.0110
H7 H 0.4118 0.1162 -0.0315
H8 H 0.2258 0.2409 -0.0127
C7 C 0.3521(5) 0.3917(2) 0.16056(8)
C8 C 0.1866(6) 0.3073(3) 0.19354(9)
H9 H 0.1125 0.3368 0.2274
C9 C 0.1310(5) 0.1792(3) 0.17647(10)
H10 H 0.0162 0.1226 0.1984
C10 C 0.4810(4) 0.50765(17) 0.02685(7)
H11 H 0.3267 0.5660 0.0376
N1 N 0.3893(10) 0.5234(7) 0.1812(3)
O3 O 0.4085(16) 0.6143(4) 0.14803(17)
O4 O 0.3977(11) 0.5392(5) 0.23266(14)
O1B O 0.7862(4) 0.98997(15) -0.10698(6)
O2B O 0.4642(3) 0.82314(13) -0.04507(5)
C1B C 0.9461(7) 1.0842(3) -0.14034(13)
H1B H 0.8366 1.0936 -0.1760
H2B H 0.9530 1.1680 -0.1215
H3B H 1.1557 1.0542 -0.1458
C2B C 0.7537(5) 0.8644(2) -0.12687(9)
C3B C 0.5879(4) 0.77724(19) -0.09345(7)
C4B C 0.5270(4) 0.64727(19) -0.10969(7)
C5B C 0.3310(4) 0.56235(19) -0.07220(8)
H4B H 0.2194 0.4972 -0.0951
H5B H 0.1764 0.6178 -0.0551
C6B C 0.6894(5) 0.8428(2) 0.00088(9)
H6B H 0.8556 0.8987 -0.0110
H7B H 0.5882 0.8838 0.0315
H8B H 0.7742 0.7591 0.0127
C7B C 0.6479(5) 0.6083(2) -0.16056(8)
C8B C 0.8134(6) 0.6927(3) -0.19354(9)
H9B H 0.8875 0.6632 -0.2274
C9B C 0.8690(5) 0.8208(3) -0.17647(10)
H10B H 0.9838 0.8774 -0.1984
C10B C 0.5190(4) 0.49235(17) -0.02685(7)
H11B H 0.6733 0.4340 -0.0376
N1B N 0.6107(10) 0.4766(7) -0.1812(3)
O3B O 0.5915(16) 0.3857(4) -0.14803(17)
O4B O 0.6023(11) 0.4608(5) -0.23266(14)
N2? N 0.403(5) 0.541(2) 0.1805(10)
O5? O 0.642(4) 0.6004(13) 0.1718(9)
O6? O 0.196(3) 0.5960(10) 0.2046(6)
loop_
_geom_bond_atom_site_label_1
_geom_bond_atom_site_label_2
_geom_bond_site_symmetry_1
_geom_bond_site_symmetry_2
O1 C1 1_555 1_555
O2 C3 1_555 1_555
C1 H1 1_555 1_555
H2 C1 1_555 1_555
H3 C1 1_555 1_555
C2 O1 1_555 1_555
C3 C2 1_555 1_555
C4 C3 1_555 1_555
C5 C4 1_555 1_555
H4 C5 1_555 1_555
H5 C5 1_555 1_555
C6 O2 1_555 1_555
H6 C6 1_555 1_555
H7 C6 1_555 1_555
H8 C6 1_555 1_555
C7 C4 1_555 1_555
C8 C7 1_555 1_555
H9 C8 1_555 1_555
C9 C2 1_555 1_555
H10 C9 1_555 1_555
C10 C5 1_555 1_555
H11 C10 1_555 1_555
N1 C7 1_555 1_555
O3 N1 1_555 1_555
O4 N1 1_555 1_555
O1B C1B 1_555 1_555
O2B C3B 1_555 1_555
C1B H1B 1_555 1_555
H2B C1B 1_555 1_555
H3B C1B 1_555 1_555
C2B O1B 1_555 1_555
C3B C2B 1_555 1_555
C4B C3B 1_555 1_555
C5B C4B 1_555 1_555
H4B C5B 1_555 1_555
H5B C5B 1_555 1_555
C6B O2B 1_555 1_555
H6B C6B 1_555 1_555
H7B C6B 1_555 1_555
H8B C6B 1_555 1_555
C7B C4B 1_555 1_555
C8B C7B 1_555 1_555
H9B C8B 1_555 1_555
C9B C2B 1_555 1_555
H10B C9B 1_555 1_555
C10B C10 1_555 1_555
H11B C10B 1_555 1_555
N1B C7B 1_555 1_555
O3B N1B 1_555 1_555
O4B N1B 1_555 1_555
C8 C9 1_555 1_555
C5B C10B 1_555 1_555
C8B C9B 1_555 1_555

#END
