
#######################################################################
#
#                 Cambridge Crystallographic Data Centre
#                                CCDC 
#
#######################################################################
#
# If this CIF has been generated from an entry in the Cambridge 
# Structural Database, then it will include bibliographic, chemical, 
# crystal, experimental, refinement or atomic coordinate data resulting 
# from the CCDC's data processing and validation procedures.
#
#######################################################################

data_PIZDUY
_chemical_formula_moiety         'C3 H5 N2 1+,H4 B5 O10 1-'
_chemical_name_systematic        'Imidazolium tetrahydroxypentaborate'
_symmetry_cell_setting           monoclinic
_symmetry_space_group_name_H-M   'P 21/c'
_symmetry_Int_Tables_number      14
_space_group_name_Hall           '-P 2ybc'
loop_
_symmetry_equiv_pos_site_id
_symmetry_equiv_pos_as_xyz
1 x,y,z
2 -x,1/2+y,1/2-z
3 -x,-y,-z
4 x,1/2-y,1/2+z
_cell_length_a                   8.846(3)
_cell_length_b                   16.296(6)
_cell_length_c                   8.744(3)
_cell_angle_alpha                90
_cell_angle_beta                 106.647(6)
_cell_angle_gamma                90
_cell_volume                     1207.66
_exptl_crystal_colour            colorless
_exptl_crystal_description       column
_cell_formula_units_Z            4
loop_
_atom_site_label
_atom_site_type_symbol
_atom_site_fract_x
_atom_site_fract_y
_atom_site_fract_z
N1 N 0.6450(4) 0.1535(2) 0.2444(4)
H1 H 0.5666 0.1612 0.2826
N2 N 0.7818(5) 0.1169(2) 0.0954(5)
H2 H 0.8092 0.0956 0.0174
C1 C 0.6399(5) 0.1136(2) 0.1141(6)
H3 H 0.5523 0.0876 0.0470
C2 C 0.7921(5) 0.1808(3) 0.3091(5)
H4 H 0.8284 0.2103 0.4036
C3 C 0.8753(5) 0.1579(3) 0.2143(7)
H5 H 0.9816 0.1688 0.2289
O1 O 0.3991(2) 0.05886(12) 0.7762(2)
O2 O 0.5283(2) 0.09675(12) 0.5822(3)
O3 O 0.2940(2) 0.16724(12) 0.5873(2)
O4 O 0.1222(2) 0.06395(12) 0.6389(2)
O5 O 0.0091(2) 0.09227(13) 0.8496(3)
O6 O 0.2399(2) 0.16481(12) 0.8392(2)
O7 O 0.6396(2) -0.00157(14) 0.7849(3)
H6 H 0.7077 -0.0006 0.7380
O8 O 0.4402(3) 0.20654(14) 0.4110(3)
H7 H 0.3656 0.2383 0.3824
O9 O -0.1161(2) 0.00008(14) 0.6502(3)
H8 H -0.1107 -0.0179 0.5644
O10 O 0.1024(3) 0.19919(15) 1.0270(3)
H9 H 0.1608 0.2392 1.0378
B1 B 0.2652(4) 0.1124(2) 0.7112(4)
B2 B 0.5197(4) 0.0505(2) 0.7109(5)
B3 B 0.4182(4) 0.1562(2) 0.5267(5)
B4 B 0.0067(4) 0.0515(2) 0.7116(5)
B5 B 0.1197(4) 0.1519(2) 0.9058(5)
loop_
_geom_bond_atom_site_label_1
_geom_bond_atom_site_label_2
_geom_bond_site_symmetry_1
_geom_bond_site_symmetry_2
N1 H1 1_555 1_555
N2 H2 1_555 1_555
C1 N1 1_555 1_555
H3 C1 1_555 1_555
C2 N1 1_555 1_555
H4 C2 1_555 1_555
C3 N2 1_555 1_555
H5 C3 1_555 1_555
O1 B1 1_555 1_555
O2 B2 1_555 1_555
O3 B1 1_555 1_555
O4 B1 1_555 1_555
O5 B4 1_555 1_555
O6 B1 1_555 1_555
O7 H6 1_555 1_555
O8 H7 1_555 1_555
O9 H8 1_555 1_555
O10 H9 1_555 1_555
B2 O1 1_555 1_555
B3 O2 1_555 1_555
B4 O4 1_555 1_555
B5 O5 1_555 1_555
N2 C1 1_555 1_555
C2 C3 1_555 1_555
O3 B3 1_555 1_555
O6 B5 1_555 1_555
O7 B2 1_555 1_555
O8 B3 1_555 1_555
O9 B4 1_555 1_555
O10 B5 1_555 1_555

#END
