
#######################################################################
#
#                 Cambridge Crystallographic Data Centre
#                                CCDC 
#
#######################################################################
#
# If this CIF has been generated from an entry in the Cambridge 
# Structural Database, then it will include bibliographic, chemical, 
# crystal, experimental, refinement or atomic coordinate data resulting 
# from the CCDC's data processing and validation procedures.
#
#######################################################################

data_PIZDIM
_chemical_formula_moiety         'C20 H15 Cl1 N4 S1'
_chemical_name_systematic        
4-((4-Chlorobenzylidene)amino)-5-(naphthalen-1-ylmethyl)-2,4-dihydro-(1,2,4)triazole-3-thione
_symmetry_cell_setting           triclinic
_symmetry_space_group_name_H-M   'P -1'
_symmetry_Int_Tables_number      2
_space_group_name_Hall           '-P 1'
loop_
_symmetry_equiv_pos_site_id
_symmetry_equiv_pos_as_xyz
1 x,y,z
2 -x,-y,-z
_cell_length_a                   8.7463(8)
_cell_length_b                   10.5254(9)
_cell_length_c                   10.9292(10)
_cell_angle_alpha                80.408(2)
_cell_angle_beta                 77.7380(10)
_cell_angle_gamma                66.9340(10)
_cell_volume                     900.668
_exptl_crystal_colour            colorless
_exptl_crystal_description       block
_cell_formula_units_Z            2
_exptl_crystal_recrystallization_method ethanol
loop_
_atom_site_label
_atom_site_type_symbol
_atom_site_fract_x
_atom_site_fract_y
_atom_site_fract_z
S1 S 0.17488(9) 0.39653(7) 0.14294(7)
Cl1 Cl 0.95931(11) 0.30072(11) 0.59209(8)
N1 N 0.4414(2) 0.5566(2) 0.16509(19)
N2 N 0.3126(2) 0.6007(2) 0.09374(18)
N3 N 0.1209(3) 0.6337(2) -0.0112(2)
H1 H 0.0422 0.6241 -0.0399
N4 N 0.1731(3) 0.7431(2) -0.0520(2)
C1 C 0.8120(3) 0.3442(3) 0.4914(3)
C2 C 0.8190(4) 0.4381(4) 0.3891(3)
H2 H 0.9024 0.4755 0.3726
C3 C 0.6999(3) 0.4763(3) 0.3107(3)
H3 H 0.7032 0.5402 0.2413
C4 C 0.5769(3) 0.4207(2) 0.3344(2)
C5 C 0.5748(4) 0.3256(3) 0.4382(3)
H4 H 0.4924 0.2872 0.4552
C6 C 0.6928(4) 0.2870(3) 0.5168(3)
H5 H 0.6908 0.2227 0.5861
C7 C 0.4444(3) 0.4649(3) 0.2565(2)
H6 H 0.3628 0.4255 0.2742
C8 C 0.2018(3) 0.5435(3) 0.0765(2)
C9 C 0.2907(3) 0.7205(3) 0.0132(2)
C10 C 0.3875(3) 0.8101(3) 0.0054(2)
H7 H 0.3759 0.8704 -0.0723
H8 H 0.5058 0.7522 0.0024
C11 C 0.3322(3) 0.8987(2) 0.1146(2)
C12 C 0.4524(3) 0.9143(2) 0.1749(2)
C13 C 0.6290(3) 0.8465(3) 0.1427(3)
H9 H 0.6716 0.7881 0.0783
C14 C 0.7376(4) 0.8654(3) 0.2043(3)
H10 H 0.8529 0.8187 0.1823
C15 C 0.6778(5) 0.9538(4) 0.2999(3)
H11 H 0.7532 0.9662 0.3410
C16 C 0.5101(4) 1.0215(3) 0.3330(3)
H12 H 0.4714 1.0807 0.3966
C17 C 0.3927(4) 1.0041(3) 0.2728(2)
C18 C 0.2173(4) 1.0747(3) 0.3079(3)
H13 H 0.1779 1.1328 0.3724
C19 C 0.1065(4) 1.0580(3) 0.2483(3)
H14 H -0.0085 1.1053 0.2715
C20 C 0.1643(3) 0.9701(3) 0.1521(3)
H15 H 0.0863 0.9598 0.1123
loop_
_geom_bond_atom_site_label_1
_geom_bond_atom_site_label_2
_geom_bond_site_symmetry_1
_geom_bond_site_symmetry_2
S1 C8 1_555 1_555
Cl1 C1 1_555 1_555
N1 N2 1_555 1_555
N2 C8 1_555 1_555
N3 H1 1_555 1_555
N4 N3 1_555 1_555
C1 C2 1_555 1_555
C2 H2 1_555 1_555
C3 C2 1_555 1_555
H3 C3 1_555 1_555
C4 C3 1_555 1_555
C5 C4 1_555 1_555
H4 C5 1_555 1_555
C6 C1 1_555 1_555
H5 C6 1_555 1_555
C7 N1 1_555 1_555
H6 C7 1_555 1_555
C8 N3 1_555 1_555
C9 N2 1_555 1_555
C10 C9 1_555 1_555
H7 C10 1_555 1_555
H8 C10 1_555 1_555
C11 C10 1_555 1_555
C12 C11 1_555 1_555
C13 C12 1_555 1_555
H9 C13 1_555 1_555
C14 C13 1_555 1_555
H10 C14 1_555 1_555
C15 C14 1_555 1_555
H11 C15 1_555 1_555
C16 C15 1_555 1_555
H12 C16 1_555 1_555
C17 C12 1_555 1_555
C18 C17 1_555 1_555
H13 C18 1_555 1_555
C19 C18 1_555 1_555
H14 C19 1_555 1_555
C20 C11 1_555 1_555
H15 C20 1_555 1_555
N4 C9 1_555 1_555
C4 C7 1_555 1_555
C5 C6 1_555 1_555
C16 C17 1_555 1_555
C19 C20 1_555 1_555

#END
