
#######################################################################
#
#                 Cambridge Crystallographic Data Centre
#                                CCDC 
#
#######################################################################
#
# If this CIF has been generated from an entry in the Cambridge 
# Structural Database, then it will include bibliographic, chemical, 
# crystal, experimental, refinement or atomic coordinate data resulting 
# from the CCDC's data processing and validation procedures.
#
#######################################################################

data_PIZDAD
_chemical_formula_moiety         'C16 H8 S5 1+,Cl1 O4 1-,C1 H2 Cl2'
_chemical_name_systematic        
"2-(5H-Dithieno(3,2-b;2',3'-e)thiopyran-5-ylidene)-1,3-benzodithiole perchlorate dichloromethane solvate"
_symmetry_cell_setting           triclinic
_symmetry_space_group_name_H-M   'P -1'
_symmetry_Int_Tables_number      2
_space_group_name_Hall           '-P 1'
loop_
_symmetry_equiv_pos_site_id
_symmetry_equiv_pos_as_xyz
1 x,y,z
2 -x,-y,-z
_cell_length_a                   9.213(1)
_cell_length_b                   14.487(2)
_cell_length_c                   7.902(2)
_cell_angle_alpha                92.58(1)
_cell_angle_beta                 93.42(1)
_cell_angle_gamma                106.09(1)
_cell_volume                     1009.47
_exptl_crystal_colour            black
_chemical_melting_point          '234-235 deg.C (dec)'
_cell_formula_units_Z            2
loop_
_atom_site_label
_atom_site_type_symbol
_atom_site_fract_x
_atom_site_fract_y
_atom_site_fract_z
Cl1 Cl 1.0952(2) 0.2806(2) 0.2298(3)
O1 O 1.0496(9) 0.1852(5) 0.1776(14)
O2 O 1.2383(9) 0.3254(7) 0.1688(14)
O3 O 1.1079(11) 0.2917(8) 0.4077(12)
O4 O 0.9917(11) 0.3307(8) 0.1682(14)
Cl2 Cl 0.5893(3) 0.4111(2) 0.1060(4)
Cl3 Cl 0.8591(4) 0.5597(2) 0.2322(5)
C1 C 0.7730(13) 0.4797(9) 0.0616(17)
H1 H 0.770(12) 0.526(8) -0.027(15)
H2 H 0.829(12) 0.433(8) 0.022(15)
S1 S 0.3331(3) -0.2134(2) 0.1223(3)
S2 S 0.7348(2) 0.0185(2) 0.1630(3)
S3 S 0.1445(2) -0.0148(2) 0.3738(3)
S4 S 0.6838(2) 0.1728(1) 0.3678(3)
S5 S 0.3779(2) 0.1637(2) 0.4429(3)
C2 C 0.7541(10) -0.0815(7) 0.0592(12)
C3 C 0.6275(10) -0.1577(6) 0.0479(12)
C4 C 0.5077(9) -0.1291(6) 0.1296(11)
C5 C 0.5466(8) -0.0385(6) 0.1993(11)
C6 C 0.0177(10) -0.1252(7) 0.3273(13)
C7 C 0.0764(10) -0.1880(7) 0.2443(13)
C8 C 0.2363(9) -0.1440(6) 0.2228(11)
C9 C 0.2911(9) -0.0507(6) 0.2851(11)
C10 C 0.4478(9) 0.0097(6) 0.2852(10)
C11 C 0.4960(9) 0.1016(6) 0.3543(12)
C12 C 0.6600(9) 0.2769(5) 0.4660(11)
C13 C 0.5115(10) 0.2720(6) 0.5033(12)
C14 C 0.4812(11) 0.3504(7) 0.5837(14)
C15 C 0.5956(12) 0.4321(6) 0.6267(14)
C16 C 0.7466(11) 0.4371(6) 0.5897(14)
C17 C 0.7773(10) 0.3585(6) 0.5127(12)
H3 H 0.838(11) -0.084(7) -0.011(13)
H4 H 0.612(10) -0.232(6) 0.011(12)
H5 H -0.082(11) -0.156(7) 0.374(13)
H6 H 0.020(10) -0.263(6) 0.212(12)
H7 H 0.380(14) 0.337(9) 0.635(17)
H8 H 0.589(10) 0.488(7) 0.680(13)
H9 H 0.822(11) 0.506(7) 0.617(14)
H10 H 0.880(12) 0.368(7) 0.488(14)
loop_
_geom_bond_atom_site_label_1
_geom_bond_atom_site_label_2
_geom_bond_site_symmetry_1
_geom_bond_site_symmetry_2
Cl1 O1 1_555 1_555
O2 Cl1 1_555 1_555
O3 Cl1 1_555 1_555
O4 Cl1 1_555 1_555
Cl2 C1 1_555 1_555
Cl3 C1 1_555 1_555
C1 H1 1_555 1_555
H2 C1 1_555 1_555
S1 C4 1_555 1_555
S2 C2 1_555 1_555
S3 C6 1_555 1_555
S4 C11 1_555 1_555
S5 C11 1_555 1_555
C2 C3 1_555 1_555
C3 C4 1_555 1_555
C4 C5 1_555 1_555
C5 S2 1_555 1_555
C6 C7 1_555 1_555
C7 C8 1_555 1_555
C8 S1 1_555 1_555
C9 S3 1_555 1_555
C10 C5 1_555 1_555
C11 C10 1_555 1_555
C12 S4 1_555 1_555
C13 S5 1_555 1_555
C14 C13 1_555 1_555
C15 C14 1_555 1_555
C16 C15 1_555 1_555
C17 C12 1_555 1_555
H3 C2 1_555 1_555
H4 C3 1_555 1_555
H5 C6 1_555 1_555
H6 C7 1_555 1_555
H7 C14 1_555 1_555
H8 C15 1_555 1_555
H9 C16 1_555 1_555
H10 C17 1_555 1_555
C8 C9 1_555 1_555
C9 C10 1_555 1_555
C12 C13 1_555 1_555
C16 C17 1_555 1_555

#END
