
#######################################################################
#
#                 Cambridge Crystallographic Data Centre
#                                CCDC 
#
#######################################################################
#
# If this CIF has been generated from an entry in the Cambridge 
# Structural Database, then it will include bibliographic, chemical, 
# crystal, experimental, refinement or atomic coordinate data resulting 
# from the CCDC's data processing and validation procedures.
#
#######################################################################

data_PIZFUZ
_chemical_formula_moiety         'C12 H17 N3 O5 S1'
_chemical_name_systematic        
"(N'-Acetyl-N-benzylhydrazino)sulfonylglycine methyl ester"
_symmetry_cell_setting           triclinic
_symmetry_space_group_name_H-M   'P -1'
_symmetry_Int_Tables_number      2
_space_group_name_Hall           '-P 1'
loop_
_symmetry_equiv_pos_site_id
_symmetry_equiv_pos_as_xyz
1 x,y,z
2 -x,-y,-z
_cell_length_a                   7.542(2)
_cell_length_b                   8.925(4)
_cell_length_c                   11.471(5)
_cell_angle_alpha                98.21(4)
_cell_angle_beta                 95.87(3)
_cell_angle_gamma                97.44(3)
_cell_volume                     752.034
_exptl_crystal_colour            colorless
_chemical_melting_point          '101-102 deg.C'
_cell_formula_units_Z            2
loop_
_atom_site_label
_atom_site_type_symbol
_atom_site_fract_x
_atom_site_fract_y
_atom_site_fract_z
S1 S 0.29424(7) -0.31914(6) 0.63397(5)
O1 O 0.4342(2) -0.3026(2) 0.7297(2)
O2 O 0.1406(2) -0.4329(2) 0.6222(2)
O3 O -0.2438(2) -0.2020(2) 0.5463(2)
O4 O 0.2167(3) -0.3660(2) 0.2085(2)
O5 O 0.2226(3) -0.1707(2) 0.3557(2)
N1 N 0.2143(2) -0.1516(2) 0.6530(2)
N2 N 0.0547(2) -0.1505(2) 0.5801(2)
N3 N 0.3879(3) -0.3423(2) 0.5151(2)
C1 C 0.3470(3) -0.0121(3) 0.6615(2)
C2 C 0.3317(3) 0.1041(2) 0.7689(2)
C3 C 0.3416(4) 0.0636(3) 0.8808(2)
C4 C 0.3409(4) 0.1715(4) 0.9800(2)
C5 C 0.3277(4) 0.3206(3) 0.9689(3)
C6 C 0.3144(4) 0.3622(3) 0.8588(3)
C7 C 0.3147(4) 0.2537(3) 0.7582(2)
C8 C -0.1086(3) -0.1814(2) 0.6185(2)
C9 C -0.1140(3) -0.1839(4) 0.7474(2)
C10 C 0.2932(3) -0.4131(3) 0.3997(2)
C11 C 0.2412(3) -0.3008(3) 0.3213(2)
C12 C 0.1703(5) -0.2711(5) 0.1224(3)
H1 H 0.4713(3) -0.0403(3) 0.6679(2)
H2 H 0.3247(3) 0.0349(3) 0.5883(2)
H3 H 0.3500(4) -0.0452(3) 0.8896(2)
H4 H 0.3506(4) 0.1406(4) 1.0606(2)
H5 H 0.3283(4) 0.3979(3) 1.0413(3)
H6 H 0.3034(4) 0.4706(3) 0.8499(3)
H7 H 0.3024(4) 0.2836(3) 0.6774(2)
H8 H 0.0604(2) -0.1273(2) 0.4977(2)
H9 H -0.058(4) -0.274(2) 0.769(3)
H10 H -0.241(2) -0.192(3) 0.767(3)
H11 H -0.042(3) -0.087(2) 0.793(3)
H12 H 0.5193(3) -0.3036(2) 0.5199(2)
H13 H 0.1811(3) -0.4786(3) 0.4124(2)
H14 H 0.3732(3) -0.4787(3) 0.3584(2)
H15 H 0.147(5) -0.340(4) 0.043(2)
H16 H 0.269(4) -0.184(3) 0.120(3)
H17 H 0.057(3) -0.228(4) 0.140(4)
loop_
_geom_bond_atom_site_label_1
_geom_bond_atom_site_label_2
_geom_bond_site_symmetry_1
_geom_bond_site_symmetry_2
S1 O1 1_555 1_555
O2 S1 1_555 1_555
O3 C8 1_555 1_555
O4 C11 1_555 1_555
O5 C11 1_555 1_555
N1 S1 1_555 1_555
N2 N1 1_555 1_555
N3 S1 1_555 1_555
C1 N1 1_555 1_555
C2 C1 1_555 1_555
C3 C2 1_555 1_555
C4 C3 1_555 1_555
C5 C4 1_555 1_555
C6 C5 1_555 1_555
C7 C2 1_555 1_555
C8 N2 1_555 1_555
C9 C8 1_555 1_555
C10 N3 1_555 1_555
C11 C10 1_555 1_555
C12 O4 1_555 1_555
H1 C1 1_555 1_555
H2 C1 1_555 1_555
H3 C3 1_555 1_555
H4 C4 1_555 1_555
H5 C5 1_555 1_555
H6 C6 1_555 1_555
H7 C7 1_555 1_555
H8 N2 1_555 1_555
H9 C9 1_555 1_555
H10 C9 1_555 1_555
H11 C9 1_555 1_555
H12 N3 1_555 1_555
H13 C10 1_555 1_555
H14 C10 1_555 1_555
H15 C12 1_555 1_555
H16 C12 1_555 1_555
H17 C12 1_555 1_555
C6 C7 1_555 1_555

#END
