
#######################################################################
#
#                 Cambridge Crystallographic Data Centre
#                                CCDC 
#
#######################################################################
#
# If this CIF has been generated from an entry in the Cambridge 
# Structural Database, then it will include bibliographic, chemical, 
# crystal, experimental, refinement or atomic coordinate data resulting 
# from the CCDC's data processing and validation procedures.
#
#######################################################################

data_PIZGAG
_chemical_formula_moiety         'C18 H27 N3 O6 S1'
_chemical_name_systematic        
"(N'-t-Butoxycarbonyl-N-benzylhydrazino)sulfonyl-L-proline methyl ester"
_symmetry_cell_setting           trigonal
_symmetry_space_group_name_H-M   'P 31'
_symmetry_Int_Tables_number      144
_space_group_name_Hall           'P 31'
loop_
_symmetry_equiv_pos_site_id
_symmetry_equiv_pos_as_xyz
1 x,y,z
2 -y,x-y,1/3+z
3 -x+y,-x,2/3+z
_cell_length_a                   10.708(1)
_cell_length_b                   10.708(1)
_cell_length_c                   16.833(2)
_cell_angle_alpha                90
_cell_angle_beta                 90
_cell_angle_gamma                120
_cell_volume                     1671.51
_exptl_crystal_colour            colorless
_chemical_melting_point          '71-72 deg.C'
_cell_formula_units_Z            3
loop_
_atom_site_label
_atom_site_type_symbol
_atom_site_fract_x
_atom_site_fract_y
_atom_site_fract_z
S1 S -0.24436(8) 0.03549(7) 0.20268(7)
O1 O -0.3963(3) -0.0262(3) 0.2092(2)
O2 O -0.1391(3) -0.1709(3) 0.3232(1)
O3 O 0.0245(3) 0.4353(3) 0.2383(2)
O4 O 0.1777(2) 0.4399(2) 0.1425(1)
O5 O -0.1837(3) -0.0376(2) 0.1618(1)
O6 O 0.0877(3) -0.0356(3) 0.2840(2)
N1 N -0.1899(2) 0.1961(2) 0.1617(2)
N2 N -0.0440(2) 0.2655(2) 0.1416(2)
N3 N -0.1766(3) 0.0696(3) 0.2901(2)
C1 C -0.2807(4) 0.2101(3) 0.0998(2)
C2 C -0.2514(3) 0.3615(3) 0.0975(2)
C3 C -0.1848(6) 0.4514(5) 0.0350(2)
C4 C -0.1635(7) 0.5883(5) 0.0332(3)
C5 C -0.2033(5) 0.6399(4) 0.0949(3)
C6 C -0.2643(5) 0.5568(5) 0.1578(3)
C7 C -0.2902(5) 0.4171(5) 0.1590(2)
C8 C 0.0508(3) 0.3872(3) 0.1812(2)
C9 C 0.3035(3) 0.5769(3) 0.1654(2)
C10 C 0.4162(4) 0.5973(5) 0.1068(3)
C11 C 0.3482(6) 0.5655(8) 0.2459(3)
C12 C 0.2673(5) 0.6933(5) 0.1548(4)
C13 C -0.0358(3) 0.0863(3) 0.3074(2)
C14 C -0.0022(5) 0.1510(5) 0.3918(3)
C15 C -0.2215(5) 0.1434(5) 0.3490(3)
C16 C -0.0389(4) -0.0566(4) 0.3058(2)
C17 C 0.1055(6) -0.1604(7) 0.2873(3)
C18 C -0.1450 0.1306 0.4210
H1 H -0.0095(2) 0.2259(2) 0.0984(2)
H2 H 0.0346(3) 0.1473(3) 0.2655(2)
H3 H 0.2052(6) -0.1326(7) 0.2695(3)
H4 H 0.0906(6) -0.1974(7) 0.3430(3)
H5 H 0.0336(6) -0.2375(7) 0.2515(3)
H6 H 0.5069(4) 0.6898(5) 0.1184(3)
H7 H 0.3819(4) 0.6012(5) 0.0521(3)
H8 H 0.4356(4) 0.5153(5) 0.1103(3)
H9 H 0.4340(6) 0.6596(8) 0.2611(3)
H10 H 0.2676(6) 0.5418(8) 0.2839(3)
H11 H 0.3741(6) 0.4879(8) 0.2475(3)
H12 H 0.3522(5) 0.7879(5) 0.1703(4)
H13 H 0.1824(5) 0.6742(5) 0.1883(4)
H14 H 0.2440(5) 0.6963(5) 0.0976(4)
H15 H -0.3848(4) 0.1436(3) 0.1122(2)
H16 H -0.2572(4) 0.1843(3) 0.0470(2)
H17 H -0.1513(6) 0.4160(5) -0.0107(2)
H18 H -0.1177(7) 0.6504(5) -0.0144(3)
H19 H -0.1870(5) 0.7403(4) 0.0935(3)
H20 H -0.2910(5) 0.5958(5) 0.2047(3)
H21 H -0.3392(5) 0.3548(5) 0.2062(2)
C19? C -0.0878 0.2230 0.4060
loop_
_geom_bond_atom_site_label_1
_geom_bond_atom_site_label_2
_geom_bond_site_symmetry_1
_geom_bond_site_symmetry_2
S1 O1 1_555 1_555
O2 C16 1_555 1_555
O3 C8 1_555 1_555
O4 C8 1_555 1_555
O5 S1 1_555 1_555
O6 C16 1_555 1_555
N1 S1 1_555 1_555
N2 N1 1_555 1_555
N3 S1 1_555 1_555
C1 N1 1_555 1_555
C2 C1 1_555 1_555
C3 C2 1_555 1_555
C4 C3 1_555 1_555
C5 C4 1_555 1_555
C6 C5 1_555 1_555
C7 C2 1_555 1_555
C8 N2 1_555 1_555
C9 O4 1_555 1_555
C10 C9 1_555 1_555
C11 C9 1_555 1_555
C12 C9 1_555 1_555
C13 N3 1_555 1_555
C14 C13 1_555 1_555
C15 N3 1_555 1_555
C16 C13 1_555 1_555
C17 O6 1_555 1_555
C18 C14 1_555 1_555
H1 N2 1_555 1_555
H2 C13 1_555 1_555
H3 C17 1_555 1_555
H4 C17 1_555 1_555
H5 C17 1_555 1_555
H6 C10 1_555 1_555
H7 C10 1_555 1_555
H8 C10 1_555 1_555
H9 C11 1_555 1_555
H10 C11 1_555 1_555
H11 C11 1_555 1_555
H12 C12 1_555 1_555
H13 C12 1_555 1_555
H14 C12 1_555 1_555
H15 C1 1_555 1_555
H16 C1 1_555 1_555
H17 C3 1_555 1_555
H18 C4 1_555 1_555
H19 C5 1_555 1_555
H20 C6 1_555 1_555
H21 C7 1_555 1_555
C6 C7 1_555 1_555
C15 C18 1_555 1_555

#END
