
#######################################################################
#
#                 Cambridge Crystallographic Data Centre
#                                CCDC 
#
#######################################################################
#
# If this CIF has been generated from an entry in the Cambridge 
# Structural Database, then it will include bibliographic, chemical, 
# crystal, experimental, refinement or atomic coordinate data resulting 
# from the CCDC's data processing and validation procedures.
#
#######################################################################

data_PIZQAT
_chemical_formula_moiety         'C23 H26 Br2 N2 O4'
_chemical_name_systematic        
't-butyl 3,3-dibromo-4-hydroxy-12-oxo-1,2,2a,3,5,5a,11,12-octahydro-13aH-cyclopropa[7,8]indolizino[8,1-cd]carbazole-6(4H)-carboxylate unknown solvate'
_symmetry_cell_setting           triclinic
_symmetry_space_group_name_H-M   'P -1'
_symmetry_Int_Tables_number      2
_space_group_name_Hall           '-P 1'
loop_
_symmetry_equiv_pos_site_id
_symmetry_equiv_pos_as_xyz
1 x,y,z
2 -x,-y,-z
_cell_length_a                   13.028(4)
_cell_length_b                   18.677(10)
_cell_length_c                   18.901(6)
_cell_angle_alpha                106.248(4)
_cell_angle_beta                 109.816(3)
_cell_angle_gamma                104.340(4)
_cell_volume                     3843.63
_exptl_crystal_colour            colorless
_exptl_crystal_description       block
_cell_formula_units_Z            6
loop_
_atom_site_label
_atom_site_type_symbol
_atom_site_fract_x
_atom_site_fract_y
_atom_site_fract_z
Br1 Br -0.04090(5) 0.34169(4) 0.43654(4)
Br2 Br 0.06167(6) 0.29143(4) 0.58332(4)
C1 C 0.1708(4) 0.2176(3) 0.3204(3)
C2 C 0.0551(5) 0.1915(3) 0.2627(3)
H1 H 0.0180 0.2278 0.2590
C3 C -0.0050(5) 0.1101(4) 0.2105(4)
H2 H -0.0825 0.0914 0.1712
C4 C 0.0521(6) 0.0576(4) 0.2181(4)
H3 H 0.0119 0.0034 0.1830
C5 C 0.1671(5) 0.0827(3) 0.2760(3)
H4 H 0.2040 0.0463 0.2802
C6 C 0.2251(5) 0.1635(3) 0.3274(3)
C7 C 0.3639(4) 0.2910(3) 0.4334(3)
H5 H 0.4343 0.3239 0.4324
C8 C 0.2553(4) 0.3021(3) 0.3772(3)
C9 C 0.2935(4) 0.3529(3) 0.3319(3)
H6 H 0.3539 0.3408 0.3177
H7 H 0.2269 0.3436 0.2825
C10 C 0.3405(5) 0.4375(3) 0.3938(3)
C11 C 0.3158(5) 0.5102(3) 0.5142(3)
H8 H 0.3170 0.5540 0.4962
H9 H 0.3923 0.5258 0.5590
C12 C 0.2217(4) 0.4952(3) 0.5438(3)
H10 H 0.2417 0.5420 0.5920
H11 H 0.1468 0.4867 0.5014
C13 C 0.2110(5) 0.4224(3) 0.5644(3)
H12 H 0.2569 0.4337 0.6222
C14 C 0.2053(4) 0.3458(3) 0.5019(3)
C15 C 0.2741(4) 0.2972(3) 0.5341(3)
H13 H 0.2938 0.3116 0.5923
C16 C 0.3850(4) 0.3143(3) 0.5231(3)
H14 H 0.4292 0.2852 0.5465
H15 H 0.4330 0.3714 0.5534
C17 C 0.2095(4) 0.3567(3) 0.4264(3)
H16 H 0.1304 0.3496 0.3892
C18 C 0.1003(5) 0.3482(3) 0.5192(3)
C19 C 0.4271(5) 0.1742(4) 0.4027(4)
C20 C 0.6389(5) 0.2145(3) 0.4845(4)
C21 C 0.6680(5) 0.1839(4) 0.4137(4)
H17 H 0.6100 0.1312 0.3760
H18 H 0.7445 0.1811 0.4341
H19 H 0.6679 0.2200 0.3862
C22 C 0.6234(5) 0.1542(4) 0.5232(4)
H20 H 0.6084 0.1760 0.5694
H21 H 0.6939 0.1432 0.5412
H22 H 0.5581 0.1051 0.4836
C23 C 0.7298(5) 0.2956(4) 0.5473(4)
H23 H 0.7378 0.3327 0.5212
H24 H 0.8041 0.2909 0.5716
H25 H 0.7055 0.3151 0.5890
N1 N 0.3412(3) 0.2054(2) 0.3906(3)
N2 N 0.2934(3) 0.4383(2) 0.4470(3)
O1 O 0.4114(3) 0.4990(2) 0.3982(2)
O2 O 0.2067(3) 0.2121(2) 0.4891(2)
H26 H 0.1572 0.1980 0.5053
O3 O 0.4095(3) 0.1039(2) 0.3666(2)
O4 O 0.5320(3) 0.2323(2) 0.4571(2)
Br3 Br 0.28755(5) 0.55810(4) 0.25818(4)
Br4 Br 0.10871(19) 0.4068(5) 0.0930(3)
C24 C 0.4085(5) 0.3014(3) 0.1361(3)
C25 C 0.3027(5) 0.2441(3) 0.1196(3)
H27 H 0.2316 0.2379 0.0797
C26 C 0.3061(6) 0.1968(4) 0.1641(4)
H28 H 0.2368 0.1584 0.1550
C27 C 0.4145(7) 0.2068(4) 0.2230(4)
H29 H 0.4155 0.1731 0.2510
C28 C 0.5186(6) 0.2636(4) 0.2412(4)
H30 H 0.5893 0.2702 0.2819
C29 C 0.5147(5) 0.3110(3) 0.1967(4)
C30 C 0.5618(4) 0.4121(3) 0.1450(3)
H31 H 0.6015 0.4108 0.1092
C31 C 0.4289(4) 0.3540(3) 0.0911(3)
C32 C 0.4067(4) 0.3049(3) 0.0027(3)
H32 H 0.4757 0.2941 0.0025
H33 H 0.3402 0.2540 -0.0219
C33 C 0.3811(4) 0.3572(3) -0.0425(4)
C34 C 0.3159(6) 0.4707(4) -0.0250(4)
H34 H 0.3199 0.4770 -0.0713
C35 C 0.2735(7) 0.5170(5) 0.0209(4)
H35 H 0.1891 0.4884 -0.0012
H36 H 0.2856 0.5671 0.0132
C36 C 0.3284(5) 0.5375(4) 0.1134(4)
H37 H 0.3790 0.5943 0.1481
C37 C 0.3708(4) 0.4779(3) 0.1423(3)
C38 C 0.4872(4) 0.5091(3) 0.2180(3)
H38 H 0.5084 0.5664 0.2493
C39 C 0.5814(4) 0.4998(3) 0.1901(3)
H39 H 0.6575 0.5253 0.2377
H40 H 0.5837 0.5279 0.1543
C40 C 0.3454(4) 0.3992(3) 0.0747(3)
H41 H 0.2651 0.3622 0.0573
C41 C 0.2682(5) 0.4952(4) 0.1512(3)
C42 C 0.7250(5) 0.3859(4) 0.2398(4)
C43 C 0.9156(5) 0.4606(4) 0.2490(4)
C44 C 0.9430(6) 0.3863(4) 0.2206(4)
H42 H 0.9283 0.3538 0.2502
H43 H 1.0243 0.4023 0.2307
H44 H 0.8937 0.3557 0.1630
C45 C 0.9778(5) 0.5040(4) 0.3417(4)
H45 H 0.9600 0.5512 0.3579
H46 H 1.0614 0.5196 0.3600
H47 H 0.9514 0.4688 0.3658
C46 C 0.9449(5) 0.5198(4) 0.2098(4)
H48 H 0.8963 0.4945 0.1517
H49 H 1.0264 0.5352 0.2206
H50 H 0.9303 0.5669 0.2328
N3 N 0.6079(4) 0.3727(3) 0.2002(3)
N4 N 0.3530(3) 0.4132(2) 0.0022(2)
O5 O 0.3836(3) 0.3521(2) -0.1079(2)
O6 O 0.4861(3) 0.4672(2) 0.2704(2)
H51 H 0.4646 0.4886 0.3038
O7 O 0.7627(3) 0.3545(2) 0.2847(2)
O8 O 0.7879(3) 0.4402(2) 0.2204(2)
Br6 Br 0.45824(5) 0.94363(4) 0.32819(4)
Br7 Br 0.40954(6) 0.75803(4) 0.26715(5)
C47 C 0.7286(5) 0.9680(3) 0.2118(4)
C48 C 0.6541(6) 1.0069(4) 0.1847(5)
H52 H 0.6327 1.0380 0.2206
C49 C 0.6122(7) 0.9985(5) 0.1035(5)
H53 H 0.5625 1.0240 0.0846
C50 C 0.6447(6) 0.9526(5) 0.0515(4)
H54 H 0.6165 0.9478 -0.0026
C51 C 0.7168(5) 0.9134(4) 0.0757(4)
H55 H 0.7383 0.8830 0.0394
C52 C 0.7569(5) 0.9206(3) 0.1562(4)
C53 C 0.8500(4) 0.9091(3) 0.2845(3)
H56 H 0.9350 0.9351 0.3202
C54 C 0.7952(5) 0.9744(3) 0.2970(3)
C55 C 0.8944(5) 1.0580(3) 0.3551(4)
H57 H 0.9645 1.0628 0.3463
H58 H 0.8690 1.1008 0.3467
C56 C 0.9176(6) 1.0611(4) 0.4402(4)
C57 C 0.8102(5) 0.9954(4) 0.5036(3)
H59 H 0.8415 1.0473 0.5489
H60 H 0.8565 0.9646 0.5206
C58 C 0.6848(5) 0.9518(3) 0.4835(3)
H61 H 0.6417 0.9869 0.4770
H62 H 0.6813 0.9373 0.5283
C59 C 0.6279(5) 0.8763(3) 0.4053(4)
H63 H 0.6265 0.8267 0.4137
C60 C 0.6488(5) 0.8802(3) 0.3314(3)
C61 C 0.6709(5) 0.8130(3) 0.2805(3)
H64 H 0.6448 0.7656 0.2922
C62 C 0.7999(4) 0.8362(3) 0.3022(3)
H65 H 0.8121 0.7907 0.2713
H66 H 0.8429 0.8486 0.3600
C63 C 0.7246(5) 0.9648(3) 0.3480(3)
H67 H 0.6738 0.9957 0.3402
C64 C 0.5291(5) 0.8649(3) 0.3301(4)
C65 C 0.8916(5) 0.8480(3) 0.1650(4)
C66 C 1.0431(5) 0.7918(4) 0.2084(4)
C67 C 1.1247(6) 0.8385(5) 0.1838(5)
H68 H 1.0800 0.8419 0.1336
H69 H 1.1769 0.8121 0.1760
H70 H 1.1700 0.8918 0.2261
C68 C 0.9655(7) 0.7085(4) 0.1421(5)
H71 H 0.9034 0.6842 0.1546
H72 H 1.0118 0.6759 0.1394
H73 H 0.9319 0.7124 0.0903
C69 C 1.1086(6) 0.7900(5) 0.2901(4)
H74 H 1.1532 0.8442 0.3307
H75 H 1.1611 0.7626 0.2861
H76 H 1.0533 0.7621 0.3057
N5 N 0.8318(3) 0.8872(2) 0.1972(2)
N6 N 0.8203(4) 1.0075(3) 0.4333(3)
O9 O 1.0064(3) 1.1040(2) 0.5039(3)
O10 O 0.6017(3) 0.7937(2) 0.1967(2)
H77 H 0.5998 0.7506 0.1686
O11 O 0.8794(3) 0.8301(2) 0.0955(2)
O12 O 0.9678(3) 0.8348(2) 0.2242(2)
Br5? Br 0.1185(6) 0.4423(10) 0.0766(6)
loop_
_geom_bond_atom_site_label_1
_geom_bond_atom_site_label_2
_geom_bond_site_symmetry_1
_geom_bond_site_symmetry_2
Br1 C18 1_555 1_555
Br2 C18 1_555 1_555
C1 C2 1_555 1_555
C2 H1 1_555 1_555
C3 C2 1_555 1_555
H2 C3 1_555 1_555
C4 C3 1_555 1_555
H3 C4 1_555 1_555
C5 C4 1_555 1_555
H4 C5 1_555 1_555
C6 C1 1_555 1_555
C7 H5 1_555 1_555
C8 C1 1_555 1_555
C9 C8 1_555 1_555
H6 C9 1_555 1_555
H7 C9 1_555 1_555
C10 C9 1_555 1_555
C11 H8 1_555 1_555
H9 C11 1_555 1_555
C12 C11 1_555 1_555
H10 C12 1_555 1_555
H11 C12 1_555 1_555
C13 C12 1_555 1_555
H12 C13 1_555 1_555
C14 C13 1_555 1_555
C15 C14 1_555 1_555
H13 C15 1_555 1_555
C16 C7 1_555 1_555
H14 C16 1_555 1_555
H15 C16 1_555 1_555
C17 C8 1_555 1_555
H16 C17 1_555 1_555
C18 C13 1_555 1_555
C19 N1 1_555 1_555
C20 C21 1_555 1_555
C21 H17 1_555 1_555
H18 C21 1_555 1_555
H19 C21 1_555 1_555
C22 C20 1_555 1_555
H20 C22 1_555 1_555
H21 C22 1_555 1_555
H22 C22 1_555 1_555
C23 C20 1_555 1_555
H23 C23 1_555 1_555
H24 C23 1_555 1_555
H25 C23 1_555 1_555
N1 C6 1_555 1_555
N2 C10 1_555 1_555
O1 C10 1_555 1_555
O2 C15 1_555 1_555
H26 O2 1_555 1_555
O3 C19 1_555 1_555
O4 C19 1_555 1_555
Br3 C41 1_555 1_555
Br4 C41 1_555 1_555
C24 C25 1_555 1_555
C25 H27 1_555 1_555
C26 C25 1_555 1_555
H28 C26 1_555 1_555
C27 C26 1_555 1_555
H29 C27 1_555 1_555
C28 C27 1_555 1_555
H30 C28 1_555 1_555
C29 C24 1_555 1_555
C30 H31 1_555 1_555
C31 C24 1_555 1_555
C32 C31 1_555 1_555
H32 C32 1_555 1_555
H33 C32 1_555 1_555
C33 C32 1_555 1_555
C34 H34 1_555 1_555
C35 C34 1_555 1_555
H35 C35 1_555 1_555
H36 C35 1_555 1_555
C36 C35 1_555 1_555
H37 C36 1_555 1_555
C37 C36 1_555 1_555
C38 C37 1_555 1_555
H38 C38 1_555 1_555
C39 C30 1_555 1_555
H39 C39 1_555 1_555
H40 C39 1_555 1_555
C40 C31 1_555 1_555
H41 C40 1_555 1_555
C41 C36 1_555 1_555
C42 N3 1_555 1_555
C43 C44 1_555 1_555
C44 H42 1_555 1_555
H43 C44 1_555 1_555
H44 C44 1_555 1_555
C45 C43 1_555 1_555
H45 C45 1_555 1_555
H46 C45 1_555 1_555
H47 C45 1_555 1_555
C46 C43 1_555 1_555
H48 C46 1_555 1_555
H49 C46 1_555 1_555
H50 C46 1_555 1_555
N3 C29 1_555 1_555
N4 C33 1_555 1_555
O5 C33 1_555 1_555
O6 C38 1_555 1_555
H51 O6 1_555 1_555
O7 C42 1_555 1_555
O8 C42 1_555 1_555
Br6 C64 1_555 1_555
Br7 C64 1_555 1_555
C47 C48 1_555 1_555
C48 H52 1_555 1_555
C49 C48 1_555 1_555
H53 C49 1_555 1_555
C50 C49 1_555 1_555
H54 C50 1_555 1_555
C51 C50 1_555 1_555
H55 C51 1_555 1_555
C52 C47 1_555 1_555
C53 H56 1_555 1_555
C54 C47 1_555 1_555
C55 C54 1_555 1_555
H57 C55 1_555 1_555
H58 C55 1_555 1_555
C56 C55 1_555 1_555
C57 H59 1_555 1_555
H60 C57 1_555 1_555
C58 C57 1_555 1_555
H61 C58 1_555 1_555
H62 C58 1_555 1_555
C59 C58 1_555 1_555
H63 C59 1_555 1_555
C60 C59 1_555 1_555
C61 C60 1_555 1_555
H64 C61 1_555 1_555
C62 C53 1_555 1_555
H65 C62 1_555 1_555
H66 C62 1_555 1_555
C63 C54 1_555 1_555
H67 C63 1_555 1_555
C64 C59 1_555 1_555
C65 N5 1_555 1_555
C66 C67 1_555 1_555
C67 H68 1_555 1_555
H69 C67 1_555 1_555
H70 C67 1_555 1_555
C68 C66 1_555 1_555
H71 C68 1_555 1_555
H72 C68 1_555 1_555
H73 C68 1_555 1_555
C69 C66 1_555 1_555
H74 C69 1_555 1_555
H75 C69 1_555 1_555
H76 C69 1_555 1_555
N5 C52 1_555 1_555
N6 C56 1_555 1_555
O9 C56 1_555 1_555
O10 C61 1_555 1_555
H77 O10 1_555 1_555
O11 C65 1_555 1_555
O12 C65 1_555 1_555
C5 C6 1_555 1_555
C7 C8 1_555 1_555
C7 N1 1_555 1_555
C11 N2 1_555 1_555
C14 C17 1_555 1_555
C14 C18 1_555 1_555
C15 C16 1_555 1_555
C17 N2 1_555 1_555
C20 O4 1_555 1_555
C28 C29 1_555 1_555
C30 C31 1_555 1_555
C30 N3 1_555 1_555
C34 N4 1_555 1_555
C37 C40 1_555 1_555
C37 C41 1_555 1_555
C38 C39 1_555 1_555
C40 N4 1_555 1_555
C43 O8 1_555 1_555
C51 C52 1_555 1_555
C53 C54 1_555 1_555
C53 N5 1_555 1_555
C57 N6 1_555 1_555
C60 C63 1_555 1_555
C60 C64 1_555 1_555
C61 C62 1_555 1_555
C63 N6 1_555 1_555
C66 O12 1_555 1_555

#END
