
#######################################################################
#
#                 Cambridge Crystallographic Data Centre
#                                CCDC 
#
#######################################################################
#
# If this CIF has been generated from an entry in the Cambridge 
# Structural Database, then it will include bibliographic, chemical, 
# crystal, experimental, refinement or atomic coordinate data resulting 
# from the CCDC's data processing and validation procedures.
#
#######################################################################

data_PIZQOH
_chemical_name_common            5-Methyl-5-phenyl-4-tosylfuran-2(5H)-one
_chemical_formula_moiety         'C18 H16 O4 S1'
_chemical_name_systematic        
5-methyl-4-[(4-methylphenyl)sulfonyl]-5-phenylfuran-2(5H)-one
_symmetry_cell_setting           monoclinic
_symmetry_space_group_name_H-M   'P 21/n'
_symmetry_Int_Tables_number      14
_space_group_name_Hall           '-P 2yn'
loop_
_symmetry_equiv_pos_site_id
_symmetry_equiv_pos_as_xyz
1 x,y,z
2 1/2-x,1/2+y,1/2-z
3 -x,-y,-z
4 1/2+x,1/2-y,1/2+z
_cell_length_a                   10.5500(4)
_cell_length_b                   8.2363(3)
_cell_length_c                   18.3202(7)
_cell_angle_alpha                90
_cell_angle_beta                 97.408(2)
_cell_angle_gamma                90
_cell_volume                     1578.61
_exptl_crystal_colour            colorless
_exptl_crystal_description       block
_cell_formula_units_Z            4
loop_
_atom_site_label
_atom_site_type_symbol
_atom_site_fract_x
_atom_site_fract_y
_atom_site_fract_z
S1 S 0.56850(6) 0.52399(8) 0.62414(3)
O1 O 0.26416(17) 0.2214(2) 0.59357(9)
O2 O 0.1154(2) 0.3621(4) 0.52153(12)
O3 O 0.5468(3) 0.6822(3) 0.59219(11)
O4 O 0.6663(2) 0.4225(3) 0.60090(11)
C1 C 0.2202(2) 0.3562(4) 0.55567(12)
C2 C 0.3211(3) 0.4801(3) 0.56461(12)
H1 H 0.3149 0.5844 0.5451
C3 C 0.4224(2) 0.4182(3) 0.60519(10)
C4 C 0.3975(2) 0.2436(3) 0.62641(11)
C5 C 0.5948(2) 0.5431(3) 0.72011(12)
C6 C 0.5264(3) 0.6560(3) 0.75479(14)
H2 H 0.4673 0.7232 0.7275
C7 C 0.5471(3) 0.6675(3) 0.83069(15)
H3 H 0.5009 0.7424 0.8545
C8 C 0.6362(3) 0.5683(3) 0.87187(13)
C9 C 0.7021(3) 0.4580(3) 0.83641(15)
H4 H 0.7612 0.3910 0.8638
C10 C 0.6830(2) 0.4429(3) 0.75990(13)
H5 H 0.7287 0.3669 0.7363
C11 C 0.6561(4) 0.5832(5) 0.95463(15)
H6 H 0.6263 0.4863 0.9761
H7 H 0.6092 0.6750 0.9692
H8 H 0.7454 0.5978 0.9713
C12 C 0.4019(2) 0.2221(3) 0.70945(11)
C13 C 0.4869(3) 0.1173(3) 0.74868(14)
H9 H 0.5396 0.0522 0.7240
C14 C 0.4943(3) 0.1083(4) 0.82489(15)
H10 H 0.5527 0.0381 0.8509
C15 C 0.4169(3) 0.2015(4) 0.86191(14)
H11 H 0.4228 0.1954 0.9129
C16 C 0.3299(3) 0.3047(4) 0.82335(14)
H12 H 0.2757 0.3672 0.8481
C17 C 0.3234(3) 0.3151(3) 0.74721(13)
H13 H 0.2653 0.3858 0.7214
C18 C 0.4760(3) 0.1238(3) 0.58842(14)
H14 H 0.4488 0.0153 0.5975
H15 H 0.5647 0.1359 0.6072
H16 H 0.4643 0.1443 0.5364
loop_
_geom_bond_atom_site_label_1
_geom_bond_atom_site_label_2
_geom_bond_site_symmetry_1
_geom_bond_site_symmetry_2
S1 O3 1_555 1_555
O1 C1 1_555 1_555
O2 C1 1_555 1_555
O4 S1 1_555 1_555
C1 C2 1_555 1_555
C2 H1 1_555 1_555
C3 S1 1_555 1_555
C4 O1 1_555 1_555
C5 S1 1_555 1_555
C6 C5 1_555 1_555
H2 C6 1_555 1_555
C7 C6 1_555 1_555
H3 C7 1_555 1_555
C8 C7 1_555 1_555
C9 C8 1_555 1_555
H4 C9 1_555 1_555
C10 C5 1_555 1_555
H5 C10 1_555 1_555
C11 C8 1_555 1_555
H6 C11 1_555 1_555
H7 C11 1_555 1_555
H8 C11 1_555 1_555
C12 C4 1_555 1_555
C13 C12 1_555 1_555
H9 C13 1_555 1_555
C14 C13 1_555 1_555
H10 C14 1_555 1_555
C15 C14 1_555 1_555
H11 C15 1_555 1_555
C16 C15 1_555 1_555
H12 C16 1_555 1_555
C17 C12 1_555 1_555
H13 C17 1_555 1_555
C18 C4 1_555 1_555
H14 C18 1_555 1_555
H15 C18 1_555 1_555
H16 C18 1_555 1_555
C2 C3 1_555 1_555
C3 C4 1_555 1_555
C9 C10 1_555 1_555
C16 C17 1_555 1_555

#END
