
#######################################################################
#
#                 Cambridge Crystallographic Data Centre
#                                CCDC 
#
#######################################################################
#
# If this CIF has been generated from an entry in the Cambridge 
# Structural Database, then it will include bibliographic, chemical, 
# crystal, experimental, refinement or atomic coordinate data resulting 
# from the CCDC's data processing and validation procedures.
#
#######################################################################

data_PIZTOI
_chemical_formula_moiety         'C22 H24 Br2 N1 O2 P1'
_chemical_name_systematic        
2,6-Dibromo-N,N-dimethyl-8,9,10,11,12,13,14,15-octahydrodinaphtho(2,1-d:1',2'-f)(1,3,2)dioxaphosphepin-4-amine
_symmetry_cell_setting           monoclinic
_symmetry_space_group_name_H-M   'P 21'
_symmetry_Int_Tables_number      4
_space_group_name_Hall           'P 2yb'
loop_
_symmetry_equiv_pos_site_id
_symmetry_equiv_pos_as_xyz
1 x,y,z
2 -x,1/2+y,-z
_cell_length_a                   9.4482(6)
_cell_length_b                   7.7201(3)
_cell_length_c                   15.4135(9)
_cell_angle_alpha                90
_cell_angle_beta                 107.769(5)
_cell_angle_gamma                90
_cell_volume                     1070.64
_exptl_crystal_colour            colorless
_exptl_crystal_description       prism
_chemical_melting_point          191-194deg.C
_cell_formula_units_Z            2
loop_
_atom_site_label
_atom_site_type_symbol
_atom_site_fract_x
_atom_site_fract_y
_atom_site_fract_z
C1 C 0.9128(3) 0.0888(4) 0.7701(2)
C2 C 1.0501(3) 0.0549(5) 0.8343(2)
C3 C 1.0624(3) 0.0271(5) 0.9231(2)
H1 H 1.1577 0.0050 0.9651
C4 C 0.9376(3) 0.0303(5) 0.9545(2)
C5 C 0.9579(4) -0.0013(5) 1.0534(2)
H2 H 1.0304 0.0840 1.0896
H3 H 1.0014 -0.1180 1.0695
C6 C 0.8177(4) 0.0105(6) 1.0809(3)
H4 H 0.8309 -0.0554 1.1379
H5 H 0.7983 0.1331 1.0925
C7 C 0.6871(4) -0.0615(6) 1.0068(3)
H6 H 0.5976 -0.0602 1.0273
H7 H 0.7076 -0.1830 0.9940
C8 C 0.6589(3) 0.0461(6) 0.9204(2)
H8 H 0.6246 0.1630 0.9312
H9 H 0.5790 -0.0088 0.8709
C9 C 0.7980(3) 0.0629(5) 0.8908(2)
C10 C 0.7872(3) 0.0975(4) 0.8009(2)
C11 C 0.6416(3) 0.1398(4) 0.7310(2)
C12 C 0.5586(3) 0.2866(5) 0.7384(2)
C13 C 0.6239(4) 0.4265(4) 0.8064(3)
H10 H 0.7334 0.4267 0.8201
H11 H 0.6009 0.4022 0.8637
C14 C 0.5634(4) 0.6028(5) 0.7709(4)
H14 H 0.5896 0.6304 0.7150
H15 H 0.6075 0.6926 0.8171
C15 C 0.3961(4) 0.6011(8) 0.7502(4)
H16 H 0.3706 0.5728 0.8063
H17 H 0.3557 0.7174 0.7294
C18 C 0.3266(4) 0.4689(5) 0.6773(3)
H22 H 0.2310 0.4314 0.6851
H23 H 0.3037 0.5266 0.6173
C19 C 0.4178(3) 0.3097(4) 0.6754(2)
C20 C 0.3638(3) 0.1885(5) 0.6068(2)
H26 H 0.2654 0.1996 0.5667
C21 C 0.4510(3) 0.0527(5) 0.5960(2)
C22 C 0.5925(3) 0.0302(4) 0.6565(2)
C23 C 0.9377(4) -0.3253(5) 0.6974(3)
H27 H 0.8648 -0.2996 0.7292
H28 H 1.0383 -0.3096 0.7393
H29 H 0.9253 -0.4454 0.6757
C24 C 1.0186(4) -0.2362(6) 0.5678(3)
H30 H 0.9966 -0.1532 0.5173
H31 H 1.0078 -0.3544 0.5435
H32 H 1.1207 -0.2187 0.6073
N1 N 0.9152(3) -0.2095(4) 0.6206(2)
O1 O 0.8986(2) 0.1156(3) 0.68038(17)
O2 O 0.6855(2) -0.0988(3) 0.64324(14)
P1 P 0.81667(9) -0.03012(13) 0.59983(6)
Br1 Br 1.22230(3) 0.05132(7) 0.79503(3)
Br2 Br 0.37901(4) -0.09977(7) 0.49577(3)
H12? H 0.7142 0.4707 0.7939
H13? H 0.6562 0.3731 0.8677
C16? C 0.5260(15) 0.5799(16) 0.8096(7)
H18? H 0.5892 0.6815 0.8349
H19? H 0.4660 0.5531 0.8505
C17? C 0.4236(10) 0.6238(9) 0.7157(7)
H20? H 0.3606 0.7242 0.7196
H21? H 0.4830 0.6552 0.6751
H24? H 0.2604 0.4455 0.7149
H25? H 0.2634 0.4956 0.6147
loop_
_geom_bond_atom_site_label_1
_geom_bond_atom_site_label_2
_geom_bond_site_symmetry_1
_geom_bond_site_symmetry_2
C1 C2 1_555 1_555
C2 C3 1_555 1_555
C3 H1 1_555 1_555
C4 C3 1_555 1_555
C5 C4 1_555 1_555
H2 C5 1_555 1_555
H3 C5 1_555 1_555
C6 C5 1_555 1_555
H4 C6 1_555 1_555
H5 C6 1_555 1_555
C7 C6 1_555 1_555
H6 C7 1_555 1_555
H7 C7 1_555 1_555
C8 C7 1_555 1_555
H8 C8 1_555 1_555
H9 C8 1_555 1_555
C9 C4 1_555 1_555
C10 C1 1_555 1_555
C11 C10 1_555 1_555
C12 C11 1_555 1_555
C13 C12 1_555 1_555
H10 C13 1_555 1_555
H11 C13 1_555 1_555
C14 C13 1_555 1_555
H14 C14 1_555 1_555
H15 C14 1_555 1_555
C15 C14 1_555 1_555
H16 C15 1_555 1_555
H17 C15 1_555 1_555
C18 C15 1_555 1_555
H22 C18 1_555 1_555
H23 C18 1_555 1_555
C19 C12 1_555 1_555
C20 C19 1_555 1_555
H26 C20 1_555 1_555
C21 C20 1_555 1_555
C22 C11 1_555 1_555
C23 H27 1_555 1_555
H28 C23 1_555 1_555
H29 C23 1_555 1_555
C24 H30 1_555 1_555
H31 C24 1_555 1_555
H32 C24 1_555 1_555
N1 C23 1_555 1_555
O1 C1 1_555 1_555
O2 C22 1_555 1_555
P1 N1 1_555 1_555
Br1 C2 1_555 1_555
Br2 C21 1_555 1_555
C8 C9 1_555 1_555
C9 C10 1_555 1_555
C18 C19 1_555 1_555
C21 C22 1_555 1_555
C24 N1 1_555 1_555
O1 P1 1_555 1_555
O2 P1 1_555 1_555

#END
