
#######################################################################
#
#                 Cambridge Crystallographic Data Centre
#                                CCDC 
#
#######################################################################
#
# If this CIF has been generated from an entry in the Cambridge 
# Structural Database, then it will include bibliographic, chemical, 
# crystal, experimental, refinement or atomic coordinate data resulting 
# from the CCDC's data processing and validation procedures.
#
#######################################################################

data_PIZWUQ
_chemical_formula_moiety         'C19 H21 Cl2 N1'
_chemical_name_systematic        
3,3-Dichloro-1-isopropyl-4-(4-methylphenyl)-2-phenylazetidine
_symmetry_cell_setting           monoclinic
_symmetry_space_group_name_H-M   'P 21/c'
_symmetry_Int_Tables_number      14
_space_group_name_Hall           '-P 2ybc'
loop_
_symmetry_equiv_pos_site_id
_symmetry_equiv_pos_as_xyz
1 x,y,z
2 -x,1/2+y,1/2-z
3 -x,-y,-z
4 x,1/2-y,1/2+z
_cell_length_a                   5.925(2)
_cell_length_b                   16.225(8)
_cell_length_c                   18.739(10)
_cell_angle_alpha                90
_cell_angle_beta                 94.95(4)
_cell_angle_gamma                90
_cell_volume                     1794.72
_cell_formula_units_Z            4
_exptl_crystal_recrystallization_method pentane/ether
loop_
_atom_site_label
_atom_site_type_symbol
_atom_site_fract_x
_atom_site_fract_y
_atom_site_fract_z
N1 N 0.8809(5) 0.7868(2) 0.9140(2)
C1 C 0.9035(6) 0.7165(2) 0.8647(2)
C2 C 0.8227(6) 0.7745(2) 0.8022(2)
C3 C 0.8949(6) 0.8459(2) 0.8542(2)
C4 C 1.0580(7) 0.7946(2) 0.9736(2)
C5 C 1.0325(9) 0.8750(3) 1.0118(3)
C6 C 1.0496(10) 0.7227(3) 1.0241(3)
Cl1 Cl 0.9684(2) 0.7661(1) 0.7243(1)
Cl2 Cl 0.5301(2) 0.7703(1) 0.7773(1)
C7 C 0.7530(6) 0.9227(2) 0.8524(2)
C8 C 0.5685(7) 0.9308(2) 0.8923(3)
C9 C 0.4357(8) 1.0008(3) 0.8861(3)
C10 C 0.4865(9) 1.0630(3) 0.8410(3)
C11 C 0.6691(9) 1.0563(3) 0.8012(3)
C12 C 0.8045(8) 0.9868(2) 0.8079(2)
C13 C 0.7763(6) 0.6387(2) 0.8758(2)
C14 C 0.5806(7) 0.6374(2) 0.9116(2)
C15 C 0.4609(7) 0.5645(3) 0.9164(2)
C16 C 0.5284(7) 0.4929(2) 0.8864(2)
C17 C 0.7243(8) 0.4938(3) 0.8514(2)
C18 C 0.8465(7) 0.5656(2) 0.8470(2)
C19 C 0.3906(9) 0.4156(3) 0.8899(3)
H1 H 1.0643(6) 0.7037(2) 0.8623(2)
H2 H 1.0536(6) 0.8603(2) 0.8496(2)
H3 H 1.2057(7) 0.7944(2) 0.9537(2)
H4 H 1.0385(9) 0.9196(3) 0.9784(3)
H5 H 1.1532(9) 0.8808(3) 1.0490(3)
H6 H 0.8897(9) 0.8759(3) 1.0323(3)
H7 H 1.0662(10) 0.6723(3) 0.9983(3)
H8 H 0.9068(10) 0.7226(3) 1.0448(3)
H9 H 1.1704(10) 0.7275(3) 1.0615(3)
H10 H 0.5336(7) 0.8889(2) 0.9234(3)
H11 H 0.3110(8) 1.0057(3) 0.9127(3)
H12 H 0.3968(9) 1.1101(3) 0.8374(3)
H13 H 0.7017(9) 1.0982(3) 0.7698(3)
H14 H 0.9317(8) 0.9831(2) 0.7823(2)
H15 H 0.5300(7) 0.6853(2) 0.9323(2)
H16 H 0.3309(7) 0.5643(3) 0.9409(2)
H17 H 0.7740(8) 0.4457(3) 0.8308(2)
H18 H 0.9795(7) 0.5649(2) 0.8240(2)
H19 H 0.4630(9) 0.3717(3) 0.8661(3)
H20 H 0.2419(9) 0.4247(3) 0.8667(3)
H21 H 0.3790(9) 0.4009(3) 0.9390(3)
loop_
_geom_bond_atom_site_label_1
_geom_bond_atom_site_label_2
_geom_bond_site_symmetry_1
_geom_bond_site_symmetry_2
N1 C1 1_555 1_555
C1 C2 1_555 1_555
C2 C3 1_555 1_555
C3 N1 1_555 1_555
C4 N1 1_555 1_555
C5 C4 1_555 1_555
C6 C4 1_555 1_555
Cl1 C2 1_555 1_555
Cl2 C2 1_555 1_555
C7 C3 1_555 1_555
C8 C7 1_555 1_555
C9 C8 1_555 1_555
C10 C9 1_555 1_555
C11 C10 1_555 1_555
C12 C7 1_555 1_555
C13 C1 1_555 1_555
C14 C13 1_555 1_555
C15 C14 1_555 1_555
C16 C15 1_555 1_555
C17 C16 1_555 1_555
C18 C13 1_555 1_555
C19 C16 1_555 1_555
H1 C1 1_555 1_555
H2 C3 1_555 1_555
H3 C4 1_555 1_555
H4 C5 1_555 1_555
H5 C5 1_555 1_555
H6 C5 1_555 1_555
H7 C6 1_555 1_555
H8 C6 1_555 1_555
H9 C6 1_555 1_555
H10 C8 1_555 1_555
H11 C9 1_555 1_555
H12 C10 1_555 1_555
H13 C11 1_555 1_555
H14 C12 1_555 1_555
H15 C14 1_555 1_555
H16 C15 1_555 1_555
H17 C17 1_555 1_555
H18 C18 1_555 1_555
H19 C19 1_555 1_555
H20 C19 1_555 1_555
H21 C19 1_555 1_555
C11 C12 1_555 1_555
C17 C18 1_555 1_555

#END
