
#######################################################################
#
#                 Cambridge Crystallographic Data Centre
#                                CCDC 
#
#######################################################################
#
# If this CIF has been generated from an entry in the Cambridge 
# Structural Database, then it will include bibliographic, chemical, 
# crystal, experimental, refinement or atomic coordinate data resulting 
# from the CCDC's data processing and validation procedures.
#
#######################################################################

data_PIZYEC
_chemical_formula_moiety         'C20 H20 Cl2 N2'
_chemical_name_systematic        
3,3-Dichloro-2-cyano-1-isopropyl-4-(4-methylphenyl)-2-phenylazetidine
_symmetry_cell_setting           monoclinic
_symmetry_space_group_name_H-M   'P 21/n'
_symmetry_Int_Tables_number      14
_space_group_name_Hall           '-P 2yn'
loop_
_symmetry_equiv_pos_site_id
_symmetry_equiv_pos_as_xyz
1 x,y,z
2 1/2-x,1/2+y,1/2-z
3 -x,-y,-z
4 1/2+x,1/2-y,1/2+z
_cell_length_a                   10.897(7)
_cell_length_b                   14.379(3)
_cell_length_c                   12.105(11)
_cell_angle_alpha                90
_cell_angle_beta                 92.40(6)
_cell_angle_gamma                90
_cell_volume                     1895.04
_cell_formula_units_Z            4
_exptl_crystal_recrystallization_method pentane/ether
loop_
_atom_site_label
_atom_site_type_symbol
_atom_site_fract_x
_atom_site_fract_y
_atom_site_fract_z
N1 N 0.3506(2) 0.2824(1) 0.2512(2)
C1 C 0.3736(2) 0.1861(2) 0.2915(2)
C2 C 0.3190(2) 0.2154(2) 0.4023(2)
C3 C 0.2609(2) 0.3011(2) 0.3373(2)
C4 C 0.3093(2) 0.2932(2) 0.1342(2)
C5 C 0.2745(4) 0.3919(3) 0.1096(3)
C6 C 0.4100(3) 0.2609(3) 0.0611(3)
Cl1 Cl 0.2157(1) 0.1361(1) 0.4586(1)
Cl2 Cl 0.4275(1) 0.2481(1) 0.5059(1)
C7 C 0.2665(2) 0.3958(2) 0.3916(2)
C8 C 0.1779(3) 0.4225(2) 0.4630(2)
C9 C 0.1870(4) 0.5063(3) 0.5176(3)
C10 C 0.2834(4) 0.5653(2) 0.4995(3)
C11 C 0.3705(3) 0.5403(2) 0.4289(3)
C12 C 0.3628(3) 0.4551(2) 0.3746(2)
C13 C 0.5021(2) 0.1489(2) 0.2918(2)
C14 C 0.6033(2) 0.2058(2) 0.2821(2)
C15 C 0.7198(2) 0.1687(2) 0.2830(2)
C16 C 0.7392(2) 0.0745(2) 0.2966(2)
C17 C 0.6386(3) 0.0176(2) 0.3072(2)
C18 C 0.5207(2) 0.0548(2) 0.3034(2)
C19 C 0.8671(3) 0.0332(4) 0.2979(4)
C20 C 0.1324(2) 0.2796(2) 0.3008(2)
N2 N 0.0348(2) 0.2662(2) 0.2695(2)
H1 H 0.3190(18) 0.1375(14) 0.2548(17)
H2 H 0.2396(22) 0.2503(15) 0.1202(19)
H3 H 0.2428(26) 0.3932(20) 0.0431(27)
H4 H 0.2061(38) 0.4168(27) 0.1534(33)
H5 H 0.3389(43) 0.4365(35) 0.1319(42)
H6 H 0.4722(26) 0.3007(19) 0.0688(22)
H7 H 0.4384(26) 0.1959(23) 0.0767(24)
H8 H 0.3829(28) 0.2656(19) -0.0145(29)
H9 H 0.1210(28) 0.3847(21) 0.4713(26)
H10 H 0.1342(34) 0.5180(25) 0.5684(31)
H11 H 0.2904(32) 0.6209(27) 0.5398(32)
H12 H 0.4371(32) 0.5755(25) 0.4124(30)
H13 H 0.4196(24) 0.4397(19) 0.3216(23)
H14 H 0.5893(22) 0.2692(18) 0.2729(21)
H15 H 0.7833(28) 0.2105(21) 0.2718(25)
H16 H 0.6458(26) -0.0492(23) 0.3096(24)
H17 H 0.4578(26) 0.0124(19) 0.3098(23)
H18 H 0.8916(40) 0.0298(29) 0.2290(39)
H19 H 0.8947(57) 0.0034(39) 0.3660(50)
H20 H 0.9202(51) 0.0750(40) 0.2994(51)
loop_
_geom_bond_atom_site_label_1
_geom_bond_atom_site_label_2
_geom_bond_site_symmetry_1
_geom_bond_site_symmetry_2
N1 C1 1_555 1_555
C1 C2 1_555 1_555
C2 C3 1_555 1_555
C3 N1 1_555 1_555
C4 N1 1_555 1_555
C5 C4 1_555 1_555
C6 C4 1_555 1_555
Cl1 C2 1_555 1_555
Cl2 C2 1_555 1_555
C7 C3 1_555 1_555
C8 C7 1_555 1_555
C9 C8 1_555 1_555
C10 C9 1_555 1_555
C11 C10 1_555 1_555
C12 C7 1_555 1_555
C13 C1 1_555 1_555
C14 C13 1_555 1_555
C15 C14 1_555 1_555
C16 C15 1_555 1_555
C17 C16 1_555 1_555
C18 C13 1_555 1_555
C19 C16 1_555 1_555
C20 C3 1_555 1_555
N2 C20 1_555 1_555
H1 C1 1_555 1_555
H2 C4 1_555 1_555
H3 C5 1_555 1_555
H4 C5 1_555 1_555
H5 C5 1_555 1_555
H6 C6 1_555 1_555
H7 C6 1_555 1_555
H8 C6 1_555 1_555
H9 C8 1_555 1_555
H10 C9 1_555 1_555
H11 C10 1_555 1_555
H12 C11 1_555 1_555
H13 C12 1_555 1_555
H14 C14 1_555 1_555
H15 C15 1_555 1_555
H16 C17 1_555 1_555
H17 C18 1_555 1_555
H18 C19 1_555 1_555
H19 C19 1_555 1_555
H20 C19 1_555 1_555
C11 C12 1_555 1_555
C17 C18 1_555 1_555

#END
