
#######################################################################
#
#                 Cambridge Crystallographic Data Centre
#                                CCDC 
#
#######################################################################
#
# If this CIF has been generated from an entry in the Cambridge 
# Structural Database, then it will include bibliographic, chemical, 
# crystal, experimental, refinement or atomic coordinate data resulting 
# from the CCDC's data processing and validation procedures.
#
#######################################################################

data_PIZZIJ
_chemical_formula_moiety         'C19 H19 N1 O5'
_chemical_name_systematic        
'diethyl 5-((2-hydroxybenzylidene)amino)isophthalate'
_symmetry_cell_setting           orthorhombic
_symmetry_space_group_name_H-M   'P c a 21'
_symmetry_Int_Tables_number      29
_space_group_name_Hall           'P 2c -2ac'
loop_
_symmetry_equiv_pos_site_id
_symmetry_equiv_pos_as_xyz
1 x,y,z
2 -x,-y,1/2+z
3 1/2-x,y,1/2+z
4 1/2+x,-y,z
_cell_length_a                   7.616(2)
_cell_length_b                   13.133(5)
_cell_length_c                   16.922(6)
_cell_angle_alpha                90
_cell_angle_beta                 90
_cell_angle_gamma                90
_cell_volume                     1692.55
_exptl_crystal_colour            yellow
_exptl_crystal_description       Block
_cell_formula_units_Z            4
loop_
_atom_site_label
_atom_site_type_symbol
_atom_site_fract_x
_atom_site_fract_y
_atom_site_fract_z
O1 O 0.82220(19) 0.70694(10) 0.24892(8)
O2 O 0.68910(17) 0.76085(9) 0.13751(8)
O3 O 0.4736(2) 0.51568(10) -0.06266(8)
O4 O 0.44924(16) 0.35365(9) -0.02137(8)
O5 O 0.84952(19) 0.12825(11) 0.24784(9)
H1 H 0.8323 0.1842 0.2250
N1 N 0.7476(2) 0.31667(11) 0.23330(10)
C1 C 0.7090(2) 0.40378(13) 0.18671(11)
C2 C 0.7419(2) 0.50296(13) 0.21093(12)
H2 H 0.7932 0.5156 0.2611
C3 C 0.6990(2) 0.58402(13) 0.16111(11)
C4 C 0.6213(2) 0.56667(14) 0.08812(12)
H3 H 0.5900 0.6223 0.0551
C5 C 0.5898(3) 0.46718(14) 0.06373(11)
C6 C 0.6362(2) 0.38614(14) 0.11206(12)
H4 H 0.6185 0.3183 0.0943
C7 C 0.7439(3) 0.68931(14) 0.18837(13)
C8 C 0.7300(3) 0.86577(13) 0.15881(14)
H5 H 0.7083 0.8756 0.2160
H6 H 0.6509 0.9122 0.1295
C9 C 0.9177(3) 0.89270(15) 0.14043(16)
H7 H 0.9399 0.9636 0.1555
H8 H 0.9391 0.8842 0.0837
H9 H 0.9964 0.8478 0.1702
C10 C 0.5004(2) 0.44996(14) -0.01377(12)
C11 C 0.3485(3) 0.32719(14) -0.09135(11)
H10 H 0.4219 0.3334 -0.1394
H11 H 0.2455 0.3726 -0.0968
C12 C 0.2906(3) 0.21890(14) -0.07981(13)
H12 H 0.2214 0.1970 -0.1256
H13 H 0.2187 0.2140 -0.0319
H14 H 0.3940 0.1750 -0.0744
C13 C 0.7038(2) 0.31542(14) 0.30643(12)
H15 H 0.6526 0.3746 0.3290
C14 C 0.7300(2) 0.22674(13) 0.35572(12)
C15 C 0.6816(3) 0.22946(16) 0.43531(13)
H16 H 0.6349 0.2905 0.4568
C16 C 0.7006(3) 0.14474(18) 0.48353(14)
H17 H 0.6680 0.1477 0.5377
C17 C 0.7679(3) 0.05566(17) 0.45146(15)
H18 H 0.7804 -0.0028 0.4840
C18 C 0.8171(3) 0.05066(16) 0.37303(15)
H19 H 0.8632 -0.0109 0.3521
C19 C 0.7992(3) 0.13559(15) 0.32457(12)
loop_
_geom_bond_atom_site_label_1
_geom_bond_atom_site_label_2
_geom_bond_site_symmetry_1
_geom_bond_site_symmetry_2
O1 C7 1_555 1_555
O2 C7 1_555 1_555
O3 C10 1_555 1_555
O4 C10 1_555 1_555
O5 H1 1_555 1_555
N1 C1 1_555 1_555
C1 C2 1_555 1_555
C2 H2 1_555 1_555
C3 C2 1_555 1_555
C4 C3 1_555 1_555
H3 C4 1_555 1_555
C5 C4 1_555 1_555
C6 C1 1_555 1_555
H4 C6 1_555 1_555
C7 C3 1_555 1_555
C8 O2 1_555 1_555
H5 C8 1_555 1_555
H6 C8 1_555 1_555
C9 C8 1_555 1_555
H7 C9 1_555 1_555
H8 C9 1_555 1_555
H9 C9 1_555 1_555
C10 C5 1_555 1_555
C11 O4 1_555 1_555
H10 C11 1_555 1_555
H11 C11 1_555 1_555
C12 C11 1_555 1_555
H12 C12 1_555 1_555
H13 C12 1_555 1_555
H14 C12 1_555 1_555
C13 N1 1_555 1_555
H15 C13 1_555 1_555
C14 C13 1_555 1_555
C15 C14 1_555 1_555
H16 C15 1_555 1_555
C16 C15 1_555 1_555
H17 C16 1_555 1_555
C17 C16 1_555 1_555
H18 C17 1_555 1_555
C18 C17 1_555 1_555
H19 C18 1_555 1_555
C19 O5 1_555 1_555
C5 C6 1_555 1_555
C14 C19 1_555 1_555
C18 C19 1_555 1_555

#END
