
#######################################################################
#
#                 Cambridge Crystallographic Data Centre
#                                CCDC 
#
#######################################################################
#
# If this CIF has been generated from an entry in the Cambridge 
# Structural Database, then it will include bibliographic, chemical, 
# crystal, experimental, refinement or atomic coordinate data resulting 
# from the CCDC's data processing and validation procedures.
#
#######################################################################

data_PMINYL10
_chemical_formula_moiety         'C29 H22 N2 O1'
_chemical_name_systematic        
2-Phenyl-2-(1-methyl-2-phenyl-3-indolyl)-3-indolinone
_symmetry_cell_setting           monoclinic
_symmetry_space_group_name_H-M   'P 21/n'
_symmetry_Int_Tables_number      14
_space_group_name_Hall           '-P 2yn'
loop_
_symmetry_equiv_pos_site_id
_symmetry_equiv_pos_as_xyz
1 x,y,z
2 1/2-x,1/2+y,1/2-z
3 -x,-y,-z
4 1/2+x,1/2-y,1/2+z
_cell_length_a                   14.93
_cell_length_b                   12.05
_cell_length_c                   12.17
_cell_angle_alpha                90
_cell_angle_beta                 99.3
_cell_angle_gamma                90
_cell_volume                     2160.68
_cell_formula_units_Z            4
loop_
_atom_site_label
_atom_site_type_symbol
_atom_site_fract_x
_atom_site_fract_y
_atom_site_fract_z
C12 C -0.22140 0.34480 0.08300
C13 C -0.26880 0.38740 -0.01520
C14 C -0.25480 0.34190 -0.11840
C15 C -0.19630 0.25440 -0.12310
C16 C -0.14920 0.21100 -0.02180
C17 C -0.16320 0.25510 0.08060
C18 C -0.15300 0.39020 0.28160
C19 C -0.14110 0.35610 0.39150
C2 C -0.23820 0.38990 0.19730
C21 C -0.00220 0.40230 0.35780
C22 C 0.09110 0.42500 0.36590
C23 C 0.12000 0.47580 0.27550
C24 C 0.05800 0.50300 0.17670
C25 C -0.03410 0.47580 0.16810
C26 C -0.06520 0.42440 0.25890
C3 C -0.31700 0.31750 0.22940
C37 C -0.21010 0.32400 0.46120
C38 C -0.21020 0.21860 0.50920
C39 C -0.28040 0.18970 0.57020
C4 C -0.39500 0.38880 0.22790
C40 C -0.34850 0.26600 0.58060
C41 C -0.34780 0.37200 0.53360
C42 C -0.27830 0.40070 0.47340
C43 C -0.00640 0.32590 0.54910
C5 C -0.48280 0.36570 0.25200
C6 C -0.54360 0.45500 0.24900
C7 C -0.51740 0.56310 0.21890
C8 C -0.42990 0.58670 0.19610
C9 C -0.36890 0.49710 0.20230
N1 N -0.28040 0.50240 0.18270
N20 N -0.04920 0.36110 0.43650
O27 O -0.31090 0.21720 0.24480
loop_
_geom_bond_atom_site_label_1
_geom_bond_atom_site_label_2
_geom_bond_site_symmetry_1
_geom_bond_site_symmetry_2
C12 C13 1_555 1_555
C13 C14 1_555 1_555
C14 C15 1_555 1_555
C15 C16 1_555 1_555
C16 C17 1_555 1_555
C17 C12 1_555 1_555
C18 C19 1_555 1_555
C19 C37 1_555 1_555
C2 C12 1_555 1_555
C21 C22 1_555 1_555
C22 C23 1_555 1_555
C23 C24 1_555 1_555
C24 C25 1_555 1_555
C25 C26 1_555 1_555
C26 C18 1_555 1_555
C3 C2 1_555 1_555
C37 C38 1_555 1_555
C38 C39 1_555 1_555
C39 C40 1_555 1_555
C4 C3 1_555 1_555
C40 C41 1_555 1_555
C41 C42 1_555 1_555
C42 C37 1_555 1_555
C43 N20 1_555 1_555
C5 C4 1_555 1_555
C6 C5 1_555 1_555
C7 C6 1_555 1_555
C8 C7 1_555 1_555
C9 C4 1_555 1_555
N1 C2 1_555 1_555
N20 C19 1_555 1_555
O27 C3 1_555 1_555
C18 C2 1_555 1_555
C21 C26 1_555 1_555
C21 N20 1_555 1_555
C8 C9 1_555 1_555
C9 N1 1_555 1_555

#END
