
#######################################################################
#
#                 Cambridge Crystallographic Data Centre
#                                CCDC 
#
#######################################################################
#
# If this CIF has been generated from an entry in the Cambridge 
# Structural Database, then it will include bibliographic, chemical, 
# crystal, experimental, refinement or atomic coordinate data resulting 
# from the CCDC's data processing and validation procedures.
#
#######################################################################

data_PMTHTZ
_chemical_formula_moiety         'C17 H13 N3 S1'
_chemical_name_systematic        
4,6-Diphenyl-2-methyl-thieno(3,4-d)-1,2,3-triazole
_symmetry_cell_setting           monoclinic
_symmetry_space_group_name_H-M   'P 21/c'
_symmetry_Int_Tables_number      14
_space_group_name_Hall           '-P 2ybc'
loop_
_symmetry_equiv_pos_site_id
_symmetry_equiv_pos_as_xyz
1 x,y,z
2 -x,1/2+y,1/2-z
3 -x,-y,-z
4 x,1/2-y,1/2+z
_cell_length_a                   12.043(2)
_cell_length_b                   5.725(1)
_cell_length_c                   21.409(3)
_cell_angle_alpha                90
_cell_angle_beta                 104.95
_cell_angle_gamma                90
_cell_volume                     1426.11
_exptl_crystal_colour            orange
_cell_formula_units_Z            4
loop_
_atom_site_label
_atom_site_type_symbol
_atom_site_fract_x
_atom_site_fract_y
_atom_site_fract_z
S1 S 0.04377 -0.27063 0.69639
N1 N 0.02941 0.25000 0.57781
N2 N 0.13427 0.34120 0.59648
N3 N 0.21047 0.24990 0.64673
C1 C -0.03465 -0.10900 0.63146
C2 C 0.03672 0.07180 0.62131
C3 C 0.14805 0.07170 0.66370
C4 C 0.16890 -0.10910 0.70899
C5 C 0.16524 0.54180 0.56280
C6 C -0.15009 -0.16990 0.59499
C7 C -0.20440 -0.37530 0.60629
C8 C -0.31485 -0.42720 0.56992
C9 C -0.37185 -0.27770 0.52185
C10 C -0.31867 -0.07430 0.51009
C11 C -0.20961 -0.02120 0.54604
C12 C 0.27533 -0.17180 0.75613
C13 C 0.28749 -0.38040 0.79124
C14 C 0.39284 -0.43610 0.83371
C15 C 0.48528 -0.28940 0.84117
C16 C 0.47368 -0.08210 0.80728
C17 C 0.37019 -0.02310 0.76546
H1 H 0.20400 0.49800 0.53600
H2 H 0.20800 0.65400 0.58900
H3 H 0.09800 0.62300 0.53700
H4 H -0.16400 -0.47400 0.63900
H5 H -0.35200 -0.56400 0.57900
H6 H -0.45000 -0.31400 0.49300
H7 H -0.35700 0.03500 0.47700
H8 H -0.18000 0.11500 0.53800
H9 H 0.22600 -0.48800 0.78500
H10 H 0.40200 -0.58500 0.85600
H11 H 0.56200 -0.32800 0.87200
H12 H 0.53600 0.01700 0.81100
H13 H 0.36100 0.11300 0.74200
loop_
_geom_bond_atom_site_label_1
_geom_bond_atom_site_label_2
_geom_bond_site_symmetry_1
_geom_bond_site_symmetry_2
S1 C1 1_555 1_555
N1 N2 1_555 1_555
N2 N3 1_555 1_555
N3 C3 1_555 1_555
C1 C2 1_555 1_555
C2 N1 1_555 1_555
C3 C2 1_555 1_555
C4 S1 1_555 1_555
C5 N2 1_555 1_555
C6 C1 1_555 1_555
C7 C6 1_555 1_555
C8 C7 1_555 1_555
C9 C8 1_555 1_555
C10 C9 1_555 1_555
C11 C6 1_555 1_555
C12 C4 1_555 1_555
C13 C12 1_555 1_555
C14 C13 1_555 1_555
C15 C14 1_555 1_555
C16 C15 1_555 1_555
C17 C12 1_555 1_555
H1 C5 1_555 1_555
H2 C5 1_555 1_555
H3 C5 1_555 1_555
H4 C7 1_555 1_555
H5 C8 1_555 1_555
H6 C9 1_555 1_555
H7 C10 1_555 1_555
H8 C11 1_555 1_555
H9 C13 1_555 1_555
H10 C14 1_555 1_555
H11 C15 1_555 1_555
H12 C16 1_555 1_555
H13 C17 1_555 1_555
C3 C4 1_555 1_555
C10 C11 1_555 1_555
C16 C17 1_555 1_555

#END
