
#######################################################################
#
#                 Cambridge Crystallographic Data Centre
#                                CCDC 
#
#######################################################################
#
# If this CIF has been generated from an entry in the Cambridge 
# Structural Database, then it will include bibliographic, chemical, 
# crystal, experimental, refinement or atomic coordinate data resulting 
# from the CCDC's data processing and validation procedures.
#
#######################################################################

data_POBGUJ
_chemical_formula_moiety         'C16 H15 N5 O5'
_chemical_name_systematic        
6-(2-(2,4-dinitrophenyl)hydrazinyliden)-2-methylhexahydro-5H-2,5-methanocyclopenta[b]furan-5-carbonitrile
_symmetry_cell_setting           monoclinic
_symmetry_space_group_name_H-M   'C c'
_symmetry_Int_Tables_number      9
_space_group_name_Hall           'C -2yc'
loop_
_symmetry_equiv_pos_site_id
_symmetry_equiv_pos_as_xyz
1 x,y,z
2 x,-y,1/2+z
3 1/2+x,1/2+y,z
4 1/2+x,1/2-y,1/2+z
_cell_length_a                   9.3975(5)
_cell_length_b                   8.1874(4)
_cell_length_c                   21.3155(10)
_cell_angle_alpha                90
_cell_angle_beta                 95.449(3)
_cell_angle_gamma                90
_cell_volume                     1632.63
_exptl_crystal_colour            'dark yellow'
_exptl_crystal_description       plate
_cell_formula_units_Z            4
loop_
_atom_site_label
_atom_site_type_symbol
_atom_site_fract_x
_atom_site_fract_y
_atom_site_fract_z
N1 N 0.2290(2) 0.2041(2) -0.17096(9)
N2 N 0.4356(2) 0.6749(3) -0.26438(10)
N3 N 0.05246(17) 0.4239(2) -0.10325(8)
N4 N -0.01672(17) 0.5314(2) -0.06628(8)
N5 N -0.1736(2) 0.8763(2) -0.00682(12)
O1 O 0.14403(18) 0.13846(18) -0.13760(8)
O2 O 0.3101(2) 0.1233(2) -0.19998(11)
O3 O 0.4947(3) 0.5821(3) -0.29743(15)
O4 O 0.4555(2) 0.8207(2) -0.26479(9)
O5 O 0.00386(15) 0.28219(17) 0.05151(7)
C1 C 0.1463(2) 0.4835(2) -0.14159(9)
C2 C 0.2332(2) 0.3798(2) -0.17547(10)
C3 C 0.3269(2) 0.4432(3) -0.21577(10)
H1 H 0.3820 0.3739 -0.2382
C4 C 0.3372(2) 0.6091(3) -0.22218(10)
C5 C 0.2562(2) 0.7150(3) -0.18892(10)
H2 H 0.2656 0.8274 -0.1934
C6 C 0.1629(2) 0.6533(2) -0.14978(9)
H3 H 0.1088 0.7250 -0.1279
C7 C -0.0855(2) 0.4672(2) -0.02429(9)
C8 C -0.1036(2) 0.2935(2) -0.00141(9)
H4 H -0.0953 0.2099 -0.0338
C9 C -0.2511(2) 0.2950(2) 0.02668(11)
H5 H -0.3176 0.2117 0.0084
C10 C -0.2063(2) 0.2692(3) 0.09695(12)
H6 H -0.2732 0.3191 0.1231
H7 H -0.1958 0.1542 0.1074
C11 C -0.0629(2) 0.3572(3) 0.10272(10)
C12 C -0.0843(2) 0.5408(2) 0.08801(10)
H8 H 0.0081 0.5945 0.0901
H9 H -0.1389 0.5902 0.1195
C13 C -0.1644(2) 0.5669(2) 0.02123(9)
C14 C -0.3069(2) 0.4710(3) 0.01635(11)
H10 H -0.3668 0.5038 0.0488
H11 H -0.3595 0.4840 -0.0247
C15 C 0.0346(3) 0.3297(4) 0.16250(12)
H12 H 0.0491 0.2147 0.1690
H13 H -0.0085 0.3753 0.1977
H14 H 0.1249 0.3819 0.1588
C16 C -0.1726(2) 0.7402(3) 0.00521(11)
H15 H 0.049(3) 0.313(3) -0.0930(13)
loop_
_geom_bond_atom_site_label_1
_geom_bond_atom_site_label_2
_geom_bond_site_symmetry_1
_geom_bond_site_symmetry_2
N1 O1 1_555 1_555
N2 O3 1_555 1_555
N3 N4 1_555 1_555
N4 C7 1_555 1_555
N5 C16 1_555 1_555
O2 N1 1_555 1_555
O4 N2 1_555 1_555
O5 C8 1_555 1_555
C1 N3 1_555 1_555
C2 N1 1_555 1_555
C3 C2 1_555 1_555
H1 C3 1_555 1_555
C4 N2 1_555 1_555
C5 C4 1_555 1_555
H2 C5 1_555 1_555
C6 C1 1_555 1_555
H3 C6 1_555 1_555
C7 C8 1_555 1_555
C8 H4 1_555 1_555
C9 C8 1_555 1_555
H5 C9 1_555 1_555
C10 C9 1_555 1_555
H6 C10 1_555 1_555
H7 C10 1_555 1_555
C11 O5 1_555 1_555
C12 C11 1_555 1_555
H8 C12 1_555 1_555
H9 C12 1_555 1_555
C13 C7 1_555 1_555
C14 C9 1_555 1_555
H10 C14 1_555 1_555
H11 C14 1_555 1_555
C15 C11 1_555 1_555
H12 C15 1_555 1_555
H13 C15 1_555 1_555
H14 C15 1_555 1_555
C16 C13 1_555 1_555
H15 N3 1_555 1_555
C1 C2 1_555 1_555
C3 C4 1_555 1_555
C5 C6 1_555 1_555
C10 C11 1_555 1_555
C12 C13 1_555 1_555
C13 C14 1_555 1_555

#END
