
#######################################################################
#
#                 Cambridge Crystallographic Data Centre
#                                CCDC 
#
#######################################################################
#
# If this CIF has been generated from an entry in the Cambridge 
# Structural Database, then it will include bibliographic, chemical, 
# crystal, experimental, refinement or atomic coordinate data resulting 
# from the CCDC's data processing and validation procedures.
#
#######################################################################

data_POBGOD
_chemical_formula_moiety         'C16 H15 N5 O5'
_chemical_name_systematic        
7-(2-(2,4-dinitrophenyl)hydrazinylidene)-6a-methylhexahydro-5H-2,5-methanocyclopenta[b]furan-5-carbonitrile
_symmetry_cell_setting           triclinic
_symmetry_space_group_name_H-M   'P -1'
_symmetry_Int_Tables_number      2
_space_group_name_Hall           '-P 1'
loop_
_symmetry_equiv_pos_site_id
_symmetry_equiv_pos_as_xyz
1 x,y,z
2 -x,-y,-z
_cell_length_a                   9.8144(8)
_cell_length_b                   9.9855(8)
_cell_length_c                   9.9971(8)
_cell_angle_alpha                62.611(4)
_cell_angle_beta                 68.875(4)
_cell_angle_gamma                86.767(4)
_cell_volume                     804.337
_exptl_crystal_colour            yellow
_exptl_crystal_description       plate
_cell_formula_units_Z            2
loop_
_atom_site_label
_atom_site_type_symbol
_atom_site_fract_x
_atom_site_fract_y
_atom_site_fract_z
O1 O 0.28696(16) 0.04234(16) 0.67237(19)
O2 O 0.54323(17) -0.44238(16) 0.81817(19)
O3 O 0.66079(18) -0.62634(16) 0.9209(2)
O4 O 1.1609(2) -0.5437(2) 0.8256(3)
O5 O 1.2690(2) -0.3175(2) 0.7262(3)
N1 N 0.62869(18) -0.01634(16) 0.7178(2)
N2 N 0.6336(2) -0.16695(18) 0.7530(2)
H1 H 0.554(3) -0.227(3) 0.777(3)
N3 N 0.7570(3) 0.3441(2) 0.5986(3)
N4 N 0.6519(2) -0.49046(18) 0.8503(2)
N5 N 1.1608(2) -0.4061(2) 0.7729(3)
C1 C 0.5048(2) 0.0344(2) 0.7304(2)
C2 C 0.3535(2) -0.0483(2) 0.7851(3)
C3 C 0.2628(2) 0.1779(2) 0.6937(3)
C4 C 0.4106(2) 0.2799(2) 0.5916(3)
H2 H 0.4009 0.3830 0.5751
H3 H 0.4555 0.2817 0.4869
C5 C 0.4982(2) 0.1985(2) 0.7012(2)
C6 C 0.1333(3) 0.2415(3) 0.6481(3)
H4 H 0.1523 0.2607 0.5393
H5 H 0.1193 0.3348 0.6541
H6 H 0.0461 0.1694 0.7220
C7 C 0.6450(3) 0.2786(2) 0.6436(3)
C8 C 0.2491(3) -0.0493(3) 0.9397(3)
C9 C 0.2455(3) 0.1221(2) 0.8742(3)
C10 C 0.3872(3) 0.1921(3) 0.8613(3)
C11 C 0.7613(2) -0.2262(2) 0.7559(2)
C12 C 0.7739(2) -0.3818(2) 0.8031(2)
C13 C 0.9049(2) -0.4397(2) 0.8080(2)
H7 H 0.9113 -0.5425 0.8399
C14 C 1.0243(2) -0.3437(2) 0.7653(3)
C15 C 1.0175(2) -0.1898(2) 0.7168(3)
H8 H 1.1003 -0.1260 0.6870
C16 C 0.8888(2) -0.1327(2) 0.7130(3)
H9 H 0.8846 -0.0297 0.6815
H10 H 0.355(2) -0.145(2) 0.789(2)
H11 H 0.281(3) -0.089(3) 1.031(3)
H12 H 0.143(3) -0.108(2) 0.983(3)
H13 H 0.147(2) 0.145(2) 0.935(2)
H14 H 0.416(2) 0.134(2) 0.950(3)
H15 H 0.384(2) 0.300(3) 0.840(3)
loop_
_geom_bond_atom_site_label_1
_geom_bond_atom_site_label_2
_geom_bond_site_symmetry_1
_geom_bond_site_symmetry_2
O1 C2 1_555 1_555
O2 N4 1_555 1_555
O3 N4 1_555 1_555
O4 N5 1_555 1_555
O5 N5 1_555 1_555
N1 N2 1_555 1_555
N2 H1 1_555 1_555
N3 C7 1_555 1_555
N4 C12 1_555 1_555
N5 C14 1_555 1_555
C1 N1 1_555 1_555
C2 C1 1_555 1_555
C3 O1 1_555 1_555
C4 C3 1_555 1_555
H2 C4 1_555 1_555
H3 C4 1_555 1_555
C5 C1 1_555 1_555
C6 C3 1_555 1_555
H4 C6 1_555 1_555
H5 C6 1_555 1_555
H6 C6 1_555 1_555
C7 C5 1_555 1_555
C8 C2 1_555 1_555
C9 C3 1_555 1_555
C10 C5 1_555 1_555
C11 N2 1_555 1_555
C12 C11 1_555 1_555
C13 C12 1_555 1_555
H7 C13 1_555 1_555
C14 C13 1_555 1_555
C15 C14 1_555 1_555
H8 C15 1_555 1_555
C16 C11 1_555 1_555
H9 C16 1_555 1_555
H10 C2 1_555 1_555
H11 C8 1_555 1_555
H12 C8 1_555 1_555
H13 C9 1_555 1_555
H14 C10 1_555 1_555
H15 C10 1_555 1_555
C4 C5 1_555 1_555
C8 C9 1_555 1_555
C9 C10 1_555 1_555
C15 C16 1_555 1_555

#END
