
#######################################################################
#
#                 Cambridge Crystallographic Data Centre
#                                CCDC 
#
#######################################################################
#
# If this CIF has been generated from an entry in the Cambridge 
# Structural Database, then it will include bibliographic, chemical, 
# crystal, experimental, refinement or atomic coordinate data resulting 
# from the CCDC's data processing and validation procedures.
#
#######################################################################

data_POBHOE
_chemical_formula_moiety         
'C15 H34 N1 1+,Br1 1-,C48 H48 N32 O16,12.75(H2 O1)'
_chemical_name_systematic        
'cucurbit(8)uril trimethyl(dodecyl)ammonium clathrate bromide hydrate'
_symmetry_cell_setting           monoclinic
_symmetry_space_group_name_H-M   'P 21'
_symmetry_Int_Tables_number      4
_space_group_name_Hall           'P 2yb'
loop_
_symmetry_equiv_pos_site_id
_symmetry_equiv_pos_as_xyz
1 x,y,z
2 -x,1/2+y,-z
_cell_length_a                   13.464(3)
_cell_length_b                   20.579(4)
_cell_length_c                   15.390(3)
_cell_angle_alpha                90
_cell_angle_beta                 104.00(3)
_cell_angle_gamma                90
_cell_volume                     4137.53
_exptl_crystal_colour            colorless
_exptl_crystal_description       plate
_cell_formula_units_Z            2
loop_
_atom_site_label
_atom_site_type_symbol
_atom_site_fract_x
_atom_site_fract_y
_atom_site_fract_z
Br1 Br -0.57721(4) 0.53002(4) -0.46021(5)
O1 O 0.0726(2) -0.32968(13) 0.00421(17)
O2 O -0.1664(2) -0.10778(14) 0.13639(19)
O3 O -0.0372(3) -0.2727(2) -0.2448(3)
O4 O -0.2540(2) -0.04969(14) -0.10643(17)
O5 O -0.0066(3) -0.17313(18) -0.4734(2)
O6 O -0.1827(2) 0.06544(14) -0.31041(19)
O7 O 0.2058(3) -0.05988(17) -0.5106(2)
O8 O 0.0190(2) 0.17439(16) -0.3645(2)
O9 O 0.4280(2) -0.02509(15) -0.35550(19)
O10 O 0.2574(2) 0.22623(14) -0.2246(2)
O11 O 0.5214(2) -0.07965(13) -0.09951(19)
O12 O 0.3735(2) 0.17349(14) 0.0342(2)
O13 O 0.4834(3) -0.18071(14) 0.1098(2)
O14 O 0.2946(2) 0.06433(14) 0.2262(2)
O15 O 0.3042(2) -0.29242(14) 0.1673(2)
O16 O 0.0711(2) -0.05888(14) 0.26356(18)
N1 N 0.0160(2) -0.29349(15) 0.12741(19)
N2 N -0.0875(2) -0.28451(15) -0.0084(2)
N3 N -0.0720(2) -0.20226(16) 0.1764(2)
N4 N -0.1832(2) -0.19781(16) 0.0438(2)
N5 N -0.1541(2) -0.24828(16) -0.1613(2)
N6 N -0.1675(3) -0.19806(15) -0.2916(2)
N7 N -0.2488(2) -0.16222(16) -0.1093(2)
N8 N -0.2469(2) -0.10785(15) -0.23424(19)
N9 N -0.1401(3) -0.13600(17) -0.4176(2)
N10 N -0.0714(3) -0.06968(19) -0.5005(2)
N11 N -0.2074(2) -0.04269(16) -0.3520(2)
N12 N -0.1410(2) 0.02367(16) -0.4365(2)
N13 N 0.0580(3) 0.00241(19) -0.5332(2)
N14 N 0.2080(3) 0.05309(19) -0.5073(2)
N15 N -0.0153(3) 0.09523(18) -0.4742(2)
N16 N 0.1342(3) 0.14635(18) -0.4481(2)
N17 N 0.3677(3) 0.07765(18) -0.3994(2)
N18 N 0.4694(2) 0.06496(15) -0.2645(2)
N19 N 0.2961(2) 0.17476(16) -0.3454(2)
N20 N 0.4047(2) 0.16572(16) -0.2132(2)
N21 N 0.5343(2) 0.03218(15) -0.11054(19)
N22 N 0.5473(2) -0.01203(14) 0.0231(2)
N23 N 0.4701(2) 0.13164(14) -0.0581(2)
N24 N 0.4864(2) 0.08851(16) 0.0770(2)
N25 N 0.5115(3) -0.07231(15) 0.1461(2)
N26 N 0.4441(3) -0.13535(16) 0.2338(2)
N27 N 0.4442(2) 0.02584(16) 0.1979(2)
N28 N 0.3562(2) -0.03932(15) 0.2670(2)
N29 N 0.3217(2) -0.20973(17) 0.2714(2)
N30 N 0.1728(2) -0.26100(17) 0.2314(2)
N31 N 0.2266(2) -0.11302(17) 0.2950(2)
N32 N 0.0832(2) -0.17031(17) 0.2831(2)
C1 C 0.0070(3) -0.30454(16) 0.0377(2)
C2 C -0.0769(2) -0.26904(17) 0.1454(2)
H1 H -0.1035 -0.2987 0.1860
C3 C -0.1516(3) -0.26512(17) 0.0511(2)
H2 H -0.2113 -0.2950 0.0459
C4 C -0.1429(3) -0.16329(19) 0.1205(2)
C5 C -0.1305(3) -0.30335(18) -0.1009(2)
H3 H -0.0812 -0.3320 -0.1209
H4 H -0.1939 -0.3286 -0.1043
C6 C -0.2705(3) -0.1738(2) -0.0231(2)
H5 H -0.3269 -0.2058 -0.0305
H6 H -0.2942 -0.1328 -0.0013
C7 C -0.1126(3) -0.24322(19) -0.2343(3)
C8 C -0.2496(3) -0.21294(17) -0.1738(2)
H7 H -0.3092 -0.2429 -0.1788
C9 C -0.2555(3) -0.17523(17) -0.2616(2)
H8 H -0.3210 -0.1840 -0.3069
C10 C -0.2500(3) -0.10134(18) -0.1456(2)
C11 C -0.1696(3) -0.19851(19) -0.3854(3)
H9 H -0.2395 -0.2098 -0.4199
H10 H -0.1225 -0.2326 -0.3968
C12 C -0.2793(3) -0.05590(18) -0.2971(2)
H11 H -0.2881 -0.0160 -0.2638
H12 H -0.3466 -0.0671 -0.3367
C13 C -0.0649(4) -0.1300(2) -0.4645(3)
C14 C -0.2092(3) -0.0813(2) -0.4311(2)
H13 H -0.2804 -0.0943 -0.4623
C15 C -0.1614(3) -0.0343(2) -0.4900(3)
H14 H -0.2100 -0.0257 -0.5491
C16 C -0.1766(3) 0.02006(19) -0.3610(2)
C17 C -0.0125(4) -0.0503(2) -0.5641(3)
H15 H 0.0265 -0.0884 -0.5771
H16 H -0.0605 -0.0372 -0.6208
C18 C -0.1221(3) 0.0858(2) -0.4751(3)
H17 H -0.1447 0.1214 -0.4411
H18 H -0.1635 0.0881 -0.5377
C19 C 0.1625(3) -0.0066(2) -0.5153(2)
C20 C 0.0301(3) 0.0702(2) -0.5434(2)
H19 H -0.0128 0.0799 -0.6047
C21 C 0.1357(3) 0.10618(19) -0.5244(2)
H20 H 0.1429 0.1328 -0.5769
C22 C 0.0434(3) 0.1419(2) -0.4230(3)
C23 C 0.3177(3) 0.0611(2) -0.4912(2)
H21 H 0.3321 0.0957 -0.5312
H22 H 0.3476 0.0202 -0.5073
C24 C 0.2081(3) 0.1968(2) -0.4141(3)
H23 H 0.1736 0.2321 -0.3890
H24 H 0.2327 0.2152 -0.4646
C25 C 0.4221(3) 0.0329(2) -0.3411(2)
C26 C 0.3839(3) 0.14351(19) -0.3670(2)
H25 H 0.4144 0.1711 -0.4073
C27 C 0.4577(3) 0.13545(18) -0.2737(2)
H26 H 0.5248 0.1571 -0.2709
C28 C 0.3123(3) 0.19168(17) -0.2581(3)
C29 C 0.5521(3) 0.03503(18) -0.1988(2)
H27 H 0.5626 -0.0097 -0.2186
H28 H 0.6158 0.0597 -0.1961
C30 C 0.4551(3) 0.18465(16) -0.1222(2)
H29 H 0.5226 0.2037 -0.1222
H30 H 0.4138 0.2188 -0.1024
C31 C 0.5330(3) -0.02528(18) -0.0663(2)
C32 C 0.5550(2) 0.08698(16) -0.0500(2)
H31 H 0.6190 0.1102 -0.0541
C33 C 0.5660(2) 0.05570(17) 0.0436(2)
H32 H 0.6356 0.0632 0.0835
C34 C 0.4365(3) 0.13478(17) 0.0194(2)
C35 C 0.5812(3) -0.06222(18) 0.0894(3)
H33 H 0.5890 -0.1035 0.0586
H34 H 0.6492 -0.0502 0.1273
C36 C 0.4821(3) 0.08676(17) 0.1709(2)
H35 H 0.5516 0.0948 0.2089
H36 H 0.4373 0.1224 0.1818
C37 C 0.4798(3) -0.13486(18) 0.1583(3)
C38 C 0.5096(3) -0.03065(17) 0.2214(2)
H37 H 0.5801 -0.0186 0.2560
C39 C 0.4533(3) -0.07284(18) 0.2771(2)
H38 H 0.4919 -0.0756 0.3413
C40 C 0.3584(3) 0.02156(17) 0.2304(2)
C41 C 0.4280(3) -0.19518(18) 0.2779(3)
H39 H 0.4587 -0.2315 0.2512
H40 H 0.4641 -0.1923 0.3419
C42 C 0.2888(3) -0.0559(2) 0.3243(3)
H41 H 0.2431 -0.0186 0.3265
H42 H 0.3307 -0.0635 0.3858
C43 C 0.2694(3) -0.25793(18) 0.2171(2)
C44 C 0.2622(3) -0.1778(2) 0.3246(2)
H43 H 0.2980 -0.1782 0.3896
C45 C 0.1619(3) -0.2193(2) 0.3057(2)
H44 H 0.1562 -0.2452 0.3593
C46 C 0.1215(3) -0.1093(2) 0.2783(2)
C47 C 0.1042(3) -0.31354(18) 0.1963(2)
H45 H 0.1422 -0.3470 0.1713
H46 H 0.0802 -0.3337 0.2460
C48 C -0.0248(3) -0.1839(2) 0.2677(2)
H47 H -0.0599 -0.1448 0.2831
H48 H -0.0348 -0.2194 0.3082
O17 O 0.1995(2) -0.43886(16) -0.0063(2)
O18 O 0.5071(3) -0.14568(18) -0.2592(2)
O19 O 0.2974(5) 0.1773(2) 0.3404(3)
O20 O -0.3667(4) 0.1376(3) -0.3808(3)
O21 O -0.0902(5) 0.0350(3) 0.1873(4)
O22 O 0.0629(5) -0.2909(3) -0.3835(5)
O23 O -0.7588(5) 0.5165(7) -0.2785(5)
O24 O -0.2061(9) 0.3113(5) -0.5212(9)
O25 O 0.3504(9) -0.1524(4) -0.4265(6)
O26 O -0.6395(6) 0.3094(4) -0.4369(7)
O27 O 0.0916(9) 0.0757(6) 0.2653(6)
O28 O -0.7038(16) 0.3575(9) -0.3033(8)
O31 O 0.5074(7) -0.1122(6) -0.4907(4)
O32 O -0.5076(11) 0.2252(6) -0.6813(11)
O33 O -0.7314(15) 0.6780(10) -0.3555(13)
O34 O -0.4695(15) 0.2328(8) -0.4756(11)
O35 O -0.3228(14) 0.2064(7) -0.5499(10)
O38 O -0.377(2) 0.2617(14) -0.6539(16)
O42 O -0.0915(12) 0.1410(7) 0.2804(10)
N33 N 0.2773(4) -0.2344(3) -0.1131(5)
C49 C 0.2390(8) -0.3039(5) -0.1105(10)
H49 H 0.2803 -0.3261 -0.0577
H50 H 0.2450 -0.3269 -0.1647
H51 H 0.1672 -0.3033 -0.1073
C50 C 0.2485(10) -0.2036(6) -0.0299(9)
H52 H 0.2886 -0.2243 0.0247
H53 H 0.1754 -0.2103 -0.0342
H54 H 0.2634 -0.1570 -0.0279
C51 C 0.3908(7) -0.2353(6) -0.1019(8)
H55 H 0.4231 -0.2587 -0.0469
H56 H 0.4167 -0.1906 -0.0982
H57 H 0.4070 -0.2572 -0.1533
C52 C 0.2169(10) -0.2022(6) -0.1932(9)
H58 H 0.2311 -0.2241 -0.2462
H59 H 0.1436 -0.2091 -0.1953
C53 C 0.2333(12) -0.1331(6) -0.2015(10)
H60 H 0.3032 -0.1270 -0.2101
H61 H 0.2314 -0.1123 -0.1440
C54 C 0.1613(12) -0.0977(5) -0.2740(10)
H62 H 0.1522 -0.1231 -0.3300
H63 H 0.0940 -0.0955 -0.2589
C55 C 0.1914(12) -0.0333(5) -0.2907(10)
H64 H 0.1387 -0.0185 -0.3437
H65 H 0.2549 -0.0389 -0.3117
C56 C 0.2113(14) 0.0238(7) -0.2309(10)
H66 H 0.2158 0.0622 -0.2685
H67 H 0.2799 0.0178 -0.1902
C57 C 0.1423(13) 0.0398(7) -0.1766(7)
H68 H 0.0902 0.0682 -0.2149
H69 H 0.1066 -0.0014 -0.1706
C58 C 0.1614(12) 0.0680(10) -0.0922(8)
H70 H 0.0976 0.0657 -0.0711
H71 H 0.1764 0.1146 -0.0986
C59 C 0.2433(11) 0.0411(10) -0.0230(11)
H72 H 0.2698 0.0738 0.0241
H73 H 0.3003 0.0262 -0.0484
C60 C 0.1981(10) -0.0122(11) 0.0124(8)
H74 H 0.2509 -0.0284 0.0643
H75 H 0.1882 -0.0469 -0.0336
C61 C 0.1014(11) -0.0091(10) 0.0423(10)
H76 H 0.1162 0.0077 0.1044
H77 H 0.0539 0.0217 0.0036
C62 C 0.0498(13) -0.0756(10) 0.0388(8)
H78 H -0.0092 -0.0698 0.0659
H79 H 0.0989 -0.1042 0.0797
C63 C 0.0115(13) -0.1130(8) -0.0448(9)
H80 H -0.0544 -0.0951 -0.0776
H81 H 0.0027 -0.1586 -0.0301
H82 H 0.0609 -0.1100 -0.0821
O29? O -0.7823(11) 0.4447(9) -0.2848(9)
O30? O -0.7378(12) 0.3965(12) -0.2986(11)
O36? O -0.3035(16) 0.2268(6) -0.4918(10)
O37? O -0.2286(16) 0.2220(15) -0.5410(18)
O39? O -0.6496(16) 0.6355(16) -0.3593(14)
O40? O -0.7320(9) 0.6454(10) -0.3125(10)
O41? O -0.1184(10) 0.1017(8) 0.1805(9)
loop_
_geom_bond_atom_site_label_1
_geom_bond_atom_site_label_2
_geom_bond_site_symmetry_1
_geom_bond_site_symmetry_2
O1 C1 1_555 1_555
O2 C4 1_555 1_555
O3 C7 1_555 1_555
O4 C10 1_555 1_555
O5 C13 1_555 1_555
O6 C16 1_555 1_555
O7 C19 1_555 1_555
O8 C22 1_555 1_555
O9 C25 1_555 1_555
O10 C28 1_555 1_555
O11 C31 1_555 1_555
O12 C34 1_555 1_555
O13 C37 1_555 1_555
O14 C40 1_555 1_555
O15 C43 1_555 1_555
O16 C46 1_555 1_555
N1 C1 1_555 1_555
N2 C1 1_555 1_555
N3 C2 1_555 1_555
N4 C3 1_555 1_555
N5 C5 1_555 1_555
N6 C7 1_555 1_555
N7 C6 1_555 1_555
N8 C9 1_555 1_555
N9 C11 1_555 1_555
N10 C13 1_555 1_555
N11 C12 1_555 1_555
N12 C15 1_555 1_555
N13 C17 1_555 1_555
N14 C19 1_555 1_555
N15 C18 1_555 1_555
N16 C21 1_555 1_555
N17 C23 1_555 1_555
N18 C25 1_555 1_555
N19 C24 1_555 1_555
N20 C27 1_555 1_555
N21 C29 1_555 1_555
N22 C31 1_555 1_555
N23 C30 1_555 1_555
N24 C33 1_555 1_555
N25 C35 1_555 1_555
N26 C37 1_555 1_555
N27 C36 1_555 1_555
N28 C39 1_555 1_555
N29 C41 1_555 1_555
N30 C43 1_555 1_555
N31 C42 1_555 1_555
N32 C45 1_555 1_555
C2 N1 1_555 1_555
H1 C2 1_555 1_555
C3 N2 1_555 1_555
H2 C3 1_555 1_555
C4 N3 1_555 1_555
C5 N2 1_555 1_555
H3 C5 1_555 1_555
H4 C5 1_555 1_555
C6 N4 1_555 1_555
H5 C6 1_555 1_555
H6 C6 1_555 1_555
C7 N5 1_555 1_555
C8 N5 1_555 1_555
H7 C8 1_555 1_555
C9 N6 1_555 1_555
H8 C9 1_555 1_555
C10 N7 1_555 1_555
C11 N6 1_555 1_555
H9 C11 1_555 1_555
H10 C11 1_555 1_555
C12 N8 1_555 1_555
H11 C12 1_555 1_555
H12 C12 1_555 1_555
C13 N9 1_555 1_555
C14 N9 1_555 1_555
H13 C14 1_555 1_555
C15 N10 1_555 1_555
H14 C15 1_555 1_555
C16 N11 1_555 1_555
C17 N10 1_555 1_555
H15 C17 1_555 1_555
H16 C17 1_555 1_555
C18 N12 1_555 1_555
H17 C18 1_555 1_555
H18 C18 1_555 1_555
C19 N13 1_555 1_555
C20 N13 1_555 1_555
H19 C20 1_555 1_555
C21 N14 1_555 1_555
H20 C21 1_555 1_555
C22 N15 1_555 1_555
C23 N14 1_555 1_555
H21 C23 1_555 1_555
H22 C23 1_555 1_555
C24 N16 1_555 1_555
H23 C24 1_555 1_555
H24 C24 1_555 1_555
C25 N17 1_555 1_555
C26 N17 1_555 1_555
H25 C26 1_555 1_555
C27 N18 1_555 1_555
H26 C27 1_555 1_555
C28 N19 1_555 1_555
C29 N18 1_555 1_555
H27 C29 1_555 1_555
H28 C29 1_555 1_555
C30 N20 1_555 1_555
H29 C30 1_555 1_555
H30 C30 1_555 1_555
C31 N21 1_555 1_555
C32 N21 1_555 1_555
H31 C32 1_555 1_555
C33 N22 1_555 1_555
H32 C33 1_555 1_555
C34 N23 1_555 1_555
C35 N22 1_555 1_555
H33 C35 1_555 1_555
H34 C35 1_555 1_555
C36 N24 1_555 1_555
H35 C36 1_555 1_555
H36 C36 1_555 1_555
C37 N25 1_555 1_555
C38 N25 1_555 1_555
H37 C38 1_555 1_555
C39 N26 1_555 1_555
H38 C39 1_555 1_555
C40 N27 1_555 1_555
C41 N26 1_555 1_555
H39 C41 1_555 1_555
H40 C41 1_555 1_555
C42 N28 1_555 1_555
H41 C42 1_555 1_555
H42 C42 1_555 1_555
C43 N29 1_555 1_555
C44 N29 1_555 1_555
H43 C44 1_555 1_555
C45 N30 1_555 1_555
H44 C45 1_555 1_555
C46 N31 1_555 1_555
C47 N1 1_555 1_555
H45 C47 1_555 1_555
H46 C47 1_555 1_555
C48 N3 1_555 1_555
H47 C48 1_555 1_555
H48 C48 1_555 1_555
N33 C49 1_555 1_555
C49 H49 1_555 1_555
H50 C49 1_555 1_555
H51 C49 1_555 1_555
C50 N33 1_555 1_555
H52 C50 1_555 1_555
H53 C50 1_555 1_555
H54 C50 1_555 1_555
C51 N33 1_555 1_555
H55 C51 1_555 1_555
H56 C51 1_555 1_555
H57 C51 1_555 1_555
C52 N33 1_555 1_555
H58 C52 1_555 1_555
H59 C52 1_555 1_555
C53 C52 1_555 1_555
H60 C53 1_555 1_555
H61 C53 1_555 1_555
C54 C53 1_555 1_555
H62 C54 1_555 1_555
H63 C54 1_555 1_555
C55 C54 1_555 1_555
H64 C55 1_555 1_555
H65 C55 1_555 1_555
C56 C55 1_555 1_555
H66 C56 1_555 1_555
H67 C56 1_555 1_555
C57 C56 1_555 1_555
H68 C57 1_555 1_555
H69 C57 1_555 1_555
C58 C57 1_555 1_555
H70 C58 1_555 1_555
H71 C58 1_555 1_555
C59 C58 1_555 1_555
H72 C59 1_555 1_555
H73 C59 1_555 1_555
C60 C59 1_555 1_555
H74 C60 1_555 1_555
H75 C60 1_555 1_555
C61 C60 1_555 1_555
H76 C61 1_555 1_555
H77 C61 1_555 1_555
C62 C61 1_555 1_555
H78 C62 1_555 1_555
H79 C62 1_555 1_555
C63 C62 1_555 1_555
H80 C63 1_555 1_555
H81 C63 1_555 1_555
H82 C63 1_555 1_555
N4 C4 1_555 1_555
N7 C8 1_555 1_555
N8 C10 1_555 1_555
N11 C14 1_555 1_555
N12 C16 1_555 1_555
N15 C20 1_555 1_555
N16 C22 1_555 1_555
N19 C26 1_555 1_555
N20 C28 1_555 1_555
N23 C32 1_555 1_555
N24 C34 1_555 1_555
N27 C38 1_555 1_555
N28 C40 1_555 1_555
N30 C47 1_555 1_555
N31 C44 1_555 1_555
N32 C46 1_555 1_555
N32 C48 1_555 1_555
C2 C3 1_555 1_555
C8 C9 1_555 1_555
C14 C15 1_555 1_555
C20 C21 1_555 1_555
C26 C27 1_555 1_555
C32 C33 1_555 1_555
C38 C39 1_555 1_555
C44 C45 1_555 1_555

#END
