
#######################################################################
#
#                 Cambridge Crystallographic Data Centre
#                                CCDC 
#
#######################################################################
#
# If this CIF has been generated from an entry in the Cambridge 
# Structural Database, then it will include bibliographic, chemical, 
# crystal, experimental, refinement or atomic coordinate data resulting 
# from the CCDC's data processing and validation procedures.
#
#######################################################################

data_POBJEW
_chemical_formula_moiety         'C9 H13 Br1 O3'
_chemical_name_systematic        
6-bromo-5-ethylhexahydro-2H-furo[3,2-b]pyran-2-one
_symmetry_cell_setting           orthorhombic
_symmetry_space_group_name_H-M   'P 21 21 21'
_symmetry_Int_Tables_number      19
_space_group_name_Hall           'P 2ac 2ab'
loop_
_symmetry_equiv_pos_site_id
_symmetry_equiv_pos_as_xyz
1 x,y,z
2 1/2+x,1/2-y,-z
3 -x,1/2+y,1/2-z
4 1/2-x,-y,1/2+z
_cell_length_a                   8.347(1)
_cell_length_b                   8.667(1)
_cell_length_c                   14.256(2)
_cell_angle_alpha                90
_cell_angle_beta                 90
_cell_angle_gamma                90
_cell_volume                     1031.33
_exptl_crystal_colour            colorless
_exptl_crystal_description       block
_cell_formula_units_Z            4
loop_
_atom_site_label
_atom_site_type_symbol
_atom_site_fract_x
_atom_site_fract_y
_atom_site_fract_z
Br1 Br 0.2981(1) -0.4202(1) 0.35420(7)
O1 O 0.1966(5) -0.0808(7) 0.4329(3)
O2 O 0.0160(6) -0.1944(6) 0.2621(4)
O3 O -0.2168(7) -0.2417(7) 0.3317(5)
C1 C 0.1184(8) 0.0042(9) 0.3596(5)
C2 C 0.1395(8) -0.075(1) 0.2643(5)
C3 C -0.0595(8) -0.016(1) 0.3768(6)
C4 C 0.384(1) -0.210(1) 0.3299(6)
C5 C 0.3027(9) -0.140(1) 0.2448(6)
C6 C 0.3646(9) -0.110(1) 0.4163(6)
C7 C -0.101(1) -0.160(1) 0.3244(6)
C8 C 0.463(1) 0.035(1) 0.4106(7)
C9 C 0.450(1) 0.139(1) 0.4948(7)
H1 H 0.5485 0.1946 0.5030
H2 H 0.4286 0.0787 0.5498
H3 H 0.3700 -0.0579 0.2201
H4 H 0.2934 -0.2182 0.1966
H5 H 0.4305 0.0920 0.3553
H6 H 0.5745 0.0062 0.4024
H7 H 0.1505 0.1130 0.3583
H8 H 0.1147 0.0005 0.2153
H9 H 0.4990 -0.2186 0.3163
H10 H 0.4046 -0.1694 0.4698
H11 H -0.0817 -0.0278 0.4432
H12 H -0.1195 0.0711 0.3529
loop_
_geom_bond_atom_site_label_1
_geom_bond_atom_site_label_2
_geom_bond_site_symmetry_1
_geom_bond_site_symmetry_2
Br1 C4 1_555 1_555
O1 C1 1_555 1_555
O2 C2 1_555 1_555
O3 C7 1_555 1_555
C1 C2 1_555 1_555
C2 C5 1_555 1_555
C3 C1 1_555 1_555
C4 C5 1_555 1_555
C5 H3 1_555 1_555
C6 O1 1_555 1_555
C7 O2 1_555 1_555
C8 C6 1_555 1_555
C9 C8 1_555 1_555
H1 C9 1_555 1_555
H2 C9 1_555 1_555
H4 C5 1_555 1_555
H5 C8 1_555 1_555
H6 C8 1_555 1_555
H7 C1 1_555 1_555
H8 C2 1_555 1_555
H9 C4 1_555 1_555
H10 C6 1_555 1_555
H11 C3 1_555 1_555
H12 C3 1_555 1_555
C3 C7 1_555 1_555
C4 C6 1_555 1_555

#END
