
#######################################################################
#
#                 Cambridge Crystallographic Data Centre
#                                CCDC 
#
#######################################################################
#
# If this CIF has been generated from an entry in the Cambridge 
# Structural Database, then it will include bibliographic, chemical, 
# crystal, experimental, refinement or atomic coordinate data resulting 
# from the CCDC's data processing and validation procedures.
#
#######################################################################

data_POBJEX
_chemical_formula_moiety         'C27 H25 N5'
_chemical_name_systematic        
4-(t-butylamino)-2,5-bis(4-methylphenyl)cyclopent-4-ene-1,1,3,3-tetracarbonitrile
_symmetry_cell_setting           monoclinic
_symmetry_space_group_name_H-M   'P 21/n'
_symmetry_Int_Tables_number      14
_space_group_name_Hall           '-P 2yn'
loop_
_symmetry_equiv_pos_site_id
_symmetry_equiv_pos_as_xyz
1 x,y,z
2 1/2-x,1/2+y,1/2-z
3 -x,-y,-z
4 1/2+x,1/2-y,1/2+z
_cell_length_a                   12.6638(17)
_cell_length_b                   16.757(2)
_cell_length_c                   22.426(3)
_cell_angle_alpha                90
_cell_angle_beta                 91.220(3)
_cell_angle_gamma                90
_cell_volume                     4757.88
_exptl_crystal_colour            colorless
_exptl_crystal_description       rod
_cell_formula_units_Z            8
loop_
_atom_site_label
_atom_site_type_symbol
_atom_site_fract_x
_atom_site_fract_y
_atom_site_fract_z
N1 N 0.41108(16) 0.35963(12) 0.54518(9)
N2 N 0.10675(18) 0.35642(15) 0.47708(10)
N3 N -0.08177(16) 0.26995(12) 0.63661(10)
N4 N 0.16663(19) 0.21952(15) 0.76173(10)
N5 N 0.26251(15) 0.17408(11) 0.51669(8)
H1 H 0.3295 0.1856 0.5117
C1 C 0.0166(3) 0.63310(15) 0.69584(13)
H2 H -0.0140 0.6595 0.6605
H3 H 0.0728 0.6666 0.7132
H4 H -0.0384 0.6249 0.7253
C2 C 0.0619(2) 0.55365(14) 0.67826(10)
C3 C 0.01630(19) 0.50987(14) 0.63171(11)
H5 H -0.0433 0.5309 0.6106
C4 C 0.05586(17) 0.43663(13) 0.61563(10)
H6 H 0.0227 0.4077 0.5839
C5 C 0.14383(16) 0.40428(12) 0.64517(9)
C6 C 0.18927(18) 0.44804(13) 0.69171(10)
H7 H 0.2491 0.4272 0.7127
C7 C 0.1490(2) 0.52130(14) 0.70791(10)
H8 H 0.1815 0.5500 0.7399
C8 C 0.18927(16) 0.32345(12) 0.63119(9)
H9 H 0.2559 0.3198 0.6558
C9 C 0.22225(16) 0.30291(13) 0.56648(9)
C10 C 0.21703(16) 0.21054(13) 0.56433(9)
C11 C 0.16156(16) 0.18181(12) 0.60986(9)
C12 C 0.12230(16) 0.24872(12) 0.64954(9)
C13 C 0.32965(18) 0.33448(13) 0.55517(9)
C14 C 0.15450(18) 0.33460(14) 0.51746(10)
C15 C 0.14509(18) 0.23179(14) 0.71319(10)
C16 C 0.00719(18) 0.26162(13) 0.64226(10)
C17 C 0.14343(17) 0.09766(13) 0.62713(9)
C18 C 0.04353(18) 0.06914(14) 0.64062(11)
H10 H -0.0153 0.1043 0.6384
C19 C 0.0284(2) -0.00938(14) 0.65721(11)
H11 H -0.0407 -0.0271 0.6663
C20 C 0.1113(2) -0.06246(14) 0.66086(10)
C21 C 0.2110(2) -0.03392(15) 0.64815(12)
H12 H 0.2696 -0.0692 0.6506
C22 C 0.22704(19) 0.04470(14) 0.63204(12)
H13 H 0.2965 0.0627 0.6242
C23 C 0.0937(2) -0.14911(15) 0.67601(14)
H14 H 0.0861 -0.1802 0.6391
H15 H 0.0293 -0.1543 0.6992
H16 H 0.1542 -0.1692 0.6995
C24 C 0.2156(2) 0.11798(16) 0.47213(10)
C25 C 0.2404(3) 0.1538(2) 0.41160(12)
H17 H 0.2159 0.1175 0.3799
H18 H 0.3168 0.1615 0.4087
H19 H 0.2045 0.2053 0.4072
C26 C 0.2696(3) 0.03762(17) 0.47757(15)
H20 H 0.2471 0.0036 0.4441
H21 H 0.2502 0.0123 0.5152
H22 H 0.3463 0.0450 0.4769
C27 C 0.0976(2) 0.1119(2) 0.47928(13)
H23 H 0.0668 0.1656 0.4791
H24 H 0.0826 0.0855 0.5171
H25 H 0.0669 0.0808 0.4462
N6 N 0.84585(17) 0.15398(13) 0.51968(11)
N7 N 0.51224(18) 0.16569(15) 0.49651(10)
N8 N 0.41184(15) 0.23687(12) 0.66603(9)
N9 N 0.68675(17) 0.28679(14) 0.76820(9)
N10 N 0.65437(14) 0.35259(11) 0.51229(8)
H26 H 0.5970 0.3822 0.5096
C28 C 0.5653(2) -0.11765(15) 0.72530(15)
H27 H 0.5489 -0.1100 0.7674
H28 H 0.6244 -0.1551 0.7221
H29 H 0.5032 -0.1393 0.7040
C29 C 0.5951(2) -0.03874(14) 0.69822(12)
C30 C 0.6889(2) -0.00084(15) 0.71410(11)
H30 H 0.7362 -0.0255 0.7419
C31 C 0.71424(19) 0.07257(14) 0.68990(10)
H31 H 0.7794 0.0972 0.7009
C32 C 0.64614(17) 0.11095(13) 0.64978(10)
C33 C 0.55238(18) 0.07269(14) 0.63363(11)
H32 H 0.5045 0.0973 0.6061
C34 C 0.5286(2) -0.00111(14) 0.65751(12)
H33 H 0.4646 -0.0267 0.6456
C35 C 0.67536(16) 0.19396(12) 0.62976(9)
H34 H 0.7507 0.2009 0.6429
C36 C 0.67308(16) 0.21573(13) 0.56185(9)
C37 C 0.66276(16) 0.30759(13) 0.56291(9)
C38 C 0.63739(16) 0.33391(12) 0.61751(9)
C39 C 0.61536(16) 0.26458(13) 0.65905(9)
C40 C 0.77056(18) 0.18264(13) 0.53630(10)
C41 C 0.58216(18) 0.18456(14) 0.52595(10)
C42 C 0.50001(17) 0.24846(13) 0.66312(9)
C43 C 0.65591(17) 0.27711(13) 0.72068(10)
C44 C 0.62448(16) 0.41808(13) 0.63547(9)
C45 C 0.6981(2) 0.47465(14) 0.61789(11)
H35 H 0.7569 0.4584 0.5953
C46 C 0.6866(2) 0.55423(15) 0.63297(12)
H36 H 0.7373 0.5918 0.6199
C47 C 0.6031(2) 0.58019(14) 0.66656(12)
C48 C 0.5313(2) 0.52394(15) 0.68536(11)
H37 H 0.4738 0.5402 0.7090
C49 C 0.54174(18) 0.44405(14) 0.67025(10)
H38 H 0.4915 0.4065 0.6839
C50 C 0.5900(2) 0.66744(16) 0.68160(15)
H39 H 0.5434 0.6927 0.6517
H40 H 0.6591 0.6937 0.6818
H41 H 0.5590 0.6725 0.7211
C51 C 0.72586(19) 0.35988(16) 0.46105(10)
C52 C 0.7084(2) 0.2916(2) 0.41716(11)
H42 H 0.6329 0.2869 0.4073
H43 H 0.7336 0.2416 0.4352
H44 H 0.7475 0.3022 0.3807
C53 C 0.84049(19) 0.36527(17) 0.48228(12)
H45 H 0.8581 0.3186 0.5068
H46 H 0.8507 0.4139 0.5060
H47 H 0.8865 0.3668 0.4477
C54 C 0.6928(2) 0.4383(2) 0.43159(14)
H48 H 0.7368 0.4482 0.3969
H49 H 0.7018 0.4821 0.4602
H50 H 0.6185 0.4351 0.4186
loop_
_geom_bond_atom_site_label_1
_geom_bond_atom_site_label_2
_geom_bond_site_symmetry_1
_geom_bond_site_symmetry_2
N1 C13 1_555 1_555
N2 C14 1_555 1_555
N3 C16 1_555 1_555
N4 C15 1_555 1_555
N5 H1 1_555 1_555
C1 H2 1_555 1_555
H3 C1 1_555 1_555
H4 C1 1_555 1_555
C2 C1 1_555 1_555
C3 C2 1_555 1_555
H5 C3 1_555 1_555
C4 C3 1_555 1_555
H6 C4 1_555 1_555
C5 C4 1_555 1_555
C6 C5 1_555 1_555
H7 C6 1_555 1_555
C7 C2 1_555 1_555
H8 C7 1_555 1_555
C8 C5 1_555 1_555
H9 C8 1_555 1_555
C9 C8 1_555 1_555
C10 N5 1_555 1_555
C11 C10 1_555 1_555
C12 C8 1_555 1_555
C13 C9 1_555 1_555
C14 C9 1_555 1_555
C15 C12 1_555 1_555
C16 C12 1_555 1_555
C17 C11 1_555 1_555
C18 C17 1_555 1_555
H10 C18 1_555 1_555
C19 C18 1_555 1_555
H11 C19 1_555 1_555
C20 C19 1_555 1_555
C21 C20 1_555 1_555
H12 C21 1_555 1_555
C22 C17 1_555 1_555
H13 C22 1_555 1_555
C23 C20 1_555 1_555
H14 C23 1_555 1_555
H15 C23 1_555 1_555
H16 C23 1_555 1_555
C24 N5 1_555 1_555
C25 C24 1_555 1_555
H17 C25 1_555 1_555
H18 C25 1_555 1_555
H19 C25 1_555 1_555
C26 C24 1_555 1_555
H20 C26 1_555 1_555
H21 C26 1_555 1_555
H22 C26 1_555 1_555
C27 C24 1_555 1_555
H23 C27 1_555 1_555
H24 C27 1_555 1_555
H25 C27 1_555 1_555
N6 C40 1_555 1_555
N7 C41 1_555 1_555
N8 C42 1_555 1_555
N9 C43 1_555 1_555
N10 H26 1_555 1_555
C28 H27 1_555 1_555
H28 C28 1_555 1_555
H29 C28 1_555 1_555
C29 C28 1_555 1_555
C30 C29 1_555 1_555
H30 C30 1_555 1_555
C31 C30 1_555 1_555
H31 C31 1_555 1_555
C32 C31 1_555 1_555
C33 C32 1_555 1_555
H32 C33 1_555 1_555
C34 C29 1_555 1_555
H33 C34 1_555 1_555
C35 C32 1_555 1_555
H34 C35 1_555 1_555
C36 C35 1_555 1_555
C37 N10 1_555 1_555
C38 C37 1_555 1_555
C39 C35 1_555 1_555
C40 C36 1_555 1_555
C41 C36 1_555 1_555
C42 C39 1_555 1_555
C43 C39 1_555 1_555
C44 C38 1_555 1_555
C45 C44 1_555 1_555
H35 C45 1_555 1_555
C46 C45 1_555 1_555
H36 C46 1_555 1_555
C47 C46 1_555 1_555
C48 C47 1_555 1_555
H37 C48 1_555 1_555
C49 C44 1_555 1_555
H38 C49 1_555 1_555
C50 C47 1_555 1_555
H39 C50 1_555 1_555
H40 C50 1_555 1_555
H41 C50 1_555 1_555
C51 N10 1_555 1_555
C52 C51 1_555 1_555
H42 C52 1_555 1_555
H43 C52 1_555 1_555
H44 C52 1_555 1_555
C53 C51 1_555 1_555
H45 C53 1_555 1_555
H46 C53 1_555 1_555
H47 C53 1_555 1_555
C54 C51 1_555 1_555
H48 C54 1_555 1_555
H49 C54 1_555 1_555
H50 C54 1_555 1_555
C6 C7 1_555 1_555
C9 C10 1_555 1_555
C11 C12 1_555 1_555
C21 C22 1_555 1_555
C33 C34 1_555 1_555
C36 C37 1_555 1_555
C38 C39 1_555 1_555
C48 C49 1_555 1_555

#END
