
#######################################################################
#
#                 Cambridge Crystallographic Data Centre
#                                CCDC 
#
#######################################################################
#
# If this CIF has been generated from an entry in the Cambridge 
# Structural Database, then it will include bibliographic, chemical, 
# crystal, experimental, refinement or atomic coordinate data resulting 
# from the CCDC's data processing and validation procedures.
#
#######################################################################

data_POBVEI
_chemical_formula_moiety         'C23 H20 N2 O7 S2'
_chemical_name_systematic        
endo-4-methyl-10-(phenylsulfonyl)-8-tosyl-4,8-diazatricyclo[5.2.2.0^2,6^]undec-10-ene-3,5,9-trione
_symmetry_cell_setting           monoclinic
_symmetry_space_group_name_H-M   'P 21/n'
_symmetry_Int_Tables_number      14
_space_group_name_Hall           '-P 2yn'
loop_
_symmetry_equiv_pos_site_id
_symmetry_equiv_pos_as_xyz
1 x,y,z
2 1/2-x,1/2+y,1/2-z
3 -x,-y,-z
4 1/2+x,1/2-y,1/2+z
_cell_length_a                   6.6279(6)
_cell_length_b                   13.6267(11)
_cell_length_c                   25.845(2)
_cell_angle_alpha                90
_cell_angle_beta                 91.426(2)
_cell_angle_gamma                90
_cell_volume                     2333.5
_exptl_crystal_colour            colorless
_chemical_melting_point          '230-232 deg.C (dec.)'
_cell_formula_units_Z            4
loop_
_atom_site_label
_atom_site_type_symbol
_atom_site_fract_x
_atom_site_fract_y
_atom_site_fract_z
S1 S 0.67907(7) 0.37691(3) 0.21478(2)
S2 S 0.58080(8) 0.23896(4) 0.00290(2)
O1 O 0.2632(2) 0.31917(10) 0.07263(6)
O2 O 1.0979(2) 0.55341(10) 0.05962(6)
O3 O 0.5575(2) 0.65216(10) 0.15406(6)
O4 O 0.8853(2) 0.35788(10) 0.23085(6)
O5 O 0.5731(2) 0.45936(10) 0.23675(6)
O6 O 0.4148(2) 0.25761(11) -0.03228(6)
O7 O 0.7833(2) 0.23007(11) -0.01549(6)
N1 N 0.5927(3) 0.33466(12) 0.04513(7)
N2 N 0.8525(3) 0.62118(11) 0.11066(7)
C1 C 0.4285(3) 0.35681(14) 0.07692(8)
C2 C 0.7884(3) 0.38371(14) 0.06006(8)
C3 C 0.8306(3) 0.36514(14) 0.11745(8)
C4 C 0.6752(3) 0.39188(14) 0.14667(8)
C5 C 0.4926(3) 0.43408(14) 0.11750(8)
C6 C 0.5666(3) 0.52565(14) 0.08630(8)
C7 C 0.7468(3) 0.49564(14) 0.05289(8)
C8 C 0.9229(3) 0.55772(14) 0.07328(8)
C9 C 0.6489(3) 0.60695(14) 0.12162(8)
C10 C 0.9781(3) 0.69765(16) 0.13445(9)
C11 C 0.5344(3) 0.26971(14) 0.22359(8)
C12 C 0.3322(3) 0.27832(16) 0.23685(8)
C13 C 0.2205(3) 0.19260(17) 0.24534(9)
C14 C 0.3121(4) 0.10117(17) 0.23958(10)
C15 C 0.5138(3) 0.09363(16) 0.22560(9)
C16 C 0.6278(3) 0.17796(15) 0.21755(9)
C17 C 0.5263(3) 0.13596(14) 0.04155(8)
C18 C 0.6825(4) 0.09314(16) 0.07118(9)
C19 C 0.6387(4) 0.01191(17) 0.10181(10)
C20 C 0.4428(4) -0.02756(16) 0.10308(9)
C21 C 0.2915(4) 0.01618(17) 0.07229(10)
C22 C 0.3298(4) 0.09837(16) 0.04143(9)
C23 C 0.3971(4) -0.11486(17) 0.13712(10)
H1 H 0.8928 0.3614 0.0356
H2 H 0.9586 0.3316 0.1315
H3 H 0.3769 0.4506 0.1383
H4 H 0.4621 0.5540 0.0683
H5 H 0.7210 0.5065 0.0162
H6 H 0.9215 0.7148 0.1671
H7 H 1.1069 0.6750 0.1394
H8 H 0.9751 0.7567 0.1152
H9 H 0.2763 0.3454 0.2430
H10 H 0.0800 0.1983 0.2567
H11 H 0.2202 0.0414 0.2443
H12 H 0.5772 0.0318 0.2183
H13 H 0.7677 0.1711 0.2099
H14 H 0.8171 0.1231 0.0700
H15 H 0.7502 -0.0192 0.1213
H16 H 0.1485 -0.0069 0.0707
H17 H 0.2304 0.1299 0.0204
H18 H 0.4946 -0.1239 0.1617
H19 H 0.2810 -0.1033 0.1548
H20 H 0.3679 -0.1739 0.1138
loop_
_geom_bond_atom_site_label_1
_geom_bond_atom_site_label_2
_geom_bond_site_symmetry_1
_geom_bond_site_symmetry_2
S1 O4 1_555 1_555
S2 O6 1_555 1_555
O1 C1 1_555 1_555
O2 C8 1_555 1_555
O3 C9 1_555 1_555
O5 S1 1_555 1_555
O7 S2 1_555 1_555
N1 S2 1_555 1_555
N2 C8 1_555 1_555
C1 N1 1_555 1_555
C2 N1 1_555 1_555
C3 C2 1_555 1_555
C4 S1 1_555 1_555
C5 C1 1_555 1_555
C6 C5 1_555 1_555
C7 C2 1_555 1_555
C8 C7 1_555 1_555
C9 N2 1_555 1_555
C10 N2 1_555 1_555
C11 S1 1_555 1_555
C12 C11 1_555 1_555
C13 C12 1_555 1_555
C14 C13 1_555 1_555
C15 C14 1_555 1_555
C16 C11 1_555 1_555
C17 S2 1_555 1_555
C18 C17 1_555 1_555
C19 C18 1_555 1_555
C20 C19 1_555 1_555
C21 C20 1_555 1_555
C22 C17 1_555 1_555
C23 C20 1_555 1_555
H1 C2 1_555 1_555
H2 C3 1_555 1_555
H3 C5 1_555 1_555
H4 C6 1_555 1_555
H5 C7 1_555 1_555
H6 C10 1_555 1_555
H7 C10 1_555 1_555
H8 C10 1_555 1_555
H9 C12 1_555 1_555
H10 C13 1_555 1_555
H11 C14 1_555 1_555
H12 C15 1_555 1_555
H13 C16 1_555 1_555
H14 C18 1_555 1_555
H15 C19 1_555 1_555
H16 C21 1_555 1_555
H17 C22 1_555 1_555
H18 C23 1_555 1_555
H19 C23 1_555 1_555
H20 C23 1_555 1_555
C3 C4 1_555 1_555
C4 C5 1_555 1_555
C6 C7 1_555 1_555
C6 C9 1_555 1_555
C15 C16 1_555 1_555
C21 C22 1_555 1_555

#END
