
#######################################################################
#
#                 Cambridge Crystallographic Data Centre
#                                CCDC 
#
#######################################################################
#
# If this CIF has been generated from an entry in the Cambridge 
# Structural Database, then it will include bibliographic, chemical, 
# crystal, experimental, refinement or atomic coordinate data resulting 
# from the CCDC's data processing and validation procedures.
#
#######################################################################

data_POBVIM
_chemical_formula_moiety         'C22 H21 N1 O7 S2'
_chemical_name_systematic        
'endo-methyl 3-oxo-8-(phenylsulfonyl)-2-tosyl-2-azabicyclo[2.2.2]oct-7-ene-6-carboxylate'
_symmetry_cell_setting           monoclinic
_symmetry_space_group_name_H-M   'P 21/c'
_symmetry_Int_Tables_number      14
_space_group_name_Hall           '-P 2ybc'
loop_
_symmetry_equiv_pos_site_id
_symmetry_equiv_pos_as_xyz
1 x,y,z
2 -x,1/2+y,1/2-z
3 -x,-y,-z
4 x,1/2-y,1/2+z
_cell_length_a                   9.2527(6)
_cell_length_b                   18.7002(11)
_cell_length_c                   12.7875(8)
_cell_angle_alpha                90
_cell_angle_beta                 95.094(1)
_cell_angle_gamma                90
_cell_volume                     2203.85
_exptl_crystal_colour            colorless
_chemical_melting_point          '180-181 deg.C'
_cell_formula_units_Z            4
loop_
_atom_site_label
_atom_site_type_symbol
_atom_site_fract_x
_atom_site_fract_y
_atom_site_fract_z
S1 S 0.47565(6) 0.59328(3) 0.64737(4)
S2 S 0.86031(7) 0.81927(3) 0.56455(5)
O1 O 0.46641(18) 0.52065(8) 0.61208(13)
O2 O 0.45519(19) 0.60913(10) 0.75427(13)
O3 O 0.6713(2) 0.73470(9) 0.40893(12)
O4 O 0.9715(3) 0.49984(12) 0.67569(18)
O5 O 1.0660(2) 0.59309(11) 0.76439(17)
O6 O 0.8985(2) 0.84202(9) 0.46470(15)
O7 O 0.95961(19) 0.82845(9) 0.65523(16)
N1 N 0.83043(19) 0.73077(9) 0.55762(13)
C1 C 0.7265(2) 0.70253(12) 0.48350(16)
C2 C 0.6948(2) 0.62558(11) 0.51138(16)
C3 C 0.8410(3) 0.58539(12) 0.51379(19)
C4 C 0.9462(2) 0.61707(12) 0.60015(18)
C5 C 0.8737(2) 0.68282(11) 0.64806(17)
C6 C 0.7365(2) 0.65743(11) 0.69243(15)
C7 C 0.6454(2) 0.62736(11) 0.62092(16)
C8 C 0.3570(2) 0.64552(11) 0.56379(18)
C9 C 0.3240(3) 0.71433(14) 0.5935(2)
C10 C 0.2353(3) 0.75548(14) 0.5252(3)
C11 C 0.1813(3) 0.72919(17) 0.4305(3)
C12 C 0.2126(3) 0.66064(17) 0.4012(2)
C13 C 0.3023(3) 0.61873(12) 0.46806(19)
C14 C 0.9943(3) 0.56227(14) 0.6824(2)
C15 C 1.1232(4) 0.54546(19) 0.8489(3)
C16 C 0.6925(2) 0.85633(11) 0.58759(16)
C17 C 0.6518(3) 0.85857(14) 0.68846(18)
C18 C 0.5218(3) 0.88930(15) 0.70623(19)
C19 C 0.4315(3) 0.91784(12) 0.62709(19)
C20 C 0.4740(3) 0.91326(13) 0.52650(19)
C21 C 0.6035(3) 0.88319(13) 0.50589(17)
C22 C 0.2908(3) 0.95366(15) 0.6474(2)
H1 H 0.6271 0.6067 0.4618
H2 H 0.8223 0.5321 0.5197
H3 H 0.8760 0.5881 0.4434
H4 H 1.0358 0.6338 0.5712
H5 H 0.9352 0.7057 0.7015
H6 H 0.7172 0.6648 0.7551
H7 H 0.3635 0.7267 0.6566
H8 H 0.2137 0.8016 0.5556
H9 H 0.1185 0.7580 0.3863
H10 H 0.1756 0.6412 0.3415
H11 H 0.3194 0.5722 0.4491
H12 H 1.1478 0.4983 0.7937
H13 H 1.0509 0.4967 0.8640
H14 H 1.1549 0.5820 0.8980
H15 H 0.7092 0.8433 0.7385
H16 H 0.4976 0.8901 0.7746
H17 H 0.4145 0.9320 0.4668
H18 H 0.6352 0.8816 0.4408
H19 H 0.2878 0.9621 0.7240
H20 H 0.2129 0.9197 0.6396
H21 H 0.2536 1.0026 0.6063
loop_
_geom_bond_atom_site_label_1
_geom_bond_atom_site_label_2
_geom_bond_site_symmetry_1
_geom_bond_site_symmetry_2
S1 O1 1_555 1_555
S2 O6 1_555 1_555
O2 S1 1_555 1_555
O3 C1 1_555 1_555
O4 C14 1_555 1_555
O5 C14 1_555 1_555
O7 S2 1_555 1_555
N1 S2 1_555 1_555
C1 N1 1_555 1_555
C2 C1 1_555 1_555
C3 C2 1_555 1_555
C4 C3 1_555 1_555
C5 N1 1_555 1_555
C6 C5 1_555 1_555
C7 S1 1_555 1_555
C8 S1 1_555 1_555
C9 C8 1_555 1_555
C10 C9 1_555 1_555
C11 C10 1_555 1_555
C12 C11 1_555 1_555
C13 C8 1_555 1_555
C14 C4 1_555 1_555
C15 O5 1_555 1_555
C16 S2 1_555 1_555
C17 C16 1_555 1_555
C18 C17 1_555 1_555
C19 C18 1_555 1_555
C20 C19 1_555 1_555
C21 C16 1_555 1_555
C22 C19 1_555 1_555
H1 C2 1_555 1_555
H2 C3 1_555 1_555
H3 C3 1_555 1_555
H4 C4 1_555 1_555
H5 C5 1_555 1_555
H6 C6 1_555 1_555
H7 C9 1_555 1_555
H8 C10 1_555 1_555
H9 C11 1_555 1_555
H10 C12 1_555 1_555
H11 C13 1_555 1_555
H12 C15 1_555 1_555
H13 C15 1_555 1_555
H14 C15 1_555 1_555
H15 C17 1_555 1_555
H16 C18 1_555 1_555
H17 C20 1_555 1_555
H18 C21 1_555 1_555
H19 C22 1_555 1_555
H20 C22 1_555 1_555
H21 C22 1_555 1_555
C2 C7 1_555 1_555
C4 C5 1_555 1_555
C6 C7 1_555 1_555
C12 C13 1_555 1_555
C20 C21 1_555 1_555

#END
