
#######################################################################
#
#                 Cambridge Crystallographic Data Centre
#                                CCDC 
#
#######################################################################
#
# If this CIF has been generated from an entry in the Cambridge 
# Structural Database, then it will include bibliographic, chemical, 
# crystal, experimental, refinement or atomic coordinate data resulting 
# from the CCDC's data processing and validation procedures.
#
#######################################################################

data_POCDAO
_chemical_formula_moiety         'C12 H16 Cl6'
_chemical_name_systematic        
(2S,4S,7S)-7,7-Dichloro-4-(1-chloro-1-methyl-ethyl)-1-(2,2,2-trichloro-ethyl)bicyclo[4.1.0]heptane
_symmetry_cell_setting           orthorhombic
_symmetry_space_group_name_H-M   'P 21 21 21'
_symmetry_Int_Tables_number      19
_space_group_name_Hall           'P 2ac 2ab'
loop_
_symmetry_equiv_pos_site_id
_symmetry_equiv_pos_as_xyz
1 x,y,z
2 1/2-x,-y,1/2+z
3 -x,1/2+y,1/2-z
4 1/2+x,1/2-y,-z
_cell_length_a                   6.0742(3)
_cell_length_b                   9.7189(6)
_cell_length_c                   26.7002(11)
_cell_angle_alpha                90
_cell_angle_beta                 90
_cell_angle_gamma                90
_cell_volume                     1576.23
_exptl_crystal_colour            colorless
_exptl_crystal_description       prism
_cell_formula_units_Z            4
loop_
_atom_site_label
_atom_site_type_symbol
_atom_site_fract_x
_atom_site_fract_y
_atom_site_fract_z
C1 C 0.2968(2) 0.40966(14) 0.61857(6)
C2 C 0.1959(2) 0.28070(14) 0.59801(5)
H1 H 0.0343 0.2881 0.5914
C3 C 0.3157(2) 0.18287(16) 0.56302(5)
H2 H 0.4297 0.2344 0.5443
H3 H 0.2098 0.1450 0.5384
C4 C 0.4248(2) 0.06415(14) 0.59135(5)
H4 H 0.3053 0.0166 0.6104
C5 C 0.5807(2) 0.12587(15) 0.63020(5)
H5 H 0.6839 0.1899 0.6135
H6 H 0.6683 0.0515 0.6458
C6 C 0.4528(2) 0.20323(14) 0.67087(5)
H7 H 0.3985 0.1349 0.6954
H8 H 0.5573 0.2642 0.6887
C7 C 0.2579(2) 0.29006(13) 0.65400(5)
C8 C 0.0681(2) 0.29777(14) 0.69066(5)
H9 H 0.0039 0.2045 0.6937
H10 H -0.0465 0.3579 0.6759
C9 C 0.1181(3) 0.35047(15) 0.74357(6)
C10 C 0.5319(3) -0.04536(17) 0.55743(5)
C11 C 0.3732(4) -0.1025(2) 0.51888(7)
H11 H 0.3094 -0.0266 0.4996
H12 H 0.2555 -0.1532 0.5359
H13 H 0.4522 -0.1647 0.4963
C12 C 0.6343(4) -0.16239(17) 0.58753(7)
H14 H 0.7373 -0.1244 0.6122
H15 H 0.7133 -0.2244 0.5649
H16 H 0.5180 -0.2135 0.6049
Cl1 Cl 0.12619(7) 0.55663(4) 0.620604(15)
Cl2 Cl 0.56827(6) 0.45794(4) 0.604454(16)
Cl3 Cl 0.75787(8) 0.03420(5) 0.522458(16)
Cl4 Cl 0.25696(7) 0.22922(4) 0.782427(13)
Cl5 Cl -0.13878(7) 0.38643(4) 0.773991(15)
Cl6 Cl 0.27725(7) 0.50318(4) 0.741908(14)
loop_
_geom_bond_atom_site_label_1
_geom_bond_atom_site_label_2
_geom_bond_site_symmetry_1
_geom_bond_site_symmetry_2
C1 C2 1_555 1_555
C2 H1 1_555 1_555
C3 C2 1_555 1_555
H2 C3 1_555 1_555
H3 C3 1_555 1_555
C4 C3 1_555 1_555
H4 C4 1_555 1_555
C5 C4 1_555 1_555
H5 C5 1_555 1_555
H6 C5 1_555 1_555
C6 C5 1_555 1_555
H7 C6 1_555 1_555
H8 C6 1_555 1_555
C7 C1 1_555 1_555
C8 C7 1_555 1_555
H9 C8 1_555 1_555
H10 C8 1_555 1_555
C9 C8 1_555 1_555
C10 C4 1_555 1_555
C11 C10 1_555 1_555
H11 C11 1_555 1_555
H12 C11 1_555 1_555
H13 C11 1_555 1_555
C12 C10 1_555 1_555
H14 C12 1_555 1_555
H15 C12 1_555 1_555
H16 C12 1_555 1_555
Cl1 C1 1_555 1_555
Cl2 C1 1_555 1_555
Cl3 C10 1_555 1_555
Cl4 C9 1_555 1_555
Cl5 C9 1_555 1_555
Cl6 C9 1_555 1_555
C2 C7 1_555 1_555
C6 C7 1_555 1_555

#END
