
#######################################################################
#
#                 Cambridge Crystallographic Data Centre
#                                CCDC 
#
#######################################################################
#
# If this CIF has been generated from an entry in the Cambridge 
# Structural Database, then it will include bibliographic, chemical, 
# crystal, experimental, refinement or atomic coordinate data resulting 
# from the CCDC's data processing and validation procedures.
#
#######################################################################

data_POCDES
_chemical_formula_moiety         'C15 H14 F1 N1 O2'
_chemical_name_systematic        
(E)-2-Fluoro-6-(((2-(4-hydroxyphenyl)ethyl)iminio)methyl)phenolate
_symmetry_cell_setting           triclinic
_symmetry_space_group_name_H-M   'P -1'
_symmetry_Int_Tables_number      2
_space_group_name_Hall           '-P 1'
loop_
_symmetry_equiv_pos_site_id
_symmetry_equiv_pos_as_xyz
1 x,y,z
2 -x,-y,-z
_cell_length_a                   7.5568(14)
_cell_length_b                   9.465(2)
_cell_length_c                   10.1088(19)
_cell_angle_alpha                68.52(3)
_cell_angle_beta                 74.05(3)
_cell_angle_gamma                83.07(3)
_cell_volume                     646.751
_exptl_crystal_colour            yellow
_exptl_crystal_description       block
_cell_formula_units_Z            2
loop_
_atom_site_label
_atom_site_type_symbol
_atom_site_fract_x
_atom_site_fract_y
_atom_site_fract_z
C1 C 0.2620(3) 0.3647(2) 0.9962(2)
C2 C 0.2105(3) 0.3052(2) 0.9013(2)
C3 C 0.2207(3) 0.1448(3) 0.9436(3)
C4 C 0.2731(4) 0.0522(3) 1.0647(3)
H1 H 0.2772 -0.0524 1.0870
C5 C 0.3212(4) 0.1127(3) 1.1568(3)
H2 H 0.3576 0.0489 1.2402
C6 C 0.3139(3) 0.2668(3) 1.1229(2)
H3 H 0.3439 0.3073 1.1848
C7 C 0.2581(3) 0.5245(2) 0.9612(2)
H4 H 0.2876 0.5626 1.0250
C8 C 0.2055(3) 0.7839(2) 0.8025(2)
H5 H 0.2535 0.8137 0.8679
H6 H 0.0780 0.8184 0.8116
C9 C 0.3156(4) 0.8582(3) 0.6453(2)
H7 H 0.2887 0.9665 0.6140
H8 H 0.4458 0.8435 0.6419
C10 C 0.2746(3) 0.7956(2) 0.5393(2)
C11 C 0.4111(3) 0.7246(3) 0.4617(3)
H9 H 0.5303 0.7183 0.4728
C12 C 0.3746(3) 0.6627(3) 0.3681(3)
H10 H 0.4688 0.6152 0.3172
C13 C 0.1996(3) 0.6713(3) 0.3499(2)
C14 C 0.0595(3) 0.7399(3) 0.4270(3)
H11 H -0.0596 0.7451 0.4160
C15 C 0.0981(3) 0.8010(3) 0.5209(3)
H12 H 0.0034 0.8470 0.5730
F1 F 0.1726(3) 0.08550(17) 0.85569(19)
N1 N 0.2155(2) 0.61862(19) 0.84506(18)
H13 H 0.181(3) 0.575(3) 0.788(2)
O1 O 0.1720(3) 0.6108(3) 0.2538(2)
H14 H 0.061(3) 0.616(5) 0.252(4)
O2 O 0.1604(2) 0.38962(17) 0.78526(17)
loop_
_geom_bond_atom_site_label_1
_geom_bond_atom_site_label_2
_geom_bond_site_symmetry_1
_geom_bond_site_symmetry_2
C1 C2 1_555 1_555
C2 C3 1_555 1_555
C3 C4 1_555 1_555
C4 H1 1_555 1_555
C5 C4 1_555 1_555
H2 C5 1_555 1_555
C6 C1 1_555 1_555
H3 C6 1_555 1_555
C7 C1 1_555 1_555
H4 C7 1_555 1_555
C8 H5 1_555 1_555
H6 C8 1_555 1_555
C9 C8 1_555 1_555
H7 C9 1_555 1_555
H8 C9 1_555 1_555
C10 C9 1_555 1_555
C11 C10 1_555 1_555
H9 C11 1_555 1_555
C12 C11 1_555 1_555
H10 C12 1_555 1_555
C13 C12 1_555 1_555
C14 C13 1_555 1_555
H11 C14 1_555 1_555
C15 C10 1_555 1_555
H12 C15 1_555 1_555
F1 C3 1_555 1_555
N1 C7 1_555 1_555
H13 N1 1_555 1_555
O1 C13 1_555 1_555
H14 O1 1_555 1_555
O2 C2 1_555 1_555
C5 C6 1_555 1_555
C8 N1 1_555 1_555
C14 C15 1_555 1_555

#END
