
#######################################################################
#
#                 Cambridge Crystallographic Data Centre
#                                CCDC 
#
#######################################################################
#
# If this CIF has been generated from an entry in the Cambridge 
# Structural Database, then it will include bibliographic, chemical, 
# crystal, experimental, refinement or atomic coordinate data resulting 
# from the CCDC's data processing and validation procedures.
#
#######################################################################

data_POCJIC
_chemical_formula_moiety         'C14 H9 Br3 S3'
_chemical_name_systematic        
5,5',5''-tribromo-3,3''-dimethyl-2,2':3',2''-terthiophene
_symmetry_cell_setting           monoclinic
_symmetry_space_group_name_H-M   'P 21/c'
_symmetry_Int_Tables_number      14
_space_group_name_Hall           '-P 2ybc'
loop_
_symmetry_equiv_pos_site_id
_symmetry_equiv_pos_as_xyz
1 x,y,z
2 -x,1/2+y,1/2-z
3 -x,-y,-z
4 x,1/2-y,1/2+z
_cell_length_a                   19.1566(19)
_cell_length_b                   11.6553(12)
_cell_length_c                   7.4717(8)
_cell_angle_alpha                90
_cell_angle_beta                 91.1880(10)
_cell_angle_gamma                90
_cell_volume                     1667.89
_exptl_crystal_colour            colorless
_exptl_crystal_description       block
_cell_formula_units_Z            4
loop_
_atom_site_label
_atom_site_type_symbol
_atom_site_fract_x
_atom_site_fract_y
_atom_site_fract_z
Br1 Br 0.36643(3) 0.43059(4) 0.37197(7)
Br2 Br 0.07718(3) -0.18578(5) -0.10164(9)
Br3 Br 0.47461(3) -0.31748(4) 0.35531(7)
C1 C 0.3248(2) 0.2848(3) 0.3573(5)
C2 C 0.3626(2) 0.1813(3) 0.4015(5)
H1 H 0.4085 0.1743 0.4432
C3 C 0.3101(2) 0.0867(3) 0.3640(5)
C4 C 0.2456(2) 0.1226(3) 0.3035(5)
C5 C 0.1855(2) 0.0558(4) 0.2380(6)
C6 C 0.1174(2) 0.0583(4) 0.2871(7)
C7 C 0.0754(2) -0.0181(5) 0.1840(7)
H2 H 0.0277 -0.0274 0.1999
C8 C 0.1115(2) -0.0755(4) 0.0613(6)
C9 C 0.3328(2) -0.0327(3) 0.3895(5)
C10 C 0.3009(2) -0.1234(4) 0.4714(5)
C11 C 0.3424(2) -0.2250(3) 0.4670(6)
H3 H 0.3283 -0.2950 0.5136
C12 C 0.4040(2) -0.2088(3) 0.3884(5)
C13 C 0.0898(3) 0.1313(7) 0.4402(9)
H4 H 0.0817 0.0833 0.5421
H5 H 0.0469 0.1674 0.4028
H6 H 0.1236 0.1891 0.4718
C14 C 0.2326(2) -0.1177(4) 0.5651(7)
H7 H 0.2230 -0.0396 0.5976
H8 H 0.2349 -0.1643 0.6710
H9 H 0.1960 -0.1454 0.4866
S1 S 0.24058(7) 0.27062(10) 0.28570(17)
S2 S 0.19768(6) -0.04021(10) 0.06429(16)
S3 S 0.41456(5) -0.07124(9) 0.31210(15)
loop_
_geom_bond_atom_site_label_1
_geom_bond_atom_site_label_2
_geom_bond_site_symmetry_1
_geom_bond_site_symmetry_2
Br1 C1 1_555 1_555
Br2 C8 1_555 1_555
Br3 C12 1_555 1_555
C1 C2 1_555 1_555
C2 H1 1_555 1_555
C3 C2 1_555 1_555
C4 C3 1_555 1_555
C5 C4 1_555 1_555
C6 C5 1_555 1_555
C7 C6 1_555 1_555
H2 C7 1_555 1_555
C8 C7 1_555 1_555
C9 C3 1_555 1_555
C10 C9 1_555 1_555
C11 C10 1_555 1_555
H3 C11 1_555 1_555
C12 C11 1_555 1_555
C13 C6 1_555 1_555
H4 C13 1_555 1_555
H5 C13 1_555 1_555
H6 C13 1_555 1_555
C14 C10 1_555 1_555
H7 C14 1_555 1_555
H8 C14 1_555 1_555
H9 C14 1_555 1_555
S1 C1 1_555 1_555
S2 C5 1_555 1_555
S3 C9 1_555 1_555
C4 S1 1_555 1_555
C8 S2 1_555 1_555
C12 S3 1_555 1_555

#END
