
#######################################################################
#
#                 Cambridge Crystallographic Data Centre
#                                CCDC 
#
#######################################################################
#
# If this CIF has been generated from an entry in the Cambridge 
# Structural Database, then it will include bibliographic, chemical, 
# crystal, experimental, refinement or atomic coordinate data resulting 
# from the CCDC's data processing and validation procedures.
#
#######################################################################

data_POCMEB
_chemical_formula_moiety         'C17 H22 N4 O3,H2 O1'
_chemical_name_systematic        
'ethyl 5-(((3,4-dimethyl-1H-pyrrol-2-yl)carbonyl)carbonohydrazonoyl)-3,4-dimethyl-1H-pyrrole-2-carboxylate monohydrate'
_symmetry_cell_setting           triclinic
_symmetry_space_group_name_H-M   'P -1'
_symmetry_Int_Tables_number      2
_space_group_name_Hall           '-P 1'
loop_
_symmetry_equiv_pos_site_id
_symmetry_equiv_pos_as_xyz
1 x,y,z
2 -x,-y,-z
_cell_length_a                   6.4444(6)
_cell_length_b                   12.1465(11)
_cell_length_c                   12.6768(11)
_cell_angle_alpha                109.3370(10)
_cell_angle_beta                 95.6690(10)
_cell_angle_gamma                105.2850(10)
_cell_volume                     884.127
_exptl_crystal_colour            yellow
_exptl_crystal_description       prism
_cell_formula_units_Z            2
loop_
_atom_site_label
_atom_site_type_symbol
_atom_site_fract_x
_atom_site_fract_y
_atom_site_fract_z
N1 N 0.24778(19) 0.27862(11) 0.35253(11)
H1 H 0.1664 0.2212 0.3697
N2 N 0.4901(2) 0.22825(11) 0.51833(11)
N3 N 0.6192(2) 0.19475(12) 0.58676(11)
H2 H 0.7601 0.2199 0.5965
C1 C 0.5169(2) 0.12032(13) 0.63869(13)
N4 N 0.5646(2) -0.00447(12) 0.74767(12)
H3 H 0.4294 -0.0501 0.7257
C2 C 0.4658(2) 0.33555(13) 0.39537(12)
C3 C 0.6570(2) 0.09081(13) 0.71473(13)
C4 C 0.5384(2) 0.42384(13) 0.34869(13)
C5 C 0.8757(2) 0.14248(14) 0.77121(13)
C6 C 0.3561(2) 0.41877(13) 0.27425(13)
C7 C 0.1774(2) 0.32653(13) 0.27784(12)
C8 C 0.9127(3) 0.07313(15) 0.83676(14)
C9 C 0.5895(2) 0.30065(14) 0.47300(13)
H4 H 0.7421 0.3311 0.4900
C10 C 0.7183(3) -0.01563(15) 0.81987(14)
H5 H 0.6956 -0.0745 0.8530
C11 C 1.0437(3) 0.25508(15) 0.77266(15)
H6 H 1.1295 0.2317 0.7164
H7 H 1.1383 0.2971 0.8469
H8 H 0.9711 0.3086 0.7557
C12 C 0.7669(3) 0.51042(15) 0.37489(16)
H9 H 0.8609 0.4925 0.4261
H10 H 0.7659 0.5934 0.4099
H11 H 0.8204 0.5008 0.3054
C13 C 0.3578(3) 0.49908(16) 0.20661(16)
H12 H 0.3286 0.4500 0.1266
H13 H 0.4991 0.5607 0.2276
H14 H 0.2466 0.5381 0.2221
C14 C 1.1269(3) 0.0956(2) 0.91189(17)
H15 H 1.1541 0.1674 0.9796
H16 H 1.2438 0.1080 0.8714
H17 H 1.1198 0.0258 0.9328
O1 O -0.08714(17) 0.32076(11) 0.13762(10)
O2 O -0.18837(19) 0.19564(11) 0.23241(12)
C15 C -0.0496(2) 0.27340(14) 0.21614(13)
C16 C -0.3067(3) 0.27497(17) 0.06878(15)
H18 H -0.4140 0.2819 0.1171
H19 H -0.3409 0.1893 0.0199
O3 O 0.31492(17) 0.08238(11) 0.62298(11)
C17 C -0.3098(3) 0.3524(2) -0.00158(17)
H20 H -0.2796 0.4365 0.0479
H21 H -0.4518 0.3237 -0.0506
H22 H -0.1998 0.3465 -0.0472
O4 O 0.00234(18) -0.14613(11) 0.52306(11)
H23 H 0.093(3) -0.0682(11) 0.5600(16)
H24 H -0.123(2) -0.1384(17) 0.4933(17)
loop_
_geom_bond_atom_site_label_1
_geom_bond_atom_site_label_2
_geom_bond_site_symmetry_1
_geom_bond_site_symmetry_2
N1 H1 1_555 1_555
N2 N3 1_555 1_555
N3 H2 1_555 1_555
C1 N3 1_555 1_555
N4 H3 1_555 1_555
C2 N1 1_555 1_555
C3 C1 1_555 1_555
C4 C2 1_555 1_555
C5 C3 1_555 1_555
C6 C4 1_555 1_555
C7 N1 1_555 1_555
C8 C5 1_555 1_555
C9 N2 1_555 1_555
H4 C9 1_555 1_555
C10 N4 1_555 1_555
H5 C10 1_555 1_555
C11 C5 1_555 1_555
H6 C11 1_555 1_555
H7 C11 1_555 1_555
H8 C11 1_555 1_555
C12 C4 1_555 1_555
H9 C12 1_555 1_555
H10 C12 1_555 1_555
H11 C12 1_555 1_555
C13 C6 1_555 1_555
H12 C13 1_555 1_555
H13 C13 1_555 1_555
H14 C13 1_555 1_555
C14 C8 1_555 1_555
H15 C14 1_555 1_555
H16 C14 1_555 1_555
H17 C14 1_555 1_555
O1 C15 1_555 1_555
O2 C15 1_555 1_555
C15 C7 1_555 1_555
C16 O1 1_555 1_555
H18 C16 1_555 1_555
H19 C16 1_555 1_555
O3 C1 1_555 1_555
C17 C16 1_555 1_555
H20 C17 1_555 1_555
H21 C17 1_555 1_555
H22 C17 1_555 1_555
O4 H23 1_555 1_555
H24 O4 1_555 1_555
N4 C3 1_555 1_555
C2 C9 1_555 1_555
C6 C7 1_555 1_555
C8 C10 1_555 1_555

#END
