
#######################################################################
#
#                 Cambridge Crystallographic Data Centre
#                                CCDC 
#
#######################################################################
#
# If this CIF has been generated from an entry in the Cambridge 
# Structural Database, then it will include bibliographic, chemical, 
# crystal, experimental, refinement or atomic coordinate data resulting 
# from the CCDC's data processing and validation procedures.
#
#######################################################################

data_PODBOA
_chemical_compound_source        'root of Aconitum sibiricum'
_chemical_name_common            
20-ethyl-6,14,16-trimethoxy-3,4-epoxyaconitane-1,7,8-triol
_chemical_formula_moiety         'C23 H35 N1 O7'
_chemical_name_systematic        Tuguaconitine
_symmetry_cell_setting           orthorhombic
_symmetry_space_group_name_H-M   'P 21 21 21'
_symmetry_Int_Tables_number      19
_space_group_name_Hall           'P 2ac 2ab'
loop_
_symmetry_equiv_pos_site_id
_symmetry_equiv_pos_as_xyz
1 x,y,z
2 1/2-x,-y,1/2+z
3 1/2+x,1/2-y,-z
4 -x,1/2+y,1/2-z
_cell_length_a                   18.093(4)
_cell_length_b                   12.07(1)
_cell_length_c                   9.824(4)
_cell_angle_alpha                90
_cell_angle_beta                 90
_cell_angle_gamma                90
_cell_volume                     2145.39
_exptl_crystal_colour            colorless
_exptl_crystal_description       prism
_cell_formula_units_Z            4
_exptl_crystal_recrystallization_method methanol
loop_
_atom_site_label
_atom_site_type_symbol
_atom_site_fract_x
_atom_site_fract_y
_atom_site_fract_z
C1 C 0.3382(2) 1.0769(3) 0.5412(4)
C2 C 0.3544(2) 1.1557(3) 0.6618(4)
C3 C 0.3528(2) 1.0802(3) 0.7839(4)
C4 C 0.4007(2) 0.9850(3) 0.7716(3)
C5 C 0.4536(2) 0.9887(3) 0.6494(3)
C6 C 0.4987(2) 0.8807(3) 0.6416(3)
C7 C 0.4541(2) 0.8053(3) 0.5437(3)
C8 C 0.4847(2) 0.8023(3) 0.3975(3)
C9 C 0.4975(2) 0.9201(3) 0.3422(3)
C10 C 0.4357(2) 1.0027(3) 0.3862(3)
C11 C 0.3995(2) 0.9856(3) 0.5266(3)
C12 C 0.3781(2) 0.9966(3) 0.2667(4)
C13 C 0.4066(2) 0.9090(3) 0.1676(3)
C14 C 0.4897(2) 0.9252(3) 0.1859(4)
C15 C 0.4361(2) 0.7322(3) 0.3015(3)
C16 C 0.3818(2) 0.7937(3) 0.2062(3)
C17 C 0.3768(2) 0.8615(3) 0.5436(3)
C18 C 0.3674(2) 0.8737(3) 0.7966(3)
C19 C 0.6192(2) 0.9462(3) 0.7016(4)
C20 C 0.6088(3) 0.8760(4) 0.1115(5)
C21 C 0.3286(3) 0.6370(4) 0.0982(6)
C22 C 0.2913(2) 0.7393(3) 0.6776(4)
C23 C 0.2436(3) 0.7116(4) 0.5553(5)
N1 N 0.3295(2) 0.8466(2) 0.6662(3)
O1 O 0.2655(1) 1.0315(2) 0.5505(3)
O2 O 0.4151(2) 1.0654(2) 0.8771(2)
O3 O 0.5741(1) 0.8968(2) 0.5986(3)
O4 O 0.4488(1) 0.6958(2) 0.5958(2)
O5 O 0.5541(1) 0.7432(2) 0.4016(3)
O6 O 0.5328(2) 0.8484(2) 0.1098(3)
O7 O 0.3724(2) 0.7309(3) 0.0837(3)
H1 H 0.3417(2) 1.1217(3) 0.4607(4)
H2 H 0.4020(2) 1.1902(3) 0.6563(4)
H3 H 0.3169(2) 1.2116(3) 0.6712(4)
H4 H 0.3087(2) 1.0958(3) 0.8346(3)
H5 H 0.4866(2) 1.0509(3) 0.6512(3)
H6 H 0.4987(3) 0.8479(4) 0.7306(5)
H7 H 0.5453(3) 0.9459(4) 0.3702(6)
H8 H 0.4558(3) 1.0761(4) 0.3925(5)
H9 H 0.37466 1.06764 0.22318
H10 H 0.33066 0.97654 0.30298
H11 H 0.38788 0.92515 0.07833
H12 H 0.50207 0.99931 0.15886
H13 H 0.46843 0.68836 0.24572
H14 H 0.40813 0.68446 0.36022
H15 H 0.33500 0.80007 0.25162
H16 H 0.35053 0.83462 0.46544
H17 H 0.33322 0.87776 0.87114
H18 H 0.40572 0.82146 0.81794
H19 H 0.66862 0.95503 0.66780
H20 H 0.59952 1.01733 0.72630
H21 H 0.61982 0.89893 0.78010
H22 H 0.63600 0.82255 0.05943
H23 H 0.61560 0.94825 0.07263
H24 H 0.62640 0.87605 0.20373
H25 H 0.32459 0.59743 0.01368
H26 H 0.35079 0.59003 0.16558
H27 H 0.28019 0.65893 0.12808
H28 H 0.26051 0.74033 0.75708
H29 H 0.32731 0.68133 0.68598
H30 H 0.21905 0.64153 0.56502
H31 H 0.20735 0.76933 0.54662
H32 H 0.27415 0.71033 0.47552
loop_
_geom_bond_atom_site_label_1
_geom_bond_atom_site_label_2
_geom_bond_site_symmetry_1
_geom_bond_site_symmetry_2
C1 C2 1_555 1_555
C2 C3 1_555 1_555
C3 C4 1_555 1_555
C4 C5 1_555 1_555
C5 C6 1_555 1_555
C6 C7 1_555 1_555
C7 C8 1_555 1_555
C8 C9 1_555 1_555
C9 C10 1_555 1_555
C10 C11 1_555 1_555
C11 C1 1_555 1_555
C12 C10 1_555 1_555
C13 C12 1_555 1_555
C14 C9 1_555 1_555
C15 C8 1_555 1_555
C16 C13 1_555 1_555
C17 C7 1_555 1_555
C18 C4 1_555 1_555
C19 O3 1_555 1_555
C20 O6 1_555 1_555
C21 O7 1_555 1_555
C22 C23 1_555 1_555
C23 H30 1_555 1_555
N1 C17 1_555 1_555
O1 C1 1_555 1_555
O2 C3 1_555 1_555
O3 C6 1_555 1_555
O4 C7 1_555 1_555
O5 C8 1_555 1_555
O6 C14 1_555 1_555
O7 C16 1_555 1_555
H1 C1 1_555 1_555
H2 C2 1_555 1_555
H3 C2 1_555 1_555
H4 C3 1_555 1_555
H5 C5 1_555 1_555
H6 C6 1_555 1_555
H7 C9 1_555 1_555
H8 C10 1_555 1_555
H9 C12 1_555 1_555
H10 C12 1_555 1_555
H11 C13 1_555 1_555
H12 C14 1_555 1_555
H13 C15 1_555 1_555
H14 C15 1_555 1_555
H15 C16 1_555 1_555
H16 C17 1_555 1_555
H17 C18 1_555 1_555
H18 C18 1_555 1_555
H19 C19 1_555 1_555
H20 C19 1_555 1_555
H21 C19 1_555 1_555
H22 C20 1_555 1_555
H23 C20 1_555 1_555
H24 C20 1_555 1_555
H25 C21 1_555 1_555
H26 C21 1_555 1_555
H27 C21 1_555 1_555
H28 C22 1_555 1_555
H29 C22 1_555 1_555
H31 C23 1_555 1_555
H32 C23 1_555 1_555
C4 O2 1_555 1_555
C5 C11 1_555 1_555
C11 C17 1_555 1_555
C13 C14 1_555 1_555
C15 C16 1_555 1_555
C18 N1 1_555 1_555
C22 N1 1_555 1_555

#END
