
#######################################################################
#
#                 Cambridge Crystallographic Data Centre
#                                CCDC 
#
#######################################################################
#
# If this CIF has been generated from an entry in the Cambridge 
# Structural Database, then it will include bibliographic, chemical, 
# crystal, experimental, refinement or atomic coordinate data resulting 
# from the CCDC's data processing and validation procedures.
#
#######################################################################

data_PODCOB
_chemical_formula_moiety         'C24 H22 N4 O2 S1'
_chemical_name_systematic        
N-(3-methylphenyl)-2-((5-(phenoxymethyl)-4-phenyl-4H-1,2,4-triazol-3-yl)sulfanyl)acetamide
_symmetry_cell_setting           triclinic
_symmetry_space_group_name_H-M   'P -1'
_symmetry_Int_Tables_number      2
_space_group_name_Hall           '-P 1'
loop_
_symmetry_equiv_pos_site_id
_symmetry_equiv_pos_as_xyz
1 x,y,z
2 -x,-y,-z
_cell_length_a                   9.0194(4)
_cell_length_b                   9.9914(5)
_cell_length_c                   13.2122(6)
_cell_angle_alpha                74.794(2)
_cell_angle_beta                 74.922(2)
_cell_angle_gamma                77.246(2)
_cell_volume                     1094.43
_chemical_melting_point          '165 deg.C'
_cell_formula_units_Z            2
loop_
_atom_site_label
_atom_site_type_symbol
_atom_site_fract_x
_atom_site_fract_y
_atom_site_fract_z
S1 S 0.77033(6) 0.43843(4) 0.34806(4)
C1 C 0.82029(18) 0.19454(15) 0.48292(13)
C2 C 0.88438(19) 0.33174(16) 0.44214(14)
H1 H 0.9935 0.3153 0.4072
H2 H 0.8737 0.3770 0.5008
C3 C 0.73930(18) -0.09292(16) 0.59317(13)
H3 H 0.7115 -0.0563 0.5271
C4 C 0.81761(18) -0.01712(16) 0.63105(13)
C5 C 0.61072(18) 0.73545(15) 0.23621(13)
C6 C 0.8193(2) 1.16524(16) 0.10619(13)
C7 C 0.7498(2) 0.98045(16) 0.25723(13)
H4 H 0.6400 0.9963 0.2562
H5 H 0.7639 1.0342 0.3045
C8 C 0.70223(19) -0.22291(17) 0.65318(14)
C9 C 0.6290(2) 0.79379(19) 0.12794(15)
H6 H 0.7212 0.8253 0.0889
C10 C 0.8574(2) -0.0717(2) 0.73006(15)
H7 H 0.9097 -0.0221 0.7562
C11 C 0.3563(2) 0.6986(2) 0.24335(19)
H8 H 0.2643 0.6660 0.2818
C12 C 0.9289(2) 1.2072(2) 0.01544(15)
H9 H 1.0092 1.1416 -0.0121
C13 C 0.4748(2) 0.68808(18) 0.29530(15)
H10 H 0.4630 0.6498 0.3686
C14 C 0.7426(2) -0.2748(2) 0.75147(16)
H11 H 0.7180 -0.3612 0.7926
C15 C 0.5086(3) 0.8049(2) 0.07792(18)
H12 H 0.5191 0.8452 0.0050
C16 C 0.7999(3) 1.4452(2) 0.00518(18)
H13 H 0.7940 1.5399 -0.0284
C17 C 0.6992(3) 1.26167(19) 0.14596(16)
H14 H 0.6246 1.2330 0.2069
C18 C 0.9182(3) 1.3483(2) -0.03445(17)
H15 H 0.9922 1.3775 -0.0956
C19 C 0.8194(3) -0.1993(2) 0.78944(17)
H16 H 0.8457 -0.2354 0.8560
C20 C 0.3738(3) 0.7567(2) 0.1356(2)
H17 H 0.2936 0.7635 0.1014
C21 C 0.6906(3) 1.4022(2) 0.09421(18)
H18 H 0.6092 1.4679 0.1205
O1 O 0.73672(16) 0.16516(12) 0.43550(11)
O2 O 0.83905(14) 1.02279(11) 0.15143(9)
N1 N 0.73724(15) 0.72263(12) 0.28775(10)
N2 N 0.92016(17) 0.77540(14) 0.34463(11)
N3 N 0.93184(17) 0.62942(14) 0.37031(12)
C22 C 0.82050(19) 0.60129(16) 0.33654(13)
C23 C 0.80532(19) 0.82784(16) 0.29577(12)
N4 N 0.86310(15) 0.11304(13) 0.57247(10)
H19 H 0.9255 0.1436 0.5971
C24 C 0.6268(2) -0.3073(2) 0.60731(17)
H20 H 0.7059 -0.3638 0.5649
H21 H 0.5601 -0.2447 0.5630
H22 H 0.5665 -0.3672 0.6649
loop_
_geom_bond_atom_site_label_1
_geom_bond_atom_site_label_2
_geom_bond_site_symmetry_1
_geom_bond_site_symmetry_2
S1 C2 1_555 1_555
C1 C2 1_555 1_555
C2 H1 1_555 1_555
H2 C2 1_555 1_555
C3 H3 1_555 1_555
C4 C3 1_555 1_555
C5 C9 1_555 1_555
C6 C12 1_555 1_555
C7 H4 1_555 1_555
H5 C7 1_555 1_555
C8 C3 1_555 1_555
C9 H6 1_555 1_555
C10 C4 1_555 1_555
H7 C10 1_555 1_555
C11 H8 1_555 1_555
C12 H9 1_555 1_555
C13 C5 1_555 1_555
H10 C13 1_555 1_555
C14 C8 1_555 1_555
H11 C14 1_555 1_555
C15 C9 1_555 1_555
H12 C15 1_555 1_555
C16 H13 1_555 1_555
C17 C6 1_555 1_555
H14 C17 1_555 1_555
C18 C12 1_555 1_555
H15 C18 1_555 1_555
C19 C10 1_555 1_555
H16 C19 1_555 1_555
C20 C11 1_555 1_555
H17 C20 1_555 1_555
C21 C16 1_555 1_555
H18 C21 1_555 1_555
O1 C1 1_555 1_555
O2 C6 1_555 1_555
N1 C5 1_555 1_555
N2 N3 1_555 1_555
N3 C22 1_555 1_555
C22 S1 1_555 1_555
C23 C7 1_555 1_555
N4 C1 1_555 1_555
H19 N4 1_555 1_555
C24 C8 1_555 1_555
H20 C24 1_555 1_555
H21 C24 1_555 1_555
H22 C24 1_555 1_555
C4 N4 1_555 1_555
C7 O2 1_555 1_555
C11 C13 1_555 1_555
C14 C19 1_555 1_555
C15 C20 1_555 1_555
C16 C18 1_555 1_555
C17 C21 1_555 1_555
N1 C22 1_555 1_555
N1 C23 1_555 1_555
N2 C23 1_555 1_555

#END
