
#######################################################################
#
#                 Cambridge Crystallographic Data Centre
#                                CCDC 
#
#######################################################################
#
# If this CIF has been generated from an entry in the Cambridge 
# Structural Database, then it will include bibliographic, chemical, 
# crystal, experimental, refinement or atomic coordinate data resulting 
# from the CCDC's data processing and validation procedures.
#
#######################################################################

data_PODCAN
_chemical_formula_moiety         'C15 H11 Br2 N5 O3 S1,C3 H7 N1 O1,2(H2 O1)'
_chemical_name_systematic        
'3-(4-(((3,5-dibromo-2-hydroxyphenyl)methylidene)amino)-5-thioxo-4,5-dihydro-1H-1,2,4-triazol-3-yl)-4-hydroxy-6-methylpyridin-2(1H)-one dimethylformamide solvate dihydrate'
_chemical_properties_biological  
'Antitumour activity against IIL-60, BGC-823, Bel-7402 and KB cells'
_symmetry_cell_setting           monoclinic
_symmetry_space_group_name_H-M   'C 2/c'
_symmetry_Int_Tables_number      15
_space_group_name_Hall           '-C 2yn'
loop_
_symmetry_equiv_pos_site_id
_symmetry_equiv_pos_as_xyz
1 x,y,z
2 1/2+x,1/2+y,z
3 -x,y,1/2-z
4 1/2-x,1/2+y,1/2-z
5 -x,-y,-z
6 1/2-x,1/2-y,-z
7 x,-y,1/2+z
8 1/2+x,1/2-y,1/2+z
_cell_length_a                   18.1818(13)
_cell_length_b                   37.039(3)
_cell_length_c                   7.7013(6)
_cell_angle_alpha                90
_cell_angle_beta                 100.5280(10)
_cell_angle_gamma                90
_cell_volume                     5099.02
_exptl_crystal_colour            yellow
_exptl_crystal_description       prismatic
_chemical_melting_point          '269-271 deg.C'
_cell_formula_units_Z            8
loop_
_atom_site_label
_atom_site_type_symbol
_atom_site_fract_x
_atom_site_fract_y
_atom_site_fract_z
Br1 Br 0.66871(5) 0.94858(2) 0.70421(18)
Br2 Br 0.89043(3) 1.042210(12) 0.54061(8)
S1 S 1.07872(6) 0.87118(3) 0.51549(19)
O1 O 0.83810(14) 0.77211(8) 0.1014(4)
O2 O 0.81171(15) 0.81499(9) 0.6653(4)
H1 H 0.7798 0.8152 0.7279
O3 O 0.77144(17) 0.89220(8) 0.6067(6)
H2 H 0.8039 0.8769 0.6053
N1 N 0.96310(17) 0.78295(9) 0.4209(5)
N2 N 1.02714(18) 0.80412(9) 0.4539(5)
N3 N 0.72595(18) 0.77136(9) 0.1912(5)
N4 N 0.93753(16) 0.84037(8) 0.4612(4)
N5 N 0.88953(17) 0.86841(8) 0.4899(5)
C1 C 1.0144(2) 0.83917(10) 0.4767(5)
C2 C 0.9083(2) 0.80567(10) 0.4258(5)
C3 C 0.8288(2) 0.79653(10) 0.3853(6)
C4 C 0.7820(2) 0.80216(10) 0.5058(6)
C5 C 0.7058(2) 0.79392(11) 0.4604(6)
H3 H 0.6738 0.7992 0.5384
C6 C 0.6791(2) 0.77844(12) 0.3047(6)
C7 C 0.8011(2) 0.77983(10) 0.2203(6)
C8 C 0.5994(2) 0.76834(14) 0.2449(7)
H4 H 0.5816 0.7785 0.1303
H5 H 0.5702 0.7775 0.3272
H6 H 0.5951 0.7425 0.2387
C9 C 0.9132(2) 0.90094(11) 0.4856(6)
H7 H 0.9596 0.9055 0.4556
C10 C 0.8674(2) 0.93046(11) 0.5279(6)
C11 C 0.8950(2) 0.96577(11) 0.5172(6)
H8 H 0.9411 0.9695 0.4842
C12 C 0.8533(3) 0.99492(11) 0.5558(7)
C13 C 0.7868(3) 0.98999(12) 0.6074(7)
H9 H 0.7591 1.0097 0.6337
C14 C 0.7606(3) 0.95555(13) 0.6204(8)
C15 C 0.7995(2) 0.92489(11) 0.5842(6)
H17 H 1.0772(17) 0.802(2) 0.443(11)
H18 H 0.706(2) 0.7616(11) 0.086(4)
O4 O 0.7056(2) 0.82703(11) 0.8423(5)
N6 N 0.6768(3) 0.86784(14) 1.0359(7)
C16 C 0.7211(3) 0.84995(19) 0.9518(9)
H10 H 0.7716 0.8558 0.9810
C17 C 0.5978(4) 0.8617(2) 1.0011(14)
H11 H 0.5726 0.8830 0.9508
H12 H 0.5814 0.8559 1.1095
H13 H 0.5864 0.8419 0.9198
C18 C 0.7003(6) 0.8953(3) 1.1643(13)
H14 H 0.6866 0.9186 1.1134
H15 H 0.7537 0.8942 1.2013
H16 H 0.6766 0.8917 1.2646
O5 O 0.4544(8) 0.7938(3) 0.7933(18)
H19 H 0.4527(17) 0.8004(8) 0.896(3)
O6 O 0.5000 0.0148(14) 0.7500
H20 H 0.503(3) 0.0036(14) 0.865(5)
H20B H 0.497(3) 0.0036(14) 0.635(5)
Br3? Br 0.6506(5) 0.9468(3) 0.5743(14)
loop_
_geom_bond_atom_site_label_1
_geom_bond_atom_site_label_2
_geom_bond_site_symmetry_1
_geom_bond_site_symmetry_2
Br1 C14 1_555 1_555
Br2 C12 1_555 1_555
S1 C1 1_555 1_555
O1 C7 1_555 1_555
O2 H1 1_555 1_555
O3 H2 1_555 1_555
O4 C16 1_555 1_555
O5 H19 1_555 1_555
O6 H20 1_555 1_555
N1 N2 1_555 1_555
N2 C1 1_555 1_555
N3 C6 1_555 1_555
N4 N5 1_555 1_555
N5 C9 1_555 1_555
N6 C16 1_555 1_555
C1 N4 1_555 1_555
C2 N1 1_555 1_555
C3 C2 1_555 1_555
C4 O2 1_555 1_555
C5 C4 1_555 1_555
H3 C5 1_555 1_555
C6 C5 1_555 1_555
C7 N3 1_555 1_555
C8 C6 1_555 1_555
H4 C8 1_555 1_555
H5 C8 1_555 1_555
H6 C8 1_555 1_555
C9 H7 1_555 1_555
C10 C9 1_555 1_555
C11 C10 1_555 1_555
H8 C11 1_555 1_555
C12 C11 1_555 1_555
C13 C12 1_555 1_555
H9 C13 1_555 1_555
C14 C13 1_555 1_555
C15 O3 1_555 1_555
C16 H10 1_555 1_555
C17 N6 1_555 1_555
H11 C17 1_555 1_555
H12 C17 1_555 1_555
H13 C17 1_555 1_555
C18 N6 1_555 1_555
H14 C18 1_555 1_555
H15 C18 1_555 1_555
H16 C18 1_555 1_555
H17 N2 1_555 1_555
H18 N3 1_555 1_555
H20B O6 1_555 1_555
N4 C2 1_555 1_555
C3 C4 1_555 1_555
C3 C7 1_555 1_555
C10 C15 1_555 1_555
C14 C15 1_555 1_555

#END
