
#######################################################################
#
#                 Cambridge Crystallographic Data Centre
#                                CCDC 
#
#######################################################################
#
# If this CIF has been generated from an entry in the Cambridge 
# Structural Database, then it will include bibliographic, chemical, 
# crystal, experimental, refinement or atomic coordinate data resulting 
# from the CCDC's data processing and validation procedures.
#
#######################################################################

data_PODQIK
_chemical_formula_moiety         'C16 H13 Cl1 O3'
_chemical_name_systematic        
'2-(4-chlorophenyl)-2-oxoethyl 3-methylbenzoate'
_symmetry_cell_setting           monoclinic
_symmetry_space_group_name_H-M   'P 21/c'
_symmetry_Int_Tables_number      14
_space_group_name_Hall           '-P 2ybc'
loop_
_symmetry_equiv_pos_site_id
_symmetry_equiv_pos_as_xyz
1 x,y,z
2 -x,1/2+y,1/2-z
3 -x,-y,-z
4 x,1/2-y,1/2+z
_cell_length_a                   4.7441(8)
_cell_length_b                   29.316(5)
_cell_length_c                   10.4214(18)
_cell_angle_alpha                90
_cell_angle_beta                 92.759(4)
_cell_angle_gamma                90
_cell_volume                     1447.71
_exptl_crystal_colour            colorless
_exptl_crystal_description       plate
_cell_formula_units_Z            4
loop_
_atom_site_label
_atom_site_type_symbol
_atom_site_fract_x
_atom_site_fract_y
_atom_site_fract_z
Cl1 Cl 0.2486(2) 0.66862(3) 0.04101(9)
O1 O 0.9237(4) 0.47307(7) 0.17539(19)
O2 O 0.6832(4) 0.42010(7) 0.3410(2)
O3 O 1.0083(5) 0.44118(7) 0.4922(2)
C1 C 0.4013(5) 0.55718(8) 0.2477(2)
H1 H 0.3381 0.5445 0.3228
C2 C 0.2944(6) 0.59836(9) 0.2055(3)
H2 H 0.1614 0.6137 0.2522
C3 C 0.3857(6) 0.61666(8) 0.0938(2)
C4 C 0.5814(6) 0.59461(10) 0.0241(3)
H3 H 0.6401 0.6072 -0.0520
C5 C 0.6902(5) 0.55375(10) 0.0673(2)
H4 H 0.8248 0.5389 0.0205
C6 C 0.6017(4) 0.53436(8) 0.1800(2)
C7 C 0.7202(5) 0.48989(8) 0.2226(2)
C8 C 0.5848(6) 0.46610(10) 0.3295(3)
H5 H 0.6276 0.4822 0.4093
H6 H 0.3816 0.4662 0.3137
C9 C 0.9039(5) 0.41245(9) 0.4228(3)
C10 C 0.9973(5) 0.36434(8) 0.4173(2)
C11 C 0.8990(7) 0.33466(11) 0.3239(3)
H7 H 0.7671 0.3444 0.2608
C12 C 0.9971(7) 0.29005(12) 0.3239(4)
H8 H 0.9335 0.2699 0.2598
C13 C 1.1874(6) 0.27568(10) 0.4180(3)
H9 H 1.2485 0.2455 0.4181
C14 C 1.2900(5) 0.30461(8) 0.5123(2)
C15 C 1.1928(4) 0.34903(8) 0.5102(2)
H10 H 1.2608 0.3692 0.5731
C16 C 1.5011(6) 0.28804(10) 0.6144(3)
H11 H 1.5429 0.2565 0.5997
H12 H 1.4239 0.2914 0.6973
H13 H 1.6712 0.3057 0.6112
loop_
_geom_bond_atom_site_label_1
_geom_bond_atom_site_label_2
_geom_bond_site_symmetry_1
_geom_bond_site_symmetry_2
Cl1 C3 1_555 1_555
O1 C7 1_555 1_555
O2 C8 1_555 1_555
O3 C9 1_555 1_555
C1 H1 1_555 1_555
C2 C1 1_555 1_555
H2 C2 1_555 1_555
C3 C2 1_555 1_555
C4 C3 1_555 1_555
H3 C4 1_555 1_555
C5 C4 1_555 1_555
H4 C5 1_555 1_555
C6 C1 1_555 1_555
C7 C6 1_555 1_555
C8 C7 1_555 1_555
H5 C8 1_555 1_555
H6 C8 1_555 1_555
C9 O2 1_555 1_555
C10 C9 1_555 1_555
C11 C10 1_555 1_555
H7 C11 1_555 1_555
C12 C11 1_555 1_555
H8 C12 1_555 1_555
C13 C12 1_555 1_555
H9 C13 1_555 1_555
C14 C13 1_555 1_555
C15 C10 1_555 1_555
H10 C15 1_555 1_555
C16 C14 1_555 1_555
H11 C16 1_555 1_555
H12 C16 1_555 1_555
H13 C16 1_555 1_555
C5 C6 1_555 1_555
C14 C15 1_555 1_555

#END
