
#######################################################################
#
#                 Cambridge Crystallographic Data Centre
#                                CCDC 
#
#######################################################################
#
# If this CIF has been generated from an entry in the Cambridge 
# Structural Database, then it will include bibliographic, chemical, 
# crystal, experimental, refinement or atomic coordinate data resulting 
# from the CCDC's data processing and validation procedures.
#
#######################################################################

data_POFDAP
_chemical_formula_moiety         'C22 H20 N2 O2'
_chemical_name_systematic        1,2-bis(Benzaldoxime-N)phenylethene
_symmetry_cell_setting           triclinic
_symmetry_space_group_name_H-M   'P -1'
_symmetry_Int_Tables_number      2
_space_group_name_Hall           '-P 1'
loop_
_symmetry_equiv_pos_site_id
_symmetry_equiv_pos_as_xyz
1 x,y,z
2 -x,-y,-z
_cell_length_a                   9.6495(28)
_cell_length_b                   9.8965(22)
_cell_length_c                   10.4141(37)
_cell_angle_alpha                68.349(24)
_cell_angle_beta                 85.517(26)
_cell_angle_gamma                85.119(21)
_cell_volume                     919.816
_chemical_melting_point          '189-190 deg.C'
_cell_formula_units_Z            2
loop_
_atom_site_label
_atom_site_type_symbol
_atom_site_fract_x
_atom_site_fract_y
_atom_site_fract_z
C1 C 0.7874(2) 0.0682(2) 0.3311(2)
C2 C 0.8607(2) 0.4052(2) 0.4729(2)
O1 O 0.7886(1) 0.3109(1) 0.1893(1)
O2 O 1.0061(2) 0.2054(2) 0.5500(1)
C3 C 1.1018(2) 0.0838(2) 0.1034(2)
C4 C 1.1785(2) 0.0838(2) -0.0190(2)
C5 C 1.2362(3) 0.2095(2) -0.1139(2)
C6 C 1.2162(2) 0.3361(2) -0.0873(2)
C7 C 1.1379(2) 0.3371(2) 0.0347(2)
C8 C 1.0816(2) 0.2104(2) 0.1329(2)
C9 C 1.0008(2) 0.2033(2) 0.2706(2)
N1 N 0.8480(1) 0.1926(1) 0.2665(1)
C10 C 0.6472(2) 0.0336(2) 0.3232(2)
C11 C 0.6007(2) -0.1034(2) 0.4119(2)
C12 C 0.4701(2) -0.1473(2) 0.4087(2)
C13 C 0.3843(2) -0.0578(2) 0.2976(2)
C14 C 0.4285(2) 0.0775(2) 0.2286(2)
C15 C 0.5583(2) 0.1244(2) 0.2312(2)
C16 C 1.0229(2) 0.3326(2) 0.3096(2)
N2 N 0.9577(2) 0.3142(1) 0.4527(1)
C17 C 0.7906(2) 0.4082(2) 0.6050(2)
C18 C 0.8382(2) 0.3326(2) 0.7335(2)
C19 C 0.7469(3) 0.3461(2) 0.8535(2)
C20 C 0.6453(3) 0.4314(2) 0.8473(2)
C21 C 0.5975(3) 0.5069(2) 0.7217(3)
C22 C 0.6701(2) 0.4964(2) 0.6003(2)
loop_
_geom_bond_atom_site_label_1
_geom_bond_atom_site_label_2
_geom_bond_site_symmetry_1
_geom_bond_site_symmetry_2
C1 N1 1_555 1_555
C2 N2 1_555 1_555
O1 N1 1_555 1_555
O2 N2 1_555 1_555
C3 C4 1_555 1_555
C4 C5 1_555 1_555
C5 C6 1_555 1_555
C6 C7 1_555 1_555
C7 C8 1_555 1_555
C8 C3 1_555 1_555
C9 C8 1_555 1_555
N1 C9 1_555 1_555
C10 C1 1_555 1_555
C11 C10 1_555 1_555
C12 C11 1_555 1_555
C13 C12 1_555 1_555
C14 C13 1_555 1_555
C15 C10 1_555 1_555
C16 C9 1_555 1_555
N2 C16 1_555 1_555
C17 C2 1_555 1_555
C18 C17 1_555 1_555
C19 C18 1_555 1_555
C20 C19 1_555 1_555
C21 C20 1_555 1_555
C22 C17 1_555 1_555
C14 C15 1_555 1_555
C21 C22 1_555 1_555

#END
