
#######################################################################
#
#                 Cambridge Crystallographic Data Centre
#                                CCDC 
#
#######################################################################
#
# If this CIF has been generated from an entry in the Cambridge 
# Structural Database, then it will include bibliographic, chemical, 
# crystal, experimental, refinement or atomic coordinate data resulting 
# from the CCDC's data processing and validation procedures.
#
#######################################################################

data_POFLON
_chemical_formula_moiety         'C11 H13 N1 O3 S2,H2 O1'
_chemical_name_systematic        
'3-(2-methyl-1,3-benzothiazol-3-ium-3-yl)propane-1-sulfonate monohydrate'
_symmetry_cell_setting           monoclinic
_symmetry_space_group_name_H-M   'P 21/c'
_symmetry_Int_Tables_number      14
_space_group_name_Hall           '-P 2ybc'
loop_
_symmetry_equiv_pos_site_id
_symmetry_equiv_pos_as_xyz
1 x,y,z
2 -x,1/2+y,1/2-z
3 -x,-y,-z
4 x,1/2-y,1/2+z
_cell_length_a                   10.936(5)
_cell_length_b                   8.708(5)
_cell_length_c                   13.794(5)
_cell_angle_alpha                90
_cell_angle_beta                 109.529(5)
_cell_angle_gamma                90
_cell_volume                     1238.04
_exptl_crystal_colour            white
_exptl_crystal_description       block
_cell_formula_units_Z            4
loop_
_atom_site_label
_atom_site_type_symbol
_atom_site_fract_x
_atom_site_fract_y
_atom_site_fract_z
C1 C -0.04082(15) 0.49554(19) 0.80688(12)
H1 H -0.0210 0.6044 0.8110
H2 H -0.0771 0.4720 0.8604
C2 C 0.08437(15) 0.4060(2) 0.82760(12)
H3 H 0.1180 0.4207 0.7715
H4 H 0.0682 0.2972 0.8327
C3 C 0.18249(16) 0.46262(19) 0.92775(13)
H5 H 0.2076 0.5670 0.9186
H6 H 0.1426 0.4636 0.9809
C4 C 0.23671(18) 0.2245(2) 1.09534(14)
H7 H 0.2531 0.2983 1.1499
H8 H 0.2549 0.1232 1.1240
H9 H 0.1474 0.2306 1.0522
C5 C 0.32123(15) 0.25761(19) 1.03338(12)
C6 C 0.49490(15) 0.26655(18) 0.95809(12)
C7 C 0.60073(16) 0.2548(2) 0.92365(13)
H10 H 0.6661 0.1832 0.9517
C8 C 0.60501(18) 0.3533(2) 0.84639(14)
H11 H 0.6733 0.3465 0.8207
C9 C 0.50797(19) 0.4631(2) 0.80639(13)
H12 H 0.5145 0.5296 0.7556
C10 C 0.40270(17) 0.4758(2) 0.83992(13)
H13 H 0.3387 0.5494 0.8131
C11 C 0.39668(15) 0.37330(18) 0.91581(12)
N1 N 0.29980(13) 0.36398(15) 0.96126(10)
O1 O -0.18774(14) 0.29348(16) 0.68281(11)
O2 O -0.26970(12) 0.55228(16) 0.68129(11)
O3 O -0.10098(14) 0.50116(19) 0.60890(10)
S1 S -0.15982(4) 0.45636(5) 0.68522(3)
S2 S 0.46338(4) 0.16183(5) 1.05392(3)
O4 O 0.09084(19) 0.6948(3) 0.55198(17)
H14 H 0.0932 0.6459 0.5068
H15 H 0.0523 0.6424 0.5819
loop_
_geom_bond_atom_site_label_1
_geom_bond_atom_site_label_2
_geom_bond_site_symmetry_1
_geom_bond_site_symmetry_2
C1 H1 1_555 1_555
H2 C1 1_555 1_555
C2 C1 1_555 1_555
H3 C2 1_555 1_555
H4 C2 1_555 1_555
C3 C2 1_555 1_555
H5 C3 1_555 1_555
H6 C3 1_555 1_555
C4 H7 1_555 1_555
H8 C4 1_555 1_555
H9 C4 1_555 1_555
C5 C4 1_555 1_555
C6 C7 1_555 1_555
C7 H10 1_555 1_555
C8 C7 1_555 1_555
H11 C8 1_555 1_555
C9 C8 1_555 1_555
H12 C9 1_555 1_555
C10 C9 1_555 1_555
H13 C10 1_555 1_555
C11 C6 1_555 1_555
N1 C3 1_555 1_555
O1 S1 1_555 1_555
O2 S1 1_555 1_555
O3 S1 1_555 1_555
S1 C1 1_555 1_555
S2 C5 1_555 1_555
O4 H14 1_555 1_555
H15 O4 1_555 1_555
C5 N1 1_555 1_555
C6 S2 1_555 1_555
C10 C11 1_555 1_555
C11 N1 1_555 1_555

#END
