
#######################################################################
#
#                 Cambridge Crystallographic Data Centre
#                                CCDC 
#
#######################################################################
#
# If this CIF has been generated from an entry in the Cambridge 
# Structural Database, then it will include bibliographic, chemical, 
# crystal, experimental, refinement or atomic coordinate data resulting 
# from the CCDC's data processing and validation procedures.
#
#######################################################################

data_POFNII
_chemical_formula_moiety         'C17 H18 N6 O2,0.5(C1 H4 O1)'
_chemical_name_systematic        
'3,5-Dimethyl-1-(2-pyridylcarbonyl)-5-[(2-pyridylcarbonyl)hydrazino]-2-pyrazoline methanol hemisolvate'
_symmetry_cell_setting           triclinic
_symmetry_space_group_name_H-M   'P -1'
_symmetry_Int_Tables_number      2
_space_group_name_Hall           '-P 1'
loop_
_symmetry_equiv_pos_site_id
_symmetry_equiv_pos_as_xyz
1 x,y,z
2 -x,-y,-z
_cell_length_a                   9.0111(12)
_cell_length_b                   10.6406(17)
_cell_length_c                   10.8141(18)
_cell_angle_alpha                78.2210(10)
_cell_angle_beta                 66.4140(10)
_cell_angle_gamma                86.477(2)
_cell_volume                     930.025
_exptl_crystal_colour            white
_exptl_crystal_description       block
_chemical_melting_point          '585-587 K'
_cell_formula_units_Z            2
_exptl_crystal_recrystallization_method methanol
loop_
_atom_site_label
_atom_site_type_symbol
_atom_site_fract_x
_atom_site_fract_y
_atom_site_fract_z
O3 O 0.8469(9) 0.4142(8) 0.1517(8)
H3 H 0.7709 0.4329 0.1285
C18 C 0.9726(6) 0.5000(6) 0.0745(5)
H20 H 1.0622 0.4778 0.1024
H21 H 0.9384 0.5854 0.0911
O3A O 1.1531(9) 0.5858(8) -0.1517(8)
H3A H 1.2291 0.5671 -0.1285
C18A C 1.0274(6) 0.5000(6) -0.0745(5)
H20A H 0.9378 0.5222 -0.1024
H21A H 1.0616 0.4146 -0.0911
N1 N 0.4874(3) 0.8072(2) 0.1320(2)
N2 N 0.3319(3) 0.8492(2) 0.1473(2)
N3 N 0.4382(3) 0.5456(2) 0.1581(2)
H1 H 0.3688 0.5191 0.1298
N4 N 0.5844(3) 0.6043(2) 0.0554(2)
H2 H 0.6572 0.6046 0.0905
N5 N 0.4085(4) 0.9947(3) 0.3280(3)
N6 N 0.1726(3) 0.4050(2) 0.3258(2)
O1 O 0.6856(3) 0.7836(2) 0.2105(2)
O2 O 0.5370(3) 0.5115(2) 0.3232(2)
C1 C 0.3048(3) 0.8290(3) 0.0467(3)
C2 C 0.4392(4) 0.7663(3) -0.0514(3)
H4 H 0.4832 0.8217 -0.1416
H5 H 0.4026 0.6859 -0.0600
C3 C 0.5665(3) 0.7430(3) 0.0119(3)
C4 C 0.1544(4) 0.8701(4) 0.0264(4)
H6 H 0.0845 0.9090 0.1013
H7 H 0.1001 0.7967 0.0232
H8 H 0.1813 0.9311 -0.0586
C5 C 0.7302(4) 0.8002(3) -0.0844(3)
H9 H 0.7209 0.8906 -0.1139
H10 H 0.7718 0.7598 -0.1631
H11 H 0.8027 0.7866 -0.0379
C6 C 0.5483(3) 0.8179(3) 0.2250(3)
C7 C 0.4413(4) 0.8700(3) 0.3491(3)
C8 C 0.3925(4) 0.7926(3) 0.4769(3)
H12 H 0.4203 0.7066 0.4874
C9 C 0.3014(5) 0.8454(4) 0.5893(4)
H13 H 0.2640 0.7951 0.6774
C10 C 0.2671(5) 0.9717(4) 0.5696(4)
H14 H 0.2066 1.0094 0.6444
C11 C 0.3214(5) 1.0429(4) 0.4402(4)
H15 H 0.2969 1.1295 0.4287
C12 C 0.4278(3) 0.4976(3) 0.2862(3)
C13 C 0.2742(3) 0.4273(2) 0.3813(3)
C14 C 0.2423(4) 0.3888(3) 0.5204(3)
H16 H 0.3164 0.4058 0.5552
C15 C 0.0991(4) 0.3252(3) 0.6047(3)
H17 H 0.0736 0.2988 0.6985
C16 C -0.0062(4) 0.3010(3) 0.5495(3)
H18 H -0.1035 0.2567 0.6048
C17 C 0.0339(4) 0.3432(3) 0.4113(3)
H19 H -0.0397 0.3278 0.3752
loop_
_geom_bond_atom_site_label_1
_geom_bond_atom_site_label_2
_geom_bond_site_symmetry_1
_geom_bond_site_symmetry_2
N1 N2 1_555 1_555
N2 C1 1_555 1_555
N3 H1 1_555 1_555
N4 N3 1_555 1_555
H2 N4 1_555 1_555
N5 C7 1_555 1_555
N6 C13 1_555 1_555
O1 C6 1_555 1_555
O2 C12 1_555 1_555
O3 H3 1_555 1_555
C1 C2 1_555 1_555
C2 H4 1_555 1_555
H5 C2 1_555 1_555
C3 N1 1_555 1_555
C4 C1 1_555 1_555
H6 C4 1_555 1_555
H7 C4 1_555 1_555
H8 C4 1_555 1_555
C5 C3 1_555 1_555
H9 C5 1_555 1_555
H10 C5 1_555 1_555
H11 C5 1_555 1_555
C6 N1 1_555 1_555
C7 C6 1_555 1_555
C8 C7 1_555 1_555
H12 C8 1_555 1_555
C9 C8 1_555 1_555
H13 C9 1_555 1_555
C10 C9 1_555 1_555
H14 C10 1_555 1_555
C11 N5 1_555 1_555
H15 C11 1_555 1_555
C12 N3 1_555 1_555
C13 C12 1_555 1_555
C14 C13 1_555 1_555
H16 C14 1_555 1_555
C15 C14 1_555 1_555
H17 C15 1_555 1_555
C16 C15 1_555 1_555
H18 C16 1_555 1_555
C17 N6 1_555 1_555
H19 C17 1_555 1_555
C18 O3 1_555 1_555
H20 C18 1_555 1_555
H21 C18 1_555 1_555
O3A H3A 1_555 1_555
C18A C18 1_555 1_555
H20A C18A 1_555 1_555
H21A C18A 1_555 1_555
N4 C3 1_555 1_555
C2 C3 1_555 1_555
C10 C11 1_555 1_555
C16 C17 1_555 1_555
O3A C18A 1_555 1_555

#END
