
#######################################################################
#
#                 Cambridge Crystallographic Data Centre
#                                CCDC 
#
#######################################################################
#
# If this CIF has been generated from an entry in the Cambridge 
# Structural Database, then it will include bibliographic, chemical, 
# crystal, experimental, refinement or atomic coordinate data resulting 
# from the CCDC's data processing and validation procedures.
#
#######################################################################

data_POFXUF
_chemical_formula_moiety         'C34 H37 Cl1 Mg1 N4 O1'
_chemical_name_systematic        
chloro-(N-(2,6-diisopropylphenyl)benzenecarboximidato)-tris(pyridine)-magnesium
_symmetry_cell_setting           triclinic
_symmetry_space_group_name_H-M   'P -1'
_symmetry_Int_Tables_number      2
_space_group_name_Hall           '-P 1'
loop_
_symmetry_equiv_pos_site_id
_symmetry_equiv_pos_as_xyz
1 x,y,z
2 -x,-y,-z
_cell_length_a                   9.2425(7)
_cell_length_b                   9.3328(7)
_cell_length_c                   19.250(1)
_cell_angle_alpha                83.431(2)
_cell_angle_beta                 86.649(2)
_cell_angle_gamma                73.985(2)
_cell_volume                     1584.92
_exptl_crystal_colour            colorless
_exptl_crystal_description       prisms
_cell_formula_units_Z            2
_chemical_properties_physical    air-sensitive
_exptl_crystal_recrystallization_method toluene
loop_
_atom_site_label
_atom_site_type_symbol
_atom_site_fract_x
_atom_site_fract_y
_atom_site_fract_z
C1 C 0.67412(16) 0.18889(15) 0.20924(7)
C2 C 0.69682(17) 0.12736(16) 0.13943(7)
C3 C 0.82501(18) 0.01832(17) 0.11987(8)
H1 H 0.9047 -0.0214 0.1516
C4 C 0.8360(2) -0.03220(18) 0.05388(8)
H2 H 0.9229 -0.1070 0.0409
C5 C 0.7212(2) 0.0259(2) 0.00722(8)
H3 H 0.7298 -0.0080 -0.0379
C6 C 0.5932(2) 0.1339(2) 0.02646(8)
H4 H 0.5141 0.1741 -0.0056
C7 C 0.58076(18) 0.18292(18) 0.09232(8)
H5 H 0.4921 0.2553 0.1055
C8 C 0.93218(16) 0.18394(16) 0.22395(7)
C9 C 0.98250(17) 0.26997(17) 0.16769(8)
C10 C 1.13584(18) 0.23022(18) 0.14918(8)
H6 H 1.1710 0.2864 0.1109
C11 C 1.23756(17) 0.11216(18) 0.18473(9)
H7 H 1.3407 0.0856 0.1702
C12 C 1.18768(17) 0.03281(18) 0.24183(8)
H8 H 1.2578 -0.0477 0.2669
C13 C 1.03677(17) 0.06879(17) 0.26317(8)
C14 C 0.88001(18) 0.40684(18) 0.12842(8)
H9 H 0.7765 0.4228 0.1501
C15 C 0.8709(2) 0.3879(2) 0.05083(9)
H10 H 0.9710 0.3741 0.0284
H11 H 0.8011 0.4776 0.0280
H12 H 0.8347 0.3001 0.0466
C16 C 0.9342(2) 0.54610(19) 0.13579(10)
H13 H 0.9406 0.5568 0.1855
H14 H 0.8628 0.6354 0.1136
H15 H 1.0337 0.5347 0.1129
C17 C 0.98335(18) -0.01491(19) 0.32744(9)
H16 H 0.8904 0.0556 0.3457
C18 C 1.0932(2) -0.0582(2) 0.38646(10)
H17 H 1.0450 -0.0967 0.4284
H18 H 1.1235 0.0299 0.3963
H19 H 1.1822 -0.1359 0.3729
C19 C 0.9373(3) -0.1475(2) 0.30929(10)
H20 H 1.0245 -0.2190 0.2898
H21 H 0.8582 -0.1144 0.2746
H22 H 0.8990 -0.1959 0.3515
C20 C 0.67521(17) 0.02944(17) 0.44214(8)
H23 H 0.7253 0.0917 0.4611
C21 C 0.68414(19) -0.11150(18) 0.47682(8)
H24 H 0.7407 -0.1451 0.5181
C22 C 0.60942(19) -0.20230(18) 0.45043(8)
H25 H 0.6135 -0.2992 0.4731
C23 C 0.52902(18) -0.14877(17) 0.39043(8)
H26 H 0.4752 -0.2077 0.3714
C24 C 0.52775(17) -0.00811(17) 0.35837(8)
H27 H 0.4734 0.0268 0.3166
C25 C 0.24314(17) 0.34118(17) 0.32825(8)
H28 H 0.2709 0.2762 0.2923
C26 C 0.09320(17) 0.38502(17) 0.34951(8)
H29 H 0.0203 0.3498 0.3289
C27 C 0.05126(17) 0.48109(18) 0.40135(8)
H30 H -0.0508 0.5130 0.4171
C28 C 0.16150(17) 0.52975(17) 0.42983(8)
H31 H 0.1361 0.5964 0.4652
C29 C 0.30860(17) 0.47991(16) 0.40606(7)
H32 H 0.3834 0.5136 0.4260
C30 C 0.44745(19) 0.56074(18) 0.20519(8)
H33 H 0.3856 0.4955 0.2026
C31 C 0.4289(2) 0.68576(19) 0.15660(9)
H34 H 0.3565 0.7048 0.1212
C32 C 0.51688(18) 0.78190(18) 0.16036(8)
H35 H 0.5076 0.8673 0.1272
C33 C 0.6184(2) 0.75177(19) 0.21307(8)
H36 H 0.6783 0.8178 0.2178
C34 C 0.63215(19) 0.62372(18) 0.25931(8)
H37 H 0.7037 0.6030 0.2951
Cl1 Cl 0.70206(4) 0.38907(4) 0.412256(18)
N1 N 0.77831(13) 0.21374(13) 0.24578(6)
N2 N 0.59946(13) 0.08184(14) 0.38321(6)
N3 N 0.35159(13) 0.38604(13) 0.35606(6)
N4 N 0.54908(14) 0.52801(14) 0.25574(6)
O1 O 0.53789(11) 0.22294(11) 0.23402(5)
Mg1 Mg 0.58960(5) 0.30606(5) 0.32206(2)
loop_
_geom_bond_atom_site_label_1
_geom_bond_atom_site_label_2
_geom_bond_site_symmetry_1
_geom_bond_site_symmetry_2
C1 C2 1_555 1_555
C2 C3 1_555 1_555
C3 H1 1_555 1_555
C4 C3 1_555 1_555
H2 C4 1_555 1_555
C5 C4 1_555 1_555
H3 C5 1_555 1_555
C6 C5 1_555 1_555
H4 C6 1_555 1_555
C7 C2 1_555 1_555
H5 C7 1_555 1_555
C8 C9 1_555 1_555
C9 C10 1_555 1_555
C10 H6 1_555 1_555
C11 C10 1_555 1_555
H7 C11 1_555 1_555
C12 C11 1_555 1_555
H8 C12 1_555 1_555
C13 C8 1_555 1_555
C14 C9 1_555 1_555
H9 C14 1_555 1_555
C15 C14 1_555 1_555
H10 C15 1_555 1_555
H11 C15 1_555 1_555
H12 C15 1_555 1_555
C16 C14 1_555 1_555
H13 C16 1_555 1_555
H14 C16 1_555 1_555
H15 C16 1_555 1_555
C17 C13 1_555 1_555
H16 C17 1_555 1_555
C18 C17 1_555 1_555
H17 C18 1_555 1_555
H18 C18 1_555 1_555
H19 C18 1_555 1_555
C19 C17 1_555 1_555
H20 C19 1_555 1_555
H21 C19 1_555 1_555
H22 C19 1_555 1_555
C20 H23 1_555 1_555
C21 C20 1_555 1_555
H24 C21 1_555 1_555
C22 C21 1_555 1_555
H25 C22 1_555 1_555
C23 C22 1_555 1_555
H26 C23 1_555 1_555
C24 C23 1_555 1_555
H27 C24 1_555 1_555
C25 H28 1_555 1_555
C26 C25 1_555 1_555
H29 C26 1_555 1_555
C27 C26 1_555 1_555
H30 C27 1_555 1_555
C28 C27 1_555 1_555
H31 C28 1_555 1_555
C29 C28 1_555 1_555
H32 C29 1_555 1_555
C30 H33 1_555 1_555
C31 C30 1_555 1_555
H34 C31 1_555 1_555
C32 C31 1_555 1_555
H35 C32 1_555 1_555
C33 C32 1_555 1_555
H36 C33 1_555 1_555
C34 C33 1_555 1_555
H37 C34 1_555 1_555
Cl1 Mg1 1_555 1_555
N1 C1 1_555 1_555
N2 C20 1_555 1_555
N3 C25 1_555 1_555
N4 C30 1_555 1_555
O1 C1 1_555 1_555
Mg1 N1 1_555 1_555
C6 C7 1_555 1_555
C8 N1 1_555 1_555
C12 C13 1_555 1_555
C24 N2 1_555 1_555
C29 N3 1_555 1_555
C34 N4 1_555 1_555
N2 Mg1 1_555 1_555
N3 Mg1 1_555 1_555
N4 Mg1 1_555 1_555
O1 Mg1 1_555 1_555

#END
