
#######################################################################
#
#                 Cambridge Crystallographic Data Centre
#                                CCDC 
#
#######################################################################
#
# If this CIF has been generated from an entry in the Cambridge 
# Structural Database, then it will include bibliographic, chemical, 
# crystal, experimental, refinement or atomic coordinate data resulting 
# from the CCDC's data processing and validation procedures.
#
#######################################################################

data_POFYEP
_chemical_formula_moiety         'C18 H13 N3'
_chemical_name_systematic        
N-(4,5-Diazafluoren-9-ylidene)-4-methylaniline
_symmetry_cell_setting           triclinic
_symmetry_space_group_name_H-M   'P -1'
_symmetry_Int_Tables_number      2
_space_group_name_Hall           '-P 1'
loop_
_symmetry_equiv_pos_site_id
_symmetry_equiv_pos_as_xyz
1 x,y,z
2 -x,-y,-z
_cell_length_a                   7.5970(15)
_cell_length_b                   8.6100(17)
_cell_length_c                   10.998(2)
_cell_angle_alpha                77.11(3)
_cell_angle_beta                 87.48(3)
_cell_angle_gamma                85.79(3)
_cell_volume                     699.079
_exptl_crystal_colour            yellow
_exptl_crystal_description       plate
_cell_formula_units_Z            2
_exptl_crystal_recrystallization_method 'acetic ether'
loop_
_atom_site_label
_atom_site_type_symbol
_atom_site_fract_x
_atom_site_fract_y
_atom_site_fract_z
N1 N 0.2577(3) 1.3579(3) 0.5598(2)
C1 C 0.0220(6) 1.2134(6) 1.0717(3)
H1 H -0.0898 1.2705 1.0794
H2 H 0.1063 1.2457 1.1223
H3 H 0.0091 1.1008 1.0992
N2 N 0.2970(3) 0.8734(3) 0.3984(2)
C2 C 0.0855(5) 1.2499(5) 0.9378(3)
N3 N 0.4535(3) 1.1454(3) 0.2071(2)
C3 C 0.2450(4) 1.1836(4) 0.8993(3)
H4 H 0.3152 1.1156 0.9583
C4 C 0.3018(4) 1.2158(4) 0.7759(3)
H5 H 0.4094 1.1703 0.7528
C5 C 0.1987(4) 1.3158(3) 0.6866(3)
C6 C 0.0411(4) 1.3877(4) 0.7236(3)
H6 H -0.0268 1.4590 0.6650
C7 C -0.0137(5) 1.3531(5) 0.8469(3)
H7 H -0.1203 1.4002 0.8701
C8 C 0.2867(4) 1.2521(3) 0.4951(2)
C9 C 0.2518(3) 1.0803(3) 0.5183(2)
C10 C 0.1712(4) 0.9757(3) 0.6156(3)
H8 H 0.1279 1.0086 0.6868
C11 C 0.1576(4) 0.8219(4) 0.6030(3)
H9 H 0.1044 0.7485 0.6663
C12 C 0.2236(4) 0.7763(4) 0.4952(3)
H10 H 0.2157 0.6705 0.4907
C13 C 0.3085(3) 1.0227(3) 0.4114(2)
C14 C 0.3829(3) 1.1547(3) 0.3185(2)
C15 C 0.5163(4) 1.2817(4) 0.1427(3)
H11 H 0.5670 1.2820 0.0641
C16 C 0.5114(4) 1.4213(4) 0.1839(3)
H12 H 0.5590 1.5111 0.1338
C17 C 0.4364(4) 1.4296(4) 0.2994(3)
H13 H 0.4317 1.5228 0.3292
C18 C 0.3691(4) 1.2917(3) 0.3673(2)
loop_
_geom_bond_atom_site_label_1
_geom_bond_atom_site_label_2
_geom_bond_site_symmetry_1
_geom_bond_site_symmetry_2
N1 C5 1_555 1_555
C1 H1 1_555 1_555
H2 C1 1_555 1_555
H3 C1 1_555 1_555
N2 C12 1_555 1_555
C2 C1 1_555 1_555
N3 C14 1_555 1_555
C3 C2 1_555 1_555
H4 C3 1_555 1_555
C4 C3 1_555 1_555
H5 C4 1_555 1_555
C5 C4 1_555 1_555
C6 C5 1_555 1_555
H6 C6 1_555 1_555
C7 C2 1_555 1_555
H7 C7 1_555 1_555
C8 N1 1_555 1_555
C9 C8 1_555 1_555
C10 C9 1_555 1_555
H8 C10 1_555 1_555
C11 C10 1_555 1_555
H9 C11 1_555 1_555
C12 C11 1_555 1_555
H10 C12 1_555 1_555
C13 N2 1_555 1_555
C14 C13 1_555 1_555
C15 N3 1_555 1_555
H11 C15 1_555 1_555
C16 C15 1_555 1_555
H12 C16 1_555 1_555
C17 C16 1_555 1_555
H13 C17 1_555 1_555
C18 C8 1_555 1_555
C6 C7 1_555 1_555
C9 C13 1_555 1_555
C14 C18 1_555 1_555
C17 C18 1_555 1_555

#END
