
#######################################################################
#
#                 Cambridge Crystallographic Data Centre
#                                CCDC 
#
#######################################################################
#
# If this CIF has been generated from an entry in the Cambridge 
# Structural Database, then it will include bibliographic, chemical, 
# crystal, experimental, refinement or atomic coordinate data resulting 
# from the CCDC's data processing and validation procedures.
#
#######################################################################

data_POGHAU01
_chemical_name_common            
'(6-methoxy-2,2-dimethyltetrahydrofuro[3,4-d][1,3]dioxol-4-yl)methyl 4-methylbenzenesulfonate'
_chemical_formula_moiety         'C16 H22 O7 S1'
_chemical_name_systematic        
'Methyl 2,3-O-isopropylidene-5-O-p-tosyl-\b-D-ribofuranoside'
_symmetry_cell_setting           orthorhombic
_symmetry_space_group_name_H-M   'P 21 21 2'
_symmetry_Int_Tables_number      18
_space_group_name_Hall           'P 2 2ab'
loop_
_symmetry_equiv_pos_site_id
_symmetry_equiv_pos_as_xyz
1 x,y,z
2 -x,-y,z
3 1/2-x,1/2+y,-z
4 1/2+x,1/2-y,-z
_cell_length_a                   11.818(2)
_cell_length_b                   25.067(5)
_cell_length_c                   5.8598(12)
_cell_angle_alpha                90
_cell_angle_beta                 90
_cell_angle_gamma                90
_cell_volume                     1735.92
_cell_formula_units_Z            4
loop_
_atom_site_label
_atom_site_type_symbol
_atom_site_fract_x
_atom_site_fract_y
_atom_site_fract_z
S1 S 1.14087(7) 0.15007(3) 1.07911(14)
O1 O 1.1517(2) 0.14385(9) 1.3193(4)
O2 O 1.23502(19) 0.13978(9) 0.9336(4)
O3 O 1.04068(18) 0.11182(8) 1.0132(4)
O4 O 0.82034(19) 0.10723(9) 0.8305(4)
O5 O 0.8317(2) 0.17634(8) 0.5592(4)
O6 O 0.8414(2) 0.00277(8) 0.4996(4)
O7 O 0.68350(18) 0.05393(9) 0.4839(4)
C1 C 1.0911(3) 0.21441(12) 1.0233(6)
C2 C 1.1319(3) 0.24216(13) 0.8347(6)
H1 H 1.1805 0.2252 0.7279
C3 C 1.1003(3) 0.29495(13) 0.8054(6)
H2 H 1.1274 0.3140 0.6762
C4 C 1.0300(3) 0.32081(13) 0.9605(6)
C5 C 0.9889(3) 0.29165(13) 1.1432(6)
H3 H 0.9388 0.3084 1.2479
C6 C 1.0184(3) 0.23931(13) 1.1776(6)
H4 H 0.9895 0.2202 1.3051
C7 C 1.0022(3) 0.37925(13) 0.9329(8)
H5 H 1.0509 0.3948 0.8151
H6 H 1.0147 0.3978 1.0780
H7 H 0.9227 0.3831 0.8876
C8 C 1.0234(3) 0.10115(13) 0.7691(5)
H8 H 1.0846 0.0782 0.7087
H9 H 1.0221 0.1349 0.6814
C9 C 0.9112(3) 0.07321(13) 0.7525(6)
H10 H 0.9134 0.0404 0.8496
C10 C 0.8806(3) 0.05712(12) 0.5064(6)
H11 H 0.9441 0.0637 0.3971
C11 C 0.7756(3) 0.09033(12) 0.4503(6)
H12 H 0.7774 0.1062 0.2938
C12 C 0.7695(3) 0.13162(12) 0.6380(6)
H13 H 0.6893 0.1416 0.6710
C13 C 0.8223(3) 0.22121(13) 0.7087(7)
H14 H 0.7432 0.2329 0.7150
H15 H 0.8696 0.2504 0.6516
H16 H 0.8475 0.2110 0.8620
C14 C 0.7261(3) 0.00226(13) 0.4233(6)
C15 C 0.7187(3) -0.00563(14) 0.1677(6)
H17 H 0.6392 -0.0051 0.1204
H18 H 0.7525 -0.0400 0.1268
H19 H 0.7597 0.0232 0.0903
C16 C 0.6624(3) -0.03948(13) 0.5557(6)
H20 H 0.6673 -0.0316 0.7191
H21 H 0.6955 -0.0746 0.5258
H22 H 0.5828 -0.0395 0.5083
loop_
_geom_bond_atom_site_label_1
_geom_bond_atom_site_label_2
_geom_bond_site_symmetry_1
_geom_bond_site_symmetry_2
S1 O1 1_555 1_555
O2 S1 1_555 1_555
O3 S1 1_555 1_555
O4 C9 1_555 1_555
O5 C12 1_555 1_555
O6 C10 1_555 1_555
O7 C11 1_555 1_555
C1 S1 1_555 1_555
C2 C1 1_555 1_555
H1 C2 1_555 1_555
C3 C2 1_555 1_555
H2 C3 1_555 1_555
C4 C3 1_555 1_555
C5 C4 1_555 1_555
H3 C5 1_555 1_555
C6 C1 1_555 1_555
H4 C6 1_555 1_555
C7 C4 1_555 1_555
H5 C7 1_555 1_555
H6 C7 1_555 1_555
H7 C7 1_555 1_555
C8 O3 1_555 1_555
H8 C8 1_555 1_555
H9 C8 1_555 1_555
C9 C8 1_555 1_555
H10 C9 1_555 1_555
C10 C9 1_555 1_555
H11 C10 1_555 1_555
C11 C10 1_555 1_555
H12 C11 1_555 1_555
C12 O4 1_555 1_555
H13 C12 1_555 1_555
C13 O5 1_555 1_555
H14 C13 1_555 1_555
H15 C13 1_555 1_555
H16 C13 1_555 1_555
C14 O6 1_555 1_555
C15 C14 1_555 1_555
H17 C15 1_555 1_555
H18 C15 1_555 1_555
H19 C15 1_555 1_555
C16 C14 1_555 1_555
H20 C16 1_555 1_555
H21 C16 1_555 1_555
H22 C16 1_555 1_555
O7 C14 1_555 1_555
C5 C6 1_555 1_555
C11 C12 1_555 1_555

#END
