
#######################################################################
#
#                 Cambridge Crystallographic Data Centre
#                                CCDC 
#
#######################################################################
#
# If this CIF has been generated from an entry in the Cambridge 
# Structural Database, then it will include bibliographic, chemical, 
# crystal, experimental, refinement or atomic coordinate data resulting 
# from the CCDC's data processing and validation procedures.
#
#######################################################################

data_POGMUV
_chemical_formula_moiety         'C25 H24 Br1 F3 N2 O8 S1'
_chemical_name_systematic        
'diethyl (2-(7-bromo-1-((4-methylphenyl)sulfonyl)-1H-indol-3-yl)-1,1,1-trifluoro-3-nitropropan-2-yl)malonate'
_symmetry_cell_setting           triclinic
_symmetry_space_group_name_H-M   'P -1'
_symmetry_Int_Tables_number      2
_space_group_name_Hall           '-P 1'
loop_
_symmetry_equiv_pos_site_id
_symmetry_equiv_pos_as_xyz
1 x,y,z
2 -x,-y,-z
_cell_length_a                   10.1944(4)
_cell_length_b                   11.6728(3)
_cell_length_c                   13.3478(4)
_cell_angle_alpha                69.855(3)
_cell_angle_beta                 70.057(3)
_cell_angle_gamma                68.371(3)
_cell_volume                     1343.81
_exptl_crystal_colour            colorless
_exptl_crystal_description       block
_cell_formula_units_Z            2
loop_
_atom_site_label
_atom_site_type_symbol
_atom_site_fract_x
_atom_site_fract_y
_atom_site_fract_z
Br1 Br 0.94986(3) -0.14314(2) 0.33756(2)
S1 S 0.95706(6) 0.13034(4) 0.09917(4)
F1 F 0.86927(18) 0.41820(14) 0.48925(11)
F2 F 0.94769(17) 0.57369(12) 0.37993(12)
F3 F 1.07238(16) 0.38280(15) 0.37008(14)
O1 O 1.00347(19) 0.22795(15) 0.00920(12)
O2 O 0.61415(19) 0.65814(16) 0.47261(13)
O3 O 1.04421(17) 0.00244(14) 0.10828(13)
O4 O 0.46019(17) 0.59366(18) 0.31685(14)
N1 N 0.94622(19) 0.17521(15) 0.21203(13)
O5 O 0.64388(19) 0.52943(19) 0.17933(15)
N2 N 1.0751(2) 0.5253(2) 0.14099(17)
O6 O 0.6626(2) 0.75732(15) 0.29349(15)
O7 O 1.1251(2) 0.47939(19) 0.06138(19)
C1 C 0.8814(2) 0.33707(17) 0.29205(15)
C2 C 0.6912(2) 0.53208(18) 0.34580(16)
H1 H 0.6575 0.4751 0.4161
C3 C 0.8582(2) 0.47001(17) 0.30147(16)
C4 C 0.8482(2) 0.22696(18) 0.37736(16)
C5 C 0.9134(2) 0.55892(19) 0.18939(17)
H2 H 0.8668 0.5600 0.1366
H3 H 0.8813 0.6447 0.1987
C6 C 0.9373(2) 0.46088(19) 0.38600(18)
C7 C 0.8915(2) 0.12618(18) 0.32544(16)
C8 C 0.7765(2) 0.14305(19) 0.10961(16)
C9 C 0.5996(2) 0.54983(19) 0.26864(18)
C10 C 0.9354(2) 0.30234(18) 0.19640(16)
H4 H 0.9623 0.3566 0.1282
C11 C 0.5858(3) 0.7773(3) 0.4997(3)
H5 H 0.5083 0.8425 0.4684
H6 H 0.6725 0.8062 0.4702
C12 C 0.7353(3) 0.0347(2) 0.1333(2)
H7 H 0.8020 -0.0453 0.1458
C13 C 0.6779(3) 0.2638(2) 0.0900(2)
H8 H 0.7066 0.3365 0.0736
C14 C 0.8811(2) 0.00480(19) 0.38941(18)
C15 C 0.6549(2) 0.6632(2) 0.36611(19)
O8 O 1.1470(3) 0.5571(4) 0.1759(2)
C16 C 0.7871(3) 0.2057(2) 0.49092(18)
H9 H 0.7558 0.2715 0.5254
C17 C 0.4923(3) 0.1655(3) 0.1194(2)
C18 C 0.5424(4) 0.7530(4) 0.6218(3)
H10 H 0.5210 0.8305 0.6421
H11 H 0.6207 0.6898 0.6518
H12 H 0.4576 0.7231 0.6502
C19 C 0.8219(3) -0.0128(2) 0.50126(19)
H13 H 0.8143 -0.0930 0.5442
C20 C 0.5939(3) 0.0466(2) 0.1380(2)
H14 H 0.5658 -0.0263 0.1541
C21 C 0.7737(3) 0.0868(2) 0.55101(19)
H15 H 0.7315 0.0729 0.6263
C22 C 0.5369(3) 0.2730(2) 0.0955(2)
H16 H 0.4701 0.3530 0.0829
C23 C 0.3568(3) 0.6318(4) 0.2491(3)
H17 H 0.2620 0.6254 0.2962
H18 H 0.3895 0.5752 0.2012
C24 C 0.3449(4) 0.7648(4) 0.1818(3)
H19 H 0.4373 0.7697 0.1316
H20 H 0.3167 0.8202 0.2292
H21 H 0.2730 0.7906 0.1410
C25 C 0.3380(4) 0.1768(4) 0.1246(4)
H22 H 0.3292 0.0940 0.1355
H23 H 0.3138 0.2312 0.0569
H24 H 0.2728 0.2125 0.1847
loop_
_geom_bond_atom_site_label_1
_geom_bond_atom_site_label_2
_geom_bond_site_symmetry_1
_geom_bond_site_symmetry_2
Br1 C14 1_555 1_555
S1 O1 1_555 1_555
F1 C6 1_555 1_555
F2 C6 1_555 1_555
F3 C6 1_555 1_555
O2 C11 1_555 1_555
O3 S1 1_555 1_555
O4 C9 1_555 1_555
N1 S1 1_555 1_555
O5 C9 1_555 1_555
N2 O7 1_555 1_555
O6 C15 1_555 1_555
C1 C3 1_555 1_555
C2 H1 1_555 1_555
C3 C2 1_555 1_555
C4 C1 1_555 1_555
C5 N2 1_555 1_555
H2 C5 1_555 1_555
H3 C5 1_555 1_555
C6 C3 1_555 1_555
C7 N1 1_555 1_555
C8 S1 1_555 1_555
C9 C2 1_555 1_555
C10 N1 1_555 1_555
H4 C10 1_555 1_555
C11 H5 1_555 1_555
H6 C11 1_555 1_555
C12 C8 1_555 1_555
H7 C12 1_555 1_555
C13 C8 1_555 1_555
H8 C13 1_555 1_555
C14 C7 1_555 1_555
C15 O2 1_555 1_555
O8 N2 1_555 1_555
C16 C4 1_555 1_555
H9 C16 1_555 1_555
C17 C20 1_555 1_555
C18 C11 1_555 1_555
H10 C18 1_555 1_555
H11 C18 1_555 1_555
H12 C18 1_555 1_555
C19 C14 1_555 1_555
H13 C19 1_555 1_555
C20 C12 1_555 1_555
H14 C20 1_555 1_555
C21 C16 1_555 1_555
H15 C21 1_555 1_555
C22 C13 1_555 1_555
H16 C22 1_555 1_555
C23 O4 1_555 1_555
H17 C23 1_555 1_555
H18 C23 1_555 1_555
C24 C23 1_555 1_555
H19 C24 1_555 1_555
H20 C24 1_555 1_555
H21 C24 1_555 1_555
C25 C17 1_555 1_555
H22 C25 1_555 1_555
H23 C25 1_555 1_555
H24 C25 1_555 1_555
C1 C10 1_555 1_555
C2 C15 1_555 1_555
C3 C5 1_555 1_555
C4 C7 1_555 1_555
C17 C22 1_555 1_555
C19 C21 1_555 1_555

#END
