
#######################################################################
#
#                 Cambridge Crystallographic Data Centre
#                                CCDC 
#
#######################################################################
#
# If this CIF has been generated from an entry in the Cambridge 
# Structural Database, then it will include bibliographic, chemical, 
# crystal, experimental, refinement or atomic coordinate data resulting 
# from the CCDC's data processing and validation procedures.
#
#######################################################################

data_POGRIN
_chemical_compound_source        'roots of Myrica nana'
_chemical_name_common            'Myricananin B ethanol solvate'
_chemical_formula_moiety         'C21 H26 O6,C2 H6 O1'
_chemical_name_systematic        
'16,17-Dimethoxytricyclo(12.3.1.1^2,6^)nonadeca-1(18),2(19),3,5,14,16-hexaene-3,8\b,9\b,15-tetraol ethanol solvate'
_symmetry_cell_setting           orthorhombic
_symmetry_space_group_name_H-M   'P 21 21 21'
_symmetry_Int_Tables_number      19
_space_group_name_Hall           'P 2ac 2ab'
loop_
_symmetry_equiv_pos_site_id
_symmetry_equiv_pos_as_xyz
1 x,y,z
2 1/2-x,-y,1/2+z
3 -x,1/2+y,1/2-z
4 1/2+x,1/2-y,-z
_cell_length_a                   5.9174(5)
_cell_length_b                   18.9612(18)
_cell_length_c                   19.4293(18)
_cell_angle_alpha                90
_cell_angle_beta                 90
_cell_angle_gamma                90
_cell_volume                     2179.99
_exptl_crystal_colour            colorless
_exptl_crystal_description       prismatic
_chemical_melting_point          '210-212 deg.C'
_cell_formula_units_Z            4
loop_
_atom_site_label
_atom_site_type_symbol
_atom_site_fract_x
_atom_site_fract_y
_atom_site_fract_z
O1 O 1.1122(4) 0.74447(11) 0.12196(11)
O2 O 1.1474(3) 0.66112(9) 0.01033(9)
O3 O 1.3065(3) 0.53767(11) -0.05139(8)
O4 O 1.2348(4) 0.40999(11) 0.00921(11)
O5 O 0.5308(3) 0.52473(12) 0.35889(10)
O6 O 0.1169(3) 0.53302(13) 0.28961(10)
C1 C 0.8425(4) 0.64888(12) 0.13471(12)
C2 C 0.9654(4) 0.59159(12) 0.09822(11)
C3 C 1.0982(4) 0.59615(13) 0.03940(12)
C4 C 1.1881(4) 0.53566(14) 0.00986(12)
C5 C 1.1482(4) 0.46970(14) 0.03792(12)
C6 C 1.0178(4) 0.46300(13) 0.09713(12)
C7 C 0.9667(5) 0.39230(13) 0.12995(13)
H1 H 1.1082 0.3673 0.1364
H2 H 0.8757 0.3650 0.0981
C8 C 0.8441(5) 0.39518(14) 0.19897(13)
H3 H 0.9214 0.4291 0.2280
H4 H 0.8588 0.3494 0.2208
C9 C 0.5934(5) 0.41449(14) 0.19751(14)
H5 H 0.5077 0.3746 0.1803
H6 H 0.5710 0.4535 0.1660
C10 C 0.5026(5) 0.43515(15) 0.26865(14)
H7 H 0.3456 0.4208 0.2715
H8 H 0.5856 0.4089 0.3032
C11 C 0.5176(4) 0.51372(14) 0.28628(12)
H9 H 0.6566 0.5322 0.2657
C12 C 0.3195(4) 0.55487(14) 0.25629(12)
H10 H 0.3064 0.5415 0.2077
C13 C 0.3416(5) 0.63492(15) 0.25898(14)
H11 H 0.2016 0.6554 0.2424
H12 H 0.3593 0.6489 0.3067
C14 C 0.5351(4) 0.66598(14) 0.21795(12)
C15 C 0.6200(5) 0.73277(15) 0.23101(14)
H13 H 0.5511 0.7609 0.2641
C16 C 0.8042(5) 0.75812(14) 0.19583(14)
H14 H 0.8517 0.8042 0.2036
C17 C 0.9208(5) 0.71685(13) 0.14920(13)
C18 C 0.6412(4) 0.62871(13) 0.16673(12)
H15 H 0.5741 0.5869 0.1522
C19 C 0.9402(4) 0.52440(13) 0.12591(11)
H16 H 0.8640 0.5208 0.1676
C20 C 1.0040(7) 0.68200(18) -0.04497(16)
H17 H 1.0246 0.6505 -0.0831
H18 H 1.0414 0.7291 -0.0589
H19 H 0.8493 0.6804 -0.0302
C21 C 1.5256(6) 0.5697(2) -0.04856(19)
H20 H 1.5110 0.6179 -0.0340
H21 H 1.5938 0.5683 -0.0934
H22 H 1.6188 0.5445 -0.0165
H28 H 0.090(6) 0.5583(14) 0.3233(12)
H29 H 1.336(5) 0.4217(18) -0.0192(15)
H30 H 0.424(5) 0.5053(18) 0.3769(15)
H31 H 1.136(7) 0.7176(17) 0.0885(14)
O7 O 1.5817(4) 0.40106(15) -0.09277(13)
C22 C 1.6113(9) 0.3243(3) -0.0999(2)
H23 H 1.4660 0.3015 -0.0937
H24 H 1.6630 0.3140 -0.1462
C23 C 1.7617(12) 0.2966(3) -0.0538(3)
H25 H 1.9029 0.3212 -0.0573
H26 H 1.7849 0.2475 -0.0638
H27 H 1.7029 0.3015 -0.0080
H32 H 1.696(6) 0.425(2) -0.090(3)
loop_
_geom_bond_atom_site_label_1
_geom_bond_atom_site_label_2
_geom_bond_site_symmetry_1
_geom_bond_site_symmetry_2
O1 C17 1_555 1_555
O2 C3 1_555 1_555
O3 C4 1_555 1_555
O4 C5 1_555 1_555
O5 C11 1_555 1_555
O6 C12 1_555 1_555
O7 C22 1_555 1_555
C1 C2 1_555 1_555
C2 C3 1_555 1_555
C3 C4 1_555 1_555
C4 C5 1_555 1_555
C5 C6 1_555 1_555
C6 C7 1_555 1_555
C7 H1 1_555 1_555
H2 C7 1_555 1_555
C8 C7 1_555 1_555
H3 C8 1_555 1_555
H4 C8 1_555 1_555
C9 C8 1_555 1_555
H5 C9 1_555 1_555
H6 C9 1_555 1_555
C10 C9 1_555 1_555
H7 C10 1_555 1_555
H8 C10 1_555 1_555
C11 C10 1_555 1_555
H9 C11 1_555 1_555
C12 C11 1_555 1_555
H10 C12 1_555 1_555
C13 C12 1_555 1_555
H11 C13 1_555 1_555
H12 C13 1_555 1_555
C14 C13 1_555 1_555
C15 C14 1_555 1_555
H13 C15 1_555 1_555
C16 C15 1_555 1_555
H14 C16 1_555 1_555
C17 C1 1_555 1_555
C18 C1 1_555 1_555
H15 C18 1_555 1_555
C19 C2 1_555 1_555
H16 C19 1_555 1_555
C20 O2 1_555 1_555
H17 C20 1_555 1_555
H18 C20 1_555 1_555
H19 C20 1_555 1_555
C21 O3 1_555 1_555
H20 C21 1_555 1_555
H21 C21 1_555 1_555
H22 C21 1_555 1_555
C22 H23 1_555 1_555
H24 C22 1_555 1_555
C23 C22 1_555 1_555
H25 C23 1_555 1_555
H26 C23 1_555 1_555
H27 C23 1_555 1_555
H28 O6 1_555 1_555
H29 O4 1_555 1_555
H30 O5 1_555 1_555
H31 O1 1_555 1_555
H32 O7 1_555 1_555
C6 C19 1_555 1_555
C14 C18 1_555 1_555
C16 C17 1_555 1_555

#END
