
#######################################################################
#
#                 Cambridge Crystallographic Data Centre
#                                CCDC 
#
#######################################################################
#
# If this CIF has been generated from an entry in the Cambridge 
# Structural Database, then it will include bibliographic, chemical, 
# crystal, experimental, refinement or atomic coordinate data resulting 
# from the CCDC's data processing and validation procedures.
#
#######################################################################

data_POGREJ
_chemical_formula_moiety         'C40 H61 N3 O11,H2 O1'
_chemical_name_systematic        
'18-((Benzyloxy)imino)-22-((4-(dimethylamino)-3-hydroxy-6-methyltetrahydro-2H-pyran-2-yl)oxy)-5-ethyl-2,6,11,13,15,21-hexamethyl-4,7,16,20-tetraoxa-9-azatricyclo[13.5.2.0^6,10^]docosane-3,8,12-trione hydrate'
_chemical_properties_biological  
'tested against a panel of representative respiratory pathogens and showed good antibacterial activity against susceptible strains, mef resistant strains and H. influenzae strains'
_symmetry_cell_setting           monoclinic
_symmetry_space_group_name_H-M   'P 21'
_symmetry_Int_Tables_number      4
_space_group_name_Hall           'P 2yb'
loop_
_symmetry_equiv_pos_site_id
_symmetry_equiv_pos_as_xyz
1 x,y,z
2 -x,1/2+y,-z
_cell_length_a                   11.7553(9)
_cell_length_b                   13.7525(11)
_cell_length_c                   13.5995(12)
_cell_angle_alpha                90
_cell_angle_beta                 111.060(4)
_cell_angle_gamma                90
_cell_volume                     2051.71
_exptl_crystal_colour            colorless
_exptl_crystal_description       plate
_cell_formula_units_Z            2
loop_
_atom_site_label
_atom_site_type_symbol
_atom_site_fract_x
_atom_site_fract_y
_atom_site_fract_z
O1 O 0.68748(14) 0.21364(11) 0.57883(12)
O2 O 1.28996(14) 0.14508(11) 0.95601(13)
O3 O 0.79852(13) 0.23641(10) 0.74936(11)
O4 O 0.88971(13) 0.01959(10) 0.91031(12)
O5 O 0.99945(14) -0.11199(10) 0.90007(13)
O6 O 1.15783(12) 0.29351(9) 0.77204(11)
O7 O 0.95702(13) 0.36218(9) 0.57469(11)
O8 O 0.94665(13) 0.07104(10) 0.57626(12)
O9 O 1.17167(12) 0.56023(9) 0.80026(10)
O10 O 1.32540(13) 0.60980(10) 0.74807(12)
O11 O 1.08675(13) 0.75181(11) 0.79074(13)
H1 H 1.085(3) 0.802(3) 0.820(3)
N1 N 1.05139(16) 0.04247(12) 0.86601(14)
H2 H 1.119(2) 0.0211(19) 0.858(2)
N2 N 1.27349(16) 0.90204(12) 0.82534(14)
N3 N 1.06085(16) 0.11423(12) 0.63262(14)
C1 C 0.74821(18) 0.26496(15) 0.64850(16)
C2 C 0.78399(17) 0.37024(15) 0.63696(17)
H3 H 0.7649(17) 0.4051(14) 0.6898(15)
C3 C 0.92498(18) 0.37369(14) 0.66594(15)
H4 H 0.9573(17) 0.3164(15) 0.7128(15)
C4 C 0.98627(18) 0.46789(14) 0.72191(16)
H5 H 0.984(2) 0.4721(17) 0.7893(19)
C5 C 1.12478(17) 0.47062(13) 0.74417(15)
H6 H 1.1374(17) 0.4731(14) 0.6789(16)
C6 C 1.20585(17) 0.38755(13) 0.81385(15)
C7 C 1.19813(18) 0.38864(14) 0.92371(15)
H7 H 1.2241(18) 0.4552(15) 0.9559(15)
H8 H 1.109(2) 0.3811(16) 0.9199(17)
C8 C 1.27885(18) 0.31197(13) 1.00065(16)
H9 H 1.360(2) 0.3072(19) 0.9966(19)
C9 C 1.23101(18) 0.20910(14) 0.97699(15)
C10 C 1.11104(19) 0.18365(15) 0.99013(16)
H10 H 1.074(2) 0.2463(16) 1.0013(17)
C11 C 1.02021(18) 0.14089(14) 0.88717(16)
H11 H 1.0229(19) 0.1798(16) 0.8319(17)
C12 C 0.88792(19) 0.12291(13) 0.88430(16)
C13 C 0.79277(18) 0.13306(14) 0.77194(16)
H12 H 0.8185(19) 0.0980(17) 0.7246(18)
C14 C 0.7084(2) 0.40736(18) 0.52663(19)
H13 H 0.728(2) 0.4701(19) 0.5137(18)
H14 H 0.620(3) 0.404(2) 0.516(2)
H15 H 0.731(4) 0.371(4) 0.471(4)
C15 C 0.9253(2) 0.55974(15) 0.6628(2)
H16 H 0.9610(19) 0.6179(16) 0.6949(16)
H17 H 0.843(3) 0.5626(18) 0.659(2)
H18 H 0.930(2) 0.5635(19) 0.601(2)
C16 C 1.33728(18) 0.39763(15) 0.81870(18)
H19 H 1.3372(18) 0.4143(14) 0.7490(17)
H20 H 1.379(3) 0.335(2) 0.848(2)
H21 H 1.374(2) 0.4532(18) 0.8611(18)
C17 C 1.2935(2) 0.33740(15) 1.11371(17)
H22 H 1.340(2) 0.2886(18) 1.1648(19)
H23 H 1.223(3) 0.336(3) 1.130(3)
H24 H 1.337(2) 0.399(2) 1.130(2)
C18 C 1.1408(2) 0.11337(19) 1.08439(19)
H25 H 1.190(2) 0.150(2) 1.145(2)
H26 H 1.068(3) 0.088(2) 1.088(2)
H27 H 1.181(3) 0.060(2) 1.075(2)
C19 C 0.98432(19) -0.02470(15) 0.89241(16)
C20 C 0.8500(2) 0.18009(17) 0.96234(19)
H28 H 0.851(2) 0.2480(19) 0.9507(19)
H29 H 0.896(2) 0.1635(18) 1.034(2)
H30 H 0.766(2) 0.1689(17) 0.9524(18)
C21 C 0.66448(19) 0.09992(16) 0.76082(18)
H31 H 0.6681 0.0701 0.8281
H32 H 0.6112 0.1578 0.7487
C22 C 0.6072(3) 0.0282(2) 0.6731(2)
H33 H 0.5991 0.0581 0.6054
H34 H 0.5265 0.0095 0.6724
H35 H 0.6590 -0.0298 0.6843
C23 C 1.17553(19) 0.25862(15) 0.67926(16)
H36 H 1.246(2) 0.2148(17) 0.6963(17)
H37 H 1.192(2) 0.3126(18) 0.6368(18)
C24 C 1.06074(18) 0.20616(14) 0.61661(16)
C25 C 0.9566(2) 0.26371(15) 0.54221(18)
H38 H 0.885(2) 0.2355(17) 0.5371(18)
H39 H 0.963(2) 0.2595(18) 0.475(2)
C26 C 0.9607(2) -0.03159(14) 0.60111(18)
H40 H 1.001(2) -0.0442(16) 0.6779(18)
H41 H 1.0112(19) -0.0611(16) 0.5663(17)
C27 C 0.8388(2) -0.08122(15) 0.56186(17)
C28 C 0.7372(2) -0.04463(17) 0.48280(19)
H42 H 0.733(2) 0.024(2) 0.451(2)
C29 C 0.6291(2) -0.09794(18) 0.4473(2)
H43 H 0.543(3) -0.065(2) 0.391(3)
C30 C 0.6219(2) -0.18752(19) 0.4901(2)
H44 H 0.543(4) -0.225(3) 0.472(3)
C31 C 0.7224(2) -0.22422(18) 0.5674(3)
H45 H 0.712(3) -0.278(2) 0.597(2)
C32 C 0.8305(2) -0.17217(17) 0.6041(2)
H46 H 0.898(2) -0.1998(17) 0.6596(19)
C33 C 1.20750(18) 0.63357(13) 0.74673(16)
H47 H 1.152(2) 0.6326(17) 0.676(2)
C34 C 1.3747(2) 0.68323(15) 0.69903(18)
H48 H 1.318(2) 0.6956(18) 0.625(2)
C35 C 1.39179(19) 0.77703(14) 0.76193(18)
H49 H 1.460(3) 0.768(2) 0.843(2)
H50 H 1.431(2) 0.8314(17) 0.7245(18)
C36 C 1.26980(18) 0.81104(14) 0.76586(16)
H51 H 1.210(2) 0.8282(16) 0.6892(18)
C37 C 1.20970(18) 0.72920(14) 0.80584(17)
H52 H 1.255(2) 0.7163(16) 0.8795(18)
C38 C 1.4921(2) 0.6432(2) 0.6952(3)
H53 H 1.483(3) 0.578(3) 0.658(3)
H54 H 1.538(3) 0.692(3) 0.674(3)
H55 H 1.555(2) 0.6327(19) 0.761(2)
C39 C 1.3480(3) 0.89597(18) 0.9373(2)
H56 H 1.321(3) 0.835(3) 0.984(3)
H57 H 1.343(2) 0.9582(19) 0.9690(19)
H58 H 1.427(3) 0.874(3) 0.944(3)
C40 C 1.3146(2) 0.98327(16) 0.7776(2)
H59 H 1.261(2) 0.9864(19) 0.694(2)
H60 H 1.402(2) 0.9772(18) 0.7827(19)
H61 H 1.300(3) 1.035(2) 0.808(2)
O12 O 1.5522(4) 0.1219(4) 0.9979(4)
loop_
_geom_bond_atom_site_label_1
_geom_bond_atom_site_label_2
_geom_bond_site_symmetry_1
_geom_bond_site_symmetry_2
O1 C1 1_555 1_555
O2 C9 1_555 1_555
O3 C1 1_555 1_555
O4 C12 1_555 1_555
O5 C19 1_555 1_555
O6 C6 1_555 1_555
O7 C3 1_555 1_555
O8 N3 1_555 1_555
O9 C5 1_555 1_555
O10 C33 1_555 1_555
O11 H1 1_555 1_555
N1 H2 1_555 1_555
N2 C36 1_555 1_555
N3 C24 1_555 1_555
C1 C2 1_555 1_555
C2 H3 1_555 1_555
C3 C2 1_555 1_555
H4 C3 1_555 1_555
C4 C3 1_555 1_555
H5 C4 1_555 1_555
C5 C4 1_555 1_555
H6 C5 1_555 1_555
C6 C5 1_555 1_555
C7 C6 1_555 1_555
H7 C7 1_555 1_555
H8 C7 1_555 1_555
C8 C7 1_555 1_555
H9 C8 1_555 1_555
C9 C8 1_555 1_555
C10 C9 1_555 1_555
H10 C10 1_555 1_555
C11 N1 1_555 1_555
H11 C11 1_555 1_555
C12 C11 1_555 1_555
C13 O3 1_555 1_555
H12 C13 1_555 1_555
C14 C2 1_555 1_555
H13 C14 1_555 1_555
H14 C14 1_555 1_555
H15 C14 1_555 1_555
C15 C4 1_555 1_555
H16 C15 1_555 1_555
H17 C15 1_555 1_555
H18 C15 1_555 1_555
C16 C6 1_555 1_555
H19 C16 1_555 1_555
H20 C16 1_555 1_555
H21 C16 1_555 1_555
C17 C8 1_555 1_555
H22 C17 1_555 1_555
H23 C17 1_555 1_555
H24 C17 1_555 1_555
C18 C10 1_555 1_555
H25 C18 1_555 1_555
H26 C18 1_555 1_555
H27 C18 1_555 1_555
C19 O4 1_555 1_555
C20 C12 1_555 1_555
H28 C20 1_555 1_555
H29 C20 1_555 1_555
H30 C20 1_555 1_555
C21 C13 1_555 1_555
H31 C21 1_555 1_555
H32 C21 1_555 1_555
C22 C21 1_555 1_555
H33 C22 1_555 1_555
H34 C22 1_555 1_555
H35 C22 1_555 1_555
C23 O6 1_555 1_555
H36 C23 1_555 1_555
H37 C23 1_555 1_555
C24 C23 1_555 1_555
C25 O7 1_555 1_555
H38 C25 1_555 1_555
H39 C25 1_555 1_555
C26 O8 1_555 1_555
H40 C26 1_555 1_555
H41 C26 1_555 1_555
C27 C26 1_555 1_555
C28 C27 1_555 1_555
H42 C28 1_555 1_555
C29 C28 1_555 1_555
H43 C29 1_555 1_555
C30 C29 1_555 1_555
H44 C30 1_555 1_555
C31 C30 1_555 1_555
H45 C31 1_555 1_555
C32 C27 1_555 1_555
H46 C32 1_555 1_555
C33 O9 1_555 1_555
H47 C33 1_555 1_555
C34 O10 1_555 1_555
H48 C34 1_555 1_555
C35 C34 1_555 1_555
H49 C35 1_555 1_555
H50 C35 1_555 1_555
C36 C35 1_555 1_555
H51 C36 1_555 1_555
C37 O11 1_555 1_555
H52 C37 1_555 1_555
C38 C34 1_555 1_555
H53 C38 1_555 1_555
H54 C38 1_555 1_555
H55 C38 1_555 1_555
C39 N2 1_555 1_555
H56 C39 1_555 1_555
H57 C39 1_555 1_555
H58 C39 1_555 1_555
C40 N2 1_555 1_555
H59 C40 1_555 1_555
H60 C40 1_555 1_555
H61 C40 1_555 1_555
N1 C19 1_555 1_555
C10 C11 1_555 1_555
C12 C13 1_555 1_555
C24 C25 1_555 1_555
C31 C32 1_555 1_555
C33 C37 1_555 1_555
C36 C37 1_555 1_555

#END
