
#######################################################################
#
#                 Cambridge Crystallographic Data Centre
#                                CCDC 
#
#######################################################################
#
# If this CIF has been generated from an entry in the Cambridge 
# Structural Database, then it will include bibliographic, chemical, 
# crystal, experimental, refinement or atomic coordinate data resulting 
# from the CCDC's data processing and validation procedures.
#
#######################################################################

data_POGTIQ
_chemical_formula_moiety         'C22 H25 N2 1+,B1 F4 1-'
_chemical_name_systematic        
'4,6-diphenyl-2,3,3a,6,6a,7,8,9-octahydro-1H-dicyclopenta[d,e]pyrimidin-4-ium tetrafluoroborate'
_symmetry_cell_setting           monoclinic
_symmetry_space_group_name_H-M   'P 21/n'
_symmetry_Int_Tables_number      14
_space_group_name_Hall           '-P 2yn'
loop_
_symmetry_equiv_pos_site_id
_symmetry_equiv_pos_as_xyz
1 x,y,z
2 1/2-x,1/2+y,1/2-z
3 -x,-y,-z
4 1/2+x,1/2-y,1/2+z
_cell_length_a                   9.802(13)
_cell_length_b                   19.00(3)
_cell_length_c                   11.112(15)
_cell_angle_alpha                90
_cell_angle_beta                 91.156(12)
_cell_angle_gamma                90
_cell_volume                     2069.06
_exptl_crystal_colour            colorless
_cell_formula_units_Z            4
loop_
_atom_site_label
_atom_site_type_symbol
_atom_site_fract_x
_atom_site_fract_y
_atom_site_fract_z
C1 C 0.6744(7) 0.3560(4) 0.8707(8)
H1 H 0.6982 0.3158 0.9138
C2 C 0.6658(8) 0.4204(5) 0.9291(8)
H2 H 0.6831 0.4232 1.0116
C3 C 0.6319(8) 0.4798(5) 0.8654(11)
H3 H 0.6236 0.5225 0.9054
C4 C 0.6100(8) 0.4768(5) 0.7424(10)
H4 H 0.5912 0.5177 0.6993
C5 C 0.6160(7) 0.4122(4) 0.6829(8)
H5 H 0.5993 0.4094 0.6004
C6 C 0.6476(7) 0.3519(4) 0.7491(8)
C7 C 0.7223(7) 0.2720(4) 0.5764(7)
H6 H 0.6699 0.2899 0.5069
C8 C 0.8645(7) 0.3059(4) 0.5829(7)
H7 H 0.8999 0.3128 0.5029
H8 H 0.8614 0.3510 0.6237
C9 C 0.9516(8) 0.2543(4) 0.6534(8)
H9 H 0.9598 0.2689 0.7369
H10 H 1.0423 0.2520 0.6203
C10 C 0.8830(7) 0.1832(4) 0.6446(7)
H11 H 0.8564 0.1671 0.7237
H12 H 0.9444 0.1487 0.6108
C11 C 0.7545(7) 0.1930(4) 0.5609(7)
C12 C 0.7801(8) 0.1756(4) 0.4275(7)
H13 H 0.7724 0.2179 0.3788
H14 H 0.8710 0.1564 0.4187
C13 C 0.6723(9) 0.1215(5) 0.3871(7)
H15 H 0.6403 0.1311 0.3055
H16 H 0.7092 0.0742 0.3905
C14 C 0.5582(8) 0.1302(5) 0.4754(7)
H17 H 0.5030 0.0880 0.4800
H18 H 0.5001 0.1698 0.4539
C15 C 0.6364(7) 0.1436(4) 0.5932(7)
H19 H 0.6762 0.0988 0.6198
C16 C 0.5664(6) 0.2355(4) 0.7309(6)
H20 H 0.5129 0.2483 0.7955
C17 C 0.4511(7) 0.1256(4) 0.7434(6)
C18 C 0.3167(7) 0.1448(4) 0.7403(6)
H21 H 0.2902 0.1865 0.7029
C19 C 0.2197(8) 0.1021(5) 0.7930(7)
H22 H 0.1284 0.1155 0.7915
C20 C 0.2587(9) 0.0399(5) 0.8476(8)
H23 H 0.1937 0.0114 0.8833
C21 C 0.3927(9) 0.0200(4) 0.8493(7)
H24 H 0.4182 -0.0225 0.8848
C22 C 0.4918(8) 0.0629(4) 0.7985(7)
H25 H 0.5832 0.0498 0.8012
N1 N 0.6476(5) 0.2838(3) 0.6889(5)
N2 N 0.5525(5) 0.1704(3) 0.6910(5)
F1 F 0.879(3) 0.1086(13) 0.9650(19)
F2 F 0.6991(6) 0.1805(4) 0.9479(6)
F3 F 0.802(3) 0.155(2) 1.127(2)
F4 F 0.875(3) 0.2218(11) 0.988(4)
B1 B 0.8164(10) 0.1627(7) 1.0065(14)
F5? F 0.793(5) 0.0998(15) 1.009(4)
F6? F 0.9317(17) 0.178(3) 0.9514(18)
F7? F 0.834(3) 0.190(2) 1.110(3)
loop_
_geom_bond_atom_site_label_1
_geom_bond_atom_site_label_2
_geom_bond_site_symmetry_1
_geom_bond_site_symmetry_2
C1 H1 1_555 1_555
C2 C1 1_555 1_555
H2 C2 1_555 1_555
C3 C2 1_555 1_555
H3 C3 1_555 1_555
C4 C3 1_555 1_555
H4 C4 1_555 1_555
C5 C4 1_555 1_555
H5 C5 1_555 1_555
C6 C1 1_555 1_555
C7 H6 1_555 1_555
C8 C7 1_555 1_555
H7 C8 1_555 1_555
H8 C8 1_555 1_555
C9 C8 1_555 1_555
H9 C9 1_555 1_555
H10 C9 1_555 1_555
C10 C9 1_555 1_555
H11 C10 1_555 1_555
H12 C10 1_555 1_555
C11 C7 1_555 1_555
C12 C11 1_555 1_555
H13 C12 1_555 1_555
H14 C12 1_555 1_555
C13 C12 1_555 1_555
H15 C13 1_555 1_555
H16 C13 1_555 1_555
C14 C13 1_555 1_555
H17 C14 1_555 1_555
H18 C14 1_555 1_555
C15 C11 1_555 1_555
H19 C15 1_555 1_555
C16 H20 1_555 1_555
C17 C18 1_555 1_555
C18 H21 1_555 1_555
C19 C18 1_555 1_555
H22 C19 1_555 1_555
C20 C19 1_555 1_555
H23 C20 1_555 1_555
C21 C20 1_555 1_555
H24 C21 1_555 1_555
C22 C17 1_555 1_555
H25 C22 1_555 1_555
N1 C6 1_555 1_555
N2 C15 1_555 1_555
F1 B1 1_555 1_555
F2 B1 1_555 1_555
F3 B1 1_555 1_555
F4 B1 1_555 1_555
C5 C6 1_555 1_555
C7 N1 1_555 1_555
C10 C11 1_555 1_555
C14 C15 1_555 1_555
C16 N1 1_555 1_555
C16 N2 1_555 1_555
C17 N2 1_555 1_555
C21 C22 1_555 1_555

#END
