
#######################################################################
#
#                 Cambridge Crystallographic Data Centre
#                                CCDC 
#
#######################################################################
#
# If this CIF has been generated from an entry in the Cambridge 
# Structural Database, then it will include bibliographic, chemical, 
# crystal, experimental, refinement or atomic coordinate data resulting 
# from the CCDC's data processing and validation procedures.
#
#######################################################################

data_POGVUE
_chemical_compound_source        'aerial parts of Isodon wikstroemioides'
_chemical_name_common            'Wikstroemioidin T'
_chemical_formula_moiety         'C20 H30 O6'
_chemical_name_systematic        7,12,14,18,20-pentahydroxykaur-16-en-15-one
_symmetry_cell_setting           monoclinic
_symmetry_space_group_name_H-M   'P 21'
_symmetry_Int_Tables_number      4
_space_group_name_Hall           'P 2yb'
loop_
_symmetry_equiv_pos_site_id
_symmetry_equiv_pos_as_xyz
1 x,y,z
2 -x,1/2+y,-z
_cell_length_a                   6.58330(10)
_cell_length_b                   18.2138(3)
_cell_length_c                   7.99620(10)
_cell_angle_alpha                90
_cell_angle_beta                 111.6750(10)
_cell_angle_gamma                90
_cell_volume                     891.007
_exptl_crystal_colour            colorless
_exptl_crystal_description       prism
_cell_formula_units_Z            2
loop_
_atom_site_label
_atom_site_type_symbol
_atom_site_fract_x
_atom_site_fract_y
_atom_site_fract_z
O1 O 0.4238(4) 0.87903(16) -0.0982(3)
H1 H 0.2882 0.8771 -0.1554
O2 O 0.4647(4) 0.95419(16) 0.1885(4)
H2 H 0.5493 0.9885 0.2411
O3 O 0.9494(4) 0.85369(16) 0.1313(4)
O4 O 0.5902(5) 0.84194(17) 0.6552(4)
H3 H 0.4996 0.8749 0.6036
O5 O 0.3766(5) 0.72028(17) 0.5384(4)
H4 H 0.4795 0.7504 0.5816
O6 O 0.3955(5) 0.60237(16) -0.2466(4)
H5 H 0.4702 0.5670 -0.1882
C1 C 0.2010(7) 0.6082(2) -0.2110(5)
H6 H 0.1157 0.5625 -0.2526
H7 H 0.1131 0.6491 -0.2840
C2 C 0.2300(6) 0.6214(2) -0.0111(5)
C3 C 0.3880(6) 0.6879(2) 0.0644(5)
H8 H 0.5174 0.6765 0.0320
C4 C 0.4858(6) 0.6978(2) 0.2736(5)
C5 C 0.6753(6) 0.7560(2) 0.3126(5)
H9 H 0.7825 0.7310 0.2699
C6 C 0.6218(6) 0.8296(2) 0.2017(5)
C7 C 0.8443(6) 0.8647(2) 0.2253(5)
C8 C 0.9094(6) 0.9128(2) 0.3888(5)
C9 C 1.0908(7) 0.9514(3) 0.4491(6)
H10 H 1.1901 0.9499 0.3880
H11 H 1.1226 0.9809 0.5538
C10 C -0.0036(7) 0.6315(3) -0.0143(6)
H12 H -0.1032 0.5983 -0.1039
H13 H -0.0503 0.6824 -0.0459
H14 H -0.0061 0.6202 0.1047
C11 C 0.4957(6) 0.81244(19) 0.0022(5)
H15 H 0.5991 0.7876 -0.0449
C12 C 0.3029(6) 0.7611(2) -0.0294(4)
H16 H 0.2251 0.7531 -0.1600
H17 H 0.1990 0.7832 0.0196
C13 C 0.5291(6) 0.8883(2) 0.2931(5)
H18 H 0.4070 0.8681 0.3254
C14 C 0.7284(6) 0.9074(2) 0.4615(5)
H19 H 0.7070 0.9551 0.5148
C15 C 0.7694(7) 0.8451(2) 0.5964(5)
H20 H 0.9033 0.8576 0.7030
C16 C 0.8135(6) 0.7729(2) 0.5173(5)
H21 H 0.7895 0.7321 0.5899
H22 H 0.9700 0.7720 0.5335
C17 C 0.5876(6) 0.6240(2) 0.3574(5)
H23 H 0.7133 0.6129 0.3219
H24 H 0.6429 0.6281 0.4902
C18 C 0.4234(7) 0.5613(2) 0.2979(5)
H25 H 0.2997 0.5716 0.3367
H26 H 0.4942 0.5153 0.3566
C19 C 0.3365(7) 0.5515(2) 0.0931(6)
H27 H 0.2275 0.5113 0.0594
H28 H 0.4588 0.5366 0.0566
C20 C 0.3080(6) 0.7197(2) 0.3463(5)
H29 H 0.2538 0.7692 0.3005
H30 H 0.1839 0.6851 0.2972
loop_
_geom_bond_atom_site_label_1
_geom_bond_atom_site_label_2
_geom_bond_site_symmetry_1
_geom_bond_site_symmetry_2
O1 H1 1_555 1_555
O2 H2 1_555 1_555
O3 C7 1_555 1_555
O4 H3 1_555 1_555
O5 H4 1_555 1_555
O6 H5 1_555 1_555
C1 O6 1_555 1_555
H6 C1 1_555 1_555
H7 C1 1_555 1_555
C2 C1 1_555 1_555
C3 C2 1_555 1_555
H8 C3 1_555 1_555
C4 C3 1_555 1_555
C5 C4 1_555 1_555
H9 C5 1_555 1_555
C6 C5 1_555 1_555
C7 C6 1_555 1_555
C8 C7 1_555 1_555
C9 C8 1_555 1_555
H10 C9 1_555 1_555
H11 C9 1_555 1_555
C10 C2 1_555 1_555
H12 C10 1_555 1_555
H13 C10 1_555 1_555
H14 C10 1_555 1_555
C11 O1 1_555 1_555
H15 C11 1_555 1_555
C12 C3 1_555 1_555
H16 C12 1_555 1_555
H17 C12 1_555 1_555
C13 O2 1_555 1_555
H18 C13 1_555 1_555
C14 C8 1_555 1_555
H19 C14 1_555 1_555
C15 O4 1_555 1_555
H20 C15 1_555 1_555
C16 C5 1_555 1_555
H21 C16 1_555 1_555
H22 C16 1_555 1_555
C17 C4 1_555 1_555
H23 C17 1_555 1_555
H24 C17 1_555 1_555
C18 C17 1_555 1_555
H25 C18 1_555 1_555
H26 C18 1_555 1_555
C19 C2 1_555 1_555
H27 C19 1_555 1_555
H28 C19 1_555 1_555
C20 O5 1_555 1_555
H29 C20 1_555 1_555
H30 C20 1_555 1_555
C4 C20 1_555 1_555
C6 C11 1_555 1_555
C6 C13 1_555 1_555
C11 C12 1_555 1_555
C13 C14 1_555 1_555
C14 C15 1_555 1_555
C15 C16 1_555 1_555
C18 C19 1_555 1_555

#END
