
#######################################################################
#
#                 Cambridge Crystallographic Data Centre
#                                CCDC 
#
#######################################################################
#
# If this CIF has been generated from an entry in the Cambridge 
# Structural Database, then it will include bibliographic, chemical, 
# crystal, experimental, refinement or atomic coordinate data resulting 
# from the CCDC's data processing and validation procedures.
#
#######################################################################

data_POGWAL
_chemical_name_common            'isoscoparin L'
_chemical_formula_moiety         'C20 H30 O4'
_chemical_name_systematic        7,12,14-trihydroxykaur-16-en-15-one
_chemical_properties_biological  'cytotoxic activity'
_symmetry_cell_setting           orthorhombic
_symmetry_space_group_name_H-M   'P 21 21 21'
_symmetry_Int_Tables_number      19
_space_group_name_Hall           'P 2ac 2ab'
loop_
_symmetry_equiv_pos_site_id
_symmetry_equiv_pos_as_xyz
1 x,y,z
2 1/2+x,1/2-y,-z
3 -x,1/2+y,1/2-z
4 1/2-x,-y,1/2+z
_cell_length_a                   6.23380(10)
_cell_length_b                   15.2634(3)
_cell_length_c                   18.2796(4)
_cell_angle_alpha                90
_cell_angle_beta                 90
_cell_angle_gamma                90
_cell_volume                     1739.29
_exptl_crystal_colour            colorless
_exptl_crystal_description       prism
_cell_formula_units_Z            4
loop_
_atom_site_label
_atom_site_type_symbol
_atom_site_fract_x
_atom_site_fract_y
_atom_site_fract_z
O1 O -0.0539(2) 0.61358(8) 0.69341(6)
H1 H -0.1850 0.6011 0.6952
O2 O -0.0539(3) 0.80686(8) 0.85190(7)
H2 H -0.0992 0.8494 0.8272
O3 O 0.5512(2) 0.57522(7) 0.75030(6)
O4 O 0.1272(2) 0.46070(7) 0.72320(6)
H3 H 0.0542 0.4978 0.7002
C1 C 0.4938(3) 0.75381(12) 0.68736(10)
H4 H 0.6325 0.7303 0.6784
H5 H 0.4574 0.8103 0.6693
C2 C 0.3508(3) 0.70768(11) 0.72515(9)
C3 C 0.3894(3) 0.61871(10) 0.75608(9)
C4 C 0.1887(3) 0.59091(10) 0.79905(8)
C5 C 0.2213(3) 0.62215(10) 0.88027(9)
H6 H 0.3605 0.5952 0.8955
C6 C 0.0537(3) 0.58564(10) 0.93662(8)
C7 C 0.0570(3) 0.48391(10) 0.92736(8)
H7 H 0.2121 0.4677 0.9311
C8 C -0.0555(3) 0.42821(11) 0.98768(9)
C9 C 0.0124(4) 0.33174(11) 0.97800(10)
H8 H -0.0256 0.2985 1.0220
H9 H 0.1678 0.3287 0.9702
H10 H -0.0618 0.3067 0.9356
C10 C -0.2993(3) 0.43157(12) 0.98626(10)
H11 H -0.3571 0.3867 1.0192
H12 H -0.3501 0.4206 0.9364
H13 H -0.3477 0.4895 1.0023
C11 C 0.0137(3) 0.64823(10) 0.76297(8)
H14 H -0.1115 0.6561 0.7965
C12 C 0.1321(3) 0.73490(10) 0.75141(9)
H15 H 0.0575 0.7725 0.7146
C13 C 0.1513(3) 0.78156(10) 0.82589(10)
H16 H 0.2396 0.8356 0.8190
C14 C 0.2642(3) 0.72279(10) 0.88237(9)
H17 H 0.2241 0.7441 0.9316
H18 H 0.4207 0.7318 0.8770
C15 C 0.1635(3) 0.49122(10) 0.79622(9)
H19 H 0.3030 0.4656 0.8126
C16 C -0.0064(3) 0.45882(10) 0.84906(9)
H20 H -0.0203 0.3944 0.8451
H21 H -0.1468 0.4854 0.8367
C17 C 0.1384(3) 0.60710(11) 1.01424(9)
H22 H 0.2928 0.5921 1.0169
H23 H 0.1241 0.6708 1.0231
C18 C 0.0178(3) 0.55715(12) 1.07414(9)
H24 H 0.0797 0.5720 1.1224
H25 H -0.1347 0.5754 1.0742
C19 C 0.0316(3) 0.45845(11) 1.06217(9)
H26 H -0.0499 0.4286 1.1014
H27 H 0.1834 0.4401 1.0664
C20 C -0.1700(3) 0.62657(11) 0.92867(9)
H28 H -0.2503 0.6187 0.9743
H29 H -0.2469 0.5979 0.8885
H30 H -0.1557 0.6893 0.9181
loop_
_geom_bond_atom_site_label_1
_geom_bond_atom_site_label_2
_geom_bond_site_symmetry_1
_geom_bond_site_symmetry_2
O1 H1 1_555 1_555
O2 H2 1_555 1_555
O3 C3 1_555 1_555
O4 H3 1_555 1_555
C1 H4 1_555 1_555
H5 C1 1_555 1_555
C2 C1 1_555 1_555
C3 C2 1_555 1_555
C4 C3 1_555 1_555
C5 C4 1_555 1_555
H6 C5 1_555 1_555
C6 C5 1_555 1_555
C7 C6 1_555 1_555
H7 C7 1_555 1_555
C8 C7 1_555 1_555
C9 C8 1_555 1_555
H8 C9 1_555 1_555
H9 C9 1_555 1_555
H10 C9 1_555 1_555
C10 C8 1_555 1_555
H11 C10 1_555 1_555
H12 C10 1_555 1_555
H13 C10 1_555 1_555
C11 O1 1_555 1_555
H14 C11 1_555 1_555
C12 C2 1_555 1_555
H15 C12 1_555 1_555
C13 O2 1_555 1_555
H16 C13 1_555 1_555
C14 C5 1_555 1_555
H17 C14 1_555 1_555
H18 C14 1_555 1_555
C15 O4 1_555 1_555
H19 C15 1_555 1_555
C16 C7 1_555 1_555
H20 C16 1_555 1_555
H21 C16 1_555 1_555
C17 C6 1_555 1_555
H22 C17 1_555 1_555
H23 C17 1_555 1_555
C18 C17 1_555 1_555
H24 C18 1_555 1_555
H25 C18 1_555 1_555
C19 C8 1_555 1_555
H26 C19 1_555 1_555
H27 C19 1_555 1_555
C20 C6 1_555 1_555
H28 C20 1_555 1_555
H29 C20 1_555 1_555
H30 C20 1_555 1_555
C4 C11 1_555 1_555
C4 C15 1_555 1_555
C11 C12 1_555 1_555
C12 C13 1_555 1_555
C13 C14 1_555 1_555
C15 C16 1_555 1_555
C18 C19 1_555 1_555

#END
