
#######################################################################
#
#                 Cambridge Crystallographic Data Centre
#                                CCDC 
#
#######################################################################
#
# If this CIF has been generated from an entry in the Cambridge 
# Structural Database, then it will include bibliographic, chemical, 
# crystal, experimental, refinement or atomic coordinate data resulting 
# from the CCDC's data processing and validation procedures.
#
#######################################################################

data_POHDAR
_chemical_formula_moiety         'C18 H21 N1 O2,H1 Cl1'
_chemical_name_systematic        
'(1R,2S)-N-Methylephedine benzoate hydrochloride'
_symmetry_cell_setting           orthorhombic
_symmetry_space_group_name_H-M   'P 21 21 21'
_symmetry_Int_Tables_number      19
_space_group_name_Hall           'P 2ac 2ab'
loop_
_symmetry_equiv_pos_site_id
_symmetry_equiv_pos_as_xyz
1 x,y,z
2 1/2+x,1/2-y,-z
3 -x,1/2+y,1/2-z
4 1/2-x,-y,1/2+z
_cell_length_a                   10.635(2)
_cell_length_b                   26.942(6)
_cell_length_c                   6.193(2)
_cell_angle_alpha                90
_cell_angle_beta                 90
_cell_angle_gamma                90
_cell_volume                     1774.47
_exptl_crystal_colour            colorless
_cell_formula_units_Z            4
loop_
_atom_site_label
_atom_site_type_symbol
_atom_site_fract_x
_atom_site_fract_y
_atom_site_fract_z
Cl1 Cl 0.4254(1) 0.26014(4) 1.6537(2)
O1 O 0.3489(2) 0.13906(9) 0.9509(4)
O2 O 0.4341(3) 0.1047(1) 1.2442(5)
N1 N 0.2138(3) 0.2306(1) 0.9480(5)
C1 C 0.4445(4) 0.1175(1) 1.0599(7)
C2 C 0.2289(3) 0.1410(1) 1.0615(1)
C3 C 0.1507(3) 0.1801(1) 0.9436(6)
C4 C 0.1261(4) 0.1658(1) 0.7112(7)
C5 C 0.1266(4) 0.2698(1) 0.8674(8)
C6 C 0.2612(4) 0.2451(1) 1.1693(7)
C7 C 0.5573(4) 0.1113(1) 0.9243(8)
C8 C 0.6541(5) 0.0817(2) 1.004(1)
C9 C 0.7629(7) 0.0752(3) 0.876(2)
C10 C 0.7747(6) 0.0988(4) 0.684(2)
C11 C 0.6815(5) 0.1272(2) 0.608(1)
C12 C 0.5699(4) 0.1336(1) 0.7226(8)
C13 C 0.1655(3) 0.0910(1) 1.0671(7)
C14 C 0.0804(5) 0.0807(1) 1.2276(7)
C15 C 0.0206(5) 0.0341(2) 1.2337(9)
C16 C 0.0466(5) -0.0007(1) 1.082(1)
C17 C 0.1325(5) 0.0096(1) 0.9231(2)
C18 C 0.1920(4) 0.0550(1) 0.9135(8)
loop_
_geom_bond_atom_site_label_1
_geom_bond_atom_site_label_2
_geom_bond_site_symmetry_1
_geom_bond_site_symmetry_2
O1 C1 1_555 1_555
O2 C1 1_555 1_555
N1 C3 1_555 1_555
C1 C7 1_555 1_555
C2 O1 1_555 1_555
C3 C2 1_555 1_555
C4 C3 1_555 1_555
C5 N1 1_555 1_555
C6 N1 1_555 1_555
C7 C8 1_555 1_555
C8 C9 1_555 1_555
C9 C10 1_555 1_555
C10 C11 1_555 1_555
C11 C12 1_555 1_555
C12 C7 1_555 1_555
C13 C2 1_555 1_555
C14 C13 1_555 1_555
C15 C14 1_555 1_555
C16 C15 1_555 1_555
C17 C16 1_555 1_555
C18 C13 1_555 1_555
C17 C18 1_555 1_555

#END
