
#######################################################################
#
#                 Cambridge Crystallographic Data Centre
#                                CCDC 
#
#######################################################################
#
# If this CIF has been generated from an entry in the Cambridge 
# Structural Database, then it will include bibliographic, chemical, 
# crystal, experimental, refinement or atomic coordinate data resulting 
# from the CCDC's data processing and validation procedures.
#
#######################################################################

data_POHGAW
_chemical_name_common            'withahisolide A'
_chemical_formula_moiety         'C28 H36 O6'
_chemical_name_systematic        
1b-hydroxy-9-(1-(2-hydroxy-1,6-dimethyl-3,7-dioxabicyclo[4.1.0]hept-4-yl)ethyl)-5a-methyl-1b,2,5a,5b,6,8,11,11a,11b,11c-decahydrochryseno[5,6-b]oxiren-5(1aH)-one
_symmetry_cell_setting           monoclinic
_symmetry_space_group_name_H-M   'P 21'
_symmetry_Int_Tables_number      4
_space_group_name_Hall           'P 2yb'
loop_
_symmetry_equiv_pos_site_id
_symmetry_equiv_pos_as_xyz
1 x,y,z
2 -x,1/2+y,-z
_cell_length_a                   12.0702(11)
_cell_length_b                   6.6948(7)
_cell_length_c                   15.1204(12)
_cell_angle_alpha                90
_cell_angle_beta                 100.271(6)
_cell_angle_gamma                90
_cell_volume                     1202.26
_exptl_crystal_colour            colorless
_exptl_crystal_description       Needle
_cell_formula_units_Z            2
loop_
_atom_site_label
_atom_site_type_symbol
_atom_site_fract_x
_atom_site_fract_y
_atom_site_fract_z
O1 O 0.45941(16) 0.4671(3) 0.49109(14)
O2 O 0.0265(2) -0.1852(5) -0.07035(19)
O3 O 0.29090(19) -0.1905(4) -0.05504(17)
O4 O 0.2418(2) -0.0994(4) 0.63962(19)
O5 O 0.46538(17) 0.2318(4) 0.63601(16)
H1 H 0.479(3) 0.203(6) 0.585(3)
O6 O 0.1851(3) -0.4812(5) -0.0646(3)
H2 H 0.132(4) -0.435(7) -0.020(3)
C1 C 0.2633(3) 0.0738(5) 0.6583(3)
C2 C 0.2913(3) 0.1367(6) 0.7535(3)
H3 H 0.273(3) 0.035(7) 0.795(3)
C3 C 0.3391(3) 0.3108(6) 0.7782(3)
H4 H 0.353(3) 0.346(5) 0.836(3)
C4 C 0.3683(3) 0.4585(6) 0.7127(2)
H5 H 0.313(3) 0.569(6) 0.703(2)
H6 H 0.440(4) 0.518(7) 0.733(3)
C5 C 0.3705(2) 0.3621(5) 0.6213(2)
C6 C 0.3876(2) 0.5234(5) 0.5535(2)
H7 H 0.402(3) 0.649(6) 0.579(2)
C7 C 0.3403(2) 0.5019(5) 0.4588(2)
H8 H 0.324(2) 0.623(5) 0.424(2)
C8 C 0.2735(2) 0.3198(5) 0.4231(2)
H9 H 0.201(3) 0.369(5) 0.403(2)
C9 C 0.2652(2) 0.1538(5) 0.4934(2)
H10 H 0.332(2) 0.080(5) 0.4986(19)
C10 C 0.2619(2) 0.2382(5) 0.5881(2)
C11 C 0.1673(3) 0.0201(6) 0.4489(3)
H11 H 0.157(3) -0.084(6) 0.485(2)
H12 H 0.096(3) 0.109(6) 0.445(3)
C12 C 0.1867(3) -0.0484(5) 0.3578(2)
H13 H 0.151(4) -0.158(8) 0.339(3)
C13 C 0.2574(2) 0.0376(5) 0.3112(2)
C14 C 0.3185(3) 0.2299(5) 0.3430(2)
H14 H 0.404(3) 0.197(6) 0.362(2)
C15 C 0.3142(3) 0.3759(5) 0.2651(2)
H15 H 0.367(3) 0.494(6) 0.281(2)
H16 H 0.253(4) 0.429(7) 0.257(3)
C16 C 0.3389(3) 0.2817(5) 0.1818(2)
H17 H 0.366(3) 0.373(7) 0.142(3)
C17 C 0.3280(2) 0.0881(5) 0.1631(2)
C18 C 0.2893(3) -0.0535(6) 0.2289(2)
H18 H 0.229(4) -0.109(7) 0.203(3)
H19 H 0.354(4) -0.150(9) 0.246(3)
C19 C 0.1556(3) 0.3664(6) 0.5885(3)
H20 H 0.090(3) 0.300(6) 0.563(2)
H21 H 0.160(3) 0.482(7) 0.557(3)
H22 H 0.149(3) 0.410(6) 0.644(3)
C20 C 0.3590(3) -0.0078(6) 0.0798(2)
H23 H 0.401(3) -0.121(6) 0.099(2)
C21 C 0.4311(3) 0.1217(7) 0.0293(3)
H24 H 0.447(3) 0.052(7) -0.025(3)
H25 H 0.493(4) 0.166(7) 0.069(3)
H26 H 0.392(3) 0.244(6) 0.010(2)
C22 C 0.2536(3) -0.0870(5) 0.0175(2)
H27 H 0.216(2) -0.173(5) 0.0567(19)
C23 C 0.1723(3) 0.0733(6) -0.0218(2)
H28 H 0.217(3) 0.179(6) -0.045(2)
H29 H 0.141(3) 0.117(6) 0.032(3)
C24 C 0.0799(2) -0.0020(6) -0.0941(2)
C25 C 0.0959(3) -0.1913(6) -0.1387(2)
C26 C 0.2056(4) -0.3029(6) -0.1087(3)
H30 H 0.232(3) -0.351(6) -0.173(3)
C27 C 0.0009(3) 0.1542(8) -0.1408(3)
H31 H 0.049(4) 0.232(7) -0.178(3)
H32 H -0.069(4) 0.068(9) -0.182(4)
H33 H -0.031(4) 0.243(8) -0.095(3)
C28 C 0.0370(4) -0.2464(8) -0.2318(3)
H34 H 0.030(4) -0.409(9) -0.230(4)
H35 H -0.038(4) -0.174(8) -0.251(3)
H36 H 0.085(4) -0.206(7) -0.289(3)
loop_
_geom_bond_atom_site_label_1
_geom_bond_atom_site_label_2
_geom_bond_site_symmetry_1
_geom_bond_site_symmetry_2
O1 C6 1_555 1_555
O2 C24 1_555 1_555
O3 C22 1_555 1_555
O4 C1 1_555 1_555
O5 H1 1_555 1_555
O6 H2 1_555 1_555
C1 C2 1_555 1_555
C2 H3 1_555 1_555
C3 C2 1_555 1_555
H4 C3 1_555 1_555
C4 C3 1_555 1_555
H5 C4 1_555 1_555
H6 C4 1_555 1_555
C5 O5 1_555 1_555
C6 C5 1_555 1_555
H7 C6 1_555 1_555
C7 O1 1_555 1_555
H8 C7 1_555 1_555
C8 C7 1_555 1_555
H9 C8 1_555 1_555
C9 C8 1_555 1_555
H10 C9 1_555 1_555
C10 C1 1_555 1_555
C11 C9 1_555 1_555
H11 C11 1_555 1_555
H12 C11 1_555 1_555
C12 C11 1_555 1_555
H13 C12 1_555 1_555
C13 C12 1_555 1_555
C14 C8 1_555 1_555
H14 C14 1_555 1_555
C15 C14 1_555 1_555
H15 C15 1_555 1_555
H16 C15 1_555 1_555
C16 C15 1_555 1_555
H17 C16 1_555 1_555
C17 C16 1_555 1_555
C18 C13 1_555 1_555
H18 C18 1_555 1_555
H19 C18 1_555 1_555
C19 C10 1_555 1_555
H20 C19 1_555 1_555
H21 C19 1_555 1_555
H22 C19 1_555 1_555
C20 C17 1_555 1_555
H23 C20 1_555 1_555
C21 C20 1_555 1_555
H24 C21 1_555 1_555
H25 C21 1_555 1_555
H26 C21 1_555 1_555
C22 C20 1_555 1_555
H27 C22 1_555 1_555
C23 C22 1_555 1_555
H28 C23 1_555 1_555
H29 C23 1_555 1_555
C24 C23 1_555 1_555
C25 O2 1_555 1_555
C26 O3 1_555 1_555
H30 C26 1_555 1_555
C27 C24 1_555 1_555
H31 C27 1_555 1_555
H32 C27 1_555 1_555
H33 C27 1_555 1_555
C28 C25 1_555 1_555
H34 C28 1_555 1_555
H35 C28 1_555 1_555
H36 C28 1_555 1_555
O6 C26 1_555 1_555
C4 C5 1_555 1_555
C5 C10 1_555 1_555
C6 C7 1_555 1_555
C9 C10 1_555 1_555
C13 C14 1_555 1_555
C17 C18 1_555 1_555
C24 C25 1_555 1_555
C25 C26 1_555 1_555

#END
