
#######################################################################
#
#                 Cambridge Crystallographic Data Centre
#                                CCDC 
#
#######################################################################
#
# If this CIF has been generated from an entry in the Cambridge 
# Structural Database, then it will include bibliographic, chemical, 
# crystal, experimental, refinement or atomic coordinate data resulting 
# from the CCDC's data processing and validation procedures.
#
#######################################################################

data_POHGOI
_chemical_formula_moiety         'C14 H23 Cl2 N4 O1 P1 S1'
_chemical_name_systematic        
N,N-bis(2-Chloroethyl)-N'-isopropyl-N''-(phenylthioureido)-phosphoramide
_symmetry_cell_setting           monoclinic
_symmetry_space_group_name_H-M   'P 21/n'
_symmetry_Int_Tables_number      14
_space_group_name_Hall           '-P 2yn'
loop_
_symmetry_equiv_pos_site_id
_symmetry_equiv_pos_as_xyz
1 x,y,z
2 1/2-x,1/2+y,1/2-z
3 -x,-y,-z
4 1/2+x,1/2-y,1/2+z
_cell_length_a                   13.398(2)
_cell_length_b                   10.351(4)
_cell_length_c                   14.595(3)
_cell_angle_alpha                90
_cell_angle_beta                 101.45(1)
_cell_angle_gamma                90
_cell_volume                     1983.79
_exptl_crystal_colour            colorless
_chemical_melting_point          '133-134 deg.C'
_cell_formula_units_Z            4
loop_
_atom_site_label
_atom_site_type_symbol
_atom_site_fract_x
_atom_site_fract_y
_atom_site_fract_z
Cl1 Cl 0.0687(2) 0.2246(3) 0.4205(2)
Cl3 Cl -0.3598(3) 0.2290(6) 0.4831(3)
S1 S -0.4875(1) 0.4214(2) 0.1993(1)
P1 P -0.2297(1) 0.1717(2) 0.2816(1)
O1 O -0.2828(3) 0.0445(4) 0.2652(3)
N1 N -0.1742(3) 0.1865(5) 0.3917(3)
N2 N -0.1413(3) 0.2119(5) 0.2261(3)
N3 N -0.3152(3) 0.2912(4) 0.2469(3)
N4 N -0.4607(3) 0.1732(5) 0.2479(4)
C1 C -0.1162(5) 0.3032(7) 0.4271(5)
C2 C -0.0107(6) 0.281(1) 0.4781(7)
C3 C -0.1909(5) 0.0915(7) 0.4621(5)
C4 C -0.2418(6) 0.1471(9) 0.5370(5)
C5 C -0.1549(5) 0.2363(7) 0.1240(5)
C6 C -0.151(1) 0.109(1) 0.0740(6)
C7 C -0.0743(6) 0.332(1) 0.1078(6)
C8 C -0.4198(4) 0.2884(5) 0.2339(4)
C9 C -0.5659(4) 0.1467(6) 0.2445(5)
C10 C -0.6121(5) 0.0508(7) 0.1873(6)
C11 C -0.7096(6) 0.0187(9) 0.1855(7)
C12 C -0.7633(5) 0.0809(9) 0.2406(8)
C13 C -0.7187(6) 0.174(1) 0.2996(8)
C14 C -0.6177(5) 0.2092(8) 0.3020(6)
H1 H -0.2929 0.3886 0.2285
H2 H -0.4160 0.0820 0.2500
Cl2? Cl 0.0849(4) 0.3493(6) 0.5042(5)
Cl4? Cl -0.349(4) 0.199(1) 0.4869(4)
loop_
_geom_bond_atom_site_label_1
_geom_bond_atom_site_label_2
_geom_bond_site_symmetry_1
_geom_bond_site_symmetry_2
Cl1 C2 1_555 1_555
Cl3 C4 1_555 1_555
S1 C8 1_555 1_555
P1 O1 1_555 1_555
N1 P1 1_555 1_555
N2 P1 1_555 1_555
N3 P1 1_555 1_555
N4 C8 1_555 1_555
C1 N1 1_555 1_555
C2 C1 1_555 1_555
C3 N1 1_555 1_555
C4 C3 1_555 1_555
C5 N2 1_555 1_555
C6 C5 1_555 1_555
C7 C5 1_555 1_555
C8 N3 1_555 1_555
C9 N4 1_555 1_555
C10 C9 1_555 1_555
C11 C10 1_555 1_555
C12 C11 1_555 1_555
C13 C12 1_555 1_555
C14 C9 1_555 1_555
H1 N3 1_555 1_555
H2 N4 1_555 1_555
C13 C14 1_555 1_555

#END
