
#######################################################################
#
#                 Cambridge Crystallographic Data Centre
#                                CCDC 
#
#######################################################################
#
# If this CIF has been generated from an entry in the Cambridge 
# Structural Database, then it will include bibliographic, chemical, 
# crystal, experimental, refinement or atomic coordinate data resulting 
# from the CCDC's data processing and validation procedures.
#
#######################################################################

data_POHGEA
_chemical_name_common            'withahisolide B monohydrate'
_chemical_formula_moiety         'C28 H36 O6,H2 O1'
_chemical_name_systematic        
'1b-hydroxy-9-(1-(2-hydroxy-1,6-dimethyl-3,7-dioxabicyclo[4.1.0]hept-4-yl)ethyl)-5a-methyl-1b,2,5a,5b,6,7,8,11,11b,11c-decahydrochryseno[5,6-b]oxiren-5(1aH)-one monohydrate'
_symmetry_cell_setting           orthorhombic
_symmetry_space_group_name_H-M   'P 21 21 21'
_symmetry_Int_Tables_number      19
_space_group_name_Hall           'P 2ac 2ab'
loop_
_symmetry_equiv_pos_site_id
_symmetry_equiv_pos_as_xyz
1 x,y,z
2 1/2-x,-y,1/2+z
3 -x,1/2+y,1/2-z
4 1/2+x,1/2-y,-z
_cell_length_a                   6.5559(9)
_cell_length_b                   11.7079(13)
_cell_length_c                   33.660(4)
_cell_angle_alpha                90
_cell_angle_beta                 90
_cell_angle_gamma                90
_cell_volume                     2583.6
_exptl_crystal_colour            colorless
_exptl_crystal_description       'Rectangular parallelepiped'
_cell_formula_units_Z            4
loop_
_atom_site_label
_atom_site_type_symbol
_atom_site_fract_x
_atom_site_fract_y
_atom_site_fract_z
O1 O 0.2353(5) 0.2938(2) 0.51200(7)
O2 O -0.0155(6) 0.5246(3) 0.26371(9)
O3 O 0.3003(6) 0.4159(3) 0.32260(9)
O4 O -0.3128(5) 0.5815(3) 0.55916(9)
O5 O -0.1171(4) 0.3174(2) 0.55483(8)
H1 H -0.1027 0.3127 0.5301
O6 O -0.0377(7) 0.3866(4) 0.33400(12)
H2 H -0.0030 0.3656 0.3569
C1 C -0.1834(7) 0.5300(4) 0.57813(12)
C2 C -0.2342(8) 0.4877(4) 0.61893(12)
H3 H -0.347(8) 0.526(4) 0.6308(14)
C3 C -0.1259(8) 0.4046(4) 0.63593(13)
H4 H -0.161(9) 0.381(4) 0.6630(15)
C4 C 0.0495(8) 0.3488(4) 0.61584(11)
H5 H 0.0397 0.2651 0.6195
H6 H 0.1779 0.3748 0.6284
C5 C 0.0568(7) 0.3753(3) 0.57176(11)
C6 C 0.2515(7) 0.3272(4) 0.55353(11)
H7 H 0.3345 0.2759 0.5709
C7 C 0.3645(7) 0.3913(3) 0.52298(11)
H8 H 0.5149 0.3772 0.5221
C8 C 0.2961(6) 0.5059(3) 0.50878(11)
H9 H 0.3785 0.5629 0.5240
C9 C 0.0708(7) 0.5308(3) 0.51916(11)
H10 H -0.0145 0.4759 0.5036
C10 C 0.0311(6) 0.5064(3) 0.56363(11)
C11 C 0.0222(7) 0.6502(3) 0.50370(12)
H11 H -0.1170 0.6722 0.5121
H12 H 0.1195 0.7057 0.5152
C12 C 0.0364(7) 0.6536(3) 0.45885(12)
H13 H 0.0355 0.7343 0.4501
H14 H -0.0856 0.6160 0.4475
C13 C 0.2254(7) 0.5959(3) 0.44261(12)
C14 C 0.3439(7) 0.5269(3) 0.46539(11)
C15 C 0.5362(7) 0.4755(4) 0.44922(11)
H15 H 0.6530 0.5052 0.4647
H16 H 0.5310 0.3918 0.4533
C16 C 0.5741(8) 0.4980(4) 0.40663(13)
H17 H 0.694(9) 0.463(4) 0.3959(14)
C17 C 0.4546(7) 0.5615(3) 0.38323(12)
C18 C 0.2702(8) 0.6179(4) 0.39987(12)
H18 H 0.1506 0.5932 0.3841
H19 H 0.2849 0.7014 0.3962
C19 C 0.1779(7) 0.5775(4) 0.58992(12)
H20 H 0.1715 0.6579 0.5819
H21 H 0.3175 0.5492 0.5866
H22 H 0.1373 0.5704 0.6178
C20 C 0.5050(8) 0.5754(4) 0.33917(12)
H23 H 0.6253 0.5261 0.3329
C21 C 0.5622(10) 0.7005(4) 0.32969(13)
H24 H 0.6761 0.7242 0.3466
H25 H 0.4444 0.7500 0.3347
H26 H 0.6024 0.7067 0.3017
C22 C 0.3268(8) 0.5363(4) 0.31351(12)
H27 H 0.2010 0.5793 0.3211
C23 C 0.3589(8) 0.5447(4) 0.26920(13)
H28 H 0.4857 0.5040 0.2619
H29 H 0.3748 0.6259 0.2616
C24 C 0.1803(9) 0.4934(4) 0.24671(13)
C25 C 0.0513(10) 0.4072(4) 0.26718(14)
C26 C 0.1173(10) 0.3675(5) 0.30836(15)
H30 H 0.1382 0.2830 0.3069
C27 C -0.0810(12) 0.3218(5) 0.24651(18)
H31 H -0.1419 0.3569 0.2229
H32 H -0.1894 0.2966 0.2646
H33 H 0.0016 0.2559 0.2385
C28 C 0.1962(11) 0.5004(5) 0.20223(14)
H34 H 0.0676 0.4751 0.1903
H35 H 0.3075 0.4511 0.1931
H36 H 0.2238 0.5795 0.1944
O7 O 0.0995(5) 0.3360(3) 0.41035(10)
H37 H 0.1532 0.3413 0.3861
H38 H 0.1956 0.2837 0.4206
loop_
_geom_bond_atom_site_label_1
_geom_bond_atom_site_label_2
_geom_bond_site_symmetry_1
_geom_bond_site_symmetry_2
O1 C6 1_555 1_555
O2 C24 1_555 1_555
O3 C22 1_555 1_555
O4 C1 1_555 1_555
O5 H1 1_555 1_555
O6 H2 1_555 1_555
C1 C2 1_555 1_555
C2 H3 1_555 1_555
C3 C2 1_555 1_555
H4 C3 1_555 1_555
C4 C3 1_555 1_555
H5 C4 1_555 1_555
H6 C4 1_555 1_555
C5 O5 1_555 1_555
C6 C5 1_555 1_555
H7 C6 1_555 1_555
C7 O1 1_555 1_555
H8 C7 1_555 1_555
C8 C7 1_555 1_555
H9 C8 1_555 1_555
C9 C8 1_555 1_555
H10 C9 1_555 1_555
C10 C1 1_555 1_555
C11 C9 1_555 1_555
H11 C11 1_555 1_555
H12 C11 1_555 1_555
C12 C11 1_555 1_555
H13 C12 1_555 1_555
H14 C12 1_555 1_555
C13 C12 1_555 1_555
C14 C8 1_555 1_555
C15 C14 1_555 1_555
H15 C15 1_555 1_555
H16 C15 1_555 1_555
C16 C15 1_555 1_555
H17 C16 1_555 1_555
C17 C16 1_555 1_555
C18 C13 1_555 1_555
H18 C18 1_555 1_555
H19 C18 1_555 1_555
C19 C10 1_555 1_555
H20 C19 1_555 1_555
H21 C19 1_555 1_555
H22 C19 1_555 1_555
C20 C17 1_555 1_555
H23 C20 1_555 1_555
C21 C20 1_555 1_555
H24 C21 1_555 1_555
H25 C21 1_555 1_555
H26 C21 1_555 1_555
C22 C20 1_555 1_555
H27 C22 1_555 1_555
C23 C22 1_555 1_555
H28 C23 1_555 1_555
H29 C23 1_555 1_555
C24 C23 1_555 1_555
C25 O2 1_555 1_555
C26 O3 1_555 1_555
H30 C26 1_555 1_555
C27 C25 1_555 1_555
H31 C27 1_555 1_555
H32 C27 1_555 1_555
H33 C27 1_555 1_555
C28 C24 1_555 1_555
H34 C28 1_555 1_555
H35 C28 1_555 1_555
H36 C28 1_555 1_555
O7 H37 1_555 1_555
H38 O7 1_555 1_555
O6 C26 1_555 1_555
C4 C5 1_555 1_555
C5 C10 1_555 1_555
C6 C7 1_555 1_555
C9 C10 1_555 1_555
C13 C14 1_555 1_555
C17 C18 1_555 1_555
C24 C25 1_555 1_555
C25 C26 1_555 1_555

#END
