
#######################################################################
#
#                 Cambridge Crystallographic Data Centre
#                                CCDC 
#
#######################################################################
#
# If this CIF has been generated from an entry in the Cambridge 
# Structural Database, then it will include bibliographic, chemical, 
# crystal, experimental, refinement or atomic coordinate data resulting 
# from the CCDC's data processing and validation procedures.
#
#######################################################################

data_POHJIH
_chemical_formula_moiety         'C29 H30 N2 O5'
_chemical_name_systematic        
't-butyl 3-(1-nitro-4-phenylbutan-2-yl)-2-oxo-3-phenylindoline-1-carboxylate'
_symmetry_cell_setting           orthorhombic
_symmetry_space_group_name_H-M   'P 21 21 21'
_symmetry_Int_Tables_number      19
_space_group_name_Hall           'P 2ac 2ab'
loop_
_symmetry_equiv_pos_site_id
_symmetry_equiv_pos_as_xyz
1 x,y,z
2 1/2+x,1/2-y,-z
3 -x,1/2+y,1/2-z
4 1/2-x,-y,1/2+z
_cell_length_a                   10.9538(4)
_cell_length_b                   12.5419(4)
_cell_length_c                   18.2522(5)
_cell_angle_alpha                90
_cell_angle_beta                 90
_cell_angle_gamma                90
_cell_volume                     2507.51
_exptl_crystal_colour            colorless
_exptl_crystal_description       block
_cell_formula_units_Z            4
loop_
_atom_site_label
_atom_site_type_symbol
_atom_site_fract_x
_atom_site_fract_y
_atom_site_fract_z
O1 O 0.52088(19) 0.88156(17) 0.10368(10)
O2 O 0.8689(2) 0.8724(2) 0.19804(13)
O3 O 0.7368(2) 0.79269(18) 0.12056(13)
O4 O 0.6885(3) 1.0383(3) 0.01002(16)
O5 O 0.5019(3) 1.0630(3) -0.02491(14)
N1 N 0.5858(3) 1.0759(3) 0.01824(15)
N2 N 0.6727(3) 0.9322(2) 0.18729(13)
C1 C 0.7706(3) 0.8636(3) 0.16966(15)
C2 C 0.3692(3) 0.9765(3) 0.22266(15)
C3 C 0.5570(3) 1.1502(3) 0.29736(16)
C4 C 0.1933(3) 1.2083(3) 0.08736(17)
C5 C 0.5640(3) 1.1451(3) 0.08379(16)
C6 C 0.1651(4) 0.8747(3) 0.2833(2)
C7 C 0.4838(3) 1.0274(3) 0.18909(14)
C8 C 0.5720(3) 1.0699(3) 0.24550(15)
C9 C 0.6811(3) 1.0136(3) 0.24274(15)
C10 C 0.4517(3) 1.1111(3) 0.12849(16)
C11 C 0.6521(3) 1.1744(3) 0.34465(17)
C12 C 0.1604(3) 0.9153(3) 0.21338(19)
C13 C 0.7611(3) 1.1178(3) 0.33992(17)
C14 C 0.2618(3) 0.9644(3) 0.18268(17)
C15 C 0.3090(4) 1.2690(3) 0.10371(18)
C16 C 0.8285(3) 0.7172(3) 0.08847(18)
C17 C 0.7776(3) 1.0358(3) 0.28961(16)
C18 C 0.3887(3) 1.2106(3) 0.16001(17)
C19 C 0.1849(4) 1.1429(3) 0.02559(19)
C20 C 0.9262(4) 0.7794(4) 0.0486(2)
C21 C 0.3731(4) 0.9343(3) 0.29267(17)
C22 C -0.0073(4) 1.1508(3) 0.1238(3)
C23 C 0.0791(4) 1.0835(3) 0.0130(3)
C24 C 0.2733(4) 0.8831(3) 0.32246(19)
C25 C 0.8804(4) 0.6468(3) 0.1484(2)
C26 C 0.0963(3) 1.2107(3) 0.1359(2)
C27 C -0.0167(4) 1.0863(3) 0.0623(3)
C28 C 0.7516(4) 0.6550(4) 0.0354(3)
C29 C 0.5575(3) 0.9370(3) 0.15329(15)
H1 H 0.4821 1.1882 0.3003
H2 H 0.5529 1.2197 0.0673
H3 H 0.6370 1.1428 0.1158
H4 H 0.0956 0.8414 0.3044
H5 H 0.3931 1.0765 0.0939
H6 H 0.6429 1.2293 0.3801
H7 H 0.0871 0.9098 0.1858
H8 H 0.8263 1.1358 0.3720
H9 H 0.2579 0.9900 0.1338
H10 H 0.2879 1.3405 0.1228
H11 H 0.3559 1.2787 0.0578
H12 H 0.8517 0.9966 0.2874
H13 H 0.3371 1.1890 0.2020
H14 H 0.4518 1.2602 0.1785
H15 H 0.2511 1.1389 -0.0079
H16 H 0.9673 0.7328 0.0133
H17 H 0.9859 0.8064 0.0841
H18 H 0.8888 0.8395 0.0227
H19 H 0.4458 0.9407 0.3207
H20 H -0.0727 1.1537 0.1579
H21 H 0.0730 1.0407 -0.0298
H22 H 0.2787 0.8533 0.3702
H23 H 0.8134 0.6150 0.1765
H24 H 0.9315 0.6898 0.1811
H25 H 0.9298 0.5901 0.1264
H26 H 0.1012 1.2544 0.1783
H27 H -0.0879 1.0447 0.0542
H28 H 0.7148 0.7038 -0.0002
H29 H 0.6870 0.6174 0.0621
H30 H 0.8029 0.6030 0.0096
loop_
_geom_bond_atom_site_label_1
_geom_bond_atom_site_label_2
_geom_bond_site_symmetry_1
_geom_bond_site_symmetry_2
O1 C29 1_555 1_555
O2 C1 1_555 1_555
O3 C1 1_555 1_555
O4 N1 1_555 1_555
O5 N1 1_555 1_555
N1 C5 1_555 1_555
N2 C1 1_555 1_555
C2 C7 1_555 1_555
C3 C8 1_555 1_555
C4 C15 1_555 1_555
C5 C10 1_555 1_555
C6 C12 1_555 1_555
C7 C8 1_555 1_555
C8 C9 1_555 1_555
C9 N2 1_555 1_555
C10 C7 1_555 1_555
C11 C3 1_555 1_555
C12 C14 1_555 1_555
C13 C11 1_555 1_555
C14 C2 1_555 1_555
C15 C18 1_555 1_555
C16 O3 1_555 1_555
C17 C9 1_555 1_555
C18 C10 1_555 1_555
C19 C4 1_555 1_555
C20 C16 1_555 1_555
C21 C2 1_555 1_555
C22 C26 1_555 1_555
C23 C19 1_555 1_555
C24 C6 1_555 1_555
C25 C16 1_555 1_555
C26 C4 1_555 1_555
C27 C22 1_555 1_555
C28 C16 1_555 1_555
C29 N2 1_555 1_555
H1 C3 1_555 1_555
H2 C5 1_555 1_555
H3 C5 1_555 1_555
H4 C6 1_555 1_555
H5 C10 1_555 1_555
H6 C11 1_555 1_555
H7 C12 1_555 1_555
H8 C13 1_555 1_555
H9 C14 1_555 1_555
H10 C15 1_555 1_555
H11 C15 1_555 1_555
H12 C17 1_555 1_555
H13 C18 1_555 1_555
H14 C18 1_555 1_555
H15 C19 1_555 1_555
H16 C20 1_555 1_555
H17 C20 1_555 1_555
H18 C20 1_555 1_555
H19 C21 1_555 1_555
H20 C22 1_555 1_555
H21 C23 1_555 1_555
H22 C24 1_555 1_555
H23 C25 1_555 1_555
H24 C25 1_555 1_555
H25 C25 1_555 1_555
H26 C26 1_555 1_555
H27 C27 1_555 1_555
H28 C28 1_555 1_555
H29 C28 1_555 1_555
H30 C28 1_555 1_555
C7 C29 1_555 1_555
C13 C17 1_555 1_555
C21 C24 1_555 1_555
C23 C27 1_555 1_555

#END
