
#######################################################################
#
#                 Cambridge Crystallographic Data Centre
#                                CCDC 
#
#######################################################################
#
# If this CIF has been generated from an entry in the Cambridge 
# Structural Database, then it will include bibliographic, chemical, 
# crystal, experimental, refinement or atomic coordinate data resulting 
# from the CCDC's data processing and validation procedures.
#
#######################################################################

data_POHLAB
_chemical_name_common            'Xylogiblactone A'
_chemical_formula_moiety         'C9 H13 Cl1 O4'
_chemical_name_systematic        
5-(3-chloro-1,2-dihydroxybutyl)-3-methylfuran-2(5H)-one
_symmetry_cell_setting           monoclinic
_symmetry_space_group_name_H-M   'P 21'
_symmetry_Int_Tables_number      4
_space_group_name_Hall           'P 2yb'
loop_
_symmetry_equiv_pos_site_id
_symmetry_equiv_pos_as_xyz
1 x,y,z
2 -x,1/2+y,-z
_cell_length_a                   9.6443(6)
_cell_length_b                   4.7764(3)
_cell_length_c                   11.5683(7)
_cell_angle_alpha                90
_cell_angle_beta                 94.929(5)
_cell_angle_gamma                90
_cell_volume                     530.923
_cell_formula_units_Z            2
loop_
_atom_site_label
_atom_site_type_symbol
_atom_site_fract_x
_atom_site_fract_y
_atom_site_fract_z
Cl1 Cl 0.68183(13) 0.6851(4) 0.45450(9)
O1 O 1.2396(3) 0.7272(9) 1.0645(2)
O2 O 1.0923(3) 0.5694(6) 0.9198(2)
O3 O 0.9279(3) 1.0062(5) 0.7755(2)
H1 H 0.8749 1.0468 0.8246
O4 O 0.9780(2) 0.7336(5) 0.55921(19)
C1 C 1.2020(3) 0.7204(8) 0.9614(3)
C2 C 1.2652(3) 0.8575(8) 0.8652(3)
C3 C 1.1929(3) 0.7802(7) 0.7680(3)
H2 H 1.2129 0.8333 0.6939
C4 C 1.0749(3) 0.5962(7) 0.7943(3)
H3 H 1.0850 0.4123 0.7584
C5 C 0.9289(3) 0.7126(7) 0.7600(3)
H4 H 0.8642 0.6294 0.8112
C6 C 0.8792(3) 0.6399(6) 0.6353(2)
H5 H 0.8709 0.4359 0.6287
C7 C 0.7361(4) 0.7697(8) 0.6031(3)
H6 H 0.7450 0.9736 0.6096
C8 C 0.6260(4) 0.6758(17) 0.6795(4)
H7 H 0.6549 0.7204 0.7588
H8 H 0.6129 0.4772 0.6718
H9 H 0.5401 0.7698 0.6565
C9 C 1.3873(4) 1.0489(11) 0.8852(4)
H10 H 1.4131 1.1174 0.8120
H11 H 1.4641 0.9486 0.9239
H12 H 1.3632 1.2037 0.9325
H13 H 0.989(7) 0.619(14) 0.524(5)
loop_
_geom_bond_atom_site_label_1
_geom_bond_atom_site_label_2
_geom_bond_site_symmetry_1
_geom_bond_site_symmetry_2
Cl1 C7 1_555 1_555
O1 C1 1_555 1_555
O2 C1 1_555 1_555
O3 H1 1_555 1_555
O4 C6 1_555 1_555
C1 C2 1_555 1_555
C2 C3 1_555 1_555
C3 H2 1_555 1_555
C4 O2 1_555 1_555
H3 C4 1_555 1_555
C5 O3 1_555 1_555
H4 C5 1_555 1_555
C6 C5 1_555 1_555
H5 C6 1_555 1_555
C7 C6 1_555 1_555
H6 C7 1_555 1_555
C8 C7 1_555 1_555
H7 C8 1_555 1_555
H8 C8 1_555 1_555
H9 C8 1_555 1_555
C9 C2 1_555 1_555
H10 C9 1_555 1_555
H11 C9 1_555 1_555
H12 C9 1_555 1_555
H13 O4 1_555 1_555
C3 C4 1_555 1_555
C4 C5 1_555 1_555

#END
