
#######################################################################
#
#                 Cambridge Crystallographic Data Centre
#                                CCDC 
#
#######################################################################
#
# If this CIF has been generated from an entry in the Cambridge 
# Structural Database, then it will include bibliographic, chemical, 
# crystal, experimental, refinement or atomic coordinate data resulting 
# from the CCDC's data processing and validation procedures.
#
#######################################################################

data_POHLIH
_chemical_formula_moiety         'C14 H28 N4 O6 2+,O4 S1 2-,2(H2 O1)'
_chemical_name_systematic        
'1,7-Diaza-4,10-diazoniacyclododecane-1,4,7-triacetic acid sulfate dihydrate'
_symmetry_cell_setting           orthorhombic
_symmetry_space_group_name_H-M   'P b c a'
_symmetry_Int_Tables_number      61
_space_group_name_Hall           '-P 2ac 2ab'
loop_
_symmetry_equiv_pos_site_id
_symmetry_equiv_pos_as_xyz
1 x,y,z
2 1/2-x,-y,1/2+z
3 1/2+x,1/2-y,-z
4 -x,1/2+y,1/2-z
5 -x,-y,-z
6 1/2+x,y,1/2-z
7 1/2-x,1/2+y,z
8 x,1/2-y,1/2+z
_cell_length_a                   25.813(3)
_cell_length_b                   14.384(3)
_cell_length_c                   11.426(1)
_cell_angle_alpha                90
_cell_angle_beta                 90
_cell_angle_gamma                90
_cell_volume                     4242.41
_exptl_crystal_colour            colorless
_cell_formula_units_Z            8
loop_
_atom_site_label
_atom_site_type_symbol
_atom_site_fract_x
_atom_site_fract_y
_atom_site_fract_z
N1 N 0.7012(1) 0.4557(2) 0.2136(3)
C1 C 0.7072(2) 0.3989(3) 0.1071(4)
C2 C 0.6563(2) 0.3840(3) 0.0453(3)
N2 N 0.6186(1) 0.3284(2) 0.1191(3)
C3 C 0.5636(2) 0.3394(3) 0.0755(4)
C4 C 0.5416(2) 0.4344(3) 0.0981(4)
N3 N 0.5489(1) 0.4660(2) 0.2194(3)
C5 C 0.5409(2) 0.5664(3) 0.2304(4)
C6 C 0.5908(2) 0.6183(3) 0.2119(4)
N4 N 0.6286(1) 0.5890(3) 0.3029(3)
C7 C 0.6833(2) 0.6173(3) 0.2791(4)
C8 C 0.7073(2) 0.5551(3) 0.1867(4)
C9 C 0.7218(2) 0.3342(3) 0.3588(4)
C10 C 0.7370(2) 0.4258(3) 0.3058(4)
O1 O 0.6809(1) 0.2961(2) 0.3403(3)
O2 O 0.7565(1) 0.2967(2) 0.4308(3)
C11 C 0.6091(2) 0.1744(3) 0.2185(4)
C12 C 0.6338(2) 0.2284(3) 0.1192(4)
O3 O 0.5764(1) 0.2047(2) 0.2833(3)
O4 O 0.6289(1) 0.0905(2) 0.2222(3)
C13 C 0.5436(2) 0.4088(3) 0.4208(4)
C14 C 0.5176(2) 0.4144(3) 0.3027(4)
O5 O 0.5878(1) 0.4343(3) 0.4373(3)
O6 O 0.5161(1) 0.3740(3) 0.5067(3)
H1 H 0.6232 0.3527 0.2007
H2 H 0.4893 0.3357 0.4826
H3 H 0.7305 0.4297 0.0554
H4 H 0.7213 0.3401 0.1281
H5 H 0.6622 0.3514 -0.0260
H6 H 0.6411 0.4428 0.0279
H7 H 0.5631 0.3277 -0.0065
H8 H 0.5424 0.2945 0.1138
H9 H 0.5055 0.4333 0.0812
H10 H 0.5582 0.4775 0.0470
H11 H 0.6229 0.6103 0.3867
H12 H 0.6352 0.5231 0.3143
H13 H 0.5161 0.5860 0.1736
H14 H 0.5279 0.5798 0.3065
H15 H 0.5849 0.6834 0.2173
H16 H 0.6043 0.6042 0.1361
H17 H 0.6837 0.6800 0.2526
H18 H 0.7029 0.6126 0.3494
H19 H 0.7434 0.5690 0.1809
H20 H 0.6913 0.5679 0.1132
H21 H 0.7709 0.4204 0.2733
H22 H 0.7375 0.4718 0.3659
H23 H 0.6232 0.2010 0.0470
H24 H 0.6703 0.2239 0.1262
H25 H 0.4848 0.4441 0.3112
H26 H 0.5122 0.3528 0.2738
H31 H 0.6111 0.0516 0.2935
H32 H 0.7896 0.2856 0.3874
S1 S 0.61362(4) 0.62340(7) 0.85047(9)
O7 O 0.6350(1) 0.6437(2) 0.7346(3)
O8 O 0.5908(1) 0.5293(2) 0.8517(3)
O9 O 0.5731(1) 0.6893(2) 0.8802(3)
O10 O 0.6554(1) 0.6259(3) 0.9386(3)
O11 O 0.6755(1) 0.5305(3) 0.5398(3)
H27 H 0.6622 0.5497 0.6284
H28 H 0.6495 0.4742 0.5483
O12 O 0.5801(1) 0.6699(2) 0.5243(3)
H29 H 0.6024 0.6790 0.5917
H30 H 0.5742 0.7390 0.5224
loop_
_geom_bond_atom_site_label_1
_geom_bond_atom_site_label_2
_geom_bond_site_symmetry_1
_geom_bond_site_symmetry_2
N1 C1 1_555 1_555
C1 C2 1_555 1_555
C2 N2 1_555 1_555
N2 C3 1_555 1_555
C3 C4 1_555 1_555
C4 N3 1_555 1_555
N3 C5 1_555 1_555
C5 C6 1_555 1_555
C6 N4 1_555 1_555
N4 C7 1_555 1_555
C7 C8 1_555 1_555
C8 N1 1_555 1_555
C9 C10 1_555 1_555
C10 N1 1_555 1_555
O1 C9 1_555 1_555
O2 C9 1_555 1_555
C11 C12 1_555 1_555
C12 N2 1_555 1_555
O3 C11 1_555 1_555
O4 C11 1_555 1_555
C13 C14 1_555 1_555
C14 N3 1_555 1_555
O5 C13 1_555 1_555
O6 C13 1_555 1_555
S1 O7 1_555 1_555
O8 S1 1_555 1_555
O9 S1 1_555 1_555
O10 S1 1_555 1_555
O11 H27 1_555 1_555
O12 H29 1_555 1_555
H1 N2 1_555 1_555
H2 O6 1_555 1_555
H3 C1 1_555 1_555
H4 C1 1_555 1_555
H5 C2 1_555 1_555
H6 C2 1_555 1_555
H7 C3 1_555 1_555
H8 C3 1_555 1_555
H9 C4 1_555 1_555
H10 C4 1_555 1_555
H11 N4 1_555 1_555
H12 N4 1_555 1_555
H13 C5 1_555 1_555
H14 C5 1_555 1_555
H15 C6 1_555 1_555
H16 C6 1_555 1_555
H17 C7 1_555 1_555
H18 C7 1_555 1_555
H19 C8 1_555 1_555
H20 C8 1_555 1_555
H21 C10 1_555 1_555
H22 C10 1_555 1_555
H23 C12 1_555 1_555
H24 C12 1_555 1_555
H25 C14 1_555 1_555
H26 C14 1_555 1_555
H28 O11 1_555 1_555
H30 O12 1_555 1_555
H31 O4 1_555 1_555
H32 O2 1_555 1_555

#END
