
#######################################################################
#
#                 Cambridge Crystallographic Data Centre
#                                CCDC 
#
#######################################################################
#
# If this CIF has been generated from an entry in the Cambridge 
# Structural Database, then it will include bibliographic, chemical, 
# crystal, experimental, refinement or atomic coordinate data resulting 
# from the CCDC's data processing and validation procedures.
#
#######################################################################

data_POHMOP
_chemical_compound_source        
'endophytic fungus Phomopsis sp. from stem of Azadirachta indica'
_chemical_formula_moiety         'C12 H16 O6'
_chemical_name_systematic        '8alpa-acetoxymultiplolide A'
_chemical_properties_biological  
'antifungal activity against Aspergillus niger, Botyrtis cinerea, Fusarium avenaceum, Fusarium moniliforme, Helminthosporium maydis, Penicilium islandicum and Ophiostoma minus'
_symmetry_cell_setting           orthorhombic
_symmetry_space_group_name_H-M   'P 21 21 21'
_symmetry_Int_Tables_number      19
_space_group_name_Hall           'P 2ac 2ab'
loop_
_symmetry_equiv_pos_site_id
_symmetry_equiv_pos_as_xyz
1 x,y,z
2 1/2-x,-y,1/2+z
3 -x,1/2+y,1/2-z
4 1/2+x,1/2-y,-z
_cell_length_a                   7.5444(7)
_cell_length_b                   9.8302(9)
_cell_length_c                   16.6997(15)
_cell_angle_alpha                90
_cell_angle_beta                 90
_cell_angle_gamma                90
_cell_volume                     1238.5
_exptl_crystal_colour            colorless
_exptl_crystal_description       irregular
_chemical_melting_point          125-127deg.C
_cell_formula_units_Z            4
loop_
_atom_site_label
_atom_site_type_symbol
_atom_site_fract_x
_atom_site_fract_y
_atom_site_fract_z
C1 C 0.4763(2) 0.79527(17) 0.15696(11)
C2 C 0.4500(3) 0.93670(19) 0.12628(12)
H1 H 0.5447 1.0017 0.1385
C3 C 0.2677(3) 0.99200(18) 0.12575(11)
H2 H 0.2542 1.0890 0.1378
C4 C 0.1230(2) 0.90133(15) 0.15094(10)
H3 H 0.0706 0.9156 0.2007
C5 C 0.0643(2) 0.80059(15) 0.10589(9)
H4 H 0.0954 0.8022 0.0520
C6 C -0.0469(2) 0.68477(15) 0.13336(9)
H5 H -0.1561 0.6819 0.1016
C7 C 0.05801(18) 0.55250(14) 0.11989(8)
H6 H 0.0947 0.5470 0.0637
C8 C 0.22168(19) 0.53745(15) 0.17415(8)
H7 H 0.2095 0.6015 0.2180
H8 H 0.2191 0.4469 0.1972
C9 C 0.4042(2) 0.55867(15) 0.13675(9)
H9 H 0.4944 0.5443 0.1781
C10 C 0.4481(2) 0.47020(17) 0.06587(11)
H10 H 0.3698 0.4916 0.0223
H11 H 0.4340 0.3763 0.0803
H12 H 0.5684 0.4863 0.0498
C11 C -0.0426(2) 0.32410(15) 0.10185(9)
C12 C -0.1893(2) 0.22731(17) 0.11834(10)
H13 H -0.2640 0.2204 0.0720
H14 H -0.2578 0.2595 0.1629
H15 H -0.1410 0.1395 0.1308
O1 O 0.41905(15) 0.70006(11) 0.10727(6)
O2 O 0.54092(17) 0.77498(15) 0.22197(9)
O3 O 0.3585(2) 0.95759(13) 0.05307(8)
O4 O -0.09148(14) 0.69623(12) 0.21606(6)
H16 H -0.1970 0.7148 0.2205
O5 O -0.06997(14) 0.44550(10) 0.13664(6)
O6 O 0.08554(18) 0.29927(13) 0.06231(9)
loop_
_geom_bond_atom_site_label_1
_geom_bond_atom_site_label_2
_geom_bond_site_symmetry_1
_geom_bond_site_symmetry_2
C1 C2 1_555 1_555
C2 H1 1_555 1_555
C3 C2 1_555 1_555
H2 C3 1_555 1_555
C4 C3 1_555 1_555
H3 C4 1_555 1_555
C5 C4 1_555 1_555
H4 C5 1_555 1_555
C6 C5 1_555 1_555
H5 C6 1_555 1_555
C7 C6 1_555 1_555
H6 C7 1_555 1_555
C8 C7 1_555 1_555
H7 C8 1_555 1_555
H8 C8 1_555 1_555
C9 C8 1_555 1_555
H9 C9 1_555 1_555
C10 C9 1_555 1_555
H10 C10 1_555 1_555
H11 C10 1_555 1_555
H12 C10 1_555 1_555
C11 C12 1_555 1_555
C12 H13 1_555 1_555
H14 C12 1_555 1_555
H15 C12 1_555 1_555
O1 C1 1_555 1_555
O2 C1 1_555 1_555
O3 C2 1_555 1_555
O4 C6 1_555 1_555
H16 O4 1_555 1_555
O5 C7 1_555 1_555
O6 C11 1_555 1_555
C3 O3 1_555 1_555
C9 O1 1_555 1_555
C11 O5 1_555 1_555

#END
