
#######################################################################
#
#                 Cambridge Crystallographic Data Centre
#                                CCDC 
#
#######################################################################
#
# If this CIF has been generated from an entry in the Cambridge 
# Structural Database, then it will include bibliographic, chemical, 
# crystal, experimental, refinement or atomic coordinate data resulting 
# from the CCDC's data processing and validation procedures.
#
#######################################################################

data_POHNAD
_chemical_formula_moiety         'C19 H17 Cl1 O2'
_chemical_name_systematic        
'ethyl 5-(4-chlorophenyl)-2-phenylpenta-2,4-dienoate'
_symmetry_cell_setting           monoclinic
_symmetry_space_group_name_H-M   'P 21/c'
_symmetry_Int_Tables_number      14
_space_group_name_Hall           '-P 2ybc'
loop_
_symmetry_equiv_pos_site_id
_symmetry_equiv_pos_as_xyz
1 x,y,z
2 -x,1/2+y,1/2-z
3 -x,-y,-z
4 x,1/2-y,1/2+z
_cell_length_a                   8.8531(7)
_cell_length_b                   22.898(3)
_cell_length_c                   8.0376(10)
_cell_angle_alpha                90
_cell_angle_beta                 93.619(10)
_cell_angle_gamma                90
_cell_volume                     1626.12
_exptl_crystal_colour            yellow
_exptl_crystal_description       block
_cell_formula_units_Z            4
loop_
_atom_site_label
_atom_site_type_symbol
_atom_site_fract_x
_atom_site_fract_y
_atom_site_fract_z
Cl1 Cl 1.29395(7) 0.27259(3) 0.74614(11)
O1 O 0.61738(14) 0.49938(7) 0.3430(2)
O2 O 0.42251(13) 0.53302(6) 0.18308(17)
C1 C 0.8533(2) 0.26236(10) 0.6196(3)
H1 H 0.7763 0.2353 0.6303
C2 C 0.9979(3) 0.24909(10) 0.6835(3)
H2 H 1.0179 0.2135 0.7363
C3 C 1.1110(2) 0.28898(10) 0.6680(3)
C4 C 1.0829(2) 0.34214(10) 0.5925(3)
H3 H 1.1604 0.3692 0.5842
C5 C 0.9383(2) 0.35466(9) 0.5292(3)
H4 H 0.9190 0.3905 0.4779
C6 C 0.8202(2) 0.31491(9) 0.5402(2)
C7 C 0.6655(2) 0.32735(10) 0.4744(3)
H5 H 0.5943 0.2979 0.4839
C8 C 0.6172(2) 0.37676(10) 0.4023(3)
H6 H 0.6880 0.4059 0.3866
C9 C 0.4617(2) 0.38793(10) 0.3468(2)
H7 H 0.3962 0.3563 0.3506
C10 C 0.3993(2) 0.43818(9) 0.2906(2)
C11 C 0.2339(2) 0.44176(9) 0.2388(2)
C12 C 0.1680(2) 0.40169(10) 0.1271(3)
H8 H 0.2261 0.3718 0.0858
C13 C 0.0156(2) 0.40610(11) 0.0768(3)
H9 H -0.0277 0.3793 0.0011
C14 C -0.0716(2) 0.44962(11) 0.1379(3)
H10 H -0.1732 0.4528 0.1019
C15 C -0.0088(2) 0.48837(10) 0.2520(3)
H11 H -0.0686 0.5171 0.2966
C16 C 0.1434(2) 0.48482(10) 0.3011(3)
H12 H 0.1856 0.5118 0.3772
C17 C 0.4927(2) 0.49183(9) 0.2779(3)
C18 C 0.5051(2) 0.58694(10) 0.1661(3)
H13 H 0.5919 0.5805 0.1006
H14 H 0.5408 0.6014 0.2750
C19 C 0.4001(3) 0.63020(10) 0.0813(3)
H15 H 0.3678 0.6160 -0.0276
H16 H 0.4516 0.6668 0.0711
H17 H 0.3136 0.6356 0.1458
loop_
_geom_bond_atom_site_label_1
_geom_bond_atom_site_label_2
_geom_bond_site_symmetry_1
_geom_bond_site_symmetry_2
Cl1 C3 1_555 1_555
O1 C17 1_555 1_555
O2 C17 1_555 1_555
C1 H1 1_555 1_555
C2 C1 1_555 1_555
H2 C2 1_555 1_555
C3 C2 1_555 1_555
C4 C3 1_555 1_555
H3 C4 1_555 1_555
C5 C4 1_555 1_555
H4 C5 1_555 1_555
C6 C1 1_555 1_555
C7 C6 1_555 1_555
H5 C7 1_555 1_555
C8 C7 1_555 1_555
H6 C8 1_555 1_555
C9 C8 1_555 1_555
H7 C9 1_555 1_555
C10 C9 1_555 1_555
C11 C10 1_555 1_555
C12 C11 1_555 1_555
H8 C12 1_555 1_555
C13 C12 1_555 1_555
H9 C13 1_555 1_555
C14 C13 1_555 1_555
H10 C14 1_555 1_555
C15 C14 1_555 1_555
H11 C15 1_555 1_555
C16 C11 1_555 1_555
H12 C16 1_555 1_555
C17 C10 1_555 1_555
C18 O2 1_555 1_555
H13 C18 1_555 1_555
H14 C18 1_555 1_555
C19 C18 1_555 1_555
H15 C19 1_555 1_555
H16 C19 1_555 1_555
H17 C19 1_555 1_555
C5 C6 1_555 1_555
C15 C16 1_555 1_555

#END
