
#######################################################################
#
#                 Cambridge Crystallographic Data Centre
#                                CCDC 
#
#######################################################################
#
# If this CIF has been generated from an entry in the Cambridge 
# Structural Database, then it will include bibliographic, chemical, 
# crystal, experimental, refinement or atomic coordinate data resulting 
# from the CCDC's data processing and validation procedures.
#
#######################################################################

data_POHNIL
_chemical_compound_source        'Euonymus carnosus Hemsel (Celastraceae)'
_chemical_formula_moiety         'C30 H50 O3,2.5(C1 H1 Cl3)'
_chemical_name_systematic        '3-hydroxylupan-29-oic acid chloroform solvate'
_chemical_properties_biological  
'neuritis inhibitory activity against microglial inflammation factor'
_symmetry_cell_setting           orthorhombic
_symmetry_space_group_name_H-M   'P 21 21 21'
_symmetry_Int_Tables_number      19
_space_group_name_Hall           'P 2ac 2ab'
loop_
_symmetry_equiv_pos_site_id
_symmetry_equiv_pos_as_xyz
1 x,y,z
2 1/2-x,-y,1/2+z
3 1/2+x,1/2-y,-z
4 -x,1/2+y,1/2-z
_cell_length_a                   10.7324(5)
_cell_length_b                   23.7833(14)
_cell_length_c                   28.8248(12)
_cell_angle_alpha                90
_cell_angle_beta                 90
_cell_angle_gamma                90
_cell_volume                     7357.58
_cell_formula_units_Z            8
loop_
_atom_site_label
_atom_site_type_symbol
_atom_site_fract_x
_atom_site_fract_y
_atom_site_fract_z
Cl1 Cl -0.72942(16) -1.14825(8) -0.23017(6)
Cl2 Cl -0.64330(17) -1.10368(7) -0.14302(6)
Cl3 Cl -0.58723(17) -1.21864(8) -0.16853(8)
C1 C -0.6961(5) -1.1638(2) -0.1720(2)
H1 H -0.7748 -1.1766 -0.1568
Cl4 Cl -0.6600(2) -1.30063(9) -0.40314(9)
Cl5 Cl -0.87569(17) -1.23240(10) -0.41009(9)
Cl6 Cl -0.7388(4) -1.23802(10) -0.32451(7)
C2 C -0.7875(5) -1.2749(2) -0.37326(19)
H2 H -0.8401 -1.3073 -0.3630
O1 O -1.2207(3) -1.03602(12) -0.44579(9)
H3 H -1.1757 -1.0390 -0.4695
C3 C -1.2747(4) -1.13567(17) -0.43007(13)
C4 C -1.3441(4) -1.05475(17) -0.21630(13)
H4 H -1.4130 -1.0439 -0.1953
H5 H -1.2888 -1.0217 -0.2200
O2 O -1.5328(3) -1.01130(14) -0.07491(10)
H6 H -1.5780 -1.0029 -0.0522
C5 C -1.1674(4) -1.12516(17) -0.22839(13)
C6 C -1.0746(4) -1.07791(17) -0.24066(13)
H7 H -1.0291 -1.0666 -0.2127
H8 H -1.1203 -1.0455 -0.2530
H9 H -1.0156 -1.0916 -0.2640
C7 C -1.3048(4) -1.09774(16) -0.29725(12)
H10 H -1.2386 -1.0687 -0.3021
C8 C -1.4267(4) -1.05374(19) -0.41977(14)
H11 H -1.5015 -1.0773 -0.4250
H12 H -1.4456 -1.0153 -0.4309
C9 C -1.2696(4) -1.10312(16) -0.19388(13)
H13 H -1.3292 -1.1348 -0.1885
C10 C -1.1984(4) -1.18604(17) -0.35567(13)
H14 H -1.1330 -1.2016 -0.3762
H15 H -1.2654 -1.2145 -0.3528
O3 O -1.3886(3) -0.96610(15) -0.03364(10)
C11 C -1.1427(4) -1.17423(17) -0.30759(14)
H16 H -1.1112 -1.2099 -0.2943
H17 H -1.0710 -1.1484 -0.3111
C12 C -1.2367(4) -1.14817(16) -0.27369(13)
C13 C -1.1066(4) -1.1147(2) -0.07784(14)
H18 H -1.0342 -1.0893 -0.0816
H19 H -1.0849 -1.1447 -0.0555
C14 C -1.2516(4) -1.13239(17) -0.37718(13)
H20 H -1.1834 -1.1040 -0.3737
C15 C -1.3328(4) -1.00350(18) -0.10902(15)
H21 H -1.3806 -0.9972 -0.1383
C16 C -1.2220(5) -1.0821(2) -0.06175(14)
H22 H -1.1970 -1.0476 -0.0448
H23 H -1.2736 -1.1056 -0.0409
C17 C -1.2966(4) -1.06649(19) -0.10689(13)
H24 H -1.3752 -1.0891 -0.1071
C18 C -1.3705(4) -1.18027(18) -0.44516(14)
H25 H -1.4543 -1.1679 -0.4363
H26 H -1.3516 -1.2161 -0.4299
H27 H -1.3666 -1.1852 -0.4789
C19 C -1.3982(4) -1.07048(18) -0.26376(13)
H28 H -1.4320 -1.0361 -0.2785
H29 H -1.4686 -1.0968 -0.2590
C20 C -1.2343(5) -1.18989(18) -0.11562(14)
H30 H -1.3030 -1.1779 -0.0955
H31 H -1.1880 -1.2203 -0.1005
H32 H -1.2677 -1.2033 -0.1453
C21 C -1.0392(4) -1.15783(18) -0.15651(14)
H33 H -0.9772 -1.1271 -0.1586
H34 H -0.9973 -1.1912 -0.1432
C22 C -1.1460(4) -1.13963(18) -0.12442(14)
C23 C -1.3315(4) -1.19500(17) -0.25972(13)
H35 H -1.4081 -1.1776 -0.2480
H36 H -1.2950 -1.2187 -0.2355
H37 H -1.3511 -1.2181 -0.2869
C24 C -1.3193(4) -1.07741(18) -0.44759(13)
H38 H -1.3467 -1.0814 -0.4806
C25 C -1.2114(4) -1.08840(17) -0.14692(13)
H39 H -1.1463 -1.0591 -0.1526
C26 C -1.1521(4) -1.15006(18) -0.45524(14)
H40 H -1.1331 -1.1900 -0.4509
H41 H -1.0843 -1.1273 -0.4424
H42 H -1.1611 -1.1421 -0.4884
C27 C -1.0867(4) -1.17203(18) -0.20526(13)
H43 H -1.1369 -1.2069 -0.2035
H44 H -1.0141 -1.1798 -0.2254
C28 C -1.4195(4) -0.99122(18) -0.06833(13)
C29 C -1.3603(4) -1.10884(17) -0.34689(13)
C30 C -1.2226(5) -0.9632(2) -0.10880(17)
H45 H -1.1705 -0.9702 -0.1361
H46 H -1.1733 -0.9691 -0.0806
H47 H -1.2531 -0.9244 -0.1095
C31 C -1.3991(4) -1.05152(18) -0.36763(13)
H48 H -1.4743 -1.0379 -0.3512
H49 H -1.3315 -1.0240 -0.3621
C32 C -1.4760(4) -1.14737(19) -0.34557(14)
H50 H -1.5226 -1.1406 -0.3169
H51 H -1.4495 -1.1868 -0.3467
H52 H -1.5294 -1.1392 -0.3723
Cl7 Cl -0.83515(16) -1.42160(7) -0.19263(5)
Cl8 Cl -0.77456(13) -1.38476(6) -0.28498(5)
Cl9 Cl -0.89977(14) -1.30836(6) -0.22169(5)
C33 C -0.7909(5) -1.3633(2) -0.22682(17)
H53 H -0.7083 -1.3494 -0.2156
Cl10 Cl -0.7736(2) -1.11126(8) -0.01670(6)
Cl11 Cl -0.8844(2) -1.21243(8) 0.02000(7)
Cl12 Cl -0.6633(3) -1.21839(13) -0.03706(17)
C34 C -0.7428(10) -1.1792(3) 0.0033(4)
H54 H -0.6891 -1.1760 0.0316
Cl16 Cl -0.45870(18) -1.09609(8) 0.03445(8)
Cl17 Cl -0.2164(2) -1.12657(10) 0.07047(8)
Cl18 Cl -0.4344(3) -1.19418(10) 0.09235(8)
C36 C -0.3862(11) -1.1228(5) 0.0778(4)
H56 H -0.4033 -1.0985 0.1054
C38 C -0.8861(4) -0.95653(18) -0.19017(13)
H58 H -0.9125 -0.9916 -0.1745
H59 H -0.9604 -0.9321 -0.1930
C39 C -0.7286(4) -0.87648(16) -0.18639(13)
O4 O -0.6831(3) -0.97636(14) -0.00833(10)
H60 H -0.6307 -0.9673 0.0120
O5 O -1.0665(3) -1.00793(13) -0.37813(10)
H61 H -1.1179 -1.0239 -0.3957
C40 C -0.7698(4) -0.92350(16) -0.26386(13)
H62 H -0.8305 -0.8920 -0.2683
C41 C -0.7854(4) -0.9365(2) -0.00788(14)
H63 H -0.8109 -0.9302 0.0251
C42 C -0.7463(4) -0.87903(18) -0.02896(14)
C43 C -0.7205(4) -0.93906(16) -0.31160(13)
H64 H -0.6580 -0.9698 -0.3073
C44 C -0.8131(4) -0.95841(18) -0.34998(13)
H65 H -0.8855 -0.9319 -0.3499
C45 C -0.9571(4) -0.87607(18) -0.10999(14)
H66 H -1.0087 -0.8861 -0.1368
H67 H -0.9333 -0.8364 -0.1121
H68 H -1.0044 -0.8823 -0.0814
C46 C -0.7379(4) -0.83803(17) -0.34393(14)
H69 H -0.7699 -0.8243 -0.3142
H70 H -0.8078 -0.8491 -0.3638
H71 H -0.6901 -0.8082 -0.3591
C47 C -0.6633(4) -0.90091(16) -0.23118(13)
C48 C -0.6801(4) -0.83343(17) -0.10655(14)
H72 H -0.7485 -0.8057 -0.1090
H73 H -0.6125 -0.8164 -0.0879
C49 C -0.6314(4) -0.84731(17) -0.15479(13)
H74 H -0.5578 -0.8721 -0.1517
H75 H -0.6037 -0.8121 -0.1699
O6 O -0.9251(3) -1.04872(17) -0.42309(11)
C50 C -0.8399(4) -0.97124(17) -0.23897(14)
H76 H -0.9124 -0.9823 -0.2582
H77 H -0.7840 -1.0043 -0.2368
C51 C -0.8934(4) -0.9634(2) -0.03324(14)
H78 H -0.9690 -0.9403 -0.0284
H79 H -0.9094 -1.0010 -0.0198
C52 C -0.6198(4) -0.91510(19) -0.38246(14)
H80 H -0.5468 -0.9403 -0.3798
H81 H -0.6016 -0.8856 -0.4057
C53 C -0.6210(4) -0.8610(2) -0.00733(13)
H82 H -0.5536 -0.8838 -0.0205
H83 H -0.6240 -0.8665 0.0263
H84 H -0.6057 -0.8212 -0.0141
C54 C -0.5705(4) -0.94899(17) -0.21932(14)
H85 H -0.6170 -0.9825 -0.2097
H86 H -0.5156 -0.9369 -0.1940
H87 H -0.5203 -0.9579 -0.2468
C55 C -0.7892(4) -0.92648(17) -0.15914(13)
H88 H -0.7206 -0.9544 -0.1545
C56 C -0.8649(4) -1.01918(18) -0.34597(14)
H89 H -0.9141 -1.0219 -0.3166
C57 C -0.7663(5) -1.06599(19) -0.34574(17)
H90 H -0.7118 -1.0614 -0.3187
H91 H -0.7166 -1.0638 -0.3742
H92 H -0.8078 -1.1027 -0.3441
C58 C -0.5423(4) -0.87173(18) -0.30560(14)
H93 H -0.4993 -0.8395 -0.3203
H94 H -0.4825 -0.9033 -0.3036
C59 C -0.7376(4) -0.9483(2) -0.39556(13)
H95 H -0.7145 -0.9847 -0.4099
H96 H -0.7882 -0.9267 -0.4181
C60 C -0.8386(4) -0.91302(17) -0.10955(14)
C61 C -0.7282(4) -0.88666(17) -0.08210(13)
H97 H -0.6588 -0.9145 -0.0851
C62 C -0.8430(4) -0.8345(2) -0.01474(15)
H98 H -0.8350 -0.8267 0.0185
H99 H -0.9270 -0.8487 -0.0213
H100 H -0.8286 -0.7999 -0.0324
C63 C -0.5846(4) -0.85507(17) -0.25623(13)
H101 H -0.6344 -0.8201 -0.2582
H102 H -0.5099 -0.8469 -0.2373
C64 C -0.6530(4) -0.88913(17) -0.33553(13)
C65 C -0.8261(4) -0.83169(17) -0.19947(13)
H103 H -0.9048 -0.8502 -0.2075
H104 H -0.7961 -0.8100 -0.2261
H105 H -0.8394 -0.8064 -0.1731
C66 C -0.8700(4) -0.96961(17) -0.08528(13)
H106 H -0.9451 -0.9860 -0.1000
H107 H -0.8002 -0.9962 -0.0901
C67 C -0.9536(4) -1.02735(18) -0.38659(14)
C35? C -0.674(3) -1.147(3) -0.0145(14)
H55? H -0.6479 -1.1109 0.0005
Cl13? Cl -0.8070(19) -1.1382(8) -0.0488(6)
Cl14? Cl -0.720(2) -1.1975(9) 0.0269(6)
Cl15? Cl -0.558(2) -1.1742(8) -0.0507(6)
C37? C -0.3497(15) -1.1552(6) 0.0538(5)
H57? H -0.3322 -1.1794 0.0262
loop_
_geom_bond_atom_site_label_1
_geom_bond_atom_site_label_2
_geom_bond_site_symmetry_1
_geom_bond_site_symmetry_2
Cl1 C1 1_555 1_555
Cl2 C1 1_555 1_555
Cl3 C1 1_555 1_555
C1 H1 1_555 1_555
Cl4 C2 1_555 1_555
Cl5 C2 1_555 1_555
Cl6 C2 1_555 1_555
C2 H2 1_555 1_555
O1 H3 1_555 1_555
C3 C14 1_555 1_555
C4 H4 1_555 1_555
H5 C4 1_555 1_555
O2 H6 1_555 1_555
C5 C6 1_555 1_555
C6 H7 1_555 1_555
H8 C6 1_555 1_555
H9 C6 1_555 1_555
C7 H10 1_555 1_555
C8 H11 1_555 1_555
H12 C8 1_555 1_555
C9 C4 1_555 1_555
H13 C9 1_555 1_555
C10 H14 1_555 1_555
H15 C10 1_555 1_555
O3 C28 1_555 1_555
C11 C10 1_555 1_555
H16 C11 1_555 1_555
H17 C11 1_555 1_555
C12 C5 1_555 1_555
C13 H18 1_555 1_555
H19 C13 1_555 1_555
C14 C10 1_555 1_555
H20 C14 1_555 1_555
C15 H21 1_555 1_555
C16 C13 1_555 1_555
H22 C16 1_555 1_555
H23 C16 1_555 1_555
C17 C15 1_555 1_555
H24 C17 1_555 1_555
C18 C3 1_555 1_555
H25 C18 1_555 1_555
H26 C18 1_555 1_555
H27 C18 1_555 1_555
C19 C4 1_555 1_555
H28 C19 1_555 1_555
H29 C19 1_555 1_555
C20 H30 1_555 1_555
H31 C20 1_555 1_555
H32 C20 1_555 1_555
C21 H33 1_555 1_555
H34 C21 1_555 1_555
C22 C13 1_555 1_555
C23 C12 1_555 1_555
H35 C23 1_555 1_555
H36 C23 1_555 1_555
H37 C23 1_555 1_555
C24 O1 1_555 1_555
H38 C24 1_555 1_555
C25 C9 1_555 1_555
H39 C25 1_555 1_555
C26 C3 1_555 1_555
H40 C26 1_555 1_555
H41 C26 1_555 1_555
H42 C26 1_555 1_555
C27 C5 1_555 1_555
H43 C27 1_555 1_555
H44 C27 1_555 1_555
C28 O2 1_555 1_555
C29 C7 1_555 1_555
C30 C15 1_555 1_555
H45 C30 1_555 1_555
H46 C30 1_555 1_555
H47 C30 1_555 1_555
C31 C8 1_555 1_555
H48 C31 1_555 1_555
H49 C31 1_555 1_555
C32 C29 1_555 1_555
H50 C32 1_555 1_555
H51 C32 1_555 1_555
H52 C32 1_555 1_555
Cl7 C33 1_555 1_555
Cl8 C33 1_555 1_555
Cl9 C33 1_555 1_555
C33 H53 1_555 1_555
Cl10 C34 1_555 1_555
Cl11 C34 1_555 1_555
Cl12 C34 1_555 1_555
C34 H54 1_555 1_555
Cl16 C36 1_555 1_555
Cl17 C36 1_555 1_555
Cl18 C36 1_555 1_555
C36 H56 1_555 1_555
C38 H58 1_555 1_555
H59 C38 1_555 1_555
C39 C47 1_555 1_555
O4 H60 1_555 1_555
O5 H61 1_555 1_555
C40 H62 1_555 1_555
C41 O4 1_555 1_555
H63 C41 1_555 1_555
C42 C41 1_555 1_555
C43 C40 1_555 1_555
H64 C43 1_555 1_555
C44 C43 1_555 1_555
H65 C44 1_555 1_555
C45 H66 1_555 1_555
H67 C45 1_555 1_555
H68 C45 1_555 1_555
C46 H69 1_555 1_555
H70 C46 1_555 1_555
H71 C46 1_555 1_555
C47 C40 1_555 1_555
C48 H72 1_555 1_555
H73 C48 1_555 1_555
C49 C39 1_555 1_555
H74 C49 1_555 1_555
H75 C49 1_555 1_555
O6 C67 1_555 1_555
C50 C38 1_555 1_555
H76 C50 1_555 1_555
H77 C50 1_555 1_555
C51 C41 1_555 1_555
H78 C51 1_555 1_555
H79 C51 1_555 1_555
C52 H80 1_555 1_555
H81 C52 1_555 1_555
C53 C42 1_555 1_555
H82 C53 1_555 1_555
H83 C53 1_555 1_555
H84 C53 1_555 1_555
C54 C47 1_555 1_555
H85 C54 1_555 1_555
H86 C54 1_555 1_555
H87 C54 1_555 1_555
C55 C38 1_555 1_555
H88 C55 1_555 1_555
C56 C44 1_555 1_555
H89 C56 1_555 1_555
C57 C56 1_555 1_555
H90 C57 1_555 1_555
H91 C57 1_555 1_555
H92 C57 1_555 1_555
C58 H93 1_555 1_555
H94 C58 1_555 1_555
C59 C44 1_555 1_555
H95 C59 1_555 1_555
H96 C59 1_555 1_555
C60 C45 1_555 1_555
C61 C42 1_555 1_555
H97 C61 1_555 1_555
C62 C42 1_555 1_555
H98 C62 1_555 1_555
H99 C62 1_555 1_555
H100 C62 1_555 1_555
C63 C47 1_555 1_555
H101 C63 1_555 1_555
H102 C63 1_555 1_555
C64 C43 1_555 1_555
C65 C39 1_555 1_555
H103 C65 1_555 1_555
H104 C65 1_555 1_555
H105 C65 1_555 1_555
C66 C51 1_555 1_555
H106 C66 1_555 1_555
H107 C66 1_555 1_555
C67 O5 1_555 1_555
C3 C24 1_555 1_555
C5 C9 1_555 1_555
C7 C12 1_555 1_555
C7 C19 1_555 1_555
C8 C24 1_555 1_555
C11 C12 1_555 1_555
C14 C29 1_555 1_555
C15 C28 1_555 1_555
C16 C17 1_555 1_555
C17 C25 1_555 1_555
C20 C22 1_555 1_555
C21 C22 1_555 1_555
C21 C27 1_555 1_555
C22 C25 1_555 1_555
C29 C31 1_555 1_555
C39 C55 1_555 1_555
C40 C50 1_555 1_555
C46 C64 1_555 1_555
C48 C49 1_555 1_555
C48 C61 1_555 1_555
C52 C59 1_555 1_555
C52 C64 1_555 1_555
C55 C60 1_555 1_555
C56 C67 1_555 1_555
C58 C63 1_555 1_555
C58 C64 1_555 1_555
C60 C61 1_555 1_555
C60 C66 1_555 1_555

#END
