
#######################################################################
#
#                 Cambridge Crystallographic Data Centre
#                                CCDC 
#
#######################################################################
#
# If this CIF has been generated from an entry in the Cambridge 
# Structural Database, then it will include bibliographic, chemical, 
# crystal, experimental, refinement or atomic coordinate data resulting 
# from the CCDC's data processing and validation procedures.
#
#######################################################################

data_POHNEH
_chemical_compound_source        'Dichapetalum gelonioides'
_chemical_name_common            '22-Deoxydichapetalin P'
_chemical_formula_moiety         'C40 H48 O7'
_chemical_name_systematic        
'3-methyl-7-oxo-8-(2,6,14-trimethyl-3-oxo-9-phenyl-8-oxahexacyclo[16.3.1.0^1,18^.0^2,15^.0^5,14^.0^6,11^]docosa-11,16-dien-19-yl)-1,6-dioxaspiro[4.4]non-3-yl acetate'
_symmetry_cell_setting           orthorhombic
_symmetry_space_group_name_H-M   'P 21 21 21'
_symmetry_Int_Tables_number      19
_space_group_name_Hall           'P 2ac 2ab'
loop_
_symmetry_equiv_pos_site_id
_symmetry_equiv_pos_as_xyz
1 x,y,z
2 1/2+x,1/2-y,-z
3 -x,1/2+y,1/2-z
4 1/2-x,-y,1/2+z
_cell_length_a                   6.2690(13)
_cell_length_b                   10.626(2)
_cell_length_c                   49.544(10)
_cell_angle_alpha                90
_cell_angle_beta                 90
_cell_angle_gamma                90
_cell_volume                     3300.34
_exptl_crystal_colour            colorless
_exptl_crystal_description       needle
_cell_formula_units_Z            4
loop_
_atom_site_label
_atom_site_type_symbol
_atom_site_fract_x
_atom_site_fract_y
_atom_site_fract_z
O1 O 0.8325(3) 0.65141(17) 0.54988(3)
O2 O 0.2359(3) 0.13937(17) 0.23223(3)
C1 C 0.0396(6) 0.2280(3) 0.13753(6)
H1 H 0.0215 0.2237 0.1185
O3 O 0.6817(3) 0.06162(19) 0.35171(4)
O4 O 0.3633(3) 0.44042(18) 0.50289(3)
O5 O 0.5224(3) 0.63146(17) 0.49126(3)
O6 O 0.6537(3) 0.82106(19) 0.56506(4)
O7 O 0.1165(3) 0.31721(18) 0.48402(4)
C2 C 1.0194(5) 0.7882(3) 0.57840(6)
H2 H 1.0066 0.8693 0.5877
H3 H 1.1358 0.7925 0.5652
H4 H 1.0497 0.7220 0.5916
C3 C 0.8144(5) 0.7591(3) 0.56410(5)
C4 C 0.6390(4) 0.6014(2) 0.53706(5)
C5 C 0.7150(4) 0.4954(3) 0.51856(5)
H5 H 0.8639 0.5094 0.5126
H6 H 0.7055 0.4127 0.5277
C6 C 0.5624(4) 0.5025(2) 0.49501(5)
C7 C 0.6257(4) 0.4391(3) 0.46873(5)
H7 H 0.7180 0.3652 0.4721
H8 H 0.7015 0.4984 0.4567
C8 C 0.4116(4) 0.3996(2) 0.45668(5)
H9 H 0.3513 0.4758 0.4476
C9 C 0.4007(4) 0.2922(2) 0.43593(5)
H10 H 0.2587 0.2506 0.4382
C10 C 0.4158(4) 0.3346(2) 0.40650(5)
C11 C 0.5059(4) 0.2261(2) 0.38998(5)
C12 C 0.3878(4) 0.1966(2) 0.36345(5)
C13 C 0.5243(4) 0.1188(3) 0.34425(5)
C14 C 0.4515(5) 0.1125(2) 0.31504(5)
H11 H 0.3184 0.0627 0.3139
H12 H 0.5617 0.0692 0.3041
C15 C 0.4119(4) 0.2453(2) 0.30334(5)
H13 H 0.5476 0.2922 0.3067
C16 C 0.3853(4) 0.2463(2) 0.27207(5)
C17 C 0.2567(5) 0.1339(3) 0.26111(5)
H14 H 0.3289 0.0546 0.2662
H15 H 0.1130 0.1338 0.2694
C18 C 0.1196(4) 0.2481(2) 0.22352(5)
H16 H -0.0246 0.2468 0.2321
C19 C 0.0922(4) 0.2403(3) 0.19343(5)
C20 C 0.2531(5) 0.1944(3) 0.17712(5)
H17 H 0.3832 0.1673 0.1851
C21 C 0.2280(6) 0.1871(3) 0.14938(6)
H18 H 0.3395 0.1542 0.1385
C22 C 0.2754(4) 0.3648(3) 0.26231(5)
C23 C 0.2100(4) 0.4557(3) 0.27885(5)
H19 H 0.1437 0.5274 0.2711
C24 C 0.2341(5) 0.4521(3) 0.30896(5)
H20 H 0.1132 0.4975 0.3174
H21 H 0.3672 0.4961 0.3141
C25 C 0.2408(4) 0.3170(2) 0.31991(5)
C26 C 0.3276(4) 0.3232(2) 0.34938(5)
H22 H 0.4665 0.3688 0.3477
C27 C 0.1974(4) 0.4048(3) 0.36830(5)
H23 H 0.0831 0.4535 0.3613
C28 C 0.2406(4) 0.4094(2) 0.39452(5)
H24 H 0.1570 0.4619 0.4059
C29 C 0.2779(4) 0.3773(3) 0.48171(5)
C30 C 0.5390(4) 0.6959(3) 0.51707(5)
H25 H 0.3961 0.7224 0.5234
H26 H 0.6302 0.7716 0.5154
C31 C 0.4878(5) 0.5550(3) 0.55896(5)
H27 H 0.5609 0.4926 0.5702
H28 H 0.3622 0.5164 0.5506
H29 H 0.4430 0.6261 0.5702
C32 C 0.5711(4) 0.1881(3) 0.43801(5)
H30 H 0.5356 0.1279 0.4526
H31 H 0.7136 0.2245 0.4416
C33 C 0.5649(4) 0.1228(3) 0.41007(5)
H32 H 0.7058 0.0863 0.4056
H33 H 0.4569 0.0548 0.4099
C34 C 0.6362(4) 0.3443(2) 0.39391(5)
H34 H 0.6538 0.4010 0.3782
H35 H 0.7611 0.3397 0.4061
C35 C 0.1890(4) 0.1164(3) 0.37028(6)
H36 H 0.1091 0.0988 0.3537
H37 H 0.0979 0.1626 0.3829
H38 H 0.2342 0.0369 0.3785
C36 C 0.0153(4) 0.2621(3) 0.31756(5)
H39 H -0.0725 0.2930 0.3325
H40 H 0.0227 0.1700 0.3183
H41 H -0.0484 0.2882 0.3004
C37 C 0.2361(4) 0.3680(3) 0.23235(5)
H42 H 0.3737 0.3746 0.2227
H43 H 0.1488 0.4426 0.2277
C38 C 0.6112(4) 0.2407(3) 0.25950(5)
H44 H 0.5996 0.2232 0.2401
H45 H 0.6937 0.1738 0.2682
H46 H 0.6833 0.3216 0.2622
C39 C -0.0976(5) 0.2807(3) 0.18155(6)
H47 H -0.2103 0.3121 0.1925
C40 C -0.1211(6) 0.2750(3) 0.15371(6)
H48 H -0.2497 0.3039 0.1457
loop_
_geom_bond_atom_site_label_1
_geom_bond_atom_site_label_2
_geom_bond_site_symmetry_1
_geom_bond_site_symmetry_2
O1 C3 1_555 1_555
O2 C17 1_555 1_555
C1 H1 1_555 1_555
O3 C13 1_555 1_555
O4 C6 1_555 1_555
O5 C6 1_555 1_555
O6 C3 1_555 1_555
O7 C29 1_555 1_555
C2 H2 1_555 1_555
H3 C2 1_555 1_555
H4 C2 1_555 1_555
C3 C2 1_555 1_555
C4 O1 1_555 1_555
C5 C4 1_555 1_555
H5 C5 1_555 1_555
H6 C5 1_555 1_555
C6 C5 1_555 1_555
C7 C6 1_555 1_555
H7 C7 1_555 1_555
H8 C7 1_555 1_555
C8 C7 1_555 1_555
H9 C8 1_555 1_555
C9 C8 1_555 1_555
H10 C9 1_555 1_555
C10 C9 1_555 1_555
C11 C10 1_555 1_555
C12 C11 1_555 1_555
C13 C12 1_555 1_555
C14 C13 1_555 1_555
H11 C14 1_555 1_555
H12 C14 1_555 1_555
C15 C14 1_555 1_555
H13 C15 1_555 1_555
C16 C15 1_555 1_555
C17 C16 1_555 1_555
H14 C17 1_555 1_555
H15 C17 1_555 1_555
C18 O2 1_555 1_555
H16 C18 1_555 1_555
C19 C18 1_555 1_555
C20 C19 1_555 1_555
H17 C20 1_555 1_555
C21 C1 1_555 1_555
H18 C21 1_555 1_555
C22 C16 1_555 1_555
C23 C22 1_555 1_555
H19 C23 1_555 1_555
C24 C23 1_555 1_555
H20 C24 1_555 1_555
H21 C24 1_555 1_555
C25 C15 1_555 1_555
C26 C12 1_555 1_555
H22 C26 1_555 1_555
C27 C26 1_555 1_555
H23 C27 1_555 1_555
C28 C10 1_555 1_555
H24 C28 1_555 1_555
C29 O4 1_555 1_555
C30 O5 1_555 1_555
H25 C30 1_555 1_555
H26 C30 1_555 1_555
C31 C4 1_555 1_555
H27 C31 1_555 1_555
H28 C31 1_555 1_555
H29 C31 1_555 1_555
C32 C9 1_555 1_555
H30 C32 1_555 1_555
H31 C32 1_555 1_555
C33 C11 1_555 1_555
H32 C33 1_555 1_555
H33 C33 1_555 1_555
C34 C10 1_555 1_555
H34 C34 1_555 1_555
H35 C34 1_555 1_555
C35 C12 1_555 1_555
H36 C35 1_555 1_555
H37 C35 1_555 1_555
H38 C35 1_555 1_555
C36 C25 1_555 1_555
H39 C36 1_555 1_555
H40 C36 1_555 1_555
H41 C36 1_555 1_555
C37 C18 1_555 1_555
H42 C37 1_555 1_555
H43 C37 1_555 1_555
C38 C16 1_555 1_555
H44 C38 1_555 1_555
H45 C38 1_555 1_555
H46 C38 1_555 1_555
C39 C19 1_555 1_555
H47 C39 1_555 1_555
C40 C1 1_555 1_555
H48 C40 1_555 1_555
C4 C30 1_555 1_555
C8 C29 1_555 1_555
C11 C34 1_555 1_555
C20 C21 1_555 1_555
C22 C37 1_555 1_555
C24 C25 1_555 1_555
C25 C26 1_555 1_555
C27 C28 1_555 1_555
C32 C33 1_555 1_555
C39 C40 1_555 1_555

#END
