
#######################################################################
#
#                 Cambridge Crystallographic Data Centre
#                                CCDC 
#
#######################################################################
#
# If this CIF has been generated from an entry in the Cambridge 
# Structural Database, then it will include bibliographic, chemical, 
# crystal, experimental, refinement or atomic coordinate data resulting 
# from the CCDC's data processing and validation procedures.
#
#######################################################################

data_POHXUH
_chemical_formula_moiety         'C23 H16 N2,C4 H8 O2'
_chemical_name_systematic        
'5-methyl-5,10-dihydrobenzo[a]indolo[2,3-c]carbazole ethyl acetate solvate'
_symmetry_cell_setting           monoclinic
_symmetry_space_group_name_H-M   'P 21/n'
_symmetry_Int_Tables_number      14
_space_group_name_Hall           '-P 2yn'
loop_
_symmetry_equiv_pos_site_id
_symmetry_equiv_pos_as_xyz
1 x,y,z
2 1/2-x,1/2+y,1/2-z
3 -x,-y,-z
4 1/2+x,1/2-y,1/2+z
_cell_length_a                   14.769(5)
_cell_length_b                   7.600(2)
_cell_length_c                   18.671(6)
_cell_angle_alpha                90
_cell_angle_beta                 99.369(4)
_cell_angle_gamma                90
_cell_volume                     2067.76
_exptl_crystal_colour            colorless
_exptl_crystal_description       platelet
_cell_formula_units_Z            4
loop_
_atom_site_label
_atom_site_type_symbol
_atom_site_fract_x
_atom_site_fract_y
_atom_site_fract_z
O1 O 0.11792(7) 0.41089(13) 0.29872(5)
O2 O 0.06028(6) 0.43979(13) 0.40151(5)
C1 C 0.21382(10) 0.51977(19) 0.40596(8)
C2 C 0.12767(9) 0.45155(16) 0.36239(7)
C3 C -0.02783(10) 0.3789(3) 0.36331(8)
C4 C -0.09045(13) 0.3622(3) 0.41888(10)
H1 H 0.2048 0.6421 0.4198
H2 H 0.2635 0.5141 0.3770
H3 H 0.2300 0.4480 0.4498
H4 H -0.0208 0.2637 0.3401
H5 H -0.0532 0.4643 0.3252
H6 H -0.0981 0.4776 0.4405
H7 H -0.0637 0.2798 0.4569
H8 H -0.1504 0.3182 0.3955
N1 N 0.44603(6) 0.29735(12) 0.59682(5)
N2 N 0.30837(7) 0.00660(13) 0.33080(5)
C5 C 0.36886(8) 0.28519(14) 0.62907(6)
C6 C 0.35745(9) 0.34026(17) 0.69863(7)
C7 C 0.27402(10) 0.3103(2) 0.71979(7)
C8 C 0.20343(9) 0.2275(2) 0.67370(7)
C9 C 0.21364(9) 0.17673(19) 0.60452(7)
C10 C 0.29748(8) 0.20588(14) 0.58019(6)
C11 C 0.33374(7) 0.17159(14) 0.51432(6)
C12 C 0.42517(7) 0.23121(13) 0.52655(6)
C13 C 0.48443(7) 0.22117(13) 0.47236(6)
C14 C 0.57478(8) 0.29020(16) 0.48002(7)
C15 C 0.62691(8) 0.27121(17) 0.42586(7)
C16 C 0.59228(8) 0.18309(17) 0.36166(7)
C17 C 0.50426(8) 0.11917(15) 0.35095(6)
C18 C 0.44817(7) 0.13890(14) 0.40512(6)
C19 C 0.35519(7) 0.08074(14) 0.39381(6)
C20 C 0.29676(7) 0.09529(14) 0.44549(6)
C21 C 0.20918(8) 0.02451(14) 0.41167(6)
C22 C 0.12290(8) -0.00206(18) 0.43171(7)
C23 C 0.05311(9) -0.07813(19) 0.38350(8)
C24 C 0.06599(8) -0.12896(17) 0.31370(7)
C25 C 0.14953(8) -0.10509(15) 0.29146(6)
C26 C 0.21989(8) -0.02840(14) 0.34030(6)
C27 C 0.53384(8) 0.35784(16) 0.63602(7)
H9 H 0.3297(12) -0.019(2) 0.2887(10)
H10 H 0.4058 0.3965 0.7301
H11 H 0.2644 0.3467 0.7666
H12 H 0.1469 0.2053 0.6902
H13 H 0.1642 0.1223 0.5735
H14 H 0.5997 0.3506 0.5233
H15 H 0.6872 0.3186 0.4322
H16 H 0.6297 0.1673 0.3253
H17 H 0.4807 0.0611 0.3068
H18 H 0.1124 0.0323 0.4786
H19 H -0.0050 -0.0964 0.3980
H20 H 0.0167 -0.1803 0.2815
H21 H 0.1589 -0.1398 0.2443
H22 H 0.5821 0.2745 0.6286
H23 H 0.5306 0.3657 0.6879
H24 H 0.5480 0.4740 0.6179
loop_
_geom_bond_atom_site_label_1
_geom_bond_atom_site_label_2
_geom_bond_site_symmetry_1
_geom_bond_site_symmetry_2
O1 C2 1_555 1_555
O2 C2 1_555 1_555
C1 C2 1_555 1_555
C3 O2 1_555 1_555
C4 C3 1_555 1_555
H1 C1 1_555 1_555
H2 C1 1_555 1_555
H3 C1 1_555 1_555
H4 C3 1_555 1_555
H5 C3 1_555 1_555
H6 C4 1_555 1_555
H7 C4 1_555 1_555
H8 C4 1_555 1_555
N1 C5 1_555 1_555
N2 C19 1_555 1_555
C5 C6 1_555 1_555
C6 C7 1_555 1_555
C7 C8 1_555 1_555
C8 C9 1_555 1_555
C9 C10 1_555 1_555
C10 C5 1_555 1_555
C11 C10 1_555 1_555
C12 N1 1_555 1_555
C13 C12 1_555 1_555
C14 C13 1_555 1_555
C15 C14 1_555 1_555
C16 C15 1_555 1_555
C17 C16 1_555 1_555
C18 C13 1_555 1_555
C19 C18 1_555 1_555
C20 C11 1_555 1_555
C21 C20 1_555 1_555
C22 C21 1_555 1_555
C23 C22 1_555 1_555
C24 C23 1_555 1_555
C25 C24 1_555 1_555
C26 N2 1_555 1_555
C27 N1 1_555 1_555
H9 N2 1_555 1_555
H10 C6 1_555 1_555
H11 C7 1_555 1_555
H12 C8 1_555 1_555
H13 C9 1_555 1_555
H14 C14 1_555 1_555
H15 C15 1_555 1_555
H16 C16 1_555 1_555
H17 C17 1_555 1_555
H18 C22 1_555 1_555
H19 C23 1_555 1_555
H20 C24 1_555 1_555
H21 C25 1_555 1_555
H22 C27 1_555 1_555
H23 C27 1_555 1_555
H24 C27 1_555 1_555
C11 C12 1_555 1_555
C17 C18 1_555 1_555
C19 C20 1_555 1_555
C21 C26 1_555 1_555
C25 C26 1_555 1_555

#END
