
#######################################################################
#
#                 Cambridge Crystallographic Data Centre
#                                CCDC 
#
#######################################################################
#
# If this CIF has been generated from an entry in the Cambridge 
# Structural Database, then it will include bibliographic, chemical, 
# crystal, experimental, refinement or atomic coordinate data resulting 
# from the CCDC's data processing and validation procedures.
#
#######################################################################

data_POJLUX
_chemical_formula_moiety         'C20 H16 N2 O4 S1'
_chemical_name_systematic        
'3-Nitro-2-phenyl-3,4-dihydro-2H-thiopyrano[2,3-b]quinolin-4-yl acetate'
_symmetry_cell_setting           orthorhombic
_symmetry_space_group_name_H-M   'P 21 21 21'
_symmetry_Int_Tables_number      19
_space_group_name_Hall           'P 2ac 2ab'
loop_
_symmetry_equiv_pos_site_id
_symmetry_equiv_pos_as_xyz
1 x,y,z
2 1/2-x,-y,1/2+z
3 -x,1/2+y,1/2-z
4 1/2+x,1/2-y,-z
_cell_length_a                   5.7279(11)
_cell_length_b                   15.570(3)
_cell_length_c                   20.489(4)
_cell_angle_alpha                90
_cell_angle_beta                 90
_cell_angle_gamma                90
_cell_volume                     1827.28
_cell_formula_units_Z            4
loop_
_atom_site_label
_atom_site_type_symbol
_atom_site_fract_x
_atom_site_fract_y
_atom_site_fract_z
S1 S 0.48032(9) 0.05820(3) 0.99604(2)
O1 O 0.7425(2) 0.03072(8) 0.79187(7)
O2 O 0.5322(3) -0.05221(11) 0.72322(7)
O3 O 0.7804(3) -0.15804(9) 0.86456(8)
O4 O 1.1004(2) -0.08699(9) 0.87941(9)
N1 N 0.1774(3) 0.15660(10) 0.93999(8)
N2 N 0.8878(3) -0.09297(11) 0.88005(9)
C1 C 0.0673(3) 0.19910(12) 0.88924(10)
C2 C -0.1246(4) 0.25409(12) 0.90440(12)
H1 H -0.1731 0.2616 0.9484
C3 C -0.2389(4) 0.29613(13) 0.85449(13)
H2 H -0.3681 0.3322 0.8642
C4 C -0.1654(4) 0.28608(14) 0.78892(12)
H3 H -0.2442 0.3164 0.7553
C5 C 0.0168(4) 0.23352(13) 0.77335(11)
H4 H 0.0640 0.2275 0.7291
C6 C 0.1359(4) 0.18780(12) 0.82316(10)
C7 C 0.3170(3) 0.12720(12) 0.81059(11)
H5 H 0.3667 0.1178 0.7669
C8 C 0.4210(3) 0.08207(11) 0.86044(10)
C9 C 0.3451(3) 0.10237(12) 0.92542(10)
C10 C 0.6044(3) -0.04056(12) 0.96269(10)
H6 H 0.4746 -0.0796 0.9491
C11 C 0.7472(3) -0.01570(11) 0.90242(9)
H7 H 0.8543 0.0330 0.9132
C12 C 0.5869(3) 0.00930(12) 0.84543(9)
H8 H 0.4931 -0.0422 0.8327
C13 C 0.7054(4) -0.01107(14) 0.73382(10)
C14 C 0.9033(3) 0.00507(14) 0.68772(11)
H9 H 0.8839 -0.0306 0.6487
H10 H 1.0512 -0.0094 0.7091
H11 H 0.9045 0.0658 0.6751
C15 C 0.7445(3) -0.08364(12) 1.01633(9)
C16 C 0.9437(3) -0.04397(14) 1.04176(10)
H12 H 0.9908 0.0107 1.0259
C17 C 1.0725(4) -0.08430(16) 1.09015(12)
H13 H 1.2086 -0.0574 1.1070
C18 C 1.0036(4) -0.16397(14) 1.11415(10)
H14 H 1.0923 -0.1912 1.1474
C19 C 0.8066(4) -0.20333(14) 1.08967(12)
H15 H 0.7593 -0.2576 1.1063
C20 C 0.6776(4) -0.16406(13) 1.04097(11)
H16 H 0.5427 -0.1918 1.0241
loop_
_geom_bond_atom_site_label_1
_geom_bond_atom_site_label_2
_geom_bond_site_symmetry_1
_geom_bond_site_symmetry_2
S1 C9 1_555 1_555
O1 C12 1_555 1_555
O2 C13 1_555 1_555
O3 N2 1_555 1_555
O4 N2 1_555 1_555
N1 C1 1_555 1_555
N2 C11 1_555 1_555
C1 C2 1_555 1_555
C2 H1 1_555 1_555
C3 C2 1_555 1_555
H2 C3 1_555 1_555
C4 C3 1_555 1_555
H3 C4 1_555 1_555
C5 C4 1_555 1_555
H4 C5 1_555 1_555
C6 C1 1_555 1_555
C7 C6 1_555 1_555
H5 C7 1_555 1_555
C8 C7 1_555 1_555
C9 N1 1_555 1_555
C10 S1 1_555 1_555
H6 C10 1_555 1_555
C11 C10 1_555 1_555
H7 C11 1_555 1_555
C12 C8 1_555 1_555
H8 C12 1_555 1_555
C13 O1 1_555 1_555
C14 C13 1_555 1_555
H9 C14 1_555 1_555
H10 C14 1_555 1_555
H11 C14 1_555 1_555
C15 C10 1_555 1_555
C16 C15 1_555 1_555
H12 C16 1_555 1_555
C17 C16 1_555 1_555
H13 C17 1_555 1_555
C18 C17 1_555 1_555
H14 C18 1_555 1_555
C19 C18 1_555 1_555
H15 C19 1_555 1_555
C20 C15 1_555 1_555
H16 C20 1_555 1_555
C5 C6 1_555 1_555
C8 C9 1_555 1_555
C11 C12 1_555 1_555
C19 C20 1_555 1_555

#END
