
#######################################################################
#
#                 Cambridge Crystallographic Data Centre
#                                CCDC 
#
#######################################################################
#
# If this CIF has been generated from an entry in the Cambridge 
# Structural Database, then it will include bibliographic, chemical, 
# crystal, experimental, refinement or atomic coordinate data resulting 
# from the CCDC's data processing and validation procedures.
#
#######################################################################

data_POJVAM
_chemical_formula_moiety         'C20 H22 N4 O6'
_chemical_name_systematic        
"(S,S)-2-(3'-(1-Methoxycarbonyl-ethylcarbamoyl)-(4,4')-bipyridinyl-3-carbonyl)-amino-propionic acid methyl ester"
_symmetry_cell_setting           orthorhombic
_symmetry_space_group_name_H-M   'P 21 21 21'
_symmetry_Int_Tables_number      19
_space_group_name_Hall           'P 2ac 2ab'
loop_
_symmetry_equiv_pos_site_id
_symmetry_equiv_pos_as_xyz
1 x,y,z
2 1/2-x,-y,1/2+z
3 -x,1/2+y,1/2-z
4 1/2+x,1/2-y,-z
_cell_length_a                   8.709(1)
_cell_length_b                   11.104(1)
_cell_length_c                   21.032(3)
_cell_angle_alpha                90
_cell_angle_beta                 90
_cell_angle_gamma                90
_cell_volume                     2033.89
_exptl_crystal_colour            colorless
_exptl_crystal_description       plates
_cell_formula_units_Z            4
loop_
_atom_site_label
_atom_site_type_symbol
_atom_site_fract_x
_atom_site_fract_y
_atom_site_fract_z
C1 C 0.29388(13) 0.43678(11) 0.06860(5)
C2 C 0.17996(13) 0.40341(11) 0.11180(6)
C3 C 0.10279(14) 0.29579(12) 0.10228(6)
H1 H 0.0237 0.2745 0.1313
N1 N 0.13370(13) 0.22037(10) 0.05446(5)
C4 C 0.24343(15) 0.25296(12) 0.01413(6)
H2 H 0.2675 0.1998 -0.0198
C5 C 0.32482(14) 0.35958(12) 0.01856(6)
H3 H 0.4006 0.3795 -0.0122
C6 C 0.15506(13) 0.47497(11) 0.17095(6)
O1 O 0.26536(10) 0.50098(9) 0.20500(4)
N2 N 0.01103(12) 0.50588(10) 0.18456(5)
H4 H -0.0610(17) 0.4847(14) 0.1589(7)
C7 C -0.02741(14) 0.55560(11) 0.24624(6)
H5 H 0.0513 0.6175 0.2576
C8 C -0.18463(14) 0.61608(12) 0.24491(6)
H6 H -0.1853 0.6793 0.2124
H7 H -0.2062 0.6517 0.2866
H8 H -0.2635 0.5560 0.2349
C9 C -0.02239(15) 0.45627(12) 0.29566(6)
O2 O -0.00085(16) 0.35231(10) 0.28481(5)
O3 O -0.04900(12) 0.50080(9) 0.35307(4)
C10 C -0.0296(2) 0.41981(16) 0.40505(7)
H9 H -0.0868 0.3455 0.3967
H10 H -0.0683 0.4573 0.4441
H11 H 0.0797 0.4010 0.4101
C11 C 0.37352(14) 0.55536(11) 0.07124(5)
C12 C 0.52427(14) 0.57022(11) 0.09211(5)
C13 C 0.59224(16) 0.68248(12) 0.08490(6)
H12 H 0.6954 0.6914 0.0988
N3 N 0.52360(15) 0.77797(10) 0.06011(6)
C14 C 0.37884(17) 0.76258(13) 0.04090(7)
H13 H 0.3266 0.8297 0.0231
C15 C 0.30070(16) 0.65482(12) 0.04546(6)
H14 H 0.1976 0.6489 0.0310
C16 C 0.62000(14) 0.47258(11) 0.12064(6)
O4 O 0.75312(10) 0.45706(8) 0.10217(4)
N4 N 0.55542(12) 0.40926(10) 0.16717(5)
H15 H 0.4648(16) 0.4277(14) 0.1799(7)
C17 C 0.63727(15) 0.31131(12) 0.19815(6)
H16 H 0.7464 0.3371 0.2041
C18 C 0.56966(17) 0.28703(14) 0.26327(6)
H17 H 0.5719 0.3611 0.2886
H18 H 0.6301 0.2246 0.2847
H19 H 0.4633 0.2596 0.2587
C19 C 0.63712(16) 0.19844(12) 0.15760(6)
O5 O 0.74985(13) 0.14210(10) 0.14518(5)
O6 O 0.49595(12) 0.16992(9) 0.13940(6)
C20 C 0.4838(2) 0.06012(14) 0.10278(9)
H20 H 0.5280 0.0729 0.0605
H21 H 0.3755 0.0376 0.0986
H22 H 0.5398 -0.0045 0.1245
loop_
_geom_bond_atom_site_label_1
_geom_bond_atom_site_label_2
_geom_bond_site_symmetry_1
_geom_bond_site_symmetry_2
C1 C2 1_555 1_555
C2 C3 1_555 1_555
C3 H1 1_555 1_555
N1 C3 1_555 1_555
C4 N1 1_555 1_555
H2 C4 1_555 1_555
C5 C1 1_555 1_555
H3 C5 1_555 1_555
C6 C2 1_555 1_555
O1 C6 1_555 1_555
N2 C6 1_555 1_555
H4 N2 1_555 1_555
C7 N2 1_555 1_555
H5 C7 1_555 1_555
C8 C7 1_555 1_555
H6 C8 1_555 1_555
H7 C8 1_555 1_555
H8 C8 1_555 1_555
C9 C7 1_555 1_555
O2 C9 1_555 1_555
O3 C9 1_555 1_555
C10 O3 1_555 1_555
H9 C10 1_555 1_555
H10 C10 1_555 1_555
H11 C10 1_555 1_555
C11 C1 1_555 1_555
C12 C11 1_555 1_555
C13 C12 1_555 1_555
H12 C13 1_555 1_555
N3 C13 1_555 1_555
C14 N3 1_555 1_555
H13 C14 1_555 1_555
C15 C11 1_555 1_555
H14 C15 1_555 1_555
C16 C12 1_555 1_555
O4 C16 1_555 1_555
N4 C16 1_555 1_555
H15 N4 1_555 1_555
C17 N4 1_555 1_555
H16 C17 1_555 1_555
C18 C17 1_555 1_555
H17 C18 1_555 1_555
H18 C18 1_555 1_555
H19 C18 1_555 1_555
C19 C17 1_555 1_555
O5 C19 1_555 1_555
O6 C19 1_555 1_555
C20 O6 1_555 1_555
H20 C20 1_555 1_555
H21 C20 1_555 1_555
H22 C20 1_555 1_555
C4 C5 1_555 1_555
C14 C15 1_555 1_555

#END
