
#######################################################################
#
#                 Cambridge Crystallographic Data Centre
#                                CCDC 
#
#######################################################################
#
# If this CIF has been generated from an entry in the Cambridge 
# Structural Database, then it will include bibliographic, chemical, 
# crystal, experimental, refinement or atomic coordinate data resulting 
# from the CCDC's data processing and validation procedures.
#
#######################################################################

data_POJXUH
_chemical_formula_moiety         'C24 H25 N1'
_chemical_name_systematic        
(pS~a~,pR~b~)-(-)-5-(2-Propylidene)-10-(1,2,3,6-tetrahydro-1-methyl-4-pyridinyl)-5H-dibenzo(a,d)cycloheptene
_chemical_properties_biological  'activity against dopamine and serotonin'
_symmetry_cell_setting           orthorhombic
_symmetry_space_group_name_H-M   'P 21 21 21'
_symmetry_Int_Tables_number      19
_space_group_name_Hall           'P 2ac 2ab'
loop_
_symmetry_equiv_pos_site_id
_symmetry_equiv_pos_as_xyz
1 x,y,z
2 1/2-x,-y,1/2+z
3 1/2+x,1/2-y,-z
4 -x,1/2+y,1/2-z
_cell_length_a                   12.933(2)
_cell_length_b                   18.456(2)
_cell_length_c                   8.008(1)
_cell_angle_alpha                90
_cell_angle_beta                 90
_cell_angle_gamma                90
_cell_volume                     1911.44
_exptl_crystal_colour            'pale yellow'
_chemical_melting_point          '123-124 deg.C'
_cell_formula_units_Z            4
loop_
_atom_site_label
_atom_site_type_symbol
_atom_site_fract_x
_atom_site_fract_y
_atom_site_fract_z
N1 N 0.9086(4) 0.1918(2) 0.5218(6)
C1 C 0.3405(4) -0.0367(3) 0.7507(8)
C2 C 0.3405(5) -0.1019(4) 0.670(1)
C3 C 0.4220(5) -0.1220(3) 0.570(1)
C4 C 0.5056(4) -0.0750(3) 0.5556(8)
C5 C 0.4220(4) 0.0833(3) 0.8182(7)
C6 C 0.4777(4) 0.1009(3) 1.1144(8)
C7 C 0.5499(5) 0.1149(4) 1.2358(7)
C8 C 0.6525(6) 0.1233(3) 1.1889(8)
C9 C 0.6815(4) 0.1141(3) 1.0239(7)
C10 C 0.6457(4) 0.0836(3) 0.7285(6)
C11 C 0.6023(4) 0.0351(3) 0.6211(7)
C12 C 0.2663(5) 0.1245(4) 0.658(1)
C13 C 0.3513(4) 0.1349(3) 0.7832(7)
C14 C 0.3503(5) 0.2074(3) 0.8659(9)
C15 C 0.4229(4) 0.0110(3) 0.7359(7)
C16 C 0.5090(4) -0.0100(3) 0.6415(7)
C17 C 0.5040(4) 0.0939(3) 0.9469(6)
C18 C 0.6089(4) 0.0979(3) 0.8992(6)
C19 C 0.7445(4) 0.1189(3) 0.6761(7)
C20 C 0.7482(4) 0.2004(3) 0.6811(8)
C21 C 0.8600(4) 0.2269(3) 0.6632(8)
C22 C 0.9209(4) 0.1147(3) 0.5547(8)
C23 C 0.8239(4) 0.0816(3) 0.6194(8)
C24 C 1.0082(5) 0.2251(4) 0.486(1)
H1 H 0.2793 -0.0243 0.8213
H2 H 0.2825 -0.1359 0.6774
H3 H 0.4211 -0.1684 0.5089
H4 H 0.5662 -0.0897 0.4860
H5 H 0.4070 0.0923 1.1457
H6 H 0.5321 0.1216 1.3488
H7 H 0.7057 0.1354 1.2679
H8 H 0.7524 0.1196 0.9916
H9 H 0.6365 0.0305 0.5164
H10 H 0.2240 0.1653 0.6483
H11 H 0.2951 0.1125 0.5505
H12 H 0.2233 0.0832 0.6903
H13 H 0.4135 0.2333 0.8487
H14 H 0.2946 0.2370 0.8245
H15 H 0.3403 0.2034 0.9859
H16 H 0.6890 0.2315 0.6960
H17 H 0.8967 0.2161 0.7653
H18 H 0.8599 0.2786 0.6501
H19 H 0.9400 0.0897 0.4549
H20 H 0.9745 0.1065 0.6363
H21 H 0.8450 0.0502 0.7103
H22 H 0.7988 0.0514 0.5316
H23 H 1.0537 0.2220 0.5774
H24 H 1.0390 0.2024 0.3905
H25 H 0.9985 0.2758 0.4583
loop_
_geom_bond_atom_site_label_1
_geom_bond_atom_site_label_2
_geom_bond_site_symmetry_1
_geom_bond_site_symmetry_2
N1 C21 1_555 1_555
C1 C2 1_555 1_555
C2 C3 1_555 1_555
C3 C4 1_555 1_555
C4 C16 1_555 1_555
C5 C13 1_555 1_555
C6 C7 1_555 1_555
C7 C8 1_555 1_555
C8 C9 1_555 1_555
C9 C18 1_555 1_555
C10 C11 1_555 1_555
C11 C16 1_555 1_555
C12 C13 1_555 1_555
C13 C14 1_555 1_555
C14 H13 1_555 1_555
C15 C1 1_555 1_555
C16 C15 1_555 1_555
C17 C5 1_555 1_555
C18 C10 1_555 1_555
C19 C10 1_555 1_555
C20 C19 1_555 1_555
C21 C20 1_555 1_555
C22 N1 1_555 1_555
C23 C19 1_555 1_555
C24 N1 1_555 1_555
H1 C1 1_555 1_555
H2 C2 1_555 1_555
H3 C3 1_555 1_555
H4 C4 1_555 1_555
H5 C6 1_555 1_555
H6 C7 1_555 1_555
H7 C8 1_555 1_555
H8 C9 1_555 1_555
H9 C11 1_555 1_555
H10 C12 1_555 1_555
H11 C12 1_555 1_555
H12 C12 1_555 1_555
H14 C14 1_555 1_555
H15 C14 1_555 1_555
H16 C20 1_555 1_555
H17 C21 1_555 1_555
H18 C21 1_555 1_555
H19 C22 1_555 1_555
H20 C22 1_555 1_555
H21 C23 1_555 1_555
H22 C23 1_555 1_555
H23 C24 1_555 1_555
H24 C24 1_555 1_555
H25 C24 1_555 1_555
C5 C15 1_555 1_555
C6 C17 1_555 1_555
C17 C18 1_555 1_555
C22 C23 1_555 1_555

#END
