
#######################################################################
#
#                 Cambridge Crystallographic Data Centre
#                                CCDC 
#
#######################################################################
#
# If this CIF has been generated from an entry in the Cambridge 
# Structural Database, then it will include bibliographic, chemical, 
# crystal, experimental, refinement or atomic coordinate data resulting 
# from the CCDC's data processing and validation procedures.
#
#######################################################################

data_POJYAQ
_chemical_formula_moiety         'C20 H18 F3 N1 O3 S1'
_chemical_name_systematic        
3-(3-(Benzylsulfanyl)-4,4,4-trifluoro-3-phenylbutanoyl)-1,3-oxazolidin-2-one
_symmetry_cell_setting           monoclinic
_symmetry_space_group_name_H-M   'P 21'
_symmetry_Int_Tables_number      4
_space_group_name_Hall           'P 2yb'
loop_
_symmetry_equiv_pos_site_id
_symmetry_equiv_pos_as_xyz
1 x,y,z
2 -x,1/2+y,-z
_cell_length_a                   7.8833(3)
_cell_length_b                   22.9403(7)
_cell_length_c                   10.4534(3)
_cell_angle_alpha                90
_cell_angle_beta                 91.776(3)
_cell_angle_gamma                90
_cell_volume                     1889.54
_cell_formula_units_Z            4
loop_
_atom_site_label
_atom_site_type_symbol
_atom_site_fract_x
_atom_site_fract_y
_atom_site_fract_z
S1 S 1.15275(15) 0.34853(5) 0.84125(9)
F1 F 1.2244(4) 0.47722(13) 0.9144(2)
F2 F 0.9822(4) 0.49558(13) 0.9921(3)
F3 F 1.1399(3) 0.42917(13) 1.0750(2)
O1 O 0.7861(5) 0.35843(15) 0.6732(3)
O2 O 0.9536(4) 0.51967(12) 0.5461(3)
O3 O 0.8892(4) 0.48065(14) 0.3568(3)
N1 N 0.8437(4) 0.42622(14) 0.5277(3)
C1 C 0.6977(6) 0.4075(2) 0.9498(5)
H1 H 0.6773 0.4404 0.8995
C2 C 0.5700(7) 0.3854(3) 1.0261(5)
H2 H 0.4642 0.4034 1.0266
C3 C 0.6018(7) 0.3370(2) 1.1002(5)
H3 H 0.5163 0.3222 1.1502
C4 C 0.7567(7) 0.3101(2) 1.1021(5)
H4 H 0.7772 0.2774 1.1529
C5 C 0.8825(6) 0.33267(18) 1.0265(4)
H5 H 0.9889 0.3151 1.0277
C6 C 0.8528(5) 0.38076(17) 0.9494(3)
C7 C 1.0003(5) 0.40757(16) 0.8740(3)
C8 C 0.9468(6) 0.44063(17) 0.7516(4)
H6 H 0.8751 0.4731 0.7747
H7 H 1.0476 0.4566 0.7138
C9 C 0.8523(6) 0.40398(18) 0.6516(4)
C10 C 0.9025(5) 0.47945(17) 0.4845(3)
C11 C 0.7724(7) 0.3906(2) 0.4234(4)
H8 H 0.6503 0.3868 0.4288
H9 H 0.8235 0.3522 0.4223
C12 C 0.8204(7) 0.4263(2) 0.3078(4)
H10 H 0.9043 0.4059 0.2589
H11 H 0.7213 0.4336 0.2527
C13 C 1.0878(6) 0.45204(18) 0.9633(4)
C14 C 1.3062(7) 0.3776(2) 0.7317(4)
H12 H 1.3143 0.4194 0.7453
H13 H 1.4163 0.3610 0.7541
C15 C 1.2702(6) 0.36701(19) 0.5907(4)
C16 C 1.2897(6) 0.4116(2) 0.5039(4)
H14 H 1.3192 0.4487 0.5329
C17 C 1.2657(6) 0.4016(2) 0.3740(4)
H15 H 1.2780 0.4320 0.3162
C18 C 1.2237(7) 0.3468(2) 0.3306(4)
H16 H 1.2096 0.3399 0.2432
C19 C 1.2028(9) 0.3024(2) 0.4159(5)
H17 H 1.1737 0.2653 0.3868
C20 C 1.2249(8) 0.3128(2) 0.5459(5)
H18 H 1.2087 0.2826 0.6036
S2 S 0.33517(14) 0.68281(4) 0.64091(9)
F4 F 0.2751(3) 0.55136(12) 0.7000(2)
F5 F 0.5203(4) 0.53449(11) 0.7855(3)
F6 F 0.3595(3) 0.59806(12) 0.8678(2)
O4 O 0.6967(5) 0.67506(13) 0.4748(3)
O5 O 0.5114(5) 0.51493(14) 0.3450(3)
O6 O 0.6249(5) 0.54540(14) 0.1642(3)
N2 N 0.6458(4) 0.60457(14) 0.3314(3)
C21 C 0.8019(5) 0.6264(2) 0.7476(4)
H19 H 0.8250 0.5964 0.6907
C22 C 0.9276(6) 0.6478(2) 0.8286(5)
H20 H 1.0351 0.6312 0.8268
C23 C 0.9003(6) 0.6929(2) 0.9121(5)
H21 H 0.9882 0.7071 0.9648
C24 C 0.7412(6) 0.71647(19) 0.9162(4)
H22 H 0.7196 0.7466 0.9729
C25 C 0.6127(5) 0.69549(17) 0.8363(4)
H23 H 0.5056 0.7123 0.8394
C26 C 0.6381(5) 0.65028(16) 0.7519(3)
C27 C 0.4923(5) 0.62385(15) 0.6720(3)
C28 C 0.5409(5) 0.59237(16) 0.5483(3)
H24 H 0.6118 0.5592 0.5714
H25 H 0.4381 0.5773 0.5070
C29 C 0.6323(5) 0.62857(16) 0.4533(4)
C30 C 0.5866(6) 0.55148(18) 0.2873(4)
C31 C 0.7302(6) 0.6367(2) 0.2316(4)
H26 H 0.8473 0.6452 0.2561
H27 H 0.6714 0.6728 0.2109
C32 C 0.7186(9) 0.5941(3) 0.1222(5)
H28 H 0.6617 0.6119 0.0485
H29 H 0.8312 0.5821 0.0982
C33 C 0.4087(5) 0.57712(18) 0.7569(3)
C34 C 0.1745(6) 0.6548(2) 0.5272(4)
H30 H 0.1573 0.6137 0.5450
H31 H 0.0683 0.6747 0.5419
C35 C 0.2144(6) 0.66112(19) 0.3878(4)
C36 C 0.2630(8) 0.7142(2) 0.3384(5)
H32 H 0.2753 0.7461 0.3927
C37 C 0.2937(9) 0.7206(3) 0.2100(5)
H33 H 0.3246 0.7567 0.1778
C38 C 0.2783(7) 0.6735(3) 0.1303(5)
H34 H 0.3005 0.6776 0.0439
C39 C 0.2307(7) 0.6205(3) 0.1767(5)
H35 H 0.2194 0.5887 0.1219
C40 C 0.1993(6) 0.6143(2) 0.3053(5)
H36 H 0.1676 0.5781 0.3366
loop_
_geom_bond_atom_site_label_1
_geom_bond_atom_site_label_2
_geom_bond_site_symmetry_1
_geom_bond_site_symmetry_2
S1 C7 1_555 1_555
F1 C13 1_555 1_555
F2 C13 1_555 1_555
F3 C13 1_555 1_555
O1 C9 1_555 1_555
O2 C10 1_555 1_555
O3 C10 1_555 1_555
N1 C9 1_555 1_555
C1 H1 1_555 1_555
C2 C1 1_555 1_555
H2 C2 1_555 1_555
C3 C2 1_555 1_555
H3 C3 1_555 1_555
C4 C3 1_555 1_555
H4 C4 1_555 1_555
C5 C4 1_555 1_555
H5 C5 1_555 1_555
C6 C1 1_555 1_555
C7 C6 1_555 1_555
C8 C7 1_555 1_555
H6 C8 1_555 1_555
H7 C8 1_555 1_555
C9 C8 1_555 1_555
C10 N1 1_555 1_555
C11 N1 1_555 1_555
H8 C11 1_555 1_555
H9 C11 1_555 1_555
C12 O3 1_555 1_555
H10 C12 1_555 1_555
H11 C12 1_555 1_555
C13 C7 1_555 1_555
C14 S1 1_555 1_555
H12 C14 1_555 1_555
H13 C14 1_555 1_555
C15 C14 1_555 1_555
C16 C15 1_555 1_555
H14 C16 1_555 1_555
C17 C16 1_555 1_555
H15 C17 1_555 1_555
C18 C17 1_555 1_555
H16 C18 1_555 1_555
C19 C18 1_555 1_555
H17 C19 1_555 1_555
C20 C15 1_555 1_555
H18 C20 1_555 1_555
S2 C27 1_555 1_555
F4 C33 1_555 1_555
F5 C33 1_555 1_555
F6 C33 1_555 1_555
O4 C29 1_555 1_555
O5 C30 1_555 1_555
O6 C30 1_555 1_555
N2 C29 1_555 1_555
C21 H19 1_555 1_555
C22 C21 1_555 1_555
H20 C22 1_555 1_555
C23 C22 1_555 1_555
H21 C23 1_555 1_555
C24 C23 1_555 1_555
H22 C24 1_555 1_555
C25 C24 1_555 1_555
H23 C25 1_555 1_555
C26 C21 1_555 1_555
C27 C26 1_555 1_555
C28 C27 1_555 1_555
H24 C28 1_555 1_555
H25 C28 1_555 1_555
C29 C28 1_555 1_555
C30 N2 1_555 1_555
C31 N2 1_555 1_555
H26 C31 1_555 1_555
H27 C31 1_555 1_555
C32 O6 1_555 1_555
H28 C32 1_555 1_555
H29 C32 1_555 1_555
C33 C27 1_555 1_555
C34 S2 1_555 1_555
H30 C34 1_555 1_555
H31 C34 1_555 1_555
C35 C34 1_555 1_555
C36 C35 1_555 1_555
H32 C36 1_555 1_555
C37 C36 1_555 1_555
H33 C37 1_555 1_555
C38 C37 1_555 1_555
H34 C38 1_555 1_555
C39 C38 1_555 1_555
H35 C39 1_555 1_555
C40 C35 1_555 1_555
H36 C40 1_555 1_555
C5 C6 1_555 1_555
C11 C12 1_555 1_555
C19 C20 1_555 1_555
C25 C26 1_555 1_555
C31 C32 1_555 1_555
C39 C40 1_555 1_555

#END
