
#######################################################################
#
#                 Cambridge Crystallographic Data Centre
#                                CCDC 
#
#######################################################################
#
# If this CIF has been generated from an entry in the Cambridge 
# Structural Database, then it will include bibliographic, chemical, 
# crystal, experimental, refinement or atomic coordinate data resulting 
# from the CCDC's data processing and validation procedures.
#
#######################################################################

data_POJZIZ
_chemical_formula_moiety         'C27 H19 N1 O2'
_chemical_name_systematic        
9-ethyl-4,5-diphenylbenzo[4,5]chromeno[7,6-d][1,3]oxazole
_symmetry_cell_setting           triclinic
_symmetry_space_group_name_H-M   'P -1'
_symmetry_Int_Tables_number      2
_space_group_name_Hall           '-P 1'
loop_
_symmetry_equiv_pos_site_id
_symmetry_equiv_pos_as_xyz
1 x,y,z
2 -x,-y,-z
_cell_length_a                   5.7246(10)
_cell_length_b                   10.9332(18)
_cell_length_c                   16.289(3)
_cell_angle_alpha                77.753(4)
_cell_angle_beta                 86.780(4)
_cell_angle_gamma                80.766(4)
_cell_volume                     983.128
_exptl_crystal_colour            brown
_exptl_crystal_description       prismatic
_cell_formula_units_Z            2
loop_
_atom_site_label
_atom_site_type_symbol
_atom_site_fract_x
_atom_site_fract_y
_atom_site_fract_z
N1 N 0.1949(6) 1.1206(3) 0.45415(16)
O1 O 0.5968(3) 0.81635(15) 0.29461(9)
O2 O -0.1041(4) 1.17990(17) 0.36473(12)
C1 C 0.6045(4) 0.7623(2) 0.22485(13)
C2 C 0.4471(4) 0.80536(19) 0.16293(13)
C3 C 0.2505(4) 0.90511(19) 0.17249(13)
C4 C 0.2376(4) 0.95501(19) 0.24647(13)
C5 C 0.4193(5) 0.9132(2) 0.30543(14)
C6 C 0.4288(6) 0.9614(3) 0.37621(16)
H1 H 0.5532 0.9342 0.4133
C7 C 0.2388(6) 1.0542(3) 0.38903(16)
C8 C 0.0594(5) 1.0918(2) 0.33470(16)
C9 C 0.0445(5) 1.0470(2) 0.26055(14)
C10 C -0.1366(5) 1.0871(2) 0.20150(16)
H2 H -0.2667 1.1456 0.2110
C11 C -0.1198(4) 1.0395(2) 0.13026(15)
H3 H -0.2388 1.0666 0.0910
C12 C 0.0729(4) 0.9508(2) 0.11512(14)
H4 H 0.0818 0.9218 0.0652
C13 C -0.0049(8) 1.1909(3) 0.43669(19)
C14 C 0.4669(4) 0.75674(19) 0.08340(13)
C15 C 0.3017(4) 0.68612(19) 0.06518(14)
H5 H 0.1780 0.6682 0.1031
C16 C 0.3211(4) 0.6428(2) -0.00871(15)
H6 H 0.2114 0.5947 -0.0201
C17 C 0.5011(5) 0.6700(2) -0.06578(15)
H7 H 0.5141 0.6402 -0.1155
C18 C 0.6612(4) 0.7414(2) -0.04884(15)
H8 H 0.7827 0.7605 -0.0874
C19 C 0.6435(4) 0.7848(2) 0.02465(14)
H9 H 0.7526 0.8339 0.0350
C20 C 0.7980(4) 0.6538(2) 0.23444(13)
C21 C 0.7864(4) 0.5471(2) 0.20183(15)
H10 H 0.6570 0.5450 0.1704
C22 C 0.9641(5) 0.4448(2) 0.21565(16)
H11 H 0.9539 0.3742 0.1935
C23 C 1.1559(5) 0.4461(3) 0.26186(17)
H12 H 1.2756 0.3767 0.2711
C24 C 1.1707(5) 0.5503(3) 0.29449(17)
H13 H 1.3010 0.5515 0.3258
C25 C 0.9927(4) 0.6536(2) 0.28104(15)
H14 H 1.0040 0.7237 0.3036
C26 C -0.115(3) 1.2914(10) 0.4932(9)
H15 H -0.1326 1.2503 0.5516
H16 H -0.0173 1.3574 0.4894
C27 C -0.3353(15) 1.3396(8) 0.4561(5)
H17 H -0.3125 1.3926 0.4021
H18 H -0.4318 1.3884 0.4915
H19 H -0.4125 1.2707 0.4494
C28? C -0.152(5) 1.2663(15) 0.4841(13)
H20? H -0.0847 1.2497 0.5394
H21? H -0.3034 1.2356 0.4915
C29? C -0.201(3) 1.4003(12) 0.4565(10)
H22? H -0.0709 1.4376 0.4702
H23? H -0.3428 1.4328 0.4839
H24? H -0.2207 1.4208 0.3968
loop_
_geom_bond_atom_site_label_1
_geom_bond_atom_site_label_2
_geom_bond_site_symmetry_1
_geom_bond_site_symmetry_2
N1 C7 1_555 1_555
O1 C1 1_555 1_555
O2 C8 1_555 1_555
C1 C2 1_555 1_555
C2 C3 1_555 1_555
C3 C4 1_555 1_555
C4 C5 1_555 1_555
C5 O1 1_555 1_555
C6 C5 1_555 1_555
H1 C6 1_555 1_555
C7 C6 1_555 1_555
C8 C7 1_555 1_555
C9 C4 1_555 1_555
C10 C9 1_555 1_555
H2 C10 1_555 1_555
C11 C10 1_555 1_555
H3 C11 1_555 1_555
C12 C3 1_555 1_555
H4 C12 1_555 1_555
C13 N1 1_555 1_555
C14 C2 1_555 1_555
C15 C14 1_555 1_555
H5 C15 1_555 1_555
C16 C15 1_555 1_555
H6 C16 1_555 1_555
C17 C16 1_555 1_555
H7 C17 1_555 1_555
C18 C17 1_555 1_555
H8 C18 1_555 1_555
C19 C14 1_555 1_555
H9 C19 1_555 1_555
C20 C1 1_555 1_555
C21 C20 1_555 1_555
H10 C21 1_555 1_555
C22 C21 1_555 1_555
H11 C22 1_555 1_555
C23 C22 1_555 1_555
H12 C23 1_555 1_555
C24 C23 1_555 1_555
H13 C24 1_555 1_555
C25 C20 1_555 1_555
H14 C25 1_555 1_555
C26 C13 1_555 1_555
H15 C26 1_555 1_555
H16 C26 1_555 1_555
C27 C26 1_555 1_555
H17 C27 1_555 1_555
H18 C27 1_555 1_555
H19 C27 1_555 1_555
O2 C13 1_555 1_555
C8 C9 1_555 1_555
C11 C12 1_555 1_555
C18 C19 1_555 1_555
C24 C25 1_555 1_555

#END
