
#######################################################################
#
#                 Cambridge Crystallographic Data Centre
#                                CCDC 
#
#######################################################################
#
# If this CIF has been generated from an entry in the Cambridge 
# Structural Database, then it will include bibliographic, chemical, 
# crystal, experimental, refinement or atomic coordinate data resulting 
# from the CCDC's data processing and validation procedures.
#
#######################################################################

data_POKBEY
_chemical_formula_moiety         'C26 H37 O3 P1'
_chemical_name_systematic        
'2-Isopropyl-5-methylcyclohexyl (5-t-butyl-2-hydroxyphenyl)phenylphosphinate'
_symmetry_cell_setting           orthorhombic
_symmetry_space_group_name_H-M   'P 21 21 21'
_symmetry_Int_Tables_number      19
_space_group_name_Hall           'P 2ac 2ab'
loop_
_symmetry_equiv_pos_site_id
_symmetry_equiv_pos_as_xyz
1 x,y,z
2 1/2+x,1/2-y,-z
3 -x,1/2+y,1/2-z
4 1/2-x,-y,1/2+z
_cell_length_a                   8.7387(9)
_cell_length_b                   11.4703(12)
_cell_length_c                   25.473(3)
_cell_angle_alpha                90
_cell_angle_beta                 90
_cell_angle_gamma                90
_cell_volume                     2553.3
_exptl_crystal_colour            colorless
_exptl_crystal_description       needle
_cell_formula_units_Z            4
loop_
_atom_site_label
_atom_site_type_symbol
_atom_site_fract_x
_atom_site_fract_y
_atom_site_fract_z
C1 C 0.46194(15) 0.89285(11) 0.14463(5)
H1 H 0.5327 0.9603 0.1501
C2 C 0.30505(16) 0.92402(14) 0.16640(6)
H2 H 0.3139 0.9422 0.2043
H3 H 0.2354 0.8565 0.1625
C3 C 0.23858(18) 1.02886(14) 0.13748(6)
H4 H 0.3082 1.0968 0.1433
C4 C 0.2335(2) 1.00343(15) 0.07862(6)
H5 H 0.1597 0.9397 0.0719
H6 H 0.1970 1.0736 0.0598
C5 C 0.38981(19) 0.96862(14) 0.05726(6)
H7 H 0.4608 1.0355 0.0606
H8 H 0.3802 0.9498 0.0195
C6 C 0.45739(16) 0.86289(12) 0.08627(5)
H9 H 0.3837 0.7969 0.0819
C7 C 0.0795(2) 1.06112(19) 0.15860(8)
H10 H 0.0096 0.9952 0.1537
H11 H 0.0404 1.1290 0.1395
H12 H 0.0870 1.0798 0.1961
C8 C 0.61278(17) 0.82158(14) 0.06486(6)
H13 H 0.6423 0.7510 0.0855
C9 C 0.7411(2) 0.91023(19) 0.07175(8)
H14 H 0.8373 0.8770 0.0589
H15 H 0.7515 0.9298 0.1090
H16 H 0.7169 0.9809 0.0518
C10 C 0.6009(2) 0.78345(17) 0.00727(7)
H17 H 0.5767 0.8512 -0.0147
H18 H 0.5198 0.7250 0.0037
H19 H 0.6986 0.7498 -0.0040
C11 C 0.53453(14) 0.77455(11) 0.27940(5)
C12 C 0.56651(17) 0.84526(12) 0.32312(6)
H20 H 0.6412 0.9050 0.3198
C13 C 0.4928(2) 0.83102(13) 0.37124(6)
C14 C 0.3815(2) 0.74427(13) 0.37407(6)
H21 H 0.3278 0.7334 0.4061
C15 C 0.34654(17) 0.67354(12) 0.33181(6)
H22 H 0.2687 0.6161 0.3350
C16 C 0.42531(14) 0.68618(11) 0.28441(5)
C17 C 0.5295(3) 0.90593(16) 0.41947(7)
C18 C 0.5860(4) 0.8294(2) 0.46291(9)
H23 H 0.6873 0.7988 0.4538
H24 H 0.5146 0.7645 0.4680
H25 H 0.5931 0.8749 0.4954
C19 C 0.3763(4) 0.9637(2) 0.43946(9)
H26 H 0.3020 0.9026 0.4480
H27 H 0.3343 1.0140 0.4119
H28 H 0.3973 1.0104 0.4709
C20 C 0.6332(3) 1.0071(2) 0.40673(8)
H29 H 0.6473 1.0552 0.4381
H30 H 0.5871 1.0542 0.3788
H31 H 0.7327 0.9776 0.3950
C21 C 0.77512(15) 0.68971(12) 0.20776(5)
C22 C 0.73203(17) 0.57451(13) 0.19861(6)
H32 H 0.6267 0.5540 0.1980
C23 C 0.8428(2) 0.48965(15) 0.19037(7)
H33 H 0.8134 0.4109 0.1848
C24 C 0.9959(2) 0.52007(17) 0.19031(8)
H34 H 1.0715 0.4618 0.1848
C25 C 1.0397(2) 0.63389(18) 0.19820(8)
H35 H 1.1451 0.6541 0.1973
C26 C 0.93033(17) 0.71933(15) 0.20744(7)
H36 H 0.9609 0.7977 0.2135
O1 O 0.52244(11) 0.79143(8) 0.17256(4)
O2 O 0.71742(11) 0.91799(8) 0.22331(4)
O3 O 0.39907(12) 0.61487(9) 0.24319(4)
H37 H 0.356(3) 0.5633(19) 0.2502(8)
P1 P 0.63858(4) 0.80295(3) 0.219829(12)
loop_
_geom_bond_atom_site_label_1
_geom_bond_atom_site_label_2
_geom_bond_site_symmetry_1
_geom_bond_site_symmetry_2
C1 H1 1_555 1_555
C2 C1 1_555 1_555
H2 C2 1_555 1_555
H3 C2 1_555 1_555
C3 C2 1_555 1_555
H4 C3 1_555 1_555
C4 C3 1_555 1_555
H5 C4 1_555 1_555
H6 C4 1_555 1_555
C5 C4 1_555 1_555
H7 C5 1_555 1_555
H8 C5 1_555 1_555
C6 C1 1_555 1_555
H9 C6 1_555 1_555
C7 C3 1_555 1_555
H10 C7 1_555 1_555
H11 C7 1_555 1_555
H12 C7 1_555 1_555
C8 C6 1_555 1_555
H13 C8 1_555 1_555
C9 C8 1_555 1_555
H14 C9 1_555 1_555
H15 C9 1_555 1_555
H16 C9 1_555 1_555
C10 C8 1_555 1_555
H17 C10 1_555 1_555
H18 C10 1_555 1_555
H19 C10 1_555 1_555
C11 C12 1_555 1_555
C12 H20 1_555 1_555
C13 C12 1_555 1_555
C14 C13 1_555 1_555
H21 C14 1_555 1_555
C15 C14 1_555 1_555
H22 C15 1_555 1_555
C16 C11 1_555 1_555
C17 C13 1_555 1_555
C18 C17 1_555 1_555
H23 C18 1_555 1_555
H24 C18 1_555 1_555
H25 C18 1_555 1_555
C19 C17 1_555 1_555
H26 C19 1_555 1_555
H27 C19 1_555 1_555
H28 C19 1_555 1_555
C20 C17 1_555 1_555
H29 C20 1_555 1_555
H30 C20 1_555 1_555
H31 C20 1_555 1_555
C21 C22 1_555 1_555
C22 H32 1_555 1_555
C23 C22 1_555 1_555
H33 C23 1_555 1_555
C24 C23 1_555 1_555
H34 C24 1_555 1_555
C25 C24 1_555 1_555
H35 C25 1_555 1_555
C26 C21 1_555 1_555
H36 C26 1_555 1_555
O1 C1 1_555 1_555
O2 P1 1_555 1_555
O3 C16 1_555 1_555
H37 O3 1_555 1_555
P1 C11 1_555 1_555
C5 C6 1_555 1_555
C15 C16 1_555 1_555
C21 P1 1_555 1_555
C25 C26 1_555 1_555
O1 P1 1_555 1_555

#END
