
#######################################################################
#
#                 Cambridge Crystallographic Data Centre
#                                CCDC 
#
#######################################################################
#
# If this CIF has been generated from an entry in the Cambridge 
# Structural Database, then it will include bibliographic, chemical, 
# crystal, experimental, refinement or atomic coordinate data resulting 
# from the CCDC's data processing and validation procedures.
#
#######################################################################

data_POKBIC
_chemical_formula_moiety         'C6 H18 N2 2+,2(C6 H4 N1 O3 1-)'
_chemical_name_systematic        
"N,N,N',N'-Tetramethylethane-1,2-diaminium bis(4-nitrophenolate)"
_symmetry_cell_setting           monoclinic
_symmetry_space_group_name_H-M   'C 2/c'
_symmetry_Int_Tables_number      15
_space_group_name_Hall           '-C 2yn'
loop_
_symmetry_equiv_pos_site_id
_symmetry_equiv_pos_as_xyz
1 x,y,z
2 -x,y,1/2-z
3 1/2+x,1/2+y,z
4 1/2-x,1/2+y,1/2-z
5 -x,-y,-z
6 x,-y,1/2+z
7 1/2-x,1/2-y,-z
8 1/2+x,1/2-y,1/2+z
_cell_length_a                   23.051(5)
_cell_length_b                   5.624(5)
_cell_length_c                   17.451(5)
_cell_angle_alpha                90
_cell_angle_beta                 121.026(5)
_cell_angle_gamma                90
_cell_volume                     1938.66
_exptl_crystal_colour            yellow
_exptl_crystal_description       block
_cell_formula_units_Z            4
loop_
_atom_site_label
_atom_site_type_symbol
_atom_site_fract_x
_atom_site_fract_y
_atom_site_fract_z
C1 C 0.78959(6) 0.2165(3) 0.62553(8)
C2 C 0.76234(7) 0.3663(3) 0.66131(10)
H1 H 0.7849 0.5051 0.6904
C3 C 0.70165(7) 0.3093(2) 0.65375(10)
H2 H 0.6834 0.4104 0.6781
C4 C 0.66678(6) 0.1017(2) 0.61007(8)
C5 C 0.69708(7) -0.0493(3) 0.57672(10)
H3 H 0.6757 -0.1908 0.5490
C6 C 0.75757(7) 0.0073(3) 0.58420(10)
H4 H 0.7769 -0.0946 0.5616
N1 N 0.85248(6) 0.2791(3) 0.63195(8)
O1 O 0.87979(7) 0.4660(3) 0.66854(10)
O2 O 0.87696(6) 0.1439(3) 0.60114(9)
O3 O 0.60842(5) 0.04438(18) 0.60072(7)
C7 C 0.94424(8) 0.0101(3) 0.82223(9)
H5 H 0.9156 -0.0680 0.7661
H6 H 0.9790 0.0966 0.8194
H7 H 0.9177 0.1182 0.8344
C8 C 1.02037(6) -0.0631(2) 0.98334(8)
H8 H 1.0510 0.0490 0.9801
H9 H 1.0473 -0.1876 1.0251
C9 C 1.01494(7) -0.3388(3) 0.87418(10)
H10 H 1.0350 -0.4559 0.9208
H11 H 1.0499 -0.2554 0.8708
H12 H 0.9855 -0.4160 0.8181
N2 N 0.97549(5) -0.16832(18) 0.89386(6)
H13 H 0.9419(8) -0.261(3) 0.8964(13)
C7D C 1.05576(8) -0.0101(3) 1.17777(9)
H5D H 1.0844 0.0680 1.2339
H6D H 1.0210 -0.0966 1.1806
H7D H 1.0823 -0.1182 1.1656
C8D C 0.97963(6) 0.0631(2) 1.01666(8)
H8D H 0.9490 -0.0490 1.0199
H9D H 0.9527 0.1876 0.9749
C9D C 0.98506(7) 0.3388(3) 1.12582(10)
H10D H 0.9650 0.4559 1.0792
H11D H 0.9501 0.2554 1.1292
H12D H 1.0145 0.4160 1.1819
N2D N 1.02451(5) 0.16832(18) 1.10614(6)
H13D H 1.0581(8) 0.261(3) 1.1036(13)
loop_
_geom_bond_atom_site_label_1
_geom_bond_atom_site_label_2
_geom_bond_site_symmetry_1
_geom_bond_site_symmetry_2
C1 C2 1_555 1_555
C2 H1 1_555 1_555
C3 C2 1_555 1_555
H2 C3 1_555 1_555
C4 C3 1_555 1_555
C5 C4 1_555 1_555
H3 C5 1_555 1_555
C6 C1 1_555 1_555
H4 C6 1_555 1_555
N1 C1 1_555 1_555
O1 N1 1_555 1_555
O2 N1 1_555 1_555
O3 C4 1_555 1_555
C7 H5 1_555 1_555
H6 C7 1_555 1_555
H7 C7 1_555 1_555
C8 H8 1_555 1_555
H9 C8 1_555 1_555
C9 H10 1_555 1_555
H11 C9 1_555 1_555
H12 C9 1_555 1_555
N2 C7 1_555 1_555
H13 N2 1_555 1_555
C7D H5D 1_555 1_555
H6D C7D 1_555 1_555
H7D C7D 1_555 1_555
C8D C8 1_555 1_555
H8D C8D 1_555 1_555
H9D C8D 1_555 1_555
C9D H10D 1_555 1_555
H11D C9D 1_555 1_555
H12D C9D 1_555 1_555
N2D C7D 1_555 1_555
H13D N2D 1_555 1_555
C5 C6 1_555 1_555
C8 N2 1_555 1_555
C9 N2 1_555 1_555
C8D N2D 1_555 1_555
C9D N2D 1_555 1_555

#END
