
#######################################################################
#
#                 Cambridge Crystallographic Data Centre
#                                CCDC 
#
#######################################################################
#
# If this CIF has been generated from an entry in the Cambridge 
# Structural Database, then it will include bibliographic, chemical, 
# crystal, experimental, refinement or atomic coordinate data resulting 
# from the CCDC's data processing and validation procedures.
#
#######################################################################

data_POKFEA
_chemical_formula_moiety         'C24 H26 N1 1+,C20 H17 O8 1-,2(C1 H4 O1)'
_chemical_name_systematic        
"(+)-(pS~a~,pR~b~)-5-(2-Propylidene)-10-(1,2,3,6-tetrahydro-1-methylpyridinium-4-yl)-5H-dibenzo(a,d)cycloheptene hydrogen (2S,3S)-O,O'-di-p-toluoyltartrate methanol solvate"
_symmetry_cell_setting           orthorhombic
_symmetry_space_group_name_H-M   'P 21 21 21'
_symmetry_Int_Tables_number      19
_space_group_name_Hall           'P 2ac 2ab'
loop_
_symmetry_equiv_pos_site_id
_symmetry_equiv_pos_as_xyz
1 x,y,z
2 1/2-x,-y,1/2+z
3 1/2+x,1/2-y,-z
4 -x,1/2+y,1/2-z
_cell_length_a                   13.400(2)
_cell_length_b                   30.090(2)
_cell_length_c                   10.259(2)
_cell_angle_alpha                90
_cell_angle_beta                 90
_cell_angle_gamma                90
_cell_volume                     4136.49
_exptl_crystal_colour            colorless
_chemical_melting_point          '123-124 deg.C'
_cell_formula_units_Z            4
loop_
_atom_site_label
_atom_site_type_symbol
_atom_site_fract_x
_atom_site_fract_y
_atom_site_fract_z
N1 N 0.2006 0.1319 0.5083
C1 C 0.4850 -0.0120 0.7981
C2 C 0.5242 -0.0039 0.9242
C3 C 0.5896 -0.0314 0.9783
C4 C 0.6186 -0.0696 0.9071
C5 C 0.5838 -0.0771 0.7838
C6 C 0.5198 -0.0485 0.7318
C7 C 0.5371 -0.0563 0.4876
C8 C 0.3707 -0.0646 0.5917
C9 C 0.3363 -0.1070 0.5637
C10 C 0.2379 -0.1175 0.5673
C11 C 0.1685 -0.0849 0.6046
C12 C 0.2028 -0.0424 0.6319
C13 C 0.3040 -0.0321 0.6279
C14 C 0.3386 0.0134 0.6685
C15 C 0.4172 0.0210 0.7462
C16 C 0.4823 -0.0563 0.5979
C17 C 0.4959 -0.0632 0.3502
C18 C 0.6439 -0.0455 0.4915
C19 C 0.2765 0.0523 0.6189
C20 C 0.2314 0.0514 0.4966
C21 C 0.1701 0.0885 0.4496
C22 C 0.2073 0.1280 0.6543
C23 C 0.2722 0.0916 0.6974
C24 C 0.2941 0.1498 0.4482
H1 H 0.1489 0.1525 0.4898
H2 H 0.5033 0.0218 0.9709
H3 H 0.6162 -0.0257 1.0625
H4 H 0.6631 -0.0904 0.9456
H5 H 0.6051 -0.1024 0.7360
H6 H 0.3831 -0.1294 0.5413
H7 H 0.2162 -0.1466 0.5450
H8 H 0.0995 -0.0917 0.6110
H9 H 0.1562 -0.0198 0.6538
H10 H 0.4296 0.0510 0.7696
H11 H 0.4267 -0.0698 0.3550
H12 H 0.5055 -0.0369 0.3005
H13 H 0.5301 -0.0871 0.3097
H14 H 0.6775 -0.0662 0.5461
H15 H 0.6708 -0.0470 0.4059
H16 H 0.6526 -0.0163 0.5250
H17 H 0.2405 0.0261 0.4424
H18 H 0.1024 0.0828 0.4715
H19 H 0.1766 0.0904 0.3576
H20 H 0.2328 0.1552 0.6880
H21 H 0.1421 0.1231 0.6879
H22 H 0.3471 0.1293 0.4614
H23 H 0.2840 0.1540 0.3574
H24 H 0.3105 0.1774 0.4877
H41 H 0.2504 0.0829 0.7817
H42 H 0.3381 0.1031 0.7029
O1 O 0.1967 0.2359 0.6225
O2 O 0.1826 0.3088 0.6596
O3 O 0.3971 0.2386 0.6254
O4 O 0.3693 0.2316 0.8396
O5 O 0.3125 0.2772 0.3969
O6 O 0.3380 0.3325 0.2571
O7 O 0.5139 0.2723 0.3844
O8 O 0.5322 0.3246 0.5361
C25 C 0.2326 0.2753 0.6378
C26 C 0.3448 0.2794 0.6236
C27 C 0.4096 0.2179 0.7429
C28 C 0.4799 0.1808 0.7321
C29 C 0.5268 0.1700 0.6181
C30 C 0.5912 0.1347 0.6118
C31 C 0.6123 0.1092 0.7206
C32 C 0.5672 0.1206 0.8328
C33 C 0.5005 0.1551 0.8407
C34 C 0.6813 0.0709 0.7164
C35 C 0.3685 0.3003 0.4929
C36 C 0.2982 0.2981 0.2817
C37 C 0.2290 0.2735 0.1988
C38 C 0.2162 0.2838 0.0638
C39 C 0.1460 0.2615 -0.0090
C40 C 0.0879 0.2297 0.0381
C41 C 0.0975 0.2179 0.1692
C42 C 0.1668 0.2394 0.2460
C43 C 0.0147 0.2098 -0.0472
C44 C 0.4842 0.2992 0.4671
H25 H 0.3696 0.2980 0.6911
H26 H 0.5146 0.1873 0.5421
H27 H 0.6220 0.1276 0.5311
H28 H 0.5821 0.1042 0.9095
H29 H 0.4684 0.1614 0.9212
H30 H 0.6466 0.0447 0.7410
H31 H 0.7066 0.0676 0.6305
H32 H 0.7350 0.0759 0.7750
H33 H 0.3472 0.3304 0.4943
H34 H 0.2562 0.3061 0.0243
H35 H 0.1388 0.2693 -0.0983
H36 H 0.0566 0.1952 0.2052
H37 H 0.1728 0.2308 0.3348
H38 H -0.0303 0.2321 -0.0767
H39 H 0.0474 0.1968 -0.1198
H40 H -0.0212 0.1876 -0.0011
loop_
_geom_bond_atom_site_label_1
_geom_bond_atom_site_label_2
_geom_bond_site_symmetry_1
_geom_bond_site_symmetry_2
O1 C25 1_555 1_555
O2 C25 1_555 1_555
O3 C26 1_555 1_555
O4 C27 1_555 1_555
O5 C35 1_555 1_555
O6 C36 1_555 1_555
O7 C44 1_555 1_555
O8 C44 1_555 1_555
N1 C21 1_555 1_555
C1 C2 1_555 1_555
C2 C3 1_555 1_555
C3 C4 1_555 1_555
C4 C5 1_555 1_555
C5 C6 1_555 1_555
C6 C1 1_555 1_555
C7 C16 1_555 1_555
C8 C9 1_555 1_555
C9 C10 1_555 1_555
C10 C11 1_555 1_555
C11 C12 1_555 1_555
C12 C13 1_555 1_555
C13 C8 1_555 1_555
C14 C13 1_555 1_555
C15 C1 1_555 1_555
C16 C6 1_555 1_555
C17 C7 1_555 1_555
C18 C7 1_555 1_555
C19 C14 1_555 1_555
C20 C19 1_555 1_555
C21 C20 1_555 1_555
C22 N1 1_555 1_555
C23 C19 1_555 1_555
C24 N1 1_555 1_555
C25 C26 1_555 1_555
C26 C35 1_555 1_555
C27 O3 1_555 1_555
C28 C27 1_555 1_555
C29 C28 1_555 1_555
C30 C29 1_555 1_555
C31 C30 1_555 1_555
C32 C31 1_555 1_555
C33 C28 1_555 1_555
C34 C31 1_555 1_555
C35 C44 1_555 1_555
C36 O5 1_555 1_555
C37 C36 1_555 1_555
C38 C37 1_555 1_555
C39 C38 1_555 1_555
C40 C39 1_555 1_555
C41 C40 1_555 1_555
C42 C37 1_555 1_555
C43 C40 1_555 1_555
H1 N1 1_555 1_555
H2 C2 1_555 1_555
H3 C3 1_555 1_555
H4 C4 1_555 1_555
H5 C5 1_555 1_555
H6 C9 1_555 1_555
H7 C10 1_555 1_555
H8 C11 1_555 1_555
H9 C12 1_555 1_555
H10 C15 1_555 1_555
H11 C17 1_555 1_555
H12 C17 1_555 1_555
H13 C17 1_555 1_555
H14 C18 1_555 1_555
H15 C18 1_555 1_555
H16 C18 1_555 1_555
H17 C20 1_555 1_555
H18 C21 1_555 1_555
H19 C21 1_555 1_555
H20 C22 1_555 1_555
H21 C22 1_555 1_555
H22 C24 1_555 1_555
H23 C24 1_555 1_555
H24 C24 1_555 1_555
H25 C26 1_555 1_555
H26 C29 1_555 1_555
H27 C30 1_555 1_555
H28 C32 1_555 1_555
H29 C33 1_555 1_555
H30 C34 1_555 1_555
H31 C34 1_555 1_555
H32 C34 1_555 1_555
H33 C35 1_555 1_555
H34 C38 1_555 1_555
H35 C39 1_555 1_555
H36 C41 1_555 1_555
H37 C42 1_555 1_555
H38 C43 1_555 1_555
H39 C43 1_555 1_555
H40 C43 1_555 1_555
H41 C23 1_555 1_555
H42 C23 1_555 1_555
C8 C16 1_555 1_555
C14 C15 1_555 1_555
C22 C23 1_555 1_555
C32 C33 1_555 1_555
C41 C42 1_555 1_555

#END
