
#######################################################################
#
#                 Cambridge Crystallographic Data Centre
#                                CCDC 
#
#######################################################################
#
# If this CIF has been generated from an entry in the Cambridge 
# Structural Database, then it will include bibliographic, chemical, 
# crystal, experimental, refinement or atomic coordinate data resulting 
# from the CCDC's data processing and validation procedures.
#
#######################################################################

data_POKKAD02
_chemical_formula_moiety         'C7 H11 N1 O4,H2 O1'
_chemical_name_systematic        '1-acetyl-4-hydroxyproline monohydrate'
_symmetry_cell_setting           orthorhombic
_symmetry_space_group_name_H-M   'P 21 21 21'
_symmetry_Int_Tables_number      19
_space_group_name_Hall           'P 2ac 2ab'
loop_
_symmetry_equiv_pos_site_id
_symmetry_equiv_pos_as_xyz
1 x,y,z
2 1/2+x,1/2-y,-z
3 -x,1/2+y,1/2-z
4 1/2-x,-y,1/2+z
_cell_length_a                   9.9408(2)
_cell_length_b                   9.2479(2)
_cell_length_c                   10.1875(2)
_cell_angle_alpha                90
_cell_angle_beta                 90
_cell_angle_gamma                90
_cell_volume                     936.552
_exptl_crystal_colour            colorless
_exptl_crystal_description       block
_cell_formula_units_Z            4
loop_
_atom_site_label
_atom_site_type_symbol
_atom_site_fract_x
_atom_site_fract_y
_atom_site_fract_z
O1 O 0.5797(2) 1.1141(4) 0.7699(2)
C1 C 0.69597(18) 1.0771(3) 0.75893(16)
O2 O 0.7928(2) 1.1189(3) 0.8371(2)
H1 H 0.7568(5) 1.1889(7) 0.9048(4)
C2 C 0.73788(17) 0.9652(3) 0.65729(18)
N1 N 0.87699(12) 0.97883(19) 0.61308(12)
C3 C 0.9517(2) 0.8425(3) 0.6239(2)
C4 C 0.8393(2) 0.7301(3) 0.63734(17)
C5 C 0.7327(2) 0.8118(3) 0.7161(2)
H2 H 0.7610(7) 0.8137(7) 0.8190(4)
H3 H 0.6317(6) 0.7636(7) 0.7066(6)
O3 O 0.7835(2) 0.6947(4) 0.5130(2)
H4 H 0.8321(5) 0.6090(7) 0.4755(4)
H5 H 0.8741(6) 0.6325(7) 0.6874(5)
H6 H 1.0148(6) 0.8433(8) 0.7131(6)
H7 H 1.0147(5) 0.8229(8) 0.5380(6)
C6 C 0.91879(18) 1.1017(3) 0.55664(17)
O4 O 0.8403(2) 1.2056(4) 0.5481(2)
C7 C 1.06006(19) 1.1067(4) 0.5052(2)
H8 H 1.1307(6) 1.0634(11) 0.5768(7)
H9 H 1.0877(7) 1.2161(10) 0.4830(10)
H10 H 1.0688(7) 1.0429(12) 0.4183(7)
H11 H 0.6689(4) 0.9769(6) 0.5736(4)
O5 O 0.8988(3) 0.4604(4) 0.4294(3)
H12 H 0.9573(5) 0.4405(7) 0.3577(5)
H13 H 0.8800(5) 0.3694(7) 0.4734(5)
loop_
_geom_bond_atom_site_label_1
_geom_bond_atom_site_label_2
_geom_bond_site_symmetry_1
_geom_bond_site_symmetry_2
O1 C1 1_555 1_555
C1 O2 1_555 1_555
O2 H1 1_555 1_555
C2 C1 1_555 1_555
N1 C2 1_555 1_555
C3 N1 1_555 1_555
C4 C3 1_555 1_555
C5 C2 1_555 1_555
H2 C5 1_555 1_555
H3 C5 1_555 1_555
O3 C4 1_555 1_555
H4 O3 1_555 1_555
H5 C4 1_555 1_555
H6 C3 1_555 1_555
H7 C3 1_555 1_555
C6 N1 1_555 1_555
O4 C6 1_555 1_555
C7 C6 1_555 1_555
H8 C7 1_555 1_555
H9 C7 1_555 1_555
H10 C7 1_555 1_555
H11 C2 1_555 1_555
O5 H12 1_555 1_555
H13 O5 1_555 1_555
C4 C5 1_555 1_555

#END
