
#######################################################################
#
#                 Cambridge Crystallographic Data Centre
#                                CCDC 
#
#######################################################################
#
# If this CIF has been generated from an entry in the Cambridge 
# Structural Database, then it will include bibliographic, chemical, 
# crystal, experimental, refinement or atomic coordinate data resulting 
# from the CCDC's data processing and validation procedures.
#
#######################################################################

data_POKKAD03
_chemical_formula_moiety         'C7 H11 N1 O4,H2 O1'
_chemical_name_systematic        '1-acetyl-4-hydroxyproline monohydrate'
_symmetry_cell_setting           orthorhombic
_symmetry_space_group_name_H-M   'P 21 21 21'
_symmetry_Int_Tables_number      19
_space_group_name_Hall           'P 2ac 2ab'
loop_
_symmetry_equiv_pos_site_id
_symmetry_equiv_pos_as_xyz
1 x,y,z
2 1/2+x,1/2-y,-z
3 -x,1/2+y,1/2-z
4 1/2-x,-y,1/2+z
_cell_length_a                   9.9748(2)
_cell_length_b                   9.2492(2)
_cell_length_c                   10.2103(2)
_cell_angle_alpha                90
_cell_angle_beta                 90
_cell_angle_gamma                90
_cell_volume                     941.991
_exptl_crystal_colour            colorless
_exptl_crystal_description       block
_cell_formula_units_Z            4
loop_
_atom_site_label
_atom_site_type_symbol
_atom_site_fract_x
_atom_site_fract_y
_atom_site_fract_z
O1 O 0.5800(2) 1.1141(4) 0.7682(2)
C1 C 0.69631(18) 1.0771(3) 0.75768(17)
O2 O 0.7927(2) 1.1192(4) 0.8354(2)
H1 H 0.7562(5) 1.1883(7) 0.9034(4)
C2 C 0.73750(18) 0.9655(3) 0.65604(18)
N1 N 0.87619(13) 0.9782(2) 0.61209(13)
C3 C 0.9508(2) 0.8423(3) 0.6240(2)
C4 C 0.8378(3) 0.7305(3) 0.63651(19)
C5 C 0.7319(2) 0.8124(3) 0.7138(2)
H2 H 0.7586(8) 0.8150(9) 0.8181(5)
H3 H 0.6321(7) 0.7652(8) 0.7042(7)
O3 O 0.7838(3) 0.6944(4) 0.5124(2)
H4 H 0.8314(5) 0.6097(8) 0.4759(5)
H5 H 0.8715(7) 0.6328(8) 0.6854(6)
H6 H 1.0119(7) 0.8439(9) 0.7134(8)
H7 H 1.0129(6) 0.8236(8) 0.5381(7)
C6 C 0.91787(19) 1.1012(3) 0.55540(18)
O4 O 0.8402(3) 1.2042(4) 0.5465(3)
C7 C 1.0591(2) 1.1073(4) 0.5054(2)
H8 H 0.6687(4) 0.9782(6) 0.5726(4)
H9 H 1.0575(14) 1.077(2) 0.4042(15)
H10 H 1.0944(14) 1.2165(19) 0.5069(15)
H11 H 1.1301(15) 1.037(2) 0.5664(16)
O5 O 0.8991(4) 0.4604(5) 0.4294(4)
H15 H 0.9576(5) 0.4417(8) 0.3581(6)
H16 H 0.8816(6) 0.3697(9) 0.4721(6)
H12? H 1.0761(11) 1.0170(18) 0.4294(11)
H13? H 1.0805(16) 1.211(2) 0.4617(17)
H14? H 1.1285(14) 1.090(2) 0.5828(14)
loop_
_geom_bond_atom_site_label_1
_geom_bond_atom_site_label_2
_geom_bond_site_symmetry_1
_geom_bond_site_symmetry_2
O1 C1 1_555 1_555
C1 O2 1_555 1_555
O2 H1 1_555 1_555
C2 C1 1_555 1_555
N1 C2 1_555 1_555
C3 N1 1_555 1_555
C4 C3 1_555 1_555
C5 C2 1_555 1_555
H2 C5 1_555 1_555
H3 C5 1_555 1_555
O3 C4 1_555 1_555
H4 O3 1_555 1_555
H5 C4 1_555 1_555
H6 C3 1_555 1_555
H7 C3 1_555 1_555
C6 N1 1_555 1_555
O4 C6 1_555 1_555
C7 C6 1_555 1_555
H8 C2 1_555 1_555
H9 C7 1_555 1_555
H10 C7 1_555 1_555
H11 C7 1_555 1_555
O5 H15 1_555 1_555
H16 O5 1_555 1_555
C4 C5 1_555 1_555

#END
