
#######################################################################
#
#                 Cambridge Crystallographic Data Centre
#                                CCDC 
#
#######################################################################
#
# If this CIF has been generated from an entry in the Cambridge 
# Structural Database, then it will include bibliographic, chemical, 
# crystal, experimental, refinement or atomic coordinate data resulting 
# from the CCDC's data processing and validation procedures.
#
#######################################################################

data_POKKAD06
_chemical_formula_moiety         'C7 H11 N1 O4,H2 O1'
_chemical_name_systematic        '1-acetyl-4-hydroxyproline hydrate'
_symmetry_cell_setting           orthorhombic
_symmetry_space_group_name_H-M   'P 21 21 21'
_symmetry_Int_Tables_number      19
_space_group_name_Hall           'P 2ac 2ab'
loop_
_symmetry_equiv_pos_site_id
_symmetry_equiv_pos_as_xyz
1 x,y,z
2 1/2-x,-y,1/2+z
3 1/2+x,1/2-y,-z
4 -x,1/2+y,1/2-z
_cell_length_a                   9.853(4)
_cell_length_b                   9.251(5)
_cell_length_c                   10.145(2)
_cell_angle_alpha                90
_cell_angle_beta                 90
_cell_angle_gamma                90
_cell_volume                     924.718
_cell_formula_units_Z            4
loop_
_atom_site_label
_atom_site_type_symbol
_atom_site_fract_x
_atom_site_fract_y
_atom_site_fract_z
O1 O 0.57872(3) 1.11458(3) 0.77171(3)
O2 O 0.79412(3) 1.11865(3) 0.84035(3)
O3 O 0.84069(3) 1.20549(3) 0.55082(3)
O4 O 0.78354(3) 0.69400(3) 0.51505(3)
N1 N 0.87822(3) 0.97790(3) 0.61456(3)
C1 C 0.69679(3) 1.07608(4) 0.76130(3)
C2 C 0.73845(3) 0.96431(4) 0.66005(3)
C3 C 0.73466(4) 0.81107(4) 0.71973(4)
C4 C 0.84123(4) 0.73017(4) 0.63953(3)
C5 C 0.95430(4) 0.84211(4) 0.62491(4)
C6 C 0.91994(3) 1.10144(4) 0.55820(3)
C7 C 1.06211(4) 1.10715(4) 0.50526(4)
H1 H 0.75767 1.18278 0.90588
H2 H 0.83095 0.61272 0.47825
H3 H 0.66927 0.96962 0.57496
H4 H 0.76104 0.81281 0.82445
H5 H 0.63438 0.76204 0.70793
H6 H 0.87698 0.63339 0.69172
H7 H 1.02150 0.84234 0.71141
H8 H 1.01502 0.82211 0.53585
H9 H 1.13257 1.06822 0.58030
H10 H 1.08757 1.21837 0.47929
H11 H 1.06959 1.03893 0.41780
O5 O 0.90008(4) 0.45962(3) 0.43048(4)
H12 H 0.88244 0.36853 0.47285
H13 H 0.95559 0.43947 0.35470
loop_
_geom_bond_atom_site_label_1
_geom_bond_atom_site_label_2
_geom_bond_site_symmetry_1
_geom_bond_site_symmetry_2
O1 C1 1_555 1_555
O2 C1 1_555 1_555
O3 C6 1_555 1_555
O4 C4 1_555 1_555
N1 C2 1_555 1_555
C1 C2 1_555 1_555
C2 C3 1_555 1_555
C3 C4 1_555 1_555
C4 C5 1_555 1_555
C5 N1 1_555 1_555
C6 N1 1_555 1_555
C7 C6 1_555 1_555
H1 O2 1_555 1_555
H2 O4 1_555 1_555
H3 C2 1_555 1_555
H4 C3 1_555 1_555
H5 C3 1_555 1_555
H6 C4 1_555 1_555
H7 C5 1_555 1_555
H8 C5 1_555 1_555
H9 C7 1_555 1_555
H10 C7 1_555 1_555
H11 C7 1_555 1_555
O5 H12 1_555 1_555
H13 O5 1_555 1_555

#END
