
#######################################################################
#
#                 Cambridge Crystallographic Data Centre
#                                CCDC 
#
#######################################################################
#
# If this CIF has been generated from an entry in the Cambridge 
# Structural Database, then it will include bibliographic, chemical, 
# crystal, experimental, refinement or atomic coordinate data resulting 
# from the CCDC's data processing and validation procedures.
#
#######################################################################

data_POKKAD11
_chemical_formula_moiety         'C7 H11 N1 O4,H2 O1'
_chemical_name_systematic        '1-acetyl-4-hydroxyproline hydrate'
_symmetry_cell_setting           orthorhombic
_symmetry_space_group_name_H-M   'P 21 21 21'
_symmetry_Int_Tables_number      19
_space_group_name_Hall           'P 2ac 2ab'
loop_
_symmetry_equiv_pos_site_id
_symmetry_equiv_pos_as_xyz
1 x,y,z
2 1/2-x,-y,1/2+z
3 1/2+x,1/2-y,-z
4 -x,1/2+y,1/2-z
_cell_length_a                   9.9748(2)
_cell_length_b                   9.2492(2)
_cell_length_c                   10.2103(2)
_cell_angle_alpha                90
_cell_angle_beta                 90
_cell_angle_gamma                90
_cell_volume                     941.991
_cell_formula_units_Z            4
loop_
_atom_site_label
_atom_site_type_symbol
_atom_site_fract_x
_atom_site_fract_y
_atom_site_fract_z
O1 O 0.57995(5) 1.11413(7) 0.76832(6)
O2 O 0.79246(5) 1.11887(6) 0.83585(5)
O3 O 0.83997(6) 1.20478(6) 0.54676(6)
O4 O 0.78359(6) 0.69501(5) 0.51184(5)
N1 N 0.87621(5) 0.97809(6) 0.61221(6)
C1 C 0.69624(6) 1.07643(6) 0.75744(6)
C2 C 0.73763(6) 0.96568(6) 0.65609(6)
C3 C 0.73162(8) 0.81193(7) 0.71378(7)
C4 C 0.83821(8) 0.73081(7) 0.63649(7)
C5 C 0.95022(8) 0.84203(7) 0.62394(8)
C6 C 0.91842(6) 1.10108(7) 0.55554(6)
C7 C 1.05895(7) 1.10742(9) 0.50501(9)
H1 H 0.75636 1.18161 0.90203
H2 H 0.83218 0.61511 0.47493
H3 H 0.67015 0.97270 0.57099
H4 H 0.75512 0.81251 0.81842
H5 H 0.63256 0.76376 0.69943
H6 H 0.87204 0.63371 0.68884
H7 H 1.01470 0.84193 0.71127
H8 H 1.01207 0.82147 0.53679
H9 H 1.12712 1.06611 0.57978
H10 H 1.08514 1.21912 0.48193
H11 H 1.06735 1.04138 0.41681
O5 O 0.89880(8) 0.45994(7) 0.42911(8)
H12 H 0.87799 0.37108 0.47362
H13 H 0.95949 0.44271 0.35760
loop_
_geom_bond_atom_site_label_1
_geom_bond_atom_site_label_2
_geom_bond_site_symmetry_1
_geom_bond_site_symmetry_2
O1 C1 1_555 1_555
O2 C1 1_555 1_555
O3 C6 1_555 1_555
O4 C4 1_555 1_555
N1 C2 1_555 1_555
C1 C2 1_555 1_555
C2 C3 1_555 1_555
C3 C4 1_555 1_555
C4 C5 1_555 1_555
C5 N1 1_555 1_555
C6 N1 1_555 1_555
C7 C6 1_555 1_555
H1 O2 1_555 1_555
H2 O4 1_555 1_555
H3 C2 1_555 1_555
H4 C3 1_555 1_555
H5 C3 1_555 1_555
H6 C4 1_555 1_555
H7 C5 1_555 1_555
H8 C5 1_555 1_555
H9 C7 1_555 1_555
H10 C7 1_555 1_555
H11 C7 1_555 1_555
O5 H12 1_555 1_555
H13 O5 1_555 1_555

#END
