
#######################################################################
#
#                 Cambridge Crystallographic Data Centre
#                                CCDC 
#
#######################################################################
#
# If this CIF has been generated from an entry in the Cambridge 
# Structural Database, then it will include bibliographic, chemical, 
# crystal, experimental, refinement or atomic coordinate data resulting 
# from the CCDC's data processing and validation procedures.
#
#######################################################################

data_POKKAB
_chemical_formula_moiety         'C6 H10 O4'
_chemical_name_systematic        rac-cis-1,3,5,7-Tetraoxadecalin
_symmetry_cell_setting           monoclinic
_symmetry_space_group_name_H-M   'C 2/c'
_symmetry_Int_Tables_number      15
_space_group_name_Hall           '-C 2yn'
loop_
_symmetry_equiv_pos_site_id
_symmetry_equiv_pos_as_xyz
1 x,y,z
2 -x,y,1/2-z
3 1/2+x,1/2+y,z
4 1/2-x,1/2+y,1/2-z
5 -x,-y,-z
6 x,-y,1/2+z
7 1/2-x,1/2-y,-z
8 1/2+x,1/2-y,1/2+z
_cell_length_a                   14.006(3)
_cell_length_b                   4.4705(9)
_cell_length_c                   13.314(2)
_cell_angle_alpha                90
_cell_angle_beta                 131.02(1)
_cell_angle_gamma                90
_cell_volume                     628.965
_exptl_crystal_colour            colorless
_cell_formula_units_Z            4
loop_
_atom_site_label
_atom_site_type_symbol
_atom_site_fract_x
_atom_site_fract_y
_atom_site_fract_z
O1 O 0.12881(5) 0.0156(1) 0.38179(5)
O2 O 0.12375(5) -0.0115(1) 0.20260(6)
C1 C 0.20038(7) 0.0220(2) 0.34174(8)
C2 C 0.03736(7) 0.2348(2) 0.13554(8)
C3 C 0.04233(7) 0.2632(2) 0.32578(7)
C3A C -0.04233(7) 0.2632(2) 0.17422(7)
C2A C -0.03736(7) 0.2348(2) 0.36446(8)
O1A O -0.12881(5) 0.0156(1) 0.11821(5)
O2A O -0.12375(5) -0.0115(1) 0.29740(6)
C1A C -0.20038(7) 0.0220(2) 0.15826(8)
loop_
_geom_bond_atom_site_label_1
_geom_bond_atom_site_label_2
_geom_bond_site_symmetry_1
_geom_bond_site_symmetry_2
O1 C1 1_555 1_555
O2 C1 1_555 1_555
C2 O2 1_555 1_555
C3 O1 1_555 1_555
C3A C2 1_555 1_555
C2A C3 1_555 1_555
O1A C3A 1_555 1_555
O2A C2A 1_555 1_555
C1A O1A 1_555 1_555
C3 C3A 1_555 1_555
O2A C1A 1_555 1_555

#END
