
#######################################################################
#
#                 Cambridge Crystallographic Data Centre
#                                CCDC 
#
#######################################################################
#
# If this CIF has been generated from an entry in the Cambridge 
# Structural Database, then it will include bibliographic, chemical, 
# crystal, experimental, refinement or atomic coordinate data resulting 
# from the CCDC's data processing and validation procedures.
#
#######################################################################

data_POKKAD08
_chemical_formula_moiety         'C7 H11 N1 O4,H2 O1'
_chemical_name_systematic        '1-acetyl-4-hydroxyproline hydrate'
_symmetry_cell_setting           orthorhombic
_symmetry_space_group_name_H-M   'P 21 21 21'
_symmetry_Int_Tables_number      19
_space_group_name_Hall           'P 2ac 2ab'
loop_
_symmetry_equiv_pos_site_id
_symmetry_equiv_pos_as_xyz
1 x,y,z
2 1/2-x,-y,1/2+z
3 1/2+x,1/2-y,-z
4 -x,1/2+y,1/2-z
_cell_length_a                   9.884(6)
_cell_length_b                   9.253(6)
_cell_length_c                   10.155(3)
_cell_angle_alpha                90
_cell_angle_beta                 90
_cell_angle_gamma                90
_cell_volume                     928.742
_cell_formula_units_Z            4
loop_
_atom_site_label
_atom_site_type_symbol
_atom_site_fract_x
_atom_site_fract_y
_atom_site_fract_z
O1 O 0.57882(3) 1.11436(4) 0.77113(3)
O2 O 0.79370(3) 1.11880(4) 0.83960(3)
O3 O 0.84060(3) 1.20546(3) 0.55017(3)
O4 O 0.78380(3) 0.69417(3) 0.51449(3)
N1 N 0.87789(3) 0.97800(4) 0.61424(3)
C1 C 0.69669(4) 1.07606(4) 0.76063(4)
C2 C 0.73845(4) 0.96448(4) 0.65936(3)
C3 C 0.73434(5) 0.81115(4) 0.71877(4)
C4 C 0.84092(4) 0.73030(4) 0.63901(4)
C5 C 0.95379(4) 0.84216(4) 0.62478(4)
C6 C 0.91971(4) 1.10136(4) 0.55780(4)
C7 C 1.06163(4) 1.10715(5) 0.50536(5)
H1 H 0.75730 1.18286 0.90508
H2 H 0.83044 0.61217 0.47834
H3 H 0.66973 0.97000 0.57418
H4 H 0.76017 0.81273 0.82349
H5 H 0.63441 0.76220 0.70652
H6 H 0.87631 0.63351 0.69126
H7 H 1.02055 0.84228 0.71137
H8 H 1.01454 0.82222 0.53594
H9 H 1.13171 1.06923 0.58088
H10 H 1.08670 1.21822 0.47864
H11 H 1.06968 1.03817 0.41854
O5 O 0.89986(4) 0.45959(4) 0.43035(4)
H12 H 0.88021 0.36999 0.47438
H13 H 0.95670 0.43933 0.35573
loop_
_geom_bond_atom_site_label_1
_geom_bond_atom_site_label_2
_geom_bond_site_symmetry_1
_geom_bond_site_symmetry_2
O1 C1 1_555 1_555
O2 C1 1_555 1_555
O3 C6 1_555 1_555
O4 C4 1_555 1_555
N1 C2 1_555 1_555
C1 C2 1_555 1_555
C2 C3 1_555 1_555
C3 C4 1_555 1_555
C4 C5 1_555 1_555
C5 N1 1_555 1_555
C6 N1 1_555 1_555
C7 C6 1_555 1_555
H1 O2 1_555 1_555
H2 O4 1_555 1_555
H3 C2 1_555 1_555
H4 C3 1_555 1_555
H5 C3 1_555 1_555
H6 C4 1_555 1_555
H7 C5 1_555 1_555
H8 C5 1_555 1_555
H9 C7 1_555 1_555
H10 C7 1_555 1_555
H11 C7 1_555 1_555
O5 H12 1_555 1_555
H13 O5 1_555 1_555

#END
