
#######################################################################
#
#                 Cambridge Crystallographic Data Centre
#                                CCDC 
#
#######################################################################
#
# If this CIF has been generated from an entry in the Cambridge 
# Structural Database, then it will include bibliographic, chemical, 
# crystal, experimental, refinement or atomic coordinate data resulting 
# from the CCDC's data processing and validation procedures.
#
#######################################################################

data_POKKAD10
_chemical_formula_moiety         'C7 H11 N1 O4,H2 O1'
_chemical_name_systematic        '1-acetyl-4-hydroxyproline hydrate'
_symmetry_cell_setting           orthorhombic
_symmetry_space_group_name_H-M   'P 21 21 21'
_symmetry_Int_Tables_number      19
_space_group_name_Hall           'P 2ac 2ab'
loop_
_symmetry_equiv_pos_site_id
_symmetry_equiv_pos_as_xyz
1 x,y,z
2 1/2-x,-y,1/2+z
3 1/2+x,1/2-y,-z
4 -x,1/2+y,1/2-z
_cell_length_a                   9.9408(2)
_cell_length_b                   9.2479(2)
_cell_length_c                   10.1875(2)
_cell_angle_alpha                90
_cell_angle_beta                 90
_cell_angle_gamma                90
_cell_volume                     936.552
_cell_formula_units_Z            4
loop_
_atom_site_label
_atom_site_type_symbol
_atom_site_fract_x
_atom_site_fract_y
_atom_site_fract_z
O1 O 0.57947(4) 1.11407(6) 0.76947(5)
O2 O 0.79288(4) 1.11890(5) 0.83745(4)
O3 O 0.84020(5) 1.20508(5) 0.54824(5)
O4 O 0.78374(5) 0.69446(5) 0.51284(4)
N1 N 0.87691(5) 0.97802(5) 0.61298(5)
C1 C 0.69642(5) 1.07620(6) 0.75871(5)
C2 C 0.73793(5) 0.96502(5) 0.65751(5)
C3 C 0.73258(7) 0.81157(6) 0.71585(6)
C4 C 0.83894(7) 0.73033(6) 0.63748(6)
C5 C 0.95169(6) 0.84209(6) 0.62438(7)
C6 C 0.91895(5) 1.10117(6) 0.55636(5)
C7 C 1.06010(6) 1.10733(8) 0.50517(7)
H1 H 0.75689 1.18390 0.90209
H2 H 0.82952 0.61154 0.47776
H3 H 0.66997 0.97150 0.57237
H4 H 0.75688 0.81243 0.82056
H5 H 0.63314 0.76322 0.70221
H6 H 0.87332 0.63336 0.68990
H7 H 1.01710 0.84208 0.71138
H8 H 1.01301 0.82180 0.53650
H9 H 1.12848 1.06282 0.57860
H10 H 1.08744 1.21940 0.48481
H11 H 1.06732 1.04401 0.41504
O5 O 0.89928(7) 0.45993(6) 0.42971(7)
H12 H 0.88008 0.37051 0.47411
H13 H 0.95857 0.44361 0.35659
loop_
_geom_bond_atom_site_label_1
_geom_bond_atom_site_label_2
_geom_bond_site_symmetry_1
_geom_bond_site_symmetry_2
O1 C1 1_555 1_555
O2 C1 1_555 1_555
O3 C6 1_555 1_555
O4 C4 1_555 1_555
N1 C2 1_555 1_555
C1 C2 1_555 1_555
C2 C3 1_555 1_555
C3 C4 1_555 1_555
C4 C5 1_555 1_555
C5 N1 1_555 1_555
C6 N1 1_555 1_555
C7 C6 1_555 1_555
H1 O2 1_555 1_555
H2 O4 1_555 1_555
H3 C2 1_555 1_555
H4 C3 1_555 1_555
H5 C3 1_555 1_555
H6 C4 1_555 1_555
H7 C5 1_555 1_555
H8 C5 1_555 1_555
H9 C7 1_555 1_555
H10 C7 1_555 1_555
H11 C7 1_555 1_555
O5 H12 1_555 1_555
H13 O5 1_555 1_555

#END
