
#######################################################################
#
#                 Cambridge Crystallographic Data Centre
#                                CCDC 
#
#######################################################################
#
# If this CIF has been generated from an entry in the Cambridge 
# Structural Database, then it will include bibliographic, chemical, 
# crystal, experimental, refinement or atomic coordinate data resulting 
# from the CCDC's data processing and validation procedures.
#
#######################################################################

data_POKRAK
_chemical_formula_moiety         'C14 H22 O4'
_chemical_name_systematic        
10-Hydroxy-2,2,6-trimethyl-7,8-dioxatricyclo[7.3.1.0^1,6^]tridecan-5-one
_symmetry_cell_setting           monoclinic
_symmetry_space_group_name_H-M   'P 21'
_symmetry_Int_Tables_number      4
_space_group_name_Hall           'P 2yb'
loop_
_symmetry_equiv_pos_site_id
_symmetry_equiv_pos_as_xyz
1 x,y,z
2 -x,1/2+y,-z
_cell_length_a                   6.4740(3)
_cell_length_b                   12.8605(6)
_cell_length_c                   15.7958(7)
_cell_angle_alpha                90
_cell_angle_beta                 93.8120(10)
_cell_angle_gamma                90
_cell_volume                     1312.23
_exptl_crystal_colour            colorless
_exptl_crystal_description       Rod
_cell_formula_units_Z            4
loop_
_atom_site_label
_atom_site_type_symbol
_atom_site_fract_x
_atom_site_fract_y
_atom_site_fract_z
C1 C 0.5660(3) -0.07228(18) 0.67042(14)
H1 H 0.7083 -0.0482 0.6744
H2 H 0.5541 -0.1289 0.7103
C2 C 0.5070(4) -0.1100(2) 0.58079(16)
H3 H 0.6082 -0.1628 0.5666
C3 C 0.2936(4) -0.16076(14) 0.57383(15)
H4 H 0.2565 -0.1763 0.5140
C4 C 0.1260(4) -0.0919(2) 0.60734(18)
H5 H 0.0095 -0.1351 0.6205
H6 H 0.0780 -0.0437 0.5631
C5 C 0.1981(3) -0.03003(18) 0.68651(15)
H7 H 0.1867 -0.0750 0.7353
H8 H 0.1015 0.0268 0.6921
C6 C 0.4212(3) 0.01671(16) 0.69204(13)
C7 C 0.4361(4) 0.10100(18) 0.62082(14)
C8 C 0.2786(4) 0.18559(19) 0.63569(18)
C9 C 0.2936(5) 0.2329(2) 0.7228(2)
H9 H 0.1708 0.2746 0.7295
H10 H 0.4121 0.2792 0.7274
C10 C 0.3151(4) 0.1541(2) 0.79512(18)
H11 H 0.1801 0.1241 0.8025
H12 H 0.3578 0.1908 0.8470
C11 C 0.4691(4) 0.06541(19) 0.78289(14)
C12 C 0.6906(4) 0.1065(3) 0.79968(19)
H13 H 0.7100 0.1664 0.7648
H14 H 0.7874 0.0533 0.7864
H15 H 0.7129 0.1255 0.8583
C13 C 0.4413(5) -0.0156(3) 0.85286(18)
H16 H 0.4672 0.0164 0.9074
H17 H 0.5369 -0.0718 0.8470
H18 H 0.3023 -0.0420 0.8478
C14 C 0.6463(5) 0.1530(2) 0.6078(2)
H19 H 0.7557 0.1037 0.6198
H20 H 0.6650 0.2114 0.6454
H21 H 0.6489 0.1763 0.5501
O1 O 0.3222(4) -0.25536(13) 0.61815(16)
H22 H 0.2237 -0.2939 0.6062
O2 O 0.5202(3) -0.02582(16) 0.52138(11)
O3 O 0.3666(3) 0.05309(14) 0.54165(10)
O4 O 0.1545(4) 0.21385(19) 0.57954(16)
C15 C 0.7216(4) 0.6073(2) 0.73881(15)
H23 H 0.5831 0.6076 0.7587
H24 H 0.7495 0.6755 0.7161
C16 C 0.7369(4) 0.5258(2) 0.67043(15)
H25 H 0.6272 0.5403 0.6262
C17 C 0.9434(4) 0.53177(15) 0.62886(15)
H26 H 0.9503 0.4765 0.5864
C18 C 1.1262(4) 0.5221(2) 0.69454(17)
H27 H 1.1455 0.4494 0.7095
H28 H 1.2507 0.5459 0.6696
C19 C 1.0961(3) 0.58451(19) 0.77491(14)
H29 H 1.1292 0.6565 0.7634
H30 H 1.1970 0.5602 0.8186
C20 C 0.8793(3) 0.58206(16) 0.81216(14)
C21 C 0.8321(4) 0.46793(19) 0.84164(15)
C22 C 0.9980(4) 0.4376(2) 0.90972(18)
C23 C 1.0143(6) 0.5100(3) 0.98418(19)
H31 H 1.1343 0.4907 1.0209
H32 H 0.8929 0.5013 1.0163
C24 C 1.0331(5) 0.6251(2) 0.96004(18)
H33 H 1.1725 0.6376 0.9433
H34 H 1.0139 0.6671 1.0100
C25 C 0.8787(4) 0.66212(19) 0.88797(15)
C26 C 0.6641(5) 0.6801(3) 0.9219(2)
H35 H 0.6756 0.7299 0.9673
H36 H 0.6121 0.6157 0.9426
H37 H 0.5708 0.7061 0.8771
C27 C 0.9526(6) 0.7708(2) 0.8613(2)
H38 H 1.0937 0.7666 0.8464
H39 H 0.9431 0.8184 0.9077
H40 H 0.8669 0.7948 0.8134
C28 C 0.6196(5) 0.4422(3) 0.8750(2)
H41 H 0.6046 0.3681 0.8791
H42 H 0.5118 0.4695 0.8366
H43 H 0.6101 0.4728 0.9300
O5 O 0.9586(3) 0.62983(13) 0.58940(12)
H44 H 0.8790 0.6320 0.5468
O6 O 0.8581(3) 0.39927(14) 0.77158(12)
O7 O 0.6983(3) 0.42400(17) 0.70355(13)
O8 O 1.1058(4) 0.3621(2) 0.90559(16)
loop_
_geom_bond_atom_site_label_1
_geom_bond_atom_site_label_2
_geom_bond_site_symmetry_1
_geom_bond_site_symmetry_2
C1 H1 1_555 1_555
H2 C1 1_555 1_555
C2 C1 1_555 1_555
H3 C2 1_555 1_555
C3 C2 1_555 1_555
H4 C3 1_555 1_555
C4 C3 1_555 1_555
H5 C4 1_555 1_555
H6 C4 1_555 1_555
C5 C4 1_555 1_555
H7 C5 1_555 1_555
H8 C5 1_555 1_555
C6 C1 1_555 1_555
C7 C6 1_555 1_555
C8 C7 1_555 1_555
C9 C8 1_555 1_555
H9 C9 1_555 1_555
H10 C9 1_555 1_555
C10 C9 1_555 1_555
H11 C10 1_555 1_555
H12 C10 1_555 1_555
C11 C6 1_555 1_555
C12 C11 1_555 1_555
H13 C12 1_555 1_555
H14 C12 1_555 1_555
H15 C12 1_555 1_555
C13 C11 1_555 1_555
H16 C13 1_555 1_555
H17 C13 1_555 1_555
H18 C13 1_555 1_555
C14 C7 1_555 1_555
H19 C14 1_555 1_555
H20 C14 1_555 1_555
H21 C14 1_555 1_555
O1 C3 1_555 1_555
H22 O1 1_555 1_555
O2 C2 1_555 1_555
O3 C7 1_555 1_555
O4 C8 1_555 1_555
C15 H23 1_555 1_555
H24 C15 1_555 1_555
C16 C15 1_555 1_555
H25 C16 1_555 1_555
C17 C16 1_555 1_555
H26 C17 1_555 1_555
C18 C17 1_555 1_555
H27 C18 1_555 1_555
H28 C18 1_555 1_555
C19 C18 1_555 1_555
H29 C19 1_555 1_555
H30 C19 1_555 1_555
C20 C15 1_555 1_555
C21 C20 1_555 1_555
C22 C21 1_555 1_555
C23 C22 1_555 1_555
H31 C23 1_555 1_555
H32 C23 1_555 1_555
C24 C23 1_555 1_555
H33 C24 1_555 1_555
H34 C24 1_555 1_555
C25 C20 1_555 1_555
C26 C25 1_555 1_555
H35 C26 1_555 1_555
H36 C26 1_555 1_555
H37 C26 1_555 1_555
C27 C25 1_555 1_555
H38 C27 1_555 1_555
H39 C27 1_555 1_555
H40 C27 1_555 1_555
C28 C21 1_555 1_555
H41 C28 1_555 1_555
H42 C28 1_555 1_555
H43 C28 1_555 1_555
O5 C17 1_555 1_555
H44 O5 1_555 1_555
O6 C21 1_555 1_555
O7 C16 1_555 1_555
O8 C22 1_555 1_555
C5 C6 1_555 1_555
C10 C11 1_555 1_555
O2 O3 1_555 1_555
C19 C20 1_555 1_555
C24 C25 1_555 1_555
O6 O7 1_555 1_555

#END
