
#######################################################################
#
#                 Cambridge Crystallographic Data Centre
#                                CCDC 
#
#######################################################################
#
# If this CIF has been generated from an entry in the Cambridge 
# Structural Database, then it will include bibliographic, chemical, 
# crystal, experimental, refinement or atomic coordinate data resulting 
# from the CCDC's data processing and validation procedures.
#
#######################################################################

data_POKYUL
_chemical_formula_moiety         'C16 H14 O6'
_chemical_name_systematic        
2,4,6-trihydroxy-5-(methoxy(phenyl)methyl)isophthalaldehyde
_symmetry_cell_setting           monoclinic
_symmetry_space_group_name_H-M   'C 2/c'
_symmetry_Int_Tables_number      15
_space_group_name_Hall           '-C 2yn'
loop_
_symmetry_equiv_pos_site_id
_symmetry_equiv_pos_as_xyz
1 x,y,z
2 -x,y,1/2-z
3 1/2+x,1/2+y,z
4 1/2-x,1/2+y,1/2-z
5 -x,-y,-z
6 x,-y,1/2+z
7 1/2-x,1/2-y,-z
8 1/2+x,1/2-y,1/2+z
_cell_length_a                   17.4757(10)
_cell_length_b                   7.9496(4)
_cell_length_c                   20.0990(12)
_cell_angle_alpha                90
_cell_angle_beta                 91.393(5)
_cell_angle_gamma                90
_cell_volume                     2791.42
_cell_formula_units_Z            8
loop_
_atom_site_label
_atom_site_type_symbol
_atom_site_fract_x
_atom_site_fract_y
_atom_site_fract_z
O1 O 0.55715(12) 0.0325(2) 0.34352(10)
C1 C 0.52948(13) -0.1584(3) 0.43125(11)
O2 O 0.61996(12) -0.1890(3) 0.51768(10)
H1 H 0.6249 -0.2285 0.5552
C2 C 0.49532(17) -0.2981(3) 0.53572(13)
C3 C 0.45428(14) -0.1832(3) 0.40883(13)
C4 C 0.39977(14) -0.2689(3) 0.44652(14)
O3 O 0.42942(12) -0.1252(3) 0.34901(10)
H2 H 0.4624 -0.0651 0.3330
C5 C 0.54878(15) -0.2146(3) 0.49508(12)
C6 C 0.42137(17) -0.3261(3) 0.50948(15)
C7 C 0.63613(14) -0.2205(3) 0.35355(12)
O4 O 0.37211(14) -0.4089(3) 0.54737(13)
H3 H 0.3304 -0.4146 0.5279
O5 O 0.27531(14) -0.3825(4) 0.44824(15)
O6 O 0.58034(18) -0.3361(4) 0.62647(12)
C8 C 0.6427(2) -0.4346(4) 0.26898(14)
H4 H 0.6197 -0.4921 0.2335
C9 C 0.59198(15) -0.0839(3) 0.38916(13)
H5 H 0.6277 -0.0221 0.4185
C10 C 0.71585(19) -0.4732(4) 0.28926(17)
H6 H 0.7427 -0.5579 0.2680
C11 C 0.60302(17) -0.3095(4) 0.30138(14)
H7 H 0.5530 -0.2849 0.2877
C12 C 0.70983(15) -0.2601(4) 0.37307(17)
H8 H 0.7334 -0.2017 0.4080
C13 C 0.32303(17) -0.3041(4) 0.41826(19)
H9 H 0.3106 -0.2648 0.3758
C14 C 0.5174(2) -0.3577(4) 0.60106(16)
H10 H 0.4813 -0.4162 0.6252
C15 C 0.74916(17) -0.3863(4) 0.3411(2)
H11 H 0.7989 -0.4124 0.3551
C16 C 0.6110(2) 0.1268(4) 0.3064(2)
H12 H 0.5848 0.2148 0.2823
H13 H 0.6358 0.0537 0.2756
H14 H 0.6486 0.1752 0.3363
loop_
_geom_bond_atom_site_label_1
_geom_bond_atom_site_label_2
_geom_bond_site_symmetry_1
_geom_bond_site_symmetry_2
O1 C9 1_555 1_555
C1 C3 1_555 1_555
O2 H1 1_555 1_555
C2 C5 1_555 1_555
C3 C4 1_555 1_555
C4 C6 1_555 1_555
O3 C3 1_555 1_555
H2 O3 1_555 1_555
C5 C1 1_555 1_555
C6 C2 1_555 1_555
C7 C9 1_555 1_555
O4 C6 1_555 1_555
H3 O4 1_555 1_555
O5 C13 1_555 1_555
O6 C14 1_555 1_555
C8 H4 1_555 1_555
C9 C1 1_555 1_555
H5 C9 1_555 1_555
C10 C8 1_555 1_555
H6 C10 1_555 1_555
C11 C7 1_555 1_555
H7 C11 1_555 1_555
C12 C7 1_555 1_555
H8 C12 1_555 1_555
C13 C4 1_555 1_555
H9 C13 1_555 1_555
C14 C2 1_555 1_555
H10 C14 1_555 1_555
C15 C10 1_555 1_555
H11 C15 1_555 1_555
C16 O1 1_555 1_555
H12 C16 1_555 1_555
H13 C16 1_555 1_555
H14 C16 1_555 1_555
O2 C5 1_555 1_555
C8 C11 1_555 1_555
C12 C15 1_555 1_555

#END
