
#######################################################################
#
#                 Cambridge Crystallographic Data Centre
#                                CCDC 
#
#######################################################################
#
# If this CIF has been generated from an entry in the Cambridge 
# Structural Database, then it will include bibliographic, chemical, 
# crystal, experimental, refinement or atomic coordinate data resulting 
# from the CCDC's data processing and validation procedures.
#
#######################################################################

data_POLMAG
_chemical_formula_moiety         'C18 H16 N2 O1,C6 H6 O3'
_chemical_name_systematic        
'2,6-bis(pyridin-4-ylmethylene)cyclohexanone benzene-1,3,5-triol'
_symmetry_cell_setting           triclinic
_symmetry_space_group_name_H-M   'P -1'
_symmetry_Int_Tables_number      2
_space_group_name_Hall           '-P 1'
loop_
_symmetry_equiv_pos_site_id
_symmetry_equiv_pos_as_xyz
1 x,y,z
2 -x,-y,-z
_cell_length_a                   9.2228(10)
_cell_length_b                   10.0073(11)
_cell_length_c                   11.6429(13)
_cell_angle_alpha                90.151(2)
_cell_angle_beta                 93.484(2)
_cell_angle_gamma                112.015(2)
_cell_volume                     994.016
_exptl_crystal_colour            yellow
_exptl_crystal_description       block
_cell_formula_units_Z            2
loop_
_atom_site_label
_atom_site_type_symbol
_atom_site_fract_x
_atom_site_fract_y
_atom_site_fract_z
C1 C 1.1993(3) 0.6699(2) 0.49635(19)
H1 H 1.2058 0.7398 0.5513
C2 C 1.1011(2) 0.6545(2) 0.39982(18)
H2 H 1.0450 0.7144 0.3901
C3 C 1.0850(2) 0.5494(2) 0.31637(16)
C4 C 1.1769(2) 0.4676(2) 0.33599(18)
H3 H 1.1733 0.3970 0.2826
C5 C 1.2729(2) 0.4924(2) 0.43507(19)
H4 H 1.3332 0.4365 0.4463
C6 C 0.9783(2) 0.5364(2) 0.21502(16)
H5 H 0.9645 0.6210 0.1951
C7 C 0.8977(2) 0.42225(19) 0.14674(15)
C8 C 0.7941(2) 0.4452(2) 0.05044(15)
C9 C 0.7029(2) 0.32283(19) -0.03181(15)
C10 C 0.7209(3) 0.1808(2) -0.01410(17)
H6 H 0.8083 0.1789 -0.0554
H7 H 0.6268 0.1032 -0.0452
C11 C 0.7488(3) 0.1571(2) 0.11232(17)
H8 H 0.6613 0.1586 0.1539
H9 H 0.7558 0.0634 0.1217
C12 C 0.8987(3) 0.2734(2) 0.16131(18)
H10 H 0.9136 0.2575 0.2426
H11 H 0.9865 0.2665 0.1233
C13 C 0.6079(2) 0.3479(2) -0.11240(15)
H12 H 0.6059 0.4401 -0.1105
C14 C 0.5063(2) 0.25029(19) -0.20354(15)
C15 C 0.3658(3) 0.2635(2) -0.23984(19)
H13 H 0.3358 0.3320 -0.2049
C16 C 0.2716(3) 0.1754(3) -0.32712(19)
H14 H 0.1775 0.1856 -0.3484
C17 C 0.5425(2) 0.1472(2) -0.26191(16)
H15 H 0.6351 0.1336 -0.2422
C18 C 0.4408(2) 0.0651(2) -0.34902(16)
H16 H 0.4682 -0.0032 -0.3867
N1 N 1.2856(2) 0.5910(2) 0.51610(15)
N2 N 0.3056(2) 0.07655(19) -0.38320(14)
O1 O 0.78541(19) 0.56362(15) 0.03893(12)
C19 C 0.5717(2) 0.7303(2) 0.74711(16)
C20 C 0.6430(2) 0.81502(19) 0.65721(15)
H17 H 0.5937 0.7988 0.5835
C21 C 0.7887(2) 0.9243(2) 0.67849(15)
C22 C 0.8630(2) 0.9496(2) 0.78806(17)
H18 H 0.9605 1.0234 0.8023
C23 C 0.7886(3) 0.8625(3) 0.87541(16)
C24 C 0.6440(3) 0.7541(3) 0.85663(17)
H19 H 0.5954 0.6974 0.9169
O2 O 0.42951(18) 0.62070(19) 0.73227(14)
H20 H 0.3963 0.6160 0.6648
O3 O 0.86561(18) 1.01077(16) 0.59383(12)
H21 H 0.8123 0.9872 0.5328
O4 O 0.8620(2) 0.8855(3) 0.98385(12)
H22 H 0.8214 0.8142 1.0224
loop_
_geom_bond_atom_site_label_1
_geom_bond_atom_site_label_2
_geom_bond_site_symmetry_1
_geom_bond_site_symmetry_2
C1 H1 1_555 1_555
C2 C1 1_555 1_555
H2 C2 1_555 1_555
C3 C2 1_555 1_555
C4 C3 1_555 1_555
H3 C4 1_555 1_555
C5 C4 1_555 1_555
H4 C5 1_555 1_555
C6 C3 1_555 1_555
H5 C6 1_555 1_555
C7 C6 1_555 1_555
C8 C7 1_555 1_555
C9 C8 1_555 1_555
C10 C9 1_555 1_555
H6 C10 1_555 1_555
H7 C10 1_555 1_555
C11 C10 1_555 1_555
H8 C11 1_555 1_555
H9 C11 1_555 1_555
C12 C7 1_555 1_555
H10 C12 1_555 1_555
H11 C12 1_555 1_555
C13 C9 1_555 1_555
H12 C13 1_555 1_555
C14 C13 1_555 1_555
C15 C14 1_555 1_555
H13 C15 1_555 1_555
C16 C15 1_555 1_555
H14 C16 1_555 1_555
C17 C14 1_555 1_555
H15 C17 1_555 1_555
C18 C17 1_555 1_555
H16 C18 1_555 1_555
N1 C1 1_555 1_555
N2 C16 1_555 1_555
O1 C8 1_555 1_555
C19 C20 1_555 1_555
C20 H17 1_555 1_555
C21 C20 1_555 1_555
C22 C21 1_555 1_555
H18 C22 1_555 1_555
C23 C22 1_555 1_555
C24 C19 1_555 1_555
H19 C24 1_555 1_555
O2 C19 1_555 1_555
H20 O2 1_555 1_555
O3 C21 1_555 1_555
H21 O3 1_555 1_555
O4 C23 1_555 1_555
H22 O4 1_555 1_555
C5 N1 1_555 1_555
C11 C12 1_555 1_555
C18 N2 1_555 1_555
C23 C24 1_555 1_555

#END
