
#######################################################################
#
#                 Cambridge Crystallographic Data Centre
#                                CCDC 
#
#######################################################################
#
# If this CIF has been generated from an entry in the Cambridge 
# Structural Database, then it will include bibliographic, chemical, 
# crystal, experimental, refinement or atomic coordinate data resulting 
# from the CCDC's data processing and validation procedures.
#
#######################################################################

data_POLMEK
_chemical_formula_moiety         'C18 H17 N3 O1,C6 H6 O3'
_chemical_name_systematic        
'1-methyl-3,5-bis(pyridin-4-ylmethylene)piperidin-4-one benzene-1,3,5-triol'
_symmetry_cell_setting           triclinic
_symmetry_space_group_name_H-M   'P -1'
_symmetry_Int_Tables_number      2
_space_group_name_Hall           '-P 1'
loop_
_symmetry_equiv_pos_site_id
_symmetry_equiv_pos_as_xyz
1 x,y,z
2 -x,-y,-z
_cell_length_a                   12.823(2)
_cell_length_b                   13.434(3)
_cell_length_c                   14.297(3)
_cell_angle_alpha                69.352(3)
_cell_angle_beta                 86.956(3)
_cell_angle_gamma                67.952(3)
_cell_volume                     2127.18
_exptl_crystal_colour            yellow
_exptl_crystal_description       block
_cell_formula_units_Z            4
loop_
_atom_site_label
_atom_site_type_symbol
_atom_site_fract_x
_atom_site_fract_y
_atom_site_fract_z
C1 C 0.18768(19) 0.1039(2) 1.34788(17)
H1 H 0.1769 0.0359 1.3824
C2 C 0.14666(18) 0.16100(19) 1.24865(16)
H2 H 0.1089 0.1318 1.2181
C3 C 0.16159(17) 0.26260(18) 1.19373(15)
C4 C 0.2137(2) 0.3030(2) 1.24685(16)
H3 H 0.2227 0.3724 1.2153
C5 C 0.2522(2) 0.2396(2) 1.34654(16)
H4 H 0.2874 0.2682 1.3801
C6 C 0.12129(17) 0.31726(18) 1.08664(15)
H5 H 0.0655 0.2977 1.0677
C7 C 0.15302(17) 0.39094(18) 1.01247(15)
C8 C 0.10062(18) 0.42690(19) 0.90859(15)
C9 C 0.12247(16) 0.52106(18) 0.82663(15)
C10 C 0.20603(17) 0.56374(19) 0.85252(15)
H6 H 0.2423 0.5919 0.7933
H7 H 0.1669 0.6269 0.8756
C11 C 0.23954(18) 0.4370(2) 1.02404(15)
H8 H 0.2039 0.5031 1.0442
H9 H 0.2978 0.3786 1.0765
C12 C 0.37973(19) 0.5081(2) 0.94713(18)
H10 H 0.4121 0.5324 0.8852
H11 H 0.4374 0.4452 0.9963
H12 H 0.3480 0.5710 0.9707
C13 C 0.06880(17) 0.55757(18) 0.73579(15)
H13 H 0.0222 0.5204 0.7309
C14 C 0.07333(17) 0.64824(19) 0.64274(15)
C15 C 0.04859(19) 0.6435(2) 0.55114(16)
H14 H 0.0296 0.5837 0.5495
C16 C 0.0523(2) 0.7273(2) 0.46304(17)
H15 H 0.0386 0.7201 0.4030
C17 C 0.0975(2) 0.8231(2) 0.54580(18)
H16 H 0.1145 0.8849 0.5448
C18 C 0.09762(19) 0.7425(2) 0.63760(16)
H17 H 0.1140 0.7510 0.6963
N1 N 0.24199(16) 0.13993(18) 1.39776(14)
N2 N 0.29098(14) 0.47091(16) 0.93074(12)
N3 N 0.07441(16) 0.81794(19) 0.45833(14)
O1 O 0.04062(15) 0.38193(16) 0.89191(12)
C19 C 0.69851(19) 0.5922(2) 1.38112(17)
H18 H 0.6873 0.5252 1.4183
C20 C 0.66050(18) 0.64335(19) 1.28100(16)
H19 H 0.6244 0.6112 1.2523
C21 C 0.67609(17) 0.74319(18) 1.22262(15)
C22 C 0.72865(19) 0.7873(2) 1.27212(16)
H20 H 0.7398 0.8549 1.2372
C23 C 0.76383(19) 0.7301(2) 1.37285(16)
H21 H 0.7989 0.7610 1.4041
C24 C 0.63396(17) 0.79598(18) 1.11608(15)
H22 H 0.5755 0.7787 1.0992
C25 C 0.66800(17) 0.86551(18) 1.03991(15)
C26 C 0.76390(17) 0.90081(19) 1.04765(15)
H23 H 0.7373 0.9664 1.0692
H24 H 0.8223 0.8381 1.0977
C27 C 0.60800(17) 0.90866(19) 0.93844(16)
C28 C 0.63233(16) 1.00044(18) 0.85658(15)
C29 C 0.72662(17) 1.03131(19) 0.87931(15)
H25 H 0.7608 1.0582 0.8182
H26 H 0.6971 1.0928 0.9059
C30 C 0.91261(18) 0.9522(2) 0.96344(17)
H27 H 0.9400 0.9767 0.8989
H28 H 0.9697 0.8826 1.0071
H29 H 0.8948 1.0111 0.9917
C31 C 0.57211(17) 1.04560(18) 0.76663(15)
H30 H 0.5179 1.0162 0.7632
C32 C 0.57953(16) 1.13400(18) 0.67377(15)
C33 C 0.54687(18) 1.1320(2) 0.58301(16)
H31 H 0.5214 1.0759 0.5824
C34 C 0.55280(19) 1.2143(2) 0.49431(17)
H32 H 0.5322 1.2104 0.4347
C35 C 0.61654(19) 1.3003(2) 0.57524(17)
H33 H 0.6404 1.3584 0.5732
C36 C 0.61511(19) 1.22180(19) 0.66737(16)
H34 H 0.6379 1.2273 0.7254
N4 N 0.75069(16) 0.63308(18) 1.42835(13)
N5 N 0.81094(13) 0.93091(16) 0.95222(12)
N6 N 0.58585(16) 1.29856(17) 0.48825(14)
O2 O 0.53916(14) 0.87140(16) 0.92331(12)
C37 C 0.69366(18) 0.03153(18) 0.34478(15)
C38 C 0.63349(18) 0.10307(19) 0.25219(15)
H35 H 0.5554 0.1266 0.2444
C39 C 0.69260(18) 0.13863(18) 0.17161(15)
C40 C 0.80799(18) 0.10707(19) 0.18166(15)
H36 H 0.8459 0.1330 0.1269
C41 C 0.86660(18) 0.03584(19) 0.27499(15)
C42 C 0.80958(17) -0.00247(18) 0.35623(15)
H37 H 0.8493 -0.0510 0.4184
O3 O 0.63327(12) -0.00407(15) 0.42156(10)
H38 H 0.6751 -0.0411 0.4738
O4 O 0.63719(13) 0.20500(15) 0.07631(10)
H39 H 0.5735 0.2046 0.0754
O5 O 0.98102(12) 0.00532(16) 0.28234(11)
H40 H 1.0089 -0.0482 0.3355
C43 C 0.58844(18) 0.48110(19) 0.72235(15)
C44 C 0.66232(17) 0.51477(18) 0.65631(15)
H41 H 0.6350 0.5718 0.5934
C45 C 0.77695(18) 0.46296(19) 0.68476(15)
C46 C 0.81936(19) 0.3785(2) 0.77850(16)
H42 H 0.8966 0.3447 0.7976
C47 C 0.74436(19) 0.34598(19) 0.84280(15)
C48 C 0.62922(19) 0.39507(19) 0.81604(15)
H43 H 0.5800 0.3710 0.8599
O6 O 0.47419(13) 0.52841(15) 0.69973(12)
H44 H 0.4587 0.5767 0.6427
O7 O 0.78863(14) 0.26201(15) 0.93487(11)
H45 H 0.7372 0.2563 0.9703
O8 O 0.85292(12) 0.49406(15) 0.62160(11)
H46 H 0.8194 0.5409 0.5672
loop_
_geom_bond_atom_site_label_1
_geom_bond_atom_site_label_2
_geom_bond_site_symmetry_1
_geom_bond_site_symmetry_2
C1 H1 1_555 1_555
C2 C1 1_555 1_555
H2 C2 1_555 1_555
C3 C2 1_555 1_555
C4 C3 1_555 1_555
H3 C4 1_555 1_555
C5 C4 1_555 1_555
H4 C5 1_555 1_555
C6 C3 1_555 1_555
H5 C6 1_555 1_555
C7 C6 1_555 1_555
C8 C7 1_555 1_555
C9 C8 1_555 1_555
C10 C9 1_555 1_555
H6 C10 1_555 1_555
H7 C10 1_555 1_555
C11 C7 1_555 1_555
H8 C11 1_555 1_555
H9 C11 1_555 1_555
C12 H10 1_555 1_555
H11 C12 1_555 1_555
H12 C12 1_555 1_555
C13 C9 1_555 1_555
H13 C13 1_555 1_555
C14 C13 1_555 1_555
C15 C14 1_555 1_555
H14 C15 1_555 1_555
C16 C15 1_555 1_555
H15 C16 1_555 1_555
C17 H16 1_555 1_555
C18 C14 1_555 1_555
H17 C18 1_555 1_555
N1 C1 1_555 1_555
N2 C10 1_555 1_555
N3 C16 1_555 1_555
O1 C8 1_555 1_555
C19 H18 1_555 1_555
C20 C19 1_555 1_555
H19 C20 1_555 1_555
C21 C20 1_555 1_555
C22 C21 1_555 1_555
H20 C22 1_555 1_555
C23 C22 1_555 1_555
H21 C23 1_555 1_555
C24 C21 1_555 1_555
H22 C24 1_555 1_555
C25 C24 1_555 1_555
C26 C25 1_555 1_555
H23 C26 1_555 1_555
H24 C26 1_555 1_555
C27 C25 1_555 1_555
C28 C27 1_555 1_555
C29 C28 1_555 1_555
H25 C29 1_555 1_555
H26 C29 1_555 1_555
C30 H27 1_555 1_555
H28 C30 1_555 1_555
H29 C30 1_555 1_555
C31 C28 1_555 1_555
H30 C31 1_555 1_555
C32 C31 1_555 1_555
C33 C32 1_555 1_555
H31 C33 1_555 1_555
C34 C33 1_555 1_555
H32 C34 1_555 1_555
C35 H33 1_555 1_555
C36 C32 1_555 1_555
H34 C36 1_555 1_555
N4 C19 1_555 1_555
N5 C26 1_555 1_555
N6 C34 1_555 1_555
O2 C27 1_555 1_555
C37 C38 1_555 1_555
C38 H35 1_555 1_555
C39 C38 1_555 1_555
C40 C39 1_555 1_555
H36 C40 1_555 1_555
C41 C40 1_555 1_555
C42 C37 1_555 1_555
H37 C42 1_555 1_555
O3 C37 1_555 1_555
H38 O3 1_555 1_555
O4 C39 1_555 1_555
H39 O4 1_555 1_555
O5 C41 1_555 1_555
H40 O5 1_555 1_555
C43 C44 1_555 1_555
C44 H41 1_555 1_555
C45 C44 1_555 1_555
C46 C45 1_555 1_555
H42 C46 1_555 1_555
C47 C46 1_555 1_555
C48 C43 1_555 1_555
H43 C48 1_555 1_555
O6 C43 1_555 1_555
H44 O6 1_555 1_555
O7 C47 1_555 1_555
H45 O7 1_555 1_555
O8 C45 1_555 1_555
H46 O8 1_555 1_555
C5 N1 1_555 1_555
C11 N2 1_555 1_555
C12 N2 1_555 1_555
C17 C18 1_555 1_555
C17 N3 1_555 1_555
C23 N4 1_555 1_555
C29 N5 1_555 1_555
C30 N5 1_555 1_555
C35 C36 1_555 1_555
C35 N6 1_555 1_555
C41 C42 1_555 1_555
C47 C48 1_555 1_555

#END
