
#######################################################################
#
#                 Cambridge Crystallographic Data Centre
#                                CCDC 
#
#######################################################################
#
# If this CIF has been generated from an entry in the Cambridge 
# Structural Database, then it will include bibliographic, chemical, 
# crystal, experimental, refinement or atomic coordinate data resulting 
# from the CCDC's data processing and validation procedures.
#
#######################################################################

data_POLWOE01
_chemical_formula_moiety         'C8 H8 N7 O6 1+,N1 O3 1-'
_chemical_name_systematic        
'amino(2-(2,4,6-trinitrobenzylidene)hydrazino)methaniminium nitrate'
_symmetry_cell_setting           monoclinic
_symmetry_space_group_name_H-M   'P 21/c'
_symmetry_Int_Tables_number      14
_space_group_name_Hall           '-P 2ybc'
loop_
_symmetry_equiv_pos_site_id
_symmetry_equiv_pos_as_xyz
1 x,y,z
2 -x,1/2+y,1/2-z
3 -x,-y,-z
4 x,1/2-y,1/2+z
_cell_length_a                   17.5820(10)
_cell_length_b                   10.4936(6)
_cell_length_c                   15.8405(10)
_cell_angle_alpha                90
_cell_angle_beta                 111.304(2)
_cell_angle_gamma                90
_cell_volume                     2722.84
_exptl_crystal_colour            colorless
_exptl_crystal_description       block
_cell_formula_units_Z            8
loop_
_atom_site_label
_atom_site_type_symbol
_atom_site_fract_x
_atom_site_fract_y
_atom_site_fract_z
C1 C 0.77207(15) 0.3930(2) 0.34685(17)
C2 C 0.82473(15) 0.3911(2) 0.29843(17)
C3 C 0.78585(16) 0.4149(2) 0.20551(17)
C4 C 0.70343(16) 0.4413(2) 0.16388(18)
H1 H 0.6802 0.4599 0.1010
C5 C 0.65673(16) 0.4397(2) 0.21646(18)
C6 C 0.68966(16) 0.4160(2) 0.30897(18)
H2 H 0.6564 0.4157 0.3447
C7 C 0.91298(16) 0.3703(3) 0.34207(18)
H3 H 0.9473 0.3691 0.3076
C8 C 1.05437(16) 0.3209(3) 0.55915(18)
N1 N 0.80195(13) 0.3639(2) 0.44468(15)
N2 N 0.94231(12) 0.3538(2) 0.42781(15)
N3 N 1.02429(12) 0.3372(2) 0.46875(15)
H4 H 1.0565 0.3370 0.4372
N4 N 1.00614(13) 0.3232(2) 0.60553(15)
H5 H 1.0267 0.3156 0.6649
H6 H 0.9531 0.3324 0.5773
N5 N 1.13382(13) 0.3074(2) 0.59929(15)
H7 H 1.1556 0.2996 0.6586
H8 H 1.1652 0.3061 0.5668
N6 N 0.83222(14) 0.4054(2) 0.14416(15)
N7 N 0.56765(14) 0.4585(2) 0.17366(18)
O1 O 0.80626(12) 0.25165(18) 0.46529(12)
O2 O 0.81766(12) 0.45263(19) 0.49765(13)
O3 O 0.88109(12) 0.3171(2) 0.15837(13)
O4 O 0.81755(13) 0.4830(2) 0.08314(14)
O5 O 0.54001(12) 0.4849(2) 0.09337(14)
O6 O 0.52694(12) 0.4433(2) 0.22173(15)
C9 C 0.29820(16) 0.5842(2) 0.34360(17)
C10 C 0.34860(16) 0.5941(2) 0.29291(18)
C11 C 0.30927(16) 0.5651(2) 0.20069(18)
C12 C 0.22817(16) 0.5295(2) 0.16179(19)
H9 H 0.2046 0.5082 0.0993
C13 C 0.18299(16) 0.5260(3) 0.21640(19)
C14 C 0.21657(16) 0.5521(2) 0.30800(19)
H10 H 0.1846 0.5481 0.3451
C15 C 0.43525(16) 0.6288(2) 0.33264(18)
H11 H 0.4697 0.6189 0.2988
C16 C 0.58002(16) 0.7261(3) 0.53634(18)
N8 N 0.32923(13) 0.6140(2) 0.44114(15)
N9 N 0.46364(12) 0.6725(2) 0.41331(15)
N10 N 0.54407(12) 0.7041(2) 0.44668(14)
H12 H 0.5720 0.7100 0.4107
N11 N 0.53749(14) 0.7180(2) 0.58883(15)
H13 H 0.5613 0.7306 0.6475
H14 H 0.4851 0.7000 0.5655
N12 N 0.65865(13) 0.7528(2) 0.56868(16)
H15 H 0.6840 0.7658 0.6271
H16 H 0.6858 0.7576 0.5318
N13 N 0.35308(14) 0.5787(2) 0.13690(15)
N14 N 0.09507(15) 0.4953(2) 0.17657(19)
O7 O 0.31490(12) 0.71995(19) 0.46252(13)
O8 O 0.36544(12) 0.53157(19) 0.49506(13)
O9 O 0.39887(12) 0.67036(19) 0.14815(12)
O10 O 0.33883(13) 0.5001(2) 0.07641(14)
O11 O 0.06485(13) 0.4858(3) 0.09460(16)
O12 O 0.05890(12) 0.4826(2) 0.22866(16)
N15 N 0.33703(14) 0.2237(2) 0.18231(15)
O13 O 0.30312(12) 0.1993(2) 0.09992(13)
O14 O 0.29708(11) 0.2500(2) 0.22967(13)
O15 O 0.41296(12) 0.2181(3) 0.21804(15)
N16 N 0.12914(14) 0.2448(2) 0.33510(16)
O16 O 0.17470(11) 0.2221(2) 0.29203(13)
O17 O 0.15755(12) 0.29658(19) 0.41134(13)
O18 O 0.05521(11) 0.21787(19) 0.30137(13)
loop_
_geom_bond_atom_site_label_1
_geom_bond_atom_site_label_2
_geom_bond_site_symmetry_1
_geom_bond_site_symmetry_2
C1 C2 1_555 1_555
C2 C3 1_555 1_555
C3 C4 1_555 1_555
C4 H1 1_555 1_555
C5 C4 1_555 1_555
C6 C1 1_555 1_555
H2 C6 1_555 1_555
C7 C2 1_555 1_555
H3 C7 1_555 1_555
C8 N3 1_555 1_555
N1 C1 1_555 1_555
N2 C7 1_555 1_555
N3 N2 1_555 1_555
H4 N3 1_555 1_555
N4 C8 1_555 1_555
H5 N4 1_555 1_555
H6 N4 1_555 1_555
N5 C8 1_555 1_555
H7 N5 1_555 1_555
H8 N5 1_555 1_555
N6 C3 1_555 1_555
N7 C5 1_555 1_555
O1 N1 1_555 1_555
O2 N1 1_555 1_555
O3 N6 1_555 1_555
O4 N6 1_555 1_555
O5 N7 1_555 1_555
O6 N7 1_555 1_555
C9 C10 1_555 1_555
C10 C11 1_555 1_555
C11 C12 1_555 1_555
C12 H9 1_555 1_555
C13 C12 1_555 1_555
C14 C9 1_555 1_555
H10 C14 1_555 1_555
C15 C10 1_555 1_555
H11 C15 1_555 1_555
C16 N10 1_555 1_555
N8 C9 1_555 1_555
N9 C15 1_555 1_555
N10 N9 1_555 1_555
H12 N10 1_555 1_555
N11 C16 1_555 1_555
H13 N11 1_555 1_555
H14 N11 1_555 1_555
N12 C16 1_555 1_555
H15 N12 1_555 1_555
H16 N12 1_555 1_555
N13 C11 1_555 1_555
N14 C13 1_555 1_555
O7 N8 1_555 1_555
O8 N8 1_555 1_555
O9 N13 1_555 1_555
O10 N13 1_555 1_555
O11 N14 1_555 1_555
O12 N14 1_555 1_555
N15 O13 1_555 1_555
O14 N15 1_555 1_555
O15 N15 1_555 1_555
N16 O16 1_555 1_555
O17 N16 1_555 1_555
O18 N16 1_555 1_555
C5 C6 1_555 1_555
C13 C14 1_555 1_555

#END
