
#######################################################################
#
#                 Cambridge Crystallographic Data Centre
#                                CCDC 
#
#######################################################################
#
# If this CIF has been generated from an entry in the Cambridge 
# Structural Database, then it will include bibliographic, chemical, 
# crystal, experimental, refinement or atomic coordinate data resulting 
# from the CCDC's data processing and validation procedures.
#
#######################################################################

data_POLZAT
_chemical_formula_moiety         'C27 H23 N5 O2'
_chemical_name_systematic        
2-Amino-7-benzoyl-9-(2-methylphenyl)-8-oxo-3a,4,5,6,6a,7,8,9-octahydro-9bH-benzo[de][1,8]naphthyridine-3,9b-dicarbonitrile
_symmetry_cell_setting           triclinic
_symmetry_space_group_name_H-M   'P -1'
_symmetry_Int_Tables_number      2
_space_group_name_Hall           '-P 1'
loop_
_symmetry_equiv_pos_site_id
_symmetry_equiv_pos_as_xyz
1 x,y,z
2 -x,-y,-z
_cell_length_a                   8.5318(10)
_cell_length_b                   10.724(2)
_cell_length_c                   13.1003(18)
_cell_angle_alpha                74.306(14)
_cell_angle_beta                 87.632(10)
_cell_angle_gamma                81.193(12)
_cell_volume                     1140.32
_cell_formula_units_Z            2
loop_
_atom_site_label
_atom_site_type_symbol
_atom_site_fract_x
_atom_site_fract_y
_atom_site_fract_z
N1 N 0.6439(8) 1.3013(7) 0.7859(5)
N2 N 0.4339(9) 1.2292(8) 0.8887(5)
N3 N 0.2636(10) 1.1224(9) 1.0071(6)
H1 H 0.1839 1.0810 1.0263
H2 H 0.3181 1.1398 1.0540
N4 N -0.0126(10) 1.0167(9) 0.8576(7)
N5 N 0.5858(11) 0.9300(9) 0.7647(7)
O1 O 0.8801(8) 1.3367(7) 0.7055(5)
O2 O 0.7044(9) 1.4669(7) 0.5000(5)
C1 C 0.7567(12) 1.2973(9) 0.7036(7)
C2 C 0.7095(10) 1.2523(9) 0.6108(6)
H3 H 0.7681 1.1655 0.6132
C3 C 0.5311(10) 1.2498(9) 0.6062(6)
H4 H 0.4778 1.3406 0.5899
C4 C 0.4723(10) 1.1777(9) 0.7150(6)
C5 C 0.5140(10) 1.2358(8) 0.8028(7)
C6 C 0.3029(11) 1.1600(10) 0.9038(7)
C7 C 0.2269(11) 1.1387(9) 0.8222(7)
C8 C 0.2875(11) 1.1929(9) 0.7101(7)
H5 H 0.2471 1.2868 0.6878
C9 C 0.2374(12) 1.1315(10) 0.6270(7)
H6 H 0.1226 1.1427 0.6239
H7 H 0.2762 1.0383 0.6471
C10 C 0.3022(11) 1.1938(11) 0.5183(7)
H8 H 0.2522 1.2842 0.4941
H9 H 0.2761 1.1480 0.4682
C11 C 0.4829(11) 1.1891(10) 0.5209(7)
H10 H 0.5338 1.0988 0.5353
H11 H 0.5189 1.2363 0.4521
C12 C 0.6815(12) 1.3645(11) 0.8662(8)
C13 C 0.6212(14) 1.4937(12) 0.8530(8)
C14 C 0.6598(15) 1.5560(13) 0.9275(10)
H12 H 0.6200 1.6436 0.9208
C15 C 0.7555(16) 1.4875(16) 1.0093(12)
H13 H 0.7816 1.5297 1.0582
C16 C 0.8162(16) 1.3573(16) 1.0233(10)
H14 H 0.8821 1.3130 1.0805
C17 C 0.7781(13) 1.2931(13) 0.9511(9)
H15 H 0.8161 1.2049 0.9593
C18 C 0.5190(16) 1.5672(11) 0.7624(9)
H16 H 0.5738 1.5636 0.6976
H17 H 0.4930 1.6568 0.7645
H18 H 0.4233 1.5293 0.7660
C19 C 0.7567(11) 1.3531(10) 0.5119(7)
C20 C 0.8665(11) 1.3124(9) 0.4304(7)
C21 C 0.9341(12) 1.4091(10) 0.3569(7)
H19 H 0.9155 1.4950 0.3618
C22 C 1.0294(13) 1.3779(12) 0.2759(8)
H20 H 1.0751 1.4428 0.2273
C23 C 1.0556(12) 1.2530(12) 0.2678(8)
H21 H 1.1191 1.2328 0.2133
C24 C 0.9888(12) 1.1555(11) 0.3395(8)
H22 H 1.0060 1.0704 0.3326
C25 C 0.8960(12) 1.1845(10) 0.4220(7)
H23 H 0.8537 1.1184 0.4715
C26 C 0.0935(12) 1.0733(10) 0.8408(7)
C27 C 0.5403(12) 1.0361(10) 0.7435(7)
loop_
_geom_bond_atom_site_label_1
_geom_bond_atom_site_label_2
_geom_bond_site_symmetry_1
_geom_bond_site_symmetry_2
N1 C1 1_555 1_555
N2 C5 1_555 1_555
N3 H1 1_555 1_555
H2 N3 1_555 1_555
N4 C26 1_555 1_555
N5 C27 1_555 1_555
O1 C1 1_555 1_555
O2 C19 1_555 1_555
C1 C2 1_555 1_555
C2 H3 1_555 1_555
C3 C2 1_555 1_555
H4 C3 1_555 1_555
C4 C3 1_555 1_555
C5 N1 1_555 1_555
C6 N2 1_555 1_555
C7 C6 1_555 1_555
C8 C4 1_555 1_555
H5 C8 1_555 1_555
C9 C8 1_555 1_555
H6 C9 1_555 1_555
H7 C9 1_555 1_555
C10 C9 1_555 1_555
H8 C10 1_555 1_555
H9 C10 1_555 1_555
C11 C3 1_555 1_555
H10 C11 1_555 1_555
H11 C11 1_555 1_555
C12 N1 1_555 1_555
C13 C12 1_555 1_555
C14 C13 1_555 1_555
H12 C14 1_555 1_555
C15 C14 1_555 1_555
H13 C15 1_555 1_555
C16 C15 1_555 1_555
H14 C16 1_555 1_555
C17 C12 1_555 1_555
H15 C17 1_555 1_555
C18 C13 1_555 1_555
H16 C18 1_555 1_555
H17 C18 1_555 1_555
H18 C18 1_555 1_555
C19 C2 1_555 1_555
C20 C19 1_555 1_555
C21 C20 1_555 1_555
H19 C21 1_555 1_555
C22 C21 1_555 1_555
H20 C22 1_555 1_555
C23 C22 1_555 1_555
H21 C23 1_555 1_555
C24 C23 1_555 1_555
H22 C24 1_555 1_555
C25 C20 1_555 1_555
H23 C25 1_555 1_555
C26 C7 1_555 1_555
C27 C4 1_555 1_555
N3 C6 1_555 1_555
C4 C5 1_555 1_555
C7 C8 1_555 1_555
C10 C11 1_555 1_555
C16 C17 1_555 1_555
C24 C25 1_555 1_555

#END
