
#######################################################################
#
#                 Cambridge Crystallographic Data Centre
#                                CCDC 
#
#######################################################################
#
# If this CIF has been generated from an entry in the Cambridge 
# Structural Database, then it will include bibliographic, chemical, 
# crystal, experimental, refinement or atomic coordinate data resulting 
# from the CCDC's data processing and validation procedures.
#
#######################################################################

data_POMVET
_chemical_formula_moiety         'C12 H17 N3 O2 1+,Cl1 1-'
_chemical_name_systematic        
'4,4,5,5-Tetramethyl-2-(4-pyridinio)imidazoline-1-oxyl-3-oxide chloride'
_symmetry_cell_setting           monoclinic
_symmetry_space_group_name_H-M   'P 21/c'
_symmetry_Int_Tables_number      14
_space_group_name_Hall           '-P 2ybc'
loop_
_symmetry_equiv_pos_site_id
_symmetry_equiv_pos_as_xyz
1 x,y,z
2 -x,1/2+y,1/2-z
3 -x,-y,-z
4 x,1/2-y,1/2+z
_cell_length_a                   10.863(14)
_cell_length_b                   11.927(15)
_cell_length_c                   11.130(15)
_cell_angle_alpha                90
_cell_angle_beta                 102.81(2)
_cell_angle_gamma                90
_cell_volume                     1406.14
_exptl_crystal_colour            black
_exptl_crystal_description       block
_cell_formula_units_Z            4
_exptl_crystal_recrystallization_method acetonitrile/HCl
loop_
_atom_site_label
_atom_site_type_symbol
_atom_site_fract_x
_atom_site_fract_y
_atom_site_fract_z
Cl1 Cl 0.05896(6) 0.43910(4) 0.31130(6)
O1 O 0.64998(19) 1.16127(15) 0.74894(19)
O2 O 0.78794(19) 0.86362(13) 0.53807(17)
N1 N 0.92752(17) 1.26424(15) 0.43535(17)
H1 H 0.9687 1.3101 0.3992
N2 N 0.67191(18) 1.06169(14) 0.71219(17)
N3 N 0.73993(17) 0.92068(14) 0.61433(16)
C1 C 0.8082(2) 1.23103(17) 0.5864(2)
H2 H 0.7700 1.2586 0.6473
C2 C 0.8735(2) 1.30278(18) 0.5247(2)
H3 H 0.8799 1.3784 0.5454
C3 C 0.9190(2) 1.15584(18) 0.4007(2)
H4 H 0.9562 1.1321 0.3375
C4 C 0.8550(2) 1.07904(17) 0.45867(19)
H5 H 0.8484 1.0045 0.4336
C5 C 0.80009(18) 1.11518(16) 0.55597(18)
C6 C 0.73824(19) 1.03513(16) 0.62469(18)
C7 C 0.6107(2) 0.95916(19) 0.7557(2)
C8 C 0.6900(2) 0.86274(18) 0.7158(2)
C9 C 0.6147(3) 0.9682(3) 0.8936(3)
H6 H 0.7009 0.9699 0.9387
H7 H 0.5727 0.9047 0.9193
H8 H 0.5729 1.0358 0.9093
C10 C 0.4731(3) 0.9600(3) 0.6823(3)
H9 H 0.4336 1.0290 0.6972
H10 H 0.4285 0.8981 0.7078
H11 H 0.4713 0.9533 0.5959
C11 C 0.8094(3) 0.8328(3) 0.8176(3)
H12 H 0.8630 0.7836 0.7837
H13 H 0.7839 0.7962 0.8849
H14 H 0.8546 0.9002 0.8465
C12 C 0.6206(4) 0.7561(2) 0.6664(3)
H15 H 0.5572 0.7731 0.5938
H16 H 0.5814 0.7245 0.7279
H17 H 0.6795 0.7031 0.6462
loop_
_geom_bond_atom_site_label_1
_geom_bond_atom_site_label_2
_geom_bond_site_symmetry_1
_geom_bond_site_symmetry_2
O1 N2 1_555 1_555
O2 N3 1_555 1_555
N1 H1 1_555 1_555
N2 C6 1_555 1_555
N3 C6 1_555 1_555
C1 H2 1_555 1_555
C2 N1 1_555 1_555
H3 C2 1_555 1_555
C3 N1 1_555 1_555
H4 C3 1_555 1_555
C4 C3 1_555 1_555
H5 C4 1_555 1_555
C5 C1 1_555 1_555
C6 C5 1_555 1_555
C7 N2 1_555 1_555
C8 N3 1_555 1_555
C9 C7 1_555 1_555
H6 C9 1_555 1_555
H7 C9 1_555 1_555
H8 C9 1_555 1_555
C10 C7 1_555 1_555
H9 C10 1_555 1_555
H10 C10 1_555 1_555
H11 C10 1_555 1_555
C11 C8 1_555 1_555
H12 C11 1_555 1_555
H13 C11 1_555 1_555
H14 C11 1_555 1_555
C12 C8 1_555 1_555
H15 C12 1_555 1_555
H16 C12 1_555 1_555
H17 C12 1_555 1_555
C1 C2 1_555 1_555
C4 C5 1_555 1_555
C7 C8 1_555 1_555

#END
