
#######################################################################
#
#                 Cambridge Crystallographic Data Centre
#                                CCDC 
#
#######################################################################
#
# If this CIF has been generated from an entry in the Cambridge 
# Structural Database, then it will include bibliographic, chemical, 
# crystal, experimental, refinement or atomic coordinate data resulting 
# from the CCDC's data processing and validation procedures.
#
#######################################################################

data_POMYOG
_chemical_formula_moiety         'C19 H19 F1 O2'
_chemical_name_systematic        
3-(4-t-Butylphenyl)-1-(4-fluorophenyl)-3-hydroxyprop-2-en-1-one
_symmetry_cell_setting           monoclinic
_symmetry_space_group_name_H-M   'P 21/n'
_symmetry_Int_Tables_number      14
_space_group_name_Hall           '-P 2yn'
loop_
_symmetry_equiv_pos_site_id
_symmetry_equiv_pos_as_xyz
1 x,y,z
2 1/2-x,1/2+y,1/2-z
3 -x,-y,-z
4 1/2+x,1/2-y,1/2+z
_cell_length_a                   9.8349(12)
_cell_length_b                   10.0163(13)
_cell_length_c                   16.232(2)
_cell_angle_alpha                90
_cell_angle_beta                 97.788(2)
_cell_angle_gamma                90
_cell_volume                     1584.25
_exptl_crystal_colour            colorless
_exptl_crystal_description       block
_chemical_melting_point          '388 K'
_cell_formula_units_Z            4
_exptl_crystal_recrystallization_method ethanol/chloroform
loop_
_atom_site_label
_atom_site_type_symbol
_atom_site_fract_x
_atom_site_fract_y
_atom_site_fract_z
C1 C 0.12996(18) 0.09274(19) -0.07276(10)
C2 C 0.0803(2) 0.2198(2) -0.08119(10)
H1 H 0.0522 0.2559 -0.1335
C3 C 0.07296(18) 0.29335(17) -0.01033(9)
H2 H 0.0401 0.3805 -0.0150
C4 C 0.11376(15) 0.23969(16) 0.06796(9)
C5 C 0.16498(16) 0.11083(17) 0.07303(9)
H3 H 0.1943 0.0741 0.1250
C6 C 0.17340(17) 0.03602(18) 0.00290(10)
H4 H 0.2076 -0.0506 0.0068
C7 C 0.09992(16) 0.32242(16) 0.14225(9)
C8 C 0.11727(16) 0.27023(16) 0.22333(9)
H5 H 0.1464 0.1824 0.2321
C9 C 0.09179(16) 0.34703(16) 0.29012(9)
C10 C 0.09963(16) 0.29479(16) 0.37555(9)
C11 C 0.01481(18) 0.34617(16) 0.42948(10)
H6 H -0.0459 0.4148 0.4118
C12 C 0.01961(17) 0.29659(17) 0.50883(10)
H7 H -0.0396 0.3319 0.5432
C13 C 0.10956(15) 0.19580(15) 0.53959(9)
C14 C 0.19521(17) 0.14742(17) 0.48502(9)
H8 H 0.2580 0.0808 0.5032
C15 C 0.19034(17) 0.19472(17) 0.40495(9)
H9 H 0.2488 0.1589 0.3702
C16 C 0.11634(16) 0.14446(16) 0.62880(9)
C17 C -0.02548(19) 0.1488(2) 0.65807(11)
H10 H -0.0544 0.2400 0.6614
H11 H -0.0205 0.1080 0.7119
H12 H -0.0903 0.1012 0.6193
C18 C 0.2134(2) 0.2360(2) 0.68505(10)
H13 H 0.3020 0.2364 0.6664
H14 H 0.2221 0.2039 0.7412
H15 H 0.1770 0.3250 0.6827
C19 C 0.1691(2) 0.00150(18) 0.63681(12)
H16 H 0.1140 -0.0541 0.5973
H17 H 0.1639 -0.0305 0.6920
H18 H 0.2628 -0.0010 0.6262
F1 F 0.13561(14) 0.01881(12) -0.14199(6)
O1 O 0.06597(13) 0.44469(12) 0.12968(7)
O2 O 0.05431(14) 0.47163(12) 0.27994(8)
H19 H 0.050(2) 0.485(2) 0.2088(15)
loop_
_geom_bond_atom_site_label_1
_geom_bond_atom_site_label_2
_geom_bond_site_symmetry_1
_geom_bond_site_symmetry_2
C1 C2 1_555 1_555
C2 H1 1_555 1_555
C3 C2 1_555 1_555
H2 C3 1_555 1_555
C4 C3 1_555 1_555
C5 C4 1_555 1_555
H3 C5 1_555 1_555
C6 C1 1_555 1_555
H4 C6 1_555 1_555
C7 C4 1_555 1_555
C8 C7 1_555 1_555
H5 C8 1_555 1_555
C9 C8 1_555 1_555
C10 C9 1_555 1_555
C11 C10 1_555 1_555
H6 C11 1_555 1_555
C12 C11 1_555 1_555
H7 C12 1_555 1_555
C13 C12 1_555 1_555
C14 C13 1_555 1_555
H8 C14 1_555 1_555
C15 C10 1_555 1_555
H9 C15 1_555 1_555
C16 C13 1_555 1_555
C17 C16 1_555 1_555
H10 C17 1_555 1_555
H11 C17 1_555 1_555
H12 C17 1_555 1_555
C18 C16 1_555 1_555
H13 C18 1_555 1_555
H14 C18 1_555 1_555
H15 C18 1_555 1_555
C19 C16 1_555 1_555
H16 C19 1_555 1_555
H17 C19 1_555 1_555
H18 C19 1_555 1_555
F1 C1 1_555 1_555
O1 C7 1_555 1_555
O2 C9 1_555 1_555
H19 O2 1_555 1_555
C5 C6 1_555 1_555
C14 C15 1_555 1_555

#END
