
#######################################################################
#
#                 Cambridge Crystallographic Data Centre
#                                CCDC 
#
#######################################################################
#
# If this CIF has been generated from an entry in the Cambridge 
# Structural Database, then it will include bibliographic, chemical, 
# crystal, experimental, refinement or atomic coordinate data resulting 
# from the CCDC's data processing and validation procedures.
#
#######################################################################

data_POMZEX
_chemical_formula_moiety         'C16 H24 Br2 N2 O2'
_chemical_name_systematic        
3,3'-Dibromo-4,4'-((1R,2R)-cyclohexane-1,2-diyldi-imino)dipent-3-en-2-one
_symmetry_cell_setting           monoclinic
_symmetry_space_group_name_H-M   'P 21'
_symmetry_Int_Tables_number      4
_space_group_name_Hall           'P 2yb'
loop_
_symmetry_equiv_pos_site_id
_symmetry_equiv_pos_as_xyz
1 x,y,z
2 -x,1/2+y,-z
_cell_length_a                   9.249(5)
_cell_length_b                   9.350(6)
_cell_length_c                   21.82(2)
_cell_angle_alpha                90
_cell_angle_beta                 99.122(13)
_cell_angle_gamma                90
_cell_volume                     1863.09
_exptl_crystal_colour            colorless
_exptl_crystal_description       prism
_cell_formula_units_Z            4
_exptl_crystal_recrystallization_method dichloromethane/ethanol
loop_
_atom_site_label
_atom_site_type_symbol
_atom_site_fract_x
_atom_site_fract_y
_atom_site_fract_z
C1 C 0.1762(11) 0.3858(14) 0.3222(5)
H1 H 0.2497 0.3346 0.3045
H2 H 0.1468 0.4689 0.2975
H3 H 0.0929 0.3250 0.3230
C2 C 0.1713(12) 0.9661(18) 0.3226(5)
H4 H 0.0735 0.9879 0.3029
H5 H 0.2099 0.8896 0.3007
H6 H 0.2319 1.0493 0.3221
C5 C 0.2376(11) 0.4310(12) 0.3872(4)
C6 C 0.3634(9) 0.5293(10) 0.4000(4)
C7 C 0.4082(8) 0.5911(10) 0.4549(4)
C8 C 0.5318(9) 0.6972(11) 0.4656(4)
H13 H 0.4926 0.7922 0.4662
H14 H 0.5895 0.6896 0.4329
H15 H 0.5922 0.6776 0.5047
C9 C 0.3513(9) 0.6388(10) 0.5616(3)
H16 H 0.4254 0.7139 0.5619
C10 C 0.3927(9) 0.5475(11) 0.6202(4)
H17 H 0.3207 0.4722 0.6209
H18 H 0.4872 0.5029 0.6196
C11 C 0.3994(10) 0.6376(11) 0.6772(4)
H19 H 0.4779 0.7067 0.6782
H20 H 0.4220 0.5771 0.7136
C12 C 0.2550(10) 0.7176(12) 0.6800(4)
H21 H 0.2673 0.7807 0.7157
H22 H 0.1785 0.6493 0.6847
C13 C 0.2096(10) 0.8057(11) 0.6204(4)
H23 H 0.1151 0.8499 0.6215
H24 H 0.2805 0.8813 0.6183
C14 C 0.2002(8) 0.7125(9) 0.5630(3)
H25 H 0.1257 0.6386 0.5646
C15 C -0.0578(9) 0.6500(11) 0.4709(4)
H26 H -0.1318 0.6411 0.4349
H27 H -0.1019 0.6817 0.5055
H28 H -0.0119 0.5589 0.4804
C16 C 0.0560(8) 0.7578(10) 0.4581(4)
C17 C 0.0573(9) 0.8253(10) 0.4022(4)
C18 C 0.1691(11) 0.9218(11) 0.3882(5)
N1 N 0.3468(6) 0.5565(7) 0.5046(3)
H45 H 0.2996 0.4770 0.5026
N2 N 0.1623(6) 0.7941(8) 0.5063(3)
H46 H 0.2105 0.8715 0.5028
O1 O 0.1794(7) 0.3886(7) 0.4302(3)
O2 O 0.2644(7) 0.9658(7) 0.4308(3)
Br1 Br 0.44737(12) 0.58781(14) 0.32986(5)
Br2 Br -0.08805(11) 0.76970(15) 0.33409(5)
C3 C 0.5609(13) 0.7298(16) 0.1865(4)
H7 H 0.4725 0.7689 0.1975
H8 H 0.6440 0.7704 0.2127
H9 H 0.5612 0.6279 0.1919
C4 C 1.1245(13) 0.7174(16) 0.1748(4)
H10 H 1.2105 0.7738 0.1732
H11 H 1.1522 0.6277 0.1947
H12 H 1.0604 0.7677 0.1979
C19 C 0.5690(10) 0.7649(12) 0.1194(4)
C20 C 0.6550(9) 0.8842(10) 0.1036(4)
C21 C 0.6869(9) 0.9063(9) 0.0454(4)
C22 C 0.7836(10) 1.0251(10) 0.0312(4)
H29 H 0.8836 1.0023 0.0474
H30 H 0.7563 1.1118 0.0501
H31 H 0.7731 1.0379 -0.0129
C23 C 0.6848(8) 0.8009(8) -0.0591(4)
H32 H 0.7621 0.8716 -0.0611
C24 C 0.5697(10) 0.8218(10) -0.1152(4)
H33 H 0.5299 0.9176 -0.1146
H34 H 0.4905 0.7545 -0.1138
C25 C 0.6317(11) 0.8001(12) -0.1745(4)
H35 H 0.5537 0.8106 -0.2096
H36 H 0.7042 0.8735 -0.1777
C26 C 0.7009(12) 0.6564(15) -0.1775(4)
H37 H 0.7474 0.6501 -0.2143
H38 H 0.6268 0.5824 -0.1799
C27 C 0.8189(10) 0.6342(11) -0.1174(4)
H39 H 0.8597 0.5387 -0.1179
H40 H 0.8980 0.7021 -0.1177
C28 C 0.7536(9) 0.6538(9) -0.0592(4)
H41 H 0.6771 0.5817 -0.0583
C29 C 0.7431(10) 0.4321(10) 0.0342(5)
H42 H 0.6476 0.4693 0.0370
H43 H 0.7692 0.3612 0.0659
H44 H 0.7423 0.3894 -0.0058
C30 C 0.8524(8) 0.5509(9) 0.0430(4)
C31 C 0.9422(9) 0.5755(10) 0.0989(4)
C32 C 1.0469(10) 0.6904(13) 0.1100(5)
N3 N 0.6301(6) 0.8226(7) -0.0014(3)
H47 H 0.5522 0.7761 0.0032
N4 N 0.8647(6) 0.6349(7) -0.0047(3)
H48 H 0.9450 0.6820 -0.0034
O3 O 0.5019(7) 0.6859(8) 0.0789(3)
O4 O 1.0671(6) 0.7704(8) 0.0690(3)
Br3 Br 0.74344(13) 1.00453(13) 0.17037(5)
Br4 Br 0.91939(13) 0.45712(13) 0.16842(5)
loop_
_geom_bond_atom_site_label_1
_geom_bond_atom_site_label_2
_geom_bond_site_symmetry_1
_geom_bond_site_symmetry_2
C1 H1 1_555 1_555
H2 C1 1_555 1_555
H3 C1 1_555 1_555
C2 H4 1_555 1_555
H5 C2 1_555 1_555
H6 C2 1_555 1_555
C3 H7 1_555 1_555
H8 C3 1_555 1_555
H9 C3 1_555 1_555
C4 H10 1_555 1_555
H11 C4 1_555 1_555
H12 C4 1_555 1_555
C5 C1 1_555 1_555
C6 C5 1_555 1_555
C7 C6 1_555 1_555
C8 C7 1_555 1_555
H13 C8 1_555 1_555
H14 C8 1_555 1_555
H15 C8 1_555 1_555
C9 H16 1_555 1_555
C10 C9 1_555 1_555
H17 C10 1_555 1_555
H18 C10 1_555 1_555
C11 C10 1_555 1_555
H19 C11 1_555 1_555
H20 C11 1_555 1_555
C12 C11 1_555 1_555
H21 C12 1_555 1_555
H22 C12 1_555 1_555
C13 C12 1_555 1_555
H23 C13 1_555 1_555
H24 C13 1_555 1_555
C14 C9 1_555 1_555
H25 C14 1_555 1_555
C15 H26 1_555 1_555
H27 C15 1_555 1_555
H28 C15 1_555 1_555
C16 C15 1_555 1_555
C17 C16 1_555 1_555
C18 C2 1_555 1_555
C19 C3 1_555 1_555
C20 C19 1_555 1_555
C21 C20 1_555 1_555
C22 C21 1_555 1_555
H29 C22 1_555 1_555
H30 C22 1_555 1_555
H31 C22 1_555 1_555
C23 H32 1_555 1_555
C24 C23 1_555 1_555
H33 C24 1_555 1_555
H34 C24 1_555 1_555
C25 C24 1_555 1_555
H35 C25 1_555 1_555
H36 C25 1_555 1_555
C26 C25 1_555 1_555
H37 C26 1_555 1_555
H38 C26 1_555 1_555
C27 C26 1_555 1_555
H39 C27 1_555 1_555
H40 C27 1_555 1_555
C28 C23 1_555 1_555
H41 C28 1_555 1_555
C29 H42 1_555 1_555
H43 C29 1_555 1_555
H44 C29 1_555 1_555
C30 C29 1_555 1_555
C31 C30 1_555 1_555
C32 C4 1_555 1_555
N1 C7 1_555 1_555
H45 N1 1_555 1_555
N2 C14 1_555 1_555
H46 N2 1_555 1_555
N3 C21 1_555 1_555
H47 N3 1_555 1_555
N4 C28 1_555 1_555
H48 N4 1_555 1_555
O1 C5 1_555 1_555
O2 C18 1_555 1_555
O3 C19 1_555 1_555
O4 C32 1_555 1_555
Br1 C6 1_555 1_555
Br2 C17 1_555 1_555
Br3 C20 1_555 1_555
Br4 C31 1_555 1_555
C9 N1 1_555 1_555
C13 C14 1_555 1_555
C16 N2 1_555 1_555
C17 C18 1_555 1_555
C23 N3 1_555 1_555
C27 C28 1_555 1_555
C30 N4 1_555 1_555
C31 C32 1_555 1_555

#END
