
#######################################################################
#
#                 Cambridge Crystallographic Data Centre
#                                CCDC 
#
#######################################################################
#
# If this CIF has been generated from an entry in the Cambridge 
# Structural Database, then it will include bibliographic, chemical, 
# crystal, experimental, refinement or atomic coordinate data resulting 
# from the CCDC's data processing and validation procedures.
#
#######################################################################

data_PONKOU
_chemical_formula_moiety         
'C67 H15 F29 N6 Si1,0.45(C6 H14),2.11(C1 H2 Cl2)'
_chemical_name_systematic        
'(4,5,6,7-tetrafluoro-14,19,24,29,34-pentakis(pentafluorophenyl)-9,38,39,40,41,42-hexaazanonacyclo[33.2.1.1^15,18^.1^20,23^.1^25,28^.1^30,33^.0^2,10^.0^3,8^.0^9,13^]dotetraconta-1,3,5,7,10,12,14,16,18,20(41),21,23,25(40),26,28,30(39),31,33,35(38),36-icosaene)-methyl-silicaon dichloromethane hexane solvate'
_symmetry_cell_setting           triclinic
_symmetry_space_group_name_H-M   'P -1'
_symmetry_Int_Tables_number      2
_space_group_name_Hall           '-P 1'
loop_
_symmetry_equiv_pos_site_id
_symmetry_equiv_pos_as_xyz
1 x,y,z
2 -x,-y,-z
_cell_length_a                   13.682(4)
_cell_length_b                   14.001(3)
_cell_length_c                   17.837(4)
_cell_angle_alpha                86.41(2)
_cell_angle_beta                 82.03(2)
_cell_angle_gamma                80.07(3)
_cell_volume                     3330.56
_exptl_crystal_colour            violet
_exptl_crystal_description       prism
_cell_formula_units_Z            2
loop_
_atom_site_label
_atom_site_type_symbol
_atom_site_fract_x
_atom_site_fract_y
_atom_site_fract_z
C1 C -0.0220(2) 0.9267(2) 0.21231(19)
C2 C 0.0277(3) 0.9970(2) 0.1693(2)
H1 H -0.0036 1.0551 0.1461
C3 C 0.1279(3) 0.9665(2) 0.1669(2)
H2 H 0.1790 0.9978 0.1397
C4 C 0.1424(2) 0.8795(2) 0.21235(18)
C5 C 0.2317(2) 0.8297(2) 0.23243(18)
C6 C 0.2380(2) 0.7607(2) 0.29223(18)
C7 C 0.3254(2) 0.7076(2) 0.31835(19)
H3 H 0.3924 0.7073 0.2955
C8 C 0.2947(2) 0.6569(2) 0.38289(19)
H4 H 0.3365 0.6131 0.4124
C9 C 0.1890(2) 0.6818(2) 0.39760(18)
C10 C 0.1374(3) 0.6597(2) 0.47285(18)
C11 C 0.1607(3) 0.5670(3) 0.50376(19)
C12 C 0.1553(3) 0.5312(3) 0.5830(2)
H5 H 0.1233 0.5663 0.6260
C13 C 0.2040(3) 0.4395(3) 0.5834(2)
H6 H 0.2139 0.3984 0.6271
C14 C 0.2390(3) 0.4138(3) 0.50525(19)
C15 C 0.2948(3) 0.3271(3) 0.4755(2)
C16 C 0.3118(3) 0.3161(3) 0.3965(2)
C17 C 0.3812(3) 0.2435(3) 0.3515(2)
H7 H 0.4285 0.1930 0.3703
C18 C 0.3659(3) 0.2613(3) 0.2783(2)
H8 H 0.4021 0.2271 0.2361
C19 C 0.2840(3) 0.3424(2) 0.27612(18)
C20 C 0.2275(2) 0.3795(2) 0.21942(18)
C21 C 0.1522(2) 0.4653(2) 0.23430(18)
C22 C 0.1632(2) 0.5534(2) 0.26150(18)
H9 H 0.2231 0.5664 0.2770
C23 C 0.0723(2) 0.6217(2) 0.26290(18)
C24 C 0.0070(2) 0.5702(2) 0.23630(18)
C25 C -0.0960(2) 0.5848(2) 0.22931(18)
C26 C -0.1491(2) 0.6775(2) 0.23607(18)
C27 C -0.2507(2) 0.7186(2) 0.22609(19)
H10 H -0.3029 0.6838 0.2206
C28 C -0.2577(2) 0.8166(2) 0.22609(19)
H11 H -0.3161 0.8632 0.2214
C29 C -0.1603(2) 0.8365(2) 0.23453(18)
C30 C -0.1249(2) 0.9236(2) 0.21912(19)
C31 C 0.3251(2) 0.8607(2) 0.19226(18)
C32 C 0.3624(2) 0.9379(2) 0.21764(19)
C33 C 0.4427(3) 0.9739(2) 0.1768(2)
C34 C 0.4882(3) 0.9321(3) 0.1104(2)
C35 C 0.4546(3) 0.8548(3) 0.0844(2)
C36 C 0.3735(3) 0.8200(3) 0.1257(2)
C37 C 0.0828(3) 0.7404(3) 0.51980(18)
C38 C -0.0051(3) 0.7333(3) 0.5693(2)
C39 C -0.0562(3) 0.8089(3) 0.6124(2)
C40 C -0.0213(3) 0.8963(3) 0.6077(2)
C41 C 0.0649(3) 0.9060(3) 0.5603(2)
C42 C 0.1155(3) 0.8297(3) 0.5177(2)
C43 C 0.3349(3) 0.2439(3) 0.5243(2)
C44 C 0.3934(3) 0.2511(3) 0.5808(2)
C45 C 0.4345(3) 0.1698(3) 0.6222(2)
C46 C 0.4212(3) 0.0789(3) 0.6061(2)
C47 C 0.3630(3) 0.0681(3) 0.5510(2)
C48 C 0.3190(3) 0.1497(3) 0.5127(2)
C49 C 0.2450(2) 0.3361(2) 0.14419(19)
C50 C 0.2591(3) 0.2368(3) 0.13309(19)
C51 C 0.2765(3) 0.1984(3) 0.0624(2)
C52 C 0.2797(3) 0.2596(3) -0.0011(2)
C53 C 0.2657(3) 0.3585(3) 0.0066(2)
C54 C 0.2487(3) 0.3955(3) 0.0780(2)
C55 C -0.0230(2) 0.4248(2) 0.20589(18)
C56 C -0.0218(3) 0.3280(3) 0.1940(2)
C57 C -0.1098(3) 0.2985(3) 0.1818(3)
C58 C -0.1988(3) 0.3624(3) 0.1840(3)
C59 C -0.2016(3) 0.4583(2) 0.1994(2)
C60 C -0.1153(2) 0.4910(2) 0.21047(18)
F1 F 0.06096(16) 0.26143(15) 0.19353(15)
F2 F -0.10881(19) 0.20478(17) 0.1693(2)
F3 F -0.28246(18) 0.33123(17) 0.1727(2)
F4 F -0.29035(14) 0.51733(14) 0.20514(12)
C61 C -0.1955(2) 1.0071(2) 0.1916(2)
C62 C -0.2625(3) 1.0667(3) 0.2415(2)
C63 C -0.3360(3) 1.1373(3) 0.2166(2)
C64 C -0.3432(3) 1.1505(3) 0.1402(2)
C65 C -0.2774(3) 1.0931(3) 0.0893(2)
C66 C -0.2053(3) 1.0223(3) 0.1153(2)
N1 N 0.0487(2) 0.85421(19) 0.23959(15)
N2 N 0.1529(2) 0.74354(19) 0.34097(15)
N3 N 0.2086(2) 0.4917(2) 0.45940(16)
N4 N 0.2595(2) 0.3752(2) 0.34859(16)
H12 H 0.2160 0.4273 0.3616
N5 N 0.0522(2) 0.47669(19) 0.21907(15)
N6 N -0.0966(2) 0.75081(19) 0.24563(15)
F5 F 0.33969(16) 0.74668(16) 0.09845(12)
F6 F 0.49864(18) 0.81501(19) 0.01957(13)
F7 F 0.56447(17) 0.96841(17) 0.07011(13)
F8 F 0.47551(16) 1.04976(16) 0.20133(13)
F9 F 0.31843(15) 0.98051(15) 0.28135(12)
F10 F 0.20010(16) 0.84395(15) 0.47353(12)
F11 F 0.10001(19) 0.99069(16) 0.55577(15)
F12 F -0.0708(2) 0.97103(18) 0.64847(14)
F13 F -0.14059(18) 0.79914(18) 0.65767(12)
F14 F -0.04501(16) 0.65192(15) 0.57284(12)
F15 F 0.41327(18) 0.33764(17) 0.59670(13)
F16 F 0.4888(2) 0.1811(2) 0.67760(15)
F17 F 0.4626(2) 0.00065(19) 0.64517(17)
F18 F 0.3488(2) -0.02024(16) 0.53538(15)
F19 F 0.25959(18) 0.13565(16) 0.46242(13)
F20 F 0.25211(16) 0.17267(14) 0.19221(11)
F21 F 0.28837(19) 0.10197(16) 0.05522(13)
F22 F 0.2983(2) 0.2224(2) -0.07019(13)
F23 F 0.2703(3) 0.4180(2) -0.05501(13)
F24 F 0.23775(19) 0.49188(15) 0.08267(12)
F25 F -0.14455(18) 0.96558(17) 0.06405(13)
F26 F -0.2849(2) 1.10463(18) 0.01503(14)
F27 F -0.41522(17) 1.21809(16) 0.11655(15)
F28 F -0.40106(17) 1.19181(18) 0.26587(15)
F29 F -0.25700(17) 1.05507(17) 0.31598(13)
C67 C -0.0557(3) 0.7735(3) 0.38888(19)
H13 H -0.0280 0.8186 0.4166
H14 H -0.0585 0.7130 0.4193
H15 H -0.1233 0.8027 0.3789
Si1 Si 0.02554(6) 0.74702(6) 0.29736(5)
Cl1 Cl 0.0063(3) 0.6117(3) 0.02314(16)
Cl2 Cl 0.0547(6) 0.7984(4) 0.0199(4)
C68 C 0.0638(13) 0.6981(10) 0.0569(6)
H16 H 0.0374 0.7053 0.1112
H17 H 0.1360 0.6715 0.0543
C69 C 0.6144(10) 0.3827(10) 0.3626(8)
H18 H 0.6392 0.4419 0.3404
H19 H 0.5725 0.3634 0.3270
Cl3 Cl 0.7212(3) 0.2875(2) 0.3669(3)
Cl4 Cl 0.5420(4) 0.4114(5) 0.4416(2)
C70 C 0.4641(5) 0.5356(5) 0.1788(5)
H20 H 0.5116 0.5806 0.1788
H21 H 0.4642 0.4944 0.2254
H22 H 0.3969 0.5724 0.1764
C71 C 0.4946(4) 0.4729(5) 0.1111(4)
H23 H 0.4533 0.4208 0.1158
H24 H 0.5654 0.4417 0.1108
C72 C 0.4830(4) 0.5304(4) 0.0348(4)
H25 H 0.4117 0.5594 0.0345
H26 H 0.5220 0.5842 0.0313
C70A C 0.5359(5) 0.4644(5) -0.1788(5)
H20A H 0.4884 0.4194 -0.1788
H21A H 0.5358 0.5056 -0.2254
H22A H 0.6031 0.4276 -0.1764
C71A C 0.5054(4) 0.5271(5) -0.1111(4)
H23A H 0.5467 0.5792 -0.1158
H24A H 0.4346 0.5583 -0.1108
C72A C 0.5170(4) 0.4696(4) -0.0348(4)
H25A H 0.5883 0.4406 -0.0345
H26A H 0.4780 0.4158 -0.0313
C73? C 0.6374(10) 0.4214(8) 0.4064(7)
H27? H 0.6342 0.4621 0.4504
H28? H 0.7003 0.4243 0.3721
Cl5? Cl 0.6178(5) 0.2742(6) 0.4400(3)
Cl6? Cl 0.5255(12) 0.4539(8) 0.3566(10)
C74? C 0.436(3) 0.545(2) 0.1704(18)
H29? H 0.4447 0.5024 0.1267
H30? H 0.3650 0.5768 0.1806
Cl7? Cl 0.4811(9) 0.4846(9) 0.2507(7)
Cl8? Cl 0.5203(12) 0.6263(11) 0.1613(11)
loop_
_geom_bond_atom_site_label_1
_geom_bond_atom_site_label_2
_geom_bond_site_symmetry_1
_geom_bond_site_symmetry_2
C1 C2 1_555 1_555
C2 H1 1_555 1_555
C3 C2 1_555 1_555
H2 C3 1_555 1_555
C4 C3 1_555 1_555
C5 C4 1_555 1_555
C6 C5 1_555 1_555
C7 C6 1_555 1_555
H3 C7 1_555 1_555
C8 C7 1_555 1_555
H4 C8 1_555 1_555
C9 C8 1_555 1_555
C10 C9 1_555 1_555
C11 C10 1_555 1_555
C12 C11 1_555 1_555
H5 C12 1_555 1_555
C13 C12 1_555 1_555
H6 C13 1_555 1_555
C14 C13 1_555 1_555
C15 C14 1_555 1_555
C16 C15 1_555 1_555
C17 C16 1_555 1_555
H7 C17 1_555 1_555
C18 C17 1_555 1_555
H8 C18 1_555 1_555
C19 C18 1_555 1_555
C20 C19 1_555 1_555
C21 C20 1_555 1_555
C22 C21 1_555 1_555
H9 C22 1_555 1_555
C23 C22 1_555 1_555
C24 C23 1_555 1_555
C25 C24 1_555 1_555
C26 C25 1_555 1_555
C27 C26 1_555 1_555
H10 C27 1_555 1_555
C28 C27 1_555 1_555
H11 C28 1_555 1_555
C29 C28 1_555 1_555
C30 C1 1_555 1_555
C31 C5 1_555 1_555
C32 C31 1_555 1_555
C33 C32 1_555 1_555
C34 C33 1_555 1_555
C35 C34 1_555 1_555
C36 C31 1_555 1_555
C37 C10 1_555 1_555
C38 C37 1_555 1_555
C39 C38 1_555 1_555
C40 C39 1_555 1_555
C41 C40 1_555 1_555
C42 C37 1_555 1_555
C43 C15 1_555 1_555
C44 C43 1_555 1_555
C45 C44 1_555 1_555
C46 C45 1_555 1_555
C47 C46 1_555 1_555
C48 C43 1_555 1_555
C49 C20 1_555 1_555
C50 C49 1_555 1_555
C51 C50 1_555 1_555
C52 C51 1_555 1_555
C53 C52 1_555 1_555
C54 C49 1_555 1_555
C55 C56 1_555 1_555
C56 C57 1_555 1_555
C57 C58 1_555 1_555
C58 C59 1_555 1_555
C59 C60 1_555 1_555
C60 C25 1_555 1_555
F1 C56 1_555 1_555
F2 C57 1_555 1_555
F3 C58 1_555 1_555
F4 C59 1_555 1_555
C61 C30 1_555 1_555
C62 C61 1_555 1_555
C63 C62 1_555 1_555
C64 C63 1_555 1_555
C65 C64 1_555 1_555
C66 C61 1_555 1_555
N1 C1 1_555 1_555
N2 C6 1_555 1_555
N3 C11 1_555 1_555
N4 C16 1_555 1_555
H12 N4 1_555 1_555
N5 C21 1_555 1_555
N6 C26 1_555 1_555
F5 C36 1_555 1_555
F6 C35 1_555 1_555
F7 C34 1_555 1_555
F8 C33 1_555 1_555
F9 C32 1_555 1_555
F10 C42 1_555 1_555
F11 C41 1_555 1_555
F12 C40 1_555 1_555
F13 C39 1_555 1_555
F14 C38 1_555 1_555
F15 C44 1_555 1_555
F16 C45 1_555 1_555
F17 C46 1_555 1_555
F18 C47 1_555 1_555
F19 C48 1_555 1_555
F20 C50 1_555 1_555
F21 C51 1_555 1_555
F22 C52 1_555 1_555
F23 C53 1_555 1_555
F24 C54 1_555 1_555
F25 C66 1_555 1_555
F26 C65 1_555 1_555
F27 C64 1_555 1_555
F28 C63 1_555 1_555
F29 C62 1_555 1_555
C67 H13 1_555 1_555
H14 C67 1_555 1_555
H15 C67 1_555 1_555
Si1 C23 1_555 1_555
Cl1 C68 1_555 1_555
Cl2 C68 1_555 1_555
C68 H16 1_555 1_555
H17 C68 1_555 1_555
C69 H18 1_555 1_555
H19 C69 1_555 1_555
Cl3 C69 1_555 1_555
Cl4 C69 1_555 1_555
C70 H20 1_555 1_555
H21 C70 1_555 1_555
H22 C70 1_555 1_555
C71 C70 1_555 1_555
H23 C71 1_555 1_555
H24 C71 1_555 1_555
C72 C71 1_555 1_555
H25 C72 1_555 1_555
H26 C72 1_555 1_555
C70A H20A 1_555 1_555
H21A C70A 1_555 1_555
H22A C70A 1_555 1_555
C71A C70A 1_555 1_555
H23A C71A 1_555 1_555
H24A C71A 1_555 1_555
C72A C72 1_555 1_555
H25A C72A 1_555 1_555
H26A C72A 1_555 1_555
C4 N1 1_555 1_555
C9 N2 1_555 1_555
C14 N3 1_555 1_555
C19 N4 1_555 1_555
C24 N5 1_555 1_555
C29 C30 1_555 1_555
C29 N6 1_555 1_555
C35 C36 1_555 1_555
C41 C42 1_555 1_555
C47 C48 1_555 1_555
C53 C54 1_555 1_555
C55 C60 1_555 1_555
C55 N5 1_555 1_555
C65 C66 1_555 1_555
N1 Si1 1_555 1_555
N2 Si1 1_555 1_555
N6 Si1 1_555 1_555
C67 Si1 1_555 1_555
C71A C72A 1_555 1_555

#END
