
#######################################################################
#
#                 Cambridge Crystallographic Data Centre
#                                CCDC 
#
#######################################################################
#
# If this CIF has been generated from an entry in the Cambridge 
# Structural Database, then it will include bibliographic, chemical, 
# crystal, experimental, refinement or atomic coordinate data resulting 
# from the CCDC's data processing and validation procedures.
#
#######################################################################

data_PONRUG
_chemical_name_common            2,6-bis(2-hydroxy-2,2-diphenylethyl)pyridine
_chemical_formula_moiety         'C33 H29 N1 O2'
_chemical_name_systematic        
(Pyridine-2,6-diyldimethylene)bis(diphenylmethanol)
_symmetry_cell_setting           monoclinic
_symmetry_space_group_name_H-M   'C c'
_symmetry_Int_Tables_number      9
_space_group_name_Hall           'C -2yc'
loop_
_symmetry_equiv_pos_site_id
_symmetry_equiv_pos_as_xyz
1 x,y,z
2 x,-y,1/2+z
3 1/2+x,1/2+y,z
4 1/2+x,1/2-y,1/2+z
_cell_length_a                   18.492(3)
_cell_length_b                   10.1039(17)
_cell_length_c                   16.097(3)
_cell_angle_alpha                90
_cell_angle_beta                 121.234(2)
_cell_angle_gamma                90
_cell_volume                     2571.66
_exptl_crystal_colour            colorless
_exptl_crystal_description       block
_cell_formula_units_Z            4
_exptl_crystal_recrystallization_method 'light petroleum-ethyl acetate'
loop_
_atom_site_label
_atom_site_type_symbol
_atom_site_fract_x
_atom_site_fract_y
_atom_site_fract_z
C1 C 0.3187(2) 0.9740(4) 0.4335(3)
C2 C 0.2728(3) 0.9343(4) 0.4758(3)
H1 H 0.2837 0.9721 0.5339
C3 C 0.2110(3) 0.8385(4) 0.4312(3)
H2 H 0.1804 0.8102 0.4589
C4 C 0.1957(3) 0.7858(5) 0.3442(3)
H3 H 0.1535 0.7228 0.3115
C5 C 0.2441(2) 0.8281(4) 0.3068(2)
C6 C 0.3866(3) 1.0774(4) 0.4800(3)
H4 H 0.3791 1.1265 0.5269
H5 H 0.3803 1.1391 0.4305
C7 C 0.4777(2) 1.0188(3) 0.5323(2)
C8 C 0.5447(2) 1.1246(4) 0.5841(2)
C9 C 0.5332(3) 1.2363(4) 0.6268(3)
H6 H 0.4815 1.2498 0.6223
C10 C 0.5985(3) 1.3284(4) 0.6764(3)
H7 H 0.5901 1.4024 0.7047
C11 C 0.6736(3) 1.3097(4) 0.6831(3)
H8 H 0.7171 1.3705 0.7169
C12 C 0.6865(3) 1.2012(4) 0.6403(3)
H9 H 0.7380 1.1906 0.6439
C13 C 0.6231(3) 1.1077(4) 0.5919(3)
H10 H 0.6327 1.0338 0.5645
C14 C 0.4830(2) 0.9113(4) 0.6037(3)
C15 C 0.4833(3) 0.9465(4) 0.6872(3)
H11 H 0.4867 1.0353 0.7039
C16 C 0.4785(3) 0.8508(4) 0.7464(3)
H12 H 0.4777 0.8753 0.8016
C17 C 0.4751(3) 0.7177(4) 0.7218(3)
H13 H 0.4713 0.6525 0.7601
C18 C 0.4773(3) 0.6844(4) 0.6424(3)
H14 H 0.4763 0.5953 0.6275
C19 C 0.4810(3) 0.7780(4) 0.5822(3)
H15 H 0.4823 0.7518 0.5275
C20 C 0.2248(2) 0.7717(4) 0.2092(3)
H16 H 0.1883 0.8332 0.1582
H17 H 0.1938 0.6895 0.1974
C21 C 0.3036(2) 0.7445(3) 0.2015(2)
C22 C 0.2752(2) 0.6821(4) 0.1024(2)
C23 C 0.3043(3) 0.5634(4) 0.0909(3)
H18 H 0.3442 0.5168 0.1454
C24 C 0.2749(3) 0.5108(5) -0.0018(3)
H19 H 0.2961 0.4306 -0.0084
C25 C 0.2159(3) 0.5761(4) -0.0816(3)
H20 H 0.1949 0.5396 -0.1430
C26 C 0.1877(3) 0.6941(5) -0.0720(3)
H21 H 0.1476 0.7396 -0.1271
C27 C 0.2175(3) 0.7490(4) 0.0192(3)
H22 H 0.1985 0.8320 0.0243
C28 C 0.3695(2) 0.6555(3) 0.2848(2)
C29 C 0.4551(2) 0.6722(4) 0.3192(3)
H23 H 0.4729 0.7406 0.2954
C30 C 0.5141(3) 0.5866(4) 0.3892(3)
H24 H 0.5714 0.5978 0.4123
C31 C 0.4874(3) 0.4844(4) 0.4249(3)
H25 H 0.5269 0.4271 0.4717
C32 C 0.4018(3) 0.4677(5) 0.3905(3)
H26 H 0.3840 0.3992 0.4143
C33 C 0.3429(2) 0.5532(4) 0.3204(3)
H27 H 0.2856 0.5421 0.2974
N1 N 0.3029(2) 0.9203(3) 0.3487(2)
O1 O 0.49165(17) 0.9616(3) 0.46054(19)
H28 H 0.451(3) 0.917(5) 0.423(4)
O2 O 0.34180(18) 0.8688(3) 0.2017(2)
H29 H 0.352(3) 0.911(5) 0.250(4)
loop_
_geom_bond_atom_site_label_1
_geom_bond_atom_site_label_2
_geom_bond_site_symmetry_1
_geom_bond_site_symmetry_2
C1 C2 1_555 1_555
C2 H1 1_555 1_555
C3 C2 1_555 1_555
H2 C3 1_555 1_555
C4 C3 1_555 1_555
H3 C4 1_555 1_555
C5 C4 1_555 1_555
C6 C1 1_555 1_555
H4 C6 1_555 1_555
H5 C6 1_555 1_555
C7 C6 1_555 1_555
C8 C7 1_555 1_555
C9 C8 1_555 1_555
H6 C9 1_555 1_555
C10 C9 1_555 1_555
H7 C10 1_555 1_555
C11 C10 1_555 1_555
H8 C11 1_555 1_555
C12 C11 1_555 1_555
H9 C12 1_555 1_555
C13 C8 1_555 1_555
H10 C13 1_555 1_555
C14 C7 1_555 1_555
C15 C14 1_555 1_555
H11 C15 1_555 1_555
C16 C15 1_555 1_555
H12 C16 1_555 1_555
C17 C16 1_555 1_555
H13 C17 1_555 1_555
C18 C17 1_555 1_555
H14 C18 1_555 1_555
C19 C14 1_555 1_555
H15 C19 1_555 1_555
C20 C5 1_555 1_555
H16 C20 1_555 1_555
H17 C20 1_555 1_555
C21 C20 1_555 1_555
C22 C21 1_555 1_555
C23 C22 1_555 1_555
H18 C23 1_555 1_555
C24 C23 1_555 1_555
H19 C24 1_555 1_555
C25 C24 1_555 1_555
H20 C25 1_555 1_555
C26 C25 1_555 1_555
H21 C26 1_555 1_555
C27 C22 1_555 1_555
H22 C27 1_555 1_555
C28 C21 1_555 1_555
C29 C28 1_555 1_555
H23 C29 1_555 1_555
C30 C29 1_555 1_555
H24 C30 1_555 1_555
C31 C30 1_555 1_555
H25 C31 1_555 1_555
C32 C31 1_555 1_555
H26 C32 1_555 1_555
C33 C28 1_555 1_555
H27 C33 1_555 1_555
N1 C1 1_555 1_555
O1 C7 1_555 1_555
H28 O1 1_555 1_555
O2 C21 1_555 1_555
H29 O2 1_555 1_555
C5 N1 1_555 1_555
C12 C13 1_555 1_555
C18 C19 1_555 1_555
C26 C27 1_555 1_555
C32 C33 1_555 1_555

#END
