
#######################################################################
#
#                 Cambridge Crystallographic Data Centre
#                                CCDC 
#
#######################################################################
#
# If this CIF has been generated from an entry in the Cambridge 
# Structural Database, then it will include bibliographic, chemical, 
# crystal, experimental, refinement or atomic coordinate data resulting 
# from the CCDC's data processing and validation procedures.
#
#######################################################################

data_PONTES
_chemical_formula_moiety         'C16 H10 O8,2(H2 O1)'
_chemical_name_systematic        
"Biphenyl-3,3',4,4'-tetracarboxylic acid dihydrate"
_symmetry_cell_setting           triclinic
_symmetry_space_group_name_H-M   'P -1'
_symmetry_Int_Tables_number      2
_space_group_name_Hall           '-P 1'
loop_
_symmetry_equiv_pos_site_id
_symmetry_equiv_pos_as_xyz
1 x,y,z
2 -x,-y,-z
_cell_length_a                   5.5858(16)
_cell_length_b                   6.6618(19)
_cell_length_c                   11.086(3)
_cell_angle_alpha                93.126(5)
_cell_angle_beta                 91.404(4)
_cell_angle_gamma                109.110(4)
_cell_volume                     388.821
_exptl_crystal_colour            colorless
_exptl_crystal_description       block
_cell_formula_units_Z            1
_exptl_crystal_recrystallization_method 'nitric acid/water'
loop_
_atom_site_label
_atom_site_type_symbol
_atom_site_fract_x
_atom_site_fract_y
_atom_site_fract_z
O1 O 1.2031(2) 0.8456(2) 0.40618(9)
H1 H 1.2130 0.8530 0.4803
O2 O 0.7989(2) 0.6702(2) 0.43405(9)
O3 O 0.8059(2) 1.09274(19) 0.35300(9)
O4 O 0.5352(2) 1.08299(18) 0.20056(9)
H2 H 0.4952 1.1658 0.2468
C1 C 0.9670(3) 0.7526(2) 0.36863(12)
C2 C 0.9236(2) 0.7450(2) 0.23342(11)
C3 C 1.0093(3) 0.6076(2) 0.16299(12)
H5 H 1.1062 0.5354 0.1992
C4 C 0.9533(3) 0.5744(2) 0.03778(11)
C5 C 0.8074(3) 0.6846(3) -0.01240(12)
H6 H 0.7650 0.6639 -0.0949
C6 C 0.7238(3) 0.8241(3) 0.05735(12)
H7 H 0.6272 0.8963 0.0210
C7 C 0.7815(3) 0.8586(2) 0.18104(11)
C8 C 0.7072(3) 1.0210(2) 0.25400(12)
O1A O 0.7969(2) 0.1544(2) -0.40618(9)
H1A H 0.7870 0.1470 -0.4803
O2A O 1.2011(2) 0.3298(2) -0.43405(9)
O3A O 1.1941(2) -0.09274(19) -0.35300(9)
O4A O 1.4648(2) -0.08299(18) -0.20056(9)
H2A H 1.5048 -0.1658 -0.2468
C1A C 1.0330(3) 0.2474(2) -0.36863(12)
C2A C 1.0764(2) 0.2550(2) -0.23342(11)
C3A C 0.9907(3) 0.3924(2) -0.16299(12)
H5A H 0.8938 0.4646 -0.1992
C4A C 1.0467(3) 0.4256(2) -0.03778(11)
C5A C 1.1926(3) 0.3154(3) 0.01240(12)
H6A H 1.2350 0.3361 0.0949
C6A C 1.2762(3) 0.1759(3) -0.05735(12)
H7A H 1.3728 0.1037 -0.0210
C7A C 1.2185(3) 0.1414(2) -0.18104(11)
C8A C 1.2928(3) -0.0210(2) -0.25400(12)
O5 O 0.3760(2) 0.35552(17) 0.32212(8)
H3 H 0.2608 0.2949 0.3695
H4 H 0.4996 0.4558 0.3561
loop_
_geom_bond_atom_site_label_1
_geom_bond_atom_site_label_2
_geom_bond_site_symmetry_1
_geom_bond_site_symmetry_2
O1 H1 1_555 1_555
O2 C1 1_555 1_555
O3 C8 1_555 1_555
O4 H2 1_555 1_555
O5 H3 1_555 1_555
H4 O5 1_555 1_555
C1 O1 1_555 1_555
C2 C1 1_555 1_555
C3 C2 1_555 1_555
H5 C3 1_555 1_555
C4 C3 1_555 1_555
C5 C4 1_555 1_555
H6 C5 1_555 1_555
C6 C5 1_555 1_555
H7 C6 1_555 1_555
C7 C2 1_555 1_555
C8 O4 1_555 1_555
O1A H1A 1_555 1_555
O2A C1A 1_555 1_555
O3A C8A 1_555 1_555
O4A H2A 1_555 1_555
C1A O1A 1_555 1_555
C2A C1A 1_555 1_555
C3A C2A 1_555 1_555
H5A C3A 1_555 1_555
C4A C4 1_555 1_555
C5A C4A 1_555 1_555
H6A C5A 1_555 1_555
C6A C5A 1_555 1_555
H7A C6A 1_555 1_555
C7A C2A 1_555 1_555
C8A O4A 1_555 1_555
C6 C7 1_555 1_555
C7 C8 1_555 1_555
C3A C4A 1_555 1_555
C6A C7A 1_555 1_555
C7A C8A 1_555 1_555

#END
