
#######################################################################
#
#                 Cambridge Crystallographic Data Centre
#                                CCDC 
#
#######################################################################
#
# If this CIF has been generated from an entry in the Cambridge 
# Structural Database, then it will include bibliographic, chemical, 
# crystal, experimental, refinement or atomic coordinate data resulting 
# from the CCDC's data processing and validation procedures.
#
#######################################################################

data_PONWAS
_chemical_formula_moiety         'C10 H14 N2 O3'
_chemical_name_systematic        
3-amino-5,5-dimethyl-2-(2-nitrovinyl)cyclohex-2-en-1-one
_symmetry_cell_setting           monoclinic
_symmetry_space_group_name_H-M   'P 21/c'
_symmetry_Int_Tables_number      14
_space_group_name_Hall           '-P 2ybc'
loop_
_symmetry_equiv_pos_site_id
_symmetry_equiv_pos_as_xyz
1 x,y,z
2 -x,1/2+y,1/2-z
3 -x,-y,-z
4 x,1/2-y,1/2+z
_cell_length_a                   11.3545(3)
_cell_length_b                   18.1097(5)
_cell_length_c                   10.4689(3)
_cell_angle_alpha                90
_cell_angle_beta                 100.119(2)
_cell_angle_gamma                90
_cell_volume                     2119.2
_exptl_crystal_colour            yellow
_exptl_crystal_description       plate
_chemical_melting_point          '503 K'
_cell_formula_units_Z            8
loop_
_atom_site_label
_atom_site_type_symbol
_atom_site_fract_x
_atom_site_fract_y
_atom_site_fract_z
O1 O 0.44423(12) 0.26776(8) 0.25500(13)
O2 O 0.55773(14) 0.50926(9) 0.20293(17)
O3 O 0.38755(15) 0.52829(9) 0.07970(17)
N1 N 0.09527(15) 0.33969(10) -0.03942(16)
H1 H 0.034(2) 0.3223(13) -0.087(2)
H2 H 0.1126(19) 0.3869(14) -0.043(2)
N2 N 0.45967(16) 0.48703(10) 0.14688(17)
C1 C 0.16406(16) 0.29331(11) 0.03826(18)
C2 C 0.11184(17) 0.21747(11) 0.0458(2)
H3 H 0.0619 0.2062 -0.0369
H4 H 0.0608 0.2179 0.1110
C3 C 0.20444(16) 0.15635(11) 0.07868(19)
C4 C 0.28813(18) 0.18035(11) 0.20157(19)
H5 H 0.2440 0.1807 0.2729
H6 H 0.3518 0.1442 0.2217
C5 C 0.34312(16) 0.25560(11) 0.19190(17)
C6 C 0.27637(16) 0.31205(11) 0.11171(17)
C7 C 0.32346(17) 0.38535(11) 0.10523(18)
H7 H 0.2738 0.4188 0.0543
C8 C 0.42972(18) 0.41153(11) 0.16320(19)
H8 H 0.4840 0.3805 0.2141
C9 C 0.27396(19) 0.14516(13) -0.0321(2)
H9 H 0.3107 0.1909 -0.0500
H10 H 0.2202 0.1292 -0.1083
H11 H 0.3347 0.1084 -0.0078
C10 C 0.14236(19) 0.08427(12) 0.1036(2)
H12 H 0.2015 0.0475 0.1344
H13 H 0.0938 0.0676 0.0244
H14 H 0.0927 0.0924 0.1677
O4 O 0.92300(13) 0.24275(8) 0.28241(13)
O5 O 1.04280(14) 0.48418(9) 0.22269(17)
O6 O 0.88174(16) 0.49987(9) 0.08349(18)
N3 N 0.59376(15) 0.31138(10) -0.04246(17)
H15 H 0.6104(19) 0.3611(14) -0.046(2)
H16 H 0.537(2) 0.2930(12) -0.097(2)
N4 N 0.94809(15) 0.46084(10) 0.16108(17)
C11 C 0.66003(16) 0.26509(11) 0.03703(18)
C12 C 0.61249(16) 0.18770(11) 0.03415(19)
H17 H 0.5699 0.1773 -0.0526
H18 H 0.5553 0.1847 0.0927
C13 C 0.70757(16) 0.12831(11) 0.07177(19)
C14 C 0.77921(18) 0.15161(11) 0.20286(19)
H19 H 0.7281 0.1477 0.2677
H20 H 0.8451 0.1174 0.2267
C15 C 0.82867(17) 0.22863(11) 0.20607(18)
C16 C 0.76642(16) 0.28498(11) 0.12114(18)
C17 C 0.81399(17) 0.35818(11) 0.11657(18)
H21 H 0.7678 0.3906 0.0596
C18 C 0.91564(18) 0.38621(11) 0.18294(19)
H22 H 0.9651 0.3572 0.2432
C19 C 0.78776(19) 0.12275(13) -0.0302(2)
H23 H 0.8237 0.1699 -0.0400
H24 H 0.7408 0.1080 -0.1116
H25 H 0.8493 0.0868 -0.0033
C20 C 0.6467(2) 0.05431(12) 0.0841(2)
H26 H 0.7056 0.0184 0.1199
H27 H 0.6074 0.0383 0.0000
H28 H 0.5888 0.0596 0.1402
loop_
_geom_bond_atom_site_label_1
_geom_bond_atom_site_label_2
_geom_bond_site_symmetry_1
_geom_bond_site_symmetry_2
O1 C5 1_555 1_555
O2 N2 1_555 1_555
O3 N2 1_555 1_555
N1 H1 1_555 1_555
H2 N1 1_555 1_555
N2 C8 1_555 1_555
C1 N1 1_555 1_555
C2 C1 1_555 1_555
H3 C2 1_555 1_555
H4 C2 1_555 1_555
C3 C2 1_555 1_555
C4 C3 1_555 1_555
H5 C4 1_555 1_555
H6 C4 1_555 1_555
C5 C4 1_555 1_555
C6 C1 1_555 1_555
C7 C6 1_555 1_555
H7 C7 1_555 1_555
C8 C7 1_555 1_555
H8 C8 1_555 1_555
C9 C3 1_555 1_555
H9 C9 1_555 1_555
H10 C9 1_555 1_555
H11 C9 1_555 1_555
C10 C3 1_555 1_555
H12 C10 1_555 1_555
H13 C10 1_555 1_555
H14 C10 1_555 1_555
O4 C15 1_555 1_555
O5 N4 1_555 1_555
O6 N4 1_555 1_555
N3 H15 1_555 1_555
H16 N3 1_555 1_555
N4 C18 1_555 1_555
C11 N3 1_555 1_555
C12 C11 1_555 1_555
H17 C12 1_555 1_555
H18 C12 1_555 1_555
C13 C12 1_555 1_555
C14 C13 1_555 1_555
H19 C14 1_555 1_555
H20 C14 1_555 1_555
C15 C14 1_555 1_555
C16 C11 1_555 1_555
C17 C16 1_555 1_555
H21 C17 1_555 1_555
C18 C17 1_555 1_555
H22 C18 1_555 1_555
C19 C13 1_555 1_555
H23 C19 1_555 1_555
H24 C19 1_555 1_555
H25 C19 1_555 1_555
C20 C13 1_555 1_555
H26 C20 1_555 1_555
H27 C20 1_555 1_555
H28 C20 1_555 1_555
C5 C6 1_555 1_555
C15 C16 1_555 1_555

#END
