
#######################################################################
#
#                 Cambridge Crystallographic Data Centre
#                                CCDC 
#
#######################################################################
#
# If this CIF has been generated from an entry in the Cambridge 
# Structural Database, then it will include bibliographic, chemical, 
# crystal, experimental, refinement or atomic coordinate data resulting 
# from the CCDC's data processing and validation procedures.
#
#######################################################################

data_PONXUM
_chemical_name_common            
"Dimethyl 2,2'-(benzene-1,4-diylbis(oxy))diacetate"
_chemical_formula_moiety         'C12 H14 O6'
_chemical_name_systematic        "Dimethyl 2,2'-(p-phenylenedioxy)diacetate"
_symmetry_cell_setting           monoclinic
_symmetry_space_group_name_H-M   'P 21/n'
_symmetry_Int_Tables_number      14
_space_group_name_Hall           '-P 2yn'
loop_
_symmetry_equiv_pos_site_id
_symmetry_equiv_pos_as_xyz
1 x,y,z
2 1/2-x,1/2+y,1/2-z
3 -x,-y,-z
4 1/2+x,1/2-y,1/2+z
_cell_length_a                   7.4190(15)
_cell_length_b                   7.0990(14)
_cell_length_c                   11.785(2)
_cell_angle_alpha                90
_cell_angle_beta                 95.49(3)
_cell_angle_gamma                90
_cell_volume                     617.839
_exptl_crystal_colour            yellow
_exptl_crystal_description       block
_cell_formula_units_Z            2
_exptl_crystal_recrystallization_method 'ethyl acetate'
loop_
_atom_site_label
_atom_site_type_symbol
_atom_site_fract_x
_atom_site_fract_y
_atom_site_fract_z
O1 O 1.1983(3) 0.2968(2) -0.07350(16)
O2 O 1.3969(3) 0.5931(3) -0.13385(19)
O3 O 1.6159(2) 0.3997(3) -0.17937(17)
C1 C 1.1571(3) -0.0447(3) -0.0519(2)
H1 H 1.2618 -0.0734 -0.0859
C2 C 0.9507(3) 0.1863(4) 0.0139(2)
H2 H 0.9186 0.3114 0.0235
C3 C 1.1039(3) 0.1452(4) -0.0376(2)
C4 C 1.3668(3) 0.2569(4) -0.1199(2)
H3 H 1.3449 0.1844 -0.1896
H4 H 1.4456 0.1845 -0.0658
C5 C 1.4535(3) 0.4417(4) -0.1439(2)
C6 C 1.7243(4) 0.5536(4) -0.2101(3)
H5 H 1.8350 0.5067 -0.2354
H6 H 1.7513 0.6340 -0.1452
H7 H 1.6595 0.6240 -0.2705
O1B O 0.8017(3) -0.2968(2) 0.07350(16)
O2B O 0.6031(3) -0.5931(3) 0.13385(19)
O3B O 0.3841(2) -0.3997(3) 0.17937(17)
C1B C 0.8429(3) 0.0447(3) 0.0519(2)
H1B H 0.7382 0.0734 0.0859
C2B C 1.0493(3) -0.1863(4) -0.0139(2)
H2B H 1.0814 -0.3114 -0.0235
C3B C 0.8961(3) -0.1452(4) 0.0376(2)
C4B C 0.6332(3) -0.2569(4) 0.1199(2)
H3B H 0.6551 -0.1844 0.1896
H4B H 0.5544 -0.1845 0.0658
C5B C 0.5465(3) -0.4417(4) 0.1439(2)
C6B C 0.2757(4) -0.5536(4) 0.2101(3)
H5B H 0.1650 -0.5067 0.2354
H6B H 0.2487 -0.6340 0.1452
H7B H 0.3405 -0.6240 0.2705
loop_
_geom_bond_atom_site_label_1
_geom_bond_atom_site_label_2
_geom_bond_site_symmetry_1
_geom_bond_site_symmetry_2
O1 C3 1_555 1_555
O2 C5 1_555 1_555
O3 C5 1_555 1_555
C1 H1 1_555 1_555
C2 H2 1_555 1_555
C3 C1 1_555 1_555
C4 O1 1_555 1_555
H3 C4 1_555 1_555
H4 C4 1_555 1_555
C5 C4 1_555 1_555
C6 O3 1_555 1_555
H5 C6 1_555 1_555
H6 C6 1_555 1_555
H7 C6 1_555 1_555
O1B C3B 1_555 1_555
O2B C5B 1_555 1_555
O3B C5B 1_555 1_555
C1B C2 1_555 1_555
H1B C1B 1_555 1_555
C2B C1 1_555 1_555
H2B C2B 1_555 1_555
C3B C1B 1_555 1_555
C4B O1B 1_555 1_555
H3B C4B 1_555 1_555
H4B C4B 1_555 1_555
C5B C4B 1_555 1_555
C6B O3B 1_555 1_555
H5B C6B 1_555 1_555
H6B C6B 1_555 1_555
H7B C6B 1_555 1_555
C2 C3 1_555 1_555
C2B C3B 1_555 1_555

#END
