
#######################################################################
#
#                 Cambridge Crystallographic Data Centre
#                                CCDC 
#
#######################################################################
#
# If this CIF has been generated from an entry in the Cambridge 
# Structural Database, then it will include bibliographic, chemical, 
# crystal, experimental, refinement or atomic coordinate data resulting 
# from the CCDC's data processing and validation procedures.
#
#######################################################################

data_POPGEI
_chemical_name_common            
"dimethyl 4,4'-((1Z,3Z)-1,4-diphenylbuta-1,3-diene-1,4-diyl)dibenzoate"
_chemical_formula_moiety         'C32 H26 O4'
_chemical_name_systematic        
"dimethyl 4,4'-(1,4-diphenylbuta-1,3-diene-1,4-diyl)dibenzoate"
_symmetry_cell_setting           triclinic
_symmetry_space_group_name_H-M   'P -1'
_symmetry_Int_Tables_number      2
_space_group_name_Hall           '-P 1'
loop_
_symmetry_equiv_pos_site_id
_symmetry_equiv_pos_as_xyz
1 x,y,z
2 -x,-y,-z
_cell_length_a                   6.1277(2)
_cell_length_b                   10.7237(4)
_cell_length_c                   11.1710(3)
_cell_angle_alpha                113.753(2)
_cell_angle_beta                 101.595(2)
_cell_angle_gamma                94.350(2)
_cell_volume                     648.027
_cell_formula_units_Z            1
loop_
_atom_site_label
_atom_site_type_symbol
_atom_site_fract_x
_atom_site_fract_y
_atom_site_fract_z
C1 C 0.1375(4) 1.0044(3) 0.3199(2)
C2 C 0.1822(4) 0.6360(3) -0.0157(2)
O1 O -0.0738(4) 1.1647(3) 0.4309(2)
C3 C 0.3512(5) 0.8349(3) 0.2101(3)
C4 C 0.1660(4) 0.7653(3) 0.1005(2)
C5 C 0.3276(4) 0.6507(3) -0.1022(2)
O2 O 0.2844(4) 1.1962(3) 0.5337(2)
C6 C -0.0463(5) 0.9370(4) 0.2108(3)
C7 C 0.1274(6) 1.1300(4) 0.4395(3)
C8 C 0.0681(4) 0.5126(3) -0.0404(3)
C9 C 0.3360(5) 0.9527(3) 0.3178(3)
C10 C 0.4276(5) 0.5431(4) -0.1743(3)
C11 C -0.0325(5) 0.8182(4) 0.1020(3)
C12 C 0.5572(7) 0.5586(6) -0.2558(4)
C13 C 0.3686(5) 0.7747(4) -0.1131(3)
C14 C -0.1008(7) 1.2877(5) 0.5410(4)
H1 H -0.0297 1.2871 0.6255
H2 H -0.2590 1.2895 0.5348
H3 H -0.0318 1.3682 0.5359
C15 C 0.5008(6) 0.7886(6) -0.1951(4)
C16 C 0.5942(7) 0.6805(6) -0.2674(4)
H4 H 0.710(6) 0.691(4) -0.324(4)
H5 H 0.471(5) 1.007(4) 0.393(3)
H6 H 0.080(4) 0.432(3) -0.118(3)
H7 H -0.159(5) 0.771(4) 0.027(3)
H8 H 0.488(5) 0.794(3) 0.200(3)
H9 H 0.412(7) 0.456(5) -0.166(4)
H10 H 0.627(6) 0.490(4) -0.296(4)
H11 H 0.305(5) 0.858(4) -0.059(3)
H12 H -0.183(6) 0.977(4) 0.214(3)
H13 H 0.531(7) 0.883(6) -0.197(5)
C1A C -0.1375(4) -0.0044(3) -0.3199(2)
C2A C -0.1822(4) 0.3640(3) 0.0157(2)
O1A O 0.0738(4) -0.1647(3) -0.4309(2)
C3A C -0.3512(5) 0.1651(3) -0.2101(3)
C4A C -0.1660(4) 0.2347(3) -0.1005(2)
C5A C -0.3276(4) 0.3493(3) 0.1022(2)
O2A O -0.2844(4) -0.1962(3) -0.5337(2)
C6A C 0.0463(5) 0.0630(4) -0.2108(3)
C7A C -0.1274(6) -0.1300(4) -0.4395(3)
C8A C -0.0681(4) 0.4874(3) 0.0404(3)
C9A C -0.3360(5) 0.0473(3) -0.3178(3)
C10A C -0.4276(5) 0.4569(4) 0.1743(3)
C11A C 0.0325(5) 0.1818(4) -0.1020(3)
C12A C -0.5572(7) 0.4414(6) 0.2558(4)
C13A C -0.3686(5) 0.2253(4) 0.1131(3)
C14A C 0.1008(7) -0.2877(5) -0.5410(4)
H1A H 0.0297 -0.2871 -0.6255
H2A H 0.2590 -0.2895 -0.5348
H3A H 0.0318 -0.3682 -0.5359
C15A C -0.5008(6) 0.2114(6) 0.1951(4)
C16A C -0.5942(7) 0.3195(6) 0.2674(4)
H4A H -0.710(6) 0.309(4) 0.324(4)
H5A H -0.471(5) -0.007(4) -0.393(3)
H6A H -0.080(4) 0.568(3) 0.118(3)
H7A H 0.159(5) 0.229(4) -0.027(3)
H8A H -0.488(5) 0.206(3) -0.200(3)
H9A H -0.412(7) 0.544(5) 0.166(4)
H10A H -0.627(6) 0.510(4) 0.296(4)
H11A H -0.305(5) 0.142(4) 0.059(3)
H12A H 0.183(6) 0.023(4) -0.214(3)
H13A H -0.531(7) 0.117(6) 0.197(5)
loop_
_geom_bond_atom_site_label_1
_geom_bond_atom_site_label_2
_geom_bond_site_symmetry_1
_geom_bond_site_symmetry_2
C1 C6 1_555 1_555
C2 C4 1_555 1_555
O1 C7 1_555 1_555
C3 C4 1_555 1_555
C4 C11 1_555 1_555
C5 C2 1_555 1_555
O2 C7 1_555 1_555
C6 C11 1_555 1_555
C7 C1 1_555 1_555
C8 C2 1_555 1_555
C9 C1 1_555 1_555
C10 C5 1_555 1_555
C11 H7 1_555 1_555
C12 C10 1_555 1_555
C13 C5 1_555 1_555
C14 O1 1_555 1_555
H1 C14 1_555 1_555
H2 C14 1_555 1_555
H3 C14 1_555 1_555
C15 C13 1_555 1_555
C16 C12 1_555 1_555
H4 C16 1_555 1_555
H5 C9 1_555 1_555
H6 C8 1_555 1_555
H8 C3 1_555 1_555
H9 C10 1_555 1_555
H10 C12 1_555 1_555
H11 C13 1_555 1_555
H12 C6 1_555 1_555
H13 C15 1_555 1_555
C1A C6A 1_555 1_555
C2A C4A 1_555 1_555
O1A C7A 1_555 1_555
C3A C4A 1_555 1_555
C4A C11A 1_555 1_555
C5A C2A 1_555 1_555
O2A C7A 1_555 1_555
C6A C11A 1_555 1_555
C7A C1A 1_555 1_555
C8A C8 1_555 1_555
C9A C1A 1_555 1_555
C10A C5A 1_555 1_555
C11A H7A 1_555 1_555
C12A C10A 1_555 1_555
C13A C5A 1_555 1_555
C14A O1A 1_555 1_555
H1A C14A 1_555 1_555
H2A C14A 1_555 1_555
H3A C14A 1_555 1_555
C15A C13A 1_555 1_555
C16A C12A 1_555 1_555
H4A C16A 1_555 1_555
H5A C9A 1_555 1_555
H6A C8A 1_555 1_555
H8A C3A 1_555 1_555
H9A C10A 1_555 1_555
H10A C12A 1_555 1_555
H11A C13A 1_555 1_555
H12A C6A 1_555 1_555
H13A C15A 1_555 1_555
C3 C9 1_555 1_555
C15 C16 1_555 1_555
C2A C8A 1_555 1_555
C3A C9A 1_555 1_555
C15A C16A 1_555 1_555

#END
