
#######################################################################
#
#                 Cambridge Crystallographic Data Centre
#                                CCDC 
#
#######################################################################
#
# If this CIF has been generated from an entry in the Cambridge 
# Structural Database, then it will include bibliographic, chemical, 
# crystal, experimental, refinement or atomic coordinate data resulting 
# from the CCDC's data processing and validation procedures.
#
#######################################################################

data_POPJEK
_chemical_formula_moiety         'C14 H11 N3 O2'
_chemical_name_systematic        
'5-Methyl-1-(1-naphthyl)-1H-1,2,3-triazole-4-carboxylic acid'
_symmetry_cell_setting           orthorhombic
_symmetry_space_group_name_H-M   'P b c a'
_symmetry_Int_Tables_number      61
_space_group_name_Hall           '-P 2ac 2ab'
loop_
_symmetry_equiv_pos_site_id
_symmetry_equiv_pos_as_xyz
1 x,y,z
2 1/2-x,-y,1/2+z
3 1/2+x,1/2-y,-z
4 -x,1/2+y,1/2-z
5 -x,-y,-z
6 1/2+x,y,1/2-z
7 1/2-x,1/2+y,z
8 x,1/2-y,1/2+z
_cell_length_a                   10.068(2)
_cell_length_b                   12.353(2)
_cell_length_c                   20.102(4)
_cell_angle_alpha                90
_cell_angle_beta                 90
_cell_angle_gamma                90
_cell_volume                     2500.09
_exptl_crystal_colour            yellow
_exptl_crystal_description       block
_chemical_melting_point          458.2-459.2K
_cell_formula_units_Z            8
_exptl_crystal_recrystallization_method water/ethanol
loop_
_atom_site_label
_atom_site_type_symbol
_atom_site_fract_x
_atom_site_fract_y
_atom_site_fract_z
O1 O 0.2602(7) 0.7970(6) 1.0202(4)
O2 O 0.4240(5) 0.6816(5) 0.9960(3)
H1 H 0.4753 0.7169 0.9952
N1 N 0.1297(7) 0.5289(5) 0.8862(3)
N2 N 0.0316(8) 0.6004(6) 0.9023(4)
N3 N 0.0897(7) 0.6721(6) 0.9409(4)
C1 C 0.1431(10) 0.3601(9) 0.6688(4)
H2 H 0.1241 0.2981 0.6416
C2 C 0.2079(12) 0.4460(10) 0.6441(5)
H3 H 0.2305 0.4461 0.5977
C3 C 0.2423(9) 0.5330(9) 0.6810(5)
H4 H 0.2853 0.5941 0.6609
C4 C 0.2115(9) 0.5358(9) 0.7491(4)
H5 H 0.2370 0.5959 0.7766
C5 C 0.1408(8) 0.4443(7) 0.7775(4)
C6 C 0.1061(8) 0.3542(7) 0.7363(4)
C7 C 0.0363(10) 0.2723(8) 0.7626(6)
H6 H 0.0110 0.2119 0.7354
C8 C 0.0002(11) 0.2681(7) 0.8286(5)
H7 H -0.0475 0.2090 0.8485
C9 C 0.0313(11) 0.3575(7) 0.8708(5)
H8 H 0.0051 0.3605 0.9167
C10 C 0.1016(8) 0.4425(6) 0.8428(4)
C11 C 0.3666(10) 0.4858(8) 0.9110(4)
H9 H 0.3505 0.4277 0.8802
H10 H 0.3847 0.4565 0.9542
H11 H 0.4415 0.5274 0.8962
C12 C 0.2458(8) 0.5595(7) 0.9168(4)
C13 C 0.2169(8) 0.6493(5) 0.9524(4)
C14 C 0.3023(8) 0.7188(7) 0.9928(3)
loop_
_geom_bond_atom_site_label_1
_geom_bond_atom_site_label_2
_geom_bond_site_symmetry_1
_geom_bond_site_symmetry_2
O1 C14 1_555 1_555
O2 H1 1_555 1_555
N1 N2 1_555 1_555
N2 N3 1_555 1_555
N3 C13 1_555 1_555
C1 H2 1_555 1_555
C2 C1 1_555 1_555
H3 C2 1_555 1_555
C3 C2 1_555 1_555
H4 C3 1_555 1_555
C4 C3 1_555 1_555
H5 C4 1_555 1_555
C5 C4 1_555 1_555
C6 C1 1_555 1_555
C7 C6 1_555 1_555
H6 C7 1_555 1_555
C8 C7 1_555 1_555
H7 C8 1_555 1_555
C9 C8 1_555 1_555
H8 C9 1_555 1_555
C10 N1 1_555 1_555
C11 H9 1_555 1_555
H10 C11 1_555 1_555
H11 C11 1_555 1_555
C12 N1 1_555 1_555
C13 C12 1_555 1_555
C14 O2 1_555 1_555
C5 C6 1_555 1_555
C5 C10 1_555 1_555
C9 C10 1_555 1_555
C11 C12 1_555 1_555
C13 C14 1_555 1_555

#END
