
#######################################################################
#
#                 Cambridge Crystallographic Data Centre
#                                CCDC 
#
#######################################################################
#
# If this CIF has been generated from an entry in the Cambridge 
# Structural Database, then it will include bibliographic, chemical, 
# crystal, experimental, refinement or atomic coordinate data resulting 
# from the CCDC's data processing and validation procedures.
#
#######################################################################

data_POPNAK
_chemical_formula_moiety         'Br1 1-,C50 H53 N2 O4 1+'
_chemical_name_systematic        
'2^3^,7^3^-di-t-butyl-12,18-dimethyl-13,17-bis(2-(methoxycarbonyl)ethyl)-adj-diazuliporphyrin hydrobromide'
_symmetry_cell_setting           triclinic
_symmetry_space_group_name_H-M   'P -1'
_symmetry_Int_Tables_number      2
_space_group_name_Hall           '-P 1'
loop_
_symmetry_equiv_pos_site_id
_symmetry_equiv_pos_as_xyz
1 x,y,z
2 -x,-y,-z
_cell_length_a                   18.367(4)
_cell_length_b                   21.913(4)
_cell_length_c                   23.727(5)
_cell_angle_alpha                76.289(3)
_cell_angle_beta                 78.954(3)
_cell_angle_gamma                65.989(3)
_cell_volume                     8425.77
_exptl_crystal_colour            black
_exptl_crystal_description       block
_chemical_melting_point          'above 300 deg.C'
_cell_formula_units_Z            8
loop_
_atom_site_label
_atom_site_type_symbol
_atom_site_fract_x
_atom_site_fract_y
_atom_site_fract_z
Br1 Br 0.13583(8) 0.45393(7) 0.95210(5)
Br2 Br 0.68102(14) 0.25010(14) 0.68276(10)
Br3 Br 0.94205(15) 0.09471(13) 0.85953(13)
Br4 Br 0.6331(3) 0.3817(2) 0.45162(14)
Br5 Br 0.40737(18) 0.00200(18) 0.54999(13)
C1 C 0.2083(11) -0.1668(9) 0.7158(8)
H1 H 0.2375 -0.1504 0.6806
H2 H 0.1839 -0.1949 0.7062
H3 H 0.2455 -0.194 0.7451
C2 C 0.0817(11) -0.0657(10) 0.6972(8)
H4 H 0.0534 -0.0934 0.6928
H5 H 0.1096 -0.0533 0.6594
H6 H 0.0431 -0.0244 0.7112
C3 C 0.0980(10) -0.1358(10) 0.7954(9)
H7 H 0.0832 -0.17 0.7857
H8 H 0.0495 -0.0995 0.8088
H9 H 0.1336 -0.1569 0.8264
C4 C 0.5656(15) 0.1912(14) 0.4092(9)
H10 H 0.6033 0.1856 0.3737
H11 H 0.5208 0.2351 0.4026
H12 H 0.5453 0.1546 0.4191
C5 C 0.6304(15) 0.2530(12) 0.4392(9)
H13 H 0.6767 0.2424 0.4598
H14 H 0.5858 0.2925 0.4517
H15 H 0.6449 0.2631 0.3971
C6 C 0.6782(15) 0.1281(14) 0.4705(10)
H16 H 0.7187 0.1218 0.4366
H17 H 0.6649 0.0876 0.4834
H18 H 0.6992 0.1354 0.5022
C107 C 0.2381(6) 0.0874(5) 0.8314(4)
C108 C 0.2211(6) 0.0435(6) 0.8050(5)
C109 C 0.1731(6) 0.0064(5) 0.8301(5)
H125 H 0.1496 0.0122 0.8688
C110 C 0.1547(6) -0.0368(6) 0.8080(5)
H126 H 0.1193 -0.055 0.8339
C111 C 0.1778(6) -0.0598(5) 0.7545(4)
C112 C 0.2609(6) 0.0464(5) 0.7453(4)
C113 C 0.2640(6) 0.0082(5) 0.7064(5)
H127 H 0.2962 0.0138 0.6707
C114 C 0.2281(6) -0.0370(5) 0.7107(5)
H128 H 0.2401 -0.0569 0.6768
C115 C 0.3002(6) 0.0924(5) 0.7366(4)
C116 C 0.3429(6) 0.1130(5) 0.6843(4)
H129 H 0.3502 0.0908 0.6526
C117 C 0.3750(6) 0.1622(5) 0.6747(4)
C118 C 0.4277(6) 0.1751(6) 0.6255(5)
C119 C 0.4533(6) 0.1419(6) 0.5775(4)
H130 H 0.4325 0.1082 0.5794
C120 C 0.5031(6) 0.1501(6) 0.5286(5)
H131 H 0.5098 0.1224 0.5011
C121 C 0.5476(7) 0.1942(7) 0.5114(5)
C122 C 0.4520(7) 0.2259(5) 0.6351(5)
C123 C 0.5024(7) 0.2549(6) 0.5984(5)
H132 H 0.5104 0.289 0.6117
C124 C 0.5425(8) 0.2399(7) 0.5444(6)
H133 H 0.5728 0.267 0.5266
C125 C 0.4126(6) 0.2435(6) 0.6919(5)
C126 C 0.4284(6) 0.2862(5) 0.7217(5)
H134 H 0.4603 0.3105 0.7
C127 C 0.4025(7) 0.2948(5) 0.7770(5)
C128 C 0.4273(7) 0.3325(5) 0.8091(5)
C129 C 0.4807(8) 0.3683(6) 0.7793(5)
H135 H 0.4526 0.4065 0.7499
H136 H 0.5288 0.3369 0.7601
H137 H 0.4961 0.3853 0.8079
C130 C 0.3972(7) 0.3247(6) 0.8643(5)
C131 C 0.4086(7) 0.3496(6) 0.9136(5)
H138 H 0.4655 0.3439 0.9099
H139 H 0.3985 0.32 0.9503
C132 C 0.3578(7) 0.4218(6) 0.9196(5)
H140 H 0.3543 0.4505 0.8803
H141 H 0.3029 0.4248 0.936
C133 C 0.3876(9) 0.4485(8) 0.9562(7)
O9 O 0.3528(8) 0.5152(7) 0.9492(6)
C134 C 0.3849(14) 0.5508(11) 0.9769(10)
H142 H 0.3755 0.539 1.0194
H143 H 0.3581 0.6 0.9647
H144 H 0.4426 0.5373 0.9651
O10 O 0.4459(7) 0.4173(6) 0.9830(5)
C135 C 0.3476(6) 0.2852(6) 0.8717(5)
C136 C 0.3025(7) 0.2680(6) 0.9202(5)
H145 H 0.2982 0.2879 0.9527
C137 C 0.2613(6) 0.2241(5) 0.9283(5)
C138 C 0.2092(7) 0.2124(6) 0.9798(5)
C139 C 0.1800(7) 0.2524(6) 1.0276(5)
H146 H 0.1208 0.2682 1.0332
H147 H 0.1935 0.2932 1.0142
C140 C 0.2100(6) 0.2190(6) 1.0863(5)
H148 H 0.1777 0.2492 1.1147
H149 H 0.2001 0.1764 1.0988
C141 C 0.2948(9) 0.2029(8) 1.0896(7)
O11 O 0.3199(6) 0.1625(5) 1.1398(5)
C142 C 0.4037(10) 0.1431(10) 1.1483(8)
H150 H 0.4383 0.1104 1.1231
H151 H 0.4117 0.1224 1.1892
H152 H 0.4173 0.1836 1.1383
O12 O 0.3400(7) 0.2212(6) 1.0542(5)
C143 C 0.1860(7) 0.1628(6) 0.9720(5)
C144 C 0.1300(7) 0.1339(6) 1.0118(5)
H153 H 0.1609 0.0908 1.0353
H154 H 0.0969 0.126 0.9885
H155 H 0.0953 0.1658 1.0375
C145 C 0.2218(6) 0.1484(6) 0.9147(5)
C146 C 0.2113(6) 0.1005(6) 0.8889(5)
H156 H 0.1829 0.0743 0.9131
C147 C 0.2863(6) 0.1157(5) 0.7899(5)
H157 H 0.3069 0.1464 0.7967
C148 C 0.3635(7) 0.2083(5) 0.7114(4)
H158 H 0.3263 0.2141 0.7455
N5 N 0.3567(5) 0.2664(4) 0.8180(4)
H159 H 0.3357 0.2395 0.8112
N6 N 0.2675(5) 0.1858(4) 0.8891(4)
C149 C 0.1417(7) -0.1055(6) 0.7405(5)
C150 C 0.6039(7) 0.1890(7) 0.4540(5)
C7 C -0.0326(7) 0.3747(5) 0.6672(5)
C8 C -0.0495(6) 0.3402(5) 0.6290(5)
C9 C -0.0983(7) 0.3041(6) 0.6462(5)
H19 H -0.1236 0.3057 0.685
C10 C -0.1172(8) 0.2652(6) 0.6165(6)
H20 H -0.1535 0.2449 0.6377
C11 C -0.0889(8) 0.2521(6) 0.5583(5)
C12 C -0.0085(6) 0.3503(5) 0.5743(5)
C13 C -0.0052(6) 0.3235(5) 0.5241(5)
H21 H 0.0227 0.3381 0.489
C14 C -0.0393(8) 0.2774(6) 0.5221(5)
H22 H -0.0232 0.2603 0.4865
C15 C 0.0334(6) 0.3929(5) 0.5755(5)
C16 C 0.0748(6) 0.4227(5) 0.5273(5)
H23 H 0.0823 0.408 0.4913
C17 C 0.1051(6) 0.4709(6) 0.5280(5)
C18 C 0.1562(6) 0.4930(5) 0.4809(5)
C19 C 0.1744(6) 0.4766(6) 0.4253(5)
H24 H 0.1481 0.4503 0.4179
C20 C 0.2256(7) 0.4936(6) 0.3796(5)
H25 H 0.2253 0.4807 0.3442
C21 C 0.2775(7) 0.5261(6) 0.3765(5)
C22 C 0.1810(6) 0.5361(5) 0.5025(4)
C23 C 0.2364(7) 0.5650(6) 0.4742(5)
H26 H 0.2462 0.5923 0.4952
C24 C 0.2791(8) 0.5593(6) 0.4196(5)
H27 H 0.3157 0.5818 0.4098
C25 C 0.1415(6) 0.5450(5) 0.5605(5)
C26 C 0.1468(7) 0.5839(6) 0.5970(5)
H28 H 0.1775 0.6111 0.5805
C27 C 0.1141(6) 0.5882(5) 0.6528(5)
C28 C 0.1187(6) 0.6328(5) 0.6885(5)
C29 C 0.1593(7) 0.6826(6) 0.6646(5)
H29 H 0.1268 0.7199 0.6368
H30 H 0.2123 0.6595 0.6449
H31 H 0.1652 0.7008 0.6968
C30 C 0.0775(6) 0.6242(5) 0.7399(4)
C31 C 0.0606(7) 0.6602(6) 0.7889(5)
H32 H 0.0996 0.6821 0.7846
H33 H 0.0671 0.6272 0.826
C32 C -0.0250(7) 0.7144(6) 0.7910(5)
H34 H -0.0643 0.6929 0.7958
H35 H -0.0357 0.7374 0.8247
C33 C -0.0334(9) 0.7655(8) 0.7351(7)
O1 O -0.0843(6) 0.7606(5) 0.7033(5)
C34 C -0.0902(11) 0.8081(10) 0.6434(8)
H36 H -0.0362 0.8015 0.6238
H37 H -0.1182 0.8554 0.649
H38 H -0.12 0.7976 0.6195
O2 O 0.0015(6) 0.8034(5) 0.7186(4)
C35 C 0.0487(6) 0.5707(5) 0.7393(5)
C36 C 0.0041(6) 0.5453(6) 0.7857(5)
H39 H -0.0053 0.5625 0.8207
C37 C -0.0286(7) 0.4976(6) 0.7868(5)
C38 C -0.0806(6) 0.4744(6) 0.8344(5)
C39 C -0.1083(7) 0.4998(6) 0.8921(5)
H40 H -0.0621 0.5006 0.9071
H41 H -0.1285 0.4679 0.9208
C40 C -0.1756(8) 0.5722(7) 0.8863(6)
H42 H -0.1973 0.5831 0.9258
H43 H -0.1519 0.6056 0.865
C41 C -0.2404(9) 0.5790(8) 0.8562(7)
O3 O -0.2812(6) 0.5418(5) 0.8825(5)
C42 C -0.3500(11) 0.5372(10) 0.8604(8)
H44 H -0.383 0.5822 0.8409
H45 H -0.3826 0.5208 0.8933
H46 H -0.3291 0.5057 0.8327
O4 O -0.2570(7) 0.6092(6) 0.8075(5)
C43 C -0.0991(6) 0.4308(5) 0.8156(5)
C44 C -0.1547(8) 0.3947(6) 0.8490(5)
H47 H -0.1284 0.346 0.8479
H48 H -0.2048 0.4135 0.8309
H49 H -0.1664 0.4015 0.8896
C45 C -0.0608(6) 0.4246(5) 0.7583(4)
C46 C -0.0661(7) 0.3826(6) 0.7249(5)
H50 H -0.0963 0.3556 0.7434
C47 C 0.0207(6) 0.4027(5) 0.6343(5)
H51 H 0.0455 0.4254 0.6489
C48 C 0.0933(7) 0.5057(6) 0.5729(5)
H52 H 0.0577 0.5034 0.6074
N1 N 0.0696(5) 0.5517(4) 0.6875(4)
H53 H 0.0575 0.5213 0.6769
N2 N -0.0177(5) 0.4648(4) 0.7422(4)
C49 C -0.1182(8) 0.2026(7) 0.5413(6)
C50 C -0.0725(11) 0.1775(8) 0.4859(6)
H54 H -0.0188 0.1443 0.4939
H55 H -0.068 0.2158 0.4563
H56 H -0.101 0.1559 0.4715
C51 C -0.1089(9) 0.1408(7) 0.5890(6)
H57 H -0.127 0.11 0.5768
H58 H -0.1413 0.1551 0.6249
H59 H -0.0524 0.1172 0.5961
C52 C -0.2056(9) 0.2441(8) 0.5277(8)
H60 H -0.24 0.2551 0.5639
H61 H -0.2239 0.2174 0.51
H62 H -0.2086 0.2862 0.5004
C53 C 0.3365(9) 0.5245(8) 0.3214(6)
C54 C 0.3814(11) 0.4461(10) 0.3116(8)
H63 H 0.3997 0.4168 0.3485
H64 H 0.4276 0.4422 0.2821
H65 H 0.344 0.4322 0.2984
C55 C 0.4077(11) 0.5403(10) 0.3295(8)
H66 H 0.3955 0.5891 0.3174
H67 H 0.4557 0.5152 0.3056
H68 H 0.4175 0.5267 0.3707
C56 C 0.2900(11) 0.5589(10) 0.2682(8)
H69 H 0.2695 0.6082 0.2654
H70 H 0.2451 0.5443 0.2722
H71 H 0.3257 0.5461 0.2329
C57 C 0.0886(6) 0.2486(5) 0.7965(4)
C58 C 0.0492(6) 0.2622(5) 0.8531(4)
C59 C 0.0003(6) 0.2289(5) 0.8885(4)
H72 H -0.0048 0.1948 0.8729
C60 C -0.0405(7) 0.2390(5) 0.9419(5)
H73 H -0.0704 0.2112 0.9579
C61 C -0.0455(6) 0.2841(6) 0.9772(5)
C62 C 0.0727(6) 0.3102(5) 0.8664(4)
C63 C 0.0479(6) 0.3387(5) 0.9165(4)
H74 H 0.0697 0.3708 0.9179
C64 C -0.0037(6) 0.3274(5) 0.9645(5)
H75 H -0.0123 0.3534 0.9937
C65 C 0.1252(6) 0.3289(5) 0.8178(4)
C66 C 0.1572(6) 0.3771(5) 0.8122(4)
H76 H 0.1505 0.3964 0.8456
C67 C 0.1987(6) 0.4004(5) 0.7613(5)
C68 C 0.2365(6) 0.4481(5) 0.7557(4)
C69 C 0.2341(6) 0.4826(5) 0.7978(4)
H77 H 0.2053 0.4725 0.8341
C70 C 0.2667(6) 0.5291(5) 0.7955(4)
H78 H 0.2529 0.5476 0.8303
C71 C 0.3140(6) 0.5546(5) 0.7553(4)
C72 C 0.2763(6) 0.4530(5) 0.6989(4)
C73 C 0.3216(6) 0.4944(5) 0.6730(4)
H79 H 0.3432 0.4917 0.6335
C74 C 0.3380(6) 0.5375(5) 0.6976(4)
H80 H 0.3704 0.5597 0.6727
C75 C 0.2617(6) 0.4114(5) 0.6667(4)
C76 C 0.2917(6) 0.3991(5) 0.6098(4)
H81 H 0.3212 0.4253 0.5875
C77 C 0.2840(6) 0.3544(5) 0.5821(4)
C78 C 0.3246(6) 0.3412(5) 0.5238(4)
C79 C 0.3788(6) 0.3718(6) 0.4883(5)
H82 H 0.4091 0.3456 0.4574
H83 H 0.4161 0.372 0.5128
H84 H 0.3479 0.4186 0.4707
C80 C 0.3035(6) 0.2921(6) 0.5127(4)
C81 C 0.3351(7) 0.2580(6) 0.4606(4)
H85 H 0.3219 0.217 0.4683
H86 H 0.3942 0.2428 0.4553
C82 C 0.3019(7) 0.3030(6) 0.4035(5)
H87 H 0.3006 0.3491 0.4015
H88 H 0.3389 0.2843 0.3701
C83 C 0.2206(9) 0.3084(8) 0.3978(7)
O5 O 0.1896(6) 0.3592(5) 0.3550(5)
C84 C 0.1102(11) 0.3705(10) 0.3442(8)
H89 H 0.1112 0.3305 0.3318
H90 H 0.0917 0.4103 0.3135
H91 H 0.0736 0.3783 0.3801
O6 O 0.1862(7) 0.2731(6) 0.4242(5)
C85 C 0.2501(6) 0.2763(5) 0.5625(4)
C86 C 0.2110(7) 0.2310(6) 0.5686(5)
H92 H 0.218 0.2113 0.5354
C87 C 0.1658(6) 0.2123(5) 0.6145(5)
C88 C 0.1244(7) 0.1676(6) 0.6178(5)
C89 C 0.1231(8) 0.1388(6) 0.5676(5)
H93 H 0.1304 0.1696 0.531
H94 H 0.07 0.1363 0.5697
C90 C 0.1862(10) 0.0702(7) 0.5659(5)
H95 H 0.236 0.0715 0.5749
H96 H 0.1706 0.0388 0.5986
C91 C 0.2065(8) 0.0400(6) 0.5155(5)
O7 O 0.1419(6) 0.0392(5) 0.5056(5)
C92 C 0.1432(11) 0.0162(10) 0.4480(7)
H97 H 0.1076 -0.0087 0.4544
H98 H 0.198 -0.0133 0.4359
H99 H 0.1249 0.0562 0.4174
O8 O 0.2722(7) 0.0117(6) 0.4859(5)
C93 C 0.0866(7) 0.1610(5) 0.6730(5)
C94 C 0.0344(7) 0.1213(6) 0.6986(5)
H100 H -0.0208 0.1527 0.7069
H101 H 0.054 0.0912 0.7348
H102 H 0.0358 0.0941 0.6707
C95 C 0.1050(6) 0.2020(5) 0.7053(5)
C96 C 0.0758(7) 0.2055(5) 0.7631(4)
H103 H 0.0457 0.1787 0.7825
C97 C 0.1369(6) 0.2846(5) 0.7770(5)
H104 H 0.1727 0.2813 0.7422
C98 C 0.2131(6) 0.3817(6) 0.7046(4)
H105 H 0.1922 0.353 0.6947
N3 N 0.2408(5) 0.3142(4) 0.6027(3)
H106 H 0.2116 0.3132 0.6367
N4 N 0.1515(5) 0.2325(4) 0.6664(4)
C99 C -0.1040(7) 0.2898(7) 1.0340(5)
C100 C -0.1661(7) 0.3639(7) 1.0278(5)
H107 H -0.1393 0.3946 1.0276
H108 H -0.2082 0.3679 1.0607
H109 H -0.19 0.3761 0.9911
C101 C -0.0569(7) 0.2728(6) 1.0864(4)
H110 H -0.0088 0.2314 1.0836
H111 H -0.0907 0.2656 1.1227
H112 H -0.0411 0.3105 1.0864
C102 C -0.1475(8) 0.2429(7) 1.0463(5)
H113 H -0.176 0.2502 1.0129
H114 H -0.1861 0.2519 1.0811
H115 H -0.109 0.1959 1.0532
C103 C 0.3474(7) 0.6020(5) 0.7701(4)
C104 C 0.2870(7) 0.6500(6) 0.8089(6)
H116 H 0.2379 0.6763 0.7898
H117 H 0.3096 0.6809 0.8155
H118 H 0.2745 0.6237 0.8464
C105 C 0.3717(8) 0.6490(6) 0.7151(5)
H119 H 0.4136 0.6209 0.6893
H120 H 0.3918 0.6782 0.7277
H121 H 0.3247 0.6773 0.6941
C106 C 0.4240(7) 0.5564(6) 0.7995(6)
H122 H 0.4436 0.5845 0.8142
H123 H 0.4652 0.5321 0.7709
H124 H 0.4121 0.5236 0.832
C151 C 0.5294(6) 0.1162(5) 0.8206(5)
C152 C 0.5577(6) 0.1514(6) 0.8508(5)
C153 C 0.6070(7) 0.1863(6) 0.8259(5)
H160 H 0.6236 0.1852 0.7856
C154 C 0.6369(7) 0.2230(6) 0.8494(5)
H161 H 0.6718 0.2417 0.8233
C155 C 0.6224(7) 0.2359(6) 0.9062(6)
C156 C 0.5208(7) 0.1466(5) 0.9083(5)
C157 C 0.5304(7) 0.1740(6) 0.9532(5)
H162 H 0.5013 0.1652 0.9898
C158 C 0.5765(7) 0.2122(5) 0.9520(5)
H163 H 0.5759 0.2234 0.9884
C159 C 0.4729(6) 0.1069(5) 0.9163(4)
C160 C 0.4353(6) 0.0824(5) 0.9664(5)
H164 H 0.4336 0.0996 1.00000
C161 C 0.3999(6) 0.0367(5) 0.9747(4)
C162 C 0.3524(6) 0.0189(5) 1.0267(5)
C163 C 0.3426(7) 0.0384(5) 1.0793(5)
H165 H 0.3725 0.0647 1.0803
C164 C 0.2973(8) 0.0268(6) 1.1306(5)
H166 H 0.3049 0.0424 1.1623
C165 C 0.2410(8) -0.0048(6) 1.1440(5)
C166 C 0.3174(6) -0.0239(5) 1.0142(5)
C167 C 0.2628(7) -0.0507(5) 1.0503(5)
H167 H 0.248 -0.08 1.0353
C168 C 0.2285(8) -0.0374(6) 1.1066(6)
H168 H 0.1879 -0.0551 1.122
C169 C 0.3518(6) -0.0388(5) 0.9547(5)
C170 C 0.3380(6) -0.0798(5) 0.9248(5)
H169 H 0.3048 -0.1035 0.9454
C171 C 0.3673(6) -0.0896(5) 0.8689(5)
C172 C 0.3541(7) -0.1395(6) 0.8426(5)
C173 C 0.3082(8) -0.1802(6) 0.8695(5)
H170 H 0.2976 -0.199 0.8397
H171 H 0.2573 -0.1522 0.8886
H172 H 0.3384 -0.2175 0.8986
C174 C 0.4154(8) -0.1858(6) 0.7466(5)
H173 H 0.3726 -0.2041 0.7531
H174 H 0.4153 -0.1598 0.7063
C175 C 0.4951(8) -0.2438(7) 0.7531(6)
H175 H 0.5036 -0.2743 0.7256
H176 H 0.5383 -0.2257 0.7427
C176 C 0.5000(9) -0.2817(8) 0.8112(7)
O13 O 0.5496(6) -0.2737(5) 0.8408(5)
C177 C 0.5509(11) -0.3065(10) 0.9034(8)
H177 H 0.4959 -0.2968 0.9219
H178 H 0.5782 -0.2885 0.9231
H179 H 0.5797 -0.3556 0.9064
O14 O 0.4584(7) -0.3148(6) 0.8337(5)
C178 C 0.3974(8) -0.1382(6) 0.7900(6)
C179 C 0.4321(7) -0.0859(6) 0.7814(5)
C180 C 0.4777(6) -0.0704(5) 0.7314(5)
H180 H 0.4855 -0.0949 0.7011
C181 C 0.5143(7) -0.0228(6) 0.7194(5)
C182 C 0.5628(7) -0.0070(6) 0.6700(5)
C183 C 0.5872(8) -0.0397(7) 0.6183(5)
H181 H 0.5866 -0.005 0.5828
H182 H 0.548 -0.0593 0.6161
C184 C 0.6725(10) -0.0968(8) 0.6201(7)
H183 H 0.7103 -0.0787 0.6278
H184 H 0.6909 -0.1112 0.5816
C185 C 0.6736(9) -0.1613(8) 0.6694(7)
O15 O 0.7243(6) -0.1754(5) 0.7018(5)
C186 C 0.7276(11) -0.2374(9) 0.7464(8)
H185 H 0.6763 -0.2281 0.771
H186 H 0.7707 -0.2496 0.7706
H187 H 0.7378 -0.2751 0.7266
O16 O 0.6264(7) -0.1873(6) 0.6686(5)
C187 C 0.5847(7) 0.0417(6) 0.6789(5)
C188 C 0.6394(7) 0.0728(6) 0.6393(5)
H188 H 0.6924 0.0524 0.6534
H189 H 0.6173 0.1218 0.639
H190 H 0.6442 0.0645 0.5997
C189 C 0.5482(7) 0.0595(6) 0.7367(5)
C190 C 0.5585(6) 0.1046(6) 0.7617(5)
H191 H 0.5874 0.1308 0.7384
C191 C 0.4778(7) 0.0930(5) 0.8589(5)
H192 H 0.4485 0.0705 0.8493
C192 C 0.4019(6) -0.0025(5) 0.9348(4)
H193 H 0.4338 -0.0041 0.8982
N7 N 0.4142(5) -0.0599(4) 0.8298(4)
N8 N 0.5052(5) 0.0179(4) 0.7587(4)
H194 H 0.4763 0.0175 0.7929
C193 C 0.6682(8) 0.2758(7) 0.9177(5)
C194 C 0.7577(9) 0.2387(8) 0.9092(7)
H195 H 0.7843 0.2662 0.9168
H196 H 0.774 0.2304 0.869
H197 H 0.7731 0.1952 0.9363
C195 C 0.6417(9) 0.3471(7) 0.8761(7)
H198 H 0.6692 0.3739 0.8837
H199 H 0.5836 0.3711 0.8833
H200 H 0.6558 0.3405 0.8354
C196 C 0.6491(10) 0.2901(8) 0.9798(6)
H201 H 0.6623 0.247 1.0075
H202 H 0.5919 0.3176 0.9868
H203 H 0.6807 0.3147 0.985
C197 C 0.1876(8) 0.0055(7) 1.2003(5)
C198 C 0.2185(10) 0.0386(9) 1.2397(7)
H204 H 0.2161 0.0836 1.2191
H205 H 0.2739 0.0095 1.2471
H206 H 0.1843 0.0427 1.2769
C199 C 0.1961(11) -0.0584(8) 1.2388(8)
H207 H 0.2529 -0.0883 1.2379
H208 H 0.1662 -0.0799 1.2259
H209 H 0.1749 -0.0503 1.2787
C200 C 0.1109(9) 0.0639(9) 1.1911(8)
H210 H 0.1211 0.1014 1.1637
H211 H 0.0852 0.0785 1.2284
H212 H 0.0754 0.0504 1.175
Br6? Br 0.9780(5) 0.5973(4) 0.9326(4)
C201? C 0.190(4) -0.151(3) 0.696(2)
C202? C 0.060(4) -0.052(3) 0.714(3)
C203? C 0.127(3) -0.150(3) 0.789(3)
C204? C 0.5642(15) 0.2520(14) 0.4044(9)
C205? C 0.6798(16) 0.1726(15) 0.4606(10)
C206? C 0.6047(16) 0.1256(14) 0.4219(10)
H213? H 0.2441 -0.1776 0.7069
H214? H 0.1927 -0.1225 0.6572
H215? H 0.1636 -0.1813 0.6942
H216? H 0.0233 -0.0276 0.7445
H217? H 0.0341 -0.0765 0.7004
H218? H 0.0719 -0.0196 0.6813
H219? H 0.1073 -0.1274 0.8226
H220? H 0.1764 -0.1896 0.7961
H221? H 0.0862 -0.1647 0.7813
H222? H 0.6388 0.1244 0.3846
H223? H 0.5499 0.1348 0.415
H224? H 0.6256 0.0817 0.4478
H225? H 0.6963 0.1337 0.4923
H226? H 0.6861 0.2113 0.47
H227? H 0.7133 0.1608 0.4243
H228? H 0.5087 0.2576 0.4034
H229? H 0.5947 0.2435 0.3664
H230? H 0.565 0.2933 0.4129
loop_
_geom_bond_atom_site_label_1
_geom_bond_atom_site_label_2
_geom_bond_site_symmetry_1
_geom_bond_site_symmetry_2
C1 H1 1_555 1_555
H2 C1 1_555 1_555
H3 C1 1_555 1_555
C2 H4 1_555 1_555
H5 C2 1_555 1_555
H6 C2 1_555 1_555
C3 H7 1_555 1_555
H8 C3 1_555 1_555
H9 C3 1_555 1_555
C4 H10 1_555 1_555
H11 C4 1_555 1_555
H12 C4 1_555 1_555
C5 H13 1_555 1_555
H14 C5 1_555 1_555
H15 C5 1_555 1_555
C6 H16 1_555 1_555
H17 C6 1_555 1_555
H18 C6 1_555 1_555
C7 C8 1_555 1_555
C8 C9 1_555 1_555
C9 H19 1_555 1_555
C10 C9 1_555 1_555
H20 C10 1_555 1_555
C11 C10 1_555 1_555
C12 C8 1_555 1_555
C13 C12 1_555 1_555
H21 C13 1_555 1_555
C14 C11 1_555 1_555
H22 C14 1_555 1_555
C15 C12 1_555 1_555
C16 C15 1_555 1_555
H23 C16 1_555 1_555
C17 C16 1_555 1_555
C18 C17 1_555 1_555
C19 C18 1_555 1_555
H24 C19 1_555 1_555
C20 C19 1_555 1_555
H25 C20 1_555 1_555
C21 C20 1_555 1_555
C22 C18 1_555 1_555
C23 C22 1_555 1_555
H26 C23 1_555 1_555
C24 C21 1_555 1_555
H27 C24 1_555 1_555
C25 C22 1_555 1_555
C26 C25 1_555 1_555
H28 C26 1_555 1_555
C27 C26 1_555 1_555
C28 C27 1_555 1_555
C29 C28 1_555 1_555
H29 C29 1_555 1_555
H30 C29 1_555 1_555
H31 C29 1_555 1_555
C30 C28 1_555 1_555
C31 C30 1_555 1_555
H32 C31 1_555 1_555
H33 C31 1_555 1_555
C32 C31 1_555 1_555
H34 C32 1_555 1_555
H35 C32 1_555 1_555
C33 C32 1_555 1_555
O1 C33 1_555 1_555
C34 O1 1_555 1_555
H36 C34 1_555 1_555
H37 C34 1_555 1_555
H38 C34 1_555 1_555
O2 C33 1_555 1_555
C35 C30 1_555 1_555
C36 C35 1_555 1_555
H39 C36 1_555 1_555
C37 C36 1_555 1_555
C38 C37 1_555 1_555
C39 C38 1_555 1_555
H40 C39 1_555 1_555
H41 C39 1_555 1_555
C40 C39 1_555 1_555
H42 C40 1_555 1_555
H43 C40 1_555 1_555
C41 C40 1_555 1_555
O3 C41 1_555 1_555
C42 O3 1_555 1_555
H44 C42 1_555 1_555
H45 C42 1_555 1_555
H46 C42 1_555 1_555
O4 C41 1_555 1_555
C43 C38 1_555 1_555
C44 C43 1_555 1_555
H47 C44 1_555 1_555
H48 C44 1_555 1_555
H49 C44 1_555 1_555
C45 C43 1_555 1_555
C46 C7 1_555 1_555
H50 C46 1_555 1_555
C47 C7 1_555 1_555
H51 C47 1_555 1_555
C48 C17 1_555 1_555
H52 C48 1_555 1_555
N1 C27 1_555 1_555
H53 N1 1_555 1_555
N2 C37 1_555 1_555
C49 C11 1_555 1_555
C50 C49 1_555 1_555
H54 C50 1_555 1_555
H55 C50 1_555 1_555
H56 C50 1_555 1_555
C51 C49 1_555 1_555
H57 C51 1_555 1_555
H58 C51 1_555 1_555
H59 C51 1_555 1_555
C52 C49 1_555 1_555
H60 C52 1_555 1_555
H61 C52 1_555 1_555
H62 C52 1_555 1_555
C53 C21 1_555 1_555
C54 C53 1_555 1_555
H63 C54 1_555 1_555
H64 C54 1_555 1_555
H65 C54 1_555 1_555
C55 C53 1_555 1_555
H66 C55 1_555 1_555
H67 C55 1_555 1_555
H68 C55 1_555 1_555
C56 C53 1_555 1_555
H69 C56 1_555 1_555
H70 C56 1_555 1_555
H71 C56 1_555 1_555
C57 C58 1_555 1_555
C58 C59 1_555 1_555
C59 H72 1_555 1_555
C60 C59 1_555 1_555
H73 C60 1_555 1_555
C61 C60 1_555 1_555
C62 C58 1_555 1_555
C63 C62 1_555 1_555
H74 C63 1_555 1_555
C64 C61 1_555 1_555
H75 C64 1_555 1_555
C65 C62 1_555 1_555
C66 C65 1_555 1_555
H76 C66 1_555 1_555
C67 C66 1_555 1_555
C68 C67 1_555 1_555
C69 C68 1_555 1_555
H77 C69 1_555 1_555
C70 C69 1_555 1_555
H78 C70 1_555 1_555
C71 C70 1_555 1_555
C72 C68 1_555 1_555
C73 C72 1_555 1_555
H79 C73 1_555 1_555
C74 C71 1_555 1_555
H80 C74 1_555 1_555
C75 C72 1_555 1_555
C76 C75 1_555 1_555
H81 C76 1_555 1_555
C77 C76 1_555 1_555
C78 C77 1_555 1_555
C79 C78 1_555 1_555
H82 C79 1_555 1_555
H83 C79 1_555 1_555
H84 C79 1_555 1_555
C80 C78 1_555 1_555
C81 C80 1_555 1_555
H85 C81 1_555 1_555
H86 C81 1_555 1_555
C82 C81 1_555 1_555
H87 C82 1_555 1_555
H88 C82 1_555 1_555
C83 C82 1_555 1_555
O5 C83 1_555 1_555
C84 O5 1_555 1_555
H89 C84 1_555 1_555
H90 C84 1_555 1_555
H91 C84 1_555 1_555
O6 C83 1_555 1_555
C85 C80 1_555 1_555
C86 C85 1_555 1_555
H92 C86 1_555 1_555
C87 C86 1_555 1_555
C88 C87 1_555 1_555
C89 C88 1_555 1_555
H93 C89 1_555 1_555
H94 C89 1_555 1_555
C90 C89 1_555 1_555
H95 C90 1_555 1_555
H96 C90 1_555 1_555
C91 C90 1_555 1_555
O7 C91 1_555 1_555
C92 O7 1_555 1_555
H97 C92 1_555 1_555
H98 C92 1_555 1_555
H99 C92 1_555 1_555
O8 C91 1_555 1_555
C93 C88 1_555 1_555
C94 C93 1_555 1_555
H100 C94 1_555 1_555
H101 C94 1_555 1_555
H102 C94 1_555 1_555
C95 C93 1_555 1_555
C96 C57 1_555 1_555
H103 C96 1_555 1_555
C97 C57 1_555 1_555
H104 C97 1_555 1_555
C98 C67 1_555 1_555
H105 C98 1_555 1_555
N3 C77 1_555 1_555
H106 N3 1_555 1_555
N4 C87 1_555 1_555
C99 C61 1_555 1_555
C100 C99 1_555 1_555
H107 C100 1_555 1_555
H108 C100 1_555 1_555
H109 C100 1_555 1_555
C101 C99 1_555 1_555
H110 C101 1_555 1_555
H111 C101 1_555 1_555
H112 C101 1_555 1_555
C102 C99 1_555 1_555
H113 C102 1_555 1_555
H114 C102 1_555 1_555
H115 C102 1_555 1_555
C103 C71 1_555 1_555
C104 C103 1_555 1_555
H116 C104 1_555 1_555
H117 C104 1_555 1_555
H118 C104 1_555 1_555
C105 C103 1_555 1_555
H119 C105 1_555 1_555
H120 C105 1_555 1_555
H121 C105 1_555 1_555
C106 C103 1_555 1_555
H122 C106 1_555 1_555
H123 C106 1_555 1_555
H124 C106 1_555 1_555
C107 C108 1_555 1_555
C108 C109 1_555 1_555
C109 H125 1_555 1_555
C110 C109 1_555 1_555
H126 C110 1_555 1_555
C111 C110 1_555 1_555
C112 C108 1_555 1_555
C113 C112 1_555 1_555
H127 C113 1_555 1_555
C114 C111 1_555 1_555
H128 C114 1_555 1_555
C115 C112 1_555 1_555
C116 C115 1_555 1_555
H129 C116 1_555 1_555
C117 C116 1_555 1_555
C118 C117 1_555 1_555
C119 C118 1_555 1_555
H130 C119 1_555 1_555
C120 C119 1_555 1_555
H131 C120 1_555 1_555
C121 C120 1_555 1_555
C122 C118 1_555 1_555
C123 C122 1_555 1_555
H132 C123 1_555 1_555
C124 C121 1_555 1_555
H133 C124 1_555 1_555
C125 C122 1_555 1_555
C126 C125 1_555 1_555
H134 C126 1_555 1_555
C127 C126 1_555 1_555
C128 C127 1_555 1_555
C129 C128 1_555 1_555
H135 C129 1_555 1_555
H136 C129 1_555 1_555
H137 C129 1_555 1_555
C130 C128 1_555 1_555
C131 C130 1_555 1_555
H138 C131 1_555 1_555
H139 C131 1_555 1_555
C132 C131 1_555 1_555
H140 C132 1_555 1_555
H141 C132 1_555 1_555
C133 C132 1_555 1_555
O9 C133 1_555 1_555
C134 O9 1_555 1_555
H142 C134 1_555 1_555
H143 C134 1_555 1_555
H144 C134 1_555 1_555
O10 C133 1_555 1_555
C135 C130 1_555 1_555
C136 C135 1_555 1_555
H145 C136 1_555 1_555
C137 C136 1_555 1_555
C138 C137 1_555 1_555
C139 C138 1_555 1_555
H146 C139 1_555 1_555
H147 C139 1_555 1_555
C140 C139 1_555 1_555
H148 C140 1_555 1_555
H149 C140 1_555 1_555
C141 C140 1_555 1_555
O11 C141 1_555 1_555
C142 O11 1_555 1_555
H150 C142 1_555 1_555
H151 C142 1_555 1_555
H152 C142 1_555 1_555
O12 C141 1_555 1_555
C143 C138 1_555 1_555
C144 C143 1_555 1_555
H153 C144 1_555 1_555
H154 C144 1_555 1_555
H155 C144 1_555 1_555
C145 C143 1_555 1_555
C146 C107 1_555 1_555
H156 C146 1_555 1_555
C147 C107 1_555 1_555
H157 C147 1_555 1_555
C148 C117 1_555 1_555
H158 C148 1_555 1_555
N5 C127 1_555 1_555
H159 N5 1_555 1_555
N6 C137 1_555 1_555
C149 C1 1_555 1_555
C150 C4 1_555 1_555
C151 C152 1_555 1_555
C152 C153 1_555 1_555
C153 H160 1_555 1_555
C154 C153 1_555 1_555
H161 C154 1_555 1_555
C155 C154 1_555 1_555
C156 C152 1_555 1_555
C157 C156 1_555 1_555
H162 C157 1_555 1_555
C158 C155 1_555 1_555
H163 C158 1_555 1_555
C159 C156 1_555 1_555
C160 C159 1_555 1_555
H164 C160 1_555 1_555
C161 C160 1_555 1_555
C162 C161 1_555 1_555
C163 C162 1_555 1_555
H165 C163 1_555 1_555
C164 C163 1_555 1_555
H166 C164 1_555 1_555
C165 C164 1_555 1_555
C166 C162 1_555 1_555
C167 C166 1_555 1_555
H167 C167 1_555 1_555
C168 C165 1_555 1_555
H168 C168 1_555 1_555
C169 C166 1_555 1_555
C170 C169 1_555 1_555
H169 C170 1_555 1_555
C171 C170 1_555 1_555
C172 C171 1_555 1_555
C173 C172 1_555 1_555
H170 C173 1_555 1_555
H171 C173 1_555 1_555
H172 C173 1_555 1_555
C174 H173 1_555 1_555
H174 C174 1_555 1_555
C175 C174 1_555 1_555
H175 C175 1_555 1_555
H176 C175 1_555 1_555
C176 C175 1_555 1_555
O13 C176 1_555 1_555
C177 O13 1_555 1_555
H177 C177 1_555 1_555
H178 C177 1_555 1_555
H179 C177 1_555 1_555
O14 C176 1_555 1_555
C178 C172 1_555 1_555
C179 C178 1_555 1_555
C180 C179 1_555 1_555
H180 C180 1_555 1_555
C181 C180 1_555 1_555
C182 C181 1_555 1_555
C183 C182 1_555 1_555
H181 C183 1_555 1_555
H182 C183 1_555 1_555
C184 C183 1_555 1_555
H183 C184 1_555 1_555
H184 C184 1_555 1_555
C185 C184 1_555 1_555
O15 C185 1_555 1_555
C186 O15 1_555 1_555
H185 C186 1_555 1_555
H186 C186 1_555 1_555
H187 C186 1_555 1_555
O16 C185 1_555 1_555
C187 C182 1_555 1_555
C188 C187 1_555 1_555
H188 C188 1_555 1_555
H189 C188 1_555 1_555
H190 C188 1_555 1_555
C189 C187 1_555 1_555
C190 C151 1_555 1_555
H191 C190 1_555 1_555
C191 C151 1_555 1_555
H192 C191 1_555 1_555
C192 C161 1_555 1_555
H193 C192 1_555 1_555
N7 C171 1_555 1_555
N8 C181 1_555 1_555
H194 N8 1_555 1_555
C193 C155 1_555 1_555
C194 C193 1_555 1_555
H195 C194 1_555 1_555
H196 C194 1_555 1_555
H197 C194 1_555 1_555
C195 C193 1_555 1_555
H198 C195 1_555 1_555
H199 C195 1_555 1_555
H200 C195 1_555 1_555
C196 C193 1_555 1_555
H201 C196 1_555 1_555
H202 C196 1_555 1_555
H203 C196 1_555 1_555
C197 C165 1_555 1_555
C198 C197 1_555 1_555
H204 C198 1_555 1_555
H205 C198 1_555 1_555
H206 C198 1_555 1_555
C199 C197 1_555 1_555
H207 C199 1_555 1_555
H208 C199 1_555 1_555
H209 C199 1_555 1_555
C200 C197 1_555 1_555
H210 C200 1_555 1_555
H211 C200 1_555 1_555
H212 C200 1_555 1_555
C2 C149 1_555 1_555
C3 C149 1_555 1_555
C5 C150 1_555 1_555
C6 C150 1_555 1_555
C13 C14 1_555 1_555
C15 C47 1_555 1_555
C23 C24 1_555 1_555
C25 C48 1_555 1_555
C35 N1 1_555 1_555
C45 C46 1_555 1_555
C45 N2 1_555 1_555
C63 C64 1_555 1_555
C65 C97 1_555 1_555
C73 C74 1_555 1_555
C75 C98 1_555 1_555
C85 N3 1_555 1_555
C95 C96 1_555 1_555
C95 N4 1_555 1_555
C111 C149 1_555 1_555
C113 C114 1_555 1_555
C115 C147 1_555 1_555
C121 C150 1_555 1_555
C123 C124 1_555 1_555
C125 C148 1_555 1_555
C135 N5 1_555 1_555
C145 C146 1_555 1_555
C145 N6 1_555 1_555
C157 C158 1_555 1_555
C159 C191 1_555 1_555
C167 C168 1_555 1_555
C169 C192 1_555 1_555
C174 C178 1_555 1_555
C179 N7 1_555 1_555
C189 C190 1_555 1_555
C189 N8 1_555 1_555

#END
