
#######################################################################
#
#                 Cambridge Crystallographic Data Centre
#                                CCDC 
#
#######################################################################
#
# If this CIF has been generated from an entry in the Cambridge 
# Structural Database, then it will include bibliographic, chemical, 
# crystal, experimental, refinement or atomic coordinate data resulting 
# from the CCDC's data processing and validation procedures.
#
#######################################################################

data_POPNOY
_chemical_formula_moiety         'C31 H29 N1 O5,C1 H4 O1'
_chemical_name_systematic        
"2-(3a',10'-Dihydroxy-1'-(2-methylphenyl)-2'-oxo-1',2',5a',10'-tetrahydro-5'H-spiro[cyclopentane-1,3'-indeno[2',1':3,4]furo[3,2-b]pyrrol]-5'-yl)benzaldehyde methanol solvate"
_symmetry_cell_setting           tetragonal
_symmetry_space_group_name_H-M   'I 41/a'
_symmetry_Int_Tables_number      88
_space_group_name_Hall           '-I 4ad'
loop_
_symmetry_equiv_pos_site_id
_symmetry_equiv_pos_as_xyz
1 x,y,z
2 -x,1/2-y,z
3 3/4-y,1/4+x,1/4+z
4 1/4+y,1/4-x,1/4+z
5 1/2+x,1/2+y,1/2+z
6 1/2-x,-y,1/2+z
7 1/4-y,3/4+x,3/4+z
8 3/4+y,3/4-x,3/4+z
9 -x,-y,-z
10 x,1/2+y,-z
11 1/4+y,3/4-x,3/4-z
12 3/4-y,3/4+x,3/4-z
13 1/2-x,1/2-y,1/2-z
14 1/2+x,y,1/2-z
15 3/4+y,1/4-x,1/4-z
16 1/4-y,1/4+x,1/4-z
_cell_length_a                   20.4350(13)
_cell_length_b                   20.4350(13)
_cell_length_c                   28.3850(19)
_cell_angle_alpha                90
_cell_angle_beta                 90
_cell_angle_gamma                90
_cell_volume                     11853.3
_exptl_crystal_colour            colorless
_exptl_crystal_description       block
_chemical_melting_point          '196-198 deg.C'
_cell_formula_units_Z            16
loop_
_atom_site_label
_atom_site_type_symbol
_atom_site_fract_x
_atom_site_fract_y
_atom_site_fract_z
O5 O 0.4360(5) 0.1680(11) 0.2126(9)
C32 C 0.4909(10) 0.2156(7) 0.2129(6)
O5A O 0.5640(5) 0.3320(11) 0.2126(9)
C32A C 0.5091(10) 0.2844(7) 0.2129(6)
C1 C 0.60906(12) 0.05704(12) 0.17091(8)
H1 H 0.5773 0.0657 0.1960
C2 C 0.61324(12) -0.01658(12) 0.16076(9)
H2 H 0.6064 -0.0406 0.1902
C3 C 0.69060(13) 0.14514(12) 0.17427(9)
H3 H 0.6722 0.1719 0.1997
C4 C 0.56514(13) -0.04138(12) 0.12428(9)
C5 C 0.72304(12) 0.02178(12) 0.16140(8)
C6 C 0.65637(13) 0.08798(13) 0.27546(8)
C7 C 0.67893(12) 0.07287(12) 0.18781(8)
C8 C 0.77066(12) -0.00589(13) 0.19847(9)
C9 C 0.64647(15) 0.15328(13) 0.13220(9)
C10 C 0.73679(13) 0.00984(14) 0.24449(9)
C11 C 0.59499(15) 0.06503(15) 0.28772(9)
H4 H 0.5774 0.0287 0.2726
C12 C 0.68486(15) 0.14054(14) 0.29837(9)
C13 C 0.59955(14) 0.10464(12) 0.13041(9)
C14 C 0.55055(16) 0.10734(14) 0.09651(10)
H5 H 0.5180 0.0756 0.0954
C15 C 0.49931(14) -0.05328(14) 0.13582(10)
C16 C 0.53940(15) -0.06447(16) 0.04316(11)
H6 H 0.5533 -0.0685 0.0121
C17 C 0.64761(18) 0.20379(15) 0.09957(11)
H7 H 0.6799 0.2358 0.1007
C18 C 0.58593(19) 0.14950(19) 0.34501(11)
H8 H 0.5621 0.1711 0.3682
C19 C 0.58392(14) -0.04798(13) 0.07769(10)
H9 H 0.6274 -0.0412 0.0695
C20 C 0.47458(16) -0.07499(18) 0.05420(13)
H10 H 0.4445 -0.0854 0.0308
C21 C 0.64737(19) 0.17095(17) 0.33331(11)
H11 H 0.6647 0.2069 0.3491
C22 C 0.5514(2) 0.15830(17) 0.06444(12)
H12 H 0.5187 0.1608 0.0417
C23 C 0.55985(17) 0.09671(18) 0.32273(11)
H13 H 0.5184 0.0818 0.3310
C24 C 0.45521(15) -0.06992(17) 0.10042(13)
H14 H 0.4117 -0.0778 0.1082
C25 C 0.5995(2) 0.20525(18) 0.06540(13)
H15 H 0.5996 0.2383 0.0429
C26 C 0.75328(17) 0.16266(18) 0.28861(12)
H16 H 0.7635 0.1995 0.3082
H17 H 0.7571 0.1751 0.2561
H18 H 0.7832 0.1276 0.2952
C27 C 0.78779(14) -0.07855(14) 0.19228(11)
H19 H 0.7645 -0.1049 0.2152
H20 H 0.7759 -0.0933 0.1610
C28 C 0.86126(17) -0.0843(2) 0.19961(16)
H21 H 0.8716 -0.0907 0.2326
H22 H 0.8791 -0.1205 0.1816
C29 C 0.83883(14) 0.02872(16) 0.19966(11)
H23 H 0.8388 0.0670 0.1794
H24 H 0.8496 0.0423 0.2315
C30 C 0.88705(17) -0.02081(19) 0.18232(15)
H25 H 0.8895 -0.0204 0.1482
H26 H 0.9303 -0.0123 0.1951
N1 N 0.69089(10) 0.05617(10) 0.23749(6)
O1 O 0.75069(11) -0.01405(11) 0.28286(7)
O2 O 0.67918(8) -0.02761(8) 0.14485(6)
O3 O 0.49875(14) -0.03395(15) 0.21906(9)
O6 O 0.75608(10) 0.16513(9) 0.16818(7)
H27 H 0.7734(16) 0.1398(15) 0.1457(9)
O7 O 0.75621(10) 0.04751(10) 0.12273(6)
H28 H 0.7424(17) 0.0306(18) 0.0980(13)
C33 C 0.47124(19) -0.0495(2) 0.18362(14)
H29 H 0.422(2) -0.0594(18) 0.1835(13)
O4? O 0.4705(5) 0.2472(4) -0.0548(5)
C31? C 0.4772(5) 0.2347(9) -0.1088(6)
loop_
_geom_bond_atom_site_label_1
_geom_bond_atom_site_label_2
_geom_bond_site_symmetry_1
_geom_bond_site_symmetry_2
C1 H1 1_555 1_555
C2 C1 1_555 1_555
H2 C2 1_555 1_555
C3 H3 1_555 1_555
C4 C2 1_555 1_555
C5 C7 1_555 1_555
C6 C11 1_555 1_555
C7 C1 1_555 1_555
C8 C5 1_555 1_555
C9 C3 1_555 1_555
C10 C8 1_555 1_555
C11 H4 1_555 1_555
C12 C6 1_555 1_555
C13 C1 1_555 1_555
C14 C13 1_555 1_555
H5 C14 1_555 1_555
C15 C4 1_555 1_555
C16 H6 1_555 1_555
C17 C9 1_555 1_555
H7 C17 1_555 1_555
C18 H8 1_555 1_555
C19 C4 1_555 1_555
H9 C19 1_555 1_555
C20 C16 1_555 1_555
H10 C20 1_555 1_555
C21 C12 1_555 1_555
H11 C21 1_555 1_555
C22 C14 1_555 1_555
H12 C22 1_555 1_555
C23 C11 1_555 1_555
H13 C23 1_555 1_555
C24 C15 1_555 1_555
H14 C24 1_555 1_555
C25 C17 1_555 1_555
H15 C25 1_555 1_555
C26 C12 1_555 1_555
H16 C26 1_555 1_555
H17 C26 1_555 1_555
H18 C26 1_555 1_555
C27 C8 1_555 1_555
H19 C27 1_555 1_555
H20 C27 1_555 1_555
C28 C27 1_555 1_555
H21 C28 1_555 1_555
H22 C28 1_555 1_555
C29 C8 1_555 1_555
H23 C29 1_555 1_555
H24 C29 1_555 1_555
C30 C28 1_555 1_555
H25 C30 1_555 1_555
H26 C30 1_555 1_555
N1 C6 1_555 1_555
O1 C10 1_555 1_555
O2 C2 1_555 1_555
O3 C33 1_555 1_555
O5 C32 1_555 1_555
C32 C32A 1_555 1_555
O6 C3 1_555 1_555
H27 O6 1_555 1_555
O7 C5 1_555 1_555
H28 O7 1_555 1_555
C33 C15 1_555 1_555
H29 C33 1_555 1_555
O5A C32A 1_555 1_555
C3 C7 1_555 1_555
C5 O2 1_555 1_555
C7 N1 1_555 1_555
C9 C13 1_555 1_555
C10 N1 1_555 1_555
C16 C19 1_555 1_555
C18 C21 1_555 1_555
C18 C23 1_555 1_555
C20 C24 1_555 1_555
C22 C25 1_555 1_555
C29 C30 1_555 1_555

#END
