
#######################################################################
#
#                 Cambridge Crystallographic Data Centre
#                                CCDC 
#
#######################################################################
#
# If this CIF has been generated from an entry in the Cambridge 
# Structural Database, then it will include bibliographic, chemical, 
# crystal, experimental, refinement or atomic coordinate data resulting 
# from the CCDC's data processing and validation procedures.
#
#######################################################################

data_POPPAM
_chemical_formula_moiety         'C24 H19 Br1 N2 O2'
_chemical_name_systematic        
(5-Benzyl-2-methyl-4-(4-pyridinyl)-1H-pyrrol-3-yl)(5-bromo-2-hydroxyphenyl)methanone
_symmetry_cell_setting           monoclinic
_symmetry_space_group_name_H-M   'I a'
_symmetry_Int_Tables_number      9
_space_group_name_Hall           'I -2ya'
loop_
_symmetry_equiv_pos_site_id
_symmetry_equiv_pos_as_xyz
1 x,y,z
2 1/2+x,-y,z
3 1/2+x,1/2+y,1/2+z
4 x,1/2-y,1/2+z
_cell_length_a                   19.979(5)
_cell_length_b                   9.253(2)
_cell_length_c                   24.348(8)
_cell_angle_alpha                90
_cell_angle_beta                 111.914(5)
_cell_angle_gamma                90
_cell_volume                     4175.88
_exptl_crystal_colour            colorless
_exptl_crystal_description       block
_chemical_melting_point          '252-253 deg.C'
_cell_formula_units_Z            8
loop_
_atom_site_label
_atom_site_type_symbol
_atom_site_fract_x
_atom_site_fract_y
_atom_site_fract_z
Br1 Br 0.34307(11) 1.1060(3) 0.46380(8)
N1 N 0.4994(8) 0.5367(17) 0.6514(7)
H1 H 0.516(5) 0.439(4) 0.654(4)
N2 N 0.5303(10) 1.2387(18) 0.6492(9)
O1 O 0.3279(8) 0.7466(16) 0.6853(7)
O2 O 0.2615(7) 0.9864(16) 0.6749(6)
H2 H 0.2735 0.9036 0.6865
C1 C 0.4314(10) 0.567(2) 0.6526(9)
C2 C 0.4237(10) 0.718(2) 0.6489(9)
C3 C 0.4894(10) 0.779(2) 0.6431(8)
C4 C 0.5295(11) 0.665(2) 0.6471(10)
C5 C 0.3806(12) 0.446(2) 0.6540(10)
H3 H 0.3767 0.3767 0.6235
H4 H 0.3339 0.4849 0.6476
H5 H 0.3993 0.3985 0.6919
C6 C 0.3621(11) 0.792(2) 0.6519(10)
C7 C 0.3313(11) 0.922(2) 0.6146(10)
C8 C 0.3485(11) 0.951(2) 0.5665(10)
H6 H 0.3791 0.8906 0.5560
C9 C 0.3177(11) 1.076(2) 0.5331(8)
C10 C 0.2783(13) 1.170(3) 0.5490(11)
H7 H 0.2642 1.2561 0.5285
C11 C 0.2580(13) 1.138(3) 0.5965(12)
H8 H 0.2264 1.2005 0.6050
C12 C 0.2836(11) 1.017(3) 0.6316(10)
C13 C 0.5104(11) 0.936(2) 0.6482(10)
C14 C 0.4989(9) 1.025(2) 0.6910(9)
H9 H 0.4845 0.9847 0.7199
C15 C 0.5093(11) 1.170(3) 0.6894(11)
H10 H 0.5014 1.2264 0.7180
C16 C 0.5418(11) 1.152(2) 0.6115(11)
H11 H 0.5566 1.1951 0.5834
C17 C 0.5345(10) 1.002(2) 0.6085(9)
H12 H 0.5455 0.9487 0.5806
C18 C 0.6074(11) 0.658(3) 0.6479(10)
H13 H 0.6237 0.7569 0.6471
H14 H 0.6381 0.6165 0.6854
C19 C 0.6196(6) 0.5739(10) 0.5980(3)
C20 C 0.5793(4) 0.6092(8) 0.5394(4)
H15 H 0.5440 0.6805 0.5308
C21 C 0.5915(5) 0.5378(10) 0.4938(3)
H16 H 0.5645 0.5615 0.4546
C22 C 0.6442(5) 0.4312(10) 0.5068(4)
H17 H 0.6524 0.3835 0.4763
C23 C 0.6846(5) 0.3959(10) 0.5654(5)
H18 H 0.7198 0.3246 0.5740
C24 C 0.6723(5) 0.4673(12) 0.6110(3)
H19 H 0.6993 0.4437 0.6501
Br2 Br 0.83526(12) 1.1075(4) 0.99052(8)
N3 N 0.6839(10) 0.540(2) 0.8087(8)
H20 H 0.663(6) 0.455(7) 0.818(4)
N4 N 0.6460(9) 1.2321(19) 0.8048(9)
O3 O 0.8476(7) 0.7441(14) 0.7708(6)
O4 O 0.9223(9) 0.982(2) 0.7874(7)
H21 H 0.9281 0.8950 0.7847
C25 C 0.7456(12) 0.569(2) 0.8029(10)
C26 C 0.7519(11) 0.723(2) 0.8025(8)
C27 C 0.6876(10) 0.775(2) 0.8064(8)
C28 C 0.6400(12) 0.661(2) 0.8089(9)
C29 C 0.7993(10) 0.459(2) 0.8042(9)
H22 H 0.7978 0.4435 0.7648
H23 H 0.7885 0.3704 0.8196
H24 H 0.8465 0.4918 0.8291
C30 C 0.8168(12) 0.788(2) 0.8010(10)
C31 C 0.8476(11) 0.921(2) 0.8391(10)
C32 C 0.8296(11) 0.953(2) 0.8893(9)
H25 H 0.8001 0.8882 0.8991
C33 C 0.8540(13) 1.075(2) 0.9243(11)
C34 C 0.9015(11) 1.165(3) 0.9097(10)
H26 H 0.9207 1.2451 0.9333
C35 C 0.9210(13) 1.140(2) 0.8615(13)
H27 H 0.9492 1.2041 0.8502
C36 C 0.8948(11) 1.007(3) 0.8301(9)
C37 C 0.6706(11) 0.929(2) 0.8063(9)
C38 C 0.6396(12) 0.994(3) 0.8437(11)
H28 H 0.6279 0.9366 0.8701
C39 C 0.6260(13) 1.143(2) 0.8421(11)
H29 H 0.6037 1.1822 0.8661
C40 C 0.6747(11) 1.171(2) 0.7691(10)
H30 H 0.6874 1.2308 0.7437
C41 C 0.6868(10) 1.021(2) 0.7677(9)
H31 H 0.7056 0.9838 0.7411
C42 C 0.5681(9) 0.652(2) 0.8065(9)
H32 H 0.5379 0.6103 0.7688
H33 H 0.5504 0.7484 0.8086
C43 C 0.5615(6) 0.5612(11) 0.8560(4)
C44 C 0.5016(6) 0.4725(13) 0.8439(4)
H34 H 0.4672 0.4673 0.8056
C45 C 0.4931(5) 0.3915(11) 0.8889(5)
H35 H 0.4530 0.3321 0.8808
C46 C 0.5446(6) 0.3992(10) 0.9461(5)
H36 H 0.5389 0.3450 0.9762
C47 C 0.6045(5) 0.4880(10) 0.9582(3)
H37 H 0.6390 0.4931 0.9965
C48 C 0.6130(5) 0.5689(9) 0.9132(4)
H38 H 0.6531 0.6283 0.9213
loop_
_geom_bond_atom_site_label_1
_geom_bond_atom_site_label_2
_geom_bond_site_symmetry_1
_geom_bond_site_symmetry_2
Br1 C9 1_555 1_555
N1 H1 1_555 1_555
N2 C15 1_555 1_555
O1 C6 1_555 1_555
O2 H2 1_555 1_555
C1 N1 1_555 1_555
C2 C1 1_555 1_555
C3 C2 1_555 1_555
C4 N1 1_555 1_555
C5 C1 1_555 1_555
H3 C5 1_555 1_555
H4 C5 1_555 1_555
H5 C5 1_555 1_555
C6 C2 1_555 1_555
C7 C6 1_555 1_555
C8 C7 1_555 1_555
H6 C8 1_555 1_555
C9 C8 1_555 1_555
C10 C9 1_555 1_555
H7 C10 1_555 1_555
C11 C10 1_555 1_555
H8 C11 1_555 1_555
C12 O2 1_555 1_555
C13 C3 1_555 1_555
C14 C13 1_555 1_555
H9 C14 1_555 1_555
C15 C14 1_555 1_555
H10 C15 1_555 1_555
C16 N2 1_555 1_555
H11 C16 1_555 1_555
C17 C13 1_555 1_555
H12 C17 1_555 1_555
C18 C4 1_555 1_555
H13 C18 1_555 1_555
H14 C18 1_555 1_555
C19 C18 1_555 1_555
C20 C19 1_555 1_555
H15 C20 1_555 1_555
C21 C20 1_555 1_555
H16 C21 1_555 1_555
C22 C21 1_555 1_555
H17 C22 1_555 1_555
C23 C22 1_555 1_555
H18 C23 1_555 1_555
C24 C19 1_555 1_555
H19 C24 1_555 1_555
Br2 C33 1_555 1_555
N3 H20 1_555 1_555
N4 C39 1_555 1_555
O3 C30 1_555 1_555
O4 H21 1_555 1_555
C25 N3 1_555 1_555
C26 C25 1_555 1_555
C27 C26 1_555 1_555
C28 N3 1_555 1_555
C29 C25 1_555 1_555
H22 C29 1_555 1_555
H23 C29 1_555 1_555
H24 C29 1_555 1_555
C30 C26 1_555 1_555
C31 C30 1_555 1_555
C32 C31 1_555 1_555
H25 C32 1_555 1_555
C33 C32 1_555 1_555
C34 C33 1_555 1_555
H26 C34 1_555 1_555
C35 C34 1_555 1_555
H27 C35 1_555 1_555
C36 O4 1_555 1_555
C37 C27 1_555 1_555
C38 C37 1_555 1_555
H28 C38 1_555 1_555
C39 C38 1_555 1_555
H29 C39 1_555 1_555
C40 N4 1_555 1_555
H30 C40 1_555 1_555
C41 C37 1_555 1_555
H31 C41 1_555 1_555
C42 C28 1_555 1_555
H32 C42 1_555 1_555
H33 C42 1_555 1_555
C43 C42 1_555 1_555
C44 C43 1_555 1_555
H34 C44 1_555 1_555
C45 C44 1_555 1_555
H35 C45 1_555 1_555
C46 C45 1_555 1_555
H36 C46 1_555 1_555
C47 C46 1_555 1_555
H37 C47 1_555 1_555
C48 C43 1_555 1_555
H38 C48 1_555 1_555
C3 C4 1_555 1_555
C7 C12 1_555 1_555
C11 C12 1_555 1_555
C16 C17 1_555 1_555
C23 C24 1_555 1_555
C27 C28 1_555 1_555
C31 C36 1_555 1_555
C35 C36 1_555 1_555
C40 C41 1_555 1_555
C47 C48 1_555 1_555

#END
