
#######################################################################
#
#                 Cambridge Crystallographic Data Centre
#                                CCDC 
#
#######################################################################
#
# If this CIF has been generated from an entry in the Cambridge 
# Structural Database, then it will include bibliographic, chemical, 
# crystal, experimental, refinement or atomic coordinate data resulting 
# from the CCDC's data processing and validation procedures.
#
#######################################################################

data_POPPUG
_chemical_formula_moiety         'C28 H36 N2 O2'
_chemical_name_systematic        
(S,S)-2,2'-((1,2-Dicyclohexyl-1,2-ethanediyl)bis(nitrilomethylylidene))diphenol
_symmetry_cell_setting           orthorhombic
_symmetry_space_group_name_H-M   'P 21 21 21'
_symmetry_Int_Tables_number      19
_space_group_name_Hall           'P 2ac 2ab'
loop_
_symmetry_equiv_pos_site_id
_symmetry_equiv_pos_as_xyz
1 x,y,z
2 1/2-x,-y,1/2+z
3 1/2+x,1/2-y,-z
4 -x,1/2+y,1/2-z
_cell_length_a                   5.9303(3)
_cell_length_b                   10.3195(7)
_cell_length_c                   39.850(3)
_cell_angle_alpha                90
_cell_angle_beta                 90
_cell_angle_gamma                90
_cell_volume                     2438.73
_exptl_crystal_colour            'pale yellow'
_exptl_crystal_description       needle
_chemical_melting_point          188-189deg.C
_cell_formula_units_Z            4
loop_
_atom_site_label
_atom_site_type_symbol
_atom_site_fract_x
_atom_site_fract_y
_atom_site_fract_z
O1 O 0.2360(5) 0.4184(3) 0.12047(7)
O2 O 0.9865(5) 0.9296(3) 0.05747(7)
N1 N 0.5756(5) 0.5753(3) 0.12598(8)
N2 N 0.6883(5) 0.8321(3) 0.09813(7)
C1 C 0.6946(6) 0.6764(3) 0.14474(9)
H1 H 0.8593 0.6698 0.1396
C2 C 0.6083(6) 0.8103(3) 0.13254(9)
H2 H 0.4397 0.8088 0.1323
C3 C 0.6817(6) 0.5064(3) 0.10439(9)
H3 H 0.8344 0.5264 0.0994
C4 C 0.5744(6) 0.3987(3) 0.08745(9)
C5 C 0.6874(7) 0.3336(3) 0.06157(10)
H4 H 0.8345 0.3606 0.0552
C6 C 0.5872(9) 0.2302(4) 0.04506(11)
H5 H 0.6626 0.1889 0.0270
C7 C 0.3776(8) 0.1879(4) 0.05510(12)
H6 H 0.3119 0.1150 0.0443
C8 C 0.2619(8) 0.2488(3) 0.08031(12)
H7 H 0.1173 0.2184 0.0869
C9 C 0.3577(7) 0.3559(3) 0.09638(11)
C10 C 0.5480(6) 0.8316(3) 0.07388(9)
H8 H 0.3960 0.8074 0.0781
C11 C 0.6150(6) 0.8674(3) 0.03980(10)
C12 C 0.4572(6) 0.8579(3) 0.01368(9)
H9 H 0.3119 0.8231 0.0181
C13 C 0.5101(7) 0.8986(3) -0.01846(10)
H10 H 0.4029 0.8906 -0.0360
C14 C 0.7216(7) 0.9512(3) -0.02478(10)
H11 H 0.7582 0.9798 -0.0468
C15 C 0.8797(7) 0.9625(3) 0.00071(10)
H12 H 1.0233 0.9994 -0.0038
C16 C 0.8271(6) 0.9194(3) 0.03288(9)
C17 C 0.6866(6) 0.9251(3) 0.15437(9)
H13 H 0.6211 0.9121 0.1772
C18 C 0.5942(7) 1.0542(3) 0.14100(10)
H14 H 0.6601 1.0721 0.1187
H15 H 0.4286 1.0479 0.1384
C19 C 0.6513(7) 1.1653(3) 0.16497(10)
H16 H 0.5964 1.2480 0.1554
H17 H 0.5735 1.1514 0.1866
C20 C 0.9041(7) 1.1745(4) 0.17096(11)
H18 H 0.9345 1.2417 0.1881
H19 H 0.9798 1.2010 0.1499
C21 C 1.0017(7) 1.0453(3) 0.18274(10)
H20 H 0.9418 1.0247 0.2053
H21 H 1.1677 1.0528 0.1845
C22 C 0.9427(6) 0.9354(3) 0.15859(10)
H22 H 1.0027 0.8526 0.1674
H23 H 1.0136 0.9519 0.1365
C23 C 0.6603(6) 0.6516(3) 0.18258(9)
H24 H 0.7469 0.7198 0.1949
C24 C 0.4157(7) 0.6614(4) 0.19402(10)
H25 H 0.3225 0.6000 0.1809
H26 H 0.3591 0.7501 0.1896
C25 C 0.3916(8) 0.6311(4) 0.23138(10)
H27 H 0.4706 0.6985 0.2446
H28 H 0.2300 0.6334 0.2376
C26 C 0.4886(9) 0.4987(4) 0.24005(11)
H29 H 0.4752 0.4833 0.2645
H30 H 0.4027 0.4303 0.2282
C27 C 0.7346(8) 0.4928(4) 0.22975(11)
H31 H 0.7956 0.4057 0.2349
H32 H 0.8218 0.5571 0.2428
C28 C 0.7619(7) 0.5205(3) 0.19238(10)
H33 H 0.6872 0.4510 0.1793
H34 H 0.9243 0.5198 0.1866
H35 H 0.346(7) 0.497(4) 0.1264(12)
H36 H 0.903(8) 0.888(5) 0.0733(15)
loop_
_geom_bond_atom_site_label_1
_geom_bond_atom_site_label_2
_geom_bond_site_symmetry_1
_geom_bond_site_symmetry_2
O1 C9 1_555 1_555
O2 C16 1_555 1_555
N1 C1 1_555 1_555
N2 C2 1_555 1_555
C1 H1 1_555 1_555
C2 C1 1_555 1_555
H2 C2 1_555 1_555
C3 N1 1_555 1_555
H3 C3 1_555 1_555
C4 C3 1_555 1_555
C5 C4 1_555 1_555
H4 C5 1_555 1_555
C6 C5 1_555 1_555
H5 C6 1_555 1_555
C7 C6 1_555 1_555
H6 C7 1_555 1_555
C8 C7 1_555 1_555
H7 C8 1_555 1_555
C9 C4 1_555 1_555
C10 N2 1_555 1_555
H8 C10 1_555 1_555
C11 C10 1_555 1_555
C12 C11 1_555 1_555
H9 C12 1_555 1_555
C13 C12 1_555 1_555
H10 C13 1_555 1_555
C14 C13 1_555 1_555
H11 C14 1_555 1_555
C15 C14 1_555 1_555
H12 C15 1_555 1_555
C16 C11 1_555 1_555
C17 C2 1_555 1_555
H13 C17 1_555 1_555
C18 C17 1_555 1_555
H14 C18 1_555 1_555
H15 C18 1_555 1_555
C19 C18 1_555 1_555
H16 C19 1_555 1_555
H17 C19 1_555 1_555
C20 C19 1_555 1_555
H18 C20 1_555 1_555
H19 C20 1_555 1_555
C21 C20 1_555 1_555
H20 C21 1_555 1_555
H21 C21 1_555 1_555
C22 C17 1_555 1_555
H22 C22 1_555 1_555
H23 C22 1_555 1_555
C23 C1 1_555 1_555
H24 C23 1_555 1_555
C24 C23 1_555 1_555
H25 C24 1_555 1_555
H26 C24 1_555 1_555
C25 C24 1_555 1_555
H27 C25 1_555 1_555
H28 C25 1_555 1_555
C26 C25 1_555 1_555
H29 C26 1_555 1_555
H30 C26 1_555 1_555
C27 C26 1_555 1_555
H31 C27 1_555 1_555
H32 C27 1_555 1_555
C28 C23 1_555 1_555
H33 C28 1_555 1_555
H34 C28 1_555 1_555
H35 O1 1_555 1_555
H36 O2 1_555 1_555
C8 C9 1_555 1_555
C15 C16 1_555 1_555
C21 C22 1_555 1_555
C27 C28 1_555 1_555

#END
