
#######################################################################
#
#                 Cambridge Crystallographic Data Centre
#                                CCDC 
#
#######################################################################
#
# If this CIF has been generated from an entry in the Cambridge 
# Structural Database, then it will include bibliographic, chemical, 
# crystal, experimental, refinement or atomic coordinate data resulting 
# from the CCDC's data processing and validation procedures.
#
#######################################################################

data_POPTUJ
_chemical_formula_moiety         'C14 H18 N2 O2 S1'
_chemical_name_systematic        
6-Phenylsulfonyl-2,10-diazabicyclo(4.4.0)dec-1-ene
_symmetry_cell_setting           monoclinic
_symmetry_space_group_name_H-M   'P 21/n'
_symmetry_Int_Tables_number      14
_space_group_name_Hall           '-P 2yn'
loop_
_symmetry_equiv_pos_site_id
_symmetry_equiv_pos_as_xyz
1 x,y,z
2 1/2-x,1/2+y,1/2-z
3 -x,-y,-z
4 1/2+x,1/2-y,1/2+z
_cell_length_a                   7.3096
_cell_length_b                   12.0184
_cell_length_c                   15.332
_cell_angle_alpha                90
_cell_angle_beta                 91.510
_cell_angle_gamma                90
_cell_volume                     1346.44
_exptl_crystal_colour            colorless
_chemical_melting_point          '95-97 deg.C'
_cell_formula_units_Z            4
loop_
_atom_site_label
_atom_site_type_symbol
_atom_site_fract_x
_atom_site_fract_y
_atom_site_fract_z
S1 S 0.22973(5) 0.33990(3) 0.24650(2)
O1 O 0.25825(19) 0.45775(11) 0.23762(9)
O2 O 0.37376(13) 0.27475(12) 0.28679(7)
N1 N -0.06937(19) 0.49091(10) 0.38413(8)
N2 N 0.11910(18) 0.36482(11) 0.45372(8)
C1 C -0.1734(3) 0.5348(2) 0.3098(1)
C2 C -0.1689(3) 0.4696(2) 0.2249(1)
C3 C -0.1513(2) 0.3464(1) 0.2437(1)
C4 C 0.01204(19) 0.31766(11) 0.30448(9)
C5 C -0.0011(2) 0.1963(1) 0.3351(1)
C6 C 0.1243(2) 0.1663(1) 0.4121(1)
C7 C 0.1084(2) 0.2506(1) 0.4853(1)
C8 C 0.01371(18) 0.39804(11) 0.38166(9)
C9 C 0.18644(18) 0.28458(12) 0.14078(9)
C10 C 0.1413(2) 0.3560(1) 0.0722(1)
C11 C 0.0973(2) 0.3105(2) -0.0091(1)
C12 C 0.0978(2) 0.1974(2) -0.0208(1)
C13 C 0.1477(2) 0.1273(2) 0.0471(1)
C14 C 0.1943(2) 0.1705(1) 0.1285(1)
H1 H 0.1219(28) 0.4142(19) 0.4945(15)
H2 H -0.2899(33) 0.5339(19) 0.3237(15)
H3 H -0.1316(28) 0.6088(21) 0.2964(14)
H4 H -0.0679(36) 0.4912(20) 0.1952(15)
H5 H -0.2822(26) 0.4882(17) 0.1876(12)
H6 H -0.1470(30) 0.3054(20) 0.1928(17)
H7 H -0.2602(29) 0.3217(16) 0.2744(15)
H8 H 0.0084(29) 0.1422(18) 0.2850(14)
H9 H -0.1243(28) 0.1942(17) 0.3539(13)
H10 H 0.2491(28) 0.1643(14) 0.3873(13)
H11 H 0.0931(28) 0.0938(19) 0.4359(14)
H12 H 0.2058(25) 0.2413(14) 0.5243(11)
H13 H -0.0072(26) 0.2413(15) 0.5174(13)
H14 H 0.1418(26) 0.4266(18) 0.0796(13)
H15 H 0.0709(26) 0.3583(17) -0.0562(14)
H16 H 0.0642(46) 0.1662(24) -0.0806(22)
H17 H 0.1494(27) 0.0551(20) 0.0377(13)
H18 H 0.2334(24) 0.1202(16) 0.1751(12)
loop_
_geom_bond_atom_site_label_1
_geom_bond_atom_site_label_2
_geom_bond_site_symmetry_1
_geom_bond_site_symmetry_2
S1 O1 1_555 1_555
O2 S1 1_555 1_555
N1 C1 1_555 1_555
N2 C7 1_555 1_555
C1 C2 1_555 1_555
C2 C3 1_555 1_555
C3 C4 1_555 1_555
C4 S1 1_555 1_555
C5 C4 1_555 1_555
C6 C5 1_555 1_555
C7 C6 1_555 1_555
C8 N1 1_555 1_555
C9 S1 1_555 1_555
C10 C9 1_555 1_555
C11 C10 1_555 1_555
C12 C11 1_555 1_555
C13 C12 1_555 1_555
C14 C9 1_555 1_555
H1 N2 1_555 1_555
H2 C1 1_555 1_555
H3 C1 1_555 1_555
H4 C2 1_555 1_555
H5 C2 1_555 1_555
H6 C3 1_555 1_555
H7 C3 1_555 1_555
H8 C5 1_555 1_555
H9 C5 1_555 1_555
H10 C6 1_555 1_555
H11 C6 1_555 1_555
H12 C7 1_555 1_555
H13 C7 1_555 1_555
H14 C10 1_555 1_555
H15 C11 1_555 1_555
H16 C12 1_555 1_555
H17 C13 1_555 1_555
H18 C14 1_555 1_555
N2 C8 1_555 1_555
C4 C8 1_555 1_555
C13 C14 1_555 1_555

#END
