
#######################################################################
#
#                 Cambridge Crystallographic Data Centre
#                                CCDC 
#
#######################################################################
#
# If this CIF has been generated from an entry in the Cambridge 
# Structural Database, then it will include bibliographic, chemical, 
# crystal, experimental, refinement or atomic coordinate data resulting 
# from the CCDC's data processing and validation procedures.
#
#######################################################################

data_POPVAR
_chemical_name_common            
'6-Phenylsulfonyl-10-aza-2-azoniabicyclo(4.4.0)dec-1-ene naproxen'
_chemical_formula_moiety         'C14 H19 N2 O2 S1 1+,C14 H13 O3 1-'
_chemical_name_systematic        
'6-Phenylsulfonyl-10-aza-2-azoniabicyclo(4.4.0)dec-1-ene S-6-methoxy-\a-methyl-2-naphthaleneacetate'
_symmetry_cell_setting           orthorhombic
_symmetry_space_group_name_H-M   'P 21 21 21'
_symmetry_Int_Tables_number      19
_space_group_name_Hall           'P 2ac 2ab'
loop_
_symmetry_equiv_pos_site_id
_symmetry_equiv_pos_as_xyz
1 x,y,z
2 1/2-x,-y,1/2+z
3 1/2+x,1/2-y,-z
4 -x,1/2+y,1/2-z
_cell_length_a                   5.8526
_cell_length_b                   16.166
_cell_length_c                   26.694
_cell_angle_alpha                90
_cell_angle_beta                 90
_cell_angle_gamma                90
_cell_volume                     2525.6
_exptl_crystal_colour            colorless
_cell_formula_units_Z            4
loop_
_atom_site_label
_atom_site_type_symbol
_atom_site_fract_x
_atom_site_fract_y
_atom_site_fract_z
S1 S 0.9041(2) 0.8486(1) 0.8654(1)
O1 O 1.0668(4) 0.9134(2) 0.8759(1)
O2 O 0.9867(5) 0.7665(2) 0.8573(1)
N1 N 0.9640(5) 0.9947(2) 0.7744(1)
N2 N 1.0353(6) 0.8654(2) 0.7451(1)
C1 C 0.7375(6) 0.8801(2) 0.8092(1)
C2 C 0.5645(7) 0.9474(2) 0.8223(2)
C3 C 0.6736(8) 1.0270(3) 0.8395(2)
C4 C 0.8395(10) 1.0592(3) 0.8012(2)
C5 C 0.9173(6) 0.9156(2) 0.7745(1)
C6 C 0.9698(9) 0.7795(3) 0.7359(2)
C7 C 0.7166(10) 0.7717(4) 0.7388(2)
C8 C 0.6197(9) 0.8020(3) 0.7866(2)
C9 C 0.7080(6) 0.8465(2) 0.9158(1)
C10 C 0.5398(7) 0.7861(2) 0.9177(2)
C11 C 0.3920(9) 0.7863(3) 0.9582(2)
C12 C 0.4145(8) 0.8436(3) 0.9955(2)
C13 C 0.5829(8) 0.9017(3) 0.9938(1)
C14 C 0.7284(7) 0.9042(2) 0.9529(1)
H1 H 0.4575(81) 0.9271(25) 0.8465(14)
H2 H 0.4848(74) 0.9549(25) 0.7901(15)
H3 H 0.7395(79) 1.0207(23) 0.8755(15)
H4 H 0.5610(76) 1.0679(24) 0.8470(14)
H5 H 0.7532(81) 1.0920(24) 0.7744(15)
H6 H 0.9430(91) 1.0896(29) 0.8173(16)
H7 H 1.0096(72) 0.7650(25) 0.7016(16)
H8 H 1.0301(80) 0.7387(25) 0.7635(15)
H9 H 0.6513(91) 0.7195(30) 0.7342(18)
H10 H 0.634(11) 0.8142(32) 0.7089(21)
H11 H 0.4777(92) 0.8121(30) 0.7888(18)
H12 H 0.649(12) 0.7462(36) 0.8156(21)
H13 H 0.5234(61) 0.7452(20) 0.8910(12)
H14 H 0.2859(78) 0.7486(24) 0.9595(15)
H15 H 0.3195(76) 0.8427(26) 1.0251(15)
H16 H 0.5894(81) 0.9463(25) 1.0217(15)
H17 H 0.8392(70) 0.9461(22) 0.9495(13)
H18 H 1.0842(82) 1.0125(23) 0.7522(14)
H19 H 1.1542(69) 0.8860(21) 0.7254(13)
O3 O 1.3576(6) 0.9298(2) 0.6845(1)
O4 O 1.3078(5) 1.0532(2) 0.7165(1)
O5 O 1.6587(5) 0.7838(2) 0.3912(1)
C15 C 1.3794(6) 1.0055(2) 0.6833(1)
C16 C 1.5068(6) 1.0452(2) 0.6393(1)
C17 C 1.7103(8) 1.0953(3) 0.6576(2)
C18 C 1.5666(6) 0.9858(2) 0.5977(1)
C19 C 1.4330(7) 0.9798(2) 0.5561(1)
C20 C 1.4866(6) 0.9277(2) 0.5151(1)
C21 C 1.3494(6) 0.9225(2) 0.4716(1)
C22 C 1.4115(7) 0.8744(2) 0.4324(1)
C23 C 1.6159(7) 0.8281(2) 0.4340(1)
C24 C 1.8629(8) 0.7359(3) 0.3896(2)
C25 C 1.7512(6) 0.8300(2) 0.4753(1)
C26 C 1.6898(6) 0.8804(2) 0.5170(1)
C27 C 1.8233(7) 0.8853(2) 0.5607(1)
C28 C 1.7659(7) 0.9359(2) 0.5996(1)
H20 H 1.3895(63) 1.0839(20) 0.6270(12)
H21 H 1.8175(65) 1.0539(22) 0.6754(12)
H22 H 1.7927(81) 1.1264(25) 0.6290(16)
H23 H 1.6767(83) 1.1321(27) 0.6844(15)
H24 H 1.3061(69) 1.0094(21) 0.5556(12)
H25 H 1.2218(74) 0.9516(22) 0.4712(14)
H26 H 1.3258(69) 0.8699(22) 0.4043(13)
H27 H 1.8805(74) 0.6958(23) 0.4180(14)
H28 H 1.9884(91) 0.7729(29) 0.3910(18)
H29 H 1.8578(81) 0.7030(25) 0.3581(16)
H30 H 1.8883(69) 0.7975(20) 0.4756(12)
H31 H 1.9523(67) 0.8541(22) 0.5633(12)
H32 H 1.8672(62) 0.9364(19) 0.6310(13)
loop_
_geom_bond_atom_site_label_1
_geom_bond_atom_site_label_2
_geom_bond_site_symmetry_1
_geom_bond_site_symmetry_2
S1 O1 1_555 1_555
O2 S1 1_555 1_555
N1 C4 1_555 1_555
N2 C5 1_555 1_555
C1 S1 1_555 1_555
C2 C1 1_555 1_555
C3 C2 1_555 1_555
C4 C3 1_555 1_555
C5 N1 1_555 1_555
C6 N2 1_555 1_555
C7 C6 1_555 1_555
C8 C1 1_555 1_555
C9 S1 1_555 1_555
C10 C9 1_555 1_555
C11 C10 1_555 1_555
C12 C11 1_555 1_555
C13 C12 1_555 1_555
C14 C9 1_555 1_555
H1 C2 1_555 1_555
H2 C2 1_555 1_555
H3 C3 1_555 1_555
H4 C3 1_555 1_555
H5 C4 1_555 1_555
H6 C4 1_555 1_555
H7 C6 1_555 1_555
H8 C6 1_555 1_555
H9 C7 1_555 1_555
H10 C7 1_555 1_555
H11 C8 1_555 1_555
H12 C8 1_555 1_555
H13 C10 1_555 1_555
H14 C11 1_555 1_555
H15 C12 1_555 1_555
H16 C13 1_555 1_555
H17 C14 1_555 1_555
H18 N1 1_555 1_555
H19 N2 1_555 1_555
O3 C15 1_555 1_555
O4 C15 1_555 1_555
O5 C23 1_555 1_555
C15 C16 1_555 1_555
C16 C17 1_555 1_555
C17 H21 1_555 1_555
C18 C16 1_555 1_555
C19 C18 1_555 1_555
C20 C19 1_555 1_555
C21 C20 1_555 1_555
C22 C21 1_555 1_555
C23 C22 1_555 1_555
C24 O5 1_555 1_555
C25 C23 1_555 1_555
C26 C20 1_555 1_555
C27 C26 1_555 1_555
C28 C18 1_555 1_555
H20 C16 1_555 1_555
H22 C17 1_555 1_555
H23 C17 1_555 1_555
H24 C19 1_555 1_555
H25 C21 1_555 1_555
H26 C22 1_555 1_555
H27 C24 1_555 1_555
H28 C24 1_555 1_555
H29 C24 1_555 1_555
H30 C25 1_555 1_555
H31 C27 1_555 1_555
H32 C28 1_555 1_555
C1 C5 1_555 1_555
C7 C8 1_555 1_555
C13 C14 1_555 1_555
C25 C26 1_555 1_555
C27 C28 1_555 1_555

#END
