
#######################################################################
#
#                 Cambridge Crystallographic Data Centre
#                                CCDC 
#
#######################################################################
#
# If this CIF has been generated from an entry in the Cambridge 
# Structural Database, then it will include bibliographic, chemical, 
# crystal, experimental, refinement or atomic coordinate data resulting 
# from the CCDC's data processing and validation procedures.
#
#######################################################################

data_POPYUQ
_chemical_formula_moiety         'C21 H17 N3 O3'
_chemical_name_systematic        
2-((2-(hydroxymethyl)quinolin-8-yl)oxy)-N-(quinolin-8-yl)acetamide
_symmetry_cell_setting           monoclinic
_symmetry_space_group_name_H-M   'P 21/c'
_symmetry_Int_Tables_number      14
_space_group_name_Hall           '-P 2ybc'
loop_
_symmetry_equiv_pos_site_id
_symmetry_equiv_pos_as_xyz
1 x,y,z
2 -x,1/2+y,1/2-z
3 -x,-y,-z
4 x,1/2-y,1/2+z
_cell_length_a                   7.4644(9)
_cell_length_b                   9.6277(11)
_cell_length_c                   23.644(3)
_cell_angle_alpha                90
_cell_angle_beta                 94.293(12)
_cell_angle_gamma                90
_cell_volume                     1694.41
_exptl_crystal_colour            colorless
_exptl_crystal_description       block
_cell_formula_units_Z            4
loop_
_atom_site_label
_atom_site_type_symbol
_atom_site_fract_x
_atom_site_fract_y
_atom_site_fract_z
C1 C 0.3492(7) 0.3449(5) 0.4507(2)
H1 H 0.3877 0.3609 0.4884
C2 C 0.3649(7) 0.4540(5) 0.4120(2)
H2 H 0.4150 0.5387 0.4237
C3 C 0.3051(7) 0.4324(5) 0.3573(2)
H3 H 0.3109 0.5041 0.3312
C4 C 0.2347(6) 0.3035(5) 0.3396(2)
C5 C 0.1714(6) 0.2728(6) 0.2826(2)
H4 H 0.1749 0.3408 0.2548
C6 C 0.1059(6) 0.1443(6) 0.2687(2)
H5 H 0.0653 0.1256 0.2314
C7 C 0.0984(6) 0.0394(5) 0.30980(19)
H6 H 0.0547 -0.0480 0.2993
C8 C 0.1557(6) 0.0658(5) 0.36585(19)
C9 C 0.2251(6) 0.1990(5) 0.38147(19)
C10 C 0.0825(6) -0.1625(5) 0.4064(2)
C11 C 0.0845(7) -0.2433(5) 0.4606(2)
H7 H -0.0382 -0.2640 0.4687
H8 H 0.1460 -0.3308 0.4559
C12 C 0.1948(6) -0.2421(5) 0.55764(19)
C13 C 0.1448(6) -0.3792(5) 0.5645(2)
H9 H 0.0952 -0.4295 0.5336
C14 C 0.1687(6) -0.4430(5) 0.6183(2)
H10 H 0.1336 -0.5349 0.6225
C15 C 0.2420(6) -0.3725(5) 0.6636(2)
H11 H 0.2575 -0.4161 0.6987
C16 C 0.2951(6) -0.2333(5) 0.6578(2)
C17 C 0.3732(6) -0.1548(5) 0.7043(2)
H12 H 0.3910 -0.1949 0.7401
C18 C 0.4216(6) -0.0205(5) 0.6961(2)
H13 H 0.4732 0.0321 0.7260
C19 C 0.3923(6) 0.0380(5) 0.6413(2)
C20 C 0.2715(5) -0.1659(4) 0.60479(19)
C21 C 0.4441(7) 0.1881(5) 0.6314(2)
H14 H 0.3666 0.2486 0.6515
H15 H 0.5667 0.2032 0.6467
N1 N 0.2831(5) 0.2202(4) 0.43697(17)
N2 N 0.1483(5) -0.0308(4) 0.40953(16)
H16 H 0.1905 -0.0038 0.4425
N3 N 0.3223(5) -0.0297(4) 0.59738(16)
O1 O 0.0243(6) -0.2183(4) 0.36277(15)
O2 O 0.1709(5) -0.1706(3) 0.50762(13)
O3 O 0.4302(7) 0.2229(4) 0.57402(18)
H17 H 0.3863 0.1577 0.5555
loop_
_geom_bond_atom_site_label_1
_geom_bond_atom_site_label_2
_geom_bond_site_symmetry_1
_geom_bond_site_symmetry_2
C1 H1 1_555 1_555
C2 C1 1_555 1_555
H2 C2 1_555 1_555
C3 C2 1_555 1_555
H3 C3 1_555 1_555
C4 C3 1_555 1_555
C5 C4 1_555 1_555
H4 C5 1_555 1_555
C6 C5 1_555 1_555
H5 C6 1_555 1_555
C7 C6 1_555 1_555
H6 C7 1_555 1_555
C8 C7 1_555 1_555
C9 C4 1_555 1_555
C10 C11 1_555 1_555
C11 H7 1_555 1_555
H8 C11 1_555 1_555
C12 C13 1_555 1_555
C13 H9 1_555 1_555
C14 C13 1_555 1_555
H10 C14 1_555 1_555
C15 C14 1_555 1_555
H11 C15 1_555 1_555
C16 C15 1_555 1_555
C17 C16 1_555 1_555
H12 C17 1_555 1_555
C18 C17 1_555 1_555
H13 C18 1_555 1_555
C19 C18 1_555 1_555
C20 C12 1_555 1_555
C21 C19 1_555 1_555
H14 C21 1_555 1_555
H15 C21 1_555 1_555
N1 C1 1_555 1_555
N2 C8 1_555 1_555
H16 N2 1_555 1_555
N3 C19 1_555 1_555
O1 C10 1_555 1_555
O2 C11 1_555 1_555
O3 C21 1_555 1_555
H17 O3 1_555 1_555
C8 C9 1_555 1_555
C9 N1 1_555 1_555
C10 N2 1_555 1_555
C12 O2 1_555 1_555
C16 C20 1_555 1_555
C20 N3 1_555 1_555

#END
