
#######################################################################
#
#                 Cambridge Crystallographic Data Centre
#                                CCDC 
#
#######################################################################
#
# If this CIF has been generated from an entry in the Cambridge 
# Structural Database, then it will include bibliographic, chemical, 
# crystal, experimental, refinement or atomic coordinate data resulting 
# from the CCDC's data processing and validation procedures.
#
#######################################################################

data_POQHIO
_chemical_formula_moiety         'C28 H22 N2 O5'
_chemical_name_systematic        
'diethyl 11-benzoylpyrrolo[1,2-a][1,10]phenanthroline-9,10-dicarboxylate'
_symmetry_cell_setting           monoclinic
_symmetry_space_group_name_H-M   'P 21/c'
_symmetry_Int_Tables_number      14
_space_group_name_Hall           '-P 2ybc'
loop_
_symmetry_equiv_pos_site_id
_symmetry_equiv_pos_as_xyz
1 x,y,z
2 -x,1/2+y,1/2-z
3 -x,-y,-z
4 x,1/2-y,1/2+z
_cell_length_a                   11.9766(8)
_cell_length_b                   17.2811(13)
_cell_length_c                   11.6975(8)
_cell_angle_alpha                90
_cell_angle_beta                 109.484(3)
_cell_angle_gamma                90
_cell_volume                     2282.38
_exptl_crystal_colour            'light yellow'
_exptl_crystal_description       Block
_cell_formula_units_Z            4
loop_
_atom_site_label
_atom_site_type_symbol
_atom_site_fract_x
_atom_site_fract_y
_atom_site_fract_z
N1 N 0.59034(13) 0.07432(10) 0.40749(14)
N2 N 0.82084(15) 0.08377(11) 0.39164(16)
C1 C 0.76124(18) 0.01602(12) 0.36477(18)
C2 C 0.64288(18) 0.01242(12) 0.36723(18)
C3 C 0.57291(19) -0.05208(13) 0.32020(19)
C4 C 0.8092(2) -0.04963(13) 0.3261(2)
C5 C 0.55015(17) 0.18643(13) 0.48008(18)
C6 C 0.44074(17) 0.14796(13) 0.42321(19)
C7 C 0.39810(19) 0.01320(14) 0.32741(19)
H1 H 0.3165 0.0147 0.3098
C8 C 0.63982(17) 0.14089(12) 0.47132(18)
C9 C 0.6251(2) -0.11720(14) 0.2840(2)
H2 H 0.5794 -0.1611 0.2555
C10 C 0.4496(2) -0.05055(14) 0.3029(2)
H3 H 0.4040 -0.0945 0.2741
C11 C 0.92652(19) 0.08725(15) 0.3826(2)
H4 H 0.9663 0.1343 0.3995
C12 C 0.9242(2) -0.04229(16) 0.3209(2)
H5 H 0.9598 -0.0845 0.2977
C13 C 0.7395(2) -0.11666(15) 0.2901(2)
H6 H 0.7727 -0.1611 0.2703
C14 C 0.9837(2) 0.02551(15) 0.3494(2)
H7 H 1.0601 0.0306 0.3469
C15 C 0.82709(17) 0.22306(13) 0.54113(19)
C16 C 0.76623(17) 0.14968(13) 0.55121(18)
C17 C 0.91897(19) 0.24930(13) 0.6415(2)
H8 H 0.9406 0.2215 0.7138
C18 C 0.79570(19) 0.26429(14) 0.4339(2)
H9 H 0.7344 0.2470 0.3665
C19 C 0.8561(2) 0.33158(15) 0.4274(3)
H10 H 0.8353 0.3595 0.3553
C20 C 0.9782(2) 0.31698(16) 0.6337(3)
H11 H 1.0393 0.3349 0.7008
C21 C 0.9467(2) 0.35735(16) 0.5271(3)
H12 H 0.9869 0.4026 0.5220
C22 C 0.56904(18) 0.25583(14) 0.5592(2)
C23 C 0.5882(4) 0.39028(18) 0.5765(4)
H13 H 0.5132 0.4138 0.5713
H14 H 0.6281 0.3757 0.6604
C24 C 0.6553(4) 0.4429(2) 0.5431(4)
H15 H 0.7309 0.4206 0.5509
H16 H 0.6666 0.4877 0.5943
H17 H 0.6161 0.4578 0.4603
O1 O 0.80904(12) 0.10254(9) 0.63060(14)
O2 O 0.32907(13) 0.24251(10) 0.47016(16)
O3 O 0.56569(17) 0.32093(10) 0.50132(18)
O4 O 0.23306(14) 0.13745(11) 0.37621(18)
O5 O 0.5882(2) 0.25110(12) 0.66609(17)
C25 C 0.32437(18) 0.17288(15) 0.4187(2)
C26 C 0.2230(2) 0.27360(17) 0.4851(3)
H18 H 0.1879 0.2364 0.5251
H19 H 0.1653 0.2867 0.4070
C27 C 0.2615(3) 0.3440(2) 0.5609(4)
H20 H 0.3173 0.3299 0.6382
H21 H 0.1939 0.3683 0.5725
H22 H 0.2981 0.3795 0.5210
C28 C 0.46762(17) 0.07807(13) 0.37990(18)
loop_
_geom_bond_atom_site_label_1
_geom_bond_atom_site_label_2
_geom_bond_site_symmetry_1
_geom_bond_site_symmetry_2
N1 C2 1_555 1_555
N2 C1 1_555 1_555
C1 C2 1_555 1_555
C2 C3 1_555 1_555
C3 C9 1_555 1_555
C4 C1 1_555 1_555
C5 C6 1_555 1_555
C6 C25 1_555 1_555
C7 H1 1_555 1_555
C8 N1 1_555 1_555
C9 H2 1_555 1_555
C10 C3 1_555 1_555
H3 C10 1_555 1_555
C11 N2 1_555 1_555
H4 C11 1_555 1_555
C12 C4 1_555 1_555
H5 C12 1_555 1_555
C13 C4 1_555 1_555
H6 C13 1_555 1_555
C14 C11 1_555 1_555
H7 C14 1_555 1_555
C15 C16 1_555 1_555
C16 C8 1_555 1_555
C17 C15 1_555 1_555
H8 C17 1_555 1_555
C18 C15 1_555 1_555
H9 C18 1_555 1_555
C19 C18 1_555 1_555
H10 C19 1_555 1_555
C20 C17 1_555 1_555
H11 C20 1_555 1_555
C21 C19 1_555 1_555
H12 C21 1_555 1_555
C22 C5 1_555 1_555
C23 H13 1_555 1_555
H14 C23 1_555 1_555
C24 C23 1_555 1_555
H15 C24 1_555 1_555
H16 C24 1_555 1_555
H17 C24 1_555 1_555
O1 C16 1_555 1_555
O2 C25 1_555 1_555
O3 C22 1_555 1_555
O4 C25 1_555 1_555
O5 C22 1_555 1_555
C26 O2 1_555 1_555
H18 C26 1_555 1_555
H19 C26 1_555 1_555
C27 C26 1_555 1_555
H20 C27 1_555 1_555
H21 C27 1_555 1_555
H22 C27 1_555 1_555
C28 N1 1_555 1_555
C5 C8 1_555 1_555
C6 C28 1_555 1_555
C7 C10 1_555 1_555
C7 C28 1_555 1_555
C9 C13 1_555 1_555
C12 C14 1_555 1_555
C20 C21 1_555 1_555
C23 O3 1_555 1_555

#END
