
#######################################################################
#
#                 Cambridge Crystallographic Data Centre
#                                CCDC 
#
#######################################################################
#
# If this CIF has been generated from an entry in the Cambridge 
# Structural Database, then it will include bibliographic, chemical, 
# crystal, experimental, refinement or atomic coordinate data resulting 
# from the CCDC's data processing and validation procedures.
#
#######################################################################

data_POQJAI
_chemical_formula_moiety         'C21 H21 N1 O1 S6'
_chemical_name_systematic        
4-(2-(4,5-bis(propylsulfanyl)-1,3-dithiol-2-ylidene)-5H-[1,3]dithiolo[4,5-c]pyrrol-5-yl)benzaldehyde
_symmetry_cell_setting           monoclinic
_symmetry_space_group_name_H-M   'P 21/c'
_symmetry_Int_Tables_number      14
_space_group_name_Hall           '-P 2ybc'
loop_
_symmetry_equiv_pos_site_id
_symmetry_equiv_pos_as_xyz
1 x,y,z
2 -x,1/2+y,1/2-z
3 -x,-y,-z
4 x,1/2-y,1/2+z
_cell_length_a                   21.084(4)
_cell_length_b                   11.745(3)
_cell_length_c                   8.7143(18)
_cell_angle_alpha                90
_cell_angle_beta                 90.420(7)
_cell_angle_gamma                90
_cell_volume                     2157.88
_cell_formula_units_Z            4
loop_
_atom_site_label
_atom_site_type_symbol
_atom_site_fract_x
_atom_site_fract_y
_atom_site_fract_z
S1 S 0.12940(5) 0.30657(9) -0.15058(13)
S2 S 0.25254(4) 0.28753(8) 0.03010(11)
S3 S 0.43043(5) 0.47810(8) 0.08717(10)
S4 S 0.19083(5) 0.54314(9) -0.30198(11)
S5 S 0.30425(4) 0.49878(8) -0.10525(10)
S6 S 0.38235(5) 0.26448(8) 0.23994(11)
O1 O 0.80158(13) 0.4352(3) 0.8219(3)
N1 N 0.54312(14) 0.3752(3) 0.4240(3)
C1 C 0.0677(2) -0.0222(3) -0.1251(5)
H1 H 0.1021 -0.0649 -0.1737
H2 H 0.0268 -0.0521 -0.1604
H3 H 0.0710 -0.0301 -0.0134
C2 C 0.0729(2) 0.1031(4) -0.1683(5)
H4 H 0.0691 0.1107 -0.2811
H5 H 0.0373 0.1453 -0.1217
C3 C 0.13486(19) 0.1556(3) -0.1157(5)
H6 H 0.1707 0.1226 -0.1735
H7 H 0.1419 0.1408 -0.0050
C4 C 0.20520(18) 0.3592(3) -0.1064(4)
C5 C 0.31561(18) 0.3853(3) 0.0240(4)
C6 C 0.36916(17) 0.3760(3) 0.1068(4)
C7 C 0.47561(17) 0.4237(3) 0.2393(4)
C8 C 0.53075(18) 0.4559(3) 0.3111(4)
H8 H 0.5557 0.5209 0.2882
C9 C 0.59673(17) 0.3747(3) 0.5222(4)
C10 C 0.63848(18) 0.4668(3) 0.5238(4)
H9 H 0.6306 0.5307 0.4597
C11 C 0.69128(18) 0.4654(3) 0.6184(4)
H10 H 0.7196 0.5283 0.6190
C12 C 0.70326(18) 0.3716(3) 0.7136(4)
C13 C 0.75900(19) 0.3657(4) 0.8159(4)
H11 H 0.7619 0.3021 0.8829
C14 C 0.0474(2) 0.6737(4) -0.0231(5)
H12 H 0.0732 0.7114 0.0559
H13 H 0.0113 0.6358 0.0251
H14 H 0.0319 0.7306 -0.0967
C15 C 0.08756(19) 0.5858(4) -0.1066(5)
H15 H 0.1022 0.5274 -0.0324
H16 H 0.0612 0.5473 -0.1854
C16 C 0.14456(19) 0.6397(3) -0.1827(5)
H17 H 0.1727 0.6714 -0.1020
H18 H 0.1297 0.7039 -0.2472
C17 C 0.22821(18) 0.4557(3) -0.1661(4)
C18 C 0.45317(17) 0.3228(3) 0.3092(4)
C19 C 0.49577(17) 0.2935(3) 0.4218(4)
H19 H 0.4933 0.2288 0.4869
C20 C 0.60817(19) 0.2808(3) 0.6174(4)
H20 H 0.5801 0.2175 0.6162
C21 C 0.66036(18) 0.2813(3) 0.7124(4)
H21 H 0.6674 0.2185 0.7791
loop_
_geom_bond_atom_site_label_1
_geom_bond_atom_site_label_2
_geom_bond_site_symmetry_1
_geom_bond_site_symmetry_2
S1 C3 1_555 1_555
S2 C4 1_555 1_555
S3 C6 1_555 1_555
S4 C16 1_555 1_555
S5 C5 1_555 1_555
S6 C6 1_555 1_555
O1 C13 1_555 1_555
N1 C8 1_555 1_555
C1 H1 1_555 1_555
H2 C1 1_555 1_555
H3 C1 1_555 1_555
C2 C1 1_555 1_555
H4 C2 1_555 1_555
H5 C2 1_555 1_555
C3 C2 1_555 1_555
H6 C3 1_555 1_555
H7 C3 1_555 1_555
C4 S1 1_555 1_555
C5 S2 1_555 1_555
C6 C5 1_555 1_555
C7 S3 1_555 1_555
C8 C7 1_555 1_555
H8 C8 1_555 1_555
C9 N1 1_555 1_555
C10 C9 1_555 1_555
H9 C10 1_555 1_555
C11 C10 1_555 1_555
H10 C11 1_555 1_555
C12 C11 1_555 1_555
C13 C12 1_555 1_555
H11 C13 1_555 1_555
C14 H12 1_555 1_555
H13 C14 1_555 1_555
H14 C14 1_555 1_555
C15 C14 1_555 1_555
H15 C15 1_555 1_555
H16 C15 1_555 1_555
C16 C15 1_555 1_555
H17 C16 1_555 1_555
H18 C16 1_555 1_555
C17 S4 1_555 1_555
C18 S6 1_555 1_555
C19 N1 1_555 1_555
H19 C19 1_555 1_555
C20 C9 1_555 1_555
H20 C20 1_555 1_555
C21 C12 1_555 1_555
H21 C21 1_555 1_555
S5 C17 1_555 1_555
C4 C17 1_555 1_555
C7 C18 1_555 1_555
C18 C19 1_555 1_555
C20 C21 1_555 1_555

#END
