
#######################################################################
#
#                 Cambridge Crystallographic Data Centre
#                                CCDC 
#
#######################################################################
#
# If this CIF has been generated from an entry in the Cambridge 
# Structural Database, then it will include bibliographic, chemical, 
# crystal, experimental, refinement or atomic coordinate data resulting 
# from the CCDC's data processing and validation procedures.
#
#######################################################################

data_POQLOX
_chemical_name_common            
trans-diphenyl(4-t-butyl-S,S-dioxothian-2-yl)carbinol
_chemical_formula_moiety         'C22 H28 O3 S1'
_chemical_name_systematic        
(4-t-butyl-1,1-dioxotetrahydro-2H-thiopyran-2-yl)(diphenyl)methanol
_symmetry_cell_setting           monoclinic
_symmetry_space_group_name_H-M   'P 21/c'
_symmetry_Int_Tables_number      14
_space_group_name_Hall           '-P 2ybc'
loop_
_symmetry_equiv_pos_site_id
_symmetry_equiv_pos_as_xyz
1 x,y,z
2 -x,1/2+y,1/2-z
3 -x,-y,-z
4 x,1/2-y,1/2+z
_cell_length_a                   10.9292(19)
_cell_length_b                   11.0640(19)
_cell_length_c                   16.204(3)
_cell_angle_alpha                90
_cell_angle_beta                 91.388(12)
_cell_angle_gamma                90
_cell_volume                     1958.82
_exptl_crystal_colour            white
_exptl_crystal_description       block
_chemical_melting_point          'above 503 K'
_cell_formula_units_Z            4
_exptl_crystal_recrystallization_method isopropanol/chloroform
loop_
_atom_site_label
_atom_site_type_symbol
_atom_site_fract_x
_atom_site_fract_y
_atom_site_fract_z
S1 S 0.49350(8) 0.95115(9) 0.23974(5)
O1 O 0.5466(2) 0.8362(2) 0.21994(15)
O2 O 0.5392(2) 1.0556(3) 0.19830(15)
O3 O 0.2909(2) 1.1337(2) 0.27888(12)
H1 H 0.3395 1.1852 0.2639
C1 C 0.3315(3) 0.9346(3) 0.22248(18)
H2 H 0.3220 0.8920 0.1697
C2 C 0.2849(3) 0.8459(3) 0.28845(18)
H3 H 0.1977 0.8348 0.2790
H4 H 0.3238 0.7683 0.2799
C3 C 0.3063(3) 0.8821(3) 0.37932(18)
H5 H 0.2769 0.9653 0.3855
C4 C 0.4430(3) 0.8825(4) 0.3984(2)
H6 H 0.4758 0.8025 0.3882
H7 H 0.4569 0.9008 0.4565
C5 C 0.5106(3) 0.9743(4) 0.3468(2)
H8 H 0.5970 0.9712 0.3618
H9 H 0.4811 1.0545 0.3599
C6 C 0.2607(3) 1.0553(3) 0.21130(17)
C7 C 0.1235(3) 1.0266(3) 0.21415(19)
C8 C 0.0708(3) 0.9547(4) 0.1529(2)
H10 H 0.1185 0.9277 0.1100
C9 C -0.0506(4) 0.9225(4) 0.1543(3)
H11 H -0.0837 0.8722 0.1136
C10 C -0.1217(4) 0.9645(5) 0.2155(4)
H12 H -0.2040 0.9433 0.2164
C11 C -0.0734(4) 1.0374(5) 0.2755(3)
H13 H -0.1231 1.0662 0.3170
C12 C 0.0507(3) 1.0695(4) 0.2754(2)
H14 H 0.0834 1.1194 0.3164
C13 C 0.2817(3) 1.1216(3) 0.12926(18)
C14 C 0.3434(3) 1.0735(3) 0.06315(19)
H15 H 0.3807 0.9982 0.0682
C15 C 0.3500(4) 1.1369(4) -0.0104(2)
H16 H 0.3914 1.1035 -0.0544
C16 C 0.2964(4) 1.2478(4) -0.0190(2)
H17 H 0.3016 1.2903 -0.0683
C17 C 0.2348(4) 1.2958(4) 0.0460(2)
H18 H 0.1976 1.3711 0.0406
C18 C 0.2275(3) 1.2333(3) 0.1192(2)
H19 H 0.1853 1.2672 0.1627
C19 C 0.2330(3) 0.8012(3) 0.4397(2)
C20 C 0.0978(4) 0.8202(6) 0.4258(3)
H20 H 0.0534 0.7696 0.4627
H21 H 0.0756 0.7999 0.3698
H22 H 0.0780 0.9034 0.4359
C21 C 0.2662(5) 0.8354(4) 0.5293(2)
H23 H 0.2218 0.7847 0.5662
H24 H 0.2452 0.9184 0.5387
H25 H 0.3525 0.8243 0.5391
C22 C 0.2634(4) 0.6692(3) 0.4305(2)
H26 H 0.2167 0.6228 0.4687
H27 H 0.3491 0.6571 0.4419
H28 H 0.2437 0.6436 0.3752
loop_
_geom_bond_atom_site_label_1
_geom_bond_atom_site_label_2
_geom_bond_site_symmetry_1
_geom_bond_site_symmetry_2
S1 O1 1_555 1_555
O2 S1 1_555 1_555
O3 H1 1_555 1_555
C1 S1 1_555 1_555
H2 C1 1_555 1_555
C2 C1 1_555 1_555
H3 C2 1_555 1_555
H4 C2 1_555 1_555
C3 C2 1_555 1_555
H5 C3 1_555 1_555
C4 C3 1_555 1_555
H6 C4 1_555 1_555
H7 C4 1_555 1_555
C5 S1 1_555 1_555
H8 C5 1_555 1_555
H9 C5 1_555 1_555
C6 O3 1_555 1_555
C7 C6 1_555 1_555
C8 C7 1_555 1_555
H10 C8 1_555 1_555
C9 C8 1_555 1_555
H11 C9 1_555 1_555
C10 C9 1_555 1_555
H12 C10 1_555 1_555
C11 C10 1_555 1_555
H13 C11 1_555 1_555
C12 C7 1_555 1_555
H14 C12 1_555 1_555
C13 C6 1_555 1_555
C14 C13 1_555 1_555
H15 C14 1_555 1_555
C15 C14 1_555 1_555
H16 C15 1_555 1_555
C16 C15 1_555 1_555
H17 C16 1_555 1_555
C17 C16 1_555 1_555
H18 C17 1_555 1_555
C18 C13 1_555 1_555
H19 C18 1_555 1_555
C19 C3 1_555 1_555
C20 C19 1_555 1_555
H20 C20 1_555 1_555
H21 C20 1_555 1_555
H22 C20 1_555 1_555
C21 C19 1_555 1_555
H23 C21 1_555 1_555
H24 C21 1_555 1_555
H25 C21 1_555 1_555
C22 C19 1_555 1_555
H26 C22 1_555 1_555
H27 C22 1_555 1_555
H28 C22 1_555 1_555
C1 C6 1_555 1_555
C4 C5 1_555 1_555
C11 C12 1_555 1_555
C17 C18 1_555 1_555

#END
