
#######################################################################
#
#                 Cambridge Crystallographic Data Centre
#                                CCDC 
#
#######################################################################
#
# If this CIF has been generated from an entry in the Cambridge 
# Structural Database, then it will include bibliographic, chemical, 
# crystal, experimental, refinement or atomic coordinate data resulting 
# from the CCDC's data processing and validation procedures.
#
#######################################################################

data_POQMOZ
_chemical_formula_moiety         'C28 H23 B1 F2 N2 O3'
_chemical_name_systematic        
difluoro((7-methoxy-4,5-dihydro-1H-benzo[g]indol-2-yl)(7-methoxy-4,5-dihydro-2H-benzo[g]indol-2-ylidene)acetaldehyde)borate
_symmetry_cell_setting           triclinic
_symmetry_space_group_name_H-M   'P -1'
_symmetry_Int_Tables_number      2
_space_group_name_Hall           '-P 1'
loop_
_symmetry_equiv_pos_site_id
_symmetry_equiv_pos_as_xyz
1 x,y,z
2 -x,-y,-z
_cell_length_a                   7.704(2)
_cell_length_b                   12.3376(2)
_cell_length_c                   13.3334(5)
_cell_angle_alpha                63.617(3)
_cell_angle_beta                 81.760(3)
_cell_angle_gamma                88.163(3)
_cell_volume                     1122.89
_cell_formula_units_Z            2
loop_
_atom_site_label
_atom_site_type_symbol
_atom_site_fract_x
_atom_site_fract_y
_atom_site_fract_z
C1 C 0.6526(3) 0.5594(2) 0.37237(19)
C2 C 0.7556(3) 0.6500(2) 0.3778(2)
H1 H 0.8571 0.6373 0.4112
C3 C 0.6797(3) 0.7582(2) 0.3255(2)
C4 C 0.5283(3) 0.7368(2) 0.28555(19)
C5 C 0.7300(3) 0.8826(2) 0.3049(2)
H2 H 0.8547 0.8880 0.3068
H3 H 0.6670 0.9007 0.3638
C6 C 0.6859(3) 0.9734(2) 0.1902(2)
H4 H 0.6982 1.0546 0.1831
H5 H 0.7692 0.9672 0.1312
C7 C 0.5019(3) 0.9535(2) 0.1730(2)
C8 C 0.4249(3) 0.8362(2) 0.2189(2)
C9 C 0.2561(3) 0.8247(2) 0.1950(2)
H6 H 0.2018 0.7483 0.2253
C10 C 0.1704(3) 0.9236(2) 0.1280(2)
H7 H 0.0599 0.9135 0.1123
C11 C 0.2471(3) 1.0388(2) 0.0833(2)
C12 C 0.4123(3) 1.0537(2) 0.1058(2)
H8 H 0.4638 1.1309 0.0760
C13 C 0.2138(4) 1.2517(3) -0.0265(3)
H9 H 0.2224 1.2715 0.0346
H10 H 0.1347 1.3052 -0.0742
H11 H 0.3276 1.2606 -0.0700
O1 O 0.8640(3) 0.27949(19) 0.51234(19)
O2 O 0.1496(2) 1.13038(17) 0.01782(18)
O3 O -0.2617(2) 0.28065(19) 0.14448(19)
N1 N 0.5112(2) 0.61585(17) 0.31638(16)
N2 N 0.4195(2) 0.41221(17) 0.33361(16)
B1 B 0.3741(3) 0.5472(2) 0.2881(2)
F1 F 0.20612(15) 0.55523(12) 0.33845(12)
F2 F 0.38222(17) 0.59952(12) 0.17095(11)
C14 C 0.8356(3) 0.3846(3) 0.4630(2)
H12 H 0.9202 0.4391 0.4589
C15 C 0.6783(3) 0.4370(2) 0.40739(19)
C16 C 0.5642(3) 0.3638(2) 0.3886(2)
C17 C 0.5707(3) 0.2407(2) 0.4137(2)
H13 H 0.6545 0.1874 0.4502
C18 C 0.4315(3) 0.2135(2) 0.3748(2)
C19 C 0.3353(3) 0.3194(2) 0.3269(2)
C20 C 0.3795(4) 0.1001(3) 0.3709(3)
H14 H 0.4330 0.1011 0.3000
H15 H 0.4210 0.0306 0.4322
C21 C 0.1849(4) 0.0898(3) 0.3811(3)
H16 H 0.1338 0.0711 0.4581
H17 H 0.1541 0.0234 0.3661
C22 C 0.1080(3) 0.2042(2) 0.3008(2)
C23 C -0.0382(4) 0.1972(3) 0.2543(3)
H18 H -0.0830 0.1215 0.2694
C24 C -0.1197(3) 0.3001(2) 0.1856(2)
C25 C -0.0546(3) 0.4124(2) 0.1637(2)
H19 H -0.1087 0.4820 0.1184
C26 C 0.0924(3) 0.4209(2) 0.2096(2)
H20 H 0.1352 0.4971 0.1944
C27 C 0.1769(3) 0.3196(2) 0.2773(2)
C28 C -0.3592(4) 0.3832(3) 0.0812(3)
H21 H -0.3976 0.4248 0.1260
H22 H -0.4595 0.3565 0.0618
H23 H -0.2860 0.4370 0.0133
loop_
_geom_bond_atom_site_label_1
_geom_bond_atom_site_label_2
_geom_bond_site_symmetry_1
_geom_bond_site_symmetry_2
C1 C2 1_555 1_555
C2 H1 1_555 1_555
C3 C2 1_555 1_555
C4 C3 1_555 1_555
C5 C3 1_555 1_555
H2 C5 1_555 1_555
H3 C5 1_555 1_555
C6 C5 1_555 1_555
H4 C6 1_555 1_555
H5 C6 1_555 1_555
C7 C6 1_555 1_555
C8 C4 1_555 1_555
C9 C8 1_555 1_555
H6 C9 1_555 1_555
C10 C9 1_555 1_555
H7 C10 1_555 1_555
C11 C10 1_555 1_555
C12 C7 1_555 1_555
H8 C12 1_555 1_555
C13 H9 1_555 1_555
H10 C13 1_555 1_555
H11 C13 1_555 1_555
O1 C14 1_555 1_555
O2 C11 1_555 1_555
O3 C24 1_555 1_555
N1 C1 1_555 1_555
N2 B1 1_555 1_555
B1 N1 1_555 1_555
F1 B1 1_555 1_555
F2 B1 1_555 1_555
C14 H12 1_555 1_555
C15 C1 1_555 1_555
C16 N2 1_555 1_555
C17 C16 1_555 1_555
H13 C17 1_555 1_555
C18 C17 1_555 1_555
C19 N2 1_555 1_555
C20 C18 1_555 1_555
H14 C20 1_555 1_555
H15 C20 1_555 1_555
C21 C20 1_555 1_555
H16 C21 1_555 1_555
H17 C21 1_555 1_555
C22 C21 1_555 1_555
C23 C22 1_555 1_555
H18 C23 1_555 1_555
C24 C23 1_555 1_555
C25 C24 1_555 1_555
H19 C25 1_555 1_555
C26 C25 1_555 1_555
H20 C26 1_555 1_555
C27 C19 1_555 1_555
C28 O3 1_555 1_555
H21 C28 1_555 1_555
H22 C28 1_555 1_555
H23 C28 1_555 1_555
C4 N1 1_555 1_555
C7 C8 1_555 1_555
C11 C12 1_555 1_555
C13 O2 1_555 1_555
C14 C15 1_555 1_555
C15 C16 1_555 1_555
C18 C19 1_555 1_555
C22 C27 1_555 1_555
C26 C27 1_555 1_555

#END
