
#######################################################################
#
#                 Cambridge Crystallographic Data Centre
#                                CCDC 
#
#######################################################################
#
# If this CIF has been generated from an entry in the Cambridge 
# Structural Database, then it will include bibliographic, chemical, 
# crystal, experimental, refinement or atomic coordinate data resulting 
# from the CCDC's data processing and validation procedures.
#
#######################################################################

data_POQNIT
_chemical_formula_moiety         'C16 H13 Br1 N1 1+,C12 H4 N4 1-,C12 H4 N4'
_chemical_name_systematic        
'1-(4-bromobenzyl)quinolinium 7,7,8,8-tetracyanoquinodimethane monoanion 7,7,8,8-tetracyanoquinodimethane'
_symmetry_cell_setting           triclinic
_symmetry_space_group_name_H-M   'P -1'
_symmetry_Int_Tables_number      2
_space_group_name_Hall           '-P 1'
loop_
_symmetry_equiv_pos_site_id
_symmetry_equiv_pos_as_xyz
1 x,y,z
2 -x,-y,-z
_cell_length_a                   8.3590(17)
_cell_length_b                   13.288(3)
_cell_length_c                   16.187(3)
_cell_angle_alpha                82.12(3)
_cell_angle_beta                 75.17(3)
_cell_angle_gamma                72.32(3)
_cell_volume                     1652.53
_cell_formula_units_Z            2
_exptl_crystal_preparation       'magnetic properties'
loop_
_atom_site_label
_atom_site_type_symbol
_atom_site_fract_x
_atom_site_fract_y
_atom_site_fract_z
Br1 Br 0.64400(5) 0.95525(3) 0.36827(2)
N9 N 0.0120(3) 0.6939(2) 0.48711(15)
C25 C -0.1333(4) 0.7607(3) 0.5256(2)
H9 H -0.1786 0.8238 0.4960
C26 C -0.2190(4) 0.7399(3) 0.6075(2)
H10 H -0.3215 0.7877 0.6326
C27 C -0.1525(4) 0.6488(3) 0.6512(2)
H11 H -0.2101 0.6338 0.7067
C28 C 0.0026(4) 0.5769(2) 0.61365(19)
C29 C 0.0773(5) 0.4814(3) 0.6562(2)
H12 H 0.0241 0.4642 0.7120
C30 C 0.2263(6) 0.4145(3) 0.6166(3)
H13 H 0.2748 0.3518 0.6456
C31 C 0.3080(5) 0.4379(3) 0.5333(3)
H14 H 0.4104 0.3906 0.5074
C32 C 0.2404(4) 0.5293(3) 0.4886(2)
H15 H 0.2956 0.5441 0.4326
C33 C 0.0868(4) 0.6006(2) 0.52834(18)
C34 C 0.0938(4) 0.7245(3) 0.39852(18)
H16 H 0.0067 0.7747 0.3723
H17 H 0.1402 0.6623 0.3655
C35 C 0.2358(4) 0.7730(2) 0.39524(18)
C36 C 0.2626(4) 0.8069(3) 0.46591(19)
H18 H 0.1972 0.7936 0.5199
C37 C 0.3844(5) 0.8599(3) 0.4583(2)
H19 H 0.4011 0.8822 0.5067
C38 C 0.4809(4) 0.8795(2) 0.3787(2)
C39 C 0.4600(4) 0.8445(2) 0.30699(19)
H20 H 0.5269 0.8572 0.2533
C40 C 0.3390(4) 0.7906(2) 0.31563(18)
H21 H 0.3262 0.7655 0.2675
N1 N 0.3427(4) 0.7199(3) -0.3207(2)
N2 N -0.0902(4) 0.6226(2) -0.15690(18)
N3 N 0.7816(4) 0.6375(2) 0.1100(2)
N4 N 0.3539(4) 0.5311(2) 0.26349(17)
C1 C 0.2816(4) 0.6916(3) -0.2538(2)
C2 C 0.2010(4) 0.6574(2) -0.17013(18)
C3 C 0.0399(4) 0.6376(2) -0.16265(18)
C4 C 0.4339(3) 0.6658(2) -0.10577(17)
H1 H 0.4907 0.6906 -0.1581
C5 C 0.2750(3) 0.64285(19) -0.09985(17)
C6 C 0.1924(3) 0.60576(19) -0.01767(17)
H2 H 0.0880 0.5909 -0.0113
C7 C 0.6545(4) 0.6212(2) 0.11119(18)
C8 C 0.4953(3) 0.5989(2) 0.11519(17)
C9 C 0.4160(4) 0.5607(2) 0.1970(2)
C10 C 0.5032(3) 0.65242(19) -0.03713(16)
H3 H 0.6067 0.6684 -0.0432
C11 C 0.4218(3) 0.61435(19) 0.04452(16)
C12 C 0.2631(3) 0.5918(2) 0.05083(17)
H4 H 0.2067 0.5670 0.1033
N5 N 0.9873(4) 1.2167(2) -0.21288(18)
N6 N 0.5428(4) 1.1162(2) -0.07004(19)
N7 N 1.4095(4) 1.1184(2) 0.20748(18)
N8 N 0.9721(4) 1.0226(3) 0.36816(19)
C13 C 0.9184(4) 1.1852(2) -0.1493(2)
C14 C 0.8316(4) 1.1469(2) -0.06905(17)
C15 C 0.6711(4) 1.1292(2) -0.06809(19)
C16 C 1.0643(3) 1.1471(2) -0.00348(17)
H5 H 1.1233 1.1703 -0.0559
C17 C 0.9015(3) 1.1292(2) 0.00262(17)
C18 C 0.8142(3) 1.0945(2) 0.08436(17)
H6 H 0.7080 1.0822 0.0902
C19 C 1.2815(4) 1.1017(2) 0.21164(18)
C20 C 1.1190(4) 1.0821(2) 0.21836(18)
C21 C 1.0362(4) 1.0494(2) 0.3015(2)
C22 C 1.1341(4) 1.1311(2) 0.06534(17)
H7 H 1.2410 1.1425 0.0593
C23 C 1.0469(3) 1.0971(2) 0.14734(17)
C24 C 0.8837(3) 1.0793(2) 0.15326(17)
H8 H 0.8242 1.0567 0.2058
loop_
_geom_bond_atom_site_label_1
_geom_bond_atom_site_label_2
_geom_bond_site_symmetry_1
_geom_bond_site_symmetry_2
Br1 C38 1_555 1_555
N1 C1 1_555 1_555
N2 C3 1_555 1_555
N3 C7 1_555 1_555
N4 C9 1_555 1_555
N5 C13 1_555 1_555
N6 C15 1_555 1_555
N7 C19 1_555 1_555
N8 C21 1_555 1_555
N9 C25 1_555 1_555
C1 C2 1_555 1_555
C2 C3 1_555 1_555
C4 H1 1_555 1_555
C5 C2 1_555 1_555
C6 C5 1_555 1_555
H2 C6 1_555 1_555
C7 C8 1_555 1_555
C8 C9 1_555 1_555
C10 C4 1_555 1_555
H3 C10 1_555 1_555
C11 C8 1_555 1_555
C12 C6 1_555 1_555
H4 C12 1_555 1_555
C13 C14 1_555 1_555
C14 C15 1_555 1_555
C16 H5 1_555 1_555
C17 C14 1_555 1_555
C18 C17 1_555 1_555
H6 C18 1_555 1_555
C19 C20 1_555 1_555
C20 C21 1_555 1_555
C22 C16 1_555 1_555
H7 C22 1_555 1_555
C23 C20 1_555 1_555
C24 C18 1_555 1_555
H8 C24 1_555 1_555
C25 H9 1_555 1_555
C26 C25 1_555 1_555
H10 C26 1_555 1_555
C27 C26 1_555 1_555
H11 C27 1_555 1_555
C28 C27 1_555 1_555
C29 C28 1_555 1_555
H12 C29 1_555 1_555
C30 C29 1_555 1_555
H13 C30 1_555 1_555
C31 C30 1_555 1_555
H14 C31 1_555 1_555
C32 C31 1_555 1_555
H15 C32 1_555 1_555
C33 N9 1_555 1_555
C34 N9 1_555 1_555
H16 C34 1_555 1_555
H17 C34 1_555 1_555
C35 C34 1_555 1_555
C36 C35 1_555 1_555
H18 C36 1_555 1_555
C37 C36 1_555 1_555
H19 C37 1_555 1_555
C38 C37 1_555 1_555
C39 C38 1_555 1_555
H20 C39 1_555 1_555
C40 C35 1_555 1_555
H21 C40 1_555 1_555
C4 C5 1_555 1_555
C10 C11 1_555 1_555
C11 C12 1_555 1_555
C16 C17 1_555 1_555
C22 C23 1_555 1_555
C23 C24 1_555 1_555
C28 C33 1_555 1_555
C32 C33 1_555 1_555
C39 C40 1_555 1_555

#END
