
#######################################################################
#
#                 Cambridge Crystallographic Data Centre
#                                CCDC 
#
#######################################################################
#
# If this CIF has been generated from an entry in the Cambridge 
# Structural Database, then it will include bibliographic, chemical, 
# crystal, experimental, refinement or atomic coordinate data resulting 
# from the CCDC's data processing and validation procedures.
#
#######################################################################

data_POQNAL
_chemical_formula_moiety         'C12 H11 I1 N1 1+,C12 H4 N4 1-'
_chemical_name_systematic        
'1-(4-iodobenzyl)pyridinium 7,7,8,8-tetracyanoquinodimethane monoanion'
_symmetry_cell_setting           triclinic
_symmetry_space_group_name_H-M   'P -1'
_symmetry_Int_Tables_number      2
_space_group_name_Hall           '-P 1'
loop_
_symmetry_equiv_pos_site_id
_symmetry_equiv_pos_as_xyz
1 x,y,z
2 -x,-y,-z
_cell_length_a                   8.7188(15)
_cell_length_b                   10.9117(18)
_cell_length_c                   11.4496(19)
_cell_angle_alpha                105.505(3)
_cell_angle_beta                 93.420(3)
_cell_angle_gamma                91.017(3)
_cell_volume                     1047.13
_cell_formula_units_Z            2
_exptl_crystal_preparation       'magnetic properties'
loop_
_atom_site_label
_atom_site_type_symbol
_atom_site_fract_x
_atom_site_fract_y
_atom_site_fract_z
I1 I 0.26656(6) 0.46094(4) 1.14111(3)
N5 N 0.6081(4) 0.2285(3) 0.5929(3)
C13 C 0.7501(6) 0.2049(5) 0.6257(5)
H5 H 0.7676 0.1385 0.6611
C14 C 0.8708(6) 0.2773(7) 0.6080(5)
H6 H 0.9705 0.2609 0.6317
C15 C 0.8453(7) 0.3730(6) 0.5559(5)
H7 H 0.9269 0.4234 0.5441
C16 C 0.7008(7) 0.3945(5) 0.5214(5)
H8 H 0.6816 0.4600 0.4851
C17 C 0.5823(5) 0.3203(4) 0.5396(4)
H9 H 0.4823 0.3343 0.5142
C18 C 0.4738(5) 0.1593(4) 0.6240(4)
H10 H 0.5020 0.0740 0.6250
H11 H 0.3896 0.1524 0.5630
C19 C 0.4240(5) 0.2296(4) 0.7460(4)
C20 C 0.4925(6) 0.2108(4) 0.8503(4)
H12 H 0.5685 0.1512 0.8450
C21 C 0.4507(6) 0.2788(5) 0.9634(4)
H13 H 0.4995 0.2663 1.0335
C22 C 0.3366(6) 0.3648(4) 0.9711(4)
C23 C 0.2666(6) 0.3848(5) 0.8685(5)
H14 H 0.1896 0.4436 0.8745
C24 C 0.3097(5) 0.3181(5) 0.7558(4)
H15 H 0.2619 0.3324 0.6861
N1 N 0.5598(5) 0.1156(4) 1.2829(4)
N2 N 0.8916(5) 0.4155(4) 1.2826(4)
N3 N 0.8023(4) -0.2787(4) 0.5779(3)
N4 N 1.1508(5) 0.0205(4) 0.6017(4)
C1 C 0.6546(5) 0.1503(4) 1.2330(4)
C2 C 0.7731(5) 0.1948(4) 1.1736(4)
C3 C 0.8397(5) 0.3165(4) 1.2332(4)
C4 C 0.8137(5) 0.1279(4) 1.0562(3)
C5 C 0.7409(5) 0.0099(4) 0.9915(4)
H1 H 0.6635 -0.0244 1.0269
C6 C 0.7811(5) -0.0542(4) 0.8794(4)
H2 H 0.7301 -0.1309 0.8396
C7 C 0.8988(5) -0.0071(4) 0.8218(3)
C8 C 0.9703(5) 0.1104(4) 0.8852(4)
H3 H 1.0479 0.1444 0.8497
C9 C 0.9292(5) 0.1756(4) 0.9967(4)
H4 H 0.9783 0.2536 1.0349
C10 C 0.8645(5) -0.1870(4) 0.6349(3)
C11 C 0.9419(5) -0.0733(4) 0.7049(3)
C12 C 1.0583(5) -0.0227(4) 0.6470(4)
loop_
_geom_bond_atom_site_label_1
_geom_bond_atom_site_label_2
_geom_bond_site_symmetry_1
_geom_bond_site_symmetry_2
I1 C22 1_555 1_555
N1 C1 1_555 1_555
N2 C3 1_555 1_555
N3 C10 1_555 1_555
N4 C12 1_555 1_555
N5 C13 1_555 1_555
C1 C2 1_555 1_555
C2 C3 1_555 1_555
C4 C2 1_555 1_555
C5 C4 1_555 1_555
H1 C5 1_555 1_555
C6 C5 1_555 1_555
H2 C6 1_555 1_555
C7 C6 1_555 1_555
C8 C7 1_555 1_555
H3 C8 1_555 1_555
C9 C4 1_555 1_555
H4 C9 1_555 1_555
C10 C11 1_555 1_555
C11 C7 1_555 1_555
C12 C11 1_555 1_555
C13 H5 1_555 1_555
C14 C13 1_555 1_555
H6 C14 1_555 1_555
C15 C14 1_555 1_555
H7 C15 1_555 1_555
C16 C15 1_555 1_555
H8 C16 1_555 1_555
C17 N5 1_555 1_555
H9 C17 1_555 1_555
C18 N5 1_555 1_555
H10 C18 1_555 1_555
H11 C18 1_555 1_555
C19 C18 1_555 1_555
C20 C19 1_555 1_555
H12 C20 1_555 1_555
C21 C20 1_555 1_555
H13 C21 1_555 1_555
C22 C21 1_555 1_555
C23 C22 1_555 1_555
H14 C23 1_555 1_555
C24 C19 1_555 1_555
H15 C24 1_555 1_555
C8 C9 1_555 1_555
C16 C17 1_555 1_555
C23 C24 1_555 1_555

#END
