
#######################################################################
#
#                 Cambridge Crystallographic Data Centre
#                                CCDC 
#
#######################################################################
#
# If this CIF has been generated from an entry in the Cambridge 
# Structural Database, then it will include bibliographic, chemical, 
# crystal, experimental, refinement or atomic coordinate data resulting 
# from the CCDC's data processing and validation procedures.
#
#######################################################################

data_POQPUI
_chemical_formula_moiety         'C58 H80 N2'
_chemical_name_systematic        
4,4'-(anthracene-9,10-diyldiethene-2,1-diyl)bis(N,N-diheptylaniline)
_symmetry_cell_setting           triclinic
_symmetry_space_group_name_H-M   'P -1'
_symmetry_Int_Tables_number      2
_space_group_name_Hall           '-P 1'
loop_
_symmetry_equiv_pos_site_id
_symmetry_equiv_pos_as_xyz
1 x,y,z
2 -x,-y,-z
_cell_length_a                   9.0253(18)
_cell_length_b                   10.384(2)
_cell_length_c                   14.965(3)
_cell_angle_alpha                83.37(3)
_cell_angle_beta                 78.01(3)
_cell_angle_gamma                67.32(3)
_cell_volume                     1264.85
_exptl_crystal_colour            yellow
_exptl_crystal_description       block
_cell_formula_units_Z            1
loop_
_atom_site_label
_atom_site_type_symbol
_atom_site_fract_x
_atom_site_fract_y
_atom_site_fract_z
C1 C -0.6190(4) 0.1148(3) 0.2730(2)
H1 H -0.6339 0.1650 0.2178
C2 C -0.5481(4) 0.1500(3) 0.3312(2)
H2 H -0.5133 0.2243 0.3151
C3 C -0.5238(3) 0.0776(3) 0.4169(2)
C4 C -0.4455(4) 0.1134(3) 0.4764(2)
C5 C -0.4220(3) 0.0372(3) 0.5596(2)
C6 C -0.3506(4) 0.0715(3) 0.6255(2)
H3 H -0.3178 0.1473 0.6131
C7 C -0.3293(4) -0.0021(4) 0.7049(3)
H4 H -0.2797 0.0218 0.7455
C8 C -0.3914(4) 0.2321(3) 0.4512(2)
H5 H -0.4707 0.3180 0.4391
C9 C -0.2426(4) 0.2281(3) 0.4443(2)
H6 H -0.1643 0.1407 0.4547
C10 C -0.1830(4) 0.3424(3) 0.4226(2)
C11 C -0.0179(4) 0.3157(3) 0.4112(2)
H7 H 0.0539 0.2241 0.4181
C12 C 0.0438(4) 0.4195(3) 0.3900(2)
H8 H 0.1557 0.3963 0.3834
C13 C -0.0571(4) 0.5592(3) 0.3780(2)
C14 C -0.2237(4) 0.5862(3) 0.3894(2)
H9 H -0.2956 0.6775 0.3816
C15 C -0.2845(3) 0.4815(3) 0.4120(2)
H10 H -0.3966 0.5044 0.4204
C16 C 0.1818(4) 0.6258(3) 0.3361(2)
H11 H 0.2291 0.5597 0.3833
H12 H 0.2038 0.7093 0.3395
C17 C 0.2666(4) 0.5631(3) 0.2436(2)
H13 H 0.2490 0.4774 0.2405
H14 H 0.2186 0.6276 0.1959
C18 C 0.4481(4) 0.5318(4) 0.2267(2)
H15 H 0.4936 0.4737 0.2774
H16 H 0.4647 0.6189 0.2258
C19 C 0.5409(5) 0.4592(5) 0.1385(3)
H17 H 0.5356 0.5267 0.0876
H18 H 0.4959 0.3935 0.1259
C20 C 0.7090(11) 0.4602(18) 0.1048(7)
H19 H 0.7460 0.4240 0.0438
H20 H 0.7003 0.5567 0.0990
C21 C 0.8312(15) 0.386(2) 0.1565(10)
H21 H 0.8467 0.2879 0.1568
H22 H 0.7881 0.4148 0.2190
C22 C 0.9957(7) 0.3943(8) 0.1314(5)
H23 H 1.0102 0.3090 0.1674
H24 H 1.0347 0.4517 0.1586
H25 H 1.0559 0.3733 0.0705
C23 C -0.0917(4) 0.8095(3) 0.3617(3)
H26 H -0.0466 0.8504 0.3991
H27 H -0.2012 0.8203 0.3928
C24 C -0.1022(5) 0.8889(4) 0.2718(3)
H28 H -0.1636 0.9872 0.2830
H29 H 0.0071 0.8793 0.2411
C25 C -0.1792(6) 0.8436(5) 0.2109(3)
H30 H -0.2931 0.8769 0.2401
H31 H -0.1396 0.7431 0.2218
C26 C -0.1809(12) 0.9385(12) 0.1254(6)
H32 H -0.0699 0.9218 0.0944
H33 H -0.2316 1.0354 0.1424
C27 C -0.2762(16) 0.9104(14) 0.0609(7)
H34 H -0.3903 0.9380 0.0891
H35 H -0.2338 0.8114 0.0500
C28 C -0.2599(8) 0.9953(6) -0.0328(3)
H36 H -0.1546 0.9614 -0.0730
H37 H -0.3276 0.9471 -0.0431
C29 C -0.3394(9) 1.1453(7) -0.0387(4)
H38 H -0.4497 1.1722 -0.0063
H39 H -0.3396 1.1761 -0.1017
H40 H -0.2817 1.1874 -0.0122
N1 N 0.0064(3) 0.6620(2) 0.35535(18)
C1A C -0.3810(4) -0.1148(3) 0.7270(2)
H1A H -0.3661 -0.1650 0.7822
C2A C -0.4519(4) -0.1500(3) 0.6688(2)
H2A H -0.4867 -0.2243 0.6849
C3A C -0.4762(3) -0.0776(3) 0.5831(2)
C4A C -0.5545(4) -0.1134(3) 0.5236(2)
C5A C -0.5780(3) -0.0372(3) 0.4404(2)
C6A C -0.6494(4) -0.0715(3) 0.3745(2)
H3A H -0.6822 -0.1473 0.3869
C7A C -0.6707(4) 0.0021(4) 0.2951(3)
H4A H -0.7203 -0.0218 0.2545
C8A C -0.6086(4) -0.2321(3) 0.5488(2)
H5A H -0.5293 -0.3180 0.5609
C9A C -0.7574(4) -0.2281(3) 0.5557(2)
H6A H -0.8357 -0.1407 0.5453
C10A C -0.8170(4) -0.3424(3) 0.5774(2)
C11A C -0.9821(4) -0.3157(3) 0.5888(2)
H7A H -1.0539 -0.2241 0.5819
C12A C -1.0438(4) -0.4195(3) 0.6100(2)
H8A H -1.1557 -0.3963 0.6166
C13A C -0.9429(4) -0.5592(3) 0.6220(2)
C14A C -0.7763(4) -0.5862(3) 0.6106(2)
H9A H -0.7044 -0.6775 0.6184
C15A C -0.7155(3) -0.4815(3) 0.5880(2)
H10A H -0.6034 -0.5044 0.5796
C16A C -1.1818(4) -0.6258(3) 0.6639(2)
H11A H -1.2291 -0.5597 0.6167
H12A H -1.2038 -0.7093 0.6605
C17A C -1.2666(4) -0.5631(3) 0.7564(2)
H13A H -1.2490 -0.4774 0.7595
H14A H -1.2186 -0.6276 0.8041
C18A C -1.4481(4) -0.5318(4) 0.7733(2)
H15A H -1.4936 -0.4737 0.7226
H16A H -1.4647 -0.6189 0.7742
C19A C -1.5409(5) -0.4592(5) 0.8615(3)
H17A H -1.5356 -0.5267 0.9124
H18A H -1.4959 -0.3935 0.8741
C20A C -1.7090(11) -0.4602(18) 0.8952(7)
H19A H -1.7460 -0.4240 0.9562
H20A H -1.7003 -0.5567 0.9010
C21A C -1.8312(15) -0.386(2) 0.8435(10)
H21A H -1.8467 -0.2879 0.8432
H22A H -1.7881 -0.4148 0.7810
C22A C -1.9957(7) -0.3943(8) 0.8686(5)
H23A H -2.0102 -0.3090 0.8326
H24A H -2.0347 -0.4517 0.8414
H25A H -2.0559 -0.3733 0.9295
C23A C -0.9083(4) -0.8095(3) 0.6383(3)
H26A H -0.9534 -0.8504 0.6009
H27A H -0.7988 -0.8203 0.6072
C24A C -0.8978(5) -0.8889(4) 0.7282(3)
H28A H -0.8364 -0.9872 0.7170
H29A H -1.0071 -0.8793 0.7589
C25A C -0.8208(6) -0.8436(5) 0.7891(3)
H30A H -0.7069 -0.8769 0.7599
H31A H -0.8604 -0.7431 0.7782
C26A C -0.8191(12) -0.9385(12) 0.8746(6)
H32A H -0.9301 -0.9218 0.9056
H33A H -0.7684 -1.0354 0.8576
C27A C -0.7238(16) -0.9104(14) 0.9391(7)
H34A H -0.6097 -0.9380 0.9109
H35A H -0.7662 -0.8114 0.9500
C28A C -0.7401(8) -0.9953(6) 1.0328(3)
H36A H -0.8454 -0.9614 1.0730
H37A H -0.6724 -0.9471 1.0431
C29A C -0.6606(9) -1.1453(7) 1.0387(4)
H38A H -0.5503 -1.1722 1.0063
H39A H -0.6604 -1.1761 1.1017
H40A H -0.7183 -1.1874 1.0122
N1A N -1.0064(3) -0.6620(2) 0.64465(18)
C30? C 0.746(3) 0.3641(18) 0.1501(16)
H41? H 0.7593 0.3365 0.2131
H42? H 0.8118 0.2891 0.1088
C31? C 0.794(4) 0.4929(17) 0.1337(18)
H43? H 0.7365 0.5656 0.1776
H44? H 0.7693 0.5246 0.0730
C32? C -0.169(3) 0.850(2) 0.0947(14)
H45? H -0.0625 0.8092 0.0563
H46? H -0.2436 0.8121 0.0808
C33? C -0.252(3) 0.990(2) 0.0772(15)
H47? H -0.1753 1.0294 0.0870
H48? H -0.3567 1.0325 0.1169
loop_
_geom_bond_atom_site_label_1
_geom_bond_atom_site_label_2
_geom_bond_site_symmetry_1
_geom_bond_site_symmetry_2
C1 H1 1_555 1_555
C2 C1 1_555 1_555
H2 C2 1_555 1_555
C3 C2 1_555 1_555
C4 C3 1_555 1_555
C5 C4 1_555 1_555
C6 C5 1_555 1_555
H3 C6 1_555 1_555
C7 C6 1_555 1_555
H4 C7 1_555 1_555
C8 C4 1_555 1_555
H5 C8 1_555 1_555
C9 C8 1_555 1_555
H6 C9 1_555 1_555
C10 C9 1_555 1_555
C11 C10 1_555 1_555
H7 C11 1_555 1_555
C12 C11 1_555 1_555
H8 C12 1_555 1_555
C13 C12 1_555 1_555
C14 C13 1_555 1_555
H9 C14 1_555 1_555
C15 C10 1_555 1_555
H10 C15 1_555 1_555
C16 H11 1_555 1_555
H12 C16 1_555 1_555
C17 C16 1_555 1_555
H13 C17 1_555 1_555
H14 C17 1_555 1_555
C18 C17 1_555 1_555
H15 C18 1_555 1_555
H16 C18 1_555 1_555
C19 C18 1_555 1_555
H17 C19 1_555 1_555
H18 C19 1_555 1_555
C20 C19 1_555 1_555
H19 C20 1_555 1_555
H20 C20 1_555 1_555
C21 C20 1_555 1_555
H21 C21 1_555 1_555
H22 C21 1_555 1_555
C22 C21 1_555 1_555
H23 C22 1_555 1_555
H24 C22 1_555 1_555
H25 C22 1_555 1_555
C23 H26 1_555 1_555
H27 C23 1_555 1_555
C24 C23 1_555 1_555
H28 C24 1_555 1_555
H29 C24 1_555 1_555
C25 C24 1_555 1_555
H30 C25 1_555 1_555
H31 C25 1_555 1_555
C26 C25 1_555 1_555
H32 C26 1_555 1_555
H33 C26 1_555 1_555
C27 C26 1_555 1_555
H34 C27 1_555 1_555
H35 C27 1_555 1_555
C28 C27 1_555 1_555
H36 C28 1_555 1_555
H37 C28 1_555 1_555
C29 C28 1_555 1_555
H38 C29 1_555 1_555
H39 C29 1_555 1_555
H40 C29 1_555 1_555
N1 C13 1_555 1_555
C1A C7 1_555 1_555
H1A C1A 1_555 1_555
C2A C1A 1_555 1_555
H2A C2A 1_555 1_555
C3A C5 1_555 1_555
C4A C3A 1_555 1_555
C5A C3 1_555 1_555
C6A C5A 1_555 1_555
H3A C6A 1_555 1_555
C7A C1 1_555 1_555
H4A C7A 1_555 1_555
C8A C4A 1_555 1_555
H5A C8A 1_555 1_555
C9A C8A 1_555 1_555
H6A C9A 1_555 1_555
C10A C9A 1_555 1_555
C11A C10A 1_555 1_555
H7A C11A 1_555 1_555
C12A C11A 1_555 1_555
H8A C12A 1_555 1_555
C13A C12A 1_555 1_555
C14A C13A 1_555 1_555
H9A C14A 1_555 1_555
C15A C10A 1_555 1_555
H10A C15A 1_555 1_555
C16A H11A 1_555 1_555
H12A C16A 1_555 1_555
C17A C16A 1_555 1_555
H13A C17A 1_555 1_555
H14A C17A 1_555 1_555
C18A C17A 1_555 1_555
H15A C18A 1_555 1_555
H16A C18A 1_555 1_555
C19A C18A 1_555 1_555
H17A C19A 1_555 1_555
H18A C19A 1_555 1_555
C20A C19A 1_555 1_555
H19A C20A 1_555 1_555
H20A C20A 1_555 1_555
C21A C20A 1_555 1_555
H21A C21A 1_555 1_555
H22A C21A 1_555 1_555
C22A C21A 1_555 1_555
H23A C22A 1_555 1_555
H24A C22A 1_555 1_555
H25A C22A 1_555 1_555
C23A H26A 1_555 1_555
H27A C23A 1_555 1_555
C24A C23A 1_555 1_555
H28A C24A 1_555 1_555
H29A C24A 1_555 1_555
C25A C24A 1_555 1_555
H30A C25A 1_555 1_555
H31A C25A 1_555 1_555
C26A C25A 1_555 1_555
H32A C26A 1_555 1_555
H33A C26A 1_555 1_555
C27A C26A 1_555 1_555
H34A C27A 1_555 1_555
H35A C27A 1_555 1_555
C28A C27A 1_555 1_555
H36A C28A 1_555 1_555
H37A C28A 1_555 1_555
C29A C28A 1_555 1_555
H38A C29A 1_555 1_555
H39A C29A 1_555 1_555
H40A C29A 1_555 1_555
N1A C13A 1_555 1_555
C14 C15 1_555 1_555
C16 N1 1_555 1_555
C23 N1 1_555 1_555
C2A C3A 1_555 1_555
C4A C5A 1_555 1_555
C6A C7A 1_555 1_555
C14A C15A 1_555 1_555
C16A N1A 1_555 1_555
C23A N1A 1_555 1_555

#END
