
#######################################################################
#
#                 Cambridge Crystallographic Data Centre
#                                CCDC 
#
#######################################################################
#
# If this CIF has been generated from an entry in the Cambridge 
# Structural Database, then it will include bibliographic, chemical, 
# crystal, experimental, refinement or atomic coordinate data resulting 
# from the CCDC's data processing and validation procedures.
#
#######################################################################

data_POQQIW
_chemical_name_common            
'1,5-Diamino-1,2,3,4-4H-tetrazolium trinitrophloroglucinolate'
_chemical_formula_moiety         'C1 H5 N6 1+,C6 H2 N3 O9 1-'
_chemical_name_systematic        
'1-Amino-1,4-dihydro-5H-tetrazol-5-iminium 3,5-dihydroxy-2,4,6-trinitrophenolate'
_symmetry_cell_setting           monoclinic
_symmetry_space_group_name_H-M   'P 21/c'
_symmetry_Int_Tables_number      14
_space_group_name_Hall           '-P 2ybc'
loop_
_symmetry_equiv_pos_site_id
_symmetry_equiv_pos_as_xyz
1 x,y,z
2 -x,1/2+y,1/2-z
3 -x,-y,-z
4 x,1/2-y,1/2+z
_cell_length_a                   13.399(3)
_cell_length_b                   4.7088(9)
_cell_length_c                   20.127(4)
_cell_angle_alpha                90
_cell_angle_beta                 92.83(3)
_cell_angle_gamma                90
_cell_volume                     1268.33
_exptl_crystal_colour            brown
_exptl_crystal_description       needle
_cell_formula_units_Z            4
loop_
_atom_site_label
_atom_site_type_symbol
_atom_site_fract_x
_atom_site_fract_y
_atom_site_fract_z
O1 O 0.34939(13) 0.5151(5) 0.09685(11)
O2 O 0.10878(13) -0.1621(5) 0.01870(10)
H1 H 0.1499 -0.1848 -0.0096
O3 O 0.04827(13) 0.3660(5) 0.20855(10)
H2 H 0.0685 0.5032 0.2304
O4 O 0.16369(13) 0.7508(5) 0.24286(10)
O5 O 0.30001(13) 0.8350(4) 0.19456(10)
O6 O 0.39291(13) 0.0980(5) 0.01936(11)
O7 O 0.26999(14) -0.0986(5) -0.03408(11)
O8 O -0.02769(16) -0.2659(6) 0.10109(15)
O9 O -0.08960(15) 0.1315(6) 0.12977(12)
N1 N 0.22410(15) 0.6904(5) 0.19800(12)
N2 N 0.30365(15) 0.0540(5) 0.01367(11)
N3 N -0.01884(16) -0.0157(6) 0.11471(13)
C1 C 0.26898(18) 0.3891(6) 0.10363(14)
C2 C 0.23630(18) 0.1598(6) 0.05959(14)
C3 C 0.14125(18) 0.0335(6) 0.06145(14)
C4 C 0.07885(18) 0.1141(7) 0.11223(14)
C5 C 0.10801(18) 0.3202(7) 0.15963(14)
C6 C 0.19963(18) 0.4653(6) 0.15410(13)
N4 N 0.75091(17) 0.6016(6) 0.13875(14)
N5 N 0.65901(15) 0.7002(5) 0.15691(12)
N6 N 0.64368(18) 0.9044(6) 0.20393(13)
N7 N 0.55009(18) 0.9412(6) 0.20584(13)
N8 N 0.50384(17) 0.7643(5) 0.16048(12)
N9 N 0.55744(16) 0.4145(5) 0.08406(12)
C7 C 0.57122(18) 0.6101(6) 0.12962(13)
H3 H 0.7794(19) 0.494(5) 0.1710(12)
H4 H 0.7869(19) 0.756(4) 0.1290(16)
H5 H 0.4375(9) 0.748(8) 0.1544(19)
H6 H 0.4964(10) 0.357(7) 0.0698(16)
H7 H 0.6081(14) 0.334(7) 0.0642(15)
loop_
_geom_bond_atom_site_label_1
_geom_bond_atom_site_label_2
_geom_bond_site_symmetry_1
_geom_bond_site_symmetry_2
O1 C1 1_555 1_555
O2 H1 1_555 1_555
O3 H2 1_555 1_555
O4 N1 1_555 1_555
O5 N1 1_555 1_555
O6 N2 1_555 1_555
O7 N2 1_555 1_555
O8 N3 1_555 1_555
O9 N3 1_555 1_555
N1 C6 1_555 1_555
N2 C2 1_555 1_555
N3 C4 1_555 1_555
C1 C2 1_555 1_555
C2 C3 1_555 1_555
C3 O2 1_555 1_555
C4 C3 1_555 1_555
C5 O3 1_555 1_555
C6 C1 1_555 1_555
N4 N5 1_555 1_555
N5 N6 1_555 1_555
N6 N7 1_555 1_555
N7 N8 1_555 1_555
N8 C7 1_555 1_555
N9 C7 1_555 1_555
C7 N5 1_555 1_555
H3 N4 1_555 1_555
H4 N4 1_555 1_555
H5 N8 1_555 1_555
H6 N9 1_555 1_555
H7 N9 1_555 1_555
C4 C5 1_555 1_555
C5 C6 1_555 1_555

#END
