
#######################################################################
#
#                 Cambridge Crystallographic Data Centre
#                                CCDC 
#
#######################################################################
#
# If this CIF has been generated from an entry in the Cambridge 
# Structural Database, then it will include bibliographic, chemical, 
# crystal, experimental, refinement or atomic coordinate data resulting 
# from the CCDC's data processing and validation procedures.
#
#######################################################################

data_POQZOL
_chemical_formula_moiety         'C9 H9 F3 N2 O3 S1'
_chemical_name_systematic        
1-((2R,4S)-3,3-Difluoro-4-(hydroxymethyl)-tetrahydro-2-thienyl)-5-fluorouracil
_symmetry_cell_setting           monoclinic
_symmetry_space_group_name_H-M   'P 21'
_symmetry_Int_Tables_number      4
_space_group_name_Hall           'P 2yb'
loop_
_symmetry_equiv_pos_site_id
_symmetry_equiv_pos_as_xyz
1 x,y,z
2 -x,1/2+y,-z
_cell_length_a                   6.9183(6)
_cell_length_b                   9.8313(9)
_cell_length_c                   8.2669(8)
_cell_angle_alpha                90
_cell_angle_beta                 100.809(2)
_cell_angle_gamma                90
_cell_volume                     552.304
_exptl_crystal_colour            colorless
_exptl_crystal_description       prismatic
_chemical_melting_point          '212-213 deg.C'
_cell_formula_units_Z            2
loop_
_atom_site_label
_atom_site_type_symbol
_atom_site_fract_x
_atom_site_fract_y
_atom_site_fract_z
S1 S 0.50720(8) 1.02297(7) 0.42212(7)
F1 F 0.2579(2) 1.15096(15) 0.65674(16)
F2 F 0.01477(17) 1.0115(2) 0.57721(14)
F3 F 0.1139(2) 0.61733(14) 0.12736(17)
O1 O 0.4518(3) 0.99532(19) 0.9426(2)
O2 O -0.1144(2) 1.12054(16) 0.2365(2)
O3 O -0.2453(2) 0.71742(17) -0.0270(2)
N1 N 0.1230(2) 0.95712(17) 0.28449(19)
N2 N -0.1757(3) 0.91749(18) 0.1081(2)
C1 C 0.5340(3) 0.9315(3) 0.6184(3)
H1 H 0.5939 0.8433 0.6093
H2 H 0.6178 0.9826 0.7046
C2 C 0.3311(3) 0.9140(2) 0.6599(3)
H3 H 0.2758 0.8299 0.6067
C3 C 0.2086(3) 1.0300(2) 0.5766(2)
C4 C 0.2464(3) 1.0486(2) 0.4012(2)
H4 H 0.2155 1.1427 0.3669
C5 C -0.0599(3) 1.0077(2) 0.2123(2)
C6 C -0.1307(3) 0.7878(2) 0.0698(2)
C7 C 0.0607(3) 0.7453(2) 0.1544(2)
C8 C 0.1807(3) 0.8268(2) 0.2555(2)
H5 H 0.3039 0.7956 0.3069
C9 C 0.3300(4) 0.8995(3) 0.8443(3)
H6 H 0.1962 0.9101 0.8621
H7 H 0.3735 0.8086 0.8793
H8 H 0.394(4) 1.065(2) 0.960(4)
H9 H -0.289(3) 0.950(3) 0.061(3)
loop_
_geom_bond_atom_site_label_1
_geom_bond_atom_site_label_2
_geom_bond_site_symmetry_1
_geom_bond_site_symmetry_2
S1 C1 1_555 1_555
F1 C3 1_555 1_555
F2 C3 1_555 1_555
F3 C7 1_555 1_555
O1 C9 1_555 1_555
O2 C5 1_555 1_555
O3 C6 1_555 1_555
N1 C4 1_555 1_555
N2 C5 1_555 1_555
C1 H1 1_555 1_555
H2 C1 1_555 1_555
C2 C1 1_555 1_555
H3 C2 1_555 1_555
C3 C2 1_555 1_555
C4 S1 1_555 1_555
H4 C4 1_555 1_555
C5 N1 1_555 1_555
C6 N2 1_555 1_555
C7 C6 1_555 1_555
C8 N1 1_555 1_555
H5 C8 1_555 1_555
C9 C2 1_555 1_555
H6 C9 1_555 1_555
H7 C9 1_555 1_555
H8 O1 1_555 1_555
H9 N2 1_555 1_555
C3 C4 1_555 1_555
C7 C8 1_555 1_555

#END
