
#######################################################################
#
#                 Cambridge Crystallographic Data Centre
#                                CCDC 
#
#######################################################################
#
# If this CIF has been generated from an entry in the Cambridge 
# Structural Database, then it will include bibliographic, chemical, 
# crystal, experimental, refinement or atomic coordinate data resulting 
# from the CCDC's data processing and validation procedures.
#
#######################################################################

data_PORBAZ
_chemical_name_common            
'C-Undecylcalix(4)resorcinarene ethanol solvate'
_chemical_formula_moiety         'C72 H112 O8,4(C2 H6 O1)'
_chemical_name_systematic        
'4,6,10,12,16,18,22,24-Octahydroxy-2,8,14,20-tetrakis(undecyl)calix(4)arene ethanol solvate'
_symmetry_cell_setting           triclinic
_symmetry_space_group_name_H-M   'P -1'
_symmetry_Int_Tables_number      2
_space_group_name_Hall           '-P 1'
loop_
_symmetry_equiv_pos_site_id
_symmetry_equiv_pos_as_xyz
1 x,y,z
2 -x,-y,-z
_cell_length_a                   12.533
_cell_length_b                   12.649
_cell_length_c                   25.319
_cell_angle_alpha                84.79
_cell_angle_beta                 80.74
_cell_angle_gamma                83.84
_cell_volume                     3927.56
_exptl_crystal_colour            colorless
_cell_formula_units_Z            2
loop_
_atom_site_label
_atom_site_type_symbol
_atom_site_fract_x
_atom_site_fract_y
_atom_site_fract_z
C1 C 0.9673(4) 1.3171(4) 0.2940(2)
C2 C 0.8972(4) 1.4088(4) 0.3020(2)
C3 C 0.8066(4) 1.4390(4) 0.2684(2)
C4 C 0.6964(4) 1.4099(4) 0.2984(2)
C5 C 0.6705(4) 1.3047(4) 0.3016(2)
C6 C 0.5717(4) 1.2720(4) 0.3262(2)
C7 C 0.5468(4) 1.1556(4) 0.3280(2)
C8 C 0.6066(4) 1.0878(4) 0.3696(2)
C9 C 0.7024(4) 1.0232(4) 0.3553(2)
C10 C 0.7603(4) 0.9615(4) 0.3914(2)
C11 C 0.8653(4) 0.8949(4) 0.3727(2)
C12 C 0.9618(4) 0.9495(4) 0.3819(2)
C13 C 0.9992(4) 1.0353(4) 0.3478(2)
C14 C 1.0867(4) 1.0900(4) 0.3543(2)
C15 C 1.1250(4) 1.1808(4) 0.3143(2)
C16 C 1.0513(4) 1.2829(4) 0.3236(2)
C17 C 1.0611(4) 1.3479(4) 0.3646(2)
C18 C 0.9933(4) 1.4398(4) 0.3737(2)
C19 C 0.9111(4) 1.4703(4) 0.3431(2)
C20 C 0.6189(4) 1.4844(4) 0.3229(2)
C21 C 0.5199(4) 1.4545(4) 0.3493(2)
C22 C 0.4968(4) 1.3491(4) 0.3506(2)
C23 C 0.5680(4) 1.0895(4) 0.4243(2)
C24 C 0.6231(4) 1.0295(4) 0.4620(2)
C25 C 0.7166(4) 0.9673(4) 0.4454(2)
C26 C 1.0175(4) 0.9199(4) 0.4251(2)
C27 C 1.1035(4) 0.9720(4) 0.4343(2)
C28 C 1.1374(4) 1.0567(4) 0.3990(2)
C29 C 0.5712(4) 1.1115(4) 0.2722(2)
C30 C 0.5079(4) 1.1773(4) 0.2314(2)
C31 C 0.5283(4) 1.1313(4) 0.1767(2)
C32 C 0.4703(4) 1.1969(4) 0.1346(2)
C33 C 0.4905(4) 1.1490(4) 0.0804(2)
C34 C 0.4301(4) 1.2128(4) 0.0384(2)
C35 C 0.4482(5) 1.1645(4) -0.0158(2)
C36 C 0.3905(5) 1.2270(4) -0.0582(2)
C37 C 0.4090(5) 1.1808(4) -0.1121(2)
C38 C 0.3514(5) 1.2453(4) -0.1544(2)
C39 C 0.3717(7) 1.1992(5) -0.2084(2)
C40 C 0.8305(4) 1.3960(4) 0.2128(2)
C41 C 0.7552(4) 1.4493(4) 0.1745(2)
C42 C 0.7613(4) 1.3924(4) 0.1240(2)
C43 C 0.7079(4) 1.4554(4) 0.0801(2)
C44 C 0.7077(5) 1.4000(4) 0.0306(2)
C45 C 0.6668(4) 1.4684(4) -0.0152(2)
C46 C 0.6611(5) 1.4135(4) -0.0649(2)
C47 C 0.6311(4) 1.4869(4) -0.1121(2)
C48 C 0.6216(5) 1.4315(4) -0.1612(2)
C49 C 0.5960(5) 1.5062(5) -0.2095(2)
C50 C 0.6867(5) 1.5746(5) -0.2333(2)
C51 C 1.1393(4) 1.1486(4) 0.2561(2)
C52 C 1.2158(4) 1.0498(4) 0.2450(2)
C53 C 1.2110(6) 1.0163(5) 0.1878(2)
C54 C 1.2792(6) 0.9259(6) 0.1704(3)
C55 C 1.2590(6) 0.8849(6) 0.1189(2)
C56 C 1.2289(9) 0.9497(5) 0.0739(3)
C57 C 1.2136(5) 0.9076(5) 0.0230(2)
C58 C 1.1830(9) 0.9703(6) -0.0219(3)
C59 C 1.1674(5) 0.9254(5) -0.0718(2)
C60 C 1.1319(9) 0.9880(6) -0.1174(3)
C61 C 1.1210(5) 0.9375(5) -0.1661(2)
C62 C 0.8731(4) 0.8614(4) 0.3156(2)
C63 C 0.9704(4) 0.7819(4) 0.2980(2)
C64 C 0.9611(4) 0.7405(4) 0.2437(2)
C65 C 1.0569(4) 0.6646(4) 0.2226(2)
C66 C 1.0364(5) 0.6110(4) 0.1733(2)
C67 C 1.0099(4) 0.6846(4) 0.1265(2)
C68 C 0.9934(4) 0.6313(4) 0.0781(2)
C69 C 0.9621(5) 0.7059(4) 0.0323(2)
C70 C 0.9400(4) 0.6557(4) -0.0160(2)
C71 C 0.9115(5) 0.7307(5) -0.0615(2)
C72 C 0.8870(5) 0.6808(4) -0.1094(2)
O1 O 0.8455(3) 1.5608(3) 0.3569(1)
O2 O 1.1399(3) 1.3197(3) 0.3974(1)
O3 O 0.6450(3) 1.5871(2) 0.3219(1)
O4 O 0.3985(2) 1.3152(3) 0.3767(1)
O5 O 0.4733(3) 1.1491(3) 0.4446(1)
O6 O 0.7673(3) 0.9090(3) 0.4858(1)
O7 O 0.9794(3) 0.8377(2) 0.4609(1)
O8 O 1.2226(2) 1.1113(3) 0.4067(1)
H1 H 0.9571(1) 1.2736(4) 0.2664(2)
H2 H 0.8005(4) 1.5153(4) 0.2624(2)
H3 H 0.7248(4) 1.2523(4) 0.2861(2)
H4 H 0.4705(4) 1.1534(4) 0.3403(2)
H5 H 0.7595(4) 1.0206(4) 0.3177(2)
H6 H 0.8659(4) 0.8302(4) 0.3956(2)
H7 H 0.9618(4) 1.0594(4) 0.3181(2)
H8 H 1.1957(4) 1.1934(4) 0.3209(2)
H9 H 1.0025(4) 1.4829(4) 0.4016(2)
H10 H 0.4676(4) 1.5060(4) 0.3670(2)
H11 H 0.5955(4) 1.0317(4) 0.4995(2)
H12 H 1.1393(4) 0.9504(4) 0.4649(2)
H13 H 0.5531(4) 1.0391(4) 0.2749(2)
H14 H 0.6477(4) 1.1114(4) 0.2596(2)
H15 H 0.5294(4) 1.2486(4) 0.2270(2)
H16 H 0.4316(4) 1.1812(4) 0.2451(2)
H17 H 0.5043(4) 1.0611(4) 0.1811(2)
H18 H 0.6049(4) 1.1247(4) 0.1640(2)
H19 H 0.4945(4) 1.2671(4) 0.1299(2)
H20 H 0.3936(4) 1.2038(4) 0.1472(2)
H21 H 0.4682(4) 1.0780(4) 0.0854(2)
H22 H 0.5671(4) 1.1437(4) 0.0675(2)
H23 H 0.4539(4) 1.2832(4) 0.0329(2)
H24 H 0.3539(4) 1.2199(4) 0.0519(2)
H25 H 0.4240(5) 1.0943(4) -0.0105(2)
H26 H 0.5244(5) 1.1572(4) -0.0294(2)
H27 H 0.4138(5) 1.2976(4) -0.0632(2)
H28 H 0.3141(5) 1.2333(4) -0.0450(2)
H29 H 0.3837(5) 1.1110(4) -0.1075(2)
H30 H 0.4855(5) 1.1728(4) -0.1251(2)
H31 H 0.3758(5) 1.3154(4) -0.1586(2)
H32 H 0.2748(5) 1.2522(4) -0.1417(2)
H33 H 0.3337(7) 1.2449(5) -0.2330(2)
H34 H 0.4481(7) 1.1936(5) -0.2218(2)
H35 H 0.3460(7) 1.1297(5) -0.2048(2)
H36 H 0.8233(4) 1.3208(4) 0.2169(2)
H37 H 0.9043(4) 1.4060(4) 0.1976(2)
H38 H 0.7738(4) 1.5208(4) 0.1643(2)
H39 H 0.6820(4) 1.4536(4) 0.1931(2)
H40 H 0.7265(4) 1.3278(4) 0.1335(2)
H41 H 0.8362(4) 1.3727(4) 0.1105(2)
H42 H 0.7433(4) 1.5195(4) 0.0701(2)
H43 H 0.6338(4) 1.4763(4) 0.0946(2)
H44 H 0.6634(5) 1.3417(4) 0.0398(2)
H45 H 0.7804(5) 1.3704(4) 0.0185(2)
H46 H 0.7125(4) 1.5254(4) -0.0251(2)
H47 H 0.5952(4) 1.4998(4) -0.0024(2)
H48 H 0.6083(5) 1.3626(4) -0.0561(2)
H49 H 0.7303(5) 1.3751(4) -0.0759(2)
H50 H 0.6853(4) 1.5363(4) -0.1218(2)
H51 H 0.5631(4) 1.5272(4) -0.1008(2)
H52 H 0.5665(5) 1.3831(4) -0.1517(2)
H53 H 0.6891(5) 1.3901(4) -0.1720(2)
H54 H 0.5327(5) 1.5531(5) -0.1980(2)
H55 H 0.5797(5) 1.4656(5) -0.2369(2)
H56 H 0.6674(5) 1.6213(5) -0.2630(2)
H57 H 0.7023(5) 1.6161(5) -0.2060(2)
H58 H 0.7498(5) 1.5278(5) -0.2453(2)
H59 H 1.1637(4) 1.2065(4) 0.2315(2)
H60 H 1.0693(4) 1.1346(4) 0.2491(2)
H61 H 1.1962(4) 0.9924(4) 0.2710(2)
H62 H 1.2885(4) 1.0648(4) 0.2471(2)
H63 H 1.2308(6) 1.0744(5) 0.1623(2)
H64 H 1.1375(6) 1.0039(5) 0.1860(2)
H65 H 1.2673(6) 0.8714(6) 0.1991(3)
H66 H 1.3534(6) 0.9417(6) 0.1665(3)
H67 H 1.2043(6) 0.8361(6) 0.1291(2)
H68 H 1.3243(6) 0.8428(6) 0.1053(2)
H69 H 1.2810(9) 1.0013(5) 0.0648(3)
H70 H 1.1609(9) 0.9885(5) 0.0867(3)
H71 H 1.1639(5) 0.8538(5) 0.0324(2)
H72 H 1.2825(5) 0.8712(5) 0.0096(2)
H73 H 1.2326(9) 1.0241(6) -0.0317(3)
H74 H 1.1138(9) 1.0065(6) -0.0089(3)
H75 H 1.1187(5) 0.8708(5) -0.0620(2)
H76 H 1.2369(5) 0.8900(5) -0.0851(2)
H77 H 1.1805(9) 1.0425(6) -0.1279(3)
H78 H 1.0620(9) 1.0233(6) -0.1046(3)
H79 H 1.0961(5) 0.9906(5) -0.1921(2)
H80 H 1.1909(5) 0.9045(5) -0.1806(2)
H81 H 1.0703(5) 0.8844(5) -0.1576(2)
H82 H 0.8770(4) 0.9246(4) 0.2915(2)
H83 H 0.8081(4) 0.8301(4) 0.3124(2)
H84 H 0.9739(4) 0.7236(4) 0.3250(2)
H85 H 1.0359(4) 0.8166(4) 0.2942(2)
H86 H 0.9543(4) 0.7996(4) 0.2175(2)
H87 H 0.8963(4) 0.7044(4) 0.2481(2)
H88 H 1.0705(4) 0.6116(4) 0.2510(2)
H89 H 1.1199(4) 0.7031(4) 0.2127(2)
H90 H 0.9768(5) 0.5683(4) 0.1845(2)
H91 H 1.0993(5) 0.5640(4) 0.1614(2)
H92 H 1.0688(4) 0.7283(4) 0.1157(2)
H93 H 0.9460(4) 0.7306(4) 0.1381(2)
H94 H 0.9368(4) 0.5850(4) 0.0894(2)
H95 H 1.0584(4) 0.5878(4) 0.0655(2)
H96 H 1.0194(5) 0.7514(4) 0.0208(2)
H97 H 0.8983(5) 0.7505(4) 0.0456(2)
H98 H 0.8813(4) 0.6117(4) -0.0051(2)
H99 H 1.0032(4) 0.6100(4) -0.0290(2)
H100 H 0.9709(5) 0.7736(5) -0.0730(2)
H101 H 0.8492(5) 0.7773(5) -0.0484(2)
H102 H 0.8698(5) 0.7352(4) -0.1365(2)
H103 H 0.9495(5) 0.6354(4) -0.1235(2)
H104 H 0.8264(5) 0.6392(4) -0.0986(2)
H105 H 0.7865(3) 1.5609(3) 0.3444(1)
H106 H 1.1633(3) 1.3763(3) 0.4050(1)
H107 H 0.5937(3) 1.6228(2) 0.3407(1)
H108 H 0.3641(2) 1.3647(3) 0.3950(1)
H109 H 0.4574(3) 1.1978(3) 0.4210(1)
H110 H 0.8332(3) 0.8910(3) 0.4734(1)
H111 H 1.0319(3) 0.8058(2) 0.4754(1)
H112 H 1.2270(2) 1.1059(3) 0.4400(1)
C73 C 0.2564(6) 1.6562(8) 0.3237(3)
O9 O 0.2715(3) 1.6604(3) 0.4159(2)
C74 C 0.2069(5) 1.6905(6) 0.3750(2)
H113 H 0.2115(6) 1.6788(8) 0.2966(3)
H114 H 0.3254(6) 1.6849(8) 0.3137(3)
H115 H 0.2673(6) 1.5798(8) 0.3269(3)
H116 H 0.2687(3) 1.5940(3) 0.4242(2)
H117 H 0.1376(5) 1.6626(6) 0.3849(2)
H118 H 0.1952(5) 1.7669(6) 0.3718(2)
O10 O 1.2582(3) 1.4473(3) 0.4411(1)
C75 C 1.2471(9) 1.4049(10) 0.5021(3)
C76 C 1.3559(11) 1.4049(10) 0.5139(4)
H119 H 1.2224(3) 1.4110(3) 0.4248(1)
H120 H 1.2366(9) 1.3304(10) 0.5073(3)
H121 H 1.1929(9) 1.4450(10) 0.5255(3)
H122 H 1.3712(11) 1.3831(10) 0.5494(4)
H123 H 1.4062(11) 1.3659(10) 0.4883(4)
H124 H 1.3628(11) 1.4799(10) 0.5065(4)
O11 O 0.4876(3) 1.7091(3) 0.3809(2)
C77 C 0.5008(6) 1.8134(5) 0.3935(3)
C78 C 0.4132(5) 1.8917(5) 0.3776(3)
H125 H 0.5466(3) 1.6852(3) 0.3625(2)
H126 H 0.5702(6) 1.8355(5) 0.3773(3)
H127 H 0.4964(6) 1.8123(5) 0.4318(3)
H128 H 0.4207(5) 1.9617(5) 0.3877(3)
H129 H 0.4184(5) 1.8932(5) 0.3393(3)
H130 H 0.3439(5) 1.8698(5) 0.3942(3)
O12 O 1.1341(4) 0.7326(3) 0.5085(2)
C79 C 1.1752(5) 0.7680(5) 0.5555(2)
C80 C 1.2783(6) 0.6952(6) 0.5586(2)
H131 H 1.0839(4) 0.7781(3) 0.4995(2)
H132 H 1.1235(5) 0.7605(5) 0.5876(2)
H133 H 1.1916(5) 0.8410(5) 0.5493(2)
H134 H 1.3114(6) 0.7121(6) 0.5881(2)
H135 H 1.2600(6) 0.6228(6) 0.5642(2)
H136 H 1.3283(6) 0.7035(6) 0.5258(2)
loop_
_geom_bond_atom_site_label_1
_geom_bond_atom_site_label_2
_geom_bond_site_symmetry_1
_geom_bond_site_symmetry_2
C1 C2 1_555 1_555
C2 C3 1_555 1_555
C3 C4 1_555 1_555
C4 C5 1_555 1_555
C5 C6 1_555 1_555
C6 C7 1_555 1_555
C7 C8 1_555 1_555
C8 C9 1_555 1_555
C9 C10 1_555 1_555
C10 C11 1_555 1_555
C11 C12 1_555 1_555
C12 C13 1_555 1_555
C13 C14 1_555 1_555
C14 C15 1_555 1_555
C15 C16 1_555 1_555
C16 C1 1_555 1_555
C17 C16 1_555 1_555
C18 C17 1_555 1_555
C19 C2 1_555 1_555
C20 C4 1_555 1_555
C21 C20 1_555 1_555
C22 C6 1_555 1_555
C23 C8 1_555 1_555
C24 C23 1_555 1_555
C25 C10 1_555 1_555
C26 C12 1_555 1_555
C27 C26 1_555 1_555
C28 C14 1_555 1_555
C29 C7 1_555 1_555
C30 C29 1_555 1_555
C31 C30 1_555 1_555
C32 C31 1_555 1_555
C33 C32 1_555 1_555
C34 C33 1_555 1_555
C35 C34 1_555 1_555
C36 C35 1_555 1_555
C37 C36 1_555 1_555
C38 C37 1_555 1_555
C39 C38 1_555 1_555
C40 C3 1_555 1_555
C41 C40 1_555 1_555
C42 C41 1_555 1_555
C43 C42 1_555 1_555
C44 C43 1_555 1_555
C45 C44 1_555 1_555
C46 C45 1_555 1_555
C47 C46 1_555 1_555
C48 C47 1_555 1_555
C49 C48 1_555 1_555
C50 C49 1_555 1_555
C51 C15 1_555 1_555
C52 C51 1_555 1_555
C53 C52 1_555 1_555
C54 C53 1_555 1_555
C55 C54 1_555 1_555
C56 C55 1_555 1_555
C57 C56 1_555 1_555
C58 C57 1_555 1_555
C59 C58 1_555 1_555
C60 C59 1_555 1_555
C61 C60 1_555 1_555
C62 C11 1_555 1_555
C63 C62 1_555 1_555
C64 C63 1_555 1_555
C65 C64 1_555 1_555
C66 C65 1_555 1_555
C67 C66 1_555 1_555
C68 C67 1_555 1_555
C69 C68 1_555 1_555
C70 C69 1_555 1_555
C71 C70 1_555 1_555
C72 C71 1_555 1_555
O1 C19 1_555 1_555
O2 C17 1_555 1_555
O3 C20 1_555 1_555
O4 C22 1_555 1_555
O5 C23 1_555 1_555
O6 C25 1_555 1_555
O7 C26 1_555 1_555
O8 C28 1_555 1_555
H1 C1 1_555 1_555
H2 C3 1_555 1_555
H3 C5 1_555 1_555
H4 C7 1_555 1_555
H5 C9 1_555 1_555
H6 C11 1_555 1_555
H7 C13 1_555 1_555
H8 C15 1_555 1_555
H9 C18 1_555 1_555
H10 C21 1_555 1_555
H11 C24 1_555 1_555
H12 C27 1_555 1_555
H13 C29 1_555 1_555
H14 C29 1_555 1_555
H15 C30 1_555 1_555
H16 C30 1_555 1_555
H17 C31 1_555 1_555
H18 C31 1_555 1_555
H19 C32 1_555 1_555
H20 C32 1_555 1_555
H21 C33 1_555 1_555
H22 C33 1_555 1_555
H23 C34 1_555 1_555
H24 C34 1_555 1_555
H25 C35 1_555 1_555
H26 C35 1_555 1_555
H27 C36 1_555 1_555
H28 C36 1_555 1_555
H29 C37 1_555 1_555
H30 C37 1_555 1_555
H31 C38 1_555 1_555
H32 C38 1_555 1_555
H33 C39 1_555 1_555
H34 C39 1_555 1_555
H35 C39 1_555 1_555
H36 C40 1_555 1_555
H37 C40 1_555 1_555
H38 C41 1_555 1_555
H39 C41 1_555 1_555
H40 C42 1_555 1_555
H41 C42 1_555 1_555
H42 C43 1_555 1_555
H43 C43 1_555 1_555
H44 C44 1_555 1_555
H45 C44 1_555 1_555
H46 C45 1_555 1_555
H47 C45 1_555 1_555
H48 C46 1_555 1_555
H49 C46 1_555 1_555
H50 C47 1_555 1_555
H51 C47 1_555 1_555
H52 C48 1_555 1_555
H53 C48 1_555 1_555
H54 C49 1_555 1_555
H55 C49 1_555 1_555
H56 C50 1_555 1_555
H57 C50 1_555 1_555
H58 C50 1_555 1_555
H59 C51 1_555 1_555
H60 C51 1_555 1_555
H61 C52 1_555 1_555
H62 C52 1_555 1_555
H63 C53 1_555 1_555
H64 C53 1_555 1_555
H65 C54 1_555 1_555
H66 C54 1_555 1_555
H67 C55 1_555 1_555
H68 C55 1_555 1_555
H69 C56 1_555 1_555
H70 C56 1_555 1_555
H71 C57 1_555 1_555
H72 C57 1_555 1_555
H73 C58 1_555 1_555
H74 C58 1_555 1_555
H75 C59 1_555 1_555
H76 C59 1_555 1_555
H77 C60 1_555 1_555
H78 C60 1_555 1_555
H79 C61 1_555 1_555
H80 C61 1_555 1_555
H81 C61 1_555 1_555
H82 C62 1_555 1_555
H83 C62 1_555 1_555
H84 C63 1_555 1_555
H85 C63 1_555 1_555
H86 C64 1_555 1_555
H87 C64 1_555 1_555
H88 C65 1_555 1_555
H89 C65 1_555 1_555
H90 C66 1_555 1_555
H91 C66 1_555 1_555
H92 C67 1_555 1_555
H93 C67 1_555 1_555
H94 C68 1_555 1_555
H95 C68 1_555 1_555
H96 C69 1_555 1_555
H97 C69 1_555 1_555
H98 C70 1_555 1_555
H99 C70 1_555 1_555
H100 C71 1_555 1_555
H101 C71 1_555 1_555
H102 C72 1_555 1_555
H103 C72 1_555 1_555
H104 C72 1_555 1_555
H105 O1 1_555 1_555
H106 O2 1_555 1_555
H107 O3 1_555 1_555
H108 O4 1_555 1_555
H109 O5 1_555 1_555
H110 O6 1_555 1_555
H111 O7 1_555 1_555
H112 O8 1_555 1_555
C73 C74 1_555 1_555
O9 C74 1_555 1_555
C74 H117 1_555 1_555
H113 C73 1_555 1_555
H114 C73 1_555 1_555
H115 C73 1_555 1_555
H116 O9 1_555 1_555
H118 C74 1_555 1_555
O10 C75 1_555 1_555
C75 C76 1_555 1_555
C76 H122 1_555 1_555
H119 O10 1_555 1_555
H120 C75 1_555 1_555
H121 C75 1_555 1_555
H123 C76 1_555 1_555
H124 C76 1_555 1_555
O11 C77 1_555 1_555
C77 C78 1_555 1_555
C78 H128 1_555 1_555
H125 O11 1_555 1_555
H126 C77 1_555 1_555
H127 C77 1_555 1_555
H129 C78 1_555 1_555
H130 C78 1_555 1_555
O12 C79 1_555 1_555
C79 C80 1_555 1_555
C80 H134 1_555 1_555
H131 O12 1_555 1_555
H132 C79 1_555 1_555
H133 C79 1_555 1_555
H135 C80 1_555 1_555
H136 C80 1_555 1_555
C18 C19 1_555 1_555
C21 C22 1_555 1_555
C24 C25 1_555 1_555
C27 C28 1_555 1_555

#END
