
#######################################################################
#
#                 Cambridge Crystallographic Data Centre
#                                CCDC 
#
#######################################################################
#
# If this CIF has been generated from an entry in the Cambridge 
# Structural Database, then it will include bibliographic, chemical, 
# crystal, experimental, refinement or atomic coordinate data resulting 
# from the CCDC's data processing and validation procedures.
#
#######################################################################

data_PORPUI
_chemical_formula_moiety         'C32 H35 N3 O2 S1'
_chemical_name_systematic        
"(E)-Methyl 1,3-dibenzyl-5'-(iso-butylidene)-1'-phenyl-2'-thioxo-spiro(imidazolidine-2,3'-pyrrolidine)-4'-carboxylate"
_symmetry_cell_setting           orthorhombic
_symmetry_space_group_name_H-M   'P n a 21'
_symmetry_Int_Tables_number      33
_space_group_name_Hall           'P 2c -2n'
loop_
_symmetry_equiv_pos_site_id
_symmetry_equiv_pos_as_xyz
1 x,y,z
2 1/2-x,1/2+y,1/2+z
3 1/2+x,1/2-y,z
4 -x,-y,1/2+z
_cell_length_a                   14.6346(14)
_cell_length_b                   16.4160(17)
_cell_length_c                   11.7446(13)
_cell_angle_alpha                90
_cell_angle_beta                 90
_cell_angle_gamma                90
_cell_volume                     2821.54
_exptl_crystal_colour            yellow
_exptl_crystal_description       prism
_chemical_melting_point          '166-167 deg.C'
_cell_formula_units_Z            4
_exptl_crystal_recrystallization_method 'ethyl acetate/hexane'
loop_
_atom_site_label
_atom_site_type_symbol
_atom_site_fract_x
_atom_site_fract_y
_atom_site_fract_z
S1 S 0.86535(4) 0.83580(3) 0.21213(6)
O1 O 0.62518(11) 1.09821(10) 0.07449(16)
O2 O 0.68197(12) 1.07564(10) -0.10034(16)
N1 N 0.68852(11) 0.87019(10) 0.17360(16)
N2 N 0.82210(11) 1.02983(10) 0.12741(16)
N3 N 0.85073(13) 0.94604(11) -0.02104(16)
C1 C 0.77813(14) 0.88438(12) 0.15403(19)
C2 C 0.78671(14) 0.95671(13) 0.0714(2)
C3 C 0.68703(16) 0.96570(13) 0.0245(2)
H1 H 0.6845 0.9370 -0.0505
C4 C 0.62725(14) 0.91846(13) 0.1071(2)
C5 C 0.65988(15) 1.05253(14) 0.0045(2)
C6 C 0.66082(19) 1.15959(14) -0.1302(3)
H2 H 0.5949 1.1687 -0.1231
H3 H 0.6799 1.1701 -0.2089
H4 H 0.6935 1.1965 -0.0788
C7 C 0.53718(15) 0.91192(14) 0.1147(2)
H5 H 0.5149 0.8740 0.1692
C8 C 0.46637(17) 0.95695(16) 0.0479(2)
H6 H 0.4973 0.9865 -0.0158
C9 C 0.3973(2) 0.8974(2) -0.0027(3)
H7 H 0.4294 0.8568 -0.0489
H8 H 0.3539 0.9272 -0.0507
H9 H 0.3642 0.8700 0.0589
C10 C 0.41855(18) 1.01908(17) 0.1234(3)
H10 H 0.3915 0.9913 0.1891
H11 H 0.3704 1.0464 0.0797
H12 H 0.4630 1.0595 0.1498
C11 C 0.65496(14) 0.80966(14) 0.25099(19)
C12 C 0.63389(18) 0.83264(16) 0.3615(2)
H13 H 0.6446 0.8870 0.3860
C13 C 0.5977(2) 0.77678(18) 0.4351(2)
H14 H 0.5821 0.7926 0.5105
C14 C 0.58375(18) 0.69769(18) 0.4003(3)
H15 H 0.5596 0.6588 0.4521
C15 C 0.60477(19) 0.67471(16) 0.2901(3)
H16 H 0.5940 0.6204 0.2658
C16 C 0.64148(15) 0.73103(13) 0.2156(3)
H17 H 0.6573 0.7153 0.1403
C17 C 0.92222(13) 1.02540(13) 0.12193(19)
H18 H 0.9474 0.9979 0.1900
H19 H 0.9494 1.0805 0.1158
C18 C 0.94034(15) 0.97566(14) 0.0146(2)
H20 H 0.9681 1.0101 -0.0454
H21 H 0.9819 0.9296 0.0311
C19 C 0.78739(15) 1.04835(13) 0.24131(19)
H22 H 0.8090 1.0067 0.2960
H23 H 0.7198 1.0475 0.2408
C20 C 0.82128(15) 1.13259(14) 0.2777(2)
C21 C 0.87118(16) 1.14249(17) 0.3756(2)
H24 H 0.8827 1.0970 0.4235
C22 C 0.90522(17) 1.21943(19) 0.4053(2)
H25 H 0.9402 1.2259 0.4728
C23 C 0.88797(18) 1.28583(17) 0.3365(2)
H26 H 0.9113 1.3380 0.3561
C24 C 0.83654(17) 1.27595(15) 0.2390(2)
H27 H 0.8238 1.3216 0.1919
C25 C 0.80338(16) 1.19969(13) 0.2095(2)
H28 H 0.7682 1.1934 0.1421
C26 C 0.84990(18) 0.86831(15) -0.0827(2)
H29 H 0.7917 0.8398 -0.0668
H30 H 0.9003 0.8337 -0.0540
C27 C 0.86034(15) 0.87847(14) -0.2103(2)
C28 C 0.83078(15) 0.94824(14) -0.2653(2)
H31 H 0.8094 0.9933 -0.2221
C29 C 0.83233(15) 0.95262(16) -0.3837(2)
H32 H 0.8127 1.0009 -0.4211
C30 C 0.86250(17) 0.88664(18) -0.4471(2)
H33 H 0.8625 0.8891 -0.5279
C31 C 0.89264(17) 0.81712(17) -0.3920(2)
H34 H 0.9135 0.7718 -0.4351
C32 C 0.89243(15) 0.81355(14) -0.2752(2)
H35 H 0.9145 0.7660 -0.2381
loop_
_geom_bond_atom_site_label_1
_geom_bond_atom_site_label_2
_geom_bond_site_symmetry_1
_geom_bond_site_symmetry_2
S1 C1 1_555 1_555
O1 C5 1_555 1_555
O2 C5 1_555 1_555
N1 C1 1_555 1_555
N2 C2 1_555 1_555
N3 C2 1_555 1_555
C1 C2 1_555 1_555
C2 C3 1_555 1_555
C3 H1 1_555 1_555
C4 N1 1_555 1_555
C5 C3 1_555 1_555
C6 O2 1_555 1_555
H2 C6 1_555 1_555
H3 C6 1_555 1_555
H4 C6 1_555 1_555
C7 C4 1_555 1_555
H5 C7 1_555 1_555
C8 C7 1_555 1_555
H6 C8 1_555 1_555
C9 C8 1_555 1_555
H7 C9 1_555 1_555
H8 C9 1_555 1_555
H9 C9 1_555 1_555
C10 C8 1_555 1_555
H10 C10 1_555 1_555
H11 C10 1_555 1_555
H12 C10 1_555 1_555
C11 N1 1_555 1_555
C12 C11 1_555 1_555
H13 C12 1_555 1_555
C13 C12 1_555 1_555
H14 C13 1_555 1_555
C14 C13 1_555 1_555
H15 C14 1_555 1_555
C15 C14 1_555 1_555
H16 C15 1_555 1_555
C16 C11 1_555 1_555
H17 C16 1_555 1_555
C17 N2 1_555 1_555
H18 C17 1_555 1_555
H19 C17 1_555 1_555
C18 N3 1_555 1_555
H20 C18 1_555 1_555
H21 C18 1_555 1_555
C19 N2 1_555 1_555
H22 C19 1_555 1_555
H23 C19 1_555 1_555
C20 C19 1_555 1_555
C21 C20 1_555 1_555
H24 C21 1_555 1_555
C22 C21 1_555 1_555
H25 C22 1_555 1_555
C23 C22 1_555 1_555
H26 C23 1_555 1_555
C24 C23 1_555 1_555
H27 C24 1_555 1_555
C25 C20 1_555 1_555
H28 C25 1_555 1_555
C26 N3 1_555 1_555
H29 C26 1_555 1_555
H30 C26 1_555 1_555
C27 C26 1_555 1_555
C28 C27 1_555 1_555
H31 C28 1_555 1_555
C29 C28 1_555 1_555
H32 C29 1_555 1_555
C30 C29 1_555 1_555
H33 C30 1_555 1_555
C31 C30 1_555 1_555
H34 C31 1_555 1_555
C32 C27 1_555 1_555
H35 C32 1_555 1_555
C3 C4 1_555 1_555
C15 C16 1_555 1_555
C17 C18 1_555 1_555
C24 C25 1_555 1_555
C31 C32 1_555 1_555

#END
