
#######################################################################
#
#                 Cambridge Crystallographic Data Centre
#                                CCDC 
#
#######################################################################
#
# If this CIF has been generated from an entry in the Cambridge 
# Structural Database, then it will include bibliographic, chemical, 
# crystal, experimental, refinement or atomic coordinate data resulting 
# from the CCDC's data processing and validation procedures.
#
#######################################################################

data_PORQIX
_chemical_formula_moiety         'C35 H32 N4 O2 S1'
_chemical_name_systematic        
"(5S*,4'R*,E)-Methyl 5'-(iso-butylidene)-1,1',3,4-tetraphenyl-2'-thioxo-1,4-dihydrospiro(1,2,4-triazole-5,3'-pyrrolidine)-4'-carboxylate unknown solvate"
_symmetry_cell_setting           monoclinic
_symmetry_space_group_name_H-M   'C 2/c'
_symmetry_Int_Tables_number      15
_space_group_name_Hall           '-C 2yn'
loop_
_symmetry_equiv_pos_site_id
_symmetry_equiv_pos_as_xyz
1 x,y,z
2 -x,y,1/2-z
3 1/2+x,1/2+y,z
4 1/2-x,1/2+y,1/2-z
5 -x,-y,-z
6 x,-y,1/2+z
7 1/2-x,1/2-y,-z
8 1/2+x,1/2-y,1/2+z
_cell_length_a                   31.981(6)
_cell_length_b                   10.008(2)
_cell_length_c                   23.073(5)
_cell_angle_alpha                90
_cell_angle_beta                 123.03(3)
_cell_angle_gamma                90
_cell_volume                     6191.37
_exptl_crystal_colour            yellow
_chemical_melting_point          '187-188 deg.C'
_cell_formula_units_Z            8
_exptl_crystal_recrystallization_method 'ethyl acetate/hexane'
loop_
_atom_site_label
_atom_site_type_symbol
_atom_site_fract_x
_atom_site_fract_y
_atom_site_fract_z
S1 S 0.75175(2) 0.92741(6) 0.76678(4)
O1 O 0.54367(6) 0.85754(17) 0.69547(12)
O2 O 0.53987(6) 0.82110(17) 0.59673(12)
N1 N 0.61716(7) 1.03863(19) 0.59707(13)
N2 N 0.64222(7) 0.91816(18) 0.62848(13)
N3 N 0.63020(7) 1.02855(18) 0.70324(13)
N4 N 0.69546(7) 0.78607(18) 0.79862(13)
C1 C 0.70027(8) 0.8662(2) 0.75579(16)
C2 C 0.64722(8) 0.8968(2) 0.69412(16)
C3 C 0.63964(8) 0.8155(2) 0.58555(16)
C4 C 0.66885(8) 0.7007(2) 0.61391(16)
H1 H 0.6903 0.6916 0.6627
C5 C 0.66651(9) 0.6003(2) 0.57107(17)
H2 H 0.6862 0.5222 0.5908
C6 C 0.63623(9) 0.6118(3) 0.50055(18)
H3 H 0.6346 0.5419 0.4715
C7 C 0.60786(9) 0.7270(3) 0.47205(17)
H4 H 0.5873 0.7366 0.4232
C8 C 0.60928(9) 0.8275(2) 0.51405(16)
H5 H 0.5894 0.9052 0.4940
C9 C 0.61357(8) 1.1005(2) 0.64271(16)
C10 C 0.58853(8) 1.2314(2) 0.62966(16)
C11 C 0.55327(9) 1.2496(2) 0.64681(17)
H6 H 0.5478 1.1812 0.6705
C12 C 0.52623(9) 1.3679(2) 0.62919(18)
H7 H 0.5021 1.3804 0.6405
C13 C 0.53456(9) 1.4672(2) 0.59518(18)
H8 H 0.5159 1.5478 0.5829
C14 C 0.56968(9) 1.4501(2) 0.57902(18)
H9 H 0.5754 1.5194 0.5560
C15 C 0.59682(9) 1.3324(2) 0.59609(18)
H10 H 0.6211 1.3211 0.5848
C16 C 0.65109(8) 1.0898(2) 0.76938(16)
C17 C 0.63449(9) 1.0525(2) 0.81134(17)
H11 H 0.6093 0.9864 0.7960
C18 C 0.65467(10) 1.1116(3) 0.87572(18)
H12 H 0.6435 1.0852 0.9046
C19 C 0.69108(10) 1.2088(3) 0.89798(19)
H13 H 0.7048 1.2496 0.9420
C20 C 0.70734(10) 1.2464(3) 0.8557(2)
H14 H 0.7323 1.3132 0.8709
C21 C 0.68765(9) 1.1877(2) 0.79142(17)
H15 H 0.6990 1.2141 0.7627
C22 C 0.61598(8) 0.7771(2) 0.69710(15)
H16 H 0.6163 0.7013 0.6691
C23 C 0.56268(9) 0.8215(2) 0.66531(18)
C24 C 0.48963(9) 0.8747(3) 0.55738(19)
H17 H 0.4905 0.9703 0.5673
H18 H 0.4690 0.8279 0.5703
H19 H 0.4754 0.8622 0.5079
C25 C 0.64586(8) 0.7374(2) 0.77179(15)
C26 C 0.63471(8) 0.6662(2) 0.81034(16)
H20 H 0.6610 0.6537 0.8573
C27 C 0.58563(9) 0.6029(2) 0.78884(17)
H21 H 0.5617 0.6156 0.7380
C28 C 0.59380(10) 0.4525(2) 0.80489(19)
H22 H 0.6178 0.4395 0.8546
H23 H 0.6068 0.4118 0.7791
H24 H 0.5620 0.4104 0.7912
C29 C 0.56428(10) 0.6681(3) 0.82724(19)
H25 H 0.5577 0.7628 0.8147
H26 H 0.5883 0.6598 0.8772
H27 H 0.5331 0.6234 0.8144
C30 C 0.73670(8) 0.7550(2) 0.86703(15)
C31 C 0.75158(9) 0.8476(2) 0.91885(16)
H28 H 0.7351 0.9314 0.9091
C32 C 0.79067(9) 0.8176(3) 0.98513(17)
H29 H 0.8009 0.8807 1.0213
C33 C 0.81504(9) 0.6955(3) 0.99906(17)
H30 H 0.8421 0.6750 1.0446
C34 C 0.79967(9) 0.6041(3) 0.94632(18)
H31 H 0.8164 0.5208 0.9559
C35 C 0.76041(9) 0.6317(3) 0.87994(17)
H32 H 0.7498 0.5681 0.8439
loop_
_geom_bond_atom_site_label_1
_geom_bond_atom_site_label_2
_geom_bond_site_symmetry_1
_geom_bond_site_symmetry_2
S1 C1 1_555 1_555
O1 C23 1_555 1_555
O2 C23 1_555 1_555
N1 N2 1_555 1_555
N2 C2 1_555 1_555
N3 C2 1_555 1_555
N4 C1 1_555 1_555
C1 C2 1_555 1_555
C2 C22 1_555 1_555
C3 N2 1_555 1_555
C4 C3 1_555 1_555
H1 C4 1_555 1_555
C5 C4 1_555 1_555
H2 C5 1_555 1_555
C6 C5 1_555 1_555
H3 C6 1_555 1_555
C7 C6 1_555 1_555
H4 C7 1_555 1_555
C8 C3 1_555 1_555
H5 C8 1_555 1_555
C9 N1 1_555 1_555
C10 C9 1_555 1_555
C11 C10 1_555 1_555
H6 C11 1_555 1_555
C12 C11 1_555 1_555
H7 C12 1_555 1_555
C13 C12 1_555 1_555
H8 C13 1_555 1_555
C14 C13 1_555 1_555
H9 C14 1_555 1_555
C15 C10 1_555 1_555
H10 C15 1_555 1_555
C16 N3 1_555 1_555
C17 C16 1_555 1_555
H11 C17 1_555 1_555
C18 C17 1_555 1_555
H12 C18 1_555 1_555
C19 C18 1_555 1_555
H13 C19 1_555 1_555
C20 C19 1_555 1_555
H14 C20 1_555 1_555
C21 C16 1_555 1_555
H15 C21 1_555 1_555
C22 H16 1_555 1_555
C23 C22 1_555 1_555
C24 O2 1_555 1_555
H17 C24 1_555 1_555
H18 C24 1_555 1_555
H19 C24 1_555 1_555
C25 N4 1_555 1_555
C26 C25 1_555 1_555
H20 C26 1_555 1_555
C27 C26 1_555 1_555
H21 C27 1_555 1_555
C28 C27 1_555 1_555
H22 C28 1_555 1_555
H23 C28 1_555 1_555
H24 C28 1_555 1_555
C29 C27 1_555 1_555
H25 C29 1_555 1_555
H26 C29 1_555 1_555
H27 C29 1_555 1_555
C30 N4 1_555 1_555
C31 C30 1_555 1_555
H28 C31 1_555 1_555
C32 C31 1_555 1_555
H29 C32 1_555 1_555
C33 C32 1_555 1_555
H30 C33 1_555 1_555
C34 C33 1_555 1_555
H31 C34 1_555 1_555
C35 C30 1_555 1_555
H32 C35 1_555 1_555
N3 C9 1_555 1_555
C7 C8 1_555 1_555
C14 C15 1_555 1_555
C20 C21 1_555 1_555
C22 C25 1_555 1_555
C34 C35 1_555 1_555

#END
