
#######################################################################
#
#                 Cambridge Crystallographic Data Centre
#                                CCDC 
#
#######################################################################
#
# If this CIF has been generated from an entry in the Cambridge 
# Structural Database, then it will include bibliographic, chemical, 
# crystal, experimental, refinement or atomic coordinate data resulting 
# from the CCDC's data processing and validation procedures.
#
#######################################################################

data_PORVAU02
_chemical_formula_moiety         'C6 H8 N1 1+,C6 N4 1-'
_chemical_name_systematic        'N-Methylpyridinium tetracyanoethylenide'
_symmetry_cell_setting           monoclinic
_symmetry_space_group_name_H-M   'P 21/n'
_symmetry_Int_Tables_number      14
_space_group_name_Hall           '-P 2yn'
loop_
_symmetry_equiv_pos_site_id
_symmetry_equiv_pos_as_xyz
1 x,y,z
2 1/2-x,1/2+y,1/2-z
3 -x,-y,-z
4 1/2+x,1/2-y,1/2+z
_cell_length_a                   6.7484(2)
_cell_length_b                   10.0584(3)
_cell_length_c                   16.5583(5)
_cell_angle_alpha                90
_cell_angle_beta                 95.276(1)
_cell_angle_gamma                90
_cell_volume                     1119.18
_exptl_crystal_colour            'dark red'
_exptl_crystal_description       block
_cell_formula_units_Z            4
_chemical_properties_physical    'air- and moisture-sensitive'
_exptl_crystal_recrystallization_method acetonitrile
loop_
_atom_site_label
_atom_site_type_symbol
_atom_site_fract_x
_atom_site_fract_y
_atom_site_fract_z
N1 N 0.08607(13) 0.52837(9) 0.20597(5)
N2 N 0.27470(13) 0.78966(8) 0.01254(5)
N3 N 0.35888(12) 0.46702(8) -0.12548(5)
N4 N 0.21451(13) 0.21246(8) 0.08210(5)
C1 C 0.12764(13) 0.54289(9) 0.14045(6)
C2 C 0.17647(13) 0.55633(9) 0.05913(5)
C3 C 0.22881(13) 0.68548(9) 0.03343(5)
C4 C 0.21660(13) 0.44167(9) 0.01284(5)
C5 C 0.29565(13) 0.45397(8) -0.06340(5)
C6 C 0.21551(13) 0.31365(9) 0.04933(5)
N5 N 0.69405(12) 0.31061(8) 0.26992(5)
C7 C 0.50747(14) 0.35761(9) 0.27145(6)
H1 H 0.4092 0.3369 0.2285
C8 C 0.45851(14) 0.43578(9) 0.33517(6)
H2 H 0.3272 0.4693 0.3363
C9 C 0.60354(15) 0.46488(9) 0.39764(6)
H3 H 0.5720 0.5185 0.4419
C10 C 0.79485(14) 0.41525(9) 0.39510(6)
H4 H 0.8953 0.4342 0.4376
C11 C 0.83688(14) 0.33812(9) 0.33001(6)
H5 H 0.9675 0.3041 0.3275
C12 C 0.74420(16) 0.22490(10) 0.20218(6)
H6 H 0.6321 0.2232 0.1601
H7 H 0.7714 0.1344 0.2222
H8 H 0.8623 0.2602 0.1793
loop_
_geom_bond_atom_site_label_1
_geom_bond_atom_site_label_2
_geom_bond_site_symmetry_1
_geom_bond_site_symmetry_2
N1 C1 1_555 1_555
N2 C3 1_555 1_555
N3 C5 1_555 1_555
N4 C6 1_555 1_555
N5 C7 1_555 1_555
C1 C2 1_555 1_555
C2 C3 1_555 1_555
C4 C2 1_555 1_555
C5 C4 1_555 1_555
C6 C4 1_555 1_555
C7 H1 1_555 1_555
C8 C7 1_555 1_555
H2 C8 1_555 1_555
C9 C8 1_555 1_555
H3 C9 1_555 1_555
C10 C9 1_555 1_555
H4 C10 1_555 1_555
C11 N5 1_555 1_555
H5 C11 1_555 1_555
C12 N5 1_555 1_555
H6 C12 1_555 1_555
H7 C12 1_555 1_555
H8 C12 1_555 1_555
C10 C11 1_555 1_555

#END
