
#######################################################################
#
#                 Cambridge Crystallographic Data Centre
#                                CCDC 
#
#######################################################################
#
# If this CIF has been generated from an entry in the Cambridge 
# Structural Database, then it will include bibliographic, chemical, 
# crystal, experimental, refinement or atomic coordinate data resulting 
# from the CCDC's data processing and validation procedures.
#
#######################################################################

data_PORVAU01
_chemical_formula_moiety         'C6 H8 N1 1+,C6 N4 1-'
_chemical_name_systematic        'N-Methylpyridinium tetracyanoethylenide'
_symmetry_cell_setting           monoclinic
_symmetry_space_group_name_H-M   'P 21/n'
_symmetry_Int_Tables_number      14
_space_group_name_Hall           '-P 2yn'
loop_
_symmetry_equiv_pos_site_id
_symmetry_equiv_pos_as_xyz
1 x,y,z
2 1/2-x,1/2+y,1/2-z
3 -x,-y,-z
4 1/2+x,1/2-y,1/2+z
_cell_length_a                   6.7310(10)
_cell_length_b                   9.9960(20)
_cell_length_c                   16.489(4)
_cell_angle_alpha                90
_cell_angle_beta                 95.235(19)
_cell_angle_gamma                90
_cell_volume                     1104.8
_exptl_crystal_colour            purple
_cell_formula_units_Z            4
_chemical_properties_physical    'air- and moisture-sensitive'
_exptl_crystal_recrystallization_method acetonitrile
loop_
_atom_site_label
_atom_site_type_symbol
_atom_site_fract_x
_atom_site_fract_y
_atom_site_fract_z
N1 N 0.08626(31) 0.52868(19) 0.20636(15)
N2 N 0.27450(29) 0.78942(17) 0.01230(15)
N3 N 0.35942(30) 0.46702(17) -0.12572(15)
N4 N 0.21468(31) 0.21293(18) 0.08246(15)
C1 C 0.1283(4) 0.54314(23) 0.14051(20)
C2 C 0.1777(4) 0.55623(23) 0.05936(20)
C3 C 0.2278(4) 0.68493(23) 0.03351(20)
C4 C 0.2157(4) 0.44103(23) 0.01252(19)
C5 C 0.2946(4) 0.45458(23) -0.06346(20)
C6 C 0.2147(4) 0.31404(23) 0.04936(19)
N5 N 0.69386(28) 0.31022(16) 0.26976(13)
C7 C 0.5081(4) 0.35736(24) 0.27123(21)
C8 C 0.4583(4) 0.43639(23) 0.33485(19)
C9 C 0.6029(4) 0.46460(23) 0.39740(20)
C10 C 0.7955(4) 0.41554(24) 0.39601(21)
C11 C 0.8372(4) 0.33831(24) 0.33015(20)
C12 C 0.7436(5) 0.22503(25) 0.20199(21)
H1 H 0.4053(9) 0.3308(6) 0.2207(5)
H2 H 0.3099(9) 0.4759(6) 0.3336(5)
H3 H 0.5688(10) 0.5309(6) 0.4473(4)
H4 H 0.9136(10) 0.4345(6) 0.4444(4)
H5 H 0.9842(8) 0.2961(6) 0.3230(5)
H6 H 0.7669(14) 0.1263(6) 0.2266(5)
H7 H 0.8707(14) 0.2640(8) 0.1768(7)
H8 H 0.6224(14) 0.2228(8) 0.1553(6)
loop_
_geom_bond_atom_site_label_1
_geom_bond_atom_site_label_2
_geom_bond_site_symmetry_1
_geom_bond_site_symmetry_2
N1 C1 1_555 1_555
N2 C3 1_555 1_555
N3 C5 1_555 1_555
N4 C6 1_555 1_555
N5 C7 1_555 1_555
C1 C2 1_555 1_555
C2 C3 1_555 1_555
C4 C2 1_555 1_555
C5 C4 1_555 1_555
C6 C4 1_555 1_555
C7 C8 1_555 1_555
C8 C9 1_555 1_555
C9 C10 1_555 1_555
C10 C11 1_555 1_555
C11 N5 1_555 1_555
C12 N5 1_555 1_555
H1 C7 1_555 1_555
H2 C8 1_555 1_555
H3 C9 1_555 1_555
H4 C10 1_555 1_555
H5 C11 1_555 1_555
H6 C12 1_555 1_555
H7 C12 1_555 1_555
H8 C12 1_555 1_555

#END
