
#######################################################################
#
#                 Cambridge Crystallographic Data Centre
#                                CCDC 
#
#######################################################################
#
# If this CIF has been generated from an entry in the Cambridge 
# Structural Database, then it will include bibliographic, chemical, 
# crystal, experimental, refinement or atomic coordinate data resulting 
# from the CCDC's data processing and validation procedures.
#
#######################################################################

data_PORWEZ
_chemical_name_common            
2,11-Dithia[3]paracyclo[3](4,4')-2,2'-bipyridinophane
_chemical_formula_moiety         'C20 H18 N2 S2'
_chemical_name_systematic        
4,8-Dithia-1,2(2,4)-dipyridina-6(1,4)-benzenacyclononaphane
_symmetry_cell_setting           triclinic
_symmetry_space_group_name_H-M   'P -1'
_symmetry_Int_Tables_number      2
_space_group_name_Hall           '-P 1'
loop_
_symmetry_equiv_pos_site_id
_symmetry_equiv_pos_as_xyz
1 x,y,z
2 -x,-y,-z
_cell_length_a                   9.2460(5)
_cell_length_b                   9.7313(5)
_cell_length_c                   11.2273(6)
_cell_angle_alpha                110.4990(10)
_cell_angle_beta                 112.7540(10)
_cell_angle_gamma                93.5590(10)
_cell_volume                     849.456
_exptl_crystal_colour            colorless
_exptl_crystal_description       block
_chemical_melting_point          '222-224 deg.C'
_cell_formula_units_Z            2
_exptl_crystal_recrystallization_method toluene
loop_
_atom_site_label
_atom_site_type_symbol
_atom_site_fract_x
_atom_site_fract_y
_atom_site_fract_z
S1 S 0.53700(5) 0.66118(4) 0.17123(4)
S2 S 1.09103(5) 0.78757(4) 0.94705(3)
N1 N 0.60464(12) 0.17693(11) 0.29042(11)
N2 N 0.75928(12) 0.23319(12) 0.57521(11)
C1 C 0.40698(16) 0.53492(16) 0.19434(16)
H1 H 0.3815 0.5940 0.2714
H2 H 0.3056 0.4900 0.1078
C2 C 0.49368(15) 0.15267(14) 0.16195(13)
H3 H 0.4575 0.0537 0.0920
C3 C 0.42834(15) 0.26418(15) 0.12516(13)
H4 H 0.3511 0.2409 0.0325
C4 C 0.47844(14) 0.41062(14) 0.22684(13)
C5 C 0.59414(15) 0.43751(13) 0.36136(13)
H5 H 0.6319 0.5354 0.4332
C6 C 0.65348(14) 0.31907(13) 0.38891(12)
C7 C 0.77491(14) 0.34399(13) 0.53291(12)
C8 C 0.89629(14) 0.47442(13) 0.61531(12)
H6 H 0.9021 0.5493 0.5814
C9 C 1.00944(14) 0.49362(14) 0.74851(13)
C10 C 0.99266(15) 0.37998(15) 0.79275(13)
H7 H 1.0657 0.3884 0.8823
C11 C 0.86721(16) 0.25363(15) 0.70382(14)
H8 H 0.8576 0.1780 0.7360
C12 C 1.14554(15) 0.63086(14) 0.83932(14)
H9 H 1.1798 0.6625 0.7786
H10 H 1.2371 0.6049 0.9014
C13 C 1.09264(17) 0.92039(15) 0.86709(14)
H11 H 1.0924 1.0188 0.9319
H12 H 1.1943 0.9310 0.8593
C14 C 0.95687(15) 0.88333(13) 0.72356(13)
C15 C 0.79762(16) 0.87443(14) 0.70315(14)
H13 H 0.7717 0.8806 0.7777
C16 C 0.67668(15) 0.85660(14) 0.57430(15)
H14 H 0.5702 0.8532 0.5631
C17 C 0.71171(15) 0.84368(13) 0.46151(14)
C18 C 0.86996(16) 0.84666(15) 0.48080(14)
H15 H 0.8949 0.8342 0.4046
C19 C 0.99111(15) 0.86767(14) 0.61003(14)
H16 H 1.0976 0.8714 0.6212
C20 C 0.58351(18) 0.83494(15) 0.32468(15)
H17 H 0.6178 0.9195 0.3061
H18 H 0.4846 0.8475 0.3360
loop_
_geom_bond_atom_site_label_1
_geom_bond_atom_site_label_2
_geom_bond_site_symmetry_1
_geom_bond_site_symmetry_2
S1 C1 1_555 1_555
S2 C12 1_555 1_555
N1 C2 1_555 1_555
N2 C7 1_555 1_555
C1 H1 1_555 1_555
H2 C1 1_555 1_555
C2 H3 1_555 1_555
C3 C2 1_555 1_555
H4 C3 1_555 1_555
C4 C1 1_555 1_555
C5 C4 1_555 1_555
H5 C5 1_555 1_555
C6 N1 1_555 1_555
C7 C6 1_555 1_555
C8 C7 1_555 1_555
H6 C8 1_555 1_555
C9 C8 1_555 1_555
C10 C9 1_555 1_555
H7 C10 1_555 1_555
C11 N2 1_555 1_555
H8 C11 1_555 1_555
C12 C9 1_555 1_555
H9 C12 1_555 1_555
H10 C12 1_555 1_555
C13 S2 1_555 1_555
H11 C13 1_555 1_555
H12 C13 1_555 1_555
C14 C13 1_555 1_555
C15 C14 1_555 1_555
H13 C15 1_555 1_555
C16 C15 1_555 1_555
H14 C16 1_555 1_555
C17 C16 1_555 1_555
C18 C17 1_555 1_555
H15 C18 1_555 1_555
C19 C14 1_555 1_555
H16 C19 1_555 1_555
C20 S1 1_555 1_555
H17 C20 1_555 1_555
H18 C20 1_555 1_555
C3 C4 1_555 1_555
C5 C6 1_555 1_555
C10 C11 1_555 1_555
C17 C20 1_555 1_555
C18 C19 1_555 1_555

#END
