
#######################################################################
#
#                 Cambridge Crystallographic Data Centre
#                                CCDC 
#
#######################################################################
#
# If this CIF has been generated from an entry in the Cambridge 
# Structural Database, then it will include bibliographic, chemical, 
# crystal, experimental, refinement or atomic coordinate data resulting 
# from the CCDC's data processing and validation procedures.
#
#######################################################################

data_POSBIK
_chemical_formula_moiety         'C13 H17 Br2 N1 O3 S1'
_chemical_name_systematic        
2-(dibromomethyl)-2-methoxy-1-((4-methylphenyl)sulfonyl)pyrrolidine
_symmetry_cell_setting           triclinic
_symmetry_space_group_name_H-M   'P -1'
_symmetry_Int_Tables_number      2
_space_group_name_Hall           '-P 1'
loop_
_symmetry_equiv_pos_site_id
_symmetry_equiv_pos_as_xyz
1 x,y,z
2 -x,-y,-z
_cell_length_a                   7.6102(14)
_cell_length_b                   8.0966(15)
_cell_length_c                   14.119(3)
_cell_angle_alpha                104.652(4)
_cell_angle_beta                 101.647(4)
_cell_angle_gamma                98.713(3)
_cell_volume                     805.292
_cell_formula_units_Z            2
loop_
_atom_site_label
_atom_site_type_symbol
_atom_site_fract_x
_atom_site_fract_y
_atom_site_fract_z
Br1 Br 0.20821(6) 0.14183(6) 0.07970(3)
Br2 Br 0.59023(7) 0.31648(6) 0.23389(4)
S1 S 0.07229(13) -0.19330(12) 0.21389(9)
O1 O -0.0840(4) -0.2896(4) 0.1334(3)
O2 O 0.0709(4) -0.0228(4) 0.2735(3)
O3 O 0.4962(4) -0.0127(4) 0.3047(2)
N1 N 0.2458(4) -0.1788(4) 0.1644(3)
C1 C 0.2247(9) -0.6387(8) 0.4931(4)
H1 H 0.1719 -0.7591 0.4564
H2 H 0.1731 -0.6050 0.5500
H3 H 0.3553 -0.6236 0.5166
C2 C 0.1835(6) -0.5259(6) 0.4244(4)
C3 C 0.0834(6) -0.5996(5) 0.3261(4)
H4 H 0.0387 -0.7199 0.3022
C4 C 0.0475(5) -0.4991(5) 0.2618(4)
H5 H -0.0207 -0.5510 0.1954
C5 C 0.1137(5) -0.3212(5) 0.2973(3)
C6 C 0.2106(7) -0.2435(5) 0.3960(4)
H6 H 0.2529 -0.1230 0.4199
C7 C 0.2445(7) -0.3460(6) 0.4592(4)
H7 H 0.3094 -0.2936 0.5263
C8 C 0.2532(7) -0.3204(6) 0.0775(4)
H8 H 0.1805 -0.3112 0.0149
H9 H 0.2091 -0.4338 0.0852
C9 C 0.4530(7) -0.2931(6) 0.0791(4)
H10 H 0.4695 -0.3305 0.0112
H11 H 0.5152 -0.3576 0.1196
C10 C 0.5259(6) -0.0980(6) 0.1259(4)
H12 H 0.5111 -0.0382 0.0743
H13 H 0.6552 -0.0735 0.1600
C11 C 0.4133(5) -0.0378(5) 0.2018(3)
C12 C 0.6007(8) -0.1351(8) 0.3284(4)
H14 H 0.6498 -0.1037 0.4003
H15 H 0.6996 -0.1343 0.2957
H16 H 0.5231 -0.2499 0.3053
C13 C 0.3668(5) 0.1414(5) 0.2041(3)
H17 H 0.3048 0.1743 0.2584
loop_
_geom_bond_atom_site_label_1
_geom_bond_atom_site_label_2
_geom_bond_site_symmetry_1
_geom_bond_site_symmetry_2
Br1 C13 1_555 1_555
Br2 C13 1_555 1_555
S1 O1 1_555 1_555
O2 S1 1_555 1_555
O3 C11 1_555 1_555
N1 S1 1_555 1_555
C1 H1 1_555 1_555
H2 C1 1_555 1_555
H3 C1 1_555 1_555
C2 C1 1_555 1_555
C3 C2 1_555 1_555
H4 C3 1_555 1_555
C4 C3 1_555 1_555
H5 C4 1_555 1_555
C5 S1 1_555 1_555
C6 C5 1_555 1_555
H6 C6 1_555 1_555
C7 C2 1_555 1_555
H7 C7 1_555 1_555
C8 N1 1_555 1_555
H8 C8 1_555 1_555
H9 C8 1_555 1_555
C9 C8 1_555 1_555
H10 C9 1_555 1_555
H11 C9 1_555 1_555
C10 C9 1_555 1_555
H12 C10 1_555 1_555
H13 C10 1_555 1_555
C11 N1 1_555 1_555
C12 O3 1_555 1_555
H14 C12 1_555 1_555
H15 C12 1_555 1_555
H16 C12 1_555 1_555
C13 C11 1_555 1_555
H17 C13 1_555 1_555
C4 C5 1_555 1_555
C6 C7 1_555 1_555
C10 C11 1_555 1_555

#END
