
#######################################################################
#
#                 Cambridge Crystallographic Data Centre
#                                CCDC 
#
#######################################################################
#
# If this CIF has been generated from an entry in the Cambridge 
# Structural Database, then it will include bibliographic, chemical, 
# crystal, experimental, refinement or atomic coordinate data resulting 
# from the CCDC's data processing and validation procedures.
#
#######################################################################

data_POSBOQ
_chemical_formula_moiety         'C14 H14 N2 O2'
_chemical_name_systematic        
3-((benzylamino)methylene)-6-methylpyridine-2,4(1H,3H)-dione
_symmetry_cell_setting           triclinic
_symmetry_space_group_name_H-M   'P -1'
_symmetry_Int_Tables_number      2
_space_group_name_Hall           '-P 1'
loop_
_symmetry_equiv_pos_site_id
_symmetry_equiv_pos_as_xyz
1 x,y,z
2 -x,-y,-z
_cell_length_a                   7.7652(13)
_cell_length_b                   9.3023(13)
_cell_length_c                   9.9484(14)
_cell_angle_alpha                66.064(7)
_cell_angle_beta                 68.189(7)
_cell_angle_gamma                75.276(7)
_cell_volume                     605.249
_exptl_crystal_colour            colorless
_exptl_crystal_description       plate
_cell_formula_units_Z            2
loop_
_atom_site_label
_atom_site_type_symbol
_atom_site_fract_x
_atom_site_fract_y
_atom_site_fract_z
N1 N 0.9408(3) 0.2946(2) 0.5809(2)
H1 H 1.008(4) 0.343(3) 0.591(3)
C1 C 0.8331(3) 0.3695(2) 0.4848(3)
C2 C 0.7205(3) 0.2725(2) 0.4769(2)
C3 C 0.7312(3) 0.1037(3) 0.5618(3)
C4 C 0.8511(3) 0.0410(3) 0.6571(3)
H2 H 0.8591 -0.0688 0.7167
C5 C 0.9540(3) 0.1336(3) 0.6650(3)
C6 C 0.6026(3) 0.3499(3) 0.3862(3)
H3 H 0.6025 0.4614 0.3376
N2 N 0.4918(3) 0.2867(2) 0.3600(2)
H4 H 0.487(3) 0.188(3) 0.407(3)
C7 C 0.3621(3) 0.3794(3) 0.2725(3)
H5 H 0.3845 0.4918 0.2284
H6 H 0.2330 0.3728 0.3439
C8 C 0.3779(3) 0.3264(2) 0.1435(3)
C9 C 0.2292(4) 0.3714(3) 0.0833(3)
H7 H 0.1207 0.4340 0.1241
C10 C 0.2377(4) 0.3258(3) -0.0362(3)
H8 H 0.1356 0.3577 -0.0769
C11 C 0.3951(4) 0.2338(3) -0.0958(3)
H9 H 0.4013 0.2016 -0.1768
C12 C 0.5420(4) 0.1896(3) -0.0365(3)
H10 H 0.6502 0.1267 -0.0772
C13 C 0.5352(3) 0.2354(3) 0.0818(3)
H11 H 0.6387 0.2044 0.1208
C14 C 1.0828(4) 0.0770(3) 0.7595(3)
H12 H 1.0828 -0.0374 0.8144
H13 H 1.0414 0.1315 0.8344
H14 H 1.2094 0.0996 0.6923
O1 O 0.8367(2) 0.51527(17) 0.40892(19)
O2 O 0.6367(2) 0.01907(17) 0.55181(18)
loop_
_geom_bond_atom_site_label_1
_geom_bond_atom_site_label_2
_geom_bond_site_symmetry_1
_geom_bond_site_symmetry_2
N1 H1 1_555 1_555
C1 N1 1_555 1_555
C2 C1 1_555 1_555
C3 C2 1_555 1_555
C4 C3 1_555 1_555
H2 C4 1_555 1_555
C5 N1 1_555 1_555
C6 C2 1_555 1_555
H3 C6 1_555 1_555
N2 C6 1_555 1_555
H4 N2 1_555 1_555
C7 N2 1_555 1_555
H5 C7 1_555 1_555
H6 C7 1_555 1_555
C8 C7 1_555 1_555
C9 C8 1_555 1_555
H7 C9 1_555 1_555
C10 C9 1_555 1_555
H8 C10 1_555 1_555
C11 C10 1_555 1_555
H9 C11 1_555 1_555
C12 C11 1_555 1_555
H10 C12 1_555 1_555
C13 C8 1_555 1_555
H11 C13 1_555 1_555
C14 C5 1_555 1_555
H12 C14 1_555 1_555
H13 C14 1_555 1_555
H14 C14 1_555 1_555
O1 C1 1_555 1_555
O2 C3 1_555 1_555
C4 C5 1_555 1_555
C12 C13 1_555 1_555

#END
