
#######################################################################
#
#                 Cambridge Crystallographic Data Centre
#                                CCDC 
#
#######################################################################
#
# If this CIF has been generated from an entry in the Cambridge 
# Structural Database, then it will include bibliographic, chemical, 
# crystal, experimental, refinement or atomic coordinate data resulting 
# from the CCDC's data processing and validation procedures.
#
#######################################################################

data_POSCAD
_chemical_formula_moiety         'C12 H13 N1 O3'
_chemical_name_systematic        
3-methyl-8,9,9a,10-tetrahydro-1H,5aH-pyrano[4,3-b][1,4]benzoxazin-1-one
_symmetry_cell_setting           monoclinic
_symmetry_space_group_name_H-M   'P 21/c'
_symmetry_Int_Tables_number      14
_space_group_name_Hall           '-P 2ybc'
loop_
_symmetry_equiv_pos_site_id
_symmetry_equiv_pos_as_xyz
1 x,y,z
2 -x,1/2+y,1/2-z
3 -x,-y,-z
4 x,1/2-y,1/2+z
_cell_length_a                   7.8788(5)
_cell_length_b                   6.4991(4)
_cell_length_c                   20.6572(13)
_cell_angle_alpha                90
_cell_angle_beta                 100.991(2)
_cell_angle_gamma                90
_cell_volume                     1038.35
_exptl_crystal_colour            yellow
_exptl_crystal_description       prism
_cell_formula_units_Z            4
loop_
_atom_site_label
_atom_site_type_symbol
_atom_site_fract_x
_atom_site_fract_y
_atom_site_fract_z
C1 C 0.16737(19) 0.6844(2) 0.47525(6)
O1 O 0.22938(14) 0.52599(16) 0.44219(5)
C2 C 0.30545(19) 0.3527(2) 0.47333(7)
C3 C 0.3208(2) 0.3311(2) 0.53907(7)
H1 H 0.3722 0.2110 0.5606
C4 C 0.25897(19) 0.4908(2) 0.57596(6)
C5 C 0.1919(2) 0.5524(2) 0.74391(7)
H2 H 0.1744 0.4199 0.7609
C6 C 0.2528(2) 0.7014(2) 0.78630(7)
H3 H 0.2703 0.6718 0.8321
C7 C 0.2951(2) 0.9136(2) 0.76557(7)
H4 H 0.4070 0.9579 0.7923
H5 H 0.2050 1.0108 0.7740
C8 C 0.3060(2) 0.9211(2) 0.69237(7)
H6 H 0.3085 1.0661 0.6779
H7 H 0.4140 0.8536 0.6856
C9 C 0.1505(2) 0.8117(2) 0.65155(6)
H8 H 0.0439 0.8761 0.6622
N1 N 0.1418(2) 0.8322(2) 0.58055(6)
H9 H 0.063(3) 0.910(4) 0.5622(11)
C10 C 0.18817(18) 0.6670(2) 0.54580(6)
O2 O 0.27762(15) 0.46705(16) 0.64258(5)
C11 C 0.1497(2) 0.5837(2) 0.67064(7)
H10 H 0.0323 0.5256 0.6533
C12 C 0.3589(2) 0.2063(2) 0.42547(8)
H11 H 0.4125 0.0849 0.4491
H12 H 0.4423 0.2736 0.4027
H13 H 0.2572 0.1642 0.3931
O3 O 0.10100(17) 0.82993(18) 0.44221(5)
loop_
_geom_bond_atom_site_label_1
_geom_bond_atom_site_label_2
_geom_bond_site_symmetry_1
_geom_bond_site_symmetry_2
C1 O1 1_555 1_555
O1 C2 1_555 1_555
C2 C3 1_555 1_555
C3 H1 1_555 1_555
C4 C3 1_555 1_555
C5 H2 1_555 1_555
C6 C5 1_555 1_555
H3 C6 1_555 1_555
C7 C6 1_555 1_555
H4 C7 1_555 1_555
H5 C7 1_555 1_555
C8 C7 1_555 1_555
H6 C8 1_555 1_555
H7 C8 1_555 1_555
C9 C8 1_555 1_555
H8 C9 1_555 1_555
N1 C9 1_555 1_555
H9 N1 1_555 1_555
C10 C1 1_555 1_555
O2 C4 1_555 1_555
C11 C5 1_555 1_555
H10 C11 1_555 1_555
C12 C2 1_555 1_555
H11 C12 1_555 1_555
H12 C12 1_555 1_555
H13 C12 1_555 1_555
O3 C1 1_555 1_555
C4 C10 1_555 1_555
C9 C11 1_555 1_555
N1 C10 1_555 1_555
O2 C11 1_555 1_555

#END
