
#######################################################################
#
#                 Cambridge Crystallographic Data Centre
#                                CCDC 
#
#######################################################################
#
# If this CIF has been generated from an entry in the Cambridge 
# Structural Database, then it will include bibliographic, chemical, 
# crystal, experimental, refinement or atomic coordinate data resulting 
# from the CCDC's data processing and validation procedures.
#
#######################################################################

data_POSSEV
_chemical_formula_moiety         'C27 H26 N2 O4 S1'
_chemical_name_systematic        
'2-((2-Butyl-1-((4-carboxynaphthyl)methyl)-1H-imidazol-5-yl) methylene)-3-(2-thienyl)-propanoic acid'
_symmetry_cell_setting           orthorhombic
_symmetry_space_group_name_H-M   'P b c a'
_symmetry_Int_Tables_number      61
_space_group_name_Hall           '-P 2ac 2ab'
loop_
_symmetry_equiv_pos_site_id
_symmetry_equiv_pos_as_xyz
1 x,y,z
2 1/2-x,-y,1/2+z
3 1/2+x,1/2-y,-z
4 -x,1/2+y,1/2-z
5 -x,-y,-z
6 1/2+x,y,1/2-z
7 1/2-x,1/2+y,z
8 x,1/2-y,1/2+z
_cell_length_a                   13.989
_cell_length_b                   15.686
_cell_length_c                   21.769
_cell_angle_alpha                90
_cell_angle_beta                 90
_cell_angle_gamma                90
_cell_volume                     4776.8
_cell_formula_units_Z            8
loop_
_atom_site_label
_atom_site_type_symbol
_atom_site_fract_x
_atom_site_fract_y
_atom_site_fract_z
S1 S 0.8669(1) 0.4292(1) -0.0719(1)
O1 O 0.9082(2) 0.1812(2) 0.0361(1)
O2 O 0.7746(2) 0.1526(2) -0.0147(1)
O3 O 0.7035(3) 0.3467(2) 0.3760(1)
O4 O 0.6379(3) 0.2202(2) 0.3903(2)
N1 N 0.5619(3) 0.3870(2) 0.0752(1)
N2 N 0.5952(3) 0.5175(2) 0.0510(1)
C1 C 0.5508(3) 0.3039(2) 0.1716(2)
C2 C 0.6360(4) 0.3385(3) 0.1906(2)
C3 C 0.6664(3) 0.3322(3) 0.2518(2)
C4 C 0.6119(3) 0.2907(3) 0.2949(2)
C5 C 0.5227(3) 0.2544(3) 0.2774(2)
C6 C 0.4606(4) 0.2156(3) 0.3204(2)
C7 C 0.3741(4) 0.1834(3) 0.3020(2)
C8 C 0.3463(4) 0.1871(3) 0.2410(2)
C9 C 0.4040(3) 0.2246(3) 0.1984(2)
C10 C 0.4927(3) 0.2608(2) 0.2150(2)
C11 C 0.6503(4) 0.2827(3) 0.3586(2)
C12 C 0.5306(3) 0.4685(2) 0.0790(2)
C13 C 0.6692(3) 0.4679(2) 0.0298(2)
C14 C 0.6494(3) 0.3850(2) 0.0443(2)
C15 C 0.6985(3) 0.3052(2) 0.0306(2)
C16 C 0.5155(3) 0.3152(2) 0.1059(2)
C17 C 0.9206(3) 0.3869(3) -0.0090(2)
C18 C 1.0133(9) 0.3905(10) -0.0192(6)
C19 C 1.0479(5) 0.4252(3) -0.0746(3)
C20 C 0.9704(5) 0.4481(4) -0.1076(3)
C21 C 0.8680(3) 0.3562(2) 0.0463(2)
C22 C 0.7933(3) 0.2914(2) 0.0301(2)
C23 C 0.8272(4) 0.2022(3) 0.0149(2)
C24 C 0.4404(3) 0.4982(3) 0.1072(2)
C25 C 0.4384(4) 0.4966(3) 0.1774(2)
C26 C 0.3430(4) 0.5243(3) 0.2024(2)
C27 C 0.3398(4) 0.5238(4) 0.2717(2)
H1 H 0.7323(3) 0.3405(2) 0.4176(1)
H2 H 0.5835(3) 0.5747(2) 0.0413(1)
H3 H 0.6743(4) 0.3672(3) 0.1624(2)
H4 H 0.7245(3) 0.3564(3) 0.2634(2)
H5 H 0.4785(4) 0.2122(3) 0.3615(2)
H6 H 0.3333(4) 0.1590(3) 0.3309(2)
H7 H 0.2881(4) 0.1635(3) 0.2290(2)
H8 H 0.3844(3) 0.2266(3) 0.1576(2)
H9 H 0.7232(3) 0.4874(2) 0.0091(2)
H10 H 0.6597(3) 0.2589(2) 0.0210(2)
H11 H 0.4467(3) 0.3240(2) 0.1064(2)
H12 H 0.5283(3) 0.2635(2) 0.0829(2)
H13 H 1.0834(9) 0.3633(10) 0.0162(6)
H14 H 1.1106(5) 0.4313(3) -0.0883(3)
H15 H 0.9754(5) 0.4722(4) -0.1465(3)
H16 H 0.8373(3) 0.4046(2) 0.0658(2)
H17 H 0.9123(3) 0.3315(2) 0.0756(2)
H18 H 0.4285(3) 0.5561(3) 0.0936(2)
H19 H 0.3884(3) 0.4631(3) 0.0919(2)
H20 H 0.4883(4) 0.5337(3) 0.1932(2)
H21 H 0.4517(4) 0.4392(3) 0.1915(2)
H22 H 0.3295(4) 0.5815(3) 0.1877(2)
H23 H 0.2934(4) 0.4868(3) 0.1867(2)
H24 H 0.2754(4) 0.5349(4) 0.2851(2)
H25 H 0.3600(4) 0.4691(4) 0.2866(2)
H26 H 0.3817(4) 0.5671(4) 0.2873(2)
S2? S 1.0402(8) 0.3860(15) -0.0040(6)
loop_
_geom_bond_atom_site_label_1
_geom_bond_atom_site_label_2
_geom_bond_site_symmetry_1
_geom_bond_site_symmetry_2
S1 C17 1_555 1_555
O1 C23 1_555 1_555
O2 C23 1_555 1_555
O3 C11 1_555 1_555
O4 C11 1_555 1_555
N1 C12 1_555 1_555
N2 C12 1_555 1_555
C1 C2 1_555 1_555
C2 C3 1_555 1_555
C3 C4 1_555 1_555
C4 C5 1_555 1_555
C5 C6 1_555 1_555
C6 C7 1_555 1_555
C7 C8 1_555 1_555
C8 C9 1_555 1_555
C9 C10 1_555 1_555
C10 C1 1_555 1_555
C11 C4 1_555 1_555
C12 C24 1_555 1_555
C13 N2 1_555 1_555
C14 N1 1_555 1_555
C15 C14 1_555 1_555
C16 N1 1_555 1_555
C17 C18 1_555 1_555
C18 C19 1_555 1_555
C19 C20 1_555 1_555
C20 S1 1_555 1_555
C21 C17 1_555 1_555
C22 C15 1_555 1_555
C23 C22 1_555 1_555
C24 C25 1_555 1_555
C25 C26 1_555 1_555
C26 C27 1_555 1_555
C27 H24 1_555 1_555
H1 O3 1_555 1_555
H2 N2 1_555 1_555
H3 C2 1_555 1_555
H4 C3 1_555 1_555
H5 C6 1_555 1_555
H6 C7 1_555 1_555
H7 C8 1_555 1_555
H8 C9 1_555 1_555
H9 C13 1_555 1_555
H10 C15 1_555 1_555
H11 C16 1_555 1_555
H12 C16 1_555 1_555
H13 C18 1_555 1_555
H14 C19 1_555 1_555
H15 C20 1_555 1_555
H16 C21 1_555 1_555
H17 C21 1_555 1_555
H18 C24 1_555 1_555
H19 C24 1_555 1_555
H20 C25 1_555 1_555
H21 C25 1_555 1_555
H22 C26 1_555 1_555
H23 C26 1_555 1_555
H25 C27 1_555 1_555
H26 C27 1_555 1_555
C1 C16 1_555 1_555
C5 C10 1_555 1_555
C13 C14 1_555 1_555
C21 C22 1_555 1_555

#END
