
#######################################################################
#
#                 Cambridge Crystallographic Data Centre
#                                CCDC 
#
#######################################################################
#
# If this CIF has been generated from an entry in the Cambridge 
# Structural Database, then it will include bibliographic, chemical, 
# crystal, experimental, refinement or atomic coordinate data resulting 
# from the CCDC's data processing and validation procedures.
#
#######################################################################

data_POSXUS
_chemical_formula_moiety         'C20 H18 Br1 N1 O2'
_chemical_name_systematic        
'ethyl ((4-bromophenyl)amino)(2-naphthyl)acetate'
_symmetry_cell_setting           monoclinic
_symmetry_space_group_name_H-M   'P 21'
_symmetry_Int_Tables_number      4
_space_group_name_Hall           'P 2yb'
loop_
_symmetry_equiv_pos_site_id
_symmetry_equiv_pos_as_xyz
1 x,y,z
2 -x,1/2+y,-z
_cell_length_a                   9.6683(3)
_cell_length_b                   5.72898(13)
_cell_length_c                   16.9335(5)
_cell_angle_alpha                90
_cell_angle_beta                 104.603(3)
_cell_angle_gamma                90
_cell_volume                     907.639
_exptl_crystal_colour            colorless
_exptl_crystal_description       block
_cell_formula_units_Z            2
loop_
_atom_site_label
_atom_site_type_symbol
_atom_site_fract_x
_atom_site_fract_y
_atom_site_fract_z
Br1 Br 0.61901(5) -0.17966(10) 0.49078(3)
O1 O 1.2197(5) 0.6966(8) 0.3179(3)
O2 O 1.3184(4) 0.3932(8) 0.2702(3)
N1 N 1.0149(5) 0.4177(7) 0.3491(2)
H1 H 1.0229 0.5626 0.3627
C1 C 1.0026(4) 0.3121(11) 0.2059(2)
C2 C 0.8998(5) 0.4705(9) 0.1749(3)
H2 H 0.8841 0.5926 0.2079
C3 C 0.8145(6) 0.4551(10) 0.0929(3)
C4 C 0.7054(8) 0.6182(13) 0.0605(4)
H3 H 0.6874 0.7398 0.0929
C5 C 0.6264(9) 0.598(2) -0.0183(5)
H4 H 0.5552 0.7061 -0.0396
C6 C 0.6520(10) 0.4148(16) -0.0669(4)
H5 H 0.5975 0.4033 -0.1205
C7 C 0.7536(8) 0.2547(14) -0.0381(4)
H6 H 0.7683 0.1339 -0.0718
C8 C 0.8392(6) 0.2689(10) 0.0439(3)
C9 C 0.9476(8) 0.1075(12) 0.0772(4)
H7 H 0.9647 -0.0158 0.0452
C10 C 1.0284(7) 0.1281(10) 0.1554(3)
H8 H 1.1008 0.0209 0.1758
C11 C 1.0933(4) 0.3301(11) 0.2938(2)
H9 H 1.1317 0.1756 0.3122
C12 C 0.9271(4) 0.2765(7) 0.3810(2)
C13 C 0.8818(5) 0.0568(8) 0.3481(3)
H10 H 0.9136 0.0003 0.3043
C14 C 0.7906(5) -0.0762(8) 0.3802(3)
H11 H 0.7613 -0.2221 0.3582
C15 C 0.7428(5) 0.0066(8) 0.4451(3)
C16 C 0.7853(5) 0.2235(8) 0.4789(3)
H12 H 0.7518 0.2798 0.5222
C17 C 0.8777(5) 0.3535(8) 0.4473(2)
H13 H 0.9085 0.4974 0.4707
C18 C 1.2169(6) 0.4972(10) 0.2962(3)
C19 C 1.4460(8) 0.534(2) 0.2731(5)
H14 H 1.4210 0.6722 0.2392
H15 H 1.4892 0.5840 0.3286
C20 C 1.5435(8) 0.391(2) 0.2434(7)
H16 H 1.4991 0.3415 0.1887
H17 H 1.5681 0.2559 0.2779
H18 H 1.6284 0.4780 0.2439
loop_
_geom_bond_atom_site_label_1
_geom_bond_atom_site_label_2
_geom_bond_site_symmetry_1
_geom_bond_site_symmetry_2
Br1 C15 1_555 1_555
O1 C18 1_555 1_555
O2 C18 1_555 1_555
N1 H1 1_555 1_555
C1 C2 1_555 1_555
C2 H2 1_555 1_555
C3 C2 1_555 1_555
C4 C3 1_555 1_555
H3 C4 1_555 1_555
C5 C4 1_555 1_555
H4 C5 1_555 1_555
C6 C5 1_555 1_555
H5 C6 1_555 1_555
C7 C6 1_555 1_555
H6 C7 1_555 1_555
C8 C3 1_555 1_555
C9 C8 1_555 1_555
H7 C9 1_555 1_555
C10 C1 1_555 1_555
H8 C10 1_555 1_555
C11 N1 1_555 1_555
H9 C11 1_555 1_555
C12 N1 1_555 1_555
C13 C12 1_555 1_555
H10 C13 1_555 1_555
C14 C13 1_555 1_555
H11 C14 1_555 1_555
C15 C14 1_555 1_555
C16 C15 1_555 1_555
H12 C16 1_555 1_555
C17 C12 1_555 1_555
H13 C17 1_555 1_555
C18 C11 1_555 1_555
C19 O2 1_555 1_555
H14 C19 1_555 1_555
H15 C19 1_555 1_555
C20 C19 1_555 1_555
H16 C20 1_555 1_555
H17 C20 1_555 1_555
H18 C20 1_555 1_555
C1 C11 1_555 1_555
C7 C8 1_555 1_555
C9 C10 1_555 1_555
C16 C17 1_555 1_555

#END
