
#######################################################################
#
#                 Cambridge Crystallographic Data Centre
#                                CCDC 
#
#######################################################################
#
# If this CIF has been generated from an entry in the Cambridge 
# Structural Database, then it will include bibliographic, chemical, 
# crystal, experimental, refinement or atomic coordinate data resulting 
# from the CCDC's data processing and validation procedures.
#
#######################################################################

data_POSZEE
_chemical_formula_moiety         'C15 H16 N2 O3 S1'
_chemical_name_systematic        
3-Acetyl-6-amino-1-(4-methoxyphenyl)-5-(methylthio)pyridin-2(1H)-one
_symmetry_cell_setting           orthorhombic
_symmetry_space_group_name_H-M   'P c c n'
_symmetry_Int_Tables_number      56
_space_group_name_Hall           '-P 2ab 2ac'
loop_
_symmetry_equiv_pos_site_id
_symmetry_equiv_pos_as_xyz
1 x,y,z
2 1/2-x,1/2-y,z
3 -x,1/2+y,1/2-z
4 1/2+x,-y,1/2-z
5 -x,-y,-z
6 1/2+x,1/2+y,-z
7 x,1/2-y,1/2+z
8 1/2-x,y,1/2+z
_cell_length_a                   18.8609(15)
_cell_length_b                   9.2843(8)
_cell_length_c                   16.5808(14)
_cell_angle_alpha                90
_cell_angle_beta                 90
_cell_angle_gamma                90
_cell_volume                     2903.47
_exptl_crystal_colour            white
_chemical_melting_point          '238-240 deg.C'
_cell_formula_units_Z            8
loop_
_atom_site_label
_atom_site_type_symbol
_atom_site_fract_x
_atom_site_fract_y
_atom_site_fract_z
S1 S 0.67545(3) 0.07042(7) 0.27447(4)
O1 O 1.12045(8) 0.05437(18) 0.46269(10)
N1 N 0.88808(9) 0.05922(19) 0.25405(10)
O2 O 0.96505(8) 0.06297(18) 0.14858(9)
C1 C 1.06392(11) 0.0642(3) 0.41120(13)
C2 C 0.84054(12) 0.0620(2) 0.11809(13)
C3 C 1.03358(12) -0.0657(3) 0.38818(14)
H1 H 1.0521 -0.1518 0.4076
C4 C 0.94925(11) 0.0608(2) 0.30733(12)
O3 O 0.78902(9) 0.0429(2) -0.00913(10)
N2 N 0.81506(11) 0.0603(2) 0.36706(12)
C5 C 0.76216(11) 0.0591(2) 0.23538(13)
C6 C 0.90258(11) 0.0625(2) 0.16906(13)
C7 C 0.84354(13) 0.0630(3) 0.02973(14)
C8 C 0.97610(12) -0.0677(3) 0.33656(14)
H2 H 0.9556 -0.1548 0.3216
C9 C 0.82147(11) 0.0600(2) 0.28733(12)
C10 C 0.77413(12) 0.0597(2) 0.15344(13)
H3 H 0.7349 0.0585 0.1195
C11 C 1.03705(11) 0.1924(3) 0.38133(13)
H4 H 1.0574 0.2797 0.3962
C12 C 0.97937(11) 0.1898(3) 0.32882(13)
H5 H 0.9613 0.2755 0.3083
C13 C 0.91118(13) 0.0861(3) -0.01483(14)
H6 H 0.9384 -0.0012 -0.0145
H7 H 0.9378 0.1615 0.0107
H8 H 0.9009 0.1130 -0.0695
C14 C 0.65463(15) -0.1141(3) 0.29671(17)
H9 H 0.6626 -0.1720 0.2496
H10 H 0.6058 -0.1213 0.3126
H11 H 0.6844 -0.1475 0.3398
C15 C 1.15514(13) 0.1857(3) 0.48315(17)
H12 H 1.1701 0.2336 0.4348
H13 H 1.1957 0.1653 0.5162
H14 H 1.1229 0.2466 0.5123
H15 H 0.7737(14) 0.071(3) 0.3901(16)
H16 H 0.8527(16) 0.070(3) 0.3981(19)
loop_
_geom_bond_atom_site_label_1
_geom_bond_atom_site_label_2
_geom_bond_site_symmetry_1
_geom_bond_site_symmetry_2
S1 C5 1_555 1_555
O1 C1 1_555 1_555
N1 C4 1_555 1_555
O2 C6 1_555 1_555
C1 C3 1_555 1_555
C2 C6 1_555 1_555
C3 H1 1_555 1_555
C4 C8 1_555 1_555
O3 C7 1_555 1_555
N2 C9 1_555 1_555
C5 C9 1_555 1_555
C6 N1 1_555 1_555
C7 C2 1_555 1_555
C8 C3 1_555 1_555
H2 C8 1_555 1_555
C9 N1 1_555 1_555
C10 C2 1_555 1_555
H3 C10 1_555 1_555
C11 C1 1_555 1_555
H4 C11 1_555 1_555
C12 C4 1_555 1_555
H5 C12 1_555 1_555
C13 C7 1_555 1_555
H6 C13 1_555 1_555
H7 C13 1_555 1_555
H8 C13 1_555 1_555
C14 S1 1_555 1_555
H9 C14 1_555 1_555
H10 C14 1_555 1_555
H11 C14 1_555 1_555
C15 O1 1_555 1_555
H12 C15 1_555 1_555
H13 C15 1_555 1_555
H14 C15 1_555 1_555
H15 N2 1_555 1_555
H16 N2 1_555 1_555
C5 C10 1_555 1_555
C11 C12 1_555 1_555

#END
