
#######################################################################
#
#                 Cambridge Crystallographic Data Centre
#                                CCDC 
#
#######################################################################
#
# If this CIF has been generated from an entry in the Cambridge 
# Structural Database, then it will include bibliographic, chemical, 
# crystal, experimental, refinement or atomic coordinate data resulting 
# from the CCDC's data processing and validation procedures.
#
#######################################################################

data_POTBEG
_chemical_name_common            
'5,11,17,23-tetra-t-butyl-25,27-(2,13-dioxo-3,6,9,12-tetraazatetradecane-1,14-diolate)-26,28-dihydroxycalix(4)arene methanol solvate'
_chemical_formula_moiety         'C54 H74 N4 O6,4(C1 H4 O1)'
_chemical_name_systematic        
'43,44-Dihydroxy-22,28,34,39-tetra-t-butyl-3,18-dioxa-6,9,12,15-tetraazahexacyclo[18.15.7.1^26,30^.1^37,41^.0^2,32^.0^19,24^]tetratetraconta-1,19,21,23,26(44),27,29,32,34,37(43),38,40-dodecaene-5,16-dione methanol solvate'
_symmetry_cell_setting           monoclinic
_symmetry_space_group_name_H-M   'P 21/c'
_symmetry_Int_Tables_number      14
_space_group_name_Hall           '-P 2ybc'
loop_
_symmetry_equiv_pos_site_id
_symmetry_equiv_pos_as_xyz
1 x,y,z
2 -x,1/2+y,1/2-z
3 -x,-y,-z
4 x,1/2-y,1/2+z
_cell_length_a                   20.0233(9)
_cell_length_b                   13.8942(5)
_cell_length_c                   20.7549(8)
_cell_angle_alpha                90
_cell_angle_beta                 94.749(3)
_cell_angle_gamma                90
_cell_volume                     5754.35
_exptl_crystal_colour            colorless
_exptl_crystal_description       parallelepiped
_chemical_melting_point          '238-239 deg.C'
_cell_formula_units_Z            4
_exptl_crystal_recrystallization_method methanol
loop_
_atom_site_label
_atom_site_type_symbol
_atom_site_fract_x
_atom_site_fract_y
_atom_site_fract_z
O1 O 0.40334(8) 0.66063(12) 0.29048(8)
O2 O 0.56279(10) 0.74332(15) 0.24588(11)
O3 O 0.34011(9) 0.83452(13) 0.33455(8)
H1 H 0.3369 0.8390 0.3818
O4 O 0.33333(8) 0.80674(13) 0.47074(8)
O5 O 0.46285(11) 0.88718(19) 0.58695(11)
O6 O 0.37105(9) 0.61958(13) 0.41997(9)
H2 H 0.3858 0.6209 0.3787
N1 N 0.48240(11) 0.81505(16) 0.30033(11)
H3 H 0.4368 0.8059 0.3146
N2 N 0.56556(15) 0.8776(2) 0.41932(15)
H4 H 0.5485 0.9382 0.4416
N3 N 0.55188(14) 0.6751(2) 0.44532(14)
H5 H 0.5161 0.7223 0.4271
N4 N 0.44812(12) 0.74883(19) 0.52837(12)
H6 H 0.4195 0.7133 0.4979
C1 C 0.33110(13) 0.52402(18) 0.26818(12)
C2 C 0.34707(12) 0.61914(18) 0.25597(12)
C3 C 0.30733(13) 0.67499(19) 0.21162(12)
C4 C 0.25312(13) 0.6307(2) 0.17784(13)
H7 H 0.2269 0.6666 0.1476
C5 C 0.23610(13) 0.5343(2) 0.18716(13)
C6 C 0.27569(13) 0.4830(2) 0.23323(12)
H8 H 0.2649 0.4192 0.2411
C7 C 0.17419(15) 0.4902(2) 0.14928(14)
C8 C 0.16499(18) 0.3840(2) 0.16590(17)
H9 H 0.2047 0.3489 0.1577
H10 H 0.1274 0.3584 0.1397
H11 H 0.1571 0.3781 0.2107
C9 C 0.11143(17) 0.5457(3) 0.1657(2)
H12 H 0.1056 0.5388 0.2109
H13 H 0.0728 0.5205 0.1408
H14 H 0.1166 0.6126 0.1557
C10 C 0.18203(19) 0.4982(3) 0.07672(15)
H15 H 0.1879 0.5645 0.0655
H16 H 0.1426 0.4734 0.0529
H17 H 0.2204 0.4619 0.0662
C11 C 0.31981(14) 0.78204(19) 0.20292(12)
H18 H 0.3162 0.7971 0.1571
H19 H 0.3651 0.7973 0.2202
C12 C 0.27060(13) 0.84419(18) 0.23647(12)
C13 C 0.28196(13) 0.86806(18) 0.30219(12)
C14 C 0.23583(13) 0.92391(18) 0.33258(12)
C15 C 0.17742(13) 0.9536(2) 0.29692(13)
H20 H 0.1469 0.9912 0.3171
C16 C 0.16302(14) 0.9290(2) 0.23231(13)
C17 C 0.21121(14) 0.8754(2) 0.20332(13)
H21 H 0.2033 0.8598 0.1598
C18 C 0.09637(15) 0.9555(2) 0.19411(14)
C19 C 0.05149(18) 1.0179(3) 0.23360(16)
H22 H 0.0418 0.9839 0.2720
H23 H 0.0104 1.0319 0.2081
H24 H 0.0742 1.0770 0.2454
C20 C 0.11015(17) 1.0108(2) 0.13282(14)
H25 H 0.1330 1.0698 0.1445
H26 H 0.0685 1.0251 0.1084
H27 H 0.1376 0.9724 0.1071
C21 C 0.05848(17) 0.8620(3) 0.17601(18)
H28 H 0.0845 0.8235 0.1490
H29 H 0.0162 0.8772 0.1531
H30 H 0.0511 0.8269 0.2146
C22 C 0.24489(13) 0.94420(19) 0.40471(12)
H31 H 0.2919 0.9556 0.4178
H32 H 0.2199 1.0013 0.4146
C23 C 0.22003(13) 0.85855(19) 0.44128(12)
C24 C 0.26417(12) 0.79056(18) 0.47067(12)
C25 C 0.24063(13) 0.70538(19) 0.49637(11)
C26 C 0.17135(13) 0.6915(2) 0.49336(12)
H33 H 0.1550 0.6354 0.5107
C27 C 0.12564(13) 0.7580(2) 0.46550(12)
C28 C 0.15195(13) 0.84157(19) 0.43980(12)
H34 H 0.1225 0.8873 0.4210
C29 C 0.04923(14) 0.7431(2) 0.45992(14)
C30 C 0.01707(16) 0.8211(2) 0.49986(19)
H35 H 0.0315 0.8129 0.5448
H36 H -0.0308 0.8156 0.4939
H37 H 0.0304 0.8835 0.4858
C31 C 0.02148(16) 0.7501(3) 0.38916(16)
H38 H 0.0301 0.8132 0.3729
H39 H -0.0260 0.7386 0.3860
H40 H 0.0429 0.7028 0.3641
C32 C 0.03021(15) 0.6438(2) 0.48497(16)
H41 H 0.0515 0.5947 0.4614
H42 H -0.0175 0.6358 0.4791
H43 H 0.0447 0.6387 0.5301
C33 C 0.28697(13) 0.62520(19) 0.52294(12)
H44 H 0.3320 0.6505 0.5314
H45 H 0.2721 0.6025 0.5636
C34 C 0.28823(13) 0.54123(19) 0.47604(12)
C35 C 0.32902(12) 0.54153(18) 0.42472(12)
C36 C 0.32725(13) 0.46527(19) 0.38079(12)
C37 C 0.28316(13) 0.38930(18) 0.38858(13)
H46 H 0.2817 0.3386 0.3592
C38 C 0.24098(13) 0.38662(19) 0.43902(13)
C39 C 0.24519(13) 0.46359(19) 0.48217(13)
H47 H 0.2181 0.4631 0.5165
C40 C 0.18901(14) 0.3060(2) 0.44432(15)
C41 C 0.17795(18) 0.2857(3) 0.51615(17)
H48 H 0.1577 0.3409 0.5344
H49 H 0.2203 0.2728 0.5397
H50 H 0.1490 0.2310 0.5188
C42 C 0.12286(16) 0.3393(3) 0.41051(18)
H51 H 0.1285 0.3516 0.3658
H52 H 0.1087 0.3972 0.4306
H53 H 0.0896 0.2902 0.4138
C43 C 0.2112(2) 0.2126(2) 0.4159(2)
H54 H 0.1797 0.1628 0.4239
H55 H 0.2546 0.1954 0.4355
H56 H 0.2134 0.2200 0.3701
C44 C 0.36844(13) 0.46633(18) 0.32256(12)
H57 H 0.3756 0.4010 0.3082
H58 H 0.4118 0.4954 0.3342
C45 C 0.46401(13) 0.65340(19) 0.25764(13)
H59 H 0.4524 0.6448 0.2117
H60 H 0.4892 0.5973 0.2734
C46 C 0.50720(14) 0.74194(19) 0.26816(13)
C47 C 0.51736(16) 0.9079(2) 0.30808(17)
H61 H 0.4870 0.9552 0.3239
H62 H 0.5295 0.9295 0.2662
C48 C 0.58029(17) 0.9028(3) 0.35450(19)
H63 H 0.6106 0.8553 0.3389
H64 H 0.6028 0.9646 0.3553
C49 C 0.6194(2) 0.8258(3) 0.4569(2)
H65 H 0.6144 0.8336 0.5027
H66 H 0.6624 0.8526 0.4479
C50 C 0.61734(18) 0.7199(3) 0.4398(2)
H67 H 0.6295 0.7123 0.3958
H68 H 0.6506 0.6862 0.4680
C51 C 0.5326(2) 0.6331(3) 0.50746(19)
H69 H 0.4973 0.5864 0.4974
H70 H 0.5710 0.5985 0.5274
C52 C 0.50982(17) 0.7002(3) 0.55494(17)
H71 H 0.5444 0.7477 0.5660
H72 H 0.5012 0.6657 0.5940
C53 C 0.42953(14) 0.8348(2) 0.54764(14)
C54 C 0.36147(13) 0.8697(2) 0.52108(13)
H73 H 0.3318 0.8725 0.5557
H74 H 0.3654 0.9342 0.5039
O7 O 0.70379(12) 0.73853(17) 0.24787(13)
H75 H 0.6520 0.7237 0.2450
C55 C 0.73771(19) 0.6603(3) 0.27834(19)
H76 H 0.7849 0.6664 0.2741
H77 H 0.7216 0.6014 0.2584
H78 H 0.7298 0.6596 0.3233
O8 O 0.54064(17) 0.5103(2) 0.37086(14)
H79 H 0.5377 0.5708 0.3976
C56 C 0.6013(2) 0.5024(3) 0.3401(3)
H80 H 0.6057 0.5568 0.3122
H81 H 0.6006 0.4443 0.3150
H82 H 0.6386 0.5008 0.3722
O9 O 0.59062(12) 0.96635(18) 0.58714(11)
H83 H 0.5418 0.9421 0.5826
C57 C 0.62047(17) 0.9153(3) 0.64109(17)
H84 H 0.6599 0.8829 0.6291
H85 H 0.5893 0.8689 0.6551
H86 H 0.6324 0.9596 0.6756
O10 O 0.14144(16) 0.5682(2) 0.34698(16)
H87 H 0.1640 0.5211 0.3731
C58 C 0.1777(2) 0.6485(3) 0.3255(2)
H88 H 0.1482 0.6884 0.2982
H89 H 0.2137 0.6262 0.3017
H90 H 0.1955 0.6850 0.3622
loop_
_geom_bond_atom_site_label_1
_geom_bond_atom_site_label_2
_geom_bond_site_symmetry_1
_geom_bond_site_symmetry_2
O1 C2 1_555 1_555
O2 C46 1_555 1_555
O3 H1 1_555 1_555
O4 C24 1_555 1_555
O5 C53 1_555 1_555
O6 H2 1_555 1_555
N1 H3 1_555 1_555
N2 H4 1_555 1_555
N3 H5 1_555 1_555
N4 H6 1_555 1_555
C1 C2 1_555 1_555
C2 C3 1_555 1_555
C3 C4 1_555 1_555
C4 H7 1_555 1_555
C5 C4 1_555 1_555
C6 C1 1_555 1_555
H8 C6 1_555 1_555
C7 C5 1_555 1_555
C8 C7 1_555 1_555
H9 C8 1_555 1_555
H10 C8 1_555 1_555
H11 C8 1_555 1_555
C9 C7 1_555 1_555
H12 C9 1_555 1_555
H13 C9 1_555 1_555
H14 C9 1_555 1_555
C10 C7 1_555 1_555
H15 C10 1_555 1_555
H16 C10 1_555 1_555
H17 C10 1_555 1_555
C11 C3 1_555 1_555
H18 C11 1_555 1_555
H19 C11 1_555 1_555
C12 C11 1_555 1_555
C13 O3 1_555 1_555
C14 C13 1_555 1_555
C15 C14 1_555 1_555
H20 C15 1_555 1_555
C16 C15 1_555 1_555
C17 C12 1_555 1_555
H21 C17 1_555 1_555
C18 C16 1_555 1_555
C19 C18 1_555 1_555
H22 C19 1_555 1_555
H23 C19 1_555 1_555
H24 C19 1_555 1_555
C20 C18 1_555 1_555
H25 C20 1_555 1_555
H26 C20 1_555 1_555
H27 C20 1_555 1_555
C21 C18 1_555 1_555
H28 C21 1_555 1_555
H29 C21 1_555 1_555
H30 C21 1_555 1_555
C22 C14 1_555 1_555
H31 C22 1_555 1_555
H32 C22 1_555 1_555
C23 C22 1_555 1_555
C24 C23 1_555 1_555
C25 C24 1_555 1_555
C26 C25 1_555 1_555
H33 C26 1_555 1_555
C27 C26 1_555 1_555
C28 C23 1_555 1_555
H34 C28 1_555 1_555
C29 C27 1_555 1_555
C30 C29 1_555 1_555
H35 C30 1_555 1_555
H36 C30 1_555 1_555
H37 C30 1_555 1_555
C31 C29 1_555 1_555
H38 C31 1_555 1_555
H39 C31 1_555 1_555
H40 C31 1_555 1_555
C32 C29 1_555 1_555
H41 C32 1_555 1_555
H42 C32 1_555 1_555
H43 C32 1_555 1_555
C33 C25 1_555 1_555
H44 C33 1_555 1_555
H45 C33 1_555 1_555
C34 C33 1_555 1_555
C35 O6 1_555 1_555
C36 C35 1_555 1_555
C37 C36 1_555 1_555
H46 C37 1_555 1_555
C38 C37 1_555 1_555
C39 C34 1_555 1_555
H47 C39 1_555 1_555
C40 C38 1_555 1_555
C41 C40 1_555 1_555
H48 C41 1_555 1_555
H49 C41 1_555 1_555
H50 C41 1_555 1_555
C42 C40 1_555 1_555
H51 C42 1_555 1_555
H52 C42 1_555 1_555
H53 C42 1_555 1_555
C43 C40 1_555 1_555
H54 C43 1_555 1_555
H55 C43 1_555 1_555
H56 C43 1_555 1_555
C44 C1 1_555 1_555
H57 C44 1_555 1_555
H58 C44 1_555 1_555
C45 O1 1_555 1_555
H59 C45 1_555 1_555
H60 C45 1_555 1_555
C46 N1 1_555 1_555
C47 N1 1_555 1_555
H61 C47 1_555 1_555
H62 C47 1_555 1_555
C48 N2 1_555 1_555
H63 C48 1_555 1_555
H64 C48 1_555 1_555
C49 N2 1_555 1_555
H65 C49 1_555 1_555
H66 C49 1_555 1_555
C50 N3 1_555 1_555
H67 C50 1_555 1_555
H68 C50 1_555 1_555
C51 N3 1_555 1_555
H69 C51 1_555 1_555
H70 C51 1_555 1_555
C52 N4 1_555 1_555
H71 C52 1_555 1_555
H72 C52 1_555 1_555
C53 N4 1_555 1_555
C54 O4 1_555 1_555
H73 C54 1_555 1_555
H74 C54 1_555 1_555
O7 H75 1_555 1_555
C55 O7 1_555 1_555
H76 C55 1_555 1_555
H77 C55 1_555 1_555
H78 C55 1_555 1_555
O8 H79 1_555 1_555
C56 O8 1_555 1_555
H80 C56 1_555 1_555
H81 C56 1_555 1_555
H82 C56 1_555 1_555
O9 H83 1_555 1_555
C57 O9 1_555 1_555
H84 C57 1_555 1_555
H85 C57 1_555 1_555
H86 C57 1_555 1_555
O10 H87 1_555 1_555
C58 O10 1_555 1_555
H88 C58 1_555 1_555
H89 C58 1_555 1_555
H90 C58 1_555 1_555
C5 C6 1_555 1_555
C12 C13 1_555 1_555
C16 C17 1_555 1_555
C27 C28 1_555 1_555
C34 C35 1_555 1_555
C36 C44 1_555 1_555
C38 C39 1_555 1_555
C45 C46 1_555 1_555
C47 C48 1_555 1_555
C49 C50 1_555 1_555
C51 C52 1_555 1_555
C53 C54 1_555 1_555

#END
