
#######################################################################
#
#                 Cambridge Crystallographic Data Centre
#                                CCDC 
#
#######################################################################
#
# If this CIF has been generated from an entry in the Cambridge 
# Structural Database, then it will include bibliographic, chemical, 
# crystal, experimental, refinement or atomic coordinate data resulting 
# from the CCDC's data processing and validation procedures.
#
#######################################################################

data_POTGUC
_chemical_formula_moiety         'C10 H10 N6 O12'
_chemical_name_systematic        2,2,4,4,6,6-Hexanitroadamantane
_symmetry_cell_setting           monoclinic
_symmetry_space_group_name_H-M   'P 21/c'
_symmetry_Int_Tables_number      14
_space_group_name_Hall           '-P 2ybc'
loop_
_symmetry_equiv_pos_site_id
_symmetry_equiv_pos_as_xyz
1 x,y,z
2 -x,1/2+y,1/2-z
3 -x,-y,-z
4 x,1/2-y,1/2+z
_cell_length_a                   12.011(2)
_cell_length_b                   21.129(4)
_cell_length_c                   11.967(2)
_cell_angle_alpha                90
_cell_angle_beta                 90.59(3)
_cell_angle_gamma                90
_cell_volume                     3036.83
_cell_formula_units_Z            8
loop_
_atom_site_label
_atom_site_type_symbol
_atom_site_fract_x
_atom_site_fract_y
_atom_site_fract_z
C1 C 0.8218(3) 0.0771(2) 0.9694(3)
H1 H 0.8717 0.0430 0.9461
C2 C 0.7181(4) 0.04983(19) 1.0243(4)
H2 H 0.6813 0.0209 0.9729
H3 H 0.7397 0.0262 1.0905
C3 C 0.6380(4) 0.1022(2) 1.0564(3)
H4 H 0.5721 0.0840 1.0917
C4 C 0.6044(3) 0.13714(19) 0.9524(3)
C5 C 0.7043(3) 0.16889(19) 0.8990(3)
H5 H 0.6809 0.1927 0.8326
C6 C 0.7657(4) 0.21151(19) 0.9796(3)
C7 C 0.8039(3) 0.17602(19) 1.0838(3)
H6 H 0.8416 0.2047 1.1363
C8 C 0.8812(3) 0.12094(18) 1.0509(3)
C9 C 0.7849(3) 0.11689(19) 0.8671(3)
H7 H 0.8500 0.1357 0.8331
H8 H 0.7498 0.0894 0.8123
C10 C 0.6957(4) 0.1478(2) 1.1368(4)
H9 H 0.7150 0.1257 1.2053
H10 H 0.6452 0.1819 1.1553
N1 N 0.7011(4) 0.27228(19) 1.0094(5)
O1 O 0.6876(6) 0.2834(2) 1.1105(4)
N2 N 0.8627(3) 0.24598(19) 0.9222(4)
O2 O 0.6698(4) 0.30490(19) 0.9376(4)
N3 N 0.9978(3) 0.1405(2) 1.0137(4)
O3 O 0.9280(4) 0.2729(2) 0.9827(4)
N4 N 0.9194(3) 0.0817(2) 1.1560(4)
O4 O 0.8669(3) 0.2440(2) 0.8203(4)
N5 N 0.5428(3) 0.09365(18) 0.8678(4)
O5 O 1.0549(3) 0.1676(2) 1.0819(4)
N6 N 0.5078(3) 0.1861(2) 0.9738(4)
O6 O 1.0241(3) 0.1275(2) 0.9207(4)
O7 O 0.9539(3) 0.03023(17) 1.1399(4)
O8 O 0.9137(3) 0.1097(2) 1.2467(3)
O9 O 0.4844(3) 0.05350(18) 0.9055(4)
O10 O 0.5532(3) 0.10667(19) 0.7708(3)
O11 O 0.4872(3) 0.22120(19) 0.9035(4)
O12 O 0.4557(4) 0.1806(2) 1.0522(4)
N7 N 0.2452(4) 0.1104(2) 0.7457(3)
N8 N 0.3283(4) 0.0014(2) 0.6099(3)
N9 N 0.2307(4) -0.02085(18) 0.4476(4)
N10 N 0.2684(3) 0.06358(19) 0.2599(3)
N11 N 0.3713(4) 0.15784(18) 0.2935(3)
N12 N 0.0913(3) 0.1642(2) 0.6738(3)
C11 C 0.2759(3) 0.17460(19) 0.5728(3)
H11 H 0.2990 0.2092 0.6224
C12 C 0.1974(3) 0.13003(18) 0.6332(3)
C13 C 0.1634(3) 0.07443(19) 0.5564(3)
H12 H 0.1129 0.0457 0.5953
C14 C 0.2681(3) 0.03831(18) 0.5167(3)
C15 C 0.3482(3) 0.08060(17) 0.4548(3)
H13 H 0.4145 0.0573 0.4312
C16 C 0.2876(3) 0.1127(2) 0.3531(3)
C17 C 0.1838(3) 0.1476(2) 0.3895(3)
H14 H 0.1455 0.1653 0.3239
C18 C 0.2184(3) 0.20085(19) 0.4685(3)
H15 H 0.2686 0.2294 0.4303
H16 H 0.1531 0.2247 0.4900
C19 C 0.3791(3) 0.13635(17) 0.5339(3)
H17 H 0.4296 0.1646 0.4956
H18 H 0.4179 0.1197 0.5991
C20 C 0.1052(3) 0.1032(2) 0.4516(3)
H19 H 0.0815 0.0694 0.4019
H20 H 0.0395 0.1264 0.4742
O13 O 0.2035(4) 0.0657(2) 0.7880(3)
O14 O 0.3154(3) 0.1442(2) 0.7872(3)
O15 O 0.2742(4) -0.0359(2) 0.6606(4)
O16 O 0.4276(3) 0.00854(17) 0.6211(3)
O17 O 0.1310(4) -0.03561(18) 0.4465(4)
O18 O 0.3030(3) -0.04682(18) 0.3989(4)
O19 O 0.1747(3) 0.0561(2) 0.2285(3)
O20 O 0.3489(3) 0.03921(19) 0.2189(3)
O21 O 0.3266(4) 0.19664(18) 0.2360(3)
O22 O 0.4679(3) 0.14837(16) 0.3055(3)
O23 O 0.1068(3) 0.21892(18) 0.7060(3)
O24 O 0.0047(3) 0.13739(17) 0.6739(3)
loop_
_geom_bond_atom_site_label_1
_geom_bond_atom_site_label_2
_geom_bond_site_symmetry_1
_geom_bond_site_symmetry_2
C1 H1 1_555 1_555
C2 C1 1_555 1_555
H2 C2 1_555 1_555
H3 C2 1_555 1_555
C3 C2 1_555 1_555
H4 C3 1_555 1_555
C4 C3 1_555 1_555
C5 C4 1_555 1_555
H5 C5 1_555 1_555
C6 C5 1_555 1_555
C7 C6 1_555 1_555
H6 C7 1_555 1_555
C8 C1 1_555 1_555
C9 C1 1_555 1_555
H7 C9 1_555 1_555
H8 C9 1_555 1_555
C10 C3 1_555 1_555
H9 C10 1_555 1_555
H10 C10 1_555 1_555
N1 C6 1_555 1_555
O1 N1 1_555 1_555
N2 C6 1_555 1_555
O2 N1 1_555 1_555
N3 C8 1_555 1_555
O3 N2 1_555 1_555
N4 C8 1_555 1_555
O4 N2 1_555 1_555
N5 C4 1_555 1_555
O5 N3 1_555 1_555
N6 C4 1_555 1_555
O6 N3 1_555 1_555
O7 N4 1_555 1_555
O8 N4 1_555 1_555
O9 N5 1_555 1_555
O10 N5 1_555 1_555
O11 N6 1_555 1_555
O12 N6 1_555 1_555
N7 C12 1_555 1_555
N8 C14 1_555 1_555
N9 C14 1_555 1_555
N10 C16 1_555 1_555
N11 C16 1_555 1_555
N12 C12 1_555 1_555
C11 H11 1_555 1_555
C12 C11 1_555 1_555
C13 C12 1_555 1_555
H12 C13 1_555 1_555
C14 C13 1_555 1_555
C15 C14 1_555 1_555
H13 C15 1_555 1_555
C16 C15 1_555 1_555
C17 C16 1_555 1_555
H14 C17 1_555 1_555
C18 C11 1_555 1_555
H15 C18 1_555 1_555
H16 C18 1_555 1_555
C19 C11 1_555 1_555
H17 C19 1_555 1_555
H18 C19 1_555 1_555
C20 C13 1_555 1_555
H19 C20 1_555 1_555
H20 C20 1_555 1_555
O13 N7 1_555 1_555
O14 N7 1_555 1_555
O15 N8 1_555 1_555
O16 N8 1_555 1_555
O17 N9 1_555 1_555
O18 N9 1_555 1_555
O19 N10 1_555 1_555
O20 N10 1_555 1_555
O21 N11 1_555 1_555
O22 N11 1_555 1_555
O23 N12 1_555 1_555
O24 N12 1_555 1_555
C5 C9 1_555 1_555
C7 C8 1_555 1_555
C7 C10 1_555 1_555
C15 C19 1_555 1_555
C17 C18 1_555 1_555
C17 C20 1_555 1_555

#END
