
#######################################################################
#
#                 Cambridge Crystallographic Data Centre
#                                CCDC 
#
#######################################################################
#
# If this CIF has been generated from an entry in the Cambridge 
# Structural Database, then it will include bibliographic, chemical, 
# crystal, experimental, refinement or atomic coordinate data resulting 
# from the CCDC's data processing and validation procedures.
#
#######################################################################

data_POTHAJ
_chemical_formula_moiety         'C14 H8 F5 N1 O1'
_chemical_name_systematic        
N-(2',3',4',5',6'-Pentafluorobiphenyl-2-yl)acetamide
_symmetry_cell_setting           orthorhombic
_symmetry_space_group_name_H-M   'P b c a'
_symmetry_Int_Tables_number      61
_space_group_name_Hall           '-P 2ac 2ab'
loop_
_symmetry_equiv_pos_site_id
_symmetry_equiv_pos_as_xyz
1 x,y,z
2 1/2-x,-y,1/2+z
3 1/2+x,1/2-y,-z
4 -x,1/2+y,1/2-z
5 -x,-y,-z
6 1/2+x,y,1/2-z
7 1/2-x,1/2+y,z
8 x,1/2-y,1/2+z
_cell_length_a                   13.4839(16)
_cell_length_b                   8.9487(11)
_cell_length_c                   20.427(2)
_cell_angle_alpha                90
_cell_angle_beta                 90
_cell_angle_gamma                90
_cell_volume                     2464.79
_exptl_crystal_colour            colorless
_exptl_crystal_description       stick
_chemical_melting_point          '458 K'
_cell_formula_units_Z            8
loop_
_atom_site_label
_atom_site_type_symbol
_atom_site_fract_x
_atom_site_fract_y
_atom_site_fract_z
F1 F 0.62033(9) 0.55786(14) 0.33020(6)
F2 F 0.79098(9) 0.42686(15) 0.36586(6)
F3 F 0.78947(9) 0.18743(15) 0.44765(6)
F4 F 0.61444(10) 0.07616(15) 0.49170(6)
F5 F 0.44266(9) 0.20693(15) 0.45711(6)
O1 O 0.48110(12) 0.61104(17) 0.19715(7)
N1 N 0.45833(13) 0.4032(2) 0.25880(9)
H1 H 0.4757(17) 0.308(3) 0.2671(11)
C1 C 0.61620(16) 0.4377(2) 0.36995(10)
C2 C 0.70428(16) 0.3716(3) 0.38769(10)
C3 C 0.70368(16) 0.2508(3) 0.42925(10)
C4 C 0.61517(17) 0.1961(2) 0.45222(10)
C5 C 0.52814(15) 0.2646(3) 0.43439(10)
C6 C 0.52514(15) 0.3872(2) 0.39274(10)
C7 C 0.43026(15) 0.4602(2) 0.37426(10)
C8 C 0.40153(15) 0.4735(2) 0.30869(10)
C9 C 0.31506(16) 0.5495(3) 0.29255(11)
H2 H 0.2960 0.5587 0.2480
C10 C 0.25652(17) 0.6118(3) 0.34098(11)
H3 H 0.1982 0.6654 0.3296
C11 C 0.28297(16) 0.5959(3) 0.40638(11)
H4 H 0.2422 0.6370 0.4398
C12 C 0.36877(16) 0.5203(3) 0.42269(11)
H5 H 0.3863 0.5090 0.4675
C13 C 0.49069(15) 0.4750(2) 0.20460(10)
C14 C 0.53734(19) 0.3788(3) 0.15333(12)
H6 H 0.5518(18) 0.280(3) 0.1673(13)
H7 H 0.593(2) 0.425(3) 0.1349(12)
H8 H 0.4901(19) 0.368(3) 0.1199(13)
loop_
_geom_bond_atom_site_label_1
_geom_bond_atom_site_label_2
_geom_bond_site_symmetry_1
_geom_bond_site_symmetry_2
F1 C1 1_555 1_555
F2 C2 1_555 1_555
F3 C3 1_555 1_555
F4 C4 1_555 1_555
F5 C5 1_555 1_555
O1 C13 1_555 1_555
N1 H1 1_555 1_555
C1 C2 1_555 1_555
C2 C3 1_555 1_555
C3 C4 1_555 1_555
C4 C5 1_555 1_555
C5 C6 1_555 1_555
C6 C1 1_555 1_555
C7 C6 1_555 1_555
C8 N1 1_555 1_555
C9 C8 1_555 1_555
H2 C9 1_555 1_555
C10 C9 1_555 1_555
H3 C10 1_555 1_555
C11 C10 1_555 1_555
H4 C11 1_555 1_555
C12 C7 1_555 1_555
H5 C12 1_555 1_555
C13 N1 1_555 1_555
C14 C13 1_555 1_555
H6 C14 1_555 1_555
H7 C14 1_555 1_555
H8 C14 1_555 1_555
C7 C8 1_555 1_555
C11 C12 1_555 1_555

#END
