
#######################################################################
#
#                 Cambridge Crystallographic Data Centre
#                                CCDC 
#
#######################################################################
#
# If this CIF has been generated from an entry in the Cambridge 
# Structural Database, then it will include bibliographic, chemical, 
# crystal, experimental, refinement or atomic coordinate data resulting 
# from the CCDC's data processing and validation procedures.
#
#######################################################################

data_POTMAN
_chemical_formula_moiety         'C25 H25 N1 O3 S1'
_chemical_name_systematic        
(S)-3,5-Dibenzyl-4-((4-methylphenyl)sulfonyl)-3,4-dihydro-2H-1,4-oxazine
_symmetry_cell_setting           orthorhombic
_symmetry_space_group_name_H-M   'P 21 21 21'
_symmetry_Int_Tables_number      19
_space_group_name_Hall           'P 2ac 2ab'
loop_
_symmetry_equiv_pos_site_id
_symmetry_equiv_pos_as_xyz
1 x,y,z
2 1/2-x,-y,1/2+z
3 -x,1/2+y,1/2-z
4 1/2+x,1/2-y,-z
_cell_length_a                   8.7751(7)
_cell_length_b                   12.1744(10)
_cell_length_c                   20.4541(16)
_cell_angle_alpha                90
_cell_angle_beta                 90
_cell_angle_gamma                90
_cell_volume                     2185.14
_cell_formula_units_Z            4
loop_
_atom_site_label
_atom_site_type_symbol
_atom_site_fract_x
_atom_site_fract_y
_atom_site_fract_z
S1 S 0.7214(1) 0.2631(1) 0.8461(1)
O1 O 0.3970(2) 0.5091(2) 0.8116(1)
O2 O 0.7694(2) 0.2013(1) 0.7905(1)
O3 O 0.7216(2) 0.2129(2) 0.9091(1)
N1 N 0.5452(2) 0.3020(2) 0.8309(1)
C1 C 0.5108(3) 0.4699(2) 0.7673(1)
C2 C 0.5121(3) 0.3461(2) 0.7647(1)
C3 C 0.4535(3) 0.3539(2) 0.8803(1)
C4 C 0.3857(3) 0.4484(2) 0.8671(1)
C5 C 0.3637(3) 0.2954(2) 0.7396(1)
C6 C 0.3381(3) 0.3131(2) 0.6673(1)
C7 C 0.2609(3) 0.4039(2) 0.6442(1)
C8 C 0.2380(3) 0.4189(3) 0.5779(2)
C9 C 0.2908(4) 0.3430(3) 0.5348(2)
C10 C 0.3687(4) 0.2532(3) 0.5557(2)
C11 C 0.3934(3) 0.2388(2) 0.6227(1)
C12 C 0.4130(3) 0.2883(2) 0.9400(1)
C13 C 0.3277(3) 0.1842(2) 0.9225(1)
C14 C 0.3975(3) 0.0830(2) 0.9246(1)
C15 C 0.3193(4) -0.0111(2) 0.9065(1)
C16 C 0.1720(4) -0.0038(3) 0.8867(2)
C17 C 0.1011(4) 0.0963(3) 0.8843(2)
C18 C 0.1781(3) 0.1893(2) 0.9019(1)
C19 C 0.8323(2) 0.3827(2) 0.8505(1)
C20 C 0.8320(3) 0.4436(2) 0.9071(1)
C21 C 0.9092(3) 0.5415(2) 0.9093(1)
C22 C 0.9887(3) 0.5809(2) 0.8559(1)
C23 C 0.9898(3) 0.5180(2) 0.8004(1)
C24 C 0.9135(3) 0.4199(2) 0.7970(1)
C25 C 1.0691(3) 0.6898(2) 0.8586(1)
H1 H 0.6100 0.4961 0.7811
H2 H 0.4908 0.4988 0.7239
H3 H 0.5946 0.3233 0.7354
H4 H 0.3228 0.4765 0.8996
H5 H 0.3650 0.2171 0.7485
H6 H 0.2789 0.3270 0.7636
H7 H 0.2239 0.4558 0.6736
H8 H 0.1865 0.4807 0.5628
H9 H 0.2733 0.3525 0.4904
H10 H 0.4052 0.2020 0.5258
H11 H 0.4481 0.1781 0.6373
H12 H 0.3503 0.3327 0.9687
H13 H 0.5054 0.2693 0.9634
H14 H 0.4983 0.0778 0.9382
H15 H 0.3675 -0.0791 0.9081
H16 H 0.1191 -0.0669 0.8747
H17 H 0.0003 0.1010 0.8706
H18 H 0.1290 0.2569 0.9000
H19 H 0.7797 0.4185 0.9437
H20 H 0.9080 0.5824 0.9477
H21 H 1.0436 0.5425 0.7641
H22 H 0.9165 0.3785 0.7588
H23 H 1.1773 0.6782 0.8581
H24 H 1.0409 0.7277 0.8979
H25 H 1.0404 0.7332 0.8213
loop_
_geom_bond_atom_site_label_1
_geom_bond_atom_site_label_2
_geom_bond_site_symmetry_1
_geom_bond_site_symmetry_2
S1 O2 1_555 1_555
O1 C1 1_555 1_555
O3 S1 1_555 1_555
N1 S1 1_555 1_555
C1 C2 1_555 1_555
C2 N1 1_555 1_555
C3 N1 1_555 1_555
C4 O1 1_555 1_555
C5 C2 1_555 1_555
C6 C5 1_555 1_555
C7 C6 1_555 1_555
C8 C7 1_555 1_555
C9 C8 1_555 1_555
C10 C9 1_555 1_555
C11 C6 1_555 1_555
C12 C3 1_555 1_555
C13 C12 1_555 1_555
C14 C13 1_555 1_555
C15 C14 1_555 1_555
C16 C15 1_555 1_555
C17 C16 1_555 1_555
C18 C13 1_555 1_555
C19 S1 1_555 1_555
C20 C19 1_555 1_555
C21 C20 1_555 1_555
C22 C21 1_555 1_555
C23 C22 1_555 1_555
C24 C19 1_555 1_555
C25 C22 1_555 1_555
H1 C1 1_555 1_555
H2 C1 1_555 1_555
H3 C2 1_555 1_555
H4 C4 1_555 1_555
H5 C5 1_555 1_555
H6 C5 1_555 1_555
H7 C7 1_555 1_555
H8 C8 1_555 1_555
H9 C9 1_555 1_555
H10 C10 1_555 1_555
H11 C11 1_555 1_555
H12 C12 1_555 1_555
H13 C12 1_555 1_555
H14 C14 1_555 1_555
H15 C15 1_555 1_555
H16 C16 1_555 1_555
H17 C17 1_555 1_555
H18 C18 1_555 1_555
H19 C20 1_555 1_555
H20 C21 1_555 1_555
H21 C23 1_555 1_555
H22 C24 1_555 1_555
H23 C25 1_555 1_555
H24 C25 1_555 1_555
H25 C25 1_555 1_555
C3 C4 1_555 1_555
C10 C11 1_555 1_555
C17 C18 1_555 1_555
C23 C24 1_555 1_555

#END
