
#######################################################################
#
#                 Cambridge Crystallographic Data Centre
#                                CCDC 
#
#######################################################################
#
# If this CIF has been generated from an entry in the Cambridge 
# Structural Database, then it will include bibliographic, chemical, 
# crystal, experimental, refinement or atomic coordinate data resulting 
# from the CCDC's data processing and validation procedures.
#
#######################################################################

data_POTNIW
_chemical_formula_moiety         'C24 H21 N1 O3 S1'
_chemical_name_systematic        
"(6aS,10aS)-ethyl 6-benzyl-5-oxo-5,6,6a,10-tetrahydro-10aH-thieno[3',2':4,5]cyclopenta[1,2-c]isoquinoline-10a-carboxylate"
_symmetry_cell_setting           monoclinic
_symmetry_space_group_name_H-M   'P 21/c'
_symmetry_Int_Tables_number      14
_space_group_name_Hall           '-P 2ybc'
loop_
_symmetry_equiv_pos_site_id
_symmetry_equiv_pos_as_xyz
1 x,y,z
2 -x,1/2+y,1/2-z
3 -x,-y,-z
4 x,1/2-y,1/2+z
_cell_length_a                   9.1318(5)
_cell_length_b                   12.3053(7)
_cell_length_c                   17.1245(10)
_cell_angle_alpha                90
_cell_angle_beta                 93.3590(10)
_cell_angle_gamma                90
_cell_volume                     1920.97
_exptl_crystal_colour            colorless
_exptl_crystal_description       'irregular chunk'
_chemical_melting_point          '131-133 deg.C'
_cell_formula_units_Z            4
_exptl_crystal_recrystallization_method 'ethyl acetate/n-hexane'
loop_
_atom_site_label
_atom_site_type_symbol
_atom_site_fract_x
_atom_site_fract_y
_atom_site_fract_z
S1 S -0.23211(3) 0.06850(2) -0.003822(15)
O1 O 0.26731(8) 0.06290(6) 0.20266(4)
O2 O 0.18548(9) 0.16809(7) 0.29803(5)
O3 O -0.19142(9) 0.39300(7) 0.16033(5)
N1 N -0.04643(10) 0.25661(7) 0.11965(5)
C1 C -0.14273(11) 0.30002(8) 0.16849(6)
C2 C -0.17930(11) 0.23121(8) 0.23654(6)
C3 C -0.28482(11) 0.27119(9) 0.28514(6)
H1 H -0.3318(16) 0.3355(13) 0.2722(9)
C4 C -0.31685(12) 0.21575(9) 0.35254(7)
H2 H -0.3945(16) 0.2445(12) 0.3845(9)
C5 C -0.24060(12) 0.12097(10) 0.37275(6)
H3 H -0.2575(18) 0.0809(13) 0.4208(10)
C6 C -0.13413(12) 0.08184(9) 0.32509(6)
H4 H -0.0781(17) 0.0191(13) 0.3402(9)
C7 C -0.10491(11) 0.13470(8) 0.25555(6)
C8 C 0.00919(11) 0.08880(8) 0.20328(6)
C9 C -0.01914(11) -0.03476(8) 0.18727(6)
H5 H -0.0597(16) -0.0727(11) 0.2333(8)
H6 H 0.0711(17) -0.0707(12) 0.1757(9)
C10 C -0.12480(11) -0.03217(8) 0.11684(6)
C11 C -0.12120(11) 0.06572(8) 0.08046(6)
C12 C -0.00931(11) 0.14100(8) 0.11976(6)
H7 H 0.0820(16) 0.1353(11) 0.0936(8)
C13 C -0.22084(12) -0.10814(9) 0.07792(7)
H8 H -0.2396(16) -0.1786(13) 0.0951(9)
C14 C -0.28709(13) -0.06405(10) 0.01164(7)
H9 H -0.3568(19) -0.0971(14) -0.0243(10)
C15 C 0.00012(12) 0.31971(9) 0.05309(6)
H10 H -0.0507(17) 0.3876(13) 0.0553(9)
H11 H -0.0303(15) 0.2838(12) 0.0043(9)
C16 C 0.16461(12) 0.33795(8) 0.05501(6)
C17 C 0.25546(12) 0.32353(9) 0.12226(6)
H12 H 0.2172(16) 0.3054(12) 0.1730(9)
C18 C 0.40684(13) 0.33776(10) 0.11993(8)
H13 H 0.4674(18) 0.3276(13) 0.1661(10)
C19 C 0.46818(13) 0.36700(10) 0.05079(8)
H14 H 0.574(2) 0.3752(15) 0.0543(11)
C20 C 0.37740(14) 0.38418(10) -0.01594(7)
H15 H 0.4159(19) 0.4071(14) -0.0659(10)
C21 C 0.22676(13) 0.37002(9) -0.01406(7)
H16 H 0.1657(16) 0.3792(12) -0.0605(9)
C22 C 0.16210(11) 0.11122(8) 0.24142(6)
C23 C 0.41469(12) 0.07372(9) 0.23941(7)
H17 H 0.4171(17) 0.0324(13) 0.2888(9)
H18 H 0.4299(18) 0.1481(14) 0.2514(9)
C24 C 0.52157(13) 0.02990(11) 0.18371(7)
H19 H 0.6171(19) 0.0262(14) 0.2077(10)
H20 H 0.496(2) -0.0431(15) 0.1652(11)
H21 H 0.5273(19) 0.0762(13) 0.1359(11)
loop_
_geom_bond_atom_site_label_1
_geom_bond_atom_site_label_2
_geom_bond_site_symmetry_1
_geom_bond_site_symmetry_2
S1 C11 1_555 1_555
O1 C22 1_555 1_555
O2 C22 1_555 1_555
O3 C1 1_555 1_555
N1 C1 1_555 1_555
C1 C2 1_555 1_555
C2 C3 1_555 1_555
C3 H1 1_555 1_555
C4 C3 1_555 1_555
H2 C4 1_555 1_555
C5 C4 1_555 1_555
H3 C5 1_555 1_555
C6 C5 1_555 1_555
H4 C6 1_555 1_555
C7 C2 1_555 1_555
C8 C7 1_555 1_555
C9 C8 1_555 1_555
H5 C9 1_555 1_555
H6 C9 1_555 1_555
C10 C9 1_555 1_555
C11 C10 1_555 1_555
C12 N1 1_555 1_555
H7 C12 1_555 1_555
C13 C10 1_555 1_555
H8 C13 1_555 1_555
C14 S1 1_555 1_555
H9 C14 1_555 1_555
C15 N1 1_555 1_555
H10 C15 1_555 1_555
H11 C15 1_555 1_555
C16 C15 1_555 1_555
C17 C16 1_555 1_555
H12 C17 1_555 1_555
C18 C17 1_555 1_555
H13 C18 1_555 1_555
C19 C18 1_555 1_555
H14 C19 1_555 1_555
C20 C19 1_555 1_555
H15 C20 1_555 1_555
C21 C16 1_555 1_555
H16 C21 1_555 1_555
C22 C8 1_555 1_555
C23 O1 1_555 1_555
H17 C23 1_555 1_555
H18 C23 1_555 1_555
C24 C23 1_555 1_555
H19 C24 1_555 1_555
H20 C24 1_555 1_555
H21 C24 1_555 1_555
C6 C7 1_555 1_555
C8 C12 1_555 1_555
C11 C12 1_555 1_555
C13 C14 1_555 1_555
C20 C21 1_555 1_555

#END
