
#######################################################################
#
#                 Cambridge Crystallographic Data Centre
#                                CCDC 
#
#######################################################################
#
# If this CIF has been generated from an entry in the Cambridge 
# Structural Database, then it will include bibliographic, chemical, 
# crystal, experimental, refinement or atomic coordinate data resulting 
# from the CCDC's data processing and validation procedures.
#
#######################################################################

data_POTNUI
_chemical_formula_moiety         'C27 H19 N1 O1 S1'
_chemical_name_systematic        
6-Benzyl-10-phenyl-6,10-dihydro-5H-thieno[3',2':4,5]cyclopenta[1,2-c]isoquinolin-5-one
_symmetry_cell_setting           triclinic
_symmetry_space_group_name_H-M   'P -1'
_symmetry_Int_Tables_number      2
_space_group_name_Hall           '-P 1'
loop_
_symmetry_equiv_pos_site_id
_symmetry_equiv_pos_as_xyz
1 x,y,z
2 -x,-y,-z
_cell_length_a                   9.5541(17)
_cell_length_b                   10.3489(19)
_cell_length_c                   10.431(2)
_cell_angle_alpha                85.898(2)
_cell_angle_beta                 79.880(3)
_cell_angle_gamma                78.751(3)
_cell_volume                     995.066
_exptl_crystal_colour            yellow
_exptl_crystal_description       'rectangular plate'
_chemical_melting_point          '211-213 deg.C'
_cell_formula_units_Z            2
_exptl_crystal_recrystallization_method 'ethyl acetate/hexane'
loop_
_atom_site_label
_atom_site_type_symbol
_atom_site_fract_x
_atom_site_fract_y
_atom_site_fract_z
S1 S 0.32924(4) 0.19756(3) 0.47418(3)
O1 O 0.91259(11) 0.01145(11) 0.20594(11)
N1 N 0.67069(12) 0.05318(11) 0.27987(11)
C1 C 0.79256(14) -0.01063(13) 0.19765(13)
C2 C 0.76752(15) -0.09933(13) 0.10310(13)
C3 C 0.88503(16) -0.15712(15) 0.01179(14)
H1 H 0.973(2) -0.139(2) 0.011(2)
C4 C 0.86548(17) -0.23918(15) -0.08050(14)
H2 H 0.942(3) -0.279(2) -0.147(2)
C5 C 0.72691(17) -0.26447(15) -0.08253(14)
H3 H 0.713(2) -0.323(2) -0.148(2)
C6 C 0.60979(16) -0.20851(14) 0.00693(14)
H4 H 0.514(2) -0.2262(19) 0.0041(19)
C7 C 0.62765(14) -0.12410(13) 0.10133(13)
C8 C 0.51106(14) -0.05955(13) 0.19391(13)
C9 C 0.35280(14) -0.06771(13) 0.21286(13)
H5 H 0.312(2) -0.0296(19) 0.1318(19)
C10 C 0.29012(14) 0.02930(13) 0.32000(13)
C11 C 0.39765(14) 0.08223(13) 0.35668(13)
C12 C 0.53544(14) 0.02684(13) 0.27764(13)
C13 C 0.15001(15) 0.08181(15) 0.38676(14)
H6 H 0.065(3) 0.063(2) 0.375(2)
C14 C 0.15527(16) 0.17371(15) 0.47377(15)
H7 H 0.075(2) 0.222(2) 0.530(2)
C15 C 0.69690(15) 0.14507(14) 0.36960(13)
H8 H 0.774(2) 0.098(2) 0.414(2)
H9 H 0.606(2) 0.168(2) 0.439(2)
C16 C 0.73205(14) 0.27287(13) 0.30409(13)
C17 C 0.70443(17) 0.31445(15) 0.18000(15)
H10 H 0.669(2) 0.259(2) 0.130(2)
C18 C 0.73646(19) 0.43455(16) 0.12584(17)
H11 H 0.718(2) 0.460(2) 0.042(2)
C19 C 0.79472(18) 0.51372(15) 0.19631(17)
H12 H 0.814(3) 0.597(2) 0.158(2)
C20 C 0.82285(18) 0.47213(15) 0.31987(16)
H13 H 0.861(3) 0.527(2) 0.369(2)
C21 C 0.79293(16) 0.35163(14) 0.37277(14)
H14 H 0.813(2) 0.325(2) 0.457(2)
C22 C 0.31796(14) -0.20509(13) 0.24478(13)
C23 C 0.41448(16) -0.30822(14) 0.29324(14)
H15 H 0.507(2) -0.2945(19) 0.3076(19)
C24 C 0.37767(19) -0.43237(15) 0.32209(16)
H16 H 0.442(3) -0.502(2) 0.355(2)
C25 C 0.2452(2) -0.45449(16) 0.30176(16)
H17 H 0.220(2) -0.541(2) 0.324(2)
C26 C 0.14953(19) -0.35301(17) 0.25259(17)
H18 H 0.058(3) -0.370(2) 0.238(2)
C27 C 0.18520(16) -0.22843(16) 0.22403(15)
H19 H 0.118(2) -0.156(2) 0.188(2)
loop_
_geom_bond_atom_site_label_1
_geom_bond_atom_site_label_2
_geom_bond_site_symmetry_1
_geom_bond_site_symmetry_2
S1 C11 1_555 1_555
O1 C1 1_555 1_555
N1 C1 1_555 1_555
C1 C2 1_555 1_555
C2 C3 1_555 1_555
C3 H1 1_555 1_555
C4 C3 1_555 1_555
H2 C4 1_555 1_555
C5 C4 1_555 1_555
H3 C5 1_555 1_555
C6 C5 1_555 1_555
H4 C6 1_555 1_555
C7 C2 1_555 1_555
C8 C7 1_555 1_555
C9 C8 1_555 1_555
H5 C9 1_555 1_555
C10 C9 1_555 1_555
C11 C10 1_555 1_555
C12 N1 1_555 1_555
C13 C10 1_555 1_555
H6 C13 1_555 1_555
C14 S1 1_555 1_555
H7 C14 1_555 1_555
C15 N1 1_555 1_555
H8 C15 1_555 1_555
H9 C15 1_555 1_555
C16 C15 1_555 1_555
C17 C16 1_555 1_555
H10 C17 1_555 1_555
C18 C17 1_555 1_555
H11 C18 1_555 1_555
C19 C18 1_555 1_555
H12 C19 1_555 1_555
C20 C19 1_555 1_555
H13 C20 1_555 1_555
C21 C16 1_555 1_555
H14 C21 1_555 1_555
C22 C9 1_555 1_555
C23 C22 1_555 1_555
H15 C23 1_555 1_555
C24 C23 1_555 1_555
H16 C24 1_555 1_555
C25 C24 1_555 1_555
H17 C25 1_555 1_555
C26 C25 1_555 1_555
H18 C26 1_555 1_555
C27 C22 1_555 1_555
H19 C27 1_555 1_555
C6 C7 1_555 1_555
C8 C12 1_555 1_555
C11 C12 1_555 1_555
C13 C14 1_555 1_555
C20 C21 1_555 1_555
C26 C27 1_555 1_555

#END
