
#######################################################################
#
#                 Cambridge Crystallographic Data Centre
#                                CCDC 
#
#######################################################################
#
# If this CIF has been generated from an entry in the Cambridge 
# Structural Database, then it will include bibliographic, chemical, 
# crystal, experimental, refinement or atomic coordinate data resulting 
# from the CCDC's data processing and validation procedures.
#
#######################################################################

data_POTRIA
_chemical_formula_moiety         'C42 H52 O16 S4,C3 H6 O1'
_chemical_name_systematic        
'5,7,19,21-Tetrabutoxy-13,27-dimethyl-2,10,16,24-tetraoxa-3,9,17,23-tetrathiapentacyclo[23.3.1.1^4,8^.1^11,15^.1^18,22^]dotriaconta-1(29),4(32),5,7,11(31),12,14,18(30),19,21,25,27-dodecaene 3,3,9,9,17,17,23,23-octaoxide acetone solvate'
_symmetry_cell_setting           orthorhombic
_symmetry_space_group_name_H-M   'P 21 21 21'
_symmetry_Int_Tables_number      19
_space_group_name_Hall           'P 2ac 2ab'
loop_
_symmetry_equiv_pos_site_id
_symmetry_equiv_pos_as_xyz
1 x,y,z
2 1/2-x,-y,1/2+z
3 -x,1/2+y,1/2-z
4 1/2+x,1/2-y,-z
_cell_length_a                   17.984(4)
_cell_length_b                   19.530(4)
_cell_length_c                   28.447(6)
_cell_angle_alpha                90
_cell_angle_beta                 90
_cell_angle_gamma                90
_cell_volume                     9991.37
_exptl_crystal_colour            colorless
_exptl_crystal_description       block
_chemical_melting_point          '199-200 deg.C'
_cell_formula_units_Z            8
_exptl_crystal_recrystallization_method 'acetone/ethyl acetate'
loop_
_atom_site_label
_atom_site_type_symbol
_atom_site_fract_x
_atom_site_fract_y
_atom_site_fract_z
S1 S 0.24833(8) 0.81820(7) 0.21663(4)
S2 S 0.44475(8) 0.64142(8) 0.14296(5)
S3 S 0.64312(7) 0.85067(7) 0.01409(5)
S4 S 0.47602(8) 1.03795(7) 0.10133(5)
O1 O 0.1908(2) 0.80685(19) 0.25012(11)
O2 O 0.31940(19) 0.84463(18) 0.23163(11)
O3 O 0.21126(19) 0.87395(18) 0.18183(11)
O4 O 0.4536(2) 0.5764(2) 0.16533(13)
O5 O 0.4917(2) 0.6981(2) 0.15535(12)
O6 O 0.4564(2) 0.62337(19) 0.08886(11)
O7 O 0.60923(19) 0.88661(19) -0.02408(11)
O8 O 0.72254(18) 0.8524(2) 0.01818(12)
O9 O 0.62561(19) 0.77050(18) 0.00925(12)
O10 O 0.4650(2) 1.05321(18) 0.05282(11)
O11 O 0.5117(2) 1.0864(2) 0.13086(14)
O12 O 0.39704(18) 1.02824(18) 0.12664(12)
O13 O 0.1367(2) 0.73136(19) 0.17149(13)
O14 O 0.3140(2) 0.57453(18) 0.10266(13)
O15 O 0.66178(19) 0.79082(19) 0.11036(11)
O16 O 0.4957(2) 0.95012(19) 0.18596(11)
C1 C 0.2644(3) 0.7468(3) 0.18120(16)
C2 C 0.3372(3) 0.7269(3) 0.17276(16)
H1 H 0.3762 0.7526 0.1850
C3 C 0.3523(3) 0.6693(3) 0.14628(17)
C4 C 0.2934(3) 0.6292(3) 0.12794(18)
C5 C 0.2196(3) 0.6494(3) 0.13508(18)
H2 H 0.1807 0.6246 0.1219
C6 C 0.2052(3) 0.7080(3) 0.16257(18)
C7 C 0.4681(3) 0.6767(3) 0.05496(18)
C8 C 0.5381(3) 0.7034(3) 0.05153(17)
H3 H 0.5752 0.6926 0.0731
C9 C 0.5508(3) 0.7478(3) 0.01390(17)
C10 C 0.4965(3) 0.7635(3) -0.01832(18)
H4 H 0.5069 0.7937 -0.0427
C11 C 0.4264(3) 0.7345(3) -0.01485(19)
C12 C 0.4120(3) 0.6900(3) 0.02281(18)
H5 H 0.3655 0.6697 0.0262
C13 C 0.3697(3) 0.7477(3) -0.0518(2)
H6 H 0.3245 0.7241 -0.0441
H7 H 0.3878 0.7316 -0.0816
H8 H 0.3601 0.7960 -0.0537
C14 C 0.5992(3) 0.8751(3) 0.06656(16)
C15 C 0.6126(3) 0.8434(3) 0.10964(17)
C16 C 0.5764(3) 0.8665(3) 0.15033(18)
H9 H 0.5827 0.8436 0.1787
C17 C 0.5310(3) 0.9240(3) 0.14781(18)
C18 C 0.5204(3) 0.9579(3) 0.10535(17)
C19 C 0.5517(3) 0.9320(3) 0.06399(17)
H10 H 0.5412 0.9522 0.0351
C20 C 0.3473(3) 0.9739(3) 0.11563(17)
C21 C 0.3087(3) 0.9499(3) 0.15333(17)
H11 H 0.3169 0.9667 0.1835
C22 C 0.2564(3) 0.8991(3) 0.14453(16)
C23 C 0.2448(3) 0.8718(3) 0.09991(16)
H12 H 0.2099 0.8373 0.0953
C24 C 0.2858(3) 0.8970(3) 0.06253(17)
C25 C 0.3376(3) 0.9488(3) 0.07053(18)
H13 H 0.3654 0.9664 0.0458
C26 C 0.2724(4) 0.8727(4) 0.01307(18)
H14 H 0.3061 0.8954 -0.0079
H15 H 0.2221 0.8829 0.0041
H16 H 0.2803 0.8241 0.0114
C27 C 0.0721(3) 0.6949(3) 0.1548(2)
H17 H 0.0695 0.6497 0.1689
H18 H 0.0736 0.6901 0.1209
C28 C 0.0059(3) 0.7383(3) 0.1698(2)
H19 H 0.0041 0.7400 0.2039
H20 H -0.0394 0.7166 0.1589
C29 C 0.0092(4) 0.8127(4) 0.1503(2)
H21 H 0.0573 0.8321 0.1583
H22 H 0.0061 0.8107 0.1163
C30 C -0.0490(4) 0.8590(4) 0.1675(2)
H23 H -0.0417 0.9038 0.1544
H24 H -0.0465 0.8617 0.2012
H25 H -0.0968 0.8419 0.1583
C31 C 0.2590(3) 0.5276(3) 0.08403(19)
H26 H 0.2225 0.5519 0.0652
H27 H 0.2335 0.5039 0.1093
C32 C 0.3026(4) 0.4774(3) 0.0539(2)
H28 H 0.3225 0.5017 0.0270
H29 H 0.2687 0.4427 0.0422
C33 C 0.3664(4) 0.4421(4) 0.0796(3)
H30 H 0.3966 0.4177 0.0568
H31 H 0.3975 0.4767 0.0941
C34 C 0.3409(4) 0.3921(4) 0.1172(3)
H32 H 0.3835 0.3722 0.1322
H33 H 0.3117 0.3565 0.1029
H34 H 0.3114 0.4158 0.1401
C35 C 0.6805(3) 0.7617(3) 0.15638(17)
H35 H 0.6371 0.7402 0.1703
H36 H 0.6978 0.7974 0.1774
C36 C 0.7414(4) 0.7091(4) 0.1485(2)
H37 H 0.7881 0.7367 0.1420
H38 H 0.7521 0.6878 0.1788
C37 C 0.7371(8) 0.6554(6) 0.1125(4)
H39 H 0.7837 0.6324 0.1068
H40 H 0.7188 0.6739 0.0824
C38 C 0.6809(7) 0.6075(7) 0.1338(5)
H41 H 0.6712 0.5699 0.1129
H42 H 0.6346 0.6321 0.1389
H43 H 0.6989 0.5910 0.1631
C39 C 0.4983(3) 0.9103(3) 0.22942(17)
H44 H 0.5493 0.9058 0.2401
H45 H 0.4783 0.8648 0.2241
C40 C 0.4521(3) 0.9478(3) 0.26627(17)
H46 H 0.4737 0.9925 0.2724
H47 H 0.4019 0.9545 0.2546
C41 C 0.4500(3) 0.9068(3) 0.31125(17)
H48 H 0.4999 0.9034 0.3239
H49 H 0.4330 0.8607 0.3042
C42 C 0.3991(4) 0.9381(3) 0.3484(2)
H50 H 0.3993 0.9098 0.3760
H51 H 0.3494 0.9411 0.3363
H52 H 0.4166 0.9831 0.3564
S5 S 0.75155(8) 0.35949(7) 0.00748(4)
S6 S 0.94286(8) 0.53935(7) 0.08154(5)
S7 S 1.12721(8) 0.29971(7) 0.20282(4)
S8 S 0.92756(8) 0.12510(8) 0.12917(5)
O17 O 0.7837(2) 0.39228(19) -0.03294(11)
O18 O 0.67347(19) 0.36613(19) 0.01519(12)
O19 O 0.76227(18) 0.27834(17) 0.00301(12)
O20 O 0.94959(19) 0.54899(18) 0.03173(11)
O21 O 0.9167(2) 0.59473(18) 0.10988(13)
O22 O 1.02217(18) 0.52400(17) 0.10376(11)
O23 O 1.1777(2) 0.2865(2) 0.24020(11)
O24 O 1.0574(2) 0.33152(19) 0.21219(11)
O25 O 1.1737(2) 0.34788(18) 0.16780(11)
O26 O 0.8819(2) 0.1828(2) 0.14229(13)
O27 O 0.9162(2) 0.0593(2) 0.15015(13)
O28 O 0.9168(2) 0.11017(18) 0.07424(12)
O29 O 0.74076(19) 0.30440(18) 0.10431(11)
O30 O 0.9152(2) 0.46672(19) 0.17018(11)
O31 O 1.2377(2) 0.2070(2) 0.16167(12)
O32 O 1.0574(2) 0.05159(19) 0.09420(12)
C43 C 0.8032(3) 0.3845(3) 0.05646(16)
C44 C 0.7904(3) 0.3559(3) 0.10202(17)
C45 C 0.8288(3) 0.3818(3) 0.14089(16)
H53 H 0.8221 0.3625 0.1705
C46 C 0.8778(3) 0.4372(3) 0.13473(17)
C47 C 0.8897(3) 0.4646(3) 0.09014(16)
C48 C 0.8534(3) 0.4371(3) 0.05137(18)
H54 H 0.8631 0.4544 0.0216
C49 C 1.0612(3) 0.4612(3) 0.09508(18)
C50 C 1.0934(3) 0.4341(3) 0.13509(18)
H55 H 1.0872 0.4539 0.1645
C51 C 1.1355(3) 0.3757(3) 0.12859(18)
C52 C 1.1439(3) 0.3455(3) 0.08567(18)
H56 H 1.1722 0.3059 0.0829
C53 C 1.1107(3) 0.3733(3) 0.04653(17)
C54 C 1.0680(3) 0.4328(3) 0.05129(18)
H57 H 1.0448 0.4525 0.0254
C55 C 1.1213(4) 0.3415(4) -0.00190(19)
H58 H 1.0946 0.3679 -0.0248
H59 H 1.1028 0.2954 -0.0017
H60 H 1.1733 0.3413 -0.0097
C56 C 1.1096(3) 0.2262(3) 0.16887(17)
C57 C 1.0367(3) 0.2090(3) 0.15964(17)
H61 H 0.9983 0.2370 0.1702
C58 C 1.0208(3) 0.1499(3) 0.13457(17)
C59 C 1.0786(3) 0.1083(3) 0.11770(17)
C60 C 1.1528(3) 0.1265(3) 0.12583(17)
H62 H 1.1912 0.0998 0.1139
C61 C 1.1684(3) 0.1849(3) 0.15193(17)
C62 C 0.9083(3) 0.1647(3) 0.04174(17)
C63 C 0.8426(3) 0.2003(3) 0.04087(17)
H63 H 0.8056 0.1929 0.0632
C64 C 0.8339(3) 0.2478(3) 0.00513(18)
C65 C 0.8868(3) 0.2584(3) -0.02893(18)
H64 H 0.8786 0.2901 -0.0528
C66 C 0.9534(3) 0.2208(3) -0.02729(18)
C67 C 0.9639(3) 0.1745(3) 0.00864(18)
H65 H 1.0081 0.1500 0.0107
C68 C 1.0091(3) 0.2274(3) -0.06678(19)
H66 H 0.9928 0.2621 -0.0884
H67 H 1.0133 0.1844 -0.0829
H68 H 1.0567 0.2399 -0.0541
C69 C 0.7265(3) 0.2743(3) 0.15038(16)
H69 H 0.7070 0.3086 0.1717
H70 H 0.7721 0.2560 0.1636
C70 C 0.6704(4) 0.2178(3) 0.1435(2)
H71 H 0.6919 0.1825 0.1237
H72 H 0.6272 0.2361 0.1274
C71 C 0.6454(4) 0.1852(4) 0.1909(2)
H73 H 0.6334 0.2212 0.2132
H74 H 0.6009 0.1581 0.1858
C72 C 0.7048(6) 0.1408(5) 0.2108(3)
H75 H 0.6884 0.1221 0.2403
H76 H 0.7490 0.1675 0.2158
H77 H 0.7154 0.1042 0.1894
C73 C 0.9019(3) 0.4437(3) 0.21879(16)
H78 H 0.9232 0.3987 0.2237
H79 H 0.8490 0.4415 0.2252
C74 C 0.9386(4) 0.4953(3) 0.25036(18)
H80 H 0.9917 0.4947 0.2445
H81 H 0.9307 0.4817 0.2828
C75 C 0.9106(5) 0.5673(4) 0.2441(2)
H82 H 0.9362 0.5967 0.2663
H83 H 0.9236 0.5827 0.2127
C76 C 0.8302(5) 0.5762(4) 0.2505(3)
H84 H 0.8173 0.6233 0.2456
H85 H 0.8167 0.5628 0.2818
H86 H 0.8041 0.5481 0.2282
C77 C 1.3012(3) 0.1642(3) 0.14892(19)
H87 H 1.3028 0.1576 0.1151
H88 H 1.2973 0.1198 0.1639
C78 C 1.3696(3) 0.2007(3) 0.16532(18)
H89 H 1.3691 0.2471 0.1532
H90 H 1.4130 0.1778 0.1525
C79 C 1.3763(3) 0.2032(4) 0.2193(2)
H91 H 1.3287 0.2206 0.2324
H92 H 1.3770 0.1576 0.2331
C80 C 1.4461(8) 0.2459(10) 0.2291(6)
H93 H 1.4438 0.2875 0.2152
H94 H 1.4877 0.2184 0.2113
H95 H 1.4592 0.2438 0.2603
C81 C 1.1131(3) 0.0048(3) 0.0761(2)
H96 H 1.1450 -0.0116 0.1011
H97 H 1.1436 0.0270 0.0524
C82 C 1.0697(4) -0.0530(3) 0.0549(2)
H98 H 1.0385 -0.0731 0.0790
H99 H 1.1041 -0.0880 0.0443
C83 C 1.0204(4) -0.0306(3) 0.0132(2)
H100 H 0.9857 -0.0671 0.0059
H101 H 0.9917 0.0093 0.0224
C84 C 1.0649(4) -0.0136(4) -0.0305(2)
H102 H 1.0316 -0.0001 -0.0552
H103 H 1.0926 -0.0531 -0.0402
H104 H 1.0985 0.0233 -0.0237
O33 O 0.2183(3) 0.5164(3) 0.19660(18)
C85 C 0.3070(4) 0.4564(5) 0.2444(3)
H105 H 0.3420 0.4686 0.2204
H106 H 0.3034 0.4075 0.2464
H107 H 0.3235 0.4744 0.2741
C86 C 0.2325(5) 0.4857(4) 0.2326(3)
C87 C 0.1705(4) 0.4729(5) 0.2666(3)
H108 H 0.1257 0.4938 0.2551
H109 H 0.1830 0.4922 0.2966
H110 H 0.1629 0.4245 0.2699
O34 O 0.7416(6) 0.9358(6) 0.1363(2)
C88 C 0.7278(5) 1.0241(5) 0.0813(4)
H111 H 0.6842 1.0358 0.0990
H112 H 0.7136 1.0121 0.0498
H113 H 0.7609 1.0626 0.0805
C89 C 0.7670(7) 0.9631(8) 0.1045(4)
C90 C 0.8369(6) 0.9442(5) 0.0793(4)
H114 H 0.8600 0.9063 0.0949
H115 H 0.8702 0.9826 0.0793
H116 H 0.8254 0.9317 0.0475
C91? C 0.7070(9) 0.6476(6) 0.1232(7)
C92? C 0.7362(8) 0.5733(6) 0.1178(5)
C93? C 1.3927(6) 0.1318(6) 0.2413(3)
H117? H 0.7648 0.6971 0.1790
H118? H 0.7825 0.7306 0.1298
H119? H 0.6982 0.6633 0.0908
H120? H 0.6570 0.6431 0.1366
H121? H 0.7002 0.5466 0.0997
H122? H 0.7406 0.5529 0.1483
H123? H 0.7823 0.5733 0.1020
H124? H 1.4143 0.2346 0.2286
H125? H 1.3334 0.2279 0.2332
H126? H 1.3481 0.1038 0.2371
H127? H 1.4023 0.1373 0.2736
H128? H 1.4326 0.1122 0.2249
loop_
_geom_bond_atom_site_label_1
_geom_bond_atom_site_label_2
_geom_bond_site_symmetry_1
_geom_bond_site_symmetry_2
S1 O1 1_555 1_555
S2 O4 1_555 1_555
S3 O7 1_555 1_555
S4 O10 1_555 1_555
O2 S1 1_555 1_555
O3 S1 1_555 1_555
O5 S2 1_555 1_555
O6 S2 1_555 1_555
O8 S3 1_555 1_555
O9 S3 1_555 1_555
O11 S4 1_555 1_555
O12 S4 1_555 1_555
O13 C6 1_555 1_555
O14 C4 1_555 1_555
O15 C15 1_555 1_555
O16 C17 1_555 1_555
C1 S1 1_555 1_555
C2 C1 1_555 1_555
H1 C2 1_555 1_555
C3 S2 1_555 1_555
C4 C3 1_555 1_555
C5 C4 1_555 1_555
H2 C5 1_555 1_555
C6 C1 1_555 1_555
C7 O6 1_555 1_555
C8 C7 1_555 1_555
H3 C8 1_555 1_555
C9 O9 1_555 1_555
C10 C9 1_555 1_555
H4 C10 1_555 1_555
C11 C10 1_555 1_555
C12 C7 1_555 1_555
H5 C12 1_555 1_555
C13 C11 1_555 1_555
H6 C13 1_555 1_555
H7 C13 1_555 1_555
H8 C13 1_555 1_555
C14 S3 1_555 1_555
C15 C14 1_555 1_555
C16 C15 1_555 1_555
H9 C16 1_555 1_555
C17 C16 1_555 1_555
C18 S4 1_555 1_555
C19 C14 1_555 1_555
H10 C19 1_555 1_555
C20 O12 1_555 1_555
C21 C20 1_555 1_555
H11 C21 1_555 1_555
C22 O3 1_555 1_555
C23 C22 1_555 1_555
H12 C23 1_555 1_555
C24 C23 1_555 1_555
C25 C20 1_555 1_555
H13 C25 1_555 1_555
C26 C24 1_555 1_555
H14 C26 1_555 1_555
H15 C26 1_555 1_555
H16 C26 1_555 1_555
C27 O13 1_555 1_555
H17 C27 1_555 1_555
H18 C27 1_555 1_555
C28 C27 1_555 1_555
H19 C28 1_555 1_555
H20 C28 1_555 1_555
C29 C28 1_555 1_555
H21 C29 1_555 1_555
H22 C29 1_555 1_555
C30 C29 1_555 1_555
H23 C30 1_555 1_555
H24 C30 1_555 1_555
H25 C30 1_555 1_555
C31 O14 1_555 1_555
H26 C31 1_555 1_555
H27 C31 1_555 1_555
C32 C31 1_555 1_555
H28 C32 1_555 1_555
H29 C32 1_555 1_555
C33 C32 1_555 1_555
H30 C33 1_555 1_555
H31 C33 1_555 1_555
C34 C33 1_555 1_555
H32 C34 1_555 1_555
H33 C34 1_555 1_555
H34 C34 1_555 1_555
C35 O15 1_555 1_555
H35 C35 1_555 1_555
H36 C35 1_555 1_555
C36 C35 1_555 1_555
H37 C36 1_555 1_555
H38 C36 1_555 1_555
C37 C36 1_555 1_555
H39 C37 1_555 1_555
H40 C37 1_555 1_555
C38 C37 1_555 1_555
H41 C38 1_555 1_555
H42 C38 1_555 1_555
H43 C38 1_555 1_555
C39 O16 1_555 1_555
H44 C39 1_555 1_555
H45 C39 1_555 1_555
C40 C39 1_555 1_555
H46 C40 1_555 1_555
H47 C40 1_555 1_555
C41 C40 1_555 1_555
H48 C41 1_555 1_555
H49 C41 1_555 1_555
C42 C41 1_555 1_555
H50 C42 1_555 1_555
H51 C42 1_555 1_555
H52 C42 1_555 1_555
S5 O17 1_555 1_555
S6 O20 1_555 1_555
S7 O23 1_555 1_555
S8 O26 1_555 1_555
O18 S5 1_555 1_555
O19 S5 1_555 1_555
O21 S6 1_555 1_555
O22 S6 1_555 1_555
O24 S7 1_555 1_555
O25 S7 1_555 1_555
O27 S8 1_555 1_555
O28 S8 1_555 1_555
O29 C44 1_555 1_555
O30 C46 1_555 1_555
O31 C61 1_555 1_555
O32 C59 1_555 1_555
C43 S5 1_555 1_555
C44 C43 1_555 1_555
C45 C44 1_555 1_555
H53 C45 1_555 1_555
C46 C45 1_555 1_555
C47 S6 1_555 1_555
C48 C43 1_555 1_555
H54 C48 1_555 1_555
C49 O22 1_555 1_555
C50 C49 1_555 1_555
H55 C50 1_555 1_555
C51 O25 1_555 1_555
C52 C51 1_555 1_555
H56 C52 1_555 1_555
C53 C52 1_555 1_555
C54 C49 1_555 1_555
H57 C54 1_555 1_555
C55 C53 1_555 1_555
H58 C55 1_555 1_555
H59 C55 1_555 1_555
H60 C55 1_555 1_555
C56 S7 1_555 1_555
C57 C56 1_555 1_555
H61 C57 1_555 1_555
C58 S8 1_555 1_555
C59 C58 1_555 1_555
C60 C59 1_555 1_555
H62 C60 1_555 1_555
C61 C56 1_555 1_555
C62 O28 1_555 1_555
C63 C62 1_555 1_555
H63 C63 1_555 1_555
C64 O19 1_555 1_555
C65 C64 1_555 1_555
H64 C65 1_555 1_555
C66 C65 1_555 1_555
C67 C62 1_555 1_555
H65 C67 1_555 1_555
C68 C66 1_555 1_555
H66 C68 1_555 1_555
H67 C68 1_555 1_555
H68 C68 1_555 1_555
C69 O29 1_555 1_555
H69 C69 1_555 1_555
H70 C69 1_555 1_555
C70 C69 1_555 1_555
H71 C70 1_555 1_555
H72 C70 1_555 1_555
C71 C70 1_555 1_555
H73 C71 1_555 1_555
H74 C71 1_555 1_555
C72 C71 1_555 1_555
H75 C72 1_555 1_555
H76 C72 1_555 1_555
H77 C72 1_555 1_555
C73 O30 1_555 1_555
H78 C73 1_555 1_555
H79 C73 1_555 1_555
C74 C73 1_555 1_555
H80 C74 1_555 1_555
H81 C74 1_555 1_555
C75 C74 1_555 1_555
H82 C75 1_555 1_555
H83 C75 1_555 1_555
C76 C75 1_555 1_555
H84 C76 1_555 1_555
H85 C76 1_555 1_555
H86 C76 1_555 1_555
C77 O31 1_555 1_555
H87 C77 1_555 1_555
H88 C77 1_555 1_555
C78 C77 1_555 1_555
H89 C78 1_555 1_555
H90 C78 1_555 1_555
C79 C78 1_555 1_555
H91 C79 1_555 1_555
H92 C79 1_555 1_555
C80 C79 1_555 1_555
H93 C80 1_555 1_555
H94 C80 1_555 1_555
H95 C80 1_555 1_555
C81 O32 1_555 1_555
H96 C81 1_555 1_555
H97 C81 1_555 1_555
C82 C81 1_555 1_555
H98 C82 1_555 1_555
H99 C82 1_555 1_555
C83 C82 1_555 1_555
H100 C83 1_555 1_555
H101 C83 1_555 1_555
C84 C83 1_555 1_555
H102 C84 1_555 1_555
H103 C84 1_555 1_555
H104 C84 1_555 1_555
O33 C86 1_555 1_555
C85 H105 1_555 1_555
H106 C85 1_555 1_555
H107 C85 1_555 1_555
C86 C85 1_555 1_555
C87 C86 1_555 1_555
H108 C87 1_555 1_555
H109 C87 1_555 1_555
H110 C87 1_555 1_555
O34 C89 1_555 1_555
C88 H111 1_555 1_555
H112 C88 1_555 1_555
H113 C88 1_555 1_555
C89 C88 1_555 1_555
C90 C89 1_555 1_555
H114 C90 1_555 1_555
H115 C90 1_555 1_555
H116 C90 1_555 1_555
C2 C3 1_555 1_555
C5 C6 1_555 1_555
C8 C9 1_555 1_555
C11 C12 1_555 1_555
C17 C18 1_555 1_555
C18 C19 1_555 1_555
C21 C22 1_555 1_555
C24 C25 1_555 1_555
C46 C47 1_555 1_555
C47 C48 1_555 1_555
C50 C51 1_555 1_555
C53 C54 1_555 1_555
C57 C58 1_555 1_555
C60 C61 1_555 1_555
C63 C64 1_555 1_555
C66 C67 1_555 1_555

#END
