
#######################################################################
#
#                 Cambridge Crystallographic Data Centre
#                                CCDC 
#
#######################################################################
#
# If this CIF has been generated from an entry in the Cambridge 
# Structural Database, then it will include bibliographic, chemical, 
# crystal, experimental, refinement or atomic coordinate data resulting 
# from the CCDC's data processing and validation procedures.
#
#######################################################################

data_POTREW
_chemical_formula_moiety         'C36 H40 O16 S4,2(C3 H6 O1)'
_chemical_name_systematic        
'5,7,19,21-Tetrapropoxy-2,10,16,24-tetraoxa-3,9,17,23-tetrathiapentacyclo[23.3.1.1^4,8^.1^11,15^.1^18,22^]dotriaconta-1(29),4(32),5,7,11(31),12,14,18(30),19,21,25,27-dodecaene 3,3,9,9,17,17,23,23-octaoxide acetone solvate'
_symmetry_cell_setting           tetragonal
_symmetry_space_group_name_H-M   'P -4 21 m'
_symmetry_Int_Tables_number      113
_space_group_name_Hall           'P -4 2ab'
loop_
_symmetry_equiv_pos_site_id
_symmetry_equiv_pos_as_xyz
1 x,y,z
2 -x,-y,z
3 y,-x,-z
4 -y,x,-z
5 1/2-x,1/2+y,-z
6 1/2+x,1/2-y,-z
7 1/2-y,1/2-x,z
8 1/2+y,1/2+x,z
_cell_length_a                   18.020(3)
_cell_length_b                   18.020(3)
_cell_length_c                   7.3542(15)
_cell_angle_alpha                90
_cell_angle_beta                 90
_cell_angle_gamma                90
_cell_volume                     2388.06
_exptl_crystal_colour            colorless
_exptl_crystal_description       block
_chemical_melting_point          '294-295 deg.C'
_cell_formula_units_Z            2
_exptl_crystal_recrystallization_method 'acetone/petroleum ether'
loop_
_atom_site_label
_atom_site_type_symbol
_atom_site_fract_x
_atom_site_fract_y
_atom_site_fract_z
S1 S 0.72661(5) 0.98367(4) 0.79394(11)
O1 O 0.78148(11) 0.90819(11) 0.4705(3)
O2 O 0.73330(11) 1.04537(11) 0.6378(3)
O3 O 0.80175(12) 0.96884(12) 0.8390(3)
O4 O 0.67615(13) 1.00957(13) 0.9301(3)
C1 C 0.68758(17) 0.81242(17) 0.4525(6)
H1 H 0.7082 0.7918 0.3482
C2 C 0.71944(17) 0.87497(16) 0.5301(4)
C3 C 0.68592(18) 0.90787(17) 0.6850(5)
C4 C 0.62234(16) 0.87766(16) 0.7583(6)
H2 H 0.5997 0.9003 0.8576
C5 C 0.63483(17) 1.13483(17) 0.6480(7)
H3 H 0.6519 1.1519 0.7598
C6 C 0.66788(17) 1.07565(18) 0.5627(5)
C7 C 0.64310(19) 1.04876(19) 0.3968(4)
H4 H 0.6664 1.0087 0.3412
C8 C 0.58304(18) 1.08304(18) 0.3163(7)
H5 H 0.5653 1.0653 0.2057
C9 C 0.81933(18) 0.87995(18) 0.3095(5)
H6 H 0.7877 0.8845 0.2034
H7 H 0.8321 0.8281 0.3256
C10 C 0.88843(18) 0.92601(19) 0.2865(6)
H8 H 0.9166 0.9069 0.1843
H9 H 0.9189 0.9209 0.3945
C11 C 0.8728(2) 1.00715(19) 0.2549(4)
H10 H 0.9189 1.0335 0.2429
H11 H 0.8454 1.0267 0.3561
H12 H 0.8442 1.0129 0.1456
S1F S 0.51633(4) 0.77339(5) 0.79394(11)
S1G S 0.48367(4) 1.22661(5) 0.79394(11)
S1A S 0.27339(5) 1.01633(4) 0.79394(11)
O1F O 0.59181(11) 0.71852(11) 0.4705(3)
O1G O 0.40819(11) 1.28148(11) 0.4705(3)
O1A O 0.21852(11) 1.09181(11) 0.4705(3)
O2F O 0.45463(11) 0.76670(11) 0.6378(3)
O2G O 0.54537(11) 1.23330(11) 0.6378(3)
O2A O 0.26670(11) 0.95463(11) 0.6378(3)
O3F O 0.53116(12) 0.69825(12) 0.8390(3)
O3G O 0.46884(12) 1.30175(12) 0.8390(3)
O3A O 0.19825(12) 1.03116(12) 0.8390(3)
O4F O 0.49043(13) 0.82385(13) 0.9301(3)
O4G O 0.50957(13) 1.17615(13) 0.9301(3)
O4A O 0.32385(13) 0.99043(13) 0.9301(3)
C1A C 0.31242(17) 1.18758(17) 0.4525(6)
H1A H 0.2918 1.2082 0.3482
C2F C 0.62503(16) 0.78056(17) 0.5301(4)
C2G C 0.37497(16) 1.21944(17) 0.5301(4)
C2A C 0.28056(17) 1.12503(16) 0.5301(4)
C3F C 0.59213(17) 0.81408(18) 0.6850(5)
C3G C 0.40787(17) 1.18592(18) 0.6850(5)
C3A C 0.31408(18) 1.09213(17) 0.6850(5)
C4A C 0.37766(16) 1.12234(16) 0.7583(6)
H2A H 0.4003 1.0997 0.8576
C5A C 0.36517(17) 0.86517(17) 0.6480(7)
H3A H 0.3481 0.8481 0.7598
C6F C 0.42435(18) 0.83212(17) 0.5627(5)
C6G C 0.57565(18) 1.16788(17) 0.5627(5)
C6A C 0.33212(17) 0.92435(18) 0.5627(5)
C7F C 0.45124(19) 0.85690(19) 0.3968(4)
C7G C 0.54876(19) 1.14310(19) 0.3968(4)
C7A C 0.35690(19) 0.95124(19) 0.3968(4)
H4F H 0.4913 0.8336 0.3412
H4G H 0.5087 1.1664 0.3412
H4A H 0.3336 0.9913 0.3412
C8A C 0.41696(18) 0.91696(18) 0.3163(7)
H5A H 0.4347 0.9347 0.2057
C9F C 0.62005(18) 0.68067(18) 0.3095(5)
C9G C 0.37995(18) 1.31933(18) 0.3095(5)
C9A C 0.18067(18) 1.12005(18) 0.3095(5)
H6F H 0.6155 0.7123 0.2034
H6G H 0.3845 1.2877 0.2034
H6A H 0.2123 1.1155 0.2034
H7F H 0.6719 0.6679 0.3256
H7G H 0.3281 1.3321 0.3256
H7A H 0.1679 1.1719 0.3256
C10F C 0.57399(19) 0.61157(18) 0.2865(6)
C10G C 0.42601(19) 1.38843(18) 0.2865(6)
C10A C 0.11157(18) 1.07399(19) 0.2865(6)
H8F H 0.5931 0.5834 0.1843
H8G H 0.4069 1.4166 0.1843
H8A H 0.0834 1.0931 0.1843
H9F H 0.5791 0.5811 0.3945
H9G H 0.4209 1.4189 0.3945
H9A H 0.0811 1.0791 0.3945
C11F C 0.49285(19) 0.6272(2) 0.2549(4)
C11G C 0.50715(19) 1.3728(2) 0.2549(4)
C11A C 0.1272(2) 0.99285(19) 0.2549(4)
H10F H 0.4665 0.5811 0.2429
H10G H 0.5335 1.4189 0.2429
H10A H 0.0811 0.9665 0.2429
H11F H 0.4733 0.6546 0.3561
H11G H 0.5267 1.3454 0.3561
H11A H 0.1546 0.9733 0.3561
H12F H 0.4871 0.6558 0.1456
H12G H 0.5129 1.3442 0.1456
H12A H 0.1558 0.9871 0.1456
O5 O 0.77735(17) 0.27735(17) 0.9778(6)
C12 C 0.7411(2) 0.2411(2) 1.0880(7)
C13 C 0.66928(19) 0.2694(2) 1.1595(6)
H13 H 0.6583 0.3165 1.1045
H14 H 0.6727 0.2753 1.2890
H15 H 0.6305 0.2348 1.1311
C13G C 0.7694(2) 0.16928(19) 1.1595(6)
H13G H 0.8165 0.1583 1.1045
H14G H 0.7753 0.1727 1.2890
H15G H 0.7348 0.1305 1.1311
loop_
_geom_bond_atom_site_label_1
_geom_bond_atom_site_label_2
_geom_bond_site_symmetry_1
_geom_bond_site_symmetry_2
S1 O2 1_555 1_555
O1 C2 1_555 1_555
O2 C6 1_555 1_555
O3 S1 1_555 1_555
O4 S1 1_555 1_555
C1 H1 1_555 1_555
C2 C1 1_555 1_555
C3 S1 1_555 1_555
C4 C3 1_555 1_555
H2 C4 1_555 1_555
C5 H3 1_555 1_555
C6 C5 1_555 1_555
C7 C6 1_555 1_555
H4 C7 1_555 1_555
C8 C7 1_555 1_555
H5 C8 1_555 1_555
C9 O1 1_555 1_555
H6 C9 1_555 1_555
H7 C9 1_555 1_555
C10 C9 1_555 1_555
H8 C10 1_555 1_555
H9 C10 1_555 1_555
C11 C10 1_555 1_555
H10 C11 1_555 1_555
H11 C11 1_555 1_555
H12 C11 1_555 1_555
O5 C12 1_555 1_555
C12 C13 1_555 1_555
C13 H13 1_555 1_555
H14 C13 1_555 1_555
H15 C13 1_555 1_555
S1F O2F 1_555 1_555
S1G O2G 1_555 1_555
S1A O2A 1_555 1_555
O1F C2F 1_555 1_555
O1G C2G 1_555 1_555
O1A C2A 1_555 1_555
O2F C6F 1_555 1_555
O2G C6G 1_555 1_555
O2A C6A 1_555 1_555
O3F S1F 1_555 1_555
O3G S1G 1_555 1_555
O3A S1A 1_555 1_555
O4F S1F 1_555 1_555
O4G S1G 1_555 1_555
O4A S1A 1_555 1_555
C1A H1A 1_555 1_555
C2F C1 1_555 1_555
C2G C1A 1_555 1_555
C2A C1A 1_555 1_555
C3F C4 1_555 1_555
C3G S1G 1_555 1_555
C3A S1A 1_555 1_555
C4A C3G 1_555 1_555
H2A C4A 1_555 1_555
C5A H3A 1_555 1_555
C6F C5A 1_555 1_555
C6G C5 1_555 1_555
C6A C5A 1_555 1_555
C7F C6F 1_555 1_555
C7G C8 1_555 1_555
C7A C6A 1_555 1_555
H4F C7F 1_555 1_555
H4G C7G 1_555 1_555
H4A C7A 1_555 1_555
C8A C7F 1_555 1_555
H5A C8A 1_555 1_555
C9F O1F 1_555 1_555
C9G O1G 1_555 1_555
C9A O1A 1_555 1_555
H6F C9F 1_555 1_555
H6G C9G 1_555 1_555
H6A C9A 1_555 1_555
H7F C9F 1_555 1_555
H7G C9G 1_555 1_555
H7A C9A 1_555 1_555
C10F C9F 1_555 1_555
C10G C9G 1_555 1_555
C10A C9A 1_555 1_555
H8F C10F 1_555 1_555
H8G C10G 1_555 1_555
H8A C10A 1_555 1_555
H9F C10F 1_555 1_555
H9G C10G 1_555 1_555
H9A C10A 1_555 1_555
C11F C10F 1_555 1_555
C11G C10G 1_555 1_555
C11A C10A 1_555 1_555
H10F C11F 1_555 1_555
H10G C11G 1_555 1_555
H10A C11A 1_555 1_555
H11F C11F 1_555 1_555
H11G C11G 1_555 1_555
H11A C11A 1_555 1_555
H12F C11F 1_555 1_555
H12G C11G 1_555 1_555
H12A C11A 1_555 1_555
C13G C12 1_555 1_555
H13G C13G 1_555 1_555
H14G C13G 1_555 1_555
H15G C13G 1_555 1_555
C2 C3 1_555 1_555
S1F C3F 1_555 1_555
C2F C3F 1_555 1_555
C2G C3G 1_555 1_555
C2A C3A 1_555 1_555
C3A C4A 1_555 1_555
C6G C7G 1_555 1_555
C7A C8A 1_555 1_555

#END
