
#######################################################################
#
#                 Cambridge Crystallographic Data Centre
#                                CCDC 
#
#######################################################################
#
# If this CIF has been generated from an entry in the Cambridge 
# Structural Database, then it will include bibliographic, chemical, 
# crystal, experimental, refinement or atomic coordinate data resulting 
# from the CCDC's data processing and validation procedures.
#
#######################################################################

data_POVFEN
_chemical_formula_moiety         'C32 H19 F1'
_chemical_name_systematic        
'7-(4-fluorophenyl)-12-phenylbenzo[k]fluoranthene unknown solvate'
_symmetry_cell_setting           monoclinic
_symmetry_space_group_name_H-M   'P 21/c'
_symmetry_Int_Tables_number      14
_space_group_name_Hall           '-P 2ybc'
loop_
_symmetry_equiv_pos_site_id
_symmetry_equiv_pos_as_xyz
1 x,y,z
2 -x,1/2+y,1/2-z
3 -x,-y,-z
4 x,1/2-y,1/2+z
_cell_length_a                   16.124(3)
_cell_length_b                   13.393(3)
_cell_length_c                   11.878(2)
_cell_angle_alpha                90
_cell_angle_beta                 93.58(3)
_cell_angle_gamma                90
_cell_volume                     2560.03
_exptl_crystal_colour            'light yellow'
_exptl_crystal_description       block
_cell_formula_units_Z            4
loop_
_atom_site_label
_atom_site_type_symbol
_atom_site_fract_x
_atom_site_fract_y
_atom_site_fract_z
F1 F 0.12303(18) 0.6309(2) 0.92830(19)
C1 C 0.42954(19) 0.5948(2) 0.3669(2)
C2 C 0.49163(19) 0.5949(2) 0.2911(3)
H1 H 0.4797 0.5768 0.2145
C3 C 0.5731(2) 0.6226(2) 0.3302(3)
H2 H 0.6156 0.6235 0.2784
C4 C 0.5927(2) 0.6483(2) 0.4407(3)
H3 H 0.6483 0.6663 0.4635
C5 C 0.53179(19) 0.6483(2) 0.5209(3)
C6 C 0.5414(2) 0.6728(2) 0.6369(3)
H4 H 0.5944 0.6922 0.6690
C7 C 0.4745(2) 0.6688(2) 0.7037(3)
H5 H 0.4829 0.6850 0.7815
C8 C 0.3943(2) 0.6418(2) 0.6612(3)
H6 H 0.3495 0.6403 0.7094
C9 C 0.38164(19) 0.6174(2) 0.5490(2)
C10 C 0.45138(19) 0.6207(2) 0.4807(3)
C11 C 0.30960(19) 0.5886(2) 0.4722(2)
C12 C 0.2275(2) 0.5785(2) 0.4913(3)
C13 C 0.1700(2) 0.5557(3) 0.3971(3)
C14 C 0.0835(2) 0.5467(3) 0.4097(3)
H7 H 0.0628 0.5554 0.4822
C15 C 0.0292(2) 0.5259(4) 0.3199(3)
H8 H -0.0285 0.5202 0.3305
C16 C 0.0582(2) 0.5127(4) 0.2125(3)
H9 H 0.0200 0.4985 0.1504
C17 C 0.1408(2) 0.5201(3) 0.1963(3)
H10 H 0.1596 0.5111 0.1227
C18 C 0.1996(2) 0.5411(3) 0.2875(3)
C19 C 0.2861(2) 0.5506(2) 0.2697(3)
C20 C 0.33941(19) 0.5746(2) 0.3603(2)
C21 C 0.31774(19) 0.5387(2) 0.1545(3)
C22 C 0.3249(2) 0.6218(3) 0.0864(3)
H11 H 0.3060 0.6848 0.1111
C23 C 0.3596(2) 0.6143(3) -0.0179(3)
H12 H 0.3643 0.6718 -0.0637
C24 C 0.3871(2) 0.5226(3) -0.0545(3)
H13 H 0.4111 0.5171 -0.1252
C25 C 0.3795(2) 0.4393(3) 0.0124(3)
H14 H 0.3984 0.3764 -0.0124
C26 C 0.3445(2) 0.4470(3) 0.1152(3)
H15 H 0.3387 0.3888 0.1597
C27 C 0.19714(19) 0.5921(3) 0.6078(3)
C28 C 0.2082(2) 0.5171(3) 0.6877(3)
H16 H 0.2325 0.4557 0.6673
C29 C 0.1843(2) 0.5304(3) 0.7971(3)
H17 H 0.1926 0.4790 0.8518
C30 C 0.1484(2) 0.6198(3) 0.8245(3)
C31 C 0.1365(2) 0.6952(3) 0.7482(3)
H18 H 0.1121 0.7564 0.7694
C32 C 0.1605(2) 0.6813(3) 0.6388(3)
H19 H 0.1519 0.7332 0.5848
loop_
_geom_bond_atom_site_label_1
_geom_bond_atom_site_label_2
_geom_bond_site_symmetry_1
_geom_bond_site_symmetry_2
F1 C30 1_555 1_555
C1 C2 1_555 1_555
C2 H1 1_555 1_555
C3 C2 1_555 1_555
H2 C3 1_555 1_555
C4 C3 1_555 1_555
H3 C4 1_555 1_555
C5 C4 1_555 1_555
C6 C5 1_555 1_555
H4 C6 1_555 1_555
C7 C6 1_555 1_555
H5 C7 1_555 1_555
C8 C7 1_555 1_555
H6 C8 1_555 1_555
C9 C8 1_555 1_555
C10 C1 1_555 1_555
C11 C9 1_555 1_555
C12 C11 1_555 1_555
C13 C12 1_555 1_555
C14 C13 1_555 1_555
H7 C14 1_555 1_555
C15 C14 1_555 1_555
H8 C15 1_555 1_555
C16 C15 1_555 1_555
H9 C16 1_555 1_555
C17 C16 1_555 1_555
H10 C17 1_555 1_555
C18 C13 1_555 1_555
C19 C18 1_555 1_555
C20 C1 1_555 1_555
C21 C19 1_555 1_555
C22 C21 1_555 1_555
H11 C22 1_555 1_555
C23 C22 1_555 1_555
H12 C23 1_555 1_555
C24 C23 1_555 1_555
H13 C24 1_555 1_555
C25 C24 1_555 1_555
H14 C25 1_555 1_555
C26 C21 1_555 1_555
H15 C26 1_555 1_555
C27 C12 1_555 1_555
C28 C27 1_555 1_555
H16 C28 1_555 1_555
C29 C28 1_555 1_555
H17 C29 1_555 1_555
C30 C29 1_555 1_555
C31 C30 1_555 1_555
H18 C31 1_555 1_555
C32 C27 1_555 1_555
H19 C32 1_555 1_555
C5 C10 1_555 1_555
C9 C10 1_555 1_555
C11 C20 1_555 1_555
C17 C18 1_555 1_555
C19 C20 1_555 1_555
C25 C26 1_555 1_555
C31 C32 1_555 1_555

#END
