
#######################################################################
#
#                 Cambridge Crystallographic Data Centre
#                                CCDC 
#
#######################################################################
#
# If this CIF has been generated from an entry in the Cambridge 
# Structural Database, then it will include bibliographic, chemical, 
# crystal, experimental, refinement or atomic coordinate data resulting 
# from the CCDC's data processing and validation procedures.
#
#######################################################################

data_POVFIR
_chemical_formula_moiety         'C32 H19 F1'
_chemical_name_systematic        9-fluoro-7,12-diphenylbenzo[k]fluoranthene
_symmetry_cell_setting           monoclinic
_symmetry_space_group_name_H-M   'P 21'
_symmetry_Int_Tables_number      4
_space_group_name_Hall           'P 2yb'
loop_
_symmetry_equiv_pos_site_id
_symmetry_equiv_pos_as_xyz
1 x,y,z
2 -x,1/2+y,-z
_cell_length_a                   15.358(8)
_cell_length_b                   8.792(4)
_cell_length_c                   16.395(8)
_cell_angle_alpha                90
_cell_angle_beta                 95.538(8)
_cell_angle_gamma                90
_cell_volume                     2203.44
_exptl_crystal_colour            'light yellow'
_exptl_crystal_description       block
_cell_formula_units_Z            4
loop_
_atom_site_label
_atom_site_type_symbol
_atom_site_fract_x
_atom_site_fract_y
_atom_site_fract_z
F1 F 0.6890(2) 0.7378(5) 0.1325(3)
C1 C 0.1976(3) 0.9886(5) 0.0696(3)
C2 C 0.1213(3) 0.9256(6) 0.0315(3)
H1 H 0.1233 0.8351 0.0001
C3 C 0.0407(3) 0.9984(6) 0.0403(3)
H2 H -0.0112 0.9570 0.0126
C4 C 0.0344(3) 1.1271(7) 0.0875(3)
H3 H -0.0213 1.1705 0.0935
C5 C 0.1114(3) 1.1951(6) 0.1272(3)
C6 C 0.1162(4) 1.3274(6) 0.1787(3)
H4 H 0.0646 1.3820 0.1876
C7 C 0.1963(4) 1.3748(6) 0.2150(4)
H5 H 0.1983 1.4640 0.2479
C8 C 0.2759(3) 1.2977(6) 0.2061(3)
H6 H 0.3294 1.3322 0.2340
C9 C 0.2739(3) 1.1693(6) 0.1552(3)
C10 C 0.1906(3) 1.1227(5) 0.1175(3)
C11 C 0.3386(3) 1.0572(5) 0.1306(3)
C12 C 0.4267(3) 1.0463(6) 0.1524(3)
C13 C 0.4725(3) 0.9174(6) 0.1216(3)
C14 C 0.5642(3) 0.8926(7) 0.1432(3)
H7 H 0.5971 0.9620 0.1783
C15 C 0.6034(3) 0.7695(7) 0.1131(4)
C16 C 0.5603(3) 0.6645(7) 0.0606(4)
H8 H 0.5906 0.5790 0.0403
C17 C 0.4722(3) 0.6846(6) 0.0380(3)
H9 H 0.4417 0.6140 0.0018
C18 C 0.4270(3) 0.8095(5) 0.0682(3)
C19 C 0.3342(3) 0.8269(5) 0.0460(3)
C20 C 0.2916(3) 0.9481(5) 0.0772(3)
C21 C 0.2857(3) 0.7167(6) -0.0125(3)
C22 C 0.2716(3) 0.7499(6) -0.0956(3)
H10 H 0.2949 0.8411 -0.1157
C23 C 0.2240(3) 0.6516(7) -0.1501(4)
H11 H 0.2148 0.6763 -0.2067
C24 C 0.1907(3) 0.5195(6) -0.1214(5)
H12 H 0.1570 0.4537 -0.1579
C25 C 0.2060(4) 0.4816(7) -0.0391(4)
H13 H 0.1841 0.3886 -0.0197
C26 C 0.2534(3) 0.5791(6) 0.0151(3)
H14 H 0.2639 0.5522 0.0713
C27 C 0.4754(3) 1.1583(6) 0.2081(3)
C28 C 0.4979(4) 1.1228(8) 0.2896(4)
H15 H 0.4818 1.0266 0.3099
C29 C 0.5432(5) 1.2240(10) 0.3421(4)
H16 H 0.5575 1.1981 0.3981
C30 C 0.5673(4) 1.3617(9) 0.3132(5)
H17 H 0.5989 1.4310 0.3493
C31 C 0.5462(4) 1.4020(8) 0.2318(4)
H18 H 0.5630 1.4981 0.2120
C32 C 0.5002(4) 1.2992(7) 0.1801(4)
H19 H 0.4853 1.3258 0.1244
F3 F 0.4156(3) 1.3933(6) 0.4937(4)
C33 C 0.1043(3) 0.7367(6) 0.6126(3)
C34 C 0.0475(3) 0.7155(6) 0.6714(3)
H21 H 0.0423 0.7905 0.7123
C35 C -0.0040(3) 0.5787(6) 0.6702(3)
H22 H -0.0445 0.5649 0.7099
C36 C 0.0045(3) 0.4672(6) 0.6124(3)
H23 H -0.0312 0.3790 0.6124
C37 C 0.0648(3) 0.4810(6) 0.5533(3)
C38 C 0.0847(3) 0.3732(6) 0.4932(3)
H24 H 0.0558 0.2776 0.4899
C39 C 0.1457(3) 0.4066(6) 0.4398(3)
H25 H 0.1581 0.3322 0.4005
C40 C 0.1908(3) 0.5468(6) 0.4407(3)
H26 H 0.2318 0.5665 0.4022
C41 C 0.1745(3) 0.6542(6) 0.4983(3)
C42 C 0.1117(3) 0.6184(5) 0.5540(3)
C43 C 0.2057(3) 0.8109(6) 0.5202(3)
C44 C 0.2640(3) 0.9049(6) 0.4840(3)
C45 C 0.2817(3) 1.0524(6) 0.5189(3)
C46 C 0.3417(3) 1.1521(6) 0.4852(4)
H27 H 0.3694 1.1221 0.4384
C47 C 0.3594(4) 1.2909(7) 0.5200(4)
C48 C 0.3185(4) 1.3374(7) 0.5892(4)
H28 H 0.3304 1.4364 0.6124
C49 C 0.2615(3) 1.2476(6) 0.6234(3)
H29 H 0.2350 1.2812 0.6702
C50 C 0.2406(3) 1.1010(6) 0.5890(3)
C51 C 0.1784(3) 1.0028(6) 0.6234(3)
C52 C 0.1624(3) 0.8607(5) 0.5900(3)
C53 C 0.1289(4) 1.0564(6) 0.6934(3)
C54 C 0.1700(4) 1.0632(6) 0.7726(4)
H30 H 0.2298 1.0355 0.7829
C55 C 0.1232(6) 1.1108(7) 0.8371(4)
H31 H 0.1502 1.1128 0.8917
C56 C 0.0352(6) 1.1558(7) 0.8198(5)
H32 H 0.0034 1.1904 0.8631
C57 C -0.0048(5) 1.1504(7) 0.7418(4)
H33 H -0.0642 1.1804 0.7309
C58 C 0.0417(4) 1.1010(6) 0.6791(3)
H34 H 0.0137 1.0972 0.6249
C59 C 0.3017(3) 0.8489(6) 0.4092(3)
C60 C 0.2538(4) 0.8552(7) 0.3332(4)
H35 H 0.1994 0.9074 0.3276
C61 C 0.2837(5) 0.7868(8) 0.2652(4)
H36 H 0.2494 0.7900 0.2138
C62 C 0.3640(5) 0.7138(8) 0.2726(4)
H37 H 0.3842 0.6643 0.2265
C63 C 0.4147(4) 0.7126(8) 0.3468(4)
H38 H 0.4706 0.6655 0.3512
C64 C 0.3842(4) 0.7800(7) 0.4149(4)
H39 H 0.4196 0.7795 0.4657
H20? H 0.6646 0.7541 0.1291
F2? F 0.6186(8) 0.5640(16) 0.0585(9)
H40? H 0.4005 1.3573 0.4975
F4? F 0.3435(6) 1.4712(10) 0.6108(6)
loop_
_geom_bond_atom_site_label_1
_geom_bond_atom_site_label_2
_geom_bond_site_symmetry_1
_geom_bond_site_symmetry_2
F1 C15 1_555 1_555
C1 C2 1_555 1_555
C2 H1 1_555 1_555
C3 C2 1_555 1_555
H2 C3 1_555 1_555
C4 C3 1_555 1_555
H3 C4 1_555 1_555
C5 C4 1_555 1_555
C6 C5 1_555 1_555
H4 C6 1_555 1_555
C7 C6 1_555 1_555
H5 C7 1_555 1_555
C8 C7 1_555 1_555
H6 C8 1_555 1_555
C9 C8 1_555 1_555
C10 C1 1_555 1_555
C11 C9 1_555 1_555
C12 C11 1_555 1_555
C13 C12 1_555 1_555
C14 C13 1_555 1_555
H7 C14 1_555 1_555
C15 C14 1_555 1_555
C16 C15 1_555 1_555
H8 C16 1_555 1_555
C17 C16 1_555 1_555
H9 C17 1_555 1_555
C18 C13 1_555 1_555
C19 C18 1_555 1_555
C20 C1 1_555 1_555
C21 C19 1_555 1_555
C22 C21 1_555 1_555
H10 C22 1_555 1_555
C23 C22 1_555 1_555
H11 C23 1_555 1_555
C24 C23 1_555 1_555
H12 C24 1_555 1_555
C25 C24 1_555 1_555
H13 C25 1_555 1_555
C26 C21 1_555 1_555
H14 C26 1_555 1_555
C27 C12 1_555 1_555
C28 C27 1_555 1_555
H15 C28 1_555 1_555
C29 C28 1_555 1_555
H16 C29 1_555 1_555
C30 C29 1_555 1_555
H17 C30 1_555 1_555
C31 C30 1_555 1_555
H18 C31 1_555 1_555
C32 C27 1_555 1_555
H19 C32 1_555 1_555
F3 C47 1_555 1_555
C33 C34 1_555 1_555
C34 H21 1_555 1_555
C35 C34 1_555 1_555
H22 C35 1_555 1_555
C36 C35 1_555 1_555
H23 C36 1_555 1_555
C37 C36 1_555 1_555
C38 C37 1_555 1_555
H24 C38 1_555 1_555
C39 C38 1_555 1_555
H25 C39 1_555 1_555
C40 C39 1_555 1_555
H26 C40 1_555 1_555
C41 C40 1_555 1_555
C42 C33 1_555 1_555
C43 C41 1_555 1_555
C44 C43 1_555 1_555
C45 C44 1_555 1_555
C46 C45 1_555 1_555
H27 C46 1_555 1_555
C47 C46 1_555 1_555
C48 C47 1_555 1_555
H28 C48 1_555 1_555
C49 C48 1_555 1_555
H29 C49 1_555 1_555
C50 C45 1_555 1_555
C51 C50 1_555 1_555
C52 C33 1_555 1_555
C53 C51 1_555 1_555
C54 C53 1_555 1_555
H30 C54 1_555 1_555
C55 C54 1_555 1_555
H31 C55 1_555 1_555
C56 C55 1_555 1_555
H32 C56 1_555 1_555
C57 C56 1_555 1_555
H33 C57 1_555 1_555
C58 C53 1_555 1_555
H34 C58 1_555 1_555
C59 C44 1_555 1_555
C60 C59 1_555 1_555
H35 C60 1_555 1_555
C61 C60 1_555 1_555
H36 C61 1_555 1_555
C62 C61 1_555 1_555
H37 C62 1_555 1_555
C63 C62 1_555 1_555
H38 C63 1_555 1_555
C64 C59 1_555 1_555
H39 C64 1_555 1_555
C5 C10 1_555 1_555
C9 C10 1_555 1_555
C11 C20 1_555 1_555
C17 C18 1_555 1_555
C19 C20 1_555 1_555
C25 C26 1_555 1_555
C31 C32 1_555 1_555
C37 C42 1_555 1_555
C41 C42 1_555 1_555
C43 C52 1_555 1_555
C49 C50 1_555 1_555
C51 C52 1_555 1_555
C57 C58 1_555 1_555
C63 C64 1_555 1_555

#END
