
#######################################################################
#
#                 Cambridge Crystallographic Data Centre
#                                CCDC 
#
#######################################################################
#
# If this CIF has been generated from an entry in the Cambridge 
# Structural Database, then it will include bibliographic, chemical, 
# crystal, experimental, refinement or atomic coordinate data resulting 
# from the CCDC's data processing and validation procedures.
#
#######################################################################

data_POVFAJ
_chemical_formula_moiety         'C44 H29 N1'
_chemical_name_systematic        
N,N,7,12-tetraphenylbenzo[k]fluoranthen-9-amine
_symmetry_cell_setting           monoclinic
_symmetry_space_group_name_H-M   'P 21/c'
_symmetry_Int_Tables_number      14
_space_group_name_Hall           '-P 2ybc'
loop_
_symmetry_equiv_pos_site_id
_symmetry_equiv_pos_as_xyz
1 x,y,z
2 -x,1/2+y,1/2-z
3 -x,-y,-z
4 x,1/2-y,1/2+z
_cell_length_a                   27.817(9)
_cell_length_b                   9.608(3)
_cell_length_c                   24.535(8)
_cell_angle_alpha                90
_cell_angle_beta                 107.475(5)
_cell_angle_gamma                90
_cell_volume                     6254.73
_exptl_crystal_colour            orange
_exptl_crystal_description       plate
_cell_formula_units_Z            8
loop_
_atom_site_label
_atom_site_type_symbol
_atom_site_fract_x
_atom_site_fract_y
_atom_site_fract_z
N1 N 0.73738(9) 0.6397(3) 0.69247(11)
C1 C 0.57958(12) 0.8098(3) 0.88458(14)
C2 C 0.60474(13) 0.8200(3) 0.94199(14)
H1 H 0.6403 0.8091 0.9557
C3 C 0.57663(14) 0.8473(4) 0.98037(15)
H2 H 0.5940 0.8541 1.0200
C4 C 0.52496(14) 0.8644(4) 0.96244(15)
H3 H 0.5074 0.8784 0.9897
C5 C 0.49813(13) 0.8611(3) 0.90339(15)
C6 C 0.44584(13) 0.8876(4) 0.87718(17)
H4 H 0.4246 0.9062 0.9002
C7 C 0.42602(13) 0.8864(4) 0.81847(17)
H5 H 0.3912 0.9055 0.8019
C8 C 0.45559(12) 0.8577(4) 0.78189(15)
H6 H 0.4409 0.8575 0.7416
C9 C 0.50616(11) 0.8301(3) 0.80595(14)
C10 C 0.52664(11) 0.8330(3) 0.86612(13)
C11 C 0.54896(11) 0.8003(3) 0.78326(13)
C12 C 0.55153(10) 0.7909(3) 0.72881(13)
C13 C 0.59857(11) 0.7562(3) 0.71978(13)
C14 C 0.60401(11) 0.7472(3) 0.66441(13)
H7 H 0.5757 0.7661 0.6323
C15 C 0.64880(11) 0.7119(3) 0.65547(13)
H8 H 0.6514 0.7110 0.6178
C16 C 0.69131(11) 0.6769(3) 0.70236(13)
C17 C 0.68719(11) 0.6850(3) 0.75675(13)
H9 H 0.7154 0.6604 0.7882
C18 C 0.64214(11) 0.7287(3) 0.76740(13)
C19 C 0.63903(11) 0.7447(3) 0.82452(13)
C20 C 0.59398(11) 0.7817(3) 0.83203(13)
C21 C 0.50617(11) 0.8099(3) 0.67750(13)
C22 C 0.47727(12) 0.6955(3) 0.65365(15)
H10 H 0.4850 0.6071 0.6714
C23 C 0.43676(12) 0.7084(4) 0.60369(14)
H11 H 0.4173 0.6291 0.5876
C24 C 0.42531(13) 0.8366(4) 0.57804(15)
H12 H 0.3979 0.8462 0.5441
C25 C 0.45402(15) 0.9519(4) 0.60190(18)
H13 H 0.4461 1.0405 0.5842
C26 C 0.49402(14) 0.9386(4) 0.65125(17)
H14 H 0.5134 1.0182 0.6673
C27 C 0.68483(12) 0.7190(4) 0.87428(14)
C28 C 0.72657(14) 0.8068(5) 0.88456(17)
H15 H 0.7257 0.8859 0.8610
C29 C 0.76943(16) 0.7774(8) 0.9296(2)
H16 H 0.7978 0.8374 0.9370
C30 C 0.7712(2) 0.6625(9) 0.9634(2)
H17 H 0.8008 0.6434 0.9939
C31 C 0.7299(2) 0.5740(6) 0.95338(17)
H18 H 0.7313 0.4948 0.9770
C32 C 0.68689(15) 0.6017(4) 0.90893(15)
H19 H 0.6587 0.5412 0.9018
C33 C 0.73755(12) 0.5731(4) 0.64112(14)
C34 C 0.70150(13) 0.4736(4) 0.61538(15)
H20 H 0.6773 0.4463 0.6336
C35 C 0.70037(16) 0.4137(5) 0.56356(18)
H21 H 0.6751 0.3471 0.5464
C36 C 0.73574(19) 0.4502(5) 0.53675(17)
H22 H 0.7346 0.4106 0.5009
C37 C 0.77293(18) 0.5458(5) 0.56315(18)
H23 H 0.7980 0.5689 0.5456
C38 C 0.77419(15) 0.6082(4) 0.61450(16)
H24 H 0.7996 0.6743 0.6316
C39 C 0.78420(11) 0.6723(3) 0.73454(13)
C40 C 0.82337(12) 0.5751(4) 0.74734(15)
H25 H 0.8190 0.4879 0.7282
C41 C 0.86878(13) 0.6069(4) 0.78831(17)
H26 H 0.8956 0.5413 0.7965
C42 C 0.87569(13) 0.7336(4) 0.81759(17)
H27 H 0.9066 0.7538 0.8460
C43 C 0.83657(13) 0.8290(4) 0.80438(16)
H28 H 0.8407 0.9153 0.8241
C44 C 0.79164(12) 0.8001(3) 0.76283(14)
H29 H 0.7656 0.8680 0.7535
N2 N 0.26852(9) 0.8555(3) 0.29987(12)
C45 C 0.00831(11) 0.6879(3) 0.11112(14)
C46 C 0.00319(12) 0.6760(4) 0.05373(14)
H30 H 0.0310 0.6929 0.0397
C47 C -0.04471(13) 0.6378(4) 0.01587(15)
H31 H -0.0484 0.6301 -0.0238
C48 C -0.08574(13) 0.6116(5) 0.03441(15)
H32 H -0.1169 0.5859 0.0076
C49 C -0.08209(12) 0.6226(4) 0.09322(15)
C50 C -0.12016(12) 0.5963(4) 0.11987(16)
H33 H -0.1532 0.5711 0.0973
C51 C -0.10936(12) 0.6072(4) 0.17806(16)
H34 H -0.1356 0.5916 0.1947
C52 C -0.06056(11) 0.6410(4) 0.21454(14)
H35 H -0.0541 0.6455 0.2548
C53 C -0.02289(11) 0.6669(3) 0.19030(14)
C54 C -0.03450(11) 0.6588(3) 0.12998(14)
C55 C 0.03151(11) 0.7011(3) 0.21228(13)
C56 C 0.06300(11) 0.7100(3) 0.26699(13)
C57 C 0.11514(11) 0.7462(3) 0.27522(13)
C58 C 0.15043(11) 0.7518(3) 0.33058(14)
H36 H 0.1394 0.7319 0.3629
C59 C 0.19999(11) 0.7854(3) 0.33871(14)
H37 H 0.2230 0.7850 0.3762
C60 C 0.21727(11) 0.8206(3) 0.29160(14)
C61 C 0.18331(11) 0.8157(3) 0.23719(13)
H38 H 0.1945 0.8408 0.2056
C62 C 0.13265(11) 0.7748(3) 0.22712(13)
C63 C 0.09917(11) 0.7596(3) 0.17019(13)
C64 C 0.05012(11) 0.7202(3) 0.16350(13)
C65 C 0.04546(11) 0.6866(3) 0.31800(13)
C66 C 0.02977(13) 0.7983(4) 0.34418(15)
H39 H 0.0291 0.8889 0.3285
C67 C 0.01491(13) 0.7794(4) 0.39332(15)
H40 H 0.0044 0.8569 0.4110
C68 C 0.01551(13) 0.6480(4) 0.41606(15)
H41 H 0.0055 0.6342 0.4494
C69 C 0.03089(16) 0.5365(4) 0.38981(17)
H42 H 0.0310 0.4456 0.4051
C70 C 0.04615(15) 0.5552(4) 0.34165(16)
H43 H 0.0572 0.4776 0.3246
C71 C 0.11747(11) 0.7850(4) 0.11970(13)
C72 C 0.14984(14) 0.6909(5) 0.10506(17)
H44 H 0.1609 0.6103 0.1278
C73 C 0.16599(17) 0.7143(6) 0.0573(2)
H45 H 0.1877 0.6494 0.0473
C74 C 0.15030(19) 0.8328(6) 0.0243(2)
H46 H 0.1615 0.8494 -0.0081
C75 C 0.11814(16) 0.9272(5) 0.03888(17)
H47 H 0.1072 1.0080 0.0162
C76 C 0.10201(13) 0.9037(4) 0.08624(15)
H48 H 0.0803 0.9689 0.0960
C77 C 0.29802(11) 0.9190(3) 0.35094(14)
C78 C 0.27742(13) 1.0214(3) 0.37845(14)
H49 H 0.2434 1.0500 0.3622
C79 C 0.30658(16) 1.0806(4) 0.42905(15)
H50 H 0.2924 1.1491 0.4475
C80 C 0.35627(16) 1.0405(4) 0.45289(15)
H51 H 0.3759 1.0796 0.4881
C81 C 0.37740(15) 0.9430(4) 0.42521(17)
H52 H 0.4119 0.9179 0.4408
C82 C 0.34847(13) 0.8819(4) 0.37487(16)
H53 H 0.3631 0.8142 0.3565
C83 C 0.29153(11) 0.8201(3) 0.25702(14)
C84 C 0.32379(12) 0.9144(4) 0.24242(16)
H54 H 0.3303 1.0023 0.2609
C85 C 0.34631(14) 0.8796(4) 0.20091(18)
H55 H 0.3687 0.9436 0.1916
C86 C 0.33666(15) 0.7529(4) 0.17276(17)
H56 H 0.3517 0.7307 0.1438
C87 C 0.30490(14) 0.6595(4) 0.18736(17)
H57 H 0.2979 0.5726 0.1682
C88 C 0.28313(12) 0.6913(3) 0.22986(14)
H58 H 0.2623 0.6247 0.2405
loop_
_geom_bond_atom_site_label_1
_geom_bond_atom_site_label_2
_geom_bond_site_symmetry_1
_geom_bond_site_symmetry_2
N1 C16 1_555 1_555
C1 C2 1_555 1_555
C2 H1 1_555 1_555
C3 C2 1_555 1_555
H2 C3 1_555 1_555
C4 C3 1_555 1_555
H3 C4 1_555 1_555
C5 C4 1_555 1_555
C6 C5 1_555 1_555
H4 C6 1_555 1_555
C7 C6 1_555 1_555
H5 C7 1_555 1_555
C8 C7 1_555 1_555
H6 C8 1_555 1_555
C9 C8 1_555 1_555
C10 C1 1_555 1_555
C11 C9 1_555 1_555
C12 C11 1_555 1_555
C13 C12 1_555 1_555
C14 C13 1_555 1_555
H7 C14 1_555 1_555
C15 C14 1_555 1_555
H8 C15 1_555 1_555
C16 C15 1_555 1_555
C17 C16 1_555 1_555
H9 C17 1_555 1_555
C18 C13 1_555 1_555
C19 C18 1_555 1_555
C20 C1 1_555 1_555
C21 C12 1_555 1_555
C22 C21 1_555 1_555
H10 C22 1_555 1_555
C23 C22 1_555 1_555
H11 C23 1_555 1_555
C24 C23 1_555 1_555
H12 C24 1_555 1_555
C25 C24 1_555 1_555
H13 C25 1_555 1_555
C26 C21 1_555 1_555
H14 C26 1_555 1_555
C27 C19 1_555 1_555
C28 C27 1_555 1_555
H15 C28 1_555 1_555
C29 C28 1_555 1_555
H16 C29 1_555 1_555
C30 C29 1_555 1_555
H17 C30 1_555 1_555
C31 C30 1_555 1_555
H18 C31 1_555 1_555
C32 C27 1_555 1_555
H19 C32 1_555 1_555
C33 N1 1_555 1_555
C34 C33 1_555 1_555
H20 C34 1_555 1_555
C35 C34 1_555 1_555
H21 C35 1_555 1_555
C36 C35 1_555 1_555
H22 C36 1_555 1_555
C37 C36 1_555 1_555
H23 C37 1_555 1_555
C38 C33 1_555 1_555
H24 C38 1_555 1_555
C39 N1 1_555 1_555
C40 C39 1_555 1_555
H25 C40 1_555 1_555
C41 C40 1_555 1_555
H26 C41 1_555 1_555
C42 C41 1_555 1_555
H27 C42 1_555 1_555
C43 C42 1_555 1_555
H28 C43 1_555 1_555
C44 C39 1_555 1_555
H29 C44 1_555 1_555
N2 C60 1_555 1_555
C45 C46 1_555 1_555
C46 H30 1_555 1_555
C47 C46 1_555 1_555
H31 C47 1_555 1_555
C48 C47 1_555 1_555
H32 C48 1_555 1_555
C49 C48 1_555 1_555
C50 C49 1_555 1_555
H33 C50 1_555 1_555
C51 C50 1_555 1_555
H34 C51 1_555 1_555
C52 C51 1_555 1_555
H35 C52 1_555 1_555
C53 C52 1_555 1_555
C54 C45 1_555 1_555
C55 C53 1_555 1_555
C56 C55 1_555 1_555
C57 C56 1_555 1_555
C58 C57 1_555 1_555
H36 C58 1_555 1_555
C59 C58 1_555 1_555
H37 C59 1_555 1_555
C60 C59 1_555 1_555
C61 C60 1_555 1_555
H38 C61 1_555 1_555
C62 C57 1_555 1_555
C63 C62 1_555 1_555
C64 C45 1_555 1_555
C65 C56 1_555 1_555
C66 C65 1_555 1_555
H39 C66 1_555 1_555
C67 C66 1_555 1_555
H40 C67 1_555 1_555
C68 C67 1_555 1_555
H41 C68 1_555 1_555
C69 C68 1_555 1_555
H42 C69 1_555 1_555
C70 C65 1_555 1_555
H43 C70 1_555 1_555
C71 C63 1_555 1_555
C72 C71 1_555 1_555
H44 C72 1_555 1_555
C73 C72 1_555 1_555
H45 C73 1_555 1_555
C74 C73 1_555 1_555
H46 C74 1_555 1_555
C75 C74 1_555 1_555
H47 C75 1_555 1_555
C76 C71 1_555 1_555
H48 C76 1_555 1_555
C77 N2 1_555 1_555
C78 C77 1_555 1_555
H49 C78 1_555 1_555
C79 C78 1_555 1_555
H50 C79 1_555 1_555
C80 C79 1_555 1_555
H51 C80 1_555 1_555
C81 C80 1_555 1_555
H52 C81 1_555 1_555
C82 C77 1_555 1_555
H53 C82 1_555 1_555
C83 N2 1_555 1_555
C84 C83 1_555 1_555
H54 C84 1_555 1_555
C85 C84 1_555 1_555
H55 C85 1_555 1_555
C86 C85 1_555 1_555
H56 C86 1_555 1_555
C87 C86 1_555 1_555
H57 C87 1_555 1_555
C88 C83 1_555 1_555
H58 C88 1_555 1_555
C5 C10 1_555 1_555
C9 C10 1_555 1_555
C11 C20 1_555 1_555
C17 C18 1_555 1_555
C19 C20 1_555 1_555
C25 C26 1_555 1_555
C31 C32 1_555 1_555
C37 C38 1_555 1_555
C43 C44 1_555 1_555
C49 C54 1_555 1_555
C53 C54 1_555 1_555
C55 C64 1_555 1_555
C61 C62 1_555 1_555
C63 C64 1_555 1_555
C69 C70 1_555 1_555
C75 C76 1_555 1_555
C81 C82 1_555 1_555
C87 C88 1_555 1_555

#END
