
#######################################################################
#
#                 Cambridge Crystallographic Data Centre
#                                CCDC 
#
#######################################################################
#
# If this CIF has been generated from an entry in the Cambridge 
# Structural Database, then it will include bibliographic, chemical, 
# crystal, experimental, refinement or atomic coordinate data resulting 
# from the CCDC's data processing and validation procedures.
#
#######################################################################

data_POVGEO
_chemical_formula_moiety         'C17 H14 F3 N3 O2 S1,C12 H10 N2'
_chemical_name_systematic        
"4-(5-(4-methylphenyl)-3-(trifluoromethyl)-1H-pyrazol-1-yl)benzenesulfonamide 4,4'-ethene-1,2-diyldipyridine"
_symmetry_cell_setting           triclinic
_symmetry_space_group_name_H-M   'P -1'
_symmetry_Int_Tables_number      2
_space_group_name_Hall           '-P 1'
loop_
_symmetry_equiv_pos_site_id
_symmetry_equiv_pos_as_xyz
1 x,y,z
2 -x,-y,-z
_cell_length_a                   9.1324(2)
_cell_length_b                   11.6423(3)
_cell_length_c                   14.2374(3)
_cell_angle_alpha                92.939(2)
_cell_angle_beta                 99.316(2)
_cell_angle_gamma                110.239(2)
_cell_volume                     1392.12
_cell_formula_units_Z            2
loop_
_atom_site_label
_atom_site_type_symbol
_atom_site_fract_x
_atom_site_fract_y
_atom_site_fract_z
S1 S 0.37350(9) 0.32112(7) 0.40997(5)
F1 F 0.4743(6) 0.8735(3) -0.0197(3)
F2 F 0.2651(5) 0.8298(3) -0.1130(4)
O1 O 0.3078(2) 0.19013(18) 0.38685(15)
O2 O 0.5370(2) 0.37817(19) 0.45699(14)
N1 N 0.2973(3) 0.5272(2) 0.03960(17)
N2 N 0.2668(3) 0.3563(3) 0.47607(19)
H1 H 0.174(4) 0.326(3) 0.459(3)
H2 H 0.303(4) 0.437(3) 0.500(2)
N3 N 0.3705(3) 0.6505(3) 0.03679(19)
C1 C -0.1193(7) -0.0562(4) -0.1510(3)
H3 H -0.0949 -0.0754 -0.2116
H4 H -0.2322 -0.0790 -0.1571
H5 H -0.0816 -0.1012 -0.1042
C2 C -0.0382(7) 0.0817(4) -0.1191(3)
C3 C -0.1224(5) 0.1603(5) -0.1207(3)
H6 H -0.2327 0.1282 -0.1385
C4 C -0.0448(4) 0.2864(4) -0.0962(2)
H7 H -0.1032 0.3381 -0.0990
C5 C 0.1186(4) 0.3356(3) -0.0677(2)
C6 C 0.2016(4) 0.4694(3) -0.0460(2)
C7 C 0.3154(3) 0.4785(3) 0.1286(2)
C8 C 0.1843(4) 0.3984(3) 0.1575(2)
H8 H 0.0840 0.3759 0.1190
C9 C 0.2029(3) 0.3517(3) 0.2438(2)
H9 H 0.1152 0.2969 0.2636
C10 C 0.3521(3) 0.3865(3) 0.30092(19)
C11 C 0.3194(4) 0.6676(3) -0.0513(2)
C12 C 0.2150(4) 0.5599(3) -0.1054(2)
H10 H 0.1644 0.5507 -0.1690
C13 C 0.1238(6) 0.1309(4) -0.0899(3)
H11 H 0.1822 0.0793 -0.0875
C14 C 0.2013(5) 0.2562(3) -0.0641(2)
H12 H 0.3112 0.2875 -0.0439
F3 F 0.4480(5) 0.7964(3) -0.1536(3)
C15 C 0.4643(4) 0.5132(3) 0.1856(2)
H13 H 0.5518 0.5681 0.1657
C16 C 0.4837(4) 0.4666(3) 0.2720(2)
H14 H 0.5842 0.4889 0.3103
C17 C 0.3752(7) 0.7915(4) -0.0818(4)
N4 N -0.0864(3) 0.5858(3) 0.3491(2)
N5 N 0.9283(3) 1.1996(3) 0.3992(2)
C18 C 0.9209(4) 1.0852(4) 0.4050(3)
H15 H 1.0163 1.0713 0.4140
C19 C 0.7840(5) 0.9852(4) 0.3988(3)
H16 H 0.7887 0.9073 0.4045
C20 C 0.6395(4) 1.0002(3) 0.3843(2)
C21 C 0.4915(4) 0.8913(4) 0.3780(3)
H17 H 0.5028 0.8152 0.3821
C22 C 0.3496(4) 0.8919(3) 0.3674(2)
H18 H 0.3381 0.9679 0.3629
C23 C 0.2028(4) 0.7836(3) 0.3617(2)
C24 C 0.1968(4) 0.6648(4) 0.3727(3)
H19 H 0.2902 0.6481 0.3843
C25 C 0.0518(4) 0.5712(3) 0.3664(3)
H20 H 0.0516 0.4924 0.3748
C26 C 0.6452(4) 1.1190(3) 0.3784(2)
H21 H 0.5513 1.1350 0.3685
C27 C 0.7890(4) 1.2149(3) 0.3868(2)
H22 H 0.7885 1.2943 0.3838
C28 C 0.0580(4) 0.7990(3) 0.3436(2)
H23 H 0.0536 0.8765 0.3352
C29 C -0.0784(4) 0.6997(4) 0.3382(2)
H24 H -0.1739 0.7133 0.3259
loop_
_geom_bond_atom_site_label_1
_geom_bond_atom_site_label_2
_geom_bond_site_symmetry_1
_geom_bond_site_symmetry_2
S1 O1 1_555 1_555
F1 C17 1_555 1_555
F2 C17 1_555 1_555
O2 S1 1_555 1_555
N1 N3 1_555 1_555
N2 S1 1_555 1_555
H1 N2 1_555 1_555
H2 N2 1_555 1_555
N3 C11 1_555 1_555
C1 H3 1_555 1_555
H4 C1 1_555 1_555
H5 C1 1_555 1_555
C2 C1 1_555 1_555
C3 C2 1_555 1_555
H6 C3 1_555 1_555
C4 C3 1_555 1_555
H7 C4 1_555 1_555
C5 C4 1_555 1_555
C6 N1 1_555 1_555
C7 N1 1_555 1_555
C8 C7 1_555 1_555
H8 C8 1_555 1_555
C9 C8 1_555 1_555
H9 C9 1_555 1_555
C10 S1 1_555 1_555
C11 C12 1_555 1_555
C12 C6 1_555 1_555
H10 C12 1_555 1_555
C13 C2 1_555 1_555
H11 C13 1_555 1_555
C14 C5 1_555 1_555
H12 C14 1_555 1_555
F3 C17 1_555 1_555
C15 C7 1_555 1_555
H13 C15 1_555 1_555
C16 C10 1_555 1_555
H14 C16 1_555 1_555
C17 C11 1_555 1_555
N4 C25 1_555 1_555
N5 C18 1_555 1_555
C18 H15 1_555 1_555
C19 C18 1_555 1_555
H16 C19 1_555 1_555
C20 C19 1_555 1_555
C21 C20 1_555 1_555
H17 C21 1_555 1_555
C22 C21 1_555 1_555
H18 C22 1_555 1_555
C23 C22 1_555 1_555
C24 C23 1_555 1_555
H19 C24 1_555 1_555
C25 C24 1_555 1_555
H20 C25 1_555 1_555
C26 C20 1_555 1_555
H21 C26 1_555 1_555
C27 N5 1_555 1_555
H22 C27 1_555 1_555
C28 C23 1_555 1_555
H23 C28 1_555 1_555
C29 N4 1_555 1_555
H24 C29 1_555 1_555
C5 C6 1_555 1_555
C9 C10 1_555 1_555
C13 C14 1_555 1_555
C15 C16 1_555 1_555
C26 C27 1_555 1_555
C28 C29 1_555 1_555

#END
