
#######################################################################
#
#                 Cambridge Crystallographic Data Centre
#                                CCDC 
#
#######################################################################
#
# If this CIF has been generated from an entry in the Cambridge 
# Structural Database, then it will include bibliographic, chemical, 
# crystal, experimental, refinement or atomic coordinate data resulting 
# from the CCDC's data processing and validation procedures.
#
#######################################################################

data_POVGIS
_chemical_formula_moiety         'C17 H14 F3 N3 O2 S1,C12 H12 N2'
_chemical_name_systematic        
"4-(5-(4-methylphenyl)-3-(trifluoromethyl)-1H-pyrazol-1-yl)benzenesulfonamide 4,4'-ethane-1,2-diyldipyridine"
_symmetry_cell_setting           triclinic
_symmetry_space_group_name_H-M   'P -1'
_symmetry_Int_Tables_number      2
_space_group_name_Hall           '-P 1'
loop_
_symmetry_equiv_pos_site_id
_symmetry_equiv_pos_as_xyz
1 x,y,z
2 -x,-y,-z
_cell_length_a                   7.9890(8)
_cell_length_b                   11.3277(11)
_cell_length_c                   15.7937(15)
_cell_angle_alpha                78.780(6)
_cell_angle_beta                 81.807(6)
_cell_angle_gamma                83.993(6)
_cell_volume                     1383.29
_cell_formula_units_Z            2
loop_
_atom_site_label
_atom_site_type_symbol
_atom_site_fract_x
_atom_site_fract_y
_atom_site_fract_z
C1 C 0.9100(17) 0.0246(11) 1.0072(12)
H1 H 0.8702 0.0076 1.0690
H2 H 0.8413 -0.0164 0.9779
N1 N 0.8382(19) 0.4092(11) 0.9179(11)
C2 C 0.800(2) 0.3314(17) 0.8729(13)
H3 H 0.7558 0.3620 0.8209
C3 C 0.822(2) 0.2062(14) 0.8978(11)
H4 H 0.7940 0.1557 0.8629
C4 C 0.8852(15) 0.1587(10) 0.9747(9)
C5 C 0.8969(19) 0.3605(13) 0.9923(12)
H5 H 0.9218 0.4125 1.0268
C6 C 0.9233(16) 0.2403(11) 1.0217(9)
H6 H 0.9674 0.2128 1.0741
C1A C 1.0900(17) -0.0246(11) 0.9928(12)
H1A H 1.1298 -0.0076 0.9310
H2A H 1.1587 0.0164 1.0221
N1A N 1.1618(19) -0.4092(11) 1.0821(11)
C2A C 1.200(2) -0.3314(17) 1.1271(13)
H3A H 1.2442 -0.3620 1.1791
C3A C 1.178(2) -0.2062(14) 1.1022(11)
H4A H 1.2060 -0.1557 1.1371
C4A C 1.1148(15) -0.1587(10) 1.0253(9)
C5A C 1.1031(19) -0.3605(13) 1.0077(12)
H5A H 1.0782 -0.4125 0.9732
C6A C 1.0767(16) -0.2403(11) 0.9783(9)
H6A H 1.0326 -0.2128 0.9259
C7 C 0.933(2) 0.4977(12) 0.5384(10)
H7 H 0.8429 0.5602 0.5248
H8 H 0.9810 0.5140 0.5875
C8 C 0.739(2) 0.3450(14) 0.5179(10)
H9 H 0.6985 0.4005 0.4724
C9 C 0.8586(17) 0.3774(11) 0.5633(8)
C10 C 0.911(2) 0.2906(14) 0.6293(10)
H10 H 0.9906 0.3065 0.6624
N2 N 0.7320(14) 0.1499(10) 0.6042(8)
C11 C 0.6816(19) 0.2332(14) 0.5391(10)
H11 H 0.6032 0.2139 0.5067
C12 C 0.846(2) 0.1802(14) 0.6465(11)
H12 H 0.8854 0.1227 0.6913
C7A C 1.067(2) 0.5023(12) 0.4616(10)
H7A H 1.1571 0.4398 0.4752
H8A H 1.0190 0.4860 0.4125
C8A C 1.261(2) 0.6550(14) 0.4821(10)
H9A H 1.3015 0.5995 0.5276
C9A C 1.1414(17) 0.6226(11) 0.4367(8)
C10A C 1.089(2) 0.7094(14) 0.3707(10)
H10A H 1.0094 0.6935 0.3376
N2A N 1.2680(14) 0.8501(10) 0.3958(8)
C11A C 1.3184(19) 0.7668(14) 0.4609(10)
H11A H 1.3968 0.7861 0.4933
C12A C 1.154(2) 0.8198(14) 0.3535(11)
H12A H 1.1146 0.8773 0.3087
S1 S 1.2873(3) 0.1781(3) 0.41650(18)
F1 F 0.3138(18) 0.2152(10) 0.0591(9)
F2 F 0.5015(13) 0.0777(14) 0.0738(11)
F3 F 0.3107(17) 0.0932(11) 0.1703(7)
O1 O 1.2279(11) 0.1253(10) 0.5037(5)
O2 O 1.3776(11) 0.2842(8) 0.3994(7)
N3 N 1.4089(11) 0.0769(9) 0.3756(7)
C13 C 1.1085(12) 0.2116(9) 0.3585(6)
C14 C 0.9790(13) 0.1348(10) 0.3781(7)
H13 H 0.9849 0.0675 0.4222
C15 C 0.8406(13) 0.1583(9) 0.3320(7)
H14 H 0.7537 0.1067 0.3446
C16 C 0.8329(11) 0.2592(8) 0.2671(6)
N4 N 0.6898(10) 0.2814(7) 0.2189(5)
C17 C 0.6058(12) 0.3885(9) 0.1860(6)
C18 C 0.6330(12) 0.5062(9) 0.2065(7)
C19 C 0.6194(16) 0.5221(10) 0.2919(7)
H15 H 0.5952 0.4575 0.3369
C20 C 0.6413(17) 0.6332(10) 0.3112(8)
H16 H 0.6330 0.6418 0.3691
C21 C 0.6753(15) 0.7315(10) 0.2460(8)
C22 C 0.697(2) 0.8530(11) 0.2673(10)
H17 H 0.6802 0.8480 0.3292
H18 H 0.6148 0.9121 0.2415
H19 H 0.8090 0.8761 0.2446
C23 C 1.1004(12) 0.3122(9) 0.2929(6)
H20 H 1.1877 0.3636 0.2799
C24 C 0.9620(12) 0.3358(9) 0.2466(6)
H21 H 0.9561 0.4027 0.2022
C25 C 0.6867(19) 0.7150(10) 0.1611(8)
H22 H 0.7088 0.7800 0.1162
C26 C 0.6663(17) 0.6043(10) 0.1409(8)
H23 H 0.6750 0.5959 0.0830
C27 C 0.4894(13) 0.3600(9) 0.1384(7)
H24 H 0.4137 0.4128 0.1070
C28 C 0.5095(12) 0.2353(9) 0.1474(6)
N5 N 0.6305(10) 0.1857(7) 0.1971(5)
C29 C 0.4127(14) 0.1561(11) 0.1118(8)
H25 H 1.457(18) 0.105(13) 0.323(9)
H26 H 1.365(19) 0.005(14) 0.383(9)
loop_
_geom_bond_atom_site_label_1
_geom_bond_atom_site_label_2
_geom_bond_site_symmetry_1
_geom_bond_site_symmetry_2
C1 H1 1_555 1_555
H2 C1 1_555 1_555
N1 C2 1_555 1_555
C2 H3 1_555 1_555
C3 C2 1_555 1_555
H4 C3 1_555 1_555
C4 C1 1_555 1_555
C5 N1 1_555 1_555
H5 C5 1_555 1_555
C6 C4 1_555 1_555
H6 C6 1_555 1_555
C7 H7 1_555 1_555
H8 C7 1_555 1_555
C8 H9 1_555 1_555
C9 C7 1_555 1_555
C10 C9 1_555 1_555
H10 C10 1_555 1_555
N2 C11 1_555 1_555
C11 C8 1_555 1_555
H11 C11 1_555 1_555
C12 C10 1_555 1_555
H12 C12 1_555 1_555
S1 O1 1_555 1_555
F1 C29 1_555 1_555
F2 C29 1_555 1_555
F3 C29 1_555 1_555
O2 S1 1_555 1_555
N3 S1 1_555 1_555
C13 S1 1_555 1_555
C14 C13 1_555 1_555
H13 C14 1_555 1_555
C15 C14 1_555 1_555
H14 C15 1_555 1_555
C16 C15 1_555 1_555
N4 C16 1_555 1_555
C17 N4 1_555 1_555
C18 C17 1_555 1_555
C19 C18 1_555 1_555
H15 C19 1_555 1_555
C20 C19 1_555 1_555
H16 C20 1_555 1_555
C21 C20 1_555 1_555
C22 C21 1_555 1_555
H17 C22 1_555 1_555
H18 C22 1_555 1_555
H19 C22 1_555 1_555
C23 C13 1_555 1_555
H20 C23 1_555 1_555
C24 C16 1_555 1_555
H21 C24 1_555 1_555
C25 C21 1_555 1_555
H22 C25 1_555 1_555
C26 C18 1_555 1_555
H23 C26 1_555 1_555
C27 C17 1_555 1_555
H24 C27 1_555 1_555
C28 C27 1_555 1_555
N5 N4 1_555 1_555
C29 C28 1_555 1_555
H25 N3 1_555 1_555
H26 N3 1_555 1_555
C1A C1 1_555 1_555
H1A C1A 1_555 1_555
H2A C1A 1_555 1_555
N1A C2A 1_555 1_555
C2A H3A 1_555 1_555
C3A C2A 1_555 1_555
H4A C3A 1_555 1_555
C4A C1A 1_555 1_555
C5A N1A 1_555 1_555
H5A C5A 1_555 1_555
C6A C4A 1_555 1_555
H6A C6A 1_555 1_555
C7A C7 1_555 1_555
H7A C7A 1_555 1_555
H8A C7A 1_555 1_555
C8A H9A 1_555 1_555
C9A C7A 1_555 1_555
C10A C9A 1_555 1_555
H10A C10A 1_555 1_555
N2A C11A 1_555 1_555
C11A C8A 1_555 1_555
H11A C11A 1_555 1_555
C12A C10A 1_555 1_555
H12A C12A 1_555 1_555
C3 C4 1_555 1_555
C5 C6 1_555 1_555
C8 C9 1_555 1_555
N2 C12 1_555 1_555
C23 C24 1_555 1_555
C25 C26 1_555 1_555
C28 N5 1_555 1_555
C3A C4A 1_555 1_555
C5A C6A 1_555 1_555
C8A C9A 1_555 1_555
N2A C12A 1_555 1_555

#END
