
#######################################################################
#
#                 Cambridge Crystallographic Data Centre
#                                CCDC 
#
#######################################################################
#
# If this CIF has been generated from an entry in the Cambridge 
# Structural Database, then it will include bibliographic, chemical, 
# crystal, experimental, refinement or atomic coordinate data resulting 
# from the CCDC's data processing and validation procedures.
#
#######################################################################

data_POVGOY
_chemical_formula_moiety         'C17 H14 F3 N3 O2 S1,C10 H8 N2,0.5(C3 H6 O1)'
_chemical_name_systematic        
"4-(5-(4-methylphenyl)-3-(trifluoromethyl)-1H-pyrazol-1-yl)benzenesulfonamide 4,4'-bipyridine acetone solvate"
_symmetry_cell_setting           monoclinic
_symmetry_space_group_name_H-M   'C 2/c'
_symmetry_Int_Tables_number      15
_space_group_name_Hall           '-C 2yn'
loop_
_symmetry_equiv_pos_site_id
_symmetry_equiv_pos_as_xyz
1 x,y,z
2 -x,y,1/2-z
3 1/2+x,1/2+y,z
4 1/2-x,1/2+y,1/2-z
5 -x,-y,-z
6 x,-y,1/2+z
7 1/2-x,1/2-y,-z
8 1/2+x,1/2-y,1/2+z
_cell_length_a                   21.710(4)
_cell_length_b                   9.5377(16)
_cell_length_c                   27.024(5)
_cell_angle_alpha                90
_cell_angle_beta                 92.813(8)
_cell_angle_gamma                90
_cell_volume                     5588.94
_cell_formula_units_Z            8
loop_
_atom_site_label
_atom_site_type_symbol
_atom_site_fract_x
_atom_site_fract_y
_atom_site_fract_z
S1 S 1.07038(3) 0.29726(8) 0.13615(2)
F1 F 0.66290(12) 0.5029(5) 0.29449(10)
F2 F 0.7393(3) 0.5918(5) 0.32587(13)
O1 O 1.09015(9) 0.1726(2) 0.16162(8)
F3 F 0.73310(14) 0.3865(4) 0.32901(9)
O2 O 1.06235(9) 0.2965(3) 0.08329(7)
C1 C 0.77126(9) 0.4824(2) 0.17321(7)
N1 N 0.82140(8) 0.4433(2) 0.20234(6)
N2 N 1.11781(10) 0.4188(3) 0.15005(9)
N3 N 0.80969(9) 0.4390(2) 0.25097(6)
C2 C 0.75595(17) 0.5026(4) -0.04101(9)
H1 H 0.7216 0.5602 -0.0519
H2 H 0.7502 0.4095 -0.0539
H3 H 0.7933 0.5415 -0.0528
C3 C 0.76026(12) 0.4976(3) 0.01490(8)
C4 C 0.78776(11) 0.3848(3) 0.03962(9)
H4 H 0.8037 0.3116 0.0215
C5 C 0.79199(11) 0.3792(3) 0.09083(9)
H5 H 0.8104 0.3021 0.1066
C6 C 0.76910(9) 0.4873(2) 0.11878(7)
C7 C 0.88259(9) 0.4112(2) 0.18803(7)
C8 C 0.91190(10) 0.2932(2) 0.20748(8)
H6 H 0.8929 0.2375 0.2305
C9 C 0.97007(10) 0.2593(2) 0.19209(8)
H7 H 0.9903 0.1798 0.2045
C10 C 0.99787(9) 0.3438(2) 0.15825(7)
C11 C 0.73640(12) 0.6037(3) 0.04333(8)
H8 H 0.7170 0.6795 0.0275
C12 C 0.74061(11) 0.5999(3) 0.09442(8)
H9 H 0.7244 0.6728 0.1126
C13 C 0.72489(11) 0.5061(3) 0.20485(9)
H10 H 0.6848 0.5354 0.1967
C14 C 0.75062(12) 0.4767(3) 0.25173(9)
C15 C 0.72084(17) 0.4823(5) 0.29956(11)
C16 C 0.91064(10) 0.4984(2) 0.15517(8)
H11 H 0.8908 0.5789 0.1433
C17 C 0.96871(10) 0.4643(3) 0.14014(9)
H12 H 0.9882 0.5219 0.1180
H13 H 1.1309(14) 0.424(3) 0.1809(12)
H14 H 1.1130(15) 0.498(4) 0.1331(13)
O3 O 0.0000 0.9493(6) 0.2500
C18 C 0.0000 0.8271(6) 0.2500
C19 C 0.0487(4) 0.7418(10) 0.2290(3)
H15 H 0.0509 0.7624 0.1944
H16 H 0.0394 0.6442 0.2332
H17 H 0.0876 0.7630 0.2458
C19A C -0.0487(4) 0.7418(10) 0.2710(3)
H15A H -0.0509 0.7624 0.3056
H16A H -0.0394 0.6442 0.2668
H17A H -0.0876 0.7630 0.2542
N4 N 0.90654(13) 0.3408(4) -0.08388(10)
C20 C 0.92659(15) 0.3693(4) -0.03782(12)
H18 H 0.9366 0.4617 -0.0298
C21 C 0.93338(14) 0.2687(3) -0.00102(10)
H19 H 0.9483 0.2943 0.0306
C22 C 0.91821(10) 0.1310(3) -0.01089(9)
C23 C 0.92247(11) 0.0206(3) 0.02784(9)
C24 C 0.91572(15) -0.1193(4) 0.01691(12)
H20 H 0.9096 -0.1482 -0.0158
C25 C 0.91810(19) -0.2163(4) 0.05444(16)
H21 H 0.9126 -0.3099 0.0457
N5 N 0.92752(16) -0.1875(3) 0.10173(12)
C26 C 0.89808(18) 0.1015(5) -0.05903(11)
H22 H 0.8882 0.0100 -0.0682
C27 C 0.8927(2) 0.2082(5) -0.09335(12)
H23 H 0.8785 0.1853 -0.1253
C28 C 0.93000(18) 0.0542(4) 0.07735(11)
H24 H 0.9335 0.1473 0.0873
C29 C 0.9322(2) -0.0522(4) 0.11189(13)
H25 H 0.9374 -0.0268 0.1451
loop_
_geom_bond_atom_site_label_1
_geom_bond_atom_site_label_2
_geom_bond_site_symmetry_1
_geom_bond_site_symmetry_2
S1 O1 1_555 1_555
F1 C15 1_555 1_555
F2 C15 1_555 1_555
F3 C15 1_555 1_555
O2 S1 1_555 1_555
C1 N1 1_555 1_555
N1 N3 1_555 1_555
N2 S1 1_555 1_555
N3 C14 1_555 1_555
C2 H1 1_555 1_555
H2 C2 1_555 1_555
H3 C2 1_555 1_555
C3 C2 1_555 1_555
C4 C3 1_555 1_555
H4 C4 1_555 1_555
C5 C4 1_555 1_555
H5 C5 1_555 1_555
C6 C1 1_555 1_555
C7 N1 1_555 1_555
C8 C7 1_555 1_555
H6 C8 1_555 1_555
C9 C8 1_555 1_555
H7 C9 1_555 1_555
C10 S1 1_555 1_555
C11 C3 1_555 1_555
H8 C11 1_555 1_555
C12 C6 1_555 1_555
H9 C12 1_555 1_555
C13 C1 1_555 1_555
H10 C13 1_555 1_555
C14 C13 1_555 1_555
C15 C14 1_555 1_555
C16 C7 1_555 1_555
H11 C16 1_555 1_555
C17 C10 1_555 1_555
H12 C17 1_555 1_555
H13 N2 1_555 1_555
H14 N2 1_555 1_555
O3 C18 1_555 1_555
C18 C19 1_555 1_555
C19 H15 1_555 1_555
H16 C19 1_555 1_555
H17 C19 1_555 1_555
N4 C20 1_555 1_555
C20 H18 1_555 1_555
C21 C20 1_555 1_555
H19 C21 1_555 1_555
C22 C21 1_555 1_555
C23 C22 1_555 1_555
C24 C23 1_555 1_555
H20 C24 1_555 1_555
C25 C24 1_555 1_555
H21 C25 1_555 1_555
N5 C25 1_555 1_555
C26 C22 1_555 1_555
H22 C26 1_555 1_555
C27 N4 1_555 1_555
H23 C27 1_555 1_555
C28 C23 1_555 1_555
H24 C28 1_555 1_555
C29 N5 1_555 1_555
H25 C29 1_555 1_555
C19A C18 1_555 1_555
H15A C19A 1_555 1_555
H16A C19A 1_555 1_555
H17A C19A 1_555 1_555
C5 C6 1_555 1_555
C9 C10 1_555 1_555
C11 C12 1_555 1_555
C16 C17 1_555 1_555
C26 C27 1_555 1_555
C28 C29 1_555 1_555

#END
