
#######################################################################
#
#                 Cambridge Crystallographic Data Centre
#                                CCDC 
#
#######################################################################
#
# If this CIF has been generated from an entry in the Cambridge 
# Structural Database, then it will include bibliographic, chemical, 
# crystal, experimental, refinement or atomic coordinate data resulting 
# from the CCDC's data processing and validation procedures.
#
#######################################################################

data_POVHOZ
_chemical_formula_moiety         'C17 H14 F3 N3 O2 S1,C12 H10 N2,0.5(C4 H8 O2)'
_chemical_name_systematic        
"4-(5-(4-methylphenyl)-3-(trifluoromethyl)-1H-pyrazol-1-yl)benzenesulfonamide 4,4'-ethene-1,2-diyldipyridine 1,4-dioxane solvate"
_symmetry_cell_setting           monoclinic
_symmetry_space_group_name_H-M   'C 2/c'
_symmetry_Int_Tables_number      15
_space_group_name_Hall           '-C 2yn'
loop_
_symmetry_equiv_pos_site_id
_symmetry_equiv_pos_as_xyz
1 x,y,z
2 -x,y,1/2-z
3 1/2+x,1/2+y,z
4 1/2-x,1/2+y,1/2-z
5 -x,-y,-z
6 x,-y,1/2+z
7 1/2-x,1/2-y,-z
8 1/2+x,1/2-y,1/2+z
_cell_length_a                   21.5985(15)
_cell_length_b                   9.9370(7)
_cell_length_c                   28.061(2)
_cell_angle_alpha                90
_cell_angle_beta                 92.248(3)
_cell_angle_gamma                90
_cell_volume                     6017.94
_cell_formula_units_Z            8
loop_
_atom_site_label
_atom_site_type_symbol
_atom_site_fract_x
_atom_site_fract_y
_atom_site_fract_z
S1 S 1.06877(4) 0.80485(10) 0.14192(4)
C1 C 0.7581(3) 0.4967(6) -0.02675(17)
H1 H 0.7731 0.5746 -0.0429
H2 H 0.7158 0.4800 -0.0369
H3 H 0.7830 0.4201 -0.0343
O1 O 1.06299(15) 0.8048(3) 0.09099(10)
O2 O 1.08541(13) 0.9252(3) 0.16674(12)
F1 F 0.66329(18) 0.5670(6) 0.29631(15)
N1 N 1.11881(16) 0.6938(4) 0.15553(15)
N2 N 0.80825(15) 0.6429(4) 0.25091(13)
C2 C 0.7511(2) 0.5946(5) 0.25322(18)
F2 F 0.7346(3) 0.6737(7) 0.32842(18)
C3 C 0.99604(16) 0.7531(4) 0.16232(13)
C4 C 0.96484(17) 0.8311(4) 0.19418(13)
H4 H 0.9826 0.9099 0.2063
C5 C 0.90666(17) 0.7912(4) 0.20810(14)
H5 H 0.8853 0.8426 0.2298
C6 C 0.88075(16) 0.6750(4) 0.18961(14)
N3 N 0.82041(14) 0.6348(3) 0.20413(12)
C7 C 0.77183(17) 0.5833(4) 0.17708(15)
C8 C 0.77002(17) 0.5641(4) 0.12553(15)
C9 C 0.79165(19) 0.6588(4) 0.09389(16)
H6 H 0.8091 0.7384 0.1055
C10 C 0.78758(19) 0.6362(5) 0.04541(17)
H7 H 0.8027 0.7011 0.0250
C11 C 0.7618(2) 0.5205(5) 0.02627(16)
C12 C 0.91269(17) 0.5944(4) 0.15904(15)
H8 H 0.8954 0.5139 0.1480
C13 C 0.97021(17) 0.6335(4) 0.14493(15)
H9 H 0.9918 0.5805 0.1239
C14 C 0.7204(4) 0.5950(12) 0.2982(3)
F3 F 0.7407(3) 0.4824(10) 0.3233(2)
C15 C 0.7264(2) 0.5566(5) 0.20869(16)
H10 H 0.6874 0.5207 0.2018
C16 C 0.7389(2) 0.4272(5) 0.05823(17)
H11 H 0.7204 0.3488 0.0465
C17 C 0.7430(2) 0.4477(5) 0.10634(16)
H12 H 0.7276 0.3830 0.1266
H13 H 1.129(3) 0.675(6) 0.186(2)
H14 H 1.1155(19) 0.610(5) 0.1403(15)
O3 O 0.0000 0.4515(10) 0.2500
O4 O 0.0000 0.1767(7) 0.2500
C18 C 0.0494(5) 0.2447(12) 0.2353(5)
H15 H 0.0555 0.2191 0.2025
H16 H 0.0853 0.2130 0.2539
C19 C 0.0497(8) 0.3808(14) 0.2372(6)
H17 H 0.0838 0.4063 0.2589
H18 H 0.0602 0.4125 0.2059
C18A C -0.0494(5) 0.2447(12) 0.2647(5)
H15A H -0.0555 0.2191 0.2975
H16A H -0.0853 0.2130 0.2461
C19A C -0.0497(8) 0.3808(14) 0.2628(6)
H17A H -0.0838 0.4063 0.2411
H18A H -0.0602 0.4125 0.2941
N4 N 0.89869(19) 0.5529(4) -0.09840(15)
C20 C 0.8816(3) 0.6769(6) -0.1090(2)
H19 H 0.8629 0.6936 -0.1389
C21 C 0.8903(3) 0.7848(5) -0.0773(2)
H20 H 0.8786 0.8714 -0.0865
C22 C 0.9163(2) 0.7624(5) -0.03249(19)
C23 C 0.9256(2) 0.8657(6) 0.0062(2)
H21 H 0.9422 0.8361 0.0354
C24 C 0.9131(2) 0.9876(6) 0.0025(2)
H22 H 0.8980 1.0173 -0.0272
C25 C 0.9199(2) 1.0894(5) 0.04059(16)
C26 C 0.9019(3) 1.2185(5) 0.03000(19)
H23 H 0.8870 1.2401 -0.0006
C27 C 0.9058(3) 1.3150(5) 0.0644(2)
H24 H 0.8927 1.4014 0.0562
N5 N 0.9271(3) 1.2939(5) 0.10871(18)
C28 C 0.9239(2) 0.5342(5) -0.0555(2)
H25 H 0.9364 0.4476 -0.0471
C29 C 0.9329(2) 0.6333(6) -0.02252(19)
H26 H 0.9507 0.6124 0.0073
C30 C 0.9414(3) 1.0674(6) 0.0866(2)
H27 H 0.9540 0.9817 0.0960
C31 C 0.9442(4) 1.1707(7) 0.1182(2)
H28 H 0.9595 1.1521 0.1490
loop_
_geom_bond_atom_site_label_1
_geom_bond_atom_site_label_2
_geom_bond_site_symmetry_1
_geom_bond_site_symmetry_2
S1 O1 1_555 1_555
C1 H1 1_555 1_555
H2 C1 1_555 1_555
H3 C1 1_555 1_555
O2 S1 1_555 1_555
F1 C14 1_555 1_555
N1 S1 1_555 1_555
N2 C2 1_555 1_555
C2 C14 1_555 1_555
F2 C14 1_555 1_555
C3 S1 1_555 1_555
C4 C3 1_555 1_555
H4 C4 1_555 1_555
C5 C4 1_555 1_555
H5 C5 1_555 1_555
C6 C5 1_555 1_555
N3 N2 1_555 1_555
C7 N3 1_555 1_555
C8 C7 1_555 1_555
C9 C8 1_555 1_555
H6 C9 1_555 1_555
C10 C9 1_555 1_555
H7 C10 1_555 1_555
C11 C1 1_555 1_555
C12 C6 1_555 1_555
H8 C12 1_555 1_555
C13 C3 1_555 1_555
H9 C13 1_555 1_555
C14 F3 1_555 1_555
C15 C2 1_555 1_555
H10 C15 1_555 1_555
C16 C11 1_555 1_555
H11 C16 1_555 1_555
C17 C8 1_555 1_555
H12 C17 1_555 1_555
H13 N1 1_555 1_555
H14 N1 1_555 1_555
O3 C19 1_555 1_555
O4 C18 1_555 1_555
C18 H15 1_555 1_555
H16 C18 1_555 1_555
C19 C18 1_555 1_555
H17 C19 1_555 1_555
H18 C19 1_555 1_555
N4 C20 1_555 1_555
C20 H19 1_555 1_555
C21 C20 1_555 1_555
H20 C21 1_555 1_555
C22 C21 1_555 1_555
C23 C22 1_555 1_555
H21 C23 1_555 1_555
C24 C23 1_555 1_555
H22 C24 1_555 1_555
C25 C24 1_555 1_555
C26 C25 1_555 1_555
H23 C26 1_555 1_555
C27 C26 1_555 1_555
H24 C27 1_555 1_555
N5 C27 1_555 1_555
C28 N4 1_555 1_555
H25 C28 1_555 1_555
C29 C22 1_555 1_555
H26 C29 1_555 1_555
C30 C25 1_555 1_555
H27 C30 1_555 1_555
C31 N5 1_555 1_555
H28 C31 1_555 1_555
C18A O4 1_555 1_555
H15A C18A 1_555 1_555
H16A C18A 1_555 1_555
C19A O3 1_555 1_555
H17A C19A 1_555 1_555
H18A C19A 1_555 1_555
C6 N3 1_555 1_555
C7 C15 1_555 1_555
C10 C11 1_555 1_555
C12 C13 1_555 1_555
C16 C17 1_555 1_555
C28 C29 1_555 1_555
C30 C31 1_555 1_555
C18A C19A 1_555 1_555

#END
