
#######################################################################
#
#                 Cambridge Crystallographic Data Centre
#                                CCDC 
#
#######################################################################
#
# If this CIF has been generated from an entry in the Cambridge 
# Structural Database, then it will include bibliographic, chemical, 
# crystal, experimental, refinement or atomic coordinate data resulting 
# from the CCDC's data processing and validation procedures.
#
#######################################################################

data_POVHAL
_chemical_formula_moiety         'C17 H14 F3 N3 O2 S1,C10 H8 N2,0.5(C4 H8 O2)'
_chemical_name_systematic        
"4-(5-(4-methylphenyl)-3-(trifluoromethyl)-1H-pyrazol-1-yl)benzenesulfonamide 4,4'-bipyridine 1,4-dioxane solvate"
_symmetry_cell_setting           monoclinic
_symmetry_space_group_name_H-M   'C 2/c'
_symmetry_Int_Tables_number      15
_space_group_name_Hall           '-C 2yn'
loop_
_symmetry_equiv_pos_site_id
_symmetry_equiv_pos_as_xyz
1 x,y,z
2 -x,y,1/2-z
3 1/2+x,1/2+y,z
4 1/2-x,1/2+y,1/2-z
5 -x,-y,-z
6 x,-y,1/2+z
7 1/2-x,1/2-y,-z
8 1/2+x,1/2-y,1/2+z
_cell_length_a                   21.9683(5)
_cell_length_b                   9.4685(2)
_cell_length_c                   27.2121(6)
_cell_angle_alpha                90
_cell_angle_beta                 93.4200(10)
_cell_angle_gamma                90
_cell_volume                     5650.22
_cell_formula_units_Z            8
loop_
_atom_site_label
_atom_site_type_symbol
_atom_site_fract_x
_atom_site_fract_y
_atom_site_fract_z
S1 S 0.56940(3) 0.78530(9) 0.13710(2)
F1 F 0.23622(15) 0.8992(4) 0.32691(10)
F2 F 0.2549(3) 1.1038(5) 0.32640(14)
F3 F 0.17274(14) 1.0342(5) 0.29447(10)
O1 O 0.58805(9) 0.6609(2) 0.16365(9)
O2 O 0.56175(10) 0.7813(3) 0.08458(7)
C1 C 0.27148(11) 0.9916(3) 0.11830(9)
N1 N 0.32524(9) 0.9493(3) 0.20129(7)
N2 N 0.61748(11) 0.9055(4) 0.15019(10)
N3 N 0.31472(10) 0.9494(3) 0.24982(8)
C2 C 0.2550(2) 1.0014(4) -0.04078(11)
H1 H 0.2512 0.9069 -0.0533
H2 H 0.2909 1.0446 -0.0526
H3 H 0.2197 1.0553 -0.0518
C3 C 0.25991(14) 0.9975(4) 0.01492(10)
C4 C 0.28819(14) 0.8865(4) 0.03985(11)
H4 H 0.3040 0.8127 0.0220
C5 C 0.29356(13) 0.8823(3) 0.09081(10)
H5 H 0.3122 0.8052 0.1067
C6 C 0.27511(12) 0.9905(3) 0.17251(9)
C7 C 0.38494(11) 0.9120(3) 0.18706(8)
C8 C 0.41301(11) 0.7939(3) 0.20729(9)
H6 H 0.3940 0.7405 0.2306
C9 C 0.47023(12) 0.7554(3) 0.19247(9)
H7 H 0.4897 0.6755 0.2056
C10 C 0.49795(11) 0.8365(3) 0.15812(8)
C11 C 0.25706(14) 0.9926(4) 0.25094(11)
C12 C 0.23060(13) 1.0196(4) 0.20426(10)
H8 H 0.1911 1.0508 0.1962
C13 C 0.23643(15) 1.1053(3) 0.04261(10)
H9 H 0.2165 1.1804 0.0265
C14 C 0.24182(13) 1.1040(3) 0.09357(10)
H10 H 0.2258 1.1777 0.1113
C15 C 0.22919(18) 1.0030(5) 0.29877(13)
C16 C 0.41306(12) 0.9955(3) 0.15358(10)
H11 H 0.3938 1.0763 0.1409
C17 C 0.47005(12) 0.9584(3) 0.13895(10)
H12 H 0.4896 1.0141 0.1166
H13 H 0.6110(16) 0.984(4) 0.1342(13)
H14 H 0.6329(15) 0.915(4) 0.1823(13)
O3 O 0.5000 0.4301(4) 0.2500
O4 O 0.5000 0.1390(6) 0.2500
C18 C 0.5468(4) 0.3598(7) 0.2304(4)
H15 H 0.5846 0.3900 0.2475
H16 H 0.5484 0.3882 0.1962
C19 C 0.5443(5) 0.2070(7) 0.2321(4)
H17 H 0.5470 0.1741 0.1985
H18 H 0.5813 0.1761 0.2502
C18A C 0.4532(4) 0.3598(7) 0.2696(4)
H15A H 0.4154 0.3900 0.2525
H16A H 0.4516 0.3882 0.3038
C19A C 0.4557(5) 0.2070(7) 0.2679(4)
H17A H 0.4530 0.1741 0.3015
H18A H 0.4187 0.1761 0.2498
N4 N 0.42183(18) 0.3193(4) 0.10079(12)
N5 N 0.40609(14) 0.8512(4) -0.08351(10)
C20 C 0.3910(2) 0.7185(5) -0.09282(13)
H19 H 0.3764 0.6963 -0.1247
C21 C 0.39541(18) 0.6105(4) -0.05886(11)
H20 H 0.3838 0.5193 -0.0680
C22 C 0.41733(12) 0.6389(4) -0.01093(10)
C23 C 0.42027(13) 0.5289(3) 0.02755(10)
C24 C 0.42301(18) 0.5622(4) 0.07731(11)
H21 H 0.4242 0.6561 0.0874
C25 C 0.4240(2) 0.4563(5) 0.11149(13)
H22 H 0.4264 0.4819 0.1445
C26 C 0.4175(2) 0.2883(4) 0.05346(15)
H23 H 0.4145 0.1936 0.0446
C27 C 0.41707(18) 0.3868(4) 0.01639(12)
H24 H 0.4146 0.3577 -0.0163
C28 C 0.42792(17) 0.8781(4) -0.03767(13)
H25 H 0.4396 0.9702 -0.0299
C29 C 0.43419(15) 0.7776(4) -0.00112(11)
H26 H 0.4498 0.8028 0.0302
loop_
_geom_bond_atom_site_label_1
_geom_bond_atom_site_label_2
_geom_bond_site_symmetry_1
_geom_bond_site_symmetry_2
S1 O1 1_555 1_555
F1 C15 1_555 1_555
F2 C15 1_555 1_555
F3 C15 1_555 1_555
O2 S1 1_555 1_555
C1 C5 1_555 1_555
N1 N3 1_555 1_555
N2 S1 1_555 1_555
N3 C11 1_555 1_555
C2 H1 1_555 1_555
H2 C2 1_555 1_555
H3 C2 1_555 1_555
C3 C2 1_555 1_555
C4 C3 1_555 1_555
H4 C4 1_555 1_555
C5 C4 1_555 1_555
H5 C5 1_555 1_555
C6 C1 1_555 1_555
C7 N1 1_555 1_555
C8 C7 1_555 1_555
H6 C8 1_555 1_555
C9 C8 1_555 1_555
H7 C9 1_555 1_555
C10 S1 1_555 1_555
C11 C12 1_555 1_555
C12 C6 1_555 1_555
H8 C12 1_555 1_555
C13 C3 1_555 1_555
H9 C13 1_555 1_555
C14 C1 1_555 1_555
H10 C14 1_555 1_555
C15 C11 1_555 1_555
C16 C7 1_555 1_555
H11 C16 1_555 1_555
C17 C10 1_555 1_555
H12 C17 1_555 1_555
H13 N2 1_555 1_555
H14 N2 1_555 1_555
O3 C18 1_555 1_555
O4 C19 1_555 1_555
C18 H15 1_555 1_555
H16 C18 1_555 1_555
C19 C18 1_555 1_555
H17 C19 1_555 1_555
H18 C19 1_555 1_555
N4 C25 1_555 1_555
N5 C20 1_555 1_555
C20 H19 1_555 1_555
C21 C20 1_555 1_555
H20 C21 1_555 1_555
C22 C21 1_555 1_555
C23 C22 1_555 1_555
C24 C23 1_555 1_555
H21 C24 1_555 1_555
C25 C24 1_555 1_555
H22 C25 1_555 1_555
C26 N4 1_555 1_555
H23 C26 1_555 1_555
C27 C23 1_555 1_555
H24 C27 1_555 1_555
C28 N5 1_555 1_555
H25 C28 1_555 1_555
C29 C22 1_555 1_555
H26 C29 1_555 1_555
C18A O3 1_555 1_555
H15A C18A 1_555 1_555
H16A C18A 1_555 1_555
C19A O4 1_555 1_555
H17A C19A 1_555 1_555
H18A C19A 1_555 1_555
N1 C6 1_555 1_555
C9 C10 1_555 1_555
C13 C14 1_555 1_555
C16 C17 1_555 1_555
C26 C27 1_555 1_555
C28 C29 1_555 1_555
C18A C19A 1_555 1_555

#END
