
#######################################################################
#
#                 Cambridge Crystallographic Data Centre
#                                CCDC 
#
#######################################################################
#
# If this CIF has been generated from an entry in the Cambridge 
# Structural Database, then it will include bibliographic, chemical, 
# crystal, experimental, refinement or atomic coordinate data resulting 
# from the CCDC's data processing and validation procedures.
#
#######################################################################

data_POVMUK
_chemical_formula_moiety         'C72 H62 N4 O8,4(C1 H1 Cl3)'
_chemical_name_systematic        
"N,N,N',N',N'',N'',N''',N'''-octakis(4-methoxyphenyl)pyrene-1,3,6,8-tetramine chloroform solvate"
_symmetry_cell_setting           triclinic
_symmetry_space_group_name_H-M   'P -1'
_symmetry_Int_Tables_number      2
_space_group_name_Hall           '-P 1'
loop_
_symmetry_equiv_pos_site_id
_symmetry_equiv_pos_as_xyz
1 x,y,z
2 -x,-y,-z
_cell_length_a                   12.300(2)
_cell_length_b                   15.462(3)
_cell_length_c                   21.916(4)
_cell_angle_alpha                100.2890(10)
_cell_angle_beta                 104.314(3)
_cell_angle_gamma                107.175(2)
_cell_volume                     3713.29
_exptl_crystal_colour            brown
_exptl_crystal_description       block
_cell_formula_units_Z            2
loop_
_atom_site_label
_atom_site_type_symbol
_atom_site_fract_x
_atom_site_fract_y
_atom_site_fract_z
Cl1 Cl 0.4165(4) 0.4324(4) 0.8301(2)
Cl2 Cl 0.6032(4) 0.4903(5) 0.9451(3)
Cl3 Cl 0.4121(8) 0.3164(5) 0.9133(5)
C1 C 0.4604(14) 0.4275(11) 0.9050(9)
H1 H 0.4160 0.4602 0.9274
Cl4 Cl 0.7647(2) 0.87150(12) 0.59255(11)
Cl5 Cl 0.92052(17) 0.76709(15) 0.61997(14)
Cl6 Cl 0.67104(15) 0.68663(11) 0.60794(9)
C2 C 0.7769(7) 0.7614(4) 0.5796(3)
H2 H 0.7578 0.7342 0.5316
Cl7 Cl 0.19217(19) 0.79164(17) 0.58476(9)
Cl8 Cl 0.42104(14) 0.78714(13) 0.57574(9)
Cl9 Cl 0.21188(15) 0.71781(13) 0.45934(8)
C3 C 0.2880(6) 0.7970(5) 0.5357(3)
H3 H 0.3088 0.8612 0.5286
Cl10 Cl 0.37049(18) 0.9102(2) 0.91438(11)
Cl11 Cl 0.4830(2) 0.79785(16) 0.97962(10)
Cl12 Cl 0.61137(14) 0.92923(14) 0.92211(8)
C4 C 0.4719(6) 0.8527(5) 0.9169(3)
H4 H 0.4419 0.8025 0.8746
O1 O 0.7909(3) 1.0468(2) 0.52313(16)
O2 O 0.8520(4) 1.4492(3) 0.94561(18)
O3 O 0.1733(3) 1.2789(2) 0.56649(17)
O4 O 0.0200(3) 1.0285(3) 0.93235(18)
O5 O -0.2434(3) 0.4947(3) 0.52214(17)
O6 O 0.1346(4) 0.3689(3) 0.92313(18)
O7 O 0.9983(3) 0.7972(3) 0.9595(2)
O8 O 0.4498(3) 0.2898(2) 0.5762(2)
N1 N 0.6560(3) 1.1112(2) 0.74779(18)
N2 N 0.2452(3) 1.0647(2) 0.74167(18)
N3 N 0.1502(3) 0.5870(2) 0.74644(19)
N4 N 0.5628(3) 0.6347(3) 0.7550(2)
C5 C 0.5423(4) 1.0496(3) 0.7468(2)
C6 C 0.4493(4) 1.0840(3) 0.7458(2)
H5 H 0.4621 1.1477 0.7457
C7 C 0.3382(4) 1.0263(3) 0.7450(2)
C8 C 0.3178(4) 0.9323(3) 0.7454(2)
C9 C 0.2035(4) 0.8687(3) 0.7432(2)
H6 H 0.1385 0.8907 0.7404
C10 C 0.1858(4) 0.7793(3) 0.7451(2)
H7 H 0.1097 0.7403 0.7448
C11 C 0.2797(4) 0.7416(3) 0.7474(2)
C12 C 0.2637(4) 0.6482(3) 0.7490(2)
C13 C 0.3591(4) 0.6160(3) 0.7536(2)
H8 H 0.3474 0.5533 0.7560
C14 C 0.4711(4) 0.6733(3) 0.7549(2)
C15 C 0.4906(4) 0.7664(3) 0.7512(2)
C16 C 0.6020(4) 0.8281(3) 0.7495(2)
H9 H 0.6661 0.8055 0.7501
C17 C 0.6180(4) 0.9166(3) 0.7471(2)
H10 H 0.6927 0.9549 0.7453
C18 C 0.5252(4) 0.9554(3) 0.7470(2)
C19 C 0.4135(3) 0.8975(3) 0.7476(2)
C20 C 0.3942(4) 0.8011(3) 0.7487(2)
C21 C 0.6923(4) 1.0975(3) 0.6914(2)
C22 C 0.6085(4) 1.0486(3) 0.6297(2)
H11 H 0.5253 1.0262 0.6250
C23 C 0.6453(4) 1.0325(3) 0.5758(2)
H12 H 0.5871 0.9973 0.5344
C24 C 0.7640(4) 1.0661(3) 0.5803(2)
C25 C 0.8498(4) 1.1147(3) 0.6414(2)
H13 H 0.9326 1.1379 0.6454
C26 C 0.8133(3) 1.1288(3) 0.6963(2)
H14 H 0.8721 1.1603 0.7381
C27 C 0.9148(4) 1.0801(4) 0.5279(3)
H15 H 0.9223 1.0674 0.4840
H16 H 0.9570 1.0478 0.5542
H17 H 0.9501 1.1480 0.5488
C28 C 0.7095(4) 1.2000(3) 0.7965(2)
C29 C 0.7567(4) 1.2830(3) 0.7825(2)
H18 H 0.7550 1.2824 0.7389
C30 C 0.8072(4) 1.3682(3) 0.8305(2)
H19 H 0.8416 1.4249 0.8201
C31 C 0.8067(4) 1.3695(3) 0.8937(2)
C32 C 0.7614(5) 1.2870(4) 0.9095(2)
H20 H 0.7640 1.2880 0.9533
C33 C 0.7113(4) 1.2016(3) 0.8607(2)
H21 H 0.6786 1.1445 0.8712
C34 C 0.8990(7) 1.5379(4) 0.9316(3)
H22 H 0.8349 1.5474 0.8998
H23 H 0.9642 1.5377 0.9135
H24 H 0.9298 1.5890 0.9721
C35 C 0.2292(4) 1.1216(3) 0.6992(2)
C36 C 0.2333(4) 1.0960(3) 0.6355(2)
H25 H 0.2475 1.0399 0.6208
C37 C 0.2168(4) 1.1516(3) 0.5936(2)
H26 H 0.2214 1.1339 0.5508
C38 C 0.1938(4) 1.2322(3) 0.6131(2)
C39 C 0.1902(4) 1.2595(3) 0.6757(2)
H27 H 0.1759 1.3156 0.6899
C40 C 0.2082(4) 1.2028(3) 0.7185(2)
H28 H 0.2056 1.2215 0.7617
C41 C 0.1384(5) 1.3585(4) 0.5838(3)
H29 H 0.1243 1.3851 0.5465
H30 H 0.2026 1.4062 0.6212
H31 H 0.0647 1.3383 0.5954
C42 C 0.1871(4) 1.0602(3) 0.7902(2)
C43 C 0.2502(4) 1.0727(3) 0.8547(2)
H32 H 0.3350 1.0897 0.8676
C44 C 0.1926(4) 1.0611(3) 0.9004(2)
H33 H 0.2377 1.0685 0.9442
C45 C 0.0693(4) 1.0387(3) 0.8835(2)
C46 C 0.0044(4) 1.0285(3) 0.8185(2)
H34 H -0.0797 1.0150 0.8061
C47 C 0.0632(4) 1.0380(3) 0.7733(2)
H35 H 0.0184 1.0292 0.7292
C48 C -0.1059(5) 1.0024(5) 0.9162(3)
H36 H -0.1449 0.9414 0.8832
H37 H -0.1311 1.0499 0.8988
H38 H -0.1290 0.9976 0.9556
C49 C 0.0493(4) 0.5639(3) 0.6903(2)
C50 C 0.0632(4) 0.5687(3) 0.6291(2)
H39 H 0.1413 0.5871 0.6250
C51 C -0.0348(4) 0.5471(3) 0.5754(2)
H40 H -0.0236 0.5523 0.5347
C52 C -0.1509(4) 0.5177(3) 0.5794(2)
C53 C -0.1670(4) 0.5111(3) 0.6395(2)
H41 H -0.2456 0.4903 0.6427
C54 C -0.0681(4) 0.5348(3) 0.6942(2)
H42 H -0.0795 0.5314 0.7351
C55 C -0.3612(5) 0.4507(4) 0.5239(3)
H43 H -0.4190 0.4332 0.4800
H44 H -0.3804 0.4944 0.5540
H45 H -0.3655 0.3942 0.5390
C56 C 0.1461(4) 0.5288(3) 0.7907(2)
C57 C 0.1991(4) 0.5690(3) 0.8579(2)
H46 H 0.2388 0.6352 0.8744
C58 C 0.1945(5) 0.5140(3) 0.9003(2)
H47 H 0.2315 0.5425 0.9459
C59 C 0.1364(4) 0.4167(3) 0.8776(2)
C60 C 0.0836(4) 0.3765(3) 0.8107(2)
H48 H 0.0437 0.3103 0.7944
C61 C 0.0880(4) 0.4311(3) 0.7676(2)
H49 H 0.0516 0.4023 0.7219
C62 C 0.0696(5) 0.2666(4) 0.8991(3)
H50 H -0.0082 0.2535 0.8666
H51 H 0.0569 0.2415 0.9358
H52 H 0.1169 0.2367 0.8789
C63 C 0.6748(4) 0.6756(3) 0.8065(2)
C64 C 0.6790(4) 0.7088(3) 0.8706(2)
H53 H 0.6067 0.7024 0.8807
C65 C 0.7889(5) 0.7514(4) 0.9198(2)
H54 H 0.7921 0.7765 0.9633
C66 C 0.8947(4) 0.7574(3) 0.9054(3)
C67 C 0.8913(4) 0.7239(3) 0.8433(3)
H55 H 0.9638 0.7284 0.8340
C68 C 0.7804(4) 0.6823(4) 0.7921(3)
H56 H 0.7781 0.6593 0.7485
C69 C 1.1068(5) 0.8124(5) 0.9455(4)
H57 H 1.1089 0.8485 0.9130
H58 H 1.1130 0.7517 0.9281
H59 H 1.1743 0.8477 0.9857
C70 C 0.5331(4) 0.5447(3) 0.7122(2)
C71 C 0.5794(4) 0.4788(3) 0.7302(3)
H60 H 0.6315 0.4927 0.7735
C72 C 0.5519(4) 0.3929(3) 0.6869(3)
H61 H 0.5843 0.3484 0.7010
C73 C 0.4793(4) 0.3714(3) 0.6245(2)
C74 C 0.4322(5) 0.4370(3) 0.6047(3)
H62 H 0.3820 0.4232 0.5610
C75 C 0.4579(4) 0.5224(3) 0.6485(2)
H63 H 0.4237 0.5662 0.6348
C76 C 0.5029(5) 0.2239(4) 0.5930(3)
H64 H 0.4732 0.1684 0.5555
H65 H 0.4819 0.2052 0.6302
H66 H 0.5904 0.2526 0.6048
loop_
_geom_bond_atom_site_label_1
_geom_bond_atom_site_label_2
_geom_bond_site_symmetry_1
_geom_bond_site_symmetry_2
Cl1 C1 1_555 1_555
Cl2 C1 1_555 1_555
Cl3 C1 1_555 1_555
C1 H1 1_555 1_555
Cl4 C2 1_555 1_555
Cl5 C2 1_555 1_555
Cl6 C2 1_555 1_555
C2 H2 1_555 1_555
Cl7 C3 1_555 1_555
Cl8 C3 1_555 1_555
Cl9 C3 1_555 1_555
C3 H3 1_555 1_555
Cl10 C4 1_555 1_555
Cl11 C4 1_555 1_555
Cl12 C4 1_555 1_555
C4 H4 1_555 1_555
O1 C24 1_555 1_555
O2 C31 1_555 1_555
O3 C38 1_555 1_555
O4 C45 1_555 1_555
O5 C52 1_555 1_555
O6 C59 1_555 1_555
O7 C66 1_555 1_555
O8 C73 1_555 1_555
N1 C5 1_555 1_555
N2 C7 1_555 1_555
N3 C12 1_555 1_555
N4 C14 1_555 1_555
C5 C6 1_555 1_555
C6 H5 1_555 1_555
C7 C6 1_555 1_555
C8 C7 1_555 1_555
C9 C8 1_555 1_555
H6 C9 1_555 1_555
C10 C9 1_555 1_555
H7 C10 1_555 1_555
C11 C10 1_555 1_555
C12 C11 1_555 1_555
C13 C12 1_555 1_555
H8 C13 1_555 1_555
C14 C13 1_555 1_555
C15 C14 1_555 1_555
C16 C15 1_555 1_555
H9 C16 1_555 1_555
C17 C16 1_555 1_555
H10 C17 1_555 1_555
C18 C5 1_555 1_555
C19 C8 1_555 1_555
C20 C11 1_555 1_555
C21 N1 1_555 1_555
C22 C21 1_555 1_555
H11 C22 1_555 1_555
C23 C22 1_555 1_555
H12 C23 1_555 1_555
C24 C23 1_555 1_555
C25 C24 1_555 1_555
H13 C25 1_555 1_555
C26 C21 1_555 1_555
H14 C26 1_555 1_555
C27 O1 1_555 1_555
H15 C27 1_555 1_555
H16 C27 1_555 1_555
H17 C27 1_555 1_555
C28 N1 1_555 1_555
C29 C28 1_555 1_555
H18 C29 1_555 1_555
C30 C29 1_555 1_555
H19 C30 1_555 1_555
C31 C30 1_555 1_555
C32 C31 1_555 1_555
H20 C32 1_555 1_555
C33 C28 1_555 1_555
H21 C33 1_555 1_555
C34 O2 1_555 1_555
H22 C34 1_555 1_555
H23 C34 1_555 1_555
H24 C34 1_555 1_555
C35 N2 1_555 1_555
C36 C35 1_555 1_555
H25 C36 1_555 1_555
C37 C36 1_555 1_555
H26 C37 1_555 1_555
C38 C37 1_555 1_555
C39 C38 1_555 1_555
H27 C39 1_555 1_555
C40 C35 1_555 1_555
H28 C40 1_555 1_555
C41 O3 1_555 1_555
H29 C41 1_555 1_555
H30 C41 1_555 1_555
H31 C41 1_555 1_555
C42 N2 1_555 1_555
C43 C42 1_555 1_555
H32 C43 1_555 1_555
C44 C43 1_555 1_555
H33 C44 1_555 1_555
C45 C44 1_555 1_555
C46 C45 1_555 1_555
H34 C46 1_555 1_555
C47 C42 1_555 1_555
H35 C47 1_555 1_555
C48 O4 1_555 1_555
H36 C48 1_555 1_555
H37 C48 1_555 1_555
H38 C48 1_555 1_555
C49 N3 1_555 1_555
C50 C49 1_555 1_555
H39 C50 1_555 1_555
C51 C50 1_555 1_555
H40 C51 1_555 1_555
C52 C51 1_555 1_555
C53 C52 1_555 1_555
H41 C53 1_555 1_555
C54 C49 1_555 1_555
H42 C54 1_555 1_555
C55 O5 1_555 1_555
H43 C55 1_555 1_555
H44 C55 1_555 1_555
H45 C55 1_555 1_555
C56 N3 1_555 1_555
C57 C56 1_555 1_555
H46 C57 1_555 1_555
C58 C57 1_555 1_555
H47 C58 1_555 1_555
C59 C58 1_555 1_555
C60 C59 1_555 1_555
H48 C60 1_555 1_555
C61 C56 1_555 1_555
H49 C61 1_555 1_555
C62 O6 1_555 1_555
H50 C62 1_555 1_555
H51 C62 1_555 1_555
H52 C62 1_555 1_555
C63 N4 1_555 1_555
C64 C63 1_555 1_555
H53 C64 1_555 1_555
C65 C64 1_555 1_555
H54 C65 1_555 1_555
C66 C65 1_555 1_555
C67 C66 1_555 1_555
H55 C67 1_555 1_555
C68 C63 1_555 1_555
H56 C68 1_555 1_555
C69 O7 1_555 1_555
H57 C69 1_555 1_555
H58 C69 1_555 1_555
H59 C69 1_555 1_555
C70 N4 1_555 1_555
C71 C70 1_555 1_555
H60 C71 1_555 1_555
C72 C71 1_555 1_555
H61 C72 1_555 1_555
C73 C72 1_555 1_555
C74 C73 1_555 1_555
H62 C74 1_555 1_555
C75 C70 1_555 1_555
H63 C75 1_555 1_555
C76 O8 1_555 1_555
H64 C76 1_555 1_555
H65 C76 1_555 1_555
H66 C76 1_555 1_555
C15 C20 1_555 1_555
C17 C18 1_555 1_555
C18 C19 1_555 1_555
C19 C20 1_555 1_555
C25 C26 1_555 1_555
C32 C33 1_555 1_555
C39 C40 1_555 1_555
C46 C47 1_555 1_555
C53 C54 1_555 1_555
C60 C61 1_555 1_555
C67 C68 1_555 1_555
C74 C75 1_555 1_555

#END
