
#######################################################################
#
#                 Cambridge Crystallographic Data Centre
#                                CCDC 
#
#######################################################################
#
# If this CIF has been generated from an entry in the Cambridge 
# Structural Database, then it will include bibliographic, chemical, 
# crystal, experimental, refinement or atomic coordinate data resulting 
# from the CCDC's data processing and validation procedures.
#
#######################################################################

data_POVNUL
_chemical_formula_moiety         'C32 H26 N2 O1'
_chemical_name_systematic        
1'-benzyl-2'-benzylidene-5'-methyl-1',2'-dihydrospiro[fluorene-9,3'-pyrrole]-4'-carboxamide
_symmetry_cell_setting           triclinic
_symmetry_space_group_name_H-M   'P -1'
_symmetry_Int_Tables_number      2
_space_group_name_Hall           '-P 1'
loop_
_symmetry_equiv_pos_site_id
_symmetry_equiv_pos_as_xyz
1 x,y,z
2 -x,-y,-z
_cell_length_a                   9.6392(14)
_cell_length_b                   16.774(2)
_cell_length_c                   16.937(2)
_cell_angle_alpha                65.237(2)
_cell_angle_beta                 84.726(2)
_cell_angle_gamma                82.458(3)
_cell_volume                     2463.11
_cell_formula_units_Z            4
loop_
_atom_site_label
_atom_site_type_symbol
_atom_site_fract_x
_atom_site_fract_y
_atom_site_fract_z
N1 N 0.1364(3) 0.57827(19) 0.83397(19)
N2 N 0.1886(4) 0.2747(2) 0.9174(3)
C1 C 0.2693(4) 0.5578(2) 0.8011(2)
C2 C 0.0632(4) 0.5052(2) 0.8727(2)
C3 C -0.1897(6) 0.8255(3) 0.6220(4)
H1 H -0.2481 0.8617 0.5771
C4 C 0.2889(3) 0.4554(2) 0.8351(2)
C5 C 0.4042(4) 0.4128(2) 0.9014(2)
C6 C 0.3480(4) 0.6191(2) 0.7455(2)
H2 H 0.3100 0.6771 0.7312
C7 C 0.3422(4) 0.4237(2) 0.7654(2)
C8 C 0.1427(3) 0.4314(2) 0.8751(2)
C9 C 0.4146(4) 0.4184(2) 0.9793(3)
H3 H 0.3435 0.4495 0.9992
C10 C 0.1000(4) 0.3424(2) 0.9171(2)
C11 C -0.0130(4) 0.7193(2) 0.7553(3)
C12 C 0.5313(4) 0.3776(2) 1.0279(3)
H4 H 0.5391 0.3812 1.0807
C13 C 0.5085(4) 0.3645(2) 0.8718(3)
C14 C 0.4699(4) 0.3711(2) 0.7877(3)
C15 C 0.0835(4) 0.6661(2) 0.8277(3)
H5 H 0.1629 0.6988 0.8208
H6 H 0.0346 0.6600 0.8823
O1 O -0.0162(3) 0.32811(18) 0.9526(2)
C16 C 0.6009(5) 0.5567(3) 0.7469(3)
H7 H 0.5933 0.5259 0.8070
C17 C 0.2828(4) 0.4408(2) 0.6882(3)
H8 H 0.1976 0.4755 0.6736
C18 C 0.4856(4) 0.6091(2) 0.7032(3)
C19 C 0.6262(4) 0.3246(3) 0.9206(3)
H9 H 0.6978 0.2934 0.9013
C20 C 0.6357(4) 0.3318(3) 0.9983(3)
H10 H 0.7144 0.3051 1.0311
C21 C -0.1161(5) 0.7801(3) 0.7669(3)
H11 H -0.1265 0.7855 0.8196
C22 C 0.5370(5) 0.3362(3) 0.7317(3)
H12 H 0.6217 0.3009 0.7460
C23 C -0.0022(5) 0.7126(3) 0.6771(3)
H13 H 0.0657 0.6718 0.6687
C24 C -0.0859(4) 0.5172(3) 0.9043(3)
H14 H -0.1113 0.5783 0.8927
H15 H -0.0945 0.4821 0.9658
H16 H -0.1469 0.4990 0.8747
C25 C 0.5025(5) 0.6566(3) 0.6140(3)
H17 H 0.4275 0.6936 0.5829
C26 C -0.2031(5) 0.8324(3) 0.6999(4)
H18 H -0.2720 0.8730 0.7080
C27 C 0.7272(5) 0.5488(3) 0.7039(4)
H19 H 0.8032 0.5125 0.7347
C28 C 0.6284(7) 0.6497(4) 0.5710(4)
H20 H 0.6379 0.6826 0.5112
C29 C 0.3512(6) 0.4060(3) 0.6330(3)
H21 H 0.3121 0.4175 0.5807
C30 C 0.4772(6) 0.3542(3) 0.6546(4)
H22 H 0.5222 0.3312 0.6166
C31 C -0.0896(6) 0.7649(3) 0.6104(3)
H23 H -0.0807 0.7590 0.5579
C32 C 0.7397(6) 0.5950(4) 0.6151(5)
H24 H 0.8235 0.5890 0.5852
H25 H 0.167(4) 0.216(3) 0.950(2)
H26 H 0.265(4) 0.281(3) 0.896(3)
N3 N 0.0559(3) 0.14512(18) 0.79065(19)
O2 O -0.1106(3) -0.09361(16) 0.96632(18)
C33 C 0.0433(3) -0.0018(2) 0.8586(2)
N4 N 0.0726(4) -0.1596(3) 0.9213(3)
C34 C 0.3128(4) -0.0374(2) 0.8490(2)
C35 C -0.0208(4) 0.0785(2) 0.8470(2)
C36 C 0.1791(4) 0.1108(2) 0.7598(2)
C37 C -0.0053(4) -0.0863(2) 0.9183(2)
C38 C 0.1792(3) 0.0098(2) 0.8019(2)
C39 C 0.3014(4) -0.0888(2) 0.7427(3)
C40 C -0.0526(4) 0.2801(2) 0.6725(3)
C41 C 0.4046(4) 0.1228(2) 0.6729(3)
C42 C 0.2736(4) 0.1590(2) 0.7049(3)
H27 H 0.2566 0.2200 0.6849
C43 C 0.1840(4) -0.0289(2) 0.7343(2)
C44 C 0.0147(4) 0.2396(2) 0.7597(3)
H28 H 0.0970 0.2692 0.7553
H29 H -0.0504 0.2501 0.8023
C45 C 0.3816(4) -0.0947(2) 0.8139(3)
C46 C 0.0892(5) -0.0122(3) 0.6715(3)
H30 H 0.0101 0.0277 0.6661
C47 C -0.1579(4) 0.1009(3) 0.8861(3)
H31 H -0.1763 0.1638 0.8658
H32 H -0.1540 0.0746 0.9484
H33 H -0.2314 0.0785 0.8692
C48 C 0.5269(5) 0.1002(3) 0.7174(3)
H34 H 0.5279 0.1079 0.7686
C49 C 0.2304(7) -0.1144(3) 0.6251(3)
H35 H 0.2457 -0.1431 0.5880
C50 C 0.5058(5) -0.1432(3) 0.8473(3)
H36 H 0.5525 -0.1810 0.8239
C51 C 0.4091(5) 0.1137(3) 0.5962(3)
H37 H 0.3286 0.1298 0.5644
C52 C 0.1127(6) -0.0553(3) 0.6167(3)
H38 H 0.0493 -0.0445 0.5743
C53 C 0.3652(4) -0.0297(3) 0.9178(3)
H39 H 0.3186 0.0078 0.9415
C54 C 0.4905(5) -0.0799(3) 0.9513(3)
H40 H 0.5277 -0.0761 0.9983
C55 C 0.5600(5) -0.1350(4) 0.9154(4)
H41 H 0.6444 -0.1670 0.9376
C56 C 0.6495(7) 0.0594(3) 0.6093(5)
H42 H 0.7320 0.0397 0.5871
C57 C 0.3254(5) -0.1315(3) 0.6876(3)
H43 H 0.4046 -0.1713 0.6927
C58 C 0.5298(7) 0.0814(3) 0.5649(4)
H44 H 0.5295 0.0747 0.5131
C59 C -0.1846(6) 0.3588(4) 0.5146(3)
H45 H -0.2295 0.3855 0.4621
C60 C 0.6474(5) 0.0665(3) 0.6868(4)
H46 H 0.7275 0.0485 0.7191
C61 C -0.1105(6) 0.2324(3) 0.6384(3)
H47 H -0.1057 0.1714 0.6688
C62 C -0.0626(6) 0.3686(3) 0.6260(4)
H48 H -0.0263 0.4041 0.6472
C63 C -0.1756(6) 0.2713(3) 0.5608(3)
H49 H -0.2142 0.2364 0.5398
C64 C -0.1267(7) 0.4064(3) 0.5469(4)
H50 H -0.1294 0.4671 0.5150
H51 H 0.036(5) -0.218(3) 0.963(3)
H52 H 0.137(5) -0.157(3) 0.891(3)
loop_
_geom_bond_atom_site_label_1
_geom_bond_atom_site_label_2
_geom_bond_site_symmetry_1
_geom_bond_site_symmetry_2
N1 C1 1_555 1_555
N2 C10 1_555 1_555
C1 C4 1_555 1_555
C2 N1 1_555 1_555
C3 H1 1_555 1_555
C4 C5 1_555 1_555
C5 C9 1_555 1_555
C6 C1 1_555 1_555
H2 C6 1_555 1_555
C7 C4 1_555 1_555
C8 C2 1_555 1_555
C9 H3 1_555 1_555
C10 C8 1_555 1_555
C11 C15 1_555 1_555
C12 C9 1_555 1_555
H4 C12 1_555 1_555
C13 C5 1_555 1_555
C14 C7 1_555 1_555
C15 N1 1_555 1_555
H5 C15 1_555 1_555
H6 C15 1_555 1_555
O1 C10 1_555 1_555
C16 H7 1_555 1_555
C17 C7 1_555 1_555
H8 C17 1_555 1_555
C18 C6 1_555 1_555
C19 C13 1_555 1_555
H9 C19 1_555 1_555
C20 C12 1_555 1_555
H10 C20 1_555 1_555
C21 C11 1_555 1_555
H11 C21 1_555 1_555
C22 C14 1_555 1_555
H12 C22 1_555 1_555
C23 C11 1_555 1_555
H13 C23 1_555 1_555
C24 C2 1_555 1_555
H14 C24 1_555 1_555
H15 C24 1_555 1_555
H16 C24 1_555 1_555
C25 C18 1_555 1_555
H17 C25 1_555 1_555
C26 C3 1_555 1_555
H18 C26 1_555 1_555
C27 C16 1_555 1_555
H19 C27 1_555 1_555
C28 C25 1_555 1_555
H20 C28 1_555 1_555
C29 C17 1_555 1_555
H21 C29 1_555 1_555
C30 C22 1_555 1_555
H22 C30 1_555 1_555
C31 C3 1_555 1_555
H23 C31 1_555 1_555
C32 C27 1_555 1_555
H24 C32 1_555 1_555
H25 N2 1_555 1_555
H26 N2 1_555 1_555
N3 C35 1_555 1_555
O2 C37 1_555 1_555
C33 C35 1_555 1_555
N4 C37 1_555 1_555
C34 C38 1_555 1_555
C35 C47 1_555 1_555
C36 N3 1_555 1_555
C37 C33 1_555 1_555
C38 C33 1_555 1_555
C39 C43 1_555 1_555
C40 C44 1_555 1_555
C41 C42 1_555 1_555
C42 C36 1_555 1_555
H27 C42 1_555 1_555
C43 C38 1_555 1_555
C44 N3 1_555 1_555
H28 C44 1_555 1_555
H29 C44 1_555 1_555
C45 C34 1_555 1_555
C46 C43 1_555 1_555
H30 C46 1_555 1_555
C47 H31 1_555 1_555
H32 C47 1_555 1_555
H33 C47 1_555 1_555
C48 C41 1_555 1_555
H34 C48 1_555 1_555
C49 H35 1_555 1_555
C50 C45 1_555 1_555
H36 C50 1_555 1_555
C51 C41 1_555 1_555
H37 C51 1_555 1_555
C52 C46 1_555 1_555
H38 C52 1_555 1_555
C53 C34 1_555 1_555
H39 C53 1_555 1_555
C54 C53 1_555 1_555
H40 C54 1_555 1_555
C55 C50 1_555 1_555
H41 C55 1_555 1_555
C56 H42 1_555 1_555
C57 C39 1_555 1_555
H43 C57 1_555 1_555
C58 C51 1_555 1_555
H44 C58 1_555 1_555
C59 H45 1_555 1_555
C60 C48 1_555 1_555
H46 C60 1_555 1_555
C61 C40 1_555 1_555
H47 C61 1_555 1_555
C62 C40 1_555 1_555
H48 C62 1_555 1_555
C63 C59 1_555 1_555
H49 C63 1_555 1_555
C64 C59 1_555 1_555
H50 C64 1_555 1_555
H51 N4 1_555 1_555
H52 N4 1_555 1_555
C4 C8 1_555 1_555
C13 C14 1_555 1_555
C16 C18 1_555 1_555
C19 C20 1_555 1_555
C21 C26 1_555 1_555
C23 C31 1_555 1_555
C28 C32 1_555 1_555
C29 C30 1_555 1_555
C36 C38 1_555 1_555
C39 C45 1_555 1_555
C49 C52 1_555 1_555
C49 C57 1_555 1_555
C54 C55 1_555 1_555
C56 C58 1_555 1_555
C56 C60 1_555 1_555
C61 C63 1_555 1_555
C62 C64 1_555 1_555

#END
