
#######################################################################
#
#                 Cambridge Crystallographic Data Centre
#                                CCDC 
#
#######################################################################
#
# If this CIF has been generated from an entry in the Cambridge 
# Structural Database, then it will include bibliographic, chemical, 
# crystal, experimental, refinement or atomic coordinate data resulting 
# from the CCDC's data processing and validation procedures.
#
#######################################################################

data_POVSEY01
_chemical_formula_moiety         'C6 H12 O2'
_chemical_name_systematic        trans-Cyclohexane-1,4-diol
_symmetry_cell_setting           monoclinic
_symmetry_space_group_name_H-M   'P 21/n'
_symmetry_Int_Tables_number      14
_space_group_name_Hall           '-P 2yn'
loop_
_symmetry_equiv_pos_site_id
_symmetry_equiv_pos_as_xyz
1 x,y,z
2 1/2-x,1/2+y,1/2-z
3 -x,-y,-z
4 1/2+x,1/2-y,1/2+z
_cell_length_a                   6.374(1)
_cell_length_b                   21.313(5)
_cell_length_c                   7.328(2)
_cell_angle_alpha                90
_cell_angle_beta                 95.864(10)
_cell_angle_gamma                90
_cell_volume                     990.293
_exptl_crystal_colour            colorless
_exptl_crystal_description       plate
_cell_formula_units_Z            6
_exptl_crystal_recrystallization_method acetone
loop_
_atom_site_label
_atom_site_type_symbol
_atom_site_fract_x
_atom_site_fract_y
_atom_site_fract_z
O1 O 0.4100(2) 0.16933(8) 0.0619(2)
H1 H 0.5079(40) 0.1700(11) -0.0145(35)
C1 C 0.5032(3) 0.18417(11) 0.2438(3)
H2 H 0.5428(30) 0.2296(10) 0.2477(26)
O2 O 0.7010(3) 0.16568(8) 0.8119(2)
H3 H 0.8226(46) 0.1446(13) 0.8422(37)
C2 C 0.3374(3) 0.17403(13) 0.3747(3)
H4 H 0.2182(34) 0.2007(10) 0.3413(27)
H5 H 0.2878(31) 0.1292(10) 0.3669(26)
C3 C 0.4263(4) 0.18789(13) 0.5729(3)
H6 H 0.3206(34) 0.1799(10) 0.6622(30)
H7 H 0.4677(36) 0.2318(12) 0.5848(32)
C4 C 0.6222(3) 0.14933(11) 0.6270(3)
H8 H 0.5819(30) 0.1047(10) 0.6267(26)
C5 C 0.7874(3) 0.15971(13) 0.4951(3)
H9 H 0.8336(34) 0.2046(11) 0.5109(29)
H10 H 0.9109(35) 0.1346(10) 0.5302(28)
C6 C 0.6975(4) 0.14505(12) 0.2983(3)
H11 H 0.8032(35) 0.1523(9) 0.2143(30)
H12 H 0.6532(35) 0.0997(12) 0.2891(31)
O3 O 1.0662(3) 0.10176(8) 0.9269(2)
H13 H 1.1761(47) 0.1239(13) 0.9815(38)
C7 C 1.1358(4) 0.03888(11) 0.8923(3)
H14 H 1.2488(37) 0.0398(10) 0.8106(32)
C8 C 1.2223(4) 0.00688(12) 1.0691(4)
H15 H 1.2829(32) -0.0335(10) 1.0437(27)
H16 H 1.3402(35) 0.0321(10) 1.1322(29)
C9 C 0.9469(4) 0.00300(13) 0.8017(3)
H17 H 0.9937(32) -0.0375(11) 0.7599(28)
H18 H 0.8944(35) 0.0250(11) 0.6909(33)
C9B C 1.0531(4) -0.00300(13) 1.1983(3)
C7B C 0.8642(4) -0.03888(11) 1.1077(3)
O3B O 0.9338(3) -0.10176(8) 1.0731(2)
H13B H 0.8239(47) -0.1239(13) 1.0185(38)
H14B H 0.7512(37) -0.0398(10) 1.1894(32)
C8B C 0.7777(4) -0.00688(12) 0.9309(4)
H15B H 0.7171(32) 0.0335(10) 0.9563(27)
H16B H 0.6598(35) -0.0321(10) 0.8678(29)
H17B H 1.0063(32) 0.0375(11) 1.2401(28)
H18B H 1.1056(35) -0.0250(11) 1.3091(33)
loop_
_geom_bond_atom_site_label_1
_geom_bond_atom_site_label_2
_geom_bond_site_symmetry_1
_geom_bond_site_symmetry_2
O1 H1 1_555 1_555
C1 O1 1_555 1_555
H2 C1 1_555 1_555
O2 H3 1_555 1_555
C2 C1 1_555 1_555
H4 C2 1_555 1_555
H5 C2 1_555 1_555
C3 C2 1_555 1_555
H6 C3 1_555 1_555
H7 C3 1_555 1_555
C4 O2 1_555 1_555
H8 C4 1_555 1_555
C5 C4 1_555 1_555
H9 C5 1_555 1_555
H10 C5 1_555 1_555
C6 C1 1_555 1_555
H11 C6 1_555 1_555
H12 C6 1_555 1_555
O3 H13 1_555 1_555
C7 O3 1_555 1_555
H14 C7 1_555 1_555
C8 C7 1_555 1_555
H15 C8 1_555 1_555
H16 C8 1_555 1_555
C9 C7 1_555 1_555
H17 C9 1_555 1_555
H18 C9 1_555 1_555
C9B C8 1_555 1_555
C7B C9B 1_555 1_555
O3B C7B 1_555 1_555
H13B O3B 1_555 1_555
H14B C7B 1_555 1_555
C8B C9 1_555 1_555
H15B C8B 1_555 1_555
H16B C8B 1_555 1_555
H17B C9B 1_555 1_555
H18B C9B 1_555 1_555
C3 C4 1_555 1_555
C5 C6 1_555 1_555
C7B C8B 1_555 1_555

#END
