
#######################################################################
#
#                 Cambridge Crystallographic Data Centre
#                                CCDC 
#
#######################################################################
#
# If this CIF has been generated from an entry in the Cambridge 
# Structural Database, then it will include bibliographic, chemical, 
# crystal, experimental, refinement or atomic coordinate data resulting 
# from the CCDC's data processing and validation procedures.
#
#######################################################################

data_POVWAA
_chemical_formula_moiety         'C24 H18 N2 O2'
_chemical_name_systematic        
2,4-bis(1-Naphthylamino)cyclobuta-1,3-diene-1,3-diol
_symmetry_cell_setting           monoclinic
_symmetry_space_group_name_H-M   'C 2/c'
_symmetry_Int_Tables_number      15
_space_group_name_Hall           '-C 2yn'
loop_
_symmetry_equiv_pos_site_id
_symmetry_equiv_pos_as_xyz
1 x,y,z
2 -x,y,1/2-z
3 1/2+x,1/2+y,z
4 1/2-x,1/2+y,1/2-z
5 -x,-y,-z
6 x,-y,1/2+z
7 1/2-x,1/2-y,-z
8 1/2+x,1/2-y,1/2+z
_cell_length_a                   31.773(6)
_cell_length_b                   5.1207(11)
_cell_length_c                   12.056(2)
_cell_angle_alpha                90
_cell_angle_beta                 111.313(10)
_cell_angle_gamma                90
_cell_volume                     1827.36
_cell_formula_units_Z            4
loop_
_atom_site_label
_atom_site_type_symbol
_atom_site_fract_x
_atom_site_fract_y
_atom_site_fract_z
N1 N 1.05919(4) 1.0299(3) 0.68440(10)
H1 H 1.0518 1.0280 0.7463
C1 C 1.10606(5) 1.0529(4) 0.70269(12)
O1 O 1.04709(4) 1.0664(4) 0.39897(9)
C2 C 1.17143(5) 0.9131(4) 0.66354(14)
H2 H 1.1841 0.8077 0.6210
C3 C 1.19795(5) 1.0834(4) 0.74553(14)
H3 H 1.2287 1.0907 0.7599
C4 C 1.13225(4) 1.2376(3) 0.78710(11)
C5 C 1.11379(5) 1.4130(4) 0.84832(14)
H4 H 1.0830 1.4097 0.8335
C6 C 1.12497(5) 0.8947(4) 0.64249(13)
H5 H 1.1071 0.7746 0.5875
C7 C 1.14081(6) 1.5868(4) 0.92884(15)
H6 H 1.1283 1.7009 0.9685
C8 C 1.17938(4) 1.2499(4) 0.80928(12)
C9 C 1.20616(5) 1.4306(4) 0.89406(15)
H7 H 1.2371 1.4379 0.9105
C10 C 1.02652(5) 1.0113(4) 0.57914(12)
C11 C 1.02182(5) 1.0302(4) 0.45422(12)
C12 C 1.18747(6) 1.5933(4) 0.95185(16)
H8 H 1.2057 1.7108 1.0074
N1D N 0.94081(4) 0.9701(3) 0.31560(10)
H1D H 0.9482 0.9720 0.2537
C1D C 0.89394(5) 0.9471(4) 0.29731(12)
O1D O 0.95291(4) 0.9336(4) 0.60103(9)
C2D C 0.82857(5) 1.0869(4) 0.33646(14)
H2D H 0.8159 1.1923 0.3790
C3D C 0.80205(5) 0.9166(4) 0.25447(14)
H3D H 0.7713 0.9093 0.2401
C4D C 0.86775(4) 0.7624(3) 0.21290(11)
C5D C 0.88621(5) 0.5870(4) 0.15168(14)
H4D H 0.9170 0.5903 0.1665
C6D C 0.87503(5) 1.1053(4) 0.35751(13)
H5D H 0.8929 1.2254 0.4125
C7D C 0.85919(6) 0.4132(4) 0.07116(15)
H6D H 0.8717 0.2991 0.0315
C8D C 0.82062(4) 0.7501(4) 0.19072(12)
C9D C 0.79384(5) 0.5694(4) 0.10594(15)
H7D H 0.7629 0.5621 0.0895
C10D C 0.97348(5) 0.9887(4) 0.42086(12)
C11D C 0.97818(5) 0.9698(4) 0.54578(12)
C12D C 0.81253(6) 0.4067(4) 0.04815(16)
H8D H 0.7943 0.2892 -0.0074
loop_
_geom_bond_atom_site_label_1
_geom_bond_atom_site_label_2
_geom_bond_site_symmetry_1
_geom_bond_site_symmetry_2
N1 H1 1_555 1_555
C1 N1 1_555 1_555
O1 C11 1_555 1_555
C2 H2 1_555 1_555
C3 C2 1_555 1_555
H3 C3 1_555 1_555
C4 C1 1_555 1_555
C5 C4 1_555 1_555
H4 C5 1_555 1_555
C6 C1 1_555 1_555
H5 C6 1_555 1_555
C7 C5 1_555 1_555
H6 C7 1_555 1_555
C8 C3 1_555 1_555
C9 C8 1_555 1_555
H7 C9 1_555 1_555
C10 N1 1_555 1_555
C11 C10 1_555 1_555
C12 C7 1_555 1_555
H8 C12 1_555 1_555
N1D H1D 1_555 1_555
C1D N1D 1_555 1_555
O1D C11D 1_555 1_555
C2D H2D 1_555 1_555
C3D C2D 1_555 1_555
H3D C3D 1_555 1_555
C4D C1D 1_555 1_555
C5D C4D 1_555 1_555
H4D C5D 1_555 1_555
C6D C1D 1_555 1_555
H5D C6D 1_555 1_555
C7D C5D 1_555 1_555
H6D C7D 1_555 1_555
C8D C3D 1_555 1_555
C9D C8D 1_555 1_555
H7D C9D 1_555 1_555
C10D C11 1_555 1_555
C11D C10 1_555 1_555
C12D C7D 1_555 1_555
H8D C12D 1_555 1_555
C2 C6 1_555 1_555
C4 C8 1_555 1_555
C9 C12 1_555 1_555
N1D C10D 1_555 1_555
C2D C6D 1_555 1_555
C4D C8D 1_555 1_555
C9D C12D 1_555 1_555
C10D C11D 1_555 1_555

#END
