
#######################################################################
#
#                 Cambridge Crystallographic Data Centre
#                                CCDC 
#
#######################################################################
#
# If this CIF has been generated from an entry in the Cambridge 
# Structural Database, then it will include bibliographic, chemical, 
# crystal, experimental, refinement or atomic coordinate data resulting 
# from the CCDC's data processing and validation procedures.
#
#######################################################################

data_POWBIM
_chemical_formula_moiety         'C45 H30 N8 O4 P2,C3 H7 N1 O1'
_chemical_name_systematic        
'bis(2-Diphenylphosphinoimino-1,2,3-triazolo(4,5-b)(1,4-naphthoquinone-P))-methane dimethylformamide solvate'
_symmetry_cell_setting           monoclinic
_symmetry_space_group_name_H-M   'P 21/n'
_symmetry_Int_Tables_number      14
_space_group_name_Hall           '-P 2yn'
loop_
_symmetry_equiv_pos_site_id
_symmetry_equiv_pos_as_xyz
1 x,y,z
2 1/2-x,1/2+y,1/2-z
3 -x,-y,-z
4 1/2+x,1/2-y,1/2+z
_cell_length_a                   14.205(4)
_cell_length_b                   12.894(2)
_cell_length_c                   23.460(2)
_cell_angle_alpha                90
_cell_angle_beta                 97.44(1)
_cell_angle_gamma                90
_cell_volume                     4260.74
_exptl_crystal_colour            yellow
_exptl_crystal_description       prismatic
_cell_formula_units_Z            4
loop_
_atom_site_label
_atom_site_type_symbol
_atom_site_fract_x
_atom_site_fract_y
_atom_site_fract_z
P1 P 0.2385(1) 0.8295(1) 0.13014(7)
P2 P 0.4253(1) 0.7467(1) 0.09099(7)
O1 O 0.1234(4) 0.3612(4) 0.0230(2)
O2 O 0.1060(4) 0.7208(4) -0.0991(2)
O3 O 0.3057(4) 0.4369(4) -0.1365(2)
O4 O 0.3256(5) 0.8573(4) -0.1384(2)
N1 N 0.1621(4) 0.5631(4) 0.0777(2)
N2 N 0.1724(4) 0.6658(4) 0.0783(2)
N3 N 0.1556(4) 0.7148(4) 0.0276(2)
N4 N 0.1977(4) 0.7127(4) 0.1296(2)
N5 N 0.3527(4) 0.5601(4) -0.0308(2)
N6 N 0.3688(4) 0.6481(5) -0.0010(2)
N7 N 0.3616(4) 0.7364(4) -0.0313(2)
N8 N 0.3885(4) 0.6421(4) 0.0571(2)
C1 C 0.1170(5) 0.4414(6) -0.0037(3)
C2 C 0.1368(5) 0.5440(5) 0.0213(3)
C3 C 0.1324(5) 0.6363(5) -0.0090(3)
C4 C 0.1075(5) 0.6412(5) -0.0711(3)
C5 C 0.08605 0.5370(6) -0.0986(3)
C6 C 0.0603(6) 0.5347(6) -0.1586(3)
C7 C 0.0421(6) 0.4410(7) -0.1859(3)
C8 C 0.0469(6) 0.3508(7) -0.1555(3)
C9 C 0.0716(5) 0.3518(6) -0.0962(3)
C10 C 0.0911(5) 0.4443(5) -0.0681(3)
C11 C 0.1544(5) 0.9284(5) 0.1037(3)
C12 C 0.1788(6) 1.0252(6) 0.0847(3)
C13 C 0.1088(8) 1.0963(7) 0.0663(3)
C14 C 0.0151(8) 1.0736(9) 0.0683(4)
C15 C -0.0095(7) 0.9797(8) 0.0884(4)
C16 C 0.0588(6) 0.9078(6) 0.1070(3)
C17 C 0.2726(4) 0.8500(5) 0.2060(3)
C18 C 0.2844(5) 0.7673(5) 0.2430(3)
C19 C 0.3110(6) 0.7830(6) 0.3014(3)
C20 C 0.3249(6) 0.8815(7) 0.3223(3)
C21 C 0.3125(6) 0.9659(6) 0.2861(3)
C22 C 0.2873(5) 0.9501(5) 0.2269(3)
C23 C 0.3397(5) 0.8505(5) 0.0917(3)
C24 C 0.3135(5) 0.5314(6) -0.1370(3)
C25 C 0.3358(5) 0.5949(5) -0.0851(3)
C26 C 0.3410(5) 0.7018(5) -0.0858(3)
C27 C 0.3248(5) 0.7640(6) -0.1381(3)
C28 C 0.3075(5) 0.7009(6) -0.1920(3)
C29 C 0.2966(5) 0.7523(6) -0.2445(3)
C30 C 0.2779(6) 0.6984(7) -0.2956(3)
C31 C 0.2721(6) 0.5917(7) -0.2951(3)
C32 C 0.2853(6) 0.5399(6) -0.2429(3)
C33 C 0.3019(5) 0.5927(6) -0.1919(3)
C34 C 0.5307(5) 0.8030(6) 0.0683(3)
C35 C 0.5996(6) 0.7373(7) 0.0560(3)
C36 C 0.6851(7) 0.770(1) 0.0419(4)
C37 C 0.7003(7) 0.877(1) 0.0396(4)
C38 C 0.6310(7) 0.9448(8) 0.0501(4)
C39 C 0.5463(6) 0.9101(7) 0.0648(3)
C40 C 0.4592(5) 0.6983(5) 0.1627(3)
C41 C 0.4235(6) 0.6061(6) 0.1797(3)
C42 C 0.4511(7) 0.5702(7) 0.2355(4)
C43 C 0.5152(8) 0.6255(9) 0.2721(3)
C44 C 0.5516(6) 0.7174(8) 0.2552(3)
C45 C 0.5246(5) 0.7549(6) 0.2002(3)
H1 H 0.0545 0.6002 -0.1806
H2 H 0.0250 0.4384 -0.2278
H3 H 0.0323 0.2840 -0.1754
H4 H 0.0771 0.2857 -0.0743
H5 H 0.2479 1.0435 0.0852
H6 H 0.1217 1.1642 0.0517
H7 H -0.0354 1.1211 0.0552
H8 H -0.0781 0.9619 0.0912
H9 H 0.0407 0.8393 0.1245
H10 H 0.2739 0.6952 0.2279
H11 H 0.3202 0.7219 0.3270
H12 H 0.3437 0.8911 0.3640
H13 H 0.3215 1.0357 0.3014
H14 H 0.2800 1.0103 0.2003
H15 H 0.3175 0.8705 0.0531
H16 H 0.3743 0.9120 0.1094
H17 H 0.3030 0.8297 -0.2463
H18 H 0.2684 0.7334 -0.3325
H19 H 0.2590 0.5518 -0.3309
H20 H 0.2825 0.4620 -0.2428
H21 H 0.5864 0.6609 0.0568
H22 H 0.7332 0.7198 0.0322
H23 H 0.7611 0.9022 0.0303
H24 H 0.6415 1.0217 0.0449
H25 H 0.4959 0.9596 0.0742
H26 H 0.3792 0.5644 0.1518
H27 H 0.4227 0.5054 0.2504
H28 H 0.5333 0.5995 0.3104
H29 H 0.5997 0.7549 0.2821
H30 H 0.5499 0.8216 0.1885
O5 O 0.4222(6) 0.0884(5) 0.1371(3)
N9 N 0.4261(5) 0.2637(6) 0.1364(3)
C46 C 0.4217(8) 0.172(1) 0.1114(5)
C47 C 0.4142(7) 0.3570(8) 0.1020(4)
C48 C 0.4371(7) 0.2751(8) 0.1968(4)
H31 H 0.4143 0.1778 0.0696
H32 H 0.4200 0.4217 0.1248
H33 H 0.4615 0.3641 0.0756
H34 H 0.3531 0.3619 0.0786
H35 H 0.4937 0.2418 0.2160
H36 H 0.4395 0.3465 0.2111
H37 H 0.3842 0.2434 0.2142
loop_
_geom_bond_atom_site_label_1
_geom_bond_atom_site_label_2
_geom_bond_site_symmetry_1
_geom_bond_site_symmetry_2
P1 N4 1_555 1_555
P2 N8 1_555 1_555
O1 C1 1_555 1_555
O2 C4 1_555 1_555
O3 C24 1_555 1_555
O4 C27 1_555 1_555
N1 N2 1_555 1_555
N2 N3 1_555 1_555
N3 C3 1_555 1_555
N4 N2 1_555 1_555
N5 N6 1_555 1_555
N6 N7 1_555 1_555
N7 C26 1_555 1_555
N8 N6 1_555 1_555
C1 C2 1_555 1_555
C2 N1 1_555 1_555
C3 C2 1_555 1_555
C4 C3 1_555 1_555
C5 C4 1_555 1_555
C6 C5 1_555 1_555
C7 C6 1_555 1_555
C8 C7 1_555 1_555
C9 C8 1_555 1_555
C10 C1 1_555 1_555
C11 P1 1_555 1_555
C12 C11 1_555 1_555
C13 C12 1_555 1_555
C14 C13 1_555 1_555
C15 C14 1_555 1_555
C16 C11 1_555 1_555
C17 P1 1_555 1_555
C18 C17 1_555 1_555
C19 C18 1_555 1_555
C20 C19 1_555 1_555
C21 C20 1_555 1_555
C22 C17 1_555 1_555
C23 P1 1_555 1_555
C24 C25 1_555 1_555
C25 N5 1_555 1_555
C26 C25 1_555 1_555
C27 C26 1_555 1_555
C28 C27 1_555 1_555
C29 C28 1_555 1_555
C30 C29 1_555 1_555
C31 C30 1_555 1_555
C32 C31 1_555 1_555
C33 C24 1_555 1_555
C34 P2 1_555 1_555
C35 C34 1_555 1_555
C36 C35 1_555 1_555
C37 C36 1_555 1_555
C38 C37 1_555 1_555
C39 C34 1_555 1_555
C40 P2 1_555 1_555
C41 C40 1_555 1_555
C42 C41 1_555 1_555
C43 C42 1_555 1_555
C44 C43 1_555 1_555
C45 C40 1_555 1_555
H1 C6 1_555 1_555
H2 C7 1_555 1_555
H3 C8 1_555 1_555
H4 C9 1_555 1_555
H5 C12 1_555 1_555
H6 C13 1_555 1_555
H7 C14 1_555 1_555
H8 C15 1_555 1_555
H9 C16 1_555 1_555
H10 C18 1_555 1_555
H11 C19 1_555 1_555
H12 C20 1_555 1_555
H13 C21 1_555 1_555
H14 C22 1_555 1_555
H15 C23 1_555 1_555
H16 C23 1_555 1_555
H17 C29 1_555 1_555
H18 C30 1_555 1_555
H19 C31 1_555 1_555
H20 C32 1_555 1_555
H21 C35 1_555 1_555
H22 C36 1_555 1_555
H23 C37 1_555 1_555
H24 C38 1_555 1_555
H25 C39 1_555 1_555
H26 C41 1_555 1_555
H27 C42 1_555 1_555
H28 C43 1_555 1_555
H29 C44 1_555 1_555
H30 C45 1_555 1_555
O5 C46 1_555 1_555
N9 C46 1_555 1_555
C46 H31 1_555 1_555
C47 N9 1_555 1_555
C48 N9 1_555 1_555
H32 C47 1_555 1_555
H33 C47 1_555 1_555
H34 C47 1_555 1_555
H35 C48 1_555 1_555
H36 C48 1_555 1_555
H37 C48 1_555 1_555
P2 C23 1_555 1_555
C5 C10 1_555 1_555
C9 C10 1_555 1_555
C15 C16 1_555 1_555
C21 C22 1_555 1_555
C28 C33 1_555 1_555
C32 C33 1_555 1_555
C38 C39 1_555 1_555
C44 C45 1_555 1_555

#END
