
#######################################################################
#
#                 Cambridge Crystallographic Data Centre
#                                CCDC 
#
#######################################################################
#
# If this CIF has been generated from an entry in the Cambridge 
# Structural Database, then it will include bibliographic, chemical, 
# crystal, experimental, refinement or atomic coordinate data resulting 
# from the CCDC's data processing and validation procedures.
#
#######################################################################

data_POWBUY
_chemical_formula_moiety         'C28 H19 Cl1 N1 O2 P1'
_chemical_name_systematic        
2-Chloro-3-triphenylphosphinimino-naphthoquinone
_symmetry_cell_setting           orthorhombic
_symmetry_space_group_name_H-M   'P b c a'
_symmetry_Int_Tables_number      61
_space_group_name_Hall           '-P 2ac 2ab'
loop_
_symmetry_equiv_pos_site_id
_symmetry_equiv_pos_as_xyz
1 x,y,z
2 1/2-x,-y,1/2+z
3 1/2+x,1/2-y,-z
4 -x,1/2+y,1/2-z
5 -x,-y,-z
6 1/2+x,y,1/2-z
7 1/2-x,1/2+y,z
8 x,1/2-y,1/2+z
_cell_length_a                   17.658(3)
_cell_length_b                   18.730(4)
_cell_length_c                   13.623(3)
_cell_angle_alpha                90
_cell_angle_beta                 90
_cell_angle_gamma                90
_cell_volume                     4505.59
_exptl_crystal_colour            red
_exptl_crystal_description       prismatic
_cell_formula_units_Z            8
loop_
_atom_site_label
_atom_site_type_symbol
_atom_site_fract_x
_atom_site_fract_y
_atom_site_fract_z
Cl1 Cl -0.02112(8) 0.21069(7) -0.0973(1)
P1 P 0.18363(7) 0.18633(7) 0.0981(1)
O1 O 0.1801(2) 0.0447(2) 0.0307(3)
O2 O -0.0625(2) 0.0797(2) -0.1985(3)
N1 N 0.1121(2) 0.1786(2) 0.0259(3)
C1 C 0.1235(3) 0.0513(3) -0.0203(3)
C2 C 0.0851(3) 0.1234(3) -0.0257(3)
C3 C 0.0245(3) 0.1294(3) -0.0859(3)
C4 C -0.0072(3) 0.0712(3) -0.1443(3)
C5 C 0.0311(3) 0.0005(3) -0.1379(3)
C6 C 0.0027(3) -0.0571(3) -0.1916(4)
C7 C 0.0373(3) -0.1228(3) -0.1844(4)
C8 C 0.0995(3) -0.1330(3) -0.1229(4)
C9 C 0.1281(3) -0.0757(3) -0.0696(4)
C10 C 0.0926(3) -0.0095(3) -0.0772(3)
C11 C 0.1835(3) 0.2807(2) 0.1261(3)
C12 C 0.1135(3) 0.3158(3) 0.1357(3)
C13 C 0.1105(3) 0.3866(3) 0.1645(4)
C14 C 0.1780(3) 0.4229(3) 0.1821(4)
C15 C 0.2475(3) 0.3894(3) 0.1711(4)
C16 C 0.2495(3) 0.3181(3) 0.1432(4)
C17 C 0.1769(3) 0.1438(2) 0.2181(3)
C18 C 0.1415(3) 0.1814(3) 0.2937(4)
C19 C 0.1307(4) 0.1494(3) 0.3860(4)
C20 C 0.1558(3) 0.0809(3) 0.4021(4)
C21 C 0.1917(3) 0.0435(3) 0.3275(4)
C22 C 0.2017(3) 0.0750(3) 0.2360(4)
C23 C 0.2748(3) 0.1663(3) 0.0453(4)
C24 C 0.3355(3) 0.1425(3) 0.0992(4)
C25 C 0.4027(3) 0.1248(3) 0.0535(5)
C26 C 0.4096(4) 0.1315(4) -0.0470(5)
C27 C 0.3505(4) 0.1574(4) -0.1014(5)
C28 C 0.2829(3) 0.1747(3) -0.0563(4)
H1 H -0.0420 -0.0516 -0.2338
H2 H 0.0187 -0.1629 -0.2229
H3 H 0.1237 -0.1806 -0.1181
H4 H 0.1731 -0.0823 -0.0271
H5 H 0.0671 0.2898 0.1218
H6 H 0.0622 0.4107 0.1728
H7 H 0.1772 0.4733 0.2028
H8 H 0.2947 0.4157 0.1829
H9 H 0.2985 0.2940 0.1357
H10 H 0.1242 0.2304 0.2816
H11 H 0.1052 0.1749 0.4384
H12 H 0.1502 0.0586 0.4662
H13 H 0.2090 -0.0054 0.3384
H14 H 0.2260 0.0477 0.1831
H15 H 0.3305 0.1379 0.1720
H16 H 0.4457 0.1075 0.0926
H17 H 0.4558 0.1177 -0.0806
H18 H 0.3557 0.1648 -0.1732
H19 H 0.2403 0.1936 -0.0952
loop_
_geom_bond_atom_site_label_1
_geom_bond_atom_site_label_2
_geom_bond_site_symmetry_1
_geom_bond_site_symmetry_2
Cl1 C3 1_555 1_555
P1 N1 1_555 1_555
O1 C1 1_555 1_555
O2 C4 1_555 1_555
N1 C2 1_555 1_555
C1 C2 1_555 1_555
C2 C3 1_555 1_555
C3 C4 1_555 1_555
C4 C5 1_555 1_555
C5 C6 1_555 1_555
C6 C7 1_555 1_555
C7 C8 1_555 1_555
C8 C9 1_555 1_555
C9 C10 1_555 1_555
C10 C1 1_555 1_555
C11 P1 1_555 1_555
C12 C11 1_555 1_555
C13 C12 1_555 1_555
C14 C13 1_555 1_555
C15 C14 1_555 1_555
C16 C11 1_555 1_555
C17 P1 1_555 1_555
C18 C17 1_555 1_555
C19 C18 1_555 1_555
C20 C19 1_555 1_555
C21 C20 1_555 1_555
C22 C17 1_555 1_555
C23 P1 1_555 1_555
C24 C23 1_555 1_555
C25 C24 1_555 1_555
C26 C25 1_555 1_555
C27 C26 1_555 1_555
C28 C23 1_555 1_555
H1 C6 1_555 1_555
H2 C7 1_555 1_555
H3 C8 1_555 1_555
H4 C9 1_555 1_555
H5 C12 1_555 1_555
H6 C13 1_555 1_555
H7 C14 1_555 1_555
H8 C15 1_555 1_555
H9 C16 1_555 1_555
H10 C18 1_555 1_555
H11 C19 1_555 1_555
H12 C20 1_555 1_555
H13 C21 1_555 1_555
H14 C22 1_555 1_555
H15 C24 1_555 1_555
H16 C25 1_555 1_555
H17 C26 1_555 1_555
H18 C27 1_555 1_555
H19 C28 1_555 1_555
C5 C10 1_555 1_555
C15 C16 1_555 1_555
C21 C22 1_555 1_555
C27 C28 1_555 1_555

#END
