
#######################################################################
#
#                 Cambridge Crystallographic Data Centre
#                                CCDC 
#
#######################################################################
#
# If this CIF has been generated from an entry in the Cambridge 
# Structural Database, then it will include bibliographic, chemical, 
# crystal, experimental, refinement or atomic coordinate data resulting 
# from the CCDC's data processing and validation procedures.
#
#######################################################################

data_POWMOF
_chemical_formula_moiety         'C27 H24 Br1 N1 O3'
_chemical_name_systematic        
4-(2-(benzyloxy)ethyl)-5-(2-bromophenyl)-3,4,5,6-tetrahydro-2H-oxepino[3,2-b]indol-2-one
_symmetry_cell_setting           orthorhombic
_symmetry_space_group_name_H-M   'P 21 21 21'
_symmetry_Int_Tables_number      19
_space_group_name_Hall           'P 2ac 2ab'
loop_
_symmetry_equiv_pos_site_id
_symmetry_equiv_pos_as_xyz
1 x,y,z
2 1/2-x,-y,1/2+z
3 -x,1/2+y,1/2-z
4 1/2+x,1/2-y,-z
_cell_length_a                   10.518(4)
_cell_length_b                   10.893(4)
_cell_length_c                   19.602(7)
_cell_angle_alpha                90
_cell_angle_beta                 90
_cell_angle_gamma                90
_cell_volume                     2245.85
_exptl_crystal_colour            colorless
_exptl_crystal_description       Block
_cell_formula_units_Z            4
loop_
_atom_site_label
_atom_site_type_symbol
_atom_site_fract_x
_atom_site_fract_y
_atom_site_fract_z
Br1 Br -0.24570(3) 0.68592(3) 0.74798(2)
O1 O 0.2710(2) 0.7438(2) 0.58659(10)
O2 O 0.1904(2) 0.8278(2) 0.49528(11)
O3 O -0.11652(19) 1.0355(2) 0.60843(10)
N1 N 0.2233(2) 0.5931(2) 0.74771(13)
H1 H 0.197(3) 0.586(4) 0.7866(13)
C1 C 0.3406(3) 0.5503(3) 0.72862(14)
C2 C 0.4217(3) 0.4682(3) 0.76061(16)
H2 H 0.4006 0.4329 0.8034
C3 C 0.5344(3) 0.4395(4) 0.72811(16)
H3 H 0.5914 0.3830 0.7488
C4 C 0.5662(3) 0.4927(3) 0.66474(16)
H4 H 0.6448 0.4722 0.6438
C5 C 0.4860(3) 0.5734(3) 0.63286(16)
H5 H 0.5080 0.6088 0.5902
C6 C 0.3708(3) 0.6023(3) 0.66474(15)
C7 C 0.2655(3) 0.6776(3) 0.64776(14)
C8 C 0.1764(3) 0.6732(3) 0.69832(14)
C9 C 0.0431(3) 0.7194(3) 0.70308(14)
H6 H -0.0132 0.6461 0.6974
C10 C 0.0086(3) 0.8082(3) 0.64462(14)
H7 H -0.0857 0.8197 0.6466
C11 C 0.0377(3) 0.7483(3) 0.57476(15)
H8 H 0.0281 0.6582 0.5791
H9 H -0.0258 0.7773 0.5411
C12 C 0.1684(3) 0.7761(3) 0.54830(15)
C13 C 0.0080(3) 0.7760(3) 0.77132(14)
C14 C 0.0972(3) 0.8393(3) 0.81021(14)
H10 H 0.1835 0.8407 0.7958
C15 C 0.0632(3) 0.9001(3) 0.86950(15)
H11 H 0.1257 0.9422 0.8955
C16 C -0.0619(3) 0.8995(3) 0.89058(16)
H12 H -0.0856 0.9415 0.9311
C17 C -0.1524(3) 0.8384(3) 0.85330(17)
H13 H -0.2388 0.8387 0.8676
C18 C -0.1167(3) 0.7762(3) 0.79450(15)
C19 C 0.0672(3) 0.9360(3) 0.65144(15)
H14 H 0.0486 0.9686 0.6975
H15 H 0.1607 0.9294 0.6468
C20 C 0.0176(3) 1.0252(3) 0.59859(16)
H16 H 0.0586 1.1064 0.6043
H17 H 0.0362 0.9947 0.5521
C21 C -0.1758(3) 1.0998(3) 0.55336(16)
H18 H -0.1512 1.0620 0.5094
H19 H -0.1476 1.1865 0.5531
C22 C -0.3170(3) 1.0937(3) 0.56216(15)
C23 C -0.3785(4) 0.9815(4) 0.55952(16)
H20 H -0.3311 0.9080 0.5537
C24 C -0.5102(4) 0.9770(5) 0.56546(18)
H21 H -0.5532 0.9004 0.5636
C25 C -0.5790(4) 1.0854(6) 0.5742(2)
H22 H -0.6691 1.0831 0.5775
C26 C -0.5166(4) 1.1940(5) 0.5781(2)
H23 H -0.5633 1.2675 0.5853
C27 C -0.3871(4) 1.1993(4) 0.57161(18)
H24 H -0.3452 1.2764 0.5737
loop_
_geom_bond_atom_site_label_1
_geom_bond_atom_site_label_2
_geom_bond_site_symmetry_1
_geom_bond_site_symmetry_2
Br1 C18 1_555 1_555
O1 C7 1_555 1_555
O2 C12 1_555 1_555
O3 C20 1_555 1_555
N1 H1 1_555 1_555
C1 N1 1_555 1_555
C2 C1 1_555 1_555
H2 C2 1_555 1_555
C3 C2 1_555 1_555
H3 C3 1_555 1_555
C4 C3 1_555 1_555
H4 C4 1_555 1_555
C5 C4 1_555 1_555
H5 C5 1_555 1_555
C6 C1 1_555 1_555
C7 C6 1_555 1_555
C8 N1 1_555 1_555
C9 C8 1_555 1_555
H6 C9 1_555 1_555
C10 C9 1_555 1_555
H7 C10 1_555 1_555
C11 C10 1_555 1_555
H8 C11 1_555 1_555
H9 C11 1_555 1_555
C12 O1 1_555 1_555
C13 C9 1_555 1_555
C14 C13 1_555 1_555
H10 C14 1_555 1_555
C15 C14 1_555 1_555
H11 C15 1_555 1_555
C16 C15 1_555 1_555
H12 C16 1_555 1_555
C17 C16 1_555 1_555
H13 C17 1_555 1_555
C18 C13 1_555 1_555
C19 C10 1_555 1_555
H14 C19 1_555 1_555
H15 C19 1_555 1_555
C20 C19 1_555 1_555
H16 C20 1_555 1_555
H17 C20 1_555 1_555
C21 O3 1_555 1_555
H18 C21 1_555 1_555
H19 C21 1_555 1_555
C22 C21 1_555 1_555
C23 C22 1_555 1_555
H20 C23 1_555 1_555
C24 C23 1_555 1_555
H21 C24 1_555 1_555
C25 C24 1_555 1_555
H22 C25 1_555 1_555
C26 C25 1_555 1_555
H23 C26 1_555 1_555
C27 C22 1_555 1_555
H24 C27 1_555 1_555
C5 C6 1_555 1_555
C7 C8 1_555 1_555
C11 C12 1_555 1_555
C17 C18 1_555 1_555
C26 C27 1_555 1_555

#END
