
#######################################################################
#
#                 Cambridge Crystallographic Data Centre
#                                CCDC 
#
#######################################################################
#
# If this CIF has been generated from an entry in the Cambridge 
# Structural Database, then it will include bibliographic, chemical, 
# crystal, experimental, refinement or atomic coordinate data resulting 
# from the CCDC's data processing and validation procedures.
#
#######################################################################

data_POWMUL
_chemical_formula_moiety         'C16 H36 N1 1+,C20 H17 N4 1-'
_chemical_name_systematic        
'N,N,N-tributylbutan-1-aminium 2-((4-methylphenyl)(phenyldiazenyl)methylene)-1-phenyldiazanide'
_symmetry_cell_setting           monoclinic
_symmetry_space_group_name_H-M   'P 21/n'
_symmetry_Int_Tables_number      14
_space_group_name_Hall           '-P 2yn'
loop_
_symmetry_equiv_pos_site_id
_symmetry_equiv_pos_as_xyz
1 x,y,z
2 1/2-x,1/2+y,1/2-z
3 -x,-y,-z
4 1/2+x,1/2-y,1/2+z
_cell_length_a                   8.5964(5)
_cell_length_b                   19.7591(14)
_cell_length_c                   19.9085(15)
_cell_angle_alpha                90
_cell_angle_beta                 99.724(2)
_cell_angle_gamma                90
_cell_volume                     3333.02
_exptl_crystal_colour            violet
_exptl_crystal_description       needle
_cell_formula_units_Z            4
loop_
_atom_site_label
_atom_site_type_symbol
_atom_site_fract_x
_atom_site_fract_y
_atom_site_fract_z
N1 N 0.85461(16) 0.64872(7) 0.22305(7)
N2 N 0.89801(16) 0.70093(7) 0.19116(7)
N3 N 0.99102(15) 0.80545(7) 0.18894(7)
N4 N 1.05111(15) 0.86124(7) 0.21715(7)
C1 C 0.78354(19) 0.59825(8) 0.17792(9)
C2 C 0.6944(2) 0.54969(8) 0.20477(10)
H1 H 0.6853 0.5517 0.2516
C3 C 0.6186(2) 0.49845(9) 0.16462(10)
H2 H 0.5578 0.4660 0.1840
C4 C 0.6308(2) 0.49417(9) 0.09640(10)
H3 H 0.5779 0.4593 0.0686
C5 C 0.7214(2) 0.54155(9) 0.06920(10)
H4 H 0.7312 0.5387 0.0225
C6 C 0.7981(2) 0.59298(9) 0.10908(10)
H5 H 0.8608 0.6247 0.0897
C7 C 0.97076(18) 0.75241(8) 0.22994(9)
C8 C 1.02713(18) 0.74941(8) 0.30442(9)
C9 C 1.02484(19) 0.80541(8) 0.34740(9)
H6 H 0.9796 0.8467 0.3290
C10 C 1.0872(2) 0.80186(9) 0.41629(9)
H7 H 1.0831 0.8407 0.4441
C11 C 1.1554(2) 0.74301(9) 0.44541(10)
C12 C 1.1561(2) 0.68706(9) 0.40324(10)
H8 H 1.2004 0.6458 0.4221
C13 C 1.0939(2) 0.68990(9) 0.33458(9)
H9 H 1.0965 0.6506 0.3073
C14 C 1.2262(3) 0.73922(11) 0.52018(11)
H10 H 1.2060 0.6944 0.5379
H11 H 1.1782 0.7740 0.5453
H12 H 1.3403 0.7469 0.5258
C15 C 1.08238(18) 0.90840(8) 0.16770(9)
C16 C 1.12595(19) 0.97349(8) 0.19046(9)
H13 H 1.1284 0.9847 0.2370
C17 C 1.1657(2) 1.02199(9) 0.14626(10)
H14 H 1.1950 1.0661 0.1626
C18 C 1.1628(2) 1.00661(9) 0.07872(10)
H15 H 1.1899 1.0399 0.0483
C19 C 1.1201(2) 0.94216(9) 0.05558(10)
H16 H 1.1183 0.9314 0.0089
C20 C 1.0802(2) 0.89333(9) 0.09914(9)
H17 H 1.0511 0.8493 0.0824
N5 N 0.51117(16) 0.79932(7) 0.26211(7)
C21 C 0.61552(19) 0.84175(9) 0.22427(9)
H18 H 0.7018 0.8609 0.2582
H19 H 0.6646 0.8112 0.1944
C22 C 0.5373(2) 0.89934(10) 0.18108(10)
H20 H 0.4967 0.9333 0.2104
H21 H 0.4474 0.8820 0.1478
C23 C 0.6592(2) 0.93192(9) 0.14356(10)
H22 H 0.7484 0.9487 0.1775
H23 H 0.7010 0.8970 0.1157
C24 C 0.5941(3) 0.98980(13) 0.09781(13)
H24 H 0.6773 1.0080 0.0749
H25 H 0.5561 1.0255 0.1252
H26 H 0.5064 0.9735 0.0636
C25 C 0.4313(2) 0.84249(9) 0.30984(9)
H27 H 0.3584 0.8744 0.2820
H28 H 0.3668 0.8125 0.3340
C26 C 0.5417(2) 0.88288(10) 0.36255(10)
H29 H 0.5979 0.9171 0.3393
H30 H 0.6214 0.8522 0.3883
C27 C 0.4506(2) 0.91833(10) 0.41200(10)
H31 H 0.3948 0.8838 0.4351
H32 H 0.5266 0.9417 0.4474
C28 C 0.3321(3) 0.96916(11) 0.37798(11)
H33 H 0.2910 0.9956 0.4128
H34 H 0.2449 0.9454 0.3495
H35 H 0.3832 0.9996 0.3495
C29 C 0.61882(19) 0.74670(9) 0.30141(9)
H36 H 0.6773 0.7237 0.2692
H37 H 0.6974 0.7705 0.3353
C30 C 0.5400(2) 0.69308(10) 0.33829(11)
H38 H 0.4760 0.6629 0.3047
H39 H 0.4686 0.7148 0.3660
C31 C 0.6649(2) 0.65170(10) 0.38432(10)
H40 H 0.6154 0.6098 0.3980
H41 H 0.7478 0.6383 0.3580
C32 C 0.7413(3) 0.68879(12) 0.44775(11)
H42 H 0.8148 0.6584 0.4762
H43 H 0.6598 0.7039 0.4733
H44 H 0.7990 0.7282 0.4348
C33 C 0.37928(19) 0.76590(9) 0.21309(9)
H45 H 0.3154 0.7386 0.2400
H46 H 0.3100 0.8019 0.1900
C34 C 0.4287(2) 0.72083(9) 0.15907(10)
H47 H 0.5048 0.6865 0.1808
H48 H 0.4812 0.7483 0.1278
C35 C 0.2840(2) 0.68573(10) 0.11893(10)
H49 H 0.2369 0.6558 0.1500
H50 H 0.2045 0.7203 0.1010
C36 C 0.3235(2) 0.64405(10) 0.06005(10)
H51 H 0.2275 0.6222 0.0363
H52 H 0.4015 0.6094 0.0775
H53 H 0.3669 0.6737 0.0283
loop_
_geom_bond_atom_site_label_1
_geom_bond_atom_site_label_2
_geom_bond_site_symmetry_1
_geom_bond_site_symmetry_2
N1 N2 1_555 1_555
N2 C7 1_555 1_555
N3 N4 1_555 1_555
N4 C15 1_555 1_555
C1 N1 1_555 1_555
C2 C1 1_555 1_555
H1 C2 1_555 1_555
C3 C2 1_555 1_555
H2 C3 1_555 1_555
C4 C3 1_555 1_555
H3 C4 1_555 1_555
C5 C4 1_555 1_555
H4 C5 1_555 1_555
C6 C1 1_555 1_555
H5 C6 1_555 1_555
C7 N3 1_555 1_555
C8 C7 1_555 1_555
C9 C8 1_555 1_555
H6 C9 1_555 1_555
C10 C9 1_555 1_555
H7 C10 1_555 1_555
C11 C10 1_555 1_555
C12 C11 1_555 1_555
H8 C12 1_555 1_555
C13 C8 1_555 1_555
H9 C13 1_555 1_555
C14 C11 1_555 1_555
H10 C14 1_555 1_555
H11 C14 1_555 1_555
H12 C14 1_555 1_555
C15 C16 1_555 1_555
C16 H13 1_555 1_555
C17 C16 1_555 1_555
H14 C17 1_555 1_555
C18 C17 1_555 1_555
H15 C18 1_555 1_555
C19 C18 1_555 1_555
H16 C19 1_555 1_555
C20 C15 1_555 1_555
H17 C20 1_555 1_555
N5 C21 1_555 1_555
C21 H18 1_555 1_555
H19 C21 1_555 1_555
C22 C21 1_555 1_555
H20 C22 1_555 1_555
H21 C22 1_555 1_555
C23 C22 1_555 1_555
H22 C23 1_555 1_555
H23 C23 1_555 1_555
C24 C23 1_555 1_555
H24 C24 1_555 1_555
H25 C24 1_555 1_555
H26 C24 1_555 1_555
C25 N5 1_555 1_555
H27 C25 1_555 1_555
H28 C25 1_555 1_555
C26 C25 1_555 1_555
H29 C26 1_555 1_555
H30 C26 1_555 1_555
C27 C26 1_555 1_555
H31 C27 1_555 1_555
H32 C27 1_555 1_555
C28 C27 1_555 1_555
H33 C28 1_555 1_555
H34 C28 1_555 1_555
H35 C28 1_555 1_555
C29 N5 1_555 1_555
H36 C29 1_555 1_555
H37 C29 1_555 1_555
C30 C29 1_555 1_555
H38 C30 1_555 1_555
H39 C30 1_555 1_555
C31 C30 1_555 1_555
H40 C31 1_555 1_555
H41 C31 1_555 1_555
C32 C31 1_555 1_555
H42 C32 1_555 1_555
H43 C32 1_555 1_555
H44 C32 1_555 1_555
C33 N5 1_555 1_555
H45 C33 1_555 1_555
H46 C33 1_555 1_555
C34 C33 1_555 1_555
H47 C34 1_555 1_555
H48 C34 1_555 1_555
C35 C34 1_555 1_555
H49 C35 1_555 1_555
H50 C35 1_555 1_555
C36 C35 1_555 1_555
H51 C36 1_555 1_555
H52 C36 1_555 1_555
H53 C36 1_555 1_555
C5 C6 1_555 1_555
C12 C13 1_555 1_555
C19 C20 1_555 1_555

#END
