
#######################################################################
#
#                 Cambridge Crystallographic Data Centre
#                                CCDC 
#
#######################################################################
#
# If this CIF has been generated from an entry in the Cambridge 
# Structural Database, then it will include bibliographic, chemical, 
# crystal, experimental, refinement or atomic coordinate data resulting 
# from the CCDC's data processing and validation procedures.
#
#######################################################################

data_POWPOH
_chemical_formula_moiety         'C19 H30 Cl1 N1 O5'
_chemical_name_systematic        
N-((2S)-4-Chloro-2-(L-menthyloxy)-5-oxo-2,5-dihydrofuran-3-yl)-L-valine
_symmetry_cell_setting           tetragonal
_symmetry_space_group_name_H-M   'P 43 21 2'
_symmetry_Int_Tables_number      96
_space_group_name_Hall           'P 4nw 2abw'
loop_
_symmetry_equiv_pos_site_id
_symmetry_equiv_pos_as_xyz
1 x,y,z
2 -x,-y,1/2+z
3 1/2-y,1/2+x,3/4+z
4 1/2+y,1/2-x,1/4+z
5 1/2-x,1/2+y,3/4-z
6 1/2+x,1/2-y,1/4-z
7 y,x,-z
8 -y,-x,1/2-z
_cell_length_a                   10.4540(4)
_cell_length_b                   10.4540(4)
_cell_length_c                   39.300(3)
_cell_angle_alpha                90
_cell_angle_beta                 90
_cell_angle_gamma                90
_cell_volume                     4294.94
_exptl_crystal_colour            colorless
_exptl_crystal_description       block
_cell_formula_units_Z            8
loop_
_atom_site_label
_atom_site_type_symbol
_atom_site_fract_x
_atom_site_fract_y
_atom_site_fract_z
C1 C 0.6886(3) -0.0142(2) -0.02302(5)
C2 C 0.6349(2) 0.0184(2) 0.01161(5)
H1 H 0.5486 -0.0178 0.0132
C3 C 0.6252(3) 0.1638(3) 0.01705(6)
H2 H 0.6169 0.1771 0.0416
C4 C 0.5046(4) 0.2198(3) 0.00080(9)
H3 H 0.4929 0.3061 0.0085
H4 H 0.4318 0.1692 0.0072
H5 H 0.5135 0.2191 -0.0235
C5 C 0.7443(4) 0.2337(3) 0.00618(8)
H6 H 0.8180 0.1926 0.0158
H7 H 0.7403 0.3207 0.0140
H8 H 0.7507 0.2325 -0.0182
C6 C 0.6726(2) -0.0701(2) 0.06900(5)
C7 C 0.5557(2) -0.0781(2) 0.08334(5)
C8 C 0.5677(3) -0.1196(2) 0.11793(5)
C9 C 0.7698(2) -0.0992(2) 0.09642(5)
H9 H 0.8263 -0.1695 0.0896
C10 C 0.9662(2) -0.0054(2) 0.11656(5)
H10 H 1.0136 -0.0663 0.1024
C11 C 0.9624(2) -0.0546(3) 0.15302(5)
H11 H 0.9221 -0.1381 0.1534
H12 H 0.9112 0.0029 0.1668
C12 C 1.0967(3) -0.0645(3) 0.16813(6)
H13 H 1.1447 -0.1278 0.1549
C13 C 1.0913(3) -0.1106(3) 0.20518(6)
H14 H 1.0524 -0.0458 0.2191
H15 H 1.1764 -0.1271 0.2132
H16 H 1.0416 -0.1877 0.2065
C14 C 1.1649(3) 0.0631(3) 0.16501(7)
H17 H 1.1233 0.1250 0.1797
H18 H 1.2525 0.0534 0.1727
C15 C 1.1654(3) 0.1133(3) 0.12899(7)
H19 H 1.2151 0.0562 0.1147
H20 H 1.2062 0.1966 0.1286
C16 C 1.0302(2) 0.1249(2) 0.11446(6)
H21 H 0.9828 0.1814 0.1299
C17 C 1.0229(3) 0.1862(3) 0.07910(7)
H22 H 0.9327 0.1846 0.0723
C18 C 1.0627(4) 0.3269(3) 0.08046(11)
H23 H 1.0213 0.3678 0.0993
H24 H 1.0380 0.3685 0.0597
H25 H 1.1538 0.3325 0.0832
C19 C 1.0969(4) 0.1145(4) 0.05192(7)
H26 H 1.1866 0.1177 0.0571
H27 H 1.0818 0.1534 0.0302
H28 H 1.0692 0.0270 0.0514
Cl1 Cl 0.40649(7) -0.05720(10) 0.066293(16)
N1 N 0.71379(18) -0.0411(2) 0.03775(4)
H29 H 0.7919 -0.0586 0.0327
O1 O 0.60255(18) 0.0096(2) -0.04637(4)
H30 H 0.6322 -0.0068 -0.0652
O2 O 0.79397(18) -0.05167(19) -0.02856(4)
O3 O 0.48370(18) -0.14530(18) 0.13838(4)
O4 O 0.69263(17) -0.13404(16) 0.12582(3)
O5 O 0.83805(15) 0.01070(15) 0.10286(4)
loop_
_geom_bond_atom_site_label_1
_geom_bond_atom_site_label_2
_geom_bond_site_symmetry_1
_geom_bond_site_symmetry_2
C1 C2 1_555 1_555
C2 H1 1_555 1_555
C3 C2 1_555 1_555
H2 C3 1_555 1_555
C4 C3 1_555 1_555
H3 C4 1_555 1_555
H4 C4 1_555 1_555
H5 C4 1_555 1_555
C5 C3 1_555 1_555
H6 C5 1_555 1_555
H7 C5 1_555 1_555
H8 C5 1_555 1_555
C6 C7 1_555 1_555
C7 C8 1_555 1_555
C8 O3 1_555 1_555
C9 C6 1_555 1_555
H9 C9 1_555 1_555
C10 H10 1_555 1_555
C11 C10 1_555 1_555
H11 C11 1_555 1_555
H12 C11 1_555 1_555
C12 C11 1_555 1_555
H13 C12 1_555 1_555
C13 C12 1_555 1_555
H14 C13 1_555 1_555
H15 C13 1_555 1_555
H16 C13 1_555 1_555
C14 C12 1_555 1_555
H17 C14 1_555 1_555
H18 C14 1_555 1_555
C15 C14 1_555 1_555
H19 C15 1_555 1_555
H20 C15 1_555 1_555
C16 C10 1_555 1_555
H21 C16 1_555 1_555
C17 C16 1_555 1_555
H22 C17 1_555 1_555
C18 C17 1_555 1_555
H23 C18 1_555 1_555
H24 C18 1_555 1_555
H25 C18 1_555 1_555
C19 C17 1_555 1_555
H26 C19 1_555 1_555
H27 C19 1_555 1_555
H28 C19 1_555 1_555
Cl1 C7 1_555 1_555
N1 C2 1_555 1_555
H29 N1 1_555 1_555
O1 C1 1_555 1_555
H30 O1 1_555 1_555
O2 C1 1_555 1_555
O4 C8 1_555 1_555
O5 C9 1_555 1_555
C6 N1 1_555 1_555
C9 O4 1_555 1_555
C10 O5 1_555 1_555
C15 C16 1_555 1_555

#END
