
#######################################################################
#
#                 Cambridge Crystallographic Data Centre
#                                CCDC 
#
#######################################################################
#
# If this CIF has been generated from an entry in the Cambridge 
# Structural Database, then it will include bibliographic, chemical, 
# crystal, experimental, refinement or atomic coordinate data resulting 
# from the CCDC's data processing and validation procedures.
#
#######################################################################

data_POWPEX
_chemical_formula_moiety         'C14 H11 N3 O3'
_chemical_name_systematic        (E)-2-(4-Nitrobenzylideneamino)benzamide
_symmetry_cell_setting           monoclinic
_symmetry_space_group_name_H-M   'P 21/c'
_symmetry_Int_Tables_number      14
_space_group_name_Hall           '-P 2ybc'
loop_
_symmetry_equiv_pos_site_id
_symmetry_equiv_pos_as_xyz
1 x,y,z
2 -x,1/2+y,1/2-z
3 -x,-y,-z
4 x,1/2-y,1/2+z
_cell_length_a                   7.3863(2)
_cell_length_b                   12.2657(3)
_cell_length_c                   14.1414(4)
_cell_angle_alpha                90
_cell_angle_beta                 97.2480(10)
_cell_angle_gamma                90
_cell_volume                     1270.95
_exptl_crystal_colour            yellow
_exptl_crystal_description       block
_chemical_melting_point          '457-458 K'
_cell_formula_units_Z            4
_exptl_crystal_recrystallization_method ethanol
loop_
_atom_site_label
_atom_site_type_symbol
_atom_site_fract_x
_atom_site_fract_y
_atom_site_fract_z
N1 N 0.29424(15) 0.81888(9) 0.04882(9)
O1 O 0.66701(16) 0.86265(9) 0.54680(8)
O2 O -0.03944(14) 0.58880(8) -0.10923(7)
C1 C 0.39628(18) 0.86357(11) 0.21085(11)
C2 C 0.10787(17) 0.76078(11) -0.09651(10)
C3 C 0.06905(17) 0.64827(11) -0.06033(10)
N2 N 0.66097(17) 0.79210(10) 0.48528(10)
C4 C 0.56915(18) 0.81749(11) 0.38992(10)
C5 C 0.20752(18) 0.84286(11) -0.04369(11)
N3 N 0.15232(19) 0.61634(11) 0.02351(10)
C6 C 0.30111(19) 0.88799(12) 0.11590(11)
H1 H 0.2447 0.9554 0.1046
C7 C 0.3976(2) 0.93889(11) 0.28377(11)
H2 H 0.3381 1.0053 0.2721
C8 C 0.4860(2) 0.91691(11) 0.37357(11)
H3 H 0.4892 0.9684 0.4220
C9 C 0.0323(2) 0.78476(12) -0.18910(11)
H4 H -0.0348 0.7314 -0.2248
C10 C 0.5690(2) 0.74035(12) 0.31915(13)
H5 H 0.6261 0.6734 0.3318
C11 C 0.4840(2) 0.76367(12) 0.23011(12)
H6 H 0.4844 0.7124 0.1817
O3 O 0.72849(17) 0.70200(9) 0.49945(9)
C12 C 0.0538(2) 0.88540(14) -0.22967(12)
H7 H 0.0017 0.8994 -0.2918
C13 C 0.1527(2) 0.96491(14) -0.17769(13)
H8 H 0.1680 1.0329 -0.2047
C14 C 0.2289(2) 0.94391(12) -0.08568(13)
H9 H 0.2957 0.9981 -0.0510
H10 H 0.226(2) 0.6618(14) 0.0573(13)
H11 H 0.121(2) 0.5508(15) 0.0458(11)
loop_
_geom_bond_atom_site_label_1
_geom_bond_atom_site_label_2
_geom_bond_site_symmetry_1
_geom_bond_site_symmetry_2
N1 C5 1_555 1_555
O1 N2 1_555 1_555
O2 C3 1_555 1_555
C1 C6 1_555 1_555
C2 C3 1_555 1_555
C3 N3 1_555 1_555
N2 C4 1_555 1_555
C4 C8 1_555 1_555
C5 C2 1_555 1_555
N3 H10 1_555 1_555
C6 N1 1_555 1_555
H1 C6 1_555 1_555
C7 C1 1_555 1_555
H2 C7 1_555 1_555
C8 C7 1_555 1_555
H3 C8 1_555 1_555
C9 C2 1_555 1_555
H4 C9 1_555 1_555
C10 C4 1_555 1_555
H5 C10 1_555 1_555
C11 C1 1_555 1_555
H6 C11 1_555 1_555
O3 N2 1_555 1_555
C12 C9 1_555 1_555
H7 C12 1_555 1_555
C13 C12 1_555 1_555
H8 C13 1_555 1_555
C14 C5 1_555 1_555
H9 C14 1_555 1_555
H11 N3 1_555 1_555
C10 C11 1_555 1_555
C13 C14 1_555 1_555

#END
