
#######################################################################
#
#                 Cambridge Crystallographic Data Centre
#                                CCDC 
#
#######################################################################
#
# If this CIF has been generated from an entry in the Cambridge 
# Structural Database, then it will include bibliographic, chemical, 
# crystal, experimental, refinement or atomic coordinate data resulting 
# from the CCDC's data processing and validation procedures.
#
#######################################################################

data_POWPOI
_chemical_formula_moiety         'C33 H28 B1 F2 N3 O3'
_chemical_name_systematic        
6-(4-(5,5-difluoro-1,3,7,9-tetramethyl-5H-6,5-dipyrrolo[1,2-c:2',1'-f][1,3,2]diazaborinin-10-yl)phenoxy)-2-ethyl-1H-benzo[de]isoquinoline-1,3(2H)-dione
_symmetry_cell_setting           orthorhombic
_symmetry_space_group_name_H-M   'P b c a'
_symmetry_Int_Tables_number      61
_space_group_name_Hall           '-P 2ac 2ab'
loop_
_symmetry_equiv_pos_site_id
_symmetry_equiv_pos_as_xyz
1 x,y,z
2 1/2-x,-y,1/2+z
3 1/2+x,1/2-y,-z
4 -x,1/2+y,1/2-z
5 -x,-y,-z
6 1/2+x,y,1/2-z
7 1/2-x,1/2+y,z
8 x,1/2-y,1/2+z
_cell_length_a                   12.6202(12)
_cell_length_b                   13.0114(14)
_cell_length_c                   33.523(3)
_cell_angle_alpha                90
_cell_angle_beta                 90
_cell_angle_gamma                90
_cell_volume                     5504.69
_cell_formula_units_Z            8
loop_
_atom_site_label
_atom_site_type_symbol
_atom_site_fract_x
_atom_site_fract_y
_atom_site_fract_z
N1 N 0.72095(19) 0.46608(18) 0.02561(7)
N2 N 1.20061(18) 0.11548(19) -0.29753(7)
N3 N 1.05515(19) 0.24178(19) -0.30572(7)
O1 O 0.64063(18) 0.4504(2) -0.03455(7)
O2 O 0.8013(2) 0.4855(2) 0.08523(7)
O3 O 1.08826(16) 0.24997(19) -0.07424(6)
F1 F 1.07328(18) 0.09772(19) -0.34956(6)
F2 F 1.19337(18) 0.2257(2) -0.35443(7)
B1 B 1.1300(3) 0.1701(3) -0.32864(11)
C1 C 0.8145(2) 0.3860(2) -0.02988(8)
C2 C 0.8161(2) 0.3510(3) -0.06808(9)
H1 H 0.7557 0.3571 -0.0838
C3 C 0.9075(3) 0.3057(3) -0.08409(9)
H2 H 0.9079 0.2828 -0.1104
C4 C 0.9958(2) 0.2953(2) -0.06103(8)
C5 C 1.0879(2) 0.3204(2) 0.00375(9)
H3 H 1.1493 0.2898 -0.0060
C6 C 1.0851(3) 0.3564(2) 0.04204(9)
H4 H 1.1450 0.3507 0.0581
C7 C 0.9935(3) 0.4016(2) 0.05731(9)
H5 H 0.9929 0.4258 0.0834
C8 C 0.9046(2) 0.4107(2) 0.03420(8)
C9 C 0.9058(2) 0.3752(2) -0.00559(8)
C10 C 0.9986(2) 0.3295(2) -0.02099(8)
C11 C 0.7193(3) 0.4358(2) -0.01428(9)
C12 C 0.8073(3) 0.4567(2) 0.05074(9)
C13 C 0.6245(3) 0.5161(3) 0.04114(10)
H6 H 0.6204 0.5056 0.0697
H7 H 0.5626 0.4846 0.0291
C14 C 0.6241(3) 0.6284(3) 0.03247(13)
H8 H 0.5599 0.6584 0.0425
H9 H 0.6283 0.6390 0.0042
H10 H 0.6839 0.6602 0.0452
C15 C 1.0969(2) 0.2348(3) -0.11554(9)
C16 C 1.0614(3) 0.1445(3) -0.13210(9)
H11 H 1.0322 0.0933 -0.1162
C17 C 1.0700(3) 0.1312(2) -0.17280(9)
H12 H 1.0458 0.0708 -0.1845
C18 C 1.1143(2) 0.2073(2) -0.19632(8)
C19 C 1.1492(3) 0.2965(2) -0.17851(9)
H13 H 1.1788 0.3479 -0.1942
C20 C 1.1413(3) 0.3112(3) -0.13827(10)
H14 H 1.1654 0.3716 -0.1266
C21 C 1.1202(2) 0.1947(2) -0.24011(8)
C22 C 1.0474(2) 0.2476(2) -0.26422(8)
C23 C 0.9604(2) 0.3130(2) -0.25453(10)
C24 C 0.9218(2) 0.3463(2) -0.29072(11)
H15 H 0.8657 0.3919 -0.2940
C25 C 0.9785(3) 0.3023(3) -0.32148(10)
C26 C 1.2808(2) 0.0494(2) -0.30510(10)
C27 C 1.3320(2) 0.0257(3) -0.26945(10)
H16 H 1.3901 -0.0179 -0.2669
C28 C 1.2831(2) 0.0767(2) -0.23879(9)
C29 C 1.1981(2) 0.1326(2) -0.25644(8)
C30 C 0.9141(3) 0.3395(3) -0.21463(11)
H17 H 0.9551 0.3073 -0.1940
H18 H 0.8423 0.3154 -0.2133
H19 H 0.9154 0.4126 -0.2110
C31 C 0.9610(3) 0.3120(3) -0.36518(11)
H20 H 1.0138 0.2729 -0.3792
H21 H 0.9662 0.3830 -0.3728
H22 H 0.8919 0.2865 -0.3718
C32 C 1.3028(3) 0.0101(3) -0.34603(11)
H23 H 1.2539 0.0406 -0.3645
H24 H 1.2947 -0.0632 -0.3464
H25 H 1.3739 0.0278 -0.3535
C33 C 1.3174(3) 0.0746(3) -0.19627(10)
H26 H 1.2709 0.1168 -0.1806
H27 H 1.3885 0.1003 -0.1942
H28 H 1.3150 0.0052 -0.1865
loop_
_geom_bond_atom_site_label_1
_geom_bond_atom_site_label_2
_geom_bond_site_symmetry_1
_geom_bond_site_symmetry_2
N1 C11 1_555 1_555
N2 B1 1_555 1_555
N3 B1 1_555 1_555
O1 C11 1_555 1_555
O2 C12 1_555 1_555
O3 C4 1_555 1_555
F1 B1 1_555 1_555
F2 B1 1_555 1_555
C1 C2 1_555 1_555
C2 H1 1_555 1_555
C3 C2 1_555 1_555
H2 C3 1_555 1_555
C4 C3 1_555 1_555
C5 H3 1_555 1_555
C6 C5 1_555 1_555
H4 C6 1_555 1_555
C7 C6 1_555 1_555
H5 C7 1_555 1_555
C8 C7 1_555 1_555
C9 C1 1_555 1_555
C10 C4 1_555 1_555
C11 C1 1_555 1_555
C12 N1 1_555 1_555
C13 N1 1_555 1_555
H6 C13 1_555 1_555
H7 C13 1_555 1_555
C14 C13 1_555 1_555
H8 C14 1_555 1_555
H9 C14 1_555 1_555
H10 C14 1_555 1_555
C15 O3 1_555 1_555
C16 C15 1_555 1_555
H11 C16 1_555 1_555
C17 C16 1_555 1_555
H12 C17 1_555 1_555
C18 C17 1_555 1_555
C19 C18 1_555 1_555
H13 C19 1_555 1_555
C20 C15 1_555 1_555
H14 C20 1_555 1_555
C21 C18 1_555 1_555
C22 N3 1_555 1_555
C23 C22 1_555 1_555
C24 C23 1_555 1_555
H15 C24 1_555 1_555
C25 N3 1_555 1_555
C26 N2 1_555 1_555
C27 C26 1_555 1_555
H16 C27 1_555 1_555
C28 C27 1_555 1_555
C29 N2 1_555 1_555
C30 C23 1_555 1_555
H17 C30 1_555 1_555
H18 C30 1_555 1_555
H19 C30 1_555 1_555
C31 C25 1_555 1_555
H20 C31 1_555 1_555
H21 C31 1_555 1_555
H22 C31 1_555 1_555
C32 C26 1_555 1_555
H23 C32 1_555 1_555
H24 C32 1_555 1_555
H25 C32 1_555 1_555
C33 C28 1_555 1_555
H26 C33 1_555 1_555
H27 C33 1_555 1_555
H28 C33 1_555 1_555
C5 C10 1_555 1_555
C8 C9 1_555 1_555
C8 C12 1_555 1_555
C9 C10 1_555 1_555
C19 C20 1_555 1_555
C21 C22 1_555 1_555
C21 C29 1_555 1_555
C24 C25 1_555 1_555
C28 C29 1_555 1_555

#END
