
#######################################################################
#
#                 Cambridge Crystallographic Data Centre
#                                CCDC 
#
#######################################################################
#
# If this CIF has been generated from an entry in the Cambridge 
# Structural Database, then it will include bibliographic, chemical, 
# crystal, experimental, refinement or atomic coordinate data resulting 
# from the CCDC's data processing and validation procedures.
#
#######################################################################

data_POWRUQ
_chemical_name_common            
3,5,8,10,15,17,20,22-octa-t-butyltetracosa-3,4,8,9,15,16,20,21-octaene-1,6,11,13,18,23-hexayne
_chemical_formula_moiety         'C56 H74'
_chemical_name_systematic        
(P,P,P,P)-(+)-3,5,8,10,15,17,20,23-octa-tert-butylpentacosa-3,4,8,9,15,16,20,21-octaen-1,6,11,13,18,24-hexayne
_symmetry_cell_setting           monoclinic
_symmetry_space_group_name_H-M   'P 21'
_symmetry_Int_Tables_number      4
_space_group_name_Hall           'P 2yb'
loop_
_symmetry_equiv_pos_site_id
_symmetry_equiv_pos_as_xyz
1 x,y,z
2 -x,1/2+y,-z
_cell_length_a                   12.923(3)
_cell_length_b                   9.8532(17)
_cell_length_c                   21.529(4)
_cell_angle_alpha                90
_cell_angle_beta                 107.183(3)
_cell_angle_gamma                90
_cell_volume                     2618.99
_exptl_crystal_colour            colorless
_exptl_crystal_description       plate
_chemical_melting_point          '473 K'
_cell_formula_units_Z            2
_exptl_crystal_recrystallization_method 'Hexane/Chloroform 1/9'
loop_
_atom_site_label
_atom_site_type_symbol
_atom_site_fract_x
_atom_site_fract_y
_atom_site_fract_z
C1 C 0.0797(2) 1.1678(4) 0.14475(15)
H1 H 0.0296 1.0968 0.1221
H2 H 0.0760 1.2449 0.1154
H3 H 0.0594 1.1978 0.1830
C2 C 0.1958(2) 1.1111(3) 0.16641(14)
C3 C 0.2247(2) 1.0667(3) 0.10559(14)
C4 C 0.2481(2) 0.9404(4) 0.09543(14)
C5 C 0.2658(2) 0.8112(3) 0.08660(13)
C6 C 0.3746(2) 0.7596(3) 0.10542(13)
C7 C 0.4646(2) 0.7131(3) 0.11925(13)
C8 C 0.5733(2) 0.6622(3) 0.13475(13)
C9 C 0.6495(2) 0.7282(3) 0.17853(13)
C10 C 0.7218(2) 0.8054(3) 0.21927(13)
C11 C 0.7546(2) 0.7759(3) 0.28776(14)
C12 C 0.7832(2) 0.7577(3) 0.34560(13)
C13 C 0.8125(2) 0.7361(3) 0.41187(14)
C14 C 0.8366(2) 0.7235(3) 0.47002(13)
C15 C 0.8616(2) 0.7016(3) 0.53864(12)
C16 C 0.8584(2) 0.8032(3) 0.57794(13)
C17 C 0.8509(2) 0.8930(3) 0.62128(12)
C18 C 0.7476(2) 0.9015(3) 0.63416(12)
C19 C 0.6608(2) 0.8935(3) 0.64339(12)
C20 C 0.5567(2) 0.8728(3) 0.65332(12)
C21 C 0.5144(2) 0.7508(3) 0.64353(13)
C22 C 0.4682(2) 0.6304(3) 0.63232(14)
C23 C 0.3960(2) 0.5883(3) 0.56486(13)
C24 C 0.2785(2) 0.5793(3) 0.56749(15)
H4 H 0.2748 0.5158 0.6018
H5 H 0.2316 0.5472 0.5255
H6 H 0.2543 0.6692 0.5768
C25 C 0.2738(3) 1.2242(4) 0.20059(16)
H7 H 0.2554 1.2536 0.2395
H8 H 0.2675 1.3013 0.1709
H9 H 0.3483 1.1898 0.2131
C26 C 0.2245(2) 1.1699(4) 0.05799(16)
C27 C 0.2233(3) 1.2583(4) 0.02088(18)
H10 H 0.2224 1.3295 -0.0090
C28 C 0.1737(2) 0.7107(3) 0.05628(14)
C29 C 0.1750(3) 0.6008(4) 0.10621(16)
H11 H 0.1615 0.6419 0.1445
H12 H 0.2459 0.5560 0.1190
H13 H 0.1185 0.5338 0.0872
C30 C 0.1934(3) 0.6476(3) -0.00487(15)
H14 H 0.1369 0.5804 -0.0237
H15 H 0.2645 0.6033 0.0071
H16 H 0.1914 0.7191 -0.0369
C31 C 0.0645(2) 0.7836(4) 0.03702(17)
H17 H 0.0504 0.8206 0.0760
H18 H 0.0071 0.7192 0.0158
H19 H 0.0659 0.8577 0.0069
C32 C 0.8909(2) 0.5568(3) 0.56396(13)
C33 C 0.8942(3) 0.5476(4) 0.63514(14)
H20 H 0.9480 0.6117 0.6608
H21 H 0.9141 0.4551 0.6510
H22 H 0.8228 0.5699 0.6394
C34 C 1.0034(3) 0.5232(4) 0.55821(16)
H23 H 1.0032 0.5341 0.5129
H24 H 1.0220 0.4293 0.5720
H25 H 1.0570 0.5847 0.5860
C35 C 0.8070(3) 0.4594(3) 0.52413(16)
H26 H 0.7367 0.4790 0.5308
H27 H 0.8285 0.3661 0.5378
H28 H 0.8015 0.4699 0.4780
C36 C 0.9446(2) 0.9859(3) 0.65879(13)
C37 C 0.9186(3) 1.1301(3) 0.63366(17)
H29 H 0.8501 1.1590 0.6403
H30 H 0.9123 1.1330 0.5872
H31 H 0.9768 1.1911 0.6574
C38 C 0.9550(3) 0.9788(4) 0.73114(14)
H32 H 1.0131 1.0395 0.7551
H33 H 0.9719 0.8856 0.7466
H34 H 0.8865 1.0068 0.7381
C39 C 1.0504(2) 0.9399(3) 0.64762(15)
H35 H 1.0431 0.9426 0.6010
H36 H 1.0670 0.8471 0.6638
H37 H 1.1092 1.0006 0.6709
C40 C 0.4993(2) 0.9928(3) 0.67543(13)
C41 C 0.4775(2) 1.1038(3) 0.62349(15)
H38 H 0.4405 1.1801 0.6370
H39 H 0.4316 1.0674 0.5822
H40 H 0.5463 1.1350 0.6181
C42 C 0.3933(2) 0.9449(3) 0.68527(14)
H41 H 0.4078 0.8707 0.7170
H42 H 0.3448 0.9129 0.6438
H43 H 0.3591 1.0204 0.7014
C43 C 0.5739(2) 1.0486(3) 0.73920(14)
H44 H 0.5391 1.1261 0.7533
H45 H 0.6424 1.0778 0.7326
H46 H 0.5882 0.9776 0.7725
C44 C 0.4032(2) 0.6940(3) 0.51411(14)
H47 H 0.3815 0.7830 0.5264
H48 H 0.3549 0.6679 0.4715
H49 H 0.4779 0.6988 0.5120
C45 C 0.4331(3) 0.4502(3) 0.54690(15)
H50 H 0.5076 0.4574 0.5448
H51 H 0.3855 0.4217 0.5045
H52 H 0.4300 0.3832 0.5799
C46 C 0.4825(2) 0.5363(3) 0.68529(14)
C47 C 0.4922(2) 0.4579(3) 0.72871(15)
H53 H 0.4999 0.3954 0.7634
C48 C 0.7754(2) 0.9269(3) 0.19577(14)
C49 C 0.7093(3) 0.9664(4) 0.12763(16)
H54 H 0.6361 0.9919 0.1277
H55 H 0.7054 0.8893 0.0982
H56 H 0.7438 1.0435 0.1129
C50 C 0.7799(3) 1.0461(4) 0.24146(17)
H57 H 0.8103 1.1254 0.2256
H58 H 0.8257 1.0224 0.2851
H59 H 0.7066 1.0672 0.2430
C51 C 0.8899(3) 0.8843(5) 0.1975(2)
H60 H 0.9269 0.9610 0.1844
H61 H 0.8860 0.8083 0.1676
H62 H 0.9301 0.8564 0.2417
C52 C 0.5936(2) 0.5358(3) 0.09840(14)
C53 C 0.5549(3) 0.5638(4) 0.02552(14)
H63 H 0.4768 0.5813 0.0120
H64 H 0.5701 0.4847 0.0020
H65 H 0.5929 0.6432 0.0157
C54 C 0.5290(3) 0.4162(4) 0.11393(16)
H66 H 0.4519 0.4398 0.1017
H67 H 0.5547 0.3965 0.1606
H68 H 0.5391 0.3361 0.0894
C55 C 0.7143(3) 0.5018(4) 0.11902(17)
H69 H 0.7264 0.4212 0.0954
H70 H 0.7390 0.4838 0.1659
H71 H 0.7549 0.5786 0.1090
C56 C 0.2025(3) 0.9912(4) 0.21263(15)
H72 H 0.1519 0.9202 0.1905
H73 H 0.1834 1.0217 0.2512
H74 H 0.2764 0.9549 0.2259
loop_
_geom_bond_atom_site_label_1
_geom_bond_atom_site_label_2
_geom_bond_site_symmetry_1
_geom_bond_site_symmetry_2
C1 H1 1_555 1_555
H2 C1 1_555 1_555
H3 C1 1_555 1_555
C2 C1 1_555 1_555
C3 C2 1_555 1_555
C4 C3 1_555 1_555
C5 C4 1_555 1_555
C6 C5 1_555 1_555
C7 C6 1_555 1_555
C8 C7 1_555 1_555
C9 C8 1_555 1_555
C10 C9 1_555 1_555
C11 C10 1_555 1_555
C12 C11 1_555 1_555
C13 C12 1_555 1_555
C14 C13 1_555 1_555
C15 C14 1_555 1_555
C16 C15 1_555 1_555
C17 C16 1_555 1_555
C18 C17 1_555 1_555
C19 C18 1_555 1_555
C20 C19 1_555 1_555
C21 C20 1_555 1_555
C22 C21 1_555 1_555
C23 C22 1_555 1_555
C24 C23 1_555 1_555
H4 C24 1_555 1_555
H5 C24 1_555 1_555
H6 C24 1_555 1_555
C25 C2 1_555 1_555
H7 C25 1_555 1_555
H8 C25 1_555 1_555
H9 C25 1_555 1_555
C26 C3 1_555 1_555
C27 C26 1_555 1_555
H10 C27 1_555 1_555
C28 C5 1_555 1_555
C29 C28 1_555 1_555
H11 C29 1_555 1_555
H12 C29 1_555 1_555
H13 C29 1_555 1_555
C30 C28 1_555 1_555
H14 C30 1_555 1_555
H15 C30 1_555 1_555
H16 C30 1_555 1_555
C31 C28 1_555 1_555
H17 C31 1_555 1_555
H18 C31 1_555 1_555
H19 C31 1_555 1_555
C32 C15 1_555 1_555
C33 C32 1_555 1_555
H20 C33 1_555 1_555
H21 C33 1_555 1_555
H22 C33 1_555 1_555
C34 C32 1_555 1_555
H23 C34 1_555 1_555
H24 C34 1_555 1_555
H25 C34 1_555 1_555
C35 C32 1_555 1_555
H26 C35 1_555 1_555
H27 C35 1_555 1_555
H28 C35 1_555 1_555
C36 C17 1_555 1_555
C37 C36 1_555 1_555
H29 C37 1_555 1_555
H30 C37 1_555 1_555
H31 C37 1_555 1_555
C38 C36 1_555 1_555
H32 C38 1_555 1_555
H33 C38 1_555 1_555
H34 C38 1_555 1_555
C39 C36 1_555 1_555
H35 C39 1_555 1_555
H36 C39 1_555 1_555
H37 C39 1_555 1_555
C40 C20 1_555 1_555
C41 C40 1_555 1_555
H38 C41 1_555 1_555
H39 C41 1_555 1_555
H40 C41 1_555 1_555
C42 C40 1_555 1_555
H41 C42 1_555 1_555
H42 C42 1_555 1_555
H43 C42 1_555 1_555
C43 C40 1_555 1_555
H44 C43 1_555 1_555
H45 C43 1_555 1_555
H46 C43 1_555 1_555
C44 C23 1_555 1_555
H47 C44 1_555 1_555
H48 C44 1_555 1_555
H49 C44 1_555 1_555
C45 C23 1_555 1_555
H50 C45 1_555 1_555
H51 C45 1_555 1_555
H52 C45 1_555 1_555
C46 C22 1_555 1_555
C47 C46 1_555 1_555
H53 C47 1_555 1_555
C48 C10 1_555 1_555
C49 C48 1_555 1_555
H54 C49 1_555 1_555
H55 C49 1_555 1_555
H56 C49 1_555 1_555
C50 C48 1_555 1_555
H57 C50 1_555 1_555
H58 C50 1_555 1_555
H59 C50 1_555 1_555
C51 C48 1_555 1_555
H60 C51 1_555 1_555
H61 C51 1_555 1_555
H62 C51 1_555 1_555
C52 C8 1_555 1_555
C53 C52 1_555 1_555
H63 C53 1_555 1_555
H64 C53 1_555 1_555
H65 C53 1_555 1_555
C54 C52 1_555 1_555
H66 C54 1_555 1_555
H67 C54 1_555 1_555
H68 C54 1_555 1_555
C55 C52 1_555 1_555
H69 C55 1_555 1_555
H70 C55 1_555 1_555
H71 C55 1_555 1_555
C56 C2 1_555 1_555
H72 C56 1_555 1_555
H73 C56 1_555 1_555
H74 C56 1_555 1_555

#END
