
#######################################################################
#
#                 Cambridge Crystallographic Data Centre
#                                CCDC 
#
#######################################################################
#
# If this CIF has been generated from an entry in the Cambridge 
# Structural Database, then it will include bibliographic, chemical, 
# crystal, experimental, refinement or atomic coordinate data resulting 
# from the CCDC's data processing and validation procedures.
#
#######################################################################

data_POXBEK
_chemical_formula_moiety         'C14 H14 N2 O6 S1'
_chemical_name_systematic        
N-(2,5-Dimethoxyphenyl)-4-nitrobenzenesulfonamide
_symmetry_cell_setting           orthorhombic
_symmetry_space_group_name_H-M   'P b c a'
_symmetry_Int_Tables_number      61
_space_group_name_Hall           '-P 2ac 2ab'
loop_
_symmetry_equiv_pos_site_id
_symmetry_equiv_pos_as_xyz
1 x,y,z
2 1/2-x,-y,1/2+z
3 1/2+x,1/2-y,-z
4 -x,1/2+y,1/2-z
5 -x,-y,-z
6 1/2+x,y,1/2-z
7 1/2-x,1/2+y,z
8 x,1/2-y,1/2+z
_cell_length_a                   14.532(4)
_cell_length_b                   12.375(4)
_cell_length_c                   17.311(4)
_cell_angle_alpha                90
_cell_angle_beta                 90
_cell_angle_gamma                90
_cell_volume                     3113.1
_exptl_crystal_colour            colorless
_exptl_crystal_description       block
_cell_formula_units_Z            8
_exptl_crystal_recrystallization_method n-hexane/dichloromethane
loop_
_atom_site_label
_atom_site_type_symbol
_atom_site_fract_x
_atom_site_fract_y
_atom_site_fract_z
S1 S 0.06666(4) 0.69183(6) 0.38224(3)
N1 N 0.05816(14) 0.7151(2) 0.28983(13)
H1 H 0.0834(18) 0.669(2) 0.2672(16)
N2 N -0.23262(16) 0.3748(2) 0.44664(14)
O1 O -0.20633(15) 0.94720(18) 0.27633(11)
O2 O 0.00947(13) 0.61834(17) 0.16246(10)
O3 O 0.15329(11) 0.63919(17) 0.39190(10)
O4 O 0.04683(13) 0.78981(14) 0.42213(10)
O5 O -0.30528(13) 0.40717(19) 0.47199(13)
O6 O -0.21642(16) 0.28124(19) 0.43150(18)
C1 C -0.02551(15) 0.7501(2) 0.25371(14)
C2 C -0.07889(17) 0.8326(2) 0.28188(15)
H2 H -0.0618 0.8681 0.3270
C3 C -0.15884(18) 0.8634(2) 0.24300(15)
C4 C -0.18336(17) 0.8124(2) 0.17588(15)
H3 H -0.2366 0.8329 0.1499
C5 C -0.12900(19) 0.7305(2) 0.14695(15)
H4 H -0.1456 0.6966 0.1011
C6 C -0.04991(17) 0.6982(2) 0.18527(14)
C7 C -0.2851(2) 0.9874(3) 0.23675(18)
H5 H -0.2688 1.0047 0.1844
H6 H -0.3071 1.0512 0.2623
H7 H -0.3325 0.9334 0.2368
C8 C -0.0013(2) 0.5726(3) 0.08822(16)
H8 H -0.0571 0.5312 0.0866
H9 H 0.0501 0.5263 0.0772
H10 H -0.0041 0.6292 0.0504
C9 C -0.02178(15) 0.59843(19) 0.40462(12)
C10 C -0.00660(16) 0.4902(2) 0.39088(14)
H11 H 0.0498 0.4670 0.3716
C11 C -0.07563(18) 0.4167(2) 0.40591(15)
H12 H -0.0664 0.3432 0.3978
C12 C -0.15815(16) 0.4544(2) 0.43310(14)
C13 C -0.17421(17) 0.5610(2) 0.44706(15)
H13 H -0.2310 0.5838 0.4657
C14 C -0.10508(15) 0.6342(2) 0.43313(15)
H14 H -0.1144 0.7073 0.4428
loop_
_geom_bond_atom_site_label_1
_geom_bond_atom_site_label_2
_geom_bond_site_symmetry_1
_geom_bond_site_symmetry_2
S1 N1 1_555 1_555
N1 H1 1_555 1_555
N2 O5 1_555 1_555
O1 C3 1_555 1_555
O2 C6 1_555 1_555
O3 S1 1_555 1_555
O4 S1 1_555 1_555
O6 N2 1_555 1_555
C1 N1 1_555 1_555
C2 C1 1_555 1_555
H2 C2 1_555 1_555
C3 C2 1_555 1_555
C4 C3 1_555 1_555
H3 C4 1_555 1_555
C5 C4 1_555 1_555
H4 C5 1_555 1_555
C6 C1 1_555 1_555
C7 O1 1_555 1_555
H5 C7 1_555 1_555
H6 C7 1_555 1_555
H7 C7 1_555 1_555
C8 O2 1_555 1_555
H8 C8 1_555 1_555
H9 C8 1_555 1_555
H10 C8 1_555 1_555
C9 S1 1_555 1_555
C10 C9 1_555 1_555
H11 C10 1_555 1_555
C11 C10 1_555 1_555
H12 C11 1_555 1_555
C12 N2 1_555 1_555
C13 C12 1_555 1_555
H13 C13 1_555 1_555
C14 C9 1_555 1_555
H14 C14 1_555 1_555
C5 C6 1_555 1_555
C11 C12 1_555 1_555
C13 C14 1_555 1_555

#END
