
#######################################################################
#
#                 Cambridge Crystallographic Data Centre
#                                CCDC 
#
#######################################################################
#
# If this CIF has been generated from an entry in the Cambridge 
# Structural Database, then it will include bibliographic, chemical, 
# crystal, experimental, refinement or atomic coordinate data resulting 
# from the CCDC's data processing and validation procedures.
#
#######################################################################

data_POXCAH
_chemical_formula_moiety         'C20 H14 Br1 Cl1 N2 O2'
_chemical_name_systematic        
N'-((E)-(5-Bromo-2-hydroxyphenyl)(phenyl)methylidene)-4-chlorobenzohydrazide
_symmetry_cell_setting           triclinic
_symmetry_space_group_name_H-M   'P -1'
_symmetry_Int_Tables_number      2
_space_group_name_Hall           '-P 1'
loop_
_symmetry_equiv_pos_site_id
_symmetry_equiv_pos_as_xyz
1 x,y,z
2 -x,-y,-z
_cell_length_a                   7.3664(8)
_cell_length_b                   10.6894(11)
_cell_length_c                   12.3029(14)
_cell_angle_alpha                71.976(2)
_cell_angle_beta                 82.228(2)
_cell_angle_gamma                85.466(2)
_cell_volume                     912.046
_exptl_crystal_colour            yellow
_exptl_crystal_description       block
_cell_formula_units_Z            2
_exptl_crystal_recrystallization_method dimethylformamide
loop_
_atom_site_label
_atom_site_type_symbol
_atom_site_fract_x
_atom_site_fract_y
_atom_site_fract_z
Br1 Br 0.36717(5) 1.17236(4) 1.00467(3)
Cl1 Cl 0.08513(13) 0.47987(9) 0.23226(8)
O1 O 0.3069(3) 1.25145(19) 0.50596(17)
H1 H 0.2882 1.1830 0.4931
O2 O 0.2209(3) 1.0374(2) 0.33927(17)
N1 N 0.2632(3) 1.0045(2) 0.55663(18)
N2 N 0.2388(3) 0.9007(2) 0.51767(19)
H2 H 0.2367 0.8215 0.5636
C1 C 0.3457(4) 1.1936(3) 0.8483(2)
C2 C 0.3209(4) 1.0858(3) 0.8134(2)
H3 H 0.3141 1.0027 0.8673
C3 C 0.3060(3) 1.0998(2) 0.6988(2)
C4 C 0.3189(4) 1.2264(3) 0.6188(2)
C5 C 0.3465(4) 1.3328(3) 0.6566(3)
H4 H 0.3564 1.4163 0.6036
C6 C 0.3595(4) 1.3169(3) 0.7695(3)
H5 H 0.3775 1.3891 0.7932
C7 C 0.2801(4) 0.9829(3) 0.6636(2)
C8 C 0.2759(4) 0.8493(2) 0.7500(2)
C9 C 0.4302(4) 0.7655(3) 0.7577(2)
H6 H 0.5367 0.7920 0.7083
C10 C 0.4261(5) 0.6424(3) 0.8389(3)
H7 H 0.5296 0.5861 0.8433
C11 C 0.2707(5) 0.6030(3) 0.9127(3)
H8 H 0.2690 0.5206 0.9677
C12 C 0.1173(4) 0.6854(3) 0.9054(3)
H9 H 0.0117 0.6586 0.9557
C13 C 0.1186(4) 0.8074(3) 0.8242(2)
H10 H 0.0134 0.8620 0.8190
C14 C 0.2180(4) 0.9262(3) 0.4043(2)
C15 C 0.1925(4) 0.8100(3) 0.3660(2)
C16 C 0.1873(4) 0.6816(3) 0.4374(2)
H11 H 0.2020 0.6634 0.5147
C17 C 0.1604(5) 0.5797(3) 0.3946(3)
H12 H 0.1600 0.4931 0.4423
C18 C 0.1345(4) 0.6076(3) 0.2821(2)
C19 C 0.1422(4) 0.7332(3) 0.2085(3)
H13 H 0.1275 0.7504 0.1312
C20 C 0.1724(4) 0.8337(3) 0.2515(2)
H14 H 0.1792 0.9193 0.2021
loop_
_geom_bond_atom_site_label_1
_geom_bond_atom_site_label_2
_geom_bond_site_symmetry_1
_geom_bond_site_symmetry_2
Br1 C1 1_555 1_555
Cl1 C18 1_555 1_555
O1 H1 1_555 1_555
O2 C14 1_555 1_555
N1 N2 1_555 1_555
N2 H2 1_555 1_555
C1 C2 1_555 1_555
C2 H3 1_555 1_555
C3 C2 1_555 1_555
C4 O1 1_555 1_555
C5 C4 1_555 1_555
H4 C5 1_555 1_555
C6 C1 1_555 1_555
H5 C6 1_555 1_555
C7 N1 1_555 1_555
C8 C7 1_555 1_555
C9 C8 1_555 1_555
H6 C9 1_555 1_555
C10 C9 1_555 1_555
H7 C10 1_555 1_555
C11 C10 1_555 1_555
H8 C11 1_555 1_555
C12 C11 1_555 1_555
H9 C12 1_555 1_555
C13 C8 1_555 1_555
H10 C13 1_555 1_555
C14 N2 1_555 1_555
C15 C14 1_555 1_555
C16 C15 1_555 1_555
H11 C16 1_555 1_555
C17 C16 1_555 1_555
H12 C17 1_555 1_555
C18 C17 1_555 1_555
C19 C18 1_555 1_555
H13 C19 1_555 1_555
C20 C15 1_555 1_555
H14 C20 1_555 1_555
C3 C4 1_555 1_555
C3 C7 1_555 1_555
C5 C6 1_555 1_555
C12 C13 1_555 1_555
C19 C20 1_555 1_555

#END
