
#######################################################################
#
#                 Cambridge Crystallographic Data Centre
#                                CCDC 
#
#######################################################################
#
# If this CIF has been generated from an entry in the Cambridge 
# Structural Database, then it will include bibliographic, chemical, 
# crystal, experimental, refinement or atomic coordinate data resulting 
# from the CCDC's data processing and validation procedures.
#
#######################################################################

data_POXDOV01
_chemical_name_common            
(R)-3,4-Dihydro-2H-dinaphtho(2,1-f:1,2-h)(1,5)dioxonin-3-one
_chemical_formula_moiety         'C23 H16 O3'
_chemical_name_systematic        
5H-Dinaphtho(2,1-g:1',2'-i)-3,7-dioxacyclononan-5-one
_symmetry_cell_setting           orthorhombic
_symmetry_space_group_name_H-M   'P 21 21 21'
_symmetry_Int_Tables_number      19
_space_group_name_Hall           'P 2ac 2ab'
loop_
_symmetry_equiv_pos_site_id
_symmetry_equiv_pos_as_xyz
1 x,y,z
2 1/2-x,-y,1/2+z
3 1/2+x,1/2-y,-z
4 -x,1/2+y,1/2-z
_cell_length_a                   8.980(3)
_cell_length_b                   12.121(3)
_cell_length_c                   15.562(4)
_cell_angle_alpha                90
_cell_angle_beta                 90
_cell_angle_gamma                90
_cell_volume                     1693.87
_exptl_crystal_colour            colorless
_cell_formula_units_Z            4
loop_
_atom_site_label
_atom_site_type_symbol
_atom_site_fract_x
_atom_site_fract_y
_atom_site_fract_z
O1 O -0.1690(4) -0.0018(4) 0.5579(2)
O2 O 0.0943(3) 0.1436(2) 0.6590(2)
O3 O 0.1266(3) -0.0795(2) 0.6992(2)
C1 C -0.0509(5) 0.0002(5) 0.5951(3)
C2 C 0.0568(6) 0.0920(5) 0.5797(3)
C3 C 0.2454(4) 0.1509(3) 0.6752(2)
C4 C 0.3359(5) 0.2129(4) 0.6200(3)
C5 C 0.4836(5) 0.2227(4) 0.6362(3)
C6 C 0.5500(4) 0.1682(3) 0.7064(2)
C7 C 0.7046(4) 0.1727(4) 0.7222(3)
C8 C 0.7668(4) 0.1167(4) 0.7886(3)
C9 C 0.6764(5) 0.0527(4) 0.8427(3)
C10 C 0.5273(4) 0.0477(4) 0.8301(2)
C11 C 0.4576(4) 0.1058(3) 0.7624(2)
C12 C 0.3005(4) 0.1009(3) 0.7472(2)
C13 C 0.1984(4) 0.0442(3) 0.8085(2)
C14 C 0.1812(4) 0.0839(3) 0.8944(2)
C15 C 0.2527(4) 0.1798(3) 0.9245(2)
C16 C 0.2292(5) 0.2181(4) 1.0058(3)
C17 C 0.1332(5) 0.1619(5) 1.0625(3)
C18 C 0.0628(5) 0.0696(4) 1.0357(3)
C19 C 0.0838(4) 0.0278(3) 0.9521(2)
C20 C 0.0093(4) -0.0665(4) 0.9232(3)
C21 C 0.0228(4) -0.1015(4) 0.8416(3)
C22 C 0.1146(4) -0.0437(3) 0.7836(2)
C23 C -0.0104(5) -0.0935(5) 0.6545(3)
H1 H 0.0129 0.1448 0.5424
H2 H 0.1445 0.0633 0.5539
H3 H 0.2937 0.2481 0.5713
H4 H 0.5434 0.2670 0.5996
H5 H 0.7663 0.2157 0.6857
H6 H 0.8710 0.1208 0.7985
H7 H 0.7203 0.0124 0.8885
H8 H 0.4682 0.0042 0.8677
H9 H 0.3185 0.2185 0.8875
H10 H 0.2781 0.2834 1.0244
H11 H 0.1182 0.1887 1.1192
H12 H -0.0022 0.0322 1.0740
H13 H -0.0519 -0.1066 0.9620
H14 H -0.0296 -0.1653 0.8230
H15 H -0.0038 -0.1590 0.6212
H16 H -0.0876 -0.1010 0.6958
loop_
_geom_bond_atom_site_label_1
_geom_bond_atom_site_label_2
_geom_bond_site_symmetry_1
_geom_bond_site_symmetry_2
O1 C1 1_555 1_555
O2 C2 1_555 1_555
O3 C22 1_555 1_555
C1 C2 1_555 1_555
C2 H1 1_555 1_555
C3 O2 1_555 1_555
C4 C3 1_555 1_555
C5 C4 1_555 1_555
C6 C5 1_555 1_555
C7 C6 1_555 1_555
C8 C7 1_555 1_555
C9 C8 1_555 1_555
C10 C9 1_555 1_555
C11 C6 1_555 1_555
C12 C3 1_555 1_555
C13 C12 1_555 1_555
C14 C13 1_555 1_555
C15 C14 1_555 1_555
C16 C15 1_555 1_555
C17 C16 1_555 1_555
C18 C17 1_555 1_555
C19 C14 1_555 1_555
C20 C19 1_555 1_555
C21 C20 1_555 1_555
C22 C13 1_555 1_555
C23 O3 1_555 1_555
H2 C2 1_555 1_555
H3 C4 1_555 1_555
H4 C5 1_555 1_555
H5 C7 1_555 1_555
H6 C8 1_555 1_555
H7 C9 1_555 1_555
H8 C10 1_555 1_555
H9 C15 1_555 1_555
H10 C16 1_555 1_555
H11 C17 1_555 1_555
H12 C18 1_555 1_555
H13 C20 1_555 1_555
H14 C21 1_555 1_555
H15 C23 1_555 1_555
H16 C23 1_555 1_555
C1 C23 1_555 1_555
C10 C11 1_555 1_555
C11 C12 1_555 1_555
C18 C19 1_555 1_555
C21 C22 1_555 1_555

#END
