
#######################################################################
#
#                 Cambridge Crystallographic Data Centre
#                                CCDC 
#
#######################################################################
#
# If this CIF has been generated from an entry in the Cambridge 
# Structural Database, then it will include bibliographic, chemical, 
# crystal, experimental, refinement or atomic coordinate data resulting 
# from the CCDC's data processing and validation procedures.
#
#######################################################################

data_POXDOV
_chemical_name_common            
(R)-3,4-Dihydro-2H-dinaphtho(2,1-f:1,2-h)(1,5)dioxonin-3-one
_chemical_formula_moiety         'C23 H16 O3'
_chemical_name_systematic        
5H-Dinaphtho(2,1-g:1',2'-i)-3,7-dioxacyclononan-5-one
_symmetry_cell_setting           orthorhombic
_symmetry_space_group_name_H-M   'P 21 21 21'
_symmetry_Int_Tables_number      19
_space_group_name_Hall           'P 2ac 2ab'
loop_
_symmetry_equiv_pos_site_id
_symmetry_equiv_pos_as_xyz
1 x,y,z
2 1/2-x,-y,1/2+z
3 1/2+x,1/2-y,-z
4 -x,1/2+y,1/2-z
_cell_length_a                   8.976(4)
_cell_length_b                   12.150(3)
_cell_length_c                   15.566(3)
_cell_angle_alpha                90
_cell_angle_beta                 90
_cell_angle_gamma                90
_cell_volume                     1697.6
_chemical_melting_point          196-198deg.C
_cell_formula_units_Z            4
_exptl_crystal_recrystallization_method 'ethyl acetate'
loop_
_atom_site_label
_atom_site_type_symbol
_atom_site_fract_x
_atom_site_fract_y
_atom_site_fract_z
O1 O -0.1695(5) 1.0032(4) 0.0583(3)
O2 O 0.0943(3) 0.8572(3) 0.1589(2)
O3 O 0.1264(3) 1.0797(2) 0.1990(2)
C1 C -0.0513(6) 1.0006(5) 0.0950(3)
C2 C 0.0560(6) 0.9096(5) 0.0797(3)
C3 C -0.0104(5) 1.0946(5) 0.1542(4)
C4 C 0.2466(5) 0.8493(4) 0.1754(3)
C5 C 0.3005(4) 0.8992(3) 0.2472(3)
C6 C 0.4587(4) 0.8942(4) 0.2624(3)
C7 C 0.5269(5) 0.9522(4) 0.3299(3)
C8 C 0.6769(5) 0.9472(5) 0.3432(3)
C9 C 0.7667(5) 0.8836(4) 0.2891(3)
C10 C 0.7048(5) 0.8276(4) 0.2226(3)
C11 C 0.5499(5) 0.8324(4) 0.2070(3)
C12 C 0.4845(5) 0.7776(4) 0.1364(3)
C13 C 0.3357(6) 0.7875(4) 0.1200(3)
C14 C 0.1148(5) 1.0436(3) 0.2838(3)
C15 C 0.1984(4) 0.9555(3) 0.3086(3)
C16 C 0.1812(4) 0.9157(4) 0.3948(3)
C17 C 0.2526(5) 0.8201(4) 0.4245(3)
C18 C 0.2294(5) 0.7815(5) 0.5062(3)
C19 C 0.1335(5) 0.8370(5) 0.5625(3)
C20 C 0.0635(5) 0.9297(5) 0.5358(3)
C21 C 0.0841(4) 0.9712(4) 0.4522(3)
C22 C 0.0094(5) 1.0657(4) 0.4235(3)
C23 C 0.0227(5) 1.1018(4) 0.3414(3)
H1 H 0.0121(6) 0.8561(5) 0.0410(3)
H2 H 0.1453(6) 0.9386(5) 0.0528(3)
H3 H -0.0040(5) 1.1617(5) 0.1206(4)
H4 H -0.0897(5) 1.1043(5) 0.1959(4)
H5 H 0.4684(5) 0.9949(4) 0.3663(3)
H6 H 0.7196(5) 0.9861(5) 0.3883(3)
H7 H 0.8689(5) 0.8797(4) 0.2986(3)
H8 H 0.7651(5) 0.7855(4) 0.1869(3)
H9 H 0.5435(5) 0.7344(4) 0.1007(3)
H10 H 0.2940(6) 0.7532(4) 0.0723(3)
H11 H 0.3168(5) 0.7822(4) 0.3881(3)
H12 H 0.2777(5) 0.7180(5) 0.5244(3)
H13 H 0.1180(5) 0.8104(5) 0.6178(3)
H14 H 0.0005(5) 0.9666(5) 0.5735(3)
H15 H -0.0506(5) 1.1045(4) 0.4616(3)
H16 H -0.0285(5) 1.1642(4) 0.3233(3)
loop_
_geom_bond_atom_site_label_1
_geom_bond_atom_site_label_2
_geom_bond_site_symmetry_1
_geom_bond_site_symmetry_2
O1 C1 1_555 1_555
O2 C2 1_555 1_555
O3 C3 1_555 1_555
C1 C2 1_555 1_555
C2 H1 1_555 1_555
C3 C1 1_555 1_555
C4 O2 1_555 1_555
C5 C4 1_555 1_555
C6 C5 1_555 1_555
C7 C6 1_555 1_555
C8 C7 1_555 1_555
C9 C8 1_555 1_555
C10 C9 1_555 1_555
C11 C6 1_555 1_555
C12 C11 1_555 1_555
C13 C4 1_555 1_555
C14 O3 1_555 1_555
C15 C5 1_555 1_555
C16 C15 1_555 1_555
C17 C16 1_555 1_555
C18 C17 1_555 1_555
C19 C18 1_555 1_555
C20 C19 1_555 1_555
C21 C16 1_555 1_555
C22 C21 1_555 1_555
C23 C14 1_555 1_555
H2 C2 1_555 1_555
H3 C3 1_555 1_555
H4 C3 1_555 1_555
H5 C7 1_555 1_555
H6 C8 1_555 1_555
H7 C9 1_555 1_555
H8 C10 1_555 1_555
H9 C12 1_555 1_555
H10 C13 1_555 1_555
H11 C17 1_555 1_555
H12 C18 1_555 1_555
H13 C19 1_555 1_555
H14 C20 1_555 1_555
H15 C22 1_555 1_555
H16 C23 1_555 1_555
C10 C11 1_555 1_555
C12 C13 1_555 1_555
C14 C15 1_555 1_555
C20 C21 1_555 1_555
C22 C23 1_555 1_555

#END
