
#######################################################################
#
#                 Cambridge Crystallographic Data Centre
#                                CCDC 
#
#######################################################################
#
# If this CIF has been generated from an entry in the Cambridge 
# Structural Database, then it will include bibliographic, chemical, 
# crystal, experimental, refinement or atomic coordinate data resulting 
# from the CCDC's data processing and validation procedures.
#
#######################################################################

data_POXFIR
_chemical_formula_moiety         'C23 H32 O5'
_chemical_name_systematic        
(+)-(1S,2S)-1-Acetoxy-2-(6-m-methoxyphenyl-3-oxohexyl)-2,4,4-trimethyl-cyclopentan-3-one
_symmetry_cell_setting           monoclinic
_symmetry_space_group_name_H-M   'P 21'
_symmetry_Int_Tables_number      4
_space_group_name_Hall           'P 2yb'
loop_
_symmetry_equiv_pos_site_id
_symmetry_equiv_pos_as_xyz
1 x,y,z
2 -x,1/2+y,-z
_cell_length_a                   5.6743(11)
_cell_length_b                   14.254(6)
_cell_length_c                   13.857(6)
_cell_angle_alpha                90
_cell_angle_beta                 95.75(3)
_cell_angle_gamma                90
_cell_volume                     1115.14
_exptl_crystal_description       needles
_chemical_melting_point          58-59deg.C
_cell_formula_units_Z            2
_exptl_crystal_recrystallization_method 'acetone/petroleum ether'
loop_
_atom_site_label
_atom_site_type_symbol
_atom_site_fract_x
_atom_site_fract_y
_atom_site_fract_z
O1 O -0.4458(10) -0.80922 -0.8535(4)
O2 O -1.0603(8) -1.0252(5) -1.2344(4)
O3 O -1.4280(8) -0.8242(4) -1.5210(3)
O4 O -1.5770(7) -0.7708(4) -1.2558(3)
O5 O -1.8101(10) -0.7631(6) -1.1372(4)
C1 C -0.9729(16) -1.0008(7) -0.8159(6)
C2 C -0.8086(17) -0.9800(7) -0.7380(5)
C3 C -0.6286(15) -0.9153(7) -0.7471(5)
C4 C -0.6115(15) -0.8723(6) -0.8344(6)
C5 C -0.7771(15) -0.8924(6) -0.9139(5)
C6 C -0.9591(14) -0.9554(6) -0.9050(5)
C7 C -1.1355(14) -0.9813(7) -0.9901(6)
C8 C -1.0950(12) -1.0754(5) -1.0344(5)
C9 C -1.2778(13) -1.0978(6) -1.1199(5)
C10 C -1.2504(12) -1.0368(5) -1.2075(4)
C11 C -1.4706(11) -0.9951(5) -1.2592(5)
C12 C -1.4229(10) -0.9317(5) -1.3425(4)
C13 C -1.6428(10) -0.8774(5) -1.3885(4)
C14 C -1.7644(10) -0.8145(5) -1.3197(4)
C15 C -1.8870(11) -0.7383(5) -1.3850(5)
C16 C -1.7301(12) -0.7202(5) -1.4676(5)
C17 C -1.5798(10) -0.8083(5) -1.4660(4)
C18 C -0.2806(17) -0.7768(8) -0.7765(7)
C19 C -1.8249(11) -0.9457(5) -1.4398(5)
C20 C -1.6225(12) -0.7492(6) -1.1660(5)
C21 C -1.4172(14) -0.7056(7) -1.1083(5)
C22 C -1.5667(16) -0.6378(6) -1.4460(7)
C23 C -1.8695(14) -0.7079(7) -1.5668(6)
H1 H -1.101 -1.047 -0.809
H2 H -0.817 -1.010 -0.676
H3 H -0.514 -0.899 -0.692
H4 H -0.761 -0.861 -0.976
H5 H -1.293 -0.985 -0.967
H6 H -1.142 -0.937 -1.040
H7 H -1.096 -1.124 -0.984
H8 H -0.940 -1.076 -1.056
H9 H -1.271 -1.164 -1.134
H10 H -1.434 -1.087 -1.098
H11 H -1.584 -1.042 -1.284
H12 H -1.551 -0.958 -1.213
H13 H -1.358 -0.968 -1.391
H14 H -1.304 -0.886 -1.319
H15 H -1.878 -0.851 -1.286
H16 H -1.906 -0.683 -1.348
H17 H -2.043 -0.758 -1.412
H18 H -0.174 -0.727 -0.801
H19 H -0.185 -0.822 -0.746
H20 H -0.360 -0.741 -0.728
H21 H -1.753 -0.986 -1.483
H22 H -1.951 -0.913 -1.475
H23 H -1.891 -0.985 -1.392
H24 H -1.449 -0.687 -1.044
H25 H -1.363 -0.646 -1.138
H26 H -1.278 -0.745 -1.102
H27 H -1.472 -0.628 -1.500
H28 H -1.462 -0.649 -1.390
H29 H -1.652 -0.581 -1.438
H30 H -1.973 -0.653 -1.570
H31 H -1.980 -0.761 -1.580
H32 H -1.775 -0.705 -1.619
loop_
_geom_bond_atom_site_label_1
_geom_bond_atom_site_label_2
_geom_bond_site_symmetry_1
_geom_bond_site_symmetry_2
O1 C4 1_555 1_555
O2 C10 1_555 1_555
O3 C17 1_555 1_555
O4 C14 1_555 1_555
O5 C20 1_555 1_555
C1 C2 1_555 1_555
C2 C3 1_555 1_555
C3 C4 1_555 1_555
C4 C5 1_555 1_555
C5 C6 1_555 1_555
C6 C1 1_555 1_555
C7 C6 1_555 1_555
C8 C7 1_555 1_555
C9 C8 1_555 1_555
C10 C9 1_555 1_555
C11 C10 1_555 1_555
C12 C11 1_555 1_555
C13 C12 1_555 1_555
C14 C13 1_555 1_555
C15 C14 1_555 1_555
C16 C15 1_555 1_555
C17 C13 1_555 1_555
C18 O1 1_555 1_555
C19 C13 1_555 1_555
C20 O4 1_555 1_555
C21 C20 1_555 1_555
C22 C16 1_555 1_555
C23 C16 1_555 1_555
H1 C1 1_555 1_555
H2 C2 1_555 1_555
H3 C3 1_555 1_555
H4 C5 1_555 1_555
H5 C7 1_555 1_555
H6 C7 1_555 1_555
H7 C8 1_555 1_555
H8 C8 1_555 1_555
H9 C9 1_555 1_555
H10 C9 1_555 1_555
H11 C11 1_555 1_555
H12 C11 1_555 1_555
H13 C12 1_555 1_555
H14 C12 1_555 1_555
H15 C14 1_555 1_555
H16 C15 1_555 1_555
H17 C15 1_555 1_555
H18 C18 1_555 1_555
H19 C18 1_555 1_555
H20 C18 1_555 1_555
H21 C19 1_555 1_555
H22 C19 1_555 1_555
H23 C19 1_555 1_555
H24 C21 1_555 1_555
H25 C21 1_555 1_555
H26 C21 1_555 1_555
H27 C22 1_555 1_555
H28 C22 1_555 1_555
H29 C22 1_555 1_555
H30 C23 1_555 1_555
H31 C23 1_555 1_555
H32 C23 1_555 1_555
C16 C17 1_555 1_555

#END
