
#######################################################################
#
#                 Cambridge Crystallographic Data Centre
#                                CCDC 
#
#######################################################################
#
# If this CIF has been generated from an entry in the Cambridge 
# Structural Database, then it will include bibliographic, chemical, 
# crystal, experimental, refinement or atomic coordinate data resulting 
# from the CCDC's data processing and validation procedures.
#
#######################################################################

data_POXFEO
_chemical_formula_moiety         'C35 H32 N4 O2 S1'
_chemical_name_systematic        
"(5R*,4'R*,E)-Methyl 5'-(iso-butylidene)-1,1',3,4-tetraphenyl-2'-thioxo-1,4-dihydrospiro(1,2,4-triazole-5,3'-pyrrolidine)-4'-carboxylate"
_symmetry_cell_setting           monoclinic
_symmetry_space_group_name_H-M   'P 21/n'
_symmetry_Int_Tables_number      14
_space_group_name_Hall           '-P 2yn'
loop_
_symmetry_equiv_pos_site_id
_symmetry_equiv_pos_as_xyz
1 x,y,z
2 1/2-x,1/2+y,1/2-z
3 -x,-y,-z
4 1/2+x,1/2-y,1/2+z
_cell_length_a                   10.451(6)
_cell_length_b                   22.396(14)
_cell_length_c                   13.213(8)
_cell_angle_alpha                90
_cell_angle_beta                 95.010(13)
_cell_angle_gamma                90
_cell_volume                     3080.83
_exptl_crystal_colour            yellow
_chemical_melting_point          '210-212 deg.C'
_cell_formula_units_Z            4
_exptl_crystal_recrystallization_method 'ethyl acetate/hexane'
loop_
_atom_site_label
_atom_site_type_symbol
_atom_site_fract_x
_atom_site_fract_y
_atom_site_fract_z
S1 S 0.68711(7) 0.22353(4) 1.07694(7)
O1 O 0.14253(17) 0.22296(8) 0.95074(15)
O2 O 0.19460(18) 0.12533(9) 0.96401(17)
N1 N 0.3677(2) 0.22118(10) 1.09807(18)
N2 N 0.3270(2) 0.27708(10) 1.13545(18)
N3 N 0.4263(2) 0.29463(9) 0.99248(18)
N4 N 0.5570(2) 0.15648(9) 0.93291(18)
C1 C 0.5631(2) 0.20175(12) 1.0013(2)
C2 C 0.4269(2) 0.22927(11) 0.9995(2)
C3 C 0.3488(2) 0.19760(12) 0.9085(2)
H1 H 0.3314 0.2266 0.8535
C4 C 0.4366(3) 0.14980(12) 0.8732(2)
C5 C 0.4121(2) 0.17890(13) 1.1730(2)
C6 C 0.4233(3) 0.11912(13) 1.1464(2)
H2 H 0.4013 0.1072 1.0798
C7 C 0.4669(3) 0.07735(14) 1.2187(3)
H3 H 0.4760 0.0377 1.1996
C8 C 0.4966(3) 0.09357(15) 1.3177(3)
H4 H 0.5262 0.0654 1.3659
C9 C 0.4818(3) 0.15242(16) 1.3448(3)
H5 H 0.4996 0.1636 1.4124
C10 C 0.4411(3) 0.19524(14) 1.2733(3)
H6 H 0.4333 0.2349 1.2927
C11 C 0.3563(2) 0.31663(12) 1.0698(2)
C12 C 0.3228(3) 0.38054(12) 1.0787(2)
C13 C 0.4158(3) 0.42468(13) 1.0749(2)
H7 H 0.4991 0.4143 1.0624
C14 C 0.3850(3) 0.48406(14) 1.0898(3)
H8 H 0.4477 0.5134 1.0879
C15 C 0.2613(3) 0.49950(14) 1.1072(3)
H9 H 0.2405 0.5393 1.1169
C16 C 0.1684(3) 0.45626(14) 1.1103(3)
H10 H 0.0847 0.4671 1.1209
C17 C 0.1985(3) 0.39641(13) 1.0977(2)
H11 H 0.1360 0.3672 1.1019
C18 C 0.4452(3) 0.32508(12) 0.8993(2)
C19 C 0.3426(3) 0.35054(13) 0.8415(3)
H12 H 0.2602 0.3473 0.8622
C20 C 0.3622(4) 0.38087(14) 0.7527(3)
H13 H 0.2928 0.3981 0.7145
C21 C 0.4835(4) 0.38577(15) 0.7205(3)
H14 H 0.4964 0.4066 0.6614
C22 C 0.5856(4) 0.35954(16) 0.7765(3)
H15 H 0.6673 0.3617 0.7539
C23 C 0.5681(3) 0.32976(13) 0.8668(3)
H16 H 0.6380 0.3131 0.9052
C24 C 0.2210(3) 0.17609(15) 0.9430(2)
C25 C 0.0314(3) 0.21315(14) 1.0085(3)
H17 H -0.0071 0.1754 0.9899
H18 H -0.0302 0.2445 0.9937
H19 H 0.0584 0.2132 1.0798
C26 C 0.4154(3) 0.11053(13) 0.7983(2)
H20 H 0.4821 0.0845 0.7872
C27 C 0.2941(3) 0.10434(13) 0.7301(3)
H21 H 0.2320 0.1337 0.7510
C28 C 0.2371(3) 0.04172(15) 0.7399(3)
H22 H 0.2962 0.0125 0.7185
H23 H 0.1575 0.0390 0.6980
H24 H 0.2217 0.0345 0.8095
C29 C 0.3198(3) 0.11730(16) 0.6190(3)
H25 H 0.3561 0.1565 0.6145
H26 H 0.2405 0.1153 0.5766
H27 H 0.3787 0.0882 0.5967
C30 C 0.6661(3) 0.11768(13) 0.9193(2)
C31 C 0.7577(3) 0.13609(14) 0.8567(2)
H28 H 0.7498 0.1726 0.8232
C32 C 0.8625(3) 0.09879(18) 0.8447(3)
H29 H 0.9246 0.1104 0.8024
C33 C 0.8743(4) 0.04546(19) 0.8948(3)
H30 H 0.9453 0.0213 0.8874
C34 C 0.7817(4) 0.02727(16) 0.9563(3)
H31 H 0.7894 -0.0094 0.9891
C35 C 0.6762(3) 0.06408(14) 0.9692(3)
H32 H 0.6137 0.0523 1.0111
loop_
_geom_bond_atom_site_label_1
_geom_bond_atom_site_label_2
_geom_bond_site_symmetry_1
_geom_bond_site_symmetry_2
S1 C1 1_555 1_555
O1 C24 1_555 1_555
O2 C24 1_555 1_555
N1 N2 1_555 1_555
N2 C11 1_555 1_555
N3 C2 1_555 1_555
N4 C1 1_555 1_555
C1 C2 1_555 1_555
C2 N1 1_555 1_555
C3 C2 1_555 1_555
H1 C3 1_555 1_555
C4 N4 1_555 1_555
C5 N1 1_555 1_555
C6 C5 1_555 1_555
H2 C6 1_555 1_555
C7 C6 1_555 1_555
H3 C7 1_555 1_555
C8 C7 1_555 1_555
H4 C8 1_555 1_555
C9 C8 1_555 1_555
H5 C9 1_555 1_555
C10 C5 1_555 1_555
H6 C10 1_555 1_555
C11 N3 1_555 1_555
C12 C11 1_555 1_555
C13 C12 1_555 1_555
H7 C13 1_555 1_555
C14 C13 1_555 1_555
H8 C14 1_555 1_555
C15 C14 1_555 1_555
H9 C15 1_555 1_555
C16 C15 1_555 1_555
H10 C16 1_555 1_555
C17 C12 1_555 1_555
H11 C17 1_555 1_555
C18 N3 1_555 1_555
C19 C18 1_555 1_555
H12 C19 1_555 1_555
C20 C19 1_555 1_555
H13 C20 1_555 1_555
C21 C20 1_555 1_555
H14 C21 1_555 1_555
C22 C21 1_555 1_555
H15 C22 1_555 1_555
C23 C18 1_555 1_555
H16 C23 1_555 1_555
C24 C3 1_555 1_555
C25 O1 1_555 1_555
H17 C25 1_555 1_555
H18 C25 1_555 1_555
H19 C25 1_555 1_555
C26 C4 1_555 1_555
H20 C26 1_555 1_555
C27 C26 1_555 1_555
H21 C27 1_555 1_555
C28 C27 1_555 1_555
H22 C28 1_555 1_555
H23 C28 1_555 1_555
H24 C28 1_555 1_555
C29 C27 1_555 1_555
H25 C29 1_555 1_555
H26 C29 1_555 1_555
H27 C29 1_555 1_555
C30 N4 1_555 1_555
C31 C30 1_555 1_555
H28 C31 1_555 1_555
C32 C31 1_555 1_555
H29 C32 1_555 1_555
C33 C32 1_555 1_555
H30 C33 1_555 1_555
C34 C33 1_555 1_555
H31 C34 1_555 1_555
C35 C30 1_555 1_555
H32 C35 1_555 1_555
C3 C4 1_555 1_555
C9 C10 1_555 1_555
C16 C17 1_555 1_555
C22 C23 1_555 1_555
C34 C35 1_555 1_555

#END
