
#######################################################################
#
#                 Cambridge Crystallographic Data Centre
#                                CCDC 
#
#######################################################################
#
# If this CIF has been generated from an entry in the Cambridge 
# Structural Database, then it will include bibliographic, chemical, 
# crystal, experimental, refinement or atomic coordinate data resulting 
# from the CCDC's data processing and validation procedures.
#
#######################################################################

data_POXTOM
_chemical_formula_moiety         'C15 H16 O3 S1'
_chemical_name_systematic        
'(2E,4E)-S-Methyl 2-acetyl-3-hydroxy-5-(4-methylphenyl)-2,4-pentadienethioate'
_symmetry_cell_setting           monoclinic
_symmetry_space_group_name_H-M   'P 21/n'
_symmetry_Int_Tables_number      14
_space_group_name_Hall           '-P 2yn'
loop_
_symmetry_equiv_pos_site_id
_symmetry_equiv_pos_as_xyz
1 x,y,z
2 1/2-x,1/2+y,1/2-z
3 -x,-y,-z
4 1/2+x,1/2-y,1/2+z
_cell_length_a                   7.8916(19)
_cell_length_b                   10.404(3)
_cell_length_c                   17.376(4)
_cell_angle_alpha                90
_cell_angle_beta                 93.162(4)
_cell_angle_gamma                90
_cell_volume                     1424.47
_exptl_crystal_colour            colorless
_chemical_melting_point          112-114deg.C
_cell_formula_units_Z            4
loop_
_atom_site_label
_atom_site_type_symbol
_atom_site_fract_x
_atom_site_fract_y
_atom_site_fract_z
O1 O -0.46360(19) 0.92107(17) 0.71835(9)
C1 C 0.2566(3) 0.65240(19) 0.64437(11)
C2 C -0.1404(3) 0.8535(2) 0.67465(12)
C3 C 0.0959(3) 0.7033(2) 0.66865(11)
H1 H 0.0363 0.6511 0.7012
C4 C 0.0241(3) 0.8160(2) 0.64961(12)
H2 H 0.0822 0.8725 0.6191
C5 C -0.2273(2) 0.9611(2) 0.64623(11)
C6 C 0.5680(3) 0.5482(2) 0.60234(13)
C7 C 0.3616(3) 0.7184(2) 0.59597(13)
H3 H 0.3283 0.7987 0.5771
C8 C 0.5128(3) 0.6673(2) 0.57569(14)
H4 H 0.5800 0.7138 0.5433
C9 C 0.3109(3) 0.5316(2) 0.67057(13)
H5 H 0.2434 0.4843 0.7024
C10 C 0.4637(3) 0.4818(2) 0.64977(14)
H6 H 0.4974 0.4014 0.6682
C11 C -0.3980(3) 0.9860(2) 0.66766(13)
C12 C 0.7362(3) 0.4937(3) 0.58099(17)
H7 H 0.7568 0.4140 0.6078
H8 H 0.8252 0.5535 0.5952
H9 H 0.7338 0.4788 0.5264
C13 C -0.1480(3) 1.0494(2) 0.59103(12)
O2 O -0.20877(19) 0.77560(15) 0.72430(9)
H10 H -0.3044 0.8009 0.7327
C14 C -0.5010(3) 1.0901(3) 0.62807(15)
H11 H -0.6048 1.1016 0.6536
H12 H -0.5266 1.0665 0.5753
H13 H -0.4377 1.1689 0.6300
S1 S -0.00326(8) 1.15568(6) 0.63750(3)
C15 C 0.0705(3) 1.2452(2) 0.55759(16)
H14 H 0.1369 1.1902 0.5267
H15 H 0.1390 1.3159 0.5765
H16 H -0.0251 1.2774 0.5268
O3 O -0.1836(2) 1.05096(17) 0.52254(9)
loop_
_geom_bond_atom_site_label_1
_geom_bond_atom_site_label_2
_geom_bond_site_symmetry_1
_geom_bond_site_symmetry_2
O1 C11 1_555 1_555
C1 C3 1_555 1_555
C2 C4 1_555 1_555
C3 H1 1_555 1_555
C4 C3 1_555 1_555
H2 C4 1_555 1_555
C5 C2 1_555 1_555
C6 C8 1_555 1_555
C7 C1 1_555 1_555
H3 C7 1_555 1_555
C8 C7 1_555 1_555
H4 C8 1_555 1_555
C9 C1 1_555 1_555
H5 C9 1_555 1_555
C10 C6 1_555 1_555
H6 C10 1_555 1_555
C11 C5 1_555 1_555
C12 C6 1_555 1_555
H7 C12 1_555 1_555
H8 C12 1_555 1_555
H9 C12 1_555 1_555
C13 C5 1_555 1_555
O2 C2 1_555 1_555
H10 O2 1_555 1_555
C14 C11 1_555 1_555
H11 C14 1_555 1_555
H12 C14 1_555 1_555
H13 C14 1_555 1_555
S1 C13 1_555 1_555
C15 S1 1_555 1_555
H14 C15 1_555 1_555
H15 C15 1_555 1_555
H16 C15 1_555 1_555
O3 C13 1_555 1_555
C9 C10 1_555 1_555

#END
