
#######################################################################
#
#                 Cambridge Crystallographic Data Centre
#                                CCDC 
#
#######################################################################
#
# If this CIF has been generated from an entry in the Cambridge 
# Structural Database, then it will include bibliographic, chemical, 
# crystal, experimental, refinement or atomic coordinate data resulting 
# from the CCDC's data processing and validation procedures.
#
#######################################################################

data_POXTED
_chemical_formula_moiety         'C40 H32 Br1 N1 O4 S1'
_chemical_name_systematic        
N-((3-(4-bromophenyl)-1-oxo-8-(2-oxo-2-phenylethyl)-3,3a,8,8a-tetrahydrocyclopenta[a]inden-2(1H)-ylidene)(phenyl)methyl)-4-methylbenzenesulfonamide
_symmetry_cell_setting           orthorhombic
_symmetry_space_group_name_H-M   'P 21 21 21'
_symmetry_Int_Tables_number      19
_space_group_name_Hall           'P 2ac 2ab'
loop_
_symmetry_equiv_pos_site_id
_symmetry_equiv_pos_as_xyz
1 x,y,z
2 1/2+x,1/2-y,-z
3 -x,1/2+y,1/2-z
4 1/2-x,-y,1/2+z
_cell_length_a                   10.1133(17)
_cell_length_b                   13.543(2)
_cell_length_c                   23.296(4)
_cell_angle_alpha                90
_cell_angle_beta                 90
_cell_angle_gamma                90
_cell_volume                     3190.72
_exptl_crystal_colour            colorless
_exptl_crystal_description       prism
_cell_formula_units_Z            4
loop_
_atom_site_label
_atom_site_type_symbol
_atom_site_fract_x
_atom_site_fract_y
_atom_site_fract_z
Br1 Br 0.85217(3) 0.00685(2) 0.15788(2)
S1 S 0.40898(8) 0.34365(6) 0.42367(3)
O1 O 0.4236(2) 0.08398(15) 0.50288(9)
O2 O 0.4469(3) -0.26836(17) 0.60289(11)
O3 O 0.2751(2) 0.34478(16) 0.44411(10)
O4 O 0.4396(2) 0.38753(16) 0.36937(9)
N1 N 0.4453(2) 0.22541(19) 0.42215(11)
C1 C 0.5253(3) 0.0514(2) 0.48091(12)
C2 C 0.6057(3) -0.0356(2) 0.50396(12)
H1 H 0.6700 -0.0131 0.5339
C3 C 0.6790(3) -0.0715(2) 0.44938(13)
H2 H 0.7629 -0.1057 0.4603
C4 C 0.7108(3) 0.0263(2) 0.41625(12)
H3 H 0.7905 0.0558 0.4350
C5 C 0.5950(3) 0.0923(2) 0.43109(12)
C6 C 0.5252(3) -0.1248(2) 0.52543(12)
H4 H 0.5889 -0.1693 0.5456
C7 C 0.4914(3) -0.1744(2) 0.46924(13)
C8 C 0.5798(3) -0.1462(2) 0.42589(13)
C9 C 0.5720(3) -0.1919(2) 0.37222(14)
H5 H 0.6345 -0.1764 0.3432
C10 C 0.4722(3) -0.2602(2) 0.36150(14)
H6 H 0.4661 -0.2904 0.3248
C11 C 0.3812(3) -0.2847(2) 0.40393(14)
H7 H 0.3119 -0.3300 0.3958
C12 C 0.3917(3) -0.2429(2) 0.45848(14)
H8 H 0.3315 -0.2609 0.4880
C13 C 0.4114(3) -0.1056(2) 0.56765(12)
H9 H 0.4258 -0.0414 0.5870
H10 H 0.3272 -0.1015 0.5461
C14 C 0.4010(3) -0.1864(2) 0.61248(14)
C15 C 0.3323(3) -0.1663(2) 0.66809(13)
C16 C 0.2584(3) -0.0811(2) 0.67790(14)
H11 H 0.2522 -0.0320 0.6489
C17 C 0.1936(3) -0.0677(3) 0.73004(15)
H12 H 0.1435 -0.0095 0.7366
C18 C 0.2023(3) -0.1395(3) 0.77251(15)
H13 H 0.1572 -0.1306 0.8079
C19 C 0.2763(3) -0.2240(3) 0.76334(14)
H14 H 0.2830 -0.2727 0.7926
C20 C 0.3408(3) -0.2375(2) 0.71149(13)
H15 H 0.3913 -0.2957 0.7053
C21 C 0.7420(3) 0.0181(2) 0.35261(11)
C22 C 0.6443(3) 0.0064(2) 0.31100(10)
H16 H 0.5544 0.0016 0.3225
C23 C 0.6760(2) 0.0015(2) 0.25300(11)
H17 H 0.6090 -0.0083 0.2250
C24 C 0.8071(3) 0.0112(2) 0.23691(11)
C25 C 0.9064(3) 0.0249(2) 0.27687(13)
H18 H 0.9957 0.0326 0.2650
C26 C 0.8728(3) 0.0273(2) 0.33473(12)
H19 H 0.9404 0.0355 0.3626
C27 C 0.5676(3) 0.1820(2) 0.40836(12)
C28 C 0.6625(3) 0.2357(2) 0.37077(12)
C29 C 0.6397(3) 0.2525(2) 0.31243(12)
H20 H 0.5574 0.2349 0.2956
C30 C 0.7387(3) 0.2951(2) 0.27912(15)
H21 H 0.7247 0.3047 0.2392
C31 C 0.8569(4) 0.3237(2) 0.30360(15)
H22 H 0.9235 0.3533 0.2805
C32 C 0.8788(3) 0.3093(2) 0.36173(15)
H23 H 0.9597 0.3301 0.3786
C33 C 0.7822(3) 0.2644(2) 0.39542(14)
H24 H 0.7979 0.2533 0.4351
C34 C 0.5108(3) 0.3978(2) 0.47654(13)
C35 C 0.5256(3) 0.5003(3) 0.47476(12)
H25 H 0.4916 0.5371 0.4434
C36 C 0.5905(3) 0.5477(2) 0.51923(15)
H26 H 0.5988 0.6176 0.5185
C37 C 0.6439(3) 0.4951(2) 0.56500(12)
C38 C 0.6307(3) 0.3924(2) 0.56517(13)
H27 H 0.6680 0.3552 0.5957
C39 C 0.5636(3) 0.3437(2) 0.52135(13)
H28 H 0.5541 0.2739 0.5222
C40 C 0.7122(4) 0.5480(3) 0.61363(15)
H29 H 0.6751 0.6145 0.6176
H30 H 0.8070 0.5527 0.6055
H31 H 0.6987 0.5112 0.6494
H32 H 0.407(3) 0.197(2) 0.4471(15)
loop_
_geom_bond_atom_site_label_1
_geom_bond_atom_site_label_2
_geom_bond_site_symmetry_1
_geom_bond_site_symmetry_2
Br1 C24 1_555 1_555
S1 O3 1_555 1_555
O1 C1 1_555 1_555
O2 C14 1_555 1_555
O4 S1 1_555 1_555
N1 S1 1_555 1_555
C1 C2 1_555 1_555
C2 H1 1_555 1_555
C3 C2 1_555 1_555
H2 C3 1_555 1_555
C4 C3 1_555 1_555
H3 C4 1_555 1_555
C5 C1 1_555 1_555
C6 C2 1_555 1_555
H4 C6 1_555 1_555
C7 C6 1_555 1_555
C8 C3 1_555 1_555
C9 C8 1_555 1_555
H5 C9 1_555 1_555
C10 C9 1_555 1_555
H6 C10 1_555 1_555
C11 C10 1_555 1_555
H7 C11 1_555 1_555
C12 C7 1_555 1_555
H8 C12 1_555 1_555
C13 C6 1_555 1_555
H9 C13 1_555 1_555
H10 C13 1_555 1_555
C14 C13 1_555 1_555
C15 C14 1_555 1_555
C16 C15 1_555 1_555
H11 C16 1_555 1_555
C17 C16 1_555 1_555
H12 C17 1_555 1_555
C18 C17 1_555 1_555
H13 C18 1_555 1_555
C19 C18 1_555 1_555
H14 C19 1_555 1_555
C20 C15 1_555 1_555
H15 C20 1_555 1_555
C21 C4 1_555 1_555
C22 C21 1_555 1_555
H16 C22 1_555 1_555
C23 C22 1_555 1_555
H17 C23 1_555 1_555
C24 C23 1_555 1_555
C25 C24 1_555 1_555
H18 C25 1_555 1_555
C26 C21 1_555 1_555
H19 C26 1_555 1_555
C27 N1 1_555 1_555
C28 C27 1_555 1_555
C29 C28 1_555 1_555
H20 C29 1_555 1_555
C30 C29 1_555 1_555
H21 C30 1_555 1_555
C31 C30 1_555 1_555
H22 C31 1_555 1_555
C32 C31 1_555 1_555
H23 C32 1_555 1_555
C33 C28 1_555 1_555
H24 C33 1_555 1_555
C34 S1 1_555 1_555
C35 C34 1_555 1_555
H25 C35 1_555 1_555
C36 C35 1_555 1_555
H26 C36 1_555 1_555
C37 C36 1_555 1_555
C38 C37 1_555 1_555
H27 C38 1_555 1_555
C39 C34 1_555 1_555
H28 C39 1_555 1_555
C40 C37 1_555 1_555
H29 C40 1_555 1_555
H30 C40 1_555 1_555
H31 C40 1_555 1_555
H32 N1 1_555 1_555
C4 C5 1_555 1_555
C5 C27 1_555 1_555
C7 C8 1_555 1_555
C11 C12 1_555 1_555
C19 C20 1_555 1_555
C25 C26 1_555 1_555
C32 C33 1_555 1_555
C38 C39 1_555 1_555

#END
