
#######################################################################
#
#                 Cambridge Crystallographic Data Centre
#                                CCDC 
#
#######################################################################
#
# If this CIF has been generated from an entry in the Cambridge 
# Structural Database, then it will include bibliographic, chemical, 
# crystal, experimental, refinement or atomic coordinate data resulting 
# from the CCDC's data processing and validation procedures.
#
#######################################################################

data_POXTAZ
_chemical_formula_moiety         'C40 H32 Br1 N1 O4 S1,C4 H8 O2'
_chemical_name_systematic        
'N-(3-(4-bromophenyl)-3-(1-oxo-3-phenyl-1,4a,9,9a-tetrahydroindeno[2,1-c]pyran-9-yl)-1-phenylprop-1-en-1-yl)-4-methylbenzenesulfonamide ethyl acetate solvate'
_symmetry_cell_setting           triclinic
_symmetry_space_group_name_H-M   'P -1'
_symmetry_Int_Tables_number      2
_space_group_name_Hall           '-P 1'
loop_
_symmetry_equiv_pos_site_id
_symmetry_equiv_pos_as_xyz
1 x,y,z
2 -x,-y,-z
_cell_length_a                   13.0210(13)
_cell_length_b                   13.5047(14)
_cell_length_c                   22.336(2)
_cell_angle_alpha                95.904(9)
_cell_angle_beta                 103.415(6)
_cell_angle_gamma                92.267(4)
_cell_volume                     3792.06
_exptl_crystal_colour            colorless
_exptl_crystal_description       prism
_cell_formula_units_Z            4
loop_
_atom_site_label
_atom_site_type_symbol
_atom_site_fract_x
_atom_site_fract_y
_atom_site_fract_z
Br1 Br -0.42215(2) 0.13735(2) 0.79698(2)
S1 S 0.26318(4) 0.16692(3) 0.77169(2)
O1 O 0.30762(12) 0.26698(11) 0.78962(7)
O2 O 0.31920(11) 0.09671(11) 0.74000(7)
O3 O -0.06029(12) -0.14557(11) 0.97387(7)
O4 O -0.03682(13) -0.29305(10) 0.93011(7)
N1 N 0.25364(13) 0.11709(12) 0.83445(8)
H1 H 0.2381(19) 0.0527(19) 0.8263(11)
C1 C 0.07018(15) -0.04173(14) 0.91172(9)
H2 H 0.0460 -0.0170 0.9496
C2 C 0.18327(16) -0.07010(15) 0.93094(9)
C3 C 0.26830(17) -0.01612(17) 0.97298(10)
H3 H 0.2601 0.0485 0.9918
C4 C 0.36524(18) -0.05897(19) 0.98665(10)
H4 H 0.4236 -0.0232 1.0153
C5 C 0.37812(18) -0.15349(19) 0.95902(11)
H5 H 0.4451 -0.1813 0.9687
C6 C 0.29303(18) -0.20754(17) 0.91708(11)
H6 H 0.3014 -0.2721 0.8983
C7 C 0.19596(16) -0.16529(15) 0.90336(9)
C8 C 0.09259(16) -0.20709(14) 0.85946(9)
H7 H 0.0933 -0.1902 0.8170
C9 C 0.01073(15) -0.14395(14) 0.88373(9)
H8 H -0.0500 -0.1344 0.8485
C10 C -0.02950(16) -0.19176(14) 0.93306(9)
C11 C 0.00359(16) -0.35460(14) 0.88758(9)
C12 C 0.06680(17) -0.31695(15) 0.85543(10)
H9 H 0.0965 -0.3611 0.8291
C13 C -0.03097(17) -0.46050(15) 0.88771(10)
C14 C -0.0104(2) -0.53446(17) 0.84536(12)
H10 H 0.0254 -0.5173 0.8150
C15 C -0.0416(2) -0.63351(18) 0.84673(13)
H11 H -0.0274 -0.6832 0.8169
C16 C -0.0925(2) -0.66078(16) 0.89057(12)
H12 H -0.1138 -0.7287 0.8912
C17 C -0.1119(3) -0.5885(2) 0.93318(17)
H13 H -0.1458 -0.6064 0.9642
C18 C -0.0825(3) -0.48820(19) 0.93162(16)
H14 H -0.0982 -0.4386 0.9610
C19 C 0.05113(15) 0.03793(14) 0.86526(9)
H15 H 0.0714 0.0117 0.8264
C20 C 0.11871(16) 0.13188(14) 0.89371(9)
H16 H 0.0959 0.1704 0.9256
C21 C 0.20671(15) 0.16833(14) 0.87997(9)
C22 C -0.06541(15) 0.06247(13) 0.84946(9)
C23 C -0.10982(17) 0.09201(16) 0.79157(9)
H17 H -0.0674 0.0957 0.7624
C24 C -0.21583(17) 0.11649(17) 0.77522(10)
H18 H -0.2451 0.1368 0.7357
C25 C -0.27657(16) 0.11033(14) 0.81823(9)
C26 C -0.23471(17) 0.08354(15) 0.87648(10)
H19 H -0.2771 0.0817 0.9058
C27 C -0.12939(17) 0.05925(15) 0.89186(10)
H20 H -0.1005 0.0402 0.9318
C28 C 0.27070(17) 0.25623(15) 0.91814(9)
C29 C 0.38092(18) 0.25995(16) 0.93186(10)
H21 H 0.4155 0.2083 0.9138
C30 C 0.4410(2) 0.33820(18) 0.97159(12)
H22 H 0.5160 0.3394 0.9810
C31 C 0.3909(2) 0.4147(2) 0.99756(13)
H23 H 0.4315 0.4683 1.0248
C32 C 0.2826(2) 0.4125(2) 0.98367(15)
H24 H 0.2485 0.4648 1.0014
C33 C 0.2218(2) 0.33438(17) 0.94391(13)
H25 H 0.1468 0.3344 0.9343
C34 C 0.13410(16) 0.17183(14) 0.72498(9)
C35 C 0.08499(18) 0.26151(15) 0.72633(10)
H26 H 0.1198 0.3188 0.7525
C36 C -0.01545(18) 0.26586(16) 0.68893(11)
H27 H -0.0494 0.3268 0.6900
C37 C -0.06773(18) 0.18324(16) 0.64978(10)
C38 C -0.01651(17) 0.09395(16) 0.64973(10)
H28 H -0.0511 0.0367 0.6235
C39 C 0.08327(16) 0.08730(15) 0.68708(9)
H29 H 0.1166 0.0260 0.6869
C40 C -0.1758(2) 0.1901(2) 0.60848(12)
H30 H -0.1689 0.2005 0.5668
H31 H -0.2101 0.2461 0.6253
H32 H -0.2186 0.1280 0.6065
Br2 Br 0.92118(2) -0.16855(2) 0.69804(2)
S2 S 0.26012(4) -0.16007(3) 0.74001(2)
O5 O 0.21959(12) -0.08699(11) 0.77864(7)
O6 O 0.20294(12) -0.25460(10) 0.72025(7)
O7 O 0.57828(12) 0.13960(10) 0.52784(7)
O8 O 0.55846(13) 0.29038(10) 0.56773(7)
N2 N 0.26667(14) -0.10504(12) 0.67869(8)
H33 H 0.2851(19) -0.0421(19) 0.6888(11)
C41 C 0.44102(15) 0.04630(14) 0.59045(9)
H34 H 0.4612 0.0205 0.5515
C42 C 0.32844(16) 0.07806(16) 0.57435(9)
C43 C 0.23931(18) 0.02633(19) 0.53480(10)
H35 H 0.2441 -0.0384 0.5149
C44 C 0.1438(2) 0.0710(2) 0.52511(12)
H36 H 0.0827 0.0366 0.4981
C45 C 0.1358(2) 0.1657(2) 0.55447(13)
H37 H 0.0693 0.1945 0.5479
C46 C 0.22431(19) 0.2182(2) 0.59317(12)
H38 H 0.2194 0.2831 0.6127
C47 C 0.32074(17) 0.17344(16) 0.60272(10)
C48 C 0.42774(17) 0.21528(14) 0.64248(9)
H39 H 0.4312 0.2040 0.6864
C49 C 0.50506(15) 0.14738(14) 0.61749(9)
H40 H 0.5653 0.1360 0.6525
C50 C 0.54786(16) 0.19012(14) 0.56735(9)
C51 C 0.51405(17) 0.35676(15) 0.60592(10)
C52 C 0.45221(18) 0.32415(15) 0.64021(10)
H41 H 0.4221 0.3717 0.6644
C53 C 0.54358(18) 0.46098(15) 0.59915(10)
C54 C 0.6068(2) 0.48254(17) 0.55922(12)
H42 H 0.6337 0.4297 0.5372
C55 C 0.6312(2) 0.58137(19) 0.55123(14)
H43 H 0.6741 0.5951 0.5236
C56 C 0.5932(2) 0.65919(17) 0.58329(13)
H44 H 0.6105 0.7263 0.5782
C57 C 0.5298(2) 0.63845(17) 0.62281(13)
H45 H 0.5026 0.6917 0.6444
C58 C 0.5053(2) 0.54034(16) 0.63138(12)
H46 H 0.4625 0.5272 0.6592
C59 C 0.45918(15) -0.03457(14) 0.63624(9)
H47 H 0.4430 -0.0068 0.6760
C60 C 0.38450(16) -0.12425(14) 0.60893(9)
H48 H 0.3998 -0.1631 0.5745
C61 C 0.29901(16) -0.15619(14) 0.62710(9)
C62 C 0.57355(16) -0.06586(13) 0.64995(9)
C63 C 0.63747(17) -0.06316(15) 0.60776(10)
H49 H 0.6104 -0.0395 0.5689
C64 C 0.74025(17) -0.09445(15) 0.62143(10)
H50 H 0.7826 -0.0927 0.5921
C65 C 0.77979(16) -0.12814(15) 0.67844(10)
C66 C 0.71825(17) -0.13254(16) 0.72139(10)
H51 H 0.7455 -0.1566 0.7601
C67 C 0.61571(17) -0.10101(15) 0.70664(10)
H52 H 0.5734 -0.1035 0.7359
C68 C 0.22034(17) -0.23478(15) 0.58886(9)
C69 C 0.2514(2) -0.31363(17) 0.55328(11)
H53 H 0.3244 -0.3214 0.5557
C70 C 0.1751(2) -0.3814(2) 0.51393(13)
H54 H 0.1965 -0.4345 0.4892
C71 C 0.0688(2) -0.3719(2) 0.51064(13)
H55 H 0.0175 -0.4181 0.4836
C72 C 0.0372(2) -0.29541(19) 0.54646(12)
H56 H -0.0359 -0.2894 0.5447
C73 C 0.11219(18) -0.22717(17) 0.58512(10)
H57 H 0.0898 -0.1743 0.6095
C74 C 0.38952(17) -0.18222(15) 0.77913(9)
C75 C 0.43053(18) -0.27321(16) 0.76516(11)
H58 H 0.3899 -0.3216 0.7339
C76 C 0.5311(2) -0.29263(19) 0.79725(13)
H59 H 0.5589 -0.3548 0.7878
C77 C 0.5916(2) -0.2225(2) 0.84293(12)
C78 C 0.5499(2) -0.1311(2) 0.85527(11)
H60 H 0.5911 -0.0821 0.8859
C79 C 0.44933(18) -0.10995(17) 0.82371(10)
H61 H 0.4221 -0.0473 0.8325
C80 C 0.6998(2) -0.2442(3) 0.87874(15)
H62 H 0.7279 -0.2971 0.8549
H63 H 0.6947 -0.2658 0.9186
H64 H 0.7472 -0.1837 0.8860
O9 O 0.3401(2) -0.51114(16) 0.73076(13)
O10 O 0.1788(2) -0.48782(14) 0.74608(10)
C81 C 0.3147(3) -0.4958(2) 0.83416(17)
H65 H 0.3703 -0.4424 0.8507
H66 H 0.3416 -0.5598 0.8454
H67 H 0.2535 -0.4827 0.8517
C82 C 0.2821(3) -0.49973(19) 0.76533(18)
C83 C 0.1404(3) -0.4871(2) 0.67851(16)
H68 H 0.1432 -0.5541 0.6565
H69 H 0.1843 -0.4387 0.6632
C84 C 0.0265(3) -0.4570(2) 0.66805(17)
H70 H 0.0254 -0.3896 0.6887
H71 H -0.0151 -0.5039 0.6852
H72 H -0.0040 -0.4582 0.6235
O11 O 0.77031(18) -0.59686(19) 0.70761(10)
O12 O 0.69039(17) -0.50993(15) 0.77358(10)
C85 C 0.7860(3) -0.4156(3) 0.72131(17)
H73 H 0.8066 -0.4193 0.6817
H74 H 0.8468 -0.3898 0.7549
H75 H 0.7283 -0.3708 0.7204
C86 C 0.7497(2) -0.5170(2) 0.73185(14)
C87 C 0.6516(2) -0.6032(2) 0.78950(14)
H76 H 0.7113 -0.6445 0.8048
H77 H 0.6033 -0.6412 0.7528
C88 C 0.5932(4) -0.5766(3) 0.8398(2)
H78 H 0.5296 -0.5429 0.8225
H79 H 0.6395 -0.5322 0.8736
H80 H 0.5729 -0.6376 0.8556
loop_
_geom_bond_atom_site_label_1
_geom_bond_atom_site_label_2
_geom_bond_site_symmetry_1
_geom_bond_site_symmetry_2
Br1 C25 1_555 1_555
S1 O1 1_555 1_555
O2 S1 1_555 1_555
O3 C10 1_555 1_555
O4 C10 1_555 1_555
N1 S1 1_555 1_555
H1 N1 1_555 1_555
C1 H2 1_555 1_555
C2 C1 1_555 1_555
C3 C2 1_555 1_555
H3 C3 1_555 1_555
C4 C3 1_555 1_555
H4 C4 1_555 1_555
C5 C4 1_555 1_555
H5 C5 1_555 1_555
C6 C5 1_555 1_555
H6 C6 1_555 1_555
C7 C2 1_555 1_555
C8 C7 1_555 1_555
H7 C8 1_555 1_555
C9 C1 1_555 1_555
H8 C9 1_555 1_555
C10 C9 1_555 1_555
C11 O4 1_555 1_555
C12 C8 1_555 1_555
H9 C12 1_555 1_555
C13 C11 1_555 1_555
C14 C13 1_555 1_555
H10 C14 1_555 1_555
C15 C14 1_555 1_555
H11 C15 1_555 1_555
C16 C15 1_555 1_555
H12 C16 1_555 1_555
C17 C16 1_555 1_555
H13 C17 1_555 1_555
C18 C13 1_555 1_555
H14 C18 1_555 1_555
C19 C1 1_555 1_555
H15 C19 1_555 1_555
C20 C19 1_555 1_555
H16 C20 1_555 1_555
C21 N1 1_555 1_555
C22 C19 1_555 1_555
C23 C22 1_555 1_555
H17 C23 1_555 1_555
C24 C23 1_555 1_555
H18 C24 1_555 1_555
C25 C24 1_555 1_555
C26 C25 1_555 1_555
H19 C26 1_555 1_555
C27 C22 1_555 1_555
H20 C27 1_555 1_555
C28 C21 1_555 1_555
C29 C28 1_555 1_555
H21 C29 1_555 1_555
C30 C29 1_555 1_555
H22 C30 1_555 1_555
C31 C30 1_555 1_555
H23 C31 1_555 1_555
C32 C31 1_555 1_555
H24 C32 1_555 1_555
C33 C28 1_555 1_555
H25 C33 1_555 1_555
C34 S1 1_555 1_555
C35 C34 1_555 1_555
H26 C35 1_555 1_555
C36 C35 1_555 1_555
H27 C36 1_555 1_555
C37 C36 1_555 1_555
C38 C37 1_555 1_555
H28 C38 1_555 1_555
C39 C34 1_555 1_555
H29 C39 1_555 1_555
C40 C37 1_555 1_555
H30 C40 1_555 1_555
H31 C40 1_555 1_555
H32 C40 1_555 1_555
Br2 C65 1_555 1_555
S2 O5 1_555 1_555
O6 S2 1_555 1_555
O7 C50 1_555 1_555
O8 C50 1_555 1_555
N2 S2 1_555 1_555
H33 N2 1_555 1_555
C41 H34 1_555 1_555
C42 C41 1_555 1_555
C43 C42 1_555 1_555
H35 C43 1_555 1_555
C44 C43 1_555 1_555
H36 C44 1_555 1_555
C45 C44 1_555 1_555
H37 C45 1_555 1_555
C46 C45 1_555 1_555
H38 C46 1_555 1_555
C47 C42 1_555 1_555
C48 C47 1_555 1_555
H39 C48 1_555 1_555
C49 C41 1_555 1_555
H40 C49 1_555 1_555
C50 C49 1_555 1_555
C51 O8 1_555 1_555
C52 C48 1_555 1_555
H41 C52 1_555 1_555
C53 C51 1_555 1_555
C54 C53 1_555 1_555
H42 C54 1_555 1_555
C55 C54 1_555 1_555
H43 C55 1_555 1_555
C56 C55 1_555 1_555
H44 C56 1_555 1_555
C57 C56 1_555 1_555
H45 C57 1_555 1_555
C58 C53 1_555 1_555
H46 C58 1_555 1_555
C59 C41 1_555 1_555
H47 C59 1_555 1_555
C60 C59 1_555 1_555
H48 C60 1_555 1_555
C61 N2 1_555 1_555
C62 C59 1_555 1_555
C63 C62 1_555 1_555
H49 C63 1_555 1_555
C64 C63 1_555 1_555
H50 C64 1_555 1_555
C65 C64 1_555 1_555
C66 C65 1_555 1_555
H51 C66 1_555 1_555
C67 C62 1_555 1_555
H52 C67 1_555 1_555
C68 C61 1_555 1_555
C69 C68 1_555 1_555
H53 C69 1_555 1_555
C70 C69 1_555 1_555
H54 C70 1_555 1_555
C71 C70 1_555 1_555
H55 C71 1_555 1_555
C72 C71 1_555 1_555
H56 C72 1_555 1_555
C73 C68 1_555 1_555
H57 C73 1_555 1_555
C74 S2 1_555 1_555
C75 C74 1_555 1_555
H58 C75 1_555 1_555
C76 C75 1_555 1_555
H59 C76 1_555 1_555
C77 C76 1_555 1_555
C78 C77 1_555 1_555
H60 C78 1_555 1_555
C79 C74 1_555 1_555
H61 C79 1_555 1_555
C80 C77 1_555 1_555
H62 C80 1_555 1_555
H63 C80 1_555 1_555
H64 C80 1_555 1_555
O9 C82 1_555 1_555
O10 C82 1_555 1_555
C81 H65 1_555 1_555
H66 C81 1_555 1_555
H67 C81 1_555 1_555
C82 C81 1_555 1_555
C83 O10 1_555 1_555
H68 C83 1_555 1_555
H69 C83 1_555 1_555
C84 C83 1_555 1_555
H70 C84 1_555 1_555
H71 C84 1_555 1_555
H72 C84 1_555 1_555
O11 C86 1_555 1_555
O12 C86 1_555 1_555
C85 H73 1_555 1_555
H74 C85 1_555 1_555
H75 C85 1_555 1_555
C86 C85 1_555 1_555
C87 O12 1_555 1_555
H76 C87 1_555 1_555
H77 C87 1_555 1_555
C88 C87 1_555 1_555
H78 C88 1_555 1_555
H79 C88 1_555 1_555
H80 C88 1_555 1_555
C6 C7 1_555 1_555
C8 C9 1_555 1_555
C11 C12 1_555 1_555
C17 C18 1_555 1_555
C20 C21 1_555 1_555
C26 C27 1_555 1_555
C32 C33 1_555 1_555
C38 C39 1_555 1_555
C46 C47 1_555 1_555
C48 C49 1_555 1_555
C51 C52 1_555 1_555
C57 C58 1_555 1_555
C60 C61 1_555 1_555
C66 C67 1_555 1_555
C72 C73 1_555 1_555
C78 C79 1_555 1_555

#END
