
#######################################################################
#
#                 Cambridge Crystallographic Data Centre
#                                CCDC 
#
#######################################################################
#
# If this CIF has been generated from an entry in the Cambridge 
# Structural Database, then it will include bibliographic, chemical, 
# crystal, experimental, refinement or atomic coordinate data resulting 
# from the CCDC's data processing and validation procedures.
#
#######################################################################

data_POXVUV
_chemical_formula_moiety         'C13 H14 N2 O2'
_chemical_name_systematic        
2,5-dimethyl-3a,4,5,9b-tetrahydro-1H-pyrrolo[3,4-c]quinoline-1,3(2H)-dione
_symmetry_cell_setting           orthorhombic
_symmetry_space_group_name_H-M   'P 21 21 21'
_symmetry_Int_Tables_number      19
_space_group_name_Hall           'P 2ac 2ab'
loop_
_symmetry_equiv_pos_site_id
_symmetry_equiv_pos_as_xyz
1 x,y,z
2 1/2-x,-y,1/2+z
3 -x,1/2+y,1/2-z
4 1/2+x,1/2-y,-z
_cell_length_a                   7.9707(19)
_cell_length_b                   8.873(2)
_cell_length_c                   16.273(4)
_cell_angle_alpha                90
_cell_angle_beta                 90
_cell_angle_gamma                90
_cell_volume                     1150.89
_cell_formula_units_Z            4
loop_
_atom_site_label
_atom_site_type_symbol
_atom_site_fract_x
_atom_site_fract_y
_atom_site_fract_z
C1 C 0.4008(3) 0.2312(3) 0.80499(15)
C2 C 0.5010(3) 0.3168(3) 0.74054(13)
H1 H 0.4511 0.4166 0.7323
C3 C 0.6750(3) 0.3342(3) 0.77994(14)
H2 H 0.6925 0.4402 0.7946
C4 C 0.6675(3) 0.2416(3) 0.85736(15)
C5 C 0.4494(4) 0.1094(4) 0.94104(16)
H3 H 0.5054 0.0138 0.9436
H4 H 0.3304 0.0937 0.9381
H5 H 0.4757 0.1669 0.9893
C6 C 0.6335(3) 0.1378(2) 0.63933(14)
C7 C 0.4987(3) 0.2311(2) 0.66069(13)
C8 C 0.3587(3) 0.2376(3) 0.61066(14)
H6 H 0.2705 0.3012 0.6247
C9 C 0.3476(4) 0.1516(3) 0.54042(15)
H7 H 0.2537 0.1587 0.5067
C10 C 0.4766(3) 0.0552(3) 0.52052(15)
H8 H 0.4677 -0.0058 0.4743
C11 C 0.6188(3) 0.0485(3) 0.56858(14)
H9 H 0.7059 -0.0159 0.5539
C12 C 0.8163(3) 0.2831(3) 0.72533(14)
H10 H 0.8336 0.3562 0.6818
H11 H 0.9190 0.2762 0.7571
C13 C 0.9251(3) 0.0572(3) 0.65817(17)
H12 H 0.9586 0.1012 0.6068
H13 H 0.8987 -0.0473 0.6500
H14 H 1.0152 0.0660 0.6971
N1 N 0.5051(3) 0.1913(2) 0.86827(12)
N2 N 0.7774(2) 0.1361(2) 0.68950(11)
O1 O 0.2533(2) 0.1976(2) 0.80210(10)
O2 O 0.7816(2) 0.2127(2) 0.90369(11)
loop_
_geom_bond_atom_site_label_1
_geom_bond_atom_site_label_2
_geom_bond_site_symmetry_1
_geom_bond_site_symmetry_2
C1 C2 1_555 1_555
C2 H1 1_555 1_555
C3 C2 1_555 1_555
H2 C3 1_555 1_555
C4 C3 1_555 1_555
C5 H3 1_555 1_555
H4 C5 1_555 1_555
H5 C5 1_555 1_555
C6 C7 1_555 1_555
C7 C2 1_555 1_555
C8 C7 1_555 1_555
H6 C8 1_555 1_555
C9 C8 1_555 1_555
H7 C9 1_555 1_555
C10 C9 1_555 1_555
H8 C10 1_555 1_555
C11 C6 1_555 1_555
H9 C11 1_555 1_555
C12 C3 1_555 1_555
H10 C12 1_555 1_555
H11 C12 1_555 1_555
C13 H12 1_555 1_555
H13 C13 1_555 1_555
H14 C13 1_555 1_555
N1 C1 1_555 1_555
N2 C6 1_555 1_555
O1 C1 1_555 1_555
O2 C4 1_555 1_555
C4 N1 1_555 1_555
C5 N1 1_555 1_555
C10 C11 1_555 1_555
C12 N2 1_555 1_555
C13 N2 1_555 1_555

#END
