
#######################################################################
#
#                 Cambridge Crystallographic Data Centre
#                                CCDC 
#
#######################################################################
#
# If this CIF has been generated from an entry in the Cambridge 
# Structural Database, then it will include bibliographic, chemical, 
# crystal, experimental, refinement or atomic coordinate data resulting 
# from the CCDC's data processing and validation procedures.
#
#######################################################################

data_POXZEI
_chemical_compound_source        'Chukrasia tabularis var. velutina'
_chemical_name_common            'Chukvelutilide A methanol solvate'
_chemical_formula_moiety         'C42 H50 O20,0.25(C1 H4 O1)'
_chemical_name_systematic        
'Methyl (2,3,16-triacetoxy-4-(acetoxy(3-furyl)methyl)-19-(acetoxymethyl)-15-hydroxy-6-(1-hydroxypropylidene)-4,12,17-trimethyl-7-oxo-8,11,13,20-tetraoxaheptacyclo[10.7.1.1^14,17^.0^1,10^.0^5,10^.0^9,15^.0^14,19^]henicos-18-yl)acetate methanol solvate'
_symmetry_cell_setting           orthorhombic
_symmetry_space_group_name_H-M   'P 21 21 21'
_symmetry_Int_Tables_number      19
_space_group_name_Hall           'P 2ac 2ab'
loop_
_symmetry_equiv_pos_site_id
_symmetry_equiv_pos_as_xyz
1 x,y,z
2 1/2-x,-y,1/2+z
3 -x,1/2+y,1/2-z
4 1/2+x,1/2-y,-z
_cell_length_a                   10.8609(10)
_cell_length_b                   17.267(2)
_cell_length_c                   23.154(3)
_cell_angle_alpha                90
_cell_angle_beta                 90
_cell_angle_gamma                90
_cell_volume                     4342.19
_exptl_crystal_colour            colorless
_chemical_melting_point          308-310deg.C
_cell_formula_units_Z            4
_exptl_crystal_recrystallization_method methanol/water
loop_
_atom_site_label
_atom_site_type_symbol
_atom_site_fract_x
_atom_site_fract_y
_atom_site_fract_z
O1 O 0.4720(4) 0.0466(2) 0.71469(18)
O2 O 0.5190(4) 0.0741(2) 0.81036(17)
O3 O 0.5086(4) -0.0486(2) 0.78402(17)
O4 O 0.2903(4) -0.1525(2) 0.78674(17)
O5 O 0.3619(5) -0.2676(2) 0.80612(19)
O6 O 0.3375(4) -0.0851(2) 0.68666(17)
H1 H 0.4092 -0.0944 0.6953
O7 O 0.0663(4) -0.0603(2) 0.74847(18)
O8 O -0.0617(6) -0.0915(4) 0.6764(3)
O9 O -0.0950(4) 0.2151(3) 0.8091(2)
O10 O -0.0767(5) 0.0889(3) 0.8314(2)
O11 O 0.3385(4) 0.2204(2) 0.82777(19)
O12 O 0.4513(7) 0.3174(3) 0.7941(3)
O13 O 0.4973(4) 0.0660(2) 0.92260(18)
O14 O 0.5359(7) 0.1920(4) 0.9223(4)
O15 O 0.2668(4) 0.0532(2) 0.97930(17)
O16 O 0.1396(6) 0.1432(3) 0.9444(3)
O17 O -0.0679(6) -0.0225(3) 0.9925(3)
O18 O 0.2313(4) -0.1908(2) 0.93409(18)
O19 O 0.0675(6) -0.2275(3) 0.8808(3)
O20 O 0.5483(5) -0.2847(3) 0.8683(2)
H2 H 0.4925 -0.2974 0.8463
C1 C 0.5436(6) 0.0254(4) 0.7629(3)
C2 C 0.6767(6) 0.0273(4) 0.7454(3)
H4 H 0.6956 0.0769 0.7289
H5 H 0.6920 -0.0125 0.7173
H6 H 0.7276 0.0188 0.7787
C3 C 0.3434(6) 0.0485(3) 0.7263(3)
C4 C 0.3136(5) 0.0942(3) 0.7824(2)
C5 C 0.3972(6) 0.0535(3) 0.8293(2)
C6 C 0.4035(6) -0.0379(3) 0.8216(2)
C7 C 0.2929(6) -0.0686(3) 0.7907(2)
H7 H 0.2195 -0.0519 0.8120
C8 C 0.2847(6) -0.0356(3) 0.7289(2)
C9 C 0.1504(6) -0.0203(3) 0.7108(3)
H8 H 0.1377 -0.0373 0.6709
C10 C 0.1409(6) 0.0676(3) 0.7143(3)
C11 C 0.1672(6) 0.0896(3) 0.7801(3)
H9 H 0.1410 0.0460 0.8042
C12 C 0.3827(6) 0.0756(3) 0.8923(2)
H10 H 0.3560 0.1297 0.8951
C13 C 0.2882(6) 0.0237(3) 0.9213(3)
H11 H 0.2110 0.0270 0.8995
C14 C 0.3264(6) -0.0641(3) 0.9263(3)
C15 C 0.4238(6) -0.0807(3) 0.8783(2)
H12 H 0.5028 -0.0623 0.8935
C16 C 0.4429(6) -0.1649(3) 0.8623(3)
C17 C 0.3664(6) -0.1985(3) 0.8183(3)
C18 C 0.5351(7) -0.2094(4) 0.8828(3)
C19 C 0.6322(7) -0.1853(5) 0.9245(4)
H13 H 0.6278 -0.1295 0.9288
H14 H 0.6128 -0.2079 0.9617
C20 C 0.7597(9) -0.2059(7) 0.9100(5)
H15 H 0.7641 -0.2602 0.9011
H16 H 0.8121 -0.1948 0.9423
H17 H 0.7860 -0.1764 0.8771
C21 C 0.2603(6) 0.0854(4) 0.6813(3)
H18 H 0.2645 0.0597 0.6441
H19 H 0.2749 0.1405 0.6768
C22 C -0.0344(7) -0.0946(4) 0.7257(4)
C23 C -0.1057(8) -0.1330(4) 0.7725(4)
H20 H -0.1783 -0.1563 0.7565
H21 H -0.1289 -0.0953 0.8009
H22 H -0.0558 -0.1723 0.7903
C24 C 0.0231(6) 0.0998(4) 0.6875(3)
H23 H 0.0205 0.0867 0.6472
H24 H 0.0218 0.1551 0.6918
H25 H -0.0470 0.0778 0.7067
C25 C -0.0323(6) 0.1492(4) 0.8147(3)
C26 C 0.1013(6) 0.1623(3) 0.8017(3)
H26 H 0.1421 0.1805 0.8364
H27 H 0.1084 0.2026 0.7727
C27 C -0.2226(7) 0.2159(5) 0.8273(4)
H28 H -0.2579 0.1655 0.8214
H29 H -0.2672 0.2535 0.8051
H30 H -0.2271 0.2290 0.8675
C28 C 0.3582(7) 0.1781(3) 0.7750(3)
H31 H 0.4451 0.1784 0.7653
H32 H 0.3135 0.2026 0.7437
C29 C 0.3872(7) 0.2918(4) 0.8318(3)
C30 C 0.3502(8) 0.3309(4) 0.8859(4)
H33 H 0.3943 0.3788 0.8896
H34 H 0.3690 0.2981 0.9182
H35 H 0.2634 0.3411 0.8851
C31 C 0.5652(8) 0.1281(5) 0.9356(4)
C32 C 0.6809(9) 0.1054(6) 0.9652(5)
H36 H 0.7251 0.1511 0.9766
H37 H 0.7308 0.0753 0.9394
H38 H 0.6616 0.0752 0.9988
C33 C 0.1877(7) 0.1138(4) 0.9850(3)
C34 C 0.1785(11) 0.1378(5) 1.0469(3)
H39 H 0.2597 0.1427 1.0629
H40 H 0.1333 0.0994 1.0681
H41 H 0.1367 0.1867 1.0495
C35 C 0.3858(6) -0.0814(4) 0.9847(3)
H42 H 0.4579 -0.0498 0.9894
H43 H 0.4086 -0.1351 0.9864
H44 H 0.3283 -0.0701 1.0151
C36 C 0.2016(6) -0.1099(3) 0.9212(3)
H45 H 0.1724 -0.1066 0.8812
C37 C 0.0038(7) -0.0383(4) 0.9447(4)
H46 H -0.0122 -0.0210 0.9074
C38 C 0.1015(7) -0.0833(4) 0.9602(3)
C39 C 0.0847(8) -0.0972(4) 1.0207(3)
H47 H 0.1355 -0.1264 1.0446
C40 C -0.0177(9) -0.0604(5) 1.0362(4)
H48 H -0.0501 -0.0612 1.0734
C41 C 0.1543(8) -0.2448(4) 0.9092(3)
C42 C 0.2005(8) -0.3249(4) 0.9209(3)
H49 H 0.1377 -0.3542 0.9402
H50 H 0.2724 -0.3222 0.9449
H51 H 0.2211 -0.3497 0.8851
O21 O 0.927(2) 0.2495(16) 0.9579(10)
H3 H 0.9654 0.2090 0.9537
C43 C 0.995(3) 0.3114(18) 0.9336(13)
H52 H 1.0152 0.3480 0.9633
H53 H 0.9463 0.3365 0.9045
H54 H 1.0692 0.2918 0.9166
loop_
_geom_bond_atom_site_label_1
_geom_bond_atom_site_label_2
_geom_bond_site_symmetry_1
_geom_bond_site_symmetry_2
O1 C1 1_555 1_555
O2 C1 1_555 1_555
O3 C1 1_555 1_555
O4 C7 1_555 1_555
O5 C17 1_555 1_555
O6 H1 1_555 1_555
O7 C9 1_555 1_555
O8 C22 1_555 1_555
O9 C25 1_555 1_555
O10 C25 1_555 1_555
O11 C28 1_555 1_555
O12 C29 1_555 1_555
O13 C12 1_555 1_555
O14 C31 1_555 1_555
O15 C13 1_555 1_555
O16 C33 1_555 1_555
O17 C37 1_555 1_555
O18 C36 1_555 1_555
O19 C41 1_555 1_555
O20 H2 1_555 1_555
O21 H3 1_555 1_555
C1 C2 1_555 1_555
C2 H4 1_555 1_555
H5 C2 1_555 1_555
H6 C2 1_555 1_555
C3 O1 1_555 1_555
C4 C3 1_555 1_555
C5 O2 1_555 1_555
C6 O3 1_555 1_555
C7 C6 1_555 1_555
H7 C7 1_555 1_555
C8 O6 1_555 1_555
C9 C8 1_555 1_555
H8 C9 1_555 1_555
C10 C9 1_555 1_555
C11 C4 1_555 1_555
H9 C11 1_555 1_555
C12 C5 1_555 1_555
H10 C12 1_555 1_555
C13 C12 1_555 1_555
H11 C13 1_555 1_555
C14 C13 1_555 1_555
C15 C6 1_555 1_555
H12 C15 1_555 1_555
C16 C15 1_555 1_555
C17 O4 1_555 1_555
C18 O20 1_555 1_555
C19 C18 1_555 1_555
H13 C19 1_555 1_555
H14 C19 1_555 1_555
C20 C19 1_555 1_555
H15 C20 1_555 1_555
H16 C20 1_555 1_555
H17 C20 1_555 1_555
C21 C3 1_555 1_555
H18 C21 1_555 1_555
H19 C21 1_555 1_555
C22 O7 1_555 1_555
C23 C22 1_555 1_555
H20 C23 1_555 1_555
H21 C23 1_555 1_555
H22 C23 1_555 1_555
C24 C10 1_555 1_555
H23 C24 1_555 1_555
H24 C24 1_555 1_555
H25 C24 1_555 1_555
C25 C26 1_555 1_555
C26 C11 1_555 1_555
H26 C26 1_555 1_555
H27 C26 1_555 1_555
C27 O9 1_555 1_555
H28 C27 1_555 1_555
H29 C27 1_555 1_555
H30 C27 1_555 1_555
C28 C4 1_555 1_555
H31 C28 1_555 1_555
H32 C28 1_555 1_555
C29 O11 1_555 1_555
C30 C29 1_555 1_555
H33 C30 1_555 1_555
H34 C30 1_555 1_555
H35 C30 1_555 1_555
C31 O13 1_555 1_555
C32 C31 1_555 1_555
H36 C32 1_555 1_555
H37 C32 1_555 1_555
H38 C32 1_555 1_555
C33 O15 1_555 1_555
C34 C33 1_555 1_555
H39 C34 1_555 1_555
H40 C34 1_555 1_555
H41 C34 1_555 1_555
C35 C14 1_555 1_555
H42 C35 1_555 1_555
H43 C35 1_555 1_555
H44 C35 1_555 1_555
C36 C14 1_555 1_555
H45 C36 1_555 1_555
C37 H46 1_555 1_555
C38 C36 1_555 1_555
C39 C38 1_555 1_555
H47 C39 1_555 1_555
C40 O17 1_555 1_555
H48 C40 1_555 1_555
C41 O18 1_555 1_555
C42 C41 1_555 1_555
H49 C42 1_555 1_555
H50 C42 1_555 1_555
H51 C42 1_555 1_555
C43 O21 1_555 1_555
H52 C43 1_555 1_555
H53 C43 1_555 1_555
H54 C43 1_555 1_555
C3 C8 1_555 1_555
C4 C5 1_555 1_555
C5 C6 1_555 1_555
C7 C8 1_555 1_555
C10 C11 1_555 1_555
C10 C21 1_555 1_555
C14 C15 1_555 1_555
C16 C17 1_555 1_555
C16 C18 1_555 1_555
C37 C38 1_555 1_555
C39 C40 1_555 1_555

#END
