
#######################################################################
#
#                 Cambridge Crystallographic Data Centre
#                                CCDC 
#
#######################################################################
#
# If this CIF has been generated from an entry in the Cambridge 
# Structural Database, then it will include bibliographic, chemical, 
# crystal, experimental, refinement or atomic coordinate data resulting 
# from the CCDC's data processing and validation procedures.
#
#######################################################################

data_POXZEJ
_chemical_formula_moiety         'C13 H10 N4 O1'
_chemical_name_systematic        
4-oxo-1-(pyrimidin-2-yl)-4,5,6,7-tetrahydro-1H-indole-2-carbonitrile
_symmetry_cell_setting           triclinic
_symmetry_space_group_name_H-M   'P -1'
_symmetry_Int_Tables_number      2
_space_group_name_Hall           '-P 1'
loop_
_symmetry_equiv_pos_site_id
_symmetry_equiv_pos_as_xyz
1 x,y,z
2 -x,-y,-z
_cell_length_a                   6.9373(6)
_cell_length_b                   8.2261(7)
_cell_length_c                   9.7516(8)
_cell_angle_alpha                85.814(4)
_cell_angle_beta                 78.171(4)
_cell_angle_gamma                89.197(4)
_cell_volume                     543.223
_exptl_crystal_colour            white
_exptl_crystal_description       Platy
_cell_formula_units_Z            2
loop_
_atom_site_label
_atom_site_type_symbol
_atom_site_fract_x
_atom_site_fract_y
_atom_site_fract_z
O1 O -0.18932(13) 0.17850(11) 0.88551(8)
N1 N 0.04188(12) 0.27265(10) 0.41153(8)
N2 N 0.29857(13) 0.17500(11) 0.24420(9)
N3 N 0.11047(13) 0.40795(11) 0.18993(9)
N4 N -0.37223(15) 0.45958(13) 0.29107(10)
C1 C 0.12497(15) 0.05639(13) 0.79979(10)
H1 H 0.0995 -0.0584 0.7846
H2 H 0.1482 0.0597 0.8964
C2 C -0.05482(15) 0.15815(12) 0.78591(10)
C3 C -0.05793(14) 0.22479(12) 0.64330(10)
C4 C 0.09505(14) 0.20242(11) 0.53073(10)
C5 C 0.28530(14) 0.12092(12) 0.54191(10)
H3 H 0.3961 0.1817 0.4801
H4 H 0.2859 0.0086 0.5117
C6 C 0.30951(15) 0.11656(13) 0.69487(10)
H5 H 0.4212 0.0442 0.7064
H6 H 0.3421 0.2275 0.7163
C7 C -0.20970(14) 0.31247(12) 0.59321(10)
H7 H -0.3317 0.3453 0.6477
C8 C -0.14660(14) 0.34080(12) 0.45105(10)
C9 C 0.15850(14) 0.28616(12) 0.27296(10)
C10 C 0.22104(16) 0.42015(14) 0.05959(11)
H8 H 0.1922 0.5039 -0.0056
C11 C 0.37539(16) 0.31535(14) 0.01659(10)
H9 H 0.4547 0.3267 -0.0754
C12 C 0.40853(16) 0.19333(14) 0.11390(11)
H10 H 0.5136 0.1193 0.0875
C13 C -0.26122(15) 0.40897(12) 0.35595(11)
loop_
_geom_bond_atom_site_label_1
_geom_bond_atom_site_label_2
_geom_bond_site_symmetry_1
_geom_bond_site_symmetry_2
O1 C2 1_555 1_555
N1 C4 1_555 1_555
N2 C9 1_555 1_555
N3 C9 1_555 1_555
N4 C13 1_555 1_555
C1 H1 1_555 1_555
H2 C1 1_555 1_555
C2 C1 1_555 1_555
C3 C2 1_555 1_555
C4 C3 1_555 1_555
C5 C4 1_555 1_555
H3 C5 1_555 1_555
H4 C5 1_555 1_555
C6 C1 1_555 1_555
H5 C6 1_555 1_555
H6 C6 1_555 1_555
C7 C3 1_555 1_555
H7 C7 1_555 1_555
C8 N1 1_555 1_555
C9 N1 1_555 1_555
C10 N3 1_555 1_555
H8 C10 1_555 1_555
C11 C10 1_555 1_555
H9 C11 1_555 1_555
C12 N2 1_555 1_555
H10 C12 1_555 1_555
C13 C8 1_555 1_555
C5 C6 1_555 1_555
C7 C8 1_555 1_555
C11 C12 1_555 1_555

#END
