
#######################################################################
#
#                 Cambridge Crystallographic Data Centre
#                                CCDC 
#
#######################################################################
#
# If this CIF has been generated from an entry in the Cambridge 
# Structural Database, then it will include bibliographic, chemical, 
# crystal, experimental, refinement or atomic coordinate data resulting 
# from the CCDC's data processing and validation procedures.
#
#######################################################################

data_POYBUC
_chemical_formula_moiety         'C14 H11 N5'
_chemical_name_systematic        2-(9-ethyl-9H-purin-6-yl)benzonitrile
_symmetry_cell_setting           triclinic
_symmetry_space_group_name_H-M   'P -1'
_symmetry_Int_Tables_number      2
_space_group_name_Hall           '-P 1'
loop_
_symmetry_equiv_pos_site_id
_symmetry_equiv_pos_as_xyz
1 x,y,z
2 -x,-y,-z
_cell_length_a                   7.9667(3)
_cell_length_b                   8.6666(4)
_cell_length_c                   9.6847(4)
_cell_angle_alpha                109.198(2)
_cell_angle_beta                 107.554(2)
_cell_angle_gamma                92.006(2)
_cell_volume                     595.357
_exptl_crystal_colour            white
_exptl_crystal_description       Platy
_cell_formula_units_Z            2
loop_
_atom_site_label
_atom_site_type_symbol
_atom_site_fract_x
_atom_site_fract_y
_atom_site_fract_z
N1 N 0.54011(12) 0.62874(11) 0.91417(10)
N2 N 0.70344(12) 0.46205(11) 0.76303(10)
N3 N 0.21448(12) 0.35631(12) 0.56553(11)
N4 N 0.22143(12) 0.55654(11) 0.78700(10)
N5 N 0.95760(14) 0.17332(14) 0.78784(12)
C1 C 0.57188(13) 0.23946(12) 0.51523(11)
C2 C 0.39475(13) 0.54288(13) 0.79728(11)
C3 C 0.38967(13) 0.41748(12) 0.65977(11)
C4 C 0.71093(14) 0.14367(13) 0.53228(12)
C5 C 0.84485(14) 0.16731(14) 0.67912(13)
C6 C 0.68810(14) 0.58156(13) 0.88669(12)
H1 H 0.7969 0.6402 0.9648
C7 C 0.55385(13) 0.37575(12) 0.64761(11)
C8 C 0.12228(14) 0.44295(14) 0.64669(13)
H2 H -0.0042 0.4277 0.6104
C9 C 0.72120(16) 0.01368(14) 0.40495(13)
H3 H 0.8153 -0.0502 0.4178
C10 C 0.44670(15) 0.20016(14) 0.36827(12)
H4 H 0.3515 0.2627 0.3540
C11 C 0.15396(15) 0.66781(15) 0.90131(13)
H5 H 0.2522 0.7165 1.0014
H6 H 0.0610 0.6037 0.9175
C12 C 0.45842(17) 0.07148(15) 0.24247(13)
H7 H 0.3720 0.0475 0.1431
C13 C 0.59505(17) -0.02245(15) 0.26037(13)
H8 H 0.6020 -0.1111 0.1739
C14 C 0.07694(18) 0.80464(16) 0.85145(15)
H9 H 0.0333 0.8760 0.9310
H10 H -0.0219 0.7571 0.7534
H11 H 0.1692 0.8699 0.8375
loop_
_geom_bond_atom_site_label_1
_geom_bond_atom_site_label_2
_geom_bond_site_symmetry_1
_geom_bond_site_symmetry_2
N1 C2 1_555 1_555
N2 C6 1_555 1_555
N3 C3 1_555 1_555
N4 C2 1_555 1_555
N5 C5 1_555 1_555
C1 C4 1_555 1_555
C2 C3 1_555 1_555
C3 C7 1_555 1_555
C4 C5 1_555 1_555
C6 N1 1_555 1_555
H1 C6 1_555 1_555
C7 N2 1_555 1_555
C8 N3 1_555 1_555
H2 C8 1_555 1_555
C9 C4 1_555 1_555
H3 C9 1_555 1_555
C10 C1 1_555 1_555
H4 C10 1_555 1_555
C11 N4 1_555 1_555
H5 C11 1_555 1_555
H6 C11 1_555 1_555
C12 C10 1_555 1_555
H7 C12 1_555 1_555
C13 C9 1_555 1_555
H8 C13 1_555 1_555
C14 C11 1_555 1_555
H9 C14 1_555 1_555
H10 C14 1_555 1_555
H11 C14 1_555 1_555
N4 C8 1_555 1_555
C1 C7 1_555 1_555
C12 C13 1_555 1_555

#END
