
#######################################################################
#
#                 Cambridge Crystallographic Data Centre
#                                CCDC 
#
#######################################################################
#
# If this CIF has been generated from an entry in the Cambridge 
# Structural Database, then it will include bibliographic, chemical, 
# crystal, experimental, refinement or atomic coordinate data resulting 
# from the CCDC's data processing and validation procedures.
#
#######################################################################

data_POYCOX
_chemical_formula_moiety         'C21 H20 N2 O1'
_chemical_name_systematic        1-(3,5-dimethylphenyl)-1,3-diphenylurea
_symmetry_cell_setting           orthorhombic
_symmetry_space_group_name_H-M   'P b c a'
_symmetry_Int_Tables_number      61
_space_group_name_Hall           '-P 2ac 2ab'
loop_
_symmetry_equiv_pos_site_id
_symmetry_equiv_pos_as_xyz
1 x,y,z
2 1/2-x,-y,1/2+z
3 1/2+x,1/2-y,-z
4 -x,1/2+y,1/2-z
5 -x,-y,-z
6 1/2+x,y,1/2-z
7 1/2-x,1/2+y,z
8 x,1/2-y,1/2+z
_cell_length_a                   10.1979(3)
_cell_length_b                   15.8821(4)
_cell_length_c                   21.6227(8)
_cell_angle_alpha                90
_cell_angle_beta                 90
_cell_angle_gamma                90
_cell_volume                     3502.1
_cell_formula_units_Z            8
loop_
_atom_site_label
_atom_site_type_symbol
_atom_site_fract_x
_atom_site_fract_y
_atom_site_fract_z
O1 O 0.74534(12) 0.49987(10) 0.21628(6)
N1 N 0.52858(15) 0.52406(12) 0.23410(7)
N2 N 0.65332(14) 0.44702(11) 0.30413(7)
C1 C 0.39279(19) 0.62178(14) 0.17916(10)
H1 H 0.3479 0.6319 0.2158
C2 C 0.3544(2) 0.66166(17) 0.12534(12)
H2 H 0.2838 0.6987 0.1259
C3 C 0.4200(2) 0.64678(19) 0.07090(12)
H3 H 0.3942 0.6738 0.0347
C4 C 0.5239(2) 0.59178(18) 0.07022(11)
H4 H 0.5677 0.5812 0.0333
C5 C 0.5639(2) 0.55202(16) 0.12360(9)
H5 H 0.6351 0.5154 0.1227
C6 C 0.49846(16) 0.56649(13) 0.17859(8)
C7 C 0.64866(17) 0.49130(13) 0.24867(8)
C8 C 0.76015(17) 0.39019(13) 0.31438(9)
C9 C 0.7970(2) 0.33343(15) 0.26959(10)
H6 H 0.7526 0.3321 0.2320
C10 C 0.8998(3) 0.27813(17) 0.28015(13)
H7 H 0.9246 0.2401 0.2497
C11 C 0.9648(2) 0.27972(18) 0.33579(13)
H8 H 1.0346 0.2433 0.3428
C12 C 0.9267(2) 0.33487(18) 0.38070(13)
H9 H 0.9697 0.3350 0.4186
C13 C 0.82478(19) 0.39055(16) 0.37045(10)
H10 H 0.7999 0.4281 0.4013
C14 C 0.55282(16) 0.45227(13) 0.35071(8)
C15 C 0.48431(17) 0.38082(14) 0.36661(9)
H11 H 0.5031 0.3301 0.3471
C16 C 0.38774(18) 0.38400(14) 0.41146(10)
C17 C 0.36218(18) 0.46015(14) 0.43977(9)
H12 H 0.2974 0.4627 0.4700
C18 C 0.42971(18) 0.53283(13) 0.42467(8)
C19 C 0.52710(18) 0.52796(13) 0.37966(9)
H13 H 0.5748 0.5757 0.3691
C20 C 0.3106(2) 0.30582(18) 0.42792(15)
H14 H 0.3288 0.2623 0.3983
H15 H 0.2186 0.3185 0.4275
H16 H 0.3354 0.2870 0.4684
C21 C 0.3990(2) 0.61545(16) 0.45559(11)
H17 H 0.4740 0.6518 0.4532
H18 H 0.3773 0.6057 0.4982
H19 H 0.3260 0.6416 0.4351
H20 H 0.4695(19) 0.5117(12) 0.2575(9)
loop_
_geom_bond_atom_site_label_1
_geom_bond_atom_site_label_2
_geom_bond_site_symmetry_1
_geom_bond_site_symmetry_2
O1 C7 1_555 1_555
N1 C6 1_555 1_555
N2 C7 1_555 1_555
C1 H1 1_555 1_555
C2 C1 1_555 1_555
H2 C2 1_555 1_555
C3 C2 1_555 1_555
H3 C3 1_555 1_555
C4 C3 1_555 1_555
H4 C4 1_555 1_555
C5 C4 1_555 1_555
H5 C5 1_555 1_555
C6 C1 1_555 1_555
C7 N1 1_555 1_555
C8 N2 1_555 1_555
C9 C8 1_555 1_555
H6 C9 1_555 1_555
C10 C9 1_555 1_555
H7 C10 1_555 1_555
C11 C10 1_555 1_555
H8 C11 1_555 1_555
C12 C11 1_555 1_555
H9 C12 1_555 1_555
C13 C8 1_555 1_555
H10 C13 1_555 1_555
C14 N2 1_555 1_555
C15 C14 1_555 1_555
H11 C15 1_555 1_555
C16 C15 1_555 1_555
C17 C16 1_555 1_555
H12 C17 1_555 1_555
C18 C17 1_555 1_555
C19 C14 1_555 1_555
H13 C19 1_555 1_555
C20 C16 1_555 1_555
H14 C20 1_555 1_555
H15 C20 1_555 1_555
H16 C20 1_555 1_555
C21 C18 1_555 1_555
H17 C21 1_555 1_555
H18 C21 1_555 1_555
H19 C21 1_555 1_555
H20 N1 1_555 1_555
C5 C6 1_555 1_555
C12 C13 1_555 1_555
C18 C19 1_555 1_555

#END
