
#######################################################################
#
#                 Cambridge Crystallographic Data Centre
#                                CCDC 
#
#######################################################################
#
# If this CIF has been generated from an entry in the Cambridge 
# Structural Database, then it will include bibliographic, chemical, 
# crystal, experimental, refinement or atomic coordinate data resulting 
# from the CCDC's data processing and validation procedures.
#
#######################################################################

data_POYCOW
_chemical_formula_moiety         'C60 H60 F6 O6'
_chemical_name_systematic        
1,2,7,8,13,14-Hexabutoxy-4,5,10,11,16,17-hexafluorotribenzo(a,g,m)coronene
_symmetry_cell_setting           monoclinic
_symmetry_space_group_name_H-M   'P 21/c'
_symmetry_Int_Tables_number      14
_space_group_name_Hall           '-P 2ybc'
loop_
_symmetry_equiv_pos_site_id
_symmetry_equiv_pos_as_xyz
1 x,y,z
2 -x,1/2+y,1/2-z
3 -x,-y,-z
4 x,1/2-y,1/2+z
_cell_length_a                   13.5976(19)
_cell_length_b                   12.0988(16)
_cell_length_c                   29.798(4)
_cell_angle_alpha                90
_cell_angle_beta                 95.010(3)
_cell_angle_gamma                90
_cell_volume                     4883.48
_exptl_crystal_colour            yellow
_exptl_crystal_description       block
_chemical_melting_point          231-232deg.C
_cell_formula_units_Z            4
_exptl_crystal_recrystallization_method acetone
loop_
_atom_site_label
_atom_site_type_symbol
_atom_site_fract_x
_atom_site_fract_y
_atom_site_fract_z
F1 F 0.41591(9) 1.19230(9) 0.61539(4)
F2 F 0.58250(10) 1.09545(10) 0.65341(4)
F3 F 0.85881(9) 0.29250(10) 0.50203(5)
F4 F 0.78081(11) 0.23224(10) 0.41906(5)
F5 F 0.07533(10) 0.56372(12) 0.28125(5)
F6 F -0.02508(9) 0.71287(12) 0.32671(5)
O1 O 0.67308(10) 0.76078(12) 0.60823(5)
O2 O 0.73874(10) 0.58499(11) 0.57322(5)
O3 O 0.57468(12) 0.46841(12) 0.34024(5)
O4 O 0.41825(11) 0.57311(12) 0.30340(5)
O5 O 0.14432(10) 0.93667(12) 0.42959(5)
O6 O 0.23876(10) 1.03448(11) 0.49804(5)
C1 C 0.44817(16) 1.09728(16) 0.59743(7)
C2 C 0.53203(16) 1.04727(17) 0.61723(7)
C3 C 0.56442(16) 0.95037(17) 0.60085(7)
H1 H 0.6232 0.9178 0.6145
C4 C 0.51208(15) 0.89701(16) 0.56380(7)
C5 C 0.54645(15) 0.79229(16) 0.54600(7)
C6 C 0.62484(15) 0.73062(16) 0.56730(7)
C7 C 0.66244(15) 0.63706(16) 0.54790(7)
C8 C 0.62444(15) 0.59798(16) 0.50524(7)
C9 C 0.66652(15) 0.50277(16) 0.48287(7)
C10 C 0.74318(16) 0.43712(16) 0.50393(8)
H2 H 0.7679 0.4532 0.5340
C11 C 0.78231(16) 0.35095(17) 0.48183(8)
C12 C 0.74315(17) 0.32108(17) 0.43923(8)
C13 C 0.66791(16) 0.38037(17) 0.41800(8)
H3 H 0.6404 0.3578 0.3890
C14 C 0.62985(15) 0.47509(16) 0.43825(7)
C15 C 0.55128(15) 0.54137(16) 0.41522(7)
C16 C 0.52259(15) 0.53220(16) 0.36844(7)
C17 C 0.43864(16) 0.58359(17) 0.34940(7)
C18 C 0.37524(15) 0.64096(16) 0.37624(7)
C19 C 0.27294(16) 0.66619(17) 0.36118(7)
C20 C 0.22252(17) 0.60638(18) 0.32549(7)
H4 H 0.2573 0.5542 0.3090
C21 C 0.12445(17) 0.62325(19) 0.31462(8)
C22 C 0.07266(16) 0.69829(19) 0.33853(8)
C23 C 0.11802(16) 0.75527(18) 0.37402(7)
H5 H 0.0808 0.8046 0.3907
C24 C 0.21990(15) 0.74131(17) 0.38616(7)
C25 C 0.27202(15) 0.79773(17) 0.42497(7)
C26 C 0.23402(15) 0.89085(17) 0.44555(7)
C27 C 0.28250(15) 0.93971(16) 0.48311(7)
C28 C 0.37273(14) 0.89801(16) 0.50358(7)
C29 C 0.42678(14) 0.94897(16) 0.54307(7)
C30 C 0.39723(15) 1.05150(16) 0.56065(7)
H6 H 0.3412 1.0887 0.5466
C31 C 0.50089(15) 0.74991(16) 0.50463(7)
C32 C 0.54175(14) 0.65500(16) 0.48406(7)
C33 C 0.50191(15) 0.62146(16) 0.43975(7)
C34 C 0.41353(15) 0.67101(16) 0.42005(7)
C35 C 0.36457(15) 0.75649(16) 0.44353(7)
C36 C 0.41257(14) 0.80244(16) 0.48390(7)
C37 C 0.63493(16) 0.70963(18) 0.64697(7)
H7 H 0.6216 0.6303 0.6410
H8 H 0.5725 0.7458 0.6537
C38 C 0.71163(17) 0.72275(19) 0.68619(7)
H9 H 0.7343 0.8005 0.6875
H10 H 0.7692 0.6757 0.6811
C39 C 0.67470(18) 0.6921(2) 0.73133(8)
H11 H 0.6427 0.6186 0.7288
H12 H 0.6243 0.7465 0.7389
C40 C 0.7573(2) 0.6892(2) 0.76929(9)
H13 H 0.8056 0.6326 0.7628
H14 H 0.7296 0.6715 0.7977
H15 H 0.7898 0.7615 0.7718
C41 C 0.83477(15) 0.63099(18) 0.56719(8)
H16 H 0.8359 0.7109 0.5744
H17 H 0.8504 0.6217 0.5356
C42 C 0.90889(15) 0.5700(2) 0.59851(9)
H18 H 0.9041 0.4924 0.5919
H19 H 0.8923 0.5805 0.6289
C43 C 1.0155(3) 0.6062(4) 0.59530(15)
H20 H 1.0378 0.5801 0.5664
H21 H 1.0187 0.6880 0.5955
C44 C 1.0848(2) 0.5614(3) 0.63392(13)
H22 H 1.0660 0.5915 0.6625
H23 H 1.1527 0.5833 0.6296
H24 H 1.0802 0.4806 0.6345
C45 C 0.64908(19) 0.5243(2) 0.31871(9)
H25 H 0.7023 0.5493 0.3412
H26 H 0.6211 0.5897 0.3022
C46 C 0.6895(2) 0.4421(2) 0.28613(10)
H27 H 0.7167 0.3775 0.3034
H28 H 0.6344 0.4157 0.2649
C47 C 0.7681(2) 0.4893(2) 0.25970(9)
H29 H 0.8210 0.5210 0.2808
H30 H 0.7396 0.5499 0.2404
C48 C 0.8122(2) 0.4043(2) 0.23056(9)
H31 H 0.8366 0.3417 0.2492
H32 H 0.8670 0.4374 0.2160
H33 H 0.7617 0.3785 0.2075
C49 C 0.42490(18) 0.67674(19) 0.27931(7)
H34 H 0.4883 0.7139 0.2885
H35 H 0.3703 0.7266 0.2860
C50 C 0.41805(17) 0.6496(2) 0.22966(8)
H36 H 0.4667 0.5912 0.2245
H37 H 0.4360 0.7161 0.2128
C51 C 0.31628(18) 0.6109(2) 0.21105(8)
H38 H 0.2940 0.5512 0.2305
H39 H 0.2692 0.6731 0.2120
C52 C 0.3145(2) 0.5688(3) 0.16313(9)
H40 H 0.3411 0.6255 0.1441
H41 H 0.2463 0.5518 0.1518
H42 H 0.3548 0.5017 0.1625
C53 C 0.15284(16) 1.02065(18) 0.39585(8)
H43 H 0.1885 0.9911 0.3709
H44 H 0.1901 1.0848 0.4091
C54 C 0.05005(17) 1.0555(2) 0.37856(8)
H45 H 0.0161 1.0867 0.4037
H46 H 0.0125 0.9897 0.3671
C55 C 0.05039(18) 1.1408(2) 0.34112(9)
H47 H 0.0893 1.1121 0.3171
H48 H 0.0828 1.2091 0.3532
C56 C -0.0538(2) 1.1683(3) 0.32106(10)
H49 H -0.0865 1.1007 0.3094
H50 H -0.0504 1.2215 0.2965
H51 H -0.0915 1.2003 0.3444
C57 C 0.15707(16) 1.01473(18) 0.52531(8)
H52 H 0.1821 0.9913 0.5560
H53 H 0.1136 0.9558 0.5117
C58 C 0.10044(17) 1.12246(19) 0.52718(9)
H54 H 0.0422 1.1100 0.5443
H55 H 0.0760 1.1438 0.4961
C59 C 0.1600(2) 1.21785(19) 0.54871(9)
H56 H 0.2120 1.2342 0.5299
H57 H 0.1904 1.1933 0.5773
C60 C 0.1062(3) 1.3243(3) 0.55637(16)
H58 H 0.0589 1.3124 0.5789
H59 H 0.0710 1.3487 0.5280
H60 H 0.1539 1.3811 0.5672
C61? C 1.0100(5) 0.5711(10) 0.5767(4)
C62? C 1.0863(5) 0.5018(8) 0.6041(4)
C63? C 0.1764(5) 1.2021(6) 0.59815(19)
H61? H 0.8881 0.4948 0.6018
H62? H 0.9145 0.6044 0.6276
H63? H 1.0003 0.5417 0.5457
H64? H 1.0341 0.6481 0.5751
H65? H 1.0763 0.5084 0.6362
H66? H 1.1526 0.5279 0.5990
H67? H 1.0793 0.4242 0.5949
H68? H 0.1256 1.2862 0.5424
H69? H 0.2223 1.2218 0.5359
H70? H 0.2078 1.2683 0.6119
H71? H 0.2195 1.1381 0.6046
H72? H 0.1130 1.1896 0.6106
loop_
_geom_bond_atom_site_label_1
_geom_bond_atom_site_label_2
_geom_bond_site_symmetry_1
_geom_bond_site_symmetry_2
F1 C1 1_555 1_555
F2 C2 1_555 1_555
F3 C11 1_555 1_555
F4 C12 1_555 1_555
F5 C21 1_555 1_555
F6 C22 1_555 1_555
O1 C6 1_555 1_555
O2 C7 1_555 1_555
O3 C16 1_555 1_555
O4 C17 1_555 1_555
O5 C26 1_555 1_555
O6 C27 1_555 1_555
C1 C2 1_555 1_555
C2 C3 1_555 1_555
C3 H1 1_555 1_555
C4 C3 1_555 1_555
C5 C4 1_555 1_555
C6 C5 1_555 1_555
C7 C6 1_555 1_555
C8 C7 1_555 1_555
C9 C8 1_555 1_555
C10 C9 1_555 1_555
H2 C10 1_555 1_555
C11 C10 1_555 1_555
C12 C11 1_555 1_555
C13 C12 1_555 1_555
H3 C13 1_555 1_555
C14 C9 1_555 1_555
C15 C14 1_555 1_555
C16 C15 1_555 1_555
C17 C16 1_555 1_555
C18 C17 1_555 1_555
C19 C18 1_555 1_555
C20 C19 1_555 1_555
H4 C20 1_555 1_555
C21 C20 1_555 1_555
C22 C21 1_555 1_555
C23 C22 1_555 1_555
H5 C23 1_555 1_555
C24 C19 1_555 1_555
C25 C24 1_555 1_555
C26 C25 1_555 1_555
C27 C26 1_555 1_555
C28 C27 1_555 1_555
C29 C4 1_555 1_555
C30 C1 1_555 1_555
H6 C30 1_555 1_555
C31 C5 1_555 1_555
C32 C8 1_555 1_555
C33 C15 1_555 1_555
C34 C18 1_555 1_555
C35 C25 1_555 1_555
C36 C28 1_555 1_555
C37 O1 1_555 1_555
H7 C37 1_555 1_555
H8 C37 1_555 1_555
C38 C37 1_555 1_555
H9 C38 1_555 1_555
H10 C38 1_555 1_555
C39 C38 1_555 1_555
H11 C39 1_555 1_555
H12 C39 1_555 1_555
C40 C39 1_555 1_555
H13 C40 1_555 1_555
H14 C40 1_555 1_555
H15 C40 1_555 1_555
C41 O2 1_555 1_555
H16 C41 1_555 1_555
H17 C41 1_555 1_555
C42 C41 1_555 1_555
H18 C42 1_555 1_555
H19 C42 1_555 1_555
C43 C42 1_555 1_555
H20 C43 1_555 1_555
H21 C43 1_555 1_555
C44 C43 1_555 1_555
H22 C44 1_555 1_555
H23 C44 1_555 1_555
H24 C44 1_555 1_555
C45 O3 1_555 1_555
H25 C45 1_555 1_555
H26 C45 1_555 1_555
C46 C45 1_555 1_555
H27 C46 1_555 1_555
H28 C46 1_555 1_555
C47 C46 1_555 1_555
H29 C47 1_555 1_555
H30 C47 1_555 1_555
C48 C47 1_555 1_555
H31 C48 1_555 1_555
H32 C48 1_555 1_555
H33 C48 1_555 1_555
C49 O4 1_555 1_555
H34 C49 1_555 1_555
H35 C49 1_555 1_555
C50 C49 1_555 1_555
H36 C50 1_555 1_555
H37 C50 1_555 1_555
C51 C50 1_555 1_555
H38 C51 1_555 1_555
H39 C51 1_555 1_555
C52 C51 1_555 1_555
H40 C52 1_555 1_555
H41 C52 1_555 1_555
H42 C52 1_555 1_555
C53 O5 1_555 1_555
H43 C53 1_555 1_555
H44 C53 1_555 1_555
C54 C53 1_555 1_555
H45 C54 1_555 1_555
H46 C54 1_555 1_555
C55 C54 1_555 1_555
H47 C55 1_555 1_555
H48 C55 1_555 1_555
C56 C55 1_555 1_555
H49 C56 1_555 1_555
H50 C56 1_555 1_555
H51 C56 1_555 1_555
C57 O6 1_555 1_555
H52 C57 1_555 1_555
H53 C57 1_555 1_555
C58 C57 1_555 1_555
H54 C58 1_555 1_555
H55 C58 1_555 1_555
C59 C58 1_555 1_555
H56 C59 1_555 1_555
H57 C59 1_555 1_555
C60 C59 1_555 1_555
H58 C60 1_555 1_555
H59 C60 1_555 1_555
H60 C60 1_555 1_555
C13 C14 1_555 1_555
C23 C24 1_555 1_555
C28 C29 1_555 1_555
C29 C30 1_555 1_555
C31 C32 1_555 1_555
C31 C36 1_555 1_555
C32 C33 1_555 1_555
C33 C34 1_555 1_555
C34 C35 1_555 1_555
C35 C36 1_555 1_555

#END
