
#######################################################################
#
#                 Cambridge Crystallographic Data Centre
#                                CCDC 
#
#######################################################################
#
# If this CIF has been generated from an entry in the Cambridge 
# Structural Database, then it will include bibliographic, chemical, 
# crystal, experimental, refinement or atomic coordinate data resulting 
# from the CCDC's data processing and validation procedures.
#
#######################################################################

data_POYFEQ
_chemical_formula_moiety         'C34 H48 N2 Si2'
_chemical_name_systematic        1,4-bis((Tri-isopropylsilyl)ethynyl)phenazine
_symmetry_cell_setting           triclinic
_symmetry_space_group_name_H-M   'P -1'
_symmetry_Int_Tables_number      2
_space_group_name_Hall           '-P 1'
loop_
_symmetry_equiv_pos_site_id
_symmetry_equiv_pos_as_xyz
1 x,y,z
2 -x,-y,-z
_cell_length_a                   7.5797(17)
_cell_length_b                   17.349(3)
_cell_length_c                   26.474(4)
_cell_angle_alpha                103.240(15)
_cell_angle_beta                 98.052(15)
_cell_angle_gamma                93.741(15)
_cell_volume                     3338.24
_exptl_crystal_colour            yellow
_exptl_crystal_description       needle
_cell_formula_units_Z            4
loop_
_atom_site_label
_atom_site_type_symbol
_atom_site_fract_x
_atom_site_fract_y
_atom_site_fract_z
C1 C 0.7951(11) -0.0326(5) 0.0109(3)
C2 C 0.7897(11) -0.1000(5) -0.0310(4)
H1 H 0.8383 -0.1465 -0.0243
C3 C 0.7164(12) -0.0996(5) -0.0805(4)
H2 H 0.7155 -0.1451 -0.1085
C4 C 0.6403(11) -0.0301(6) -0.0906(3)
H3 H 0.5863 -0.0304 -0.1253
C5 C 0.6441(10) 0.0353(5) -0.0518(3)
H4 H 0.5983 0.0816 -0.0597
C6 C 0.7155(11) 0.0365(5) 0.0008(3)
C7 C 0.7914(11) 0.1008(5) 0.0881(3)
C8 C 0.7975(11) 0.1690(5) 0.1305(3)
C9 C 0.8767(10) 0.1681(5) 0.1795(3)
H5 H 0.8800 0.2137 0.2076
C10 C 0.9549(11) 0.0995(5) 0.1893(3)
H6 H 1.0126 0.1009 0.2238
C11 C 0.9495(10) 0.0326(5) 0.1509(3)
C12 C 0.8692(11) 0.0304(5) 0.0977(3)
C13 C 1.0320(11) -0.0376(5) 0.1614(3)
C14 C 1.0971(11) -0.0949(5) 0.1689(3)
C15 C 1.2426(13) -0.2395(5) 0.1112(3)
H7 H 1.3485 -0.2109 0.1023
C16 C 1.2949(13) -0.3244(6) 0.1120(4)
H8 H 1.3114 -0.3524 0.0766
H9 H 1.1996 -0.3540 0.1234
H10 H 1.4068 -0.3205 0.1364
C17 C 1.0918(13) -0.2406(6) 0.0685(4)
H11 H 1.1192 -0.2711 0.0350
H12 H 1.0747 -0.1859 0.0661
H13 H 0.9820 -0.2654 0.0762
C18 C 1.0697(12) -0.2351(5) 0.2133(4)
H14 H 1.0502 -0.1935 0.2444
C19 C 0.8848(12) -0.2677(6) 0.1842(4)
H15 H 0.8195 -0.2932 0.2065
H16 H 0.8942 -0.3070 0.1518
H17 H 0.8203 -0.2242 0.1754
C20 C 1.1566(12) -0.3024(6) 0.2368(4)
H18 H 1.0716 -0.3255 0.2554
H19 H 1.2661 -0.2793 0.2615
H20 H 1.1858 -0.3440 0.2083
C21 C 1.4354(11) -0.1423(5) 0.2205(3)
H21 H 1.5025 -0.1887 0.2248
C22 C 1.4122(13) -0.0963(6) 0.2750(3)
H22 H 1.5301 -0.0775 0.2963
H23 H 1.3460 -0.1312 0.2917
H24 H 1.3453 -0.0507 0.2720
C23 C 1.5477(11) -0.0911(6) 0.1946(4)
H25 H 1.6637 -0.0726 0.2171
H26 H 1.4849 -0.0452 0.1896
H27 H 1.5668 -0.1228 0.1604
C24 C 0.7083(12) 0.2368(5) 0.1207(3)
C25 C 0.6336(11) 0.2924(5) 0.1126(3)
C26 C 0.3619(11) 0.3344(5) 0.0309(3)
H28 H 0.2494 0.3073 0.0372
C27 C 0.4441(12) 0.2729(5) -0.0058(4)
H29 H 0.3628 0.2547 -0.0393
H30 H 0.4650 0.2276 0.0099
H31 H 0.5583 0.2962 -0.0118
C28 C 0.3052(13) 0.4036(6) 0.0063(4)
H32 H 0.2287 0.3820 -0.0277
H33 H 0.4121 0.4341 0.0013
H34 H 0.2389 0.4385 0.0298
C29 C 0.3685(11) 0.4010(5) 0.1510(3)
H35 H 0.4503 0.4058 0.1849
C30 C 0.2164(11) 0.3361(5) 0.1483(4)
H36 H 0.1500 0.3529 0.1775
H37 H 0.2673 0.2863 0.1508
H38 H 0.1350 0.3276 0.1148
C31 C 0.2924(12) 0.4821(5) 0.1546(4)
H39 H 0.2251 0.4930 0.1840
H40 H 0.2127 0.4807 0.1218
H41 H 0.3911 0.5241 0.1602
C32 C 0.6788(11) 0.4575(5) 0.1010(3)
H42 H 0.6126 0.5023 0.0929
C33 C 0.7861(12) 0.4877(5) 0.1556(3)
H43 H 0.8730 0.5322 0.1558
H44 H 0.8497 0.4447 0.1656
H45 H 0.7051 0.5057 0.1807
C34 C 0.8031(11) 0.4375(5) 0.0602(3)
H46 H 0.8886 0.4839 0.0634
H47 H 0.7322 0.4232 0.0249
H48 H 0.8684 0.3926 0.0661
N1 N 0.8667(8) -0.0356(4) 0.0596(3)
N2 N 0.7205(8) 0.1024(4) 0.0387(3)
Si1 Si 1.2123(3) -0.18284(14) 0.17764(10)
Si2 Si 0.5063(3) 0.37330(13) 0.09758(10)
C35 C 0.1916(10) 0.9574(5) 0.4912(3)
C36 C 0.2373(11) 0.9366(5) 0.5394(3)
H49 H 0.1908 0.8866 0.5435
C37 C 0.3478(11) 0.9875(5) 0.5803(3)
H50 H 0.3774 0.9723 0.6125
C38 C 0.4184(10) 1.0622(5) 0.5755(3)
H51 H 0.4943 1.0968 0.6046
C39 C 0.3789(10) 1.0855(5) 0.5294(3)
H52 H 0.4257 1.1362 0.5266
C40 C 0.2659(10) 1.0324(5) 0.4857(3)
C41 C 0.1229(10) 1.0027(4) 0.3999(3)
C42 C 0.0821(10) 1.0242(4) 0.3506(3)
C43 C -0.0308(10) 0.9710(5) 0.3099(3)
H53 H -0.0588 0.9839 0.2769
C44 C -0.1045(10) 0.8983(5) 0.3168(3)
H54 H -0.1832 0.8639 0.2884
C45 C -0.0682(10) 0.8755(5) 0.3620(3)
C46 C 0.0472(10) 0.9279(4) 0.4062(3)
C47 C -0.1479(10) 0.8016(5) 0.3686(3)
C48 C -0.2134(10) 0.7402(5) 0.3769(3)
C49 C -0.1153(11) 0.6508(5) 0.4560(4)
H55 H 0.0011 0.6489 0.4422
C50 C -0.1382(13) 0.5752(6) 0.4756(4)
H56 H -0.0421 0.5767 0.5049
H57 H -0.1329 0.5287 0.4470
H58 H -0.2544 0.5716 0.4876
C51 C -0.0924(12) 0.7267(6) 0.4998(4)
H59 H 0.0016 0.7225 0.5282
H60 H -0.2054 0.7341 0.5134
H61 H -0.0586 0.7723 0.4859
C52 C -0.5139(10) 0.6671(5) 0.4202(3)
H62 H -0.4870 0.7039 0.4560
C53 C -0.6090(11) 0.5928(5) 0.4272(4)
H63 H -0.7233 0.6048 0.4390
H64 H -0.5346 0.5724 0.4536
H65 H -0.6314 0.5527 0.3937
C54 C -0.6401(11) 0.7108(5) 0.3858(4)
H66 H -0.7529 0.7171 0.3997
H67 H -0.6647 0.6792 0.3494
H68 H -0.5811 0.7633 0.3870
C55 C -0.3045(12) 0.5628(5) 0.3420(3)
H69 H -0.3503 0.5153 0.3535
C56 C -0.1174(13) 0.5487(6) 0.3258(4)
H70 H -0.1286 0.5010 0.2969
H71 H -0.0349 0.5415 0.3559
H72 H -0.0711 0.5949 0.3143
C57 C -0.4310(13) 0.5701(5) 0.2931(4)
H73 H -0.4354 0.5217 0.2651
H74 H -0.3870 0.6162 0.2812
H75 H -0.5514 0.5770 0.3018
C58 C 0.1685(10) 1.0959(5) 0.3435(3)
C59 C 0.2424(10) 1.1559(5) 0.3366(3)
C60 C 0.4949(12) 1.2917(5) 0.4020(4)
H76 H 0.4018 1.3187 0.4207
C61 C 0.5608(12) 1.2344(6) 0.4322(3)
H77 H 0.6156 1.2634 0.4678
H78 H 0.6501 1.2048 0.4147
H79 H 0.4603 1.1972 0.4340
C62 C 0.6467(13) 1.3577(5) 0.4051(4)
H80 H 0.6992 1.3805 0.4419
H81 H 0.5977 1.3995 0.3896
H82 H 0.7394 1.3348 0.3856
C63 C 0.5384(12) 1.2087(5) 0.2859(4)
H83 H 0.6178 1.2559 0.2839
C64 C 0.6616(13) 1.1476(6) 0.3040(4)
H84 H 0.7406 1.1309 0.2781
H85 H 0.5871 1.1011 0.3070
H86 H 0.7341 1.1728 0.3382
C65 C 0.4437(13) 1.1701(6) 0.2310(4)
H87 H 0.5322 1.1528 0.2083
H88 H 0.3739 1.2086 0.2173
H89 H 0.3633 1.1240 0.2318
C66 C 0.2198(13) 1.3093(5) 0.3057(4)
H90 H 0.1610 1.2771 0.2703
C67 C 0.0729(14) 1.3301(7) 0.3364(6)
H91 H -0.0044 1.3634 0.3197
H92 H 0.1238 1.3594 0.3723
H93 H 0.0024 1.2813 0.3374
C68 C 0.3193(14) 1.3836(5) 0.2962(4)
H94 H 0.2322 1.4158 0.2821
H95 H 0.4007 1.3672 0.2709
H96 H 0.3882 1.4151 0.3294
N3 N 0.0849(8) 0.9060(3) 0.4512(3)
N4 N 0.2309(8) 1.0546(4) 0.4403(3)
Si3 Si -0.2904(3) 0.65300(14) 0.39795(10)
Si4 Si 0.3803(3) 1.24482(14) 0.33286(10)
loop_
_geom_bond_atom_site_label_1
_geom_bond_atom_site_label_2
_geom_bond_site_symmetry_1
_geom_bond_site_symmetry_2
C1 C2 1_555 1_555
C2 H1 1_555 1_555
C3 C2 1_555 1_555
H2 C3 1_555 1_555
C4 C3 1_555 1_555
H3 C4 1_555 1_555
C5 C4 1_555 1_555
H4 C5 1_555 1_555
C6 C1 1_555 1_555
C7 C8 1_555 1_555
C8 C9 1_555 1_555
C9 H5 1_555 1_555
C10 C9 1_555 1_555
H6 C10 1_555 1_555
C11 C10 1_555 1_555
C12 C7 1_555 1_555
C13 C11 1_555 1_555
C14 C13 1_555 1_555
C15 H7 1_555 1_555
C16 C15 1_555 1_555
H8 C16 1_555 1_555
H9 C16 1_555 1_555
H10 C16 1_555 1_555
C17 C15 1_555 1_555
H11 C17 1_555 1_555
H12 C17 1_555 1_555
H13 C17 1_555 1_555
C18 H14 1_555 1_555
C19 C18 1_555 1_555
H15 C19 1_555 1_555
H16 C19 1_555 1_555
H17 C19 1_555 1_555
C20 C18 1_555 1_555
H18 C20 1_555 1_555
H19 C20 1_555 1_555
H20 C20 1_555 1_555
C21 H21 1_555 1_555
C22 C21 1_555 1_555
H22 C22 1_555 1_555
H23 C22 1_555 1_555
H24 C22 1_555 1_555
C23 C21 1_555 1_555
H25 C23 1_555 1_555
H26 C23 1_555 1_555
H27 C23 1_555 1_555
C24 C8 1_555 1_555
C25 C24 1_555 1_555
C26 H28 1_555 1_555
C27 C26 1_555 1_555
H29 C27 1_555 1_555
H30 C27 1_555 1_555
H31 C27 1_555 1_555
C28 C26 1_555 1_555
H32 C28 1_555 1_555
H33 C28 1_555 1_555
H34 C28 1_555 1_555
C29 H35 1_555 1_555
C30 C29 1_555 1_555
H36 C30 1_555 1_555
H37 C30 1_555 1_555
H38 C30 1_555 1_555
C31 C29 1_555 1_555
H39 C31 1_555 1_555
H40 C31 1_555 1_555
H41 C31 1_555 1_555
C32 H42 1_555 1_555
C33 C32 1_555 1_555
H43 C33 1_555 1_555
H44 C33 1_555 1_555
H45 C33 1_555 1_555
C34 C32 1_555 1_555
H46 C34 1_555 1_555
H47 C34 1_555 1_555
H48 C34 1_555 1_555
N1 C1 1_555 1_555
N2 C6 1_555 1_555
Si1 C14 1_555 1_555
Si2 C25 1_555 1_555
C35 C36 1_555 1_555
C36 H49 1_555 1_555
C37 C36 1_555 1_555
H50 C37 1_555 1_555
C38 C37 1_555 1_555
H51 C38 1_555 1_555
C39 C38 1_555 1_555
H52 C39 1_555 1_555
C40 C35 1_555 1_555
C41 C42 1_555 1_555
C42 C43 1_555 1_555
C43 H53 1_555 1_555
C44 C43 1_555 1_555
H54 C44 1_555 1_555
C45 C44 1_555 1_555
C46 C41 1_555 1_555
C47 C45 1_555 1_555
C48 C47 1_555 1_555
C49 H55 1_555 1_555
C50 C49 1_555 1_555
H56 C50 1_555 1_555
H57 C50 1_555 1_555
H58 C50 1_555 1_555
C51 C49 1_555 1_555
H59 C51 1_555 1_555
H60 C51 1_555 1_555
H61 C51 1_555 1_555
C52 H62 1_555 1_555
C53 C52 1_555 1_555
H63 C53 1_555 1_555
H64 C53 1_555 1_555
H65 C53 1_555 1_555
C54 C52 1_555 1_555
H66 C54 1_555 1_555
H67 C54 1_555 1_555
H68 C54 1_555 1_555
C55 H69 1_555 1_555
C56 C55 1_555 1_555
H70 C56 1_555 1_555
H71 C56 1_555 1_555
H72 C56 1_555 1_555
C57 C55 1_555 1_555
H73 C57 1_555 1_555
H74 C57 1_555 1_555
H75 C57 1_555 1_555
C58 C42 1_555 1_555
C59 C58 1_555 1_555
C60 H76 1_555 1_555
C61 C60 1_555 1_555
H77 C61 1_555 1_555
H78 C61 1_555 1_555
H79 C61 1_555 1_555
C62 C60 1_555 1_555
H80 C62 1_555 1_555
H81 C62 1_555 1_555
H82 C62 1_555 1_555
C63 H83 1_555 1_555
C64 C63 1_555 1_555
H84 C64 1_555 1_555
H85 C64 1_555 1_555
H86 C64 1_555 1_555
C65 C63 1_555 1_555
H87 C65 1_555 1_555
H88 C65 1_555 1_555
H89 C65 1_555 1_555
C66 H90 1_555 1_555
C67 C66 1_555 1_555
H91 C67 1_555 1_555
H92 C67 1_555 1_555
H93 C67 1_555 1_555
C68 C66 1_555 1_555
H94 C68 1_555 1_555
H95 C68 1_555 1_555
H96 C68 1_555 1_555
N3 C35 1_555 1_555
N4 C40 1_555 1_555
Si3 C48 1_555 1_555
Si4 C59 1_555 1_555
C5 C6 1_555 1_555
C7 N2 1_555 1_555
C11 C12 1_555 1_555
C12 N1 1_555 1_555
C15 Si1 1_555 1_555
C18 Si1 1_555 1_555
C21 Si1 1_555 1_555
C26 Si2 1_555 1_555
C29 Si2 1_555 1_555
C32 Si2 1_555 1_555
C39 C40 1_555 1_555
C41 N4 1_555 1_555
C45 C46 1_555 1_555
C46 N3 1_555 1_555
C49 Si3 1_555 1_555
C52 Si3 1_555 1_555
C55 Si3 1_555 1_555
C60 Si4 1_555 1_555
C63 Si4 1_555 1_555
C66 Si4 1_555 1_555

#END
