
#######################################################################
#
#                 Cambridge Crystallographic Data Centre
#                                CCDC 
#
#######################################################################
#
# If this CIF has been generated from an entry in the Cambridge 
# Structural Database, then it will include bibliographic, chemical, 
# crystal, experimental, refinement or atomic coordinate data resulting 
# from the CCDC's data processing and validation procedures.
#
#######################################################################

data_POYHOC
_chemical_formula_moiety         'C21 H19 N3 O3'
_chemical_name_systematic        
'Methyl 3-(benzoylamino)-2-(1-benzyl-1H-imidazol-2-yl)acrylate'
_symmetry_cell_setting           triclinic
_symmetry_space_group_name_H-M   'P -1'
_symmetry_Int_Tables_number      2
_space_group_name_Hall           '-P 1'
loop_
_symmetry_equiv_pos_site_id
_symmetry_equiv_pos_as_xyz
1 x,y,z
2 -x,-y,-z
_cell_length_a                   7.8812(3)
_cell_length_b                   9.8170(3)
_cell_length_c                   11.9498(4)
_cell_angle_alpha                95.127(3)
_cell_angle_beta                 105.452(3)
_cell_angle_gamma                99.544(3)
_cell_volume                     870.083
_exptl_crystal_colour            colorless
_exptl_crystal_description       block
_cell_formula_units_Z            2
loop_
_atom_site_label
_atom_site_type_symbol
_atom_site_fract_x
_atom_site_fract_y
_atom_site_fract_z
N1 N -0.17718(15) 0.34258(12) -0.34217(10)
C1 C -0.24280(18) 0.24617(14) -0.28018(12)
N2 N -0.35883(16) 0.13998(12) -0.35255(10)
C2 C -0.36507(19) 0.16909(15) -0.46390(12)
H1 H -0.4352 0.1124 -0.5327
C3 C -0.25452(19) 0.29207(15) -0.45903(12)
H2 H -0.2348 0.3342 -0.5223
C4 C -0.07184(18) 0.48419(14) -0.30098(12)
H3 H -0.0747 0.5109 -0.2215
H4 H -0.1299 0.5470 -0.3494
C5 C 0.12216(19) 0.50529(15) -0.30191(12)
C6 C 0.2319(2) 0.63354(16) -0.24882(13)
H5 H 0.1841 0.7020 -0.2158
C7 C 0.41478(18) 0.66029(15) -0.24477(11)
H6 H 0.4876 0.7462 -0.2096
C8 C 0.4849(2) 0.55838(18) -0.29324(14)
H7 H 0.6060 0.5750 -0.2896
C9 C 0.3739(2) 0.42867(18) -0.34855(15)
H8 H 0.4208 0.3604 -0.3827
C10 C 0.1950(2) 0.40436(16) -0.35140(14)
H9 H 0.1220 0.3187 -0.3872
C11 C -0.20641(19) 0.25872(14) -0.15190(12)
C12 C -0.02970(19) 0.32058(14) -0.06724(12)
O1 O -0.00497(14) 0.35030(11) 0.03709(9)
O2 O 0.10241(13) 0.33743(10) -0.11907(8)
C13 C 0.27711(19) 0.40696(16) -0.04311(13)
H10 H 0.3627 0.4148 -0.0874
H11 H 0.3143 0.3538 0.0195
H12 H 0.2702 0.4984 -0.0110
C14 C -0.3340(2) 0.20346(15) -0.10293(13)
H13 H -0.3057 0.2158 -0.0215
N3 N -0.50092(16) 0.13093(12) -0.16478(10)
H14 H -0.5200 0.1057 -0.2431
C15 C -0.6317(2) 0.08708(15) -0.11116(13)
O3 O -0.60500(14) 0.11417(11) -0.00567(9)
C16 C -0.80690(19) 0.00738(14) -0.19020(13)
C17 C -0.9386(2) -0.04000(17) -0.13734(14)
H15 H -0.9134 -0.0227 -0.0562
C18 C -1.1063(2) -0.11233(18) -0.20358(16)
H16 H -1.1936 -0.1426 -0.1672
C19 C -1.1442(2) -0.13964(17) -0.32430(15)
H17 H -1.2569 -0.1883 -0.3692
C20 C -1.0137(2) -0.09431(17) -0.37782(15)
H18 H -1.0388 -0.1134 -0.4588
C21 C -0.8459(2) -0.02069(17) -0.31162(14)
H19 H -0.7593 0.0100 -0.3483
loop_
_geom_bond_atom_site_label_1
_geom_bond_atom_site_label_2
_geom_bond_site_symmetry_1
_geom_bond_site_symmetry_2
N1 C1 1_555 1_555
C1 N2 1_555 1_555
N2 C2 1_555 1_555
C2 H1 1_555 1_555
C3 N1 1_555 1_555
H2 C3 1_555 1_555
C4 N1 1_555 1_555
H3 C4 1_555 1_555
H4 C4 1_555 1_555
C5 C4 1_555 1_555
C6 C5 1_555 1_555
H5 C6 1_555 1_555
C7 C6 1_555 1_555
H6 C7 1_555 1_555
C8 C7 1_555 1_555
H7 C8 1_555 1_555
C9 C8 1_555 1_555
H8 C9 1_555 1_555
C10 C5 1_555 1_555
H9 C10 1_555 1_555
C11 C1 1_555 1_555
C12 C11 1_555 1_555
O1 C12 1_555 1_555
O2 C12 1_555 1_555
C13 O2 1_555 1_555
H10 C13 1_555 1_555
H11 C13 1_555 1_555
H12 C13 1_555 1_555
C14 C11 1_555 1_555
H13 C14 1_555 1_555
N3 C14 1_555 1_555
H14 N3 1_555 1_555
C15 N3 1_555 1_555
O3 C15 1_555 1_555
C16 C15 1_555 1_555
C17 C16 1_555 1_555
H15 C17 1_555 1_555
C18 C17 1_555 1_555
H16 C18 1_555 1_555
C19 C18 1_555 1_555
H17 C19 1_555 1_555
C20 C19 1_555 1_555
H18 C20 1_555 1_555
C21 C16 1_555 1_555
H19 C21 1_555 1_555
C2 C3 1_555 1_555
C9 C10 1_555 1_555
C20 C21 1_555 1_555

#END
