
#######################################################################
#
#                 Cambridge Crystallographic Data Centre
#                                CCDC 
#
#######################################################################
#
# If this CIF has been generated from an entry in the Cambridge 
# Structural Database, then it will include bibliographic, chemical, 
# crystal, experimental, refinement or atomic coordinate data resulting 
# from the CCDC's data processing and validation procedures.
#
#######################################################################

data_POYJIY
_chemical_formula_moiety         'C36 H30 N2 O2 P2'
_chemical_name_systematic        
'(1,2,3,4-Tetrahydro-1,10-phenanthroline-2,4-diyl)bis(diphenylphosphine oxide)'
_symmetry_cell_setting           monoclinic
_symmetry_space_group_name_H-M   'P 21/n'
_symmetry_Int_Tables_number      14
_space_group_name_Hall           '-P 2yn'
loop_
_symmetry_equiv_pos_site_id
_symmetry_equiv_pos_as_xyz
1 x,y,z
2 1/2-x,1/2+y,1/2-z
3 -x,-y,-z
4 1/2+x,1/2-y,1/2+z
_cell_length_a                   11.8271(4)
_cell_length_b                   12.1644(4)
_cell_length_c                   20.9525(6)
_cell_angle_alpha                90
_cell_angle_beta                 92.288(3)
_cell_angle_gamma                90
_cell_volume                     3012.02
_exptl_crystal_colour            yellow
_exptl_crystal_description       plate
_cell_formula_units_Z            4
loop_
_atom_site_label
_atom_site_type_symbol
_atom_site_fract_x
_atom_site_fract_y
_atom_site_fract_z
P1 P 0.35937(5) 0.65876(5) 0.16028(3)
P2 P 0.51358(5) 0.29336(5) 0.20901(3)
O1 O 0.26236(15) 0.70110(15) 0.19529(9)
O2 O 0.61056(13) 0.35834(13) 0.18701(8)
N1 N 0.49150(18) 0.59437(17) 0.26121(9)
H1 H 0.5092 0.6629 0.2630
N2 N 0.6100(2) 0.68329(18) 0.36023(10)
C1 C 0.43775(19) 0.55173(19) 0.20343(11)
H2 H 0.4956 0.5218 0.1761
C2 C 0.3562(2) 0.45961(19) 0.22096(11)
H3 H 0.3221 0.4281 0.1823
H4 H 0.2961 0.4898 0.2458
C3 C 0.41843(19) 0.36918(19) 0.25969(11)
H5 H 0.3622 0.3179 0.2756
C4 C 0.48163(19) 0.42015(19) 0.31615(11)
C5 C 0.5023(2) 0.3610(2) 0.37329(11)
H6 H 0.4779 0.2885 0.3755
C6 C 0.5566(2) 0.4063(2) 0.42536(12)
H7 H 0.5680 0.3649 0.4624
C7 C 0.5957(2) 0.5155(2) 0.42337(11)
C8 C 0.6545(2) 0.5693(2) 0.47407(12)
H8 H 0.6688 0.5326 0.5125
C9 C 0.6904(3) 0.6743(3) 0.46716(13)
H9 H 0.7297 0.7101 0.5004
C10 C 0.6670(3) 0.7274(2) 0.40935(14)
H10 H 0.6933 0.7989 0.4050
C11 C 0.5749(2) 0.5777(2) 0.36687(11)
C12 C 0.5153(2) 0.5291(2) 0.31345(11)
C13 C 0.3132(2) 0.5945(2) 0.08610(12)
C14 C 0.3801(2) 0.5853(2) 0.03374(12)
H11 H 0.4530 0.6140 0.0354
C15 C 0.3385(3) 0.5330(2) -0.02146(14)
H12 H 0.3833 0.5286 -0.0569
C16 C 0.2331(3) 0.4884(3) -0.02413(15)
H13 H 0.2063 0.4527 -0.0610
C17 C 0.1664(3) 0.4963(3) 0.02757(16)
H14 H 0.0946 0.4650 0.0260
C18 C 0.2053(2) 0.5507(3) 0.08209(13)
H15 H 0.1583 0.5579 0.1164
C19 C 0.4606(2) 0.7638(2) 0.14366(11)
C20 C 0.4185(3) 0.8682(2) 0.12945(13)
H16 H 0.3408 0.8801 0.1274
C21 C 0.4910(3) 0.9537(2) 0.11846(15)
H17 H 0.4621 1.0227 0.1079
C22 C 0.6063(3) 0.9378(3) 0.12291(13)
H18 H 0.6550 0.9964 0.1162
C23 C 0.6494(3) 0.8357(3) 0.13719(12)
H19 H 0.7273 0.8250 0.1403
C24 C 0.5770(2) 0.7483(2) 0.14694(12)
H20 H 0.6065 0.6789 0.1557
C25 C 0.4242(2) 0.24753(19) 0.14187(11)
C26 C 0.4723(2) 0.2477(2) 0.08279(12)
H21 H 0.5466 0.2714 0.0792
C27 C 0.4113(3) 0.2132(2) 0.02924(13)
H22 H 0.4446 0.2129 -0.0102
C28 C 0.3019(3) 0.1794(3) 0.03395(13)
H23 H 0.2605 0.1570 -0.0024
C29 C 0.2521(2) 0.1783(3) 0.09272(14)
H24 H 0.1776 0.1549 0.0957
C30 C 0.3131(2) 0.2118(2) 0.14697(12)
H25 H 0.2801 0.2106 0.1865
C31 C 0.5585(2) 0.16894(19) 0.24910(11)
C32 C 0.6735(2) 0.1446(2) 0.25084(12)
H26 H 0.7249 0.1962 0.2367
C33 C 0.7114(2) 0.0440(2) 0.27347(12)
H27 H 0.7883 0.0278 0.2744
C34 C 0.6360(2) -0.0322(2) 0.29458(12)
H28 H 0.6619 -0.1001 0.3094
C35 C 0.5225(3) -0.0086(2) 0.29400(13)
H29 H 0.4719 -0.0603 0.3088
C36 C 0.4830(2) 0.0920(2) 0.27136(13)
H30 H 0.4061 0.1078 0.2711
loop_
_geom_bond_atom_site_label_1
_geom_bond_atom_site_label_2
_geom_bond_site_symmetry_1
_geom_bond_site_symmetry_2
P1 O1 1_555 1_555
P2 O2 1_555 1_555
N1 H1 1_555 1_555
N2 C10 1_555 1_555
C1 P1 1_555 1_555
H2 C1 1_555 1_555
C2 C1 1_555 1_555
H3 C2 1_555 1_555
H4 C2 1_555 1_555
C3 P2 1_555 1_555
H5 C3 1_555 1_555
C4 C3 1_555 1_555
C5 C4 1_555 1_555
H6 C5 1_555 1_555
C6 C5 1_555 1_555
H7 C6 1_555 1_555
C7 C6 1_555 1_555
C8 C7 1_555 1_555
H8 C8 1_555 1_555
C9 C8 1_555 1_555
H9 C9 1_555 1_555
C10 C9 1_555 1_555
H10 C10 1_555 1_555
C11 N2 1_555 1_555
C12 N1 1_555 1_555
C13 P1 1_555 1_555
C14 C13 1_555 1_555
H11 C14 1_555 1_555
C15 C14 1_555 1_555
H12 C15 1_555 1_555
C16 C15 1_555 1_555
H13 C16 1_555 1_555
C17 C16 1_555 1_555
H14 C17 1_555 1_555
C18 C13 1_555 1_555
H15 C18 1_555 1_555
C19 P1 1_555 1_555
C20 C19 1_555 1_555
H16 C20 1_555 1_555
C21 C20 1_555 1_555
H17 C21 1_555 1_555
C22 C21 1_555 1_555
H18 C22 1_555 1_555
C23 C22 1_555 1_555
H19 C23 1_555 1_555
C24 C19 1_555 1_555
H20 C24 1_555 1_555
C25 P2 1_555 1_555
C26 C25 1_555 1_555
H21 C26 1_555 1_555
C27 C26 1_555 1_555
H22 C27 1_555 1_555
C28 C27 1_555 1_555
H23 C28 1_555 1_555
C29 C28 1_555 1_555
H24 C29 1_555 1_555
C30 C25 1_555 1_555
H25 C30 1_555 1_555
C31 P2 1_555 1_555
C32 C31 1_555 1_555
H26 C32 1_555 1_555
C33 C32 1_555 1_555
H27 C33 1_555 1_555
C34 C33 1_555 1_555
H28 C34 1_555 1_555
C35 C34 1_555 1_555
H29 C35 1_555 1_555
C36 C31 1_555 1_555
H30 C36 1_555 1_555
N1 C1 1_555 1_555
C2 C3 1_555 1_555
C4 C12 1_555 1_555
C7 C11 1_555 1_555
C11 C12 1_555 1_555
C17 C18 1_555 1_555
C23 C24 1_555 1_555
C29 C30 1_555 1_555
C35 C36 1_555 1_555

#END
