
#######################################################################
#
#                 Cambridge Crystallographic Data Centre
#                                CCDC 
#
#######################################################################
#
# If this CIF has been generated from an entry in the Cambridge 
# Structural Database, then it will include bibliographic, chemical, 
# crystal, experimental, refinement or atomic coordinate data resulting 
# from the CCDC's data processing and validation procedures.
#
#######################################################################

data_POYLAR
_chemical_formula_moiety         'C18 H8 F12 I2 O3'
_chemical_name_systematic        
1,1'-Oxy-bis(3,3-bis(trifluoromethyl)-1,3-dihydro-1,2-benziodoxole)
_symmetry_cell_setting           monoclinic
_symmetry_space_group_name_H-M   'P 21/n'
_symmetry_Int_Tables_number      14
_space_group_name_Hall           '-P 2yn'
loop_
_symmetry_equiv_pos_site_id
_symmetry_equiv_pos_as_xyz
1 x,y,z
2 1/2-x,1/2+y,1/2-z
3 -x,-y,-z
4 1/2+x,1/2-y,1/2+z
_cell_length_a                   11.4751(10)
_cell_length_b                   13.1378(11)
_cell_length_c                   14.3151(12)
_cell_angle_alpha                90
_cell_angle_beta                 95.2220(10)
_cell_angle_gamma                90
_cell_volume                     2149.15
_exptl_crystal_colour            colorless
_exptl_crystal_description       block
_chemical_melting_point          '240-241 deg.C'
_cell_formula_units_Z            4
_exptl_crystal_recrystallization_method dichloromethane
loop_
_atom_site_label
_atom_site_type_symbol
_atom_site_fract_x
_atom_site_fract_y
_atom_site_fract_z
I1 I 0.068668(10) -0.063253(10) 0.634351(9)
O1 O 0.11926(12) 0.02649(12) 0.51869(10)
C1 C 0.24666(17) -0.03645(17) 0.67331(14)
C2 C 0.30563(19) -0.08661(18) 0.74818(15)
H1 H 0.2673 -0.1356 0.7834
C3 C 0.4231(2) -0.0629(2) 0.77032(17)
H2 H 0.4665 -0.0970 0.8207
C4 C 0.47701(19) 0.0099(2) 0.71961(17)
H3 H 0.5567 0.0266 0.7365
C5 C 0.4162(2) 0.05892(19) 0.64422(17)
H4 H 0.4540 0.1090 0.6098
C6 C 0.29911(18) 0.03426(17) 0.61928(15)
C7 C 0.22545(18) 0.07612(17) 0.53327(15)
C8 C 0.2001(2) 0.19017(18) 0.54626(17)
C9 C 0.2903(2) 0.05762(18) 0.44464(16)
F1 F 0.29559(13) 0.24685(11) 0.56378(12)
F2 F 0.13852(14) 0.23038(11) 0.47071(11)
F3 F 0.13550(14) 0.20250(12) 0.61878(11)
F4 F 0.38288(13) 0.11878(13) 0.43996(11)
F5 F 0.22022(13) 0.07269(12) 0.36580(10)
F6 F 0.32775(13) -0.03791(12) 0.44271(10)
O2 O 0.05847(13) -0.14996(12) 0.75067(11)
I2 I -0.010070(11) -0.092651(11) 0.865456(9)
O3 O -0.10894(14) -0.05691(13) 0.98095(12)
C10 C -0.15400(18) -0.19152(16) 0.84095(15)
C11 C -0.1665(2) -0.25502(18) 0.76355(16)
H5 H -0.1084 -0.2579 0.7204
C12 C -0.2669(2) -0.31445(19) 0.75101(18)
H6 H -0.2788 -0.3579 0.6979
C13 C -0.3500(2) -0.31073(19) 0.81567(19)
H7 H -0.4186 -0.3512 0.8061
C14 C -0.3338(2) -0.24862(18) 0.89394(18)
H8 H -0.3901 -0.2480 0.9386
C15 C -0.23452(18) -0.18686(17) 0.90713(16)
C16 C -0.20947(18) -0.11289(17) 0.98883(15)
C17 C -0.1915(2) -0.17156(19) 1.08284(17)
C18 C -0.3105(2) -0.03545(18) 0.98937(17)
F7 F -0.10414(17) -0.23739(15) 1.07920(13)
F8 F -0.28582(15) -0.22332(14) 1.10298(11)
F9 F -0.16311(14) -0.10944(12) 1.15532(10)
F10 F -0.32969(15) 0.00751(12) 0.90511(11)
F11 F -0.41126(13) -0.07745(12) 1.00954(13)
F12 F -0.28589(13) 0.03939(11) 1.05085(10)
loop_
_geom_bond_atom_site_label_1
_geom_bond_atom_site_label_2
_geom_bond_site_symmetry_1
_geom_bond_site_symmetry_2
I1 O1 1_555 1_555
O1 C7 1_555 1_555
C1 I1 1_555 1_555
C2 C1 1_555 1_555
H1 C2 1_555 1_555
C3 C2 1_555 1_555
H2 C3 1_555 1_555
C4 C3 1_555 1_555
H3 C4 1_555 1_555
C5 C4 1_555 1_555
H4 C5 1_555 1_555
C6 C1 1_555 1_555
C7 C6 1_555 1_555
C8 C7 1_555 1_555
C9 C7 1_555 1_555
F1 C8 1_555 1_555
F2 C8 1_555 1_555
F3 C8 1_555 1_555
F4 C9 1_555 1_555
F5 C9 1_555 1_555
F6 C9 1_555 1_555
O2 I1 1_555 1_555
I2 O2 1_555 1_555
O3 I2 1_555 1_555
C10 I2 1_555 1_555
C11 C10 1_555 1_555
H5 C11 1_555 1_555
C12 C11 1_555 1_555
H6 C12 1_555 1_555
C13 C12 1_555 1_555
H7 C13 1_555 1_555
C14 C13 1_555 1_555
H8 C14 1_555 1_555
C15 C10 1_555 1_555
C16 O3 1_555 1_555
C17 C16 1_555 1_555
C18 C16 1_555 1_555
F7 C17 1_555 1_555
F8 C17 1_555 1_555
F9 C17 1_555 1_555
F10 C18 1_555 1_555
F11 C18 1_555 1_555
F12 C18 1_555 1_555
C5 C6 1_555 1_555
C14 C15 1_555 1_555
C15 C16 1_555 1_555

#END
