
#######################################################################
#
#                 Cambridge Crystallographic Data Centre
#                                CCDC 
#
#######################################################################
#
# If this CIF has been generated from an entry in the Cambridge 
# Structural Database, then it will include bibliographic, chemical, 
# crystal, experimental, refinement or atomic coordinate data resulting 
# from the CCDC's data processing and validation procedures.
#
#######################################################################

data_POYNOH
_chemical_formula_moiety         'C13 H20 Br2 N2 O2'
_chemical_name_systematic        
4,4'-(1,2-Propanediyldiimino)-bis(3-bromopent-3-en-2-one)
_symmetry_cell_setting           monoclinic
_symmetry_space_group_name_H-M   'C 2/c'
_symmetry_Int_Tables_number      15
_space_group_name_Hall           '-C 2yn'
loop_
_symmetry_equiv_pos_site_id
_symmetry_equiv_pos_as_xyz
1 x,y,z
2 -x,y,1/2-z
3 1/2+x,1/2+y,z
4 1/2-x,1/2+y,1/2-z
5 -x,-y,-z
6 x,-y,1/2+z
7 1/2-x,1/2-y,-z
8 1/2+x,1/2-y,1/2+z
_cell_length_a                   15.3661(13)
_cell_length_b                   9.1576(13)
_cell_length_c                   12.6284(13)
_cell_angle_alpha                90
_cell_angle_beta                 108.169(6)
_cell_angle_gamma                90
_cell_volume                     1688.42
_chemical_melting_point          '84-86 deg.C'
_cell_formula_units_Z            4
loop_
_atom_site_label
_atom_site_type_symbol
_atom_site_fract_x
_atom_site_fract_y
_atom_site_fract_z
C1 C 0.647(2) 0.116(2) 0.036(2)
H1 H 0.6351 0.1371 -0.0417
H2 H 0.6087 0.0356 0.0435
H3 H 0.7099 0.0900 0.0689
C2 C 0.5753(19) 0.734(3) 0.2017(16)
H4 H 0.6400 0.7314 0.2130
H5 H 0.5600 0.8225 0.2326
H6 H 0.5429 0.7305 0.1233
C3 C 0.6338(9) 0.3400(16) 0.3863(8)
H7 H 0.6157 0.4271 0.4163
H8 H 0.6983 0.3247 0.4199
H9 H 0.6009 0.2580 0.4020
C4 C 0.6129(6) 0.3557(12) 0.2652(9)
C5 C 0.6343(8) 0.2399(14) 0.2039(11)
C6 C 0.6257(10) 0.2438(15) 0.0920(12)
C7 C 0.5491(8) 0.6076(12) 0.2570(8)
H10 H 0.5825 0.6133 0.3368
N1 N 0.5793(6) 0.4757(10) 0.2121(7)
H11 H 0.5742 0.4777 0.1423
O1 O 0.5867(10) 0.3560(12) 0.0322(8)
Br1 Br 0.68936(18) 0.0729(2) 0.2828(2)
C1A C 0.353(2) 0.116(2) 0.464(2)
H1A H 0.3649 0.1371 0.5417
H2A H 0.3913 0.0356 0.4565
H3A H 0.2901 0.0900 0.4311
C2A C 0.4247(19) 0.734(3) 0.2983(16)
H4A H 0.3600 0.7314 0.2870
H5A H 0.4400 0.8225 0.2674
H6A H 0.4571 0.7305 0.3767
C3A C 0.3662(9) 0.3400(16) 0.1137(8)
H7A H 0.3843 0.4271 0.0837
H8A H 0.3017 0.3247 0.0801
H9A H 0.3991 0.2580 0.0980
C4A C 0.3871(6) 0.3557(12) 0.2348(9)
C5A C 0.3657(8) 0.2399(14) 0.2961(11)
C6A C 0.3743(10) 0.2438(15) 0.4080(12)
C7A C 0.4509(8) 0.6076(12) 0.2430(8)
H10A H 0.4175 0.6133 0.1632
N1A N 0.4207(6) 0.4757(10) 0.2879(7)
H11A H 0.4258 0.4777 0.3577
O1A O 0.4133(10) 0.3560(12) 0.4678(8)
Br1A Br 0.31064(18) 0.0729(2) 0.2172(2)
loop_
_geom_bond_atom_site_label_1
_geom_bond_atom_site_label_2
_geom_bond_site_symmetry_1
_geom_bond_site_symmetry_2
C1 H1 1_555 1_555
H2 C1 1_555 1_555
H3 C1 1_555 1_555
C2 H4 1_555 1_555
H5 C2 1_555 1_555
H6 C2 1_555 1_555
C3 H7 1_555 1_555
H8 C3 1_555 1_555
H9 C3 1_555 1_555
C4 C3 1_555 1_555
C5 C4 1_555 1_555
C6 C1 1_555 1_555
C7 C2 1_555 1_555
H10 C7 1_555 1_555
N1 C4 1_555 1_555
H11 N1 1_555 1_555
O1 C6 1_555 1_555
Br1 C5 1_555 1_555
C1A H1A 1_555 1_555
H2A C1A 1_555 1_555
H3A C1A 1_555 1_555
C2A H4A 1_555 1_555
H5A C2A 1_555 1_555
H6A C2A 1_555 1_555
C3A H7A 1_555 1_555
H8A C3A 1_555 1_555
H9A C3A 1_555 1_555
C4A C3A 1_555 1_555
C5A C4A 1_555 1_555
C6A C1A 1_555 1_555
C7A C7 1_555 1_555
H10A C7A 1_555 1_555
N1A C4A 1_555 1_555
H11A N1A 1_555 1_555
O1A C6A 1_555 1_555
Br1A C5A 1_555 1_555
C5 C6 1_555 1_555
C7 N1 1_555 1_555
C2A C7A 1_555 1_555
C5A C6A 1_555 1_555
C7A N1A 1_555 1_555

#END
