
#######################################################################
#
#                 Cambridge Crystallographic Data Centre
#                                CCDC 
#
#######################################################################
#
# If this CIF has been generated from an entry in the Cambridge 
# Structural Database, then it will include bibliographic, chemical, 
# crystal, experimental, refinement or atomic coordinate data resulting 
# from the CCDC's data processing and validation procedures.
#
#######################################################################

data_POYNIB
_chemical_formula_moiety         'C12 H18 Br2 N2 O2'
_chemical_name_systematic        
4,4'-(1,2-Ethanediyldiimino)-bis(3-bromopent-3-en-2-one)
_symmetry_cell_setting           monoclinic
_symmetry_space_group_name_H-M   'P 21/n'
_symmetry_Int_Tables_number      14
_space_group_name_Hall           '-P 2yn'
loop_
_symmetry_equiv_pos_site_id
_symmetry_equiv_pos_as_xyz
1 x,y,z
2 1/2-x,1/2+y,1/2-z
3 -x,-y,-z
4 1/2+x,1/2-y,1/2+z
_cell_length_a                   5.627(10)
_cell_length_b                   10.278(17)
_cell_length_c                   12.48(2)
_cell_angle_alpha                90
_cell_angle_beta                 98.068(18)
_cell_angle_gamma                90
_cell_volume                     714.628
_chemical_melting_point          '116-118 deg.C'
_cell_formula_units_Z            2
loop_
_atom_site_label
_atom_site_type_symbol
_atom_site_fract_x
_atom_site_fract_y
_atom_site_fract_z
C1 C -0.1963(5) 0.0105(4) 0.7654(2)
H1 H -0.3191 -0.0496 0.7792
H2 H -0.0530 -0.0367 0.7567
H3 H -0.2498 0.0586 0.7006
C2 C -0.1453(5) 0.1015(2) 0.8576(2)
C3 C 0.0244(5) 0.1999(2) 0.8611(2)
C4 C 0.0793(5) 0.2871(3) 0.9494(3)
C5 C 0.2686(6) 0.3892(3) 0.9481(3)
H4 H 0.2859 0.4367 1.0149
H5 H 0.2229 0.4477 0.8888
H6 H 0.4185 0.3485 0.9397
C6 C -0.4511(4) -0.0095(3) 0.9474(2)
H7 H -0.3832 -0.0960 0.9448
H8 H -0.5791 -0.0005 0.8871
N1 N -0.2680(4) 0.0874(2) 0.93980(17)
H9 H -0.2362 0.1403 0.9933
O1 O -0.0245(5) 0.2798(2) 1.03016(19)
Br1 Br 0.19859(5) 0.21615(3) 0.74086(2)
C1B C -0.8037(5) -0.0105(4) 1.2346(2)
H1B H -0.6809 0.0496 1.2208
H2B H -0.9470 0.0367 1.2433
H3B H -0.7502 -0.0586 1.2994
C2B C -0.8547(5) -0.1015(2) 1.1424(2)
C3B C -1.0244(5) -0.1999(2) 1.1389(2)
C4B C -1.0793(5) -0.2871(3) 1.0506(3)
C5B C -1.2686(6) -0.3892(3) 1.0519(3)
H4B H -1.2859 -0.4367 0.9851
H5B H -1.2229 -0.4477 1.1112
H6B H -1.4185 -0.3485 1.0603
C6B C -0.5489(4) 0.0095(3) 1.0526(2)
H7B H -0.6168 0.0960 1.0552
H8B H -0.4209 0.0005 1.1129
N1B N -0.7320(4) -0.0874(2) 1.06020(17)
H9B H -0.7638 -0.1403 1.0067
O1B O -0.9755(5) -0.2798(2) 0.96984(19)
Br1B Br -1.19859(5) -0.21615(3) 1.25914(2)
loop_
_geom_bond_atom_site_label_1
_geom_bond_atom_site_label_2
_geom_bond_site_symmetry_1
_geom_bond_site_symmetry_2
C1 H1 1_555 1_555
H2 C1 1_555 1_555
H3 C1 1_555 1_555
C2 C1 1_555 1_555
C3 C2 1_555 1_555
C4 C3 1_555 1_555
C5 C4 1_555 1_555
H4 C5 1_555 1_555
H5 C5 1_555 1_555
H6 C5 1_555 1_555
C6 H7 1_555 1_555
H8 C6 1_555 1_555
N1 C2 1_555 1_555
H9 N1 1_555 1_555
O1 C4 1_555 1_555
Br1 C3 1_555 1_555
C1B H1B 1_555 1_555
H2B C1B 1_555 1_555
H3B C1B 1_555 1_555
C2B C1B 1_555 1_555
C3B C2B 1_555 1_555
C4B C3B 1_555 1_555
C5B C4B 1_555 1_555
H4B C5B 1_555 1_555
H5B C5B 1_555 1_555
H6B C5B 1_555 1_555
C6B C6 1_555 1_555
H7B C6B 1_555 1_555
H8B C6B 1_555 1_555
N1B C2B 1_555 1_555
H9B N1B 1_555 1_555
O1B C4B 1_555 1_555
Br1B C3B 1_555 1_555
C6 N1 1_555 1_555
C6B N1B 1_555 1_555

#END
