
#######################################################################
#
#                 Cambridge Crystallographic Data Centre
#                                CCDC 
#
#######################################################################
#
# If this CIF has been generated from an entry in the Cambridge 
# Structural Database, then it will include bibliographic, chemical, 
# crystal, experimental, refinement or atomic coordinate data resulting 
# from the CCDC's data processing and validation procedures.
#
#######################################################################

data_POYWOQ
_chemical_formula_moiety         'C19 H27 N1 O1'
_chemical_name_systematic        3-(2-Hexyltetrahydro-2H-pyran-2-yl)-1H-indole
_symmetry_cell_setting           monoclinic
_symmetry_space_group_name_H-M   'P 21/n'
_symmetry_Int_Tables_number      14
_space_group_name_Hall           '-P 2yn'
loop_
_symmetry_equiv_pos_site_id
_symmetry_equiv_pos_as_xyz
1 x,y,z
2 1/2-x,1/2+y,1/2-z
3 -x,-y,-z
4 1/2+x,1/2-y,1/2+z
_cell_length_a                   7.4333(5)
_cell_length_b                   15.8825(13)
_cell_length_c                   15.0972(10)
_cell_angle_alpha                90
_cell_angle_beta                 106.1198(16)
_cell_angle_gamma                90
_cell_volume                     1712.29
_exptl_crystal_colour            colorless
_exptl_crystal_description       platelet
_chemical_melting_point          97-99deg.C
_cell_formula_units_Z            4
_exptl_crystal_recrystallization_method 'ethyl acetate/n-hexane'
loop_
_atom_site_label
_atom_site_type_symbol
_atom_site_fract_x
_atom_site_fract_y
_atom_site_fract_z
O1 O -0.12955(12) 0.26914(10) 0.15528(8)
N1 N 0.48815(18) 0.30708(11) 0.15766(11)
C1 C 0.3718(2) 0.34438(13) 0.08125(13)
C2 C 0.4124(2) 0.37950(16) 0.00516(17)
C3 C 0.2685(3) 0.41175(16) -0.06276(17)
C4 C 0.0856(3) 0.40941(16) -0.05588(14)
C5 C 0.0443(2) 0.37507(13) 0.01986(13)
C6 C 0.1892(2) 0.34181(12) 0.09119(12)
C7 C 0.2002(2) 0.30153(12) 0.17779(12)
C8 C 0.3845(2) 0.28092(12) 0.21514(12)
C9 C 0.0439(2) 0.29293(12) 0.22390(12)
C10 C -0.1264(2) 0.18593(17) 0.11858(14)
C11 C -0.0978(2) 0.11993(16) 0.19273(16)
C12 C 0.0820(2) 0.13756(14) 0.26776(13)
C13 C 0.0849(2) 0.22814(13) 0.30153(12)
C14 C -0.0058(2) 0.37912(12) 0.25550(12)
C15 C 0.1455(2) 0.41919(12) 0.33242(12)
C16 C 0.0884(2) 0.50328(12) 0.36406(12)
C17 C 0.2302(2) 0.53812(12) 0.44862(12)
C18 C 0.1763(2) 0.62105(12) 0.48214(12)
C19 C 0.3180(2) 0.65462(13) 0.56724(12)
H1 H 0.6072 0.3010 0.1680
H2 H 0.5346 0.3810 0.0006
H3 H 0.2926 0.4357 -0.1145
H4 H -0.0106 0.4315 -0.1034
H5 H -0.0785 0.3740 0.0235
H6 H 0.4325 0.2533 0.2711
H7 H -0.0249 0.1823 0.0899
H8 H -0.2445 0.1755 0.0727
H9 H -0.0898 0.0649 0.1662
H10 H -0.2027 0.1209 0.2192
H11 H 0.0904 0.0995 0.3190
H12 H 0.1881 0.1286 0.2433
H13 H -0.0087 0.2339 0.3349
H14 H 0.2079 0.2397 0.3428
H15 H -0.0329 0.4168 0.2029
H16 H -0.1168 0.3727 0.2767
H17 H 0.2554 0.4278 0.3108
H18 H 0.1760 0.3810 0.3846
H19 H 0.0732 0.5435 0.3142
H20 H -0.0301 0.4961 0.3784
H21 H 0.3482 0.5456 0.4338
H22 H 0.2462 0.4974 0.4981
H23 H 0.1618 0.6621 0.4331
H24 H 0.0577 0.6139 0.4963
H25 H 0.4333 0.6667 0.5529
H26 H 0.2706 0.7052 0.5874
H27 H 0.3400 0.6132 0.6154
loop_
_geom_bond_atom_site_label_1
_geom_bond_atom_site_label_2
_geom_bond_site_symmetry_1
_geom_bond_site_symmetry_2
O1 C9 1_555 1_555
N1 C1 1_555 1_555
C1 C2 1_555 1_555
C2 C3 1_555 1_555
C3 C4 1_555 1_555
C4 C5 1_555 1_555
C5 C6 1_555 1_555
C6 C1 1_555 1_555
C7 C6 1_555 1_555
C8 N1 1_555 1_555
C9 C7 1_555 1_555
C10 O1 1_555 1_555
C11 C10 1_555 1_555
C12 C11 1_555 1_555
C13 C9 1_555 1_555
C14 C9 1_555 1_555
C15 C14 1_555 1_555
C16 C15 1_555 1_555
C17 C16 1_555 1_555
C18 C17 1_555 1_555
C19 C18 1_555 1_555
H1 N1 1_555 1_555
H2 C2 1_555 1_555
H3 C3 1_555 1_555
H4 C4 1_555 1_555
H5 C5 1_555 1_555
H6 C8 1_555 1_555
H7 C10 1_555 1_555
H8 C10 1_555 1_555
H9 C11 1_555 1_555
H10 C11 1_555 1_555
H11 C12 1_555 1_555
H12 C12 1_555 1_555
H13 C13 1_555 1_555
H14 C13 1_555 1_555
H15 C14 1_555 1_555
H16 C14 1_555 1_555
H17 C15 1_555 1_555
H18 C15 1_555 1_555
H19 C16 1_555 1_555
H20 C16 1_555 1_555
H21 C17 1_555 1_555
H22 C17 1_555 1_555
H23 C18 1_555 1_555
H24 C18 1_555 1_555
H25 C19 1_555 1_555
H26 C19 1_555 1_555
H27 C19 1_555 1_555
C7 C8 1_555 1_555
C12 C13 1_555 1_555

#END
