
#######################################################################
#
#                 Cambridge Crystallographic Data Centre
#                                CCDC 
#
#######################################################################
#
# If this CIF has been generated from an entry in the Cambridge 
# Structural Database, then it will include bibliographic, chemical, 
# crystal, experimental, refinement or atomic coordinate data resulting 
# from the CCDC's data processing and validation procedures.
#
#######################################################################

data_POYWUW
_chemical_compound_source        'club moss Lycopodium japonicum'
_chemical_name_common            'Lycojapodine A'
_chemical_formula_moiety         'C16 H23 N1 O3'
_chemical_name_systematic        
16-Methyl-5-oxa-7-azatetracyclo[5.4.3.3^2,6^.0^1,6^]heptadecane-4,11-dione
_chemical_properties_biological  
'tested for inhibitory activity on acetylcholinesterase and anti-HIV-1'
_symmetry_cell_setting           monoclinic
_symmetry_space_group_name_H-M   'P 21'
_symmetry_Int_Tables_number      4
_space_group_name_Hall           'P 2yb'
loop_
_symmetry_equiv_pos_site_id
_symmetry_equiv_pos_as_xyz
1 x,y,z
2 -x,1/2+y,-z
_cell_length_a                   7.1643(8)
_cell_length_b                   10.6250(12)
_cell_length_c                   9.4329(11)
_cell_angle_alpha                90
_cell_angle_beta                 97.1230(10)
_cell_angle_gamma                90
_cell_volume                     712.497
_exptl_crystal_colour            colorless
_exptl_crystal_description       irregular
_chemical_melting_point          167-168deg.C
_cell_formula_units_Z            2
_exptl_crystal_recrystallization_method methanol
loop_
_atom_site_label
_atom_site_type_symbol
_atom_site_fract_x
_atom_site_fract_y
_atom_site_fract_z
C1 C 0.53744(18) 0.36800(13) 0.79374(15)
H1 H 0.5511 0.3770 0.8968
H2 H 0.6580 0.3402 0.7686
C2 C 0.3962(2) 0.26301(14) 0.75382(17)
H3 H 0.4422 0.1865 0.8022
H4 H 0.3882 0.2480 0.6518
C3 C 0.1979(2) 0.29101(14) 0.79203(16)
H5 H 0.1264 0.2133 0.7864
H6 H 0.2086 0.3200 0.8902
C4 C 0.08990(17) 0.38801(12) 0.69765(13)
C5 C 0.18173(18) 0.55281(14) 0.99051(13)
C6 C -0.00651(17) 0.57053(13) 0.90237(13)
H7 H -0.0754 0.6344 0.9479
H8 H -0.0764 0.4925 0.9040
C7 C -0.00219(16) 0.60858(12) 0.74619(13)
H9 H -0.1245 0.5886 0.6923
C8 C 0.03409(18) 0.75001(13) 0.73262(14)
H10 H 0.0277 0.7718 0.6323
H11 H -0.0638 0.7964 0.7724
C9 C 0.51098(17) 0.50142(14) 0.57739(13)
H12 H 0.6054 0.4422 0.5537
H13 H 0.5540 0.5851 0.5562
C10 C 0.32814(17) 0.47520(16) 0.48010(14)
H14 H 0.3440 0.4973 0.3825
H15 H 0.2992 0.3861 0.4826
C11 C 0.16507(16) 0.55083(13) 0.52722(11)
H16 H 0.0484 0.5260 0.4707
H17 H 0.1848 0.6397 0.5111
C12 C 0.15017(15) 0.52817(11) 0.68685(12)
C13 C 0.34000(15) 0.56361(11) 0.77288(11)
C14 C 0.38010(18) 0.70513(11) 0.76455(14)
H18 H 0.4964 0.7235 0.8251
H19 H 0.3989 0.7259 0.6672
C15 C 0.22537(18) 0.78938(12) 0.80924(13)
H20 H 0.2225 0.7781 0.9121
C16 C 0.2658(2) 0.92762(14) 0.78295(16)
H21 H 0.2701 0.9410 0.6828
H22 H 0.3846 0.9503 0.8352
H23 H 0.1682 0.9786 0.8143
N1 N 0.50044(13) 0.49346(10) 0.73171(10)
O1 O 0.33819(11) 0.53785(8) 0.92483(8)
O2 O 0.19978(15) 0.54572(13) 1.11848(10)
O3 O -0.05494(12) 0.35691(9) 0.62571(10)
loop_
_geom_bond_atom_site_label_1
_geom_bond_atom_site_label_2
_geom_bond_site_symmetry_1
_geom_bond_site_symmetry_2
C1 H1 1_555 1_555
H2 C1 1_555 1_555
C2 C1 1_555 1_555
H3 C2 1_555 1_555
H4 C2 1_555 1_555
C3 C2 1_555 1_555
H5 C3 1_555 1_555
H6 C3 1_555 1_555
C4 C3 1_555 1_555
C5 C6 1_555 1_555
C6 H7 1_555 1_555
H8 C6 1_555 1_555
C7 C6 1_555 1_555
H9 C7 1_555 1_555
C8 C7 1_555 1_555
H10 C8 1_555 1_555
H11 C8 1_555 1_555
C9 H12 1_555 1_555
H13 C9 1_555 1_555
C10 C9 1_555 1_555
H14 C10 1_555 1_555
H15 C10 1_555 1_555
C11 C10 1_555 1_555
H16 C11 1_555 1_555
H17 C11 1_555 1_555
C12 C4 1_555 1_555
C13 C12 1_555 1_555
C14 C13 1_555 1_555
H18 C14 1_555 1_555
H19 C14 1_555 1_555
C15 C8 1_555 1_555
H20 C15 1_555 1_555
C16 C15 1_555 1_555
H21 C16 1_555 1_555
H22 C16 1_555 1_555
H23 C16 1_555 1_555
N1 C1 1_555 1_555
O1 C5 1_555 1_555
O2 C5 1_555 1_555
O3 C4 1_555 1_555
C7 C12 1_555 1_555
C9 N1 1_555 1_555
C11 C12 1_555 1_555
C13 N1 1_555 1_555
C13 O1 1_555 1_555
C14 C15 1_555 1_555

#END
