
#######################################################################
#
#                 Cambridge Crystallographic Data Centre
#                                CCDC 
#
#######################################################################
#
# If this CIF has been generated from an entry in the Cambridge 
# Structural Database, then it will include bibliographic, chemical, 
# crystal, experimental, refinement or atomic coordinate data resulting 
# from the CCDC's data processing and validation procedures.
#
#######################################################################

data_POYWEG
_chemical_name_common            
'2,3,10,14,19,23-Hexaethyl-9,15,18,24-tetramethylpentaphyrin-(3.1.0.1.3) bis(trifluoroacetate)'
_chemical_formula_moiety         'C44 H55 N5 2+,2(C2 F3 O2 1-)'
_chemical_name_systematic        
'(4,8,15,16,23,27-Hexaethyl-3,9,22,28-tetramethyl-30,32,33-triazahexacyclo[24.2.1.1^2,5^.1^7,10^.1^14,17^.1^21,24^]tritriaconta-1,3,5,7,9,11,13,15,17,19,21,23,25,27-tetradecaene-29,31-diazonium) bis(trifluoroacetate)'
_symmetry_cell_setting           triclinic
_symmetry_space_group_name_H-M   'P -1'
_symmetry_Int_Tables_number      2
_space_group_name_Hall           '-P 1'
loop_
_symmetry_equiv_pos_site_id
_symmetry_equiv_pos_as_xyz
1 x,y,z
2 -x,-y,-z
_cell_length_a                   10.599(2)
_cell_length_b                   12.260(3)
_cell_length_c                   18.013(4)
_cell_angle_alpha                79.539(4)
_cell_angle_beta                 86.515(4)
_cell_angle_gamma                78.451(4)
_cell_volume                     2254.44
_exptl_crystal_colour            green
_exptl_crystal_description       plate
_chemical_melting_point          'above 300deg.C'
_cell_formula_units_Z            2
_exptl_crystal_recrystallization_method chloroform
loop_
_atom_site_label
_atom_site_type_symbol
_atom_site_fract_x
_atom_site_fract_y
_atom_site_fract_z
N1 N 0.4939(2) 0.17709(18) 0.12696(12)
N2 N 0.4989(2) 0.16864(18) 0.42496(12)
N3 N 0.1674(2) 0.25431(17) 0.45715(12)
N4 N -0.0481(2) 0.33316(17) 0.33996(11)
N5 N -0.0180(2) 0.33151(18) 0.14426(12)
C1 C 0.4640(2) 0.1753(2) 0.05403(14)
C2 C 0.5838(3) 0.1366(2) 0.01564(15)
C3 C 0.5958(3) 0.1221(2) -0.06557(15)
H1 H 0.518 0.0975 -0.0791
H2 H 0.6712 0.0621 -0.0722
C4 C 0.6113(3) 0.2313(3) -0.11878(16)
H3 H 0.6188 0.2181 -0.1711
H4 H 0.6891 0.2552 -0.1062
H5 H 0.536 0.2906 -0.1131
C5 C 0.6810(2) 0.1201(2) 0.06540(15)
C6 C 0.8220(3) 0.0786(2) 0.05195(16)
H6 H 0.8719 0.1225 0.0759
H7 H 0.8416 0.092 -0.003
C7 C 0.8647(3) -0.0468(3) 0.0833(2)
H8 H 0.9572 -0.0698 0.0731
H9 H 0.817 -0.0908 0.059
H10 H 0.8474 -0.0603 0.1379
C8 C 0.6244(2) 0.1463(2) 0.13643(14)
C9 C 0.6856(2) 0.1394(2) 0.20334(14)
H11 H 0.7771 0.123 0.2022
C10 C 0.6236(2) 0.1547(2) 0.27226(14)
H12 H 0.5326 0.1785 0.2732
C11 C 0.6877(2) 0.1369(2) 0.33911(14)
H13 H 0.7792 0.1226 0.3364
C12 C 0.6282(2) 0.1382(2) 0.41091(14)
C13 C 0.6906(2) 0.1001(2) 0.48203(14)
C14 C 0.8324(2) 0.0570(2) 0.48904(15)
H14 H 0.8532 0.0321 0.5425
H15 H 0.8787 0.1174 0.4672
H16 H 0.8584 -0.0069 0.4621
C15 C 0.5960(2) 0.1069(2) 0.53769(14)
C16 C 0.6105(3) 0.0750(2) 0.62147(14)
H17 H 0.6995 0.0334 0.632
H18 H 0.5512 0.023 0.6416
C17 C 0.5827(3) 0.1759(2) 0.66347(16)
H19 H 0.5944 0.1486 0.7177
H20 H 0.4939 0.2163 0.6547
H21 H 0.6422 0.227 0.6448
C18 C 0.4736(2) 0.1514(2) 0.50143(14)
C19 C 0.3569(2) 0.1673(2) 0.54114(14)
H22 H 0.3686 0.1437 0.5939
C20 C 0.2269(2) 0.2083(2) 0.52508(14)
C21 C 0.1279(2) 0.2086(2) 0.58267(14)
C22 C 0.1435(3) 0.1656(2) 0.66551(14)
H23 H 0.2277 0.1135 0.6738
H24 H 0.0752 0.1222 0.6843
C23 C 0.1363(4) 0.2607(3) 0.71033(17)
H25 H 0.1469 0.2288 0.7641
H26 H 0.0524 0.3117 0.7032
H27 H 0.2049 0.3029 0.6926
C24 C 0.0114(2) 0.2567(2) 0.54867(14)
C25 C -0.1173(2) 0.2556(2) 0.58799(14)
H28 H -0.1158 0.1822 0.6208
H29 H -0.184 0.268 0.5504
H30 H -0.1362 0.3157 0.6185
C26 C 0.0384(2) 0.28847(19) 0.47000(14)
C27 C -0.0534(2) 0.3462(2) 0.41419(13)
C28 C -0.1669(2) 0.4268(2) 0.42563(14)
C29 C -0.1999(3) 0.4866(2) 0.49182(14)
H31 H -0.2234 0.5682 0.4738
H32 H -0.1252 0.4707 0.5243
H33 H -0.2726 0.46 0.5206
C30 C -0.2321(2) 0.4549(2) 0.35894(14)
C31 C -0.3610(2) 0.5325(2) 0.34703(15)
H34 H -0.3654 0.5732 0.2942
H35 H -0.3707 0.5894 0.3806
C32 C -0.4715(3) 0.4676(3) 0.3633(2)
H36 H -0.5539 0.5206 0.3549
H37 H -0.4685 0.4284 0.4159
H38 H -0.463 0.4121 0.3295
C33 C -0.1568(2) 0.3971(2) 0.30396(14)
C34 C -0.1929(2) 0.4143(2) 0.22887(14)
H39 H -0.2798 0.4531 0.2232
C35 C -0.1384(2) 0.3911(2) 0.15999(14)
C36 C -0.2000(2) 0.4341(2) 0.08869(14)
C37 C -0.3312(2) 0.5081(2) 0.07875(15)
H40 H -0.3374 0.5505 0.0264
H41 H -0.3418 0.5638 0.1133
C38 C -0.4406(3) 0.4421(2) 0.09437(16)
H42 H -0.5235 0.4946 0.0867
H43 H -0.4368 0.4016 0.1466
H44 H -0.4318 0.3876 0.0598
C39 C -0.1172(2) 0.3974(2) 0.03260(14)
C40 C -0.1364(3) 0.4200(2) -0.05067(14)
H45 H -0.2177 0.4733 -0.0623
H46 H -0.1391 0.349 -0.0678
H47 H -0.0649 0.4524 -0.0766
C41 C -0.0014(2) 0.3335(2) 0.06789(14)
C42 C 0.1123(2) 0.2893(2) 0.03107(15)
H48 H 0.1086 0.2891 -0.0215
C43 C 0.2295(2) 0.2458(2) 0.06492(14)
H49 H 0.2338 0.2412 0.118
C44 C 0.3420(2) 0.2084(2) 0.02481(14)
H50 H 0.3339 0.2055 -0.027
H51 H 0.441(3) 0.210(2) 0.1591(15)
H52 H 0.440(3) 0.201(2) 0.3907(16)
H53 H 0.210(3) 0.275(2) 0.4139(16)
H54 H 0.005(3) 0.288(2) 0.3202(15)
H55 H 0.039(3) 0.287(2) 0.1810(15)
O1 O 0.31423(16) 0.29455(15) 0.32700(10)
O2 O 0.33449(17) 0.33845(15) 0.20061(10)
C45 C 0.2943(2) 0.35624(18) 0.26347(12)
C46 C 0.2083(3) 0.4738(2) 0.26417(14)
F1 F 0.10228(14) 0.48838(13) 0.22414(8)
F2 F 0.16840(16) 0.49244(13) 0.33350(8)
F3 F 0.27073(16) 0.55699(13) 0.23347(10)
O3 O 0.10901(17) 0.18465(14) 0.26153(10)
O4 O 0.03213(19) 0.03761(16) 0.32860(11)
C47 C 0.0885(2) 0.08203(18) 0.27403(12)
C48 C 0.1503(3) 0.0151(2) 0.21448(15)
F4 F 0.27388(15) 0.02204(13) 0.19843(9)
F5 F 0.14618(17) -0.09528(13) 0.23289(9)
F6 F 0.08737(16) 0.05295(14) 0.14923(9)
loop_
_geom_bond_atom_site_label_1
_geom_bond_atom_site_label_2
_geom_bond_site_symmetry_1
_geom_bond_site_symmetry_2
N1 C1 1_555 1_555
N2 C12 1_555 1_555
N3 C20 1_555 1_555
N4 C27 1_555 1_555
N5 C35 1_555 1_555
C1 C2 1_555 1_555
C2 C3 1_555 1_555
C3 H1 1_555 1_555
H2 C3 1_555 1_555
C4 C3 1_555 1_555
H3 C4 1_555 1_555
H4 C4 1_555 1_555
H5 C4 1_555 1_555
C5 C2 1_555 1_555
C6 C5 1_555 1_555
H6 C6 1_555 1_555
H7 C6 1_555 1_555
C7 C6 1_555 1_555
H8 C7 1_555 1_555
H9 C7 1_555 1_555
H10 C7 1_555 1_555
C8 N1 1_555 1_555
C9 C8 1_555 1_555
H11 C9 1_555 1_555
C10 C9 1_555 1_555
H12 C10 1_555 1_555
C11 C10 1_555 1_555
H13 C11 1_555 1_555
C12 C11 1_555 1_555
C13 C12 1_555 1_555
C14 C13 1_555 1_555
H14 C14 1_555 1_555
H15 C14 1_555 1_555
H16 C14 1_555 1_555
C15 C13 1_555 1_555
C16 C15 1_555 1_555
H17 C16 1_555 1_555
H18 C16 1_555 1_555
C17 C16 1_555 1_555
H19 C17 1_555 1_555
H20 C17 1_555 1_555
H21 C17 1_555 1_555
C18 N2 1_555 1_555
C19 C18 1_555 1_555
H22 C19 1_555 1_555
C20 C19 1_555 1_555
C21 C20 1_555 1_555
C22 C21 1_555 1_555
H23 C22 1_555 1_555
H24 C22 1_555 1_555
C23 C22 1_555 1_555
H25 C23 1_555 1_555
H26 C23 1_555 1_555
H27 C23 1_555 1_555
C24 C21 1_555 1_555
C25 C24 1_555 1_555
H28 C25 1_555 1_555
H29 C25 1_555 1_555
H30 C25 1_555 1_555
C26 N3 1_555 1_555
C27 C26 1_555 1_555
C28 C27 1_555 1_555
C29 C28 1_555 1_555
H31 C29 1_555 1_555
H32 C29 1_555 1_555
H33 C29 1_555 1_555
C30 C28 1_555 1_555
C31 C30 1_555 1_555
H34 C31 1_555 1_555
H35 C31 1_555 1_555
C32 C31 1_555 1_555
H36 C32 1_555 1_555
H37 C32 1_555 1_555
H38 C32 1_555 1_555
C33 N4 1_555 1_555
C34 C33 1_555 1_555
H39 C34 1_555 1_555
C35 C34 1_555 1_555
C36 C35 1_555 1_555
C37 C36 1_555 1_555
H40 C37 1_555 1_555
H41 C37 1_555 1_555
C38 C37 1_555 1_555
H42 C38 1_555 1_555
H43 C38 1_555 1_555
H44 C38 1_555 1_555
C39 C36 1_555 1_555
C40 C39 1_555 1_555
H45 C40 1_555 1_555
H46 C40 1_555 1_555
H47 C40 1_555 1_555
C41 N5 1_555 1_555
C42 C41 1_555 1_555
H48 C42 1_555 1_555
C43 C42 1_555 1_555
H49 C43 1_555 1_555
C44 C1 1_555 1_555
H50 C44 1_555 1_555
H51 N1 1_555 1_555
H52 N2 1_555 1_555
H53 N3 1_555 1_555
H54 N4 1_555 1_555
H55 N5 1_555 1_555
O1 C45 1_555 1_555
O2 C45 1_555 1_555
C45 C46 1_555 1_555
C46 F1 1_555 1_555
F2 C46 1_555 1_555
F3 C46 1_555 1_555
O3 C47 1_555 1_555
O4 C47 1_555 1_555
C47 C48 1_555 1_555
C48 F4 1_555 1_555
F5 C48 1_555 1_555
F6 C48 1_555 1_555
C5 C8 1_555 1_555
C15 C18 1_555 1_555
C24 C26 1_555 1_555
C30 C33 1_555 1_555
C39 C41 1_555 1_555
C43 C44 1_555 1_555

#END
