
#######################################################################
#
#                 Cambridge Crystallographic Data Centre
#                                CCDC 
#
#######################################################################
#
# If this CIF has been generated from an entry in the Cambridge 
# Structural Database, then it will include bibliographic, chemical, 
# crystal, experimental, refinement or atomic coordinate data resulting 
# from the CCDC's data processing and validation procedures.
#
#######################################################################

data_POYXAD
_chemical_formula_moiety         'C14 H20 O4 S2'
_chemical_name_systematic        
9-Ethyl-2,10,17-trioxa-6,14-dithiapentacyclo[7.7.1.0^1,12^.0^3,8^.0^4,11^]heptadecan-3-ol
_symmetry_cell_setting           orthorhombic
_symmetry_space_group_name_H-M   'P 21 21 21'
_symmetry_Int_Tables_number      19
_space_group_name_Hall           'P 2ac 2ab'
loop_
_symmetry_equiv_pos_site_id
_symmetry_equiv_pos_as_xyz
1 x,y,z
2 1/2-x,-y,1/2+z
3 1/2+x,1/2-y,-z
4 -x,1/2+y,1/2-z
_cell_length_a                   8.6297(5)
_cell_length_b                   10.2315(4)
_cell_length_c                   16.3301(9)
_cell_angle_alpha                90
_cell_angle_beta                 90
_cell_angle_gamma                90
_cell_volume                     1441.86
_exptl_crystal_colour            colorless
_exptl_crystal_description       block
_cell_formula_units_Z            4
loop_
_atom_site_label
_atom_site_type_symbol
_atom_site_fract_x
_atom_site_fract_y
_atom_site_fract_z
S1 S 0.72295(9) -0.19175(7) 0.27089(4)
S2 S 0.86128(11) 0.47810(7) 0.11464(6)
O1 O 0.8559(2) 0.05956(16) 0.04491(11)
O2 O 0.9286(2) -0.01150(17) 0.17518(12)
O3 O 0.4499(2) 0.0367(2) 0.16533(12)
H1 H 0.409(5) 0.125(4) 0.178(3)
O4 O 0.6331(2) 0.15658(16) 0.09945(10)
C1 C 0.8487(3) -0.0459(2) 0.10258(16)
C2 C 0.8643(3) 0.1025(2) 0.21430(17)
H2 H 0.9242 0.1220 0.2653
C3 C 0.6387(3) -0.1936(2) 0.16962(15)
H3 H 0.6762 -0.2720 0.1402
H4 H 0.5248 -0.2012 0.1748
C4 C 0.9363(3) -0.1603(3) 0.06639(19)
H5 H 0.9414 -0.2310 0.1077
H6 H 1.0438 -0.1323 0.0545
C5 C 0.8302(4) 0.3482(3) 0.18795(19)
H7 H 0.8889 0.3675 0.2386
H8 H 0.7188 0.3441 0.2022
C6 C 0.6763(3) -0.0725(2) 0.11841(16)
H9 H 0.6254 -0.0841 0.0639
C7 C 0.8649(5) -0.2142(3) -0.0113(2)
H10 H 0.7576 -0.2403 -0.0005
H11 H 0.9244 -0.2903 -0.0297
H12 H 0.8665 -0.1469 -0.0540
C8 C 0.8815(3) 0.2168(2) 0.15407(17)
H13 H 0.9935 0.2238 0.1388
C9 C 0.6101(3) 0.0505(2) 0.15631(16)
C10 C 0.7910(3) 0.1770(2) 0.07738(16)
C11 C 0.6947(3) 0.0790(2) 0.23633(16)
H14 H 0.6524 0.1628 0.2586
C12 C 0.7945(3) 0.2750(2) 0.00830(17)
H15 H 0.7263 0.2435 -0.0363
H16 H 0.9013 0.2798 -0.0136
C13 C 0.6674(4) -0.0278(3) 0.30134(16)
H17 H 0.5560 -0.0284 0.3158
H18 H 0.7260 -0.0042 0.3513
C14 C 0.7433(4) 0.4115(3) 0.0328(2)
H19 H 0.6338 0.4086 0.0508
H20 H 0.7496 0.4698 -0.0154
loop_
_geom_bond_atom_site_label_1
_geom_bond_atom_site_label_2
_geom_bond_site_symmetry_1
_geom_bond_site_symmetry_2
S1 C3 1_555 1_555
S2 C5 1_555 1_555
O1 C1 1_555 1_555
O2 C1 1_555 1_555
O3 H1 1_555 1_555
O4 C9 1_555 1_555
C1 C4 1_555 1_555
C2 O2 1_555 1_555
H2 C2 1_555 1_555
C3 H3 1_555 1_555
H4 C3 1_555 1_555
C4 H5 1_555 1_555
H6 C4 1_555 1_555
C5 H7 1_555 1_555
H8 C5 1_555 1_555
C6 C1 1_555 1_555
H9 C6 1_555 1_555
C7 C4 1_555 1_555
H10 C7 1_555 1_555
H11 C7 1_555 1_555
H12 C7 1_555 1_555
C8 C2 1_555 1_555
H13 C8 1_555 1_555
C9 O3 1_555 1_555
C10 O1 1_555 1_555
C11 C2 1_555 1_555
H14 C11 1_555 1_555
C12 C10 1_555 1_555
H15 C12 1_555 1_555
H16 C12 1_555 1_555
C13 S1 1_555 1_555
H17 C13 1_555 1_555
H18 C13 1_555 1_555
C14 S2 1_555 1_555
H19 C14 1_555 1_555
H20 C14 1_555 1_555
O4 C10 1_555 1_555
C3 C6 1_555 1_555
C5 C8 1_555 1_555
C6 C9 1_555 1_555
C8 C10 1_555 1_555
C9 C11 1_555 1_555
C11 C13 1_555 1_555
C12 C14 1_555 1_555

#END
