
#######################################################################
#
#                 Cambridge Crystallographic Data Centre
#                                CCDC 
#
#######################################################################
#
# If this CIF has been generated from an entry in the Cambridge 
# Structural Database, then it will include bibliographic, chemical, 
# crystal, experimental, refinement or atomic coordinate data resulting 
# from the CCDC's data processing and validation procedures.
#
#######################################################################

data_POYXEH
_chemical_formula_moiety         'C14 H24 O4'
_chemical_name_systematic        
(1R,3R,5R,7R,8S,9S,10R)-rel-3,5-diethyl-8,9,10-trimethyl-2,4,6-trioxatricyclo[3.3.1.13,7]decan-1-ol
_symmetry_cell_setting           monoclinic
_symmetry_space_group_name_H-M   'P 21/c'
_symmetry_Int_Tables_number      14
_space_group_name_Hall           '-P 2ybc'
loop_
_symmetry_equiv_pos_site_id
_symmetry_equiv_pos_as_xyz
1 x,y,z
2 -x,1/2+y,1/2-z
3 -x,-y,-z
4 x,1/2-y,1/2+z
_cell_length_a                   11.3198(4)
_cell_length_b                   12.4182(7)
_cell_length_c                   10.0138(5)
_cell_angle_alpha                90
_cell_angle_beta                 103.718(3)
_cell_angle_gamma                90
_cell_volume                     1367.5
_exptl_crystal_colour            colorless
_exptl_crystal_description       block
_cell_formula_units_Z            4
loop_
_atom_site_label
_atom_site_type_symbol
_atom_site_fract_x
_atom_site_fract_y
_atom_site_fract_z
O1 O 0.50371(11) 0.14300(10) 0.01148(12)
H1 H 0.557(2) 0.088(2) 0.019(2)
O2 O 0.34347(9) 0.02939(9) 0.00311(11)
O3 O 0.28318(10) 0.13154(9) 0.28355(11)
O4 O 0.16562(9) 0.08449(9) 0.06465(11)
C1 C 0.07140(16) 0.30696(16) 0.02873(19)
H2 H 0.1304 0.3478 -0.0086
H3 H 0.0088 0.3559 0.0461
H4 H 0.0333 0.2518 -0.0376
C2 C 0.13632(15) 0.25312(15) 0.16287(17)
H5 H 0.1768 0.3094 0.2278
H6 H 0.0749 0.2178 0.2038
C3 C 0.23034(14) 0.17008(14) 0.14738(16)
C4 C 0.33007(14) 0.21049(13) 0.07953(16)
H7 H 0.2908 0.2250 -0.0192
C5 C 0.41692(14) 0.11620(13) 0.08320(16)
C6 C 0.47081(14) 0.07034(14) 0.22619(16)
H8 H 0.5133 0.0019 0.2132
C7 C 0.36230(15) 0.03958(14) 0.28500(17)
H9 H 0.3931 0.0148 0.3820
C8 C 0.28976(15) -0.05151(14) 0.20105(17)
H10 H 0.3471 -0.1117 0.1953
C9 C 0.24157(14) -0.00534(14) 0.05596(17)
C10 C 0.16915(16) -0.08383(15) -0.04765(18)
H11 H 0.0927 -0.1014 -0.0207
H12 H 0.2163 -0.1513 -0.0442
C11 C 0.13806(17) -0.04219(17) -0.19439(19)
H13 H 0.0927 0.0254 -0.1987
H14 H 0.0882 -0.0956 -0.2547
H15 H 0.2132 -0.0296 -0.2245
C12 C 0.38923(15) 0.31539(14) 0.14105(18)
H16 H 0.4036 0.3126 0.2414
H17 H 0.3353 0.3759 0.1059
H18 H 0.4669 0.3250 0.1153
C13 C 0.56372(15) 0.14144(15) 0.32281(17)
H19 H 0.6186 0.1739 0.2718
H20 H 0.6108 0.0976 0.3982
H21 H 0.5212 0.1985 0.3604
C14 C 0.19104(17) -0.09489(17) 0.2670(2)
H22 H 0.2283 -0.1212 0.3597
H23 H 0.1481 -0.1541 0.2112
H24 H 0.1333 -0.0372 0.2726
loop_
_geom_bond_atom_site_label_1
_geom_bond_atom_site_label_2
_geom_bond_site_symmetry_1
_geom_bond_site_symmetry_2
O1 H1 1_555 1_555
O2 C5 1_555 1_555
O3 C3 1_555 1_555
O4 C3 1_555 1_555
C1 H2 1_555 1_555
H3 C1 1_555 1_555
H4 C1 1_555 1_555
C2 C1 1_555 1_555
H5 C2 1_555 1_555
H6 C2 1_555 1_555
C3 C2 1_555 1_555
C4 C3 1_555 1_555
H7 C4 1_555 1_555
C5 O1 1_555 1_555
C6 C5 1_555 1_555
H8 C6 1_555 1_555
C7 O3 1_555 1_555
H9 C7 1_555 1_555
C8 C7 1_555 1_555
H10 C8 1_555 1_555
C9 O2 1_555 1_555
C10 C9 1_555 1_555
H11 C10 1_555 1_555
H12 C10 1_555 1_555
C11 C10 1_555 1_555
H13 C11 1_555 1_555
H14 C11 1_555 1_555
H15 C11 1_555 1_555
C12 C4 1_555 1_555
H16 C12 1_555 1_555
H17 C12 1_555 1_555
H18 C12 1_555 1_555
C13 C6 1_555 1_555
H19 C13 1_555 1_555
H20 C13 1_555 1_555
H21 C13 1_555 1_555
C14 C8 1_555 1_555
H22 C14 1_555 1_555
H23 C14 1_555 1_555
H24 C14 1_555 1_555
O4 C9 1_555 1_555
C4 C5 1_555 1_555
C6 C7 1_555 1_555
C8 C9 1_555 1_555

#END
