
#######################################################################
#
#                 Cambridge Crystallographic Data Centre
#                                CCDC 
#
#######################################################################
#
# If this CIF has been generated from an entry in the Cambridge 
# Structural Database, then it will include bibliographic, chemical, 
# crystal, experimental, refinement or atomic coordinate data resulting 
# from the CCDC's data processing and validation procedures.
#
#######################################################################

data_POYYIM
_chemical_formula_moiety         'C49 H44 N6 O15'
_chemical_name_systematic        
'Methyl 2-methoxy-3-(2-methoxy-3-(2-methoxy-3-(2-methoxy-3-(2-methoxy-3-(2-methoxy-N-methyl-3-nitrobenzamido)benzamido)benzamido)-benzamido)benzamido)benzoate'
_symmetry_cell_setting           triclinic
_symmetry_space_group_name_H-M   'P -1'
_symmetry_Int_Tables_number      2
_space_group_name_Hall           '-P 1'
loop_
_symmetry_equiv_pos_site_id
_symmetry_equiv_pos_as_xyz
1 x,y,z
2 -x,-y,-z
_cell_length_a                   11.276(2)
_cell_length_b                   12.301(3)
_cell_length_c                   16.564(3)
_cell_angle_alpha                90.388(6)
_cell_angle_beta                 94.562(5)
_cell_angle_gamma                105.300(5)
_cell_volume                     2208.16
_exptl_crystal_colour            colorless
_exptl_crystal_description       plate
_chemical_melting_point          221-223deg.C
_cell_formula_units_Z            2
_exptl_crystal_recrystallization_method dichloromethane/n-hexane
loop_
_atom_site_label
_atom_site_type_symbol
_atom_site_fract_x
_atom_site_fract_y
_atom_site_fract_z
O1 O 0.1493(3) 0.4830(3) 0.16924(19)
O2 O 0.2231(4) 0.6281(4) 0.1023(2)
O3 O 0.3406(2) 0.3789(2) 0.19794(13)
O4 O 0.4958(4) 0.1893(4) 0.05056(19)
O5 O 0.4690(2) 0.2148(2) 0.34084(13)
O6 O 0.7110(3) 0.0579(3) 0.47430(17)
O7 O 0.3941(2) 0.2396(2) 0.53575(13)
O8 O 0.3697(3) 0.2885(3) 0.78186(16)
O9 O 0.0973(2) 0.2562(2) 0.53786(13)
O10 O -0.2000(2) 0.3985(2) 0.57248(16)
O11 O -0.0165(2) 0.2764(2) 0.34574(13)
O12 O -0.1517(3) 0.3660(3) 0.11882(17)
O13 O 0.0789(2) 0.1083(2) 0.21787(13)
O14 O 0.2413(4) -0.0260(4) 0.03462(18)
O15 O 0.2342(3) -0.0110(3) 0.16420(17)
N1 N 0.2143(3) 0.5311(3) 0.1193(2)
H1 H 0.444(4) 0.273(3) 0.210(2)
N2 N 0.4742(3) 0.2281(3) 0.17942(17)
H2 H 0.526(3) 0.192(3) 0.451(2)
N3 N 0.5739(3) 0.1607(3) 0.48289(17)
H3 H 0.261(4) 0.229(4) 0.6106(13)
N4 N 0.2525(3) 0.2391(3) 0.66342(17)
H4 H -0.030(3) 0.309(3) 0.478(3)
N5 N -0.0882(3) 0.3444(3) 0.48019(18)
H5 H -0.041(4) 0.214(4) 0.228(3)
N6 N -0.0526(3) 0.2494(3) 0.18189(17)
C1 C 0.3407(3) 0.3938(3) 0.11576(19)
C2 C 0.2852(3) 0.4692(3) 0.0760(2)
C3 C 0.2885(4) 0.4869(4) -0.0058(2)
H6 H 0.2537 0.5414 -0.0303
C4 C 0.3439(3) 0.4229(3) -0.0510(2)
H7 H 0.3466 0.4329 -0.1071
C5 C 0.3949(3) 0.3447(3) -0.0144(2)
H8 H 0.4298 0.2999 -0.0464
C6 C 0.3967(3) 0.3293(3) 0.0693(2)
C7 C 0.3934(4) 0.4778(4) 0.2494(2)
H9 H 0.4587 0.5290 0.2230
H10 H 0.4271 0.4557 0.3005
H11 H 0.3300 0.5151 0.2594
C8 C 0.4604(4) 0.2439(4) 0.0995(2)
C9 C 0.5447(3) 0.1601(3) 0.3046(2)
C10 C 0.5436(3) 0.1619(3) 0.2198(2)
C11 C 0.6139(3) 0.1044(3) 0.1813(2)
H12 H 0.6116 0.1025 0.1244
C12 C 0.6874(3) 0.0498(3) 0.2265(2)
H13 H 0.7338 0.0094 0.2000
C13 C 0.6940(3) 0.0535(3) 0.3097(2)
H14 H 0.7477 0.0187 0.3394
C14 C 0.6221(3) 0.1082(3) 0.3507(2)
C15 C 0.3418(3) 0.1489(4) 0.3382(2)
H15 H 0.3162 0.1142 0.2847
H16 H 0.2899 0.1976 0.3500
H17 H 0.3339 0.0907 0.3781
C16 C 0.6400(3) 0.1061(3) 0.4418(2)
C17 C 0.4749(3) 0.2101(3) 0.5942(2)
C18 C 0.5698(3) 0.1698(3) 0.5670(2)
C19 C 0.6541(3) 0.1427(3) 0.6238(2)
H18 H 0.7185 0.1152 0.6065
C20 C 0.6436(4) 0.1561(3) 0.7055(2)
H19 H 0.7019 0.1390 0.7436
C21 C 0.5489(4) 0.1940(3) 0.7315(2)
H20 H 0.5427 0.2022 0.7874
C22 C 0.4621(3) 0.2206(3) 0.6765(2)
C23 C 0.4293(4) 0.3570(3) 0.5187(2)
H21 H 0.4300 0.4009 0.5677
H22 H 0.3707 0.3731 0.4775
H23 H 0.5110 0.3766 0.4993
C24 C 0.3588(3) 0.2536(3) 0.7120(2)
C25 C 0.0668(3) 0.2841(3) 0.61385(19)
C26 C 0.1468(3) 0.2720(3) 0.6806(2)
C27 C 0.1191(4) 0.2935(3) 0.7581(2)
H24 H 0.1690 0.2818 0.8037
C28 C 0.0160(4) 0.3327(3) 0.7669(2)
H25 H -0.0039 0.3473 0.8192
C29 C -0.0570(4) 0.3508(3) 0.7016(2)
H26 H -0.1244 0.3799 0.7098
C30 C -0.0340(3) 0.3271(3) 0.6230(2)
C31 C 0.0484(4) 0.1386(3) 0.5160(2)
H27 H 0.0784 0.0935 0.5566
H28 H 0.0749 0.1235 0.4637
H29 H -0.0410 0.1193 0.5129
C32 C -0.1157(3) 0.3588(3) 0.5571(2)
C33 C -0.1063(3) 0.3356(3) 0.3361(2)
C34 C -0.1460(3) 0.3699(3) 0.4078(2)
C35 C -0.2367(3) 0.4273(3) 0.4020(2)
H30 H -0.2645 0.4517 0.4492
C36 C -0.2857(3) 0.4486(3) 0.3275(3)
H31 H -0.3472 0.4876 0.3241
C37 C -0.2470(3) 0.4142(3) 0.2577(2)
H32 H -0.2823 0.4300 0.2073
C38 C -0.1558(3) 0.3561(3) 0.2603(2)
C39 C 0.1085(3) 0.3474(3) 0.3443(2)
H33 H 0.1189 0.3809 0.2916
H34 H 0.1665 0.3022 0.3545
H35 H 0.1236 0.4066 0.3859
C40 C -0.1201(3) 0.3249(3) 0.1801(2)
C41 C 0.0699(3) 0.1342(3) 0.13761(19)
C42 C 0.0011(3) 0.2110(3) 0.1174(2)
C43 C -0.0069(4) 0.2476(4) 0.0392(2)
H36 H -0.0509 0.3009 0.0255
C44 C 0.0517(4) 0.2038(4) -0.0192(2)
H37 H 0.0445 0.2266 -0.0730
C45 C 0.1185(4) 0.1296(4) -0.0005(2)
H38 H 0.1577 0.1025 -0.0411
C46 C 0.1299(3) 0.0928(3) 0.0787(2)
C47 C 0.0142(4) -0.0021(4) 0.2388(3)
H39 H -0.0444 -0.0372 0.1940
H40 H -0.0296 0.0023 0.2863
H41 H 0.0724 -0.0467 0.2505
C48 C 0.2067(3) 0.0150(3) 0.0996(2)
C49 C 0.3187(6) -0.1017(6) 0.0494(3)
H42 H 0.4002 -0.0592 0.0713
H43 H 0.3251 -0.1394 -0.0011
H44 H 0.2826 -0.1575 0.0878
loop_
_geom_bond_atom_site_label_1
_geom_bond_atom_site_label_2
_geom_bond_site_symmetry_1
_geom_bond_site_symmetry_2
O1 N1 1_555 1_555
O2 N1 1_555 1_555
O3 C1 1_555 1_555
O4 C8 1_555 1_555
O5 C9 1_555 1_555
O6 C16 1_555 1_555
O7 C17 1_555 1_555
O8 C24 1_555 1_555
O9 C25 1_555 1_555
O10 C32 1_555 1_555
O11 C33 1_555 1_555
O12 C40 1_555 1_555
O13 C41 1_555 1_555
O14 C48 1_555 1_555
O15 C48 1_555 1_555
N1 C2 1_555 1_555
H1 N2 1_555 1_555
N2 C8 1_555 1_555
H2 N3 1_555 1_555
N3 C16 1_555 1_555
H3 N4 1_555 1_555
N4 C24 1_555 1_555
H4 N5 1_555 1_555
N5 C32 1_555 1_555
H5 N6 1_555 1_555
N6 C40 1_555 1_555
C1 C2 1_555 1_555
C2 C3 1_555 1_555
C3 H6 1_555 1_555
C4 C3 1_555 1_555
H7 C4 1_555 1_555
C5 C4 1_555 1_555
H8 C5 1_555 1_555
C6 C1 1_555 1_555
C7 O3 1_555 1_555
H9 C7 1_555 1_555
H10 C7 1_555 1_555
H11 C7 1_555 1_555
C8 C6 1_555 1_555
C9 C10 1_555 1_555
C10 N2 1_555 1_555
C11 C10 1_555 1_555
H12 C11 1_555 1_555
C12 C11 1_555 1_555
H13 C12 1_555 1_555
C13 C12 1_555 1_555
H14 C13 1_555 1_555
C14 C9 1_555 1_555
C15 O5 1_555 1_555
H15 C15 1_555 1_555
H16 C15 1_555 1_555
H17 C15 1_555 1_555
C16 C14 1_555 1_555
C17 C18 1_555 1_555
C18 N3 1_555 1_555
C19 C18 1_555 1_555
H18 C19 1_555 1_555
C20 C19 1_555 1_555
H19 C20 1_555 1_555
C21 C20 1_555 1_555
H20 C21 1_555 1_555
C22 C17 1_555 1_555
C23 O7 1_555 1_555
H21 C23 1_555 1_555
H22 C23 1_555 1_555
H23 C23 1_555 1_555
C24 C22 1_555 1_555
C25 C26 1_555 1_555
C26 N4 1_555 1_555
C27 C26 1_555 1_555
H24 C27 1_555 1_555
C28 C27 1_555 1_555
H25 C28 1_555 1_555
C29 C28 1_555 1_555
H26 C29 1_555 1_555
C30 C25 1_555 1_555
C31 O9 1_555 1_555
H27 C31 1_555 1_555
H28 C31 1_555 1_555
H29 C31 1_555 1_555
C32 C30 1_555 1_555
C33 C34 1_555 1_555
C34 N5 1_555 1_555
C35 C34 1_555 1_555
H30 C35 1_555 1_555
C36 C35 1_555 1_555
H31 C36 1_555 1_555
C37 C36 1_555 1_555
H32 C37 1_555 1_555
C38 C33 1_555 1_555
C39 O11 1_555 1_555
H33 C39 1_555 1_555
H34 C39 1_555 1_555
H35 C39 1_555 1_555
C40 C38 1_555 1_555
C41 C42 1_555 1_555
C42 N6 1_555 1_555
C43 C42 1_555 1_555
H36 C43 1_555 1_555
C44 C43 1_555 1_555
H37 C44 1_555 1_555
C45 C44 1_555 1_555
H38 C45 1_555 1_555
C46 C41 1_555 1_555
C47 O13 1_555 1_555
H39 C47 1_555 1_555
H40 C47 1_555 1_555
H41 C47 1_555 1_555
C48 C46 1_555 1_555
C49 O14 1_555 1_555
H42 C49 1_555 1_555
H43 C49 1_555 1_555
H44 C49 1_555 1_555
C5 C6 1_555 1_555
C13 C14 1_555 1_555
C21 C22 1_555 1_555
C29 C30 1_555 1_555
C37 C38 1_555 1_555
C45 C46 1_555 1_555

#END
