
#######################################################################
#
#                 Cambridge Crystallographic Data Centre
#                                CCDC 
#
#######################################################################
#
# If this CIF has been generated from an entry in the Cambridge 
# Structural Database, then it will include bibliographic, chemical, 
# crystal, experimental, refinement or atomic coordinate data resulting 
# from the CCDC's data processing and validation procedures.
#
#######################################################################

data_POZCOY
_chemical_formula_moiety         'C19 H24 N2 O1'
_chemical_name_systematic        
2-(2-(Adamantan-1-yl)-4-methyl-4,5-dihydro-1,3-oxazol-4-yl)pyridine
_symmetry_cell_setting           orthorhombic
_symmetry_space_group_name_H-M   'P c a 21'
_symmetry_Int_Tables_number      29
_space_group_name_Hall           'P 2c -2ac'
loop_
_symmetry_equiv_pos_site_id
_symmetry_equiv_pos_as_xyz
1 x,y,z
2 -x,-y,1/2+z
3 1/2-x,y,1/2+z
4 1/2+x,-y,z
_cell_length_a                   12.8993(14)
_cell_length_b                   10.8530(11)
_cell_length_c                   11.6466(11)
_cell_angle_alpha                90
_cell_angle_beta                 90
_cell_angle_gamma                90
_cell_volume                     1630.48
_exptl_crystal_colour            colorless
_exptl_crystal_description       platelet
_cell_formula_units_Z            4
loop_
_atom_site_label
_atom_site_type_symbol
_atom_site_fract_x
_atom_site_fract_y
_atom_site_fract_z
O1 O 0.23446(16) 0.36836(16) 0.56813(19)
N1 N 0.11630(17) 0.2568(2) 0.6659(2)
N2 N 0.16377(18) 0.0057(2) 0.4596(2)
C1 C 0.1089(3) -0.0713(3) 0.3940(3)
H1 H 0.1451 -0.1240 0.3454
C2 C 0.0029(3) -0.0777(3) 0.3936(3)
H2 H -0.0320 -0.1320 0.3454
C3 C -0.0498(2) -0.0015(3) 0.4665(3)
H3 H -0.1219 -0.0030 0.4684
C4 C 0.0041(2) 0.0776(3) 0.5371(3)
H4 H -0.0308 0.1290 0.5880
C5 C 0.1117(2) 0.0793(2) 0.5310(2)
C6 C 0.1789(2) 0.1658(2) 0.6011(2)
C7 C 0.2461(3) 0.2465(2) 0.5221(3)
H5 H 0.3180 0.2206 0.5244
H6 H 0.2216 0.2428 0.4435
C8 C 0.1547(2) 0.3609(2) 0.6463(2)
C9 C 0.2429(3) 0.0919(3) 0.6871(3)
H7 H 0.2799 0.0280 0.6475
H8 H 0.1977 0.0557 0.7433
H9 H 0.2914 0.1455 0.7247
C10 C 0.1285(2) 0.4810(2) 0.7029(2)
C11 C 0.0371(2) 0.4655(3) 0.7863(3)
H10 H 0.0538 0.4030 0.8429
H11 H -0.0237 0.4383 0.7443
C12 C 0.0135(3) 0.5881(3) 0.8471(3)
H12 H -0.0449 0.5774 0.9001
C13 C -0.0136(3) 0.6835(3) 0.7569(3)
H13 H -0.0736 0.6563 0.7137
H14 H -0.0309 0.7608 0.7940
C14 C 0.0766(3) 0.7030(3) 0.6759(3)
H15 H 0.0588 0.7661 0.6190
C15 C 0.0997(3) 0.5798(3) 0.6151(3)
H16 H 0.0391 0.5536 0.5722
H17 H 0.1564 0.5908 0.5613
C16 C 0.2234(2) 0.5247(3) 0.7708(3)
H18 H 0.2813 0.5371 0.7189
H19 H 0.2430 0.4623 0.8263
C17 C 0.1983(3) 0.6467(3) 0.8336(3)
H20 H 0.2590 0.6738 0.8776
C18 C 0.1720(3) 0.7421(3) 0.7423(3)
H21 H 0.1596 0.8212 0.7784
H22 H 0.2300 0.7511 0.6899
C19 C 0.1088(3) 0.6270(4) 0.9127(3)
H23 H 0.0945 0.7026 0.9540
H24 H 0.1264 0.5639 0.9684
loop_
_geom_bond_atom_site_label_1
_geom_bond_atom_site_label_2
_geom_bond_site_symmetry_1
_geom_bond_site_symmetry_2
O1 C7 1_555 1_555
N1 C6 1_555 1_555
N2 C1 1_555 1_555
C1 H1 1_555 1_555
C2 C1 1_555 1_555
H2 C2 1_555 1_555
C3 C2 1_555 1_555
H3 C3 1_555 1_555
C4 C3 1_555 1_555
H4 C4 1_555 1_555
C5 N2 1_555 1_555
C6 C5 1_555 1_555
C7 C6 1_555 1_555
H5 C7 1_555 1_555
H6 C7 1_555 1_555
C8 O1 1_555 1_555
C9 C6 1_555 1_555
H7 C9 1_555 1_555
H8 C9 1_555 1_555
H9 C9 1_555 1_555
C10 C8 1_555 1_555
C11 C10 1_555 1_555
H10 C11 1_555 1_555
H11 C11 1_555 1_555
C12 C11 1_555 1_555
H12 C12 1_555 1_555
C13 C12 1_555 1_555
H13 C13 1_555 1_555
H14 C13 1_555 1_555
C14 C13 1_555 1_555
H15 C14 1_555 1_555
C15 C10 1_555 1_555
H16 C15 1_555 1_555
H17 C15 1_555 1_555
C16 C10 1_555 1_555
H18 C16 1_555 1_555
H19 C16 1_555 1_555
C17 C16 1_555 1_555
H20 C17 1_555 1_555
C18 C14 1_555 1_555
H21 C18 1_555 1_555
H22 C18 1_555 1_555
C19 C12 1_555 1_555
H23 C19 1_555 1_555
H24 C19 1_555 1_555
N1 C8 1_555 1_555
C4 C5 1_555 1_555
C14 C15 1_555 1_555
C17 C18 1_555 1_555
C17 C19 1_555 1_555

#END
