
#######################################################################
#
#                 Cambridge Crystallographic Data Centre
#                                CCDC 
#
#######################################################################
#
# If this CIF has been generated from an entry in the Cambridge 
# Structural Database, then it will include bibliographic, chemical, 
# crystal, experimental, refinement or atomic coordinate data resulting 
# from the CCDC's data processing and validation procedures.
#
#######################################################################

data_POZFIU
_chemical_compound_source        'Malaysian liverwort Chandonanthus hirtellus'
_chemical_name_common            8,10-Diepi-chandonanthone
_chemical_formula_moiety         'C20 H30 O4'
_chemical_name_systematic        
10-Isopropylidene-2,6,13-trimethyl-7,16,17-trioxatetracyclo[11.2.1.1^1,4^.0^6,8^]heptadecan-9-one
_symmetry_cell_setting           orthorhombic
_symmetry_space_group_name_H-M   'P 21 21 21'
_symmetry_Int_Tables_number      19
_space_group_name_Hall           'P 2ac 2ab'
loop_
_symmetry_equiv_pos_site_id
_symmetry_equiv_pos_as_xyz
1 x,y,z
2 1/2-x,-y,1/2+z
3 -x,1/2+y,1/2-z
4 1/2+x,1/2-y,-z
_cell_length_a                   8.6420(11)
_cell_length_b                   12.0138(16)
_cell_length_c                   18.429(2)
_cell_angle_alpha                90
_cell_angle_beta                 90
_cell_angle_gamma                90
_cell_volume                     1913.36
_exptl_crystal_colour            colorless
_exptl_crystal_description       block
_chemical_melting_point          127.1-130.3deg.C
_cell_formula_units_Z            4
_exptl_crystal_recrystallization_method 'ethyl acetate/hexane'
loop_
_atom_site_label
_atom_site_type_symbol
_atom_site_fract_x
_atom_site_fract_y
_atom_site_fract_z
O1 O 0.73112(13) 0.46093(9) 0.70546(5)
O2 O 0.68095(14) 0.64925(10) 0.70411(6)
O3 O 0.62819(19) 0.68180(17) 0.47661(8)
O4 O 0.5278(2) 0.4684(2) 0.44741(8)
C1 C 0.3779(2) 0.44979(18) 0.55520(9)
C2 C 0.4136(2) 0.46462(14) 0.63530(8)
H1 H 0.3174 0.4757 0.6614
H2 H 0.4759 0.5312 0.6415
C3 C 0.4991(2) 0.36636(15) 0.66858(9)
H3 H 0.5617 0.3318 0.6311
H4 H 0.4233 0.3119 0.6843
C4 C 0.60342(18) 0.39411(14) 0.73278(9)
C5 C 0.52879(19) 0.46700(15) 0.79152(9)
H5 H 0.4431 0.5096 0.7720
H6 H 0.4920 0.4221 0.8317
C6 C 0.6591(2) 0.54239(15) 0.81496(8)
H7 H 0.7231 0.5069 0.8515
H8 H 0.6197 0.6121 0.8341
C7 C 0.74854(18) 0.56078(13) 0.74521(8)
C8 C 0.9190(2) 0.59122(17) 0.75274(9)
H9 H 0.9285 0.6466 0.7915
C9 C 0.9493(2) 0.6493(2) 0.68081(11)
H10 H 0.9688 0.5959 0.6424
H11 H 1.0365 0.6998 0.6843
C10 C 0.7991(2) 0.71239(17) 0.66769(11)
H12 H 0.8079 0.7837 0.6931
C11 C 0.7535(3) 0.73815(18) 0.59019(12)
H13 H 0.6662 0.7889 0.5918
H14 H 0.8387 0.7781 0.5680
C12 C 0.7106(2) 0.6438(2) 0.54037(10)
C13 C 0.5442(2) 0.61853(19) 0.52890(10)
H15 H 0.4723 0.6614 0.5591
C14 C 0.4864(2) 0.5074(2) 0.50516(10)
C15 C 0.2591(3) 0.38899(19) 0.53059(12)
C16 C 0.1498(3) 0.3293(2) 0.58079(16)
H16 H 0.1837 0.3387 0.6300
H17 H 0.1482 0.2515 0.5690
H18 H 0.0476 0.3596 0.5754
C17 C 0.2193(4) 0.3759(3) 0.45107(14)
H19 H 0.2683 0.4340 0.4237
H20 H 0.1091 0.3805 0.4449
H21 H 0.2552 0.3049 0.4342
C18 C 0.6715(3) 0.28773(17) 0.76469(13)
H22 H 0.7329 0.2508 0.7286
H23 H 0.5892 0.2395 0.7800
H24 H 0.7353 0.3060 0.8056
C19 C 1.0252(2) 0.4953(2) 0.77048(11)
H25 H 1.0202 0.4410 0.7324
H26 H 0.9935 0.4618 0.8154
H27 H 1.1294 0.5220 0.7750
C20 C 0.8271(3) 0.5545(3) 0.52394(13)
H28 H 0.7944 0.5133 0.4820
H29 H 0.8353 0.5052 0.5647
H30 H 0.9259 0.5880 0.5146
loop_
_geom_bond_atom_site_label_1
_geom_bond_atom_site_label_2
_geom_bond_site_symmetry_1
_geom_bond_site_symmetry_2
O1 C4 1_555 1_555
O2 C7 1_555 1_555
O3 C12 1_555 1_555
O4 C14 1_555 1_555
C1 C2 1_555 1_555
C2 H1 1_555 1_555
H2 C2 1_555 1_555
C3 C2 1_555 1_555
H3 C3 1_555 1_555
H4 C3 1_555 1_555
C4 C3 1_555 1_555
C5 C4 1_555 1_555
H5 C5 1_555 1_555
H6 C5 1_555 1_555
C6 C5 1_555 1_555
H7 C6 1_555 1_555
H8 C6 1_555 1_555
C7 O1 1_555 1_555
C8 C7 1_555 1_555
H9 C8 1_555 1_555
C9 C8 1_555 1_555
H10 C9 1_555 1_555
H11 C9 1_555 1_555
C10 O2 1_555 1_555
H12 C10 1_555 1_555
C11 C10 1_555 1_555
H13 C11 1_555 1_555
H14 C11 1_555 1_555
C12 C11 1_555 1_555
C13 O3 1_555 1_555
H15 C13 1_555 1_555
C14 C1 1_555 1_555
C15 C1 1_555 1_555
C16 C15 1_555 1_555
H16 C16 1_555 1_555
H17 C16 1_555 1_555
H18 C16 1_555 1_555
C17 C15 1_555 1_555
H19 C17 1_555 1_555
H20 C17 1_555 1_555
H21 C17 1_555 1_555
C18 C4 1_555 1_555
H22 C18 1_555 1_555
H23 C18 1_555 1_555
H24 C18 1_555 1_555
C19 C8 1_555 1_555
H25 C19 1_555 1_555
H26 C19 1_555 1_555
H27 C19 1_555 1_555
C20 C12 1_555 1_555
H28 C20 1_555 1_555
H29 C20 1_555 1_555
H30 C20 1_555 1_555
C6 C7 1_555 1_555
C9 C10 1_555 1_555
C12 C13 1_555 1_555
C13 C14 1_555 1_555

#END
