
#######################################################################
#
#                 Cambridge Crystallographic Data Centre
#                                CCDC 
#
#######################################################################
#
# If this CIF has been generated from an entry in the Cambridge 
# Structural Database, then it will include bibliographic, chemical, 
# crystal, experimental, refinement or atomic coordinate data resulting 
# from the CCDC's data processing and validation procedures.
#
#######################################################################

data_POZMAU
_chemical_formula_moiety         'C21 H22 N2 O4 S1'
_chemical_name_systematic        
1-((4-Methylphenyl)sulfonyl)-5-nitro-4-phenyl-3-(prop-1-en-2-yl)-1,2,3,6-tetrahydropyridine
_symmetry_cell_setting           monoclinic
_symmetry_space_group_name_H-M   'P 21/c'
_symmetry_Int_Tables_number      14
_space_group_name_Hall           '-P 2ybc'
loop_
_symmetry_equiv_pos_site_id
_symmetry_equiv_pos_as_xyz
1 x,y,z
2 -x,1/2+y,1/2-z
3 -x,-y,-z
4 x,1/2-y,1/2+z
_cell_length_a                   13.1530(8)
_cell_length_b                   17.8912(8)
_cell_length_c                   9.1269(6)
_cell_angle_alpha                90
_cell_angle_beta                 109.860(7)
_cell_angle_gamma                90
_cell_volume                     2020.03
_exptl_crystal_colour            'light yellow'
_exptl_crystal_description       block
_cell_formula_units_Z            4
loop_
_atom_site_label
_atom_site_type_symbol
_atom_site_fract_x
_atom_site_fract_y
_atom_site_fract_z
S1 S 0.11654(6) 0.63678(4) 0.08554(8)
O1 O -0.13008(19) 0.42101(11) 0.3832(2)
O2 O 0.01898(18) 0.40401(11) 0.3395(2)
O3 O 0.06990(18) 0.69496(12) -0.0235(2)
O4 O 0.15670(18) 0.57043(11) 0.0362(2)
N1 N 0.02256(17) 0.60911(11) 0.1543(2)
N2 N -0.0594(2) 0.44234(13) 0.3345(2)
C1 C -0.0205(2) 0.66701(14) 0.2323(3)
H1 H -0.0190 0.7153 0.1848
H2 H 0.0236 0.6700 0.3416
C2 C -0.1364(2) 0.64648(14) 0.2159(3)
H3 H -0.1553 0.6769 0.2922
C3 C -0.1449(2) 0.56500(14) 0.2603(3)
C4 C -0.0631(2) 0.51911(13) 0.2720(3)
C5 C 0.0369(2) 0.53706(14) 0.2346(3)
H4 H 0.0989 0.5393 0.3299
H5 H 0.0499 0.4983 0.1688
C6 C -0.2172(2) 0.66629(16) 0.0574(3)
C7 C -0.2778(3) 0.7280(2) 0.0436(5)
H6 H -0.3248 0.7425 -0.0536
H7 H -0.2727 0.7562 0.1314
C8 C -0.2236(3) 0.6212(2) -0.0780(4)
H8 H -0.1602 0.6294 -0.1055
H9 H -0.2867 0.6352 -0.1638
H10 H -0.2283 0.5694 -0.0542
C9 C -0.2489(2) 0.54694(15) 0.2846(3)
C10 C -0.2740(3) 0.57947(17) 0.4059(3)
H11 H -0.2235 0.6101 0.4765
C11 C -0.3727(3) 0.5670(2) 0.4235(4)
H12 H -0.3882 0.5894 0.5055
C12 C -0.4475(3) 0.5224(2) 0.3219(5)
H13 H -0.5141 0.5145 0.3340
C13 C -0.4244(3) 0.4889(2) 0.2002(4)
H14 H -0.4751 0.4579 0.1311
C14 C -0.3253(2) 0.50166(17) 0.1814(3)
H15 H -0.3103 0.4795 0.0988
C15 C 0.2204(2) 0.67657(14) 0.2421(3)
C16 C 0.2284(2) 0.75321(16) 0.2567(4)
H16 H 0.1802 0.7836 0.1825
C17 C 0.3081(3) 0.78473(19) 0.3815(4)
H17 H 0.3138 0.8365 0.3892
C18 C 0.3791(3) 0.7414(2) 0.4948(4)
C19 C 0.3694(3) 0.6650(2) 0.4797(4)
H18 H 0.4167 0.6349 0.5556
C20 C 0.2916(2) 0.63205(17) 0.3555(4)
H19 H 0.2868 0.5803 0.3475
C21 C 0.4654(3) 0.7779(3) 0.6309(4)
H20 H 0.5251 0.7926 0.5993
H21 H 0.4900 0.7431 0.7156
H22 H 0.4358 0.8212 0.6638
loop_
_geom_bond_atom_site_label_1
_geom_bond_atom_site_label_2
_geom_bond_site_symmetry_1
_geom_bond_site_symmetry_2
S1 O3 1_555 1_555
O1 N2 1_555 1_555
O2 N2 1_555 1_555
O4 S1 1_555 1_555
N1 S1 1_555 1_555
N2 C4 1_555 1_555
C1 N1 1_555 1_555
H1 C1 1_555 1_555
H2 C1 1_555 1_555
C2 C1 1_555 1_555
H3 C2 1_555 1_555
C3 C2 1_555 1_555
C4 C3 1_555 1_555
C5 N1 1_555 1_555
H4 C5 1_555 1_555
H5 C5 1_555 1_555
C6 C2 1_555 1_555
C7 C6 1_555 1_555
H6 C7 1_555 1_555
H7 C7 1_555 1_555
C8 C6 1_555 1_555
H8 C8 1_555 1_555
H9 C8 1_555 1_555
H10 C8 1_555 1_555
C9 C3 1_555 1_555
C10 C9 1_555 1_555
H11 C10 1_555 1_555
C11 C10 1_555 1_555
H12 C11 1_555 1_555
C12 C11 1_555 1_555
H13 C12 1_555 1_555
C13 C12 1_555 1_555
H14 C13 1_555 1_555
C14 C9 1_555 1_555
H15 C14 1_555 1_555
C15 S1 1_555 1_555
C16 C15 1_555 1_555
H16 C16 1_555 1_555
C17 C16 1_555 1_555
H17 C17 1_555 1_555
C18 C17 1_555 1_555
C19 C18 1_555 1_555
H18 C19 1_555 1_555
C20 C15 1_555 1_555
H19 C20 1_555 1_555
C21 C18 1_555 1_555
H20 C21 1_555 1_555
H21 C21 1_555 1_555
H22 C21 1_555 1_555
C4 C5 1_555 1_555
C13 C14 1_555 1_555
C19 C20 1_555 1_555

#END
