
#######################################################################
#
#                 Cambridge Crystallographic Data Centre
#                                CCDC 
#
#######################################################################
#
# If this CIF has been generated from an entry in the Cambridge 
# Structural Database, then it will include bibliographic, chemical, 
# crystal, experimental, refinement or atomic coordinate data resulting 
# from the CCDC's data processing and validation procedures.
#
#######################################################################

data_POZNUO
_chemical_formula_moiety         'C11 H11 N3 O2'
_chemical_name_systematic        
N-Hydroxy-1-methyl-N-phenyl-1H-imidazole-2-carboxamide
_symmetry_cell_setting           monoclinic
_symmetry_space_group_name_H-M   'P 21/c'
_symmetry_Int_Tables_number      14
_space_group_name_Hall           '-P 2ybc'
loop_
_symmetry_equiv_pos_site_id
_symmetry_equiv_pos_as_xyz
1 x,y,z
2 -x,1/2+y,1/2-z
3 -x,-y,-z
4 x,1/2-y,1/2+z
_cell_length_a                   7.6884(6)
_cell_length_b                   7.8483(6)
_cell_length_c                   17.8783(14)
_cell_angle_alpha                90
_cell_angle_beta                 90.938(2)
_cell_angle_gamma                90
_cell_volume                     1078.65
_cell_formula_units_Z            4
loop_
_atom_site_label
_atom_site_type_symbol
_atom_site_fract_x
_atom_site_fract_y
_atom_site_fract_z
O1 O 0.4487(2) 0.2421(2) 0.3077(1)
O2 O 0.3108(1) 0.1098(1) 0.4830(1)
N1 N 0.3375(2) 0.0998(2) 0.4058(1)
N2 N 0.6223(2) 0.4604(2) 0.4195(1)
N3 N 0.6749(2) 0.2166(2) 0.4772(1)
C1 C 0.4485(2) 0.2118(2) 0.3748(1)
C2 C 0.5778(2) 0.2944(2) 0.4259(1)
C3 C 0.7542(2) 0.4888(2) 0.4700(1)
C4 C 0.7865(2) 0.3387(2) 0.5044(1)
C5 C 0.5465(2) 0.5896(2) 0.3699(1)
C6 C 0.2067(2) 0.0109(2) 0.3638(1)
C7 C 0.2548(2) -0.0865(2) 0.3031(1)
C8 C 0.1289(3) -0.1741(2) 0.2631(1)
C9 C -0.0433(3) -0.1668(3) 0.2837(1)
C10 C -0.0891(2) -0.0722(2) 0.3452(1)
C11 C 0.0352(2) 0.0174(2) 0.3855(1)
H1 H 0.3200(30) -0.0020(30) 0.4984(11)
H2 H 0.8115 0.5927 0.4791
H3 H 0.8725 0.3207 0.5415
H4 H 0.6208 0.6056 0.3271
H5 H 0.5362 0.6964 0.3968
H6 H 0.4321 0.5527 0.3528
H7 H 0.3720 -0.0928 0.2892
H8 H 0.1605 -0.2395 0.2214
H9 H -0.1287 -0.2260 0.2558
H10 H -0.2059 -0.0687 0.3598
H11 H 0.0035 0.0822 0.4274
loop_
_geom_bond_atom_site_label_1
_geom_bond_atom_site_label_2
_geom_bond_site_symmetry_1
_geom_bond_site_symmetry_2
O1 C1 1_555 1_555
O2 N1 1_555 1_555
N1 C1 1_555 1_555
N2 C2 1_555 1_555
N3 C2 1_555 1_555
C1 C2 1_555 1_555
C3 N2 1_555 1_555
C4 N3 1_555 1_555
C5 N2 1_555 1_555
C6 N1 1_555 1_555
C7 C6 1_555 1_555
C8 C7 1_555 1_555
C9 C8 1_555 1_555
C10 C9 1_555 1_555
C11 C6 1_555 1_555
H1 O2 1_555 1_555
H2 C3 1_555 1_555
H3 C4 1_555 1_555
H4 C5 1_555 1_555
H5 C5 1_555 1_555
H6 C5 1_555 1_555
H7 C7 1_555 1_555
H8 C8 1_555 1_555
H9 C9 1_555 1_555
H10 C10 1_555 1_555
H11 C11 1_555 1_555
C3 C4 1_555 1_555
C10 C11 1_555 1_555

#END
