
#######################################################################
#
#                 Cambridge Crystallographic Data Centre
#                                CCDC 
#
#######################################################################
#
# If this CIF has been generated from an entry in the Cambridge 
# Structural Database, then it will include bibliographic, chemical, 
# crystal, experimental, refinement or atomic coordinate data resulting 
# from the CCDC's data processing and validation procedures.
#
#######################################################################

data_POZPAW
_chemical_formula_moiety         'C13 H17 N1 O2'
_chemical_name_systematic        N-Hydroxy-N-phenylcyclohexanecarboxamide
_symmetry_cell_setting           orthorhombic
_symmetry_space_group_name_H-M   'P 21 21 21'
_symmetry_Int_Tables_number      19
_space_group_name_Hall           'P 2ac 2ab'
loop_
_symmetry_equiv_pos_site_id
_symmetry_equiv_pos_as_xyz
1 x,y,z
2 1/2-x,-y,1/2+z
3 -x,1/2+y,1/2-z
4 1/2+x,1/2-y,-z
_cell_length_a                   5.5011(5)
_cell_length_b                   6.6715(6)
_cell_length_c                   31.330(3)
_cell_angle_alpha                90
_cell_angle_beta                 90
_cell_angle_gamma                90
_cell_volume                     1149.83
_cell_formula_units_Z            4
loop_
_atom_site_label
_atom_site_type_symbol
_atom_site_fract_x
_atom_site_fract_y
_atom_site_fract_z
O1 O 0.6173(2) 0.4801(2) 0.9038(1)
O2 O 1.1995(2) 0.5651(2) 0.8654(1)
N1 N 1.0029(2) 0.5797(2) 0.8937(1)
C1 C 1.0053(3) 0.7522(2) 0.9207(1)
C2 C 1.1787(3) 0.8996(3) 0.9141(1)
C3 C 1.1832(4) 1.0681(3) 0.9398(1)
C4 C 1.0177(4) 1.0911(3) 0.9722(1)
C5 C 0.8483(4) 0.9438(3) 0.9794(1)
C6 C 0.8404(3) 0.7724(3) 0.9543(1)
C7 C 0.8109(3) 0.4592(2) 0.8848(1)
C8 C 0.8437(3) 0.3020(2) 0.8503(1)
C9 C 0.8047(4) 0.3948(3) 0.8061(1)
C10 C 0.8343(4) 0.2371(3) 0.7713(1)
C11 C 0.6657(4) 0.0606(3) 0.7784(1)
C12 C 0.7011(4) -0.0302(3) 0.8226(1)
C13 C 0.6692(3) 0.1272(2) 0.8572(1)
H1 H 1.3228 0.5296 0.8787
H2 H 1.2937 0.8851 0.8922
H3 H 1.3007 1.1678 0.9350
H4 H 1.0203 1.2068 0.9893
H5 H 0.7358 0.9592 1.0017
H6 H 0.7256 0.6714 0.9598
H7 H 1.0122 0.2504 0.8518
H8 H 0.6413 0.4528 0.8045
H9 H 0.9227 0.5028 0.8016
H10 H 0.7996 0.2977 0.7435
H11 H 1.0030 0.1898 0.7710
H12 H 0.6973 -0.0417 0.7567
H13 H 0.4968 0.1049 0.7753
H14 H 0.5828 -0.1382 0.8269
H15 H 0.8644 -0.0882 0.8246
H16 H 0.6999 0.0667 0.8852
H17 H 0.5014 0.1765 0.8569
loop_
_geom_bond_atom_site_label_1
_geom_bond_atom_site_label_2
_geom_bond_site_symmetry_1
_geom_bond_site_symmetry_2
O1 C7 1_555 1_555
O2 N1 1_555 1_555
N1 C1 1_555 1_555
C1 C2 1_555 1_555
C2 C3 1_555 1_555
C3 C4 1_555 1_555
C4 C5 1_555 1_555
C5 C6 1_555 1_555
C6 C1 1_555 1_555
C7 N1 1_555 1_555
C8 C7 1_555 1_555
C9 C8 1_555 1_555
C10 C9 1_555 1_555
C11 C10 1_555 1_555
C12 C11 1_555 1_555
C13 C8 1_555 1_555
H1 O2 1_555 1_555
H2 C2 1_555 1_555
H3 C3 1_555 1_555
H4 C4 1_555 1_555
H5 C5 1_555 1_555
H6 C6 1_555 1_555
H7 C8 1_555 1_555
H8 C9 1_555 1_555
H9 C9 1_555 1_555
H10 C10 1_555 1_555
H11 C10 1_555 1_555
H12 C11 1_555 1_555
H13 C11 1_555 1_555
H14 C12 1_555 1_555
H15 C12 1_555 1_555
H16 C13 1_555 1_555
H17 C13 1_555 1_555
C12 C13 1_555 1_555

#END
