
#######################################################################
#
#                 Cambridge Crystallographic Data Centre
#                                CCDC 
#
#######################################################################
#
# If this CIF has been generated from an entry in the Cambridge 
# Structural Database, then it will include bibliographic, chemical, 
# crystal, experimental, refinement or atomic coordinate data resulting 
# from the CCDC's data processing and validation procedures.
#
#######################################################################

data_POZQOL
_chemical_formula_moiety         'C10 H8 N2 O5'
_chemical_name_systematic        
(1R,2S,3S)-2-Nitro-3-(4-nitrophenyl)cyclopropanecarbaldehyde
_symmetry_cell_setting           orthorhombic
_symmetry_space_group_name_H-M   'P 21 21 21'
_symmetry_Int_Tables_number      19
_space_group_name_Hall           'P 2ac 2ab'
loop_
_symmetry_equiv_pos_site_id
_symmetry_equiv_pos_as_xyz
1 x,y,z
2 1/2-x,-y,1/2+z
3 -x,1/2+y,1/2-z
4 1/2+x,1/2-y,-z
_cell_length_a                   7.0946(2)
_cell_length_b                   8.1866(2)
_cell_length_c                   18.1097(5)
_cell_angle_alpha                90
_cell_angle_beta                 90
_cell_angle_gamma                90
_cell_volume                     1051.82
_exptl_crystal_colour            yellow
_exptl_crystal_description       block
_cell_formula_units_Z            4
_exptl_crystal_recrystallization_method 'ethyl acetate/petroleum ether'
loop_
_atom_site_label
_atom_site_type_symbol
_atom_site_fract_x
_atom_site_fract_y
_atom_site_fract_z
O1 O 0.0398(8) 0.0951(5) 0.1755(3)
O2 O 0.5672(5) 0.2194(6) 0.2400(2)
O3 O 0.4638(6) 0.0956(5) 0.1545(2)
O4 O 0.2558(5) 0.9203(4) -0.14555(17)
O5 O 0.2534(5) 1.0759(3) -0.0511(2)
N1 N 0.4659(5) 0.2149(4) 0.19221(16)
N2 N 0.2511(5) 0.9417(4) -0.0803(2)
C1 C 0.0432(6) 0.2190(6) 0.1950(3)
H1 H -0.0393 0.2369 0.2341
C2 C 0.1462(6) 0.3636(6) 0.1745(2)
H2 H 0.0909 0.4666 0.1916
C3 C 0.3602(5) 0.3614(5) 0.1713(2)
H3 H 0.4196 0.4640 0.1865
C4 C 0.2492(5) 0.3740(4) 0.10480(18)
H4 H 0.2456 0.2733 0.0756
C5 C 0.2455(5) 0.5269(4) 0.05919(18)
C6 C 0.2461(6) 0.6800(5) 0.08848(19)
H5 H 0.2463 0.6915 0.1396
C7 C 0.2464(5) 0.8219(4) 0.0442(2)
H6 H 0.2453 0.9261 0.0646
C8 C 0.2483(5) 0.7964(3) -0.03127(18)
C9 C 0.2496(6) 0.6459(4) -0.06067(19)
H7 H 0.2562 0.6337 -0.1117
C10 C 0.2414(5) 0.5096(4) -0.0165(2)
H8 H 0.2331 0.4062 -0.0375
loop_
_geom_bond_atom_site_label_1
_geom_bond_atom_site_label_2
_geom_bond_site_symmetry_1
_geom_bond_site_symmetry_2
O1 C1 1_555 1_555
O2 N1 1_555 1_555
O3 N1 1_555 1_555
O4 N2 1_555 1_555
O5 N2 1_555 1_555
N1 C3 1_555 1_555
N2 C8 1_555 1_555
C1 H1 1_555 1_555
C2 C1 1_555 1_555
H2 C2 1_555 1_555
C3 C2 1_555 1_555
H3 C3 1_555 1_555
C4 C2 1_555 1_555
H4 C4 1_555 1_555
C5 C4 1_555 1_555
C6 C5 1_555 1_555
H5 C6 1_555 1_555
C7 C6 1_555 1_555
H6 C7 1_555 1_555
C8 C7 1_555 1_555
C9 C8 1_555 1_555
H7 C9 1_555 1_555
C10 C5 1_555 1_555
H8 C10 1_555 1_555
C3 C4 1_555 1_555
C9 C10 1_555 1_555

#END
