
#######################################################################
#
#                 Cambridge Crystallographic Data Centre
#                                CCDC 
#
#######################################################################
#
# If this CIF has been generated from an entry in the Cambridge 
# Structural Database, then it will include bibliographic, chemical, 
# crystal, experimental, refinement or atomic coordinate data resulting 
# from the CCDC's data processing and validation procedures.
#
#######################################################################

data_POZROM
_chemical_formula_moiety         'C14 H22 N2 O6'
_chemical_name_systematic        
(E)-3-(Acetylhydrazono)-1,2:4,5-di-O-isopropylidene-\b-D-erythro-2-hexulopyranose
_symmetry_cell_setting           orthorhombic
_symmetry_space_group_name_H-M   'P 21 21 2'
_symmetry_Int_Tables_number      18
_space_group_name_Hall           'P 2 2ab'
loop_
_symmetry_equiv_pos_site_id
_symmetry_equiv_pos_as_xyz
1 x,y,z
2 -x,-y,z
3 1/2+x,1/2-y,-z
4 1/2-x,1/2+y,-z
_cell_length_a                   18.937(4)
_cell_length_b                   8.7011(17)
_cell_length_c                   11.918(2)
_cell_angle_alpha                90
_cell_angle_beta                 90
_cell_angle_gamma                90
_cell_volume                     1963.76
_exptl_crystal_colour            colorless
_exptl_crystal_description       block
_chemical_melting_point          '107-109 deg.C'
_cell_formula_units_Z            4
_exptl_crystal_recrystallization_method 'ethyl acetate/cyclohexane'
loop_
_atom_site_label
_atom_site_type_symbol
_atom_site_fract_x
_atom_site_fract_y
_atom_site_fract_z
O1 O 0.78325(12) 0.5824(3) 0.2740(2)
O2 O 0.86153(10) 0.7821(3) 0.55150(18)
O3 O 0.78885(11) 0.5754(3) 0.5229(2)
O4 O 0.80276(12) 0.8265(3) 0.1971(2)
O5 O 0.84134(16) 0.6819(4) 0.0516(2)
O6 O 1.08727(13) 0.8677(3) 0.4952(2)
N1 N 0.94212(13) 0.7481(3) 0.3384(2)
N2 N 0.98149(12) 0.8054(3) 0.4255(2)
H1 H 0.9715 0.7450 0.4892
C1 C 0.73161(17) 0.6393(5) 0.3491(3)
H2 H 0.6988 0.5573 0.3671
H3 H 0.7052 0.7204 0.3123
C2 C 0.76255(16) 0.7012(4) 0.4564(3)
H4 H 0.7265 0.7581 0.4983
C3 C 0.82861(14) 0.7987(4) 0.4433(2)
H5 H 0.8153 0.9063 0.4314
C4 C 0.87480(16) 0.7451(4) 0.3480(3)
C5 C 0.83508(17) 0.6936(4) 0.2437(3)
C6 C 0.8769(2) 0.6295(5) 0.1473(3)
H6 H 0.9251 0.6673 0.1487
H7 H 0.8776 0.5181 0.1497
C7 C 0.8142(3) 0.8295(6) 0.0793(3)
C8 C 0.7399(4) 0.8453(7) 0.0238(5)
H8 H 0.7450 0.8479 -0.0563
H9 H 0.7179 0.9386 0.0489
H10 H 0.7111 0.7591 0.0447
C9 C 0.8653(4) 0.9545(7) 0.0509(5)
H11 H 0.8732 0.9559 -0.0286
H12 H 0.9092 0.9363 0.0889
H13 H 0.8464 1.0517 0.0743
C10 C 0.83942(16) 0.6378(4) 0.6002(3)
C11 C 0.9006(2) 0.5262(5) 0.6042(4)
H14 H 0.9359 0.5641 0.6549
H15 H 0.9205 0.5158 0.5306
H16 H 0.8841 0.4279 0.6298
C12 C 0.8069(2) 0.6692(6) 0.7118(3)
H17 H 0.8421 0.7097 0.7617
H18 H 0.7882 0.5755 0.7422
H19 H 0.7695 0.7428 0.7033
C13 C 1.05372(17) 0.8122(4) 0.4177(4)
C14 C 1.08657(19) 0.7516(6) 0.3136(4)
H20 H 1.0505 0.7106 0.2655
H21 H 1.1195 0.6718 0.3325
H22 H 1.1109 0.8331 0.2755
loop_
_geom_bond_atom_site_label_1
_geom_bond_atom_site_label_2
_geom_bond_site_symmetry_1
_geom_bond_site_symmetry_2
O1 C1 1_555 1_555
O2 C3 1_555 1_555
O3 C2 1_555 1_555
O4 C5 1_555 1_555
O5 C6 1_555 1_555
O6 C13 1_555 1_555
N1 N2 1_555 1_555
N2 H1 1_555 1_555
C1 H2 1_555 1_555
H3 C1 1_555 1_555
C2 C1 1_555 1_555
H4 C2 1_555 1_555
C3 C2 1_555 1_555
H5 C3 1_555 1_555
C4 N1 1_555 1_555
C5 O1 1_555 1_555
C6 C5 1_555 1_555
H6 C6 1_555 1_555
H7 C6 1_555 1_555
C7 O4 1_555 1_555
C8 C7 1_555 1_555
H8 C8 1_555 1_555
H9 C8 1_555 1_555
H10 C8 1_555 1_555
C9 C7 1_555 1_555
H11 C9 1_555 1_555
H12 C9 1_555 1_555
H13 C9 1_555 1_555
C10 O2 1_555 1_555
C11 C10 1_555 1_555
H14 C11 1_555 1_555
H15 C11 1_555 1_555
H16 C11 1_555 1_555
C12 C10 1_555 1_555
H17 C12 1_555 1_555
H18 C12 1_555 1_555
H19 C12 1_555 1_555
C13 N2 1_555 1_555
C14 C13 1_555 1_555
H20 C14 1_555 1_555
H21 C14 1_555 1_555
H22 C14 1_555 1_555
O3 C10 1_555 1_555
O5 C7 1_555 1_555
C3 C4 1_555 1_555
C4 C5 1_555 1_555

#END
