
#######################################################################
#
#                 Cambridge Crystallographic Data Centre
#                                CCDC 
#
#######################################################################
#
# If this CIF has been generated from an entry in the Cambridge 
# Structural Database, then it will include bibliographic, chemical, 
# crystal, experimental, refinement or atomic coordinate data resulting 
# from the CCDC's data processing and validation procedures.
#
#######################################################################

data_POZTON
_chemical_formula_moiety         'C66 H70 N4 O16 S4'
_chemical_name_systematic        
5,7,23,25-tetrakis(Ethoxycarbonyl)-2,11,20,29-tetrakis(4-tolylsulfonyl)-2,11,20,29-tetra-aza(3.3)(1,3)(1,3)(3.3)(2,4)(1,3)cyclophane
_symmetry_cell_setting           triclinic
_symmetry_space_group_name_H-M   'P -1'
_symmetry_Int_Tables_number      2
_space_group_name_Hall           '-P 1'
loop_
_symmetry_equiv_pos_site_id
_symmetry_equiv_pos_as_xyz
1 x,y,z
2 -x,-y,-z
_cell_length_a                   9.753(1)
_cell_length_b                   14.419(1)
_cell_length_c                   24.608(2)
_cell_angle_alpha                78.40(1)
_cell_angle_beta                 86.78(1)
_cell_angle_gamma                71.45(1)
_cell_volume                     3213.67
_exptl_crystal_colour            colorless
_exptl_crystal_description       plate
_chemical_melting_point          279-280deg.C
_cell_formula_units_Z            2
_exptl_crystal_recrystallization_method toluene
loop_
_atom_site_label
_atom_site_type_symbol
_atom_site_fract_x
_atom_site_fract_y
_atom_site_fract_z
C1 C 0.2579(6) 0.3307(5) 0.2491(3)
H1 H 0.2340(6) 0.4001(5) 0.2307(3)
H2 H 0.2133(6) 0.2970(5) 0.2285(3)
N1 N 0.2041(5) 0.3234(4) 0.3070(2)
C2 C 0.2478(7) 0.3843(5) 0.3401(3)
H3 H 0.1726(7) 0.4050(5) 0.3666(3)
H4 H 0.2566(7) 0.4439(5) 0.3156(3)
C3 C 0.3902(7) 0.3291(6) 0.3710(3)
C4 C 0.4808(9) 0.3785(6) 0.3868(3)
C5 C 0.6156(9) 0.3222(6) 0.4106(3)
H5 H 0.6740(9) 0.3551(6) 0.4216(3)
C6 C 0.6652(8) 0.2201(6) 0.4183(3)
C7 C 0.5723(8) 0.1694(6) 0.4059(3)
C8 C 0.4366(8) 0.2266(6) 0.3835(3)
H6 H 0.3737(8) 0.1935(6) 0.3765(3)
C9 C 0.6150(8) 0.0571(5) 0.4168(3)
H7 H 0.7179(8) 0.0299(5) 0.4248(3)
H8 H 0.5647(8) 0.0349(5) 0.4495(3)
N2 N 0.5831(6) 0.0171(4) 0.3709(2)
C10 C 0.6729(7) 0.0288(5) 0.3202(3)
H9 H 0.6678(7) -0.0173(5) 0.2972(3)
H10 H 0.7731(7) 0.0131(5) 0.3309(3)
C11 C 0.6181(8) 0.1360(5) 0.2872(3)
C12 C 0.7091(8) 0.1938(6) 0.2820(3)
H11 H 0.8036(8) 0.1658(6) 0.2954(3)
C13 C 0.6591(8) 0.2927(6) 0.2570(3)
H12 H 0.7238(8) 0.3291(6) 0.2498(3)
C14 C 0.5172(8) 0.3392(5) 0.2425(3)
C15 C 0.4205(7) 0.2822(6) 0.2512(3)
C16 C 0.4761(7) 0.1789(6) 0.2677(3)
C17 C 0.3855(7) 0.1159(5) 0.2575(3)
H13 H 0.4252(7) 0.0483(5) 0.2781(3)
H14 H 0.2871(7) 0.1433(5) 0.2696(3)
N3 N 0.3870(7) 0.1160(4) 0.1964(2)
C18 C 0.5266(9) 0.0689(6) 0.1726(3)
H15 H 0.5111(9) 0.0316(6) 0.1462(3)
H16 H 0.5882(9) 0.0216(6) 0.2021(3)
C19 C 0.6072(9) 0.1408(6) 0.1433(3)
C20 C 0.7447(10) 0.1042(7) 0.1215(3)
C21 C 0.8191(10) 0.1722(8) 0.1009(3)
H17 H 0.9110(10) 0.1484(8) 0.0864(3)
C22 C 0.7630(12) 0.2725(8) 0.1009(3)
C23 C 0.6256(13) 0.3082(7) 0.1192(3)
C24 C 0.5464(10) 0.2425(7) 0.1380(3)
H18 H 0.4497(10) 0.2683(7) 0.1472(3)
C25 C 0.5562(15) 0.4193(7) 0.1185(5)
H19 H 0.6293(15) 0.4447(7) 0.1294(5)
H20 H 0.5276(15) 0.4525(7) 0.0807(5)
N4 N 0.4312(8) 0.4475(5) 0.1537(3)
C26 C 0.4672(8) 0.4453(6) 0.2106(3)
H21 H 0.3830(8) 0.4838(6) 0.2283(3)
H22 H 0.5432(8) 0.4753(6) 0.2107(3)
S1 S 0.5515(2) -0.0906(2) 0.39014(10)
O1 O 0.5245(7) -0.1183(4) 0.3404(2)
O2 O 0.4432(6) -0.0766(4) 0.4330(3)
C27 C 0.7107(8) -0.1796(5) 0.4204(3)
C28 C 0.7330(9) -0.1959(6) 0.4763(3)
H23 H 0.6654(9) -0.1589(6) 0.4983(3)
C29 C 0.8559(9) -0.2674(7) 0.4999(3)
H24 H 0.8693(9) -0.2778(7) 0.5380(3)
C30 C 0.9582(9) -0.3231(6) 0.4700(4)
C31 C 0.9354(10) -0.3064(6) 0.4142(4)
H25 H 1.0029(10) -0.3445(6) 0.3927(4)
C32 C 0.8126(10) -0.2333(6) 0.3887(3)
H26 H 0.8005(10) -0.2214(6) 0.3505(3)
C33 C 1.0927(9) -0.4020(6) 0.4968(4)
H27 H 1.1516(9) -0.4331(6) 0.4688(4)
H28 H 1.0654(9) -0.4513(6) 0.5235(4)
H29 H 1.1465(9) -0.3715(6) 0.5150(4)
S2 S 0.0357(2) 0.3226(2) 0.31505(8)
O3 O 0.0231(5) 0.2472(4) 0.2879(2)
O4 O 0.0050(5) 0.3158(4) 0.3730(2)
C34 C -0.0725(8) 0.4375(6) 0.2795(3)
C35 C -0.0865(8) 0.4548(6) 0.2226(4)
H30 H -0.0444(8) 0.4036(6) 0.2034(4)
C36 C -0.1633(10) 0.5487(8) 0.1942(4)
H31 H -0.1737(10) 0.5600(8) 0.1559(4)
C37 C -0.2233(13) 0.6238(8) 0.2217(5)
C38 C -0.2145(12) 0.6056(7) 0.2779(5)
H32 H -0.2623(12) 0.6566(7) 0.2967(5)
C39 C -0.1359(10) 0.5128(7) 0.3083(4)
H33 H -0.1267(10) 0.5022(7) 0.3466(4)
C40 C -0.3034(15) 0.7291(8) 0.1892(6)
H34 H -0.3393(15) 0.7736(8) 0.2147(6)
H35 H -0.3828(15) 0.7265(8) 0.1688(6)
H36 H -0.2379(15) 0.7527(8) 0.1638(6)
S3 S 0.2405(3) 0.1152(2) 0.16832(9)
O5 O 0.1260(6) 0.2015(4) 0.1772(2)
O6 O 0.2768(7) 0.1020(4) 0.1128(2)
C41 C 0.1985(9) 0.0092(6) 0.2046(3)
C42 C 0.3046(10) -0.0806(7) 0.2214(4)
H37 H 0.4015(10) -0.0844(7) 0.2171(4)
C43 C 0.2684(11) -0.1644(7) 0.2442(4)
H38 H 0.3415(11) -0.2243(7) 0.2555(4)
C44 C 0.1283(11) -0.1621(8) 0.2509(4)
C45 C 0.0263(11) -0.0725(9) 0.2388(5)
H39 H -0.0699(11) -0.0689(9) 0.2453(5)
C46 C 0.0581(10) 0.0146(8) 0.2169(4)
H40 H -0.0148(10) 0.0757(8) 0.2108(4)
C47 C 0.0916(12) -0.2577(8) 0.2726(5)
H41 H 0.1792(12) -0.3131(8) 0.2787(5)
H42 H 0.0320(12) -0.2676(8) 0.2459(5)
H43 H 0.0404(12) -0.2529(8) 0.3070(5)
S4 S 0.2914(4) 0.5333(2) 0.12319(14)
O7 O 0.2618(11) 0.4951(6) 0.0774(3)
O8 O 0.1886(7) 0.5577(5) 0.1653(4)
C48 C 0.3459(11) 0.6370(7) 0.0941(4)
C49 C 0.3884(12) 0.6517(7) 0.0403(4)
H44 H 0.3872(12) 0.6068(7) 0.0181(4)
C50 C 0.4334(12) 0.7329(7) 0.0185(4)
H45 H 0.4630(12) 0.7415(7) -0.0182(4)
C51 C 0.4355(12) 0.7998(7) 0.0488(4)
C52 C 0.3919(13) 0.7841(7) 0.1021(4)
H46 H 0.3895(13) 0.8303(7) 0.1239(4)
C53 C 0.3504(12) 0.7009(7) 0.1254(4)
H47 H 0.3259(12) 0.6902(7) 0.1627(4)
C54 C 0.4804(13) 0.8914(7) 0.0240(4)
H48 H 0.4751(13) 0.9303(7) 0.0520(4)
H49 H 0.4166(13) 0.9309(7) -0.0062(4)
H50 H 0.5778(13) 0.8707(7) 0.0108(4)
C55 C 0.8196(9) 0.1674(7) 0.4382(4)
O9 O 0.8663(6) 0.1871(5) 0.4762(2)
O10 O 0.8921(6) 0.1051(4) 0.4067(2)
C56 C 1.0456(9) 0.0554(8) 0.4190(4)
H51 H 1.0988(9) 0.1030(8) 0.4103(4)
H52 H 1.0600(9) 0.0247(8) 0.4580(4)
C57 C 1.0949(10) -0.0200(9) 0.3848(5)
H53 H 1.1960(10) -0.0547(9) 0.3916(5)
H54 H 1.0799(10) 0.0114(9) 0.3464(5)
H55 H 1.0414(10) -0.0665(9) 0.3938(5)
C58 C 0.4366(13) 0.4879(8) 0.3792(4)
O11 O 0.3277(10) 0.5426(6) 0.3591(5)
O12 O 0.5227(8) 0.5211(5) 0.4003(3)
C59 C 0.4825(14) 0.6285(7) 0.3989(5)
H56 H 0.5434(14) 0.6571(7) 0.3729(5)
H57 H 0.3828(14) 0.6604(7) 0.3867(5)
C60 C 0.4987(18) 0.6443(8) 0.4503(5)
H58 H 0.4723(18) 0.7147(8) 0.4493(5)
H59 H 0.5977(18) 0.6131(8) 0.4620(5)
H60 H 0.4375(18) 0.6164(8) 0.4758(5)
C61 C 0.8144(13) -0.0027(9) 0.1209(6)
O13 O 0.7751(8) -0.0684(6) 0.1458(4)
O14 O 0.9214(9) -0.0174(6) 0.0878(4)
C62 C 1.0032(16) -0.1237(9) 0.0855(7)
H61 H 1.1056(16) -0.1372(9) 0.0916(7)
H62 H 0.9687(16) -0.1685(9) 0.1136(7)
C63 C 0.9797(26) -0.1362(12) 0.0347(7)
H63 H 1.0303(26) -0.2037(12) 0.0312(7)
H64 H 1.0142(26) -0.0914(12) 0.0074(7)
H65 H 0.8780(26) -0.1225(12) 0.0293(7)
C64 C 0.8596(17) 0.3347(10) 0.0830(5)
O15 O 0.8398(11) 0.4131(7) 0.0959(5)
O16 O 0.9665(10) 0.2994(7) 0.0543(4)
C65 C 1.0704(15) 0.3573(11) 0.0407(7)
H66 H 1.0180(15) 0.4280(11) 0.0362(7)
H67 H 1.1387(15) 0.3397(11) 0.0711(7)
C66 C 1.1400(17) 0.3396(12) -0.0044(7)
H68 H 1.2060(17) 0.3778(12) -0.0121(7)
H69 H 1.0727(17) 0.3580(12) -0.0346(7)
H70 H 1.1932(17) 0.2699(12) 0.0003(7)
loop_
_geom_bond_atom_site_label_1
_geom_bond_atom_site_label_2
_geom_bond_site_symmetry_1
_geom_bond_site_symmetry_2
C1 H1 1_555 1_555
H2 C1 1_555 1_555
N1 C1 1_555 1_555
C2 N1 1_555 1_555
H3 C2 1_555 1_555
H4 C2 1_555 1_555
C3 C2 1_555 1_555
C4 C3 1_555 1_555
C5 C4 1_555 1_555
H5 C5 1_555 1_555
C6 C5 1_555 1_555
C7 C6 1_555 1_555
C8 C3 1_555 1_555
H6 C8 1_555 1_555
C9 C7 1_555 1_555
H7 C9 1_555 1_555
H8 C9 1_555 1_555
N2 C9 1_555 1_555
C10 N2 1_555 1_555
H9 C10 1_555 1_555
H10 C10 1_555 1_555
C11 C10 1_555 1_555
C12 C11 1_555 1_555
H11 C12 1_555 1_555
C13 C12 1_555 1_555
H12 C13 1_555 1_555
C14 C13 1_555 1_555
C15 C1 1_555 1_555
C16 C11 1_555 1_555
C17 C16 1_555 1_555
H13 C17 1_555 1_555
H14 C17 1_555 1_555
N3 C17 1_555 1_555
C18 N3 1_555 1_555
H15 C18 1_555 1_555
H16 C18 1_555 1_555
C19 C18 1_555 1_555
C20 C19 1_555 1_555
C21 C20 1_555 1_555
H17 C21 1_555 1_555
C22 C21 1_555 1_555
C23 C22 1_555 1_555
C24 C19 1_555 1_555
H18 C24 1_555 1_555
C25 C23 1_555 1_555
H19 C25 1_555 1_555
H20 C25 1_555 1_555
N4 C25 1_555 1_555
C26 C14 1_555 1_555
H21 C26 1_555 1_555
H22 C26 1_555 1_555
S1 N2 1_555 1_555
O1 S1 1_555 1_555
O2 S1 1_555 1_555
C27 S1 1_555 1_555
C28 C27 1_555 1_555
H23 C28 1_555 1_555
C29 C28 1_555 1_555
H24 C29 1_555 1_555
C30 C29 1_555 1_555
C31 C30 1_555 1_555
H25 C31 1_555 1_555
C32 C27 1_555 1_555
H26 C32 1_555 1_555
C33 C30 1_555 1_555
H27 C33 1_555 1_555
H28 C33 1_555 1_555
H29 C33 1_555 1_555
S2 N1 1_555 1_555
O3 S2 1_555 1_555
O4 S2 1_555 1_555
C34 S2 1_555 1_555
C35 C34 1_555 1_555
H30 C35 1_555 1_555
C36 C35 1_555 1_555
H31 C36 1_555 1_555
C37 C36 1_555 1_555
C38 C37 1_555 1_555
H32 C38 1_555 1_555
C39 C34 1_555 1_555
H33 C39 1_555 1_555
C40 C37 1_555 1_555
H34 C40 1_555 1_555
H35 C40 1_555 1_555
H36 C40 1_555 1_555
S3 N3 1_555 1_555
O5 S3 1_555 1_555
O6 S3 1_555 1_555
C41 S3 1_555 1_555
C42 C41 1_555 1_555
H37 C42 1_555 1_555
C43 C42 1_555 1_555
H38 C43 1_555 1_555
C44 C43 1_555 1_555
C45 C44 1_555 1_555
H39 C45 1_555 1_555
C46 C41 1_555 1_555
H40 C46 1_555 1_555
C47 C44 1_555 1_555
H41 C47 1_555 1_555
H42 C47 1_555 1_555
H43 C47 1_555 1_555
S4 N4 1_555 1_555
O7 S4 1_555 1_555
O8 S4 1_555 1_555
C48 S4 1_555 1_555
C49 C48 1_555 1_555
H44 C49 1_555 1_555
C50 C49 1_555 1_555
H45 C50 1_555 1_555
C51 C50 1_555 1_555
C52 C51 1_555 1_555
H46 C52 1_555 1_555
C53 C48 1_555 1_555
H47 C53 1_555 1_555
C54 C51 1_555 1_555
H48 C54 1_555 1_555
H49 C54 1_555 1_555
H50 C54 1_555 1_555
C55 C6 1_555 1_555
O9 C55 1_555 1_555
O10 C55 1_555 1_555
C56 O10 1_555 1_555
H51 C56 1_555 1_555
H52 C56 1_555 1_555
C57 C56 1_555 1_555
H53 C57 1_555 1_555
H54 C57 1_555 1_555
H55 C57 1_555 1_555
C58 C4 1_555 1_555
O11 C58 1_555 1_555
O12 C58 1_555 1_555
C59 O12 1_555 1_555
H56 C59 1_555 1_555
H57 C59 1_555 1_555
C60 C59 1_555 1_555
H58 C60 1_555 1_555
H59 C60 1_555 1_555
H60 C60 1_555 1_555
C61 C20 1_555 1_555
O13 C61 1_555 1_555
O14 C61 1_555 1_555
C62 O14 1_555 1_555
H61 C62 1_555 1_555
H62 C62 1_555 1_555
C63 C62 1_555 1_555
H63 C63 1_555 1_555
H64 C63 1_555 1_555
H65 C63 1_555 1_555
C64 C22 1_555 1_555
O15 C64 1_555 1_555
O16 C64 1_555 1_555
C65 O16 1_555 1_555
H66 C65 1_555 1_555
H67 C65 1_555 1_555
C66 C65 1_555 1_555
H68 C66 1_555 1_555
H69 C66 1_555 1_555
H70 C66 1_555 1_555
C7 C8 1_555 1_555
C14 C15 1_555 1_555
C15 C16 1_555 1_555
C23 C24 1_555 1_555
N4 C26 1_555 1_555
C31 C32 1_555 1_555
C38 C39 1_555 1_555
C45 C46 1_555 1_555
C52 C53 1_555 1_555

#END
