
#######################################################################
#
#                 Cambridge Crystallographic Data Centre
#                                CCDC 
#
#######################################################################
#
# If this CIF has been generated from an entry in the Cambridge 
# Structural Database, then it will include bibliographic, chemical, 
# crystal, experimental, refinement or atomic coordinate data resulting 
# from the CCDC's data processing and validation procedures.
#
#######################################################################

data_POZXUY
_chemical_formula_moiety         'C27 H31 N5 2+,2(Br1 1-)'
_chemical_name_systematic        
"1,1'-(Pyridine-2,6-diyl)-bis(3-butyl-1H-benzimidazol-3-ium) dibromide"
_symmetry_cell_setting           triclinic
_symmetry_space_group_name_H-M   'P -1'
_symmetry_Int_Tables_number      2
_space_group_name_Hall           '-P 1'
loop_
_symmetry_equiv_pos_site_id
_symmetry_equiv_pos_as_xyz
1 x,y,z
2 -x,-y,-z
_cell_length_a                   8.2731(4)
_cell_length_b                   12.8114(6)
_cell_length_c                   12.9825(7)
_cell_angle_alpha                70.608(4)
_cell_angle_beta                 77.519(4)
_cell_angle_gamma                88.161(4)
_cell_volume                     1266.1
_exptl_crystal_colour            colorless
_exptl_crystal_description       rod
_cell_formula_units_Z            2
_exptl_crystal_recrystallization_method ethanol
loop_
_atom_site_label
_atom_site_type_symbol
_atom_site_fract_x
_atom_site_fract_y
_atom_site_fract_z
N1 N 0.1226(2) 0.88667(13) 0.74097(14)
C1 C 0.1753(2) 0.90099(16) 0.63426(17)
H1 H 0.1159 0.9361 0.5779
N2 N 0.3267(2) 0.85857(13) 0.61601(13)
C2 C 0.3738(2) 0.81510(15) 0.71961(16)
C3 C 0.5207(3) 0.77084(16) 0.74722(18)
H2 H 0.6109 0.7603 0.6928
C4 C 0.5274(3) 0.74313(17) 0.85840(18)
H3 H 0.6258 0.7134 0.881
C5 C 0.3933(3) 0.75754(18) 0.93935(17)
H4 H 0.4026 0.7355 1.0152
C6 C 0.2479(3) 0.80313(17) 0.91105(17)
H5 H 0.1569 0.813 0.9653
C7 C 0.2434(2) 0.83348(16) 0.79857(16)
C8 C -0.0342(2) 0.92869(17) 0.78799(17)
H6 H -0.0946 0.8697 0.8552
H7 H -0.1049 0.9494 0.7323
C9 C -0.0008(3) 1.02930(17) 0.81939(19)
H8 H 0.0912 1.0759 0.762
H9 H 0.0339 1.0042 0.8918
C10 C -0.1538(3) 1.09827(17) 0.82872(18)
H10 H -0.1246 1.164 0.846
H11 H -0.1853 1.125 0.7552
C11 C -0.3016(3) 1.03724(19) 0.9164(2)
H12 H -0.3231 0.9671 0.9059
H13 H -0.3988 1.0827 0.9095
H14 H -0.279 1.0222 0.9909
C12 C 0.9738(3) 0.4920(2) 0.3176(2)
H15 H 1.0381 0.4396 0.3668
H16 H 1.0513 0.5524 0.2634
C13 C 0.8994(3) 0.43175(17) 0.25398(18)
H17 H 0.83 0.4826 0.2077
H18 H 0.8277 0.368 0.3079
C14 C 1.0366(3) 0.39058(17) 0.17868(18)
H19 H 0.985 0.3507 0.1396
H20 H 1.102 0.3372 0.2261
C15 C 1.1538(3) 0.48362(19) 0.09136(19)
H21 H 1.0892 0.5465 0.0584
H22 H 1.2156 0.4566 0.0325
H23 H 1.2316 0.5072 0.1273
N3 N 0.4991(2) 0.76392(13) 0.51673(14)
C16 C 0.4141(2) 0.85430(16) 0.51079(16)
C17 C 0.4065(2) 0.93988(16) 0.41310(16)
H24 H 0.3447 1.0036 0.4136
C18 C 0.4950(3) 0.92700(16) 0.31408(16)
H25 H 0.493 0.9827 0.2445
C19 C 0.5860(3) 0.83372(16) 0.31605(17)
H26 H 0.6465 0.8235 0.2493
C20 C 0.5842(2) 0.75589(16) 0.42079(16)
N4 N 0.8468(2) 0.53897(15) 0.38616(15)
C21 C 0.7880(2) 0.63886(17) 0.35038(17)
H27 H 0.8225 0.6906 0.2771
N5 N 0.6722(2) 0.65672(14) 0.43261(14)
C22 C 0.6565(2) 0.56179(16) 0.52844(16)
C23 C 0.5572(2) 0.53500(16) 0.63622(17)
H28 H 0.4834 0.586 0.658
C24 C 0.5723(3) 0.42938(17) 0.71029(18)
H29 H 0.5063 0.4072 0.7842
C25 C 0.6832(3) 0.35546(17) 0.6774(2)
H30 H 0.6902 0.2844 0.7303
C26 C 0.7822(3) 0.38159(17) 0.5718(2)
H31 H 0.857 0.3308 0.5504
C27 C 0.7665(2) 0.48696(17) 0.49791(17)
Br1 Br -0.08196(3) 0.827510(17) 0.503572(18)
Br2 Br 0.79841(3) 0.740150(18) 0.075255(17)
loop_
_geom_bond_atom_site_label_1
_geom_bond_atom_site_label_2
_geom_bond_site_symmetry_1
_geom_bond_site_symmetry_2
N1 C1 1_555 1_555
C1 H1 1_555 1_555
N2 C1 1_555 1_555
C2 N2 1_555 1_555
C3 C2 1_555 1_555
H2 C3 1_555 1_555
C4 C3 1_555 1_555
H3 C4 1_555 1_555
C5 C4 1_555 1_555
H4 C5 1_555 1_555
C6 C5 1_555 1_555
H5 C6 1_555 1_555
C7 N1 1_555 1_555
C8 N1 1_555 1_555
H6 C8 1_555 1_555
H7 C8 1_555 1_555
C9 C8 1_555 1_555
H8 C9 1_555 1_555
H9 C9 1_555 1_555
C10 C9 1_555 1_555
H10 C10 1_555 1_555
H11 C10 1_555 1_555
C11 C10 1_555 1_555
H12 C11 1_555 1_555
H13 C11 1_555 1_555
H14 C11 1_555 1_555
C12 H15 1_555 1_555
H16 C12 1_555 1_555
C13 C12 1_555 1_555
H17 C13 1_555 1_555
H18 C13 1_555 1_555
C14 C13 1_555 1_555
H19 C14 1_555 1_555
H20 C14 1_555 1_555
C15 C14 1_555 1_555
H21 C15 1_555 1_555
H22 C15 1_555 1_555
H23 C15 1_555 1_555
N3 C16 1_555 1_555
C16 N2 1_555 1_555
C17 C16 1_555 1_555
H24 C17 1_555 1_555
C18 C17 1_555 1_555
H25 C18 1_555 1_555
C19 C18 1_555 1_555
H26 C19 1_555 1_555
C20 N3 1_555 1_555
N4 C12 1_555 1_555
C21 N4 1_555 1_555
H27 C21 1_555 1_555
N5 C20 1_555 1_555
C22 N5 1_555 1_555
C23 C22 1_555 1_555
H28 C23 1_555 1_555
C24 C23 1_555 1_555
H29 C24 1_555 1_555
C25 C24 1_555 1_555
H30 C25 1_555 1_555
C26 C25 1_555 1_555
H31 C26 1_555 1_555
C27 N4 1_555 1_555
C2 C7 1_555 1_555
C6 C7 1_555 1_555
C19 C20 1_555 1_555
C21 N5 1_555 1_555
C22 C27 1_555 1_555
C26 C27 1_555 1_555

#END
