
#######################################################################
#
#                 Cambridge Crystallographic Data Centre
#                                CCDC 
#
#######################################################################
#
# If this CIF has been generated from an entry in the Cambridge 
# Structural Database, then it will include bibliographic, chemical, 
# crystal, experimental, refinement or atomic coordinate data resulting 
# from the CCDC's data processing and validation procedures.
#
#######################################################################

data_POZZAG
_chemical_formula_moiety         'C87 H96 B6 N6 O12,8(C2 H4 Cl2)'
_chemical_name_systematic        
'1^2^,1^4^,1^6^,11^2^,11^4^,11^6^-Hexaethyl-3,9,13,19,22,28-hexaaza-1,11(1,3,5),5,7,15,17,24,26(1,4)-octabenzena-6,16,25(3,9)-tris(2,4,8,10-tetraoxa-3,9-diboraspiro(5.5)undecana)bicyclo(9.9.9)nonacosaphane-3,8,13,18,22,27-hexaene 1,2-dichloroethane solvate'
_symmetry_cell_setting           orthorhombic
_symmetry_space_group_name_H-M   'P 21 21 21'
_symmetry_Int_Tables_number      19
_space_group_name_Hall           'P 2ac 2ab'
loop_
_symmetry_equiv_pos_site_id
_symmetry_equiv_pos_as_xyz
1 x,y,z
2 1/2-x,-y,1/2+z
3 -x,1/2+y,1/2-z
4 1/2+x,1/2-y,-z
_cell_length_a                   15.021(3)
_cell_length_b                   15.613(2)
_cell_length_c                   49.722(9)
_cell_angle_alpha                90
_cell_angle_beta                 90
_cell_angle_gamma                90
_cell_volume                     11660.9
_exptl_crystal_colour            colorless
_exptl_crystal_description       needle
_cell_formula_units_Z            4
_exptl_crystal_recrystallization_method 1,2-dichloroethane
loop_
_atom_site_label
_atom_site_type_symbol
_atom_site_fract_x
_atom_site_fract_y
_atom_site_fract_z
O1 O 0.0911(4) 0.1460(4) 0.13350(11)
O2 O 0.1978(4) 0.0794(4) 0.16253(10)
O3 O 0.2716(4) 0.2891(4) 0.10847(12)
O4 O 0.3161(4) 0.1830(4) 0.07640(11)
O5 O -0.4511(4) 0.2825(4) 0.08823(11)
O6 O -0.4698(4) 0.1312(3) 0.08027(10)
O7 O -0.3746(4) 0.3061(4) 0.00324(11)
O8 O -0.2641(4) 0.2682(4) 0.03593(12)
O9 O -0.2635(4) 0.9403(3) 0.21763(11)
O10 O -0.2733(4) 0.8430(3) 0.17985(10)
O11 O -0.1647(4) 1.0617(3) 0.13063(10)
O12 O -0.0728(4) 0.9499(4) 0.14862(11)
N1 N -0.0997(4) 0.1326(4) 0.27486(13)
N2 N 0.3013(5) 0.5810(6) -0.00833(17)
N3 N -0.4644(5) 0.2069(4) 0.23069(13)
N4 N -0.0771(5) 0.6096(5) -0.05565(14)
N5 N -0.2972(5) 0.4997(4) 0.27899(14)
N6 N 0.1087(5) 0.9024(5) 0.01324(14)
B1 B 0.1175(7) 0.1181(7) 0.1584(2)
B2 B 0.2949(8) 0.2636(7) 0.0832(2)
B3 B -0.4615(7) 0.2001(7) 0.0967(2)
B4 B -0.2934(8) 0.3157(7) 0.0142(2)
B5 B -0.2727(7) 0.8589(6) 0.2070(2)
B6 B -0.0987(7) 1.0023(7) 0.1280(2)
C1 C -0.2434(5) 0.2048(5) 0.29132(15)
C2 C -0.2360(5) 0.2949(5) 0.29735(15)
C3 C -0.3121(5) 0.3469(5) 0.29312(15)
C4 C -0.3898(6) 0.3121(5) 0.28196(15)
C5 C -0.3941(6) 0.2259(5) 0.27450(15)
C6 C -0.3221(5) 0.1712(5) 0.27960(17)
C7 C -0.1505(6) 0.3302(5) 0.30754(16)
H1 H -0.1428 0.3890 0.3004
H2 H -0.1009 0.2948 0.3006
C8 C -0.1447(6) 0.3330(6) 0.33879(17)
H3 H -0.1944 0.3667 0.3459
H4 H -0.0883 0.3593 0.3442
H5 H -0.1479 0.2745 0.3459
C9 C -0.4706(6) 0.3700(5) 0.27752(16)
H6 H -0.5248 0.3358 0.2811
H7 H -0.4686 0.4162 0.2911
C10 C -0.4805(7) 0.4101(6) 0.2510(2)
H8 H -0.4273 0.4440 0.2469
H9 H -0.5329 0.4475 0.2510
H10 H -0.4880 0.3655 0.2373
C11 C -0.3265(6) 0.0759(5) 0.27316(16)
H11 H -0.2657 0.0539 0.2698
H12 H -0.3620 0.0671 0.2566
C12 C -0.3694(7) 0.0254(6) 0.29673(19)
H13 H -0.3362 0.0367 0.3133
H14 H -0.3676 -0.0361 0.2927
H15 H -0.4313 0.0436 0.2990
C13 C -0.1633(5) 0.1464(5) 0.29707(16)
H16 H -0.1301 0.1708 0.3125
H17 H -0.1863 0.0898 0.3028
C14 C -0.1136(6) 0.1699(5) 0.25240(17)
H18 H -0.1639 0.2065 0.2507
C15 C -0.0538(6) 0.1582(5) 0.22873(16)
C16 C 0.0264(6) 0.1104(5) 0.23025(17)
H19 H 0.0436 0.0864 0.2470
C17 C 0.0787(6) 0.0980(5) 0.20866(16)
H20 H 0.1320 0.0659 0.2105
C18 C 0.0555(5) 0.1326(5) 0.18271(16)
C19 C -0.0231(5) 0.1802(5) 0.18143(17)
H21 H -0.0401 0.2049 0.1647
C20 C -0.0770(6) 0.1927(5) 0.20356(17)
H22 H -0.1303 0.2250 0.2018
C21 C 0.1476(6) 0.1346(6) 0.11050(17)
H23 H 0.1352 0.1800 0.0971
H24 H 0.1348 0.0785 0.1020
C22 C 0.2480(6) 0.1382(6) 0.11889(17)
C23 C 0.2612(6) 0.0700(6) 0.14093(17)
H25 H 0.2549 0.0124 0.1329
H26 H 0.3223 0.0749 0.1483
C24 C 0.2742(6) 0.2259(5) 0.12975(17)
H27 H 0.2328 0.2428 0.1443
H28 H 0.3350 0.2231 0.1374
C25 C 0.3080(6) 0.1149(6) 0.09528(17)
H29 H 0.3679 0.0999 0.1022
H30 H 0.2835 0.0639 0.0861
C26 C 0.2984(7) 0.3321(6) 0.05980(19)
C27 C 0.3144(7) 0.3064(7) 0.03396(18)
H31 H 0.3246 0.2472 0.0309
C28 C 0.3166(7) 0.3599(7) 0.0121(2)
H32 H 0.3269 0.3376 -0.0054
C29 C 0.3043(7) 0.4434(7) 0.01571(19)
C30 C 0.2909(8) 0.4765(7) 0.0416(2)
H33 H 0.2829 0.5362 0.0442
C31 C 0.2894(8) 0.4200(7) 0.0638(2)
H34 H 0.2821 0.4420 0.0815
C32 C 0.3075(7) 0.5048(8) -0.0091(2)
H35 H 0.3151 0.4792 -0.0263
C33 C 0.3024(6) 0.6246(6) -0.03481(17)
H36 H 0.3029 0.5815 -0.0494
H37 H 0.3566 0.6602 -0.0364
C34 C -0.4740(6) 0.1903(5) 0.25964(15)
H38 H -0.4786 0.1279 0.2628
H39 H -0.5290 0.2178 0.2664
C35 C -0.4711(5) 0.1441(6) 0.21398(16)
H40 H -0.4789 0.0878 0.2208
C36 C -0.4672(6) 0.1565(5) 0.18500(17)
C37 C -0.4746(6) 0.0889(5) 0.16694(16)
H41 H -0.4811 0.0323 0.1737
C38 C -0.4727(6) 0.1012(5) 0.13931(16)
H42 H -0.4782 0.0535 0.1276
C39 C -0.4627(6) 0.1837(6) 0.12855(17)
C40 C -0.4549(7) 0.2528(6) 0.14648(18)
H43 H -0.4470 0.3091 0.1397
C41 C -0.4588(7) 0.2397(6) 0.17403(18)
H44 H -0.4557 0.2875 0.1858
C42 C -0.4479(6) 0.3005(6) 0.05961(17)
H45 H -0.4055 0.3478 0.0563
H46 H -0.5075 0.3194 0.0535
C43 C -0.4198(6) 0.2232(5) 0.04354(17)
C44 C -0.4754(6) 0.1470(6) 0.05145(17)
H47 H -0.5383 0.1574 0.0464
H48 H -0.4545 0.0957 0.0416
C45 C -0.4329(6) 0.2391(6) 0.01353(17)
H49 H -0.4211 0.1853 0.0036
H50 H -0.4956 0.2555 0.0102
C46 C -0.3217(6) 0.2025(6) 0.04780(18)
H51 H -0.3095 0.1984 0.0673
H52 H -0.3081 0.1463 0.0396
C47 C -0.2291(6) 0.3856(5) 0.00216(17)
C48 C -0.1468(6) 0.4043(5) 0.01365(17)
H53 H -0.1283 0.3743 0.0293
C49 C -0.0910(6) 0.4668(6) 0.00243(17)
H54 H -0.0349 0.4789 0.0104
C50 C -0.1189(6) 0.5118(5) -0.02094(17)
C51 C -0.2002(6) 0.4928(5) -0.03188(17)
H55 H -0.2198 0.5234 -0.0473
C52 C -0.2554(6) 0.4294(5) -0.02095(17)
H56 H -0.3107 0.4163 -0.0293
C53 C -0.0605(6) 0.5757(5) -0.03319(17)
H57 H -0.0081 0.5924 -0.0239
C54 C -0.0129(5) 0.6691(5) -0.06884(16)
H58 H -0.0464 0.7203 -0.0748
H59 H 0.0101 0.6405 -0.0852
C55 C -0.3078(6) 0.4394(5) 0.30167(16)
H60 H -0.3631 0.4538 0.3115
H61 H -0.2573 0.4468 0.3142
C56 C -0.3186(6) 0.5757(6) 0.28368(17)
H62 H -0.3430 0.5890 0.3008
C57 C -0.3076(5) 0.6471(5) 0.26369(16)
C58 C -0.2946(6) 0.6293(6) 0.23677(16)
H63 H -0.2925 0.5717 0.2307
C59 C -0.2846(6) 0.6973(5) 0.21848(17)
H64 H -0.2764 0.6854 0.1999
C60 C -0.2865(6) 0.7825(5) 0.22727(17)
C61 C -0.3003(5) 0.7990(6) 0.25441(16)
H65 H -0.3020 0.8564 0.2607
C62 C -0.3115(5) 0.7313(5) 0.27262(17)
H66 H -0.3219 0.7430 0.2911
C63 C -0.2480(6) 1.0135(5) 0.20002(16)
H67 H -0.2063 1.0536 0.2089
H68 H -0.3049 1.0441 0.1971
C64 C -0.2096(6) 0.9874(5) 0.17281(16)
C65 C -0.2677(6) 0.9167(5) 0.16144(16)
H69 H -0.3282 0.9394 0.1581
H70 H -0.2429 0.8976 0.1440
C66 C -0.2168(6) 1.0684(5) 0.15520(16)
H71 H -0.2800 1.0781 0.1505
H72 H -0.1959 1.1185 0.1656
C67 C -0.1129(6) 0.9593(5) 0.17486(16)
H73 H -0.0790 1.0021 0.1854
H74 H -0.1097 0.9039 0.1845
C68 C -0.0516(6) 0.9927(6) 0.09989(17)
C69 C 0.0030(6) 0.9250(6) 0.09328(18)
H75 H 0.0157 0.8835 0.1067
C70 C 0.0397(7) 0.9146(6) 0.06845(19)
H76 H 0.0769 0.8668 0.0649
C71 C 0.0225(6) 0.9743(6) 0.04832(18)
C72 C -0.0282(6) 1.0436(5) 0.05439(17)
H77 H -0.0381 1.0862 0.0411
C73 C -0.0661(6) 1.0536(6) 0.07988(17)
H78 H -0.1021 1.1023 0.0836
C74 C 0.0581(6) 0.9617(6) 0.01986(17)
H79 H 0.0406 1.0015 0.0064
C75 C 0.1390(7) 0.9033(6) -0.01482(18)
H80 H 0.1994 0.9284 -0.0157
H81 H 0.0988 0.9401 -0.0255
C76 C 0.2198(6) 0.6808(5) -0.03722(16)
C77 C 0.1442(6) 0.6498(5) -0.05097(16)
C78 C 0.0673(6) 0.6999(6) -0.05237(16)
C79 C 0.0654(6) 0.7823(6) -0.04003(17)
C80 C 0.1410(6) 0.8123(6) -0.02734(17)
C81 C 0.2180(6) 0.7635(6) -0.02562(17)
C82 C 0.1462(6) 0.5600(6) -0.06348(17)
H82 H 0.0852 0.5361 -0.0636
H83 H 0.1839 0.5221 -0.0523
C83 C 0.1830(6) 0.5615(6) -0.09260(18)
H84 H 0.1477 0.6012 -0.1035
H85 H 0.1792 0.5038 -0.1003
H86 H 0.2452 0.5802 -0.0924
C84 C -0.0199(6) 0.8369(6) -0.04226(19)
H87 H -0.0721 0.7983 -0.0428
H88 H -0.0252 0.8729 -0.0259
C85 C -0.0219(7) 0.8950(6) -0.0671(2)
H89 H 0.0278 0.9356 -0.0662
H90 H -0.0783 0.9266 -0.0675
H91 H -0.0166 0.8600 -0.0833
C86 C 0.3017(6) 0.7968(6) -0.01175(18)
H92 H 0.2851 0.8388 0.0023
H93 H 0.3332 0.7487 -0.0029
C87 C 0.3632(7) 0.8391(6) -0.0321(2)
H94 H 0.3782 0.7979 -0.0463
H95 H 0.4177 0.8580 -0.0231
H96 H 0.3331 0.8886 -0.0401
Cl1 Cl 0.02911(19) 0.37251(17) 0.26013(5)
Cl2 Cl 0.17037(18) 0.38768(16) 0.18476(5)
C88 C 0.0967(6) 0.4151(6) 0.23354(18)
H97 H 0.0711 0.4695 0.2269
H98 H 0.1576 0.4266 0.2402
C89 C 0.0998(6) 0.3486(6) 0.21057(19)
H99 H 0.0391 0.3390 0.2034
H100 H 0.1228 0.2933 0.2174
Cl3 Cl -0.1743(3) 0.7372(2) 0.10300(6)
Cl4 Cl -0.06555(19) 0.6885(2) 0.18145(6)
C90 C -0.0963(8) 0.7355(7) 0.1324(3)
H101 H -0.0382 0.7107 0.1271
H102 H -0.0863 0.7942 0.1393
C91 C -0.1379(8) 0.6840(7) 0.1523(2)
H103 H -0.1443 0.6243 0.1459
H104 H -0.1977 0.7068 0.1567
Cl5 Cl -0.2756(2) 0.4860(2) 0.07753(7)
Cl6 Cl -0.3744(4) 0.4966(3) 0.15884(9)
C92 C -0.3487(11) 0.4723(12) 0.1094(3)
H105 H -0.4055 0.5040 0.1078
H106 H -0.3614 0.4112 0.1131
C93 C -0.2991(12) 0.5045(12) 0.1273(4)
H107 H -0.2839 0.5647 0.1231
H108 H -0.2437 0.4710 0.1295
Cl7 Cl -0.2078(3) 0.2770(2) 0.12141(7)
Cl8 Cl 0.0230(3) 0.3064(2) 0.06803(8)
C94 C -0.0833(13) 0.2816(9) 0.1090(3)
H109 H -0.0487 0.3265 0.1184
H110 H -0.0528 0.2257 0.1109
C95 C -0.0996(13) 0.3024(9) 0.0824(3)
H111 H -0.1297 0.3585 0.0807
H112 H -0.1357 0.2579 0.0733
Cl9 Cl -0.4030(2) 0.7239(2) 0.13090(6)
Cl10 Cl -0.5581(3) 0.8721(2) 0.14164(6)
C96 C -0.4857(9) 0.7218(8) 0.1562(2)
H113 H -0.4961 0.6617 0.1618
H114 H -0.4636 0.7535 0.1721
C97 C -0.5701(10) 0.7594(8) 0.1476(3)
H115 H -0.6158 0.7499 0.1617
H116 H -0.5905 0.7309 0.1309
Cl11 Cl -0.2706(2) 0.3455(2) 0.21333(8)
Cl12 Cl -0.1003(2) 0.4270(2) 0.17527(7)
C98 C -0.1831(7) 0.4075(6) 0.2240(2)
H117 H -0.2027 0.4415 0.2397
H118 H -0.1345 0.3693 0.2301
C99 C -0.1459(6) 0.4691(5) 0.20255(15)
H119 H -0.1007 0.5058 0.2113
H120 H -0.1951 0.5069 0.1967
Cl13 Cl -0.0294(2) 0.5199(2) 0.10615(8)
Cl14 Cl 0.2426(3) 0.5516(3) 0.13382(7)
C100 C 0.0846(13) 0.5010(11) 0.1120(3)
H121 H 0.0932 0.4447 0.1208
H122 H 0.1181 0.5014 0.0949
C101 C 0.1133(13) 0.5650(11) 0.1283(3)
H123 H 0.0819 0.5623 0.1458
H124 H 0.1006 0.6213 0.1200
Cl15 Cl 0.2259(4) 0.7012(4) 0.07797(12)
Cl16 Cl 0.0956(4) 0.5739(4) 0.03917(14)
C102 C 0.188(2) 0.716(3) 0.0420(4)
H125 H 0.1931 0.7778 0.0377
H126 H 0.2314 0.6858 0.0303
C103 C 0.1100(12) 0.6915(10) 0.0352(4)
H127 H 0.0991 0.7073 0.0162
H128 H 0.0654 0.7215 0.0464
C104? C 0.198(3) 0.719(4) 0.0462(6)
C105? C 0.2576(17) 0.7410(19) 0.0630(4)
Cl17? Cl 0.0968(5) 0.6570(5) 0.05822(16)
Cl18? Cl 0.2160(6) 0.7928(6) 0.09431(18)
H129? H 0.2271 0.6846 0.0321
H130? H 0.1759 0.7721 0.0375
H131? H 0.2991 0.7810 0.0540
H132? H 0.2920 0.6893 0.0681
loop_
_geom_bond_atom_site_label_1
_geom_bond_atom_site_label_2
_geom_bond_site_symmetry_1
_geom_bond_site_symmetry_2
O1 B1 1_555 1_555
O2 B1 1_555 1_555
O3 B2 1_555 1_555
O4 B2 1_555 1_555
O5 B3 1_555 1_555
O6 B3 1_555 1_555
O7 B4 1_555 1_555
O8 B4 1_555 1_555
O9 B5 1_555 1_555
O10 B5 1_555 1_555
O11 B6 1_555 1_555
O12 B6 1_555 1_555
N1 C13 1_555 1_555
N2 C32 1_555 1_555
N3 C34 1_555 1_555
N4 C53 1_555 1_555
N5 C55 1_555 1_555
N6 C74 1_555 1_555
B1 C18 1_555 1_555
B2 C26 1_555 1_555
B3 C39 1_555 1_555
B4 C47 1_555 1_555
B5 C60 1_555 1_555
B6 C68 1_555 1_555
C1 C2 1_555 1_555
C2 C3 1_555 1_555
C3 C4 1_555 1_555
C4 C5 1_555 1_555
C5 C6 1_555 1_555
C6 C1 1_555 1_555
C7 C2 1_555 1_555
H1 C7 1_555 1_555
H2 C7 1_555 1_555
C8 C7 1_555 1_555
H3 C8 1_555 1_555
H4 C8 1_555 1_555
H5 C8 1_555 1_555
C9 C4 1_555 1_555
H6 C9 1_555 1_555
H7 C9 1_555 1_555
C10 C9 1_555 1_555
H8 C10 1_555 1_555
H9 C10 1_555 1_555
H10 C10 1_555 1_555
C11 C6 1_555 1_555
H11 C11 1_555 1_555
H12 C11 1_555 1_555
C12 C11 1_555 1_555
H13 C12 1_555 1_555
H14 C12 1_555 1_555
H15 C12 1_555 1_555
C13 C1 1_555 1_555
H16 C13 1_555 1_555
H17 C13 1_555 1_555
C14 N1 1_555 1_555
H18 C14 1_555 1_555
C15 C14 1_555 1_555
C16 C15 1_555 1_555
H19 C16 1_555 1_555
C17 C16 1_555 1_555
H20 C17 1_555 1_555
C18 C17 1_555 1_555
C19 C18 1_555 1_555
H21 C19 1_555 1_555
C20 C15 1_555 1_555
H22 C20 1_555 1_555
C21 O1 1_555 1_555
H23 C21 1_555 1_555
H24 C21 1_555 1_555
C22 C21 1_555 1_555
C23 O2 1_555 1_555
H25 C23 1_555 1_555
H26 C23 1_555 1_555
C24 O3 1_555 1_555
H27 C24 1_555 1_555
H28 C24 1_555 1_555
C25 O4 1_555 1_555
H29 C25 1_555 1_555
H30 C25 1_555 1_555
C26 C27 1_555 1_555
C27 H31 1_555 1_555
C28 C27 1_555 1_555
H32 C28 1_555 1_555
C29 C28 1_555 1_555
C30 C29 1_555 1_555
H33 C30 1_555 1_555
C31 C26 1_555 1_555
H34 C31 1_555 1_555
C32 C29 1_555 1_555
H35 C32 1_555 1_555
C33 N2 1_555 1_555
H36 C33 1_555 1_555
H37 C33 1_555 1_555
C34 C5 1_555 1_555
H38 C34 1_555 1_555
H39 C34 1_555 1_555
C35 N3 1_555 1_555
H40 C35 1_555 1_555
C36 C35 1_555 1_555
C37 C36 1_555 1_555
H41 C37 1_555 1_555
C38 C37 1_555 1_555
H42 C38 1_555 1_555
C39 C38 1_555 1_555
C40 C39 1_555 1_555
H43 C40 1_555 1_555
C41 C36 1_555 1_555
H44 C41 1_555 1_555
C42 O5 1_555 1_555
H45 C42 1_555 1_555
H46 C42 1_555 1_555
C43 C42 1_555 1_555
C44 O6 1_555 1_555
H47 C44 1_555 1_555
H48 C44 1_555 1_555
C45 O7 1_555 1_555
H49 C45 1_555 1_555
H50 C45 1_555 1_555
C46 O8 1_555 1_555
H51 C46 1_555 1_555
H52 C46 1_555 1_555
C47 C48 1_555 1_555
C48 H53 1_555 1_555
C49 C48 1_555 1_555
H54 C49 1_555 1_555
C50 C49 1_555 1_555
C51 C50 1_555 1_555
H55 C51 1_555 1_555
C52 C47 1_555 1_555
H56 C52 1_555 1_555
C53 C50 1_555 1_555
H57 C53 1_555 1_555
C54 N4 1_555 1_555
H58 C54 1_555 1_555
H59 C54 1_555 1_555
C55 C3 1_555 1_555
H60 C55 1_555 1_555
H61 C55 1_555 1_555
C56 N5 1_555 1_555
H62 C56 1_555 1_555
C57 C56 1_555 1_555
C58 C57 1_555 1_555
H63 C58 1_555 1_555
C59 C58 1_555 1_555
H64 C59 1_555 1_555
C60 C59 1_555 1_555
C61 C60 1_555 1_555
H65 C61 1_555 1_555
C62 C57 1_555 1_555
H66 C62 1_555 1_555
C63 O9 1_555 1_555
H67 C63 1_555 1_555
H68 C63 1_555 1_555
C64 C63 1_555 1_555
C65 O10 1_555 1_555
H69 C65 1_555 1_555
H70 C65 1_555 1_555
C66 O11 1_555 1_555
H71 C66 1_555 1_555
H72 C66 1_555 1_555
C67 O12 1_555 1_555
H73 C67 1_555 1_555
H74 C67 1_555 1_555
C68 C69 1_555 1_555
C69 H75 1_555 1_555
C70 C69 1_555 1_555
H76 C70 1_555 1_555
C71 C70 1_555 1_555
C72 C71 1_555 1_555
H77 C72 1_555 1_555
C73 C68 1_555 1_555
H78 C73 1_555 1_555
C74 C71 1_555 1_555
H79 C74 1_555 1_555
C75 N6 1_555 1_555
H80 C75 1_555 1_555
H81 C75 1_555 1_555
C76 C33 1_555 1_555
C77 C76 1_555 1_555
C78 C54 1_555 1_555
C79 C78 1_555 1_555
C80 C75 1_555 1_555
C81 C76 1_555 1_555
C82 C77 1_555 1_555
H82 C82 1_555 1_555
H83 C82 1_555 1_555
C83 C82 1_555 1_555
H84 C83 1_555 1_555
H85 C83 1_555 1_555
H86 C83 1_555 1_555
C84 C79 1_555 1_555
H87 C84 1_555 1_555
H88 C84 1_555 1_555
C85 C84 1_555 1_555
H89 C85 1_555 1_555
H90 C85 1_555 1_555
H91 C85 1_555 1_555
C86 C81 1_555 1_555
H92 C86 1_555 1_555
H93 C86 1_555 1_555
C87 C86 1_555 1_555
H94 C87 1_555 1_555
H95 C87 1_555 1_555
H96 C87 1_555 1_555
Cl1 C88 1_555 1_555
Cl2 C89 1_555 1_555
C88 H97 1_555 1_555
H98 C88 1_555 1_555
C89 C88 1_555 1_555
H99 C89 1_555 1_555
H100 C89 1_555 1_555
Cl3 C90 1_555 1_555
Cl4 C91 1_555 1_555
C90 H101 1_555 1_555
H102 C90 1_555 1_555
C91 C90 1_555 1_555
H103 C91 1_555 1_555
H104 C91 1_555 1_555
Cl5 C92 1_555 1_555
Cl6 C93 1_555 1_555
C92 H105 1_555 1_555
H106 C92 1_555 1_555
C93 C92 1_555 1_555
H107 C93 1_555 1_555
H108 C93 1_555 1_555
Cl7 C94 1_555 1_555
Cl8 C95 1_555 1_555
C94 H109 1_555 1_555
H110 C94 1_555 1_555
C95 C94 1_555 1_555
H111 C95 1_555 1_555
H112 C95 1_555 1_555
Cl9 C96 1_555 1_555
Cl10 C97 1_555 1_555
C96 H113 1_555 1_555
H114 C96 1_555 1_555
C97 C96 1_555 1_555
H115 C97 1_555 1_555
H116 C97 1_555 1_555
Cl11 C98 1_555 1_555
Cl12 C99 1_555 1_555
C98 H117 1_555 1_555
H118 C98 1_555 1_555
C99 C98 1_555 1_555
H119 C99 1_555 1_555
H120 C99 1_555 1_555
Cl13 C100 1_555 1_555
Cl14 C101 1_555 1_555
C100 H121 1_555 1_555
H122 C100 1_555 1_555
C101 C100 1_555 1_555
H123 C101 1_555 1_555
H124 C101 1_555 1_555
Cl15 C102 1_555 1_555
Cl16 C103 1_555 1_555
C102 H125 1_555 1_555
H126 C102 1_555 1_555
C103 C102 1_555 1_555
H127 C103 1_555 1_555
H128 C103 1_555 1_555
C19 C20 1_555 1_555
C22 C23 1_555 1_555
C22 C24 1_555 1_555
C22 C25 1_555 1_555
C30 C31 1_555 1_555
C40 C41 1_555 1_555
C43 C44 1_555 1_555
C43 C45 1_555 1_555
C43 C46 1_555 1_555
C51 C52 1_555 1_555
C61 C62 1_555 1_555
C64 C65 1_555 1_555
C64 C66 1_555 1_555
C64 C67 1_555 1_555
C72 C73 1_555 1_555
C77 C78 1_555 1_555
C79 C80 1_555 1_555
C80 C81 1_555 1_555

#END
