
#######################################################################
#
#                 Cambridge Crystallographic Data Centre
#                                CCDC 
#
#######################################################################
#
# If this CIF has been generated from an entry in the Cambridge 
# Structural Database, then it will include bibliographic, chemical, 
# crystal, experimental, refinement or atomic coordinate data resulting 
# from the CCDC's data processing and validation procedures.
#
#######################################################################

data_PSCHNA
_chemical_formula_moiety         'C17 H18 N2 O5 S1'
_chemical_name_systematic        
"1-Pyrazoline-3-(spiro-cyclohexane-2'-p-tolylsulfonate)-4,5-dicarboxylic acid anhydride"
_symmetry_cell_setting           monoclinic
_symmetry_space_group_name_H-M   'P 21/a'
_symmetry_Int_Tables_number      14
_space_group_name_Hall           '-P 2yab'
loop_
_symmetry_equiv_pos_site_id
_symmetry_equiv_pos_as_xyz
1 x,y,z
2 1/2-x,1/2+y,-z
3 -x,-y,-z
4 1/2+x,1/2-y,z
_cell_length_a                   18.688(9)
_cell_length_b                   7.809(4)
_cell_length_c                   11.819(7)
_cell_angle_alpha                90
_cell_angle_beta                 97.85(5)
_cell_angle_gamma                90
_cell_volume                     1708.64
_chemical_melting_point          162deg.C
_cell_formula_units_Z            4
loop_
_atom_site_label
_atom_site_type_symbol
_atom_site_fract_x
_atom_site_fract_y
_atom_site_fract_z
C1 C -0.49850 0.18440 -0.23180
N1 N -0.36720 0.26290 -0.21640
C2 C -0.37850 0.20490 0.06300
C3 C -0.31730 0.44510 0.03750
C4 C -0.61270 0.38230 -0.35460
C5 C -0.61110 0.41720 -0.46840
C6 C -0.67440 0.40540 -0.54600
C7 C -0.73790 0.35660 -0.50830
C8 C -0.73930 0.31790 -0.39410
C9 C -0.67730 0.32740 -0.31570
C10 C -0.80660 0.34500 -0.59470
C11 C -0.49520 0.09470 -0.34880
O1 O -0.39330 0.08310 0.11550
O2 O -0.31950 0.30640 0.10210
O3 O -0.27380 0.56170 0.05870
O4 O -0.55180 0.46510 -0.15200
O5 O -0.48180 0.49900 -0.31110
C12 C -0.47250 -0.09480 -0.32520
C13 C -0.39850 -0.10560 -0.24880
C14 C -0.40300 -0.01370 -0.13570
C15 C -0.42520 0.17980 -0.15380
C16 C -0.42150 0.28550 -0.04260
C17 C -0.37720 0.44020 -0.06380
N2 N -0.34240 0.39300 -0.16820
S1 S -0.53320 0.40200 -0.25780
loop_
_geom_bond_atom_site_label_1
_geom_bond_atom_site_label_2
_geom_bond_site_symmetry_1
_geom_bond_site_symmetry_2
C1 C11 1_555 1_555
N1 C15 1_555 1_555
C2 O1 1_555 1_555
C3 O2 1_555 1_555
C4 C5 1_555 1_555
C5 C6 1_555 1_555
C6 C7 1_555 1_555
C7 C8 1_555 1_555
C8 C9 1_555 1_555
C9 C4 1_555 1_555
C10 C7 1_555 1_555
C11 C12 1_555 1_555
O2 C2 1_555 1_555
O3 C3 1_555 1_555
O4 S1 1_555 1_555
O5 S1 1_555 1_555
C12 C13 1_555 1_555
C13 C14 1_555 1_555
C14 C15 1_555 1_555
C15 C1 1_555 1_555
C16 C2 1_555 1_555
C17 C3 1_555 1_555
N2 N1 1_555 1_555
S1 C1 1_555 1_555
C4 S1 1_555 1_555
C15 C16 1_555 1_555
C16 C17 1_555 1_555
C17 N2 1_555 1_555

#END
