
#######################################################################
#
#                 Cambridge Crystallographic Data Centre
#                                CCDC 
#
#######################################################################
#
# If this CIF has been generated from an entry in the Cambridge 
# Structural Database, then it will include bibliographic, chemical, 
# crystal, experimental, refinement or atomic coordinate data resulting 
# from the CCDC's data processing and validation procedures.
#
#######################################################################

data_PTSBZA01
_chemical_formula_moiety         'C14 H15 N1 O2 S1'
_chemical_name_systematic        N-benzyl-4-methylbenzenesulfonamide
_symmetry_cell_setting           triclinic
_symmetry_space_group_name_H-M   'P -1'
_symmetry_Int_Tables_number      2
_space_group_name_Hall           '-P 1'
loop_
_symmetry_equiv_pos_site_id
_symmetry_equiv_pos_as_xyz
1 x,y,z
2 -x,-y,-z
_cell_length_a                   9.1504(14)
_cell_length_b                   9.4960(14)
_cell_length_c                   9.757(3)
_cell_angle_alpha                94.895(3)
_cell_angle_beta                 111.878(3)
_cell_angle_gamma                117.576(2)
_cell_volume                     662.227
_cell_formula_units_Z            2
loop_
_atom_site_label
_atom_site_type_symbol
_atom_site_fract_x
_atom_site_fract_y
_atom_site_fract_z
S1 S 0.42488(6) 0.96742(6) 0.24032(5)
N1 N 0.6436(2) 1.0523(2) 0.3609(2)
H1 H 0.6864 1.1016 0.4574
O1 O 0.4133(2) 1.0339(2) 0.11318(19)
O2 O 0.3434(2) 0.9907(2) 0.33383(19)
C1 C 1.0234(3) 1.3253(3) 0.5091(3)
H2 H 0.9336 1.3429 0.5144
C2 C 1.2104(4) 1.4474(3) 0.5995(3)
H3 H 1.2456 1.5464 0.6657
C3 C 1.3443(3) 1.4225(4) 0.5918(3)
H4 H 1.4700 1.5047 0.6525
C4 C 1.2919(3) 1.2764(4) 0.4945(3)
H5 H 1.3821 1.2597 0.4884
C5 C 1.1057(3) 1.1541(3) 0.4055(3)
H6 H 1.0714 1.0546 0.3408
C6 C 0.9690(3) 1.1769(3) 0.4108(2)
C7 C 0.7678(3) 1.0442(3) 0.3038(3)
H7 H 0.7336 1.0578 0.2014
H8 H 0.7520 0.9349 0.2942
C8 C 0.3289(3) 0.7514(3) 0.1688(2)
C9 C 0.2343(3) 0.6432(3) 0.2341(3)
H9 H 0.2158 0.6837 0.3123
C10 C 0.1679(3) 0.4767(3) 0.1836(3)
H10 H 0.1041 0.4047 0.2279
C11 C 0.1939(3) 0.4131(3) 0.0679(3)
C12 C 0.2896(4) 0.5228(3) 0.0044(3)
H11 H 0.3104 0.4822 -0.0720
C13 C 0.3553(3) 0.6911(3) 0.0513(2)
H12 H 0.4160 0.7626 0.0049
C14 C 0.1231(5) 0.2285(4) 0.0161(4)
H13 H 0.0670 0.1880 -0.0952
H14 H 0.0320 0.1676 0.0494
H15 H 0.2253 0.2130 0.0614
loop_
_geom_bond_atom_site_label_1
_geom_bond_atom_site_label_2
_geom_bond_site_symmetry_1
_geom_bond_site_symmetry_2
S1 N1 1_555 1_555
N1 H1 1_555 1_555
O1 S1 1_555 1_555
O2 S1 1_555 1_555
C1 H2 1_555 1_555
C2 C1 1_555 1_555
H3 C2 1_555 1_555
C3 C2 1_555 1_555
H4 C3 1_555 1_555
C4 C3 1_555 1_555
H5 C4 1_555 1_555
C5 C4 1_555 1_555
H6 C5 1_555 1_555
C6 C1 1_555 1_555
C7 N1 1_555 1_555
H7 C7 1_555 1_555
H8 C7 1_555 1_555
C8 S1 1_555 1_555
C9 C8 1_555 1_555
H9 C9 1_555 1_555
C10 C9 1_555 1_555
H10 C10 1_555 1_555
C11 C10 1_555 1_555
C12 C11 1_555 1_555
H11 C12 1_555 1_555
C13 C8 1_555 1_555
H12 C13 1_555 1_555
C14 C11 1_555 1_555
H13 C14 1_555 1_555
H14 C14 1_555 1_555
H15 C14 1_555 1_555
C5 C6 1_555 1_555
C6 C7 1_555 1_555
C12 C13 1_555 1_555

#END
