
#######################################################################
#
#                 Cambridge Crystallographic Data Centre
#                                CCDC 
#
#######################################################################
#
# If this CIF has been generated from an entry in the Cambridge 
# Structural Database, then it will include bibliographic, chemical, 
# crystal, experimental, refinement or atomic coordinate data resulting 
# from the CCDC's data processing and validation procedures.
#
#######################################################################

data_PTSBZA02
_chemical_formula_moiety         'C14 H15 N1 O2 S1'
_chemical_name_systematic        N-benzyl-4-methylbenzenesulfonamide
_symmetry_cell_setting           triclinic
_symmetry_space_group_name_H-M   'P -1'
_symmetry_Int_Tables_number      2
_space_group_name_Hall           '-P 1'
loop_
_symmetry_equiv_pos_site_id
_symmetry_equiv_pos_as_xyz
1 x,y,z
2 -x,-y,-z
_cell_length_a                   9.171(5)
_cell_length_b                   9.554(5)
_cell_length_c                   9.772(5)
_cell_angle_alpha                95.532(7)
_cell_angle_beta                 111.206(7)
_cell_angle_gamma                118.152(7)
_cell_volume                     665.626
_exptl_crystal_colour            colorless
_exptl_crystal_description       plate
_cell_formula_units_Z            2
loop_
_atom_site_label
_atom_site_type_symbol
_atom_site_fract_x
_atom_site_fract_y
_atom_site_fract_z
C1 C 0.4679(5) 0.6794(5) 0.9129(4)
C2 C 0.6020(6) 0.6532(5) 0.9064(5)
H1 H 0.5661 0.5523 0.8423
C3 C 0.7884(6) 0.7769(7) 0.9950(6)
H2 H 0.8778 0.7598 0.9886
C4 C 0.8428(6) 0.9220(7) 1.0906(6)
H3 H 0.9693 1.0039 1.1504
C5 C 0.7133(7) 0.9497(6) 1.1003(5)
H4 H 0.7510 1.0503 1.1663
C6 C 0.5250(6) 0.8267(5) 1.0109(5)
H5 H 0.4366 0.8450 1.0180
C7 C 0.2652(5) 0.5467(5) 0.8069(5)
H6 H 0.2331 0.5582 0.7044
H7 H 0.2472 0.4371 0.7981
N1 N 0.1427(4) 0.5549(4) 0.8580(4)
H8 H 0.1850 0.6067 0.9538
S1 S -0.07653(14) 0.46815(12) 0.73852(13)
O1 O -0.1562(4) 0.4920(3) 0.8333(3)
O2 O -0.0920(4) 0.5308(4) 0.6126(4)
C8 C -0.1708(4) 0.2533(4) 0.6673(4)
C9 C -0.1483(6) 0.1906(5) 0.5484(5)
H9 H -0.0901 0.2612 0.5002
C10 C -0.2123(6) 0.0236(6) 0.5018(5)
H10 H -0.1939 -0.0174 0.4236
C11 C -0.3040(5) -0.0857(5) 0.5689(5)
C12 C -0.3281(6) -0.0210(6) 0.6835(5)
H11 H -0.3919 -0.0925 0.7282
C13 C -0.2610(5) 0.1465(5) 0.7350(5)
H12 H -0.2764 0.1877 0.8153
C14 C -0.3726(7) -0.2688(6) 0.5149(6)
H13 H -0.4327 -0.3263 0.5726
H14 H -0.2687 -0.2789 0.5315
H15 H -0.4600 -0.3176 0.4064
loop_
_geom_bond_atom_site_label_1
_geom_bond_atom_site_label_2
_geom_bond_site_symmetry_1
_geom_bond_site_symmetry_2
C1 C2 1_555 1_555
C2 H1 1_555 1_555
C3 C2 1_555 1_555
H2 C3 1_555 1_555
C4 C3 1_555 1_555
H3 C4 1_555 1_555
C5 C4 1_555 1_555
H4 C5 1_555 1_555
C6 C1 1_555 1_555
H5 C6 1_555 1_555
C7 C1 1_555 1_555
H6 C7 1_555 1_555
H7 C7 1_555 1_555
N1 C7 1_555 1_555
H8 N1 1_555 1_555
S1 N1 1_555 1_555
O1 S1 1_555 1_555
O2 S1 1_555 1_555
C8 S1 1_555 1_555
C9 C8 1_555 1_555
H9 C9 1_555 1_555
C10 C9 1_555 1_555
H10 C10 1_555 1_555
C11 C10 1_555 1_555
C12 C11 1_555 1_555
H11 C12 1_555 1_555
C13 C8 1_555 1_555
H12 C13 1_555 1_555
C14 C11 1_555 1_555
H13 C14 1_555 1_555
H14 C14 1_555 1_555
H15 C14 1_555 1_555
C5 C6 1_555 1_555
C12 C13 1_555 1_555

#END
