
#######################################################################
#
#                 Cambridge Crystallographic Data Centre
#                                CCDC 
#
#######################################################################
#
# If this CIF has been generated from an entry in the Cambridge 
# Structural Database, then it will include bibliographic, chemical, 
# crystal, experimental, refinement or atomic coordinate data resulting 
# from the CCDC's data processing and validation procedures.
#
#######################################################################

data_PUBJOM
_chemical_formula_moiety         'C8 H12 N2 O4'
_chemical_name_systematic        2,2'-Dihydroxy-2,2'-bipyrrolidine-5,5'-dione
_symmetry_cell_setting           monoclinic
_symmetry_space_group_name_H-M   'P 21/n'
_symmetry_Int_Tables_number      14
_space_group_name_Hall           '-P 2yn'
loop_
_symmetry_equiv_pos_site_id
_symmetry_equiv_pos_as_xyz
1 x,y,z
2 1/2-x,1/2+y,1/2-z
3 -x,-y,-z
4 1/2+x,1/2-y,1/2+z
_cell_length_a                   7.1199(16)
_cell_length_b                   7.8916(18)
_cell_length_c                   8.6569(19)
_cell_angle_alpha                90
_cell_angle_beta                 109.228(3)
_cell_angle_gamma                90
_cell_volume                     459.275
_chemical_melting_point          '230 deg.C.(dec.)'
_cell_formula_units_Z            2
loop_
_atom_site_label
_atom_site_type_symbol
_atom_site_fract_x
_atom_site_fract_y
_atom_site_fract_z
O1 O 0.99592(15) 1.21783(12) 0.55049(13)
H1 H 0.9691 1.2697 0.6226
O2 O 0.58529(15) 0.86558(15) 0.68931(13)
N1 N 0.76896(16) 1.00405(14) 0.55824(13)
H2 H 0.6687 1.0409 0.4794
C1 C 0.97373(18) 1.04317(17) 0.57034(15)
C2 C 1.0933(2) 0.9735(2) 0.74134(16)
H3 H 1.2087 0.9107 0.7371
H4 H 1.1379 1.0654 0.8194
C3 C 0.9508(2) 0.8574(2) 0.78980(19)
H5 H 0.9780 0.7394 0.7743
H6 H 0.9612 0.8749 0.9032
C4 C 0.7481(2) 0.90796(19) 0.67693(17)
O1B O 1.00408(15) 0.78217(12) 0.44951(13)
H1B H 1.0309 0.7303 0.3774
O2B O 1.41471(15) 1.13442(15) 0.31069(13)
N1B N 1.23104(16) 0.99595(14) 0.44176(13)
H2B H 1.3313 0.9591 0.5206
C1B C 1.02627(18) 0.95683(17) 0.42966(15)
C2B C 0.9067(2) 1.0265(2) 0.25866(16)
H3B H 0.7913 1.0893 0.2629
H4B H 0.8621 0.9346 0.1806
C3B C 1.0492(2) 1.1426(2) 0.21020(19)
H5B H 1.0220 1.2606 0.2257
H6B H 1.0388 1.1251 0.0968
C4B C 1.2519(2) 1.09204(19) 0.32307(17)
loop_
_geom_bond_atom_site_label_1
_geom_bond_atom_site_label_2
_geom_bond_site_symmetry_1
_geom_bond_site_symmetry_2
O1 H1 1_555 1_555
O2 C4 1_555 1_555
N1 H2 1_555 1_555
C1 O1 1_555 1_555
C2 C1 1_555 1_555
H3 C2 1_555 1_555
H4 C2 1_555 1_555
C3 C2 1_555 1_555
H5 C3 1_555 1_555
H6 C3 1_555 1_555
C4 N1 1_555 1_555
O1B H1B 1_555 1_555
O2B C4B 1_555 1_555
N1B H2B 1_555 1_555
C1B C1 1_555 1_555
C2B C1B 1_555 1_555
H3B C2B 1_555 1_555
H4B C2B 1_555 1_555
C3B C2B 1_555 1_555
H5B C3B 1_555 1_555
H6B C3B 1_555 1_555
C4B N1B 1_555 1_555
N1 C1 1_555 1_555
C3 C4 1_555 1_555
O1B C1B 1_555 1_555
N1B C1B 1_555 1_555
C3B C4B 1_555 1_555

#END
