
#######################################################################
#
#                 Cambridge Crystallographic Data Centre
#                                CCDC 
#
#######################################################################
#
# If this CIF has been generated from an entry in the Cambridge 
# Structural Database, then it will include bibliographic, chemical, 
# crystal, experimental, refinement or atomic coordinate data resulting 
# from the CCDC's data processing and validation procedures.
#
#######################################################################

data_PUBLAB
_chemical_formula_moiety         'C66 H57 N5 O1 Si2,C1 H1 Cl3'
_chemical_name_systematic        
'8-(t-Butyl(diphenyl)silyl)-7-((t-butyl(diphenyl)silyl)ethynyl)-6-oxo-2,4,5-triphenyl-6,9-dihydro-2H-cyclopenta[b][1,8]naphthyridine-3,3,4a(4H,5H)-tricarbonitrile chloroform solvate'
_symmetry_cell_setting           triclinic
_symmetry_space_group_name_H-M   'P -1'
_symmetry_Int_Tables_number      2
_space_group_name_Hall           '-P 1'
loop_
_symmetry_equiv_pos_site_id
_symmetry_equiv_pos_as_xyz
1 x,y,z
2 -x,-y,-z
_cell_length_a                   10.2327(16)
_cell_length_b                   13.048(2)
_cell_length_c                   22.432(4)
_cell_angle_alpha                90.361(3)
_cell_angle_beta                 96.814(3)
_cell_angle_gamma                103.258(3)
_cell_volume                     2892.88
_exptl_crystal_colour            red
_exptl_crystal_description       plate
_cell_formula_units_Z            2
loop_
_atom_site_label
_atom_site_type_symbol
_atom_site_fract_x
_atom_site_fract_y
_atom_site_fract_z
Si1 Si 0.49794(6) 0.34585(5) 0.83945(3)
Si2 Si 0.15649(6) 0.30500(5) 0.58804(3)
N1 N 0.72626(19) 0.57597(14) 0.85138(8)
H1 H 0.7220 0.5287 0.8793
O1 O 0.56096(17) 0.59187(13) 0.64859(7)
N2 N 0.86864(19) 0.69452(15) 0.91722(8)
N3 N 1.0798(2) 1.06888(17) 0.92821(10)
N4 N 0.6834(2) 0.9184(2) 0.93883(11)
N5 N 0.5288(2) 0.76913(16) 0.81553(9)
C1 C 0.8007(2) 0.67823(17) 0.86581(10)
C2 C 0.9492(2) 0.79789(18) 0.93829(10)
H2 H 0.9333 0.8084 0.9808
C3 C 0.9054(2) 0.88907(17) 0.90130(10)
C4 C 0.8900(2) 0.86257(17) 0.83271(10)
H3 H 0.9777 0.8466 0.8250
C5 C 0.7821(2) 0.75917(16) 0.81738(10)
C6 C 0.7849(2) 0.71152(17) 0.75273(10)
H4 H 0.7529 0.7591 0.7225
C7 C 0.6819(2) 0.60857(17) 0.74807(10)
C8 C 0.6597(2) 0.54648(17) 0.79548(10)
C9 C 0.5475(2) 0.44895(17) 0.78135(10)
C10 C 0.4959(2) 0.46128(17) 0.72399(10)
C11 C 0.5812(2) 0.56201(17) 0.69898(10)
C12 C 0.3811(2) 0.40458(17) 0.68635(10)
C13 C 0.2858(2) 0.36724(17) 0.65009(10)
C14 C 1.0978(2) 0.80027(18) 0.93879(11)
C15 C 1.1904(3) 0.8576(2) 0.98408(13)
H5 H 1.1606 0.8952 1.0142
C16 C 1.3282(3) 0.8596(2) 0.98504(15)
H6 H 1.3926 0.8994 1.0155
C17 C 1.3698(3) 0.8039(2) 0.94184(16)
H7 H 1.4629 0.8039 0.9432
C18 C 1.2793(3) 0.7483(2) 0.89683(14)
H8 H 1.3096 0.7112 0.8667
C19 C 1.1435(3) 0.7462(2) 0.89542(12)
H9 H 1.0806 0.7071 0.8642
C20 C 1.0064(2) 0.98997(19) 0.91593(10)
C21 C 0.7786(3) 0.90515(19) 0.92136(11)
C22 C 0.8761(2) 0.95660(17) 0.79500(10)
C23 C 0.7611(2) 0.99653(19) 0.78834(12)
H10 H 0.6837 0.9621 0.8062
C24 C 0.7578(3) 1.0859(2) 0.75599(13)
H11 H 0.6776 1.1116 0.7511
C25 C 0.8703(3) 1.1381(2) 0.73071(13)
H12 H 0.8678 1.1996 0.7085
C26 C 0.9863(3) 1.1002(2) 0.73800(12)
H13 H 1.0644 1.1363 0.7213
C27 C 0.9893(3) 1.00982(19) 0.76952(11)
H14 H 1.0692 0.9838 0.7738
C28 C 0.6404(2) 0.76914(17) 0.81760(10)
C29 C 0.9236(2) 0.70056(17) 0.73995(10)
C30 C 0.9798(3) 0.61940(19) 0.76269(11)
H15 H 0.9305 0.5691 0.7871
C31 C 1.1055(3) 0.6105(2) 0.75051(13)
H16 H 1.1427 0.5547 0.7667
C32 C 1.1780(3) 0.6835(2) 0.71437(13)
H17 H 1.2654 0.6784 0.7062
C33 C 1.1221(3) 0.7628(2) 0.69076(12)
H18 H 1.1706 0.8118 0.6655
C34 C 0.9963(2) 0.77222(19) 0.70319(11)
H19 H 0.9592 0.8277 0.6866
C35 C 0.3641(3) 0.38695(19) 0.87892(12)
C36 C 0.3299(3) 0.3200(2) 0.93357(13)
H20 H 0.2911 0.2465 0.9202
H21 H 0.2643 0.3467 0.9540
H22 H 0.4125 0.3241 0.9614
C37 C 0.2361(3) 0.3703(2) 0.83282(14)
H23 H 0.2587 0.4069 0.7961
H24 H 0.1671 0.3985 0.8497
H25 H 0.2013 0.2948 0.8233
C38 C 0.4065(3) 0.5044(2) 0.89872(13)
H26 H 0.4865 0.5162 0.9288
H27 H 0.3322 0.5246 0.9161
H28 H 0.4276 0.5471 0.8638
C39 C 0.6632(2) 0.35046(17) 0.88727(10)
C40 C 0.7004(3) 0.39196(19) 0.94610(11)
H29 H 0.6360 0.4150 0.9668
C41 C 0.8310(3) 0.3997(2) 0.97448(12)
H30 H 0.8552 0.4287 1.0143
C42 C 0.9247(3) 0.3659(2) 0.94567(14)
H31 H 1.0143 0.3732 0.9650
C43 C 0.8892(3) 0.3214(2) 0.88855(15)
H32 H 0.9528 0.2950 0.8691
C44 C 0.7605(3) 0.3152(2) 0.85966(12)
H33 H 0.7377 0.2862 0.8198
C45 C 0.4417(2) 0.20662(17) 0.80970(10)
C46 C 0.4507(3) 0.1302(2) 0.85194(12)
H34 H 0.4846 0.1520 0.8924
C47 C 0.4120(3) 0.0235(2) 0.83710(13)
H35 H 0.4191 -0.0265 0.8672
C48 C 0.3636(2) -0.00971(19) 0.77917(12)
H36 H 0.3369 -0.0828 0.7687
C49 C 0.3540(3) 0.0635(2) 0.73631(12)
H37 H 0.3205 0.0409 0.6959
C50 C 0.3927(3) 0.17059(19) 0.75139(11)
H38 H 0.3853 0.2201 0.7210
C51 C 0.1972(3) 0.38360(19) 0.51915(11)
C52 C 0.0956(3) 0.3354(2) 0.46538(12)
H39 H 0.1009 0.2623 0.4582
H40 H 0.1165 0.3760 0.4297
H41 H 0.0041 0.3367 0.4736
C53 C 0.1880(3) 0.4973(2) 0.53180(13)
H42 H 0.0965 0.4977 0.5405
H43 H 0.2082 0.5392 0.4965
H44 H 0.2536 0.5275 0.5664
C54 C 0.3408(3) 0.3855(3) 0.50510(14)
H45 H 0.4062 0.4152 0.5399
H46 H 0.3600 0.4290 0.4703
H47 H 0.3480 0.3135 0.4961
C55 C -0.0147(2) 0.31333(18) 0.60640(10)
C56 C -0.1348(2) 0.2501(2) 0.57712(11)
H48 H -0.1303 0.1992 0.5474
C57 C -0.2599(3) 0.2602(3) 0.59042(13)
H49 H -0.3397 0.2148 0.5707
C58 C -0.2696(3) 0.3348(3) 0.63164(14)
H50 H -0.3558 0.3416 0.6405
C59 C -0.1548(3) 0.3993(2) 0.65986(15)
H51 H -0.1612 0.4522 0.6879
C60 C -0.0283(3) 0.3884(2) 0.64802(12)
H52 H 0.0506 0.4333 0.6688
C61 C 0.1740(2) 0.16569(18) 0.58135(10)
C62 C 0.2994(3) 0.1460(2) 0.57461(13)
H53 H 0.3753 0.2039 0.5749
C63 C 0.3173(3) 0.0449(2) 0.56750(13)
H54 H 0.4042 0.0342 0.5624
C64 C 0.2096(3) -0.0400(2) 0.56778(12)
H55 H 0.2209 -0.1095 0.5622
C65 C 0.0864(3) -0.0236(2) 0.57618(15)
H56 H 0.0120 -0.0821 0.5774
C66 C 0.0684(3) 0.0781(2) 0.58296(13)
H57 H -0.0184 0.0878 0.5888
Cl1 Cl 0.49608(9) 0.14645(8) 0.32816(3)
Cl2 Cl 0.28608(10) 0.08266(8) 0.40266(5)
Cl3 Cl 0.54832(9) 0.20207(8) 0.45389(4)
C67 C 0.4271(3) 0.1801(2) 0.39094(12)
H58 H 0.3973 0.2470 0.3829
loop_
_geom_bond_atom_site_label_1
_geom_bond_atom_site_label_2
_geom_bond_site_symmetry_1
_geom_bond_site_symmetry_2
Si1 C9 1_555 1_555
Si2 C13 1_555 1_555
N1 H1 1_555 1_555
O1 C11 1_555 1_555
N2 C1 1_555 1_555
N3 C20 1_555 1_555
N4 C21 1_555 1_555
N5 C28 1_555 1_555
C1 N1 1_555 1_555
C2 N2 1_555 1_555
H2 C2 1_555 1_555
C3 C2 1_555 1_555
C4 C3 1_555 1_555
H3 C4 1_555 1_555
C5 C1 1_555 1_555
C6 C5 1_555 1_555
H4 C6 1_555 1_555
C7 C6 1_555 1_555
C8 N1 1_555 1_555
C9 C8 1_555 1_555
C10 C9 1_555 1_555
C11 C7 1_555 1_555
C12 C10 1_555 1_555
C13 C12 1_555 1_555
C14 C2 1_555 1_555
C15 C14 1_555 1_555
H5 C15 1_555 1_555
C16 C15 1_555 1_555
H6 C16 1_555 1_555
C17 C16 1_555 1_555
H7 C17 1_555 1_555
C18 C17 1_555 1_555
H8 C18 1_555 1_555
C19 C14 1_555 1_555
H9 C19 1_555 1_555
C20 C3 1_555 1_555
C21 C3 1_555 1_555
C22 C4 1_555 1_555
C23 C22 1_555 1_555
H10 C23 1_555 1_555
C24 C23 1_555 1_555
H11 C24 1_555 1_555
C25 C24 1_555 1_555
H12 C25 1_555 1_555
C26 C25 1_555 1_555
H13 C26 1_555 1_555
C27 C22 1_555 1_555
H14 C27 1_555 1_555
C28 C5 1_555 1_555
C29 C6 1_555 1_555
C30 C29 1_555 1_555
H15 C30 1_555 1_555
C31 C30 1_555 1_555
H16 C31 1_555 1_555
C32 C31 1_555 1_555
H17 C32 1_555 1_555
C33 C32 1_555 1_555
H18 C33 1_555 1_555
C34 C29 1_555 1_555
H19 C34 1_555 1_555
C35 Si1 1_555 1_555
C36 C35 1_555 1_555
H20 C36 1_555 1_555
H21 C36 1_555 1_555
H22 C36 1_555 1_555
C37 C35 1_555 1_555
H23 C37 1_555 1_555
H24 C37 1_555 1_555
H25 C37 1_555 1_555
C38 C35 1_555 1_555
H26 C38 1_555 1_555
H27 C38 1_555 1_555
H28 C38 1_555 1_555
C39 Si1 1_555 1_555
C40 C39 1_555 1_555
H29 C40 1_555 1_555
C41 C40 1_555 1_555
H30 C41 1_555 1_555
C42 C41 1_555 1_555
H31 C42 1_555 1_555
C43 C42 1_555 1_555
H32 C43 1_555 1_555
C44 C39 1_555 1_555
H33 C44 1_555 1_555
C45 Si1 1_555 1_555
C46 C45 1_555 1_555
H34 C46 1_555 1_555
C47 C46 1_555 1_555
H35 C47 1_555 1_555
C48 C47 1_555 1_555
H36 C48 1_555 1_555
C49 C48 1_555 1_555
H37 C49 1_555 1_555
C50 C45 1_555 1_555
H38 C50 1_555 1_555
C51 Si2 1_555 1_555
C52 C51 1_555 1_555
H39 C52 1_555 1_555
H40 C52 1_555 1_555
H41 C52 1_555 1_555
C53 C51 1_555 1_555
H42 C53 1_555 1_555
H43 C53 1_555 1_555
H44 C53 1_555 1_555
C54 C51 1_555 1_555
H45 C54 1_555 1_555
H46 C54 1_555 1_555
H47 C54 1_555 1_555
C55 Si2 1_555 1_555
C56 C55 1_555 1_555
H48 C56 1_555 1_555
C57 C56 1_555 1_555
H49 C57 1_555 1_555
C58 C57 1_555 1_555
H50 C58 1_555 1_555
C59 C58 1_555 1_555
H51 C59 1_555 1_555
C60 C55 1_555 1_555
H52 C60 1_555 1_555
C61 Si2 1_555 1_555
C62 C61 1_555 1_555
H53 C62 1_555 1_555
C63 C62 1_555 1_555
H54 C63 1_555 1_555
C64 C63 1_555 1_555
H55 C64 1_555 1_555
C65 C64 1_555 1_555
H56 C65 1_555 1_555
C66 C61 1_555 1_555
H57 C66 1_555 1_555
Cl1 C67 1_555 1_555
Cl2 C67 1_555 1_555
Cl3 C67 1_555 1_555
C67 H58 1_555 1_555
C4 C5 1_555 1_555
C7 C8 1_555 1_555
C10 C11 1_555 1_555
C18 C19 1_555 1_555
C26 C27 1_555 1_555
C33 C34 1_555 1_555
C43 C44 1_555 1_555
C49 C50 1_555 1_555
C59 C60 1_555 1_555
C65 C66 1_555 1_555

#END
