
#######################################################################
#
#                 Cambridge Crystallographic Data Centre
#                                CCDC 
#
#######################################################################
#
# If this CIF has been generated from an entry in the Cambridge 
# Structural Database, then it will include bibliographic, chemical, 
# crystal, experimental, refinement or atomic coordinate data resulting 
# from the CCDC's data processing and validation procedures.
#
#######################################################################

data_PUBLUV
_chemical_formula_moiety         'C17 H14 N4 O2 S1'
_chemical_name_systematic        
6-(Pyridin-2-yl)-1,7a-dihydrospiro[imidazo[1,5-c][1,3]thiazole-5,3'-indole]-2',7(1'H,6H)-dione
_symmetry_cell_setting           trigonal
_symmetry_space_group_name_H-M   'P 31'
_symmetry_Int_Tables_number      144
_space_group_name_Hall           'P 31'
loop_
_symmetry_equiv_pos_site_id
_symmetry_equiv_pos_as_xyz
1 x,y,z
2 -y,x-y,1/3+z
3 -x+y,-x,2/3+z
_cell_length_a                   12.470(6)
_cell_length_b                   12.470(6)
_cell_length_c                   9.013(9)
_cell_angle_alpha                90
_cell_angle_beta                 90
_cell_angle_gamma                120
_cell_volume                     1213.76
_exptl_crystal_colour            colorless
_exptl_crystal_description       cube
_cell_formula_units_Z            3
loop_
_atom_site_label
_atom_site_type_symbol
_atom_site_fract_x
_atom_site_fract_y
_atom_site_fract_z
S1 S 0.87658(17) 0.26220(18) 0.18685(12)
N1 N 0.9274(3) 0.1323(3) -0.3511(3)
H1 H 0.9769 0.1343 -0.4190
C1 C 0.8236(3) 0.1988(3) -0.2040(3)
C2 C 0.8707(3) 0.0409(3) -0.2534(3)
C3 C 0.8968(3) 0.2241(3) -0.3297(3)
O1 O 0.8717(3) -0.0562(3) -0.2519(3)
N2 N 0.8953(3) 0.1086(4) 0.0005(3)
C4 C 0.8151(3) 0.0860(3) -0.1323(3)
C5 C 0.9252(4) 0.3249(3) -0.4188(4)
H2 H 0.9754 0.3424 -0.5020
N3 N 0.6927(3) -0.0077(3) -0.0845(3)
C6 C 0.7750(3) 0.2733(3) -0.1686(4)
H3 H 0.7254 0.2568 -0.0851
C7 C 0.8196(5) 0.0310(5) 0.1215(4)
H4 H 0.8496 -0.0250 0.1514
O2 O 0.6006(5) -0.1213(4) 0.1262(5)
C8 C 0.8768(5) 0.3983(3) -0.3804(5)
H5 H 0.8959 0.4674 -0.4380
C9 C 0.8273(6) 0.1121(7) 0.2553(4)
H6 H 0.8859 0.1145 0.3279
H7 H 0.7469 0.0786 0.3023
C10 C 0.8009(4) 0.3730(4) -0.2591(5)
H8 H 0.7670 0.4229 -0.2380
C11 C 0.9690(5) 0.2350(6) 0.0523(5)
H9 H 0.9908 0.2922 -0.0302
H10 H 1.0447 0.2471 0.0980
N4 N 0.6297(3) -0.0334(3) -0.3279(4)
C12 C 0.5949(3) -0.0597(3) -0.1883(6)
C13 C 0.4714(5) -0.1317(6) -0.1479(11)
H11 H 0.4456 -0.1538 -0.0503
C14 C 0.6929(6) -0.0423(5) 0.0619(5)
C15 C 0.3865(6) -0.1693(8) -0.2724(17)
H12 H 0.3019 -0.2140 -0.2537
C16 C 0.5426(5) -0.0754(4) -0.4321(8)
H13 H 0.5696 -0.0539 -0.5295
C17 C 0.4250(6) -0.1425(6) -0.4127(14)
H14 H 0.3698 -0.1707 -0.4920
loop_
_geom_bond_atom_site_label_1
_geom_bond_atom_site_label_2
_geom_bond_site_symmetry_1
_geom_bond_site_symmetry_2
S1 C9 1_555 1_555
N1 H1 1_555 1_555
C1 C3 1_555 1_555
C2 N1 1_555 1_555
C3 N1 1_555 1_555
O1 C2 1_555 1_555
N2 C4 1_555 1_555
C4 C1 1_555 1_555
C5 C3 1_555 1_555
H2 C5 1_555 1_555
N3 C4 1_555 1_555
C6 C1 1_555 1_555
H3 C6 1_555 1_555
C7 N2 1_555 1_555
H4 C7 1_555 1_555
O2 C14 1_555 1_555
C8 C5 1_555 1_555
H5 C8 1_555 1_555
C9 C7 1_555 1_555
H6 C9 1_555 1_555
H7 C9 1_555 1_555
C10 C6 1_555 1_555
H8 C10 1_555 1_555
C11 S1 1_555 1_555
H9 C11 1_555 1_555
H10 C11 1_555 1_555
N4 C12 1_555 1_555
C12 N3 1_555 1_555
C13 C12 1_555 1_555
H11 C13 1_555 1_555
C14 N3 1_555 1_555
C15 C13 1_555 1_555
H12 C15 1_555 1_555
C16 N4 1_555 1_555
H13 C16 1_555 1_555
C17 C15 1_555 1_555
H14 C17 1_555 1_555
C2 C4 1_555 1_555
N2 C11 1_555 1_555
C7 C14 1_555 1_555
C8 C10 1_555 1_555
C16 C17 1_555 1_555

#END
