
#######################################################################
#
#                 Cambridge Crystallographic Data Centre
#                                CCDC 
#
#######################################################################
#
# If this CIF has been generated from an entry in the Cambridge 
# Structural Database, then it will include bibliographic, chemical, 
# crystal, experimental, refinement or atomic coordinate data resulting 
# from the CCDC's data processing and validation procedures.
#
#######################################################################

data_PUBPUY
_chemical_formula_moiety         'C42 H42 B1 O1 P1,0.5(C1 H2 Cl2),0.5(H2 O1)'
_chemical_name_systematic        
'(4-(Hydroxy(dimesityl)borato)phenyl)triphenylphosphonium dichloromethane solvate hemihydrate'
_symmetry_cell_setting           monoclinic
_symmetry_space_group_name_H-M   'C 2/c'
_symmetry_Int_Tables_number      15
_space_group_name_Hall           '-C 2yn'
loop_
_symmetry_equiv_pos_site_id
_symmetry_equiv_pos_as_xyz
1 x,y,z
2 -x,y,1/2-z
3 1/2+x,1/2+y,z
4 1/2-x,1/2+y,1/2-z
5 -x,-y,-z
6 x,-y,1/2+z
7 1/2-x,1/2-y,-z
8 1/2+x,1/2-y,1/2+z
_cell_length_a                   22.702(4)
_cell_length_b                   14.908(4)
_cell_length_c                   22.802(5)
_cell_angle_alpha                90
_cell_angle_beta                 112.368(4)
_cell_angle_gamma                90
_cell_volume                     7136.49
_exptl_crystal_colour            colorless
_exptl_crystal_description       block
_cell_formula_units_Z            8
loop_
_atom_site_label
_atom_site_type_symbol
_atom_site_fract_x
_atom_site_fract_y
_atom_site_fract_z
P1 P -0.23825(3) 0.94033(5) 0.05405(3)
O1 O 0.05160(9) 0.73916(12) 0.19464(9)
H1 H 0.0452 0.7650 0.2244
C1 C -0.27919(12) 0.94051(19) -0.03066(13)
C2 C -0.33967(15) 0.9410(2) -0.16105(14)
H2 H -0.3606 0.9413 -0.2059
C3 C -0.16301(12) 0.88623(18) 0.07616(13)
C4 C -0.28734(12) 0.8824(2) 0.08770(13)
C5 C -0.22498(12) 1.05583(19) 0.07828(13)
C6 C -0.07294(13) 0.84415(18) 0.05185(13)
H3 H -0.0552 0.8337 0.0209
C7 C 0.05037(12) 0.6276(2) 0.01418(13)
H4 H 0.0442 0.5649 0.0074
C8 C -0.06540(12) 0.83954(19) 0.15820(13)
H5 H -0.0423 0.8255 0.2016
C9 C 0.05338(12) 0.75807(19) 0.08033(13)
C10 C 0.09214(13) 0.88764(19) 0.17507(13)
C11 C -0.12760(13) 0.86782(19) 0.14007(13)
H6 H -0.1462 0.8748 0.1707
C12 C 0.07903(14) 0.9789(2) 0.18179(14)
C13 C 0.06754(12) 0.8091(2) 0.03502(13)
C14 C 0.04404(12) 0.66501(19) 0.06731(13)
C15 C -0.33069(13) 0.8838(2) -0.05997(14)
H7 H -0.3452 0.8447 -0.0354
C16 C -0.13565(12) 0.87223(18) 0.03176(13)
H8 H -0.1598 0.8819 -0.0120
C17 C -0.27443(14) 1.1177(2) 0.05386(14)
H9 H -0.3152 1.0988 0.0253
C18 C -0.03462(12) 0.83056(18) 0.11548(12)
C19 C 0.15763(13) 0.8631(2) 0.20358(13)
C20 C -0.27725(13) 0.7922(2) 0.10232(13)
H10 H -0.2417 0.7628 0.0986
C21 C 0.07274(13) 0.7689(2) -0.01797(14)
H11 H 0.0818 0.8057 -0.0475
C22 C -0.33933(14) 0.9261(2) 0.09402(15)
H12 H -0.3461 0.9883 0.0851
C23 C -0.36080(14) 0.8850(2) -0.12579(14)
H13 H -0.3962 0.8467 -0.1462
C24 C -0.25812(13) 0.9971(2) -0.06692(14)
H14 H -0.2230 1.0360 -0.0469
C25 C -0.16519(13) 1.0847(2) 0.12011(14)
H15 H -0.1313 1.0429 0.1368
C26 C -0.31848(15) 0.7443(2) 0.12226(14)
H16 H -0.3112 0.6825 0.1324
C27 C 0.20428(14) 0.9260(2) 0.23486(14)
H17 H 0.2473 0.9066 0.2537
C28 C -0.28850(14) 0.9969(2) -0.13241(14)
H18 H -0.2740 1.0352 -0.1574
C29 C 0.06527(13) 0.6781(2) -0.02936(13)
B1 B 0.04142(15) 0.8049(2) 0.14123(15)
C30 C 0.07689(15) 0.9101(2) 0.04026(15)
H19 H 0.0863 0.9320 0.0042
H20 H 0.1125 0.9246 0.0799
H21 H 0.0380 0.9388 0.0400
C31 C -0.15540(15) 1.1740(2) 0.13716(15)
H22 H -0.1147 1.1934 0.1657
C32 C -0.38043(15) 0.8777(2) 0.11331(17)
H23 H -0.4161 0.9066 0.1171
C33 C 0.12741(16) 1.0397(2) 0.21285(15)
H24 H 0.1165 1.1006 0.2158
C34 C 0.07054(16) 0.6354(2) -0.08675(15)
H25 H 0.0812 0.6812 -0.1119
H26 H 0.0298 0.6074 -0.1125
H27 H 0.1040 0.5896 -0.0733
C35 C -0.20400(15) 1.2349(2) 0.11326(16)
H28 H -0.1968 1.2962 0.1253
C36 C -0.26348(15) 1.2073(2) 0.07172(15)
H29 H -0.2970 1.2498 0.0553
C37 C 0.18124(14) 0.7693(2) 0.20212(16)
H30 H 0.2276 0.7677 0.2245
H31 H 0.1701 0.7506 0.1580
H32 H 0.1614 0.7285 0.2229
C38 C -0.37012(15) 0.7870(2) 0.12724(15)
H33 H -0.3989 0.7543 0.1403
C39 C 0.19119(16) 1.0148(2) 0.23973(14)
C40 C 0.02533(16) 0.6010(2) 0.10847(15)
H34 H 0.0216 0.5402 0.0910
H35 H -0.0157 0.6194 0.1096
H36 H 0.0579 0.6016 0.1516
C41 C 0.24284(17) 1.0820(3) 0.27052(17)
H37 H 0.2842 1.0516 0.2864
H38 H 0.2357 1.1108 0.3059
H39 H 0.2424 1.1276 0.2394
C42 C 0.01316(16) 1.0199(2) 0.15548(18)
H40 H 0.0160 1.0839 0.1660
H41 H -0.0140 0.9898 0.1741
H42 H -0.0052 1.0126 0.1093
C43 C 0.0000 0.5787(3) -0.2500
Cl1 Cl -0.06286(5) 0.64319(7) -0.24646(4)
H43 H -0.0204(18) 0.548(3) -0.2915(17)
Cl1A Cl 0.06286(5) 0.64319(7) -0.25354(4)
H43A H 0.0204(18) 0.548(3) -0.2085(17)
O2 O 0.0000 0.6168(2) 0.2500
H44 H 0.0155(14) 0.6506(19) 0.2308(14)
H44A H -0.0155(14) 0.6506(19) 0.2692(14)
loop_
_geom_bond_atom_site_label_1
_geom_bond_atom_site_label_2
_geom_bond_site_symmetry_1
_geom_bond_site_symmetry_2
P1 C1 1_555 1_555
O1 H1 1_555 1_555
C1 C15 1_555 1_555
C2 H2 1_555 1_555
C3 P1 1_555 1_555
C4 P1 1_555 1_555
C5 P1 1_555 1_555
C6 H3 1_555 1_555
C7 H4 1_555 1_555
C8 H5 1_555 1_555
C9 C13 1_555 1_555
C10 C12 1_555 1_555
C11 C3 1_555 1_555
H6 C11 1_555 1_555
C12 C33 1_555 1_555
C13 C21 1_555 1_555
C14 C7 1_555 1_555
C15 H7 1_555 1_555
C16 C3 1_555 1_555
H8 C16 1_555 1_555
C17 C5 1_555 1_555
H9 C17 1_555 1_555
C18 C6 1_555 1_555
C19 C10 1_555 1_555
C20 C4 1_555 1_555
H10 C20 1_555 1_555
C21 H11 1_555 1_555
C22 C4 1_555 1_555
H12 C22 1_555 1_555
C23 C2 1_555 1_555
H13 C23 1_555 1_555
C24 C1 1_555 1_555
H14 C24 1_555 1_555
C25 C5 1_555 1_555
H15 C25 1_555 1_555
C26 C20 1_555 1_555
H16 C26 1_555 1_555
C27 C19 1_555 1_555
H17 C27 1_555 1_555
C28 C2 1_555 1_555
H18 C28 1_555 1_555
C29 C7 1_555 1_555
B1 O1 1_555 1_555
C30 C13 1_555 1_555
H19 C30 1_555 1_555
H20 C30 1_555 1_555
H21 C30 1_555 1_555
C31 C25 1_555 1_555
H22 C31 1_555 1_555
C32 C22 1_555 1_555
H23 C32 1_555 1_555
C33 H24 1_555 1_555
C34 C29 1_555 1_555
H25 C34 1_555 1_555
H26 C34 1_555 1_555
H27 C34 1_555 1_555
C35 C31 1_555 1_555
H28 C35 1_555 1_555
C36 C17 1_555 1_555
H29 C36 1_555 1_555
C37 C19 1_555 1_555
H30 C37 1_555 1_555
H31 C37 1_555 1_555
H32 C37 1_555 1_555
C38 C26 1_555 1_555
H33 C38 1_555 1_555
C39 C27 1_555 1_555
C40 C14 1_555 1_555
H34 C40 1_555 1_555
H35 C40 1_555 1_555
H36 C40 1_555 1_555
C41 C39 1_555 1_555
H37 C41 1_555 1_555
H38 C41 1_555 1_555
H39 C41 1_555 1_555
C42 C12 1_555 1_555
H40 C42 1_555 1_555
H41 C42 1_555 1_555
H42 C42 1_555 1_555
C43 Cl1 1_555 1_555
H43 C43 1_555 1_555
O2 H44 1_555 1_555
Cl1A C43 1_555 1_555
H43A C43 1_555 1_555
H44A O2 1_555 1_555
C6 C16 1_555 1_555
C8 C11 1_555 1_555
C8 C18 1_555 1_555
C9 C14 1_555 1_555
C9 B1 1_555 1_555
C10 B1 1_555 1_555
C15 C23 1_555 1_555
C18 B1 1_555 1_555
C21 C29 1_555 1_555
C24 C28 1_555 1_555
C32 C38 1_555 1_555
C33 C39 1_555 1_555
C35 C36 1_555 1_555

#END
