
#######################################################################
#
#                 Cambridge Crystallographic Data Centre
#                                CCDC 
#
#######################################################################
#
# If this CIF has been generated from an entry in the Cambridge 
# Structural Database, then it will include bibliographic, chemical, 
# crystal, experimental, refinement or atomic coordinate data resulting 
# from the CCDC's data processing and validation procedures.
#
#######################################################################

data_PUBPOS
_chemical_formula_moiety         'C42 H41 B1 P1 1+,Br1 1-,C4 H10 O1'
_chemical_name_systematic        
'(4-(Dimesitylboryl)phenyl)triphenylphosphonium bromide diethyl ether solvate'
_symmetry_cell_setting           triclinic
_symmetry_space_group_name_H-M   'P -1'
_symmetry_Int_Tables_number      2
_space_group_name_Hall           '-P 1'
loop_
_symmetry_equiv_pos_site_id
_symmetry_equiv_pos_as_xyz
1 x,y,z
2 -x,-y,-z
_cell_length_a                   8.1920(16)
_cell_length_b                   10.305(2)
_cell_length_c                   24.315(5)
_cell_angle_alpha                78.84(3)
_cell_angle_beta                 85.45(3)
_cell_angle_gamma                86.33(3)
_cell_volume                     2004.99
_exptl_crystal_colour            colorless
_exptl_crystal_description       block
_cell_formula_units_Z            2
_exptl_crystal_recrystallization_method 'acetonitrile/diethyl ether'
loop_
_atom_site_label
_atom_site_type_symbol
_atom_site_fract_x
_atom_site_fract_y
_atom_site_fract_z
P1 P 0.49931(11) 0.28232(9) 0.36943(4)
C1 C 0.4120(4) 0.3535(3) 0.30386(14)
C2 C 0.3935(5) 0.2739(4) 0.26447(15)
H1 H 0.4347 0.1843 0.2707
C3 C 0.3143(5) 0.3269(4) 0.21613(15)
H2 H 0.2988 0.2718 0.1900
C4 C 0.2570(4) 0.4592(4) 0.20492(14)
C5 C 0.2781(4) 0.5370(4) 0.24516(14)
H3 H 0.2405 0.6274 0.2384
C6 C 0.3523(5) 0.4852(4) 0.29440(15)
H4 H 0.3625 0.5389 0.3215
C7 C 0.6143(4) 0.4040(3) 0.39081(15)
C8 C 0.7137(5) 0.4844(4) 0.35063(15)
H5 H 0.7092 0.4825 0.3119
C9 C 0.8183(5) 0.5664(4) 0.36751(17)
H6 H 0.8887 0.6190 0.3404
C10 C 0.8210(5) 0.5726(4) 0.42415(17)
H7 H 0.8922 0.6302 0.4356
C11 C 0.7207(5) 0.4952(4) 0.46357(17)
H8 H 0.7220 0.5004 0.5021
C12 C 0.6176(4) 0.4094(4) 0.44758(15)
H9 H 0.5500 0.3550 0.4750
C13 C 0.3358(4) 0.2308(3) 0.42073(14)
C14 C 0.1920(5) 0.3093(4) 0.42213(17)
H10 H 0.1794 0.3890 0.3953
C15 C 0.0679(5) 0.2714(4) 0.46238(17)
H11 H -0.0300 0.3259 0.4632
C16 C 0.0824(4) 0.1568(4) 0.50140(16)
H12 H -0.0044 0.1320 0.5290
C17 C 0.2241(5) 0.0780(5) 0.50015(19)
H13 H 0.2353 -0.0018 0.5270
C18 C 0.3503(5) 0.1143(5) 0.45999(18)
H14 H 0.4476 0.0590 0.4593
C19 C 0.6353(4) 0.1417(3) 0.36221(14)
C20 C 0.5727(5) 0.0194(4) 0.36009(16)
H15 H 0.4576 0.0110 0.3611
C21 C 0.6793(5) -0.0893(4) 0.35654(17)
H16 H 0.6369 -0.1725 0.3556
C22 C 0.8474(5) -0.0773(4) 0.35434(16)
H17 H 0.9198 -0.1521 0.3520
C23 C 0.9097(5) 0.0437(4) 0.35556(16)
H18 H 1.0250 0.0520 0.3535
C24 C 0.8047(4) 0.1530(4) 0.35970(14)
H19 H 0.8481 0.2357 0.3608
C25 C 0.0586(4) 0.4309(3) 0.12433(14)
C26 C 0.0938(4) 0.3990(4) 0.07061(14)
C27 C -0.0134(5) 0.3239(4) 0.04987(15)
H20 H 0.0118 0.3026 0.0138
C28 C -0.1559(5) 0.2792(4) 0.08020(16)
C29 C -0.1892(5) 0.3091(4) 0.13311(16)
H21 H -0.2865 0.2791 0.1544
C30 C -0.0842(4) 0.3818(4) 0.15599(15)
C31 C 0.2490(5) 0.4404(4) 0.03594(16)
H22 H 0.2519 0.4096 0.0002
H23 H 0.3441 0.4015 0.0564
H24 H 0.2521 0.5372 0.0286
C32 C -0.2729(6) 0.2004(5) 0.05639(19)
H25 H -0.3659 0.1778 0.0838
H26 H -0.2159 0.1190 0.0483
H27 H -0.3127 0.2534 0.0216
C33 C -0.1303(5) 0.4091(4) 0.21416(16)
H28 H -0.2326 0.3668 0.2290
H29 H -0.1454 0.5049 0.2124
H30 H -0.0428 0.3735 0.2389
C34 C 0.2109(4) 0.6654(3) 0.11931(14)
C35 C 0.3747(4) 0.7034(4) 0.10926(14)
C36 C 0.4084(5) 0.8349(4) 0.08669(15)
H31 H 0.5194 0.8583 0.0794
C37 C 0.2848(5) 0.9324(4) 0.07452(16)
C38 C 0.1241(5) 0.8944(4) 0.08338(16)
H32 H 0.0380 0.9595 0.0744
C39 C 0.0847(4) 0.7651(4) 0.10492(15)
C40 C 0.5190(5) 0.6039(4) 0.11942(17)
H33 H 0.6216 0.6498 0.1100
H34 H 0.5146 0.5374 0.0958
H35 H 0.5140 0.5603 0.1590
C41 C 0.3229(6) 1.0752(4) 0.0524(2)
H36 H 0.2203 1.1287 0.0464
H37 H 0.3894 1.0820 0.0167
H38 H 0.3837 1.1076 0.0797
C42 C -0.0936(4) 0.7336(4) 0.11330(19)
H39 H -0.1615 0.8143 0.1010
H40 H -0.1213 0.6989 0.1532
H41 H -0.1142 0.6671 0.0911
B1 B 0.1734(5) 0.5193(4) 0.14858(17)
O1 O 0.3520(5) 0.9911(4) 0.21370(16)
C43 C 0.6324(9) 0.9477(7) 0.2106(3)
H42 H 0.7217 0.8806 0.2192
H43 H 0.6428 1.0195 0.2311
H44 H 0.6381 0.9834 0.1702
C44 C 0.4787(7) 0.8888(6) 0.2272(2)
H45 H 0.4715 0.8522 0.2680
H46 H 0.4668 0.8160 0.2068
C45 C 0.1866(7) 0.9410(5) 0.2253(2)
H47 H 0.1684 0.9029 0.2658
H48 H 0.1747 0.8704 0.2037
C46 C 0.0652(7) 1.0507(6) 0.2092(3)
H49 H -0.0455 1.0178 0.2168
H50 H 0.0833 1.0875 0.1690
H51 H 0.0769 1.1199 0.2309
Br1 Br 0.25733(5) 0.73779(5) 0.388245(19)
loop_
_geom_bond_atom_site_label_1
_geom_bond_atom_site_label_2
_geom_bond_site_symmetry_1
_geom_bond_site_symmetry_2
P1 C1 1_555 1_555
C1 C2 1_555 1_555
C2 H1 1_555 1_555
C3 C2 1_555 1_555
H2 C3 1_555 1_555
C4 C3 1_555 1_555
C5 C4 1_555 1_555
H3 C5 1_555 1_555
C6 C1 1_555 1_555
H4 C6 1_555 1_555
C7 P1 1_555 1_555
C8 C7 1_555 1_555
H5 C8 1_555 1_555
C9 C8 1_555 1_555
H6 C9 1_555 1_555
C10 C9 1_555 1_555
H7 C10 1_555 1_555
C11 C10 1_555 1_555
H8 C11 1_555 1_555
C12 C7 1_555 1_555
H9 C12 1_555 1_555
C13 P1 1_555 1_555
C14 C13 1_555 1_555
H10 C14 1_555 1_555
C15 C14 1_555 1_555
H11 C15 1_555 1_555
C16 C15 1_555 1_555
H12 C16 1_555 1_555
C17 C16 1_555 1_555
H13 C17 1_555 1_555
C18 C13 1_555 1_555
H14 C18 1_555 1_555
C19 P1 1_555 1_555
C20 C19 1_555 1_555
H15 C20 1_555 1_555
C21 C20 1_555 1_555
H16 C21 1_555 1_555
C22 C21 1_555 1_555
H17 C22 1_555 1_555
C23 C22 1_555 1_555
H18 C23 1_555 1_555
C24 C19 1_555 1_555
H19 C24 1_555 1_555
C25 C26 1_555 1_555
C26 C27 1_555 1_555
C27 H20 1_555 1_555
C28 C27 1_555 1_555
C29 C28 1_555 1_555
H21 C29 1_555 1_555
C30 C25 1_555 1_555
C31 C26 1_555 1_555
H22 C31 1_555 1_555
H23 C31 1_555 1_555
H24 C31 1_555 1_555
C32 C28 1_555 1_555
H25 C32 1_555 1_555
H26 C32 1_555 1_555
H27 C32 1_555 1_555
C33 C30 1_555 1_555
H28 C33 1_555 1_555
H29 C33 1_555 1_555
H30 C33 1_555 1_555
C34 C35 1_555 1_555
C35 C36 1_555 1_555
C36 H31 1_555 1_555
C37 C36 1_555 1_555
C38 C37 1_555 1_555
H32 C38 1_555 1_555
C39 C34 1_555 1_555
C40 C35 1_555 1_555
H33 C40 1_555 1_555
H34 C40 1_555 1_555
H35 C40 1_555 1_555
C41 C37 1_555 1_555
H36 C41 1_555 1_555
H37 C41 1_555 1_555
H38 C41 1_555 1_555
C42 C39 1_555 1_555
H39 C42 1_555 1_555
H40 C42 1_555 1_555
H41 C42 1_555 1_555
B1 C4 1_555 1_555
O1 C44 1_555 1_555
C43 H42 1_555 1_555
H43 C43 1_555 1_555
H44 C43 1_555 1_555
C44 C43 1_555 1_555
H45 C44 1_555 1_555
H46 C44 1_555 1_555
C45 O1 1_555 1_555
H47 C45 1_555 1_555
H48 C45 1_555 1_555
C46 C45 1_555 1_555
H49 C46 1_555 1_555
H50 C46 1_555 1_555
H51 C46 1_555 1_555
C5 C6 1_555 1_555
C11 C12 1_555 1_555
C17 C18 1_555 1_555
C23 C24 1_555 1_555
C25 B1 1_555 1_555
C29 C30 1_555 1_555
C34 B1 1_555 1_555
C38 C39 1_555 1_555

#END
