
#######################################################################
#
#                 Cambridge Crystallographic Data Centre
#                                CCDC 
#
#######################################################################
#
# If this CIF has been generated from an entry in the Cambridge 
# Structural Database, then it will include bibliographic, chemical, 
# crystal, experimental, refinement or atomic coordinate data resulting 
# from the CCDC's data processing and validation procedures.
#
#######################################################################

data_PUBQEJ
_chemical_formula_moiety         'C42 H41 B1 F1 P1,0.5(C1 H2 Cl2)'
_chemical_name_systematic        
'(4-(Fluoro(dimesityl)borato)phenyl)triphenylphosphonium dichloromethane solvate'
_symmetry_cell_setting           triclinic
_symmetry_space_group_name_H-M   'P -1'
_symmetry_Int_Tables_number      2
_space_group_name_Hall           '-P 1'
loop_
_symmetry_equiv_pos_site_id
_symmetry_equiv_pos_as_xyz
1 x,y,z
2 -x,-y,-z
_cell_length_a                   18.988(4)
_cell_length_b                   19.806(4)
_cell_length_c                   19.918(4)
_cell_angle_alpha                99.42(3)
_cell_angle_beta                 104.07(3)
_cell_angle_gamma                99.53(3)
_cell_volume                     7000.99
_exptl_crystal_colour            colorless
_exptl_crystal_description       block
_cell_formula_units_Z            8
loop_
_atom_site_label
_atom_site_type_symbol
_atom_site_fract_x
_atom_site_fract_y
_atom_site_fract_z
P1 P 0.16800(6) 0.98995(5) 0.46044(5)
F1 F 0.05410(12) 0.73368(11) 0.17361(11)
B1 B -0.0061(2) 0.7393(2) 0.2067(2)
C1 C 0.1142(2) 0.91957(19) 0.3889(2)
C2 C 0.1388(2) 0.8565(2) 0.3797(2)
H1 H 0.1826 0.8516 0.4120
C3 C 0.0996(2) 0.8018(2) 0.3240(2)
H2 H 0.1180 0.7600 0.3182
C4 C 0.0336(2) 0.80516(19) 0.2755(2)
C5 C 0.0101(2) 0.8681(2) 0.2866(2)
H3 H -0.0347 0.8724 0.2553
C6 C 0.0493(2) 0.9249(2) 0.3416(2)
H4 H 0.0317 0.9671 0.3467
C7 C 0.1882(2) 0.9548(2) 0.5386(2)
C8 C 0.2535(2) 0.9802(2) 0.5918(2)
H5 H 0.2920 1.0140 0.5859
C9 C 0.2627(3) 0.9560(3) 0.6542(3)
H6 H 0.3075 0.9737 0.6912
C10 C 0.2080(2) 0.9068(2) 0.6632(2)
H7 H 0.2154 0.8903 0.7060
C11 C 0.1431(2) 0.8816(2) 0.6113(2)
H8 H 0.1048 0.8480 0.6179
C12 C 0.1331(2) 0.9052(2) 0.5488(2)
H9 H 0.0879 0.8873 0.5122
C13 C 0.1183(2) 1.0580(2) 0.4755(2)
C14 C 0.1007(2) 1.0974(2) 0.4240(2)
H10 H 0.1117 1.0860 0.3800
C15 C 0.0673(2) 1.1531(2) 0.4376(2)
H11 H 0.0540 1.1794 0.4024
C16 C 0.0535(2) 1.1706(2) 0.5022(2)
H12 H 0.0318 1.2097 0.5118
C17 C 0.0708(2) 1.1319(2) 0.5532(2)
H13 H 0.0605 1.1441 0.5974
C18 C 0.1030(2) 1.0754(2) 0.5399(2)
H14 H 0.1146 1.0485 0.5749
C19 C 0.2529(2) 1.0298(2) 0.4444(2)
C20 C 0.2911(2) 0.9904(2) 0.4079(2)
H15 H 0.2720 0.9415 0.3900
C21 C 0.3570(2) 1.0219(2) 0.3974(2)
H16 H 0.3834 0.9944 0.3731
C22 C 0.3844(2) 1.0926(2) 0.4217(2)
H17 H 0.4292 1.1142 0.4136
C23 C 0.3470(2) 1.1322(2) 0.4579(2)
H18 H 0.3664 1.1811 0.4751
C24 C 0.2814(2) 1.1018(2) 0.4695(2)
H19 H 0.2558 1.1296 0.4944
C25 C -0.0239(2) 0.6631(2) 0.2294(2)
C26 C -0.0352(2) 0.6519(2) 0.2944(2)
C27 C -0.0447(2) 0.5856(2) 0.3105(2)
H20 H -0.0514 0.5811 0.3554
C28 C -0.0446(2) 0.5263(2) 0.2631(2)
C29 C -0.0358(2) 0.5353(2) 0.1977(2)
H21 H -0.0361 0.4954 0.1637
C30 C -0.0265(2) 0.6009(2) 0.1802(2)
C31 C -0.0429(2) 0.7104(2) 0.3499(2)
H22 H -0.0503 0.6919 0.3909
H23 H -0.0857 0.7297 0.3298
H24 H 0.0023 0.7475 0.3647
C32 C -0.0573(2) 0.4551(2) 0.2807(3)
H25 H -0.0621 0.4599 0.3290
H26 H -0.0151 0.4336 0.2772
H27 H -0.1029 0.4256 0.2473
C33 C -0.0230(3) 0.6014(2) 0.1055(2)
H28 H -0.0255 0.5537 0.0807
H29 H 0.0238 0.6318 0.1066
H30 H -0.0649 0.6192 0.0806
C34 C -0.0753(2) 0.75855(19) 0.1505(2)
C35 C -0.1517(2) 0.7323(2) 0.1407(2)
C36 C -0.2062(3) 0.7508(2) 0.0904(2)
H31 H -0.2570 0.7319 0.0854
C37 C -0.1889(3) 0.7953(2) 0.0479(3)
C38 C -0.1151(3) 0.8229(2) 0.0578(2)
H32 H -0.1018 0.8545 0.0296
C39 C -0.0588(2) 0.8064(2) 0.1074(2)
C40 C -0.1803(2) 0.6821(3) 0.1824(3)
H33 H -0.2348 0.6708 0.1671
H34 H -0.1630 0.7039 0.2330
H35 H -0.1617 0.6391 0.1740
C41 C -0.2499(3) 0.8128(4) -0.0066(3)
H36 H -0.2278 0.8451 -0.0320
H37 H -0.2824 0.8350 0.0171
H38 H -0.2790 0.7697 -0.0403
C42 C 0.0191(2) 0.8430(2) 0.1125(2)
H39 H 0.0174 0.8733 0.0781
H40 H 0.0482 0.8080 0.1022
H41 H 0.0425 0.8714 0.1604
P2 P 0.79770(6) 0.44601(5) 0.58665(5)
F2 F 1.02739(12) 0.76650(11) 0.68427(11)
B2 B 0.9798(3) 0.7505(2) 0.7301(2)
C43 C 0.8578(2) 0.52886(19) 0.6301(2)
C44 C 0.8875(2) 0.5722(2) 0.5910(2)
H42 H 0.8822 0.5549 0.5423
C45 C 0.9246(2) 0.6404(2) 0.6230(2)
H43 H 0.9447 0.6689 0.5952
C46 C 0.9340(2) 0.66928(19) 0.6941(2)
C47 C 0.9042(2) 0.6237(2) 0.7319(2)
H44 H 0.9102 0.6404 0.7808
C48 C 0.8666(2) 0.5555(2) 0.7012(2)
H45 H 0.8467 0.5268 0.7289
C49 C 0.7112(2) 0.4632(2) 0.5407(2)
C50 C 0.6609(3) 0.4145(2) 0.4838(2)
H46 H 0.6723 0.3709 0.4676
C51 C 0.5944(3) 0.4298(3) 0.4512(2)
H47 H 0.5601 0.3967 0.4122
C52 C 0.5775(3) 0.4924(3) 0.4745(3)
H48 H 0.5323 0.5030 0.4506
C53 C 0.6250(2) 0.5396(2) 0.5319(2)
H49 H 0.6118 0.5820 0.5490
C54 C 0.6924(2) 0.5256(2) 0.5650(2)
H50 H 0.7258 0.5589 0.6044
C55 C 0.8339(3) 0.3965(2) 0.5241(2)
C56 C 0.8645(4) 0.3431(3) 0.5379(3)
H51 H 0.8683 0.3306 0.5825
C57 C 0.8913(4) 0.3049(4) 0.4879(3)
H52 H 0.9132 0.2670 0.4996
C58 C 0.8874(3) 0.3195(3) 0.4261(3)
H53 H 0.9119 0.2971 0.3955
C59 C 0.8457(4) 0.3697(3) 0.4048(3)
H54 H 0.8365 0.3770 0.3577
C60 C 0.8185(4) 0.4080(3) 0.4541(3)
H55 H 0.7901 0.4414 0.4411
C61 C 0.7829(2) 0.39633(19) 0.6512(2)
C62 C 0.8430(2) 0.3898(2) 0.7041(2)
H56 H 0.8923 0.4095 0.7046
C63 C 0.8305(2) 0.35463(19) 0.7561(2)
H57 H 0.8714 0.3496 0.7920
C64 C 0.7589(2) 0.3269(2) 0.7558(2)
H58 H 0.7506 0.3052 0.7931
C65 C 0.6990(2) 0.3303(2) 0.7016(2)
H59 H 0.6500 0.3089 0.7005
C66 C 0.7107(2) 0.3648(2) 0.6492(2)
H60 H 0.6697 0.3671 0.6119
C67 C 0.9316(2) 0.8123(2) 0.7304(2)
C68 C 0.8534(2) 0.8047(2) 0.7094(2)
C69 C 0.8207(3) 0.8625(2) 0.7187(2)
H61 H 0.7680 0.8555 0.7041
C70 C 0.8625(3) 0.9296(2) 0.7487(2)
C71 C 0.9384(3) 0.9386(2) 0.7667(2)
H62 H 0.9682 0.9844 0.7867
C72 C 0.9734(2) 0.8827(2) 0.7567(2)
C73 C 0.7999(2) 0.7349(2) 0.6766(3)
H63 H 0.7488 0.7418 0.6662
H64 H 0.8065 0.7034 0.7097
H65 H 0.8098 0.7142 0.6326
C74 C 0.8264(3) 0.9912(2) 0.7599(3)
H66 H 0.8648 1.0340 0.7817
H67 H 0.7945 0.9836 0.7912
H68 H 0.7962 0.9961 0.7142
C75 C 1.0568(2) 0.9010(2) 0.7713(2)
H69 H 1.0746 0.9517 0.7889
H70 H 1.0703 0.8867 0.7275
H71 H 1.0795 0.8766 0.8071
C76 C 1.0283(2) 0.74756(19) 0.8105(2)
C77 C 1.0998(2) 0.7318(2) 0.8241(2)
C78 C 1.1347(3) 0.7186(2) 0.8894(2)
H72 H 1.1827 0.7083 0.8964
C79 C 1.1014(3) 0.7200(2) 0.9447(2)
C80 C 1.0332(3) 0.7375(2) 0.9327(2)
H73 H 1.0097 0.7400 0.9698
C81 C 0.9968(2) 0.7516(2) 0.8687(2)
C82 C 1.1421(3) 0.7280(2) 0.7689(3)
H74 H 1.1902 0.7165 0.7885
H75 H 1.1503 0.7733 0.7552
H76 H 1.1133 0.6916 0.7272
C83 C 1.1392(3) 0.7024(3) 1.0134(3)
H77 H 1.1079 0.7060 1.0458
H78 H 1.1873 0.7352 1.0350
H79 H 1.1472 0.6544 1.0041
C84 C 0.9233(2) 0.7723(2) 0.8663(2)
H80 H 0.9125 0.7716 0.9118
H81 H 0.8838 0.7391 0.8285
H82 H 0.9259 0.8196 0.8569
P3 P 0.33366(6) 0.51147(5) 0.04662(5)
F3 F 0.46323(12) 0.77419(11) 0.32694(11)
B3 B 0.5194(2) 0.7673(2) 0.2889(2)
C85 C 0.3903(2) 0.58288(19) 0.11547(19)
C86 C 0.3661(2) 0.6461(2) 0.1246(2)
H83 H 0.3208 0.6503 0.0941
C87 C 0.4080(2) 0.7019(2) 0.1776(2)
H84 H 0.3899 0.7438 0.1836
C88 C 0.4762(2) 0.6998(2) 0.2231(2)
C89 C 0.4992(2) 0.6367(2) 0.21238(19)
H85 H 0.5452 0.6329 0.2420
C90 C 0.4575(2) 0.5789(2) 0.1601(2)
H86 H 0.4750 0.5367 0.1548
C91 C 0.2498(2) 0.4739(2) 0.0659(2)
C92 C 0.2168(2) 0.4035(2) 0.0355(2)
H87 H 0.2399 0.3761 0.0073
C93 C 0.1507(2) 0.3740(2) 0.0465(2)
H88 H 0.1284 0.3261 0.0260
C94 C 0.1165(2) 0.4137(2) 0.0870(2)
H89 H 0.0709 0.3931 0.0944
C95 C 0.1488(2) 0.4831(2) 0.1167(2)
H90 H 0.1249 0.5104 0.1442
C96 C 0.2154(2) 0.5133(2) 0.1070(2)
H91 H 0.2377 0.5611 0.1284
C97 C 0.3812(2) 0.44189(19) 0.0312(2)
C98 C 0.3938(2) 0.4221(2) -0.0345(2)
H92 H 0.3808 0.4478 -0.0702
C99 C 0.4253(2) 0.3650(2) -0.0474(2)
H93 H 0.4336 0.3511 -0.0923
C100 C 0.4449(2) 0.3283(2) 0.0050(2)
H94 H 0.4664 0.2889 -0.0043
C101 C 0.4337(2) 0.3479(2) 0.0708(2)
H95 H 0.4484 0.3230 0.1068
C102 C 0.4009(2) 0.4041(2) 0.0837(2)
H96 H 0.3917 0.4171 0.1284
C103 C 0.3104(2) 0.54520(19) -0.0327(2)
C104 C 0.3670(2) 0.5880(2) -0.0487(2)
H97 H 0.4157 0.6000 -0.0172
C105 C 0.3530(2) 0.6132(2) -0.1099(2)
H98 H 0.3920 0.6418 -0.1211
C106 C 0.2824(2) 0.5967(2) -0.1546(2)
H99 H 0.2723 0.6144 -0.1967
C107 C 0.2259(3) 0.5545(3) -0.1389(3)
H100 H 0.1771 0.5433 -0.1702
C108 C 0.2399(2) 0.5287(2) -0.0779(2)
H101 H 0.2008 0.4996 -0.0673
C109 C 0.5924(2) 0.7484(2) 0.3419(2)
C110 C 0.5806(2) 0.7032(2) 0.3883(2)
C111 C 0.6404(3) 0.6843(2) 0.4319(2)
H102 H 0.6306 0.6539 0.4624
C112 C 0.7130(3) 0.7080(2) 0.4326(2)
C113 C 0.7248(2) 0.7512(2) 0.3871(2)
H103 H 0.7743 0.7682 0.3863
C114 C 0.6670(2) 0.7713(2) 0.3423(2)
C115 C 0.5043(2) 0.6711(2) 0.3929(2)
H104 H 0.5094 0.6418 0.4282
H105 H 0.4748 0.6422 0.3466
H106 H 0.4794 0.7084 0.4068
C116 C 0.7767(3) 0.6866(3) 0.4799(3)
H107 H 0.8237 0.7087 0.4728
H108 H 0.7704 0.6355 0.4682
H109 H 0.7775 0.7016 0.5295
C117 C 0.6904(3) 0.8174(3) 0.2950(3)
H110 H 0.7446 0.8266 0.3044
H111 H 0.6747 0.8618 0.3044
H112 H 0.6672 0.7938 0.2453
C118 C 0.5349(2) 0.8426(2) 0.2642(2)
C119 C 0.5417(2) 0.9058(2) 0.3140(2)
C120 C 0.5503(2) 0.9712(2) 0.2955(2)
H113 H 0.5531 1.0116 0.3299
C121 C 0.5548(2) 0.9791(2) 0.2284(2)
C122 C 0.5501(2) 0.9190(2) 0.1806(2)
H114 H 0.5534 0.9227 0.1344
C123 C 0.5407(2) 0.8529(2) 0.1967(2)
C124 C 0.5434(3) 0.9061(2) 0.3903(2)
H115 H 0.5483 0.9542 0.4156
H116 H 0.5858 0.8875 0.4127
H117 H 0.4972 0.8768 0.3920
C125 C 0.5691(3) 1.0501(2) 0.2110(3)
H118 H 0.5703 1.0448 0.1615
H119 H 0.6169 1.0778 0.2422
H120 H 0.5293 1.0739 0.2179
C126 C 0.5416(3) 0.7932(2) 0.1388(2)
H121 H 0.5460 0.8112 0.0966
H122 H 0.4954 0.7577 0.1269
H123 H 0.5840 0.7721 0.1553
P4 P 0.68870(6) 1.04910(5) 0.90579(6)
F4 F 0.46568(12) 0.72754(11) 0.81328(11)
B4 B 0.5072(2) 0.7430(2) 0.7626(2)
C127 C 0.6345(2) 0.96340(19) 0.8641(2)
C128 C 0.6128(2) 0.9409(2) 0.7909(2)
H124 H 0.6242 0.9724 0.7620
C129 C 0.5749(2) 0.8732(2) 0.7600(2)
H125 H 0.5607 0.8594 0.7098
C130 C 0.5562(2) 0.82373(19) 0.7986(2)
C131 C 0.5782(2) 0.8477(2) 0.8722(2)
H126 H 0.5659 0.8163 0.9009
C132 C 0.6171(2) 0.9152(2) 0.9048(2)
H127 H 0.6320 0.9289 0.9550
C133 C 0.7036(2) 1.09745(19) 0.8402(2)
C134 C 0.7750(2) 1.1235(2) 0.8379(2)
H128 H 0.8164 1.1188 0.8733
C135 C 0.7860(2) 1.1566(2) 0.7840(2)
H129 H 0.8350 1.1750 0.7825
C136 C 0.7256(2) 1.1624(2) 0.7326(2)
H130 H 0.7331 1.1827 0.6942
C137 C 0.6540(2) 1.1392(2) 0.7361(2)
H131 H 0.6127 1.1453 0.7014
C138 C 0.6429(2) 1.1071(2) 0.7900(2)
H132 H 0.5939 1.0916 0.7930
C139 C 0.6463(2) 1.0999(2) 0.9619(2)
C140 C 0.5948(3) 1.0700(3) 0.9925(3)
H133 H 0.5785 1.0205 0.9827
C141 C 0.5665(3) 1.1122(3) 1.0379(3)
H134 H 0.5308 1.0913 1.0588
C142 C 0.5898(3) 1.1835(3) 1.0525(3)
H135 H 0.5741 1.2123 1.0866
C143 C 0.6352(3) 1.2119(3) 1.0177(3)
H136 H 0.6488 1.2615 1.0249
C144 C 0.6625(3) 1.1709(3) 0.9718(3)
H137 H 0.6931 1.1925 0.9466
C145 C 0.7769(2) 1.0393(2) 0.9561(2)
C146 C 0.8045(2) 0.9821(2) 0.9318(2)
H138 H 0.7750 0.9473 0.8917
C147 C 0.8749(2) 0.9760(3) 0.9663(3)
H139 H 0.8941 0.9372 0.9498
C148 C 0.9174(3) 1.0269(3) 1.0251(3)
H140 H 0.9656 1.0226 1.0494
C149 C 0.8900(3) 1.0832(3) 1.0481(3)
H141 H 0.9198 1.1180 1.0881
C150 C 0.8201(3) 1.0904(2) 1.0145(2)
H142 H 0.8016 1.1297 1.0311
C151 C 0.4519(2) 0.74854(19) 0.6857(2)
C152 C 0.3807(2) 0.7631(2) 0.6797(2)
C153 C 0.3403(3) 0.7792(2) 0.6182(2)
H143 H 0.2924 0.7883 0.6161
C154 C 0.3675(3) 0.7822(2) 0.5602(2)
C155 C 0.4359(3) 0.7655(2) 0.5638(2)
H144 H 0.4552 0.7657 0.5241
C156 C 0.4779(2) 0.74828(19) 0.6248(2)
C157 C 0.3433(3) 0.7632(2) 0.7388(3)
H145 H 0.2944 0.7746 0.7233
H146 H 0.3740 0.7983 0.7807
H147 H 0.3372 0.7168 0.7505
C158 C 0.3249(3) 0.8034(3) 0.4950(3)
H148 H 0.3534 0.8023 0.4601
H149 H 0.3171 0.8508 0.5083
H150 H 0.2767 0.7706 0.4746
C159 C 0.5512(2) 0.7303(2) 0.6206(2)
H151 H 0.5580 0.7334 0.5739
H152 H 0.5513 0.6825 0.6277
H153 H 0.5918 0.7632 0.6574
C160 C 0.5529(2) 0.6797(2) 0.7560(2)
C161 C 0.6307(2) 0.6856(2) 0.7708(2)
C162 C 0.6615(2) 0.6264(2) 0.7606(2)
H154 H 0.7140 0.6325 0.7713
C163 C 0.6180(2) 0.5593(2) 0.7355(2)
C164 C 0.5422(2) 0.5524(2) 0.7230(2)
H155 H 0.5112 0.5069 0.7065
C165 C 0.5094(2) 0.6100(2) 0.7337(2)
C166 C 0.6858(2) 0.7552(2) 0.7970(3)
H156 H 0.7365 0.7472 0.8039
H157 H 0.6805 0.7790 0.8421
H158 H 0.6763 0.7845 0.7620
C167 C 0.6520(3) 0.4970(2) 0.7243(2)
H159 H 0.6127 0.4543 0.7065
H160 H 0.6852 0.4939 0.7694
H161 H 0.6805 0.5017 0.6898
C168 C 0.4267(2) 0.5938(2) 0.7230(2)
H162 H 0.4076 0.5430 0.7077
H163 H 0.4028 0.6171 0.6866
H164 H 0.4157 0.6107 0.7676
Cl1 Cl 0.83260(9) 0.93162(9) 0.24264(13)
Cl2 Cl 0.73880(12) 0.98217(11) 0.13147(13)
C169 C 0.7472(4) 0.9176(4) 0.1765(4)
H165 H 0.7412 0.8733 0.1423
H166 H 0.7061 0.9117 0.1990
Cl3 Cl 0.66877(8) 0.56631(8) 0.22799(8)
Cl4 Cl 0.76589(9) 0.51940(10) 0.33857(10)
C170 C 0.7546(4) 0.5829(3) 0.2912(4)
H167 H 0.7944 0.5883 0.2670
H168 H 0.7608 0.6278 0.3245
loop_
_geom_bond_atom_site_label_1
_geom_bond_atom_site_label_2
_geom_bond_site_symmetry_1
_geom_bond_site_symmetry_2
P1 C1 1_555 1_555
P2 C43 1_555 1_555
P3 C85 1_555 1_555
P4 C127 1_555 1_555
F1 B1 1_555 1_555
F2 B2 1_555 1_555
F3 B3 1_555 1_555
F4 B4 1_555 1_555
B1 C4 1_555 1_555
B2 C46 1_555 1_555
B3 C88 1_555 1_555
B4 C130 1_555 1_555
Cl1 C169 1_555 1_555
Cl2 C169 1_555 1_555
Cl3 C170 1_555 1_555
Cl4 C170 1_555 1_555
C1 C2 1_555 1_555
C2 H1 1_555 1_555
C3 C2 1_555 1_555
H2 C3 1_555 1_555
C4 C3 1_555 1_555
C5 C4 1_555 1_555
H3 C5 1_555 1_555
C6 C1 1_555 1_555
H4 C6 1_555 1_555
C7 P1 1_555 1_555
C8 C7 1_555 1_555
H5 C8 1_555 1_555
C9 C8 1_555 1_555
H6 C9 1_555 1_555
C10 C9 1_555 1_555
H7 C10 1_555 1_555
C11 C10 1_555 1_555
H8 C11 1_555 1_555
C12 C7 1_555 1_555
H9 C12 1_555 1_555
C13 P1 1_555 1_555
C14 C13 1_555 1_555
H10 C14 1_555 1_555
C15 C14 1_555 1_555
H11 C15 1_555 1_555
C16 C15 1_555 1_555
H12 C16 1_555 1_555
C17 C16 1_555 1_555
H13 C17 1_555 1_555
C18 C13 1_555 1_555
H14 C18 1_555 1_555
C19 P1 1_555 1_555
C20 C19 1_555 1_555
H15 C20 1_555 1_555
C21 C20 1_555 1_555
H16 C21 1_555 1_555
C22 C21 1_555 1_555
H17 C22 1_555 1_555
C23 C22 1_555 1_555
H18 C23 1_555 1_555
C24 C19 1_555 1_555
H19 C24 1_555 1_555
C25 B1 1_555 1_555
C26 C25 1_555 1_555
C27 C26 1_555 1_555
H20 C27 1_555 1_555
C28 C27 1_555 1_555
C29 C28 1_555 1_555
H21 C29 1_555 1_555
C30 C25 1_555 1_555
C31 C26 1_555 1_555
H22 C31 1_555 1_555
H23 C31 1_555 1_555
H24 C31 1_555 1_555
C32 C28 1_555 1_555
H25 C32 1_555 1_555
H26 C32 1_555 1_555
H27 C32 1_555 1_555
C33 C30 1_555 1_555
H28 C33 1_555 1_555
H29 C33 1_555 1_555
H30 C33 1_555 1_555
C34 B1 1_555 1_555
C35 C34 1_555 1_555
C36 C35 1_555 1_555
H31 C36 1_555 1_555
C37 C36 1_555 1_555
C38 C37 1_555 1_555
H32 C38 1_555 1_555
C39 C34 1_555 1_555
C40 C35 1_555 1_555
H33 C40 1_555 1_555
H34 C40 1_555 1_555
H35 C40 1_555 1_555
C41 C37 1_555 1_555
H36 C41 1_555 1_555
H37 C41 1_555 1_555
H38 C41 1_555 1_555
C42 C39 1_555 1_555
H39 C42 1_555 1_555
H40 C42 1_555 1_555
H41 C42 1_555 1_555
C43 C44 1_555 1_555
C44 H42 1_555 1_555
C45 C44 1_555 1_555
H43 C45 1_555 1_555
C46 C45 1_555 1_555
C47 C46 1_555 1_555
H44 C47 1_555 1_555
C48 C43 1_555 1_555
H45 C48 1_555 1_555
C49 P2 1_555 1_555
C50 C49 1_555 1_555
H46 C50 1_555 1_555
C51 C50 1_555 1_555
H47 C51 1_555 1_555
C52 C51 1_555 1_555
H48 C52 1_555 1_555
C53 C52 1_555 1_555
H49 C53 1_555 1_555
C54 C49 1_555 1_555
H50 C54 1_555 1_555
C55 P2 1_555 1_555
C56 C55 1_555 1_555
H51 C56 1_555 1_555
C57 C56 1_555 1_555
H52 C57 1_555 1_555
C58 C57 1_555 1_555
H53 C58 1_555 1_555
C59 C58 1_555 1_555
H54 C59 1_555 1_555
C60 C55 1_555 1_555
H55 C60 1_555 1_555
C61 P2 1_555 1_555
C62 C61 1_555 1_555
H56 C62 1_555 1_555
C63 C62 1_555 1_555
H57 C63 1_555 1_555
C64 C63 1_555 1_555
H58 C64 1_555 1_555
C65 C64 1_555 1_555
H59 C65 1_555 1_555
C66 C61 1_555 1_555
H60 C66 1_555 1_555
C67 B2 1_555 1_555
C68 C67 1_555 1_555
C69 C68 1_555 1_555
H61 C69 1_555 1_555
C70 C69 1_555 1_555
C71 C70 1_555 1_555
H62 C71 1_555 1_555
C72 C67 1_555 1_555
C73 C68 1_555 1_555
H63 C73 1_555 1_555
H64 C73 1_555 1_555
H65 C73 1_555 1_555
C74 C70 1_555 1_555
H66 C74 1_555 1_555
H67 C74 1_555 1_555
H68 C74 1_555 1_555
C75 C72 1_555 1_555
H69 C75 1_555 1_555
H70 C75 1_555 1_555
H71 C75 1_555 1_555
C76 B2 1_555 1_555
C77 C76 1_555 1_555
C78 C77 1_555 1_555
H72 C78 1_555 1_555
C79 C78 1_555 1_555
C80 C79 1_555 1_555
H73 C80 1_555 1_555
C81 C76 1_555 1_555
C82 C77 1_555 1_555
H74 C82 1_555 1_555
H75 C82 1_555 1_555
H76 C82 1_555 1_555
C83 C79 1_555 1_555
H77 C83 1_555 1_555
H78 C83 1_555 1_555
H79 C83 1_555 1_555
C84 C81 1_555 1_555
H80 C84 1_555 1_555
H81 C84 1_555 1_555
H82 C84 1_555 1_555
C85 C86 1_555 1_555
C86 H83 1_555 1_555
C87 C86 1_555 1_555
H84 C87 1_555 1_555
C88 C87 1_555 1_555
C89 C88 1_555 1_555
H85 C89 1_555 1_555
C90 C85 1_555 1_555
H86 C90 1_555 1_555
C91 P3 1_555 1_555
C92 C91 1_555 1_555
H87 C92 1_555 1_555
C93 C92 1_555 1_555
H88 C93 1_555 1_555
C94 C93 1_555 1_555
H89 C94 1_555 1_555
C95 C94 1_555 1_555
H90 C95 1_555 1_555
C96 C91 1_555 1_555
H91 C96 1_555 1_555
C97 P3 1_555 1_555
C98 C97 1_555 1_555
H92 C98 1_555 1_555
C99 C98 1_555 1_555
H93 C99 1_555 1_555
C100 C99 1_555 1_555
H94 C100 1_555 1_555
C101 C100 1_555 1_555
H95 C101 1_555 1_555
C102 C97 1_555 1_555
H96 C102 1_555 1_555
C103 P3 1_555 1_555
C104 C103 1_555 1_555
H97 C104 1_555 1_555
C105 C104 1_555 1_555
H98 C105 1_555 1_555
C106 C105 1_555 1_555
H99 C106 1_555 1_555
C107 C106 1_555 1_555
H100 C107 1_555 1_555
C108 C103 1_555 1_555
H101 C108 1_555 1_555
C109 B3 1_555 1_555
C110 C109 1_555 1_555
C111 C110 1_555 1_555
H102 C111 1_555 1_555
C112 C111 1_555 1_555
C113 C112 1_555 1_555
H103 C113 1_555 1_555
C114 C109 1_555 1_555
C115 C110 1_555 1_555
H104 C115 1_555 1_555
H105 C115 1_555 1_555
H106 C115 1_555 1_555
C116 C112 1_555 1_555
H107 C116 1_555 1_555
H108 C116 1_555 1_555
H109 C116 1_555 1_555
C117 C114 1_555 1_555
H110 C117 1_555 1_555
H111 C117 1_555 1_555
H112 C117 1_555 1_555
C118 B3 1_555 1_555
C119 C118 1_555 1_555
C120 C119 1_555 1_555
H113 C120 1_555 1_555
C121 C120 1_555 1_555
C122 C121 1_555 1_555
H114 C122 1_555 1_555
C123 C118 1_555 1_555
C124 C119 1_555 1_555
H115 C124 1_555 1_555
H116 C124 1_555 1_555
H117 C124 1_555 1_555
C125 C121 1_555 1_555
H118 C125 1_555 1_555
H119 C125 1_555 1_555
H120 C125 1_555 1_555
C126 C123 1_555 1_555
H121 C126 1_555 1_555
H122 C126 1_555 1_555
H123 C126 1_555 1_555
C127 C128 1_555 1_555
C128 H124 1_555 1_555
C129 C128 1_555 1_555
H125 C129 1_555 1_555
C130 C129 1_555 1_555
C131 C130 1_555 1_555
H126 C131 1_555 1_555
C132 C127 1_555 1_555
H127 C132 1_555 1_555
C133 P4 1_555 1_555
C134 C133 1_555 1_555
H128 C134 1_555 1_555
C135 C134 1_555 1_555
H129 C135 1_555 1_555
C136 C135 1_555 1_555
H130 C136 1_555 1_555
C137 C136 1_555 1_555
H131 C137 1_555 1_555
C138 C133 1_555 1_555
H132 C138 1_555 1_555
C139 P4 1_555 1_555
C140 C139 1_555 1_555
H133 C140 1_555 1_555
C141 C140 1_555 1_555
H134 C141 1_555 1_555
C142 C141 1_555 1_555
H135 C142 1_555 1_555
C143 C142 1_555 1_555
H136 C143 1_555 1_555
C144 C139 1_555 1_555
H137 C144 1_555 1_555
C145 P4 1_555 1_555
C146 C145 1_555 1_555
H138 C146 1_555 1_555
C147 C146 1_555 1_555
H139 C147 1_555 1_555
C148 C147 1_555 1_555
H140 C148 1_555 1_555
C149 C148 1_555 1_555
H141 C149 1_555 1_555
C150 C145 1_555 1_555
H142 C150 1_555 1_555
C151 B4 1_555 1_555
C152 C151 1_555 1_555
C153 C152 1_555 1_555
H143 C153 1_555 1_555
C154 C153 1_555 1_555
C155 C154 1_555 1_555
H144 C155 1_555 1_555
C156 C151 1_555 1_555
C157 C152 1_555 1_555
H145 C157 1_555 1_555
H146 C157 1_555 1_555
H147 C157 1_555 1_555
C158 C154 1_555 1_555
H148 C158 1_555 1_555
H149 C158 1_555 1_555
H150 C158 1_555 1_555
C159 C156 1_555 1_555
H151 C159 1_555 1_555
H152 C159 1_555 1_555
H153 C159 1_555 1_555
C160 B4 1_555 1_555
C161 C160 1_555 1_555
C162 C161 1_555 1_555
H154 C162 1_555 1_555
C163 C162 1_555 1_555
C164 C163 1_555 1_555
H155 C164 1_555 1_555
C165 C160 1_555 1_555
C166 C161 1_555 1_555
H156 C166 1_555 1_555
H157 C166 1_555 1_555
H158 C166 1_555 1_555
C167 C163 1_555 1_555
H159 C167 1_555 1_555
H160 C167 1_555 1_555
H161 C167 1_555 1_555
C168 C165 1_555 1_555
H162 C168 1_555 1_555
H163 C168 1_555 1_555
H164 C168 1_555 1_555
C169 H165 1_555 1_555
H166 C169 1_555 1_555
C170 H167 1_555 1_555
H168 C170 1_555 1_555
C5 C6 1_555 1_555
C11 C12 1_555 1_555
C17 C18 1_555 1_555
C23 C24 1_555 1_555
C29 C30 1_555 1_555
C38 C39 1_555 1_555
C47 C48 1_555 1_555
C53 C54 1_555 1_555
C59 C60 1_555 1_555
C65 C66 1_555 1_555
C71 C72 1_555 1_555
C80 C81 1_555 1_555
C89 C90 1_555 1_555
C95 C96 1_555 1_555
C101 C102 1_555 1_555
C107 C108 1_555 1_555
C113 C114 1_555 1_555
C122 C123 1_555 1_555
C131 C132 1_555 1_555
C137 C138 1_555 1_555
C143 C144 1_555 1_555
C149 C150 1_555 1_555
C155 C156 1_555 1_555
C164 C165 1_555 1_555

#END
