
#######################################################################
#
#                 Cambridge Crystallographic Data Centre
#                                CCDC 
#
#######################################################################
#
# If this CIF has been generated from an entry in the Cambridge 
# Structural Database, then it will include bibliographic, chemical, 
# crystal, experimental, refinement or atomic coordinate data resulting 
# from the CCDC's data processing and validation procedures.
#
#######################################################################

data_PUBWOZ
_chemical_formula_moiety         'C20 H13 Cl1 N8 O9,2(C2 H6 O1 S1),0.5(H2 O1)'
_chemical_name_systematic        
'4-Chloro-2,6-bis((2-(2,4-dinitrophenyl)hydrazono)methyl)phenol dimethylsulfoxide solvate hemihydrate'
_symmetry_cell_setting           monoclinic
_symmetry_space_group_name_H-M   'C 2/c'
_symmetry_Int_Tables_number      15
_space_group_name_Hall           '-C 2yn'
loop_
_symmetry_equiv_pos_site_id
_symmetry_equiv_pos_as_xyz
1 x,y,z
2 -x,y,1/2-z
3 1/2+x,1/2+y,z
4 1/2-x,1/2+y,1/2-z
5 -x,-y,-z
6 x,-y,1/2+z
7 1/2-x,1/2-y,-z
8 1/2+x,1/2-y,1/2+z
_cell_length_a                   30.524(6)
_cell_length_b                   13.952(2)
_cell_length_c                   30.386(5)
_cell_angle_alpha                90
_cell_angle_beta                 94.494(5)
_cell_angle_gamma                90
_cell_volume                     12900.7
_chemical_melting_point          'above 300deg.C'
_cell_formula_units_Z            16
loop_
_atom_site_label
_atom_site_type_symbol
_atom_site_fract_x
_atom_site_fract_y
_atom_site_fract_z
C1 C 0.1083(3) 0.3794(5) 0.6803(2)
C2 C 0.0988(2) 0.3552(5) 0.6364(2)
H1 H 0.0707 0.3350 0.6266
C3 C 0.1301(2) 0.3607(5) 0.6080(2)
H2 H 0.1232 0.3451 0.5786
C4 C 0.1732(2) 0.3894(4) 0.62140(19)
C5 C 0.1820(2) 0.4104(5) 0.6672(2)
C6 C 0.1493(3) 0.4062(5) 0.6953(2)
H3 H 0.1553 0.4217 0.7249
C7 C 0.2257(2) 0.3739(5) 0.5250(2)
H4 H 0.2532 0.3936 0.5370
C8 C 0.2202(2) 0.3468(5) 0.47908(19)
C9 C 0.1808(2) 0.3173(6) 0.4595(2)
H5 H 0.1565 0.3148 0.4761
C10 C 0.1760(2) 0.2914(6) 0.4159(2)
C11 C 0.25186(19) 0.3262(5) 0.4087(2)
C12 C 0.2560(2) 0.3530(4) 0.4530(2)
C13 C 0.2876(2) 0.3323(5) 0.3802(2)
H6 H 0.2829 0.3136 0.3508
C14 C 0.3978(2) 0.3944(5) 0.3768(2)
C15 C 0.4306(2) 0.4069(5) 0.3471(2)
C16 C 0.4723(2) 0.4418(5) 0.3611(2)
H7 H 0.4931 0.4529 0.3409
C17 C 0.4819(2) 0.4592(5) 0.4046(2)
C18 C 0.4108(2) 0.4130(5) 0.4209(2)
H8 H 0.3903 0.4045 0.4416
C19 C 0.4517(2) 0.4428(5) 0.4354(2)
H9 H 0.4593 0.4521 0.4654
C40 C 0.2113(2) 0.2949(5) 0.3911(2)
H20 H 0.2079 0.2759 0.3617
Cl2 Cl 0.12572(7) 0.2533(3) 0.39175(8)
N1 N 0.0745(3) 0.3724(7) 0.7112(3)
N10 N 0.5260(2) 0.4945(5) 0.4184(3)
N11 N 0.4229(2) 0.3860(5) 0.3001(2)
N12 N 0.2257(2) 0.4287(5) 0.6863(2)
N13 N 0.19376(17) 0.3713(4) 0.54934(16)
N14 N 0.20408(18) 0.3973(4) 0.59259(16)
H47 H 0.2299 0.4182 0.6010
N15 N 0.32570(18) 0.3632(4) 0.39477(16)
N16 N 0.35603(17) 0.3687(4) 0.36396(17)
H48 H 0.3486 0.3560 0.3367
O10 O 0.54977(18) 0.5193(5) 0.3902(2)
O11 O 0.53643(18) 0.4982(5) 0.4581(2)
O12 O 0.3877(2) 0.3519(5) 0.28654(17)
O13 O 0.29453(14) 0.3834(4) 0.47270(14)
H50 H 0.3124 0.3897 0.4541
O14 O 0.25609(19) 0.4278(6) 0.66366(18)
O15 O 0.2316(2) 0.4428(6) 0.72603(18)
O16 O 0.0836(2) 0.3990(7) 0.7489(2)
O17 O 0.0393(2) 0.3411(7) 0.6988(2)
O19 O 0.45315(18) 0.4010(5) 0.27678(18)
C20 C 0.0581(2) 0.5558(5) 0.5750(3)
C21 C 0.0900(2) 0.5903(5) 0.6050(2)
H10 H 0.0837 0.6033 0.6339
C22 C 0.1319(2) 0.6058(4) 0.5920(2)
C23 C 0.1418(2) 0.5908(4) 0.5483(2)
C24 C 0.1070(2) 0.5564(5) 0.5186(2)
H11 H 0.1124 0.5444 0.4894
C25 C 0.0662(2) 0.5407(5) 0.5315(2)
H12 H 0.0438 0.5198 0.5112
C26 C 0.2265(2) 0.6048(5) 0.4790(2)
H13 H 0.2484 0.6237 0.5003
C27 C 0.2371(2) 0.5907(5) 0.4340(2)
C28 C 0.2797(2) 0.6112(5) 0.4226(2)
C29 C 0.2926(2) 0.5949(5) 0.3801(2)
C30 C 0.2606(2) 0.5604(5) 0.3481(2)
H14 H 0.2680 0.5493 0.3194
C31 C 0.2185(2) 0.5431(5) 0.3590(2)
C32 C 0.2065(2) 0.5575(5) 0.4016(2)
H15 H 0.1779 0.5448 0.4083
C33 C 0.3363(2) 0.6113(5) 0.3682(2)
H16 H 0.3431 0.6002 0.3394
C34 C 0.4400(2) 0.6848(5) 0.4148(2)
C35 C 0.4319(2) 0.6900(5) 0.4595(2)
H17 H 0.4044 0.6724 0.4680
C36 C 0.4629(2) 0.7197(5) 0.4904(2)
H18 H 0.4565 0.7229 0.5198
C37 C 0.5037(2) 0.7453(5) 0.4792(2)
C38 C 0.4825(2) 0.7101(5) 0.4047(2)
C39 C 0.5141(2) 0.7392(5) 0.4365(2)
H19 H 0.5422 0.7545 0.4291
Cl1 Cl 0.17971(7) 0.4990(2) 0.31953(6)
N2 N 0.5366(2) 0.7803(5) 0.5127(2)
N3 N 0.4954(2) 0.7076(6) 0.3602(2)
N4 N 0.1639(2) 0.6410(4) 0.6257(2)
N5 N 0.0145(2) 0.5394(5) 0.5890(3)
N6 N 0.40744(16) 0.6561(4) 0.38391(17)
H45 H 0.4130 0.6478 0.3569
N7 N 0.36616(16) 0.6410(4) 0.39655(17)
N8 N 0.18791(18) 0.5918(4) 0.48971(17)
N9 N 0.18222(17) 0.6053(4) 0.53344(17)
H46 H 0.2039 0.6229 0.5514
O1 O 0.53126(18) 0.7364(5) 0.35198(18)
O2 O 0.4703(2) 0.6731(9) 0.3314(2)
O3 O 0.52607(19) 0.7967(5) 0.5488(2)
O4 O 0.5745(2) 0.7886(5) 0.50211(19)
O5 O 0.20091(17) 0.6586(4) 0.61600(16)
O6 O 0.15256(19) 0.6530(5) 0.66238(18)
O7 O 0.0097(2) 0.5457(6) 0.6283(2)
O8 O -0.0153(2) 0.5200(5) 0.5612(2)
O9 O 0.30882(15) 0.6449(4) 0.45506(14)
H49 H 0.3316 0.6607 0.4444
C41 C 0.4275(4) 0.8780(9) 0.6322(5)
H21 H 0.4305 0.9139 0.6057
H22 H 0.4403 0.9136 0.6571
H23 H 0.3970 0.8668 0.6357
C42 C 0.4404(4) 0.7203(9) 0.6778(4)
H24 H 0.4097 0.7322 0.6803
H25 H 0.4574 0.7507 0.7018
H26 H 0.4458 0.6525 0.6787
O23 O 0.4319(2) 0.7086(6) 0.5930(2)
S2 S 0.45531(9) 0.7657(3) 0.62885(9)
C43 C 0.3252(5) 0.6804(10) 0.5732(5)
H27 H 0.3558 0.6967 0.5765
H28 H 0.3089 0.7255 0.5893
H29 H 0.3150 0.6825 0.5426
C44 C 0.3513(3) 0.5217(12) 0.5553(5)
H30 H 0.3553 0.4546 0.5614
H31 H 0.3793 0.5533 0.5577
H32 H 0.3377 0.5299 0.5260
O18 O 0.27267(16) 0.5430(4) 0.57696(18)
S1 S 0.31809(7) 0.5708(2) 0.59279(7)
C45 C 0.2324(5) 0.2987(15) 0.2329(5)
H33 H 0.2196 0.2906 0.2606
H34 H 0.2287 0.2408 0.2159
H35 H 0.2180 0.3506 0.2168
C46 C 0.3083(7) 0.2772(17) 0.2027(4)
H36 H 0.3201 0.3273 0.1855
H37 H 0.2874 0.2405 0.1844
H38 H 0.3317 0.2361 0.2143
O22 O 0.2977(2) 0.2994(7) 0.28535(19)
S4 S 0.2848(2) 0.3227(6) 0.24196(14)
C47 C 0.3807(9) 0.5657(17) 0.2049(5)
H39 H 0.3944 0.5830 0.1786
H40 H 0.3496 0.5768 0.2005
H41 H 0.3860 0.4991 0.2113
C48 C 0.3956(10) 0.7504(14) 0.2382(6)
H42 H 0.3650 0.7654 0.2321
H43 H 0.4115 0.7692 0.2136
H44 H 0.4069 0.7843 0.2642
O21 O 0.3904(2) 0.5955(6) 0.28988(18)
S3 S 0.4014(2) 0.6314(4) 0.24665(12)
O20 O 0.0487(7) 0.6143(13) 0.7256(6)
C49? C 0.4481(7) 0.5934(19) 0.2291(7)
C50? C 0.3838(12) 0.5219(16) 0.2334(13)
H51? H 0.4627 0.5522 0.2510
H52? H 0.4666 0.6474 0.2241
H53? H 0.4423 0.5586 0.2021
H54? H 0.3804 0.4859 0.2598
H55? H 0.4049 0.4905 0.2164
H56? H 0.3561 0.5258 0.2163
loop_
_geom_bond_atom_site_label_1
_geom_bond_atom_site_label_2
_geom_bond_site_symmetry_1
_geom_bond_site_symmetry_2
C1 C2 1_555 1_555
C2 H1 1_555 1_555
C3 C2 1_555 1_555
H2 C3 1_555 1_555
C4 C3 1_555 1_555
C5 C4 1_555 1_555
C6 C1 1_555 1_555
H3 C6 1_555 1_555
C7 H4 1_555 1_555
C8 C7 1_555 1_555
C9 C8 1_555 1_555
H5 C9 1_555 1_555
C10 C9 1_555 1_555
C11 C12 1_555 1_555
C12 C8 1_555 1_555
C13 C11 1_555 1_555
H6 C13 1_555 1_555
C14 C15 1_555 1_555
C15 C16 1_555 1_555
C16 H7 1_555 1_555
C17 C16 1_555 1_555
C18 C14 1_555 1_555
H8 C18 1_555 1_555
C19 C17 1_555 1_555
H9 C19 1_555 1_555
C20 C21 1_555 1_555
C21 H10 1_555 1_555
C22 C21 1_555 1_555
C23 C22 1_555 1_555
C24 C23 1_555 1_555
H11 C24 1_555 1_555
C25 C20 1_555 1_555
H12 C25 1_555 1_555
C26 H13 1_555 1_555
C27 C26 1_555 1_555
C28 C27 1_555 1_555
C29 C28 1_555 1_555
C30 C29 1_555 1_555
H14 C30 1_555 1_555
C31 C30 1_555 1_555
C32 C27 1_555 1_555
H15 C32 1_555 1_555
C33 C29 1_555 1_555
H16 C33 1_555 1_555
C34 C35 1_555 1_555
C35 H17 1_555 1_555
C36 C35 1_555 1_555
H18 C36 1_555 1_555
C37 C36 1_555 1_555
C38 C34 1_555 1_555
C39 C37 1_555 1_555
H19 C39 1_555 1_555
C40 C10 1_555 1_555
H20 C40 1_555 1_555
C41 H21 1_555 1_555
H22 C41 1_555 1_555
H23 C41 1_555 1_555
C42 H24 1_555 1_555
H25 C42 1_555 1_555
H26 C42 1_555 1_555
C43 H27 1_555 1_555
H28 C43 1_555 1_555
H29 C43 1_555 1_555
C44 H30 1_555 1_555
H31 C44 1_555 1_555
H32 C44 1_555 1_555
C45 H33 1_555 1_555
H34 C45 1_555 1_555
H35 C45 1_555 1_555
C46 H36 1_555 1_555
H37 C46 1_555 1_555
H38 C46 1_555 1_555
C47 H39 1_555 1_555
H40 C47 1_555 1_555
H41 C47 1_555 1_555
C48 H42 1_555 1_555
H43 C48 1_555 1_555
H44 C48 1_555 1_555
Cl1 C31 1_555 1_555
Cl2 C10 1_555 1_555
N1 C1 1_555 1_555
N2 C37 1_555 1_555
N3 C38 1_555 1_555
N4 C22 1_555 1_555
N5 C20 1_555 1_555
N6 C34 1_555 1_555
H45 N6 1_555 1_555
N7 C33 1_555 1_555
N8 C26 1_555 1_555
N9 C23 1_555 1_555
H46 N9 1_555 1_555
N10 C17 1_555 1_555
N11 C15 1_555 1_555
N12 C5 1_555 1_555
N13 C7 1_555 1_555
N14 C4 1_555 1_555
H47 N14 1_555 1_555
N15 C13 1_555 1_555
N16 C14 1_555 1_555
H48 N16 1_555 1_555
O1 N3 1_555 1_555
O2 N3 1_555 1_555
O3 N2 1_555 1_555
O4 N2 1_555 1_555
O5 N4 1_555 1_555
O6 N4 1_555 1_555
O7 N5 1_555 1_555
O8 N5 1_555 1_555
O9 C28 1_555 1_555
H49 O9 1_555 1_555
O10 N10 1_555 1_555
O11 N10 1_555 1_555
O12 N11 1_555 1_555
O13 C12 1_555 1_555
H50 O13 1_555 1_555
O14 N12 1_555 1_555
O15 N12 1_555 1_555
O16 N1 1_555 1_555
O17 N1 1_555 1_555
O18 S1 1_555 1_555
O19 N11 1_555 1_555
O21 S3 1_555 1_555
O22 S4 1_555 1_555
O23 S2 1_555 1_555
S1 C43 1_555 1_555
S2 C41 1_555 1_555
S3 C47 1_555 1_555
S4 C45 1_555 1_555
C5 C6 1_555 1_555
C11 C40 1_555 1_555
C18 C19 1_555 1_555
C24 C25 1_555 1_555
C31 C32 1_555 1_555
C38 C39 1_555 1_555
C42 S2 1_555 1_555
C44 S1 1_555 1_555
C46 S4 1_555 1_555
C48 S3 1_555 1_555
N6 N7 1_555 1_555
N8 N9 1_555 1_555
N13 N14 1_555 1_555
N15 N16 1_555 1_555

#END
