
#######################################################################
#
#                 Cambridge Crystallographic Data Centre
#                                CCDC 
#
#######################################################################
#
# If this CIF has been generated from an entry in the Cambridge 
# Structural Database, then it will include bibliographic, chemical, 
# crystal, experimental, refinement or atomic coordinate data resulting 
# from the CCDC's data processing and validation procedures.
#
#######################################################################

data_PUBXOB
_chemical_formula_moiety         'C52 H61 I1 N6 Si2'
_chemical_name_systematic        
7-(2-Iodo-1,4-bis(tri-isopropylsilyl)but-1-en-3-yn-1-yl)-2,4,5-triphenyl-5,8-dihydro-1,8-naphthyridine-3,3,4a,6(2H,4H)-tetracarbonitrile
_symmetry_cell_setting           tetragonal
_symmetry_space_group_name_H-M   'P 43'
_symmetry_Int_Tables_number      78
_space_group_name_Hall           'P 4cw'
loop_
_symmetry_equiv_pos_site_id
_symmetry_equiv_pos_as_xyz
1 x,y,z
2 -y,x,3/4+z
3 y,-x,1/4+z
4 -x,-y,1/2+z
_cell_length_a                   13.4749(10)
_cell_length_b                   13.4749(10)
_cell_length_c                   27.990(3)
_cell_angle_alpha                90
_cell_angle_beta                 90
_cell_angle_gamma                90
_cell_volume                     5082.23
_exptl_crystal_colour            colorless
_exptl_crystal_description       prism
_cell_formula_units_Z            4
loop_
_atom_site_label
_atom_site_type_symbol
_atom_site_fract_x
_atom_site_fract_y
_atom_site_fract_z
I1 I 0.32719(7) 0.48717(9) 0.11639(6)
N1 N 0.6000(8) 0.4911(8) 0.0683(3)
H1 H 0.5790 0.5236 0.0430
N2 N 0.6802(8) 0.3878(8) 0.0178(4)
N3 N 0.5287(12) 0.5197(9) 0.2344(5)
N4 N 0.8399(8) 0.4977(9) 0.1349(4)
N5 N 0.9737(10) 0.3743(13) 0.0521(4)
N6 N 0.8687(9) 0.0853(11) 0.0294(5)
Si1 Si 0.5854(3) 0.7425(3) 0.1114(2)
Si2 Si 0.1715(3) 0.8412(4) 0.1234(3)
C1 C 0.5656(8) 0.5222(8) 0.1126(4)
C2 C 0.5815(9) 0.4670(9) 0.1506(4)
C3 C 0.6324(11) 0.3647(10) 0.1475(5)
H2 H 0.6724 0.3589 0.1775
C4 C 0.7116(9) 0.3686(9) 0.1055(4)
C5 C 0.7474(9) 0.2648(9) 0.0940(4)
H3 H 0.6865 0.2255 0.0862
C6 C 0.8105(8) 0.2666(9) 0.0472(4)
C7 C 0.7484(9) 0.3097(9) 0.0035(4)
H4 H 0.7974 0.3408 -0.0188
C8 C 0.6639(8) 0.4142(9) 0.0610(4)
C9 C 0.5489(12) 0.4972(10) 0.1958(5)
C10 C 0.7839(8) 0.4406(8) 0.1220(4)
C11 C 0.9028(10) 0.3304(12) 0.0519(4)
C12 C 0.8448(10) 0.1650(11) 0.0367(5)
C13 C 0.6947(9) 0.2302(9) -0.0247(4)
C14 C 0.7344(10) 0.2021(9) -0.0688(4)
H5 H 0.7955 0.2302 -0.0790
C15 C 0.6869(12) 0.1343(10) -0.0977(5)
H6 H 0.7137 0.1172 -0.1281
C16 C 0.5991(11) 0.0914(9) -0.0817(5)
H7 H 0.5662 0.0431 -0.1007
C17 C 0.5594(11) 0.1195(11) -0.0379(5)
H8 H 0.4989 0.0910 -0.0271
C18 C 0.6079(11) 0.1886(11) -0.0099(5)
H9 H 0.5805 0.2073 0.0201
C19 C 0.7992(8) 0.2085(9) 0.1347(4)
C20 C 0.7617(12) 0.1180(10) 0.1448(4)
H10 H 0.7081 0.0913 0.1269
C21 C 0.8057(11) 0.0628(12) 0.1838(6)
H11 H 0.7809 -0.0011 0.1917
C22 C 0.8832(11) 0.1026(11) 0.2094(5)
H12 H 0.9132 0.0659 0.2345
C23 C 0.9161(10) 0.1947(11) 0.1984(5)
H13 H 0.9689 0.2222 0.2165
C24 C 0.8759(9) 0.2497(9) 0.1619(4)
H14 H 0.8997 0.3145 0.1552
C25 C 0.5107(8) 0.6180(9) 0.1130(4)
C26 C 0.4136(9) 0.6181(10) 0.1152(6)
C27 C 0.3454(9) 0.7001(11) 0.1167(6)
C28 C 0.2838(10) 0.7609(12) 0.1172(7)
C29 C 0.7223(17) 0.7086(18) 0.0840(11)
H15 H 0.7474 0.6470 0.0999
C30 C 0.727(2) 0.695(2) 0.0316(11)
H16 H 0.6838 0.6391 0.0224
H17 H 0.7039 0.7553 0.0157
H18 H 0.7951 0.6804 0.0220
C31 C 0.7913(18) 0.7978(18) 0.0983(11)
H19 H 0.7888 0.8075 0.1330
H20 H 0.8597 0.7833 0.0885
H21 H 0.7684 0.8582 0.0822
C32 C 0.5248(13) 0.8308(13) 0.0694(6)
H22 H 0.4616 0.8500 0.0857
C33 C 0.5807(16) 0.9292(15) 0.0626(9)
H23 H 0.6011 0.9551 0.0938
H24 H 0.6396 0.9178 0.0427
H25 H 0.5371 0.9773 0.0468
C34 C 0.494(2) 0.7910(19) 0.0233(7)
H26 H 0.4582 0.7283 0.0282
H27 H 0.4498 0.8386 0.0074
H28 H 0.5523 0.7792 0.0033
C35 C 0.6089(17) 0.7967(19) 0.1693(8)
H29 H 0.6455 0.8605 0.1645
C36 C 0.5124(19) 0.819(2) 0.1938(11)
H30 H 0.4715 0.8611 0.1730
H31 H 0.4772 0.7571 0.2004
H32 H 0.5255 0.8541 0.2238
C37 C 0.669(2) 0.731(2) 0.2029(10)
H33 H 0.7332 0.7153 0.1880
H34 H 0.6812 0.7671 0.2329
H35 H 0.6329 0.6701 0.2095
C38 C 0.191(2) 0.965(3) 0.0909(11)
H36 H 0.2307 1.0050 0.1139
C39 C 0.092(2) 1.021(2) 0.0874(13)
H37 H 0.0765 1.0501 0.1184
H38 H 0.0396 0.9745 0.0781
H39 H 0.0981 1.0732 0.0633
C40 C 0.258(3) 0.956(3) 0.0470(11)
H40 H 0.3178 0.9179 0.0555
H41 H 0.2227 0.9216 0.0213
H42 H 0.2776 1.0222 0.0362
C41 C 0.0696(17) 0.7638(17) 0.1044(7)
H43 H 0.0104 0.8084 0.1028
C42 C 0.044(2) 0.684(2) 0.1411(10)
H44 H 0.0412 0.7143 0.1730
H45 H -0.0203 0.6549 0.1333
H46 H 0.0953 0.6326 0.1407
C43 C 0.072(2) 0.708(3) 0.0573(9)
H47 H 0.0880 0.7547 0.0315
H48 H 0.1225 0.6562 0.0587
H49 H 0.0068 0.6785 0.0513
C44 C 0.160(2) 0.867(3) 0.1920(12)
H50 H 0.1576 0.8057 0.2119
C45 C 0.059(3) 0.935(3) 0.1952(16)
H51 H 0.0020 0.8950 0.1851
H52 H 0.0494 0.9569 0.2282
H53 H 0.0658 0.9926 0.1742
C46 C 0.230(3) 0.937(3) 0.2076(12)
H54 H 0.2963 0.9063 0.2076
H55 H 0.2300 0.9941 0.1861
H56 H 0.2136 0.9584 0.2400
C47 C 0.5681(16) 0.2777(15) 0.1473(7)
C48 C 0.5774(15) 0.2145(15) 0.1863(6)
H57 H 0.6254 0.2279 0.2103
C49 C 0.5166(16) 0.1316(14) 0.1901(7)
H58 H 0.5229 0.0884 0.2168
C50 C 0.4464(16) 0.1119(14) 0.1550(8)
H59 H 0.4048 0.0553 0.1576
C51 C 0.4371(14) 0.1751(15) 0.1160(7)
H60 H 0.3891 0.1617 0.0920
C52 C 0.4980(15) 0.2580(15) 0.1121(7)
H61 H 0.4916 0.3012 0.0855
C53? C 0.5439(18) 0.2823(15) 0.1371(8)
C54? C 0.5406(17) 0.2062(17) 0.1706(7)
H62? H 0.5823 0.2085 0.1980
C55? C 0.4761(18) 0.1268(15) 0.1642(8)
H63? H 0.4738 0.0749 0.1871
C56? C 0.4150(16) 0.1235(14) 0.1242(9)
H64? H 0.3709 0.0692 0.1198
C57? C 0.4184(16) 0.1995(17) 0.0907(7)
H65? H 0.3766 0.1972 0.0633
C58? C 0.4829(19) 0.2789(15) 0.0971(8)
H66? H 0.4852 0.3309 0.0742
loop_
_geom_bond_atom_site_label_1
_geom_bond_atom_site_label_2
_geom_bond_site_symmetry_1
_geom_bond_site_symmetry_2
I1 C26 1_555 1_555
N1 H1 1_555 1_555
N2 C7 1_555 1_555
N3 C9 1_555 1_555
N4 C10 1_555 1_555
N5 C11 1_555 1_555
N6 C12 1_555 1_555
Si1 C25 1_555 1_555
Si2 C28 1_555 1_555
C1 N1 1_555 1_555
C2 C1 1_555 1_555
C3 C2 1_555 1_555
H2 C3 1_555 1_555
C4 C3 1_555 1_555
C5 C4 1_555 1_555
H3 C5 1_555 1_555
C6 C5 1_555 1_555
C7 C6 1_555 1_555
H4 C7 1_555 1_555
C8 N1 1_555 1_555
C9 C2 1_555 1_555
C10 C4 1_555 1_555
C11 C6 1_555 1_555
C12 C6 1_555 1_555
C13 C7 1_555 1_555
C14 C13 1_555 1_555
H5 C14 1_555 1_555
C15 C14 1_555 1_555
H6 C15 1_555 1_555
C16 C15 1_555 1_555
H7 C16 1_555 1_555
C17 C16 1_555 1_555
H8 C17 1_555 1_555
C18 C13 1_555 1_555
H9 C18 1_555 1_555
C19 C5 1_555 1_555
C20 C19 1_555 1_555
H10 C20 1_555 1_555
C21 C20 1_555 1_555
H11 C21 1_555 1_555
C22 C21 1_555 1_555
H12 C22 1_555 1_555
C23 C22 1_555 1_555
H13 C23 1_555 1_555
C24 C19 1_555 1_555
H14 C24 1_555 1_555
C25 C1 1_555 1_555
C26 C25 1_555 1_555
C27 C26 1_555 1_555
C28 C27 1_555 1_555
C29 Si1 1_555 1_555
H15 C29 1_555 1_555
C30 C29 1_555 1_555
H16 C30 1_555 1_555
H17 C30 1_555 1_555
H18 C30 1_555 1_555
C31 C29 1_555 1_555
H19 C31 1_555 1_555
H20 C31 1_555 1_555
H21 C31 1_555 1_555
C32 Si1 1_555 1_555
H22 C32 1_555 1_555
C33 C32 1_555 1_555
H23 C33 1_555 1_555
H24 C33 1_555 1_555
H25 C33 1_555 1_555
C34 C32 1_555 1_555
H26 C34 1_555 1_555
H27 C34 1_555 1_555
H28 C34 1_555 1_555
C35 Si1 1_555 1_555
H29 C35 1_555 1_555
C36 C35 1_555 1_555
H30 C36 1_555 1_555
H31 C36 1_555 1_555
H32 C36 1_555 1_555
C37 C35 1_555 1_555
H33 C37 1_555 1_555
H34 C37 1_555 1_555
H35 C37 1_555 1_555
C38 Si2 1_555 1_555
H36 C38 1_555 1_555
C39 C38 1_555 1_555
H37 C39 1_555 1_555
H38 C39 1_555 1_555
H39 C39 1_555 1_555
C40 C38 1_555 1_555
H40 C40 1_555 1_555
H41 C40 1_555 1_555
H42 C40 1_555 1_555
C41 Si2 1_555 1_555
H43 C41 1_555 1_555
C42 C41 1_555 1_555
H44 C42 1_555 1_555
H45 C42 1_555 1_555
H46 C42 1_555 1_555
C43 C41 1_555 1_555
H47 C43 1_555 1_555
H48 C43 1_555 1_555
H49 C43 1_555 1_555
C44 Si2 1_555 1_555
H50 C44 1_555 1_555
C45 C44 1_555 1_555
H51 C45 1_555 1_555
H52 C45 1_555 1_555
H53 C45 1_555 1_555
C46 C44 1_555 1_555
H54 C46 1_555 1_555
H55 C46 1_555 1_555
H56 C46 1_555 1_555
C47 C3 1_555 1_555
C48 C47 1_555 1_555
H57 C48 1_555 1_555
C49 C48 1_555 1_555
H58 C49 1_555 1_555
C50 C49 1_555 1_555
H59 C50 1_555 1_555
C51 C50 1_555 1_555
H60 C51 1_555 1_555
C52 C47 1_555 1_555
H61 C52 1_555 1_555
N2 C8 1_555 1_555
C4 C8 1_555 1_555
C17 C18 1_555 1_555
C23 C24 1_555 1_555
C51 C52 1_555 1_555

#END
