
#######################################################################
#
#                 Cambridge Crystallographic Data Centre
#                                CCDC 
#
#######################################################################
#
# If this CIF has been generated from an entry in the Cambridge 
# Structural Database, then it will include bibliographic, chemical, 
# crystal, experimental, refinement or atomic coordinate data resulting 
# from the CCDC's data processing and validation procedures.
#
#######################################################################

data_PUBXER
_chemical_formula_moiety         'C52 H47 N1 O1 Si2'
_chemical_name_systematic        
2-(t-Butyl(diphenyl)silyl)-3-((t-butyl(diphenyl)silyl)ethynyl)-9-phenyl-1H-cyclopenta[b]quinolin-1-one
_symmetry_cell_setting           monoclinic
_symmetry_space_group_name_H-M   'P 21/c'
_symmetry_Int_Tables_number      14
_space_group_name_Hall           '-P 2ybc'
loop_
_symmetry_equiv_pos_site_id
_symmetry_equiv_pos_as_xyz
1 x,y,z
2 -x,1/2+y,1/2-z
3 -x,-y,-z
4 x,1/2-y,1/2+z
_cell_length_a                   8.9312(6)
_cell_length_b                   20.1940(14)
_cell_length_c                   24.4574(16)
_cell_angle_alpha                90
_cell_angle_beta                 100.028(2)
_cell_angle_gamma                90
_cell_volume                     4343.67
_exptl_crystal_colour            yellow
_exptl_crystal_description       prismatic
_cell_formula_units_Z            4
loop_
_atom_site_label
_atom_site_type_symbol
_atom_site_fract_x
_atom_site_fract_y
_atom_site_fract_z
Si1 Si 0.14879(6) 0.34736(3) 0.28649(2)
Si2 Si 0.23981(8) 0.16859(3) 0.46601(2)
N1 N -0.05090(18) 0.38477(8) 0.47701(6)
O1 O -0.0642(2) 0.48876(8) 0.30286(6)
C1 C -0.1407(2) 0.42878(11) 0.50023(8)
C2 C -0.1658(3) 0.41427(13) 0.55421(8)
H1 H -0.1197 0.3774 0.5728
C3 C -0.2572(3) 0.45382(15) 0.57930(10)
H2 H -0.2730 0.4442 0.6150
C4 C -0.3262(3) 0.50835(15) 0.55154(10)
H3 H -0.3897 0.5346 0.5688
C5 C -0.3038(2) 0.52473(12) 0.49918(10)
H4 H -0.3512 0.5619 0.4815
C6 C -0.2091(2) 0.48534(11) 0.47209(8)
C7 C -0.1848(2) 0.49877(10) 0.41635(8)
C8 C -0.0942(2) 0.45438(10) 0.39495(7)
C9 C -0.0326(2) 0.39946(9) 0.42669(7)
C10 C -0.0385(2) 0.44951(10) 0.34063(8)
C11 C 0.0547(2) 0.38782(9) 0.34189(7)
C12 C 0.0558(2) 0.35945(9) 0.39260(8)
C13 C 0.1227(2) 0.29875(11) 0.41312(8)
C14 C 0.1733(3) 0.24690(11) 0.43229(9)
C15 C -0.2606(2) 0.55558(10) 0.38438(8)
C16 C -0.3584(2) 0.54463(12) 0.33463(9)
H5 H -0.3732 0.5018 0.3207
C17 C -0.4340(3) 0.59686(14) 0.30564(10)
H6 H -0.4994 0.5890 0.2723
C18 C -0.4133(3) 0.65990(13) 0.32562(11)
H7 H -0.4654 0.6948 0.3060
C19 C -0.3163(3) 0.67189(12) 0.37427(11)
H8 H -0.3015 0.7150 0.3875
C20 C -0.2406(2) 0.62035(11) 0.40376(9)
H9 H -0.1753 0.6289 0.4370
C21 C 0.3397(2) 0.31866(10) 0.32308(8)
C22 C 0.4412(3) 0.36333(13) 0.35256(10)
H10 H 0.4154 0.4080 0.3521
C23 C 0.5780(3) 0.34373(17) 0.38227(13)
H11 H 0.6424 0.3750 0.4019
C24 C 0.6208(3) 0.27959(18) 0.38345(13)
H12 H 0.7141 0.2667 0.4038
C25 C 0.5266(3) 0.23389(14) 0.35464(12)
H13 H 0.5557 0.1896 0.3551
C26 C 0.3879(3) 0.25309(12) 0.32467(10)
H14 H 0.3249 0.2213 0.3050
C27 C 0.0282(2) 0.27413(11) 0.26081(8)
C28 C -0.1108(3) 0.26210(13) 0.27672(10)
H15 H -0.1471 0.2919 0.3003
C29 C -0.1968(3) 0.20715(16) 0.25851(12)
H16 H -0.2904 0.2006 0.2694
C30 C -0.1443(3) 0.16200(15) 0.22430(12)
H17 H -0.2011 0.1243 0.2129
C31 C -0.0111(3) 0.17231(14) 0.20741(11)
H18 H 0.0235 0.1422 0.1837
C32 C 0.0744(3) 0.22762(12) 0.22530(10)
H19 H 0.1664 0.2340 0.2131
C33 C 0.1727(3) 0.40458(12) 0.22695(9)
C34 C 0.2854(3) 0.37188(16) 0.19356(11)
H20 H 0.2438 0.3308 0.1781
H21 H 0.3803 0.3637 0.2178
H22 H 0.3019 0.4009 0.1641
C35 C 0.0201(3) 0.41497(15) 0.18908(10)
H23 H -0.0518 0.4323 0.2103
H24 H -0.0162 0.3734 0.1728
H25 H 0.0322 0.4457 0.1602
C36 C 0.2403(4) 0.47136(14) 0.24752(11)
H26 H 0.2507 0.4987 0.2163
H27 H 0.3384 0.4646 0.2701
H28 H 0.1743 0.4927 0.2691
C37 C 0.4109(3) 0.18894(12) 0.51875(9)
C38 C 0.4795(3) 0.24875(16) 0.51864(15)
H29 H 0.4412 0.2800 0.4919
C39 C 0.6083(4) 0.2641(2) 0.5587(2)
H30 H 0.6527 0.3057 0.5583
C40 C 0.6672(4) 0.2202(3) 0.59678(18)
H31 H 0.7537 0.2307 0.6224
C41 C 0.6029(4) 0.1624(3) 0.59803(15)
H32 H 0.6426 0.1319 0.6252
C42 C 0.4760(4) 0.14603(19) 0.55922(13)
H33 H 0.4335 0.1042 0.5608
C43 C 0.2931(3) 0.11125(11) 0.41242(9)
C44 C 0.4245(4) 0.07377(14) 0.42215(12)
H34 H 0.4880 0.0765 0.4565
C45 C 0.4638(5) 0.03221(17) 0.38184(16)
H35 H 0.5529 0.0075 0.3892
C46 C 0.3713(6) 0.02767(17) 0.33141(16)
H36 H 0.3965 -0.0008 0.3046
C47 C 0.2431(4) 0.06431(16) 0.32021(12)
H37 H 0.1813 0.0613 0.2855
C48 C 0.2034(3) 0.10607(13) 0.35990(10)
H38 H 0.1152 0.1313 0.3515
C49 C 0.0755(3) 0.13704(13) 0.49748(10)
C50 C 0.0343(4) 0.18864(17) 0.53849(13)
H39 H -0.0443 0.1713 0.5567
H40 H -0.0013 0.2283 0.5187
H41 H 0.1225 0.1986 0.5657
C51 C 0.1150(4) 0.07160(14) 0.52811(12)
H42 H 0.1939 0.0790 0.5596
H43 H 0.1496 0.0403 0.5035
H44 H 0.0264 0.0545 0.5405
C52 C -0.0622(3) 0.12490(18) 0.45142(13)
H45 H -0.0383 0.0907 0.4271
H46 H -0.0867 0.1650 0.4307
H47 H -0.1477 0.1115 0.4677
loop_
_geom_bond_atom_site_label_1
_geom_bond_atom_site_label_2
_geom_bond_site_symmetry_1
_geom_bond_site_symmetry_2
Si1 C11 1_555 1_555
Si2 C14 1_555 1_555
N1 C1 1_555 1_555
O1 C10 1_555 1_555
C1 C2 1_555 1_555
C2 H1 1_555 1_555
C3 C2 1_555 1_555
H2 C3 1_555 1_555
C4 C3 1_555 1_555
H3 C4 1_555 1_555
C5 C4 1_555 1_555
H4 C5 1_555 1_555
C6 C1 1_555 1_555
C7 C6 1_555 1_555
C8 C7 1_555 1_555
C9 N1 1_555 1_555
C10 C8 1_555 1_555
C11 C10 1_555 1_555
C12 C9 1_555 1_555
C13 C12 1_555 1_555
C14 C13 1_555 1_555
C15 C7 1_555 1_555
C16 C15 1_555 1_555
H5 C16 1_555 1_555
C17 C16 1_555 1_555
H6 C17 1_555 1_555
C18 C17 1_555 1_555
H7 C18 1_555 1_555
C19 C18 1_555 1_555
H8 C19 1_555 1_555
C20 C15 1_555 1_555
H9 C20 1_555 1_555
C21 Si1 1_555 1_555
C22 C21 1_555 1_555
H10 C22 1_555 1_555
C23 C22 1_555 1_555
H11 C23 1_555 1_555
C24 C23 1_555 1_555
H12 C24 1_555 1_555
C25 C24 1_555 1_555
H13 C25 1_555 1_555
C26 C21 1_555 1_555
H14 C26 1_555 1_555
C27 Si1 1_555 1_555
C28 C27 1_555 1_555
H15 C28 1_555 1_555
C29 C28 1_555 1_555
H16 C29 1_555 1_555
C30 C29 1_555 1_555
H17 C30 1_555 1_555
C31 C30 1_555 1_555
H18 C31 1_555 1_555
C32 C27 1_555 1_555
H19 C32 1_555 1_555
C33 Si1 1_555 1_555
C34 C33 1_555 1_555
H20 C34 1_555 1_555
H21 C34 1_555 1_555
H22 C34 1_555 1_555
C35 C33 1_555 1_555
H23 C35 1_555 1_555
H24 C35 1_555 1_555
H25 C35 1_555 1_555
C36 C33 1_555 1_555
H26 C36 1_555 1_555
H27 C36 1_555 1_555
H28 C36 1_555 1_555
C37 Si2 1_555 1_555
C38 C37 1_555 1_555
H29 C38 1_555 1_555
C39 C38 1_555 1_555
H30 C39 1_555 1_555
C40 C39 1_555 1_555
H31 C40 1_555 1_555
C41 C40 1_555 1_555
H32 C41 1_555 1_555
C42 C37 1_555 1_555
H33 C42 1_555 1_555
C43 Si2 1_555 1_555
C44 C43 1_555 1_555
H34 C44 1_555 1_555
C45 C44 1_555 1_555
H35 C45 1_555 1_555
C46 C45 1_555 1_555
H36 C46 1_555 1_555
C47 C46 1_555 1_555
H37 C47 1_555 1_555
C48 C43 1_555 1_555
H38 C48 1_555 1_555
C49 Si2 1_555 1_555
C50 C49 1_555 1_555
H39 C50 1_555 1_555
H40 C50 1_555 1_555
H41 C50 1_555 1_555
C51 C49 1_555 1_555
H42 C51 1_555 1_555
H43 C51 1_555 1_555
H44 C51 1_555 1_555
C52 C49 1_555 1_555
H45 C52 1_555 1_555
H46 C52 1_555 1_555
H47 C52 1_555 1_555
C5 C6 1_555 1_555
C8 C9 1_555 1_555
C11 C12 1_555 1_555
C19 C20 1_555 1_555
C25 C26 1_555 1_555
C31 C32 1_555 1_555
C41 C42 1_555 1_555
C47 C48 1_555 1_555

#END
