
#######################################################################
#
#                 Cambridge Crystallographic Data Centre
#                                CCDC 
#
#######################################################################
#
# If this CIF has been generated from an entry in the Cambridge 
# Structural Database, then it will include bibliographic, chemical, 
# crystal, experimental, refinement or atomic coordinate data resulting 
# from the CCDC's data processing and validation procedures.
#
#######################################################################

data_PUBYOA
_chemical_formula_moiety         'C32 H40 S16 1+,Br1 1-,C2 H6 O1'
_chemical_name_systematic        
'2,8,10,16,17,23,24,30-Octathia-1(2,7,6,3) ditetrathiafulvalenatricyclo(7.7.7.7)triacontaphane bromide ethanol solvate'
_symmetry_cell_setting           monoclinic
_symmetry_space_group_name_H-M   'P 21/n'
_symmetry_Int_Tables_number      14
_space_group_name_Hall           '-P 2yn'
loop_
_symmetry_equiv_pos_site_id
_symmetry_equiv_pos_as_xyz
1 x,y,z
2 1/2-x,1/2+y,1/2-z
3 -x,-y,-z
4 1/2+x,1/2-y,1/2+z
_cell_length_a                   16.944(6)
_cell_length_b                   14.257(6)
_cell_length_c                   19.719(4)
_cell_angle_alpha                90
_cell_angle_beta                 102.97(2)
_cell_angle_gamma                90
_cell_volume                     4642
_cell_formula_units_Z            4
loop_
_atom_site_label
_atom_site_type_symbol
_atom_site_fract_x
_atom_site_fract_y
_atom_site_fract_z
Br1 Br 0.7637(1) 0.4433(2) 1.2103(1)
S1 S 0.8014(2) 1.0379(3) 0.9360(2)
C1 C 0.7184(8) 1.0232(10) 0.9817(8)
C2 C 0.6706(9) 0.936(1) 0.9647(7)
C3 C 0.6021(8) 0.932(1) 1.0040(7)
C4 C 0.6319(8) 0.892(1) 1.0795(7)
C5 C 0.5688(9) 0.898(1) 1.1244(7)
S2 S 0.4749(2) 0.8271(2) 1.0888(2)
C6 C 0.5154(7) 0.7161(9) 1.0879(6)
S3 S 0.5343(2) 0.6772(2) 1.0086(2)
C7 C 0.5736(7) 0.5692(8) 1.0383(6)
S4 S 0.5749(2) 0.5463(2) 1.1241(2)
C8 C 0.5355(7) 0.6524(9) 1.1413(6)
S5 S 0.5130(2) 0.6722(3) 1.2219(2)
C9 C 0.6001(8) 0.624(1) 1.2801(6)
C10 C 0.6793(9) 0.675(1) 1.2829(7)
C11 C 0.7425(10) 0.628(1) 1.3424(9)
C12 C 0.821(1) 0.676(2) 1.3610(10)
C13 C 0.855(1) 0.684(2) 1.3000(8)
S6 S 0.9759(3) 0.7056(4) 1.3328(2)
C14 C 0.9976(8) 0.726(1) 1.2520(6)
S7 S 0.9658(2) 0.8362(3) 1.2140(2)
C15 C 0.9919(7) 0.8089(9) 1.1344(6)
S8 S 1.0568(2) 0.7136(3) 1.1393(2)
C16 C 1.0379(7) 0.6710(10) 1.2180(6)
S9 S 1.0870(2) 0.5651(3) 1.2491(2)
C17 C 1.014(1) 0.472(1) 1.2154(9)
C18 C 0.9876(9) 0.464(1) 1.1352(8)
C19 C 0.9366(9) 0.374(1) 1.1199(8)
C20 C 0.8844(9) 0.373(1) 1.0449(8)
C21 C 0.8283(8) 0.293(1) 1.0401(8)
S10 S 0.7538(2) 0.2819(3) 0.9583(2)
C22 C 0.6977(7) 0.385(1) 0.9591(7)
S11 S 0.6553(2) 0.4073(2) 1.0302(2)
C23 C 0.6119(7) 0.5112(8) 0.9999(6)
S12 S 0.6156(2) 0.5373(2) 0.9150(2)
C24 C 0.6777(7) 0.4460(10) 0.9046(7)
S13 S 0.7141(3) 0.4294(3) 0.8299(2)
C25 C 0.693(1) 0.542(1) 0.7864(7)
C26 C 0.7540(10) 0.615(1) 0.8237(8)
C27 C 0.724(1) 0.705(1) 0.792(1)
C28 C 0.7750(8) 0.795(1) 0.8319(9)
C29 C 0.8636(8) 0.788(1) 0.8295(7)
S14 S 0.9141(2) 0.8990(3) 0.8566(2)
C30 C 0.9182(6) 0.9019(8) 0.9461(6)
S15 S 0.9946(2) 0.8348(2) 0.9985(2)
C31 C 0.9652(7) 0.8590(9) 1.0770(6)
S16 S 0.8986(2) 0.9552(2) 1.0695(2)
C32 C 0.8737(6) 0.9558(8) 0.9775(6)
C33 C 0.778(2) 0.669(2) 1.103(1)
C34 C 0.7996(8) 0.688(1) 1.0314(7)
O1 O 0.7860(10) 0.572(1) 1.114(1)
loop_
_geom_bond_atom_site_label_1
_geom_bond_atom_site_label_2
_geom_bond_site_symmetry_1
_geom_bond_site_symmetry_2
S1 C1 1_555 1_555
C1 C2 1_555 1_555
C2 C3 1_555 1_555
C3 C4 1_555 1_555
C4 C5 1_555 1_555
C5 S2 1_555 1_555
S2 C6 1_555 1_555
C6 S3 1_555 1_555
S3 C7 1_555 1_555
C7 S4 1_555 1_555
S4 C8 1_555 1_555
C8 C6 1_555 1_555
S5 C8 1_555 1_555
C9 S5 1_555 1_555
C10 C9 1_555 1_555
C11 C10 1_555 1_555
C12 C11 1_555 1_555
C13 C12 1_555 1_555
S6 C13 1_555 1_555
C14 S6 1_555 1_555
S7 C14 1_555 1_555
C15 S7 1_555 1_555
S8 C15 1_555 1_555
C16 C14 1_555 1_555
S9 C16 1_555 1_555
C17 S9 1_555 1_555
C18 C17 1_555 1_555
C19 C18 1_555 1_555
C20 C19 1_555 1_555
C21 C20 1_555 1_555
S10 C21 1_555 1_555
C22 S10 1_555 1_555
S11 C22 1_555 1_555
C23 C7 1_555 1_555
S12 C23 1_555 1_555
C24 C22 1_555 1_555
S13 C24 1_555 1_555
C25 S13 1_555 1_555
C26 C25 1_555 1_555
C27 C26 1_555 1_555
C28 C27 1_555 1_555
C29 C28 1_555 1_555
S14 C29 1_555 1_555
C30 S14 1_555 1_555
S15 C30 1_555 1_555
C31 C15 1_555 1_555
S16 C31 1_555 1_555
C32 S1 1_555 1_555
C33 C34 1_555 1_555
O1 C33 1_555 1_555
S8 C16 1_555 1_555
S11 C23 1_555 1_555
S12 C24 1_555 1_555
C30 C32 1_555 1_555
S15 C31 1_555 1_555
S16 C32 1_555 1_555

#END
