
#######################################################################
#
#                 Cambridge Crystallographic Data Centre
#                                CCDC 
#
#######################################################################
#
# If this CIF has been generated from an entry in the Cambridge 
# Structural Database, then it will include bibliographic, chemical, 
# crystal, experimental, refinement or atomic coordinate data resulting 
# from the CCDC's data processing and validation procedures.
#
#######################################################################

data_PUBYAO
_chemical_formula_moiety         'C56 H52 N4 Si2'
_chemical_name_systematic        
5-Amino-6-(t-butyl(diphenyl)silyl)-7-((t-butyl(diphenyl)silyl)ethynyl)-2,4-diphenyl-2,4-dihydro-3H-cyclopenta[b]pyridine-3,3-dicarbonitrile
_symmetry_cell_setting           triclinic
_symmetry_space_group_name_H-M   'P -1'
_symmetry_Int_Tables_number      2
_space_group_name_Hall           '-P 1'
loop_
_symmetry_equiv_pos_site_id
_symmetry_equiv_pos_as_xyz
1 x,y,z
2 -x,-y,-z
_cell_length_a                   10.645(4)
_cell_length_b                   12.392(5)
_cell_length_c                   18.804(7)
_cell_angle_alpha                87.698(6)
_cell_angle_beta                 79.486(6)
_cell_angle_gamma                70.923(6)
_cell_volume                     2304.4
_exptl_crystal_colour            red
_exptl_crystal_description       plate
_cell_formula_units_Z            2
loop_
_atom_site_label
_atom_site_type_symbol
_atom_site_fract_x
_atom_site_fract_y
_atom_site_fract_z
Si1 Si 0.20553(16) 0.15942(13) 0.25951(9)
Si2 Si 0.39048(16) 0.53330(13) 0.34699(8)
N1 N -0.0900(5) 0.8063(4) 0.2347(3)
N2 N -0.0722(5) 0.8823(4) 0.0115(3)
N3 N 0.1263(4) 0.5365(4) 0.1353(2)
N4 N 0.3795(5) 0.7410(4) 0.2226(2)
H1 H 0.3671 0.8030 0.1966
H2 H 0.4277 0.7309 0.2572
C1 C 0.1925(5) 0.7548(4) 0.1068(3)
H3 H 0.1788 0.8307 0.1290
C2 C 0.0485(5) 0.7449(5) 0.1052(3)
C3 C 0.0599(5) 0.6186(4) 0.0854(3)
H4 H 0.1158 0.5989 0.0360
C4 C 0.2084(6) 0.5631(4) 0.1655(3)
C5 C 0.2737(5) 0.4953(4) 0.2260(3)
C6 C 0.3354(5) 0.5562(4) 0.2553(3)
C7 C 0.3245(5) 0.6616(4) 0.2097(3)
C8 C 0.2478(5) 0.6638(4) 0.1590(3)
C9 C -0.0336(6) 0.7792(5) 0.1784(3)
C10 C -0.0194(6) 0.8242(5) 0.0526(3)
C11 C 0.2778(5) 0.7475(4) 0.0318(3)
C12 C 0.2694(6) 0.8503(5) -0.0044(3)
H5 H 0.2078 0.9200 0.0173
C13 C 0.3481(7) 0.8517(6) -0.0700(3)
H6 H 0.3405 0.9223 -0.0936
C14 C 0.4395(7) 0.7511(6) -0.1029(3)
H7 H 0.4996 0.7519 -0.1468
C15 C 0.4397(6) 0.6483(5) -0.0688(3)
H8 H 0.4938 0.5777 -0.0923
C16 C 0.3625(5) 0.6484(5) -0.0017(3)
H9 H 0.3685 0.5780 0.0217
C17 C -0.0800(5) 0.6099(4) 0.0833(3)
C18 C -0.1543(5) 0.5821(5) 0.1453(3)
H10 H -0.1196 0.5678 0.1891
C19 C -0.2824(6) 0.5756(5) 0.1420(3)
H11 H -0.3332 0.5532 0.1834
C20 C -0.3351(6) 0.6012(5) 0.0797(4)
H12 H -0.4243 0.6013 0.0792
C21 C -0.2591(6) 0.6266(5) 0.0177(3)
H13 H -0.2941 0.6408 -0.0260
C22 C -0.1311(5) 0.6314(5) 0.0195(3)
H14 H -0.0786 0.6493 -0.0229
C23 C 0.2568(5) 0.3879(5) 0.2437(3)
C24 C 0.2376(6) 0.2955(5) 0.2513(3)
C25 C 0.0390(7) 0.1848(5) 0.2288(4)
C26 C 0.0094(7) 0.0746(6) 0.2200(4)
H15 H -0.0703 0.0907 0.1970
H16 H -0.0080 0.0418 0.2676
H17 H 0.0873 0.0202 0.1896
C27 C 0.0300(8) 0.2513(6) 0.1600(4)
H18 H 0.1063 0.2117 0.1223
H19 H 0.0328 0.3278 0.1687
H20 H -0.0549 0.2576 0.1443
C28 C -0.0709(7) 0.2628(7) 0.2887(4)
H21 H -0.1583 0.2880 0.2725
H22 H -0.0457 0.3295 0.2979
H23 H -0.0778 0.2197 0.3333
C29 C 0.3527(6) 0.0478(5) 0.2054(3)
C30 C 0.4628(6) -0.0069(5) 0.2377(3)
H24 H 0.4583 0.0115 0.2869
C31 C 0.5802(6) -0.0877(5) 0.2019(4)
H25 H 0.6540 -0.1230 0.2259
C32 C 0.5866(7) -0.1149(5) 0.1316(4)
H26 H 0.6663 -0.1693 0.1064
C33 C 0.4792(6) -0.0651(5) 0.0957(3)
H27 H 0.4830 -0.0860 0.0471
C34 C 0.3633(6) 0.0184(5) 0.1345(3)
H28 H 0.2901 0.0554 0.1103
C35 C 0.1979(6) 0.1174(5) 0.3564(3)
C36 C 0.2227(7) 0.1842(7) 0.4054(4)
H29 H 0.2455 0.2502 0.3893
C37 C 0.2149(8) 0.1569(7) 0.4770(4)
H30 H 0.2278 0.2067 0.5100
C38 C 0.1893(8) 0.0610(7) 0.5019(4)
H31 H 0.1869 0.0424 0.5515
C39 C 0.1665(8) -0.0101(7) 0.4538(4)
H32 H 0.1475 -0.0777 0.4699
C40 C 0.1721(8) 0.0202(6) 0.3816(4)
H33 H 0.1575 -0.0285 0.3484
C41 C 0.2282(6) 0.5956(5) 0.4138(3)
C42 C 0.1456(6) 0.5145(6) 0.4244(3)
H34 H 0.1929 0.4461 0.4490
H35 H 0.1340 0.4925 0.3771
H36 H 0.0569 0.5527 0.4538
C43 C 0.1397(6) 0.7076(5) 0.3856(3)
H37 H 0.1057 0.6908 0.3437
H38 H 0.1935 0.7582 0.3712
H39 H 0.0633 0.7451 0.4238
C44 C 0.2537(7) 0.6194(6) 0.4883(3)
H40 H 0.1678 0.6624 0.5187
H41 H 0.3155 0.6642 0.4827
H42 H 0.2940 0.5469 0.5112
C45 C 0.5191(6) 0.6032(5) 0.3549(3)
C46 C 0.4864(7) 0.7192(5) 0.3721(3)
H43 H 0.3942 0.7659 0.3805
C47 C 0.5859(8) 0.7685(6) 0.3774(4)
H44 H 0.5609 0.8469 0.3904
C48 C 0.7201(8) 0.7020(7) 0.3636(4)
H45 H 0.7879 0.7354 0.3659
C49 C 0.7562(8) 0.5894(7) 0.3466(4)
H46 H 0.8489 0.5440 0.3379
C50 C 0.6566(7) 0.5396(6) 0.3419(3)
H47 H 0.6835 0.4607 0.3296
C51 C 0.4779(6) 0.3744(5) 0.3541(3)
C52 C 0.4822(7) 0.3224(5) 0.4220(3)
H48 H 0.4410 0.3661 0.4654
C53 C 0.5494(7) 0.2037(6) 0.4240(4)
H49 H 0.5496 0.1664 0.4691
C54 C 0.6143(7) 0.1417(6) 0.3615(4)
H50 H 0.6602 0.0621 0.3637
C55 C 0.6133(6) 0.1939(5) 0.2956(3)
H51 H 0.6580 0.1507 0.2523
C56 C 0.5463(6) 0.3105(5) 0.2929(3)
H52 H 0.5481 0.3467 0.2474
loop_
_geom_bond_atom_site_label_1
_geom_bond_atom_site_label_2
_geom_bond_site_symmetry_1
_geom_bond_site_symmetry_2
Si1 C24 1_555 1_555
Si2 C6 1_555 1_555
N1 C9 1_555 1_555
N2 C10 1_555 1_555
N3 C3 1_555 1_555
N4 H1 1_555 1_555
H2 N4 1_555 1_555
C1 H3 1_555 1_555
C2 C1 1_555 1_555
C3 C2 1_555 1_555
H4 C3 1_555 1_555
C4 N3 1_555 1_555
C5 C4 1_555 1_555
C6 C5 1_555 1_555
C7 N4 1_555 1_555
C8 C1 1_555 1_555
C9 C2 1_555 1_555
C10 C2 1_555 1_555
C11 C1 1_555 1_555
C12 C11 1_555 1_555
H5 C12 1_555 1_555
C13 C12 1_555 1_555
H6 C13 1_555 1_555
C14 C13 1_555 1_555
H7 C14 1_555 1_555
C15 C14 1_555 1_555
H8 C15 1_555 1_555
C16 C11 1_555 1_555
H9 C16 1_555 1_555
C17 C3 1_555 1_555
C18 C17 1_555 1_555
H10 C18 1_555 1_555
C19 C18 1_555 1_555
H11 C19 1_555 1_555
C20 C19 1_555 1_555
H12 C20 1_555 1_555
C21 C20 1_555 1_555
H13 C21 1_555 1_555
C22 C17 1_555 1_555
H14 C22 1_555 1_555
C23 C5 1_555 1_555
C24 C23 1_555 1_555
C25 Si1 1_555 1_555
C26 C25 1_555 1_555
H15 C26 1_555 1_555
H16 C26 1_555 1_555
H17 C26 1_555 1_555
C27 C25 1_555 1_555
H18 C27 1_555 1_555
H19 C27 1_555 1_555
H20 C27 1_555 1_555
C28 C25 1_555 1_555
H21 C28 1_555 1_555
H22 C28 1_555 1_555
H23 C28 1_555 1_555
C29 Si1 1_555 1_555
C30 C29 1_555 1_555
H24 C30 1_555 1_555
C31 C30 1_555 1_555
H25 C31 1_555 1_555
C32 C31 1_555 1_555
H26 C32 1_555 1_555
C33 C32 1_555 1_555
H27 C33 1_555 1_555
C34 C29 1_555 1_555
H28 C34 1_555 1_555
C35 Si1 1_555 1_555
C36 C35 1_555 1_555
H29 C36 1_555 1_555
C37 C36 1_555 1_555
H30 C37 1_555 1_555
C38 C37 1_555 1_555
H31 C38 1_555 1_555
C39 C38 1_555 1_555
H32 C39 1_555 1_555
C40 C35 1_555 1_555
H33 C40 1_555 1_555
C41 Si2 1_555 1_555
C42 C41 1_555 1_555
H34 C42 1_555 1_555
H35 C42 1_555 1_555
H36 C42 1_555 1_555
C43 C41 1_555 1_555
H37 C43 1_555 1_555
H38 C43 1_555 1_555
H39 C43 1_555 1_555
C44 C41 1_555 1_555
H40 C44 1_555 1_555
H41 C44 1_555 1_555
H42 C44 1_555 1_555
C45 Si2 1_555 1_555
C46 C45 1_555 1_555
H43 C46 1_555 1_555
C47 C46 1_555 1_555
H44 C47 1_555 1_555
C48 C47 1_555 1_555
H45 C48 1_555 1_555
C49 C48 1_555 1_555
H46 C49 1_555 1_555
C50 C45 1_555 1_555
H47 C50 1_555 1_555
C51 Si2 1_555 1_555
C52 C51 1_555 1_555
H48 C52 1_555 1_555
C53 C52 1_555 1_555
H49 C53 1_555 1_555
C54 C53 1_555 1_555
H50 C54 1_555 1_555
C55 C54 1_555 1_555
H51 C55 1_555 1_555
C56 C51 1_555 1_555
H52 C56 1_555 1_555
C4 C8 1_555 1_555
C6 C7 1_555 1_555
C7 C8 1_555 1_555
C15 C16 1_555 1_555
C21 C22 1_555 1_555
C33 C34 1_555 1_555
C39 C40 1_555 1_555
C49 C50 1_555 1_555
C55 C56 1_555 1_555

#END
