
#######################################################################
#
#                 Cambridge Crystallographic Data Centre
#                                CCDC 
#
#######################################################################
#
# If this CIF has been generated from an entry in the Cambridge 
# Structural Database, then it will include bibliographic, chemical, 
# crystal, experimental, refinement or atomic coordinate data resulting 
# from the CCDC's data processing and validation procedures.
#
#######################################################################

data_PUCJEE
_chemical_formula_moiety         'C23 H23 N3 O3,H2 O1'
_chemical_name_systematic        
"9-Hydroxy-7a-(2-methylbut-3-en-2-yl)-7,7a,12,12a-tetrahydroindolo[3',2':4,5]pyrrolo[2,1-c][1,4]benzodiazepine-6,14(5H,6aH)-dione monohydrate"
_symmetry_cell_setting           orthorhombic
_symmetry_space_group_name_H-M   'P 21 21 21'
_symmetry_Int_Tables_number      19
_space_group_name_Hall           'P 2ac 2ab'
loop_
_symmetry_equiv_pos_site_id
_symmetry_equiv_pos_as_xyz
1 x,y,z
2 1/2-x,-y,1/2+z
3 1/2+x,1/2-y,-z
4 -x,1/2+y,1/2-z
_cell_length_a                   8.82241(18)
_cell_length_b                   11.1338(2)
_cell_length_c                   20.4525(4)
_cell_angle_alpha                90
_cell_angle_beta                 90
_cell_angle_gamma                90
_cell_volume                     2008.99
_exptl_crystal_colour            brown
_exptl_crystal_description       block
_cell_formula_units_Z            4
loop_
_atom_site_label
_atom_site_type_symbol
_atom_site_fract_x
_atom_site_fract_y
_atom_site_fract_z
O1 O 0.13510(15) 0.69244(15) 0.90676(7)
O2 O 0.65821(15) 0.90870(12) 0.92587(6)
O3 O 0.61019(17) 0.77359(15) 0.56577(7)
H1 H 0.5293 0.7416 0.5565
N1 N 0.35111(17) 0.63917(14) 0.95685(7)
H2 H 0.2988 0.6197 0.9907
N2 N 0.46458(16) 0.82919(13) 0.86784(7)
N3 N 0.56060(18) 1.00032(14) 0.80531(7)
H3 H 0.631(2) 1.004(2) 0.8325(9)
C1 C 0.5087(2) 0.61873(16) 0.96089(8)
C2 C 0.5570(3) 0.51584(18) 0.99327(10)
H4 H 0.4858 0.4639 1.0113
C3 C 0.7094(3) 0.48980(19) 0.99903(11)
H5 H 0.7400 0.4213 1.0214
C4 C 0.8163(3) 0.5647(2) 0.97186(10)
H6 H 0.9186 0.5448 0.9738
C5 C 0.7711(2) 0.66911(19) 0.94190(9)
H7 H 0.8438 0.7208 0.9248
C6 C 0.6169(2) 0.69921(16) 0.93668(8)
C7 C 0.57934(19) 0.81989(16) 0.91004(7)
C8 C 0.36877(19) 0.72648(15) 0.84794(8)
H8 H 0.4328 0.6601 0.8329
C9 C 0.2725(2) 0.68579(16) 0.90599(8)
C10 C 0.2723(2) 0.77296(17) 0.79131(9)
H9 H 0.1670 0.7792 0.8045
H10 H 0.2787 0.7186 0.7544
C11 C 0.33447(19) 0.89751(15) 0.77249(8)
C12 C 0.42820(19) 0.94212(16) 0.83238(8)
H11 H 0.3692 0.9973 0.8597
C13 C 0.58853(19) 0.94633(15) 0.74433(8)
C14 C 0.7204(2) 0.95027(17) 0.70801(9)
H12 H 0.8054 0.9905 0.7235
C15 C 0.7230(2) 0.89257(18) 0.64762(10)
H13 H 0.8103 0.8952 0.6222
C16 C 0.5972(2) 0.83154(18) 0.62517(9)
C17 C 0.4643(2) 0.82820(17) 0.66213(9)
H14 H 0.3797 0.7868 0.6470
C18 C 0.46028(19) 0.88736(16) 0.72152(8)
C19 C 0.2055(2) 0.98889(18) 0.75212(9)
C20 C 0.1200(2) 0.9397(2) 0.69259(10)
H15 H 0.1908 0.9224 0.6582
H16 H 0.0481 0.9983 0.6777
H17 H 0.0676 0.8674 0.7046
C21 C 0.2732(2) 1.11030(19) 0.73320(11)
H18 H 0.3305 1.1417 0.7693
H19 H 0.1930 1.1651 0.7224
H20 H 0.3385 1.1004 0.6961
C22 C 0.0934(2) 1.0036(2) 0.80750(11)
H21 H 0.0538 0.9326 0.8242
C23 C 0.0457(4) 1.0993(3) 0.83444(15)
H22 H 0.0805 1.1736 0.8201
H23 H -0.0241 1.0950 0.8684
O4 O 0.6515(3) 1.15555(19) 0.96911(12)
H24 H 0.7203 1.1700 0.9971
H25 H 0.625(5) 1.090(3) 0.952(2)
loop_
_geom_bond_atom_site_label_1
_geom_bond_atom_site_label_2
_geom_bond_site_symmetry_1
_geom_bond_site_symmetry_2
O1 C9 1_555 1_555
O2 C7 1_555 1_555
O3 H1 1_555 1_555
N1 H2 1_555 1_555
N2 C7 1_555 1_555
N3 H3 1_555 1_555
C1 N1 1_555 1_555
C2 C1 1_555 1_555
H4 C2 1_555 1_555
C3 C2 1_555 1_555
H5 C3 1_555 1_555
C4 C3 1_555 1_555
H6 C4 1_555 1_555
C5 C4 1_555 1_555
H7 C5 1_555 1_555
C6 C1 1_555 1_555
C7 C6 1_555 1_555
C8 N2 1_555 1_555
H8 C8 1_555 1_555
C9 N1 1_555 1_555
C10 C8 1_555 1_555
H9 C10 1_555 1_555
H10 C10 1_555 1_555
C11 C10 1_555 1_555
C12 N2 1_555 1_555
H11 C12 1_555 1_555
C13 N3 1_555 1_555
C14 C13 1_555 1_555
H12 C14 1_555 1_555
C15 C14 1_555 1_555
H13 C15 1_555 1_555
C16 O3 1_555 1_555
C17 C16 1_555 1_555
H14 C17 1_555 1_555
C18 C11 1_555 1_555
C19 C11 1_555 1_555
C20 C19 1_555 1_555
H15 C20 1_555 1_555
H16 C20 1_555 1_555
H17 C20 1_555 1_555
C21 C19 1_555 1_555
H18 C21 1_555 1_555
H19 C21 1_555 1_555
H20 C21 1_555 1_555
C22 C19 1_555 1_555
H21 C22 1_555 1_555
C23 C22 1_555 1_555
H22 C23 1_555 1_555
H23 C23 1_555 1_555
O4 H24 1_555 1_555
H25 O4 1_555 1_555
N3 C12 1_555 1_555
C5 C6 1_555 1_555
C8 C9 1_555 1_555
C11 C12 1_555 1_555
C13 C18 1_555 1_555
C15 C16 1_555 1_555
C17 C18 1_555 1_555

#END
