
#######################################################################
#
#                 Cambridge Crystallographic Data Centre
#                                CCDC 
#
#######################################################################
#
# If this CIF has been generated from an entry in the Cambridge 
# Structural Database, then it will include bibliographic, chemical, 
# crystal, experimental, refinement or atomic coordinate data resulting 
# from the CCDC's data processing and validation procedures.
#
#######################################################################

data_PUCNUY
_chemical_formula_moiety         'C20 H16 O2'
_chemical_name_systematic        
2-Hydroxy-1-propyl-7H-benzo[de]anthracen-7-one
_symmetry_cell_setting           monoclinic
_symmetry_space_group_name_H-M   'P 21/c'
_symmetry_Int_Tables_number      14
_space_group_name_Hall           '-P 2ybc'
loop_
_symmetry_equiv_pos_site_id
_symmetry_equiv_pos_as_xyz
1 x,y,z
2 -x,1/2+y,1/2-z
3 -x,-y,-z
4 x,1/2-y,1/2+z
_cell_length_a                   9.275(2)
_cell_length_b                   18.499(4)
_cell_length_c                   8.4499(19)
_cell_angle_alpha                90
_cell_angle_beta                 97.966(8)
_cell_angle_gamma                90
_cell_volume                     1435.83
_exptl_crystal_colour            yellow
_exptl_crystal_description       plate
_chemical_melting_point          '493 K'
_cell_formula_units_Z            4
loop_
_atom_site_label
_atom_site_type_symbol
_atom_site_fract_x
_atom_site_fract_y
_atom_site_fract_z
O1 O 0.3175(2) 0.01852(9) 0.8081(3)
C1 C 0.2719(2) 0.14419(12) 0.8206(3)
O2 O 0.4785(2) 0.42264(9) 0.7800(2)
C2 C 0.3604(3) 0.08665(12) 0.7742(3)
C3 C 0.4787(3) 0.09942(12) 0.7008(3)
H1 H 0.5312 0.0607 0.6677
C4 C 0.5231(2) 0.17032(12) 0.6741(3)
C5 C 0.6497(3) 0.18473(14) 0.6042(3)
H2 H 0.7027 0.1463 0.5708
C6 C 0.6961(3) 0.25337(14) 0.5845(3)
H3 H 0.7787 0.2616 0.5360
C7 C 0.4947(2) 0.30024(12) 0.7051(3)
C8 C 0.6201(3) 0.31096(14) 0.6370(3)
H4 H 0.6540 0.3578 0.6261
C9 C 0.2800(3) 0.34906(12) 0.8212(3)
C10 C 0.4233(3) 0.36170(13) 0.7704(3)
C11 C 0.1998(3) 0.40895(13) 0.8587(3)
H5 H 0.2442 0.4541 0.8679
C12 C 0.0575(3) 0.40275(14) 0.8821(3)
H6 H 0.0062 0.4427 0.9111
C13 C -0.0085(3) 0.33587(13) 0.8618(3)
H7 H -0.1070 0.3314 0.8701
C14 C 0.4394(2) 0.22930(12) 0.7205(3)
C15 C 0.3074(2) 0.21551(12) 0.7851(3)
C16 C 0.2185(3) 0.27924(12) 0.8151(3)
C17 C 0.0695(3) 0.27559(12) 0.8292(3)
H8 H 0.0222 0.2312 0.8162
C18 C 0.1528(3) 0.12229(12) 0.9146(3)
H9 H 0.1259 0.1641 0.9733
H10 H 0.1913 0.0862 0.9924
C19 C 0.0153(3) 0.09194(13) 0.8162(3)
H11 H -0.0158 0.1245 0.7281
H12 H 0.0380 0.0457 0.7715
C20 C -0.1091(3) 0.08188(15) 0.9139(3)
H13 H -0.0755 0.0547 1.0086
H14 H -0.1872 0.0563 0.8514
H15 H -0.1432 0.1283 0.9434
H16 H 0.381(4) -0.0129(18) 0.784(4)
loop_
_geom_bond_atom_site_label_1
_geom_bond_atom_site_label_2
_geom_bond_site_symmetry_1
_geom_bond_site_symmetry_2
O1 C2 1_555 1_555
C1 C2 1_555 1_555
O2 C10 1_555 1_555
C2 C3 1_555 1_555
C3 H1 1_555 1_555
C4 C3 1_555 1_555
C5 C4 1_555 1_555
H2 C5 1_555 1_555
C6 C5 1_555 1_555
H3 C6 1_555 1_555
C7 C8 1_555 1_555
C8 C6 1_555 1_555
H4 C8 1_555 1_555
C9 C10 1_555 1_555
C10 C7 1_555 1_555
C11 C9 1_555 1_555
H5 C11 1_555 1_555
C12 C11 1_555 1_555
H6 C12 1_555 1_555
C13 C12 1_555 1_555
H7 C13 1_555 1_555
C14 C4 1_555 1_555
C15 C1 1_555 1_555
C16 C9 1_555 1_555
C17 C13 1_555 1_555
H8 C17 1_555 1_555
C18 C1 1_555 1_555
H9 C18 1_555 1_555
H10 C18 1_555 1_555
C19 C18 1_555 1_555
H11 C19 1_555 1_555
H12 C19 1_555 1_555
C20 C19 1_555 1_555
H13 C20 1_555 1_555
H14 C20 1_555 1_555
H15 C20 1_555 1_555
H16 O1 1_555 1_555
C7 C14 1_555 1_555
C14 C15 1_555 1_555
C15 C16 1_555 1_555
C16 C17 1_555 1_555

#END
