
#######################################################################
#
#                 Cambridge Crystallographic Data Centre
#                                CCDC 
#
#######################################################################
#
# If this CIF has been generated from an entry in the Cambridge 
# Structural Database, then it will include bibliographic, chemical, 
# crystal, experimental, refinement or atomic coordinate data resulting 
# from the CCDC's data processing and validation procedures.
#
#######################################################################

data_PUCNAD
_chemical_formula_moiety         'C17 H22 N2 O4'
_chemical_name_systematic        
"t-Butyl 2-oxo-1,2-dihydrospiro(benzo(d)(1,3)oxazine-4,3'-piperidine)-1'-carboxylate"
_symmetry_cell_setting           monoclinic
_symmetry_space_group_name_H-M   'P 21/c'
_symmetry_Int_Tables_number      14
_space_group_name_Hall           '-P 2ybc'
loop_
_symmetry_equiv_pos_site_id
_symmetry_equiv_pos_as_xyz
1 x,y,z
2 -x,1/2+y,1/2-z
3 -x,-y,-z
4 x,1/2-y,1/2+z
_cell_length_a                   9.9100(9)
_cell_length_b                   10.5400(5)
_cell_length_c                   17.1400(12)
_cell_angle_alpha                90
_cell_angle_beta                 106.040(4)
_cell_angle_gamma                90
_cell_volume                     1720.6
_chemical_melting_point          '169-172 deg.C'
_cell_formula_units_Z            4
loop_
_atom_site_label
_atom_site_type_symbol
_atom_site_fract_x
_atom_site_fract_y
_atom_site_fract_z
O1 O 0.43805(11) 0.51398(9) 0.39881(5)
O2 O 0.49509(10) 0.36463(9) 0.32328(5)
O3 O 0.09146(11) 0.34446(11) 0.18731(6)
O4 O 0.17204(11) 0.31019(9) 0.32355(6)
N1 N 0.54931(13) 0.33899(11) 0.46209(7)
N2 N 0.26711(13) 0.20360(12) 0.23925(7)
C1 C 0.73173(17) 0.19166(15) 0.53160(9)
C2 C 0.81895(18) 0.09055(16) 0.52792(10)
C3 C 0.81428(17) 0.03468(16) 0.45350(10)
C4 C 0.72124(15) 0.08057(14) 0.38269(9)
C5 C 0.63150(14) 0.18030(13) 0.38575(8)
C6 C 0.63838(14) 0.23580(13) 0.46052(8)
C7 C 0.49077(14) 0.41026(12) 0.39581(7)
C8 C 0.51820(14) 0.22831(12) 0.31342(8)
C9 C 0.55402(16) 0.22007(15) 0.23245(8)
C10 C 0.43124(16) 0.26099(15) 0.16134(8)
C11 C 0.29839(16) 0.18886(17) 0.16086(9)
C12 C 0.37931(14) 0.15958(13) 0.30826(8)
C13 C 0.17056(14) 0.29192(13) 0.24559(8)
C14 C 0.07049(16) 0.39728(15) 0.34445(10)
C15 C -0.07788(19) 0.3460(2) 0.30999(14)
C16 C 0.0853(2) 0.53061(16) 0.31499(13)
C17 C 0.1168(3) 0.3908(2) 0.43654(12)
H1 H 0.7340(19) 0.2351(17) 0.5851(11)
H2 H 0.885(2) 0.0593(18) 0.5791(13)
H3 H 0.8783(19) -0.0376(17) 0.4489(10)
H4 H 0.7214(19) 0.0408(16) 0.3301(11)
H5 H 0.5554(19) 0.3788(17) 0.5090(12)
H6 H 0.639(2) 0.2731(18) 0.2358(11)
H7 H 0.5772(18) 0.1301(17) 0.2249(10)
H8 H 0.4142(18) 0.3515(17) 0.1642(10)
H9 H 0.4546(19) 0.2459(17) 0.1090(12)
H10 H 0.217(2) 0.2205(17) 0.1178(12)
H11 H 0.3093(19) 0.0994(19) 0.1532(11)
H12 H 0.3518(18) 0.1722(15) 0.3597(11)
H13 H 0.3961(16) 0.0674(16) 0.3007(9)
H14 H -0.106(2) 0.343(2) 0.2485(15)
H15 H -0.085(2) 0.259(2) 0.3303(13)
H16 H -0.142(2) 0.400(2) 0.3292(13)
H17 H 0.052(3) 0.444(2) 0.4560(14)
H18 H 0.106(2) 0.305(2) 0.4538(14)
H19 H 0.218(3) 0.425(2) 0.4568(14)
H20 H 0.048(2) 0.540(2) 0.2574(16)
H21 H 0.033(3) 0.590(2) 0.3407(14)
H22 H 0.187(2) 0.5561(19) 0.3319(12)
loop_
_geom_bond_atom_site_label_1
_geom_bond_atom_site_label_2
_geom_bond_site_symmetry_1
_geom_bond_site_symmetry_2
O1 C7 1_555 1_555
O2 C7 1_555 1_555
O3 C13 1_555 1_555
O4 C13 1_555 1_555
N1 C6 1_555 1_555
N2 C11 1_555 1_555
C1 C2 1_555 1_555
C2 C3 1_555 1_555
C3 C4 1_555 1_555
C4 C5 1_555 1_555
C5 C6 1_555 1_555
C6 C1 1_555 1_555
C7 N1 1_555 1_555
C8 O2 1_555 1_555
C9 C8 1_555 1_555
C10 C9 1_555 1_555
C11 C10 1_555 1_555
C12 N2 1_555 1_555
C13 N2 1_555 1_555
C14 O4 1_555 1_555
C15 C14 1_555 1_555
C16 C14 1_555 1_555
C17 C14 1_555 1_555
H1 C1 1_555 1_555
H2 C2 1_555 1_555
H3 C3 1_555 1_555
H4 C4 1_555 1_555
H5 N1 1_555 1_555
H6 C9 1_555 1_555
H7 C9 1_555 1_555
H8 C10 1_555 1_555
H9 C10 1_555 1_555
H10 C11 1_555 1_555
H11 C11 1_555 1_555
H12 C12 1_555 1_555
H13 C12 1_555 1_555
H14 C15 1_555 1_555
H15 C15 1_555 1_555
H16 C15 1_555 1_555
H17 C17 1_555 1_555
H18 C17 1_555 1_555
H19 C17 1_555 1_555
H20 C16 1_555 1_555
H21 C16 1_555 1_555
H22 C16 1_555 1_555
C5 C8 1_555 1_555
C8 C12 1_555 1_555

#END
