
#######################################################################
#
#                 Cambridge Crystallographic Data Centre
#                                CCDC 
#
#######################################################################
#
# If this CIF has been generated from an entry in the Cambridge 
# Structural Database, then it will include bibliographic, chemical, 
# crystal, experimental, refinement or atomic coordinate data resulting 
# from the CCDC's data processing and validation procedures.
#
#######################################################################

data_PUCQIO
_chemical_formula_moiety         'C32 H31 N2 O5 P1 S2,C4 H8 O2'
_chemical_name_systematic        
'Methyl N-acetyl-3-((2-(N-(4-methoxybenzoyl)-P,P-diphenylphosphorimidoyl)phenyl)disulfanyl)alaninate ethyl acetate solvate'
_symmetry_cell_setting           orthorhombic
_symmetry_space_group_name_H-M   'P 21 21 21'
_symmetry_Int_Tables_number      19
_space_group_name_Hall           'P 2ac 2ab'
loop_
_symmetry_equiv_pos_site_id
_symmetry_equiv_pos_as_xyz
1 x,y,z
2 1/2+x,1/2-y,-z
3 -x,1/2+y,1/2-z
4 1/2-x,-y,1/2+z
_cell_length_a                   10.4365(7)
_cell_length_b                   17.1594(12)
_cell_length_c                   20.0884(13)
_cell_angle_alpha                90
_cell_angle_beta                 90
_cell_angle_gamma                90
_cell_volume                     3597.51
_chemical_melting_point          '168-169 deg.C'
_cell_formula_units_Z            4
loop_
_atom_site_label
_atom_site_type_symbol
_atom_site_fract_x
_atom_site_fract_y
_atom_site_fract_z
C1 C 0.6776(3) 0.41125(16) 0.32319(14)
C2 C 0.6642(3) 0.37653(17) 0.39110(15)
C3 C 0.5450(3) 0.3554(2) 0.41666(17)
H1 H 0.4721 0.3614 0.3905
C4 C 0.5338(4) 0.3257(2) 0.48045(18)
H2 H 0.4536 0.3131 0.4974
C5 C 0.6429(4) 0.3149(2) 0.51897(16)
C6 C 0.7621(3) 0.3354(2) 0.49441(17)
H3 H 0.8351 0.3285 0.5203
C7 C 0.7716(3) 0.36650(19) 0.43070(16)
H4 H 0.8515 0.3808 0.4144
C8 C 0.7291(4) 0.2721(2) 0.62342(17)
H5 H 0.7857 0.2350 0.6030
H6 H 0.7005 0.2523 0.6656
H7 H 0.7738 0.3204 0.6300
C9 C 0.7102(3) 0.42435(17) 0.15960(14)
C10 C 0.7703(3) 0.48564(19) 0.12644(16)
H8 H 0.7352 0.5354 0.1281
C11 C 0.8816(3) 0.4728(2) 0.09129(18)
H9 H 0.9218 0.5139 0.0696
C12 C 0.9337(3) 0.3990(2) 0.08810(17)
H10 H 1.0096 0.3909 0.0649
C13 C 0.8738(3) 0.3370(2) 0.11924(18)
H11 H 0.9076 0.2870 0.1157
C14 C 0.7627(3) 0.3499(2) 0.15581(17)
H12 H 0.7233 0.3086 0.1778
C15 C 0.5330(3) 0.54074(16) 0.20988(15)
C16 C 0.5971(3) 0.58995(18) 0.25317(16)
H13 H 0.6576 0.5695 0.2823
C17 C 0.5722(4) 0.66919(19) 0.25352(18)
H14 H 0.6152 0.7016 0.2831
C18 C 0.4836(4) 0.69999(19) 0.2100(2)
H15 H 0.4666 0.7532 0.2101
C19 C 0.4203(4) 0.6517(2) 0.1662(2)
H16 H 0.3612 0.6727 0.1365
C20 C 0.4437(3) 0.57183(19) 0.16576(17)
H17 H 0.4001 0.5395 0.1363
C21 C 0.4391(3) 0.38812(15) 0.16832(14)
C22 C 0.4582(3) 0.35851(19) 0.10428(16)
H18 H 0.5365 0.3667 0.0834
C23 C 0.3638(3) 0.3174(2) 0.07118(17)
H19 H 0.3776 0.2997 0.0280
C24 C 0.2495(3) 0.30283(19) 0.10267(17)
H20 H 0.1869 0.2735 0.0813
C25 C 0.2268(3) 0.33164(17) 0.16618(16)
H21 H 0.1490 0.3215 0.1869
C26 C 0.3197(3) 0.37565(15) 0.19919(15)
C27 C 0.0516(3) 0.50873(17) 0.25458(15)
H22 H 0.1123 0.5226 0.2200
H23 H -0.0322 0.5043 0.2341
C28 C 0.0479(3) 0.57390(17) 0.30629(14)
H24 H 0.1308 0.5768 0.3291
C29 C -0.0731(3) 0.60650(18) 0.40618(16)
C30 C -0.1893(4) 0.5884(2) 0.44755(18)
H25 H -0.1661 0.5533 0.4828
H26 H -0.2535 0.5646 0.4201
H27 H -0.2225 0.6358 0.4663
C31 C 0.0229(3) 0.64993(18) 0.27023(16)
C32 C 0.1198(4) 0.7461(2) 0.2026(2)
H28 H 0.0737 0.7322 0.1630
H29 H 0.2035 0.7648 0.1907
H30 H 0.0742 0.7863 0.2258
N1 N 0.5746(2) 0.40085(13) 0.28282(12)
N2 N -0.0518(2) 0.55809(15) 0.35451(12)
H31 H -0.0984 0.5171 0.3501
O1 O 0.7779(2) 0.44562(13) 0.30712(10)
O2 O 0.6212(3) 0.28477(18) 0.58120(12)
O3 O -0.0023(3) 0.66227(15) 0.41872(13)
O4 O -0.0797(2) 0.68031(14) 0.26293(12)
O5 O 0.1322(2) 0.67809(13) 0.24530(13)
P1 P 0.56839(7) 0.43830(4) 0.20943(4)
S1 S 0.29113(7) 0.41354(4) 0.28128(4)
S2 S 0.09613(7) 0.41492(4) 0.28898(4)
C33 C 0.2512(6) 0.4792(4) 0.4829(3)
C34 C 0.1295(6) 0.4328(4) 0.4811(3)
H32 H 0.1393 0.3868 0.5080
H33 H 0.1111 0.4179 0.4360
H34 H 0.0604 0.4638 0.4982
C35 C 0.4048(6) 0.5538(4) 0.4166(3)
H35 H 0.4611 0.5437 0.4540
H36 H 0.4492 0.5387 0.3762
C36 C 0.3745(6) 0.6360(4) 0.4141(3)
H37 H 0.3278 0.6471 0.3740
H38 H 0.4524 0.6658 0.4145
H39 H 0.3233 0.6498 0.4520
O6 O 0.3074(5) 0.4921(3) 0.5328(2)
O7 O 0.2858(4) 0.5067(3) 0.4237(2)
loop_
_geom_bond_atom_site_label_1
_geom_bond_atom_site_label_2
_geom_bond_site_symmetry_1
_geom_bond_site_symmetry_2
C1 C2 1_555 1_555
C2 C3 1_555 1_555
C3 H1 1_555 1_555
C4 C3 1_555 1_555
H2 C4 1_555 1_555
C5 C4 1_555 1_555
C6 C5 1_555 1_555
H3 C6 1_555 1_555
C7 C2 1_555 1_555
H4 C7 1_555 1_555
C8 H5 1_555 1_555
H6 C8 1_555 1_555
H7 C8 1_555 1_555
C9 C10 1_555 1_555
C10 H8 1_555 1_555
C11 C10 1_555 1_555
H9 C11 1_555 1_555
C12 C11 1_555 1_555
H10 C12 1_555 1_555
C13 C12 1_555 1_555
H11 C13 1_555 1_555
C14 C9 1_555 1_555
H12 C14 1_555 1_555
C15 C16 1_555 1_555
C16 H13 1_555 1_555
C17 C16 1_555 1_555
H14 C17 1_555 1_555
C18 C17 1_555 1_555
H15 C18 1_555 1_555
C19 C18 1_555 1_555
H16 C19 1_555 1_555
C20 C15 1_555 1_555
H17 C20 1_555 1_555
C21 C22 1_555 1_555
C22 H18 1_555 1_555
C23 C22 1_555 1_555
H19 C23 1_555 1_555
C24 C23 1_555 1_555
H20 C24 1_555 1_555
C25 C24 1_555 1_555
H21 C25 1_555 1_555
C26 C21 1_555 1_555
C27 H22 1_555 1_555
H23 C27 1_555 1_555
C28 C27 1_555 1_555
H24 C28 1_555 1_555
C29 C30 1_555 1_555
C30 H25 1_555 1_555
H26 C30 1_555 1_555
H27 C30 1_555 1_555
C31 C28 1_555 1_555
C32 H28 1_555 1_555
H29 C32 1_555 1_555
H30 C32 1_555 1_555
N1 C1 1_555 1_555
N2 C28 1_555 1_555
H31 N2 1_555 1_555
O1 C1 1_555 1_555
O2 C5 1_555 1_555
O3 C29 1_555 1_555
O4 C31 1_555 1_555
O5 C31 1_555 1_555
P1 C9 1_555 1_555
S1 C26 1_555 1_555
S2 C27 1_555 1_555
C33 C34 1_555 1_555
C34 H32 1_555 1_555
H33 C34 1_555 1_555
H34 C34 1_555 1_555
C35 H35 1_555 1_555
H36 C35 1_555 1_555
C36 C35 1_555 1_555
H37 C36 1_555 1_555
H38 C36 1_555 1_555
H39 C36 1_555 1_555
O6 C33 1_555 1_555
O7 C33 1_555 1_555
C6 C7 1_555 1_555
C8 O2 1_555 1_555
C13 C14 1_555 1_555
C15 P1 1_555 1_555
C19 C20 1_555 1_555
C21 P1 1_555 1_555
C25 C26 1_555 1_555
C29 N2 1_555 1_555
C32 O5 1_555 1_555
N1 P1 1_555 1_555
S1 S2 1_555 1_555
C35 O7 1_555 1_555

#END
