
#######################################################################
#
#                 Cambridge Crystallographic Data Centre
#                                CCDC 
#
#######################################################################
#
# If this CIF has been generated from an entry in the Cambridge 
# Structural Database, then it will include bibliographic, chemical, 
# crystal, experimental, refinement or atomic coordinate data resulting 
# from the CCDC's data processing and validation procedures.
#
#######################################################################

data_PUCSIR
_chemical_formula_moiety         'C30 H26 Br1 N1 O3'
_chemical_name_systematic        
'Ethyl 3-amino-2-(5-(4-bromophenyl)-2,3-bis(4-methylphenyl)cyclopenta-2,4-dien-1-ylidene)-3-oxopropanoate'
_symmetry_cell_setting           triclinic
_symmetry_space_group_name_H-M   'P -1'
_symmetry_Int_Tables_number      2
_space_group_name_Hall           '-P 1'
loop_
_symmetry_equiv_pos_site_id
_symmetry_equiv_pos_as_xyz
1 x,y,z
2 -x,-y,-z
_cell_length_a                   8.6087(10)
_cell_length_b                   12.0564(13)
_cell_length_c                   13.9281(15)
_cell_angle_alpha                108.468(3)
_cell_angle_beta                 104.708(3)
_cell_angle_gamma                94.122(3)
_cell_volume                     1307.82
_exptl_crystal_colour            red
_exptl_crystal_description       block
_cell_formula_units_Z            2
loop_
_atom_site_label
_atom_site_type_symbol
_atom_site_fract_x
_atom_site_fract_y
_atom_site_fract_z
Br1 Br 1.59535(5) 0.59689(3) 0.31089(4)
O1 O 1.0526(2) 0.20079(17) 0.04582(16)
O2 O 0.9660(2) 0.33158(15) 0.16634(16)
O3 O 0.6400(2) 0.13789(15) 0.10548(15)
N1 N 0.7199(3) -0.02339(18) 0.00984(16)
H1 H 0.6229 -0.0534 -0.0314
H2 H 0.7995 -0.0606 0.0008
C1 C 1.4713(3) 0.4580(2) 0.3055(2)
C2 C 1.4873(3) 0.3491(3) 0.2418(2)
H3 H 1.5590 0.3427 0.2011
C3 C 1.3954(3) 0.2491(2) 0.2393(2)
H4 H 1.4081 0.1750 0.1976
C4 C 1.2853(3) 0.2558(2) 0.29642(19)
C5 C 1.2744(4) 0.3658(2) 0.3609(3)
H5 H 1.2032 0.3723 0.4019
C6 C 1.3673(4) 0.4672(3) 0.3662(3)
H6 H 1.3590 0.5411 0.4107
C7 C 1.1853(3) 0.1475(2) 0.29219(19)
C8 C 1.2343(3) 0.0784(2) 0.3487(2)
H7 H 1.3391 0.0883 0.3931
C9 C 1.1001(3) -0.0151(2) 0.3315(2)
C10 C 0.9665(3) -0.0036(2) 0.26125(19)
C11 C 1.0127(3) 0.09738(19) 0.22835(19)
C12 C 1.1160(3) -0.0998(2) 0.3885(2)
C13 C 0.9868(3) -0.1422(2) 0.4173(2)
H8 H 0.8863 -0.1189 0.3984
C14 C 1.0058(3) -0.2183(2) 0.4735(2)
H9 H 0.9170 -0.2459 0.4910
C15 C 1.1529(3) -0.2547(2) 0.5047(2)
C16 C 1.2823(3) -0.2122(2) 0.4762(2)
H10 H 1.3827 -0.2357 0.4953
C17 C 1.2645(3) -0.1358(2) 0.4201(2)
H11 H 1.3536 -0.1078 0.4031
C18 C 1.1703(5) -0.3365(3) 0.5676(3)
H12 H 1.1713 -0.2936 0.6388
H13 H 1.2703 -0.3671 0.5683
H14 H 1.0803 -0.4010 0.5357
C19 C 0.8042(3) -0.0788(2) 0.21942(18)
C20 C 0.6685(3) -0.0336(3) 0.2441(2)
H15 H 0.6807 0.0444 0.2887
C21 C 0.5168(4) -0.1037(4) 0.2030(3)
H16 H 0.4279 -0.0718 0.2197
C22 C 0.4947(4) -0.2193(3) 0.1381(3)
C23 C 0.6284(5) -0.2641(3) 0.1152(3)
H17 H 0.6154 -0.3427 0.0718
C24 C 0.7827(4) -0.1953(2) 0.1551(2)
H18 H 0.8711 -0.2281 0.1382
C25 C 0.3274(5) -0.2951(5) 0.0926(5)
H19 H 0.3203 -0.3535 0.1181
H20 H 0.3338 -0.3578 0.0274
H21 H 0.2446 -0.2558 0.0778
C26 C 0.9233(3) 0.13118(19) 0.15169(18)
C27 C 0.9898(3) 0.2241(2) 0.1159(2)
C28 C 1.0320(4) 0.4274(2) 0.1364(3)
H22 H 0.9870 0.4109 0.0611
H23 H 1.1496 0.4349 0.1531
C29 C 0.9855(6) 0.5379(3) 0.1975(4)
H24 H 0.8704 0.5352 0.1710
H25 H 1.0430 0.6047 0.1903
H26 H 1.0131 0.5456 0.2708
C30 C 0.7464(3) 0.0800(2) 0.08739(19)
loop_
_geom_bond_atom_site_label_1
_geom_bond_atom_site_label_2
_geom_bond_site_symmetry_1
_geom_bond_site_symmetry_2
Br1 C1 1_555 1_555
O1 C27 1_555 1_555
O2 C27 1_555 1_555
O3 C30 1_555 1_555
N1 H1 1_555 1_555
H2 N1 1_555 1_555
C1 C2 1_555 1_555
C2 H3 1_555 1_555
C3 C2 1_555 1_555
H4 C3 1_555 1_555
C4 C3 1_555 1_555
C5 C4 1_555 1_555
H5 C5 1_555 1_555
C6 C1 1_555 1_555
H6 C6 1_555 1_555
C7 C4 1_555 1_555
C8 C7 1_555 1_555
H7 C8 1_555 1_555
C9 C8 1_555 1_555
C10 C9 1_555 1_555
C11 C7 1_555 1_555
C12 C9 1_555 1_555
C13 C12 1_555 1_555
H8 C13 1_555 1_555
C14 C13 1_555 1_555
H9 C14 1_555 1_555
C15 C14 1_555 1_555
C16 C15 1_555 1_555
H10 C16 1_555 1_555
C17 C12 1_555 1_555
H11 C17 1_555 1_555
C18 C15 1_555 1_555
H12 C18 1_555 1_555
H13 C18 1_555 1_555
H14 C18 1_555 1_555
C19 C10 1_555 1_555
C20 C19 1_555 1_555
H15 C20 1_555 1_555
C21 C20 1_555 1_555
H16 C21 1_555 1_555
C22 C21 1_555 1_555
C23 C22 1_555 1_555
H17 C23 1_555 1_555
C24 C19 1_555 1_555
H18 C24 1_555 1_555
C25 C22 1_555 1_555
H19 C25 1_555 1_555
H20 C25 1_555 1_555
H21 C25 1_555 1_555
C26 C11 1_555 1_555
C27 C26 1_555 1_555
C28 O2 1_555 1_555
H22 C28 1_555 1_555
H23 C28 1_555 1_555
C29 C28 1_555 1_555
H24 C29 1_555 1_555
H25 C29 1_555 1_555
H26 C29 1_555 1_555
C30 N1 1_555 1_555
C5 C6 1_555 1_555
C10 C11 1_555 1_555
C16 C17 1_555 1_555
C23 C24 1_555 1_555
C26 C30 1_555 1_555

#END
