
#######################################################################
#
#                 Cambridge Crystallographic Data Centre
#                                CCDC 
#
#######################################################################
#
# If this CIF has been generated from an entry in the Cambridge 
# Structural Database, then it will include bibliographic, chemical, 
# crystal, experimental, refinement or atomic coordinate data resulting 
# from the CCDC's data processing and validation procedures.
#
#######################################################################

data_PUDGOK
_chemical_formula_moiety         'C22 H31 N5'
_chemical_name_systematic        
trans-(4-(2-(4-Phenylpiperazin-1-yl)ethyl)-cyclohexyl)pyrimidin-2-ylamine
_chemical_properties_biological  
'partial agonist activity for D2 and D3 dopamine'
_symmetry_cell_setting           monoclinic
_symmetry_space_group_name_H-M   'P 21/n'
_symmetry_Int_Tables_number      14
_space_group_name_Hall           '-P 2yn'
loop_
_symmetry_equiv_pos_site_id
_symmetry_equiv_pos_as_xyz
1 x,y,z
2 1/2-x,1/2+y,1/2-z
3 -x,-y,-z
4 1/2+x,1/2-y,1/2+z
_cell_length_a                   8.545
_cell_length_b                   6.083
_cell_length_c                   39.427
_cell_angle_alpha                90
_cell_angle_beta                 91.74
_cell_angle_gamma                90
_cell_volume                     2048.44
_exptl_crystal_colour            colorless
_exptl_crystal_description       columnar
_chemical_melting_point          162-163deg.C
_cell_formula_units_Z            4
_exptl_crystal_recrystallization_method 'ethyl acetate'
loop_
_atom_site_label
_atom_site_type_symbol
_atom_site_fract_x
_atom_site_fract_y
_atom_site_fract_z
N1 N 1.6174(3) 0.7326(4) 0.98561(6)
N2 N 1.5093(3) 0.9257(4) 0.93731(6)
N3 N 1.4106(3) 0.5932(4) 0.95463(6)
N4 N 0.6277(3) 0.1965(4) 0.85333(5)
N5 N 0.3623(3) 0.0932(4) 0.80943(5)
C1 C 1.5149(3) 0.7564(5) 0.95919(7)
C2 C 1.7200(4) 0.8953(6) 0.98970(7)
C3 C 1.7239(4) 1.0759(6) 0.96912(8)
C4 C 1.6156(4) 1.0825(5) 0.94334(8)
C5 C 1.2807(4) 0.5969(5) 0.92951(8)
C6 C 1.2622(4) 0.3785(6) 0.91276(8)
C7 C 1.1231(4) 0.3751(6) 0.88739(8)
C8 C 0.9733(3) 0.4444(5) 0.90254(7)
C9 C 0.9952(4) 0.6667(6) 0.9186(1)
C10 C 1.1340(4) 0.6711(7) 0.9444(1)
C11 C 0.8328(3) 0.4387(5) 0.87801(7)
C12 C 0.7918(3) 0.2125(5) 0.86380(8)
C13 C 0.5829(4) -0.0281(5) 0.84637(7)
C14 C 0.4105(4) -0.0465(5) 0.83795(7)
C15 C 0.4209(3) 0.3177(5) 0.81348(7)
C16 C 0.5934(3) 0.3246(5) 0.82269(7)
C17 C 0.2098(3) 0.0675(5) 0.79599(7)
C18 C 0.1209(4) -0.1214(5) 0.80156(8)
C19 C -0.0256(4) -0.1473(6) 0.78635(8)
C20 C -0.0903(4) 0.0114(7) 0.76542(8)
C21 C -0.0050(4) 0.1957(6) 0.75996(8)
C22 C 0.1410(3) 0.2271(5) 0.77486(7)
H1 H 1.403(3) 0.501(5) 0.9718(7)
H2 H 1.795 0.886 1.008
H3 H 1.798 1.190 0.973
H4 H 1.615 1.207 0.929
H5 H 1.306 0.702 0.913
H6 H 1.246 0.270 0.930
H7 H 1.355 0.346 0.901
H8 H 1.111 0.229 0.879
H9 H 1.145 0.471 0.869
H10 H 0.948 0.338 0.919
H11 H 0.903 0.703 0.930
H12 H 1.012 0.772 0.902
H13 H 1.148 0.818 0.952
H14 H 1.112 0.579 0.963
H15 H 0.854 0.533 0.860
H16 H 0.745 0.493 0.890
H17 H 0.854 0.185 0.845
H18 H 0.814 0.105 0.881
H19 H 0.607 -0.115 0.866
H20 H 0.640 -0.080 0.828
H21 H 0.387 -0.195 0.832
H22 H 0.354 -0.005 0.857
H23 H 0.365 0.388 0.831
H24 H 0.403 0.394 0.793
H25 H 0.650 0.266 0.805
H26 H 0.624 0.473 0.827
H27 H 0.162 -0.234 0.816
H28 H -0.083 -0.278 0.790
H29 H -0.191 -0.007 0.755
H30 H -0.047 0.306 0.745
H31 H 0.196 0.360 0.771
loop_
_geom_bond_atom_site_label_1
_geom_bond_atom_site_label_2
_geom_bond_site_symmetry_1
_geom_bond_site_symmetry_2
N1 C1 1_555 1_555
N2 C1 1_555 1_555
N3 C1 1_555 1_555
N4 C12 1_555 1_555
N5 C14 1_555 1_555
C2 N1 1_555 1_555
C3 C2 1_555 1_555
C4 N2 1_555 1_555
C5 N3 1_555 1_555
C6 C5 1_555 1_555
C7 C6 1_555 1_555
C8 C7 1_555 1_555
C9 C8 1_555 1_555
C10 C5 1_555 1_555
C11 C8 1_555 1_555
C12 C11 1_555 1_555
C13 N4 1_555 1_555
C14 C13 1_555 1_555
C15 N5 1_555 1_555
C16 N4 1_555 1_555
C17 N5 1_555 1_555
C18 C17 1_555 1_555
C19 C18 1_555 1_555
C20 C19 1_555 1_555
C21 C20 1_555 1_555
C22 C17 1_555 1_555
H1 N3 1_555 1_555
H2 C2 1_555 1_555
H3 C3 1_555 1_555
H4 C4 1_555 1_555
H5 C5 1_555 1_555
H6 C6 1_555 1_555
H7 C6 1_555 1_555
H8 C7 1_555 1_555
H9 C7 1_555 1_555
H10 C8 1_555 1_555
H11 C9 1_555 1_555
H12 C9 1_555 1_555
H13 C10 1_555 1_555
H14 C10 1_555 1_555
H15 C11 1_555 1_555
H16 C11 1_555 1_555
H17 C12 1_555 1_555
H18 C12 1_555 1_555
H19 C13 1_555 1_555
H20 C13 1_555 1_555
H21 C14 1_555 1_555
H22 C14 1_555 1_555
H23 C15 1_555 1_555
H24 C15 1_555 1_555
H25 C16 1_555 1_555
H26 C16 1_555 1_555
H27 C18 1_555 1_555
H28 C19 1_555 1_555
H29 C20 1_555 1_555
H30 C21 1_555 1_555
H31 C22 1_555 1_555
C3 C4 1_555 1_555
C9 C10 1_555 1_555
C15 C16 1_555 1_555
C21 C22 1_555 1_555

#END
