
#######################################################################
#
#                 Cambridge Crystallographic Data Centre
#                                CCDC 
#
#######################################################################
#
# If this CIF has been generated from an entry in the Cambridge 
# Structural Database, then it will include bibliographic, chemical, 
# crystal, experimental, refinement or atomic coordinate data resulting 
# from the CCDC's data processing and validation procedures.
#
#######################################################################

data_PUDHED
_chemical_formula_moiety         'C28 H29 F1 O6 S1'
_chemical_name_systematic        
10-n-Butoxy-6-fluoro-1,2,3-trimethoxy-9-((4-methylphenyl)sulfonyl)phenanthrene
_symmetry_cell_setting           triclinic
_symmetry_space_group_name_H-M   'P -1'
_symmetry_Int_Tables_number      2
_space_group_name_Hall           '-P 1'
loop_
_symmetry_equiv_pos_site_id
_symmetry_equiv_pos_as_xyz
1 x,y,z
2 -x,-y,-z
_cell_length_a                   10.7033(17)
_cell_length_b                   13.247(2)
_cell_length_c                   19.641(3)
_cell_angle_alpha                80.964(4)
_cell_angle_beta                 79.736(4)
_cell_angle_gamma                68.803(3)
_cell_volume                     2541.81
_exptl_crystal_colour            colorless
_cell_formula_units_Z            4
loop_
_atom_site_label
_atom_site_type_symbol
_atom_site_fract_x
_atom_site_fract_y
_atom_site_fract_z
C1 C 0.3618(3) 1.4297(2) 0.49825(15)
H1 H 0.3763 1.3871 0.4592
H2 H 0.3492 1.5057 0.4805
H3 H 0.2812 1.4261 0.5297
C2 C 0.6188(3) 1.3854(2) 0.66524(13)
H4 H 0.5304 1.4363 0.6544
H5 H 0.6759 1.4262 0.6708
H6 H 0.6067 1.3398 0.7085
C3 C 0.8919(2) 1.0659(2) 0.64088(15)
H7 H 0.8977 0.9952 0.6287
H8 H 0.9616 1.0553 0.6703
H9 H 0.9060 1.1123 0.5983
C4 C 0.6636(3) 0.9672(2) 0.78073(13)
H10 H 0.5991 0.9309 0.8044
H11 H 0.6142 1.0466 0.7748
C5 C 0.7757(3) 0.9433(3) 0.82327(15)
H12 H 0.8448 0.9728 0.7966
H13 H 0.8191 0.8635 0.8322
C6 C 0.7256(5) 0.9928(4) 0.89320(19)
H14 H 0.6617 1.0679 0.8848
H15 H 0.6748 0.9501 0.9240
C7 C 0.5086(2) 1.2819(2) 0.56521(12)
C8 C 0.6161(2) 1.24771(19) 0.60510(12)
C9 C 0.6580(2) 1.14378(19) 0.63807(12)
C10 C 0.5933(2) 1.06897(19) 0.63246(11)
C11 C 0.6316(2) 0.95951(19) 0.66614(12)
C12 C 0.5822(2) 0.8848(2) 0.65183(12)
C13 C 0.4697(2) 0.9178(2) 0.61113(12)
C14 C 0.3971(2) 0.8489(2) 0.60552(13)
H16 H 0.4267 0.7757 0.6258
C15 C 0.2850(3) 0.8863(3) 0.57126(13)
H17 H 0.2367 0.8400 0.5681
C16 C 0.2445(2) 0.9925(2) 0.54160(13)
C17 C 0.3080(2) 1.0630(2) 0.54574(12)
H18 H 0.2763 1.1356 0.5244
C18 C 0.4223(2) 1.0275(2) 0.58226(11)
C19 C 0.4876(2) 1.1036(2) 0.59040(11)
C20 C 0.4465(2) 1.2107(2) 0.55777(12)
H19 H 0.3747 1.2341 0.5302
C21 C 0.8310(3) 0.71765(19) 0.67644(12)
C22 C 0.8990(3) 0.7180(2) 0.60968(13)
H20 H 0.8502 0.7409 0.5708
C23 C 1.0389(3) 0.6847(2) 0.59982(14)
H21 H 1.0854 0.6868 0.5539
C24 C 1.1124(3) 0.6484(2) 0.65583(15)
C25 C 1.0413(3) 0.6496(2) 0.72256(15)
H22 H 1.0898 0.6258 0.7615
C26 C 0.9025(3) 0.6841(2) 0.73339(14)
H23 H 0.8557 0.6852 0.7793
C27 C 1.2643(3) 0.6069(3) 0.64528(18)
H24 H 1.2973 0.6447 0.6733
H25 H 1.2970 0.6204 0.5960
H26 H 1.2977 0.5286 0.6597
F1 F 0.13477(15) 1.02925(15) 0.50665(8)
O1 O 0.47733(18) 1.38625(14) 0.53525(9)
O2 O 0.68213(17) 1.31767(13) 0.60961(9)
O3 O 0.76069(15) 1.11709(13) 0.67801(8)
O4 O 0.72247(16) 0.92702(13) 0.71325(8)
O5 O 0.6087(2) 0.74561(16) 0.76412(9)
O6 O 0.62848(19) 0.67704(15) 0.65144(10)
S1 S 0.65364(7) 0.74923(5) 0.69054(3)
H27 H 0.7852 1.0326 0.9676
H28 H 0.8764 1.0350 0.8958
H29 H 0.8806 0.9234 0.9381
C28 C 0.8207(11) 0.9963(10) 0.9260(5)
C29 C 0.4579(3) 0.7602(3) 0.96683(17)
H30 H 0.5000 0.7382 1.0097
H31 H 0.3606 0.7981 0.9781
H32 H 0.4982 0.8091 0.9357
C30 C 0.4623(2) 0.5553(2) 0.79706(12)
H33 H 0.4133 0.6328 0.8018
H34 H 0.4013 0.5223 0.7855
H35 H 0.5387 0.5473 0.7599
C31 C 0.7491(3) 0.2780(2) 0.84232(15)
H36 H 0.8223 0.2463 0.8713
H37 H 0.7578 0.2273 0.8089
H38 H 0.6618 0.2919 0.8719
C32 C 1.0222(3) 0.3613(2) 0.72536(13)
H39 H 1.1081 0.3748 0.7081
H40 H 0.9465 0.4311 0.7200
C33 C 1.0086(3) 0.2792(2) 0.68406(14)
H41 H 0.9147 0.2790 0.6940
H42 H 1.0696 0.2057 0.6989
C34 C 1.0431(3) 0.3051(3) 0.60611(17)
H43 H 1.1384 0.3018 0.5964
H44 H 1.0353 0.2482 0.5816
C35 C 0.9558(5) 0.4138(3) 0.57696(16)
H45 H 0.8613 0.4175 0.5851
H46 H 0.9841 0.4242 0.5268
H47 H 0.9648 0.4711 0.5998
C36 C 0.6096(2) 0.6049(2) 0.91231(11)
C37 C 0.6242(2) 0.5208(2) 0.87296(11)
C38 C 0.7502(2) 0.45444(19) 0.84759(11)
C39 C 0.8687(2) 0.46704(18) 0.86271(11)
C40 C 1.0034(2) 0.39479(18) 0.84103(12)
C41 C 1.1136(2) 0.40002(19) 0.86435(11)
C42 C 1.1026(2) 0.49044(18) 0.90084(11)
C43 C 1.2168(2) 0.5097(2) 0.91508(11)
H48 H 1.3043 0.4582 0.9039
C44 C 1.2046(2) 0.6001(2) 0.94429(12)
H49 H 1.2822 0.6124 0.9530
C45 C 1.0761(2) 0.6736(2) 0.96093(12)
C46 C 0.9620(2) 0.66023(19) 0.94852(11)
H50 H 0.8758 0.7128 0.9607
C47 C 0.9725(2) 0.56807(18) 0.91749(10)
C48 C 0.8526(2) 0.55214(18) 0.90260(11)
C49 C 0.7223(2) 0.62010(19) 0.92670(11)
H51 H 0.7119 0.6773 0.9533
C50 C 1.2521(2) 0.1760(2) 0.83737(12)
C51 C 1.1959(3) 0.1220(2) 0.89416(13)
H52 H 1.1674 0.1517 0.9376
C52 C 1.1820(3) 0.0251(2) 0.88670(15)
H53 H 1.1422 -0.0110 0.9252
C53 C 1.2251(3) -0.0210(2) 0.82400(15)
C54 C 1.2825(3) 0.0337(2) 0.76883(14)
H54 H 1.3134 0.0029 0.7257
C55 C 1.2960(2) 0.1312(2) 0.77460(13)
H55 H 1.3351 0.1675 0.7359
C56 C 1.2113(4) -0.1284(3) 0.8170(2)
H56 H 1.1925 -0.1282 0.7699
H57 H 1.1368 -0.1387 0.8510
H58 H 1.2956 -0.1878 0.8255
F2 F 1.06416(14) 0.76409(13) 0.98997(8)
O7 O 0.47970(15) 0.66613(15) 0.93326(9)
O8 O 0.51151(16) 0.50209(15) 0.86143(8)
O9 O 0.75674(16) 0.37829(14) 0.80553(8)
O10 O 1.02025(16) 0.31788(13) 0.79787(9)
O11 O 1.34426(18) 0.33128(17) 0.78317(11)
O12 O 1.33861(19) 0.27473(16) 0.90982(11)
S2 S 1.27549(6) 0.29725(5) 0.84728(4)
H59? H 0.8311 0.9425 0.9669
H60? H 0.7957 1.0691 0.9407
H61? H 0.9063 0.9797 0.8948
C57? C 0.6158(8) 0.9787(6) 0.9424(4)
loop_
_geom_bond_atom_site_label_1
_geom_bond_atom_site_label_2
_geom_bond_site_symmetry_1
_geom_bond_site_symmetry_2
C1 H1 1_555 1_555
H2 C1 1_555 1_555
H3 C1 1_555 1_555
C2 H4 1_555 1_555
H5 C2 1_555 1_555
H6 C2 1_555 1_555
C3 H7 1_555 1_555
H8 C3 1_555 1_555
H9 C3 1_555 1_555
C4 H10 1_555 1_555
H11 C4 1_555 1_555
C5 C4 1_555 1_555
H12 C5 1_555 1_555
H13 C5 1_555 1_555
C6 C5 1_555 1_555
H14 C6 1_555 1_555
H15 C6 1_555 1_555
C7 C8 1_555 1_555
C8 C9 1_555 1_555
C9 C10 1_555 1_555
C10 C11 1_555 1_555
C11 C12 1_555 1_555
C12 C13 1_555 1_555
C13 C14 1_555 1_555
C14 H16 1_555 1_555
C15 C14 1_555 1_555
H17 C15 1_555 1_555
C16 C15 1_555 1_555
C17 C16 1_555 1_555
H18 C17 1_555 1_555
C18 C13 1_555 1_555
C19 C10 1_555 1_555
C20 C7 1_555 1_555
H19 C20 1_555 1_555
C21 C22 1_555 1_555
C22 H20 1_555 1_555
C23 C22 1_555 1_555
H21 C23 1_555 1_555
C24 C23 1_555 1_555
C25 C24 1_555 1_555
H22 C25 1_555 1_555
C26 C21 1_555 1_555
H23 C26 1_555 1_555
C27 C24 1_555 1_555
H24 C27 1_555 1_555
H25 C27 1_555 1_555
H26 C27 1_555 1_555
F1 C16 1_555 1_555
O1 C1 1_555 1_555
O2 C2 1_555 1_555
O3 C3 1_555 1_555
O4 C4 1_555 1_555
O5 S1 1_555 1_555
O6 S1 1_555 1_555
S1 C12 1_555 1_555
H27 C28 1_555 1_555
H28 C28 1_555 1_555
H29 C28 1_555 1_555
C28 C6 1_555 1_555
C29 H30 1_555 1_555
H31 C29 1_555 1_555
H32 C29 1_555 1_555
C30 H33 1_555 1_555
H34 C30 1_555 1_555
H35 C30 1_555 1_555
C31 H36 1_555 1_555
H37 C31 1_555 1_555
H38 C31 1_555 1_555
C32 H39 1_555 1_555
H40 C32 1_555 1_555
C33 C32 1_555 1_555
H41 C33 1_555 1_555
H42 C33 1_555 1_555
C34 C33 1_555 1_555
H43 C34 1_555 1_555
H44 C34 1_555 1_555
C35 C34 1_555 1_555
H45 C35 1_555 1_555
H46 C35 1_555 1_555
H47 C35 1_555 1_555
C36 C37 1_555 1_555
C37 C38 1_555 1_555
C38 C39 1_555 1_555
C39 C40 1_555 1_555
C40 C41 1_555 1_555
C41 C42 1_555 1_555
C42 C43 1_555 1_555
C43 H48 1_555 1_555
C44 C43 1_555 1_555
H49 C44 1_555 1_555
C45 C44 1_555 1_555
C46 C45 1_555 1_555
H50 C46 1_555 1_555
C47 C42 1_555 1_555
C48 C39 1_555 1_555
C49 C36 1_555 1_555
H51 C49 1_555 1_555
C50 C51 1_555 1_555
C51 H52 1_555 1_555
C52 C51 1_555 1_555
H53 C52 1_555 1_555
C53 C52 1_555 1_555
C54 C53 1_555 1_555
H54 C54 1_555 1_555
C55 C50 1_555 1_555
H55 C55 1_555 1_555
C56 C53 1_555 1_555
H56 C56 1_555 1_555
H57 C56 1_555 1_555
H58 C56 1_555 1_555
F2 C45 1_555 1_555
O7 C29 1_555 1_555
O8 C30 1_555 1_555
O9 C31 1_555 1_555
O10 C32 1_555 1_555
O11 S2 1_555 1_555
O12 S2 1_555 1_555
S2 C41 1_555 1_555
C7 O1 1_555 1_555
C8 O2 1_555 1_555
C9 O3 1_555 1_555
C11 O4 1_555 1_555
C17 C18 1_555 1_555
C18 C19 1_555 1_555
C19 C20 1_555 1_555
C21 S1 1_555 1_555
C25 C26 1_555 1_555
C36 O7 1_555 1_555
C37 O8 1_555 1_555
C38 O9 1_555 1_555
C40 O10 1_555 1_555
C46 C47 1_555 1_555
C47 C48 1_555 1_555
C48 C49 1_555 1_555
C50 S2 1_555 1_555
C54 C55 1_555 1_555

#END
