
#######################################################################
#
#                 Cambridge Crystallographic Data Centre
#                                CCDC 
#
#######################################################################
#
# If this CIF has been generated from an entry in the Cambridge 
# Structural Database, then it will include bibliographic, chemical, 
# crystal, experimental, refinement or atomic coordinate data resulting 
# from the CCDC's data processing and validation procedures.
#
#######################################################################

data_PUDNUZ
_chemical_formula_moiety         
'C29 H38 N2 O6 2+,0.5(C4 H8 O2),2(H2 O1),2(Br1 1-)'
_chemical_name_systematic        
'1-(2-Ammonioethyl)-4-(2-(2,3,5,6,8,9,11,12,14,15-decahydro-1,4,7,10,13,16-benzohexaoxacyclo-octadecin-18-yl)vinyl)quinolinium dibromide 1,4-dioxane solvate dihydrate'
_symmetry_cell_setting           triclinic
_symmetry_space_group_name_H-M   'P -1'
_symmetry_Int_Tables_number      2
_space_group_name_Hall           '-P 1'
loop_
_symmetry_equiv_pos_site_id
_symmetry_equiv_pos_as_xyz
1 x,y,z
2 -x,-y,-z
_cell_length_a                   11.4310(11)
_cell_length_b                   11.6678(11)
_cell_length_c                   14.7274(14)
_cell_angle_alpha                104.737(2)
_cell_angle_beta                 95.770(2)
_cell_angle_gamma                114.086(2)
_cell_volume                     1687.16
_exptl_crystal_colour            'red orange'
_exptl_crystal_description       block
_cell_formula_units_Z            2
loop_
_atom_site_label
_atom_site_type_symbol
_atom_site_fract_x
_atom_site_fract_y
_atom_site_fract_z
Br1 Br 1.04607(4) 0.73618(4) 0.94268(3)
Br2 Br 0.46754(8) 0.7105(3) 0.31825(6)
O1 O 1.0302(3) 0.9809(3) 0.71923(19)
O2 O 0.9772(3) 1.4147(4) 0.6698(3)
O3 O 0.7904(3) 1.1359(3) 0.5445(2)
O4 O 0.8773(3) 0.9507(2) 0.56678(18)
N1 N 0.0405(4) -0.3197(4) 0.1516(3)
H1 H -0.0441 -0.3554 0.1582
H2 H 0.0813 -0.3663 0.1685
H3 H 0.0407 -0.3234 0.0892
N2 N 0.3210(3) 0.0185(3) 0.2575(2)
C1 C 0.3928(4) 0.0567(4) 0.3470(3)
H4 H 0.3910 -0.0093 0.3743
C2 C 0.4680(4) 0.1865(4) 0.4001(3)
H5 H 0.5151 0.2088 0.4640
C3 C 0.4776(3) 0.2874(4) 0.3631(3)
C4 C 0.3966(3) 0.2493(4) 0.2698(3)
C5 C 0.3902(4) 0.3422(4) 0.2264(3)
H6 H 0.4435 0.4344 0.2591
C6 C 0.3089(4) 0.3018(4) 0.1387(3)
H7 H 0.3052 0.3661 0.1113
C7 C 0.2307(4) 0.1666(4) 0.0882(3)
H8 H 0.1742 0.1399 0.0270
C8 C 0.2348(4) 0.0732(4) 0.1260(3)
H9 H 0.1822 -0.0184 0.0910
C9 C 0.3169(3) 0.1123(4) 0.2169(2)
C10 C 0.5663(4) 0.4247(4) 0.4162(3)
H10 H 0.5661 0.4902 0.3888
C11 C 0.6490(4) 0.4652(4) 0.5020(3)
H11 H 0.6457 0.3979 0.5283
C12 C 0.7430(3) 0.6009(4) 0.5591(3)
C13 C 0.8221(4) 0.6214(4) 0.6457(3)
H12 H 0.8090 0.5477 0.6671
C14 C 0.9196(4) 0.7465(4) 0.7018(3)
H13 H 0.9740 0.7578 0.7598
C15 C 0.9364(3) 0.8539(3) 0.6722(2)
C16 C 0.8541(3) 0.8364(3) 0.5866(2)
C17 C 0.7607(3) 0.7116(3) 0.5300(2)
H14 H 0.7080 0.7002 0.4711
C18 C 1.1250(4) 0.9993(4) 0.8012(3)
H15 H 1.1592 0.9331 0.7842
H16 H 1.0831 0.9881 0.8561
C19 C 1.2356(4) 1.1380(4) 0.8280(3)
H17 H 1.2959 1.1547 0.8883
H18 H 1.2857 1.1402 0.7769
O5 O 1.1876(5) 1.2312(5) 0.8757(4)
C20 C 1.2880(6) 1.3637(6) 0.9107(5)
H19 H 1.3705 1.3648 0.9400
H20 H 1.2631 1.4164 0.9620
C21 C 1.3135(6) 1.4288(7) 0.8332(5)
H21 H 1.3934 1.5152 0.8588
H22 H 1.3275 1.3716 0.7775
O6 O 1.2042(7) 1.4476(8) 0.8043(5)
C22 C 1.2136(6) 1.5011(8) 0.7262(5)
H23 H 1.2101 1.4355 0.6667
H24 H 1.2980 1.5824 0.7421
C23 C 1.0988(6) 1.5333(6) 0.7108(5)
H25 H 1.0941 1.5862 0.7734
H26 H 1.1130 1.5875 0.6673
C24 C 0.9326(5) 1.3718(5) 0.5676(4)
H27 H 0.9941 1.3446 0.5364
H28 H 0.9308 1.4460 0.5476
C25 C 0.7959(4) 1.2561(4) 0.5358(3)
H29 H 0.7387 1.2806 0.5745
H30 H 0.7594 1.2406 0.4675
C26 C 0.8422(4) 1.0754(4) 0.4742(3)
H31 H 0.9391 1.1275 0.4887
H32 H 0.8050 1.0723 0.4094
C27 C 0.8066(4) 0.9382(4) 0.4761(3)
H33 H 0.7106 0.8890 0.4695
H34 H 0.8315 0.8894 0.4223
C28 C 0.2489(4) -0.1254(4) 0.2030(3)
H35 H 0.2943 -0.1721 0.2268
H36 H 0.2489 -0.1397 0.1338
C29 C 0.1101(4) -0.1819(4) 0.2141(3)
H37 H 0.1091 -0.1769 0.2821
H38 H 0.0664 -0.1304 0.1961
O9 O 0.5010(5) 1.0322(6) 0.9119(4)
C34 C 0.5588(8) 1.1375(8) 1.0103(6)
H49 H 0.6353 1.2158 1.0070
H50 H 0.4922 1.1661 1.0302
C35 C 0.3992(8) 0.9142(9) 0.9180(6)
H51 H 0.3660 0.8448 0.8538
H52 H 0.3252 0.9324 0.9344
O9A O 0.4990(5) 0.9678(6) 1.0881(4)
C34A C 0.4412(8) 0.8625(8) 0.9897(6)
H49A H 0.3647 0.7842 0.9930
H50A H 0.5078 0.8339 0.9698
C35A C 0.6008(8) 1.0858(9) 1.0820(6)
H51A H 0.6340 1.1552 1.1462
H52A H 0.6748 1.0676 1.0656
O10 O 0.7949(4) 0.4415(4) 0.8616(3)
H53 H 0.8530 0.5240 0.8887
H54 H 0.7270 0.4375 0.8259
O11 O 0.6013(6) 0.9967(7) 0.2796(5)
H55 H 0.5469 1.0048 0.3151
H56 H 0.5667 0.9811 0.2197
Br3? Br 0.4855(16) 0.775(4) 0.3291(10)
H39? H 1.3127 1.1474 0.8721
H40? H 1.2627 1.1565 0.7695
O7? O 1.2065(17) 1.2323(17) 0.8403(14)
C30? C 1.3162(19) 1.357(2) 0.8640(18)
H41? H 1.3746 1.3521 0.8195
H42? H 1.3667 1.3819 0.9304
C31? C 1.274(3) 1.468(2) 0.8575(17)
H43? H 1.2210 1.4787 0.9050
H44? H 1.3540 1.5543 0.8730
O8? O 1.204(2) 1.436(2) 0.7682(16)
C32? C 1.187(3) 1.539(3) 0.756(2)
H45? H 1.1343 1.5597 0.8009
H46? H 1.2748 1.6175 0.7755
C33? C 1.135(2) 1.527(3) 0.675(2)
H47? H 1.1731 1.4901 0.6251
H48? H 1.1391 1.6114 0.6705
loop_
_geom_bond_atom_site_label_1
_geom_bond_atom_site_label_2
_geom_bond_site_symmetry_1
_geom_bond_site_symmetry_2
O1 C15 1_555 1_555
O2 C23 1_555 1_555
O3 C25 1_555 1_555
O4 C16 1_555 1_555
N1 H1 1_555 1_555
H2 N1 1_555 1_555
H3 N1 1_555 1_555
N2 C1 1_555 1_555
C1 H4 1_555 1_555
C2 C1 1_555 1_555
H5 C2 1_555 1_555
C3 C2 1_555 1_555
C4 C3 1_555 1_555
C5 C4 1_555 1_555
H6 C5 1_555 1_555
C6 C5 1_555 1_555
H7 C6 1_555 1_555
C7 C6 1_555 1_555
H8 C7 1_555 1_555
C8 C7 1_555 1_555
H9 C8 1_555 1_555
C9 N2 1_555 1_555
C10 C3 1_555 1_555
H10 C10 1_555 1_555
C11 C10 1_555 1_555
H11 C11 1_555 1_555
C12 C11 1_555 1_555
C13 C12 1_555 1_555
H12 C13 1_555 1_555
C14 C13 1_555 1_555
H13 C14 1_555 1_555
C15 C14 1_555 1_555
C16 C15 1_555 1_555
C17 C12 1_555 1_555
H14 C17 1_555 1_555
C18 O1 1_555 1_555
H15 C18 1_555 1_555
H16 C18 1_555 1_555
C19 C18 1_555 1_555
H17 C19 1_555 1_555
H18 C19 1_555 1_555
O5 C19 1_555 1_555
C20 O5 1_555 1_555
H19 C20 1_555 1_555
H20 C20 1_555 1_555
C21 C20 1_555 1_555
H21 C21 1_555 1_555
H22 C21 1_555 1_555
O6 C21 1_555 1_555
C22 O6 1_555 1_555
H23 C22 1_555 1_555
H24 C22 1_555 1_555
C23 C22 1_555 1_555
H25 C23 1_555 1_555
H26 C23 1_555 1_555
C24 O2 1_555 1_555
H27 C24 1_555 1_555
H28 C24 1_555 1_555
C25 C24 1_555 1_555
H29 C25 1_555 1_555
H30 C25 1_555 1_555
C26 O3 1_555 1_555
H31 C26 1_555 1_555
H32 C26 1_555 1_555
C27 O4 1_555 1_555
H33 C27 1_555 1_555
H34 C27 1_555 1_555
C28 N2 1_555 1_555
H35 C28 1_555 1_555
H36 C28 1_555 1_555
C29 N1 1_555 1_555
H37 C29 1_555 1_555
H38 C29 1_555 1_555
O9 C34 1_555 1_555
C34 H49 1_555 1_555
H50 C34 1_555 1_555
C35 O9 1_555 1_555
H51 C35 1_555 1_555
H52 C35 1_555 1_555
O10 H53 1_555 1_555
H54 O10 1_555 1_555
O11 H55 1_555 1_555
H56 O11 1_555 1_555
O9A C34A 1_555 1_555
C34A C35 1_555 1_555
H49A C34A 1_555 1_555
H50A C34A 1_555 1_555
C35A C34 1_555 1_555
H51A C35A 1_555 1_555
H52A C35A 1_555 1_555
C4 C9 1_555 1_555
C8 C9 1_555 1_555
C16 C17 1_555 1_555
C26 C27 1_555 1_555
C28 C29 1_555 1_555
O9A C35A 1_555 1_555

#END
