
#######################################################################
#
#                 Cambridge Crystallographic Data Centre
#                                CCDC 
#
#######################################################################
#
# If this CIF has been generated from an entry in the Cambridge 
# Structural Database, then it will include bibliographic, chemical, 
# crystal, experimental, refinement or atomic coordinate data resulting 
# from the CCDC's data processing and validation procedures.
#
#######################################################################

data_PUDNEJ
_chemical_formula_moiety         'C25 H36 N2 O6 2+,3(H2 O1),2(Br1 1-)'
_chemical_name_systematic        
'1-(2-Ammonioethyl)-4-(2-(2,3,5,6,8,9,11,12,14,15-decahydro-1,4,7,10,13,16-benzohexaoxacyclooctadecin-18-yl)vinyl)pyridinium dibromide trihydrate'
_symmetry_cell_setting           monoclinic
_symmetry_space_group_name_H-M   'C 2/c'
_symmetry_Int_Tables_number      15
_space_group_name_Hall           '-C 2yn'
loop_
_symmetry_equiv_pos_site_id
_symmetry_equiv_pos_as_xyz
1 x,y,z
2 -x,y,1/2-z
3 1/2+x,1/2+y,z
4 1/2-x,1/2+y,1/2-z
5 -x,-y,-z
6 x,-y,1/2+z
7 1/2-x,1/2-y,-z
8 1/2+x,1/2-y,1/2+z
_cell_length_a                   35.487(2)
_cell_length_b                   9.7899(6)
_cell_length_c                   18.4307(12)
_cell_angle_alpha                90
_cell_angle_beta                 112.139(2)
_cell_angle_gamma                90
_cell_volume                     5931
_exptl_crystal_colour            orange
_exptl_crystal_description       block
_cell_formula_units_Z            8
loop_
_atom_site_label
_atom_site_type_symbol
_atom_site_fract_x
_atom_site_fract_y
_atom_site_fract_z
Br1 Br -0.018844(13) 0.66159(4) 0.08839(3)
Br2 Br 0.263045(14) 0.85807(4) 0.31266(3)
O1 O 0.07945(7) 1.2640(2) 0.32200(14)
O2 O 0.14371(7) 1.3711(2) 0.45309(14)
O3 O 0.07345(7) 1.0049(2) 0.29513(14)
N1 N -0.15073(9) 0.9231(3) -0.21224(16)
N2 N -0.15392(8) 0.8769(3) -0.38164(16)
H1 H -0.1467 0.8219 -0.4141
H2 H -0.1314 0.9192 -0.3474
H3 H -0.1720 0.9409 -0.4105
C1 C -0.1493(4) 1.0621(8) -0.2094(8)
H4 H -0.1687 1.1163 -0.2485
C2 C -0.1181(3) 1.1208(9) -0.1467(6)
H5 H -0.1155 1.2175 -0.1441
C3 C -0.0905(3) 1.0417(11) -0.0875(5)
C4 C -0.0949(3) 0.8995(11) -0.0930(5)
H6 H -0.0776 0.8422 -0.0525
C5 C -0.1245(4) 0.8443(11) -0.1577(8)
H7 H -0.1262 0.7479 -0.1638
C6 C -0.0594(2) 1.1105(6) -0.0207(4)
H8 H -0.0579 1.2074 -0.0215
C7 C -0.0334(2) 1.0443(8) 0.0411(4)
H9 H -0.0344 0.9473 0.0398
C8 C -0.0032(4) 1.1084(11) 0.1110(7)
C9 C 0.0021(5) 1.2489(12) 0.1179(9)
H10 H -0.0132 1.3046 0.0747
C10 C 0.0215(4) 1.0238(10) 0.1709(6)
H11 H 0.0197 0.9272 0.1667
C11 C 0.03083(12) 1.3167(4) 0.1907(2)
H12 H 0.0337 1.4131 0.1959
C12 C 0.05266(10) 1.2276(4) 0.2490(2)
C13 C 0.04805(10) 1.0856(3) 0.2352(2)
C14 C 0.08117(11) 1.4064(3) 0.3434(2)
H13 H 0.0534 1.4447 0.3267
H14 H 0.0965 1.4590 0.3176
C15 C 0.10201(10) 1.4147(4) 0.4301(2)
H15 H 0.1011 1.5099 0.4476
H16 H 0.0878 1.3558 0.4553
C16 C 0.16486(13) 1.3853(5) 0.5358(2)
H17 H 0.1703 1.4832 0.5491
H18 H 0.1477 1.3501 0.5633
C17 C 0.2206(2) 1.0943(6) 0.5810(3)
H19 H 0.2315 1.1154 0.6377
H20 H 0.2426 1.1123 0.5614
O4 O 0.19212(19) 1.1741(6) 0.5475(3)
C18 C 0.2018(5) 1.3132(16) 0.5609(12)
H21 H 0.2184 1.3431 0.5312
H22 H 0.2174 1.3299 0.6173
C19 C 0.2106(3) 0.9472(10) 0.5710(5)
H23 H 0.2352 0.8930 0.6004
H24 H 0.1897 0.9263 0.5929
O5 O 0.19619(19) 0.9105(6) 0.4922(4)
C20 C 0.1822(3) 0.7730(10) 0.4823(6)
H25 H 0.1589 0.7631 0.4990
H26 H 0.2042 0.7109 0.5143
C21 C 0.1690(3) 0.7372(8) 0.3947(5)
H27 H 0.1927 0.7469 0.3792
H28 H 0.1602 0.6406 0.3868
O6 O 0.1360(2) 0.8235(12) 0.3439(4)
C22 C 0.09860(14) 0.7952(4) 0.3565(4)
H29 H 0.0989 0.8379 0.4054
H30 H 0.0939 0.6958 0.3582
C23 C 0.06759(12) 0.8597(4) 0.2862(3)
H31 H 0.0711 0.8283 0.2381
H32 H 0.0399 0.8349 0.2824
C24 C -0.18563(12) 0.8740(5) -0.2809(2)
H33 H -0.2035(12) 0.961(4) -0.313(2)
H34 H -0.2002(13) 0.819(4) -0.263(3)
C25 C -0.17308(11) 0.7933(4) -0.3373(2)
H35 H -0.1536 0.7216 -0.3078
H36 H -0.1974 0.7469 -0.3750
O10 O 0.12337(9) 0.4790(3) 0.21531(19)
H60 H 0.1467 0.5205 0.2289
H61 H 0.1051 0.5246 0.1780
O11 O 0.19560(10) 0.6169(4) 0.2430(3)
H62 H 0.2144 0.6796 0.2559
H63 H 0.2060 0.5393 0.2370
O12 O 0.06380(8) 0.5441(3) 0.07116(17)
H64 H 0.0459 0.5917 0.0819
H65 H 0.0515 0.4912 0.0313
C26? C -0.1381(4) 1.0528(10) -0.1896(9)
H37? H -0.1516 1.1272 -0.2220
C27? C -0.1058(4) 1.0777(15) -0.1201(8)
H38? H -0.0978 1.1696 -0.1057
C28? C -0.0847(3) 0.9748(16) -0.0710(7)
C29? C -0.0963(4) 0.8406(14) -0.0945(8)
H39? H -0.0814 0.7659 -0.0641
C30? C -0.1296(6) 0.8183(14) -0.1626(11)
H40? H -0.1386 0.7270 -0.1762
C31? C -0.0510(3) 1.0031(10) 0.0039(6)
H41? H -0.0394 0.9267 0.0364
C32? C -0.0355(3) 1.1227(12) 0.0301(5)
H42? H -0.0469 1.1977 -0.0038
C33? C -0.0031(5) 1.1563(16) 0.1046(8)
C34? C 0.0052(7) 1.2915(16) 0.1241(13)
H43? H -0.0079 1.3625 0.0884
C35? C 0.0180(5) 1.0582(14) 0.1588(9)
H44? H 0.0122 0.9652 0.1442
H45? H 0.034(3) 1.392(10) 0.205(6)
H46? H 0.161(3) 1.307(10) 0.563(6)
H47? H 0.157(3) 1.471(10) 0.555(5)
H48? H 0.185(4) 1.087(14) 0.553(7)
H49? H 0.239(3) 1.121(11) 0.643(7)
O7? O 0.21805(16) 1.2127(5) 0.5315(3)
C36? C 0.2101(5) 1.3447(17) 0.5570(12)
H50? H 0.2228 1.4145 0.5346
H51? H 0.2240 1.3490 0.6146
C37? C 0.2312(4) 0.9804(12) 0.5589(6)
H52? H 0.2255 0.9062 0.5898
H53? H 0.2610 0.9827 0.5729
O8? O 0.2127(3) 0.9453(9) 0.4787(4)
C38? C 0.2096(3) 0.8054(9) 0.4565(6)
H54? H 0.2294 0.7513 0.4993
H55? H 0.2164 0.7953 0.4094
C39? C 0.1686(4) 0.7525(12) 0.4397(10)
H56? H 0.1678 0.6534 0.4284
H57? H 0.1611 0.7658 0.4857
O9? O 0.1409(3) 0.8220(14) 0.3746(6)
H58? H 0.096(3) 0.831(10) 0.401(6)
H59? H 0.093(3) 0.703(11) 0.349(6)
loop_
_geom_bond_atom_site_label_1
_geom_bond_atom_site_label_2
_geom_bond_site_symmetry_1
_geom_bond_site_symmetry_2
O1 C12 1_555 1_555
O2 C15 1_555 1_555
O3 C13 1_555 1_555
N1 C1 1_555 1_555
N2 H1 1_555 1_555
H2 N2 1_555 1_555
H3 N2 1_555 1_555
C1 H4 1_555 1_555
C2 C1 1_555 1_555
H5 C2 1_555 1_555
C3 C2 1_555 1_555
C4 C3 1_555 1_555
H6 C4 1_555 1_555
C5 N1 1_555 1_555
H7 C5 1_555 1_555
C6 C3 1_555 1_555
H8 C6 1_555 1_555
C7 C6 1_555 1_555
H9 C7 1_555 1_555
C8 C7 1_555 1_555
C9 C8 1_555 1_555
H10 C9 1_555 1_555
C10 C8 1_555 1_555
H11 C10 1_555 1_555
C11 C9 1_555 1_555
H12 C11 1_555 1_555
C12 C11 1_555 1_555
C13 C10 1_555 1_555
C14 O1 1_555 1_555
H13 C14 1_555 1_555
H14 C14 1_555 1_555
C15 C14 1_555 1_555
H15 C15 1_555 1_555
H16 C15 1_555 1_555
C16 O2 1_555 1_555
H17 C16 1_555 1_555
H18 C16 1_555 1_555
C17 H19 1_555 1_555
H20 C17 1_555 1_555
O4 C17 1_555 1_555
C18 C16 1_555 1_555
H21 C18 1_555 1_555
H22 C18 1_555 1_555
C19 C17 1_555 1_555
H23 C19 1_555 1_555
H24 C19 1_555 1_555
O5 C19 1_555 1_555
C20 O5 1_555 1_555
H25 C20 1_555 1_555
H26 C20 1_555 1_555
C21 C20 1_555 1_555
H27 C21 1_555 1_555
H28 C21 1_555 1_555
O6 C21 1_555 1_555
C22 O6 1_555 1_555
H29 C22 1_555 1_555
H30 C22 1_555 1_555
C23 O3 1_555 1_555
H31 C23 1_555 1_555
H32 C23 1_555 1_555
C24 N1 1_555 1_555
H33 C24 1_555 1_555
H34 C24 1_555 1_555
C25 N2 1_555 1_555
H35 C25 1_555 1_555
H36 C25 1_555 1_555
O10 H60 1_555 1_555
H61 O10 1_555 1_555
O11 H62 1_555 1_555
H63 O11 1_555 1_555
O12 H64 1_555 1_555
H65 O12 1_555 1_555
C4 C5 1_555 1_555
C12 C13 1_555 1_555
O4 C18 1_555 1_555
C22 C23 1_555 1_555
C24 C25 1_555 1_555

#END
