
#######################################################################
#
#                 Cambridge Crystallographic Data Centre
#                                CCDC 
#
#######################################################################
#
# If this CIF has been generated from an entry in the Cambridge 
# Structural Database, then it will include bibliographic, chemical, 
# crystal, experimental, refinement or atomic coordinate data resulting 
# from the CCDC's data processing and validation procedures.
#
#######################################################################

data_PUDNAF
_chemical_formula_moiety         'C25 H36 N2 O6 2+,2(Cl1 O4 1-)'
_chemical_name_systematic        
'1-(2-Ammonioethyl)-4-(2-(2,3,5,6,8,9,11,12,14,15-decahydro-1,4,7,10,13,16-benzohexaoxacyclo-octadecin-18-yl)vinyl)pyridinium diperchlorate'
_symmetry_cell_setting           monoclinic
_symmetry_space_group_name_H-M   'P 21/c'
_symmetry_Int_Tables_number      14
_space_group_name_Hall           '-P 2ybc'
loop_
_symmetry_equiv_pos_site_id
_symmetry_equiv_pos_as_xyz
1 x,y,z
2 -x,1/2+y,1/2-z
3 -x,-y,-z
4 x,1/2-y,1/2+z
_cell_length_a                   10.316(2)
_cell_length_b                   15.932(3)
_cell_length_c                   18.450(3)
_cell_angle_alpha                90
_cell_angle_beta                 101.066(7)
_cell_angle_gamma                90
_cell_volume                     2975.96
_exptl_crystal_colour            yellow
_exptl_crystal_description       block
_cell_formula_units_Z            4
loop_
_atom_site_label
_atom_site_type_symbol
_atom_site_fract_x
_atom_site_fract_y
_atom_site_fract_z
Cl1 Cl 0.65500(14) 0.58252(7) 0.20965(6)
O1 O 0.6190(4) 0.64932(18) 0.15900(15)
O2 O 0.6809(13) 0.6062(5) 0.2827(5)
O3 O 0.7705(18) 0.5432(12) 0.1934(10)
O4 O 0.5334(14) 0.5248(7) 0.1950(7)
O11 O 1.0179(3) 0.3011(2) 0.02694(17)
O12 O 0.8017(3) 0.2504(2) 0.00374(17)
Cl2 Cl 0.9045(9) 0.2774(5) 0.0582(4)
O13 O 0.9288(11) 0.2100(6) 0.1093(5)
O14 O 0.8680(10) 0.3513(6) 0.0950(6)
O17 O 0.5344(3) -0.10457(16) 0.14110(13)
O18 O 0.4224(3) -0.19620(16) 0.24854(14)
O19 O 0.5392(3) -0.19252(19) 0.40804(15)
O20 O 0.6649(4) -0.0319(2) 0.43620(17)
O21 O 0.7978(4) 0.04985(18) 0.33013(16)
O22 O 0.7006(3) 0.01492(15) 0.17898(13)
N1 N 1.1174(4) 0.1695(2) -0.21935(19)
N2 N 1.3473(3) 0.10223(19) -0.29563(16)
C1 C 1.1391(5) 0.2014(3) -0.1507(2)
H1 H 1.2016(5) 0.2453(3) -0.1378(2)
C2 C 1.0716(4) 0.1709(2) -0.0992(2)
H2 H 1.0860(4) 0.1953(2) -0.0513(2)
C3 C 0.9823(4) 0.1048(2) -0.1156(2)
C4 C 0.9622(4) 0.0736(3) -0.1875(2)
H3 H 0.9014(4) 0.0291(3) -0.2017(2)
C5 C 1.0300(4) 0.1071(3) -0.2379(2)
H4 H 1.0146(4) 0.0857(3) -0.2869(2)
C6 C 0.9132(4) 0.0740(2) -0.0591(2)
H5 H 0.9323(4) 0.1005(2) -0.0122(2)
C7 C 0.8248(4) 0.0113(3) -0.0680(2)
H6 H 0.8090(4) -0.0164(3) -0.1145(2)
C8 C 0.7495(4) -0.0190(2) -0.0128(2)
C9 C 0.6611(4) -0.0838(2) -0.0317(2)
H7 H 0.6509(4) -0.1081(2) -0.0795(2)
C10 C 0.5867(4) -0.1143(2) 0.0177(2)
H8 H 0.5261(4) -0.1590(2) 0.0036(2)
C11 C 0.6009(4) -0.0796(2) 0.08730(19)
C12 C 0.6904(4) -0.0134(2) 0.10746(18)
C13 C 0.7650(4) 0.0173(2) 0.05819(19)
H9 H 0.8255(4) 0.0620(2) 0.07202(19)
C14 C 0.4310(4) -0.1657(2) 0.1222(2)
H10 H 0.3756(4) -0.1521(2) 0.0736(2)
H11 H 0.4693(4) -0.2223(2) 0.1194(2)
C15 C 0.3495(4) -0.1633(3) 0.1813(2)
H12 H 0.2681(4) -0.1967(3) 0.1656(2)
H13 H 0.3234(4) -0.1047(3) 0.1891(2)
C16 C 0.3474(4) -0.1926(3) 0.3068(2)
H14 H 0.3319(4) -0.1334(3) 0.3192(2)
H15 H 0.2607(4) -0.2203(3) 0.2909(2)
C17 C 0.4265(5) -0.2375(3) 0.3740(2)
H16 H 0.4541(5) -0.2932(3) 0.3586(2)
H17 H 0.3689(5) -0.2468(3) 0.4105(2)
C18 C 0.5183(6) -0.1353(3) 0.4627(2)
H18 H 0.4479(6) -0.0953(3) 0.4415(2)
H19 H 0.4892(6) -0.1660(3) 0.5034(2)
C19 C 0.6409(6) -0.0891(3) 0.4918(2)
C20 C 0.7865(7) 0.0137(4) 0.4558(3)
C21 C 0.7776(19) 0.0852(5) 0.4007(4)
H20 H 0.8461(19) 0.1279(5) 0.4186(4)
H21 H 0.6899(19) 0.1124(5) 0.3943(4)
C22 C 0.7673(6) 0.1136(3) 0.2757(2)
H22 H 0.6737(6) 0.1304(3) 0.2710(2)
H23 H 0.8231(6) 0.1635(3) 0.2910(2)
C23 C 0.7909(5) 0.0828(2) 0.2028(2)
H24 H 0.8831(5) 0.0631(2) 0.2077(2)
H25 H 0.7762(5) 0.1289(2) 0.1661(2)
C24 C 1.1860(6) 0.2095(3) -0.2756(3)
C25 C 1.2319(6) 0.1533(3) -0.3279(3)
H26 H 1.2544(6) 0.1873(3) -0.3687(3)
H27 H 1.1586(6) 0.1153(3) -0.3493(3)
H28 H 1.1247(6) 0.2507(3) -0.3042(3)
H29 H 1.2631(6) 0.2412(3) -0.2489(3)
H30 H 1.3715(18) 0.0699(14) -0.3315(4)
H31 H 1.4155(9) 0.13654(19) -0.2758(14)
H32 H 1.3264(9) 0.0687(13) -0.2596(11)
H33 H 0.7973(7) 0.0358(4) 0.5067(3)
H34 H 0.8626(7) -0.0230(4) 0.4526(3)
H35 H 0.7157(6) -0.1288(3) 0.5045(2)
H36 H 0.6317(6) -0.0581(3) 0.5370(2)
O5? O 0.7559(14) 0.6014(7) 0.2737(7)
O6? O 0.7297(12) 0.5165(7) 0.1707(6)
O7? O 0.549(2) 0.5329(12) 0.2254(11)
O8? O 0.6138(11) 0.6194(6) 0.2813(5)
O9? O 0.7937(14) 0.5856(9) 0.2205(8)
O10? O 0.6001(13) 0.5072(7) 0.1931(6)
Cl3? Cl 0.9241(11) 0.2644(7) 0.0618(5)
O15? O 0.9835(15) 0.1887(6) 0.0933(6)
O16? O 0.8924(12) 0.3194(10) 0.1171(7)
C26? C 0.843(5) 0.072(2) 0.4055(13)
H37? H 0.941(5) 0.069(2) 0.4173(13)
H38? H 0.817(5) 0.130(2) 0.4137(13)
C27? C 1.291(2) 0.1919(12) -0.2840(12)
H39? H 1.352(2) 0.2155(12) -0.2407(12)
H40? H 1.306(2) 0.2253(12) -0.3270(12)
H41? H 1.1268(6) 0.2016(3) -0.3241(3)
H42? H 1.1878(6) 0.2706(3) -0.2655(3)
H43? H 1.305(8) 0.081(3) -0.340(3)
H44? H 1.435(2) 0.1060(11) -0.296(6)
H45? H 1.334(10) 0.068(2) -0.258(4)
H46? H 0.7787(7) 0.0473(4) 0.4999(3)
H47? H 0.8557(7) -0.0289(4) 0.4726(3)
loop_
_geom_bond_atom_site_label_1
_geom_bond_atom_site_label_2
_geom_bond_site_symmetry_1
_geom_bond_site_symmetry_2
Cl1 O1 1_555 1_555
O2 Cl1 1_555 1_555
O3 Cl1 1_555 1_555
O4 Cl1 1_555 1_555
O11 Cl2 1_555 1_555
O12 Cl2 1_555 1_555
Cl2 O13 1_555 1_555
O14 Cl2 1_555 1_555
O17 C11 1_555 1_555
O18 C15 1_555 1_555
O19 C17 1_555 1_555
O20 C19 1_555 1_555
O21 C21 1_555 1_555
O22 C12 1_555 1_555
N1 C1 1_555 1_555
N2 C25 1_555 1_555
C1 H1 1_555 1_555
C2 C1 1_555 1_555
H2 C2 1_555 1_555
C3 C2 1_555 1_555
C4 C3 1_555 1_555
H3 C4 1_555 1_555
C5 N1 1_555 1_555
H4 C5 1_555 1_555
C6 C3 1_555 1_555
H5 C6 1_555 1_555
C7 C6 1_555 1_555
H6 C7 1_555 1_555
C8 C7 1_555 1_555
C9 C8 1_555 1_555
H7 C9 1_555 1_555
C10 C9 1_555 1_555
H8 C10 1_555 1_555
C11 C10 1_555 1_555
C12 C11 1_555 1_555
C13 C8 1_555 1_555
H9 C13 1_555 1_555
C14 O17 1_555 1_555
H10 C14 1_555 1_555
H11 C14 1_555 1_555
C15 C14 1_555 1_555
H12 C15 1_555 1_555
H13 C15 1_555 1_555
C16 O18 1_555 1_555
H14 C16 1_555 1_555
H15 C16 1_555 1_555
C17 C16 1_555 1_555
H16 C17 1_555 1_555
H17 C17 1_555 1_555
C18 O19 1_555 1_555
H18 C18 1_555 1_555
H19 C18 1_555 1_555
C19 C18 1_555 1_555
C20 O20 1_555 1_555
C21 C20 1_555 1_555
H20 C21 1_555 1_555
H21 C21 1_555 1_555
C22 O21 1_555 1_555
H22 C22 1_555 1_555
H23 C22 1_555 1_555
C23 O22 1_555 1_555
H24 C23 1_555 1_555
H25 C23 1_555 1_555
C24 N1 1_555 1_555
C25 C24 1_555 1_555
H26 C25 1_555 1_555
H27 C25 1_555 1_555
H28 C24 1_555 1_555
H29 C24 1_555 1_555
H30 N2 1_555 1_555
H31 N2 1_555 1_555
H32 N2 1_555 1_555
H33 C20 1_555 1_555
H34 C20 1_555 1_555
H35 C19 1_555 1_555
H36 C19 1_555 1_555
C4 C5 1_555 1_555
C12 C13 1_555 1_555
C22 C23 1_555 1_555

#END
