
#######################################################################
#
#                 Cambridge Crystallographic Data Centre
#                                CCDC 
#
#######################################################################
#
# If this CIF has been generated from an entry in the Cambridge 
# Structural Database, then it will include bibliographic, chemical, 
# crystal, experimental, refinement or atomic coordinate data resulting 
# from the CCDC's data processing and validation procedures.
#
#######################################################################

data_PUDQAI
_chemical_formula_moiety         'C50 H72 N4 O12 4+,4(Cl1 O4 1-)'
_chemical_name_systematic        
"4,4'-(2,4-bis(2,3,5,6,8,9,11,12,14,15-Decahydro-1,4,7,10,13,16-benzohexaoxacyclo-octadecin-18-yl)cyclobutane-1,3-diyl)bis(1-(2-ammonioethyl)pyridinium) tetraperchlorate"
_symmetry_cell_setting           monoclinic
_symmetry_space_group_name_H-M   'P 21/c'
_symmetry_Int_Tables_number      14
_space_group_name_Hall           '-P 2ybc'
loop_
_symmetry_equiv_pos_site_id
_symmetry_equiv_pos_as_xyz
1 x,y,z
2 -x,1/2+y,1/2-z
3 -x,-y,-z
4 x,1/2-y,1/2+z
_cell_length_a                   10.8853(3)
_cell_length_b                   16.0031(4)
_cell_length_c                   17.3331(5)
_cell_angle_alpha                90
_cell_angle_beta                 101.2160(10)
_cell_angle_gamma                90
_cell_volume                     2961.73
_exptl_crystal_colour            yellowish
_exptl_crystal_description       block
_cell_formula_units_Z            2
loop_
_atom_site_label
_atom_site_type_symbol
_atom_site_fract_x
_atom_site_fract_y
_atom_site_fract_z
Cl1 Cl 0.57356(5) 0.23877(3) -0.07148(4)
O1 O 0.68692(17) 0.26841(11) -0.02166(12)
O2 O 0.4841(2) 0.21602(15) -0.02488(14)
O3 O 0.5229(2) 0.30392(13) -0.12407(16)
O4 O 0.59957(17) 0.16738(13) -0.11438(13)
Cl2 Cl 1.1772(7) 0.3876(4) -0.2847(3)
O5 O 1.2831(6) 0.4278(6) -0.3029(5)
O6 O 1.1382(13) 0.3219(7) -0.3401(6)
O7 O 1.0803(10) 0.4468(7) -0.2879(8)
O8 O 1.2097(14) 0.3531(4) -0.2076(3)
O13 O 1.00017(14) 0.56661(10) -0.12340(10)
O14 O 1.10427(14) 0.64864(11) -0.24084(10)
O15 O 1.00276(16) 0.61068(12) -0.40436(11)
O16 O 0.7619(2) 0.54415(13) -0.44358(12)
O17 O 0.7250(2) 0.42221(13) -0.32666(12)
O18 O 0.83914(15) 0.44995(10) -0.16741(10)
N1 N 0.38821(16) 0.36666(12) 0.23738(11)
N2 N 0.12852(17) 0.42931(12) 0.28424(12)
H1 H 0.0437 0.4272 0.2694
H2 H 0.1601 0.4652 0.2523
H3 H 0.1493 0.4474 0.3349
C1 C 0.3775(2) 0.31709(15) 0.17353(15)
H4 H 0.3323 0.2661 0.1718
C2 C 0.4306(2) 0.33926(14) 0.11144(15)
H5 H 0.4243 0.3029 0.0675
C3 C 0.49480(19) 0.41575(14) 0.11202(14)
C4 C 0.5121(2) 0.46192(15) 0.18099(14)
H6 H 0.5613 0.5114 0.1857
C5 C 0.4583(2) 0.43645(15) 0.24261(14)
H7 H 0.4708 0.4686 0.2896
C6 C 0.5281(2) 0.44350(14) 0.03597(14)
H8 H 0.5769 0.3988 0.0151
C7 C 0.5904(2) 0.53036(14) 0.02943(14)
H9 H 0.5951 0.5638 0.0787
C8 C 0.7128(2) 0.53216(14) 0.00102(13)
C9 C 0.8003(2) 0.59412(15) 0.02515(14)
H10 H 0.7924 0.6288 0.0684
C10 C 0.9006(2) 0.60622(15) -0.01369(14)
H11 H 0.9616 0.6478 0.0045
C11 C 0.91107(19) 0.55825(14) -0.07783(14)
C12 C 0.8249(2) 0.49319(13) -0.10107(13)
C13 C 0.7294(2) 0.47942(13) -0.06094(14)
H12 H 0.6740 0.4337 -0.0753
C14 C 1.0894(2) 0.63371(16) -0.10590(15)
H13 H 1.1384 0.6281 -0.0517
H14 H 1.0460 0.6884 -0.1107
C15 C 1.1739(2) 0.62694(17) -0.16496(15)
H15 H 1.2462 0.6651 -0.1502
H16 H 1.2061 0.5691 -0.1657
C16 C 1.1762(2) 0.64417(18) -0.30171(16)
H17 H 1.2046 0.5861 -0.3071
H18 H 1.2510 0.6804 -0.2884
C17 C 1.0954(2) 0.67254(19) -0.37750(17)
H19 H 1.0544 0.7261 -0.3692
H20 H 1.1477 0.6815 -0.4175
C18 C 0.9205(3) 0.6320(2) -0.47515(19)
H21 H 0.9691 0.6458 -0.5162
H22 H 0.8701 0.6814 -0.4668
C19 C 0.8368(3) 0.5596(3) -0.50083(19)
H23 H 0.7823 0.5718 -0.5523
H24 H 0.8875 0.5095 -0.5068
C20 C 0.6844(4) 0.4710(3) -0.4590(2)
H25 H 0.6790 0.4537 -0.5144
H26 H 0.5987 0.4847 -0.4516
C21 C 0.7347(5) 0.4003(2) -0.4060(2)
H27 H 0.6861 0.3489 -0.4224
H28 H 0.8233 0.3898 -0.4089
C22 C 0.7705(4) 0.35681(17) -0.27336(19)
H29 H 0.8604 0.3468 -0.2728
H30 H 0.7239 0.3045 -0.2895
C23 C 0.7524(3) 0.38284(15) -0.19326(17)
H31 H 0.6653 0.4020 -0.1956
H32 H 0.7690 0.3352 -0.1563
C24 C 0.3223(2) 0.34083(15) 0.30155(14)
H33 H 0.3499 0.3775 0.3477
H34 H 0.3471 0.2829 0.3176
C25 C 0.1814(2) 0.34497(14) 0.27806(15)
H35 H 0.1563 0.3254 0.2231
H36 H 0.1445 0.3062 0.3118
O13B O -0.00017(14) 0.43339(10) 0.12340(10)
O14B O -0.10427(14) 0.35136(11) 0.24084(10)
O15B O -0.00276(16) 0.38932(12) 0.40436(11)
O16B O 0.2381(2) 0.45585(13) 0.44358(12)
O17B O 0.2750(2) 0.57779(13) 0.32666(12)
O18B O 0.16086(15) 0.55005(10) 0.16741(10)
N1B N 0.61179(16) 0.63334(12) -0.23738(11)
N2B N 0.87148(17) 0.57069(12) -0.28424(12)
H1B H 0.9563 0.5728 -0.2694
H2B H 0.8399 0.5348 -0.2523
H3B H 0.8507 0.5526 -0.3349
C1B C 0.6225(2) 0.68291(15) -0.17353(15)
H4B H 0.6677 0.7339 -0.1718
C2B C 0.5694(2) 0.66074(14) -0.11144(15)
H5B H 0.5757 0.6971 -0.0675
C3B C 0.50520(19) 0.58425(14) -0.11202(14)
C4B C 0.4879(2) 0.53808(15) -0.18099(14)
H6B H 0.4387 0.4886 -0.1857
C5B C 0.5417(2) 0.56355(15) -0.24261(14)
H7B H 0.5292 0.5314 -0.2896
C6B C 0.4719(2) 0.55650(14) -0.03597(14)
H8B H 0.4231 0.6012 -0.0151
C7B C 0.4096(2) 0.46964(14) -0.02943(14)
H9B H 0.4049 0.4362 -0.0787
C8B C 0.2872(2) 0.46784(14) -0.00102(13)
C9B C 0.1997(2) 0.40588(15) -0.02515(14)
H10B H 0.2076 0.3712 -0.0684
C10B C 0.0994(2) 0.39378(15) 0.01369(14)
H11B H 0.0384 0.3522 -0.0045
C11B C 0.08893(19) 0.44175(14) 0.07783(14)
C12B C 0.1751(2) 0.50681(13) 0.10107(13)
C13B C 0.2706(2) 0.52058(13) 0.06094(14)
H12B H 0.3260 0.5663 0.0753
C14B C -0.0894(2) 0.36629(16) 0.10590(15)
H13B H -0.1384 0.3719 0.0517
H14B H -0.0460 0.3116 0.1107
C15B C -0.1739(2) 0.37306(17) 0.16496(15)
H15B H -0.2462 0.3349 0.1502
H16B H -0.2061 0.4309 0.1657
C16B C -0.1762(2) 0.35583(18) 0.30171(16)
H17B H -0.2046 0.4139 0.3071
H18B H -0.2510 0.3196 0.2884
C17B C -0.0954(2) 0.32746(19) 0.37750(17)
H19B H -0.0544 0.2739 0.3692
H20B H -0.1477 0.3185 0.4175
C18B C 0.0795(3) 0.3680(2) 0.47515(19)
H21B H 0.0309 0.3542 0.5162
H22B H 0.1299 0.3186 0.4668
C19B C 0.1632(3) 0.4404(3) 0.50083(19)
H23B H 0.2177 0.4282 0.5523
H24B H 0.1125 0.4905 0.5068
C20B C 0.3156(4) 0.5290(3) 0.4590(2)
H25B H 0.3210 0.5463 0.5144
H26B H 0.4013 0.5153 0.4516
C21B C 0.2653(5) 0.5997(2) 0.4060(2)
H27B H 0.3139 0.6511 0.4224
H28B H 0.1767 0.6102 0.4089
C22B C 0.2295(4) 0.64319(17) 0.27336(19)
H29B H 0.1396 0.6532 0.2728
H30B H 0.2761 0.6955 0.2895
C23B C 0.2476(3) 0.61716(15) 0.19326(17)
H31B H 0.3347 0.5980 0.1956
H32B H 0.2310 0.6648 0.1563
C24B C 0.6777(2) 0.65917(15) -0.30155(14)
H33B H 0.6501 0.6225 -0.3477
H34B H 0.6529 0.7171 -0.3176
C25B C 0.8186(2) 0.65503(14) -0.27806(15)
H35B H 0.8437 0.6746 -0.2231
H36B H 0.8555 0.6938 -0.3118
Cl3? Cl 1.1448(4) 0.3794(2) -0.2772(3)
O9? O 1.1544(14) 0.3163(7) -0.3341(7)
O10? O 1.0483(8) 0.4368(6) -0.3108(6)
O11? O 1.2588(7) 0.4208(5) -0.2550(9)
O12? O 1.1057(9) 0.3406(3) -0.2113(3)
loop_
_geom_bond_atom_site_label_1
_geom_bond_atom_site_label_2
_geom_bond_site_symmetry_1
_geom_bond_site_symmetry_2
Cl1 O1 1_555 1_555
O2 Cl1 1_555 1_555
O3 Cl1 1_555 1_555
O4 Cl1 1_555 1_555
Cl2 O5 1_555 1_555
O6 Cl2 1_555 1_555
O7 Cl2 1_555 1_555
O8 Cl2 1_555 1_555
O13 C11 1_555 1_555
O14 C15 1_555 1_555
O15 C17 1_555 1_555
O16 C19 1_555 1_555
O17 C21 1_555 1_555
O18 C12 1_555 1_555
N1 C1 1_555 1_555
N2 H1 1_555 1_555
H2 N2 1_555 1_555
H3 N2 1_555 1_555
C1 H4 1_555 1_555
C2 C1 1_555 1_555
H5 C2 1_555 1_555
C3 C2 1_555 1_555
C4 C3 1_555 1_555
H6 C4 1_555 1_555
C5 N1 1_555 1_555
H7 C5 1_555 1_555
C6 C3 1_555 1_555
H8 C6 1_555 1_555
C7 C6 1_555 1_555
H9 C7 1_555 1_555
C8 C7 1_555 1_555
C9 C8 1_555 1_555
H10 C9 1_555 1_555
C10 C9 1_555 1_555
H11 C10 1_555 1_555
C11 C10 1_555 1_555
C12 C11 1_555 1_555
C13 C8 1_555 1_555
H12 C13 1_555 1_555
C14 O13 1_555 1_555
H13 C14 1_555 1_555
H14 C14 1_555 1_555
C15 C14 1_555 1_555
H15 C15 1_555 1_555
H16 C15 1_555 1_555
C16 O14 1_555 1_555
H17 C16 1_555 1_555
H18 C16 1_555 1_555
C17 C16 1_555 1_555
H19 C17 1_555 1_555
H20 C17 1_555 1_555
C18 O15 1_555 1_555
H21 C18 1_555 1_555
H22 C18 1_555 1_555
C19 C18 1_555 1_555
H23 C19 1_555 1_555
H24 C19 1_555 1_555
C20 O16 1_555 1_555
H25 C20 1_555 1_555
H26 C20 1_555 1_555
C21 C20 1_555 1_555
H27 C21 1_555 1_555
H28 C21 1_555 1_555
C22 O17 1_555 1_555
H29 C22 1_555 1_555
H30 C22 1_555 1_555
C23 O18 1_555 1_555
H31 C23 1_555 1_555
H32 C23 1_555 1_555
C24 N1 1_555 1_555
H33 C24 1_555 1_555
H34 C24 1_555 1_555
C25 N2 1_555 1_555
H35 C25 1_555 1_555
H36 C25 1_555 1_555
O13B C11B 1_555 1_555
O14B C15B 1_555 1_555
O15B C17B 1_555 1_555
O16B C19B 1_555 1_555
O17B C21B 1_555 1_555
O18B C12B 1_555 1_555
N1B C1B 1_555 1_555
N2B H1B 1_555 1_555
H2B N2B 1_555 1_555
H3B N2B 1_555 1_555
C1B H4B 1_555 1_555
C2B C1B 1_555 1_555
H5B C2B 1_555 1_555
C3B C2B 1_555 1_555
C4B C3B 1_555 1_555
H6B C4B 1_555 1_555
C5B N1B 1_555 1_555
H7B C5B 1_555 1_555
C6B C7 1_555 1_555
H8B C6B 1_555 1_555
C7B C6 1_555 1_555
H9B C7B 1_555 1_555
C8B C7B 1_555 1_555
C9B C8B 1_555 1_555
H10B C9B 1_555 1_555
C10B C9B 1_555 1_555
H11B C10B 1_555 1_555
C11B C10B 1_555 1_555
C12B C11B 1_555 1_555
C13B C8B 1_555 1_555
H12B C13B 1_555 1_555
C14B O13B 1_555 1_555
H13B C14B 1_555 1_555
H14B C14B 1_555 1_555
C15B C14B 1_555 1_555
H15B C15B 1_555 1_555
H16B C15B 1_555 1_555
C16B O14B 1_555 1_555
H17B C16B 1_555 1_555
H18B C16B 1_555 1_555
C17B C16B 1_555 1_555
H19B C17B 1_555 1_555
H20B C17B 1_555 1_555
C18B O15B 1_555 1_555
H21B C18B 1_555 1_555
H22B C18B 1_555 1_555
C19B C18B 1_555 1_555
H23B C19B 1_555 1_555
H24B C19B 1_555 1_555
C20B O16B 1_555 1_555
H25B C20B 1_555 1_555
H26B C20B 1_555 1_555
C21B C20B 1_555 1_555
H27B C21B 1_555 1_555
H28B C21B 1_555 1_555
C22B O17B 1_555 1_555
H29B C22B 1_555 1_555
H30B C22B 1_555 1_555
C23B O18B 1_555 1_555
H31B C23B 1_555 1_555
H32B C23B 1_555 1_555
C24B N1B 1_555 1_555
H33B C24B 1_555 1_555
H34B C24B 1_555 1_555
C25B N2B 1_555 1_555
H35B C25B 1_555 1_555
H36B C25B 1_555 1_555
C4 C5 1_555 1_555
C12 C13 1_555 1_555
C22 C23 1_555 1_555
C24 C25 1_555 1_555
C3B C6B 1_555 1_555
C4B C5B 1_555 1_555
C6B C7B 1_555 1_555
C12B C13B 1_555 1_555
C22B C23B 1_555 1_555
C24B C25B 1_555 1_555

#END
