
#######################################################################
#
#                 Cambridge Crystallographic Data Centre
#                                CCDC 
#
#######################################################################
#
# If this CIF has been generated from an entry in the Cambridge 
# Structural Database, then it will include bibliographic, chemical, 
# crystal, experimental, refinement or atomic coordinate data resulting 
# from the CCDC's data processing and validation procedures.
#
#######################################################################

data_PUDQUB
_chemical_formula_moiety         'C30 H28 Cl2 N2 Te2'
_chemical_name_systematic        
bis(\m~2~-Chloro)-bis(2-(1-phenylethyliminomethyl)phenyl-C,N)-di-tellurium
_symmetry_cell_setting           monoclinic
_symmetry_space_group_name_H-M   'P 21'
_symmetry_Int_Tables_number      4
_space_group_name_Hall           'P 2yb'
loop_
_symmetry_equiv_pos_site_id
_symmetry_equiv_pos_as_xyz
1 x,y,z
2 -x,1/2+y,-z
_cell_length_a                   10.448(2)
_cell_length_b                   12.092(4)
_cell_length_c                   11.143(2)
_cell_angle_alpha                90
_cell_angle_beta                 95.29(2)
_cell_angle_gamma                90
_cell_volume                     1401.78
_exptl_crystal_colour            yellow
_exptl_crystal_description       parallelepiped
_chemical_melting_point          '175 deg.C'
_cell_formula_units_Z            2
_exptl_crystal_recrystallization_method hexane/chloroform
loop_
_atom_site_label
_atom_site_type_symbol
_atom_site_fract_x
_atom_site_fract_y
_atom_site_fract_z
Te1 Te 0.12461(11) 0.0005 0.16806(11)
Te2 Te 0.34302(12) -0.1916(2) 0.06251(13)
Cl1 Cl 0.2602(6) -0.1361(6) 0.2536(5)
Cl2 Cl 0.1955(5) -0.0628(5) -0.0259(4)
N1 N -0.0004(14) 0.1254(15) 0.1095(14)
C1 C 0.0861(19) 0.0653(19) 0.3247(16)
C2 C 0.1306(24) 0.0318(28) 0.4388(24)
C3 C 0.0973(26) 0.0907(35) 0.5363(23)
C4 C 0.0143(32) 0.1790(35) 0.5236(26)
C5 C -0.0285(57) 0.2107(58) 0.4157(54)
C6 C 0.0058(19) 0.1571(18) 0.3155(18)
C7 C -0.0399(21) 0.1829(19) 0.1908(20)
C8 C -0.0499(18) 0.1516(16) -0.0181(14)
C9 C 0.0553(23) 0.2040(24) -0.0832(23)
C10 C -0.1182(18) 0.0527(20) -0.0739(16)
C11 C -0.2185(17) -0.0003(27) -0.0180(20)
C12 C -0.2892(26) -0.0815(25) -0.0653(29)
C13 C -0.2592(29) -0.1241(30) -0.1768(30)
C14 C -0.1685(32) -0.0822(30) -0.2330(25)
C15 C -0.0928(23) 0.0051(32) -0.1864(17)
N2 N 0.4702(13) -0.3058(15) 0.1285(18)
C16 C 0.3977(16) -0.2459(19) -0.0920(20)
C17 C 0.3598(21) -0.2098(24) -0.2061(22)
C18 C 0.4035(27) -0.2712(26) -0.3044(26)
C19 C 0.4826(49) -0.3575(47) -0.2891(51)
C20 C 0.5221(22) -0.3915(24) -0.1706(29)
C21 C 0.4813(19) -0.3380(19) -0.0726(25)
C22 C 0.5197(23) -0.3626(21) 0.0470(29)
C23 C 0.5046(19) -0.3217(23) 0.2565(24)
C24 C 0.5672(33) -0.4311(29) 0.2939(41)
C25 C 0.5900(20) -0.2251(20) 0.3082(20)
C26 C 0.6927(21) -0.1907(25) 0.2493(20)
C27 C 0.7723(27) -0.1106(25) 0.3000(25)
C28 C 0.7558(28) -0.0614(27) 0.4081(26)
C29 C 0.6504(36) -0.0992(37) 0.4653(25)
C30 C 0.5725(22) -0.1822(35) 0.4170(23)
H1 H 0.168(28) -0.015(28) 0.456(27)
H2 H 0.103(26) 0.053(24) 0.599(26)
H3 H -0.001(24) 0.254(24) 0.592(24)
H4 H -0.081(25) 0.246(26) 0.174(24)
H5 H -0.117(24) 0.242(24) -0.031(23)
H6 H 0.000(26) 0.210(25) -0.154(26)
H7 H 0.097(29) 0.170(28) -0.062(29)
H8 H 0.118(23) 0.282(23) -0.044(22)
H9 H -0.207(28) 0.033(25) 0.042(24)
H10 H -0.368(26) -0.084(24) -0.033(23)
H11 H -0.300(24) -0.187(27) -0.219(23)
H12 H -0.129(25) -0.112(25) -0.293(25)
H13 H -0.011(26) 0.029(27) -0.193(24)
H14 H 0.301(26) -0.168(26) -0.242(25)
H15 H 0.353(24) -0.282(23) -0.408(23)
H16 H 0.565(25) -0.466(24) -0.172(23)
H17 H 0.544(29) -0.408(27) 0.064(29)
H18 H 0.472(27) -0.325(28) 0.293(26)
H19 H 0.592(26) -0.447(24) 0.372(26)
H20 H 0.525(30) -0.477(27) 0.266(28)
H21 H 0.731(23) -0.228(24) 0.183(23)
H22 H 0.870(25) -0.088(24) 0.277(24)
H23 H 0.817(27) -0.017(25) 0.412(24)
H24 H 0.648(31) -0.093(28) 0.513(27)
H25 H 0.494(25) -0.200(25) 0.425(21)
H26? H -0.034(50) 0.232(48) 0.424(51)
H27? H 0.500(46) -0.369(42) -0.308(43)
H28? H 0.601(26) 0.442(23) 0.281(25)
loop_
_geom_bond_atom_site_label_1
_geom_bond_atom_site_label_2
_geom_bond_site_symmetry_1
_geom_bond_site_symmetry_2
Te1 Cl1 1_555 1_555
Te2 Cl1 1_555 1_555
Cl2 Te1 1_555 1_555
N1 Te1 1_555 1_555
C1 Te1 1_555 1_555
C2 C1 1_555 1_555
C3 C2 1_555 1_555
C4 C3 1_555 1_555
C5 C4 1_555 1_555
C6 C1 1_555 1_555
C7 N1 1_555 1_555
C8 N1 1_555 1_555
C9 C8 1_555 1_555
C10 C8 1_555 1_555
C11 C10 1_555 1_555
C12 C11 1_555 1_555
C13 C12 1_555 1_555
C14 C13 1_555 1_555
C15 C10 1_555 1_555
N2 Te2 1_555 1_555
C16 Te2 1_555 1_555
C17 C16 1_555 1_555
C18 C17 1_555 1_555
C19 C18 1_555 1_555
C20 C19 1_555 1_555
C21 C16 1_555 1_555
C22 N2 1_555 1_555
C23 N2 1_555 1_555
C24 C23 1_555 1_555
C25 C23 1_555 1_555
C26 C25 1_555 1_555
C27 C26 1_555 1_555
C28 C27 1_555 1_555
C29 C28 1_555 1_555
C30 C25 1_555 1_555
H1 C2 1_555 1_555
H2 C3 1_555 1_555
H3 C4 1_555 1_555
H4 C7 1_555 1_555
H5 C8 1_555 1_555
H6 C9 1_555 1_555
H7 C9 1_555 1_555
H8 C9 1_555 1_555
H9 C11 1_555 1_555
H10 C12 1_555 1_555
H11 C13 1_555 1_555
H12 C14 1_555 1_555
H13 C15 1_555 1_555
H14 C17 1_555 1_555
H15 C18 1_555 1_555
H16 C20 1_555 1_555
H17 C22 1_555 1_555
H18 C23 1_555 1_555
H19 C24 1_555 1_555
H20 C24 1_555 1_555
H21 C26 1_555 1_555
H22 C27 1_555 1_555
H23 C28 1_555 1_555
H24 C29 1_555 1_555
H25 C30 1_555 1_555
Te2 Cl2 1_555 1_555
C5 C6 1_555 1_555
C6 C7 1_555 1_555
C14 C15 1_555 1_555
C20 C21 1_555 1_555
C21 C22 1_555 1_555
C29 C30 1_555 1_555

#END
