
#######################################################################
#
#                 Cambridge Crystallographic Data Centre
#                                CCDC 
#
#######################################################################
#
# If this CIF has been generated from an entry in the Cambridge 
# Structural Database, then it will include bibliographic, chemical, 
# crystal, experimental, refinement or atomic coordinate data resulting 
# from the CCDC's data processing and validation procedures.
#
#######################################################################

data_PUDRUB
_chemical_formula_moiety         'C13 H15 N1 O3'
_chemical_name_systematic        
trans-N-Benzoyl-2-hydroxymethyl-3-hydroxytetrahydropyridine
_symmetry_cell_setting           monoclinic
_symmetry_space_group_name_H-M   'P 21/c'
_symmetry_Int_Tables_number      14
_space_group_name_Hall           '-P 2ybc'
loop_
_symmetry_equiv_pos_site_id
_symmetry_equiv_pos_as_xyz
1 x,y,z
2 -x,1/2+y,1/2-z
3 -x,-y,-z
4 x,1/2-y,1/2+z
_cell_length_a                   9.0412(12)
_cell_length_b                   10.3876(12)
_cell_length_c                   12.3801(14)
_cell_angle_alpha                90
_cell_angle_beta                 96.854(10)
_cell_angle_gamma                90
_cell_volume                     1154.38
_chemical_melting_point          173-174deg.C
_cell_formula_units_Z            4
loop_
_atom_site_label
_atom_site_type_symbol
_atom_site_fract_x
_atom_site_fract_y
_atom_site_fract_z
C1 C 0.1799(4) 0.2407(4) 0.1925(3)
C2 C 0.0707(4) 0.3276(4) 0.1549(4)
C3 C 0.0347(4) 0.4262(4) 0.2212(4)
C4 C 0.1071(4) 0.4377(4) 0.3249(4)
C5 C 0.2172(4) 0.3507(4) 0.3626(3)
C6 C 0.2540(3) 0.2510(3) 0.2961(3)
O1 O 0.3243(2) 0.0574(2) 0.3887(2)
N1 N 0.5096(3) 0.1676(2) 0.3213(2)
C7 C 0.3667(3) 0.1513(3) 0.3395(2)
C8 C 0.6224(4) 0.0753(3) 0.3674(3)
C9 C 0.7612(3) 0.1412(3) 0.4133(3)
C10 C 0.7891(4) 0.2633(3) 0.3989(3)
C11 C 0.6820(3) 0.3509(3) 0.3330(3)
O2 O 0.6143(3) 0.4386(2) 0.4020(2)
C12 C 0.5658(3) 0.2738(3) 0.2602(2)
C13 C 0.6286(4) 0.2273(3) 0.1595(3)
O3 O 0.5178(3) 0.1695(2) 0.0830(2)
H1 H 0.2030(31) 0.1741(32) 0.1474(24)
H2 H 0.0209(34) 0.3170(32) 0.0790(27)
H3 H -0.0402(35) 0.4849(31) 0.1942(24)
H4 H 0.0895(34) 0.5108(32) 0.3702(26)
H5 H 0.2665(33) 0.3565(32) 0.4322(26)
H6 H 0.6448(30) 0.0170(28) 0.3103(23)
H7 H 0.5786(27) 0.0268(25) 0.4215(21)
H8 H 0.8328(29) 0.0852(29) 0.4572(21)
H9 H 0.8777(27) 0.3019(23) 0.4360(19)
H10 H 0.7314(26) 0.4048(24) 0.2849(20)
H11 H 0.5818(33) 0.3917(30) 0.4494(26)
H12 H 0.4879(27) 0.3294(24) 0.2378(19)
H13 H 0.6627(27) 0.3047(27) 0.1209(21)
H14 H 0.7145(26) 0.1657(27) 0.1768(18)
H15 H 0.4855(39) 0.1040(36) 0.1109(29)
loop_
_geom_bond_atom_site_label_1
_geom_bond_atom_site_label_2
_geom_bond_site_symmetry_1
_geom_bond_site_symmetry_2
C1 C2 1_555 1_555
C2 C3 1_555 1_555
C3 C4 1_555 1_555
C4 C5 1_555 1_555
C5 C6 1_555 1_555
C6 C1 1_555 1_555
O1 C7 1_555 1_555
N1 C7 1_555 1_555
C7 C6 1_555 1_555
C8 N1 1_555 1_555
C9 C8 1_555 1_555
C10 C9 1_555 1_555
C11 C10 1_555 1_555
O2 C11 1_555 1_555
C12 N1 1_555 1_555
C13 C12 1_555 1_555
O3 C13 1_555 1_555
H1 C1 1_555 1_555
H2 C2 1_555 1_555
H3 C3 1_555 1_555
H4 C4 1_555 1_555
H5 C5 1_555 1_555
H6 C8 1_555 1_555
H7 C8 1_555 1_555
H8 C9 1_555 1_555
H9 C10 1_555 1_555
H10 C11 1_555 1_555
H11 O2 1_555 1_555
H12 C12 1_555 1_555
H13 C13 1_555 1_555
H14 C13 1_555 1_555
H15 O3 1_555 1_555
C11 C12 1_555 1_555

#END
