
#######################################################################
#
#                 Cambridge Crystallographic Data Centre
#                                CCDC 
#
#######################################################################
#
# If this CIF has been generated from an entry in the Cambridge 
# Structural Database, then it will include bibliographic, chemical, 
# crystal, experimental, refinement or atomic coordinate data resulting 
# from the CCDC's data processing and validation procedures.
#
#######################################################################

data_PUDREM
_chemical_formula_moiety         'C10 H14 Br1 N1 Se1'
_chemical_name_systematic        
Bromo-((S)-2-(1-(dimethylamino)ethyl)phenyl-C,N)-selenium
_symmetry_cell_setting           orthorhombic
_symmetry_space_group_name_H-M   'P 21 21 21'
_symmetry_Int_Tables_number      19
_space_group_name_Hall           'P 2ac 2ab'
loop_
_symmetry_equiv_pos_site_id
_symmetry_equiv_pos_as_xyz
1 x,y,z
2 1/2-x,-y,1/2+z
3 -x,1/2+y,1/2-z
4 1/2+x,1/2-y,-z
_cell_length_a                   10.815(2)
_cell_length_b                   9.0210(18)
_cell_length_c                   11.805(2)
_cell_angle_alpha                90
_cell_angle_beta                 90
_cell_angle_gamma                90
_cell_volume                     1151.72
_exptl_crystal_colour            colorless
_exptl_crystal_description       plate
_chemical_melting_point          '138-139 deg.C'
_cell_formula_units_Z            4
loop_
_atom_site_label
_atom_site_type_symbol
_atom_site_fract_x
_atom_site_fract_y
_atom_site_fract_z
Se1 Se 0.29645(6) 0.89476(7) 0.25144(7)
Br1 Br 0.33104(9) 0.62311(10) 0.32102(8)
N1 N 0.2550(5) 1.1132(7) 0.1939(5)
C1 C 0.1635(7) 0.8454(8) 0.1524(5)
C2 C 0.1411(7) 0.7087(9) 0.1051(6)
H1 H 0.1920 0.6291 0.1234
C3 C 0.0460(8) 0.6884(11) 0.0323(7)
H2 H 0.0331 0.5957 -0.0002
C4 C -0.0315(9) 0.8042(11) 0.0059(7)
H3 H -0.0972 0.7894 -0.0436
C5 C -0.0122(8) 0.9402(11) 0.0522(7)
H4 H -0.0654 1.0178 0.0343
C6 C 0.0868(7) 0.9654(9) 0.1267(7)
C7 C 0.1162(6) 1.1078(9) 0.1832(6)
H5 H 0.0836 1.1004 0.2605
C8 C 0.0600(9) 1.2470(10) 0.1321(9)
H6 H 0.0950 1.3328 0.1680
H7 H -0.0278 1.2462 0.1436
H8 H 0.0774 1.2499 0.0524
C9 C 0.3149(8) 1.1411(9) 0.0845(7)
H9 H 0.2957 1.2397 0.0596
H10 H 0.2854 1.0709 0.0297
H11 H 0.4028 1.1308 0.0926
C10 C 0.2997(10) 1.2147(8) 0.2793(9)
H12 H 0.2768 1.3141 0.2592
H13 H 0.3881 1.2076 0.2843
H14 H 0.2638 1.1898 0.3512
loop_
_geom_bond_atom_site_label_1
_geom_bond_atom_site_label_2
_geom_bond_site_symmetry_1
_geom_bond_site_symmetry_2
Se1 Br1 1_555 1_555
N1 Se1 1_555 1_555
C1 Se1 1_555 1_555
C2 C1 1_555 1_555
H1 C2 1_555 1_555
C3 C2 1_555 1_555
H2 C3 1_555 1_555
C4 C3 1_555 1_555
H3 C4 1_555 1_555
C5 C4 1_555 1_555
H4 C5 1_555 1_555
C6 C1 1_555 1_555
C7 N1 1_555 1_555
H5 C7 1_555 1_555
C8 C7 1_555 1_555
H6 C8 1_555 1_555
H7 C8 1_555 1_555
H8 C8 1_555 1_555
C9 N1 1_555 1_555
H9 C9 1_555 1_555
H10 C9 1_555 1_555
H11 C9 1_555 1_555
C10 N1 1_555 1_555
H12 C10 1_555 1_555
H13 C10 1_555 1_555
H14 C10 1_555 1_555
C5 C6 1_555 1_555
C6 C7 1_555 1_555

#END
