
#######################################################################
#
#                 Cambridge Crystallographic Data Centre
#                                CCDC 
#
#######################################################################
#
# If this CIF has been generated from an entry in the Cambridge 
# Structural Database, then it will include bibliographic, chemical, 
# crystal, experimental, refinement or atomic coordinate data resulting 
# from the CCDC's data processing and validation procedures.
#
#######################################################################

data_PUDVAM
_chemical_formula_moiety         'C1 H6 N3 1+,C6 H4 Cl1 O3 S1 1-,0.67(C8 H10)'
_chemical_name_systematic        
'Guanidinium 4-chlorobenzenesulfonate o-xylene clathrate'
_symmetry_cell_setting           hexagonal
_symmetry_space_group_name_H-M   'P 63/m'
_symmetry_Int_Tables_number      176
_space_group_name_Hall           '-P 6c'
loop_
_symmetry_equiv_pos_site_id
_symmetry_equiv_pos_as_xyz
1 x,y,z
2 x-y,x,1/2+z
3 -y,x-y,z
4 -x,-y,1/2+z
5 -x+y,-x,z
6 y,-x+y,1/2+z
7 -x,-y,-z
8 -x+y,-x,1/2-z
9 y,-x+y,-z
10 x,y,1/2-z
11 x-y,x,-z
12 -y,x-y,1/2-z
_cell_length_a                   19.0746(6)
_cell_length_b                   19.0746(6)
_cell_length_c                   7.6483(3)
_cell_angle_alpha                90
_cell_angle_beta                 90
_cell_angle_gamma                120
_cell_volume                     2409.94
_exptl_crystal_colour            colorless
_exptl_crystal_description       needle
_cell_formula_units_Z            6
loop_
_atom_site_label
_atom_site_type_symbol
_atom_site_fract_x
_atom_site_fract_y
_atom_site_fract_z
Cl1 Cl 0.16197(9) 0.71804(8) 0.2500
S1 S 0.02614(7) 0.34413(7) 0.2500
O1 O -0.02249(14) 0.31265(15) 0.0921(3)
O2 O 0.0967(2) 0.3338(2) 0.2500
C19 C 0.0648(3) 0.4498(3) 0.2500
C20 C 0.1307(4) 0.4986(3) 0.1407(9)
H27 H 0.1548 0.4752 0.0707
C21 C 0.1604(4) 0.5821(3) 0.1363(9)
H28 H 0.2031 0.6162 0.0595
C22 C 0.0245(4) 0.4825(3) 0.1637(10)
H29 H -0.0241 0.4478 0.1024
C23 C 0.0535(4) 0.5652(3) 0.1646(10)
H30 H 0.0248 0.5874 0.1076
C24 C 0.1248(3) 0.6139(3) 0.2500
O1I O -0.02249(14) 0.31265(15) 0.4079(3)
C20I C 0.1307(4) 0.4986(3) 0.3593(9)
H27I H 0.1548 0.4752 0.4293
C21I C 0.1604(4) 0.5821(3) 0.3637(9)
H28I H 0.2031 0.6162 0.4405
C22I C 0.0245(4) 0.4825(3) 0.3363(10)
H29I H -0.0241 0.4478 0.3976
C23I C 0.0535(4) 0.5652(3) 0.3354(10)
H30I H 0.0248 0.5874 0.3924
N1 N 0.3252(2) 0.16995(19) 0.1002(4)
H31 H 0.3231 0.1919 0.0005
H32 H 0.3304 0.1266 0.1002
N2 N 0.3127(3) 0.2672(3) 0.2500
H33 H 0.3106 0.2892 0.1504
H34 H 0.3096 0.2886 0.3496
C25 C 0.3205(3) 0.2021(3) 0.2500
N1I N 0.3252(2) 0.16995(19) 0.3998(4)
H31I H 0.3231 0.1919 0.4995
H32I H 0.3304 0.1266 0.3998
C13 C 0.7149(4) 0.3575(9) 0.195(2)
C14 C 0.7134(17) 0.4259(7) 0.2500
H18 H 0.7623 0.4765 0.2466
C15 C 0.780(2) 0.356(3) 0.310(3)
H19 H 0.8283 0.3549 0.3350
C16 C 0.780(3) 0.429(3) 0.334(7)
H20 H 0.8188 0.4735 0.3994
C17 C 0.779(2) 0.337(3) 0.145(6)
H21 H 0.8319 0.3872 0.3562
H22 H 0.7672 0.3126 0.0292
H23 H 0.7004 0.4802 0.2310
C18 C 0.798(3) 0.4224(15) 0.142(8)
H24 H 0.7997 0.4741 0.3688
H26 H 0.8376 0.4269 0.2695
C13B C 0.6425(9) 0.3574(10) 0.195(2)
C13D C 0.6426(10) 0.2851(4) 0.195(2)
C13G C 0.6426(10) 0.2851(4) 0.305(2)
C13I C 0.7149(4) 0.3575(9) 0.305(2)
C13K C 0.6425(9) 0.3574(10) 0.305(2)
C14D C 0.7125(18) 0.2866(17) 0.2500
C14B C 0.5741(7) 0.2875(18) 0.2500
H18B H 0.5235 0.2858 0.2466
H18K H 0.5235 0.2858 0.2534
H18D H 0.7142 0.2377 0.2466
H18G H 0.7142 0.2377 0.2534
H18I H 0.7623 0.4765 0.2534
C15D C 0.576(4) 0.220(2) 0.310(3)
C15G C 0.576(4) 0.220(2) 0.190(3)
C15B C 0.644(3) 0.424(4) 0.310(3)
C15K C 0.644(3) 0.424(4) 0.190(3)
C15I C 0.780(2) 0.356(3) 0.190(3)
H19G H 0.5266 0.1717 0.1650
H19D H 0.5266 0.1717 0.3350
H19B H 0.6451 0.4734 0.3350
H19I H 0.8283 0.3549 0.1650
H19K H 0.6451 0.4734 0.1650
C16D C 0.649(4) 0.220(3) 0.334(7)
C16G C 0.649(4) 0.220(3) 0.166(7)
C16B C 0.571(3) 0.351(4) 0.334(7)
C16K C 0.571(3) 0.351(4) 0.166(7)
C16I C 0.780(3) 0.429(3) 0.166(7)
H20D H 0.6547 0.1812 0.3994
H20G H 0.6547 0.1812 0.1006
H20I H 0.8188 0.4735 0.1006
H20K H 0.5265 0.3453 0.1006
H20B H 0.5265 0.3453 0.3994
C17D C 0.558(4) 0.221(2) 0.145(6)
C17G C 0.558(4) 0.221(2) 0.355(6)
C17I C 0.779(2) 0.337(3) 0.355(6)
C17K C 0.663(3) 0.442(4) 0.355(6)
C17B C 0.663(3) 0.442(4) 0.145(6)
H21D H 0.5553 0.1681 0.3562
H21G H 0.5553 0.1681 0.1438
H21I H 0.8319 0.3872 0.1438
H21B H 0.6128 0.4447 0.3562
H21K H 0.6128 0.4447 0.1438
H22D H 0.5454 0.2328 0.0292
H22G H 0.5454 0.2328 0.4708
H22I H 0.7672 0.3126 0.4708
H22B H 0.6874 0.4546 0.0292
H22K H 0.6874 0.4546 0.4708
H23B H 0.5198 0.2202 0.2310
H23K H 0.5198 0.2202 0.2690
H23D H 0.7798 0.2996 0.2310
H23G H 0.7798 0.2996 0.2690
H23I H 0.7004 0.4802 0.2690
C18G C 0.6244(34) 0.202(3) 0.358(8)
C18D C 0.6244(34) 0.202(3) 0.142(8)
C18I C 0.798(3) 0.4224(15) 0.358(8)
C18K C 0.5776(15) 0.3756(34) 0.358(8)
C18B C 0.5776(15) 0.3756(34) 0.142(8)
H24D H 0.6744 0.2003 0.3688
H24G H 0.6744 0.2003 0.1312
H24I H 0.7997 0.4741 0.1312
H24B H 0.5259 0.3256 0.3688
H24K H 0.5259 0.3256 0.1312
H26D H 0.5893 0.1624 0.2695
H26G H 0.5893 0.1624 0.2305
H26I H 0.8376 0.4269 0.2305
H26B H 0.5731 0.4107 0.2695
H26K H 0.5731 0.4107 0.2305
C1? C -0.0460(4) -0.0326(7) 0.2500
C2? C -0.0664(12) 0.0285(16) 0.2500
H1? H -0.1215 0.0150 0.2500
C3? C -0.005(2) 0.109(2) 0.2500
H2? H -0.0175 0.1514 0.2500
C4? C 0.076(3) 0.128(3) 0.2500
H3? H 0.1181 0.1833 0.2500
C5? C -0.126(2) -0.110(2) 0.2500
H4? H -0.1699 -0.0974 0.2500
H5? H -0.1301 -0.1415 0.3546
H6? H -0.1301 -0.1415 0.1454
C6? C 0.055(2) -0.0774(19) 0.2500
H7? H 0.1086 -0.0562 0.1993
H8? H 0.0151 -0.1235 0.1804
H9? H 0.0545 -0.0951 0.3703
C7? C -0.097(3) 0.009(3) 0.2500
C8? C -0.023(3) 0.081(2) 0.2500
C9? C 0.011(2) 0.1106(17) 0.416(3)
H10? H 0.0660 0.1528 0.4159
C10? C -0.026(2) 0.0862(17) 0.580(3)
H11? H -0.0026 0.1178 0.6826
C11? C -0.132(6) -0.017(5) 0.070(6)
H12? H -0.1847 -0.0666 0.0772
H13? H -0.0952 -0.0267 -0.0021
H14? H -0.1388 0.0261 0.0164
C12? C 0.027(5) 0.135(4) 0.104(9)
H15? H 0.0770 0.1797 0.1515
H16? H -0.0040 0.1570 0.0454
H17? H 0.0393 0.1043 0.0201
H25? H 0.5957 0.1876 0.0291
loop_
_geom_bond_atom_site_label_1
_geom_bond_atom_site_label_2
_geom_bond_site_symmetry_1
_geom_bond_site_symmetry_2
C13 C14 1_555 1_555
C14 H18 1_555 1_555
H18 C16 1_555 1_555
C15 C13 1_555 1_555
H19 C15 1_555 1_555
C16 C13 1_555 1_555
H20 C16 1_555 1_555
C17 C13 1_555 1_555
H21 C15 1_555 1_555
H22 C17 1_555 1_555
H23 C14 1_555 1_555
C18 C13 1_555 1_555
H24 C16 1_555 1_555
H26 C15 1_555 1_555
Cl1 C24 1_555 1_555
S1 O1 1_555 1_555
O2 S1 1_555 1_555
C19 S1 1_555 1_555
C20 C19 1_555 1_555
H27 C20 1_555 1_555
C21 C20 1_555 1_555
H28 C21 1_555 1_555
C22 C19 1_555 1_555
H29 C22 1_555 1_555
C23 C22 1_555 1_555
H30 C23 1_555 1_555
C24 C21 1_555 1_555
N1 H31 1_555 1_555
H32 N1 1_555 1_555
N2 H33 1_555 1_555
H34 N2 1_555 1_555
C25 N1 1_555 1_555
C13B C13 1_555 1_555
C13D C13 1_555 1_555
C13G C13 1_555 1_555
C13I C13 1_555 1_555
C13K C13 1_555 1_555
C14D C13 1_555 1_555
C14B C13B 1_555 1_555
H18B C14B 1_555 1_555
H18K C14B 1_555 1_555
H18D C14D 1_555 1_555
H18G C14D 1_555 1_555
H18I C14 1_555 1_555
C15D C13D 1_555 1_555
C15G C13D 1_555 1_555
C15B C14 1_555 1_555
C15K C14 1_555 1_555
C15I C13 1_555 1_555
H19G C15G 1_555 1_555
H19D C15D 1_555 1_555
H19B C15B 1_555 1_555
H19I C17 1_555 1_555
H19K C15K 1_555 1_555
C16D C13D 1_555 1_555
C16G C13D 1_555 1_555
C16B C13B 1_555 1_555
C16K C13B 1_555 1_555
C16I C13 1_555 1_555
H20D C16D 1_555 1_555
H20G C16G 1_555 1_555
H20I C18 1_555 1_555
H20K C16K 1_555 1_555
H20B C16B 1_555 1_555
C17D C13D 1_555 1_555
C17G C13G 1_555 1_555
C17I C15 1_555 1_555
C17K C14 1_555 1_555
C17B C14 1_555 1_555
H21D C15D 1_555 1_555
H21G C15G 1_555 1_555
H21I C17 1_555 1_555
H21B C15B 1_555 1_555
H21K C15K 1_555 1_555
H22D C17D 1_555 1_555
H22G C17G 1_555 1_555
H22I C17I 1_555 1_555
H22B C17B 1_555 1_555
H22K C17K 1_555 1_555
H23B C14B 1_555 1_555
H23K C14B 1_555 1_555
H23D C15 1_555 1_555
H23G C15 1_555 1_555
H23I C14 1_555 1_555
C18G C13G 1_555 1_555
C18D C13D 1_555 1_555
C18I C15 1_555 1_555
C18K C13K 1_555 1_555
C18B C13B 1_555 1_555
H24D C16D 1_555 1_555
H24G C16G 1_555 1_555
H24I C18 1_555 1_555
H24B C16B 1_555 1_555
H24K C16K 1_555 1_555
H26D C15D 1_555 1_555
H26G C15G 1_555 1_555
H26I C18 1_555 1_555
H26B C15B 1_555 1_555
H26K C15K 1_555 1_555
O1I S1 1_555 1_555
C20I C19 1_555 1_555
H27I C20I 1_555 1_555
C21I C21 1_555 1_555
H28I C21I 1_555 1_555
C22I C19 1_555 1_555
H29I C22I 1_555 1_555
C23I C23 1_555 1_555
H30I C23I 1_555 1_555
N1I C25 1_555 1_555
H31I N1I 1_555 1_555
H32I N1I 1_555 1_555
C14 C16 1_555 1_555
C14 C13B 1_555 1_555
C14 C13I 1_555 1_555
C14 C13K 1_555 1_555
C14 C16I 1_555 1_555
H18 H18I 1_555 1_555
H18 C16I 1_555 1_555
C15 C16 1_555 1_555
C15 C17 1_555 1_555
C15 C18 1_555 1_555
C15 C13I 1_555 1_555
C15 C14D 1_555 1_555
C15 C15I 1_555 1_555
H19 H21 1_555 1_555
H19 C17I 1_555 1_555
C16 C18 1_555 1_555
C16 H26 1_555 1_555
C16 C13I 1_555 1_555
C16 H18I 1_555 1_555
C16 C16I 1_555 1_555
C16 C17I 1_555 1_555
C16 C18I 1_555 1_555
H20 H24 1_555 1_555
H20 C18I 1_555 1_555
C17 C18 1_555 1_555
C17 C14D 1_555 1_555
C17 C15I 1_555 1_555
C17 C16I 1_555 1_555
C17 C17I 1_555 1_555
C17 H23D 1_555 1_555
C17 H23G 1_555 1_555
H21 C17I 1_555 1_555
H21 C18I 1_555 1_555
H23 C15B 1_555 1_555
H23 C15K 1_555 1_555
H23 C17K 1_555 1_555
H23 C17B 1_555 1_555
H23 H23I 1_555 1_555
C18 H26 1_555 1_555
C18 C15I 1_555 1_555
C18 C16I 1_555 1_555
C18 H21I 1_555 1_555
C18 C18I 1_555 1_555
H24 C18I 1_555 1_555
H26 C18I 1_555 1_555
H26 H26I 1_555 1_555
C20 C20I 1_555 1_555
C22 C22I 1_555 1_555
C23 C24 1_555 1_555
C24 C21I 1_555 1_555
C24 C23I 1_555 1_555
N2 C25 1_555 1_555
C13B C13D 1_555 1_555
C13B C13G 1_555 1_555
C13B C13I 1_555 1_555
C13B C13K 1_555 1_555
C13B C15B 1_555 1_555
C13B C15K 1_555 1_555
C13B C17B 1_555 1_555
C13D C13G 1_555 1_555
C13D C13I 1_555 1_555
C13D C13K 1_555 1_555
C13D C14D 1_555 1_555
C13D C14B 1_555 1_555
C13G C13I 1_555 1_555
C13G C13K 1_555 1_555
C13G C14D 1_555 1_555
C13G C14B 1_555 1_555
C13G C15D 1_555 1_555
C13G C15G 1_555 1_555
C13G C16D 1_555 1_555
C13G C16G 1_555 1_555
C13I C13K 1_555 1_555
C13I C14D 1_555 1_555
C13I C15I 1_555 1_555
C13I C16I 1_555 1_555
C13I C17I 1_555 1_555
C13I C18I 1_555 1_555
C13K C14B 1_555 1_555
C13K C15B 1_555 1_555
C13K C15K 1_555 1_555
C13K C16B 1_555 1_555
C13K C16K 1_555 1_555
C13K C17K 1_555 1_555
C14D C15I 1_555 1_555
C14D C16D 1_555 1_555
C14D C16G 1_555 1_555
C14D C17I 1_555 1_555
C14D H23D 1_555 1_555
C14D H23G 1_555 1_555
C14B C15D 1_555 1_555
C14B C15G 1_555 1_555
C14B C16B 1_555 1_555
C14B C16K 1_555 1_555
C14B C17D 1_555 1_555
C14B C17G 1_555 1_555
H18B H18K 1_555 1_555
H18B C16B 1_555 1_555
H18B C16K 1_555 1_555
H18K C16B 1_555 1_555
H18K C16K 1_555 1_555
H18D H18G 1_555 1_555
H18D C16D 1_555 1_555
H18D C16G 1_555 1_555
H18G C16D 1_555 1_555
H18G C16G 1_555 1_555
H18I C16I 1_555 1_555
C15D C15G 1_555 1_555
C15D C16D 1_555 1_555
C15D C17D 1_555 1_555
C15D C17G 1_555 1_555
C15D H23B 1_555 1_555
C15D H23K 1_555 1_555
C15D C18G 1_555 1_555
C15D C18D 1_555 1_555
C15G C16G 1_555 1_555
C15G C17D 1_555 1_555
C15G C17G 1_555 1_555
C15G H23B 1_555 1_555
C15G H23K 1_555 1_555
C15G C18G 1_555 1_555
C15G C18D 1_555 1_555
C15B C15K 1_555 1_555
C15B C16B 1_555 1_555
C15B C17K 1_555 1_555
C15B C17B 1_555 1_555
C15B H23I 1_555 1_555
C15B C18K 1_555 1_555
C15B C18B 1_555 1_555
C15K C16K 1_555 1_555
C15K C17K 1_555 1_555
C15K C17B 1_555 1_555
C15K H23I 1_555 1_555
C15K C18K 1_555 1_555
C15K C18B 1_555 1_555
C15I H19I 1_555 1_555
C15I C16I 1_555 1_555
C15I C17I 1_555 1_555
C15I H21I 1_555 1_555
C15I H23D 1_555 1_555
C15I H23G 1_555 1_555
C15I C18I 1_555 1_555
C15I H26I 1_555 1_555
H19G C17D 1_555 1_555
H19G H21G 1_555 1_555
H19D C17G 1_555 1_555
H19D H21D 1_555 1_555
H19B C17K 1_555 1_555
H19B H21B 1_555 1_555
H19I H21I 1_555 1_555
H19K C17B 1_555 1_555
H19K H21K 1_555 1_555
C16D C16G 1_555 1_555
C16D C17G 1_555 1_555
C16D C18G 1_555 1_555
C16D C18D 1_555 1_555
C16D H26D 1_555 1_555
C16G C17D 1_555 1_555
C16G C18G 1_555 1_555
C16G C18D 1_555 1_555
C16G H26G 1_555 1_555
C16B C16K 1_555 1_555
C16B C17K 1_555 1_555
C16B C18K 1_555 1_555
C16B C18B 1_555 1_555
C16B H26B 1_555 1_555
C16K C17B 1_555 1_555
C16K C18K 1_555 1_555
C16K C18B 1_555 1_555
C16K H26K 1_555 1_555
C16I H20I 1_555 1_555
C16I C18I 1_555 1_555
C16I H24I 1_555 1_555
C16I H26I 1_555 1_555
H20D C18G 1_555 1_555
H20D H24D 1_555 1_555
H20G C18D 1_555 1_555
H20G H24G 1_555 1_555
H20I H24I 1_555 1_555
H20K C18B 1_555 1_555
H20K H24K 1_555 1_555
H20B C18K 1_555 1_555
H20B H24B 1_555 1_555
C17D C17G 1_555 1_555
C17D H21G 1_555 1_555
C17D H23B 1_555 1_555
C17D H23K 1_555 1_555
C17D C18D 1_555 1_555
C17G H21D 1_555 1_555
C17G H23B 1_555 1_555
C17G H23K 1_555 1_555
C17G C18G 1_555 1_555
C17I H23D 1_555 1_555
C17I H23G 1_555 1_555
C17I C18I 1_555 1_555
C17K C17B 1_555 1_555
C17K H21B 1_555 1_555
C17K H23I 1_555 1_555
C17K C18K 1_555 1_555
C17B H21K 1_555 1_555
C17B H23I 1_555 1_555
C17B C18B 1_555 1_555
H21D C18G 1_555 1_555
H21G C18D 1_555 1_555
H21B C18K 1_555 1_555
H21K C18B 1_555 1_555
H23B H23K 1_555 1_555
H23D H23G 1_555 1_555
C18G C18D 1_555 1_555
C18G H24D 1_555 1_555
C18G H26D 1_555 1_555
C18G H26G 1_555 1_555
C18D H24G 1_555 1_555
C18D H26D 1_555 1_555
C18D H26G 1_555 1_555
C18I H26I 1_555 1_555
C18K C18B 1_555 1_555
C18K H24B 1_555 1_555
C18K H26B 1_555 1_555
C18K H26K 1_555 1_555
C18B H24K 1_555 1_555
C18B H26B 1_555 1_555
C18B H26K 1_555 1_555
H26D H26G 1_555 1_555
H26B H26K 1_555 1_555
C20I C21I 1_555 1_555
C22I C23I 1_555 1_555

#END
