
#######################################################################
#
#                 Cambridge Crystallographic Data Centre
#                                CCDC 
#
#######################################################################
#
# If this CIF has been generated from an entry in the Cambridge 
# Structural Database, then it will include bibliographic, chemical, 
# crystal, experimental, refinement or atomic coordinate data resulting 
# from the CCDC's data processing and validation procedures.
#
#######################################################################

data_PUDWOB
_chemical_name_common            
'3,6,10,13,17,20,24,27,30,33,36,39-Dodecaaza-1,8,15,22(1,3,5)-tetrabenzenatricyclo[13.13.6.6$8,22!]tetracontaphane-2,6,9,13,16,20,23,27,29,33,35,39-dodecaene ethyl acetate solvate monohydrate'
_chemical_formula_moiety         'C48 H48 N12,2.5(C4 H8 O2),H2 O1'
_chemical_name_systematic        
'5,8,16,19,27,30,38,41,46,49,54,57-dodecaazaheptacyclo[21.21.6.6^12,34^.1^3,43^.1^10,14^.1^21,25^.1^32,36^]hexaconta-1,3(51),4,8,10(60),11,13,15,19,21(59),22,24,26,30,32(52),33,35,37,41,43,45,49,53,57-tetracosaene ethyl acetate solvate monohydrate'
_symmetry_cell_setting           monoclinic
_symmetry_space_group_name_H-M   'C 2/c'
_symmetry_Int_Tables_number      15
_space_group_name_Hall           '-C 2yn'
loop_
_symmetry_equiv_pos_site_id
_symmetry_equiv_pos_as_xyz
1 x,y,z
2 -x,y,1/2-z
3 1/2+x,1/2+y,z
4 1/2-x,1/2+y,1/2-z
5 -x,-y,-z
6 x,-y,1/2+z
7 1/2-x,1/2-y,-z
8 1/2+x,1/2-y,1/2+z
_cell_length_a                   28.32(2)
_cell_length_b                   10.976(10)
_cell_length_c                   36.46(3)
_cell_angle_alpha                90
_cell_angle_beta                 93.265(15)
_cell_angle_gamma                90
_cell_volume                     11314.8
_exptl_crystal_colour            colorless
_exptl_crystal_description       needle
_cell_formula_units_Z            8
_exptl_crystal_recrystallization_method 'ethyl acetate'
loop_
_atom_site_label
_atom_site_type_symbol
_atom_site_fract_x
_atom_site_fract_y
_atom_site_fract_z
C5 C 0.4505(7) 0.539(2) 0.1519(7)
H9 H 0.4347 0.4614 0.1567
H10 H 0.4390 0.5704 0.1279
H11 H 0.4437 0.5976 0.1711
C6 C 0.5002(9) 0.519(3) 0.1519(9)
O3 O 0.5293(10) 0.603(2) 0.1438(9)
O4 O 0.5200(7) 0.4215(18) 0.1324(5)
C7 C 0.5658(8) 0.409(2) 0.1251(5)
H12 H 0.5755 0.3228 0.1280
H13 H 0.5858 0.4587 0.1425
C8 C 0.5732(9) 0.454(3) 0.0827(5)
H14 H 0.6067 0.4486 0.0777
H15 H 0.5625 0.5386 0.0798
H16 H 0.5547 0.4018 0.0655
N1 N 0.9197(3) -0.0129(9) 0.0076(2)
N2 N 0.9979(3) 0.4401(10) 0.1095(2)
N3 N 0.7990(3) 0.4816(9) 0.0116(2)
N4 N 0.8968(3) -0.2435(10) 0.0464(2)
N5 N 0.6969(3) -0.2713(10) 0.1196(3)
N6 N 0.8912(3) -0.2765(10) 0.2220(3)
N7 N 0.7948(3) 0.4039(9) 0.2695(2)
N8 N 0.9914(3) 0.4646(10) 0.1912(3)
N9 N 0.9366(4) -0.0555(11) 0.2594(3)
N10 N 0.7088(3) 0.4377(10) 0.2164(2)
N11 N 0.6374(3) -0.0465(10) 0.1265(2)
N12 N 0.7054(3) 0.4303(9) 0.0400(2)
C9 C 0.9212(4) 0.1791(12) 0.0402(3)
C10 C 0.9466(4) 0.2607(12) 0.0643(3)
H17 H 0.9757 0.2354 0.0761
C11 C 0.9294(4) 0.3778(12) 0.0709(3)
C12 C 0.8854(4) 0.4114(12) 0.0537(3)
H18 H 0.8731 0.4904 0.0580
C13 C 0.8592(4) 0.3317(12) 0.0303(3)
C14 C 0.8777(4) 0.2203(11) 0.0239(3)
H19 H 0.8605 0.1671 0.0075
C15 C 0.9386(4) 0.0593(12) 0.0317(3)
H20 H 0.9664 0.0319 0.0451
C16 C 0.9574(4) 0.4619(12) 0.0952(3)
H21 H 0.9436 0.5386 0.1004
C17 C 0.8138(4) 0.3724(12) 0.0115(3)
H22 H 0.7948 0.3132 -0.0014
C18 C 0.8399(4) -0.2592(12) 0.0931(3)
C19 C 0.7931(4) -0.2627(11) 0.1011(3)
H23 H 0.7697 -0.2623 0.0814
C20 C 0.7785(4) -0.2669(12) 0.1368(3)
C21 C 0.8130(4) -0.2722(12) 0.1662(3)
H24 H 0.8040 -0.2803 0.1908
C22 C 0.8616(4) -0.2652(12) 0.1583(3)
C23 C 0.8746(4) -0.2594(11) 0.1222(3)
H25 H 0.9071 -0.2555 0.1171
C24 C 0.8547(4) -0.2537(11) 0.0539(3)
H26 H 0.8311 -0.2581 0.0344
C25 C 0.7283(4) -0.2692(12) 0.1458(3)
H27 H 0.7197 -0.2691 0.1707
C26 C 0.9003(4) -0.2652(11) 0.1883(3)
H28 H 0.9323 -0.2567 0.1820
C27 C 0.8714(4) 0.3503(13) 0.2488(3)
C28 C 0.9106(4) 0.3949(12) 0.2292(3)
H29 H 0.9124 0.4778 0.2219
C29 C 0.9457(4) 0.3121(13) 0.2214(3)
C30 C 0.9445(4) 0.1934(11) 0.2332(3)
H30 H 0.9690 0.1395 0.2270
C31 C 0.9075(4) 0.1487(13) 0.2545(3)
C32 C 0.8722(4) 0.2336(12) 0.2613(3)
H31 H 0.8471 0.2078 0.2756
C33 C 0.8326(4) 0.4392(13) 0.2541(3)
H32 H 0.8356 0.5213 0.2463
C34 C 0.9871(4) 0.3523(12) 0.1989(3)
H33 H 1.0092 0.2943 0.1908
C35 C 0.9078(4) 0.0256(12) 0.2675(3)
H34 H 0.8841 0.0034 0.2837
C36 C 0.6914(4) 0.2948(12) 0.1657(3)
C37 C 0.6748(4) 0.1841(12) 0.1547(3)
H35 H 0.6657 0.1268 0.1725
C38 C 0.6709(4) 0.1523(12) 0.1164(3)
C39 C 0.6825(4) 0.2394(12) 0.0921(3)
H36 H 0.6793 0.2199 0.0667
C40 C 0.6987(4) 0.3547(12) 0.1018(3)
C41 C 0.7017(3) 0.3854(11) 0.1396(3)
H37 H 0.7105 0.4653 0.1473
C42 C 0.6956(4) 0.3317(11) 0.2059(3)
H38 H 0.6881 0.2734 0.2239
C43 C 0.6553(4) 0.0309(11) 0.1060(3)
H39 H 0.6591 0.0073 0.0813
C44 C 0.7086(3) 0.4506(12) 0.0750(3)
H40 H 0.7177 0.5293 0.0836
C45 C 0.9404(4) -0.1311(11) 0.0011(3)
H41 H 0.9688 -0.1420 0.0180
H42 H 0.9506 -0.1346 -0.0244
C46 C 0.9062(4) -0.2328(11) 0.0069(3)
H43 H 0.8762 -0.2169 -0.0075
H44 H 0.9194 -0.3104 -0.0018
C47 C 1.0192(4) 0.5426(11) 0.1315(3)
H45 H 0.9961 0.6096 0.1333
H46 H 1.0474 0.5744 0.1198
C48 C 1.0334(4) 0.4922(11) 0.1701(3)
H47 H 1.0523 0.4170 0.1677
H48 H 1.0535 0.5527 0.1838
C49 C 0.7538(4) 0.5009(10) -0.0088(3)
H49 H 0.7447 0.4257 -0.0224
H50 H 0.7573 0.5669 -0.0270
C50 C 0.7153(4) 0.5344(11) 0.0162(3)
H51 H 0.7254 0.6053 0.0315
H52 H 0.6863 0.5573 0.0014
C51 C 0.6469(4) -0.2686(12) 0.1291(3)
H53 H 0.6450 -0.2602 0.1560
H54 H 0.6310 -0.3456 0.1213
C52 C 0.6224(4) -0.1616(11) 0.1097(3)
H55 H 0.6299 -0.1615 0.0835
H56 H 0.5877 -0.1704 0.1109
C53 C 0.9342(4) -0.2739(12) 0.2485(3)
H57 H 0.9368 -0.3526 0.2617
H58 H 0.9629 -0.2638 0.2345
C54 C 0.9318(4) -0.1747(11) 0.2752(3)
H59 H 0.9011 -0.1792 0.2869
H60 H 0.9572 -0.1863 0.2947
C55 C 0.7585(4) 0.5027(11) 0.2713(3)
H61 H 0.7678 0.5728 0.2562
H62 H 0.7569 0.5309 0.2970
C56 C 0.7091(4) 0.4558(12) 0.2570(3)
H63 H 0.7020 0.3779 0.2691
H64 H 0.6845 0.5157 0.2628
C1 C 0.8115(9) 0.047(2) 0.0922(5)
H1 H 0.8246 0.0981 0.0732
H2 H 0.7775 0.0363 0.0868
H3 H 0.8272 -0.0325 0.0927
C2 C 0.8191(13) 0.104(2) 0.1267(6)
O1 O 0.8096(6) 0.0618(17) 0.1579(4)
O2 O 0.8212(7) 0.2345(14) 0.1284(5)
C3 C 0.8278(9) 0.2892(17) 0.1615(5)
H4 H 0.8554 0.2547 0.1759
H5 H 0.7994 0.2828 0.1759
C4 C 0.8377(10) 0.4326(17) 0.1488(7)
H6 H 0.8411 0.4844 0.1707
H7 H 0.8110 0.4614 0.1328
H8 H 0.8668 0.4361 0.1355
C57? C 0.9612(7) 0.3121(18) -0.0479(6)
H65? H 0.9828 0.2526 -0.0359
H66? H 0.9288 0.2806 -0.0485
H67? H 0.9704 0.3264 -0.0731
C58? C 0.9637(11) 0.424(3) -0.0279(9)
O5? O 0.9353(8) 0.511(2) -0.0350(7)
O6? O 1.0013(13) 0.471(3) -0.0061(12)
C59? C 1.0037(9) 0.581(2) 0.0123(8)
H68? H 1.0040 0.6513 -0.0047
H69? H 0.9777 0.5909 0.0291
C60? C 1.0565(11) 0.561(3) 0.0353(11)
H70? H 1.0643 0.6328 0.0503
H71? H 1.0550 0.4890 0.0512
H72? H 1.0810 0.5482 0.0177
C61? C 0.7884(12) 0.063(3) 0.1062(9)
C62? C 0.8137(18) 0.129(4) 0.1345(8)
C63? C 0.8719(9) 0.290(2) 0.1466(8)
C64? C 0.8303(13) 0.397(3) 0.1530(10)
C65? C 0.4364(10) 0.514(3) 0.1408(10)
C66? C 0.4833(11) 0.464(3) 0.1440(10)
C67? C 0.5428(10) 0.533(2) 0.1020(7)
C68? C 0.5592(12) 0.387(3) 0.0946(9)
H73? H 0.8072 0.0588 0.0845
H74? H 0.7583 0.1035 0.0999
H75? H 0.7823 -0.0202 0.1148
H76? H 0.8999 0.3256 0.1354
H77? H 0.8820 0.2494 0.1699
H78? H 0.8434 0.4601 0.1697
H79? H 0.8029 0.3594 0.1636
H80? H 0.8205 0.4347 0.1293
H81? H 0.4375 0.6011 0.1462
H82? H 0.4167 0.4726 0.1583
H83? H 0.4228 0.5008 0.1158
H84? H 0.5705 0.5880 0.1026
H85? H 0.5194 0.5608 0.0826
H86? H 0.5828 0.3850 0.0760
H87? H 0.5315 0.3392 0.0860
H88? H 0.5728 0.3517 0.1175
O7? O 0.8035(11) 0.170(4) 0.1660(8)
O8? O 0.8482(10) 0.215(2) 0.1235(6)
O9? O 0.4964(10) 0.360(2) 0.1324(7)
O10? O 0.5238(11) 0.530(3) 0.1347(9)
loop_
_geom_bond_atom_site_label_1
_geom_bond_atom_site_label_2
_geom_bond_site_symmetry_1
_geom_bond_site_symmetry_2
C1 H1 1_555 1_555
H2 C1 1_555 1_555
H3 C1 1_555 1_555
C2 C1 1_555 1_555
O1 C2 1_555 1_555
O2 C2 1_555 1_555
C3 O2 1_555 1_555
H4 C3 1_555 1_555
H5 C3 1_555 1_555
C4 C3 1_555 1_555
H6 C4 1_555 1_555
H7 C4 1_555 1_555
H8 C4 1_555 1_555
C5 H9 1_555 1_555
H10 C5 1_555 1_555
H11 C5 1_555 1_555
C6 C5 1_555 1_555
O3 C6 1_555 1_555
O4 C6 1_555 1_555
C7 O4 1_555 1_555
H12 C7 1_555 1_555
H13 C7 1_555 1_555
C8 C7 1_555 1_555
H14 C8 1_555 1_555
H15 C8 1_555 1_555
H16 C8 1_555 1_555
N1 C15 1_555 1_555
N2 C16 1_555 1_555
N3 C17 1_555 1_555
N4 C24 1_555 1_555
N5 C25 1_555 1_555
N6 C26 1_555 1_555
N7 C33 1_555 1_555
N8 C34 1_555 1_555
N9 C35 1_555 1_555
N10 C42 1_555 1_555
N11 C43 1_555 1_555
N12 C44 1_555 1_555
C9 C10 1_555 1_555
C10 H17 1_555 1_555
C11 C10 1_555 1_555
C12 C11 1_555 1_555
H18 C12 1_555 1_555
C13 C12 1_555 1_555
C14 C9 1_555 1_555
H19 C14 1_555 1_555
C15 C9 1_555 1_555
H20 C15 1_555 1_555
C16 C11 1_555 1_555
H21 C16 1_555 1_555
C17 C13 1_555 1_555
H22 C17 1_555 1_555
C18 C19 1_555 1_555
C19 H23 1_555 1_555
C20 C19 1_555 1_555
C21 C20 1_555 1_555
H24 C21 1_555 1_555
C22 C21 1_555 1_555
C23 C18 1_555 1_555
H25 C23 1_555 1_555
C24 C18 1_555 1_555
H26 C24 1_555 1_555
C25 C20 1_555 1_555
H27 C25 1_555 1_555
C26 C22 1_555 1_555
H28 C26 1_555 1_555
C27 C28 1_555 1_555
C28 H29 1_555 1_555
C29 C28 1_555 1_555
C30 C29 1_555 1_555
H30 C30 1_555 1_555
C31 C30 1_555 1_555
C32 C27 1_555 1_555
H31 C32 1_555 1_555
C33 C27 1_555 1_555
H32 C33 1_555 1_555
C34 C29 1_555 1_555
H33 C34 1_555 1_555
C35 C31 1_555 1_555
H34 C35 1_555 1_555
C36 C37 1_555 1_555
C37 H35 1_555 1_555
C38 C37 1_555 1_555
C39 C38 1_555 1_555
H36 C39 1_555 1_555
C40 C39 1_555 1_555
C41 C36 1_555 1_555
H37 C41 1_555 1_555
C42 C36 1_555 1_555
H38 C42 1_555 1_555
C43 C38 1_555 1_555
H39 C43 1_555 1_555
C44 C40 1_555 1_555
H40 C44 1_555 1_555
C45 N1 1_555 1_555
H41 C45 1_555 1_555
H42 C45 1_555 1_555
C46 N4 1_555 1_555
H43 C46 1_555 1_555
H44 C46 1_555 1_555
C47 N2 1_555 1_555
H45 C47 1_555 1_555
H46 C47 1_555 1_555
C48 N8 1_555 1_555
H47 C48 1_555 1_555
H48 C48 1_555 1_555
C49 N3 1_555 1_555
H49 C49 1_555 1_555
H50 C49 1_555 1_555
C50 N12 1_555 1_555
H51 C50 1_555 1_555
H52 C50 1_555 1_555
C51 N5 1_555 1_555
H53 C51 1_555 1_555
H54 C51 1_555 1_555
C52 N11 1_555 1_555
H55 C52 1_555 1_555
H56 C52 1_555 1_555
C53 N6 1_555 1_555
H57 C53 1_555 1_555
H58 C53 1_555 1_555
C54 N9 1_555 1_555
H59 C54 1_555 1_555
H60 C54 1_555 1_555
C55 N7 1_555 1_555
H61 C55 1_555 1_555
H62 C55 1_555 1_555
C56 N10 1_555 1_555
H63 C56 1_555 1_555
H64 C56 1_555 1_555
C13 C14 1_555 1_555
C22 C23 1_555 1_555
C31 C32 1_555 1_555
C40 C41 1_555 1_555
C45 C46 1_555 1_555
C47 C48 1_555 1_555
C49 C50 1_555 1_555
C51 C52 1_555 1_555
C53 C54 1_555 1_555
C55 C56 1_555 1_555

#END
