
#######################################################################
#
#                 Cambridge Crystallographic Data Centre
#                                CCDC 
#
#######################################################################
#
# If this CIF has been generated from an entry in the Cambridge 
# Structural Database, then it will include bibliographic, chemical, 
# crystal, experimental, refinement or atomic coordinate data resulting 
# from the CCDC's data processing and validation procedures.
#
#######################################################################

data_PUDXES02
_chemical_formula_moiety         'C72 H84 N12'
_chemical_name_systematic        
5,12,20,27,35,42,50,57,62,69,74,81-dodecaazatridecacyclo[29.29.10.10^16,46^.1^3,59^.1^14,18^.1^29,33^.1^44,48^.0^6,11^.0^21,26^.0^36,41^.0^51,56^.0^63,68^.0^75,80^]tetraoctaconta-1,3(71),4,12,14(84),15,17,19,27,29(83),30,32,34,42,44(72),45,47,49,57,59,61,69,73,81-tetracosaene
_symmetry_cell_setting           trigonal
_symmetry_space_group_name_H-M   'P 3'
_symmetry_Int_Tables_number      143
_space_group_name_Hall           'P 3'
loop_
_symmetry_equiv_pos_site_id
_symmetry_equiv_pos_as_xyz
1 x,y,z
2 -y,x-y,z
3 -x+y,-x,z
_cell_length_a                   25.1483(15)
_cell_length_b                   25.1483(15)
_cell_length_c                   11.0268(7)
_cell_angle_alpha                90
_cell_angle_beta                 90
_cell_angle_gamma                120
_cell_volume                     6039.45
_exptl_crystal_colour            colorless
_exptl_crystal_description       needle
_cell_formula_units_Z            3
loop_
_atom_site_label
_atom_site_type_symbol
_atom_site_fract_x
_atom_site_fract_y
_atom_site_fract_z
N1 N 0.4969(2) 0.2367(3) 1.3323(4)
N2 N 0.4248(2) 0.2035(3) 1.1118(5)
N3 N 0.5187(2) 0.1184(2) 0.6447(4)
N4 N 0.4992(2) 0.3582(2) 0.6219(5)
C1 C 0.6467(3) 0.3752(3) 1.3255(5)
H1 H 0.6335 0.4038 1.3263
C2 C 0.6041(3) 0.3141(3) 1.3249(5)
C3 C 0.5385(3) 0.2928(3) 1.3239(5)
H2 H 0.5263 0.3220 1.3166
C4 C 0.4323(3) 0.2216(3) 1.3268(5)
H3 H 0.4306 0.2587 1.3068
C5 C 0.4000(3) 0.1741(3) 1.2293(5)
H4 H 0.4075 0.1397 1.2409
C6 C 0.3314(3) 0.1506(4) 1.2272(7)
H5 H 0.3118 0.1175 1.1688
H6 H 0.3242 0.1834 1.2021
C7 C 0.3029(4) 0.1272(5) 1.3537(10)
H7 H 0.2596 0.1147 1.3519
H8 H 0.3065 0.0919 1.3758
C8 C 0.3347(4) 0.1764(6) 1.4443(8)
H9 H 0.3166 0.1614 1.5235
H10 H 0.3292 0.2109 1.4238
C9 C 0.4034(3) 0.1981(4) 1.4497(6)
H11 H 0.4231 0.2305 1.5095
H12 H 0.4092 0.1642 1.4740
C10 C 0.4458(3) 0.1805(3) 1.0396(7)
H13 H 0.4464 0.1452 1.0623
C11 C 0.4699(3) 0.2077(3) 0.9191(5)
C12 C 0.4888(3) 0.1787(3) 0.8373(6)
H14 H 0.4874 0.1424 0.8601
C13 C 0.5099(3) 0.2024(3) 0.7216(5)
C14 C 0.5121(3) 0.2568(3) 0.6913(5)
H15 H 0.5276 0.2744 0.6159
C15 C 0.4919(3) 0.2860(3) 0.7703(5)
C16 C 0.4711(3) 0.2611(3) 0.8832(6)
H16 H 0.4576 0.2804 0.9367
C17 C 0.5276(3) 0.1717(3) 0.6322(5)
H17 H 0.5465 0.1929 0.5615
C18 C 0.5370(3) 0.0934(2) 0.5437(5)
H18 H 0.5530 0.1233 0.4774
C19 C 0.4841(3) 0.0346(3) 0.4989(7)
H19 H 0.4529 0.0427 0.4668
H20 H 0.4663 0.0064 0.5664
C20 C 0.4891(3) 0.3407(3) 0.7294(6)
H21 H 0.4796 0.3624 0.7852
C21 C 0.4943(3) 0.4121(3) 0.5905(5)
H22 H 0.4820 0.4265 0.6620
C22 C 0.4453(3) 0.3927(3) 0.4913(6)
H23 H 0.4559 0.3753 0.4233
H24 H 0.4059 0.3615 0.5227
C23 C 0.4408(4) 0.4478(4) 0.4488(7)
H25 H 0.4099 0.4350 0.3858
H26 H 0.4283 0.4639 0.5160
C24 C 0.5016(4) 0.4972(4) 0.4004(7)
H27 H 0.4984 0.5325 0.3759
H28 H 0.5131 0.4821 0.3299
N1A N 0.7633(3) 0.2602(4) 1.3323(4)
N2A N 0.7965(3) 0.2213(4) 1.1118(5)
N3A N 0.8816(2) 0.4003(3) 0.6447(4)
N4A N 0.6418(2) 0.1410(3) 0.6219(5)
C1A C 0.6248(3) 0.2715(4) 1.3255(5)
H1A H 0.5962 0.2297 1.3263
C2A C 0.6859(3) 0.2900(4) 1.3249(5)
C3A C 0.7072(3) 0.2457(4) 1.3239(5)
H2A H 0.6780 0.2043 1.3166
C4A C 0.7784(3) 0.2107(4) 1.3268(5)
H3A H 0.7413 0.1719 1.3068
C5A C 0.8259(3) 0.2259(4) 1.2293(5)
H4A H 0.8603 0.2678 1.2409
C6A C 0.8494(4) 0.1808(5) 1.2272(7)
H5A H 0.8825 0.1943 1.1688
H6A H 0.8166 0.1408 1.2021
C7A C 0.8728(5) 0.1757(6) 1.3537(10)
H7A H 0.8853 0.1449 1.3519
H8A H 0.9081 0.2146 1.3758
C8A C 0.8236(6) 0.1583(7) 1.4443(8)
H9A H 0.8386 0.1552 1.5235
H10A H 0.7891 0.1183 1.4238
C9A C 0.8019(4) 0.2053(5) 1.4497(6)
H11A H 0.7695 0.1926 1.5095
H12A H 0.8358 0.2450 1.4740
C10A C 0.8195(3) 0.2653(4) 1.0396(7)
H13A H 0.8548 0.3012 1.0623
C11A C 0.7923(3) 0.2622(4) 0.9191(5)
C12A C 0.8213(3) 0.3101(4) 0.8373(6)
H14A H 0.8576 0.3450 0.8601
C13A C 0.7976(3) 0.3075(4) 0.7216(5)
C14A C 0.7432(3) 0.2553(4) 0.6913(5)
H15A H 0.7256 0.2532 0.6159
C15A C 0.7140(3) 0.2059(4) 0.7703(5)
C16A C 0.7389(3) 0.2100(4) 0.8832(6)
H16A H 0.7196 0.1772 0.9367
C17A C 0.8283(3) 0.3559(4) 0.6322(5)
H17A H 0.8071 0.3536 0.5615
C18A C 0.9066(2) 0.4436(4) 0.5437(5)
H18A H 0.8767 0.4297 0.4774
C19A C 0.9654(3) 0.4495(4) 0.4989(7)
H19A H 0.9573 0.4102 0.4668
H20A H 0.9936 0.4599 0.5664
C20A C 0.6593(3) 0.1484(4) 0.7294(6)
H21A H 0.6376 0.1172 0.7852
C21A C 0.5879(3) 0.0822(4) 0.5905(5)
H22A H 0.5735 0.0555 0.6620
C22A C 0.6073(3) 0.0526(4) 0.4913(6)
H23A H 0.6247 0.0806 0.4233
H24A H 0.6385 0.0444 0.5227
C23A C 0.5522(4) -0.0070(6) 0.4488(7)
H25A H 0.5650 -0.0251 0.3858
H26A H 0.5361 -0.0356 0.5160
C24A C 0.5028(4) 0.0044(6) 0.4004(7)
H27A H 0.4675 -0.0341 0.3759
H28A H 0.5179 0.0310 0.3299
N1B N 0.7398(4) 0.5031(2) 1.3323(4)
N2B N 0.7787(4) 0.5752(2) 1.1118(5)
N3B N 0.5997(3) 0.4813(2) 0.6447(4)
N4B N 0.8590(3) 0.5008(2) 0.6219(5)
C1B C 0.7285(4) 0.3533(3) 1.3255(5)
H1B H 0.7703 0.3665 1.3263
C2B C 0.7100(4) 0.3959(3) 1.3249(5)
C3B C 0.7543(4) 0.4615(3) 1.3239(5)
H2B H 0.7957 0.4737 1.3166
C4B C 0.7893(4) 0.5677(3) 1.3268(5)
H3B H 0.8281 0.5694 1.3068
C5B C 0.7741(4) 0.6000(3) 1.2293(5)
H4B H 0.7322 0.5925 1.2409
C6B C 0.8192(5) 0.6686(3) 1.2272(7)
H5B H 0.8057 0.6882 1.1688
H6B H 0.8592 0.6758 1.2021
C7B C 0.8243(6) 0.6971(4) 1.3537(10)
H7B H 0.8551 0.7404 1.3519
H8B H 0.7854 0.6935 1.3758
C8B C 0.8417(7) 0.6653(4) 1.4443(8)
H9B H 0.8448 0.6834 1.5235
H10B H 0.8817 0.6708 1.4238
C9B C 0.7947(5) 0.5966(3) 1.4497(6)
H11B H 0.8074 0.5769 1.5095
H12B H 0.7550 0.5908 1.4740
C10B C 0.7347(4) 0.5542(3) 1.0396(7)
H13B H 0.6988 0.5536 1.0623
C11B C 0.7378(4) 0.5301(3) 0.9191(5)
C12B C 0.6899(4) 0.5112(3) 0.8373(6)
H14B H 0.6550 0.5126 0.8601
C13B C 0.6925(4) 0.4901(3) 0.7216(5)
C14B C 0.7447(4) 0.4879(3) 0.6913(5)
H15B H 0.7468 0.4724 0.6159
C15B C 0.7941(4) 0.5081(3) 0.7703(5)
C16B C 0.7900(4) 0.5289(3) 0.8832(6)
H16B H 0.8228 0.5424 0.9367
C17B C 0.6441(4) 0.4724(3) 0.6322(5)
H17B H 0.6464 0.4535 0.5615
C18B C 0.5564(4) 0.4630(3) 0.5437(5)
H18B H 0.5703 0.4470 0.4774
C19B C 0.5505(4) 0.5159(3) 0.4989(7)
H19B H 0.5898 0.5471 0.4668
H20B H 0.5401 0.5337 0.5664
C20B C 0.8516(4) 0.5109(3) 0.7294(6)
H21B H 0.8828 0.5204 0.7852
C21B C 0.9178(4) 0.5057(3) 0.5905(5)
H22B H 0.9445 0.5180 0.6620
C22B C 0.9474(4) 0.5547(3) 0.4913(6)
H23B H 0.9194 0.5441 0.4233
H24B H 0.9556 0.5941 0.5227
C23B C 1.0070(6) 0.5592(4) 0.4488(7)
H25B H 1.0251 0.5901 0.3858
H26B H 1.0356 0.5717 0.5160
C24B C 0.9956(6) 0.4984(4) 0.4004(7)
H27B H 1.0341 0.5016 0.3759
H28B H 0.9690 0.4869 0.3299
N5 N 0.3639(3) 0.5367(2) 1.0391(4)
N6 N 0.3662(3) 0.4818(3) 0.8111(5)
N7 N 0.5078(3) 0.6441(3) 0.3461(5)
N8 N 0.2234(3) 0.4526(2) 0.3184(5)
C25 C 0.1521(4) 0.3666(4) 0.1902(8)
H29 H 0.1752 0.3893 0.1194
H30 H 0.1692 0.3417 0.2182
C26 C 0.1590(3) 0.4121(3) 0.2905(6)
H31 H 0.1376 0.3892 0.3636
C27 C 0.2393(3) 0.4605(3) 0.4290(7)
H32 H 0.2097 0.4386 0.4876
C28 C 0.3029(3) 0.5030(3) 0.4687(6)
C29 C 0.4065(3) 0.5798(3) 0.4205(5)
C30 C 0.3470(3) 0.5444(3) 0.3881(5)
H33 H 0.3351 0.5478 0.3100
C31 C 0.4241(3) 0.5756(3) 0.5373(5)
H34 H 0.4650 0.5996 0.5600
C32 C 0.3814(3) 0.5357(3) 0.6214(5)
C33 C 0.3205(3) 0.4994(3) 0.5855(6)
H35 H 0.2914 0.4726 0.6406
C34 C 0.4512(3) 0.6191(3) 0.3304(6)
H36 H 0.4369 0.6260 0.2576
C35 C 0.5499(3) 0.6804(3) 0.2481(6)
H37 H 0.5255 0.6790 0.1775
C36 C 0.5900(4) 0.6540(4) 0.2124(9)
H38 H 0.5645 0.6127 0.1812
H39 H 0.6114 0.6515 0.2834
C37 C 0.6373(5) 0.6939(5) 0.1148(10)
H40 H 0.6647 0.6780 0.0992
H41 H 0.6160 0.6916 0.0399
C38 C 0.6747(4) 0.7607(5) 0.1551(10)
H42 H 0.7002 0.7637 0.2238
H43 H 0.7016 0.7852 0.0896
C39 C 0.4015(3) 0.5256(3) 0.7415(6)
H44 H 0.4415 0.5523 0.7668
C40 C 0.3918(3) 0.4734(3) 0.9221(5)
H45 H 0.4346 0.5060 0.9318
C41 C 0.3522(3) 0.4741(3) 1.0280(5)
H46 H 0.3086 0.4461 1.0106
C42 C 0.3702(4) 0.4549(3) 1.1459(6)
H47 H 0.4121 0.4851 1.1667
H48 H 0.3437 0.4538 1.2110
C43 C 0.3647(5) 0.3926(4) 1.1333(7)
H49 H 0.3764 0.3815 1.2091
H50 H 0.3224 0.3620 1.1162
C44 C 0.4054(5) 0.3929(4) 1.0329(7)
H51 H 0.4011 0.3525 1.0252
H52 H 0.4480 0.4221 1.0514
C45 C 0.3873(5) 0.4104(4) 0.9153(6)
H53 H 0.3455 0.3796 0.8953
H54 H 0.4138 0.4109 0.8509
C46 C 0.3196(3) 0.5467(3) 1.0268(5)
H55 H 0.2804 0.5133 1.0155
C47 C 0.3267(3) 0.6083(3) 1.0294(5)
C48 C 0.2760(3) 0.6148(3) 1.0310(5)
H56 H 0.2372 0.5800 1.0332
N5A N 0.4633(2) 0.8272(4) 1.0391(4)
N6A N 0.5182(3) 0.8844(4) 0.8111(5)
N7A N 0.3559(3) 0.8637(4) 0.3461(5)
N8A N 0.5474(2) 0.7708(4) 0.3184(5)
C25A C 0.6334(4) 0.7855(6) 0.1902(8)
H29A H 0.6107 0.7859 0.1194
H30A H 0.6583 0.8275 0.2182
C26A C 0.5879(3) 0.7469(4) 0.2905(6)
H31A H 0.6108 0.7484 0.3636
C27A C 0.5395(3) 0.7788(4) 0.4290(7)
H32A H 0.5614 0.7711 0.4876
C28A C 0.4970(3) 0.7999(4) 0.4687(6)
C29A C 0.4202(3) 0.8267(4) 0.4205(5)
C30A C 0.4556(3) 0.8026(4) 0.3881(5)
H33A H 0.4522 0.7873 0.3100
C31A C 0.4244(3) 0.8485(4) 0.5373(5)
H34A H 0.4004 0.8654 0.5600
C32A C 0.4643(3) 0.8457(4) 0.6214(5)
C33A C 0.5006(3) 0.8211(4) 0.5855(6)
H35A H 0.5274 0.8188 0.6406
C34A C 0.3809(3) 0.8321(4) 0.3304(6)
H36A H 0.3740 0.8109 0.2576
C35A C 0.3196(3) 0.8695(4) 0.2481(6)
H37A H 0.3210 0.8465 0.1775
C36A C 0.3460(4) 0.9360(6) 0.2124(9)
H38A H 0.3873 0.9518 0.1812
H39A H 0.3485 0.9599 0.2834
C37A C 0.3061(5) 0.9434(7) 0.1148(10)
H40A H 0.3220 0.9867 0.0992
H41A H 0.3084 0.9244 0.0399
C38A C 0.2393(5) 0.9140(6) 0.1551(10)
H42A H 0.2363 0.9365 0.2238
H43A H 0.2148 0.9164 0.0896
C39A C 0.4744(3) 0.8759(4) 0.7415(6)
H44A H 0.4477 0.8892 0.7668
C40A C 0.5266(3) 0.9184(4) 0.9221(5)
H45A H 0.4940 0.9286 0.9318
C41A C 0.5259(3) 0.8781(4) 1.0280(5)
H46A H 0.5539 0.8625 1.0106
C42A C 0.5451(3) 0.9153(5) 1.1459(6)
H47A H 0.5149 0.9270 1.1667
H48A H 0.5462 0.8899 1.2110
C43A C 0.6074(4) 0.9721(6) 1.1333(7)
H49A H 0.6185 0.9949 1.2091
H50A H 0.6380 0.9604 1.1162
C44A C 0.6071(4) 1.0125(6) 1.0329(7)
H51A H 0.6475 1.0486 1.0252
H52A H 0.5779 1.0259 1.0514
C45A C 0.5896(4) 0.9769(6) 0.9153(6)
H53A H 0.6204 0.9659 0.8953
H54A H 0.5891 1.0029 0.8509
C46A C 0.4533(3) 0.7729(4) 1.0268(5)
H55A H 0.4867 0.7671 1.0155
C47A C 0.3917(3) 0.7184(4) 1.0294(5)
C48A C 0.3852(3) 0.6612(4) 1.0310(5)
H56A H 0.4200 0.6572 1.0332
N5B N 0.1728(4) 0.6361(3) 1.0391(4)
N6B N 0.1156(4) 0.6338(3) 0.8111(5)
N7B N 0.1363(4) 0.4922(3) 0.3461(5)
N8B N 0.2292(4) 0.7766(3) 0.3184(5)
C25B C 0.2145(6) 0.8479(4) 0.1902(8)
H29B H 0.2141 0.8248 0.1194
H30B H 0.1725 0.8308 0.2182
C26B C 0.2531(4) 0.8410(3) 0.2905(6)
H31B H 0.2516 0.8624 0.3636
C27B C 0.2212(4) 0.7607(3) 0.4290(7)
H32B H 0.2289 0.7903 0.4876
C28B C 0.2001(4) 0.6971(3) 0.4687(6)
C29B C 0.1733(4) 0.5935(3) 0.4205(5)
C30B C 0.1974(4) 0.6530(3) 0.3881(5)
H33B H 0.2127 0.6649 0.3100
C31B C 0.1515(4) 0.5759(3) 0.5373(5)
H34B H 0.1346 0.5350 0.5600
C32B C 0.1543(4) 0.6186(3) 0.6214(5)
C33B C 0.1789(4) 0.6795(3) 0.5855(6)
H35B H 0.1812 0.7086 0.6406
C34B C 0.1679(4) 0.5488(3) 0.3304(6)
H36B H 0.1891 0.5631 0.2576
C35B C 0.1305(4) 0.4501(3) 0.2481(6)
H37B H 0.1535 0.4745 0.1775
C36B C 0.0640(6) 0.4100(4) 0.2124(9)
H38B H 0.0482 0.4355 0.1812
H39B H 0.0401 0.3886 0.2834
C37B C 0.0566(7) 0.3627(5) 0.1148(10)
H40B H 0.0133 0.3353 0.0992
H41B H 0.0756 0.3840 0.0399
C38B C 0.0860(6) 0.3253(4) 0.1551(10)
H42B H 0.0635 0.2998 0.2238
H43B H 0.0836 0.2984 0.0896
C39B C 0.1241(4) 0.5985(3) 0.7415(6)
H44B H 0.1108 0.5585 0.7668
C40B C 0.0816(4) 0.6082(3) 0.9221(5)
H45B H 0.0714 0.5654 0.9318
C41B C 0.1219(4) 0.6478(3) 1.0280(5)
H46B H 0.1375 0.6914 1.0106
C42B C 0.0847(5) 0.6298(4) 1.1459(6)
H47B H 0.0730 0.5879 1.1667
H48B H 0.1101 0.6563 1.2110
C43B C 0.0279(6) 0.6353(5) 1.1333(7)
H49B H 0.0051 0.6236 1.2091
H50B H 0.0396 0.6776 1.1162
C44B C -0.0125(6) 0.5946(5) 1.0329(7)
H51B H -0.0486 0.5989 1.0252
H52B H -0.0259 0.5520 1.0514
C45B C 0.0231(6) 0.6127(5) 0.9153(6)
H53B H 0.0341 0.6545 0.8953
H54B H -0.0029 0.5862 0.8509
C46B C 0.2271(4) 0.6804(3) 1.0268(5)
H55B H 0.2329 0.7196 1.0155
C47B C 0.2816(4) 0.6733(3) 1.0294(5)
C48B C 0.3388(4) 0.7240(3) 1.0310(5)
H56B H 0.3428 0.7628 1.0332
N9 N 0.1334(2) 0.1573(2) 0.5614(5)
N10 N 0.1991(3) 0.2166(2) 0.3414(6)
N11 N 0.2123(3) 0.0809(3) -0.1404(6)
N12 N 0.0496(3) 0.2102(3) -0.1242(5)
C49 C 0.2083(3) 0.0934(3) -0.0331(8)
H57 H 0.2279 0.0835 0.0268
C50 C 0.1726(3) 0.1243(3) 0.0023(7)
C51 C 0.1333(3) 0.1287(3) -0.0793(6)
H58 H 0.1270 0.1100 -0.1549
C52 C 0.1029(3) 0.1605(3) -0.0506(7)
C53 C 0.1100(3) 0.1843(3) 0.0650(7)
H59 H 0.0883 0.2037 0.0868
C54 C 0.1487(3) 0.1800(3) 0.1500(6)
C55 C 0.1791(3) 0.1489(3) 0.1153(8)
H60 H 0.2046 0.1447 0.1710
C56 C 0.0131(3) 0.2179(3) -0.2177(6)
H61 H 0.0088 0.1920 -0.2875
C57 C -0.0501(4) 0.1973(3) -0.1638(7)
H62 H -0.0453 0.2191 -0.0872
C58 C -0.0894(4) 0.2114(4) -0.2521(9)
H63 H -0.0990 0.1856 -0.3234
H64 H -0.1278 0.2017 -0.2130
C59 C -0.0562(6) 0.2776(5) -0.2896(11)
H65 H -0.0813 0.2843 -0.3475
H66 H -0.0506 0.3030 -0.2191
C60 C 0.0049(6) 0.2968(5) -0.3452(10)
H67 H 0.0254 0.3402 -0.3646
H68 H -0.0006 0.2742 -0.4199
C61 C 0.0442(4) 0.2844(4) -0.2576(8)
H69 H 0.0829 0.2951 -0.2964
H70 H 0.0530 0.3104 -0.1868
C62 C 0.0663(3) 0.1712(3) -0.1399(6)
H71 H 0.0549 0.1483 -0.2110
C63 C 0.1570(4) 0.2094(3) 0.2663(7)
H72 H 0.1307 0.2239 0.2878
C64 C 0.2040(3) 0.2486(3) 0.4527(6)
H73 H 0.1716 0.2594 0.4553
C65 C 0.2669(3) 0.3075(3) 0.4564(7)
H74 H 0.2693 0.3349 0.3921
H75 H 0.2990 0.2974 0.4429
C66 C 0.2773(4) 0.3401(4) 0.5798(10)
H76 H 0.3175 0.3768 0.5804
H77 H 0.2468 0.3526 0.5908
C67 C 0.2730(4) 0.2990(5) 0.6827(8)
H78 H 0.2792 0.3204 0.7592
H79 H 0.3047 0.2880 0.6744
C68 C 0.2102(4) 0.2414(4) 0.6816(7)
H80 H 0.1790 0.2525 0.6966
H81 H 0.2081 0.2144 0.7465
C69 C 0.1968(3) 0.2073(3) 0.5614(6)
H82 H 0.2244 0.1906 0.5515
C70 C 0.1226(3) 0.1027(3) 0.5548(6)
H83 H 0.1555 0.0957 0.5494
C71 C 0.0602(3) 0.0501(3) 0.5554(5)
C72 C 0.0497(3) -0.0088(3) 0.5550(6)
H84 H 0.0831 -0.0151 0.5544
N9A N -0.1573(2) -0.0239(3) 0.5614(5)
N10A N -0.2166(2) -0.0175(4) 0.3414(6)
N11A N -0.0809(3) 0.1314(4) -0.1404(6)
N12A N -0.2102(3) -0.1606(4) -0.1242(5)
C49A C -0.0934(3) 0.1149(4) -0.0331(8)
H57A H -0.0835 0.1444 0.0268
C50A C -0.1243(3) 0.0483(4) 0.0023(7)
C51A C -0.1287(3) 0.0046(4) -0.0793(6)
H58A H -0.1100 0.0170 -0.1549
C52A C -0.1605(3) -0.0576(4) -0.0506(7)
C53A C -0.1843(3) -0.0743(4) 0.0650(7)
H59A H -0.2037 -0.1154 0.0868
C54A C -0.1800(3) -0.0313(4) 0.1500(6)
C55A C -0.1489(3) 0.0302(4) 0.1153(8)
H60A H -0.1447 0.0599 0.1710
C56A C -0.2179(3) -0.2048(4) -0.2177(6)
H61A H -0.1920 -0.1832 -0.2875
C57A C -0.1973(3) -0.2474(5) -0.1638(7)
H62A H -0.2191 -0.2644 -0.0872
C58A C -0.2114(4) -0.3008(6) -0.2521(9)
H63A H -0.1856 -0.2846 -0.3234
H64A H -0.2017 -0.3295 -0.2130
C59A C -0.2776(5) -0.3338(8) -0.2896(11)
H65A H -0.2843 -0.3656 -0.3475
H66A H -0.3030 -0.3536 -0.2191
C60A C -0.2968(5) -0.2919(8) -0.3452(10)
H67A H -0.3402 -0.3148 -0.3646
H68A H -0.2742 -0.2748 -0.4199
C61A C -0.2844(4) -0.2402(6) -0.2576(8)
H69A H -0.2951 -0.2122 -0.2964
H70A H -0.3104 -0.2574 -0.1868
C62A C -0.1712(3) -0.1049(4) -0.1399(6)
H71A H -0.1483 -0.0934 -0.2110
C63A C -0.2094(3) -0.0524(5) 0.2663(7)
H72A H -0.2239 -0.0932 0.2878
C64A C -0.2486(3) -0.0446(4) 0.4527(6)
H73A H -0.2594 -0.0878 0.4553
C65A C -0.3075(3) -0.0406(4) 0.4564(7)
H74A H -0.3349 -0.0656 0.3921
H75A H -0.2974 0.0016 0.4429
C66A C -0.3401(4) -0.0628(6) 0.5798(10)
H76A H -0.3768 -0.0593 0.5804
H77A H -0.3526 -0.1058 0.5908
C67A C -0.2990(5) -0.0260(6) 0.6827(8)
H78A H -0.3204 -0.0412 0.7592
H79A H -0.2880 0.0167 0.6744
C68A C -0.2414(4) -0.0312(6) 0.6816(7)
H80A H -0.2525 -0.0735 0.6966
H81A H -0.2144 -0.0063 0.7465
C69A C -0.2073(3) -0.0105(4) 0.5614(6)
H82A H -0.1906 0.0338 0.5515
C70A C -0.1027(3) 0.0199(4) 0.5548(6)
H83A H -0.0957 0.0598 0.5494
C71A C -0.0501(3) 0.0101(4) 0.5554(5)
C72A C 0.0088(3) 0.0585(4) 0.5550(6)
H84A H 0.0151 0.0982 0.5544
N9B N 0.0239(3) -0.1334(2) 0.5614(5)
N10B N 0.0175(4) -0.1991(3) 0.3414(6)
N11B N -0.1314(4) -0.2123(3) -0.1404(6)
N12B N 0.1606(4) -0.0496(3) -0.1242(5)
C49B C -0.1149(4) -0.2083(3) -0.0331(8)
H57B H -0.1444 -0.2279 0.0268
C50B C -0.0483(4) -0.1726(3) 0.0023(7)
C51B C -0.0046(4) -0.1333(3) -0.0793(6)
H58B H -0.0170 -0.1270 -0.1549
C52B C 0.0576(4) -0.1029(3) -0.0506(7)
C53B C 0.0743(4) -0.1100(3) 0.0650(7)
H59B H 0.1154 -0.0883 0.0868
C54B C 0.0313(4) -0.1487(3) 0.1500(6)
C55B C -0.0302(4) -0.1791(3) 0.1153(8)
H60B H -0.0599 -0.2046 0.1710
C56B C 0.2048(4) -0.0131(3) -0.2177(6)
H61B H 0.1832 -0.0088 -0.2875
C57B C 0.2474(5) 0.0501(4) -0.1638(7)
H62B H 0.2644 0.0453 -0.0872
C58B C 0.3008(6) 0.0894(4) -0.2521(9)
H63B H 0.2846 0.0990 -0.3234
H64B H 0.3295 0.1278 -0.2130
C59B C 0.3338(8) 0.0562(6) -0.2896(11)
H65B H 0.3656 0.0813 -0.3475
H66B H 0.3536 0.0506 -0.2191
C60B C 0.2919(8) -0.0049(6) -0.3452(10)
H67B H 0.3148 -0.0254 -0.3646
H68B H 0.2748 0.0006 -0.4199
C61B C 0.2402(6) -0.0442(4) -0.2576(8)
H69B H 0.2122 -0.0829 -0.2964
H70B H 0.2574 -0.0530 -0.1868
C62B C 0.1049(4) -0.0663(3) -0.1399(6)
H71B H 0.0934 -0.0549 -0.2110
C63B C 0.0524(5) -0.1570(4) 0.2663(7)
H72B H 0.0932 -0.1307 0.2878
C64B C 0.0446(4) -0.2040(3) 0.4527(6)
H73B H 0.0878 -0.1716 0.4553
C65B C 0.0406(4) -0.2669(3) 0.4564(7)
H74B H 0.0656 -0.2693 0.3921
H75B H -0.0016 -0.2990 0.4429
C66B C 0.0628(6) -0.2773(4) 0.5798(10)
H76B H 0.0593 -0.3175 0.5804
H77B H 0.1058 -0.2468 0.5908
C67B C 0.0260(6) -0.2730(4) 0.6827(8)
H78B H 0.0412 -0.2792 0.7592
H79B H -0.0167 -0.3047 0.6744
C68B C 0.0312(6) -0.2102(4) 0.6816(7)
H80B H 0.0735 -0.1790 0.6966
H81B H 0.0063 -0.2081 0.7465
C69B C 0.0105(4) -0.1968(3) 0.5614(6)
H82B H -0.0338 -0.2244 0.5515
C70B C -0.0199(4) -0.1226(3) 0.5548(6)
H83B H -0.0598 -0.1555 0.5494
C71B C -0.0101(4) -0.0602(3) 0.5554(5)
C72B C -0.0585(4) -0.0497(3) 0.5550(6)
H84B H -0.0982 -0.0831 0.5544
loop_
_geom_bond_atom_site_label_1
_geom_bond_atom_site_label_2
_geom_bond_site_symmetry_1
_geom_bond_site_symmetry_2
N1 C3 1_555 1_555
N2 C5 1_555 1_555
N3 C17 1_555 1_555
N4 C20 1_555 1_555
C1 H1 1_555 1_555
C2 C1 1_555 1_555
C3 C2 1_555 1_555
H2 C3 1_555 1_555
C4 N1 1_555 1_555
H3 C4 1_555 1_555
C5 C4 1_555 1_555
H4 C5 1_555 1_555
C6 C5 1_555 1_555
H5 C6 1_555 1_555
H6 C6 1_555 1_555
C7 C6 1_555 1_555
H7 C7 1_555 1_555
H8 C7 1_555 1_555
C8 C7 1_555 1_555
H9 C8 1_555 1_555
H10 C8 1_555 1_555
C9 C4 1_555 1_555
H11 C9 1_555 1_555
H12 C9 1_555 1_555
C10 N2 1_555 1_555
H13 C10 1_555 1_555
C11 C10 1_555 1_555
C12 C11 1_555 1_555
H14 C12 1_555 1_555
C13 C12 1_555 1_555
C14 C13 1_555 1_555
H15 C14 1_555 1_555
C15 C14 1_555 1_555
C16 C11 1_555 1_555
H16 C16 1_555 1_555
C17 C13 1_555 1_555
H17 C17 1_555 1_555
C18 N3 1_555 1_555
H18 C18 1_555 1_555
C19 C18 1_555 1_555
H19 C19 1_555 1_555
H20 C19 1_555 1_555
C20 C15 1_555 1_555
H21 C20 1_555 1_555
C21 N4 1_555 1_555
H22 C21 1_555 1_555
C22 C21 1_555 1_555
H23 C22 1_555 1_555
H24 C22 1_555 1_555
C23 C22 1_555 1_555
H25 C23 1_555 1_555
H26 C23 1_555 1_555
C24 C23 1_555 1_555
H27 C24 1_555 1_555
H28 C24 1_555 1_555
N5 C41 1_555 1_555
N6 C39 1_555 1_555
N7 C34 1_555 1_555
N8 C26 1_555 1_555
C25 H29 1_555 1_555
H30 C25 1_555 1_555
C26 C25 1_555 1_555
H31 C26 1_555 1_555
C27 N8 1_555 1_555
H32 C27 1_555 1_555
C28 C27 1_555 1_555
C29 C30 1_555 1_555
C30 C28 1_555 1_555
H33 C30 1_555 1_555
C31 C29 1_555 1_555
H34 C31 1_555 1_555
C32 C31 1_555 1_555
C33 C28 1_555 1_555
H35 C33 1_555 1_555
C34 C29 1_555 1_555
H36 C34 1_555 1_555
C35 N7 1_555 1_555
H37 C35 1_555 1_555
C36 C35 1_555 1_555
H38 C36 1_555 1_555
H39 C36 1_555 1_555
C37 C36 1_555 1_555
H40 C37 1_555 1_555
H41 C37 1_555 1_555
C38 C37 1_555 1_555
H42 C38 1_555 1_555
H43 C38 1_555 1_555
C39 C32 1_555 1_555
H44 C39 1_555 1_555
C40 N6 1_555 1_555
H45 C40 1_555 1_555
C41 C40 1_555 1_555
H46 C41 1_555 1_555
C42 C41 1_555 1_555
H47 C42 1_555 1_555
H48 C42 1_555 1_555
C43 C42 1_555 1_555
H49 C43 1_555 1_555
H50 C43 1_555 1_555
C44 C43 1_555 1_555
H51 C44 1_555 1_555
H52 C44 1_555 1_555
C45 C40 1_555 1_555
H53 C45 1_555 1_555
H54 C45 1_555 1_555
C46 N5 1_555 1_555
H55 C46 1_555 1_555
C47 C46 1_555 1_555
C48 C47 1_555 1_555
H56 C48 1_555 1_555
N9 C69 1_555 1_555
N10 C63 1_555 1_555
N11 C49 1_555 1_555
N12 C56 1_555 1_555
C49 H57 1_555 1_555
C50 C49 1_555 1_555
C51 C50 1_555 1_555
H58 C51 1_555 1_555
C52 C51 1_555 1_555
C53 C52 1_555 1_555
H59 C53 1_555 1_555
C54 C53 1_555 1_555
C55 C50 1_555 1_555
H60 C55 1_555 1_555
C56 H61 1_555 1_555
C57 C56 1_555 1_555
H62 C57 1_555 1_555
C58 C57 1_555 1_555
H63 C58 1_555 1_555
H64 C58 1_555 1_555
C59 C58 1_555 1_555
H65 C59 1_555 1_555
H66 C59 1_555 1_555
C60 C59 1_555 1_555
H67 C60 1_555 1_555
H68 C60 1_555 1_555
C61 C56 1_555 1_555
H69 C61 1_555 1_555
H70 C61 1_555 1_555
C62 N12 1_555 1_555
H71 C62 1_555 1_555
C63 C54 1_555 1_555
H72 C63 1_555 1_555
C64 N10 1_555 1_555
H73 C64 1_555 1_555
C65 C64 1_555 1_555
H74 C65 1_555 1_555
H75 C65 1_555 1_555
C66 C65 1_555 1_555
H76 C66 1_555 1_555
H77 C66 1_555 1_555
C67 C66 1_555 1_555
H78 C67 1_555 1_555
H79 C67 1_555 1_555
C68 C67 1_555 1_555
H80 C68 1_555 1_555
H81 C68 1_555 1_555
C69 C64 1_555 1_555
H82 C69 1_555 1_555
C70 N9 1_555 1_555
H83 C70 1_555 1_555
C71 C70 1_555 1_555
C72 C71 1_555 1_555
H84 C72 1_555 1_555
N1A C3A 1_555 1_555
N2A C5A 1_555 1_555
N3A C17A 1_555 1_555
N4A C20A 1_555 1_555
C1A C2 1_555 1_555
H1A C1A 1_555 1_555
C2A C1A 1_555 1_555
C3A C2A 1_555 1_555
H2A C3A 1_555 1_555
C4A N1A 1_555 1_555
H3A C4A 1_555 1_555
C5A C4A 1_555 1_555
H4A C5A 1_555 1_555
C6A C5A 1_555 1_555
H5A C6A 1_555 1_555
H6A C6A 1_555 1_555
C7A C6A 1_555 1_555
H7A C7A 1_555 1_555
H8A C7A 1_555 1_555
C8A C7A 1_555 1_555
H9A C8A 1_555 1_555
H10A C8A 1_555 1_555
C9A C4A 1_555 1_555
H11A C9A 1_555 1_555
H12A C9A 1_555 1_555
C10A N2A 1_555 1_555
H13A C10A 1_555 1_555
C11A C10A 1_555 1_555
C12A C11A 1_555 1_555
H14A C12A 1_555 1_555
C13A C12A 1_555 1_555
C14A C13A 1_555 1_555
H15A C14A 1_555 1_555
C15A C14A 1_555 1_555
C16A C11A 1_555 1_555
H16A C16A 1_555 1_555
C17A C13A 1_555 1_555
H17A C17A 1_555 1_555
C18A N3A 1_555 1_555
H18A C18A 1_555 1_555
C19A C18A 1_555 1_555
H19A C19A 1_555 1_555
H20A C19A 1_555 1_555
C20A C15A 1_555 1_555
H21A C20A 1_555 1_555
C21A C18 1_555 1_555
H22A C21A 1_555 1_555
C22A C21A 1_555 1_555
H23A C22A 1_555 1_555
H24A C22A 1_555 1_555
C23A C22A 1_555 1_555
H25A C23A 1_555 1_555
H26A C23A 1_555 1_555
C24A C19 1_555 1_555
H27A C24A 1_555 1_555
H28A C24A 1_555 1_555
N1B C3B 1_555 1_555
N2B C5B 1_555 1_555
N3B C17B 1_555 1_555
N4B C20B 1_555 1_555
C1B C2A 1_555 1_555
H1B C1B 1_555 1_555
C2B C1 1_555 1_555
C3B C2B 1_555 1_555
H2B C3B 1_555 1_555
C4B N1B 1_555 1_555
H3B C4B 1_555 1_555
C5B C4B 1_555 1_555
H4B C5B 1_555 1_555
C6B C5B 1_555 1_555
H5B C6B 1_555 1_555
H6B C6B 1_555 1_555
C7B C6B 1_555 1_555
H7B C7B 1_555 1_555
H8B C7B 1_555 1_555
C8B C7B 1_555 1_555
H9B C8B 1_555 1_555
H10B C8B 1_555 1_555
C9B C4B 1_555 1_555
H11B C9B 1_555 1_555
H12B C9B 1_555 1_555
C10B N2B 1_555 1_555
H13B C10B 1_555 1_555
C11B C10B 1_555 1_555
C12B C11B 1_555 1_555
H14B C12B 1_555 1_555
C13B C12B 1_555 1_555
C14B C13B 1_555 1_555
H15B C14B 1_555 1_555
C15B C14B 1_555 1_555
C16B C11B 1_555 1_555
H16B C16B 1_555 1_555
C17B C13B 1_555 1_555
H17B C17B 1_555 1_555
C18B C21 1_555 1_555
H18B C18B 1_555 1_555
C19B C24 1_555 1_555
H19B C19B 1_555 1_555
H20B C19B 1_555 1_555
C20B C15B 1_555 1_555
H21B C20B 1_555 1_555
C21B C18A 1_555 1_555
H22B C21B 1_555 1_555
C22B C21B 1_555 1_555
H23B C22B 1_555 1_555
H24B C22B 1_555 1_555
C23B C22B 1_555 1_555
H25B C23B 1_555 1_555
H26B C23B 1_555 1_555
C24B C19A 1_555 1_555
H27B C24B 1_555 1_555
H28B C24B 1_555 1_555
N5A C41A 1_555 1_555
N6A C39A 1_555 1_555
N7A C34A 1_555 1_555
N8A C26A 1_555 1_555
C25A C38 1_555 1_555
H29A C25A 1_555 1_555
H30A C25A 1_555 1_555
C26A C35 1_555 1_555
H31A C26A 1_555 1_555
C27A N8A 1_555 1_555
H32A C27A 1_555 1_555
C28A C27A 1_555 1_555
C29A C30A 1_555 1_555
C30A C28A 1_555 1_555
H33A C30A 1_555 1_555
C31A C29A 1_555 1_555
H34A C31A 1_555 1_555
C32A C31A 1_555 1_555
C33A C28A 1_555 1_555
H35A C33A 1_555 1_555
C34A C29A 1_555 1_555
H36A C34A 1_555 1_555
C35A N7A 1_555 1_555
H37A C35A 1_555 1_555
C36A C35A 1_555 1_555
H38A C36A 1_555 1_555
H39A C36A 1_555 1_555
C37A C36A 1_555 1_555
H40A C37A 1_555 1_555
H41A C37A 1_555 1_555
C38A C37A 1_555 1_555
H42A C38A 1_555 1_555
H43A C38A 1_555 1_555
C39A C32A 1_555 1_555
H44A C39A 1_555 1_555
C40A N6A 1_555 1_555
H45A C40A 1_555 1_555
C41A C40A 1_555 1_555
H46A C41A 1_555 1_555
C42A C41A 1_555 1_555
H47A C42A 1_555 1_555
H48A C42A 1_555 1_555
C43A C42A 1_555 1_555
H49A C43A 1_555 1_555
H50A C43A 1_555 1_555
C44A C43A 1_555 1_555
H51A C44A 1_555 1_555
H52A C44A 1_555 1_555
C45A C40A 1_555 1_555
H53A C45A 1_555 1_555
H54A C45A 1_555 1_555
C46A N5A 1_555 1_555
H55A C46A 1_555 1_555
C47A C46A 1_555 1_555
C48A C47 1_555 1_555
H56A C48A 1_555 1_555
N5B C41B 1_555 1_555
N6B C39B 1_555 1_555
N7B C34B 1_555 1_555
N8B C26B 1_555 1_555
C25B C38A 1_555 1_555
H29B C25B 1_555 1_555
H30B C25B 1_555 1_555
C26B C35A 1_555 1_555
H31B C26B 1_555 1_555
C27B N8B 1_555 1_555
H32B C27B 1_555 1_555
C28B C27B 1_555 1_555
C29B C30B 1_555 1_555
C30B C28B 1_555 1_555
H33B C30B 1_555 1_555
C31B C29B 1_555 1_555
H34B C31B 1_555 1_555
C32B C31B 1_555 1_555
C33B C28B 1_555 1_555
H35B C33B 1_555 1_555
C34B C29B 1_555 1_555
H36B C34B 1_555 1_555
C35B C26 1_555 1_555
H37B C35B 1_555 1_555
C36B C35B 1_555 1_555
H38B C36B 1_555 1_555
H39B C36B 1_555 1_555
C37B C36B 1_555 1_555
H40B C37B 1_555 1_555
H41B C37B 1_555 1_555
C38B C25 1_555 1_555
H42B C38B 1_555 1_555
H43B C38B 1_555 1_555
C39B C32B 1_555 1_555
H44B C39B 1_555 1_555
C40B N6B 1_555 1_555
H45B C40B 1_555 1_555
C41B C40B 1_555 1_555
H46B C41B 1_555 1_555
C42B C41B 1_555 1_555
H47B C42B 1_555 1_555
H48B C42B 1_555 1_555
C43B C42B 1_555 1_555
H49B C43B 1_555 1_555
H50B C43B 1_555 1_555
C44B C43B 1_555 1_555
H51B C44B 1_555 1_555
H52B C44B 1_555 1_555
C45B C40B 1_555 1_555
H53B C45B 1_555 1_555
H54B C45B 1_555 1_555
C46B N5B 1_555 1_555
H55B C46B 1_555 1_555
C47B C48 1_555 1_555
C48B C47A 1_555 1_555
H56B C48B 1_555 1_555
N9A C69A 1_555 1_555
N10A C63A 1_555 1_555
N11A C57 1_555 1_555
N12A C56A 1_555 1_555
C49A N11A 1_555 1_555
H57A C49A 1_555 1_555
C50A C49A 1_555 1_555
C51A C50A 1_555 1_555
H58A C51A 1_555 1_555
C52A C51A 1_555 1_555
C53A C52A 1_555 1_555
H59A C53A 1_555 1_555
C54A C53A 1_555 1_555
C55A C50A 1_555 1_555
H60A C55A 1_555 1_555
C56A H61A 1_555 1_555
C57A C56A 1_555 1_555
H62A C57A 1_555 1_555
C58A C57A 1_555 1_555
H63A C58A 1_555 1_555
H64A C58A 1_555 1_555
C59A C58A 1_555 1_555
H65A C59A 1_555 1_555
H66A C59A 1_555 1_555
C60A C59A 1_555 1_555
H67A C60A 1_555 1_555
H68A C60A 1_555 1_555
C61A C56A 1_555 1_555
H69A C61A 1_555 1_555
H70A C61A 1_555 1_555
C62A N12A 1_555 1_555
H71A C62A 1_555 1_555
C63A C54A 1_555 1_555
H72A C63A 1_555 1_555
C64A N10A 1_555 1_555
H73A C64A 1_555 1_555
C65A C64A 1_555 1_555
H74A C65A 1_555 1_555
H75A C65A 1_555 1_555
C66A C65A 1_555 1_555
H76A C66A 1_555 1_555
H77A C66A 1_555 1_555
C67A C66A 1_555 1_555
H78A C67A 1_555 1_555
H79A C67A 1_555 1_555
C68A C67A 1_555 1_555
H80A C68A 1_555 1_555
H81A C68A 1_555 1_555
C69A C64A 1_555 1_555
H82A C69A 1_555 1_555
C70A N9A 1_555 1_555
H83A C70A 1_555 1_555
C71A C70A 1_555 1_555
C72A C71 1_555 1_555
H84A C72A 1_555 1_555
N9B C69B 1_555 1_555
N10B C63B 1_555 1_555
N11B C57A 1_555 1_555
N12B C56B 1_555 1_555
C49B N11B 1_555 1_555
H57B C49B 1_555 1_555
C50B C49B 1_555 1_555
C51B C50B 1_555 1_555
H58B C51B 1_555 1_555
C52B C51B 1_555 1_555
C53B C52B 1_555 1_555
H59B C53B 1_555 1_555
C54B C53B 1_555 1_555
C55B C50B 1_555 1_555
H60B C55B 1_555 1_555
C56B H61B 1_555 1_555
C57B N11 1_555 1_555
H62B C57B 1_555 1_555
C58B C57B 1_555 1_555
H63B C58B 1_555 1_555
H64B C58B 1_555 1_555
C59B C58B 1_555 1_555
H65B C59B 1_555 1_555
H66B C59B 1_555 1_555
C60B C59B 1_555 1_555
H67B C60B 1_555 1_555
H68B C60B 1_555 1_555
C61B C56B 1_555 1_555
H69B C61B 1_555 1_555
H70B C61B 1_555 1_555
C62B N12B 1_555 1_555
H71B C62B 1_555 1_555
C63B C54B 1_555 1_555
H72B C63B 1_555 1_555
C64B N10B 1_555 1_555
H73B C64B 1_555 1_555
C65B C64B 1_555 1_555
H74B C65B 1_555 1_555
H75B C65B 1_555 1_555
C66B C65B 1_555 1_555
H76B C66B 1_555 1_555
H77B C66B 1_555 1_555
C67B C66B 1_555 1_555
H78B C67B 1_555 1_555
H79B C67B 1_555 1_555
C68B C67B 1_555 1_555
H80B C68B 1_555 1_555
H81B C68B 1_555 1_555
C69B C64B 1_555 1_555
H82B C69B 1_555 1_555
C70B N9B 1_555 1_555
H83B C70B 1_555 1_555
C71B C72 1_555 1_555
C72B C71A 1_555 1_555
H84B C72B 1_555 1_555
C8 C9 1_555 1_555
C15 C16 1_555 1_555
C32 C33 1_555 1_555
C44 C45 1_555 1_555
C52 C62 1_555 1_555
C54 C55 1_555 1_555
C60 C61 1_555 1_555
C68 C69 1_555 1_555
N4A C21A 1_555 1_555
C8A C9A 1_555 1_555
C15A C16A 1_555 1_555
C23A C24A 1_555 1_555
N3B C18B 1_555 1_555
N4B C21B 1_555 1_555
C1B C2B 1_555 1_555
C8B C9B 1_555 1_555
C15B C16B 1_555 1_555
C18B C19B 1_555 1_555
C23B C24B 1_555 1_555
C25A C26A 1_555 1_555
C32A C33A 1_555 1_555
C44A C45A 1_555 1_555
C47A C48A 1_555 1_555
N7B C35B 1_555 1_555
C25B C26B 1_555 1_555
C32B C33B 1_555 1_555
C37B C38B 1_555 1_555
C44B C45B 1_555 1_555
C46B C47B 1_555 1_555
C47B C48B 1_555 1_555
C52A C62A 1_555 1_555
C54A C55A 1_555 1_555
C60A C61A 1_555 1_555
C68A C69A 1_555 1_555
C71A C72A 1_555 1_555
C52B C62B 1_555 1_555
C54B C55B 1_555 1_555
C56B C57B 1_555 1_555
C60B C61B 1_555 1_555
C68B C69B 1_555 1_555
C70B C71B 1_555 1_555
C71B C72B 1_555 1_555

#END
