
#######################################################################
#
#                 Cambridge Crystallographic Data Centre
#                                CCDC 
#
#######################################################################
#
# If this CIF has been generated from an entry in the Cambridge 
# Structural Database, then it will include bibliographic, chemical, 
# crystal, experimental, refinement or atomic coordinate data resulting 
# from the CCDC's data processing and validation procedures.
#
#######################################################################

data_PUDXAO
_chemical_formula_moiety         'C54 H60 N12,6(H2 O1)'
_chemical_name_systematic        
'5,11,19,26,31,37-Hexamethyl-3,6,10,13,17,20,24,27,30,33,36,39-dodecaaza-1,8,15,22(1,3,5)-tetrabenzenatricyclo[13.13.6.6^8,22^]tetracontaphane-2,6,9,13,16,20,23,27,29,33,35,39-dodecaene hexahydrate'
_symmetry_cell_setting           trigonal
_symmetry_space_group_name_H-M   'P -3'
_symmetry_Int_Tables_number      147
_space_group_name_Hall           '-P 3'
loop_
_symmetry_equiv_pos_site_id
_symmetry_equiv_pos_as_xyz
1 x,y,z
2 -y,x-y,z
3 -x+y,-x,z
4 -x,-y,-z
5 y,-x+y,-z
6 x-y,x,-z
_cell_length_a                   18.770(3)
_cell_length_b                   18.770(3)
_cell_length_c                   10.921(2)
_cell_angle_alpha                90
_cell_angle_beta                 90
_cell_angle_gamma                120
_cell_volume                     3332.13
_exptl_crystal_colour            colorless
_exptl_crystal_description       needle
_cell_formula_units_Z            2
_exptl_crystal_recrystallization_method acetonitrile
loop_
_atom_site_label
_atom_site_type_symbol
_atom_site_fract_x
_atom_site_fract_y
_atom_site_fract_z
N1 N 0.7993(5) 0.6558(4) 0.7936(7)
N2 N 0.7794(6) 0.5627(7) 1.0178(6)
N3 N 0.9441(4) 0.4092(5) 0.2924(6)
N4 N 0.9455(5) 0.5643(4) 0.3212(6)
C1 C 0.8442(6) 0.6941(6) 0.9096(9)
C2 C 0.7883(7) 0.6450(7) 1.0180(8)
C3 C 0.8600(12) 0.7789(9) 0.9256(14)
C4 C 1.0155(6) 0.4899(7) 0.2672(7)
C5 C 0.9858(6) 0.5474(6) 0.2189(8)
C6 C 1.0698(7) 0.4882(7) 0.1708(10)
C7 C 0.8423(6) 0.6435(5) 0.7104(10)
C8 C 0.8042(7) 0.6089(5) 0.5901(8)
C9 C 0.7282(6) 0.5957(5) 0.5553(8)
C10 C 0.6968(6) 0.5643(5) 0.4410(8)
C11 C 0.7441(6) 0.5440(4) 0.3606(7)
C12 C 0.8219(6) 0.5605(5) 0.3943(8)
C13 C 0.8522(5) 0.5930(5) 0.5107(8)
C14 C 0.8720(7) 0.5444(5) 0.3052(7)
C15 C 0.7065(8) 0.5036(8) 1.0219(7)
C16 C 0.6883(11) 0.4156(7) 1.0215(6)
C17 C 0.7485(6) 0.3918(10) 1.0235(6)
C18 C 0.9359(5) 0.3839(6) 0.4032(8)
H1 H 0.88810 0.80090 1.00380
H2 H 0.89700 0.69320 0.91280
H3 H 0.81320 0.67340 1.09610
H4 H 0.73380 0.64060 1.00950
H5 H 0.89480 0.81340 0.85840
H6 H 1.03840 0.46650 0.09500
H7 H 0.89720 0.65670 0.72700
H8 H 0.69690 0.60830 0.61050
H9 H 0.72190 0.51900 0.28380
H10 H 0.90540 0.60390 0.53510
H11 H 0.84640 0.51720 0.23100
H12 H 0.66230 0.51450 1.02520
H13 H 0.80500 0.43290 1.02620
H14 H 0.97510 0.41820 0.46270
H15 H 0.80770 0.77870 0.92510
H16 H 1.04780 0.51320 0.34420
H17 H 1.03290 0.59930 0.18850
H18 H 0.94640 0.52080 0.15070
H19 H 1.09170 0.45300 0.19700
H20 H 1.11540 0.54420 0.15650
N1A N 0.3442(4) 0.1435(6) 0.7936(7)
N1B N 0.8565(6) 0.2007(5) 0.7936(7)
N2A N 0.4373(7) 0.2167(9) 1.0178(6)
N2B N 0.7833(9) 0.2206(6) 1.0178(6)
N3A N 0.5908(5) 0.5349(6) 0.2924(6)
N3B N 0.4651(6) 0.0559(4) 0.2924(6)
N4A N 0.4357(4) 0.3812(6) 0.3212(6)
N4B N 0.6188(6) 0.0545(5) 0.3212(6)
C1A C 0.3059(6) 0.1501(8) 0.9096(9)
C1B C 0.8499(8) 0.1558(6) 0.9096(9)
C2A C 0.3550(7) 0.1433(10) 1.0180(8)
C2B C 0.8567(10) 0.2117(7) 1.0180(8)
C3A C 0.2211(9) 0.0811(15) 0.9256(14)
C3B C 0.9189(15) 0.1400(12) 0.9256(14)
C4A C 0.5101(7) 0.5256(9) 0.2672(7)
C4B C 0.4744(9) -0.0155(6) 0.2672(7)
C5A C 0.4526(6) 0.4384(8) 0.2189(8)
C5B C 0.5616(8) 0.0142(6) 0.2189(8)
C6A C 0.5118(7) 0.5816(10) 0.1708(10)
C6B C 0.4184(10) -0.0698(7) 0.1708(10)
C7A C 0.3565(5) 0.1988(8) 0.7104(10)
C7B C 0.8012(8) 0.1577(6) 0.7104(10)
C8A C 0.3911(5) 0.1953(9) 0.5901(8)
C8B C 0.8047(9) 0.1958(7) 0.5901(8)
C9A C 0.4043(5) 0.1325(8) 0.5553(8)
C9B C 0.8675(8) 0.2718(6) 0.5553(8)
C10A C 0.4357(5) 0.1325(8) 0.4410(8)
C10B C 0.8675(8) 0.3032(6) 0.4410(8)
C11A C 0.4560(4) 0.2001(7) 0.3606(7)
C11B C 0.7999(7) 0.2559(6) 0.3606(7)
C12A C 0.4395(5) 0.2614(8) 0.3943(8)
C12B C 0.7386(8) 0.1781(6) 0.3943(8)
C13A C 0.4070(5) 0.2592(7) 0.5107(8)
C13B C 0.7408(7) 0.1478(5) 0.5107(8)
C14A C 0.4556(5) 0.3276(9) 0.3052(7)
C14B C 0.6724(9) 0.1280(7) 0.3052(7)
C15A C 0.4964(8) 0.2029(11) 1.0219(7)
C15B C 0.7971(11) 0.2935(8) 1.0219(7)
C16A C 0.5844(7) 0.2727(13) 1.0215(6)
C16B C 0.7273(13) 0.3117(11) 1.0215(6)
C17A C 0.6082(10) 0.3567(12) 1.0235(6)
C17B C 0.6433(12) 0.2515(6) 1.0235(6)
C18A C 0.6161(6) 0.5520(8) 0.4032(8)
C18B C 0.4480(8) 0.0641(5) 0.4032(8)
H1A H 0.19910 0.08720 1.00380
H1B H 0.91280 0.11190 1.00380
H2A H 0.30680 0.20380 0.91280
H2B H 0.79620 0.10300 0.91280
H3A H 0.32660 0.13980 1.09610
H3B H 0.86020 0.18680 1.09610
H4A H 0.35940 0.09320 1.00950
H4B H 0.90680 0.26620 1.00950
H5A H 0.18660 0.08140 0.85840
H5B H 0.91860 0.10520 0.85840
H6A H 0.53350 0.57190 0.09500
H6B H 0.42810 -0.03840 0.09500
H7A H 0.34330 0.24050 0.72700
H7B H 0.75950 0.10280 0.72700
H8A H 0.39170 0.08860 0.61050
H8B H 0.91140 0.30310 0.61050
H9A H 0.48100 0.20290 0.28380
H9B H 0.79710 0.27810 0.28380
H10A H 0.39610 0.30150 0.53510
H10B H 0.69850 0.09460 0.53510
H11A H 0.48280 0.32920 0.23100
H11B H 0.67080 0.15360 0.23100
H12A H 0.48550 0.14780 1.02520
H12B H 0.85220 0.33770 1.02520
H13A H 0.56710 0.37210 1.02620
H13B H 0.62790 0.19500 1.02620
H14A H 0.58180 0.55690 0.46270
H14B H 0.44310 0.02490 0.46270
H15A H 0.22130 0.02900 0.92510
H15B H 0.97100 0.19230 0.92510
H16A H 0.48680 0.53460 0.34420
H16B H 0.46540 -0.04780 0.34420
H17A H 0.40070 0.43360 0.18850
H17B H 0.56640 -0.03290 0.18850
H18A H 0.47920 0.42560 0.15070
H18B H 0.57440 0.05360 0.15070
H19A H 0.54700 0.63870 0.19700
H19B H 0.36130 -0.09170 0.19700
H20A H 0.45580 0.57120 0.15650
H20B H 0.42880 -0.11540 0.15650
C19? C 0.8442(6) 0.6941(6) 0.9096(9)
C20? C 0.7883(7) 0.6450(7) 1.0180(8)
C21? C 0.8323(13) 0.6955(10) 1.1265(14)
C22? C 1.0155(6) 0.4899(7) 0.2672(7)
C23? C 0.9858(6) 0.5474(6) 0.2189(8)
C24? C 1.0526(15) 0.6134(15) 0.148(3)
H21? H 0.85760 0.75220 0.91410
H22? H 0.89620 0.69270 0.91270
H23? H 0.73330 0.64070 1.00980
H24? H 0.88980 0.70880 1.12430
H25? H 0.80610 0.66450 1.20130
H26? H 0.82990 0.74640 1.12570
H27? H 1.05130 0.48460 0.20560
H28? H 1.04790 0.51300 0.34310
H29? H 0.94120 0.51420 0.15870
H30? H 1.10570 0.62450 0.18080
H31? H 1.04850 0.66340 0.15320
H32? H 1.04810 0.59640 0.06200
loop_
_geom_bond_atom_site_label_1
_geom_bond_atom_site_label_2
_geom_bond_site_symmetry_1
_geom_bond_site_symmetry_2
N1 C1 1_555 1_555
N2 C2 1_555 1_555
N3 C4 1_555 1_555
N4 C5 1_555 1_555
C1 C2 1_555 1_555
C2 H3 1_555 1_555
C3 C1 1_555 1_555
C4 C5 1_555 1_555
C5 H17 1_555 1_555
C6 C4 1_555 1_555
C7 N1 1_555 1_555
C8 C7 1_555 1_555
C9 C8 1_555 1_555
C10 C9 1_555 1_555
C11 C10 1_555 1_555
C12 C11 1_555 1_555
C13 C8 1_555 1_555
C14 N4 1_555 1_555
C15 N2 1_555 1_555
C16 C15 1_555 1_555
C17 C16 1_555 1_555
C18 N3 1_555 1_555
H1 C3 1_555 1_555
H2 C1 1_555 1_555
H4 C2 1_555 1_555
H5 C3 1_555 1_555
H6 C6 1_555 1_555
H7 C7 1_555 1_555
H8 C9 1_555 1_555
H9 C11 1_555 1_555
H10 C13 1_555 1_555
H11 C14 1_555 1_555
H12 C15 1_555 1_555
H13 C17 1_555 1_555
H14 C18 1_555 1_555
H15 C3 1_555 1_555
H16 C4 1_555 1_555
H18 C5 1_555 1_555
H19 C6 1_555 1_555
H20 C6 1_555 1_555
N1A C1A 1_555 1_555
N1B C1B 1_555 1_555
N2A C2A 1_555 1_555
N2B C2B 1_555 1_555
N3A C4A 1_555 1_555
N3B C4B 1_555 1_555
N4A C5A 1_555 1_555
N4B C5B 1_555 1_555
C1A C2A 1_555 1_555
C1B C2B 1_555 1_555
C2A H3A 1_555 1_555
C2B H3B 1_555 1_555
C3A C1A 1_555 1_555
C3B C1B 1_555 1_555
C4A C5A 1_555 1_555
C4B C5B 1_555 1_555
C5A H17A 1_555 1_555
C5B H17B 1_555 1_555
C6A C4A 1_555 1_555
C6B C4B 1_555 1_555
C7A N1A 1_555 1_555
C7B N1B 1_555 1_555
C8A C7A 1_555 1_555
C8B C7B 1_555 1_555
C9A C8A 1_555 1_555
C9B C8B 1_555 1_555
C10A C9A 1_555 1_555
C10B C18 1_555 1_555
C11A C10A 1_555 1_555
C11B C10B 1_555 1_555
C12A C11A 1_555 1_555
C12B C11B 1_555 1_555
C13A C8A 1_555 1_555
C13B C8B 1_555 1_555
C14A N4A 1_555 1_555
C14B N4B 1_555 1_555
C15A N2A 1_555 1_555
C15B N2B 1_555 1_555
C16A C15A 1_555 1_555
C16B C17 1_555 1_555
C17A C16 1_555 1_555
C17B C16A 1_555 1_555
C18A C10 1_555 1_555
C18B N3B 1_555 1_555
H1A C3A 1_555 1_555
H1B C3B 1_555 1_555
H2A C1A 1_555 1_555
H2B C1B 1_555 1_555
H4A C2A 1_555 1_555
H4B C2B 1_555 1_555
H5A C3A 1_555 1_555
H5B C3B 1_555 1_555
H6A C6A 1_555 1_555
H6B C6B 1_555 1_555
H7A C7A 1_555 1_555
H7B C7B 1_555 1_555
H8A C9A 1_555 1_555
H8B C9B 1_555 1_555
H9A C11A 1_555 1_555
H9B C11B 1_555 1_555
H10A C13A 1_555 1_555
H10B C13B 1_555 1_555
H11A C14A 1_555 1_555
H11B C14B 1_555 1_555
H12A C15A 1_555 1_555
H12B C15B 1_555 1_555
H13A C17A 1_555 1_555
H13B C17B 1_555 1_555
H14A C18A 1_555 1_555
H14B C18B 1_555 1_555
H15A C3A 1_555 1_555
H15B C3B 1_555 1_555
H16A C4A 1_555 1_555
H16B C4B 1_555 1_555
H18A C5A 1_555 1_555
H18B C5B 1_555 1_555
H19A C6A 1_555 1_555
H19B C6B 1_555 1_555
H20A C6A 1_555 1_555
H20B C6B 1_555 1_555
C12 C13 1_555 1_555
C12 C14 1_555 1_555
N3A C18A 1_555 1_555
C9B C10B 1_555 1_555
C10A C18B 1_555 1_555
C12A C13A 1_555 1_555
C12A C14A 1_555 1_555
C12B C13B 1_555 1_555
C12B C14B 1_555 1_555
C15B C16B 1_555 1_555
C16A C17A 1_555 1_555
C16B C17B 1_555 1_555

#END
