
#######################################################################
#
#                 Cambridge Crystallographic Data Centre
#                                CCDC 
#
#######################################################################
#
# If this CIF has been generated from an entry in the Cambridge 
# Structural Database, then it will include bibliographic, chemical, 
# crystal, experimental, refinement or atomic coordinate data resulting 
# from the CCDC's data processing and validation procedures.
#
#######################################################################

data_PUDXES03
_chemical_formula_moiety         'C72 H84 N12'
_chemical_name_systematic        
5,12,20,27,35,42,50,57,62,69,74,81-dodecaazatridecacyclo[29.29.10.10^16,46^.1^3,59^.1^14,18^.1^29,33^.1^44,48^.0^6,11^.0^21,26^.0^36,41^.0^51,56^.0^63,68^.0^75,80^]tetraoctaconta-1,3(71),4,12,14(84),15,17,19,27,29(83),30,32,34,42,44(72),45,47,49,57,59,61,69,73,81-tetracosaene
_symmetry_cell_setting           trigonal
_symmetry_space_group_name_H-M   'P 3'
_symmetry_Int_Tables_number      143
_space_group_name_Hall           'P 3'
loop_
_symmetry_equiv_pos_site_id
_symmetry_equiv_pos_as_xyz
1 x,y,z
2 -y,x-y,z
3 -x+y,-x,z
_cell_length_a                   25.2084(15)
_cell_length_b                   25.2084(15)
_cell_length_c                   11.0674(7)
_cell_angle_alpha                90
_cell_angle_beta                 90
_cell_angle_gamma                120
_cell_volume                     6090.69
_exptl_crystal_colour            colorless
_exptl_crystal_description       needle
_cell_formula_units_Z            3
loop_
_atom_site_label
_atom_site_type_symbol
_atom_site_fract_x
_atom_site_fract_y
_atom_site_fract_z
N1 N 0.53286(18) 0.3558(2) 0.5333(4)
C1 C 0.4696(2) 0.3422(3) 0.5349(5)
H1 H 0.4416 0.2973 0.5467
C2 C 0.6068(2) 0.3234(3) 0.5407(5)
N2 N 0.4679(2) 0.3506(2) 0.7531(5)
C3 C 0.5341(3) 0.3295(4) 1.1709(6)
H2 H 0.5406 0.3172 1.2481
C4 C 0.6576(3) 0.3826(3) 0.5412(5)
H3 H 0.6511 0.4166 0.5420
C5 C 0.5445(2) 0.3134(3) 0.5422(5)
H4 H 0.5113 0.2727 0.5505
C6 C 0.4625(3) 0.3772(3) 0.6404(6)
H5 H 0.4953 0.4213 0.6362
C7 C 0.5561(3) 0.4076(3) 1.0268(6)
H6 H 0.5773 0.4497 1.0050
C8 C 0.6008(3) 0.4383(3) 1.2306(6)
H7 H 0.6121 0.4262 1.3030
C9 C 0.5642(3) 0.3911(3) 1.1408(6)
C10 C 0.4561(3) 0.3617(4) 0.4131(6)
H8 H 0.4878 0.4046 0.3957
H9 H 0.4577 0.3354 0.3483
C11 C 0.4946(3) 0.2857(3) 1.0899(7)
C12 C 0.7168(4) 0.5796(3) 1.2556(6)
H10 H 0.7118 0.5971 1.1782
C13 C 0.6544(3) 0.5374(3) 1.3093(5)
H11 H 0.6588 0.5153 1.3801
C14 C 0.4878(3) 0.3033(4) 0.9772(7)
H12 H 0.4619 0.2730 0.9207
N3 N 0.6177(2) 0.4933(3) 1.2161(5)
C15 C 0.3993(3) 0.3725(3) 0.6370(7)
H13 H 0.3967 0.3982 0.7016
H14 H 0.3669 0.3295 0.6512
C16 C 0.5090(3) 0.3850(3) 0.8256(6)
H15 H 0.5355 0.4264 0.8028
N4 N 0.4552(2) 0.2025(3) 1.2318(6)
C17 C 0.3941(4) 0.3564(6) 0.4139(8)
H16 H 0.3869 0.3705 0.3353
H17 H 0.3622 0.3130 0.4247
C18 C 0.3895(3) 0.3939(4) 0.5135(10)
H18 H 0.3485 0.3903 0.5114
H19 H 0.4206 0.4375 0.5014
C19 C 0.7576(4) 0.6326(4) 1.3437(8)
H20 H 0.7675 0.6159 1.4157
H21 H 0.7965 0.6618 1.3032
C20 C 0.6231(4) 0.5728(4) 1.3492(8)
H22 H 0.6144 0.5907 1.2776
H23 H 0.5836 0.5444 1.3884
C21 C 0.5181(3) 0.3648(3) 0.9430(6)
C22 C 0.6629(6) 0.6232(5) 1.4366(9)
H24 H 0.6421 0.6462 1.4594
H25 H 0.6689 0.6050 1.5109
C23 C 0.7234(6) 0.6659(4) 1.3824(10)
H26 H 0.7485 0.6981 1.4419
H27 H 0.7174 0.6861 1.3111
C24 C 0.4600(3) 0.2198(3) 1.1252(8)
H28 H 0.4410 0.1898 1.0636
N1A N 0.6442(2) 0.17706(27) 0.5333(4)
C1A C 0.6578(3) 0.1274(4) 0.5349(5)
H1A H 0.7027 0.1443 0.5467
C2A C 0.6766(3) 0.2834(4) 0.5407(5)
N2A N 0.6494(2) 0.1173(3) 0.7531(5)
C3A C 0.6705(4) 0.2046(5) 1.1709(6)
H2A H 0.6828 0.2234 1.2481
C4A C 0.6174(3) 0.2750(4) 0.5412(5)
H3A H 0.5834 0.2345 0.5420
C5A C 0.6866(3) 0.2311(4) 0.5422(5)
H4A H 0.7273 0.2386 0.5505
C6A C 0.6228(3) 0.0853(4) 0.6404(6)
H5A H 0.5787 0.0740 0.6362
C7A C 0.5924(3) 0.1485(4) 1.0268(6)
H6A H 0.5503 0.1276 1.0050
C8A C 0.5617(3) 0.1625(4) 1.2306(6)
H7A H 0.5738 0.1859 1.3030
C9A C 0.6089(3) 0.1731(4) 1.1408(6)
C10A C 0.6383(4) 0.0944(5) 0.4131(6)
H8A H 0.5954 0.0832 0.3957
H9A H 0.6646 0.1223 0.3483
C11A C 0.7143(3) 0.2089(4) 1.0899(7)
C12A C 0.4204(3) 0.1372(5) 1.2556(6)
H10A H 0.4029 0.1147 1.1782
C13A C 0.4626(3) 0.1170(4) 1.3093(5)
H11A H 0.4847 0.1435 1.3801
C14A C 0.6967(4) 0.1845(5) 0.9772(7)
H12A H 0.7270 0.1889 0.9207
N3A N 0.5067(3) 0.1244(4) 1.2161(5)
C15A C 0.6275(3) 0.0268(4) 0.6370(7)
H13A H 0.6018 -0.0015 0.7016
H14A H 0.6705 0.0374 0.6512
C16A C 0.6150(3) 0.1240(4) 0.8256(6)
H15A H 0.5736 0.1091 0.8028
N4A N 0.7975(3) 0.2527(4) 1.2318(6)
C17A C 0.6436(6) 0.0377(7) 0.4139(8)
H16A H 0.6295 0.0164 0.3353
H17A H 0.6870 0.0492 0.4247
C18A C 0.6061(4) -0.0044(5) 0.5135(10)
H18A H 0.6097 -0.0418 0.5114
H19A H 0.5625 -0.0169 0.5014
C19A C 0.3674(4) 0.1250(6) 1.3437(8)
H20A H 0.3841 0.1516 1.4157
H21A H 0.3382 0.1347 1.3032
C20A C 0.4272(4) 0.0503(6) 1.3492(8)
H22A H 0.4093 0.0237 1.2776
H23A H 0.4556 0.0392 1.3884
C21A C 0.6352(3) 0.1533(4) 0.9430(6)
C22A C 0.3768(5) 0.0397(8) 1.4366(9)
H24A H 0.3538 -0.0041 1.4594
H25A H 0.3950 0.0639 1.5109
C23A C 0.3341(4) 0.0575(7) 1.3824(10)
H26A H 0.3019 0.0504 1.4419
H27A H 0.3139 0.0313 1.3111
C24A C 0.7802(3) 0.2402(4) 1.1252(8)
H28A H 0.8102 0.2512 1.0636
N1B N 0.82294(27) 0.46714(18) 0.5333(4)
C1B C 0.8726(4) 0.5304(2) 0.5349(5)
H1B H 0.8557 0.5584 0.5467
C2B C 0.7166(4) 0.3932(2) 0.5407(5)
N2B N 0.8827(3) 0.5321(2) 0.7531(5)
C3B C 0.7954(5) 0.4659(3) 1.1709(6)
H2B H 0.7766 0.4594 1.2481
C4B C 0.7250(4) 0.3424(3) 0.5412(5)
H3B H 0.7655 0.3489 0.5420
C5B C 0.7689(4) 0.4555(2) 0.5422(5)
H4B H 0.7614 0.4887 0.5505
C6B C 0.9147(4) 0.5375(3) 0.6404(6)
H5B H 0.9260 0.5047 0.6362
C7B C 0.8515(4) 0.4439(3) 1.0268(6)
H6B H 0.8724 0.4227 1.0050
C8B C 0.8375(4) 0.3992(3) 1.2306(6)
H7B H 0.8141 0.3879 1.3030
C9B C 0.8269(4) 0.4358(3) 1.1408(6)
C10B C 0.9056(5) 0.5439(3) 0.4131(6)
H8B H 0.9168 0.5122 0.3957
H9B H 0.8777 0.5423 0.3483
C11B C 0.7911(4) 0.5054(3) 1.0899(7)
C12B C 0.8628(5) 0.2832(4) 1.2556(6)
H10B H 0.8853 0.2882 1.1782
C13B C 0.8830(4) 0.3456(3) 1.3093(5)
H11B H 0.8565 0.3412 1.3801
C14B C 0.8155(5) 0.5122(3) 0.9772(7)
H12B H 0.8111 0.5381 0.9207
N3B N 0.8756(4) 0.3823(2) 1.2161(5)
C15B C 0.9732(4) 0.6007(3) 0.6370(7)
H13B H 1.0015 0.6033 0.7016
H14B H 0.9626 0.6331 0.6512
C16B C 0.8760(4) 0.4910(3) 0.8256(6)
H15B H 0.8909 0.4645 0.8028
N4B N 0.7473(4) 0.5448(2) 1.2318(6)
C17B C 0.9623(7) 0.6059(4) 0.4139(8)
H16B H 0.9836 0.6131 0.3353
H17B H 0.9508 0.6378 0.4247
C18B C 1.0044(5) 0.6105(3) 0.5135(10)
H18B H 1.0418 0.6515 0.5114
H19B H 1.0169 0.5794 0.5014
C19B C 0.8750(6) 0.2424(4) 1.3437(8)
H20B H 0.8484 0.2325 1.4157
H21B H 0.8653 0.2035 1.3032
C20B C 0.9497(6) 0.3769(4) 1.3492(8)
H22B H 0.9763 0.3856 1.2776
H23B H 0.9608 0.4164 1.3884
C21B C 0.8467(4) 0.4819(3) 0.9430(6)
C22B C 0.9603(8) 0.3371(6) 1.4366(9)
H24B H 1.0041 0.3579 1.4594
H25B H 0.9361 0.3311 1.5109
C23B C 0.9425(7) 0.2766(6) 1.3824(10)
H26B H 0.9496 0.2515 1.4419
H27B H 0.9687 0.2826 1.3111
C24B C 0.7598(4) 0.5400(3) 1.1252(8)
H28B H 0.7488 0.5590 1.0636
N5 N 0.1669(2) 0.19197(18) 0.4738(4)
C25 C 0.1944(3) 0.1234(3) 0.2135(5)
H29 H 0.2079 0.1567 0.1588
C26 C 0.1556(2) 0.0259(3) 0.3758(5)
C27 C 0.1951(3) 0.0707(3) 0.1785(5)
C28 C 0.1537(2) 0.0782(3) 0.4048(5)
H30 H 0.1377 0.0804 0.4811
C29 C 0.1716(2) 0.2503(2) 0.5062(5)
H31 H 0.1840 0.2777 0.4339
N6 N 0.2412(2) 0.1114(3) -0.0136(4)
C30 C 0.1382(2) -0.0224(3) 0.4635(5)
H32 H 0.1184 -0.0205 0.5351
C31 C 0.1744(3) 0.1274(3) 0.3266(5)
C32 C 0.1767(3) 0.1849(2) 0.3670(6)
H33 H 0.1858 0.2166 0.3101
N7 N 0.1472(2) -0.0666(2) 0.4523(4)
C33 C 0.0624(2) 0.0424(3) -0.2252(4)
C34 C 0.1280(3) 0.0869(2) -0.2241(5)
H34 H 0.1406 0.1291 -0.2164
C35 C 0.2337(2) 0.1204(3) -0.2281(5)
H35 H 0.2363 0.1604 -0.2091
N8 N 0.1691(2) 0.07193(19) -0.2329(4)
C36 C 0.1095(3) 0.2385(2) 0.5528(5)
H36 H 0.0954 0.2079 0.6201
C37 C 0.0206(3) 0.0617(2) -0.2254(5)
H37 H 0.0345 0.1043 -0.2256
C38 C 0.2652(2) 0.1051(3) -0.1305(5)
H38 H 0.2573 0.0623 -0.1410
C39 C 0.2620(3) 0.1243(3) -0.3501(5)
H39 H 0.2421 0.1371 -0.4116
H40 H 0.2553 0.0835 -0.3732
C40 C 0.1760(3) 0.0228(3) 0.2595(6)
H41 H 0.1766 -0.0131 0.2358
C41 C 0.3337(3) 0.1500(4) -0.1284(6)
H42 H 0.3536 0.1368 -0.0678
H43 H 0.3412 0.1911 -0.1051
C42 C 0.2201(3) 0.2797(3) 0.6056(6)
H44 H 0.2090 0.2512 0.6747
H45 H 0.2603 0.2879 0.5742
C43 C 0.2248(4) 0.3391(3) 0.6476(6)
H46 H 0.2561 0.3575 0.7119
H47 H 0.2378 0.3683 0.5793
C44 C 0.1638(4) 0.3276(3) 0.6953(7)
H48 H 0.1670 0.3669 0.7198
H49 H 0.1521 0.3007 0.7672
C45 C 0.2195(3) 0.0673(3) 0.0576(6)
H50 H 0.2184 0.0305 0.0343
C46 C 0.1151(3) 0.2973(3) 0.5976(6)
H51 H 0.0751 0.2890 0.6302
H52 H 0.1255 0.3260 0.5288
C47 C 0.3613(3) 0.1532(5) -0.2536(9)
H53 H 0.4055 0.1840 -0.2526
H54 H 0.3569 0.1130 -0.2738
C48 C 0.3302(4) 0.1701(5) -0.3466(7)
H55 H 0.3484 0.1715 -0.4267
H56 H 0.3367 0.2114 -0.3289
N5A N -0.19197(18) -0.02507(27) 0.4738(4)
C25A C -0.1234(3) 0.0710(4) 0.2135(5)
H29A H -0.1567 0.0512 0.1588
C26A C -0.0259(3) 0.1297(4) 0.3758(5)
C27A C -0.0707(3) 0.1244(4) 0.1785(5)
C28A C -0.0782(3) 0.0755(4) 0.4048(5)
H30A H -0.0804 0.0573 0.4811
C29A C -0.2503(2) -0.0787(3) 0.5062(5)
H31A H -0.2777 -0.0937 0.4339
N6A N -0.1114(3) 0.1298(4) -0.0136(4)
C30A C 0.0224(3) 0.1606(4) 0.4635(5)
H32A H 0.0205 0.1389 0.5351
C31A C -0.1274(3) 0.0470(4) 0.3266(5)
C32A C -0.1849(2) -0.0082(4) 0.3670(6)
H33A H -0.2166 -0.0308 0.3101
N7A N 0.0666(2) 0.2138(3) 0.4523(4)
C33A C -0.0424(3) 0.0200(4) -0.2252(4)
C34A C -0.0869(2) 0.0411(4) -0.2241(5)
H34A H -0.1291 0.0115 -0.2164
C35A C -0.1204(3) 0.1133(4) -0.2281(5)
H35A H -0.1604 0.0759 -0.2091
N8A N -0.07193(19) 0.09717(28) -0.2329(4)
C36A C -0.2385(2) -0.1290(4) 0.5528(5)
H36A H -0.2079 -0.1125 0.6201
C37A C -0.0617(2) -0.0411(4) -0.2254(5)
H37A H -0.1043 -0.0698 -0.2256
C38A C -0.1051(3) 0.1601(4) -0.1305(5)
H38A H -0.0623 0.1950 -0.1410
C39A C -0.1243(3) 0.1377(4) -0.3501(5)
H39A H -0.1371 0.1050 -0.4116
H40A H -0.0835 0.1718 -0.3732
C40A C -0.0228(3) 0.1532(4) 0.2595(6)
H41A H 0.0131 0.1897 0.2358
C41A C -0.1500(4) 0.1837(5) -0.1284(6)
H42A H -0.1368 0.2168 -0.0678
H43A H -0.1911 0.1501 -0.1051
C42A C -0.2797(3) -0.0596(4) 0.6056(6)
H44A H -0.2512 -0.0422 0.6747
H45A H -0.2879 -0.0276 0.5742
C43A C -0.3391(3) -0.1143(5) 0.6476(6)
H46A H -0.3575 -0.1014 0.7119
H47A H -0.3683 -0.1305 0.5793
C44A C -0.3276(3) -0.1638(5) 0.6953(7)
H48A H -0.3669 -0.1999 0.7198
H49A H -0.3007 -0.1486 0.7672
C45A C -0.0673(3) 0.1522(4) 0.0576(6)
H50A H -0.0305 0.1879 0.0343
C46A C -0.2973(3) -0.1822(4) 0.5976(6)
H51A H -0.2890 -0.2139 0.6302
H52A H -0.3260 -0.2005 0.5288
C47A C -0.1532(5) 0.2081(6) -0.2536(9)
H53A H -0.1840 0.2215 -0.2526
H54A H -0.1130 0.2439 -0.2738
C48A C -0.1701(5) 0.1601(6) -0.3466(7)
H55A H -0.1715 0.1769 -0.4267
H56A H -0.2114 0.1253 -0.3289
N5B N 0.02507(27) -0.1669(2) 0.4738(4)
C25B C -0.0710(4) -0.1944(3) 0.2135(5)
H29B H -0.0512 -0.2079 0.1588
C26B C -0.1297(4) -0.1556(2) 0.3758(5)
C27B C -0.1244(4) -0.1951(3) 0.1785(5)
C28B C -0.0755(4) -0.1537(2) 0.4048(5)
H30B H -0.0573 -0.1377 0.4811
C29B C 0.0787(3) -0.1716(2) 0.5062(5)
H31B H 0.0937 -0.1840 0.4339
N6B N -0.1298(4) -0.2412(2) -0.0136(4)
C30B C -0.1606(4) -0.1382(2) 0.4635(5)
H32B H -0.1389 -0.1184 0.5351
C31B C -0.0470(4) -0.1744(3) 0.3266(5)
C32B C 0.0082(4) -0.1767(3) 0.3670(6)
H33B H 0.0308 -0.1858 0.3101
N7B N -0.2138(3) -0.1472(2) 0.4523(4)
C33B C -0.0200(4) -0.0624(2) -0.2252(4)
C34B C -0.0411(4) -0.1280(3) -0.2241(5)
H34B H -0.0115 -0.1406 -0.2164
C35B C -0.1133(4) -0.2337(2) -0.2281(5)
H35B H -0.0759 -0.2363 -0.2091
N8B N -0.09717(28) -0.1691(2) -0.2329(4)
C36B C 0.1290(4) -0.1095(3) 0.5528(5)
H36B H 0.1125 -0.0954 0.6201
C37B C 0.0411(4) -0.0206(3) -0.2254(5)
H37B H 0.0698 -0.0345 -0.2256
C38B C -0.1601(4) -0.2652(2) -0.1305(5)
H38B H -0.1950 -0.2573 -0.1410
C39B C -0.1377(4) -0.2620(3) -0.3501(5)
H39B H -0.1050 -0.2421 -0.4116
H40B H -0.1718 -0.2553 -0.3732
C40B C -0.1532(4) -0.1760(3) 0.2595(6)
H41B H -0.1897 -0.1766 0.2358
C41B C -0.1837(5) -0.3337(3) -0.1284(6)
H42B H -0.2168 -0.3536 -0.0678
H43B H -0.1501 -0.3412 -0.1051
C42B C 0.0596(4) -0.2201(3) 0.6056(6)
H44B H 0.0422 -0.2090 0.6747
H45B H 0.0276 -0.2603 0.5742
C43B C 0.1143(5) -0.2248(4) 0.6476(6)
H46B H 0.1014 -0.2561 0.7119
H47B H 0.1305 -0.2378 0.5793
C44B C 0.1638(5) -0.1638(4) 0.6953(7)
H48B H 0.1999 -0.1670 0.7198
H49B H 0.1486 -0.1521 0.7672
C45B C -0.1522(4) -0.2195(3) 0.0576(6)
H50B H -0.1879 -0.2184 0.0343
C46B C 0.1822(4) -0.1151(3) 0.5976(6)
H51B H 0.2139 -0.0751 0.6302
H52B H 0.2005 -0.1255 0.5288
C47B C -0.2081(6) -0.3613(3) -0.2536(9)
H53B H -0.2215 -0.4055 -0.2526
H54B H -0.2439 -0.3569 -0.2738
C48B C -0.1601(6) -0.3302(4) -0.3466(7)
H55B H -0.1769 -0.3484 -0.4267
H56B H -0.1253 -0.3367 -0.3289
C49 C 0.3199(3) 0.5303(3) 0.7072(5)
H57 H 0.3320 0.5451 0.7872
N9 N 0.3003(2) 0.4490(2) 0.2871(4)
N10 N 0.3034(2) 0.5071(3) 0.0596(3)
C50 C 0.3398(3) 0.6153(3) 0.0685(4)
C51 C 0.2849(3) 0.4871(2) 0.4756(5)
N11 N 0.1594(3) 0.4694(3) 0.7494(4)
C52 C 0.2156(3) 0.5013(3) 0.7647(5)
H58 H 0.2299 0.5234 0.8383
C53 C 0.2607(3) 0.5068(3) 0.6757(5)
N12 N 0.4431(3) 0.5634(2) 0.7760(5)
C54 C 0.3142(3) 0.4558(3) 0.0710(5)
H59 H 0.3585 0.4716 0.0885
C55 C 0.2814(3) 0.6089(3) 0.0685(4)
H60 H 0.2460 0.5693 0.0687
C56 C 0.2754(3) 0.4153(3) 0.1758(5)
H61 H 0.2317 0.4044 0.1659
C57 C 0.3638(3) 0.5336(2) 0.6266(5)
C58 C 0.2655(3) 0.4571(3) 0.3554(5)
H62 H 0.2247 0.4435 0.3294
C59 C 0.1179(3) 0.4644(3) 0.8469(6)
H63 H 0.1429 0.4882 0.9181
C60 C 0.3460(3) 0.5119(3) 0.5106(5)
H64 H 0.3754 0.5138 0.4544
C61 C 0.0345(3) 0.4862(4) 0.9037(7)
H65 H 0.0574 0.5098 0.9759
H66 H 0.0091 0.5035 0.8747
C62 C 0.4274(3) 0.5552(3) 0.6663(6)
H67 H 0.4577 0.5633 0.6068
C63 C 0.2970(4) 0.4197(3) -0.0474(5)
H68 H 0.2544 0.4079 -0.0694
H69 H 0.3243 0.4460 -0.1127
C64 C 0.2804(4) 0.3579(3) 0.1819(5)
H70 H 0.2533 0.3310 0.2469
H71 H 0.3230 0.3693 0.2027
C65 C 0.2428(3) 0.4846(2) 0.5586(5)
H72 H 0.2011 0.4675 0.5357
C66 C 0.3467(3) 0.5608(3) 0.0718(5)
H73 H 0.3867 0.5668 0.0839
C67 C 0.0802(3) 0.4926(3) 0.8038(6)
H74 H 0.0570 0.4707 0.7295
C68 C 0.0779(4) 0.3981(4) 0.8839(8)
H75 H 0.1039 0.3823 0.9169
H76 H 0.0561 0.3732 0.8123
C69 C -0.0068(4) 0.4193(5) 0.9379(9)
H77 H -0.0352 0.4162 1.0029
H78 H -0.0315 0.3962 0.8670
C70 C 0.2628(5) 0.3228(3) 0.0637(8)
H79 H 0.2675 0.2863 0.0711
H80 H 0.2193 0.3088 0.0452
C71 C 0.3023(5) 0.3625(4) -0.0366(7)
H81 H 0.2897 0.3394 -0.1135
H82 H 0.3455 0.3743 -0.0207
C72 C 0.0309(5) 0.3921(5) 0.9803(9)
H83 H 0.0036 0.3482 0.9995
H84 H 0.0529 0.4131 1.0552
C49A C 0.4697(3) 0.7896(4) 0.7072(5)
H57A H 0.4549 0.7869 0.7872
N9A N 0.5510(2) 0.8513(3) 0.2871(4)
N10A N 0.4929(3) 0.7963(4) 0.0596(3)
C50A C 0.3847(3) 0.7245(4) 0.0685(4)
C51A C 0.5129(2) 0.7978(4) 0.4756(5)
N11A N 0.5306(3) 0.6900(4) 0.7494(4)
C52A C 0.4987(3) 0.7143(4) 0.7647(5)
H58A H 0.4766 0.7065 0.8383
C53A C 0.4932(3) 0.7539(4) 0.6757(5)
N12A N 0.4366(2) 0.8797(4) 0.7760(5)
C54A C 0.5442(3) 0.8584(4) 0.0710(5)
H59A H 0.5284 0.8869 0.0885
C55A C 0.3911(3) 0.6725(4) 0.0685(4)
H60A H 0.4307 0.6767 0.0687
C56A C 0.5847(3) 0.8601(4) 0.1758(5)
H61A H 0.5956 0.8273 0.1659
C57A C 0.4664(2) 0.8302(4) 0.6266(5)
C58A C 0.5429(3) 0.8084(4) 0.3554(5)
H62A H 0.5565 0.7812 0.3294
C59A C 0.5356(3) 0.6535(4) 0.8469(6)
H63A H 0.5118 0.6547 0.9181
C60A C 0.4881(3) 0.8341(4) 0.5106(5)
H64A H 0.4862 0.8616 0.4544
C61A C 0.5138(4) 0.5483(5) 0.9037(7)
H65A H 0.4902 0.5476 0.9759
H66A H 0.4965 0.5056 0.8747
C62A C 0.4448(3) 0.8722(4) 0.6663(6)
H67A H 0.4367 0.8944 0.6068
C63A C 0.5803(3) 0.8773(5) -0.0474(5)
H68A H 0.5921 0.8465 -0.0694
H69A H 0.5540 0.8783 -0.1127
C64A C 0.6421(3) 0.9225(5) 0.1819(5)
H70A H 0.6690 0.9223 0.2469
H71A H 0.6307 0.9537 0.2027
C65A C 0.5154(2) 0.7582(4) 0.5586(5)
H72A H 0.5325 0.7336 0.5357
C66A C 0.4392(3) 0.7859(4) 0.0718(5)
H73A H 0.4332 0.8199 0.0839
C67A C 0.5074(3) 0.5876(4) 0.8038(6)
H74A H 0.5293 0.5863 0.7295
C68A C 0.6019(4) 0.6798(6) 0.8839(8)
H75A H 0.6177 0.7216 0.9169
H76A H 0.6268 0.6829 0.8123
C69A C 0.5807(5) 0.5739(6) 0.9379(9)
H77A H 0.5838 0.5486 1.0029
H78A H 0.6038 0.5723 0.8670
C70A C 0.6772(3) 0.9400(6) 0.0637(8)
H79A H 0.7137 0.9812 0.0711
H80A H 0.6912 0.9105 0.0452
C71A C 0.6375(4) 0.9398(6) -0.0366(7)
H81A H 0.6606 0.9503 -0.1135
H82A H 0.6257 0.9712 -0.0207
C72A C 0.6079(5) 0.6388(7) 0.9803(9)
H83A H 0.6518 0.6554 0.9995
H84A H 0.5869 0.6398 1.0552
C49B C 0.2104(4) 0.6801(3) 0.7072(5)
H57B H 0.2131 0.6680 0.7872
N9B N 0.1487(3) 0.6997(2) 0.2871(4)
N10B N 0.2037(4) 0.6966(2) 0.0596(3)
C50B C 0.2755(4) 0.6602(3) 0.0685(4)
C51B C 0.2022(4) 0.7151(3) 0.4756(5)
N11B N 0.3100(4) 0.8406(3) 0.7494(4)
C52B C 0.2857(4) 0.7844(3) 0.7647(5)
H58B H 0.2935 0.7701 0.8383
C53B C 0.2461(4) 0.7393(3) 0.6757(5)
N12B N 0.1203(4) 0.5569(3) 0.7760(5)
C54B C 0.1416(4) 0.6858(3) 0.0710(5)
H59B H 0.1131 0.6415 0.0885
C55B C 0.3275(4) 0.7186(3) 0.0685(4)
H60B H 0.3233 0.7540 0.0687
C56B C 0.1399(4) 0.7246(3) 0.1758(5)
H61B H 0.1727 0.7683 0.1659
C57B C 0.1698(4) 0.6362(3) 0.6266(5)
C58B C 0.1916(4) 0.7345(3) 0.3554(5)
H62B H 0.2188 0.7753 0.3294
C59B C 0.3465(4) 0.8821(3) 0.8469(6)
H63B H 0.3453 0.8571 0.9181
C60B C 0.1659(4) 0.6540(3) 0.5106(5)
H64B H 0.1384 0.6246 0.4544
C61B C 0.4517(5) 0.9655(3) 0.9037(7)
H65B H 0.4524 0.9426 0.9759
H66B H 0.4944 0.9909 0.8747
C62B C 0.1278(4) 0.5726(3) 0.6663(6)
H67B H 0.1056 0.5423 0.6068
C63B C 0.1227(5) 0.7030(4) -0.0474(5)
H68B H 0.1535 0.7456 -0.0694
H69B H 0.1217 0.6757 -0.1127
C64B C 0.0775(5) 0.7196(4) 0.1819(5)
H70B H 0.0777 0.7467 0.2469
H71B H 0.0463 0.6770 0.2027
C65B C 0.2418(4) 0.7572(3) 0.5586(5)
H72B H 0.2664 0.7989 0.5357
C66B C 0.2141(4) 0.6533(3) 0.0718(5)
H73B H 0.1801 0.6133 0.0839
C67B C 0.4124(4) 0.9198(3) 0.8038(6)
H74B H 0.4137 0.9430 0.7295
C68B C 0.3202(6) 0.9221(4) 0.8839(8)
H75B H 0.2784 0.8961 0.9169
H76B H 0.3171 0.9439 0.8123
C69B C 0.4261(6) 1.0068(4) 0.9379(9)
H77B H 0.4514 1.0352 1.0029
H78B H 0.4277 1.0315 0.8670
C70B C 0.0600(6) 0.7372(5) 0.0637(8)
H79B H 0.0188 0.7325 0.0711
H80B H 0.0895 0.7807 0.0452
C71B C 0.0602(6) 0.6977(5) -0.0366(7)
H81B H 0.0497 0.7103 -0.1135
H82B H 0.0288 0.6545 -0.0207
C72B C 0.3612(7) 0.9691(5) 0.9803(9)
H83B H 0.3446 0.9964 0.9995
H84B H 0.3602 0.9471 1.0552
loop_
_geom_bond_atom_site_label_1
_geom_bond_atom_site_label_2
_geom_bond_site_symmetry_1
_geom_bond_site_symmetry_2
N1 C1 1_555 1_555
C1 H1 1_555 1_555
C2 C4 1_555 1_555
N2 C6 1_555 1_555
C3 H2 1_555 1_555
C4 H3 1_555 1_555
C5 N1 1_555 1_555
H4 C5 1_555 1_555
C6 C1 1_555 1_555
H5 C6 1_555 1_555
C7 H6 1_555 1_555
C8 H7 1_555 1_555
C9 C3 1_555 1_555
C10 C1 1_555 1_555
H8 C10 1_555 1_555
H9 C10 1_555 1_555
C11 C3 1_555 1_555
C12 H10 1_555 1_555
C13 C12 1_555 1_555
H11 C13 1_555 1_555
C14 C11 1_555 1_555
H12 C14 1_555 1_555
N3 C8 1_555 1_555
C15 C6 1_555 1_555
H13 C15 1_555 1_555
H14 C15 1_555 1_555
C16 N2 1_555 1_555
H15 C16 1_555 1_555
N4 C24 1_555 1_555
C17 C10 1_555 1_555
H16 C17 1_555 1_555
H17 C17 1_555 1_555
C18 C15 1_555 1_555
H18 C18 1_555 1_555
H19 C18 1_555 1_555
C19 C12 1_555 1_555
H20 C19 1_555 1_555
H21 C19 1_555 1_555
C20 C13 1_555 1_555
H22 C20 1_555 1_555
H23 C20 1_555 1_555
C21 C7 1_555 1_555
C22 C20 1_555 1_555
H24 C22 1_555 1_555
H25 C22 1_555 1_555
C23 C19 1_555 1_555
H26 C23 1_555 1_555
H27 C23 1_555 1_555
C24 C11 1_555 1_555
H28 C24 1_555 1_555
N5 C29 1_555 1_555
C25 H29 1_555 1_555
C26 C28 1_555 1_555
C27 C25 1_555 1_555
C28 H30 1_555 1_555
C29 H31 1_555 1_555
N6 C38 1_555 1_555
C30 C26 1_555 1_555
H32 C30 1_555 1_555
C31 C25 1_555 1_555
C32 N5 1_555 1_555
H33 C32 1_555 1_555
N7 C30 1_555 1_555
C33 C34 1_555 1_555
C34 H34 1_555 1_555
C35 H35 1_555 1_555
N8 C34 1_555 1_555
C36 C29 1_555 1_555
H36 C36 1_555 1_555
C37 C33 1_555 1_555
H37 C37 1_555 1_555
C38 C35 1_555 1_555
H38 C38 1_555 1_555
C39 C35 1_555 1_555
H39 C39 1_555 1_555
H40 C39 1_555 1_555
C40 C26 1_555 1_555
H41 C40 1_555 1_555
C41 C38 1_555 1_555
H42 C41 1_555 1_555
H43 C41 1_555 1_555
C42 C29 1_555 1_555
H44 C42 1_555 1_555
H45 C42 1_555 1_555
C43 C42 1_555 1_555
H46 C43 1_555 1_555
H47 C43 1_555 1_555
C44 C43 1_555 1_555
H48 C44 1_555 1_555
H49 C44 1_555 1_555
C45 C27 1_555 1_555
H50 C45 1_555 1_555
C46 C36 1_555 1_555
H51 C46 1_555 1_555
H52 C46 1_555 1_555
C47 C41 1_555 1_555
H53 C47 1_555 1_555
H54 C47 1_555 1_555
C48 C39 1_555 1_555
H55 C48 1_555 1_555
H56 C48 1_555 1_555
C49 H57 1_555 1_555
N9 C56 1_555 1_555
N10 C54 1_555 1_555
C50 C55 1_555 1_555
C51 C58 1_555 1_555
N11 C52 1_555 1_555
C52 H58 1_555 1_555
C53 C49 1_555 1_555
N12 C62 1_555 1_555
C54 H59 1_555 1_555
C55 H60 1_555 1_555
C56 C54 1_555 1_555
H61 C56 1_555 1_555
C57 C49 1_555 1_555
C58 N9 1_555 1_555
H62 C58 1_555 1_555
C59 N11 1_555 1_555
H63 C59 1_555 1_555
C60 C51 1_555 1_555
H64 C60 1_555 1_555
C61 H65 1_555 1_555
H66 C61 1_555 1_555
C62 C57 1_555 1_555
H67 C62 1_555 1_555
C63 C54 1_555 1_555
H68 C63 1_555 1_555
H69 C63 1_555 1_555
C64 C56 1_555 1_555
H70 C64 1_555 1_555
H71 C64 1_555 1_555
C65 C51 1_555 1_555
H72 C65 1_555 1_555
C66 N10 1_555 1_555
H73 C66 1_555 1_555
C67 C59 1_555 1_555
H74 C67 1_555 1_555
C68 C59 1_555 1_555
H75 C68 1_555 1_555
H76 C68 1_555 1_555
C69 C61 1_555 1_555
H77 C69 1_555 1_555
H78 C69 1_555 1_555
C70 C64 1_555 1_555
H79 C70 1_555 1_555
H80 C70 1_555 1_555
C71 C63 1_555 1_555
H81 C71 1_555 1_555
H82 C71 1_555 1_555
C72 C68 1_555 1_555
H83 C72 1_555 1_555
H84 C72 1_555 1_555
N1A C1A 1_555 1_555
C1A H1A 1_555 1_555
C2A C4A 1_555 1_555
N2A C6A 1_555 1_555
C3A H2A 1_555 1_555
C4A C2 1_555 1_555
H3A C4A 1_555 1_555
C5A N1A 1_555 1_555
H4A C5A 1_555 1_555
C6A C1A 1_555 1_555
H5A C6A 1_555 1_555
C7A H6A 1_555 1_555
C8A H7A 1_555 1_555
C9A C3A 1_555 1_555
C10A C1A 1_555 1_555
H8A C10A 1_555 1_555
H9A C10A 1_555 1_555
C11A C3A 1_555 1_555
C12A N4 1_555 1_555
H10A C12A 1_555 1_555
C13A C12A 1_555 1_555
H11A C13A 1_555 1_555
C14A C11A 1_555 1_555
H12A C14A 1_555 1_555
N3A C8A 1_555 1_555
C15A C6A 1_555 1_555
H13A C15A 1_555 1_555
H14A C15A 1_555 1_555
C16A N2A 1_555 1_555
H15A C16A 1_555 1_555
N4A C24A 1_555 1_555
C17A C10A 1_555 1_555
H16A C17A 1_555 1_555
H17A C17A 1_555 1_555
C18A C15A 1_555 1_555
H18A C18A 1_555 1_555
H19A C18A 1_555 1_555
C19A C12A 1_555 1_555
H20A C19A 1_555 1_555
H21A C19A 1_555 1_555
C20A C13A 1_555 1_555
H22A C20A 1_555 1_555
H23A C20A 1_555 1_555
C21A C7A 1_555 1_555
C22A C20A 1_555 1_555
H24A C22A 1_555 1_555
H25A C22A 1_555 1_555
C23A C19A 1_555 1_555
H26A C23A 1_555 1_555
H27A C23A 1_555 1_555
C24A C11A 1_555 1_555
H28A C24A 1_555 1_555
N1B C1B 1_555 1_555
C1B H1B 1_555 1_555
C2B C4 1_555 1_555
N2B C6B 1_555 1_555
C3B H2B 1_555 1_555
C4B C2A 1_555 1_555
H3B C4B 1_555 1_555
C5B N1B 1_555 1_555
H4B C5B 1_555 1_555
C6B C1B 1_555 1_555
H5B C6B 1_555 1_555
C7B H6B 1_555 1_555
C8B H7B 1_555 1_555
C9B C3B 1_555 1_555
C10B C1B 1_555 1_555
H8B C10B 1_555 1_555
H9B C10B 1_555 1_555
C11B C3B 1_555 1_555
C12B N4A 1_555 1_555
H10B C12B 1_555 1_555
C13B C12B 1_555 1_555
H11B C13B 1_555 1_555
C14B C11B 1_555 1_555
H12B C14B 1_555 1_555
N3B C8B 1_555 1_555
C15B C6B 1_555 1_555
H13B C15B 1_555 1_555
H14B C15B 1_555 1_555
C16B N2B 1_555 1_555
H15B C16B 1_555 1_555
N4B C12 1_555 1_555
C17B C10B 1_555 1_555
H16B C17B 1_555 1_555
H17B C17B 1_555 1_555
C18B C15B 1_555 1_555
H18B C18B 1_555 1_555
H19B C18B 1_555 1_555
C19B C12B 1_555 1_555
H20B C19B 1_555 1_555
H21B C19B 1_555 1_555
C20B C13B 1_555 1_555
H22B C20B 1_555 1_555
H23B C20B 1_555 1_555
C21B C7B 1_555 1_555
C22B C20B 1_555 1_555
H24B C22B 1_555 1_555
H25B C22B 1_555 1_555
C23B C19B 1_555 1_555
H26B C23B 1_555 1_555
H27B C23B 1_555 1_555
C24B C11B 1_555 1_555
H28B C24B 1_555 1_555
N5A C29A 1_555 1_555
C25A H29A 1_555 1_555
C26A C28A 1_555 1_555
C27A C25A 1_555 1_555
C28A H30A 1_555 1_555
C29A H31A 1_555 1_555
N6A C38A 1_555 1_555
C30A C26A 1_555 1_555
H32A C30A 1_555 1_555
C31A C25A 1_555 1_555
C32A N5A 1_555 1_555
H33A C32A 1_555 1_555
N7A C36 1_555 1_555
C33A C37 1_555 1_555
C34A C33A 1_555 1_555
H34A C34A 1_555 1_555
C35A H35A 1_555 1_555
N8A C34A 1_555 1_555
C36A C29A 1_555 1_555
H36A C36A 1_555 1_555
C37A C33A 1_555 1_555
H37A C37A 1_555 1_555
C38A C35A 1_555 1_555
H38A C38A 1_555 1_555
C39A C35A 1_555 1_555
H39A C39A 1_555 1_555
H40A C39A 1_555 1_555
C40A C26A 1_555 1_555
H41A C40A 1_555 1_555
C41A C38A 1_555 1_555
H42A C41A 1_555 1_555
H43A C41A 1_555 1_555
C42A C29A 1_555 1_555
H44A C42A 1_555 1_555
H45A C42A 1_555 1_555
C43A C42A 1_555 1_555
H46A C43A 1_555 1_555
H47A C43A 1_555 1_555
C44A C43A 1_555 1_555
H48A C44A 1_555 1_555
H49A C44A 1_555 1_555
C45A C27A 1_555 1_555
H50A C45A 1_555 1_555
C46A C36A 1_555 1_555
H51A C46A 1_555 1_555
H52A C46A 1_555 1_555
C47A C41A 1_555 1_555
H53A C47A 1_555 1_555
H54A C47A 1_555 1_555
C48A C39A 1_555 1_555
H55A C48A 1_555 1_555
H56A C48A 1_555 1_555
N5B C29B 1_555 1_555
C25B H29B 1_555 1_555
C26B C28B 1_555 1_555
C27B C25B 1_555 1_555
C28B H30B 1_555 1_555
C29B H31B 1_555 1_555
N6B C38B 1_555 1_555
C30B C26B 1_555 1_555
H32B C30B 1_555 1_555
C31B C25B 1_555 1_555
C32B N5B 1_555 1_555
H33B C32B 1_555 1_555
N7B C36A 1_555 1_555
C33B C37A 1_555 1_555
C34B C33B 1_555 1_555
H34B C34B 1_555 1_555
C35B H35B 1_555 1_555
N8B C34B 1_555 1_555
C36B N7 1_555 1_555
H36B C36B 1_555 1_555
C37B C33 1_555 1_555
H37B C37B 1_555 1_555
C38B C35B 1_555 1_555
H38B C38B 1_555 1_555
C39B C35B 1_555 1_555
H39B C39B 1_555 1_555
H40B C39B 1_555 1_555
C40B C26B 1_555 1_555
H41B C40B 1_555 1_555
C41B C38B 1_555 1_555
H42B C41B 1_555 1_555
H43B C41B 1_555 1_555
C42B C29B 1_555 1_555
H44B C42B 1_555 1_555
H45B C42B 1_555 1_555
C43B C42B 1_555 1_555
H46B C43B 1_555 1_555
H47B C43B 1_555 1_555
C44B C43B 1_555 1_555
H48B C44B 1_555 1_555
H49B C44B 1_555 1_555
C45B C27B 1_555 1_555
H50B C45B 1_555 1_555
C46B C36B 1_555 1_555
H51B C46B 1_555 1_555
H52B C46B 1_555 1_555
C47B C41B 1_555 1_555
H53B C47B 1_555 1_555
H54B C47B 1_555 1_555
C48B C39B 1_555 1_555
H55B C48B 1_555 1_555
H56B C48B 1_555 1_555
C49A H57A 1_555 1_555
N9A C56A 1_555 1_555
N10A C54A 1_555 1_555
C50A C55A 1_555 1_555
C51A C58A 1_555 1_555
N11A C52A 1_555 1_555
C52A H58A 1_555 1_555
C53A C49A 1_555 1_555
N12A C62A 1_555 1_555
C54A H59A 1_555 1_555
C55A C50 1_555 1_555
H60A C55A 1_555 1_555
C56A C54A 1_555 1_555
H61A C56A 1_555 1_555
C57A C49A 1_555 1_555
C58A N9A 1_555 1_555
H62A C58A 1_555 1_555
C59A N11A 1_555 1_555
H63A C59A 1_555 1_555
C60A C51A 1_555 1_555
H64A C60A 1_555 1_555
C61A H65A 1_555 1_555
H66A C61A 1_555 1_555
C62A C57A 1_555 1_555
H67A C62A 1_555 1_555
C63A C54A 1_555 1_555
H68A C63A 1_555 1_555
H69A C63A 1_555 1_555
C64A C56A 1_555 1_555
H70A C64A 1_555 1_555
H71A C64A 1_555 1_555
C65A C51A 1_555 1_555
H72A C65A 1_555 1_555
C66A N10A 1_555 1_555
H73A C66A 1_555 1_555
C67A N12 1_555 1_555
H74A C67A 1_555 1_555
C68A C59A 1_555 1_555
H75A C68A 1_555 1_555
H76A C68A 1_555 1_555
C69A C61A 1_555 1_555
H77A C69A 1_555 1_555
H78A C69A 1_555 1_555
C70A C64A 1_555 1_555
H79A C70A 1_555 1_555
H80A C70A 1_555 1_555
C71A C63A 1_555 1_555
H81A C71A 1_555 1_555
H82A C71A 1_555 1_555
C72A C68A 1_555 1_555
H83A C72A 1_555 1_555
H84A C72A 1_555 1_555
C49B H57B 1_555 1_555
N9B C56B 1_555 1_555
N10B C54B 1_555 1_555
C50B C55 1_555 1_555
C51B C58B 1_555 1_555
N11B C52B 1_555 1_555
C52B H58B 1_555 1_555
C53B C49B 1_555 1_555
N12B C67 1_555 1_555
C54B H59B 1_555 1_555
C55B C50A 1_555 1_555
H60B C55B 1_555 1_555
C56B C54B 1_555 1_555
H61B C56B 1_555 1_555
C57B C49B 1_555 1_555
C58B N9B 1_555 1_555
H62B C58B 1_555 1_555
C59B N11B 1_555 1_555
H63B C59B 1_555 1_555
C60B C51B 1_555 1_555
H64B C60B 1_555 1_555
C61B H65B 1_555 1_555
H66B C61B 1_555 1_555
C62B N12B 1_555 1_555
H67B C62B 1_555 1_555
C63B C54B 1_555 1_555
H68B C63B 1_555 1_555
H69B C63B 1_555 1_555
C64B C56B 1_555 1_555
H70B C64B 1_555 1_555
H71B C64B 1_555 1_555
C65B C51B 1_555 1_555
H72B C65B 1_555 1_555
C66B N10B 1_555 1_555
H73B C66B 1_555 1_555
C67B N12A 1_555 1_555
H74B C67B 1_555 1_555
C68B C59B 1_555 1_555
H75B C68B 1_555 1_555
H76B C68B 1_555 1_555
C69B C61B 1_555 1_555
H77B C69B 1_555 1_555
H78B C69B 1_555 1_555
C70B C64B 1_555 1_555
H79B C70B 1_555 1_555
H80B C70B 1_555 1_555
C71B C63B 1_555 1_555
H81B C71B 1_555 1_555
H82B C71B 1_555 1_555
C72B C68B 1_555 1_555
H83B C72B 1_555 1_555
H84B C72B 1_555 1_555
C2 C5 1_555 1_555
C7 C9 1_555 1_555
C8 C9 1_555 1_555
C13 N3 1_555 1_555
C14 C21 1_555 1_555
C16 C21 1_555 1_555
C17 C18 1_555 1_555
C22 C23 1_555 1_555
C27 C40 1_555 1_555
C28 C31 1_555 1_555
N6 C45 1_555 1_555
C31 C32 1_555 1_555
C35 N8 1_555 1_555
C44 C46 1_555 1_555
C47 C48 1_555 1_555
C50 C66 1_555 1_555
C52 C53 1_555 1_555
C53 C65 1_555 1_555
C57 C60 1_555 1_555
C61 C67 1_555 1_555
C69 C72 1_555 1_555
C70 C71 1_555 1_555
C2A C5A 1_555 1_555
C7A C9A 1_555 1_555
C8A C9A 1_555 1_555
C13A N3A 1_555 1_555
C14A C21A 1_555 1_555
C16A C21A 1_555 1_555
C17A C18A 1_555 1_555
C22A C23A 1_555 1_555
C2B C4B 1_555 1_555
C2B C5B 1_555 1_555
C7B C9B 1_555 1_555
C8B C9B 1_555 1_555
C13B N3B 1_555 1_555
C14B C21B 1_555 1_555
C16B C21B 1_555 1_555
N4B C24B 1_555 1_555
C17B C18B 1_555 1_555
C22B C23B 1_555 1_555
C27A C40A 1_555 1_555
C28A C31A 1_555 1_555
N6A C45A 1_555 1_555
C30A N7A 1_555 1_555
C31A C32A 1_555 1_555
C35A N8A 1_555 1_555
C44A C46A 1_555 1_555
C47A C48A 1_555 1_555
C27B C40B 1_555 1_555
C28B C31B 1_555 1_555
C29B C36B 1_555 1_555
N6B C45B 1_555 1_555
C30B N7B 1_555 1_555
C31B C32B 1_555 1_555
C33B C37B 1_555 1_555
C35B N8B 1_555 1_555
C44B C46B 1_555 1_555
C47B C48B 1_555 1_555
C50A C66A 1_555 1_555
C52A C53A 1_555 1_555
C53A C65A 1_555 1_555
C57A C60A 1_555 1_555
C59A C67A 1_555 1_555
C61A C67A 1_555 1_555
C69A C72A 1_555 1_555
C70A C71A 1_555 1_555
C50B C55B 1_555 1_555
C50B C66B 1_555 1_555
C52B C53B 1_555 1_555
C53B C65B 1_555 1_555
C57B C60B 1_555 1_555
C57B C62B 1_555 1_555
C59B C67B 1_555 1_555
C61B C67B 1_555 1_555
C69B C72B 1_555 1_555
C70B C71B 1_555 1_555

#END
