
#######################################################################
#
#                 Cambridge Crystallographic Data Centre
#                                CCDC 
#
#######################################################################
#
# If this CIF has been generated from an entry in the Cambridge 
# Structural Database, then it will include bibliographic, chemical, 
# crystal, experimental, refinement or atomic coordinate data resulting 
# from the CCDC's data processing and validation procedures.
#
#######################################################################

data_PUDXIX
_chemical_formula_moiety         'C18 H20 O6 S1'
_chemical_name_systematic        
2-(methylsulfonyl)-2-phenyl-1-(2,3,4-trimethoxyphenyl)ethanone
_symmetry_cell_setting           monoclinic
_symmetry_space_group_name_H-M   'P 21/n'
_symmetry_Int_Tables_number      14
_space_group_name_Hall           '-P 2yn'
loop_
_symmetry_equiv_pos_site_id
_symmetry_equiv_pos_as_xyz
1 x,y,z
2 1/2-x,1/2+y,1/2-z
3 -x,-y,-z
4 1/2+x,1/2-y,1/2+z
_cell_length_a                   12.0338(6)
_cell_length_b                   7.8085(4)
_cell_length_c                   18.4006(9)
_cell_angle_alpha                90
_cell_angle_beta                 97.9410(10)
_cell_angle_gamma                90
_cell_volume                     1712.45
_exptl_crystal_colour            colorless
_cell_formula_units_Z            4
loop_
_atom_site_label
_atom_site_type_symbol
_atom_site_fract_x
_atom_site_fract_y
_atom_site_fract_z
S1 S 1.01305(3) 0.73624(4) 0.06635(2)
O1 O 0.42648(8) 0.30377(13) 0.07117(6)
O2 O 0.61469(8) 0.12360(12) 0.08612(6)
O3 O 0.82060(8) 0.28110(12) 0.13055(5)
O4 O 0.83775(9) 0.79898(13) 0.16666(6)
O5 O 1.11347(9) 0.65571(13) 0.04800(6)
O6 O 0.92932(9) 0.79032(14) 0.00710(6)
C1 C 0.32269(12) 0.3955(2) 0.06920(9)
H1 H 0.3173 0.4432 0.1178
H2 H 0.2598 0.3172 0.0551
H3 H 0.3201 0.4886 0.0333
C2 C 0.52261(11) 0.39360(18) 0.08945(7)
C3 C 0.62224(12) 0.29776(17) 0.09624(7)
C4 C 0.72479(11) 0.37837(17) 0.11650(7)
C5 C 0.73060(11) 0.55759(17) 0.12506(7)
C6 C 0.83643(11) 0.65593(18) 0.13991(7)
C7 C 0.94543(11) 0.58045(17) 0.11888(7)
H4 H 0.9229 0.4825 0.0850
C8 C 1.02233(11) 0.50686(17) 0.18362(7)
C9 C 1.09195(12) 0.36989(18) 0.17107(8)
H5 H 1.0930 0.3295 0.1225
C10 C 1.15955(12) 0.29239(19) 0.22907(8)
H6 H 1.2077 0.2007 0.2200
C11 C 1.15691(12) 0.34872(19) 0.30044(8)
H7 H 1.2019 0.2941 0.3403
C12 C 0.67040(17) 0.0600(2) 0.02746(9)
H8 H 0.6718 0.1495 -0.0097
H9 H 0.6300 -0.0401 0.0052
H10 H 0.7474 0.0272 0.0468
C13 C 0.82902(13) 0.20240(18) 0.20245(8)
H11 H 0.8172 0.2895 0.2390
H12 H 0.9037 0.1517 0.2150
H13 H 0.7719 0.1129 0.2019
C14 C 1.05327(12) 0.91502(18) 0.12231(8)
H14 H 1.1018 0.9897 0.0976
H15 H 1.0942 0.8762 0.1692
H16 H 0.9863 0.9785 0.1313
C15 C 1.08842(13) 0.4850(2) 0.31327(8)
H17 H 1.0870 0.5242 0.3620
C16 C 1.02181(13) 0.56461(18) 0.25530(8)
H18 H 0.9757 0.6587 0.2645
C17 C 0.63022(12) 0.64985(18) 0.11792(7)
H19 H 0.6328 0.7705 0.1247
C18 C 0.52744(12) 0.57045(18) 0.10124(7)
H20 H 0.4603 0.6357 0.0978
loop_
_geom_bond_atom_site_label_1
_geom_bond_atom_site_label_2
_geom_bond_site_symmetry_1
_geom_bond_site_symmetry_2
S1 O5 1_555 1_555
O1 C1 1_555 1_555
O2 C3 1_555 1_555
O3 C4 1_555 1_555
O4 C6 1_555 1_555
O6 S1 1_555 1_555
C1 H1 1_555 1_555
H2 C1 1_555 1_555
H3 C1 1_555 1_555
C2 O1 1_555 1_555
C3 C2 1_555 1_555
C4 C3 1_555 1_555
C5 C4 1_555 1_555
C6 C5 1_555 1_555
C7 S1 1_555 1_555
H4 C7 1_555 1_555
C8 C7 1_555 1_555
C9 C8 1_555 1_555
H5 C9 1_555 1_555
C10 C9 1_555 1_555
H6 C10 1_555 1_555
C11 C10 1_555 1_555
H7 C11 1_555 1_555
C12 O2 1_555 1_555
H8 C12 1_555 1_555
H9 C12 1_555 1_555
H10 C12 1_555 1_555
C13 O3 1_555 1_555
H11 C13 1_555 1_555
H12 C13 1_555 1_555
H13 C13 1_555 1_555
C14 S1 1_555 1_555
H14 C14 1_555 1_555
H15 C14 1_555 1_555
H16 C14 1_555 1_555
C15 C11 1_555 1_555
H17 C15 1_555 1_555
C16 C8 1_555 1_555
H18 C16 1_555 1_555
C17 C5 1_555 1_555
H19 C17 1_555 1_555
C18 C2 1_555 1_555
H20 C18 1_555 1_555
C6 C7 1_555 1_555
C15 C16 1_555 1_555
C17 C18 1_555 1_555

#END
