
#######################################################################
#
#                 Cambridge Crystallographic Data Centre
#                                CCDC 
#
#######################################################################
#
# If this CIF has been generated from an entry in the Cambridge 
# Structural Database, then it will include bibliographic, chemical, 
# crystal, experimental, refinement or atomic coordinate data resulting 
# from the CCDC's data processing and validation procedures.
#
#######################################################################

data_PUFBEZ
_chemical_formula_moiety         'C16 H22 N2 O5'
_chemical_name_systematic        
'diisopropyl 1-(4-methylbenzoyl)hydrazine-1,2-dicarboxylate'
_symmetry_cell_setting           monoclinic
_symmetry_space_group_name_H-M   'P 21/n'
_symmetry_Int_Tables_number      14
_space_group_name_Hall           '-P 2yn'
loop_
_symmetry_equiv_pos_site_id
_symmetry_equiv_pos_as_xyz
1 x,y,z
2 1/2-x,1/2+y,1/2-z
3 -x,-y,-z
4 1/2+x,1/2-y,1/2+z
_cell_length_a                   11.925(2)
_cell_length_b                   12.846(3)
_cell_length_c                   12.660(2)
_cell_angle_alpha                90
_cell_angle_beta                 117.507(2)
_cell_angle_gamma                90
_cell_volume                     1720.13
_exptl_crystal_colour            colorless
_exptl_crystal_description       block
_cell_formula_units_Z            4
loop_
_atom_site_label
_atom_site_type_symbol
_atom_site_fract_x
_atom_site_fract_y
_atom_site_fract_z
O1 O 0.95247(8) 1.12552(6) 0.87155(7)
O2 O 0.95099(10) 0.79452(7) 0.74516(8)
O3 O 0.79087(7) 0.90596(6) 0.64457(7)
O4 O 1.20592(8) 1.00672(8) 0.86276(8)
O5 O 1.25614(8) 0.95977(7) 1.05272(7)
N1 N 0.96243(9) 0.96354(7) 0.80475(8)
N2 N 1.06178(9) 0.93756(8) 0.91436(8)
H1 H 1.0444 0.9227 0.9751
C1 C 0.87064(10) 1.10989(8) 0.66264(9)
C2 C 0.77013(11) 1.17924(9) 0.62415(11)
H2 H 0.7364 1.1990 0.6761
C3 C 0.71916(12) 1.21962(10) 0.50991(11)
H3 H 0.6495 1.2661 0.4838
C4 C 0.76797(12) 1.19353(9) 0.43283(10)
C5 C 0.87183(13) 1.12762(10) 0.47463(12)
H4 H 0.9088 1.1112 0.4244
C6 C 0.92266(12) 1.08537(10) 0.58787(11)
H5 H 0.9931 1.0396 0.6143
C7 C 0.71137(16) 1.23619(11) 0.30774(12)
H6 H 0.6205 1.2475 0.2783
H7 H 0.7246 1.1864 0.2559
H8 H 0.7522 1.3024 0.3078
C8 C 0.92726(10) 1.06962(9) 0.78593(9)
C9 C 0.90376(11) 0.87895(9) 0.72830(9)
C10 C 0.72003(11) 0.82800(9) 0.55166(10)
H9 H 0.7362 0.7569 0.5879
C11 C 0.58384(12) 0.85588(12) 0.50758(12)
H10 H 0.5614 0.8485 0.5726
H11 H 0.5309 0.8094 0.4420
H12 H 0.5700 0.9280 0.4793
C12 C 0.76153(15) 0.83227(14) 0.45650(13)
H13 H 0.7472 0.9024 0.4223
H14 H 0.7128 0.7818 0.3939
H15 H 0.8517 0.8153 0.4911
C13 C 1.17911(11) 0.97208(9) 0.93673(10)
C14 C 1.38572(11) 0.99864(11) 1.09737(11)
H16 H 1.3860 1.0600 1.0488
C15 C 1.46758(13) 0.91427(13) 1.08800(16)
H17 H 1.4674 0.8542 1.1357
H18 H 1.5542 0.9402 1.1176
H19 H 1.4346 0.8932 1.0046
C16 C 1.42262(17) 1.03326(18) 1.22303(14)
H20 H 1.3646 1.0879 1.2217
H21 H 1.5091 1.0605 1.2595
H22 H 1.4181 0.9739 1.2695
loop_
_geom_bond_atom_site_label_1
_geom_bond_atom_site_label_2
_geom_bond_site_symmetry_1
_geom_bond_site_symmetry_2
O1 C8 1_555 1_555
O2 C9 1_555 1_555
O3 C9 1_555 1_555
O4 C13 1_555 1_555
O5 C13 1_555 1_555
N1 N2 1_555 1_555
N2 H1 1_555 1_555
C1 C2 1_555 1_555
C2 H2 1_555 1_555
C3 C2 1_555 1_555
H3 C3 1_555 1_555
C4 C3 1_555 1_555
C5 C4 1_555 1_555
H4 C5 1_555 1_555
C6 C1 1_555 1_555
H5 C6 1_555 1_555
C7 C4 1_555 1_555
H6 C7 1_555 1_555
H7 C7 1_555 1_555
H8 C7 1_555 1_555
C8 N1 1_555 1_555
C9 N1 1_555 1_555
C10 O3 1_555 1_555
H9 C10 1_555 1_555
C11 C10 1_555 1_555
H10 C11 1_555 1_555
H11 C11 1_555 1_555
H12 C11 1_555 1_555
C12 C10 1_555 1_555
H13 C12 1_555 1_555
H14 C12 1_555 1_555
H15 C12 1_555 1_555
C13 N2 1_555 1_555
C14 O5 1_555 1_555
H16 C14 1_555 1_555
C15 C14 1_555 1_555
H17 C15 1_555 1_555
H18 C15 1_555 1_555
H19 C15 1_555 1_555
C16 C14 1_555 1_555
H20 C16 1_555 1_555
H21 C16 1_555 1_555
H22 C16 1_555 1_555
C1 C8 1_555 1_555
C5 C6 1_555 1_555

#END
