
#######################################################################
#
#                 Cambridge Crystallographic Data Centre
#                                CCDC 
#
#######################################################################
#
# If this CIF has been generated from an entry in the Cambridge 
# Structural Database, then it will include bibliographic, chemical, 
# crystal, experimental, refinement or atomic coordinate data resulting 
# from the CCDC's data processing and validation procedures.
#
#######################################################################

data_PUFBUP
_chemical_formula_moiety         'C20 H15 Cl1 O3 S1'
_chemical_name_systematic        
2-((4-chlorophenyl)sulfonyl)-1,2-diphenylethanone
_symmetry_cell_setting           monoclinic
_symmetry_space_group_name_H-M   'C c'
_symmetry_Int_Tables_number      9
_space_group_name_Hall           'C -2yc'
loop_
_symmetry_equiv_pos_site_id
_symmetry_equiv_pos_as_xyz
1 x,y,z
2 x,-y,1/2+z
3 1/2+x,1/2+y,z
4 1/2+x,1/2-y,1/2+z
_cell_length_a                   13.4804(8)
_cell_length_b                   11.2245(7)
_cell_length_c                   11.7222(7)
_cell_angle_alpha                90
_cell_angle_beta                 106.7360(10)
_cell_angle_gamma                90
_cell_volume                     1698.56
_exptl_crystal_colour            colorless
_cell_formula_units_Z            4
loop_
_atom_site_label
_atom_site_type_symbol
_atom_site_fract_x
_atom_site_fract_y
_atom_site_fract_z
Cl1 Cl 0.66032(5) 0.96046(6) 0.90691(6)
S1 S 0.72233(4) 0.54279(6) 0.58503(5)
O1 O 0.74096(16) 0.58980(19) 0.47870(18)
O2 O 0.64515(16) 0.45160(16) 0.57459(19)
O3 O 0.86590(19) 0.3582(2) 0.5353(2)
C1 C 0.6715(2) 0.8447(3) 0.8128(3)
C2 C 0.6562(2) 0.7290(3) 0.8451(3)
H1 H 0.6383 0.7132 0.9163
C3 C 0.6676(2) 0.6371(3) 0.7716(3)
H2 H 0.6564 0.5570 0.7911
C4 C 0.6957(2) 0.6622(3) 0.6688(3)
C5 C 0.8414(2) 0.4851(2) 0.6867(2)
H3 H 0.8278 0.4701 0.7649
C6 C 0.8639(2) 0.3642(2) 0.6379(3)
C7 C 0.8820(2) 0.2579(3) 0.7159(3)
C8 C 0.8871(2) 0.2606(3) 0.8364(3)
H4 H 0.8760 0.3335 0.8721
C9 C 0.9082(3) 0.1573(3) 0.9044(3)
H5 H 0.9132 0.1603 0.9869
C10 C 0.9218(2) 0.0509(3) 0.8530(3)
H6 H 0.9352 -0.0196 0.8998
C11 C 0.9289(2) 0.5753(2) 0.7078(2)
C12 C 0.9468(2) 0.6484(2) 0.8071(3)
H7 H 0.9056 0.6398 0.8602
C13 C 1.0241(2) 0.7338(3) 0.8294(3)
H8 H 1.0356 0.7838 0.8974
C14 C 1.0848(2) 0.7464(3) 0.7528(3)
H9 H 1.1380 0.8048 0.7682
C15 C 1.0675(2) 0.6733(3) 0.6535(3)
H10 H 1.1091 0.6819 0.6010
C16 C 0.9898(2) 0.5878(3) 0.6303(3)
H11 H 0.9782 0.5381 0.5622
C17 C 0.9160(3) 0.0460(3) 0.7321(4)
H12 H 0.9254 -0.0276 0.6965
C18 C 0.8968(2) 0.1484(3) 0.6652(3)
H13 H 0.8934 0.1451 0.5832
C19 C 0.7099(2) 0.7789(3) 0.6367(3)
H14 H 0.7287 0.7951 0.5662
C20 C 0.6960(2) 0.8712(3) 0.7092(3)
H15 H 0.7032 0.9517 0.6878
loop_
_geom_bond_atom_site_label_1
_geom_bond_atom_site_label_2
_geom_bond_site_symmetry_1
_geom_bond_site_symmetry_2
Cl1 C1 1_555 1_555
S1 O1 1_555 1_555
O2 S1 1_555 1_555
O3 C6 1_555 1_555
C1 C2 1_555 1_555
C2 H1 1_555 1_555
C3 C2 1_555 1_555
H2 C3 1_555 1_555
C4 S1 1_555 1_555
C5 S1 1_555 1_555
H3 C5 1_555 1_555
C6 C5 1_555 1_555
C7 C6 1_555 1_555
C8 C7 1_555 1_555
H4 C8 1_555 1_555
C9 C8 1_555 1_555
H5 C9 1_555 1_555
C10 C9 1_555 1_555
H6 C10 1_555 1_555
C11 C5 1_555 1_555
C12 C11 1_555 1_555
H7 C12 1_555 1_555
C13 C12 1_555 1_555
H8 C13 1_555 1_555
C14 C13 1_555 1_555
H9 C14 1_555 1_555
C15 C14 1_555 1_555
H10 C15 1_555 1_555
C16 C11 1_555 1_555
H11 C16 1_555 1_555
C17 C10 1_555 1_555
H12 C17 1_555 1_555
C18 C7 1_555 1_555
H13 C18 1_555 1_555
C19 C4 1_555 1_555
H14 C19 1_555 1_555
C20 C1 1_555 1_555
H15 C20 1_555 1_555
C3 C4 1_555 1_555
C15 C16 1_555 1_555
C17 C18 1_555 1_555
C19 C20 1_555 1_555

#END
