
#######################################################################
#
#                 Cambridge Crystallographic Data Centre
#                                CCDC 
#
#######################################################################
#
# If this CIF has been generated from an entry in the Cambridge 
# Structural Database, then it will include bibliographic, chemical, 
# crystal, experimental, refinement or atomic coordinate data resulting 
# from the CCDC's data processing and validation procedures.
#
#######################################################################

data_PUFCUQ
_chemical_formula_moiety         'C48 H38 P2 2+,2(C24 H20 B1 1-),2(C1 H2 Cl2)'
_chemical_name_systematic        
'biphenyl-3,5-diylbis(triphenylphosphonium) bis(tetraphenylborate) dichloromethane solvate'
_symmetry_cell_setting           monoclinic
_symmetry_space_group_name_H-M   'C 2/c'
_symmetry_Int_Tables_number      15
_space_group_name_Hall           '-C 2yn'
loop_
_symmetry_equiv_pos_site_id
_symmetry_equiv_pos_as_xyz
1 x,y,z
2 -x,y,1/2-z
3 1/2+x,1/2+y,z
4 1/2-x,1/2+y,1/2-z
5 -x,-y,-z
6 x,-y,1/2+z
7 1/2-x,1/2-y,-z
8 1/2+x,1/2-y,1/2+z
_cell_length_a                   23.2789(11)
_cell_length_b                   16.7359(6)
_cell_length_c                   21.7024(9)
_cell_angle_alpha                90
_cell_angle_beta                 108.802(5)
_cell_angle_gamma                90
_cell_volume                     8003.93
_exptl_crystal_colour            colorless
_exptl_crystal_description       block
_cell_formula_units_Z            4
loop_
_atom_site_label
_atom_site_type_symbol
_atom_site_fract_x
_atom_site_fract_y
_atom_site_fract_z
P1 P 0.08832(4) 0.69144(6) 0.19202(5)
C1 C 0.03812(16) 0.5518(2) 0.22334(17)
H1 H 0.0637 0.5244 0.2055
C2 C 0.03817(16) 0.6345(2) 0.22332(17)
C3 C 0.0000 0.6761(3) 0.2500
H2 H 0.0000 0.7316 0.2500
C4 C 0.0000 0.5090(3) 0.2500
C5 C 0.0000 0.4201(3) 0.2500
C6 C 0.05442(18) 0.3779(2) 0.26783(19)
H3 H 0.0910 0.4055 0.2792
C7 C 0.05439(19) 0.2953(2) 0.2687(2)
H4 H 0.0910 0.2675 0.2819
C8 C 0.0000 0.2537(4) 0.2500
H5 H 0.0000 0.1982 0.2500
C9 C 0.14075(17) 0.6257(2) 0.17405(18)
C10 C 0.12273(19) 0.5859(2) 0.1143(2)
H6 H 0.0846 0.5955 0.0844
C11 C 0.1613(2) 0.5330(3) 0.0999(2)
H7 H 0.1494 0.5068 0.0600
C12 C 0.2176(2) 0.5184(3) 0.1444(2)
H8 H 0.2435 0.4818 0.1347
C13 C 0.23604(19) 0.5578(3) 0.2033(2)
H9 H 0.2744 0.5482 0.2328
C14 C 0.19804(18) 0.6113(2) 0.21891(19)
H10 H 0.2103 0.6375 0.2588
C15 C 0.04804(18) 0.7447(2) 0.11954(17)
C16 C 0.08273(18) 0.7785(2) 0.08446(19)
H11 H 0.1244 0.7695 0.0974
C17 C 0.0554(2) 0.8251(2) 0.0307(2)
H12 H 0.0785 0.8477 0.0072
C18 C -0.0067(2) 0.8383(3) 0.0118(2)
H13 H -0.0253 0.8697 -0.0246
C19 C -0.04107(19) 0.8052(2) 0.0466(2)
H14 H -0.0827 0.8143 0.0335
C20 C -0.01418(18) 0.7587(2) 0.10051(19)
H15 H -0.0374 0.7369 0.1241
C21 C 0.12231(17) 0.7622(2) 0.25498(18)
C22 C 0.14503(18) 0.7369(2) 0.31979(19)
H16 H 0.1474 0.6827 0.3297
C23 C 0.16384(18) 0.7929(2) 0.36879(19)
H17 H 0.1796 0.7763 0.4119
C24 C 0.1593(2) 0.8735(3) 0.3542(2)
H18 H 0.1704 0.9110 0.3876
C25 C 0.1385(2) 0.8983(2) 0.2905(2)
H19 H 0.1367 0.9526 0.2809
C26 C 0.12034(19) 0.8432(2) 0.2405(2)
H20 H 0.1069 0.8603 0.1974
P1A P -0.08832(4) 0.69144(6) 0.30798(5)
C1A C -0.03812(16) 0.5518(2) 0.27666(17)
H1A H -0.0637 0.5244 0.2945
C2A C -0.03817(16) 0.6345(2) 0.27668(17)
C6A C -0.05442(18) 0.3779(2) 0.23217(19)
H3A H -0.0910 0.4055 0.2208
C7A C -0.05439(19) 0.2953(2) 0.2313(2)
H4A H -0.0910 0.2675 0.2181
C9A C -0.14075(17) 0.6257(2) 0.32595(18)
C10A C -0.12273(19) 0.5859(2) 0.3857(2)
H6A H -0.0846 0.5955 0.4156
C11A C -0.1613(2) 0.5330(3) 0.4001(2)
H7A H -0.1494 0.5068 0.4400
C12A C -0.2176(2) 0.5184(3) 0.3556(2)
H8A H -0.2435 0.4818 0.3653
C13A C -0.23604(19) 0.5578(3) 0.2967(2)
H9A H -0.2744 0.5482 0.2672
C14A C -0.19804(18) 0.6113(2) 0.28109(19)
H10A H -0.2103 0.6375 0.2412
C15A C -0.04804(18) 0.7447(2) 0.38046(17)
C16A C -0.08273(18) 0.7785(2) 0.41554(19)
H11A H -0.1244 0.7695 0.4026
C17A C -0.0554(2) 0.8251(2) 0.4693(2)
H12A H -0.0785 0.8477 0.4928
C18A C 0.0067(2) 0.8383(3) 0.4882(2)
H13A H 0.0253 0.8697 0.5246
C19A C 0.04107(19) 0.8052(2) 0.4534(2)
H14A H 0.0827 0.8143 0.4665
C20A C 0.01418(18) 0.7587(2) 0.39949(19)
H15A H 0.0374 0.7369 0.3759
C21A C -0.12231(17) 0.7622(2) 0.24502(18)
C22A C -0.14503(18) 0.7369(2) 0.18021(19)
H16A H -0.1474 0.6827 0.1703
C23A C -0.16384(18) 0.7929(2) 0.13121(19)
H17A H -0.1796 0.7763 0.0881
C24A C -0.1593(2) 0.8735(3) 0.1458(2)
H18A H -0.1704 0.9110 0.1124
C25A C -0.1385(2) 0.8983(2) 0.2095(2)
H19A H -0.1367 0.9526 0.2191
C26A C -0.12034(19) 0.8432(2) 0.2595(2)
H20A H -0.1069 0.8603 0.3026
C27 C -0.26530(17) 0.4119(2) 0.1065(2)
C28 C -0.2376(2) 0.4154(3) 0.1741(2)
H21 H -0.2324 0.4652 0.1941
C29 C -0.2175(2) 0.3480(3) 0.2128(2)
H22 H -0.1998 0.3533 0.2577
C30 C -0.2238(2) 0.2739(3) 0.1847(2)
H23 H -0.2103 0.2287 0.2101
C31 C -0.2503(2) 0.2672(3) 0.1184(2)
H24 H -0.2548 0.2171 0.0990
C32 C -0.27062(18) 0.3347(2) 0.0800(2)
H25 H -0.2883 0.3284 0.0353
C33 C -0.31964(17) 0.5530(2) 0.10467(18)
C34 C -0.31031(19) 0.6350(3) 0.1134(2)
H26 H -0.2816 0.6592 0.0980
C35 C -0.3421(2) 0.6819(3) 0.1440(2)
H27 H -0.3348 0.7366 0.1485
C36 C -0.3846(2) 0.6478(4) 0.1679(2)
H28 H -0.4060 0.6791 0.1884
C37 C -0.3946(2) 0.5681(3) 0.1608(2)
H29 H -0.4229 0.5445 0.1771
C38 C -0.36322(18) 0.5215(3) 0.12977(19)
H30 H -0.3714 0.4670 0.1254
C39 C -0.33430(18) 0.4766(2) -0.00808(19)
C40 C -0.39503(18) 0.4992(2) -0.0284(2)
H31 H -0.4096 0.5279 0.0002
C41 C -0.4349(2) 0.4806(3) -0.0901(2)
H32 H -0.4750 0.4977 -0.1020
C42 C -0.4154(2) 0.4374(3) -0.1328(2)
H33 H -0.4423 0.4232 -0.1733
C43 C -0.3553(2) 0.4150(3) -0.1155(2)
H34 H -0.3413 0.3865 -0.1446
C44 C -0.31575(19) 0.4351(2) -0.05485(19)
H35 H -0.2752 0.4206 -0.0445
C45 C -0.22660(17) 0.5394(2) 0.05603(18)
C46 C -0.2337(2) 0.6047(2) 0.0136(2)
H36 H -0.2727 0.6232 -0.0077
C47 C -0.1856(2) 0.6429(3) 0.0017(2)
H37 H -0.1928 0.6855 -0.0273
C48 C -0.1274(2) 0.6178(3) 0.0326(2)
H38 H -0.0948 0.6424 0.0244
C49 C -0.1181(2) 0.5554(3) 0.0763(2)
H39 H -0.0788 0.5389 0.0987
C50 C -0.16634(19) 0.5169(3) 0.0873(2)
H40 H -0.1585 0.4744 0.1164
B1 B -0.2863(2) 0.4949(3) 0.0653(2)
C51 C -0.0202(3) 0.3294(4) 0.0856(3)
H41 H -0.0072 0.3310 0.1328
H42 H -0.0053 0.2802 0.0727
Cl1 Cl -0.09972(9) 0.32996(11) 0.05529(8)
Cl2 Cl 0.01080(12) 0.40977(17) 0.05731(13)
loop_
_geom_bond_atom_site_label_1
_geom_bond_atom_site_label_2
_geom_bond_site_symmetry_1
_geom_bond_site_symmetry_2
P1 C2 1_555 1_555
C1 H1 1_555 1_555
C2 C1 1_555 1_555
C3 C2 1_555 1_555
H2 C3 1_555 1_555
C4 C1 1_555 1_555
C5 C4 1_555 1_555
C6 C5 1_555 1_555
H3 C6 1_555 1_555
C7 C6 1_555 1_555
H4 C7 1_555 1_555
C8 C7 1_555 1_555
H5 C8 1_555 1_555
C9 P1 1_555 1_555
C10 C9 1_555 1_555
H6 C10 1_555 1_555
C11 C10 1_555 1_555
H7 C11 1_555 1_555
C12 C11 1_555 1_555
H8 C12 1_555 1_555
C13 C12 1_555 1_555
H9 C13 1_555 1_555
C14 C9 1_555 1_555
H10 C14 1_555 1_555
C15 P1 1_555 1_555
C16 C15 1_555 1_555
H11 C16 1_555 1_555
C17 C16 1_555 1_555
H12 C17 1_555 1_555
C18 C17 1_555 1_555
H13 C18 1_555 1_555
C19 C18 1_555 1_555
H14 C19 1_555 1_555
C20 C15 1_555 1_555
H15 C20 1_555 1_555
C21 P1 1_555 1_555
C22 C21 1_555 1_555
H16 C22 1_555 1_555
C23 C22 1_555 1_555
H17 C23 1_555 1_555
C24 C23 1_555 1_555
H18 C24 1_555 1_555
C25 C24 1_555 1_555
H19 C25 1_555 1_555
C26 C21 1_555 1_555
H20 C26 1_555 1_555
C27 C28 1_555 1_555
C28 H21 1_555 1_555
C29 C28 1_555 1_555
H22 C29 1_555 1_555
C30 C29 1_555 1_555
H23 C30 1_555 1_555
C31 C30 1_555 1_555
H24 C31 1_555 1_555
C32 C27 1_555 1_555
H25 C32 1_555 1_555
C33 C34 1_555 1_555
C34 H26 1_555 1_555
C35 C34 1_555 1_555
H27 C35 1_555 1_555
C36 C35 1_555 1_555
H28 C36 1_555 1_555
C37 C36 1_555 1_555
H29 C37 1_555 1_555
C38 C33 1_555 1_555
H30 C38 1_555 1_555
C39 C40 1_555 1_555
C40 H31 1_555 1_555
C41 C40 1_555 1_555
H32 C41 1_555 1_555
C42 C41 1_555 1_555
H33 C42 1_555 1_555
C43 C42 1_555 1_555
H34 C43 1_555 1_555
C44 C39 1_555 1_555
H35 C44 1_555 1_555
C45 C46 1_555 1_555
C46 H36 1_555 1_555
C47 C46 1_555 1_555
H37 C47 1_555 1_555
C48 C47 1_555 1_555
H38 C48 1_555 1_555
C49 C48 1_555 1_555
H39 C49 1_555 1_555
C50 C45 1_555 1_555
H40 C50 1_555 1_555
B1 C27 1_555 1_555
C51 H41 1_555 1_555
H42 C51 1_555 1_555
Cl1 C51 1_555 1_555
Cl2 C51 1_555 1_555
P1A C2A 1_555 1_555
C1A C4 1_555 1_555
H1A C1A 1_555 1_555
C2A C3 1_555 1_555
C6A C5 1_555 1_555
H3A C6A 1_555 1_555
C7A C8 1_555 1_555
H4A C7A 1_555 1_555
C9A P1A 1_555 1_555
C10A C9A 1_555 1_555
H6A C10A 1_555 1_555
C11A C10A 1_555 1_555
H7A C11A 1_555 1_555
C12A C11A 1_555 1_555
H8A C12A 1_555 1_555
C13A C12A 1_555 1_555
H9A C13A 1_555 1_555
C14A C9A 1_555 1_555
H10A C14A 1_555 1_555
C15A P1A 1_555 1_555
C16A C15A 1_555 1_555
H11A C16A 1_555 1_555
C17A C16A 1_555 1_555
H12A C17A 1_555 1_555
C18A C17A 1_555 1_555
H13A C18A 1_555 1_555
C19A C18A 1_555 1_555
H14A C19A 1_555 1_555
C20A C15A 1_555 1_555
H15A C20A 1_555 1_555
C21A P1A 1_555 1_555
C22A C21A 1_555 1_555
H16A C22A 1_555 1_555
C23A C22A 1_555 1_555
H17A C23A 1_555 1_555
C24A C23A 1_555 1_555
H18A C24A 1_555 1_555
C25A C24A 1_555 1_555
H19A C25A 1_555 1_555
C26A C21A 1_555 1_555
H20A C26A 1_555 1_555
C13 C14 1_555 1_555
C19 C20 1_555 1_555
C25 C26 1_555 1_555
C31 C32 1_555 1_555
C33 B1 1_555 1_555
C37 C38 1_555 1_555
C39 B1 1_555 1_555
C43 C44 1_555 1_555
C45 B1 1_555 1_555
C49 C50 1_555 1_555
C1A C2A 1_555 1_555
C6A C7A 1_555 1_555
C13A C14A 1_555 1_555
C19A C20A 1_555 1_555
C25A C26A 1_555 1_555

#END
