
#######################################################################
#
#                 Cambridge Crystallographic Data Centre
#                                CCDC 
#
#######################################################################
#
# If this CIF has been generated from an entry in the Cambridge 
# Structural Database, then it will include bibliographic, chemical, 
# crystal, experimental, refinement or atomic coordinate data resulting 
# from the CCDC's data processing and validation procedures.
#
#######################################################################

data_PUFFON
_chemical_name_common            1,2-O,O-Dimethyl-D-ribofuranose
_chemical_formula_moiety         'C7 H14 O5'
_chemical_name_systematic        
2-(hydroxymethyl)-4,5-dimethoxytetrahydrofuran-3-ol
_symmetry_cell_setting           monoclinic
_symmetry_space_group_name_H-M   'P 21'
_symmetry_Int_Tables_number      4
_space_group_name_Hall           'P 2yb'
loop_
_symmetry_equiv_pos_site_id
_symmetry_equiv_pos_as_xyz
1 x,y,z
2 -x,1/2+y,-z
_cell_length_a                   4.986(7)
_cell_length_b                   8.324(13)
_cell_length_c                   10.682(17)
_cell_angle_alpha                90
_cell_angle_beta                 101.53(5)
_cell_angle_gamma                90
_cell_volume                     434.393
_exptl_crystal_colour            colorless
_exptl_crystal_description       plate
_cell_formula_units_Z            2
_exptl_crystal_recrystallization_method 
'Re-crystallisation from solvent: DCM/Cyclohexane/Diethylether'
loop_
_atom_site_label
_atom_site_type_symbol
_atom_site_fract_x
_atom_site_fract_y
_atom_site_fract_z
O1 O -0.2679(6) 0.7859(4) -0.1071(3)
H1 H -0.4059 0.8330 -0.1492
O2 O 0.3027(6) 0.5186(4) 0.3165(3)
O3 O -0.0734(6) 0.8839(3) 0.3211(3)
O4 O 0.0944(6) 0.7880(3) 0.1453(3)
O5 O -0.1943(6) 0.4033(3) 0.1882(3)
H2 H -0.0498 0.3614 0.1742
C1 C -0.3361(9) 0.7149(5) 0.0043(4)
H3 H -0.4623 0.6234 -0.0208
H4 H -0.4299 0.7949 0.0490
C2 C -0.0804(9) 0.6572(5) 0.0921(4)
H5 H 0.0220 0.5829 0.0449
C3 C -0.1560(10) 0.5695(5) 0.2055(4)
H6 H -0.3308 0.6165 0.2213
C4 C 0.0725(9) 0.6173(5) 0.3166(4)
H7 H 0.0115 0.6127 0.4002
C5 C 0.4568(10) 0.4845(7) 0.4377(4)
H8 H 0.6098 0.4140 0.4296
H9 H 0.3407 0.4309 0.4889
H10 H 0.5281 0.5848 0.4797
C6 C 0.1256(9) 0.7884(5) 0.2792(4)
H11 H 0.3144 0.8234 0.3208
C7 C -0.0677(11) 1.0475(5) 0.2821(5)
H12 H -0.1176 1.0539 0.1887
H13 H 0.1169 1.0911 0.3111
H14 H -0.1984 1.1100 0.3196
loop_
_geom_bond_atom_site_label_1
_geom_bond_atom_site_label_2
_geom_bond_site_symmetry_1
_geom_bond_site_symmetry_2
O1 H1 1_555 1_555
O2 C4 1_555 1_555
O3 C6 1_555 1_555
O4 C2 1_555 1_555
O5 H2 1_555 1_555
C1 O1 1_555 1_555
H3 C1 1_555 1_555
H4 C1 1_555 1_555
C2 C1 1_555 1_555
H5 C2 1_555 1_555
C3 O5 1_555 1_555
H6 C3 1_555 1_555
C4 C3 1_555 1_555
H7 C4 1_555 1_555
C5 O2 1_555 1_555
H8 C5 1_555 1_555
H9 C5 1_555 1_555
H10 C5 1_555 1_555
C6 O4 1_555 1_555
H11 C6 1_555 1_555
C7 O3 1_555 1_555
H12 C7 1_555 1_555
H13 C7 1_555 1_555
H14 C7 1_555 1_555
C2 C3 1_555 1_555
C4 C6 1_555 1_555

#END
