
#######################################################################
#
#                 Cambridge Crystallographic Data Centre
#                                CCDC 
#
#######################################################################
#
# If this CIF has been generated from an entry in the Cambridge 
# Structural Database, then it will include bibliographic, chemical, 
# crystal, experimental, refinement or atomic coordinate data resulting 
# from the CCDC's data processing and validation procedures.
#
#######################################################################

data_PUFGIH
_chemical_formula_moiety         'C8 H13 N3 O1'
_chemical_name_systematic        3-(3,5-Dimethyl-1H-pyrazol-1-yl)propanamide
_symmetry_cell_setting           orthorhombic
_symmetry_space_group_name_H-M   'F d d 2'
_symmetry_Int_Tables_number      43
_space_group_name_Hall           'F 2 -2d'
loop_
_symmetry_equiv_pos_site_id
_symmetry_equiv_pos_as_xyz
1 x,y,z
2 -x,-y,z
3 1/4-x,1/4+y,1/4+z
4 1/4+x,1/4-y,1/4+z
5 x,1/2+y,1/2+z
6 -x,1/2-y,1/2+z
7 1/4-x,3/4+y,3/4+z
8 1/4+x,3/4-y,3/4+z
9 1/2+x,y,1/2+z
10 1/2-x,-y,1/2+z
11 3/4-x,1/4+y,3/4+z
12 3/4+x,1/4-y,3/4+z
13 1/2+x,1/2+y,z
14 1/2-x,1/2-y,z
15 3/4-x,3/4+y,1/4+z
16 3/4+x,3/4-y,1/4+z
_cell_length_a                   14.452(5)
_cell_length_b                   33.390(7)
_cell_length_c                   7.4354(15)
_cell_angle_alpha                90
_cell_angle_beta                 90
_cell_angle_gamma                90
_cell_volume                     3587.97
_exptl_crystal_colour            colorless
_exptl_crystal_description       block
_cell_formula_units_Z            16
_exptl_crystal_recrystallization_method ethanol
loop_
_atom_site_label
_atom_site_type_symbol
_atom_site_fract_x
_atom_site_fract_y
_atom_site_fract_z
O1 O 0.02008(12) 0.12376(4) 0.3335(3)
N1 N -0.08464(14) 0.07777(6) 0.2532(4)
H1 H -0.1185 0.0952 0.1991
H2 H -0.1013 0.0530 0.2556
N2 N 0.15555(13) 0.04420(5) 0.1786(2)
N3 N 0.12698(13) 0.00771(5) 0.1195(3)
C1 C -0.00707(15) 0.08880(6) 0.3326(3)
C2 C 0.04624(16) 0.05620(6) 0.4265(3)
H3 H 0.0163 0.0307 0.4032
H4 H 0.0441 0.0609 0.5551
C3 C 0.14666(15) 0.05349(7) 0.3680(3)
H5 H 0.1771 0.0788 0.3924
H6 H 0.1775 0.0329 0.4379
C4 C 0.2226(2) 0.10885(7) 0.0702(5)
H7 H 0.2746 0.1082 0.1504
H8 H 0.1747 0.1253 0.1210
H9 H 0.2414 0.1198 -0.0434
C5 C 0.18687(15) 0.06742(6) 0.0435(3)
C6 C 0.17798(19) 0.04516(8) -0.1109(4)
H10 H 0.1938 0.0529 -0.2270
C7 C 0.14038(16) 0.00856(7) -0.0582(3)
C8 C 0.1147(2) -0.02660(9) -0.1705(5)
H11 H 0.1465 -0.0499 -0.1274
H12 H 0.1319 -0.0217 -0.2932
H13 H 0.0491 -0.0309 -0.1634
loop_
_geom_bond_atom_site_label_1
_geom_bond_atom_site_label_2
_geom_bond_site_symmetry_1
_geom_bond_site_symmetry_2
O1 C1 1_555 1_555
N1 H1 1_555 1_555
H2 N1 1_555 1_555
N2 N3 1_555 1_555
N3 C7 1_555 1_555
C1 N1 1_555 1_555
C2 C1 1_555 1_555
H3 C2 1_555 1_555
H4 C2 1_555 1_555
C3 N2 1_555 1_555
H5 C3 1_555 1_555
H6 C3 1_555 1_555
C4 H7 1_555 1_555
H8 C4 1_555 1_555
H9 C4 1_555 1_555
C5 N2 1_555 1_555
C6 C5 1_555 1_555
H10 C6 1_555 1_555
C7 C6 1_555 1_555
C8 C7 1_555 1_555
H11 C8 1_555 1_555
H12 C8 1_555 1_555
H13 C8 1_555 1_555
C2 C3 1_555 1_555
C4 C5 1_555 1_555

#END
