
#######################################################################
#
#                 Cambridge Crystallographic Data Centre
#                                CCDC 
#
#######################################################################
#
# If this CIF has been generated from an entry in the Cambridge 
# Structural Database, then it will include bibliographic, chemical, 
# crystal, experimental, refinement or atomic coordinate data resulting 
# from the CCDC's data processing and validation procedures.
#
#######################################################################

data_PUFGON
_chemical_formula_moiety         'C26 H37 N1 O5'
_chemical_name_systematic        
'15-Hydroxyethyl-19-isopropyl-5,9-dimethyl-14,16-dioxo-15-azapentacyclo[10.5.2.0^1,10^.0^4,9^.0^13,17^]nonadec-18-ene-5-carboxylic acid'
_symmetry_cell_setting           monoclinic
_symmetry_space_group_name_H-M   'P 21'
_symmetry_Int_Tables_number      4
_space_group_name_Hall           'P 2yb'
loop_
_symmetry_equiv_pos_site_id
_symmetry_equiv_pos_as_xyz
1 x,y,z
2 -x,1/2+y,-z
_cell_length_a                   12.274(3)
_cell_length_b                   6.9550(14)
_cell_length_c                   14.445(3)
_cell_angle_alpha                90
_cell_angle_beta                 102.22(3)
_cell_angle_gamma                90
_cell_volume                     1205.17
_exptl_crystal_colour            colorless
_exptl_crystal_description       block
_cell_formula_units_Z            2
_exptl_crystal_recrystallization_method ethanol
loop_
_atom_site_label
_atom_site_type_symbol
_atom_site_fract_x
_atom_site_fract_y
_atom_site_fract_z
N1 N 0.7569(3) 0.2774(8) 0.9683(3)
C1 C 0.4892(4) 0.2559(8) 0.8217(3)
O1 O 0.0325(6) -0.1069(12) 0.7369(5)
C2 C 0.4169(4) 0.1064(8) 0.8588(3)
H1 H 0.3918 0.1602 0.9126
H2 H 0.4622 -0.0055 0.8807
O2 O 0.0550(5) 0.1493(10) 0.8226(4)
H3 H 0.0039 0.0929 0.8439
O3 O 0.6287(3) 0.0996(9) 1.0198(3)
C3 C 0.3148(4) 0.0426(9) 0.7842(4)
H4 H 0.3390 -0.0242 0.7331
H5 H 0.2700 -0.0453 0.8126
C4 C 0.2447(4) 0.2185(7) 0.7446(4)
H6 H 0.2342 0.2910 0.8003
O4 O 0.8467(4) 0.5151(11) 0.8999(4)
C5 C 0.1243(5) 0.1684(10) 0.6886(5)
O5 O 0.8772(5) -0.0458(10) 0.9037(4)
H7 H 0.8826 -0.1584 0.8822
C6 C 0.0641(5) 0.3588(11) 0.6566(6)
H8 H -0.0087 0.3302 0.6176
H9 H 0.0525 0.4278 0.7121
C7 C 0.1256(6) 0.4859(10) 0.6020(5)
H10 H 0.0842 0.6043 0.5856
H11 H 0.1322 0.4224 0.5437
C8 C 0.2398(5) 0.5316(9) 0.6592(4)
H12 H 0.2318 0.6051 0.7145
H13 H 0.2780 0.6123 0.6215
C9 C 0.3132(5) 0.3529(8) 0.6926(3)
C10 C 0.4166(4) 0.4214(7) 0.7671(3)
H14 H 0.3871 0.4927 0.8150
C11 C 0.4956(5) 0.5621(8) 0.7305(4)
H15 H 0.4749 0.5689 0.6620
H16 H 0.4877 0.6897 0.7554
C12 C 0.6177(5) 0.4975(9) 0.7605(4)
H17 H 0.6669 0.5834 0.7344
C13 C 0.6456(5) 0.5035(10) 0.8703(4)
H18 H 0.6325 0.6331 0.8924
C14 C 0.5700(4) 0.3595(8) 0.9058(3)
H19 H 0.5249 0.4292 0.9432
C15 C 0.5630(4) 0.1723(7) 0.7609(3)
H20 H 0.5616 0.0424 0.7455
C16 C 0.6300(5) 0.2951(10) 0.7306(4)
C17 C 0.7128(7) 0.2472(14) 0.6679(5)
H21 H 0.7866 0.2892 0.7019
C18 C 0.6885(7) 0.3491(16) 0.5733(6)
H22 H 0.6811 0.4845 0.5831
H23 H 0.6205 0.3002 0.5352
H24 H 0.7487 0.3271 0.5415
C19 C 0.7198(7) 0.0228(16) 0.6504(6)
H25 H 0.7720 -0.0013 0.6107
H26 H 0.6477 -0.0243 0.6198
H27 H 0.7441 -0.0416 0.7099
C20 C 0.1193(7) 0.0313(11) 0.6079(6)
H28 H 0.1590 -0.0841 0.6306
H29 H 0.1527 0.0896 0.5605
H30 H 0.0429 0.0005 0.5810
C21 C 0.0670(7) 0.0619(15) 0.7521(6)
C22 C 0.3508(5) 0.2610(10) 0.6074(3)
H31 H 0.3927 0.3530 0.5797
H32 H 0.2865 0.2218 0.5611
H33 H 0.3966 0.1509 0.6284
C23 C 0.6475(4) 0.2278(10) 0.9707(3)
C24 C 0.7590(5) 0.4422(11) 0.9121(4)
C25 C 0.8560(5) 0.1800(12) 1.0236(5)
H34 H 0.8528 0.1827 1.0901
H35 H 0.9222 0.2498 1.0166
C26 C 0.8656(7) -0.0272(14) 0.9932(5)
H36 H 0.9292 -0.0860 1.0349
H37 H 0.7995 -0.0966 1.0007
loop_
_geom_bond_atom_site_label_1
_geom_bond_atom_site_label_2
_geom_bond_site_symmetry_1
_geom_bond_site_symmetry_2
N1 C23 1_555 1_555
C1 C2 1_555 1_555
O1 C21 1_555 1_555
C2 H1 1_555 1_555
H2 C2 1_555 1_555
O2 H3 1_555 1_555
O3 C23 1_555 1_555
C3 C2 1_555 1_555
H4 C3 1_555 1_555
H5 C3 1_555 1_555
C4 C3 1_555 1_555
H6 C4 1_555 1_555
O4 C24 1_555 1_555
C5 C4 1_555 1_555
O5 H7 1_555 1_555
C6 C5 1_555 1_555
H8 C6 1_555 1_555
H9 C6 1_555 1_555
C7 C6 1_555 1_555
H10 C7 1_555 1_555
H11 C7 1_555 1_555
C8 C7 1_555 1_555
H12 C8 1_555 1_555
H13 C8 1_555 1_555
C9 C4 1_555 1_555
C10 C1 1_555 1_555
H14 C10 1_555 1_555
C11 C10 1_555 1_555
H15 C11 1_555 1_555
H16 C11 1_555 1_555
C12 C11 1_555 1_555
H17 C12 1_555 1_555
C13 C12 1_555 1_555
H18 C13 1_555 1_555
C14 C1 1_555 1_555
H19 C14 1_555 1_555
C15 C1 1_555 1_555
H20 C15 1_555 1_555
C16 C12 1_555 1_555
C17 C16 1_555 1_555
H21 C17 1_555 1_555
C18 C17 1_555 1_555
H22 C18 1_555 1_555
H23 C18 1_555 1_555
H24 C18 1_555 1_555
C19 C17 1_555 1_555
H25 C19 1_555 1_555
H26 C19 1_555 1_555
H27 C19 1_555 1_555
C20 C5 1_555 1_555
H28 C20 1_555 1_555
H29 C20 1_555 1_555
H30 C20 1_555 1_555
C21 O2 1_555 1_555
C22 C9 1_555 1_555
H31 C22 1_555 1_555
H32 C22 1_555 1_555
H33 C22 1_555 1_555
C23 C14 1_555 1_555
C24 N1 1_555 1_555
C25 N1 1_555 1_555
H34 C25 1_555 1_555
H35 C25 1_555 1_555
C26 O5 1_555 1_555
H36 C26 1_555 1_555
H37 C26 1_555 1_555
C5 C21 1_555 1_555
C8 C9 1_555 1_555
C9 C10 1_555 1_555
C13 C14 1_555 1_555
C13 C24 1_555 1_555
C15 C16 1_555 1_555
C25 C26 1_555 1_555

#END
