
#######################################################################
#
#                 Cambridge Crystallographic Data Centre
#                                CCDC 
#
#######################################################################
#
# If this CIF has been generated from an entry in the Cambridge 
# Structural Database, then it will include bibliographic, chemical, 
# crystal, experimental, refinement or atomic coordinate data resulting 
# from the CCDC's data processing and validation procedures.
#
#######################################################################

data_PUFGUU
_chemical_name_common            'Diatrizoic acid dihydrate'
_chemical_formula_moiety         'C11 H9 I3 N2 O4,2(H2 O1)'
_chemical_name_systematic        
'3,5-diacetamido-2,4,6-triiodobenzoic acid dihydrate'
_symmetry_cell_setting           triclinic
_symmetry_space_group_name_H-M   'P -1'
_symmetry_Int_Tables_number      2
_space_group_name_Hall           '-P 1'
loop_
_symmetry_equiv_pos_site_id
_symmetry_equiv_pos_as_xyz
1 x,y,z
2 -x,-y,-z
_cell_length_a                   7.8264(6)
_cell_length_b                   9.4397(8)
_cell_length_c                   13.3021(11)
_cell_angle_alpha                89.673(2)
_cell_angle_beta                 75.570(2)
_cell_angle_gamma                71.091(2)
_cell_volume                     897.354
_exptl_crystal_colour            colorless
_cell_formula_units_Z            2
_exptl_crystal_recrystallization_method 'Re-crystallisation from solvent: water'
loop_
_atom_site_label
_atom_site_type_symbol
_atom_site_fract_x
_atom_site_fract_y
_atom_site_fract_z
I1 I 1.27325(3) 0.40165(3) 0.566157(17)
I2 I 0.52036(3) 0.41229(2) 0.834393(17)
I3 I 0.66181(3) 0.99265(2) 0.726388(17)
C1 C 0.9361(5) 0.6787(3) 0.6552(2)
C2 C 0.6367(4) 0.6824(3) 0.7657(2)
C3 C 0.7550(5) 0.7572(3) 0.7136(2)
C4 C 0.8780(4) 0.4436(3) 0.6959(2)
C5 C 0.9967(4) 0.5212(4) 0.6484(2)
C6 C 0.6984(4) 0.5250(3) 0.7553(2)
O1 O 0.9271(4) 0.2101(3) 0.60809(18)
O2 O 1.1552(3) 0.7823(3) 0.74704(18)
O3 O 0.5734(3) 0.7987(3) 0.96525(18)
O4 O 1.0169(4) 0.2004(3) 0.75269(19)
N1 N 0.4576(4) 0.7643(3) 0.8311(2)
N2 N 1.0578(4) 0.7555(3) 0.6047(2)
C7 C 1.1604(4) 0.8037(3) 0.6549(2)
C8 C 0.9429(4) 0.2737(3) 0.6827(2)
C9 C 1.2863(5) 0.8806(4) 0.5910(3)
H1 H 1.242(2) 0.9868(7) 0.6165(13)
H2 H 1.4143(8) 0.8326(18) 0.5970(16)
H3 H 1.285(3) 0.873(2) 0.5179(4)
C10 C 0.4377(5) 0.8204(3) 0.9281(2)
C11 C 0.2441(5) 0.9118(4) 0.9865(3)
H4 H 0.2143(15) 0.875(2) 1.0557(9)
H5 H 0.2353(11) 1.0174(6) 0.9939(19)
H6 H 0.1553(6) 0.903(3) 0.9484(11)
H7 H 1.069(7) 0.761(5) 0.551(4)
H8 H 1.031(7) 0.249(5) 0.794(4)
H9 H 0.365(6) 0.778(5) 0.811(3)
O5 O 0.9484(4) 0.6696(3) 0.90837(19)
H10 H 0.840(8) 0.708(6) 0.918(4)
H11 H 1.008(7) 0.711(6) 0.859(4)
O6 O 1.0509(5) 0.3637(3) 0.8892(2)
H12 H 1.011(7) 0.453(6) 0.897(4)
H13 H 1.035(6) 0.335(5) 0.960(4)
loop_
_geom_bond_atom_site_label_1
_geom_bond_atom_site_label_2
_geom_bond_site_symmetry_1
_geom_bond_site_symmetry_2
I1 C5 1_555 1_555
I2 C6 1_555 1_555
I3 C3 1_555 1_555
C1 C3 1_555 1_555
C2 C3 1_555 1_555
C4 C5 1_555 1_555
C5 C1 1_555 1_555
C6 C2 1_555 1_555
O1 C8 1_555 1_555
O2 C7 1_555 1_555
O3 C10 1_555 1_555
O4 C8 1_555 1_555
N1 C2 1_555 1_555
N2 C1 1_555 1_555
C7 N2 1_555 1_555
C8 C4 1_555 1_555
C9 C7 1_555 1_555
H1 C9 1_555 1_555
H2 C9 1_555 1_555
H3 C9 1_555 1_555
C10 N1 1_555 1_555
C11 C10 1_555 1_555
H4 C11 1_555 1_555
H5 C11 1_555 1_555
H6 C11 1_555 1_555
H7 N2 1_555 1_555
H8 O4 1_555 1_555
H9 N1 1_555 1_555
O5 H10 1_555 1_555
H11 O5 1_555 1_555
O6 H12 1_555 1_555
H13 O6 1_555 1_555
C4 C6 1_555 1_555

#END
