
#######################################################################
#
#                 Cambridge Crystallographic Data Centre
#                                CCDC 
#
#######################################################################
#
# If this CIF has been generated from an entry in the Cambridge 
# Structural Database, then it will include bibliographic, chemical, 
# crystal, experimental, refinement or atomic coordinate data resulting 
# from the CCDC's data processing and validation procedures.
#
#######################################################################

data_PUFGUT
_chemical_formula_moiety         'C18 H15 O1 P1,C13 H17 N2 O3'
_chemical_name_systematic        
'Triphenylphosphine oxide 2-(4-hydroxyphenyl)-4,4,5,5-tetramethylimidazolidine-1-oxyl 3-oxide'
_symmetry_cell_setting           triclinic
_symmetry_space_group_name_H-M   'P -1'
_symmetry_Int_Tables_number      2
_space_group_name_Hall           '-P 1'
loop_
_symmetry_equiv_pos_site_id
_symmetry_equiv_pos_as_xyz
1 x,y,z
2 -x,-y,-z
_cell_length_a                   8.8431(11)
_cell_length_b                   12.0786(15)
_cell_length_c                   13.9649(16)
_cell_angle_alpha                86.386(2)
_cell_angle_beta                 82.724(2)
_cell_angle_gamma                77.318(2)
_cell_volume                     1442.56
_exptl_crystal_colour            blue
_exptl_crystal_description       block
_cell_formula_units_Z            2
loop_
_atom_site_label
_atom_site_type_symbol
_atom_site_fract_x
_atom_site_fract_y
_atom_site_fract_z
P1 P 0.27687(7) 0.23526(6) 0.58436(4)
O1 O 0.20487(18) 0.22532(16) 0.49552(11)
C1 C 0.1934(3) 0.3690(2) 0.63862(15)
C2 C 0.0567(3) 0.4339(2) 0.61134(17)
H2 H 0.0079 0.4084 0.5645
C3 C -0.0097(3) 0.5378(3) 0.6534(2)
H3 H -0.1017 0.5818 0.6342
C4 C 0.0613(4) 0.5744(3) 0.7230(2)
H4 H 0.0171 0.6435 0.7513
C5 C 0.1963(4) 0.5105(3) 0.75137(19)
H5 H 0.2436 0.5360 0.7990
C6 C 0.2624(3) 0.4091(2) 0.70998(17)
H6 H 0.3548 0.3661 0.7297
C7 C 0.4827(3) 0.2292(2) 0.56119(16)
C8 C 0.5343(3) 0.3206(3) 0.51288(19)
H7 H 0.4616 0.3849 0.4964
C9 C 0.6909(4) 0.3179(3) 0.4889(2)
H8 H 0.7234 0.3799 0.4568
C10 C 0.7987(3) 0.2232(3) 0.5126(2)
H9 H 0.9045 0.2211 0.4960
C11 C 0.7519(3) 0.1319(3) 0.5605(2)
H10 H 0.8256 0.0683 0.5770
C12 C 0.5937(3) 0.1347(2) 0.58417(19)
H11 H 0.5621 0.0721 0.6159
C13 C 0.2463(3) 0.1266(2) 0.67313(18)
C14 C 0.2980(3) 0.1184(2) 0.76328(19)
H12 H 0.3549 0.1695 0.7790
C15 C 0.2659(4) 0.0350(3) 0.8302(2)
H13 H 0.3017 0.0296 0.8905
C16 C 0.1810(4) -0.0395(3) 0.8072(3)
H14 H 0.1578 -0.0947 0.8526
C17 C 0.1304(4) -0.0339(3) 0.7190(3)
H15 H 0.0738 -0.0855 0.7038
C18 C 0.1636(3) 0.0491(2) 0.6520(2)
H16 H 0.1293 0.0526 0.5914
N1 N 0.4223(2) 0.70728(19) 1.07295(14)
N2 N 0.2585(2) 0.69871(16) 0.97237(13)
O2 O 0.1903(2) 0.70493(15) 0.89585(12)
O3 O 0.5469(2) 0.7152(2) 1.10822(12)
O4 O 0.8088(2) 0.85274(18) 0.67430(11)
H1 H 0.7939 0.8313 0.6224
C19 C 0.2785(3) 0.6952(3) 1.13670(18)
C20 C 0.3193(4) 0.6162(4) 1.2228(2)
H17 H 0.3829 0.5454 1.2006
H18 H 0.2252 0.6028 1.2595
H19 H 0.3757 0.6504 1.2629
C21 C 0.2011(4) 0.8149(3) 1.1698(2)
H20 H 0.2717 0.8439 1.2033
H21 H 0.1077 0.8123 1.2123
H22 H 0.1755 0.8636 1.1145
C22 C 0.1890(3) 0.6513(2) 1.06455(17)
C23 C 0.0150(3) 0.6928(3) 1.0780(2)
H23 H -0.0098 0.7744 1.0752
H24 H -0.0266 0.6657 1.1397
H25 H -0.0299 0.6650 1.0278
C24 C 0.2295(4) 0.5222(2) 1.0561(2)
H26 H 0.1819 0.5020 1.0035
H27 H 0.1912 0.4871 1.1151
H28 H 0.3407 0.4966 1.0443
C25 C 0.4003(3) 0.7204(2) 0.97831(16)
C26 C 0.5070(3) 0.7532(2) 0.89941(16)
C27 C 0.4924(3) 0.7343(2) 0.80365(16)
H29 H 0.4142 0.6990 0.7906
C28 C 0.5908(3) 0.7666(2) 0.72880(17)
H30 H 0.5783 0.7532 0.6657
C29 C 0.7083(3) 0.8187(2) 0.74579(17)
C30 C 0.7242(3) 0.8376(3) 0.84031(18)
H31 H 0.8022 0.8734 0.8530
C31 C 0.6268(3) 0.8044(2) 0.91523(18)
H32 H 0.6413 0.8164 0.9783
loop_
_geom_bond_atom_site_label_1
_geom_bond_atom_site_label_2
_geom_bond_site_symmetry_1
_geom_bond_site_symmetry_2
P1 O1 1_555 1_555
N1 O3 1_555 1_555
N2 O2 1_555 1_555
O4 H1 1_555 1_555
C1 P1 1_555 1_555
C2 C1 1_555 1_555
H2 C2 1_555 1_555
C3 C2 1_555 1_555
H3 C3 1_555 1_555
C4 C3 1_555 1_555
H4 C4 1_555 1_555
C5 C4 1_555 1_555
H5 C5 1_555 1_555
C6 C1 1_555 1_555
H6 C6 1_555 1_555
C7 P1 1_555 1_555
C8 C7 1_555 1_555
H7 C8 1_555 1_555
C9 C8 1_555 1_555
H8 C9 1_555 1_555
C10 C9 1_555 1_555
H9 C10 1_555 1_555
C11 C10 1_555 1_555
H10 C11 1_555 1_555
C12 C7 1_555 1_555
H11 C12 1_555 1_555
C13 P1 1_555 1_555
C14 C13 1_555 1_555
H12 C14 1_555 1_555
C15 C14 1_555 1_555
H13 C15 1_555 1_555
C16 C15 1_555 1_555
H14 C16 1_555 1_555
C17 C16 1_555 1_555
H15 C17 1_555 1_555
C18 C13 1_555 1_555
H16 C18 1_555 1_555
C19 N1 1_555 1_555
C20 C19 1_555 1_555
H17 C20 1_555 1_555
H18 C20 1_555 1_555
H19 C20 1_555 1_555
C21 C19 1_555 1_555
H20 C21 1_555 1_555
H21 C21 1_555 1_555
H22 C21 1_555 1_555
C22 N2 1_555 1_555
C23 C22 1_555 1_555
H23 C23 1_555 1_555
H24 C23 1_555 1_555
H25 C23 1_555 1_555
C24 C22 1_555 1_555
H26 C24 1_555 1_555
H27 C24 1_555 1_555
H28 C24 1_555 1_555
C25 N1 1_555 1_555
C26 C25 1_555 1_555
C27 C26 1_555 1_555
H29 C27 1_555 1_555
C28 C27 1_555 1_555
H30 C28 1_555 1_555
C29 O4 1_555 1_555
C30 C29 1_555 1_555
H31 C30 1_555 1_555
C31 C26 1_555 1_555
H32 C31 1_555 1_555
N2 C25 1_555 1_555
C5 C6 1_555 1_555
C11 C12 1_555 1_555
C17 C18 1_555 1_555
C19 C22 1_555 1_555
C28 C29 1_555 1_555
C30 C31 1_555 1_555

#END
