
#######################################################################
#
#                 Cambridge Crystallographic Data Centre
#                                CCDC 
#
#######################################################################
#
# If this CIF has been generated from an entry in the Cambridge 
# Structural Database, then it will include bibliographic, chemical, 
# crystal, experimental, refinement or atomic coordinate data resulting 
# from the CCDC's data processing and validation procedures.
#
#######################################################################

data_PUFMIN
_chemical_formula_moiety         'C12 H9 N2 1+,C7 F5 O2 1-,2(C7 H1 F5 O2)'
_chemical_name_systematic        
'1,10-phenanthrolinium 2,3,4,5,6-pentafluorobenzoate 2,3,4,5,6-pentafluorobenzoic acid'
_symmetry_cell_setting           triclinic
_symmetry_space_group_name_H-M   'P -1'
_symmetry_Int_Tables_number      2
_space_group_name_Hall           '-P 1'
loop_
_symmetry_equiv_pos_site_id
_symmetry_equiv_pos_as_xyz
1 x,y,z
2 -x,-y,-z
_cell_length_a                   9.288(2)
_cell_length_b                   11.099(3)
_cell_length_c                   15.723(6)
_cell_angle_alpha                75.93(3)
_cell_angle_beta                 79.45(2)
_cell_angle_gamma                87.14(2)
_cell_volume                     1545.62
_exptl_crystal_colour            colorless
_exptl_crystal_description       block
_cell_formula_units_Z            2
loop_
_atom_site_label
_atom_site_type_symbol
_atom_site_fract_x
_atom_site_fract_y
_atom_site_fract_z
C1 C 0.4878(9) 0.2131(7) 0.3967(6)
H1 H 0.4624 0.1972 0.3460
C2 C 0.6122(9) 0.1593(7) 0.4257(6)
H2 H 0.6686 0.1063 0.3952
C3 C 0.6539(9) 0.1832(7) 0.4993(7)
H3 H 0.7385 0.1477 0.5187
C4 C 0.5663(7) 0.2620(6) 0.5443(5)
C5 C 0.4400(7) 0.3161(6) 0.5110(5)
C6 C 0.3436(8) 0.3972(6) 0.5566(5)
C7 C 0.5997(9) 0.2977(7) 0.6186(7)
H4 H 0.6849 0.2665 0.6394
C8 C 0.5155(9) 0.3739(8) 0.6606(6)
H5 H 0.5416 0.3937 0.7099
C9 C 0.3853(8) 0.4250(7) 0.6296(5)
C10 C 0.2887(10) 0.5029(7) 0.6736(6)
H6 H 0.3065 0.5211 0.7255
C11 C 0.1699(11) 0.5500(8) 0.6380(7)
H7 H 0.1080 0.6044 0.6642
C12 C 0.1388(8) 0.5189(7) 0.5633(7)
H8 H 0.0551 0.5521 0.5415
N1 N 0.4050(6) 0.2857(5) 0.4388(4)
H9 H 0.3259 0.3152 0.4203
N2 N 0.2233(6) 0.4436(5) 0.5217(4)
C13 C 0.1394(9) 0.1546(7) 0.3570(7)
C14 C 0.1375(8) 0.1115(6) 0.2753(5)
C15 C 0.2427(8) 0.0300(7) 0.2470(6)
C16 C 0.2420(8) -0.0126(7) 0.1718(6)
C17 C 0.1343(9) 0.0258(7) 0.1219(6)
C18 C 0.0268(8) 0.1056(7) 0.1491(5)
C19 C 0.0311(8) 0.1477(7) 0.2225(6)
F1 F 0.3534(5) -0.0062(4) 0.2915(4)
F2 F 0.3421(5) -0.0938(5) 0.1470(4)
F3 F 0.1284(5) -0.0194(4) 0.0509(4)
F4 F -0.0784(5) 0.1431(5) 0.0989(4)
F5 F -0.0761(5) 0.2232(4) 0.2477(3)
O1 O 0.1633(6) 0.2656(4) 0.3520(4)
O2 O 0.1327(8) 0.0702(6) 0.4259(5)
C20 C 0.3200(10) 0.4593(7) 0.1686(7)
C21 C 0.3384(8) 0.5419(7) 0.0810(6)
C22 C 0.2675(9) 0.5264(8) 0.0133(7)
C23 C 0.2855(12) 0.6078(11) -0.0694(8)
C24 C 0.3716(13) 0.7039(10) -0.0867(8)
C25 C 0.4436(11) 0.7280(10) -0.0227(8)
C26 C 0.4280(9) 0.6450(8) 0.0577(7)
F6 F 0.1787(6) 0.4264(5) 0.0310(4)
F7 F 0.2095(7) 0.5766(6) -0.1270(4)
F8 F 0.3868(7) 0.7807(6) -0.1671(5)
F9 F 0.5289(7) 0.8267(6) -0.0453(5)
F10 F 0.5005(6) 0.6728(4) 0.1161(4)
O3 O 0.1898(6) 0.4156(5) 0.2009(4)
H10 H 0.1870 0.3755 0.2524
O4 O 0.4205(6) 0.4356(5) 0.2115(4)
C27 C 0.0622(10) 0.1652(7) 0.6233(6)
C28 C 0.1027(8) 0.1805(6) 0.7065(5)
C29 C 0.0191(8) 0.2546(7) 0.7561(6)
C30 C 0.0509(9) 0.2739(8) 0.8310(7)
C31 C 0.1650(9) 0.2107(7) 0.8679(6)
C32 C 0.2517(8) 0.1351(7) 0.8192(5)
C33 C 0.2195(7) 0.1205(6) 0.7433(5)
F11 F -0.0973(5) 0.3169(5) 0.7283(4)
F12 F -0.0313(6) 0.3457(5) 0.8780(4)
F13 F 0.1964(5) 0.2264(5) 0.9440(4)
F14 F 0.3613(6) 0.0731(5) 0.8556(4)
F15 F 0.3053(5) 0.0431(5) 0.7037(4)
O5 O 0.1662(6) 0.1127(6) 0.5748(4)
H11 H 0.1327 0.0928 0.5354
O6 O -0.0504(7) 0.2012(6) 0.5975(5)
loop_
_geom_bond_atom_site_label_1
_geom_bond_atom_site_label_2
_geom_bond_site_symmetry_1
_geom_bond_site_symmetry_2
C1 H1 1_555 1_555
C2 C1 1_555 1_555
H2 C2 1_555 1_555
C3 C2 1_555 1_555
H3 C3 1_555 1_555
C4 C3 1_555 1_555
C5 C4 1_555 1_555
C6 C5 1_555 1_555
C7 C4 1_555 1_555
H4 C7 1_555 1_555
C8 C7 1_555 1_555
H5 C8 1_555 1_555
C9 C6 1_555 1_555
C10 C9 1_555 1_555
H6 C10 1_555 1_555
C11 C10 1_555 1_555
H7 C11 1_555 1_555
C12 C11 1_555 1_555
H8 C12 1_555 1_555
C13 C14 1_555 1_555
C14 C15 1_555 1_555
C15 C16 1_555 1_555
C16 C17 1_555 1_555
C17 C18 1_555 1_555
C18 C19 1_555 1_555
C19 C14 1_555 1_555
C20 C21 1_555 1_555
C21 C22 1_555 1_555
C22 C23 1_555 1_555
C23 C24 1_555 1_555
C24 C25 1_555 1_555
C25 C26 1_555 1_555
C26 C21 1_555 1_555
C27 C28 1_555 1_555
C28 C29 1_555 1_555
C29 C30 1_555 1_555
C30 C31 1_555 1_555
C31 C32 1_555 1_555
C32 C33 1_555 1_555
C33 C28 1_555 1_555
F1 C15 1_555 1_555
F2 C16 1_555 1_555
F3 C17 1_555 1_555
F4 C18 1_555 1_555
F5 C19 1_555 1_555
F6 C22 1_555 1_555
F7 C23 1_555 1_555
F8 C24 1_555 1_555
F9 C25 1_555 1_555
F10 C26 1_555 1_555
F11 C29 1_555 1_555
F12 C30 1_555 1_555
F13 C31 1_555 1_555
F14 C32 1_555 1_555
F15 C33 1_555 1_555
N1 C1 1_555 1_555
H9 N1 1_555 1_555
N2 C6 1_555 1_555
O1 C13 1_555 1_555
O2 C13 1_555 1_555
O3 C20 1_555 1_555
H10 O3 1_555 1_555
O4 C20 1_555 1_555
O5 C27 1_555 1_555
H11 O5 1_555 1_555
O6 C27 1_555 1_555
C5 N1 1_555 1_555
C8 C9 1_555 1_555
C12 N2 1_555 1_555

#END
