
#######################################################################
#
#                 Cambridge Crystallographic Data Centre
#                                CCDC 
#
#######################################################################
#
# If this CIF has been generated from an entry in the Cambridge 
# Structural Database, then it will include bibliographic, chemical, 
# crystal, experimental, refinement or atomic coordinate data resulting 
# from the CCDC's data processing and validation procedures.
#
#######################################################################

data_PUFMUZ
_chemical_name_common            
2,6-diethyl-N-(2-((4-methoxyphenyl)amino)benzylidene)aniline
_chemical_formula_moiety         'C24 H26 N2 O1'
_chemical_name_systematic        
2-[(2,6-Diethylphenyl)iminomethyl]-N-(4-methoxyphenyl)aniline
_symmetry_cell_setting           monoclinic
_symmetry_space_group_name_H-M   'P 21/c'
_symmetry_Int_Tables_number      14
_space_group_name_Hall           '-P 2ybc'
loop_
_symmetry_equiv_pos_site_id
_symmetry_equiv_pos_as_xyz
1 x,y,z
2 -x,1/2+y,1/2-z
3 -x,-y,-z
4 x,1/2-y,1/2+z
_cell_length_a                   12.930(3)
_cell_length_b                   7.4757(15)
_cell_length_c                   21.303(4)
_cell_angle_alpha                90
_cell_angle_beta                 97.88(3)
_cell_angle_gamma                90
_cell_volume                     2039.72
_exptl_crystal_colour            yellow
_exptl_crystal_description       block
_cell_formula_units_Z            4
loop_
_atom_site_label
_atom_site_type_symbol
_atom_site_fract_x
_atom_site_fract_y
_atom_site_fract_z
O1 O 0.52847(8) 1.56960(13) 0.17089(5)
N1 N 0.28321(8) 0.98441(15) 0.08469(5)
N2 N 0.12969(8) 0.75355(13) 0.10555(5)
C1 C 0.28918(8) 0.88995(15) 0.03007(5)
C2 C 0.22193(8) 0.74272(15) 0.01420(5)
C3 C 0.22900(9) 0.64858(17) -0.04164(6)
H1 H 0.1840 0.5530 -0.0523
C4 C 0.30038(10) 0.69250(19) -0.08147(6)
H2 H 0.3037 0.6282 -0.1185
C5 C 0.36708(10) 0.83456(19) -0.06505(6)
H3 H 0.4164 0.8647 -0.0912
C6 C 0.36198(9) 0.93198(17) -0.01092(6)
H4 H 0.4075 1.0274 -0.0012
C7 C 0.14318(9) 0.68530(16) 0.05253(5)
H5 H 0.0994 0.5918 0.0372
C8 C 0.04576(9) 0.68824(16) 0.13614(5)
C9 C 0.06378(10) 0.54991(16) 0.18027(6)
C10 C -0.01957(12) 0.49231(18) 0.21017(7)
H6 H -0.0096 0.3997 0.2395
C11 C -0.11638(12) 0.5703(2) 0.19697(7)
H7 H -0.1714 0.5293 0.2170
C12 C -0.13204(10) 0.7088(2) 0.15432(7)
H8 H -0.1978 0.7610 0.1461
C13 C -0.05162(9) 0.77272(17) 0.12316(6)
C14 C 0.17116(13) 0.4706(2) 0.19727(7)
H9 H 0.2026 0.4539 0.1589
H10 H 0.1649 0.3540 0.2164
C15 C 0.24158(13) 0.5868(3) 0.24255(9)
H11 H 0.2506 0.7006 0.2231
H12 H 0.3082 0.5296 0.2528
H13 H 0.2107 0.6041 0.2806
C16 C -0.06704(11) 0.9317(2) 0.07983(7)
H14 H -0.1412 0.9560 0.0700
H15 H -0.0408 0.9033 0.0405
C17 C -0.01226(13) 1.0986(2) 0.10827(9)
H16 H -0.0415 1.1328 0.1455
H17 H -0.0215 1.1940 0.0779
H18 H 0.0609 1.0744 0.1194
C18 C 0.34258(9) 1.13770(16) 0.10489(6)
C19 C 0.39696(10) 1.14282(17) 0.16584(6)
H19 H 0.3931 1.0463 0.1929
C20 C 0.45650(10) 1.28936(18) 0.18645(6)
H20 H 0.4920 1.2915 0.2275
C21 C 0.46397(9) 1.43359(17) 0.14663(6)
C22 C 0.40796(10) 1.43273(17) 0.08638(6)
H21 H 0.4112 1.5299 0.0595
C23 C 0.34714(9) 1.28581(17) 0.06663(6)
H22 H 0.3083 1.2867 0.0265
C24 C 0.54257(13) 1.7158(2) 0.13088(9)
H23 H 0.5698 1.6736 0.0938
H24 H 0.5908 1.7992 0.1531
H25 H 0.4767 1.7739 0.1185
H26 H 0.2406(11) 0.937(2) 0.1104(7)
loop_
_geom_bond_atom_site_label_1
_geom_bond_atom_site_label_2
_geom_bond_site_symmetry_1
_geom_bond_site_symmetry_2
O1 C21 1_555 1_555
N1 C1 1_555 1_555
N2 C7 1_555 1_555
C1 C2 1_555 1_555
C2 C3 1_555 1_555
C3 H1 1_555 1_555
C4 C3 1_555 1_555
H2 C4 1_555 1_555
C5 C4 1_555 1_555
H3 C5 1_555 1_555
C6 C1 1_555 1_555
H4 C6 1_555 1_555
C7 C2 1_555 1_555
H5 C7 1_555 1_555
C8 N2 1_555 1_555
C9 C8 1_555 1_555
C10 C9 1_555 1_555
H6 C10 1_555 1_555
C11 C10 1_555 1_555
H7 C11 1_555 1_555
C12 C11 1_555 1_555
H8 C12 1_555 1_555
C13 C8 1_555 1_555
C14 C9 1_555 1_555
H9 C14 1_555 1_555
H10 C14 1_555 1_555
C15 C14 1_555 1_555
H11 C15 1_555 1_555
H12 C15 1_555 1_555
H13 C15 1_555 1_555
C16 C13 1_555 1_555
H14 C16 1_555 1_555
H15 C16 1_555 1_555
C17 C16 1_555 1_555
H16 C17 1_555 1_555
H17 C17 1_555 1_555
H18 C17 1_555 1_555
C18 N1 1_555 1_555
C19 C18 1_555 1_555
H19 C19 1_555 1_555
C20 C19 1_555 1_555
H20 C20 1_555 1_555
C21 C20 1_555 1_555
C22 C21 1_555 1_555
H21 C22 1_555 1_555
C23 C18 1_555 1_555
H22 C23 1_555 1_555
C24 O1 1_555 1_555
H23 C24 1_555 1_555
H24 C24 1_555 1_555
H25 C24 1_555 1_555
H26 N1 1_555 1_555
C5 C6 1_555 1_555
C12 C13 1_555 1_555
C22 C23 1_555 1_555

#END
