
#######################################################################
#
#                 Cambridge Crystallographic Data Centre
#                                CCDC 
#
#######################################################################
#
# If this CIF has been generated from an entry in the Cambridge 
# Structural Database, then it will include bibliographic, chemical, 
# crystal, experimental, refinement or atomic coordinate data resulting 
# from the CCDC's data processing and validation procedures.
#
#######################################################################

data_PUFNIP
_chemical_formula_moiety         'C48 H57 Li3 N6 O3,C6 H14'
_chemical_name_systematic        
'tris(\m-1,2-diphenylhydrazinyl)-tris(tetrahydrofuran)-tri-lithium hexane solvate'
_symmetry_cell_setting           triclinic
_symmetry_space_group_name_H-M   'P -1'
_symmetry_Int_Tables_number      2
_space_group_name_Hall           '-P 1'
loop_
_symmetry_equiv_pos_site_id
_symmetry_equiv_pos_as_xyz
1 x,y,z
2 -x,-y,-z
_cell_length_a                   13.6356(6)
_cell_length_b                   13.6874(4)
_cell_length_c                   14.4188(4)
_cell_angle_alpha                90.008(3)
_cell_angle_beta                 109.937(3)
_cell_angle_gamma                92.581(3)
_cell_volume                     2526.87
_cell_formula_units_Z            2
loop_
_atom_site_label
_atom_site_type_symbol
_atom_site_fract_x
_atom_site_fract_y
_atom_site_fract_z
O1 O 0.74210(9) 0.56897(8) 0.48809(8)
O2 O 0.58807(10) 0.78769(8) 0.08150(8)
O3 O 0.68250(10) 1.00476(8) 0.44765(9)
N1 N 0.65109(11) 0.60277(9) 0.25555(10)
N2 N 0.57016(11) 0.55431(10) 0.28398(11)
N3 N 0.76281(11) 0.82930(9) 0.31686(10)
N4 N 0.82443(11) 0.75386(10) 0.37650(11)
N5 N 0.57662(11) 0.77352(10) 0.38563(10)
N6 N 0.51306(11) 0.75886(10) 0.28282(10)
C1 C 0.71182(13) 0.53868(12) 0.22803(12)
C2 C 0.79707(14) 0.57771(13) 0.20224(12)
H1 H 0.8075 0.6467 0.2004
C3 C 0.86518(14) 0.51853(14) 0.17975(13)
H2 H 0.9224 0.5474 0.1644
C4 C 0.85163(15) 0.41764(14) 0.17913(13)
H3 H 0.8996 0.3770 0.1650
C5 C 0.76636(15) 0.37750(13) 0.19954(13)
H4 H 0.7546 0.3085 0.1970
C6 C 0.69781(14) 0.43574(12) 0.22364(12)
H5 H 0.6402 0.4058 0.2375
C7 C 0.47629(13) 0.52063(11) 0.21318(12)
C8 C 0.44916(14) 0.54405(12) 0.11375(13)
H6 H 0.4978 0.5796 0.0910
C9 C 0.35130(14) 0.51548(12) 0.04797(13)
H7 H 0.3332 0.5322 -0.0196
C10 C 0.27954(14) 0.46298(13) 0.07937(13)
H8 H 0.2123 0.4441 0.0341
C11 C 0.30755(14) 0.43840(13) 0.17807(13)
H9 H 0.2595 0.4011 0.2001
C12 C 0.40406(14) 0.46724(12) 0.24462(13)
H10 H 0.4215 0.4507 0.3121
C13 C 0.81378(14) 0.88267(12) 0.26324(12)
C14 C 0.75886(15) 0.95988(12) 0.20646(13)
H11 H 0.6922 0.9737 0.2090
C15 C 0.79961(17) 1.01540(13) 0.14769(14)
H12 H 0.7605 1.0664 0.1101
C16 C 0.89681(17) 0.99818(14) 0.14252(14)
H13 H 0.9246 1.0367 0.1016
C17 C 0.95265(16) 0.92399(14) 0.19794(14)
H14 H 1.0197 0.9118 0.1953
C18 C 0.91249(14) 0.86655(12) 0.25781(13)
H15 H 0.9525 0.8160 0.2953
C19 C 0.90965(13) 0.78021(11) 0.46327(12)
C20 C 0.91427(14) 0.86481(12) 0.51778(13)
H16 H 0.8634 0.9122 0.4930
C21 C 0.99291(15) 0.88052(13) 0.60837(13)
H17 H 0.9952 0.9386 0.6453
C22 C 1.06794(14) 0.81254(12) 0.64549(13)
H18 H 1.1202 0.8225 0.7085
C23 C 1.06591(14) 0.72981(12) 0.58959(13)
H19 H 1.1182 0.6835 0.6136
C24 C 0.98813(14) 0.71415(12) 0.49881(13)
H20 H 0.9883 0.6578 0.4604
C25 C 0.52254(13) 0.75312(11) 0.44963(12)
C26 C 0.57664(15) 0.77175(12) 0.55115(13)
H21 H 0.6465 0.7981 0.5716
C27 C 0.53047(17) 0.75264(13) 0.62141(14)
H22 H 0.5689 0.7659 0.6891
C28 C 0.42829(17) 0.71421(13) 0.59378(16)
H23 H 0.3963 0.7012 0.6419
C29 C 0.37419(16) 0.69542(12) 0.49492(15)
H24 H 0.3044 0.6689 0.4754
C30 C 0.41928(14) 0.71438(12) 0.42362(14)
H25 H 0.3799 0.7010 0.3562
C31 C 0.43626(13) 0.82661(12) 0.23716(12)
C32 C 0.44577(14) 0.92388(12) 0.26801(13)
H26 H 0.5007 0.9452 0.3262
C33 C 0.37494(15) 0.98986(13) 0.21370(14)
H27 H 0.3828 1.0565 0.2346
C34 C 0.29328(15) 0.96052(14) 0.12975(14)
H28 H 0.2455 1.0064 0.0928
C35 C 0.28222(15) 0.86336(13) 0.10035(14)
H29 H 0.2257 0.8421 0.0433
C36 C 0.35284(14) 0.79650(13) 0.15328(13)
H30 H 0.3443 0.7299 0.1323
C37 C 0.82239(14) 0.50630(12) 0.48214(13)
H31 H 0.8576 0.5346 0.4379
H32 H 0.7917 0.4407 0.4562
C38 C 0.90026(15) 0.49920(13) 0.58753(13)
H33 H 0.8995 0.4318 0.6124
H34 H 0.9720 0.5185 0.5902
C39 C 0.86195(15) 0.57049(14) 0.64749(13)
H35 H 0.8752 0.5473 0.7155
H36 H 0.8954 0.6366 0.6501
C40 C 0.74684(15) 0.56974(13) 0.58971(13)
H37 H 0.7101 0.5108 0.6041
H38 H 0.7154 0.6287 0.6051
C41 C 0.52926(16) 0.86637(15) 0.02659(14)
H39 H 0.5758 0.9240 0.0266
H40 H 0.4760 0.8860 0.0546
C42 C 0.47879(19) 0.82437(17) -0.07555(16)
H41 H 0.4648 0.8764 -0.1255
H42 H 0.4125 0.7877 -0.0821
C43 C 0.5600(2) 0.75635(18) -0.08639(16)
H43 H 0.5268 0.6925 -0.1156
H44 H 0.5970 0.7858 -0.1287
C44 C 0.63456(18) 0.74422(15) 0.01770(14)
H45 H 0.6449 0.6740 0.0325
H46 H 0.7032 0.7773 0.0261
C45 C 0.65301(15) 1.03318(13) 0.53048(14)
H47 H 0.6219 0.9766 0.5552
H48 H 0.6022 1.0854 0.5121
C46 C 0.75471(15) 1.07001(14) 0.60707(14)
H49 H 0.7921 1.0156 0.6470
H50 H 0.7424 1.1194 0.6515
C47 C 0.81648(15) 1.11563(13) 0.54518(14)
H51 H 0.8205 1.1879 0.5511
H52 H 0.8882 1.0919 0.5665
C48 C 0.75481(14) 1.08217(12) 0.43952(14)
H53 H 0.7166 1.1369 0.4008
H54 H 0.8021 1.0576 0.4067
Li1 Li 0.6926(2) 0.6723(2) 0.3919(2)
Li2 Li 0.6299(2) 0.7472(2) 0.2172(2)
Li3 Li 0.6757(2) 0.8807(2) 0.3875(2)
H55 H 0.5925(15) 0.5165(13) 0.3350(14)
H56 H 0.8438(16) 0.7106(14) 0.3402(15)
H57 H 0.4865(14) 0.6978(13) 0.2711(13)
C49 C -0.13740(18) 0.33838(16) -0.19539(16)
H58 H -0.0837 0.3483 -0.2260
H59 H -0.1887 0.3889 -0.2177
H60 H -0.1725 0.2737 -0.2144
C50 C -0.08667(16) 0.34507(14) -0.08386(15)
H61 H -0.0526 0.4110 -0.0650
H62 H -0.1415 0.3366 -0.0534
C51 C -0.00623(16) 0.26895(14) -0.04360(14)
H63 H 0.0517 0.2820 -0.0693
H64 H -0.0388 0.2038 -0.0692
C52 C 0.03902(15) 0.26518(13) 0.06815(14)
H65 H -0.0182 0.2488 0.0940
H66 H 0.0691 0.3309 0.0943
C53 C 0.12295(16) 0.19130(14) 0.10610(15)
H67 H 0.0948 0.1267 0.0752
H68 H 0.1829 0.2111 0.0852
C54 C 0.16147(17) 0.18116(15) 0.21684(15)
H69 H 0.2142 0.1317 0.2360
H70 H 0.1028 0.1612 0.2383
H71 H 0.1925 0.2441 0.2481
loop_
_geom_bond_atom_site_label_1
_geom_bond_atom_site_label_2
_geom_bond_site_symmetry_1
_geom_bond_site_symmetry_2
O1 C37 1_555 1_555
O2 C41 1_555 1_555
O3 C45 1_555 1_555
N1 N2 1_555 1_555
N2 C7 1_555 1_555
N3 N4 1_555 1_555
N4 C19 1_555 1_555
N5 N6 1_555 1_555
N6 C31 1_555 1_555
C1 N1 1_555 1_555
C2 C1 1_555 1_555
H1 C2 1_555 1_555
C3 C2 1_555 1_555
H2 C3 1_555 1_555
C4 C3 1_555 1_555
H3 C4 1_555 1_555
C5 C4 1_555 1_555
H4 C5 1_555 1_555
C6 C1 1_555 1_555
H5 C6 1_555 1_555
C7 C8 1_555 1_555
C8 H6 1_555 1_555
C9 C8 1_555 1_555
H7 C9 1_555 1_555
C10 C9 1_555 1_555
H8 C10 1_555 1_555
C11 C10 1_555 1_555
H9 C11 1_555 1_555
C12 C7 1_555 1_555
H10 C12 1_555 1_555
C13 N3 1_555 1_555
C14 C13 1_555 1_555
H11 C14 1_555 1_555
C15 C14 1_555 1_555
H12 C15 1_555 1_555
C16 C15 1_555 1_555
H13 C16 1_555 1_555
C17 C16 1_555 1_555
H14 C17 1_555 1_555
C18 C13 1_555 1_555
H15 C18 1_555 1_555
C19 C20 1_555 1_555
C20 H16 1_555 1_555
C21 C20 1_555 1_555
H17 C21 1_555 1_555
C22 C21 1_555 1_555
H18 C22 1_555 1_555
C23 C22 1_555 1_555
H19 C23 1_555 1_555
C24 C19 1_555 1_555
H20 C24 1_555 1_555
C25 N5 1_555 1_555
C26 C25 1_555 1_555
H21 C26 1_555 1_555
C27 C26 1_555 1_555
H22 C27 1_555 1_555
C28 C27 1_555 1_555
H23 C28 1_555 1_555
C29 C28 1_555 1_555
H24 C29 1_555 1_555
C30 C25 1_555 1_555
H25 C30 1_555 1_555
C31 C32 1_555 1_555
C32 H26 1_555 1_555
C33 C32 1_555 1_555
H27 C33 1_555 1_555
C34 C33 1_555 1_555
H28 C34 1_555 1_555
C35 C34 1_555 1_555
H29 C35 1_555 1_555
C36 C31 1_555 1_555
H30 C36 1_555 1_555
C37 H31 1_555 1_555
H32 C37 1_555 1_555
C38 C37 1_555 1_555
H33 C38 1_555 1_555
H34 C38 1_555 1_555
C39 C38 1_555 1_555
H35 C39 1_555 1_555
H36 C39 1_555 1_555
C40 O1 1_555 1_555
H37 C40 1_555 1_555
H38 C40 1_555 1_555
C41 H39 1_555 1_555
H40 C41 1_555 1_555
C42 C41 1_555 1_555
H41 C42 1_555 1_555
H42 C42 1_555 1_555
C43 C42 1_555 1_555
H43 C43 1_555 1_555
H44 C43 1_555 1_555
C44 O2 1_555 1_555
H45 C44 1_555 1_555
H46 C44 1_555 1_555
C45 H47 1_555 1_555
H48 C45 1_555 1_555
C46 C45 1_555 1_555
H49 C46 1_555 1_555
H50 C46 1_555 1_555
C47 C46 1_555 1_555
H51 C47 1_555 1_555
H52 C47 1_555 1_555
C48 O3 1_555 1_555
H53 C48 1_555 1_555
H54 C48 1_555 1_555
Li1 O1 1_555 1_555
Li2 O2 1_555 1_555
Li3 O3 1_555 1_555
H55 N2 1_555 1_555
H56 N4 1_555 1_555
H57 N6 1_555 1_555
C49 H58 1_555 1_555
H59 C49 1_555 1_555
H60 C49 1_555 1_555
C50 C49 1_555 1_555
H61 C50 1_555 1_555
H62 C50 1_555 1_555
C51 C50 1_555 1_555
H63 C51 1_555 1_555
H64 C51 1_555 1_555
C52 C51 1_555 1_555
H65 C52 1_555 1_555
H66 C52 1_555 1_555
C53 C52 1_555 1_555
H67 C53 1_555 1_555
H68 C53 1_555 1_555
C54 C53 1_555 1_555
H69 C54 1_555 1_555
H70 C54 1_555 1_555
H71 C54 1_555 1_555
N1 Li1 1_555 1_555
N1 Li2 1_555 1_555
N3 Li2 1_555 1_555
N3 Li3 1_555 1_555
N4 Li1 1_555 1_555
N5 Li1 1_555 1_555
N5 Li3 1_555 1_555
N6 Li2 1_555 1_555
C5 C6 1_555 1_555
C11 C12 1_555 1_555
C17 C18 1_555 1_555
C23 C24 1_555 1_555
C29 C30 1_555 1_555
C35 C36 1_555 1_555
C39 C40 1_555 1_555
C43 C44 1_555 1_555
C47 C48 1_555 1_555

#END
