
#######################################################################
#
#                 Cambridge Crystallographic Data Centre
#                                CCDC 
#
#######################################################################
#
# If this CIF has been generated from an entry in the Cambridge 
# Structural Database, then it will include bibliographic, chemical, 
# crystal, experimental, refinement or atomic coordinate data resulting 
# from the CCDC's data processing and validation procedures.
#
#######################################################################

data_PUFPAJ
_chemical_name_common            
'(E)-methyl 3-(N-benzyl-4-methylphenylsulfonamido)acrylate'
_chemical_formula_moiety         'C18 H19 N1 O4 S1'
_chemical_name_systematic        
'(E)-methyl 3-(benzyl((4-methylphenyl)sulfonyl)amino)acrylate'
_symmetry_cell_setting           monoclinic
_symmetry_space_group_name_H-M   'P 21/n'
_symmetry_Int_Tables_number      14
_space_group_name_Hall           '-P 2yn'
loop_
_symmetry_equiv_pos_site_id
_symmetry_equiv_pos_as_xyz
1 x,y,z
2 1/2-x,1/2+y,1/2-z
3 -x,-y,-z
4 1/2+x,1/2-y,1/2+z
_cell_length_a                   9.167(6)
_cell_length_b                   20.155(14)
_cell_length_c                   10.011(7)
_cell_angle_alpha                90
_cell_angle_beta                 105.418(16)
_cell_angle_gamma                90
_cell_volume                     1783.08
_exptl_crystal_colour            colorless
_cell_formula_units_Z            4
_exptl_crystal_recrystallization_method 'ethyl acetate/petroleum ether'
loop_
_atom_site_label
_atom_site_type_symbol
_atom_site_fract_x
_atom_site_fract_y
_atom_site_fract_z
C1 C 0.9205(3) 0.26564(11) -0.0837(2)
H1 H 0.9517 0.2523 -0.1650
H2 H 1.0113 0.2725 -0.0089
C2 C 0.8075(3) 0.21105(12) 0.0848(3)
H3 H 0.7572 0.1744 0.1075
C3 C 0.8492(3) 0.25788(13) 0.1800(3)
H4 H 0.8953 0.2963 0.1598
C4 C 0.8232(3) 0.24951(15) 0.3160(3)
C5 C 0.8765(4) 0.29841(16) 0.5385(3)
H5 H 0.7740 0.2894 0.5393
H6 H 0.9069 0.3407 0.5810
H7 H 0.9417 0.2644 0.5891
C6 C 0.8360(3) 0.33051(12) -0.1140(2)
C7 C 0.9175(4) 0.38769(14) -0.1088(3)
H8 H 1.0227 0.3861 -0.0847
C8 C 0.8439(5) 0.44788(16) -0.1392(4)
H9 H 0.8994 0.4867 -0.1363
C9 C 0.6886(5) 0.45032(15) -0.1736(3)
H10 H 0.6390 0.4908 -0.1936
C10 C 0.6077(4) 0.39377(15) -0.1784(3)
H11 H 0.5026 0.3954 -0.2017
C11 C 0.6814(3) 0.33366(12) -0.1487(3)
H12 H 0.6254 0.2949 -0.1523
C12 C 0.9475(3) 0.11525(11) -0.1709(3)
C13 C 0.9866(3) 0.11874(13) -0.2939(3)
H13 H 0.9262 0.1419 -0.3687
C14 C 1.1165(4) 0.08749(15) -0.3052(3)
H14 H 1.1436 0.0902 -0.3882
C15 C 1.2077(3) 0.05209(15) -0.1958(4)
C16 C 1.1655(3) 0.04939(14) -0.0750(3)
H15 H 1.2253 0.0260 -0.0003
C17 C 1.0375(3) 0.08018(13) -0.0609(3)
H16 H 1.0111 0.0775 0.0224
C18 C 1.3487(4) 0.01794(19) -0.2106(4)
H17 H 1.3805 -0.0145 -0.1385
H18 H 1.4275 0.0501 -0.2037
H19 H 1.3279 -0.0036 -0.2993
N1 N 0.8325(2) 0.21190(9) -0.0452(2)
O1 O 0.8871(2) 0.29950(9) 0.39873(18)
O2 O 0.7023(2) 0.10385(8) -0.0891(2)
O3 O 0.7031(2) 0.17793(9) -0.28606(18)
O4 O 0.7581(3) 0.20471(11) 0.3532(2)
S1 S 0.77827(8) 0.14998(3) -0.15527(7)
loop_
_geom_bond_atom_site_label_1
_geom_bond_atom_site_label_2
_geom_bond_site_symmetry_1
_geom_bond_site_symmetry_2
C1 H1 1_555 1_555
H2 C1 1_555 1_555
C2 H3 1_555 1_555
C3 C2 1_555 1_555
H4 C3 1_555 1_555
C4 C3 1_555 1_555
C5 H5 1_555 1_555
H6 C5 1_555 1_555
H7 C5 1_555 1_555
C6 C1 1_555 1_555
C7 C6 1_555 1_555
H8 C7 1_555 1_555
C8 C7 1_555 1_555
H9 C8 1_555 1_555
C9 C8 1_555 1_555
H10 C9 1_555 1_555
C10 C9 1_555 1_555
H11 C10 1_555 1_555
C11 C6 1_555 1_555
H12 C11 1_555 1_555
C12 C13 1_555 1_555
C13 H13 1_555 1_555
C14 C13 1_555 1_555
H14 C14 1_555 1_555
C15 C14 1_555 1_555
C16 C15 1_555 1_555
H15 C16 1_555 1_555
C17 C12 1_555 1_555
H16 C17 1_555 1_555
C18 C15 1_555 1_555
H17 C18 1_555 1_555
H18 C18 1_555 1_555
H19 C18 1_555 1_555
N1 C1 1_555 1_555
O1 C4 1_555 1_555
O2 S1 1_555 1_555
O3 S1 1_555 1_555
O4 C4 1_555 1_555
S1 C12 1_555 1_555
C2 N1 1_555 1_555
C5 O1 1_555 1_555
C10 C11 1_555 1_555
C16 C17 1_555 1_555
N1 S1 1_555 1_555

#END
