
#######################################################################
#
#                 Cambridge Crystallographic Data Centre
#                                CCDC 
#
#######################################################################
#
# If this CIF has been generated from an entry in the Cambridge 
# Structural Database, then it will include bibliographic, chemical, 
# crystal, experimental, refinement or atomic coordinate data resulting 
# from the CCDC's data processing and validation procedures.
#
#######################################################################

data_PUFPEM
_chemical_formula_moiety         'C24 H18 N4 O2'
_chemical_name_systematic        
2,9-bis(pyridin-4-ylmethoxy)-1,10-phenanthroline
_symmetry_cell_setting           monoclinic
_symmetry_space_group_name_H-M   'P 21/c'
_symmetry_Int_Tables_number      14
_space_group_name_Hall           '-P 2ybc'
loop_
_symmetry_equiv_pos_site_id
_symmetry_equiv_pos_as_xyz
1 x,y,z
2 -x,1/2+y,1/2-z
3 -x,-y,-z
4 x,1/2-y,1/2+z
_cell_length_a                   12.701(2)
_cell_length_b                   16.418(3)
_cell_length_c                   9.7443(16)
_cell_angle_alpha                90
_cell_angle_beta                 107.535(2)
_cell_angle_gamma                90
_cell_volume                     1937.51
_exptl_crystal_colour            yellow
_exptl_crystal_description       block
_cell_formula_units_Z            4
loop_
_atom_site_label
_atom_site_type_symbol
_atom_site_fract_x
_atom_site_fract_y
_atom_site_fract_z
C1 C 0.50194(13) 0.23897(10) 0.53260(16)
C2 C 0.61170(14) 0.25413(11) 0.53679(18)
H1 H 0.6488 0.3003 0.5819
C3 C 0.66137(14) 0.19987(12) 0.47360(18)
H2 H 0.7339 0.2085 0.4743
C4 C 0.60421(12) 0.12976(10) 0.40609(16)
C5 C 0.49508(11) 0.12005(9) 0.40882(14)
C6 C 0.65165(13) 0.07031(12) 0.33719(18)
H3 H 0.7239 0.0769 0.3353
C7 C 0.59392(14) 0.00485(12) 0.27477(19)
H4 H 0.6268 -0.0333 0.2301
C8 C 0.43337(11) 0.04990(9) 0.34246(15)
C9 C 0.48333(12) -0.00739(10) 0.27554(16)
C10 C 0.42012(14) -0.07576(11) 0.21217(17)
H5 H 0.4501 -0.1146 0.1653
C11 C 0.31631(14) -0.08512(10) 0.21916(17)
H6 H 0.2737 -0.1300 0.1780
C12 C 0.27507(12) -0.02471(10) 0.29082(16)
C13 C 0.12405(13) 0.01882(12) 0.37343(18)
H7 H 0.1829 0.0488 0.4413
H8 H 0.0830 -0.0100 0.4276
C14 C 0.04897(11) 0.07741(10) 0.27374(18)
C15 C 0.03967(13) 0.08218(11) 0.12927(18)
H9 H 0.0832 0.0492 0.0906
C16 C -0.03412(15) 0.13578(12) 0.0426(2)
H10 H -0.0389 0.1373 -0.0545
C17 C -0.01738(13) 0.12956(12) 0.3232(2)
H11 H -0.0141 0.1296 0.4199
C18 C -0.08782(15) 0.18100(14) 0.2280(3)
H12 H -0.1313 0.2155 0.2639
C19 C 0.26496(12) 0.31914(10) 0.46362(16)
C20 C 0.13577(17) 0.31235(18) 0.2316(2)
H13 H 0.0968 0.2803 0.1542
C21 C 0.20466(15) 0.27345(13) 0.34918(19)
H14 H 0.2103 0.2170 0.3512
C22 C 0.17931(16) 0.43588(14) 0.3319(2)
H15 H 0.1710 0.4922 0.3281
C23 C 0.25156(14) 0.40236(12) 0.4528(2)
H16 H 0.2914 0.4358 0.5275
C24 C 0.34284(14) 0.28164(11) 0.59467(17)
H17 H 0.3305 0.3051 0.6799
H18 H 0.3288 0.2236 0.5950
N1 N -0.09879(13) 0.18537(11) 0.0876(2)
N2 N 0.12073(13) 0.39253(15) 0.2202(2)
N3 N 0.44458(9) 0.17568(8) 0.47191(12)
N4 N 0.32756(9) 0.04086(7) 0.34768(12)
O1 O 0.17152(8) -0.03913(7) 0.29945(12)
O2 O 0.45550(9) 0.29496(7) 0.59879(12)
loop_
_geom_bond_atom_site_label_1
_geom_bond_atom_site_label_2
_geom_bond_site_symmetry_1
_geom_bond_site_symmetry_2
C1 C2 1_555 1_555
C2 H1 1_555 1_555
C3 C2 1_555 1_555
H2 C3 1_555 1_555
C4 C3 1_555 1_555
C5 C4 1_555 1_555
C6 C4 1_555 1_555
H3 C6 1_555 1_555
C7 C6 1_555 1_555
H4 C7 1_555 1_555
C8 C5 1_555 1_555
C9 C7 1_555 1_555
C10 C9 1_555 1_555
H5 C10 1_555 1_555
C11 C10 1_555 1_555
H6 C11 1_555 1_555
C12 C11 1_555 1_555
C13 H7 1_555 1_555
H8 C13 1_555 1_555
C14 C13 1_555 1_555
C15 C14 1_555 1_555
H9 C15 1_555 1_555
C16 C15 1_555 1_555
H10 C16 1_555 1_555
C17 C14 1_555 1_555
H11 C17 1_555 1_555
C18 C17 1_555 1_555
H12 C18 1_555 1_555
C19 C21 1_555 1_555
C20 H13 1_555 1_555
C21 C20 1_555 1_555
H14 C21 1_555 1_555
C22 H15 1_555 1_555
C23 C19 1_555 1_555
H16 C23 1_555 1_555
C24 C19 1_555 1_555
H17 C24 1_555 1_555
H18 C24 1_555 1_555
N1 C16 1_555 1_555
N2 C20 1_555 1_555
N3 C1 1_555 1_555
N4 C8 1_555 1_555
O1 C12 1_555 1_555
O2 C1 1_555 1_555
C5 N3 1_555 1_555
C8 C9 1_555 1_555
C12 N4 1_555 1_555
C13 O1 1_555 1_555
C18 N1 1_555 1_555
C22 C23 1_555 1_555
C22 N2 1_555 1_555
C24 O2 1_555 1_555

#END
