
#######################################################################
#
#                 Cambridge Crystallographic Data Centre
#                                CCDC 
#
#######################################################################
#
# If this CIF has been generated from an entry in the Cambridge 
# Structural Database, then it will include bibliographic, chemical, 
# crystal, experimental, refinement or atomic coordinate data resulting 
# from the CCDC's data processing and validation procedures.
#
#######################################################################

data_PUFROY
_chemical_formula_moiety         
'C24 H24 Ba1 N4 O4 2+,2(C1 N1 S1 1-),2(C12 H8 N2)'
_chemical_name_systematic        
'Tetraaqua-bis(1,10-phenanthroline)-barium(ii) bis(thiocyanate) bis(1,10-phenanthroline)'
_symmetry_cell_setting           triclinic
_symmetry_space_group_name_H-M   'P -1'
_symmetry_Int_Tables_number      2
_space_group_name_Hall           '-P 1'
loop_
_symmetry_equiv_pos_site_id
_symmetry_equiv_pos_as_xyz
1 x,y,z
2 -x,-y,-z
_cell_length_a                   6.981(5)
_cell_length_b                   12.148(5)
_cell_length_c                   14.320(5)
_cell_angle_alpha                76.397(5)
_cell_angle_beta                 87.013(5)
_cell_angle_gamma                77.940(5)
_cell_volume                     1154.29
_exptl_crystal_colour            colorless
_exptl_crystal_description       prism
_cell_formula_units_Z            1
loop_
_atom_site_label
_atom_site_type_symbol
_atom_site_fract_x
_atom_site_fract_y
_atom_site_fract_z
Ba1 Ba 1.0000 0.5000 0.0000
C1 C 1.1673(3) 0.1829(2) 0.12053(19)
H1 H 1.1919 0.1872 0.0554
C2 C 1.2082(4) 0.0741(2) 0.1840(2)
H2 H 1.2572 0.0081 0.1610
C3 C 1.1758(4) 0.0661(2) 0.2782(2)
H3 H 1.2017 -0.0057 0.3211
C4 C 1.1027(3) 0.1662(2) 0.31175(17)
C5 C 1.0682(4) 0.1643(3) 0.41073(19)
H4 H 1.0941 0.0940 0.4556
C6 C 0.9996(4) 0.2609(3) 0.44077(17)
H5 H 0.9792 0.2569 0.5061
C7 C 0.9569(3) 0.3710(2) 0.37407(15)
C8 C 0.8801(4) 0.4741(3) 0.4023(2)
H6 H 0.8524 0.4728 0.4668
C9 C 0.8464(4) 0.5750(3) 0.3366(2)
H7 H 0.7969 0.6441 0.3549
C10 C 0.8874(4) 0.5743(2) 0.23977(19)
H8 H 0.8654 0.6448 0.1950
C11 C 0.9901(3) 0.37811(18) 0.27477(14)
C12 C 1.0642(2) 0.27299(17) 0.24277(14)
N1 N 0.9550(2) 0.47999(15) 0.20846(13)
N2 N 1.0955(2) 0.28036(14) 0.14826(12)
O1 O 1.1561(3) 0.67342(15) 0.03982(12)
H9 H 1.2110 0.6774 0.0909
H10 H 1.2020 0.7180 -0.0050
O2 O 0.6309(2) 0.62597(18) 0.02184(13)
H11 H 0.5716 0.6707 0.0633
H12 H 0.5645 0.6551 -0.0347
C1A C 0.8327(3) 0.8171(2) -0.12053(19)
H1A H 0.8081 0.8128 -0.0554
C2A C 0.7918(4) 0.9259(2) -0.1840(2)
H2A H 0.7428 0.9919 -0.1610
C3A C 0.8242(4) 0.9339(2) -0.2782(2)
H3A H 0.7983 1.0057 -0.3211
C4A C 0.8973(3) 0.8338(2) -0.31175(17)
C5A C 0.9318(4) 0.8357(3) -0.41073(19)
H4A H 0.9059 0.9060 -0.4556
C6A C 1.0004(4) 0.7391(3) -0.44077(17)
H5A H 1.0208 0.7431 -0.5061
C7A C 1.0431(3) 0.6290(2) -0.37407(15)
C8A C 1.1199(4) 0.5259(3) -0.4023(2)
H6A H 1.1476 0.5272 -0.4668
C9A C 1.1536(4) 0.4250(3) -0.3366(2)
H7A H 1.2031 0.3559 -0.3549
C10A C 1.1126(4) 0.4257(2) -0.23977(19)
H8A H 1.1346 0.3552 -0.1950
C11A C 1.0099(3) 0.62189(18) -0.27477(14)
C12A C 0.9358(2) 0.72701(17) -0.24277(14)
N1A N 1.0450(2) 0.52001(15) -0.20846(13)
N2A N 0.9045(2) 0.71964(14) -0.14826(12)
O1A O 0.8439(3) 0.32658(15) -0.03982(12)
H9A H 0.7890 0.3226 -0.0909
H10A H 0.7980 0.2820 0.0050
O2A O 1.3691(2) 0.37403(18) -0.02184(13)
H11A H 1.4284 0.3293 -0.0633
H12A H 1.4355 0.3449 0.0347
C13 C 0.4810(3) 0.42261(19) 0.20869(19)
H13 H 0.4496 0.4950 0.1669
C14 C 0.4542(3) 0.4165(2) 0.3064(2)
H14 H 0.4072 0.4830 0.3289
C15 C 0.4978(3) 0.3110(2) 0.36885(17)
H15 H 0.4809 0.3047 0.4346
C16 C 0.5685(3) 0.21238(18) 0.33279(15)
C17 C 0.6126(3) 0.0983(2) 0.39367(16)
H16 H 0.5975 0.0886 0.4598
C18 C 0.6753(4) 0.0056(2) 0.35663(18)
H17 H 0.7003 -0.0676 0.3974
C19 C 0.7046(3) 0.01703(18) 0.25591(18)
C20 C 0.7723(6) -0.0775(2) 0.2142(3)
H18 H 0.8005 -0.1519 0.2530
C21 C 0.7969(7) -0.0610(3) 0.1177(3)
H19 H 0.8391 -0.1235 0.0894
C22 C 0.7574(5) 0.0514(3) 0.0621(2)
H20 H 0.7763 0.0622 -0.0039
C23 C 0.6663(3) 0.12773(16) 0.19320(15)
C24 C 0.5929(2) 0.22771(16) 0.23279(14)
N3 N 0.5480(2) 0.33272(15) 0.17111(13)
N4 N 0.6946(3) 0.14432(17) 0.09710(14)
C25 C 0.3676(4) 0.7375(2) 0.2507(2)
N5 N 0.3938(5) 0.7302(3) 0.1722(2)
S1 S 0.34265(17) 0.74532(8) 0.36240(6)
loop_
_geom_bond_atom_site_label_1
_geom_bond_atom_site_label_2
_geom_bond_site_symmetry_1
_geom_bond_site_symmetry_2
Ba1 N1 1_555 1_555
C1 H1 1_555 1_555
C2 C1 1_555 1_555
H2 C2 1_555 1_555
C3 C2 1_555 1_555
H3 C3 1_555 1_555
C4 C3 1_555 1_555
C5 C4 1_555 1_555
H4 C5 1_555 1_555
C6 C5 1_555 1_555
H5 C6 1_555 1_555
C7 C6 1_555 1_555
C8 C7 1_555 1_555
H6 C8 1_555 1_555
C9 C8 1_555 1_555
H7 C9 1_555 1_555
C10 C9 1_555 1_555
H8 C10 1_555 1_555
C11 C7 1_555 1_555
C12 C4 1_555 1_555
N1 C10 1_555 1_555
N2 Ba1 1_555 1_555
O1 Ba1 1_555 1_555
H9 O1 1_555 1_555
H10 O1 1_555 1_555
O2 Ba1 1_555 1_555
H11 O2 1_555 1_555
H12 O2 1_555 1_555
C13 H13 1_555 1_555
C14 C13 1_555 1_555
H14 C14 1_555 1_555
C15 C14 1_555 1_555
H15 C15 1_555 1_555
C16 C15 1_555 1_555
C17 C16 1_555 1_555
H16 C17 1_555 1_555
C18 C17 1_555 1_555
H17 C18 1_555 1_555
C19 C18 1_555 1_555
C20 C19 1_555 1_555
H18 C20 1_555 1_555
C21 C20 1_555 1_555
H19 C21 1_555 1_555
C22 C21 1_555 1_555
H20 C22 1_555 1_555
C23 C19 1_555 1_555
C24 C16 1_555 1_555
N3 C13 1_555 1_555
N4 C22 1_555 1_555
C25 N5 1_555 1_555
S1 C25 1_555 1_555
C1A H1A 1_555 1_555
C2A C1A 1_555 1_555
H2A C2A 1_555 1_555
C3A C2A 1_555 1_555
H3A C3A 1_555 1_555
C4A C3A 1_555 1_555
C5A C4A 1_555 1_555
H4A C5A 1_555 1_555
C6A C5A 1_555 1_555
H5A C6A 1_555 1_555
C7A C6A 1_555 1_555
C8A C7A 1_555 1_555
H6A C8A 1_555 1_555
C9A C8A 1_555 1_555
H7A C9A 1_555 1_555
C10A C9A 1_555 1_555
H8A C10A 1_555 1_555
C11A C7A 1_555 1_555
C12A C4A 1_555 1_555
N1A Ba1 1_555 1_555
N2A Ba1 1_555 1_555
O1A Ba1 1_555 1_555
H9A O1A 1_555 1_555
H10A O1A 1_555 1_555
O2A Ba1 1_555 1_555
H11A O2A 1_555 1_555
H12A O2A 1_555 1_555
C1 N2 1_555 1_555
C11 C12 1_555 1_555
C11 N1 1_555 1_555
C12 N2 1_555 1_555
C23 C24 1_555 1_555
C23 N4 1_555 1_555
C24 N3 1_555 1_555
C1A N2A 1_555 1_555
C10A N1A 1_555 1_555
C11A C12A 1_555 1_555
C11A N1A 1_555 1_555
C12A N2A 1_555 1_555

#END
