
#######################################################################
#
#                 Cambridge Crystallographic Data Centre
#                                CCDC 
#
#######################################################################
#
# If this CIF has been generated from an entry in the Cambridge 
# Structural Database, then it will include bibliographic, chemical, 
# crystal, experimental, refinement or atomic coordinate data resulting 
# from the CCDC's data processing and validation procedures.
#
#######################################################################

data_PUFSIT
_chemical_formula_moiety         'C21 H21 N3 O4'
_chemical_name_systematic        
(E)-N'-((7-(Diethylamino)-2-oxo-2H-chromen-3-yl)methylene)-2-hydroxybenzohydrazide
_symmetry_cell_setting           monoclinic
_symmetry_space_group_name_H-M   'P 21/c'
_symmetry_Int_Tables_number      14
_space_group_name_Hall           '-P 2ybc'
loop_
_symmetry_equiv_pos_site_id
_symmetry_equiv_pos_as_xyz
1 x,y,z
2 -x,1/2+y,1/2-z
3 -x,-y,-z
4 x,1/2-y,1/2+z
_cell_length_a                   10.075(2)
_cell_length_b                   21.950(4)
_cell_length_c                   8.1866(16)
_cell_angle_alpha                90
_cell_angle_beta                 90.25(3)
_cell_angle_gamma                90
_cell_volume                     1810.42
_exptl_crystal_colour            yellow
_exptl_crystal_description       block
_cell_formula_units_Z            4
_exptl_crystal_recrystallization_method ethanol
loop_
_atom_site_label
_atom_site_type_symbol
_atom_site_fract_x
_atom_site_fract_y
_atom_site_fract_z
O1 O 0.45085(8) 0.57709(4) 0.44320(11)
O2 O 0.41925(9) 0.54123(4) 0.19511(12)
O3 O 0.98841(9) 0.40302(4) 0.07552(12)
O4 O 1.06523(10) 0.31406(4) -0.10086(14)
H1 H 1.0524(18) 0.3369(9) -0.010(2)
N1 N 0.48944(11) 0.66183(5) 0.97641(14)
N2 N 0.80207(10) 0.48853(5) 0.13044(14)
N3 N 0.83089(11) 0.46691(5) -0.02473(14)
H2 H 0.7702(15) 0.4714(6) -0.102(2)
C1 C 0.54515(12) 0.63422(5) 0.84400(16)
C2 C 0.68412(13) 0.62171(5) 0.84095(16)
H3 H 0.7373 0.6320 0.9330
C3 C 0.74215(12) 0.59516(5) 0.70759(17)
H4 H 0.8348 0.5872 0.7096
C4 C 0.66811(12) 0.57935(5) 0.56803(16)
C5 C 0.72088(12) 0.55406(5) 0.42295(16)
H5 H 0.8136 0.5467 0.4159
C6 C 0.64146(12) 0.54014(5) 0.29353(16)
C7 C 0.49955(12) 0.55182(5) 0.30221(16)
C8 C 0.53099(12) 0.59090(5) 0.57460(16)
C9 C 0.46909(13) 0.61692(5) 0.70678(16)
H6 H 0.3758 0.6232 0.7056
C10 C 0.34561(13) 0.66955(6) 0.98896(18)
H7 H 0.3208 0.6683 1.1058
H8 H 0.3017 0.6347 0.9342
C11 C 0.29277(15) 0.72813(7) 0.9150(2)
H9 H 0.3340 0.7631 0.9699
H10 H 0.1963 0.7299 0.9291
H11 H 0.3139 0.7293 0.7983
C12 C 0.57215(14) 0.69109(6) 1.10108(17)
H12 H 0.6412 0.6620 1.1376
H13 H 0.5163 0.7010 1.1967
C13 C 0.63917(15) 0.74901(6) 1.04124(19)
H14 H 0.6931 0.7397 0.9451
H15 H 0.6961 0.7654 1.1280
H16 H 0.5714 0.7792 1.0121
C14 C 0.68668(12) 0.51353(5) 0.14024(16)
H17 H 0.6305 0.5147 0.0468
C15 C 0.92540(12) 0.42358(5) -0.04255(16)
C16 C 0.94445(12) 0.39999(5) -0.21070(16)
C17 C 0.89626(13) 0.42910(6) -0.35064(17)
H18 H 0.8521 0.4671 -0.3398
C18 C 0.91111(13) 0.40414(7) -0.50448(18)
H19 H 0.8782 0.4248 -0.5983
C19 C 0.97521(13) 0.34822(6) -0.51941(18)
H20 H 0.9839 0.3302 -0.6243
C20 C 1.02606(14) 0.31873(6) -0.38491(19)
H21 H 1.0705 0.2809 -0.3975
C21 C 1.01254(12) 0.34435(6) -0.23013(17)
loop_
_geom_bond_atom_site_label_1
_geom_bond_atom_site_label_2
_geom_bond_site_symmetry_1
_geom_bond_site_symmetry_2
O1 C7 1_555 1_555
O2 C7 1_555 1_555
O3 C15 1_555 1_555
O4 H1 1_555 1_555
N1 C1 1_555 1_555
N2 N3 1_555 1_555
N3 H2 1_555 1_555
C1 C2 1_555 1_555
C2 H3 1_555 1_555
C3 C2 1_555 1_555
H4 C3 1_555 1_555
C4 C3 1_555 1_555
C5 C4 1_555 1_555
H5 C5 1_555 1_555
C6 C5 1_555 1_555
C7 C6 1_555 1_555
C8 O1 1_555 1_555
C9 C1 1_555 1_555
H6 C9 1_555 1_555
C10 N1 1_555 1_555
H7 C10 1_555 1_555
H8 C10 1_555 1_555
C11 C10 1_555 1_555
H9 C11 1_555 1_555
H10 C11 1_555 1_555
H11 C11 1_555 1_555
C12 N1 1_555 1_555
H12 C12 1_555 1_555
H13 C12 1_555 1_555
C13 C12 1_555 1_555
H14 C13 1_555 1_555
H15 C13 1_555 1_555
H16 C13 1_555 1_555
C14 N2 1_555 1_555
H17 C14 1_555 1_555
C15 N3 1_555 1_555
C16 C15 1_555 1_555
C17 C16 1_555 1_555
H18 C17 1_555 1_555
C18 C17 1_555 1_555
H19 C18 1_555 1_555
C19 C18 1_555 1_555
H20 C19 1_555 1_555
C20 C19 1_555 1_555
H21 C20 1_555 1_555
C21 O4 1_555 1_555
C4 C8 1_555 1_555
C6 C14 1_555 1_555
C8 C9 1_555 1_555
C16 C21 1_555 1_555
C20 C21 1_555 1_555

#END
