
#######################################################################
#
#                 Cambridge Crystallographic Data Centre
#                                CCDC 
#
#######################################################################
#
# If this CIF has been generated from an entry in the Cambridge 
# Structural Database, then it will include bibliographic, chemical, 
# crystal, experimental, refinement or atomic coordinate data resulting 
# from the CCDC's data processing and validation procedures.
#
#######################################################################

data_PUFTAN
_chemical_formula_moiety         'C21 H24 O6 S1'
_chemical_name_systematic        
'((2R,4S)-4-(benzyloxy)-3,3-dimethyl-5-oxotetrahydrofuran-2-yl)methyl 4-methylbenzenesulfonate'
_symmetry_cell_setting           orthorhombic
_symmetry_space_group_name_H-M   'P 21 21 21'
_symmetry_Int_Tables_number      19
_space_group_name_Hall           'P 2ac 2ab'
loop_
_symmetry_equiv_pos_site_id
_symmetry_equiv_pos_as_xyz
1 x,y,z
2 1/2-x,-y,1/2+z
3 -x,1/2+y,1/2-z
4 1/2+x,1/2-y,-z
_cell_length_a                   5.9213(8)
_cell_length_b                   11.3124(13)
_cell_length_c                   30.874(4)
_cell_angle_alpha                90
_cell_angle_beta                 90
_cell_angle_gamma                90
_cell_volume                     2068.07
_exptl_crystal_colour            colorless
_exptl_crystal_description       rectangular
_chemical_melting_point          '350 K'
_cell_formula_units_Z            4
_exptl_crystal_recrystallization_method 'ethyl acetate/petroleum ether'
loop_
_atom_site_label
_atom_site_type_symbol
_atom_site_fract_x
_atom_site_fract_y
_atom_site_fract_z
S1 S 0.5102(4) 0.4489(2) 0.64682(8)
O1 O 0.9893(11) 0.4039(5) 0.7521(2)
O2 O 0.8702(10) 0.2654(6) 0.7974(2)
O3 O 0.5752(10) 0.4485(5) 0.83252(18)
O4 O 0.6408(9) 0.4511(5) 0.69126(16)
O5 O 0.4879(13) 0.5662(6) 0.6318(2)
O6 O 0.3168(11) 0.3782(6) 0.6556(2)
C1 C 0.9232(14) 0.5236(7) 0.7409(3)
H1 H 1.0588 0.5730 0.7424
C2 C 0.7634(15) 0.5643(7) 0.7768(3)
C3 C 0.6549(14) 0.4481(7) 0.7895(3)
H2 H 0.5293 0.4312 0.7698
C4 C 0.8392(17) 0.3621(9) 0.7818(3)
C5 C 0.4208(16) 0.3562(8) 0.8421(3)
H3 H 0.4910 0.2804 0.8362
H4 H 0.2888 0.3635 0.8237
C6 C 0.3505(18) 0.3613(9) 0.8885(3)
C7 C 0.140(2) 0.3212(11) 0.9014(4)
H5 H 0.0379 0.2945 0.8807
C8 C 0.080(2) 0.3202(13) 0.9441(5)
H6 H -0.0603 0.2907 0.9522
C9 C 0.222(3) 0.3616(13) 0.9749(4)
H7 H 0.1786 0.3603 1.0039
C10 C 0.429(2) 0.4053(12) 0.9634(4)
H8 H 0.5259 0.4352 0.9844
C11 C 0.494(2) 0.4045(9) 0.9196(4)
H9 H 0.6353 0.4333 0.9116
C12 C 0.9103(17) 0.6122(8) 0.8141(3)
H10 H 0.8167 0.6283 0.8388
H11 H 0.9837 0.6837 0.8050
H12 H 1.0222 0.5544 0.8217
C13 C 0.5926(15) 0.6586(7) 0.7630(3)
H13 H 0.5052 0.6297 0.7391
H14 H 0.6714 0.7291 0.7545
H15 H 0.4940 0.6763 0.7869
C14 C 0.8430(15) 0.5241(8) 0.6941(3)
H16 H 0.8092 0.6042 0.6850
H17 H 0.9599 0.4927 0.6753
C15 C 0.6925(16) 0.3715(10) 0.6128(3)
C16 C 0.6926(19) 0.2491(10) 0.6114(3)
H18 H 0.5897 0.2065 0.6280
C17 C 0.846(2) 0.1904(10) 0.5855(4)
H19 H 0.8419 0.1083 0.5843
C18 C 1.0031(19) 0.2499(14) 0.5614(3)
C19 C 1.001(2) 0.3706(12) 0.5635(3)
H20 H 1.1086 0.4121 0.5476
C20 C 0.8503(19) 0.4337(10) 0.5879(3)
H21 H 0.8525 0.5159 0.5879
C21 C 1.161(2) 0.1787(15) 0.5349(4)
H22 H 1.2620 0.2304 0.5197
H23 H 1.0765 0.1326 0.5144
H24 H 1.2457 0.1271 0.5534
loop_
_geom_bond_atom_site_label_1
_geom_bond_atom_site_label_2
_geom_bond_site_symmetry_1
_geom_bond_site_symmetry_2
S1 O4 1_555 1_555
O1 C1 1_555 1_555
O2 C4 1_555 1_555
O3 C3 1_555 1_555
O4 C14 1_555 1_555
O5 S1 1_555 1_555
O6 S1 1_555 1_555
C1 H1 1_555 1_555
C2 C1 1_555 1_555
C3 C2 1_555 1_555
H2 C3 1_555 1_555
C4 O1 1_555 1_555
C5 O3 1_555 1_555
H3 C5 1_555 1_555
H4 C5 1_555 1_555
C6 C5 1_555 1_555
C7 C6 1_555 1_555
H5 C7 1_555 1_555
C8 C7 1_555 1_555
H6 C8 1_555 1_555
C9 C8 1_555 1_555
H7 C9 1_555 1_555
C10 C9 1_555 1_555
H8 C10 1_555 1_555
C11 C6 1_555 1_555
H9 C11 1_555 1_555
C12 C2 1_555 1_555
H10 C12 1_555 1_555
H11 C12 1_555 1_555
H12 C12 1_555 1_555
C13 C2 1_555 1_555
H13 C13 1_555 1_555
H14 C13 1_555 1_555
H15 C13 1_555 1_555
C14 C1 1_555 1_555
H16 C14 1_555 1_555
H17 C14 1_555 1_555
C15 S1 1_555 1_555
C16 C15 1_555 1_555
H18 C16 1_555 1_555
C17 C16 1_555 1_555
H19 C17 1_555 1_555
C18 C17 1_555 1_555
C19 C18 1_555 1_555
H20 C19 1_555 1_555
C20 C15 1_555 1_555
H21 C20 1_555 1_555
C21 C18 1_555 1_555
H22 C21 1_555 1_555
H23 C21 1_555 1_555
H24 C21 1_555 1_555
C3 C4 1_555 1_555
C10 C11 1_555 1_555
C19 C20 1_555 1_555

#END
