
#######################################################################
#
#                 Cambridge Crystallographic Data Centre
#                                CCDC 
#
#######################################################################
#
# If this CIF has been generated from an entry in the Cambridge 
# Structural Database, then it will include bibliographic, chemical, 
# crystal, experimental, refinement or atomic coordinate data resulting 
# from the CCDC's data processing and validation procedures.
#
#######################################################################

data_PUFTIU
_chemical_compound_source        
'a strain of Aspergillus terreus isolated from the rhizosphere soil of Lycopersicum esculentum Mill (tomato)'
_chemical_name_common            Dihydrocitrinone
_chemical_formula_moiety         'C13 H14 O6'
_chemical_name_systematic        
'(3R,4S)-6,8-Dihydroxy-3,4,5-trimethyl-1-oxoisochroman-7-carboxylic acid'
_symmetry_cell_setting           orthorhombic
_symmetry_space_group_name_H-M   'P 21 21 21'
_symmetry_Int_Tables_number      19
_space_group_name_Hall           'P 2ac 2ab'
loop_
_symmetry_equiv_pos_site_id
_symmetry_equiv_pos_as_xyz
1 x,y,z
2 1/2-x,-y,1/2+z
3 -x,1/2+y,1/2-z
4 1/2+x,1/2-y,-z
_cell_length_a                   9.1036(18)
_cell_length_b                   10.325(2)
_cell_length_c                   26.343(5)
_cell_angle_alpha                90
_cell_angle_beta                 90
_cell_angle_gamma                90
_cell_volume                     2476.1
_exptl_crystal_colour            colorless
_exptl_crystal_description       block
_cell_formula_units_Z            8
_exptl_crystal_recrystallization_method chloroform/methanol
loop_
_atom_site_label
_atom_site_type_symbol
_atom_site_fract_x
_atom_site_fract_y
_atom_site_fract_z
C1 C 0.0019(3) 0.1373(3) 0.91004(9)
C2 C 0.1159(2) 0.0397(2) 0.91904(8)
C3 C 0.0737(3) -0.0881(2) 0.92944(9)
C4 C 0.1777(4) -0.1839(2) 0.93786(9)
C5 C 0.1397(5) -0.3214(3) 0.94729(11)
C6 C 0.3279(3) -0.1486(2) 0.93727(9)
C7 C 0.3732(3) -0.0194(2) 0.92872(8)
C8 C 0.5354(3) 0.0106(3) 0.93078(11)
H1 H 0.5651 0.0212 0.9655
H2 H 0.5546 0.0890 0.9124
H3 H 0.5895 -0.0594 0.9158
C9 C 0.2665(2) 0.07222(19) 0.91970(7)
C10 C 0.3025(3) 0.2144(2) 0.91360(9)
H4 H 0.3990 0.2214 0.8974
C11 C 0.3120(4) 0.2780(3) 0.96636(11)
H5 H 0.3829 0.2327 0.9867
H6 H 0.2177 0.2742 0.9826
H7 H 0.3415 0.3668 0.9627
C12 C 0.1900(3) 0.2808(3) 0.87944(10)
H8 H 0.2074 0.3743 0.8815
C13 C 0.2005(4) 0.2426(4) 0.82410(10)
H9 H 0.1265 0.2875 0.8051
H10 H 0.1858 0.1509 0.8209
H11 H 0.2958 0.2650 0.8113
O1 O 0.0401(2) 0.25656(19) 0.89721(8)
O2 O -0.1304(2) 0.1126(3) 0.91457(9)
O3 O -0.0717(2) -0.1200(2) 0.93090(9)
H12 H -0.1214 -0.0539 0.9297
O4 O 0.0010(4) -0.3572(2) 0.94534(10)
H13 H -0.0508 -0.2936 0.9400
O5 O 0.2321(5) -0.4035(2) 0.95569(10)
O6 O 0.4338(3) -0.2369(2) 0.94488(9)
H14 H 0.364(6) -0.306(5) 0.945(2)
C14 C 0.4929(3) 0.5475(3) 0.84321(9)
C15 C 0.6036(2) 0.6448(2) 0.83151(8)
C16 C 0.5570(3) 0.7690(2) 0.81749(8)
C17 C 0.6599(3) 0.8656(2) 0.80702(9)
C18 C 0.6179(4) 1.0004(3) 0.79431(11)
C19 C 0.8098(3) 0.8338(2) 0.80842(8)
C20 C 0.8591(3) 0.7068(2) 0.81941(8)
C21 C 1.0220(3) 0.6788(3) 0.81577(11)
H15 H 1.0484 0.6655 0.7809
H16 H 1.0446 0.6023 0.8350
H17 H 1.0764 0.7508 0.8292
C22 C 0.7547(2) 0.6152(2) 0.83210(7)
C23 C 0.7948(3) 0.4769(2) 0.84482(9)
H18 H 0.8916 0.4770 0.8611
C24 C 0.8046(4) 0.3955(3) 0.79617(13)
H19 H 0.7106 0.3942 0.7797
H20 H 0.8331 0.3086 0.8046
H21 H 0.8763 0.4328 0.7738
C25 C 0.6837(3) 0.4218(3) 0.88248(11)
H22 H 0.7046 0.3291 0.8861
C26 C 0.6901(4) 0.4808(4) 0.93483(11)
H23 H 0.6156 0.4426 0.9558
H24 H 0.6737 0.5725 0.9325
H25 H 0.7849 0.4650 0.9495
O7 O 0.5343(2) 0.43375(18) 0.86239(8)
O8 O 0.3608(2) 0.5651(2) 0.83633(9)
O9 O 0.4116(2) 0.7964(2) 0.81437(9)
H26 H 0.3639 0.7303 0.8193
O10 O 0.7091(4) 1.0849(2) 0.78600(10)
O11 O 0.4761(3) 1.0309(2) 0.79234(12)
H27 H 0.4267 0.9675 0.8000
O12 O 0.9133(3) 0.9227(2) 0.79877(9)
H28 H 0.8741 0.9923 0.7925
loop_
_geom_bond_atom_site_label_1
_geom_bond_atom_site_label_2
_geom_bond_site_symmetry_1
_geom_bond_site_symmetry_2
C1 C2 1_555 1_555
C2 C3 1_555 1_555
C3 C4 1_555 1_555
C4 C5 1_555 1_555
C5 O4 1_555 1_555
C6 C4 1_555 1_555
C7 C6 1_555 1_555
C8 C7 1_555 1_555
H1 C8 1_555 1_555
H2 C8 1_555 1_555
H3 C8 1_555 1_555
C9 C2 1_555 1_555
C10 C9 1_555 1_555
H4 C10 1_555 1_555
C11 C10 1_555 1_555
H5 C11 1_555 1_555
H6 C11 1_555 1_555
H7 C11 1_555 1_555
C12 C10 1_555 1_555
H8 C12 1_555 1_555
C13 C12 1_555 1_555
H9 C13 1_555 1_555
H10 C13 1_555 1_555
H11 C13 1_555 1_555
O1 C1 1_555 1_555
O2 C1 1_555 1_555
O3 C3 1_555 1_555
H12 O3 1_555 1_555
O4 H13 1_555 1_555
O5 C5 1_555 1_555
O6 C6 1_555 1_555
H14 O6 1_555 1_555
C14 C15 1_555 1_555
C15 C16 1_555 1_555
C16 C17 1_555 1_555
C17 C18 1_555 1_555
C18 O10 1_555 1_555
C19 C17 1_555 1_555
C20 C19 1_555 1_555
C21 C20 1_555 1_555
H15 C21 1_555 1_555
H16 C21 1_555 1_555
H17 C21 1_555 1_555
C22 C15 1_555 1_555
C23 C22 1_555 1_555
H18 C23 1_555 1_555
C24 C23 1_555 1_555
H19 C24 1_555 1_555
H20 C24 1_555 1_555
H21 C24 1_555 1_555
C25 C23 1_555 1_555
H22 C25 1_555 1_555
C26 C25 1_555 1_555
H23 C26 1_555 1_555
H24 C26 1_555 1_555
H25 C26 1_555 1_555
O7 C14 1_555 1_555
O8 C14 1_555 1_555
O9 C16 1_555 1_555
H26 O9 1_555 1_555
O11 C18 1_555 1_555
H27 O11 1_555 1_555
O12 C19 1_555 1_555
H28 O12 1_555 1_555
C7 C9 1_555 1_555
C12 O1 1_555 1_555
C20 C22 1_555 1_555
C25 O7 1_555 1_555

#END
