
#######################################################################
#
#                 Cambridge Crystallographic Data Centre
#                                CCDC 
#
#######################################################################
#
# If this CIF has been generated from an entry in the Cambridge 
# Structural Database, then it will include bibliographic, chemical, 
# crystal, experimental, refinement or atomic coordinate data resulting 
# from the CCDC's data processing and validation procedures.
#
#######################################################################

data_PUGGAA
_chemical_name_common            
"2,2'-(1,4-Phenylene)bis-4,5-dihydro-1H-imidazole benzene-1,4-dicarboxylic acid tetrahydrate"
_chemical_formula_moiety         'C12 H14 N4,C8 H6 O4,4(H2 O1)'
_chemical_name_systematic        
'1,4-bis(4,5-Dihydro-1H-imidazol-2-yl)benzene terephthalic acid tetrahydrate'
_symmetry_cell_setting           monoclinic
_symmetry_space_group_name_H-M   'P 21/c'
_symmetry_Int_Tables_number      14
_space_group_name_Hall           '-P 2ybc'
loop_
_symmetry_equiv_pos_site_id
_symmetry_equiv_pos_as_xyz
1 x,y,z
2 -x,1/2+y,1/2-z
3 -x,-y,-z
4 x,1/2-y,1/2+z
_cell_length_a                   7.9929(13)
_cell_length_b                   16.847(3)
_cell_length_c                   7.9615(12)
_cell_angle_alpha                90
_cell_angle_beta                 94.899(3)
_cell_angle_gamma                90
_cell_volume                     1068.15
_exptl_crystal_colour            colorless
_exptl_crystal_description       block
_cell_formula_units_Z            2
loop_
_atom_site_label
_atom_site_type_symbol
_atom_site_fract_x
_atom_site_fract_y
_atom_site_fract_z
N1 N 0.2209(4) 0.83842(17) 0.1428(4)
N2 N 0.0932(4) 0.95122(17) 0.1837(4)
H1 H 0.0744 1.0015 0.1797
C1 C -0.0182(6) 0.8931(2) 0.2516(6)
H2 H -0.1318 0.8981 0.1991
H3 H -0.0199 0.8989 0.3726
C2 C 0.0597(6) 0.8138(2) 0.2069(6)
H4 H 0.0785 0.7800 0.3053
H5 H -0.0109 0.7860 0.1208
C3 C 0.2264(5) 0.9167(2) 0.1292(4)
C4 C 0.3678(5) 0.9588(2) 0.0625(4)
C5 C 0.4927(6) 0.9183(2) -0.0102(5)
H6 H 0.4886 0.8632 -0.0177
C6 C 0.3758(6) 1.0410(2) 0.0723(5)
H7 H 0.2921 1.0689 0.1212
N1B N 0.7791(4) 1.16158(17) -0.1428(4)
N2B N 0.9068(4) 1.04878(17) -0.1837(4)
H1B H 0.9256 0.9985 -0.1797
C1B C 1.0182(6) 1.1069(2) -0.2516(6)
H2B H 1.1318 1.1019 -0.1991
H3B H 1.0199 1.1011 -0.3726
C2B C 0.9403(6) 1.1862(2) -0.2069(6)
H4B H 0.9215 1.2200 -0.3053
H5B H 1.0109 1.2140 -0.1208
C3B C 0.7736(5) 1.0833(2) -0.1292(4)
C4B C 0.6322(5) 1.0412(2) -0.0625(4)
C5B C 0.5073(6) 1.0817(2) 0.0102(5)
H6B H 0.5114 1.1368 0.0177
C6B C 0.6242(6) 0.9590(2) -0.0723(5)
H7B H 0.7079 0.9311 -0.1212
O1 O 0.4731(4) 0.71811(16) 0.0453(4)
O2 O 0.2324(5) 0.66542(18) 0.1033(4)
H8 H 0.2110 0.7124 0.1183
C7 C 0.3793(7) 0.6590(2) 0.0620(5)
C8 C 0.4386(5) 0.5771(2) 0.0299(5)
C9 C 0.6008(6) 0.5648(2) -0.0226(5)
H9 H 0.6694 0.6082 -0.0391
C10 C 0.3416(6) 0.5107(2) 0.0509(5)
H10 H 0.2339 0.5170 0.0849
O1B O 0.5269(4) 0.28189(16) -0.0453(4)
O2B O 0.7676(5) 0.33458(18) -0.1033(4)
H8B H 0.7890 0.2876 -0.1183
C7B C 0.6207(7) 0.3410(2) -0.0620(5)
C8B C 0.5614(5) 0.4229(2) -0.0299(5)
C9B C 0.3992(6) 0.4352(2) 0.0226(5)
H9B H 0.3306 0.3918 0.0391
C10B C 0.6584(6) 0.4893(2) -0.0509(5)
H10B H 0.7661 0.4830 -0.0849
O3 O 0.9737(5) 0.61448(19) 0.2736(5)
H11 H 1.053(4) 0.627(2) 0.212(5)
H12 H 0.904(5) 0.6509(19) 0.296(6)
O4 O 0.7204(4) 0.76340(18) 0.8161(5)
H13 H 0.6459 0.7691 0.7341
H14 H 0.700(6) 0.776(7) 0.916(3)
loop_
_geom_bond_atom_site_label_1
_geom_bond_atom_site_label_2
_geom_bond_site_symmetry_1
_geom_bond_site_symmetry_2
N1 C2 1_555 1_555
N2 H1 1_555 1_555
C1 N2 1_555 1_555
H2 C1 1_555 1_555
H3 C1 1_555 1_555
C2 C1 1_555 1_555
H4 C2 1_555 1_555
H5 C2 1_555 1_555
C3 N1 1_555 1_555
C4 C3 1_555 1_555
C5 C4 1_555 1_555
H6 C5 1_555 1_555
C6 C4 1_555 1_555
H7 C6 1_555 1_555
O1 C7 1_555 1_555
O2 H8 1_555 1_555
C7 O2 1_555 1_555
C8 C7 1_555 1_555
C9 C8 1_555 1_555
H9 C9 1_555 1_555
C10 C8 1_555 1_555
H10 C10 1_555 1_555
O3 H11 1_555 1_555
H12 O3 1_555 1_555
O4 H13 1_555 1_555
H14 O4 1_555 1_555
N1B C2B 1_555 1_555
N2B H1B 1_555 1_555
C1B N2B 1_555 1_555
H2B C1B 1_555 1_555
H3B C1B 1_555 1_555
C2B C1B 1_555 1_555
H4B C2B 1_555 1_555
H5B C2B 1_555 1_555
C3B N1B 1_555 1_555
C4B C3B 1_555 1_555
C5B C6 1_555 1_555
H6B C5B 1_555 1_555
C6B C5 1_555 1_555
H7B C6B 1_555 1_555
O1B C7B 1_555 1_555
O2B H8B 1_555 1_555
C7B O2B 1_555 1_555
C8B C7B 1_555 1_555
C9B C10 1_555 1_555
H9B C9B 1_555 1_555
C10B C9 1_555 1_555
H10B C10B 1_555 1_555
N2 C3 1_555 1_555
N2B C3B 1_555 1_555
C4B C5B 1_555 1_555
C4B C6B 1_555 1_555
C8B C9B 1_555 1_555
C8B C10B 1_555 1_555

#END
