
#######################################################################
#
#                 Cambridge Crystallographic Data Centre
#                                CCDC 
#
#######################################################################
#
# If this CIF has been generated from an entry in the Cambridge 
# Structural Database, then it will include bibliographic, chemical, 
# crystal, experimental, refinement or atomic coordinate data resulting 
# from the CCDC's data processing and validation procedures.
#
#######################################################################

data_PUGMIO
_chemical_formula_moiety         'C20 H19 N5 O2'
_chemical_name_systematic        
3-Benzyl-6-isopropyl-5-phenoxy-3H-1,2,3-triazolo[4,5-d]pyrimidin-7(6H)-one
_symmetry_cell_setting           monoclinic
_symmetry_space_group_name_H-M   'P 21/c'
_symmetry_Int_Tables_number      14
_space_group_name_Hall           '-P 2ybc'
loop_
_symmetry_equiv_pos_site_id
_symmetry_equiv_pos_as_xyz
1 x,y,z
2 -x,1/2+y,1/2-z
3 -x,-y,-z
4 x,1/2-y,1/2+z
_cell_length_a                   9.4585(13)
_cell_length_b                   9.0846(12)
_cell_length_c                   21.992(3)
_cell_angle_alpha                90
_cell_angle_beta                 100.523(2)
_cell_angle_gamma                90
_cell_volume                     1857.92
_exptl_crystal_colour            colorless
_exptl_crystal_description       block
_chemical_melting_point          '405 K'
_cell_formula_units_Z            4
_exptl_crystal_recrystallization_method dichloromethane/hexane
loop_
_atom_site_label
_atom_site_type_symbol
_atom_site_fract_x
_atom_site_fract_y
_atom_site_fract_z
C1 C 0.3436(2) 0.4731(2) 0.22493(9)
C2 C 0.3377(2) 0.4926(2) 0.28596(9)
C3 C 0.4595(3) 0.3594(3) 0.38253(11)
H1 H 0.4907 0.2579 0.3884
H2 H 0.3730 0.3701 0.4000
C4 C 0.5747(2) 0.4573(2) 0.41799(10)
C5 C 0.5893(3) 0.6038(3) 0.40342(11)
H3 H 0.5277 0.6448 0.3699
C6 C 0.6935(3) 0.6893(3) 0.43782(12)
H4 H 0.7016 0.7878 0.4276
C7 C 0.7851(4) 0.6317(3) 0.48672(12)
H5 H 0.8549 0.6906 0.5103
C8 C 0.7738(4) 0.4858(4) 0.50106(13)
H6 H 0.8373 0.4450 0.5340
C9 C 0.6685(3) 0.3994(3) 0.46668(12)
H7 H 0.6614 0.3006 0.4768
C10 C 0.2657(2) 0.5691(2) 0.17917(9)
C11 C 0.1931(2) 0.6823(2) 0.26940(9)
C12 C 0.0995(3) 0.7849(3) 0.16396(10)
H8 H 0.1186 0.7635 0.1225
C13 C -0.0597(3) 0.7597(3) 0.16099(13)
H9 H -0.0837 0.6606 0.1478
H10 H -0.1133 0.8274 0.1321
H11 H -0.0831 0.7751 0.2012
C14 C 0.1452(4) 0.9438(3) 0.17780(15)
H12 H 0.1002 0.9807 0.2105
H13 H 0.1163 1.0025 0.1414
H14 H 0.2478 0.9483 0.1903
C15 C 0.1523(3) 0.8427(2) 0.34770(9)
C16 C 0.0476(3) 0.8378(3) 0.38311(12)
H15 H -0.0422 0.7977 0.3677
C17 C 0.0788(4) 0.8938(3) 0.44193(13)
H16 H 0.0090 0.8917 0.4667
C18 C 0.2099(4) 0.9524(3) 0.46459(11)
H17 H 0.2297 0.9888 0.5048
C19 C 0.3141(3) 0.9579(3) 0.42792(12)
H18 H 0.4035 0.9991 0.4432
C20 C 0.2849(3) 0.9021(3) 0.36845(10)
H19 H 0.3538 0.9049 0.3432
N1 N 0.4331(2) 0.3583(2) 0.21950(10)
N2 N 0.4819(2) 0.3075(2) 0.27476(11)
N3 N 0.42351(19) 0.38878(19) 0.31642(8)
N4 N 0.26237(18) 0.59583(19) 0.31105(7)
N5 N 0.18677(18) 0.67677(18) 0.20678(7)
O1 O 0.26306(19) 0.56707(19) 0.12390(7)
O2 O 0.11490(17) 0.79269(18) 0.28643(6)
loop_
_geom_bond_atom_site_label_1
_geom_bond_atom_site_label_2
_geom_bond_site_symmetry_1
_geom_bond_site_symmetry_2
C1 C2 1_555 1_555
C2 N3 1_555 1_555
C3 H1 1_555 1_555
H2 C3 1_555 1_555
C4 C3 1_555 1_555
C5 C4 1_555 1_555
H3 C5 1_555 1_555
C6 C5 1_555 1_555
H4 C6 1_555 1_555
C7 C6 1_555 1_555
H5 C7 1_555 1_555
C8 C7 1_555 1_555
H6 C8 1_555 1_555
C9 C4 1_555 1_555
H7 C9 1_555 1_555
C10 C1 1_555 1_555
C11 N4 1_555 1_555
C12 H8 1_555 1_555
C13 C12 1_555 1_555
H9 C13 1_555 1_555
H10 C13 1_555 1_555
H11 C13 1_555 1_555
C14 C12 1_555 1_555
H12 C14 1_555 1_555
H13 C14 1_555 1_555
H14 C14 1_555 1_555
C15 C16 1_555 1_555
C16 H15 1_555 1_555
C17 C16 1_555 1_555
H16 C17 1_555 1_555
C18 C17 1_555 1_555
H17 C18 1_555 1_555
C19 C18 1_555 1_555
H18 C19 1_555 1_555
C20 C15 1_555 1_555
H19 C20 1_555 1_555
N1 C1 1_555 1_555
N2 N1 1_555 1_555
N3 C3 1_555 1_555
N4 C2 1_555 1_555
N5 C10 1_555 1_555
O1 C10 1_555 1_555
O2 C11 1_555 1_555
C8 C9 1_555 1_555
C11 N5 1_555 1_555
C12 N5 1_555 1_555
C15 O2 1_555 1_555
C19 C20 1_555 1_555
N2 N3 1_555 1_555

#END
