
#######################################################################
#
#                 Cambridge Crystallographic Data Centre
#                                CCDC 
#
#######################################################################
#
# If this CIF has been generated from an entry in the Cambridge 
# Structural Database, then it will include bibliographic, chemical, 
# crystal, experimental, refinement or atomic coordinate data resulting 
# from the CCDC's data processing and validation procedures.
#
#######################################################################

data_PUGPAJ
_chemical_compound_source        'roots of Calophyllum membranaceum'
_chemical_formula_moiety         'C14 H10 O4,H2 O1'
_chemical_name_systematic        '2-Hydroxy-1-methoxyxanthen-9-one monohydrate'
_symmetry_cell_setting           monoclinic
_symmetry_space_group_name_H-M   'P 21/c'
_symmetry_Int_Tables_number      14
_space_group_name_Hall           '-P 2ybc'
loop_
_symmetry_equiv_pos_site_id
_symmetry_equiv_pos_as_xyz
1 x,y,z
2 -x,1/2+y,1/2-z
3 -x,-y,-z
4 x,1/2-y,1/2+z
_cell_length_a                   8.8008(6)
_cell_length_b                   7.0856(4)
_cell_length_c                   19.4596(9)
_cell_angle_alpha                90
_cell_angle_beta                 102.402(4)
_cell_angle_gamma                90
_cell_volume                     1185.16
_exptl_crystal_colour            colorless
_exptl_crystal_description       block
_cell_formula_units_Z            4
_exptl_crystal_recrystallization_method methanol
loop_
_atom_site_label
_atom_site_type_symbol
_atom_site_fract_x
_atom_site_fract_y
_atom_site_fract_z
O1 O 0.65861(11) 0.14472(16) 0.26194(6)
O2 O 0.24707(14) 0.1457(2) 0.33085(6)
O3 O 0.09211(11) 0.10250(16) 0.19163(6)
O4 O 0.11784(12) 0.12437(18) 0.05791(5)
H1 H 0.1386 0.1122 0.0190
C1 C 0.65891(18) 0.1459(2) 0.33241(8)
C2 C 0.8053(2) 0.1522(2) 0.37783(9)
H2 H 0.8955 0.1548 0.3602
C3 C 0.8131(2) 0.1546(3) 0.44946(10)
H3 H 0.9096 0.1575 0.4805
C4 C 0.6771(3) 0.1527(3) 0.47583(9)
H4 H 0.6837 0.1550 0.5242
C5 C 0.5341(2) 0.1475(2) 0.43070(9)
H5 H 0.4445 0.1464 0.4487
C6 C 0.52170(18) 0.1439(2) 0.35728(7)
C7 C 0.36878(17) 0.1408(2) 0.30878(7)
C8 C 0.37350(15) 0.13504(18) 0.23329(7)
C9 C 0.23858(15) 0.12734(19) 0.17825(7)
C10 C 0.25162(16) 0.12938(19) 0.10794(7)
C11 C 0.39927(17) 0.1332(2) 0.09150(7)
H6 H 0.4075 0.1331 0.0446
C12 C 0.53188(17) 0.1372(2) 0.14382(8)
H7 H 0.6293 0.1385 0.1325
C13 C 0.51916(16) 0.13944(19) 0.21397(7)
C14 C 0.0097(2) 0.2739(3) 0.19948(11)
H8 H -0.0904 0.2434 0.2086
H9 H -0.0035 0.3468 0.1570
H10 H 0.0681 0.3457 0.2381
O5 O 0.16228(15) 0.0842(3) -0.07501(6)
H11 H 0.181(3) 0.166(4) -0.1024(17)
H12 H 0.080(3) 0.039(4) -0.0954(14)
loop_
_geom_bond_atom_site_label_1
_geom_bond_atom_site_label_2
_geom_bond_site_symmetry_1
_geom_bond_site_symmetry_2
O1 C1 1_555 1_555
O2 C7 1_555 1_555
O3 C9 1_555 1_555
O4 H1 1_555 1_555
C1 C2 1_555 1_555
C2 H2 1_555 1_555
C3 C2 1_555 1_555
H3 C3 1_555 1_555
C4 C3 1_555 1_555
H4 C4 1_555 1_555
C5 C4 1_555 1_555
H5 C5 1_555 1_555
C6 C1 1_555 1_555
C7 C6 1_555 1_555
C8 C7 1_555 1_555
C9 C8 1_555 1_555
C10 O4 1_555 1_555
C11 C10 1_555 1_555
H6 C11 1_555 1_555
C12 C11 1_555 1_555
H7 C12 1_555 1_555
C13 O1 1_555 1_555
C14 O3 1_555 1_555
H8 C14 1_555 1_555
H9 C14 1_555 1_555
H10 C14 1_555 1_555
O5 H11 1_555 1_555
H12 O5 1_555 1_555
C5 C6 1_555 1_555
C8 C13 1_555 1_555
C9 C10 1_555 1_555
C12 C13 1_555 1_555

#END
