
#######################################################################
#
#                 Cambridge Crystallographic Data Centre
#                                CCDC 
#
#######################################################################
#
# If this CIF has been generated from an entry in the Cambridge 
# Structural Database, then it will include bibliographic, chemical, 
# crystal, experimental, refinement or atomic coordinate data resulting 
# from the CCDC's data processing and validation procedures.
#
#######################################################################

data_PUGQEP
_chemical_formula_moiety         'C22 H20 O4 S1'
_chemical_name_systematic        
1-(4-Methoxyphenyl)-2-((4-methylphenyl)sulfonyl)-2-phenylethanone
_symmetry_cell_setting           monoclinic
_symmetry_space_group_name_H-M   'P 21/c'
_symmetry_Int_Tables_number      14
_space_group_name_Hall           '-P 2ybc'
loop_
_symmetry_equiv_pos_site_id
_symmetry_equiv_pos_as_xyz
1 x,y,z
2 -x,1/2+y,1/2-z
3 -x,-y,-z
4 x,1/2-y,1/2+z
_cell_length_a                   9.1482(3)
_cell_length_b                   19.0975(7)
_cell_length_c                   11.0856(4)
_cell_angle_alpha                90
_cell_angle_beta                 107.8390(10)
_cell_angle_gamma                90
_cell_volume                     1843.62
_exptl_crystal_colour            colorless
_cell_formula_units_Z            4
loop_
_atom_site_label
_atom_site_type_symbol
_atom_site_fract_x
_atom_site_fract_y
_atom_site_fract_z
S1 S 0.60521(4) 0.23393(2) 0.81179(4)
O1 O 0.71265(14) 0.61624(6) 0.51092(12)
O2 O 0.44435(12) 0.23383(6) 0.73997(11)
O3 O 0.65054(13) 0.23465(6) 0.94803(11)
O4 O 0.54617(13) 0.38052(6) 0.84620(11)
C1 C 0.9031(2) -0.01739(10) 0.6489(2)
H1 H 0.8541 -0.0606 0.6644
H2 H 1.0126 -0.0184 0.6971
H3 H 0.8914 -0.0134 0.5583
C2 C 0.8281(2) 0.04466(8) 0.69017(17)
C3 C 0.90240(19) 0.08065(9) 0.80118(17)
H4 H 1.0013 0.0656 0.8514
C4 C 0.83545(17) 0.13787(8) 0.84011(16)
H5 H 0.8869 0.1615 0.9168
C5 C 0.69148(17) 0.16016(7) 0.76504(15)
C6 C 0.69537(16) 0.30610(7) 0.75456(15)
H6 H 0.6780 0.2991 0.6618
C7 C 0.62096(17) 0.37578(8) 0.77243(15)
C8 C 0.65023(16) 0.43679(8) 0.70064(15)
C9 C 0.69624(17) 0.43035(8) 0.59271(15)
H7 H 0.7138 0.3851 0.5644
C10 C 0.71712(18) 0.48920(8) 0.52523(16)
H8 H 0.7468 0.4841 0.4507
C11 C 0.69394(17) 0.55539(8) 0.56840(16)
C12 C 0.7666(2) 0.61192(9) 0.40314(18)
H9 H 0.8687 0.5903 0.4279
H10 H 0.7727 0.6591 0.3701
H11 H 0.6955 0.5834 0.3374
C13 C 0.6842(2) 0.06786(8) 0.61745(16)
H12 H 0.6314 0.0434 0.5420
C14 C 0.61629(18) 0.12593(8) 0.65275(15)
H13 H 0.5193 0.1421 0.6007
C15 C 0.86727(17) 0.30627(7) 0.82058(15)
C16 C 0.92568(19) 0.32770(8) 0.94648(16)
H14 H 0.8588 0.3466 0.9890
C17 C 1.0821(2) 0.32142(9) 1.00986(17)
H15 H 1.1221 0.3360 1.0956
C18 C 1.17971(19) 0.29364(9) 0.94715(19)
H16 H 1.2859 0.2881 0.9910
C19 C 1.12240(18) 0.27403(9) 0.82123(18)
H17 H 1.1897 0.2561 0.7782
C20 C 0.96649(18) 0.28055(8) 0.75772(16)
H18 H 0.9274 0.2674 0.6711
C21 C 0.64978(18) 0.56288(8) 0.67762(16)
H19 H 0.6357 0.6082 0.7075
C22 C 0.62668(18) 0.50425(8) 0.74180(16)
H20 H 0.5944 0.5095 0.8150
loop_
_geom_bond_atom_site_label_1
_geom_bond_atom_site_label_2
_geom_bond_site_symmetry_1
_geom_bond_site_symmetry_2
S1 O2 1_555 1_555
O1 C11 1_555 1_555
O3 S1 1_555 1_555
O4 C7 1_555 1_555
C1 H1 1_555 1_555
H2 C1 1_555 1_555
H3 C1 1_555 1_555
C2 C1 1_555 1_555
C3 C2 1_555 1_555
H4 C3 1_555 1_555
C4 C3 1_555 1_555
H5 C4 1_555 1_555
C5 S1 1_555 1_555
C6 S1 1_555 1_555
H6 C6 1_555 1_555
C7 C6 1_555 1_555
C8 C7 1_555 1_555
C9 C8 1_555 1_555
H7 C9 1_555 1_555
C10 C9 1_555 1_555
H8 C10 1_555 1_555
C11 C10 1_555 1_555
C12 O1 1_555 1_555
H9 C12 1_555 1_555
H10 C12 1_555 1_555
H11 C12 1_555 1_555
C13 C2 1_555 1_555
H12 C13 1_555 1_555
C14 C5 1_555 1_555
H13 C14 1_555 1_555
C15 C6 1_555 1_555
C16 C15 1_555 1_555
H14 C16 1_555 1_555
C17 C16 1_555 1_555
H15 C17 1_555 1_555
C18 C17 1_555 1_555
H16 C18 1_555 1_555
C19 C18 1_555 1_555
H17 C19 1_555 1_555
C20 C15 1_555 1_555
H18 C20 1_555 1_555
C21 C11 1_555 1_555
H19 C21 1_555 1_555
C22 C8 1_555 1_555
H20 C22 1_555 1_555
C4 C5 1_555 1_555
C13 C14 1_555 1_555
C19 C20 1_555 1_555
C21 C22 1_555 1_555

#END
