
#######################################################################
#
#                 Cambridge Crystallographic Data Centre
#                                CCDC 
#
#######################################################################
#
# If this CIF has been generated from an entry in the Cambridge 
# Structural Database, then it will include bibliographic, chemical, 
# crystal, experimental, refinement or atomic coordinate data resulting 
# from the CCDC's data processing and validation procedures.
#
#######################################################################

data_PUGSUG
_chemical_name_common            
'6-(Nitrooxy)hexahydrofuro[3,2-b]furan-3-yl 3,4,5-triacetoxybenzoate'
_chemical_formula_moiety         'C19 H19 N1 O13'
_chemical_name_systematic        
'(1S,4S,5S,8R)-8-Nitrooxy-2,6-dioxabicyclo[3.3.0]octan-4-yl 3,4,5-triacetoxybenzoate'
_symmetry_cell_setting           monoclinic
_symmetry_space_group_name_H-M   'P 21'
_symmetry_Int_Tables_number      4
_space_group_name_Hall           'P 2yb'
loop_
_symmetry_equiv_pos_site_id
_symmetry_equiv_pos_as_xyz
1 x,y,z
2 -x,1/2+y,-z
_cell_length_a                   10.8053(19)
_cell_length_b                   6.5941(12)
_cell_length_c                   16.075(3)
_cell_angle_alpha                90
_cell_angle_beta                 108.243(3)
_cell_angle_gamma                90
_cell_volume                     1087.79
_exptl_crystal_colour            colorless
_exptl_crystal_description       block
_cell_formula_units_Z            2
_exptl_crystal_recrystallization_method 'hexane/ethyl acetate'
loop_
_atom_site_label
_atom_site_type_symbol
_atom_site_fract_x
_atom_site_fract_y
_atom_site_fract_z
N1 N -0.0658(8) 0.548(4) 0.4472(4)
O1 O -0.0166(3) 0.369(4) 0.28660(18)
O2 O 0.0245(3) 0.779(4) 0.21440(17)
O3 O 0.5258(2) -0.138(4) 0.32531(17)
O4 O 0.3795(4) -0.169(4) 0.39702(18)
O5 O 0.5277(3) -0.439(4) 0.20426(18)
O6 O 0.4726(3) -0.581(4) 0.3144(2)
O7 O 0.3201(3) -0.487(4) 0.05899(17)
O8 O 0.3616(5) -0.318(4) -0.0486(2)
O9 O 0.1465(2) 0.293(4) 0.17708(15)
O10 O 0.0434(3) 0.151(4) 0.04764(18)
O11 O -0.0735(3) 0.671(4) 0.37604(19)
O12 O 0.0378(6) 0.480(4) 0.4869(3)
O13 O -0.1700(6) 0.521(4) 0.4569(4)
C1 C 0.0854(4) 0.513(4) 0.3148(2)
H1 H 0.1656 0.4496 0.3520
C2 C -0.0643(4) 0.367(4) 0.1932(3)
H2 H -0.1403 0.4533 0.1719
H3 H -0.0876 0.2303 0.1715
C3 C 0.0463(4) 0.446(4) 0.1642(2)
H4 H 0.0175 0.5008 0.1046
C4 C 0.1061(4) 0.605(4) 0.2330(2)
H5 H 0.1975 0.6348 0.2395
C5 C 0.0305(6) 0.868(4) 0.2950(3)
H6 H -0.0496 0.9404 0.2899
H7 H 0.1025 0.9630 0.3130
C6 C 0.0497(5) 0.700(4) 0.3605(3)
H8 H 0.1190 0.7322 0.4149
C7 C 0.4899(5) -0.151(4) 0.3995(3)
C8 C 0.6060(5) -0.142(4) 0.4792(3)
H9 H 0.6213 -0.0044 0.4991
H10 H 0.6808 -0.1921 0.4655
H11 H 0.5910 -0.2243 0.5244
C9 C 0.5425(4) -0.574(4) 0.2703(3)
C10 C 0.6544(4) -0.711(4) 0.2740(3)
H12 H 0.6682 -0.8033 0.3223
H13 H 0.7315 -0.6313 0.2817
H14 H 0.6353 -0.7865 0.2204
C11 C 0.3353(5) -0.473(4) -0.0211(3)
C12 C 0.3109(6) -0.673(4) -0.0662(3)
H15 H 0.3250 -0.6620 -0.1221
H16 H 0.2225 -0.7137 -0.0745
H17 H 0.3693 -0.7721 -0.0311
C13 C 0.1323(4) 0.151(4) 0.1152(2)
C14 C 0.2370(4) -0.002(4) 0.1410(2)
C15 C 0.3335(4) 0.005(4) 0.2218(2)
H18 H 0.3348 0.1103 0.2605
C16 C 0.4267(4) -0.144(4) 0.2443(2)
C17 C 0.4261(4) -0.300(4) 0.1875(2)
C18 C 0.3280(4) -0.310(4) 0.1084(2)
C19 C 0.2337(4) -0.165(4) 0.0849(2)
H19 H 0.1675 -0.1745 0.0316
loop_
_geom_bond_atom_site_label_1
_geom_bond_atom_site_label_2
_geom_bond_site_symmetry_1
_geom_bond_site_symmetry_2
N1 O11 1_555 1_555
O1 C1 1_555 1_555
O2 C4 1_555 1_555
O3 C7 1_555 1_555
O4 C7 1_555 1_555
O5 C9 1_555 1_555
O6 C9 1_555 1_555
O7 C11 1_555 1_555
O8 C11 1_555 1_555
O9 C3 1_555 1_555
O10 C13 1_555 1_555
O11 C6 1_555 1_555
O12 N1 1_555 1_555
O13 N1 1_555 1_555
C1 H1 1_555 1_555
C2 O1 1_555 1_555
H2 C2 1_555 1_555
H3 C2 1_555 1_555
C3 C2 1_555 1_555
H4 C3 1_555 1_555
C4 C1 1_555 1_555
H5 C4 1_555 1_555
C5 O2 1_555 1_555
H6 C5 1_555 1_555
H7 C5 1_555 1_555
C6 C1 1_555 1_555
H8 C6 1_555 1_555
C7 C8 1_555 1_555
C8 H9 1_555 1_555
H10 C8 1_555 1_555
H11 C8 1_555 1_555
C9 C10 1_555 1_555
C10 H12 1_555 1_555
H13 C10 1_555 1_555
H14 C10 1_555 1_555
C11 C12 1_555 1_555
C12 H15 1_555 1_555
H16 C12 1_555 1_555
H17 C12 1_555 1_555
C13 O9 1_555 1_555
C14 C13 1_555 1_555
C15 C14 1_555 1_555
H18 C15 1_555 1_555
C16 O3 1_555 1_555
C17 O5 1_555 1_555
C18 O7 1_555 1_555
C19 C14 1_555 1_555
H19 C19 1_555 1_555
C3 C4 1_555 1_555
C5 C6 1_555 1_555
C15 C16 1_555 1_555
C16 C17 1_555 1_555
C17 C18 1_555 1_555
C18 C19 1_555 1_555

#END
