
#######################################################################
#
#                 Cambridge Crystallographic Data Centre
#                                CCDC 
#
#######################################################################
#
# If this CIF has been generated from an entry in the Cambridge 
# Structural Database, then it will include bibliographic, chemical, 
# crystal, experimental, refinement or atomic coordinate data resulting 
# from the CCDC's data processing and validation procedures.
#
#######################################################################

data_PUHDAY
_chemical_compound_source        'Stevia rebaudiana (Asteraceae) leaves'
_chemical_name_common            
'1,2-Dihydroxy-3-(hydroxymethyl)-5-methyloctahydroindolizinium bromide'
_chemical_formula_moiety         'C10 H20 N1 O3 1+,Br1 1-'
_chemical_name_systematic        
'(1R,2S,3R,5R,8aR)-3-hydroxymethyl-5-methyloctahydroindolizinium-1,2-diol bromide'
_symmetry_cell_setting           orthorhombic
_symmetry_space_group_name_H-M   'P 21 21 21'
_symmetry_Int_Tables_number      19
_space_group_name_Hall           'P 2ac 2ab'
loop_
_symmetry_equiv_pos_site_id
_symmetry_equiv_pos_as_xyz
1 x,y,z
2 1/2+x,1/2-y,-z
3 -x,1/2+y,1/2-z
4 1/2-x,-y,1/2+z
_cell_length_a                   8.46160(10)
_cell_length_b                   8.87620(10)
_cell_length_c                   15.8270(2)
_cell_angle_alpha                90
_cell_angle_beta                 90
_cell_angle_gamma                90
_cell_volume                     1188.72
_exptl_crystal_colour            colorless
_exptl_crystal_description       plate
_cell_formula_units_Z            4
_exptl_crystal_recrystallization_method ethanol
loop_
_atom_site_label
_atom_site_type_symbol
_atom_site_fract_x
_atom_site_fract_y
_atom_site_fract_z
Br1 Br 0.29652(3) 0.79140(2) 0.693045(16)
O1 O -0.0613(2) 0.2681(2) 0.63610(12)
C1 C 0.0377(3) 0.3939(3) 0.65007(17)
C2 C 0.1564(4) 0.3703(3) 0.72343(15)
O2 O 0.1230(3) 0.2427(2) 0.77338(12)
C3 C 0.3207(4) 0.3611(2) 0.68353(14)
N1 N 0.2994(3) 0.45785(19) 0.60566(10)
C4 C 0.1381(3) 0.4183(3) 0.57125(14)
C5 C 0.0873(3) 0.5356(3) 0.50829(16)
C6 C 0.2069(4) 0.5435(3) 0.43633(14)
C7 C 0.3726(3) 0.5724(3) 0.47093(16)
C8 C 0.4244(3) 0.4594(3) 0.53787(15)
C9 C 0.5841(3) 0.4996(4) 0.5756(2)
C10 C 0.3784(4) 0.2019(3) 0.66419(17)
O3 O 0.2695(3) 0.12282(19) 0.61308(12)
H1 H -0.0258 0.4840 0.6613
H2 H 0.1545 0.4576 0.7609
H3 H 0.4003 0.4116 0.7186
H4 H 0.1481 0.3216 0.5435
H5 H 0.0822 0.6334 0.5366
H6 H -0.0170 0.5096 0.4861
H7 H 0.1762 0.6219 0.3973
H8 H 0.2044 0.4458 0.4063
H9 H 0.3741 0.6720 0.4958
H10 H 0.4450 0.5700 0.4237
H11 H 0.4243 0.3580 0.5138
H12 H 0.6602 0.5024 0.5310
H13 H 0.5781 0.5970 0.6021
H14 H 0.6131 0.4254 0.6167
H15 H 0.3923 0.1509 0.7163
H16 H 0.4798 0.2080 0.6355
H17 H 0.2850 0.0336 0.6278
H18 H -0.1216 0.2726 0.6762
H19 H 0.0999 0.1687 0.7424
H20 H 0.2900 0.5607 0.6279
loop_
_geom_bond_atom_site_label_1
_geom_bond_atom_site_label_2
_geom_bond_site_symmetry_1
_geom_bond_site_symmetry_2
O1 C1 1_555 1_555
C1 C2 1_555 1_555
C2 O2 1_555 1_555
O2 H19 1_555 1_555
C3 C2 1_555 1_555
N1 C3 1_555 1_555
C4 C1 1_555 1_555
C5 C4 1_555 1_555
C6 C5 1_555 1_555
C7 C6 1_555 1_555
C8 N1 1_555 1_555
C9 C8 1_555 1_555
C10 C3 1_555 1_555
O3 C10 1_555 1_555
H1 C1 1_555 1_555
H2 C2 1_555 1_555
H3 C3 1_555 1_555
H4 C4 1_555 1_555
H5 C5 1_555 1_555
H6 C5 1_555 1_555
H7 C6 1_555 1_555
H8 C6 1_555 1_555
H9 C7 1_555 1_555
H10 C7 1_555 1_555
H11 C8 1_555 1_555
H12 C9 1_555 1_555
H13 C9 1_555 1_555
H14 C9 1_555 1_555
H15 C10 1_555 1_555
H16 C10 1_555 1_555
H17 O3 1_555 1_555
H18 O1 1_555 1_555
H20 N1 1_555 1_555
N1 C4 1_555 1_555
C7 C8 1_555 1_555

#END
