
#######################################################################
#
#                 Cambridge Crystallographic Data Centre
#                                CCDC 
#
#######################################################################
#
# If this CIF has been generated from an entry in the Cambridge 
# Structural Database, then it will include bibliographic, chemical, 
# crystal, experimental, refinement or atomic coordinate data resulting 
# from the CCDC's data processing and validation procedures.
#
#######################################################################

data_PUHFAA
_chemical_formula_moiety         'C14 H6 O7,C10 H8 N2'
_chemical_name_systematic        
"1,3-Dioxo-1H,3H-benzo[de]isochromene-6,7-dicarboxylic acid 4,4'-bipyridine"
_symmetry_cell_setting           triclinic
_symmetry_space_group_name_H-M   'P -1'
_symmetry_Int_Tables_number      2
_space_group_name_Hall           '-P 1'
loop_
_symmetry_equiv_pos_site_id
_symmetry_equiv_pos_as_xyz
1 x,y,z
2 -x,-y,-z
_cell_length_a                   9.6193(8)
_cell_length_b                   9.6964(3)
_cell_length_c                   10.1920(10)
_cell_angle_alpha                81.384(5)
_cell_angle_beta                 85.615(6)
_cell_angle_gamma                83.947(3)
_cell_volume                     932.885
_exptl_crystal_colour            yellow
_exptl_crystal_description       block
_cell_formula_units_Z            2
loop_
_atom_site_label
_atom_site_type_symbol
_atom_site_fract_x
_atom_site_fract_y
_atom_site_fract_z
O1 O 1.12369(10) 0.85984(10) 0.57565(9)
O2 O 0.55296(10) 0.61928(11) 0.24288(10)
O3 O 0.92667(10) 0.94482(10) 0.67238(10)
O4 O 0.83856(10) 0.51984(10) 0.08988(9)
O5 O 1.31804(10) 0.81386(10) 0.45444(10)
C1 C 0.90124(14) 0.79831(13) 0.50961(13)
C2 C 0.97444(13) 0.70939(13) 0.42367(13)
C3 C 0.89868(13) 0.63253(13) 0.34836(12)
C4 C 0.74906(14) 0.65192(13) 0.36207(13)
C5 C 0.98025(14) 0.54118(13) 0.26762(13)
C6 C 1.12245(14) 0.69889(13) 0.41277(13)
C7 C 0.68213(14) 0.74534(14) 0.44146(14)
H1 H 0.5828 0.7608 0.4452
C8 C 0.97886(14) 0.87102(13) 0.59342(13)
C9 C 1.19789(14) 0.79167(14) 0.47810(13)
C10 C 0.65343(14) 0.56573(14) 0.30445(13)
C11 C 1.19675(14) 0.60634(14) 0.33777(14)
H2 H 1.2962 0.5972 0.3331
C12 C 0.91902(14) 0.46243(14) 0.17226(13)
C13 C 0.75773(15) 0.81770(14) 0.51654(14)
H3 H 0.7098 0.8800 0.5721
C14 C 1.12416(14) 0.52589(14) 0.26854(14)
H4 H 1.1757 0.4585 0.2205
O6 O 0.68631(10) 0.43151(10) 0.33780(10)
H5 H 0.6303 0.3865 0.3059
O7 O 0.96983(10) 0.33081(10) 0.18631(10)
H6 H 0.9261 0.2867 0.1405
N1 N 0.46466(12) 0.72761(13) 0.75937(12)
N2 N 0.84743(12) 1.16076(13) 1.06975(12)
C15 C 0.62220(13) 0.89707(14) 0.87676(13)
C16 C 0.70313(13) 0.98835(14) 0.94187(13)
C17 C 0.52433(15) 0.95430(15) 0.78427(14)
H7 H 0.5101 1.0529 0.7596
C18 C 0.68533(16) 1.13357(15) 0.91138(14)
H8 H 0.6234 1.1769 0.8457
C19 C 0.55791(15) 0.67228(15) 0.84780(15)
H9 H 0.5694 0.5733 0.8706
C20 C 0.44849(15) 0.86730(15) 0.72895(14)
H10 H 0.3820 0.9081 0.6667
C21 C 0.63843(15) 0.75167(15) 0.90771(15)
H11 H 0.7043 0.7076 0.9694
C22 C 0.75874(16) 1.21431(15) 0.97767(14)
H12 H 0.7449 1.3133 0.9561
C23 C 0.86494(16) 1.02078(16) 1.10009(16)
H13 H 0.9275 0.9808 1.1663
C24 C 0.79578(16) 0.93242(16) 1.03902(15)
H14 H 0.8113 0.8338 1.0632
loop_
_geom_bond_atom_site_label_1
_geom_bond_atom_site_label_2
_geom_bond_site_symmetry_1
_geom_bond_site_symmetry_2
O1 C8 1_555 1_555
O2 C10 1_555 1_555
O3 C8 1_555 1_555
O4 C12 1_555 1_555
O5 C9 1_555 1_555
C1 C2 1_555 1_555
C2 C3 1_555 1_555
C3 C4 1_555 1_555
C4 C7 1_555 1_555
C5 C3 1_555 1_555
C6 C2 1_555 1_555
C7 H1 1_555 1_555
C8 C1 1_555 1_555
C9 O1 1_555 1_555
C10 C4 1_555 1_555
C11 C6 1_555 1_555
H2 C11 1_555 1_555
C12 C5 1_555 1_555
C13 C1 1_555 1_555
H3 C13 1_555 1_555
C14 C5 1_555 1_555
H4 C14 1_555 1_555
O6 C10 1_555 1_555
H5 O6 1_555 1_555
O7 C12 1_555 1_555
H6 O7 1_555 1_555
N1 C19 1_555 1_555
N2 C22 1_555 1_555
C15 C16 1_555 1_555
C16 C18 1_555 1_555
C17 C15 1_555 1_555
H7 C17 1_555 1_555
C18 H8 1_555 1_555
C19 H9 1_555 1_555
C20 N1 1_555 1_555
H10 C20 1_555 1_555
C21 C15 1_555 1_555
H11 C21 1_555 1_555
C22 C18 1_555 1_555
H12 C22 1_555 1_555
C23 N2 1_555 1_555
H13 C23 1_555 1_555
C24 C16 1_555 1_555
H14 C24 1_555 1_555
C6 C9 1_555 1_555
C7 C13 1_555 1_555
C11 C14 1_555 1_555
C17 C20 1_555 1_555
C19 C21 1_555 1_555
C23 C24 1_555 1_555

#END
