
#######################################################################
#
#                 Cambridge Crystallographic Data Centre
#                                CCDC 
#
#######################################################################
#
# If this CIF has been generated from an entry in the Cambridge 
# Structural Database, then it will include bibliographic, chemical, 
# crystal, experimental, refinement or atomic coordinate data resulting 
# from the CCDC's data processing and validation procedures.
#
#######################################################################

data_PUHGOP
_chemical_formula_moiety         'C34 H22,2(C5 H5 N1)'
_chemical_name_systematic        
'anti-9,10-Di(1-naphthyl)anthracene pyridine solvate'
_symmetry_cell_setting           monoclinic
_symmetry_space_group_name_H-M   'P 21/c'
_symmetry_Int_Tables_number      14
_space_group_name_Hall           '-P 2ybc'
loop_
_symmetry_equiv_pos_site_id
_symmetry_equiv_pos_as_xyz
1 x,y,z
2 -x,1/2+y,1/2-z
3 -x,-y,-z
4 x,1/2-y,1/2+z
_cell_length_a                   8.9810(18)
_cell_length_b                   24.166(5)
_cell_length_c                   7.2740(15)
_cell_angle_alpha                90
_cell_angle_beta                 93.34(3)
_cell_angle_gamma                90
_cell_volume                     1576.03
_exptl_crystal_colour            colorless
_exptl_crystal_description       block
_cell_formula_units_Z            2
_exptl_crystal_recrystallization_method pyridine/hexane
loop_
_atom_site_label
_atom_site_type_symbol
_atom_site_fract_x
_atom_site_fract_y
_atom_site_fract_z
C1 C 0.05625(11) 0.54185(4) 0.38731(15)
C2 C 0.11828(13) 0.58393(5) 0.27710(17)
H1 H 0.0574 0.6018 0.188
C3 C 0.26455(14) 0.59831(5) 0.29986(19)
H2 H 0.3027 0.6256 0.2256
C4 C 0.35912(13) 0.57214(5) 0.43571(19)
H3 H 0.4591 0.5822 0.4496
C5 C 0.30516(12) 0.53240(5) 0.54615(17)
H4 H 0.3687 0.5158 0.6353
C6 C 0.15163(11) 0.51567(4) 0.52738(15)
C7 C -0.09396(11) 0.52557(4) 0.36048(15)
C8 C -0.19254(12) 0.55196(5) 0.21282(15)
C9 C -0.26471(11) 0.60328(5) 0.24560(15)
C10 C -0.24646(12) 0.63180(5) 0.41558(17)
H5 H -0.1844 0.6171 0.51
C11 C -0.31893(14) 0.68071(5) 0.4428(2)
H6 H -0.3059 0.6989 0.5553
C12 C -0.41311(14) 0.70367(5) 0.3013(2)
H7 H -0.4615 0.737 0.3205
C13 C -0.43357(13) 0.67737(5) 0.1369(2)
H8 H -0.4966 0.6929 0.0449
C14 C -0.36078(12) 0.62677(5) 0.10307(17)
C15 C -0.38159(15) 0.59853(6) -0.06721(18)
H9 H -0.4441 0.6136 -0.1607
C16 C -0.31118(16) 0.54967(7) -0.09547(18)
H10 H -0.3257 0.5316 -0.2079
C17 C -0.21627(14) 0.52640(6) 0.04517(18)
H11 H -0.1687 0.493 0.0239
C1B C -0.05625(11) 0.45815(4) 0.61269(15)
C2B C -0.11828(13) 0.41607(5) 0.72290(17)
H1B H -0.0574 0.3982 0.812
C3B C -0.26455(14) 0.40169(5) 0.70014(19)
H2B H -0.3027 0.3744 0.7744
C4B C -0.35912(13) 0.42786(5) 0.56429(19)
H3B H -0.4591 0.4178 0.5504
C5B C -0.30516(12) 0.46760(5) 0.45385(17)
H4B H -0.3687 0.4842 0.3647
C6B C -0.15163(11) 0.48433(4) 0.47262(15)
C7B C 0.09396(11) 0.47443(4) 0.63952(15)
C8B C 0.19254(12) 0.44804(5) 0.78718(15)
C9B C 0.26471(11) 0.39672(5) 0.75440(15)
C10B C 0.24646(12) 0.36820(5) 0.58442(17)
H5B H 0.1844 0.3829 0.49
C11B C 0.31893(14) 0.31929(5) 0.5572(2)
H6B H 0.3059 0.3011 0.4447
C12B C 0.41311(14) 0.29633(5) 0.6987(2)
H7B H 0.4615 0.263 0.6795
C13B C 0.43357(13) 0.32263(5) 0.8631(2)
H8B H 0.4966 0.3071 0.9551
C14B C 0.36078(12) 0.37323(5) 0.89693(17)
C15B C 0.38159(15) 0.40147(6) 1.06721(18)
H9B H 0.4441 0.3864 1.1607
C16B C 0.31118(16) 0.45033(7) 1.09547(18)
H10B H 0.3257 0.4684 1.2079
C17B C 0.21627(14) 0.47360(6) 0.95483(18)
H11B H 0.1687 0.507 0.9761
N1 N 0.26262(13) 0.69991(6) 0.82489(18)
C18 C 0.19358(17) 0.74566(6) 0.8706(2)
H12 H 0.25000 0.7778 0.8841
C19 C 0.04512(18) 0.74902(8) 0.8994(2)
H13 H 0.0026 0.7826 0.9302
C20 C -0.03967(18) 0.70250(9) 0.8825(2)
H14 H -0.1409 0.7036 0.9029
C21 C 0.0270(2) 0.65402(8) 0.8348(2)
H15 H -0.0279 0.6215 0.8212
C22 C 0.1781(2) 0.65463(7) 0.8073(2)
H16 H 0.2232 0.6217 0.7748
loop_
_geom_bond_atom_site_label_1
_geom_bond_atom_site_label_2
_geom_bond_site_symmetry_1
_geom_bond_site_symmetry_2
C1 C2 1_555 1_555
C2 H1 1_555 1_555
C3 C2 1_555 1_555
H2 C3 1_555 1_555
C4 C3 1_555 1_555
H3 C4 1_555 1_555
C5 C4 1_555 1_555
H4 C5 1_555 1_555
C6 C1 1_555 1_555
C7 C1 1_555 1_555
C8 C7 1_555 1_555
C9 C8 1_555 1_555
C10 C9 1_555 1_555
H5 C10 1_555 1_555
C11 C10 1_555 1_555
H6 C11 1_555 1_555
C12 C11 1_555 1_555
H7 C12 1_555 1_555
C13 C12 1_555 1_555
H8 C13 1_555 1_555
C14 C9 1_555 1_555
C15 C14 1_555 1_555
H9 C15 1_555 1_555
C16 C15 1_555 1_555
H10 C16 1_555 1_555
C17 C8 1_555 1_555
H11 C17 1_555 1_555
N1 C18 1_555 1_555
C18 H12 1_555 1_555
C19 C18 1_555 1_555
H13 C19 1_555 1_555
C20 C19 1_555 1_555
H14 C20 1_555 1_555
C21 C20 1_555 1_555
H15 C21 1_555 1_555
C22 N1 1_555 1_555
H16 C22 1_555 1_555
C1B C2B 1_555 1_555
C2B H1B 1_555 1_555
C3B C2B 1_555 1_555
H2B C3B 1_555 1_555
C4B C3B 1_555 1_555
H3B C4B 1_555 1_555
C5B C4B 1_555 1_555
H4B C5B 1_555 1_555
C6B C7 1_555 1_555
C7B C6 1_555 1_555
C8B C7B 1_555 1_555
C9B C8B 1_555 1_555
C10B C9B 1_555 1_555
H5B C10B 1_555 1_555
C11B C10B 1_555 1_555
H6B C11B 1_555 1_555
C12B C11B 1_555 1_555
H7B C12B 1_555 1_555
C13B C12B 1_555 1_555
H8B C13B 1_555 1_555
C14B C9B 1_555 1_555
C15B C14B 1_555 1_555
H9B C15B 1_555 1_555
C16B C15B 1_555 1_555
H10B C16B 1_555 1_555
C17B C8B 1_555 1_555
H11B C17B 1_555 1_555
C5 C6 1_555 1_555
C13 C14 1_555 1_555
C16 C17 1_555 1_555
C21 C22 1_555 1_555
C1B C6B 1_555 1_555
C1B C7B 1_555 1_555
C5B C6B 1_555 1_555
C13B C14B 1_555 1_555
C16B C17B 1_555 1_555

#END
