
#######################################################################
#
#                 Cambridge Crystallographic Data Centre
#                                CCDC 
#
#######################################################################
#
# If this CIF has been generated from an entry in the Cambridge 
# Structural Database, then it will include bibliographic, chemical, 
# crystal, experimental, refinement or atomic coordinate data resulting 
# from the CCDC's data processing and validation procedures.
#
#######################################################################

data_PUHHOQ
_chemical_formula_moiety         'C6 H8 N6'
_chemical_name_systematic        
(5Z,7Z)-6,8-Dimethyl-9H-tetrazolo[1,5-b][1,2,4]triazepine
_symmetry_cell_setting           monoclinic
_symmetry_space_group_name_H-M   'P 21/c'
_symmetry_Int_Tables_number      14
_space_group_name_Hall           '-P 2ybc'
loop_
_symmetry_equiv_pos_site_id
_symmetry_equiv_pos_as_xyz
1 x,y,z
2 -x,1/2+y,1/2-z
3 -x,-y,-z
4 x,1/2-y,1/2+z
_cell_length_a                   3.9184(8)
_cell_length_b                   13.584(3)
_cell_length_c                   13.767(3)
_cell_angle_alpha                90
_cell_angle_beta                 96.274(3)
_cell_angle_gamma                90
_cell_volume                     728.395
_exptl_crystal_colour            red
_exptl_crystal_description       chunk
_chemical_melting_point          '477-479 K'
_cell_formula_units_Z            4
_exptl_crystal_recrystallization_method acetone
loop_
_atom_site_label
_atom_site_type_symbol
_atom_site_fract_x
_atom_site_fract_y
_atom_site_fract_z
N1 N 0.4467(3) 0.24707(7) 0.45448(7)
N2 N 0.5870(3) 0.24983(8) 0.36816(7)
N3 N 0.6547(3) 0.16030(8) 0.34635(8)
N4 N 0.5650(3) 0.09674(8) 0.41698(7)
N5 N 0.3238(3) 0.11503(8) 0.56546(8)
N6 N 0.3868(3) 0.34046(7) 0.49433(7)
C1 C 0.4389(3) 0.15238(9) 0.48318(8)
C2 C 0.1660(3) 0.16746(9) 0.63408(8)
C3 C 0.1175(3) 0.26544(9) 0.63462(9)
C4 C 0.2395(3) 0.34313(9) 0.57359(9)
C5 C 0.0598(3) 0.10241(9) 0.71313(9)
H1 H 0.2595 0.0819 0.7548
H2 H -0.0569 0.0456 0.6844
H3 H -0.0914 0.1380 0.7509
C6 C 0.1945(3) 0.44529(9) 0.61191(9)
H4 H 0.2920 0.4920 0.5705
H5 H 0.3084 0.4503 0.6771
H6 H -0.0457 0.4588 0.6126
H7 H 0.006(4) 0.2905(11) 0.6876(11)
H8 H 0.342(4) 0.0478(14) 0.5724(12)
loop_
_geom_bond_atom_site_label_1
_geom_bond_atom_site_label_2
_geom_bond_site_symmetry_1
_geom_bond_site_symmetry_2
N1 N2 1_555 1_555
N2 N3 1_555 1_555
N3 N4 1_555 1_555
N4 C1 1_555 1_555
N5 C1 1_555 1_555
N6 N1 1_555 1_555
C1 N1 1_555 1_555
C2 N5 1_555 1_555
C3 C2 1_555 1_555
C4 N6 1_555 1_555
C5 C2 1_555 1_555
H1 C5 1_555 1_555
H2 C5 1_555 1_555
H3 C5 1_555 1_555
C6 C4 1_555 1_555
H4 C6 1_555 1_555
H5 C6 1_555 1_555
H6 C6 1_555 1_555
H7 C3 1_555 1_555
H8 N5 1_555 1_555
C3 C4 1_555 1_555

#END
