
#######################################################################
#
#                 Cambridge Crystallographic Data Centre
#                                CCDC 
#
#######################################################################
#
# If this CIF has been generated from an entry in the Cambridge 
# Structural Database, then it will include bibliographic, chemical, 
# crystal, experimental, refinement or atomic coordinate data resulting 
# from the CCDC's data processing and validation procedures.
#
#######################################################################

data_PUHHEH
_chemical_formula_moiety         'C20 H10 N2 O2 S2,0.33(C1 H1 Cl3)'
_chemical_name_systematic        
'2,9-bis(2-Thienyl)-1,10-phenanthroline-5,6-dione chloroform solvate'
_symmetry_cell_setting           rhombohedral
_symmetry_space_group_name_H-M   'R 3 c'
_symmetry_Int_Tables_number      161
_space_group_name_Hall           'R 3 -2"c'
loop_
_symmetry_equiv_pos_site_id
_symmetry_equiv_pos_as_xyz
1 x,y,z
2 -y,x-y,z
3 -x+y,-x,z
4 -y,-x,1/2+z
5 x,x-y,1/2+z
6 -x+y,y,1/2+z
7 2/3+x,1/3+y,1/3+z
8 2/3-y,1/3+x-y,1/3+z
9 2/3-x+y,1/3-x,1/3+z
10 2/3-y,1/3-x,5/6+z
11 2/3+x,1/3+x-y,5/6+z
12 2/3-x+y,1/3+y,5/6+z
13 1/3+x,2/3+y,2/3+z
14 1/3-y,2/3+x-y,2/3+z
15 1/3-x+y,2/3-x,2/3+z
16 1/3-y,2/3-x,1/6+z
17 1/3+x,2/3+x-y,1/6+z
18 1/3-x+y,2/3+y,1/6+z
_cell_length_a                   31.499(13)
_cell_length_b                   31.499(13)
_cell_length_c                   9.449(4)
_cell_angle_alpha                90
_cell_angle_beta                 90
_cell_angle_gamma                120
_cell_volume                     8119.14
_exptl_crystal_colour            red
_exptl_crystal_description       block
_cell_formula_units_Z            18
loop_
_atom_site_label
_atom_site_type_symbol
_atom_site_fract_x
_atom_site_fract_y
_atom_site_fract_z
C1 C 0.1679(3) 0.5672(3) 0.6619(9)
C2 C 0.1877(3) 0.6110(4) 0.7369(10)
H1 H 0.2102 0.6176 0.8090
C3 C 0.1739(3) 0.6437(3) 0.7044(10)
H2 H 0.1865 0.6727 0.7556
C4 C 0.1407(3) 0.6347(3) 0.5943(10)
C5 C 0.1254(4) 0.6701(4) 0.5545(11)
C6 C 0.0890(4) 0.6566(3) 0.4327(11)
C7 C 0.0699(3) 0.6095(3) 0.3690(9)
C8 C 0.0353(3) 0.5941(4) 0.2603(11)
H3 H 0.0259 0.6158 0.2253
C9 C 0.0146(3) 0.5472(3) 0.2029(10)
H4 H -0.0084 0.5372 0.1304
C10 C 0.0294(2) 0.5161(3) 0.2577(9)
C11 C 0.0836(3) 0.5756(3) 0.4118(8)
C12 C 0.1208(3) 0.5890(3) 0.5260(9)
C13 C 0.1818(3) 0.5300(3) 0.6940(9)
C14 C 0.2121(3) 0.5294(3) 0.7989(10)
H5 H 0.2283 0.5539 0.8660
C15 C 0.2148(4) 0.4867(5) 0.7893(14)
H6 H 0.2323 0.4795 0.8547
C16 C 0.1911(5) 0.4568(5) 0.6821(13)
H7 H 0.1910 0.4278 0.6622
C17 C 0.0080(3) 0.4655(3) 0.2069(9)
C18 C -0.0275(2) 0.4425(2) 0.0885(7)
H8 H -0.0414 0.4566 0.0324
C19 C -0.0352(3) 0.3937(4) 0.0805(11)
H9 H -0.0550 0.3717 0.0111
C20 C -0.0125(4) 0.3813(3) 0.1779(12)
H10 H -0.0166 0.3500 0.1847
N1 N 0.1345(2) 0.5559(2) 0.5607(7)
N2 N 0.0636(2) 0.5296(2) 0.3610(7)
O1 O 0.1436(3) 0.7106(2) 0.6112(8)
O2 O 0.0752(3) 0.6857(2) 0.3988(8)
S1 S 0.16080(10) 0.47947(9) 0.5863(3)
S2 S 0.02404(9) 0.42737(9) 0.2871(3)
Cl1 Cl 0.3177(2) 0.6112(2) 0.0302(11)
C21 C 0.3333 0.6667 0.045(5)
H11 H 0.3333 0.6667 0.1464
Cl1A Cl 0.3888(2) 0.7065(3) 0.0302(11)
Cl1B Cl 0.2935(3) 0.6823(2) 0.0302(11)
loop_
_geom_bond_atom_site_label_1
_geom_bond_atom_site_label_2
_geom_bond_site_symmetry_1
_geom_bond_site_symmetry_2
C1 C2 1_555 1_555
C2 H1 1_555 1_555
C3 C2 1_555 1_555
H2 C3 1_555 1_555
C4 C3 1_555 1_555
C5 C4 1_555 1_555
C6 C5 1_555 1_555
C7 C6 1_555 1_555
C8 C7 1_555 1_555
H3 C8 1_555 1_555
C9 C8 1_555 1_555
H4 C9 1_555 1_555
C10 C9 1_555 1_555
C11 C7 1_555 1_555
C12 C4 1_555 1_555
C13 C1 1_555 1_555
C14 C13 1_555 1_555
H5 C14 1_555 1_555
C15 C14 1_555 1_555
H6 C15 1_555 1_555
C16 C15 1_555 1_555
H7 C16 1_555 1_555
C17 C10 1_555 1_555
C18 C17 1_555 1_555
H8 C18 1_555 1_555
C19 C18 1_555 1_555
H9 C19 1_555 1_555
C20 C19 1_555 1_555
H10 C20 1_555 1_555
N1 C1 1_555 1_555
N2 C10 1_555 1_555
O1 C5 1_555 1_555
O2 C6 1_555 1_555
S1 C13 1_555 1_555
S2 C17 1_555 1_555
Cl1 C21 1_555 1_555
C21 H11 1_555 1_555
Cl1A C21 1_555 1_555
Cl1B C21 1_555 1_555
C11 C12 1_555 1_555
C11 N2 1_555 1_555
C12 N1 1_555 1_555
C16 S1 1_555 1_555
C20 S2 1_555 1_555

#END
