
#######################################################################
#
#                 Cambridge Crystallographic Data Centre
#                                CCDC 
#
#######################################################################
#
# If this CIF has been generated from an entry in the Cambridge 
# Structural Database, then it will include bibliographic, chemical, 
# crystal, experimental, refinement or atomic coordinate data resulting 
# from the CCDC's data processing and validation procedures.
#
#######################################################################

data_PUHJIM
_chemical_formula_moiety         'C2 H4 N6 O1'
_chemical_name_systematic        N-(5-Amino-1H-tetrazol-1-yl)formamide
_symmetry_cell_setting           orthorhombic
_symmetry_space_group_name_H-M   'P n n 2'
_symmetry_Int_Tables_number      34
_space_group_name_Hall           'P 2 -2n'
loop_
_symmetry_equiv_pos_site_id
_symmetry_equiv_pos_as_xyz
1 x,y,z
2 -x,-y,z
3 1/2+x,1/2-y,1/2+z
4 1/2-x,1/2+y,1/2+z
_cell_length_a                   10.232(10)
_cell_length_b                   12.054(12)
_cell_length_c                   4.208(4)
_cell_angle_alpha                90
_cell_angle_beta                 90
_cell_angle_gamma                90
_cell_volume                     519
_exptl_crystal_colour            colorless
_exptl_crystal_description       platelet
_cell_formula_units_Z            4
_exptl_crystal_recrystallization_method methanol/acetone
loop_
_atom_site_label
_atom_site_type_symbol
_atom_site_fract_x
_atom_site_fract_y
_atom_site_fract_z
O1 O 0.32520(17) 0.52017(15) 0.4700(5)
N1 N 0.53348(19) 0.80213(18) 0.7377(6)
N2 N 0.4393(2) 0.85281(17) 0.5557(6)
N3 N 0.3276(2) 0.80311(18) 0.5797(6)
N4 N 0.34795(18) 0.71697(17) 0.7884(6)
N5 N 0.2526(2) 0.6400(2) 0.8533(6)
N6 N 0.5250(2) 0.64294(19) 1.0818(6)
C1 C 0.4751(2) 0.7167(2) 0.8815(6)
C2 C 0.2470(2) 0.5459(2) 0.6773(7)
H1 H 0.1769 0.4961 0.7180
H2 H 0.196(3) 0.661(2) 0.986(9)
H3 H 0.607(3) 0.645(2) 1.134(8)
H4 H 0.473(3) 0.596(2) 1.192(8)
loop_
_geom_bond_atom_site_label_1
_geom_bond_atom_site_label_2
_geom_bond_site_symmetry_1
_geom_bond_site_symmetry_2
O1 C2 1_555 1_555
N1 N2 1_555 1_555
N2 N3 1_555 1_555
N3 N4 1_555 1_555
N4 N5 1_555 1_555
N5 C2 1_555 1_555
N6 C1 1_555 1_555
C1 N1 1_555 1_555
C2 H1 1_555 1_555
H2 N5 1_555 1_555
H3 N6 1_555 1_555
H4 N6 1_555 1_555
N4 C1 1_555 1_555

#END
