
#######################################################################
#
#                 Cambridge Crystallographic Data Centre
#                                CCDC 
#
#######################################################################
#
# If this CIF has been generated from an entry in the Cambridge 
# Structural Database, then it will include bibliographic, chemical, 
# crystal, experimental, refinement or atomic coordinate data resulting 
# from the CCDC's data processing and validation procedures.
#
#######################################################################

data_PUHKOU
_chemical_formula_moiety         'C29 H26 N4 O3'
_chemical_name_systematic        
"t-Butyl 5'-amino-4'-cyano-2-oxo-1,3'-diphenyl-1,2-dihydrospiro[indole-3,2'-pyrrole]-1'(3'H)-carboxylate"
_symmetry_cell_setting           monoclinic
_symmetry_space_group_name_H-M   'P 21/c'
_symmetry_Int_Tables_number      14
_space_group_name_Hall           '-P 2ybc'
loop_
_symmetry_equiv_pos_site_id
_symmetry_equiv_pos_as_xyz
1 x,y,z
2 -x,1/2+y,1/2-z
3 -x,-y,-z
4 x,1/2-y,1/2+z
_cell_length_a                   11.7254(12)
_cell_length_b                   25.241(3)
_cell_length_c                   16.5753(17)
_cell_angle_alpha                90
_cell_angle_beta                 92.352(2)
_cell_angle_gamma                90
_cell_volume                     4901.51
_exptl_crystal_colour            colorless
_exptl_crystal_description       block
_cell_formula_units_Z            8
loop_
_atom_site_label
_atom_site_type_symbol
_atom_site_fract_x
_atom_site_fract_y
_atom_site_fract_z
O1 O -0.04329(7) 0.11089(4) 0.07252(5)
O2 O -0.04728(7) 0.08628(4) -0.05959(5)
O3 O 0.17989(7) 0.18873(3) 0.07709(5)
N1 N 0.11600(8) 0.08141(4) 0.02202(6)
N2 N 0.15207(8) 0.15491(4) 0.20516(6)
N3 N 0.49330(10) 0.05932(6) -0.07168(7)
N4 N 0.16340(9) 0.06798(5) -0.11500(6)
H1 H 0.2136(11) 0.0660(6) -0.1519(8)
H2 H 0.0929(8) 0.0718(6) -0.1271(9)
C1 C -0.19887(16) 0.16678(7) 0.01783(10)
H3 H -0.1458 0.1965 0.0257
H4 H -0.2767 0.1788 0.0271
H5 H -0.1948 0.1534 -0.0375
C2 C -0.16693(10) 0.12308(6) 0.07669(8)
C3 C 0.00140(10) 0.09284(5) 0.00563(7)
C4 C 0.17285(9) 0.09223(5) 0.10109(7)
C5 C 0.16925(9) 0.15184(5) 0.12295(7)
C6 C 0.15672(10) 0.20270(5) 0.25152(7)
C7 C 0.25295(10) 0.23468(5) 0.24935(7)
H6 H 0.3146 0.2252 0.2168
C8 C 0.25792(12) 0.28075(5) 0.29532(8)
H7 H 0.3225 0.3034 0.2930
C9 C 0.16946(12) 0.29391(5) 0.34450(8)
H8 H 0.1744 0.3250 0.3768
C10 C -0.23561(13) 0.07310(7) 0.06203(12)
H9 H -0.2266 0.0610 0.0065
H10 H -0.3164 0.0803 0.0704
H11 H -0.2084 0.0455 0.0997
C11 C -0.17164(13) 0.14244(8) 0.16327(9)
H12 H -0.1446 0.1144 0.2002
H13 H -0.2505 0.1517 0.1749
H14 H -0.1229 0.1738 0.1706
C12 C 0.12519(9) 0.06676(5) 0.17416(7)
C13 C 0.09298(10) 0.01500(5) 0.18786(7)
H15 H 0.0955 -0.0108 0.1463
C14 C 0.05667(10) 0.00168(5) 0.26441(8)
H16 H 0.0310 -0.0333 0.2745
C15 C 0.05760(10) 0.03891(5) 0.32587(8)
H17 H 0.0351 0.0286 0.3780
C16 C 0.09096(10) 0.09121(5) 0.31277(7)
H18 H 0.0923 0.1167 0.3550
C17 C 0.12208(9) 0.10446(5) 0.23550(7)
C18 C 0.06667(10) 0.21636(5) 0.29925(7)
H19 H 0.0004 0.1947 0.2996
C19 C 0.07379(11) 0.26180(5) 0.34652(8)
H20 H 0.0131 0.2708 0.3802
C20 C 0.29967(9) 0.07310(5) 0.08879(7)
H21 H 0.3068 0.0358 0.1089
C21 C 0.38834(10) 0.10634(5) 0.13413(7)
C22 C 0.43334(10) 0.15215(5) 0.10095(8)
H22 H 0.4119 0.1621 0.0472
C23 C 0.50993(11) 0.18333(7) 0.14678(10)
H23 H 0.5409 0.2145 0.1242
C24 C 0.54069(12) 0.16869(8) 0.22514(10)
H24 H 0.5916 0.1903 0.2567
C25 C 0.49823(12) 0.12318(9) 0.25750(9)
H25 H 0.5206 0.1132 0.3111
C26 C 0.42274(11) 0.09157(7) 0.21238(8)
H26 H 0.3944 0.0598 0.2349
C27 C 0.30433(10) 0.07206(5) -0.00204(7)
C28 C 0.40691(10) 0.06429(5) -0.04197(7)
C29 C 0.19708(10) 0.07358(5) -0.03750(7)
O4 O 0.88060(7) 0.11722(3) 0.61888(5)
O5 O 0.86765(7) 0.12387(3) 0.75551(5)
O6 O 0.66343(7) 0.19634(3) 0.60501(5)
N5 N 0.71966(8) 0.09278(4) 0.67248(6)
N6 N 0.69300(8) 0.15582(4) 0.48180(6)
N7 N 0.67245(9) 0.07710(4) 0.80884(6)
H27 H 0.6214(11) 0.0735(6) 0.8438(8)
H28 H 0.7400(9) 0.0872(6) 0.8234(9)
N8 N 0.34049(9) 0.06783(5) 0.76220(7)
C30 C 1.08473(10) 0.12237(6) 0.66426(8)
H29 H 1.0687 0.1285 0.7211
H30 H 1.1576 0.1390 0.6521
H31 H 1.0890 0.0842 0.6541
C31 C 0.99016(9) 0.14634(5) 0.61092(7)
C32 C 0.82865(9) 0.11336(4) 0.68888(7)
C33 C 0.66360(9) 0.09927(4) 0.59211(7)
C34 C 0.67272(9) 0.15727(4) 0.56330(7)
C35 C 0.68367(9) 0.20108(5) 0.43020(7)
C36 C 0.58685(10) 0.23264(5) 0.43229(7)
H32 H 0.5290 0.2250 0.4690
C37 C 0.57556(11) 0.27555(5) 0.38012(8)
H33 H 0.5100 0.2976 0.3817
C38 C 0.65903(12) 0.28646(6) 0.32578(8)
H34 H 0.6495 0.3152 0.2892
C39 C 0.97028(12) 0.20422(5) 0.62881(10)
H35 H 0.9039 0.2169 0.5965
H36 H 1.0378 0.2247 0.6153
H37 H 0.9562 0.2086 0.6863
C40 C 1.01246(11) 0.13700(7) 0.52236(8)
H38 H 1.0178 0.0988 0.5122
H39 H 1.0843 0.1541 0.5090
H40 H 0.9497 0.1520 0.4888
C41 C 0.63844(9) 0.08430(5) 0.73166(7)
C42 C 0.53105(10) 0.08219(5) 0.69571(7)
C43 C 0.42832(10) 0.07363(5) 0.73485(7)
C44 C 0.53469(9) 0.08384(5) 0.60500(7)
H41 H 0.5224 0.0470 0.5843
C45 C 0.44948(9) 0.11975(5) 0.56063(7)
C46 C 0.41816(10) 0.10848(5) 0.48014(7)
H42 H 0.4481 0.0779 0.4551
C47 C 0.34372(10) 0.14143(6) 0.43629(8)
H43 H 0.3237 0.1336 0.3815
C48 C 0.29878(10) 0.18580(6) 0.47269(8)
H44 H 0.2476 0.2083 0.4429
C49 C 0.32855(10) 0.19740(5) 0.55266(8)
H45 H 0.2974 0.2277 0.5776
C50 C 0.40398(10) 0.16464(5) 0.59643(7)
H46 H 0.4246 0.1729 0.6510
C51 C 0.70820(9) 0.06866(5) 0.52224(7)
C52 C 0.72677(10) 0.01510(5) 0.51314(7)
H47 H 0.7219 -0.0083 0.5577
C53 C 0.75290(11) -0.00405(5) 0.43709(8)
H48 H 0.7664 -0.0408 0.4297
C54 C 0.75920(11) 0.03041(5) 0.37216(8)
H49 H 0.7760 0.0167 0.3206
C55 C 0.74148(10) 0.08480(5) 0.38088(7)
H50 H 0.7467 0.1083 0.3364
C56 C 0.71604(9) 0.10313(5) 0.45693(7)
C57 C 0.75648(11) 0.25537(6) 0.32475(8)
H51 H 0.8141 0.2632 0.2879
C58 C 0.76998(10) 0.21277(5) 0.37751(7)
H52 H 0.8373 0.1918 0.3777
loop_
_geom_bond_atom_site_label_1
_geom_bond_atom_site_label_2
_geom_bond_site_symmetry_1
_geom_bond_site_symmetry_2
O1 C2 1_555 1_555
O2 C3 1_555 1_555
O3 C5 1_555 1_555
N1 C3 1_555 1_555
N2 C5 1_555 1_555
N3 C28 1_555 1_555
N4 H1 1_555 1_555
H2 N4 1_555 1_555
C1 H3 1_555 1_555
H4 C1 1_555 1_555
H5 C1 1_555 1_555
C2 C1 1_555 1_555
C3 O1 1_555 1_555
C4 N1 1_555 1_555
C5 C4 1_555 1_555
C6 N2 1_555 1_555
C7 C6 1_555 1_555
H6 C7 1_555 1_555
C8 C7 1_555 1_555
H7 C8 1_555 1_555
C9 C8 1_555 1_555
H8 C9 1_555 1_555
C10 C2 1_555 1_555
H9 C10 1_555 1_555
H10 C10 1_555 1_555
H11 C10 1_555 1_555
C11 C2 1_555 1_555
H12 C11 1_555 1_555
H13 C11 1_555 1_555
H14 C11 1_555 1_555
C12 C4 1_555 1_555
C13 C12 1_555 1_555
H15 C13 1_555 1_555
C14 C13 1_555 1_555
H16 C14 1_555 1_555
C15 C14 1_555 1_555
H17 C15 1_555 1_555
C16 C15 1_555 1_555
H18 C16 1_555 1_555
C17 N2 1_555 1_555
C18 C6 1_555 1_555
H19 C18 1_555 1_555
C19 C9 1_555 1_555
H20 C19 1_555 1_555
C20 C4 1_555 1_555
H21 C20 1_555 1_555
C21 C20 1_555 1_555
C22 C21 1_555 1_555
H22 C22 1_555 1_555
C23 C22 1_555 1_555
H23 C23 1_555 1_555
C24 C23 1_555 1_555
H24 C24 1_555 1_555
C25 C24 1_555 1_555
H25 C25 1_555 1_555
C26 C21 1_555 1_555
H26 C26 1_555 1_555
C27 C20 1_555 1_555
C28 C27 1_555 1_555
C29 N1 1_555 1_555
O4 C31 1_555 1_555
O5 C32 1_555 1_555
O6 C34 1_555 1_555
N5 C32 1_555 1_555
N6 C34 1_555 1_555
N7 H27 1_555 1_555
H28 N7 1_555 1_555
N8 C43 1_555 1_555
C30 H29 1_555 1_555
H30 C30 1_555 1_555
H31 C30 1_555 1_555
C31 C30 1_555 1_555
C32 O4 1_555 1_555
C33 N5 1_555 1_555
C34 C33 1_555 1_555
C35 N6 1_555 1_555
C36 C35 1_555 1_555
H32 C36 1_555 1_555
C37 C36 1_555 1_555
H33 C37 1_555 1_555
C38 C37 1_555 1_555
H34 C38 1_555 1_555
C39 C31 1_555 1_555
H35 C39 1_555 1_555
H36 C39 1_555 1_555
H37 C39 1_555 1_555
C40 C31 1_555 1_555
H38 C40 1_555 1_555
H39 C40 1_555 1_555
H40 C40 1_555 1_555
C41 N5 1_555 1_555
C42 C41 1_555 1_555
C43 C42 1_555 1_555
C44 C33 1_555 1_555
H41 C44 1_555 1_555
C45 C44 1_555 1_555
C46 C45 1_555 1_555
H42 C46 1_555 1_555
C47 C46 1_555 1_555
H43 C47 1_555 1_555
C48 C47 1_555 1_555
H44 C48 1_555 1_555
C49 C48 1_555 1_555
H45 C49 1_555 1_555
C50 C45 1_555 1_555
H46 C50 1_555 1_555
C51 C33 1_555 1_555
C52 C51 1_555 1_555
H47 C52 1_555 1_555
C53 C52 1_555 1_555
H48 C53 1_555 1_555
C54 C53 1_555 1_555
H49 C54 1_555 1_555
C55 C54 1_555 1_555
H50 C55 1_555 1_555
C56 N6 1_555 1_555
C57 C38 1_555 1_555
H51 C57 1_555 1_555
C58 C35 1_555 1_555
H52 C58 1_555 1_555
N4 C29 1_555 1_555
C12 C17 1_555 1_555
C16 C17 1_555 1_555
C18 C19 1_555 1_555
C25 C26 1_555 1_555
C27 C29 1_555 1_555
N7 C41 1_555 1_555
C42 C44 1_555 1_555
C49 C50 1_555 1_555
C51 C56 1_555 1_555
C55 C56 1_555 1_555
C57 C58 1_555 1_555

#END
