
#######################################################################
#
#                 Cambridge Crystallographic Data Centre
#                                CCDC 
#
#######################################################################
#
# If this CIF has been generated from an entry in the Cambridge 
# Structural Database, then it will include bibliographic, chemical, 
# crystal, experimental, refinement or atomic coordinate data resulting 
# from the CCDC's data processing and validation procedures.
#
#######################################################################

data_PUHKIO
_chemical_formula_moiety         'C34 H26 O2'
_chemical_name_systematic        1,4-bis((2,2-Diphenylvinyl)oxy)benzene
_symmetry_cell_setting           triclinic
_symmetry_space_group_name_H-M   'P -1'
_symmetry_Int_Tables_number      2
_space_group_name_Hall           '-P 1'
loop_
_symmetry_equiv_pos_site_id
_symmetry_equiv_pos_as_xyz
1 x,y,z
2 -x,-y,-z
_cell_length_a                   7.6112(3)
_cell_length_b                   9.5451(4)
_cell_length_c                   10.1174(5)
_cell_angle_alpha                66.883(2)
_cell_angle_beta                 71.192(3)
_cell_angle_gamma                68.760(3)
_cell_volume                     616.013
_exptl_crystal_colour            colorless
_cell_formula_units_Z            1
loop_
_atom_site_label
_atom_site_type_symbol
_atom_site_fract_x
_atom_site_fract_y
_atom_site_fract_z
O1 O 0.28969(13) 1.22036(10) 0.52597(10)
C1 C 0.7645(2) 1.01383(16) 0.85440(16)
H1 H 0.8574 1.0252 0.8908
C2 C 0.5986(2) 1.13556(16) 0.82944(16)
H2 H 0.5783 1.2309 0.8482
C3 C 0.4622(2) 1.11902(15) 0.77730(15)
H3 H 0.3483 1.2028 0.7617
C4 C 0.49017(19) 0.98045(15) 0.74741(14)
C5 C 0.34400(19) 0.96002(15) 0.69290(14)
C6 C 0.24367(19) 1.07774(15) 0.59724(15)
H4 H 0.1385 1.0631 0.5778
C7 C 0.14006(19) 1.35744(15) 0.51392(15)
C8 C -0.03644(19) 1.36557(15) 0.61295(15)
H5 H -0.0606 1.2735 0.6902
C9 C 0.1771(2) 1.49092(15) 0.40174(15)
H6 H 0.2985 1.4844 0.3349
C10 C 0.2264(2) 0.50883(16) 0.85226(17)
H7 H 0.1978 0.4097 0.8883
C11 C 0.2523(2) 0.56811(16) 0.94723(16)
H8 H 0.2421 0.5093 1.0487
C12 C 0.2931(2) 0.71303(16) 0.89484(16)
H9 H 0.3117 0.7523 0.9609
C13 C 0.30728(18) 0.80214(15) 0.74650(15)
C14 C 0.28368(19) 0.74006(15) 0.65131(15)
H10 H 0.2959 0.7976 0.5495
C15 C 0.2424(2) 0.59479(16) 0.70426(17)
H11 H 0.2251 0.5542 0.6387
C16 C 0.79407(19) 0.87576(16) 0.82600(15)
H12 H 0.9079 0.7922 0.8424
C17 C 0.65800(19) 0.85883(16) 0.77364(15)
H13 H 0.6792 0.7631 0.7553
O1A O -0.28969(13) 1.77964(10) 0.47403(10)
C1A C -0.7645(2) 1.98617(16) 0.14560(16)
H1A H -0.8574 1.9748 0.1092
C2A C -0.5986(2) 1.86444(16) 0.17056(16)
H2A H -0.5783 1.7691 0.1518
C3A C -0.4622(2) 1.88098(15) 0.22270(15)
H3A H -0.3483 1.7972 0.2383
C4A C -0.49017(19) 2.01955(15) 0.25259(14)
C5A C -0.34400(19) 2.03998(15) 0.30710(14)
C6A C -0.24367(19) 1.92226(15) 0.40276(15)
H4A H -0.1385 1.9369 0.4222
C7A C -0.14006(19) 1.64256(15) 0.48608(15)
C8A C 0.03644(19) 1.63443(15) 0.38705(15)
H5A H 0.0606 1.7265 0.3098
C9A C -0.1771(2) 1.50908(15) 0.59826(15)
H6A H -0.2985 1.5156 0.6651
C10A C -0.2264(2) 2.49117(16) 0.14774(17)
H7A H -0.1978 2.5903 0.1117
C11A C -0.2523(2) 2.43189(16) 0.05277(16)
H8A H -0.2421 2.4907 -0.0487
C12A C -0.2931(2) 2.28697(16) 0.10516(16)
H9A H -0.3117 2.2477 0.0391
C13A C -0.30728(18) 2.19786(15) 0.25350(15)
C14A C -0.28368(19) 2.25994(15) 0.34869(15)
H10A H -0.2959 2.2024 0.4505
C15A C -0.2424(2) 2.40521(16) 0.29574(17)
H11A H -0.2251 2.4458 0.3613
C16A C -0.79407(19) 2.12424(16) 0.17400(15)
H12A H -0.9079 2.2078 0.1576
C17A C -0.65800(19) 2.14117(16) 0.22636(15)
H13A H -0.6792 2.2369 0.2447
loop_
_geom_bond_atom_site_label_1
_geom_bond_atom_site_label_2
_geom_bond_site_symmetry_1
_geom_bond_site_symmetry_2
O1 C6 1_555 1_555
C1 H1 1_555 1_555
C2 C1 1_555 1_555
H2 C2 1_555 1_555
C3 C2 1_555 1_555
H3 C3 1_555 1_555
C4 C3 1_555 1_555
C5 C4 1_555 1_555
C6 C5 1_555 1_555
H4 C6 1_555 1_555
C7 O1 1_555 1_555
C8 C7 1_555 1_555
H5 C8 1_555 1_555
C9 C7 1_555 1_555
H6 C9 1_555 1_555
C10 H7 1_555 1_555
C11 C10 1_555 1_555
H8 C11 1_555 1_555
C12 C11 1_555 1_555
H9 C12 1_555 1_555
C13 C5 1_555 1_555
C14 C13 1_555 1_555
H10 C14 1_555 1_555
C15 C10 1_555 1_555
H11 C15 1_555 1_555
C16 C1 1_555 1_555
H12 C16 1_555 1_555
C17 C4 1_555 1_555
H13 C17 1_555 1_555
O1A C6A 1_555 1_555
C1A H1A 1_555 1_555
C2A C1A 1_555 1_555
H2A C2A 1_555 1_555
C3A C2A 1_555 1_555
H3A C3A 1_555 1_555
C4A C3A 1_555 1_555
C5A C4A 1_555 1_555
C6A C5A 1_555 1_555
H4A C6A 1_555 1_555
C7A O1A 1_555 1_555
C8A C9 1_555 1_555
H5A C8A 1_555 1_555
C9A C8 1_555 1_555
H6A C9A 1_555 1_555
C10A H7A 1_555 1_555
C11A C10A 1_555 1_555
H8A C11A 1_555 1_555
C12A C11A 1_555 1_555
H9A C12A 1_555 1_555
C13A C5A 1_555 1_555
C14A C13A 1_555 1_555
H10A C14A 1_555 1_555
C15A C10A 1_555 1_555
H11A C15A 1_555 1_555
C16A C1A 1_555 1_555
H12A C16A 1_555 1_555
C17A C4A 1_555 1_555
H13A C17A 1_555 1_555
C12 C13 1_555 1_555
C14 C15 1_555 1_555
C16 C17 1_555 1_555
C7A C8A 1_555 1_555
C7A C9A 1_555 1_555
C12A C13A 1_555 1_555
C14A C15A 1_555 1_555
C16A C17A 1_555 1_555

#END
