
#######################################################################
#
#                 Cambridge Crystallographic Data Centre
#                                CCDC 
#
#######################################################################
#
# If this CIF has been generated from an entry in the Cambridge 
# Structural Database, then it will include bibliographic, chemical, 
# crystal, experimental, refinement or atomic coordinate data resulting 
# from the CCDC's data processing and validation procedures.
#
#######################################################################

data_PUHLUB
_chemical_formula_moiety         'C21 H18 Br1 N1 O1'
_chemical_name_systematic        
(R)-8-Bromo-11-(cyclohex-1-en-1-ylethynyl)-10,11-dihydrodibenzo[b,f][1,4]oxazepine
_symmetry_cell_setting           orthorhombic
_symmetry_space_group_name_H-M   'P 21 21 21'
_symmetry_Int_Tables_number      19
_space_group_name_Hall           'P 2ac 2ab'
loop_
_symmetry_equiv_pos_site_id
_symmetry_equiv_pos_as_xyz
1 x,y,z
2 1/2-x,-y,1/2+z
3 -x,1/2+y,1/2-z
4 1/2+x,1/2-y,-z
_cell_length_a                   5.8502(7)
_cell_length_b                   11.4700(14)
_cell_length_c                   26.509(3)
_cell_angle_alpha                90
_cell_angle_beta                 90
_cell_angle_gamma                90
_cell_volume                     1778.8
_exptl_crystal_colour            colorless
_exptl_crystal_description       prismatic
_cell_formula_units_Z            4
loop_
_atom_site_label
_atom_site_type_symbol
_atom_site_fract_x
_atom_site_fract_y
_atom_site_fract_z
Br1 Br 0.66101(10) 1.23257(5) -0.11402(2)
N1 N 0.6046(7) 1.0547(4) 0.06637(16)
O1 O 0.1295(5) 0.9842(3) 0.04859(12)
C1 C 0.4037(8) 0.8740(4) 0.09562(16)
C2 C 0.4758(10) 0.7675(5) 0.11344(18)
H1 H 0.6066 0.7632 0.1333
C3 C 0.3566(12) 0.6672(5) 0.1022(2)
H2 H 0.4094 0.5956 0.1139
C4 C 0.1576(13) 0.6722(5) 0.0735(2)
H3 H 0.0727 0.6051 0.0674
C5 C 0.0879(8) 0.7782(5) 0.05419(19)
H4 H -0.0404 0.7825 0.0335
C6 C 0.2089(8) 0.8769(4) 0.06565(16)
C7 C 0.2656(7) 1.0387(4) 0.01167(17)
C8 C 0.1642(8) 1.0587(4) -0.03417(17)
H5 H 0.0167 1.0317 -0.0400
C9 C 0.2785(8) 1.1186(4) -0.07180(17)
H6 H 0.2098 1.1330 -0.1028
C10 C 0.4952(8) 1.1558(4) -0.06185(16)
C11 C 0.5984(7) 1.1369(4) -0.01634(17)
H7 H 0.7448 1.1659 -0.0108
C12 C 0.4891(7) 1.0749(4) 0.02211(15)
C13 C 0.5130(8) 0.9897(4) 0.10942(16)
H8 H 0.3926 1.0380 0.1243
C14 C 0.6952(9) 0.9798(4) 0.14731(17)
C15 C 0.8468(10) 0.9715(4) 0.17666(17)
C16 C 1.0239(10) 0.9634(5) 0.21344(17)
C17 C 1.1309(12) 0.8619(6) 0.2222(2)
C18 C 1.345(4) 0.8638(17) 0.2559(9)
H9 H 1.3284 0.8027 0.2809
H10 H 1.4752 0.8435 0.2350
C19 C 1.400(2) 0.9729(13) 0.2826(7)
H11 H 1.4816 0.9547 0.3135
H12 H 1.4989 1.0203 0.2616
C20 C 1.194(2) 1.0385(10) 0.2948(4)
H13 H 1.2379 1.1124 0.3097
H14 H 1.1065 0.9956 0.3196
C21 C 1.045(2) 1.0612(11) 0.2488(4)
H15 H 0.8935 1.0825 0.2603
H16 H 1.1073 1.1275 0.2307
H17 H 1.099(9) 0.802(5) 0.203(2)
H18 H 0.745(8) 1.057(4) 0.0638(16)
C22? C 1.302(4) 0.839(2) 0.2622(9)
H19? H 1.2443 0.7792 0.2848
H20? H 1.4420 0.8106 0.2471
C23? C 1.347(4) 0.9426(17) 0.2901(10)
H21? H 1.4999 0.9347 0.3040
H22? H 1.2426 0.9435 0.3185
C24? C 1.335(3) 1.0652(13) 0.2651(6)
H23? H 1.3237 1.1245 0.2911
H24? H 1.4729 1.0793 0.2459
C25? C 1.132(3) 1.0729(16) 0.2311(7)
H25? H 1.0158 1.1181 0.2484
H26? H 1.1771 1.1171 0.2016
loop_
_geom_bond_atom_site_label_1
_geom_bond_atom_site_label_2
_geom_bond_site_symmetry_1
_geom_bond_site_symmetry_2
Br1 C10 1_555 1_555
N1 C12 1_555 1_555
O1 C6 1_555 1_555
C1 C2 1_555 1_555
C2 H1 1_555 1_555
C3 C2 1_555 1_555
H2 C3 1_555 1_555
C4 C3 1_555 1_555
H3 C4 1_555 1_555
C5 C4 1_555 1_555
H4 C5 1_555 1_555
C6 C1 1_555 1_555
C7 O1 1_555 1_555
C8 C7 1_555 1_555
H5 C8 1_555 1_555
C9 C8 1_555 1_555
H6 C9 1_555 1_555
C10 C9 1_555 1_555
C11 C10 1_555 1_555
H7 C11 1_555 1_555
C12 C7 1_555 1_555
C13 N1 1_555 1_555
H8 C13 1_555 1_555
C14 C13 1_555 1_555
C15 C14 1_555 1_555
C16 C15 1_555 1_555
C17 C16 1_555 1_555
C18 C17 1_555 1_555
H9 C18 1_555 1_555
H10 C18 1_555 1_555
C19 C18 1_555 1_555
H11 C19 1_555 1_555
H12 C19 1_555 1_555
C20 C19 1_555 1_555
H13 C20 1_555 1_555
H14 C20 1_555 1_555
C21 C16 1_555 1_555
H15 C21 1_555 1_555
H16 C21 1_555 1_555
H17 C17 1_555 1_555
H18 N1 1_555 1_555
C1 C13 1_555 1_555
C5 C6 1_555 1_555
C11 C12 1_555 1_555
C20 C21 1_555 1_555

#END
