
#######################################################################
#
#                 Cambridge Crystallographic Data Centre
#                                CCDC 
#
#######################################################################
#
# If this CIF has been generated from an entry in the Cambridge 
# Structural Database, then it will include bibliographic, chemical, 
# crystal, experimental, refinement or atomic coordinate data resulting 
# from the CCDC's data processing and validation procedures.
#
#######################################################################

data_PUHNAJ
_chemical_formula_moiety         'C23 H16 N4 O3'
_chemical_name_systematic        
2,2'-((2-hydroxypropane-1,3-diyl)bis(oxy-2,1-phenylenemethylylidene))dimalononitrile
_symmetry_cell_setting           monoclinic
_symmetry_space_group_name_H-M   'P 21/c'
_symmetry_Int_Tables_number      14
_space_group_name_Hall           '-P 2ybc'
loop_
_symmetry_equiv_pos_site_id
_symmetry_equiv_pos_as_xyz
1 x,y,z
2 -x,1/2+y,1/2-z
3 -x,-y,-z
4 x,1/2-y,1/2+z
_cell_length_a                   9.890(4)
_cell_length_b                   21.614(10)
_cell_length_c                   11.525(3)
_cell_angle_alpha                90
_cell_angle_beta                 124.72(2)
_cell_angle_gamma                90
_cell_volume                     2024.95
_cell_formula_units_Z            4
loop_
_atom_site_label
_atom_site_type_symbol
_atom_site_fract_x
_atom_site_fract_y
_atom_site_fract_z
O1 O -0.2615(3) 0.14719(10) -0.2223(3)
O2 O -0.4058(3) 0.04797(12) -0.3972(3)
H1 H -0.4131 0.0107 -0.4127
O3 O -0.2414(3) -0.00293(11) -0.5087(2)
N1 N -0.6009(6) 0.3612(2) -0.1505(5)
N2 N -0.8245(5) 0.28185(17) -0.5622(4)
N3 N -0.8185(5) 0.0177(2) -1.0346(4)
N4 N -0.5533(5) -0.11818(17) -1.0960(4)
C1 C -0.5949(5) 0.3229(2) -0.2155(5)
C2 C -0.5924(5) 0.27490(17) -0.2985(4)
C3 C -0.7226(5) 0.27868(17) -0.4453(5)
C4 C -0.4802(4) 0.22976(16) -0.2528(4)
H2 H -0.4968 0.2027 -0.3225
C5 C -0.3375(4) 0.21639(14) -0.1125(4)
C6 C -0.3047(5) 0.24324(16) 0.0117(4)
H3 H -0.3774 0.2724 0.0059
C7 C -0.1687(5) 0.22760(17) 0.1410(4)
H4 H -0.1501 0.2458 0.2221
C8 C -0.0584(5) 0.18461(17) 0.1514(4)
H5 H 0.0348 0.1745 0.2397
C9 C -0.0851(4) 0.15678(16) 0.0331(4)
H6 H -0.0105 0.1279 0.0409
C10 C -0.2247(4) 0.17216(15) -0.0988(4)
C11 C -0.1610(4) 0.09707(15) -0.2161(4)
H7 H -0.1447 0.0662 -0.1482
H8 H -0.0543 0.1124 -0.1884
C12 C -0.2522(4) 0.06950(15) -0.3623(4)
H9 H -0.2696 0.1014 -0.4300
C13 C -0.1531(4) 0.01745(15) -0.3645(4)
H10 H -0.0440 0.0317 -0.3324
H11 H -0.1423 -0.0160 -0.3038
C14 C -0.1838(4) -0.05271(15) -0.5408(4)
C15 C -0.0362(5) -0.08148(16) -0.4456(4)
H12 H 0.0303 -0.0675 -0.3529
C16 C 0.0121(5) -0.13092(17) -0.4882(5)
H13 H 0.1110 -0.1507 -0.4236
C17 C -0.0848(5) -0.15168(17) -0.6264(5)
H14 H -0.0507 -0.1853 -0.6539
C18 C -0.2305(5) -0.12288(16) -0.7228(4)
H15 H -0.2939 -0.1368 -0.8156
C19 C -0.2850(4) -0.07268(15) -0.6831(4)
C20 C -0.4400(4) -0.04143(15) -0.7766(4)
H16 H -0.4646 -0.0114 -0.7336
C21 C -0.5547(5) -0.04866(16) -0.9158(4)
C22 C -0.7019(6) -0.0117(2) -0.9823(4)
C23 C -0.5494(5) -0.08871(19) -1.0124(5)
loop_
_geom_bond_atom_site_label_1
_geom_bond_atom_site_label_2
_geom_bond_site_symmetry_1
_geom_bond_site_symmetry_2
O1 C10 1_555 1_555
O2 H1 1_555 1_555
O3 C13 1_555 1_555
N1 C1 1_555 1_555
N2 C3 1_555 1_555
N3 C22 1_555 1_555
N4 C23 1_555 1_555
C1 C2 1_555 1_555
C2 C3 1_555 1_555
C4 C2 1_555 1_555
H2 C4 1_555 1_555
C5 C4 1_555 1_555
C6 C5 1_555 1_555
H3 C6 1_555 1_555
C7 C6 1_555 1_555
H4 C7 1_555 1_555
C8 C7 1_555 1_555
H5 C8 1_555 1_555
C9 C8 1_555 1_555
H6 C9 1_555 1_555
C10 C5 1_555 1_555
C11 O1 1_555 1_555
H7 C11 1_555 1_555
H8 C11 1_555 1_555
C12 O2 1_555 1_555
H9 C12 1_555 1_555
C13 C12 1_555 1_555
H10 C13 1_555 1_555
H11 C13 1_555 1_555
C14 O3 1_555 1_555
C15 C14 1_555 1_555
H12 C15 1_555 1_555
C16 C15 1_555 1_555
H13 C16 1_555 1_555
C17 C16 1_555 1_555
H14 C17 1_555 1_555
C18 C17 1_555 1_555
H15 C18 1_555 1_555
C19 C14 1_555 1_555
C20 C19 1_555 1_555
H16 C20 1_555 1_555
C21 C20 1_555 1_555
C22 C21 1_555 1_555
C23 C21 1_555 1_555
C9 C10 1_555 1_555
C11 C12 1_555 1_555
C18 C19 1_555 1_555

#END
