
#######################################################################
#
#                 Cambridge Crystallographic Data Centre
#                                CCDC 
#
#######################################################################
#
# If this CIF has been generated from an entry in the Cambridge 
# Structural Database, then it will include bibliographic, chemical, 
# crystal, experimental, refinement or atomic coordinate data resulting 
# from the CCDC's data processing and validation procedures.
#
#######################################################################

data_PUHPUD
_chemical_formula_moiety         'C20 H27 Br2 N1 O3 S1'
_chemical_name_systematic        
19,20-Dibromo-N-methyl-16-aza-21-thiatetracyclo(11.5.2.1.0^14,18^)henicos-19-ene-15,17-dione-21-oxide
_symmetry_cell_setting           monoclinic
_symmetry_space_group_name_H-M   'P 21/c'
_symmetry_Int_Tables_number      14
_space_group_name_Hall           '-P 2ybc'
loop_
_symmetry_equiv_pos_site_id
_symmetry_equiv_pos_as_xyz
1 x,y,z
2 x,1/2-y,1/2+z
3 -x,-y,-z
4 -x,1/2+y,1/2-z
_cell_length_a                   17.924(3)
_cell_length_b                   7.9590(10)
_cell_length_c                   16.2890(10)
_cell_angle_alpha                90
_cell_angle_beta                 108.290(10)
_cell_angle_gamma                90
_cell_volume                     2206.35
_exptl_crystal_colour            colorless
_exptl_crystal_description       prism
_chemical_melting_point          230deg.C
_cell_formula_units_Z            4
_exptl_crystal_recrystallization_method ether
loop_
_atom_site_label
_atom_site_type_symbol
_atom_site_fract_x
_atom_site_fract_y
_atom_site_fract_z
Br1 Br 0.25036(3) 0.87373(6) 0.56813(2)
Br2 Br 0.15743(3) 1.19419(5) 0.42630(3)
C1 C 0.1882(2) 0.9861(4) 0.3938(2)
C2 C 0.2246(2) 0.8664(4) 0.4480(2)
C3 C 0.2304(2) 0.7070(4) 0.4006(2)
C4 C 0.1449(2) 0.6443(4) 0.3552(2)
H1 H 0.1450(2) 0.5385(4) 0.3245(2)
C5 C 0.1028(2) 0.7833(5) 0.2923(2)
H2 H 0.0836(2) 0.7413(5) 0.2328(2)
C6 C 0.1633(2) 0.9276(5) 0.3011(2)
C7 C 0.1431(2) 1.0587(5) 0.2296(3)
H3 H 0.0992(2) 1.1253(5) 0.2339(3)
H4 H 0.1264(2) 1.0018(5) 0.1741(3)
C8 C 0.2120(3) 1.1774(6) 0.2324(3)
H5 H 0.1911(3) 1.2875(6) 0.2119(3)
H6 H 0.2452(3) 1.1894(6) 0.2919(3)
C9 C 0.2615(3) 1.1160(7) 0.1784(3)
H7 H 0.2335(3) 1.1375(7) 0.1180(3)
H8 H 0.2681(3) 0.9954(7) 0.1857(3)
C10 C 0.3424(4) 1.1974(9) 0.2010(5)
H9 H 0.3648(4) 1.1730(9) 0.1553(5)
H10 H 0.3363(4) 1.3183(9) 0.2029(5)
C11 C 0.3989(4) 1.1409(8) 0.2852(4)
H11 H 0.3739(4) 1.1570(8) 0.3295(4)
H12 H 0.4441(4) 1.2152(8) 0.2990(4)
C12 C 0.4290(3) 0.9614(9) 0.2922(5)
H13 H 0.4660(3) 0.9503(9) 0.2600(5)
H14 H 0.3855(3) 0.8857(9) 0.2669(5)
C13 C 0.4695(4) 0.9123(10) 0.3867(5)
H15 H 0.5188(4) 0.9732(10) 0.4062(5)
H16 H 0.4370(4) 0.9542(10) 0.4200(5)
C14 C 0.4869(4) 0.7353(11) 0.4105(6)
H17 H 0.5218(4) 0.7313(11) 0.4696(6)
H18 H 0.5152(4) 0.6890(11) 0.3739(6)
C15 C 0.4173(3) 0.6225(7) 0.4040(4)
H19 H 0.4349(3) 0.5068(7) 0.4061(4)
H20 H 0.3787(3) 0.6398(7) 0.3476(4)
C16 C 0.3766(3) 0.6447(7) 0.4718(3)
H21 H 0.3759(3) 0.7635(7) 0.4848(3)
H22 H 0.4076(3) 0.5884(7) 0.5242(3)
C17 C 0.2915(2) 0.5773(5) 0.4467(3)
H23 H 0.2869(2) 0.4801(5) 0.4095(3)
H24 H 0.2807(2) 0.5407(5) 0.4987(3)
C18 C 0.0982(2) 0.6272(4) 0.4178(3)
C19 C 0.0356(2) 0.8372(5) 0.3235(3)
C20 C -0.0127(3) 0.7727(6) 0.4490(3)
H25 H -0.0494(3) 0.8604(6) 0.4237(3)
H26 H 0.0179(3) 0.8044(6) 0.5066(3)
H27 H -0.0407(3) 0.6708(6) 0.4510(3)
N1 N 0.0394(2) 0.7460(4) 0.3969(2)
O1 O 0.2342(2) 0.6800(4) 0.2369(2)
O2 O 0.1098(2) 0.5303(4) 0.4776(2)
O3 O -0.0133(2) 0.9429(4) 0.2925(3)
S1 S 0.25251(5) 0.80475(11) 0.30812(5)
loop_
_geom_bond_atom_site_label_1
_geom_bond_atom_site_label_2
_geom_bond_site_symmetry_1
_geom_bond_site_symmetry_2
Br1 C2 1_555 1_555
Br2 C1 1_555 1_555
C1 C2 1_555 1_555
C2 C3 1_555 1_555
C3 C4 1_555 1_555
C4 H1 1_555 1_555
C5 C4 1_555 1_555
H2 C5 1_555 1_555
C6 C1 1_555 1_555
C7 C6 1_555 1_555
H3 C7 1_555 1_555
H4 C7 1_555 1_555
C8 C7 1_555 1_555
H5 C8 1_555 1_555
H6 C8 1_555 1_555
C9 C8 1_555 1_555
H7 C9 1_555 1_555
H8 C9 1_555 1_555
C10 C9 1_555 1_555
H9 C10 1_555 1_555
H10 C10 1_555 1_555
C11 C10 1_555 1_555
H11 C11 1_555 1_555
H12 C11 1_555 1_555
C12 C11 1_555 1_555
H13 C12 1_555 1_555
H14 C12 1_555 1_555
C13 C12 1_555 1_555
H15 C13 1_555 1_555
H16 C13 1_555 1_555
C14 C13 1_555 1_555
H17 C14 1_555 1_555
H18 C14 1_555 1_555
C15 C14 1_555 1_555
H19 C15 1_555 1_555
H20 C15 1_555 1_555
C16 C15 1_555 1_555
H21 C16 1_555 1_555
H22 C16 1_555 1_555
C17 C3 1_555 1_555
H23 C17 1_555 1_555
H24 C17 1_555 1_555
C18 C4 1_555 1_555
C19 C5 1_555 1_555
C20 H25 1_555 1_555
H26 C20 1_555 1_555
H27 C20 1_555 1_555
N1 C18 1_555 1_555
O1 S1 1_555 1_555
O2 C18 1_555 1_555
O3 C19 1_555 1_555
S1 C3 1_555 1_555
C5 C6 1_555 1_555
C6 S1 1_555 1_555
C16 C17 1_555 1_555
C19 N1 1_555 1_555
C20 N1 1_555 1_555

#END
