
#######################################################################
#
#                 Cambridge Crystallographic Data Centre
#                                CCDC 
#
#######################################################################
#
# If this CIF has been generated from an entry in the Cambridge 
# Structural Database, then it will include bibliographic, chemical, 
# crystal, experimental, refinement or atomic coordinate data resulting 
# from the CCDC's data processing and validation procedures.
#
#######################################################################

data_PUHZIC
_chemical_formula_moiety         'C8 H4 Cl1 F6 N1 O4 S2'
_chemical_name_systematic        
N-(4-Chlorophenyl)-1,1,1-trifluoro-N-((trifluoromethyl)sulfonyl)methanesulfonamide
_symmetry_cell_setting           monoclinic
_symmetry_space_group_name_H-M   'P 21/c'
_symmetry_Int_Tables_number      14
_space_group_name_Hall           '-P 2ybc'
loop_
_symmetry_equiv_pos_site_id
_symmetry_equiv_pos_as_xyz
1 x,y,z
2 -x,1/2+y,1/2-z
3 -x,-y,-z
4 x,1/2-y,1/2+z
_cell_length_a                   11.5998(3)
_cell_length_b                   13.4423(4)
_cell_length_c                   9.0548(2)
_cell_angle_alpha                90
_cell_angle_beta                 108.014(2)
_cell_angle_gamma                90
_cell_volume                     1342.69
_exptl_crystal_colour            colorless
_exptl_crystal_description       block
_chemical_melting_point          346-348K
_cell_formula_units_Z            4
_exptl_crystal_recrystallization_method hexane
loop_
_atom_site_label
_atom_site_type_symbol
_atom_site_fract_x
_atom_site_fract_y
_atom_site_fract_z
Cl1 Cl 0.97286(4) 0.86092(3) 0.34987(5)
S1 S 0.78053(4) 1.09197(3) 0.91222(4)
S2 S 0.59031(4) 0.94255(3) 0.78741(5)
F1 F 0.70006(16) 1.20000(9) 0.66292(14)
F2 F 0.75847(13) 1.28200(9) 0.87505(16)
F3 F 0.58975(12) 1.20628(11) 0.8139(2)
F4 F 0.69058(14) 0.77016(10) 0.86879(18)
F5 F 0.71980(16) 0.87281(11) 1.05802(17)
F6 F 0.54674(13) 0.80495(10) 0.96076(16)
O1 O 0.90194(11) 1.10259(10) 0.91208(15)
O2 O 0.74816(13) 1.08338(10) 1.04986(15)
O3 O 0.54372(11) 0.89593(10) 0.64061(14)
O4 O 0.52094(12) 1.00882(11) 0.84680(16)
N1 N 0.72049(12) 0.99798(10) 0.79108(15)
C1 C 0.89885(15) 0.90047(12) 0.4795(2)
C2 C 0.79853(15) 0.96166(12) 0.42518(19)
H1 H 0.7706 0.9812 0.3192
C3 C 0.73954(14) 0.99385(12) 0.52852(18)
H2 H 0.6704 1.0358 0.4943
C4 C 0.78292(14) 0.96396(12) 0.68241(18)
C5 C 0.88287(15) 0.90243(12) 0.73621(19)
H3 H 0.9106 0.8824 0.8420
C6 C 0.94185(15) 0.87055(12) 0.6327(2)
H4 H 1.0110 0.8286 0.6668
C7 C 0.70024(18) 1.20199(13) 0.8072(2)
C8 C 0.64203(18) 0.84073(14) 0.9298(2)
loop_
_geom_bond_atom_site_label_1
_geom_bond_atom_site_label_2
_geom_bond_site_symmetry_1
_geom_bond_site_symmetry_2
Cl1 C1 1_555 1_555
S1 O1 1_555 1_555
S2 O3 1_555 1_555
F1 C7 1_555 1_555
F2 C7 1_555 1_555
F3 C7 1_555 1_555
F4 C8 1_555 1_555
F5 C8 1_555 1_555
F6 C8 1_555 1_555
O2 S1 1_555 1_555
O4 S2 1_555 1_555
N1 S1 1_555 1_555
C1 C2 1_555 1_555
C2 H1 1_555 1_555
C3 C2 1_555 1_555
H2 C3 1_555 1_555
C4 N1 1_555 1_555
C5 C4 1_555 1_555
H3 C5 1_555 1_555
C6 C1 1_555 1_555
H4 C6 1_555 1_555
C7 S1 1_555 1_555
C8 S2 1_555 1_555
S2 N1 1_555 1_555
C3 C4 1_555 1_555
C5 C6 1_555 1_555

#END
