
#######################################################################
#
#                 Cambridge Crystallographic Data Centre
#                                CCDC 
#
#######################################################################
#
# If this CIF has been generated from an entry in the Cambridge 
# Structural Database, then it will include bibliographic, chemical, 
# crystal, experimental, refinement or atomic coordinate data resulting 
# from the CCDC's data processing and validation procedures.
#
#######################################################################

data_PUJBEC
_chemical_formula_moiety         'C20 H17 N1 O5'
_chemical_name_systematic        
'3-[(E)-1-(Benzyloxyimino)ethyl]-2-oxo-2H-chromen-7-yl acetate'
_symmetry_cell_setting           triclinic
_symmetry_space_group_name_H-M   'P -1'
_symmetry_Int_Tables_number      2
_space_group_name_Hall           '-P 1'
loop_
_symmetry_equiv_pos_site_id
_symmetry_equiv_pos_as_xyz
1 x,y,z
2 -x,-y,-z
_cell_length_a                   6.3901(9)
_cell_length_b                   11.2413(16)
_cell_length_c                   12.9298(18)
_cell_angle_alpha                102.643(2)
_cell_angle_beta                 96.923(2)
_cell_angle_gamma                101.860(2)
_cell_volume                     873.495
_exptl_crystal_colour            colorless
_exptl_crystal_description       block
_chemical_melting_point          '426 K'
_cell_formula_units_Z            2
_exptl_crystal_recrystallization_method dmso
loop_
_atom_site_label
_atom_site_type_symbol
_atom_site_fract_x
_atom_site_fract_y
_atom_site_fract_z
O1 O -0.33761(19) 0.48915(12) 0.62680(10)
C1 C -0.2517(3) 0.56481(18) 0.72817(15)
O2 O -0.3700(2) 0.62098(15) 0.77276(12)
C2 C -0.0274(3) 0.56859(17) 0.77165(15)
C3 C 0.0814(3) 0.49479(17) 0.71383(15)
H1 H 0.2234 0.4970 0.7421
C4 C 0.0893(3) 0.33485(18) 0.54693(16)
H2 H 0.2301 0.3320 0.5725
C5 C -0.0133(3) 0.26229(17) 0.44758(16)
H3 H 0.0568 0.2097 0.4062
C6 C -0.2229(3) 0.26729(17) 0.40849(15)
O3 O -0.3080(2) 0.19654(12) 0.30368(10)
C7 C -0.5180(4) 0.12835(19) 0.27716(18)
O4 O -0.6377(3) 0.12328(15) 0.34060(14)
C8 C -0.5679(4) 0.0639(2) 0.1608(2)
H4 H -0.7167 0.0173 0.1424
H5 H -0.4749 0.0076 0.1455
H6 H -0.5445 0.1251 0.1194
C9 C -0.3309(3) 0.34359(17) 0.46779(14)
H7 H -0.4706 0.3471 0.4410
C10 C -0.2257(3) 0.41476(16) 0.56822(14)
C11 C -0.0149(3) 0.41373(16) 0.61081(14)
C12 C 0.0738(3) 0.65509(19) 0.87771(16)
C13 C 0.0328(4) 0.7832(2) 0.90913(19)
H8 H 0.1607 0.8404 0.9536
H9 H -0.0857 0.7804 0.9484
H10 H -0.0030 0.8111 0.8456
N1 N 0.2041(3) 0.61121(16) 0.93402(13)
O5 O 0.3083(3) 0.70165(14) 1.03000(11)
C14 C 0.4579(5) 0.6475(3) 1.0870(2)
H11 H 0.5690 0.6295 1.0452
H12 H 0.3816 0.5700 1.1006
C15 C 0.5568(4) 0.74251(19) 1.19015(17)
C16 C 0.4399(4) 0.7731(2) 1.26843(19)
H13 H 0.2937 0.7326 1.2573
C17 C 0.5268(5) 0.8596(2) 1.3618(2)
H14 H 0.4415 0.8772 1.4139
C18 C 0.7365(5) 0.9205(2) 1.3795(2)
H15 H 0.7944 0.9811 1.4437
C19 C 0.8661(4) 0.8957(3) 1.3058(2)
H16 H 1.0115 0.9384 1.3194
C20 C 0.7778(4) 0.8050(3) 1.2092(2)
H17 H 0.8644 0.7862 1.1579
loop_
_geom_bond_atom_site_label_1
_geom_bond_atom_site_label_2
_geom_bond_site_symmetry_1
_geom_bond_site_symmetry_2
O1 C1 1_555 1_555
C1 O2 1_555 1_555
C2 C1 1_555 1_555
C3 C2 1_555 1_555
H1 C3 1_555 1_555
C4 H2 1_555 1_555
C5 C4 1_555 1_555
H3 C5 1_555 1_555
C6 C5 1_555 1_555
O3 C6 1_555 1_555
C7 O3 1_555 1_555
O4 C7 1_555 1_555
C8 C7 1_555 1_555
H4 C8 1_555 1_555
H5 C8 1_555 1_555
H6 C8 1_555 1_555
C9 C6 1_555 1_555
H7 C9 1_555 1_555
C10 O1 1_555 1_555
C11 C3 1_555 1_555
C12 C2 1_555 1_555
C13 C12 1_555 1_555
H8 C13 1_555 1_555
H9 C13 1_555 1_555
H10 C13 1_555 1_555
N1 C12 1_555 1_555
O5 N1 1_555 1_555
C14 O5 1_555 1_555
H11 C14 1_555 1_555
H12 C14 1_555 1_555
C15 C14 1_555 1_555
C16 C15 1_555 1_555
H13 C16 1_555 1_555
C17 C16 1_555 1_555
H14 C17 1_555 1_555
C18 C17 1_555 1_555
H15 C18 1_555 1_555
C19 C18 1_555 1_555
H16 C19 1_555 1_555
C20 C15 1_555 1_555
H17 C20 1_555 1_555
C4 C11 1_555 1_555
C9 C10 1_555 1_555
C10 C11 1_555 1_555
C19 C20 1_555 1_555

#END
