
#######################################################################
#
#                 Cambridge Crystallographic Data Centre
#                                CCDC 
#
#######################################################################
#
# If this CIF has been generated from an entry in the Cambridge 
# Structural Database, then it will include bibliographic, chemical, 
# crystal, experimental, refinement or atomic coordinate data resulting 
# from the CCDC's data processing and validation procedures.
#
#######################################################################

data_PUJCAZ
_chemical_formula_moiety         'C13 H13 Cl2 N3 O1 S1'
_chemical_name_systematic        
2-[(2,6-Dichlorobenzyl)amino]-N-(4-methylthiazol-2-yl)acetamide
_symmetry_cell_setting           monoclinic
_symmetry_space_group_name_H-M   'C 2/c'
_symmetry_Int_Tables_number      15
_space_group_name_Hall           '-C 2yn'
loop_
_symmetry_equiv_pos_site_id
_symmetry_equiv_pos_as_xyz
1 x,y,z
2 -x,y,1/2-z
3 1/2+x,1/2+y,z
4 1/2-x,1/2+y,1/2-z
5 -x,-y,-z
6 x,-y,1/2+z
7 1/2-x,1/2-y,-z
8 1/2+x,1/2-y,1/2+z
_cell_length_a                   14.008(4)
_cell_length_b                   18.133(5)
_cell_length_c                   11.390(3)
_cell_angle_alpha                90
_cell_angle_beta                 97.341(3)
_cell_angle_gamma                90
_cell_volume                     2869.43
_exptl_crystal_colour            colorless
_exptl_crystal_description       prism
_cell_formula_units_Z            8
_exptl_crystal_recrystallization_method dichloromethane
loop_
_atom_site_label
_atom_site_type_symbol
_atom_site_fract_x
_atom_site_fract_y
_atom_site_fract_z
Cl1 Cl 0.59889(3) 0.30694(2) 0.64087(4)
Cl2 Cl 0.60026(3) 0.00844(2) 0.65202(3)
S1 S 0.60179(3) 0.37651(2) 0.15270(3)
O1 O 0.59946(9) 0.22476(8) 0.16770(10)
N1 N 0.65223(10) 0.28348(8) 0.33975(11)
N2 N 0.66017(10) 0.41118(7) 0.37000(11)
N3 N 0.66669(9) 0.15932(7) 0.46748(11)
C1 C 0.64101(10) 0.35505(9) 0.29875(12)
C2 C 0.64316(12) 0.47666(9) 0.30816(14)
C3 C 0.61282(13) 0.46827(10) 0.19104(15)
H1 H 0.5994 0.5080 0.1370
C4 C 0.65614(15) 0.54732(10) 0.37486(15)
H2 H 0.6702 0.5869 0.3211
H3 H 0.7097 0.5425 0.4387
H4 H 0.5971 0.5590 0.4087
C5 C 0.63006(11) 0.22221(9) 0.27318(13)
C6 C 0.64796(12) 0.15012(9) 0.33971(13)
H5 H 0.5911 0.1178 0.3207
H6 H 0.7037 0.1250 0.3119
C7 C 0.57765(11) 0.15610(8) 0.52297(13)
H7 H 0.5421 0.1103 0.4986
H8 H 0.5360 0.1986 0.4964
C8 C 0.60135(10) 0.15779(8) 0.65549(12)
C9 C 0.61402(11) 0.22376(8) 0.71857(13)
C10 C 0.63758(11) 0.22652(10) 0.84107(14)
H9 H 0.6454 0.2726 0.8809
C11 C 0.64947(12) 0.16110(10) 0.90375(14)
H10 H 0.6655 0.1622 0.9873
C12 C 0.63813(11) 0.09389(9) 0.84525(14)
H11 H 0.6462 0.0488 0.8880
C13 C 0.61481(10) 0.09381(8) 0.72306(13)
H12 H 0.6752(16) 0.2782(14) 0.411(2)
H13 H 0.7065(14) 0.1245(11) 0.5004(18)
loop_
_geom_bond_atom_site_label_1
_geom_bond_atom_site_label_2
_geom_bond_site_symmetry_1
_geom_bond_site_symmetry_2
Cl1 C9 1_555 1_555
Cl2 C13 1_555 1_555
S1 C1 1_555 1_555
O1 C5 1_555 1_555
N1 C1 1_555 1_555
N2 C1 1_555 1_555
N3 C6 1_555 1_555
C2 N2 1_555 1_555
C3 S1 1_555 1_555
H1 C3 1_555 1_555
C4 C2 1_555 1_555
H2 C4 1_555 1_555
H3 C4 1_555 1_555
H4 C4 1_555 1_555
C5 N1 1_555 1_555
C6 C5 1_555 1_555
H5 C6 1_555 1_555
H6 C6 1_555 1_555
C7 N3 1_555 1_555
H7 C7 1_555 1_555
H8 C7 1_555 1_555
C8 C7 1_555 1_555
C9 C8 1_555 1_555
C10 C9 1_555 1_555
H9 C10 1_555 1_555
C11 C10 1_555 1_555
H10 C11 1_555 1_555
C12 C11 1_555 1_555
H11 C12 1_555 1_555
C13 C8 1_555 1_555
H12 N1 1_555 1_555
H13 N3 1_555 1_555
C2 C3 1_555 1_555
C12 C13 1_555 1_555

#END
