
#######################################################################
#
#                 Cambridge Crystallographic Data Centre
#                                CCDC 
#
#######################################################################
#
# If this CIF has been generated from an entry in the Cambridge 
# Structural Database, then it will include bibliographic, chemical, 
# crystal, experimental, refinement or atomic coordinate data resulting 
# from the CCDC's data processing and validation procedures.
#
#######################################################################

data_PUJCON
_chemical_formula_moiety         'C16 H14 Cl1 N3'
_chemical_name_systematic        
2-Chloro-6,6-dimethyl-5,6-dihydroindazolo[2,3-c]quinazoline
_symmetry_cell_setting           triclinic
_symmetry_space_group_name_H-M   'P -1'
_symmetry_Int_Tables_number      2
_space_group_name_Hall           '-P 1'
loop_
_symmetry_equiv_pos_site_id
_symmetry_equiv_pos_as_xyz
1 x,y,z
2 -x,-y,-z
_cell_length_a                   9.8636(2)
_cell_length_b                   10.7971(2)
_cell_length_c                   13.2387(3)
_cell_angle_alpha                93.4830(10)
_cell_angle_beta                 100.3910(10)
_cell_angle_gamma                104.4190(10)
_cell_volume                     1334.81
_exptl_crystal_colour            'pale yellow'
_exptl_crystal_description       block
_chemical_melting_point          '483-485 K'
_cell_formula_units_Z            4
_exptl_crystal_recrystallization_method acetone
loop_
_atom_site_label
_atom_site_type_symbol
_atom_site_fract_x
_atom_site_fract_y
_atom_site_fract_z
Cl1 Cl 0.33159(4) -0.34794(3) 0.46107(3)
N1 N 0.47189(12) 0.14829(11) 0.28749(9)
H1 H 0.5189(18) 0.1492(16) 0.2355(13)
N2 N 0.30560(12) 0.22108(10) 0.36420(8)
N3 N 0.25126(12) 0.31785(11) 0.39366(9)
C1 C 0.37097(15) -0.20111(13) 0.41036(10)
C2 C 0.46556(15) -0.18303(13) 0.34342(11)
H2 H 0.5094 -0.2488 0.3275
C3 C 0.49562(14) -0.06863(13) 0.30000(11)
H3 H 0.5592 -0.0565 0.2532
C4 C 0.43335(14) 0.02947(13) 0.32429(10)
C5 C 0.33861(14) 0.01066(13) 0.39313(10)
C6 C 0.30674(14) -0.10637(13) 0.43533(10)
H4 H 0.2415 -0.1207 0.4808
C7 C 0.37046(14) 0.22740(13) 0.27162(10)
C8 C 0.45339(16) 0.36485(14) 0.26594(12)
H5 H 0.5234 0.3969 0.3306
H6 H 0.3871 0.4193 0.2555
H7 H 0.5032 0.3670 0.2081
C9 C 0.25205(16) 0.17480(15) 0.17637(11)
H8 H 0.2939 0.1762 0.1146
H9 H 0.1845 0.2282 0.1703
H10 H 0.2017 0.0862 0.1831
C10 C 0.28291(14) 0.11864(13) 0.41894(10)
C11 C 0.20930(14) 0.15069(13) 0.49425(10)
C12 C 0.15553(15) 0.09112(13) 0.57641(10)
H11 H 0.1643 0.0077 0.5897
C13 C 0.09056(15) 0.15635(14) 0.63631(11)
H12 H 0.0535 0.1171 0.6915
C14 C 0.07742(16) 0.28172(14) 0.61761(11)
H13 H 0.0322 0.3245 0.6608
C15 C 0.12848(15) 0.34197(13) 0.53880(11)
H14 H 0.1199 0.4259 0.5271
C16 C 0.19440(14) 0.27539(13) 0.47525(10)
Cl2 Cl 1.01515(4) 0.86179(3) 0.04959(3)
N4 N 1.01094(12) 0.36108(11) 0.20762(9)
H15 H 1.0824(18) 0.3620(16) 0.2564(13)
N5 N 0.76776(12) 0.28013(10) 0.13350(8)
N6 N 0.64868(12) 0.18074(11) 0.10529(9)
C17 C 1.01399(15) 0.71382(13) 0.09521(11)
C18 C 1.13622(15) 0.69989(13) 0.15913(11)
H16 H 1.2199 0.7697 0.1762
C19 C 1.13493(14) 0.58330(13) 0.19782(10)
H17 H 1.2183 0.5733 0.2415
C20 C 1.01243(14) 0.48057(13) 0.17320(10)
C21 C 0.88979(14) 0.49500(12) 0.10646(10)
C22 C 0.89169(15) 0.61293(13) 0.06827(10)
H18 H 0.8093 0.6239 0.0240
C23 C 0.87707(14) 0.27850(13) 0.22571(10)
C24 C 0.89323(16) 0.14258(13) 0.23258(12)
H19 H 0.9129 0.1102 0.1675
H20 H 0.8047 0.0865 0.2453
H21 H 0.9725 0.1435 0.2894
C25 C 0.83271(15) 0.33020(15) 0.32098(11)
H22 H 0.9060 0.3329 0.3824
H23 H 0.7414 0.2738 0.3288
H24 H 0.8222 0.4172 0.3129
C26 C 0.76750(14) 0.38327(12) 0.08024(10)
C27 C 0.63765(14) 0.34888(12) 0.00739(10)
C28 C 0.57034(15) 0.40825(13) -0.07201(10)
H25 H 0.6155 0.4920 -0.0863
C29 C 0.43847(15) 0.34197(14) -0.12786(11)
H26 H 0.3911 0.3813 -0.1806
C30 C 0.37114(15) 0.21577(14) -0.10858(11)
H27 H 0.2795 0.1727 -0.1486
C31 C 0.43480(15) 0.15426(13) -0.03367(10)
H28 H 0.3900 0.0690 -0.0225
C32 C 0.56925(14) 0.22232(13) 0.02623(10)
loop_
_geom_bond_atom_site_label_1
_geom_bond_atom_site_label_2
_geom_bond_site_symmetry_1
_geom_bond_site_symmetry_2
Cl1 C1 1_555 1_555
N1 H1 1_555 1_555
N2 N3 1_555 1_555
N3 C16 1_555 1_555
C1 C2 1_555 1_555
C2 H2 1_555 1_555
C3 C2 1_555 1_555
H3 C3 1_555 1_555
C4 N1 1_555 1_555
C5 C4 1_555 1_555
C6 C1 1_555 1_555
H4 C6 1_555 1_555
C7 N1 1_555 1_555
C8 C7 1_555 1_555
H5 C8 1_555 1_555
H6 C8 1_555 1_555
H7 C8 1_555 1_555
C9 C7 1_555 1_555
H8 C9 1_555 1_555
H9 C9 1_555 1_555
H10 C9 1_555 1_555
C10 N2 1_555 1_555
C11 C10 1_555 1_555
C12 C11 1_555 1_555
H11 C12 1_555 1_555
C13 C12 1_555 1_555
H12 C13 1_555 1_555
C14 C13 1_555 1_555
H13 C14 1_555 1_555
C15 C14 1_555 1_555
H14 C15 1_555 1_555
C16 C11 1_555 1_555
Cl2 C17 1_555 1_555
N4 H15 1_555 1_555
N5 N6 1_555 1_555
N6 C32 1_555 1_555
C17 C18 1_555 1_555
C18 H16 1_555 1_555
C19 C18 1_555 1_555
H17 C19 1_555 1_555
C20 N4 1_555 1_555
C21 C20 1_555 1_555
C22 C17 1_555 1_555
H18 C22 1_555 1_555
C23 N4 1_555 1_555
C24 C23 1_555 1_555
H19 C24 1_555 1_555
H20 C24 1_555 1_555
H21 C24 1_555 1_555
C25 C23 1_555 1_555
H22 C25 1_555 1_555
H23 C25 1_555 1_555
H24 C25 1_555 1_555
C26 N5 1_555 1_555
C27 C26 1_555 1_555
C28 C27 1_555 1_555
H25 C28 1_555 1_555
C29 C28 1_555 1_555
H26 C29 1_555 1_555
C30 C29 1_555 1_555
H27 C30 1_555 1_555
C31 C30 1_555 1_555
H28 C31 1_555 1_555
C32 C27 1_555 1_555
N2 C7 1_555 1_555
C3 C4 1_555 1_555
C5 C6 1_555 1_555
C5 C10 1_555 1_555
C15 C16 1_555 1_555
N5 C23 1_555 1_555
C19 C20 1_555 1_555
C21 C22 1_555 1_555
C21 C26 1_555 1_555
C31 C32 1_555 1_555

#END
