
#######################################################################
#
#                 Cambridge Crystallographic Data Centre
#                                CCDC 
#
#######################################################################
#
# If this CIF has been generated from an entry in the Cambridge 
# Structural Database, then it will include bibliographic, chemical, 
# crystal, experimental, refinement or atomic coordinate data resulting 
# from the CCDC's data processing and validation procedures.
#
#######################################################################

data_PUJDII01
_chemical_formula_moiety         'C26 H27 N1 O4 S1'
_chemical_name_systematic        
'9-(3-Methoxyphenyl)-6,6-dimethyl-4-phenyl-2,3,5,6,7,9-hexahydrothieno[3,2-b]quinolin-8(4H)-one 1,1-dioxide'
_symmetry_cell_setting           monoclinic
_symmetry_space_group_name_H-M   'P 21/n'
_symmetry_Int_Tables_number      14
_space_group_name_Hall           '-P 2yn'
loop_
_symmetry_equiv_pos_site_id
_symmetry_equiv_pos_as_xyz
1 x,y,z
2 1/2-x,1/2+y,1/2-z
3 -x,-y,-z
4 1/2+x,1/2-y,1/2+z
_cell_length_a                   11.2488(14)
_cell_length_b                   14.8013(18)
_cell_length_c                   13.3866(16)
_cell_angle_alpha                90
_cell_angle_beta                 92.747(7)
_cell_angle_gamma                90
_cell_volume                     2226.27
_exptl_crystal_colour            colorless
_exptl_crystal_description       prism
_cell_formula_units_Z            4
loop_
_atom_site_label
_atom_site_type_symbol
_atom_site_fract_x
_atom_site_fract_y
_atom_site_fract_z
S1 S 0.50415(4) 0.22372(3) -0.24228(3)
O1 O 0.67631(11) 0.38885(9) 0.10478(10)
O2 O 0.60626(12) 0.26632(10) -0.28274(10)
O3 O 0.51009(13) 0.12739(9) -0.22990(10)
O4 O 0.82561(12) 0.04112(9) 0.02547(11)
N1 N 0.29857(13) 0.34280(10) -0.05766(10)
C1 C 0.37176(16) 0.37342(12) 0.02191(12)
C2 C 0.49043(15) 0.35533(11) 0.02666(12)
C3 C 0.54944(16) 0.28912(12) -0.04180(12)
H1 H 0.6250 0.3166 -0.0640
C4 C 0.46602(16) 0.27653(11) -0.13172(12)
C5 C 0.35101(16) 0.29912(12) -0.13692(12)
C6 C 0.31187(16) 0.42871(13) 0.09903(12)
H2 H 0.2341 0.4009 0.1120
H3 H 0.2965 0.4901 0.0719
C7 C 0.38522(16) 0.43672(13) 0.19812(12)
C8 C 0.51206(17) 0.46420(13) 0.17341(13)
H4 H 0.5100 0.5256 0.1441
H5 H 0.5622 0.4666 0.2362
C9 C 0.56777(17) 0.40077(12) 0.10200(13)
C10 C 0.32863(19) 0.50833(15) 0.26286(14)
H6 H 0.3274 0.5664 0.2277
H7 H 0.3751 0.5142 0.3263
H8 H 0.2470 0.4903 0.2761
C11 C 0.38867(18) 0.34685(14) 0.25481(14)
H9 H 0.4339 0.3544 0.3187
H10 H 0.4270 0.3009 0.2147
H11 H 0.3073 0.3278 0.2673
C12 C 0.57895(15) 0.19902(12) 0.00974(12)
C13 C 0.68665(15) 0.15746(12) -0.00304(13)
H12 H 0.7437 0.1860 -0.0425
C14 C 0.71314(17) 0.07423(12) 0.04109(13)
C15 C 0.63009(18) 0.03180(13) 0.09773(14)
H13 H 0.6474 -0.0251 0.1278
C16 C 0.52138(18) 0.07310(13) 0.11024(14)
H14 H 0.4640 0.0441 0.1490
C17 C 0.49544(17) 0.15579(13) 0.06716(14)
H15 H 0.4206 0.1835 0.0765
C18 C 0.8431(2) -0.05287(14) 0.04084(17)
H16 H 0.8341 -0.0673 0.1115
H17 H 0.9233 -0.0696 0.0220
H18 H 0.7841 -0.0867 -0.0004
C19 C 0.27918(16) 0.27641(13) -0.23133(13)
H19 H 0.2288 0.3283 -0.2531
H20 H 0.2272 0.2237 -0.2206
C20 C 0.36954(17) 0.25471(14) -0.30969(13)
H21 H 0.3827 0.3082 -0.3522
H22 H 0.3406 0.2043 -0.3530
C21 C 0.17165(15) 0.35858(12) -0.06443(12)
C22 C 0.12586(16) 0.43661(12) -0.10791(13)
H23 H 0.1775 0.4823 -0.1304
C23 C 0.00324(17) 0.44714(14) -0.11823(14)
H24 H -0.0294 0.5006 -0.1477
C24 C -0.07112(17) 0.38065(14) -0.08602(14)
H25 H -0.1549 0.3878 -0.0945
C25 C -0.02438(18) 0.30363(14) -0.04146(14)
H26 H -0.0761 0.2582 -0.0186
C26 C 0.09729(17) 0.29238(12) -0.02991(13)
H27 H 0.1296 0.2397 0.0014
loop_
_geom_bond_atom_site_label_1
_geom_bond_atom_site_label_2
_geom_bond_site_symmetry_1
_geom_bond_site_symmetry_2
S1 O2 1_555 1_555
O1 C9 1_555 1_555
O3 S1 1_555 1_555
O4 C14 1_555 1_555
N1 C1 1_555 1_555
C1 C2 1_555 1_555
C2 C3 1_555 1_555
C3 H1 1_555 1_555
C4 S1 1_555 1_555
C5 N1 1_555 1_555
C6 C1 1_555 1_555
H2 C6 1_555 1_555
H3 C6 1_555 1_555
C7 C6 1_555 1_555
C8 C7 1_555 1_555
H4 C8 1_555 1_555
H5 C8 1_555 1_555
C9 C2 1_555 1_555
C10 C7 1_555 1_555
H6 C10 1_555 1_555
H7 C10 1_555 1_555
H8 C10 1_555 1_555
C11 C7 1_555 1_555
H9 C11 1_555 1_555
H10 C11 1_555 1_555
H11 C11 1_555 1_555
C12 C3 1_555 1_555
C13 C12 1_555 1_555
H12 C13 1_555 1_555
C14 C13 1_555 1_555
C15 C14 1_555 1_555
H13 C15 1_555 1_555
C16 C15 1_555 1_555
H14 C16 1_555 1_555
C17 C12 1_555 1_555
H15 C17 1_555 1_555
C18 O4 1_555 1_555
H16 C18 1_555 1_555
H17 C18 1_555 1_555
H18 C18 1_555 1_555
C19 C5 1_555 1_555
H19 C19 1_555 1_555
H20 C19 1_555 1_555
C20 S1 1_555 1_555
H21 C20 1_555 1_555
H22 C20 1_555 1_555
C21 N1 1_555 1_555
C22 C21 1_555 1_555
H23 C22 1_555 1_555
C23 C22 1_555 1_555
H24 C23 1_555 1_555
C24 C23 1_555 1_555
H25 C24 1_555 1_555
C25 C24 1_555 1_555
H26 C25 1_555 1_555
C26 C21 1_555 1_555
H27 C26 1_555 1_555
C3 C4 1_555 1_555
C4 C5 1_555 1_555
C8 C9 1_555 1_555
C16 C17 1_555 1_555
C19 C20 1_555 1_555
C25 C26 1_555 1_555

#END
