
#######################################################################
#
#                 Cambridge Crystallographic Data Centre
#                                CCDC 
#
#######################################################################
#
# If this CIF has been generated from an entry in the Cambridge 
# Structural Database, then it will include bibliographic, chemical, 
# crystal, experimental, refinement or atomic coordinate data resulting 
# from the CCDC's data processing and validation procedures.
#
#######################################################################

data_PUJFOR
_chemical_formula_moiety         'C25 H21 N2 1+,Cl1 1-'
_chemical_name_systematic        '1,3-dibenzyl-1H-perimidin-3-ium chloride'
_symmetry_cell_setting           orthorhombic
_symmetry_space_group_name_H-M   'P 21 21 21'
_symmetry_Int_Tables_number      19
_space_group_name_Hall           'P 2ac 2ab'
loop_
_symmetry_equiv_pos_site_id
_symmetry_equiv_pos_as_xyz
1 x,y,z
2 1/2-x,-y,1/2+z
3 -x,1/2+y,1/2-z
4 1/2+x,1/2-y,-z
_cell_length_a                   7.2746(10)
_cell_length_b                   14.2457(19)
_cell_length_c                   18.631(3)
_cell_angle_alpha                90
_cell_angle_beta                 90
_cell_angle_gamma                90
_cell_volume                     1930.76
_exptl_crystal_colour            colorless
_exptl_crystal_description       block
_cell_formula_units_Z            4
loop_
_atom_site_label
_atom_site_type_symbol
_atom_site_fract_x
_atom_site_fract_y
_atom_site_fract_z
Cl1 Cl 0.98245(13) 0.39688(5) 0.20298(4)
N1 N 0.6249(3) -0.16205(15) -0.13011(10)
N2 N 0.6222(3) -0.05654(14) -0.03467(11)
C1 C 0.9077(5) -0.2248(2) -0.27240(14)
H1 H 0.8608 -0.2855 -0.2727
C2 C 1.0794(5) -0.2067(2) -0.30197(16)
H2 H 1.1464 -0.2553 -0.3225
C3 C 1.1505(5) -0.1179(2) -0.30102(15)
H3 H 1.2666 -0.1065 -0.3201
C4 C 1.0501(5) -0.0451(2) -0.27178(15)
H4 H 1.0985 0.0153 -0.2712
C5 C 0.8781(4) -0.0619(2) -0.24345(15)
H5 H 0.8095 -0.0125 -0.2249
C6 C 0.8067(4) -0.15257(19) -0.24256(13)
C7 C 0.6196(4) -0.16973(19) -0.21018(13)
H6 H 0.5330 -0.1243 -0.2292
H7 H 0.5772 -0.2319 -0.2236
C8 C 0.6073(4) -0.07680(18) -0.10343(13)
H8 H 0.5827 -0.0279 -0.1351
C9 C 0.6555(4) -0.12786(18) 0.01718(13)
C10 C 0.6605(4) -0.22026(18) -0.00955(14)
C11 C 0.6517(4) -0.24078(17) -0.08407(14)
C12 C 0.6562(4) -0.33111(19) -0.10815(16)
H9 H 0.6497 -0.3440 -0.1570
C13 C 0.6707(4) -0.4040(2) -0.05829(18)
H10 H 0.6744 -0.4656 -0.0747
C14 C 0.6797(4) -0.3876(2) 0.01359(17)
H11 H 0.6880 -0.4377 0.0454
C15 C 0.6767(4) -0.29567(19) 0.03996(15)
C16 C 0.6894(4) -0.2735(2) 0.11389(16)
H12 H 0.6962 -0.3219 0.1473
C17 C 0.6917(4) -0.1837(2) 0.13705(15)
H13 H 0.7048 -0.1712 0.1858
C18 C 0.6747(4) -0.1090(2) 0.08858(13)
H14 H 0.6763 -0.0473 0.1049
C19 C 0.9201(4) 0.09202(19) -0.05076(15)
H15 H 0.9006 0.0619 -0.0944
C20 C 1.0832(5) 0.1384(2) -0.03896(18)
H16 H 1.1731 0.1396 -0.0745
C21 C 1.1136(5) 0.1835(2) 0.02610(19)
H17 H 1.2244 0.2141 0.0346
C22 C 0.9789(6) 0.1827(2) 0.07774(17)
H18 H 0.9975 0.2141 0.1209
C23 C 0.8157(5) 0.13543(19) 0.06585(15)
H19 H 0.7260 0.1344 0.1014
C24 C 0.7847(4) 0.08956(18) 0.00144(14)
C25 C 0.6036(4) 0.04325(18) -0.01288(15)
H20 H 0.5286 0.0467 0.0301
H21 H 0.5403 0.0774 -0.0506
loop_
_geom_bond_atom_site_label_1
_geom_bond_atom_site_label_2
_geom_bond_site_symmetry_1
_geom_bond_site_symmetry_2
N1 C7 1_555 1_555
N2 C8 1_555 1_555
C1 H1 1_555 1_555
C2 C1 1_555 1_555
H2 C2 1_555 1_555
C3 C2 1_555 1_555
H3 C3 1_555 1_555
C4 C3 1_555 1_555
H4 C4 1_555 1_555
C5 C4 1_555 1_555
H5 C5 1_555 1_555
C6 C1 1_555 1_555
C7 C6 1_555 1_555
H6 C7 1_555 1_555
H7 C7 1_555 1_555
C8 N1 1_555 1_555
H8 C8 1_555 1_555
C9 N2 1_555 1_555
C10 C9 1_555 1_555
C11 N1 1_555 1_555
C12 C11 1_555 1_555
H9 C12 1_555 1_555
C13 C12 1_555 1_555
H10 C13 1_555 1_555
C14 C13 1_555 1_555
H11 C14 1_555 1_555
C15 C10 1_555 1_555
C16 C15 1_555 1_555
H12 C16 1_555 1_555
C17 C16 1_555 1_555
H13 C17 1_555 1_555
C18 C9 1_555 1_555
H14 C18 1_555 1_555
C19 H15 1_555 1_555
C20 C19 1_555 1_555
H16 C20 1_555 1_555
C21 C20 1_555 1_555
H17 C21 1_555 1_555
C22 C21 1_555 1_555
H18 C22 1_555 1_555
C23 C22 1_555 1_555
H19 C23 1_555 1_555
C24 C19 1_555 1_555
C25 N2 1_555 1_555
H20 C25 1_555 1_555
H21 C25 1_555 1_555
C5 C6 1_555 1_555
C10 C11 1_555 1_555
C14 C15 1_555 1_555
C17 C18 1_555 1_555
C23 C24 1_555 1_555
C24 C25 1_555 1_555

#END
