
#######################################################################
#
#                 Cambridge Crystallographic Data Centre
#                                CCDC 
#
#######################################################################
#
# If this CIF has been generated from an entry in the Cambridge 
# Structural Database, then it will include bibliographic, chemical, 
# crystal, experimental, refinement or atomic coordinate data resulting 
# from the CCDC's data processing and validation procedures.
#
#######################################################################

data_PUJHIM
_chemical_formula_moiety         'C13 H13 N5 O1'
_chemical_name_systematic        
N'-(1-(4-Aminophenyl)ethylidene)pyrazine-2-carbohydrazide
_symmetry_cell_setting           triclinic
_symmetry_space_group_name_H-M   'P -1'
_symmetry_Int_Tables_number      2
_space_group_name_Hall           '-P 1'
loop_
_symmetry_equiv_pos_site_id
_symmetry_equiv_pos_as_xyz
1 x,y,z
2 -x,-y,-z
_cell_length_a                   6.9783(13)
_cell_length_b                   10.689(3)
_cell_length_c                   17.061(5)
_cell_angle_alpha                106.971(10)
_cell_angle_beta                 98.499(4)
_cell_angle_gamma                90.174(14)
_cell_volume                     1202.38
_exptl_crystal_colour            yellow
_exptl_crystal_description       platelet
_cell_formula_units_Z            4
_exptl_crystal_recrystallization_method '95% ethanol'
loop_
_atom_site_label
_atom_site_type_symbol
_atom_site_fract_x
_atom_site_fract_y
_atom_site_fract_z
C1 C 0.8650(4) 0.1637(3) 0.24329(16)
C2 C 0.8881(4) 0.0891(3) 0.16283(16)
H1 H 0.9195 -0.0001 0.1527
C3 C 0.8657(4) 0.1438(3) 0.09828(17)
H2 H 0.8823 0.0913 0.0445
C4 C 0.8193(4) 0.2747(3) 0.11007(16)
C5 C 0.7963(4) 0.3486(3) 0.19089(16)
H3 H 0.7631 0.4375 0.2009
C6 C 0.8207(4) 0.2952(3) 0.25550(17)
H4 H 0.8074 0.3483 0.3096
C7 C 0.7939(4) 0.3348(3) 0.04141(16)
C8 C 0.8024(4) 0.2514(3) -0.04611(16)
H5 H 0.7298 0.2917 -0.0854
H6 H 0.7451 0.1638 -0.0546
H7 H 0.9379 0.2447 -0.0552
C9 C 0.6961(4) 0.6487(3) 0.02186(16)
C10 C 0.6788(4) 0.7066(3) -0.04848(16)
C11 C 0.6397(4) 0.8372(3) -0.03596(17)
H8 H 0.6214 0.8884 0.0179
C12 C 0.6529(4) 0.8158(3) -0.17048(17)
H9 H 0.6445 0.8509 -0.2159
C13 C 0.6926(4) 0.6840(3) -0.18385(17)
H10 H 0.7104 0.6328 -0.2378
N1 N 0.8761(4) 0.1101(2) 0.30779(15)
H21 H 0.933(5) 0.036(3) 0.3056(18)
H22 H 0.861(4) 0.171(3) 0.361(2)
N2 N 0.7625(3) 0.4591(2) 0.06300(13)
N3 N 0.7388(3) 0.5209(2) 0.00192(14)
H23 H 0.742(4) 0.482(3) -0.0522(17)
N4 N 0.7064(3) 0.6282(2) -0.12325(13)
N5 N 0.6263(3) 0.8945(2) -0.09690(14)
O1 O 0.6759(3) 0.71548(19) 0.09187(12)
C14 C 0.4201(4) 0.1709(3) 0.68980(17)
C15 C 0.3869(4) 0.0943(3) 0.60680(17)
H11 H 0.3857 0.0016 0.5936
C16 C 0.3557(4) 0.1525(3) 0.54366(17)
H12 H 0.3359 0.0986 0.4877
C17 C 0.3526(4) 0.2884(3) 0.56009(16)
C18 C 0.3846(4) 0.3637(3) 0.64354(17)
H13 H 0.3836 0.4564 0.6569
C19 C 0.4175(4) 0.3068(3) 0.70710(17)
H14 H 0.4386 0.3606 0.7631
C20 C 0.3116(4) 0.3502(3) 0.49280(16)
C21 C 0.3380(4) 0.2769(3) 0.40568(17)
H15 H 0.2126 0.2644 0.3692
H16 H 0.3896 0.1913 0.4046
H17 H 0.4289 0.3271 0.3865
C22 C 0.1804(4) 0.6521(3) 0.46356(17)
C23 C 0.1331(4) 0.6910(3) 0.38597(16)
C24 C 0.1030(4) 0.8204(3) 0.38957(17)
H18 H 0.1126 0.8839 0.4424
C25 C 0.0467(4) 0.7651(3) 0.24967(17)
H19 H 0.0152 0.7878 0.1996
C26 C 0.0763(4) 0.6349(3) 0.24498(17)
H20 H 0.0644 0.5714 0.1921
N6 N 0.4577(4) 0.1131(3) 0.75362(16)
H24 H 0.410(5) 0.029(3) 0.7404(18)
H25 H 0.433(4) 0.168(3) 0.8058(19)
N7 N 0.2571(3) 0.4699(2) 0.51400(14)
N8 N 0.2176(3) 0.5256(2) 0.44979(14)
H26 H 0.198(4) 0.475(3) 0.3982(17)
N9 N 0.1215(3) 0.5968(2) 0.31366(14)
N10 N 0.0608(3) 0.8597(2) 0.32169(14)
O2 O 0.1874(3) 0.73296(19) 0.53239(11)
loop_
_geom_bond_atom_site_label_1
_geom_bond_atom_site_label_2
_geom_bond_site_symmetry_1
_geom_bond_site_symmetry_2
C1 C2 1_555 1_555
C2 H1 1_555 1_555
C3 C2 1_555 1_555
H2 C3 1_555 1_555
C4 C3 1_555 1_555
C5 C4 1_555 1_555
H3 C5 1_555 1_555
C6 C1 1_555 1_555
H4 C6 1_555 1_555
C7 C4 1_555 1_555
C8 C7 1_555 1_555
H5 C8 1_555 1_555
H6 C8 1_555 1_555
H7 C8 1_555 1_555
C9 C10 1_555 1_555
C10 C11 1_555 1_555
C11 H8 1_555 1_555
C12 H9 1_555 1_555
C13 C12 1_555 1_555
H10 C13 1_555 1_555
C14 C15 1_555 1_555
C15 H11 1_555 1_555
C16 C15 1_555 1_555
H12 C16 1_555 1_555
C17 C16 1_555 1_555
C18 C17 1_555 1_555
H13 C18 1_555 1_555
C19 C14 1_555 1_555
H14 C19 1_555 1_555
C20 C17 1_555 1_555
C21 C20 1_555 1_555
H15 C21 1_555 1_555
H16 C21 1_555 1_555
H17 C21 1_555 1_555
C22 C23 1_555 1_555
C23 C24 1_555 1_555
C24 H18 1_555 1_555
C25 H19 1_555 1_555
C26 C25 1_555 1_555
H20 C26 1_555 1_555
N1 C1 1_555 1_555
H21 N1 1_555 1_555
H22 N1 1_555 1_555
N2 C7 1_555 1_555
N3 C9 1_555 1_555
H23 N3 1_555 1_555
N4 C10 1_555 1_555
N5 C11 1_555 1_555
N6 C14 1_555 1_555
H24 N6 1_555 1_555
H25 N6 1_555 1_555
N7 C20 1_555 1_555
N8 C22 1_555 1_555
H26 N8 1_555 1_555
N9 C23 1_555 1_555
N10 C24 1_555 1_555
O1 C9 1_555 1_555
O2 C22 1_555 1_555
C5 C6 1_555 1_555
C12 N5 1_555 1_555
C13 N4 1_555 1_555
C18 C19 1_555 1_555
C25 N10 1_555 1_555
C26 N9 1_555 1_555
N2 N3 1_555 1_555
N7 N8 1_555 1_555

#END
