
#######################################################################
#
#                 Cambridge Crystallographic Data Centre
#                                CCDC 
#
#######################################################################
#
# If this CIF has been generated from an entry in the Cambridge 
# Structural Database, then it will include bibliographic, chemical, 
# crystal, experimental, refinement or atomic coordinate data resulting 
# from the CCDC's data processing and validation procedures.
#
#######################################################################

data_PUJLIR
_chemical_formula_moiety         'C13 H11 N3 O5'
_chemical_name_systematic        
'ethyl 3-(4-nitrobenzoyl)-1H-pyrazole-5-carboxylate'
_symmetry_cell_setting           orthorhombic
_symmetry_space_group_name_H-M   'P b c a'
_symmetry_Int_Tables_number      61
_space_group_name_Hall           '-P 2ac 2ab'
loop_
_symmetry_equiv_pos_site_id
_symmetry_equiv_pos_as_xyz
1 x,y,z
2 1/2+x,1/2-y,-z
3 -x,1/2+y,1/2-z
4 1/2-x,-y,1/2+z
5 -x,-y,-z
6 1/2-x,1/2+y,z
7 x,1/2-y,1/2+z
8 1/2+x,y,1/2-z
_cell_length_a                   13.5890(17)
_cell_length_b                   6.5520(8)
_cell_length_c                   30.582(4)
_cell_angle_alpha                90
_cell_angle_beta                 90
_cell_angle_gamma                90
_cell_volume                     2722.87
_cell_formula_units_Z            8
loop_
_atom_site_label
_atom_site_type_symbol
_atom_site_fract_x
_atom_site_fract_y
_atom_site_fract_z
C1 C 0.37267(11) 0.4388(3) 0.40736(5)
C2 C 0.44421(12) 0.5849(3) 0.40257(5)
H1 H 0.4759 0.6395 0.4268
C3 C 0.46805(11) 0.6490(3) 0.36083(5)
H2 H 0.5168 0.7470 0.3569
C4 C 0.41961(9) 0.5680(2) 0.32456(5)
C5 C 0.34743(11) 0.4200(2) 0.33067(5)
H3 H 0.3149 0.3654 0.3066
C6 C 0.32396(12) 0.3541(3) 0.37215(5)
H4 H 0.2762 0.2544 0.3764
C7 C 0.45150(9) 0.6349(2) 0.28025(5)
C8 C 0.38038(9) 0.6465(2) 0.24402(4)
C9 C 0.40260(9) 0.6640(2) 0.19957(5)
H5 H 0.4645 0.6672 0.1866
C10 C 0.31303(9) 0.6753(2) 0.17929(4)
C11 C 0.28312(10) 0.6946(2) 0.13334(5)
C12 C 0.34208(16) 0.7143(4) 0.06057(6)
H6 H 0.3537 0.8537 0.0512
H7 H 0.2742 0.6798 0.0542
C13 C 0.40809(18) 0.5756(4) 0.03721(7)
H8 H 0.4751 0.6072 0.0445
H9 H 0.3987 0.5912 0.0063
H10 H 0.3938 0.4374 0.0455
N1 N 0.34660(12) 0.3694(3) 0.45180(5)
N2 N 0.28266(7) 0.64769(18) 0.25105(4)
N3 N 0.24395(8) 0.66595(18) 0.21129(3)
H11 H 0.1817 0.6713 0.2064
O1 O 0.39204(12) 0.4377(3) 0.48244(4)
O2 O 0.28049(15) 0.2466(3) 0.45582(5)
O3 O 0.53745(7) 0.6808(2) 0.27322(4)
O4 O 0.19888(8) 0.7080(2) 0.12203(4)
O5 O 0.36049(8) 0.6959(2) 0.10721(4)
loop_
_geom_bond_atom_site_label_1
_geom_bond_atom_site_label_2
_geom_bond_site_symmetry_1
_geom_bond_site_symmetry_2
C1 C2 1_555 1_555
C2 H1 1_555 1_555
C3 C2 1_555 1_555
H2 C3 1_555 1_555
C4 C3 1_555 1_555
C5 C4 1_555 1_555
H3 C5 1_555 1_555
C6 C1 1_555 1_555
H4 C6 1_555 1_555
C7 C4 1_555 1_555
C8 C7 1_555 1_555
C9 C8 1_555 1_555
H5 C9 1_555 1_555
C10 C9 1_555 1_555
C11 C10 1_555 1_555
C12 H6 1_555 1_555
H7 C12 1_555 1_555
C13 C12 1_555 1_555
H8 C13 1_555 1_555
H9 C13 1_555 1_555
H10 C13 1_555 1_555
N1 C1 1_555 1_555
N2 C8 1_555 1_555
N3 C10 1_555 1_555
H11 N3 1_555 1_555
O1 N1 1_555 1_555
O2 N1 1_555 1_555
O3 C7 1_555 1_555
O4 C11 1_555 1_555
O5 C11 1_555 1_555
C5 C6 1_555 1_555
C12 O5 1_555 1_555
N2 N3 1_555 1_555

#END
