
#######################################################################
#
#                 Cambridge Crystallographic Data Centre
#                                CCDC 
#
#######################################################################
#
# If this CIF has been generated from an entry in the Cambridge 
# Structural Database, then it will include bibliographic, chemical, 
# crystal, experimental, refinement or atomic coordinate data resulting 
# from the CCDC's data processing and validation procedures.
#
#######################################################################

data_PUJMAJ
_chemical_name_common            
"Dibenzyl 5,5'-methylenebis(4-ethyl-3-methyl-1H-pyrrole-2-carboxylate)"
_chemical_formula_moiety         'C31 H34 N2 O4'
_chemical_name_systematic        
"Dibenzyl 3,3'-diethyl-4,4'-dimethyl-2,2'-methylenebis(pyrrole-5-carboxylate)"
_symmetry_cell_setting           monoclinic
_symmetry_space_group_name_H-M   'P 2/n'
_symmetry_Int_Tables_number      13
_space_group_name_Hall           '-P 2yac'
loop_
_symmetry_equiv_pos_site_id
_symmetry_equiv_pos_as_xyz
1 x,y,z
2 1/2-x,y,1/2-z
3 -x,-y,-z
4 1/2+x,-y,1/2+z
_cell_length_a                   14.2002(9)
_cell_length_b                   7.9220(5)
_cell_length_c                   25.0939(16)
_cell_angle_alpha                90
_cell_angle_beta                 104.373(3)
_cell_angle_gamma                90
_cell_volume                     2734.56
_exptl_crystal_colour            colorless
_exptl_crystal_description       plate
_cell_formula_units_Z            4
_exptl_crystal_recrystallization_method n-hexane/toluene
loop_
_atom_site_label
_atom_site_type_symbol
_atom_site_fract_x
_atom_site_fract_y
_atom_site_fract_z
O1 O 0.84641(10) 0.85654(17) 0.91775(6)
O2 O 0.75643(10) 0.65074(17) 0.86750(7)
O3 O 0.76635(7) 0.24675(15) 0.68188(4)
O4 O 0.87580(7) 0.18152(15) 0.63406(4)
N1 N 0.90073(10) 0.43117(18) 0.88502(5)
H1 H 0.8449(15) 0.396(3) 0.8648(8)
N2 N 0.90338(9) 0.17664(17) 0.77990(5)
H2 H 0.8449(14) 0.204(2) 0.7845(7)
C1 C 0.91713(12) 0.5906(2) 0.90767(7)
C2 C 1.01355(12) 0.5990(2) 0.93634(6)
C3 C 1.05588(12) 0.4413(2) 0.93042(6)
C4 C 0.98377(11) 0.3399(2) 0.89853(6)
C5 C 0.98552(12) 0.1610(2) 0.87970(6)
H3 H 0.9283 0.1010 0.8863
H4 H 1.0445 0.1051 0.9021
C6 C 0.98473(11) 0.1445(2) 0.82008(6)
C7 C 1.05896(11) 0.1041(2) 0.79533(7)
C8 C 1.01998(11) 0.1126(2) 0.73787(7)
C9 C 0.92347(11) 0.1592(2) 0.72921(6)
C10 C 1.06422(14) 0.7464(2) 0.96891(8)
H5 H 1.0161 0.8318 0.9723
H6 H 1.1105 0.7954 0.9501
H7 H 1.0991 0.7081 1.0056
C11 C 1.07570(12) 0.0804(3) 0.69528(7)
H8 H 1.0525 0.1566 0.6640
H9 H 1.0659 -0.0369 0.6827
H10 H 1.1451 0.1004 0.7113
C12 C 1.16037(12) 0.3931(3) 0.95415(7)
H11 H 1.1652 0.2685 0.9563
H12 H 1.1815 0.4379 0.9921
C13 C 1.22892(14) 0.4582(3) 0.92102(9)
H13 H 1.2952 0.4199 0.9380
H14 H 1.2273 0.5818 0.9203
H15 H 1.2085 0.4148 0.8833
C14 C 1.16166(11) 0.0618(2) 0.82435(7)
H16 H 1.1742 0.1008 0.8630
H17 H 1.2061 0.1243 0.8067
C15 C 1.18485(14) -0.1252(3) 0.82408(9)
H18 H 1.2535 -0.1434 0.8425
H19 H 1.1721 -0.1653 0.7860
H20 H 1.1440 -0.1875 0.8435
C16 C 0.84033(13) 0.7142(2) 0.89944(8)
C17 C 0.67700(17) 0.7704(3) 0.85195(13)
H21 H 0.6956 0.8644 0.8306
H22 H 0.6614 0.8179 0.8852
C18 C 0.59147(15) 0.6804(3) 0.81813(9)
C19 C 0.58054(18) 0.6486(3) 0.76239(10)
H23 H 0.6301 0.6828 0.7453
C20 C 0.4995(2) 0.5688(3) 0.73183(10)
H24 H 0.4937 0.5482 0.6939
C21 C 0.4286(2) 0.5196(3) 0.75463(12)
H25 H 0.3728 0.4646 0.7328
C22 C 0.43577(19) 0.5477(3) 0.80892(13)
H26 H 0.3850 0.5135 0.8250
C23 C 0.51800(19) 0.6269(3) 0.84062(10)
H27 H 0.5234 0.6445 0.8787
C24 C 0.84815(11) 0.1997(2) 0.68106(6)
C25 C 0.80269(12) 0.2219(2) 0.58423(6)
H28 H 0.7837 0.3421 0.5844
H29 H 0.7441 0.1514 0.5814
C26 C 0.84675(12) 0.1871(2) 0.53687(6)
C27 C 0.81372(12) 0.0548(2) 0.50133(7)
H30 H 0.7629 -0.0156 0.5069
C28 C 0.85450(14) 0.0244(3) 0.45761(7)
H31 H 0.8312 -0.0662 0.4331
C29 C 0.92838(15) 0.1244(3) 0.44945(7)
H32 H 0.9560 0.1032 0.4193
C30 C 0.96260(15) 0.2558(3) 0.48502(8)
H33 H 1.0142 0.3247 0.4796
C31 C 0.92170(14) 0.2872(2) 0.52860(7)
H34 H 0.9452 0.3780 0.5530
loop_
_geom_bond_atom_site_label_1
_geom_bond_atom_site_label_2
_geom_bond_site_symmetry_1
_geom_bond_site_symmetry_2
O1 C16 1_555 1_555
O2 C16 1_555 1_555
O3 C24 1_555 1_555
O4 C24 1_555 1_555
N1 H1 1_555 1_555
N2 H2 1_555 1_555
C1 N1 1_555 1_555
C2 C1 1_555 1_555
C3 C2 1_555 1_555
C4 N1 1_555 1_555
C5 C4 1_555 1_555
H3 C5 1_555 1_555
H4 C5 1_555 1_555
C6 N2 1_555 1_555
C7 C6 1_555 1_555
C8 C7 1_555 1_555
C9 N2 1_555 1_555
C10 C2 1_555 1_555
H5 C10 1_555 1_555
H6 C10 1_555 1_555
H7 C10 1_555 1_555
C11 C8 1_555 1_555
H8 C11 1_555 1_555
H9 C11 1_555 1_555
H10 C11 1_555 1_555
C12 C3 1_555 1_555
H11 C12 1_555 1_555
H12 C12 1_555 1_555
C13 C12 1_555 1_555
H13 C13 1_555 1_555
H14 C13 1_555 1_555
H15 C13 1_555 1_555
C14 C7 1_555 1_555
H16 C14 1_555 1_555
H17 C14 1_555 1_555
C15 C14 1_555 1_555
H18 C15 1_555 1_555
H19 C15 1_555 1_555
H20 C15 1_555 1_555
C16 C1 1_555 1_555
C17 O2 1_555 1_555
H21 C17 1_555 1_555
H22 C17 1_555 1_555
C18 C17 1_555 1_555
C19 C18 1_555 1_555
H23 C19 1_555 1_555
C20 C19 1_555 1_555
H24 C20 1_555 1_555
C21 C20 1_555 1_555
H25 C21 1_555 1_555
C22 C21 1_555 1_555
H26 C22 1_555 1_555
C23 C18 1_555 1_555
H27 C23 1_555 1_555
C24 C9 1_555 1_555
C25 O4 1_555 1_555
H28 C25 1_555 1_555
H29 C25 1_555 1_555
C26 C25 1_555 1_555
C27 C26 1_555 1_555
H30 C27 1_555 1_555
C28 C27 1_555 1_555
H31 C28 1_555 1_555
C29 C28 1_555 1_555
H32 C29 1_555 1_555
C30 C29 1_555 1_555
H33 C30 1_555 1_555
C31 C26 1_555 1_555
H34 C31 1_555 1_555
C3 C4 1_555 1_555
C5 C6 1_555 1_555
C8 C9 1_555 1_555
C22 C23 1_555 1_555
C30 C31 1_555 1_555

#END
