
#######################################################################
#
#                 Cambridge Crystallographic Data Centre
#                                CCDC 
#
#######################################################################
#
# If this CIF has been generated from an entry in the Cambridge 
# Structural Database, then it will include bibliographic, chemical, 
# crystal, experimental, refinement or atomic coordinate data resulting 
# from the CCDC's data processing and validation procedures.
#
#######################################################################

data_PUJQIV
_chemical_formula_moiety         'C20 H14'
_chemical_name_systematic        2-(Naphthalen-2-yl)azulene
_symmetry_cell_setting           triclinic
_symmetry_space_group_name_H-M   'P 1'
_symmetry_Int_Tables_number      1
_space_group_name_Hall           'P 1'
loop_
_symmetry_equiv_pos_site_id
_symmetry_equiv_pos_as_xyz
1 x,y,z
_cell_length_a                   6.0754(8)
_cell_length_b                   7.6324(11)
_cell_length_c                   14.5662(19)
_cell_angle_alpha                97.997(7)
_cell_angle_beta                 97.179(6)
_cell_angle_gamma                90.526(7)
_cell_volume                     663.378
_exptl_crystal_colour            blue
_exptl_crystal_description       block
_chemical_melting_point          '274-276 deg.C'
_cell_formula_units_Z            2
_exptl_crystal_recrystallization_method chloroform
loop_
_atom_site_label
_atom_site_type_symbol
_atom_site_fract_x
_atom_site_fract_y
_atom_site_fract_z
C1 C 0.3852(6) 0.1216(5) 0.5454(3)
H1 H 0.4727 0.0839 0.4988
C2 C 0.4630(7) 0.1084(5) 0.6353(3)
H2 H 0.6020 0.0617 0.6493
C3 C 0.3356(7) 0.1650(5) 0.7080(3)
C4 C 0.4094(7) 0.1490(6) 0.8036(3)
H3 H 0.5453 0.0992 0.8199
C5 C 0.2791(9) 0.2075(7) 0.8705(3)
H4 H 0.3277 0.1972 0.9326
C6 C 0.0742(8) 0.2825(6) 0.8480(3)
H5 H -0.0116 0.3220 0.8949
C7 C 0.0002(7) 0.2978(5) 0.7577(3)
H6 H -0.1365 0.3482 0.7437
C8 C 0.1255(6) 0.2393(5) 0.6846(3)
C9 C 0.0509(6) 0.2508(5) 0.5908(3)
H7 H -0.0859 0.3003 0.5759
C10 C 0.1729(6) 0.1915(4) 0.5200(2)
C11 C 0.0910(6) 0.1919(5) 0.4208(3)
C12 C -0.1122(6) 0.2601(5) 0.3858(3)
H8 H -0.2134 0.3157 0.4223
C13 C -0.1395(6) 0.2324(4) 0.2889(3)
C14 C -0.3185(6) 0.2829(5) 0.2301(3)
H9 H -0.4308 0.3389 0.2599
C15 C -0.3528(7) 0.2615(6) 0.1338(3)
H10 H -0.4841 0.3057 0.1072
C16 C -0.2149(7) 0.1818(6) 0.0712(3)
H11 H -0.2676 0.1809 0.0084
C17 C -0.0131(7) 0.1044(6) 0.0883(3)
H12 H 0.0498 0.0587 0.0354
C18 C 0.1091(7) 0.0848(5) 0.1718(3)
H13 H 0.2418 0.0263 0.1675
C19 C 0.0620(6) 0.1398(5) 0.2616(3)
C20 C 0.1931(6) 0.1178(5) 0.3448(3)
H14 H 0.3286 0.0619 0.3488
C21 C 0.5370(6) 0.6436(5) 0.5553(3)
H15 H 0.3975 0.5908 0.5352
C22 C 0.6193(6) 0.6635(4) 0.6506(3)
C23 C 0.4909(7) 0.6150(5) 0.7189(3)
H16 H 0.3505 0.5633 0.6997
C24 C 0.5691(7) 0.6425(6) 0.8116(3)
H17 H 0.4830 0.6079 0.8548
C25 C 0.7779(7) 0.7226(6) 0.8422(3)
H18 H 0.8277 0.7446 0.9059
C26 C 0.9095(7) 0.7690(5) 0.7797(3)
H19 H 1.0496 0.8198 0.8008
C27 C 0.8332(6) 0.7400(5) 0.6821(3)
C28 C 0.9599(6) 0.7907(5) 0.6147(3)
H20 H 1.1029 0.8374 0.6333
C29 C 0.8756(6) 0.7720(5) 0.5237(3)
H21 H 0.9626 0.8070 0.4809
C30 C 0.6590(6) 0.7009(4) 0.4907(2)
C31 C 0.5689(6) 0.6949(4) 0.3917(3)
C32 C 0.6771(6) 0.7610(5) 0.3238(3)
H22 H 0.8171 0.8159 0.3342
C33 C 0.5428(6) 0.7320(5) 0.2383(3)
C34 C 0.5962(7) 0.7764(5) 0.1547(3)
H23 H 0.7334 0.8335 0.1577
C35 C 0.4729(7) 0.7471(6) 0.0676(3)
H24 H 0.5391 0.7871 0.0198
C36 C 0.2669(7) 0.6676(6) 0.0410(3)
H25 H 0.2159 0.6595 -0.0224
C37 C 0.1225(7) 0.5972(5) 0.0944(3)
H26 H -0.0119 0.5511 0.0620
C38 C 0.1523(6) 0.5867(5) 0.1894(3)
H27 H 0.0357 0.5345 0.2124
C39 C 0.3336(6) 0.6442(4) 0.2542(3)
C40 C 0.3596(6) 0.6260(5) 0.3491(3)
H28 H 0.2543 0.5758 0.3795
loop_
_geom_bond_atom_site_label_1
_geom_bond_atom_site_label_2
_geom_bond_site_symmetry_1
_geom_bond_site_symmetry_2
C1 H1 1_555 1_555
C2 C1 1_555 1_555
H2 C2 1_555 1_555
C3 C2 1_555 1_555
C4 C3 1_555 1_555
H3 C4 1_555 1_555
C5 C4 1_555 1_555
H4 C5 1_555 1_555
C6 C5 1_555 1_555
H5 C6 1_555 1_555
C7 C6 1_555 1_555
H6 C7 1_555 1_555
C8 C3 1_555 1_555
C9 C8 1_555 1_555
H7 C9 1_555 1_555
C10 C1 1_555 1_555
C11 C10 1_555 1_555
C12 C11 1_555 1_555
H8 C12 1_555 1_555
C13 C12 1_555 1_555
C14 C13 1_555 1_555
H9 C14 1_555 1_555
C15 C14 1_555 1_555
H10 C15 1_555 1_555
C16 C15 1_555 1_555
H11 C16 1_555 1_555
C17 C16 1_555 1_555
H12 C17 1_555 1_555
C18 C17 1_555 1_555
H13 C18 1_555 1_555
C19 C13 1_555 1_555
C20 C11 1_555 1_555
H14 C20 1_555 1_555
C21 H15 1_555 1_555
C22 C21 1_555 1_555
C23 C22 1_555 1_555
H16 C23 1_555 1_555
C24 C23 1_555 1_555
H17 C24 1_555 1_555
C25 C24 1_555 1_555
H18 C25 1_555 1_555
C26 C25 1_555 1_555
H19 C26 1_555 1_555
C27 C22 1_555 1_555
C28 C27 1_555 1_555
H20 C28 1_555 1_555
C29 C28 1_555 1_555
H21 C29 1_555 1_555
C30 C21 1_555 1_555
C31 C30 1_555 1_555
C32 C31 1_555 1_555
H22 C32 1_555 1_555
C33 C32 1_555 1_555
C34 C33 1_555 1_555
H23 C34 1_555 1_555
C35 C34 1_555 1_555
H24 C35 1_555 1_555
C36 C35 1_555 1_555
H25 C36 1_555 1_555
C37 C36 1_555 1_555
H26 C37 1_555 1_555
C38 C37 1_555 1_555
H27 C38 1_555 1_555
C39 C33 1_555 1_555
C40 C31 1_555 1_555
H28 C40 1_555 1_555
C7 C8 1_555 1_555
C9 C10 1_555 1_555
C18 C19 1_555 1_555
C19 C20 1_555 1_555
C26 C27 1_555 1_555
C29 C30 1_555 1_555
C38 C39 1_555 1_555
C39 C40 1_555 1_555

#END
