
#######################################################################
#
#                 Cambridge Crystallographic Data Centre
#                                CCDC 
#
#######################################################################
#
# If this CIF has been generated from an entry in the Cambridge 
# Structural Database, then it will include bibliographic, chemical, 
# crystal, experimental, refinement or atomic coordinate data resulting 
# from the CCDC's data processing and validation procedures.
#
#######################################################################

data_PUJWEY
_chemical_formula_moiety         'C18 H18 O4'
_chemical_name_systematic        
6-(Benzyloxy)-7-methoxy-3-methyl-1H-isochromen-4(3H)-one
_symmetry_cell_setting           triclinic
_symmetry_space_group_name_H-M   'P -1'
_symmetry_Int_Tables_number      2
_space_group_name_Hall           '-P 1'
loop_
_symmetry_equiv_pos_site_id
_symmetry_equiv_pos_as_xyz
1 x,y,z
2 -x,-y,-z
_cell_length_a                   8.734(6)
_cell_length_b                   12.109(8)
_cell_length_c                   14.722(10)
_cell_angle_alpha                98.844(10)
_cell_angle_beta                 92.973(11)
_cell_angle_gamma                96.980(10)
_cell_volume                     1523.13
_exptl_crystal_colour            colorless
_exptl_crystal_description       block
_cell_formula_units_Z            4
loop_
_atom_site_label
_atom_site_type_symbol
_atom_site_fract_x
_atom_site_fract_y
_atom_site_fract_z
C1 C 0.0397(11) 0.8111(6) 1.2413(4)
H1 H -0.0322 0.8644 1.2544
H2 H 0.1422 0.8506 1.2426
H3 H 0.0368 0.7622 1.2869
C2 C -0.0021(7) 0.7442(6) 1.1504(4)
H4 H 0.0809 0.6969 1.1524
C3 C -0.1576(6) 0.5994(4) 1.0507(4)
H5 H -0.2698 0.5903 1.0450
H6 H -0.1260 0.5255 1.0516
C4 C -0.0992(5) 0.6430(3) 0.9695(3)
C5 C 0.0037(5) 0.7411(3) 0.9803(3)
C6 C 0.0560(6) 0.8010(4) 1.0722(3)
C7 C 0.0572(6) 0.7813(4) 0.9007(3)
H7 H 0.1238 0.8486 0.9076
C8 C 0.0154(7) 0.7259(4) 0.8167(3)
C9 C -0.0914(6) 0.6255(4) 0.8047(3)
C10 C -0.2312(8) 0.4769(5) 0.6997(5)
H8 H -0.1894 0.4195 0.7279
H9 H -0.2451 0.4533 0.6342
H10 H -0.3292 0.4889 0.7235
C11 C 0.1747(10) 0.9544(6) 0.6130(5)
H11 H 0.1233 1.0058 0.6493
C12 C 0.2076(9) 0.9762(6) 0.5229(4)
H12 H 0.1737 1.0358 0.4981
C13 C 0.2871(9) 0.9070(6) 0.4796(5)
H13 H 0.3204 0.9234 0.4236
C14 C 0.3289(9) 0.8110(7) 0.5065(5)
H14 H 0.3780 0.7602 0.4681
C15 C 0.2932(9) 0.7936(6) 0.5962(4)
H15 H 0.3243 0.7325 0.6202
C16 C 0.2114(7) 0.8683(4) 0.6477(3)
C17 C 0.1778(7) 0.8529(5) 0.7437(3)
H16 H 0.2702 0.8394 0.7774
H17 H 0.1413 0.9196 0.7760
C18 C -0.1496(6) 0.5877(4) 0.8816(3)
H18 H -0.2236 0.5243 0.8742
O1 O 0.0599(5) 0.7569(3) 0.7357(2)
O2 O -0.1297(5) 0.5767(3) 0.7194(3)
O3 O 0.1428(5) 0.8882(3) 1.0851(2)
O4 O -0.1087(8) 0.6647(4) 1.1295(3)
C19 C 0.4943(11) 0.1934(7) -0.2467(4)
H19 H 0.4479 0.1285 -0.2895
H20 H 0.6028 0.2069 -0.2550
H21 H 0.4464 0.2580 -0.2574
C20 C 0.4725(8) 0.1734(5) -0.1529(4)
H22 H 0.5525 0.1238 -0.1487
C21 C 0.5393(6) 0.2648(4) -0.0766(3)
C22 C 0.4939(5) 0.2513(4) 0.0159(3)
C23 C 0.3953(6) 0.1603(4) 0.0280(3)
C24 C 0.3294(7) 0.0714(4) -0.0544(4)
H23 H 0.3741 0.0025 -0.0508
H24 H 0.2186 0.0549 -0.0510
C25 C 0.3547(6) 0.1438(4) 0.1152(3)
H25 H 0.2901 0.0797 0.1234
C26 C 0.4123(6) 0.2249(4) 0.1897(3)
C27 C 0.5159(6) 0.3178(4) 0.1774(3)
C28 C 0.2902(9) 0.1188(5) 0.2943(4)
H26 H 0.1966 0.1031 0.2548
H27 H 0.2653 0.1284 0.3575
H28 H 0.3497 0.0571 0.2824
C29 C 0.6814(7) 0.4825(4) 0.2515(4)
H29 H 0.6431 0.5312 0.2115
H30 H 0.7735 0.4556 0.2270
C30 C 0.7171(6) 0.5437(3) 0.3439(3)
C31 C 0.8707(6) 0.5896(5) 0.3660(4)
H31 H 0.9429 0.5810 0.3221
C32 C 0.9164(8) 0.6484(7) 0.4538(5)
H32 H 1.0192 0.6791 0.4686
C33 C 0.8085(11) 0.6613(6) 0.5196(4)
H33 H 0.8391 0.7006 0.5783
C34 C 0.6549(10) 0.6154(6) 0.4974(4)
H34 H 0.5827 0.6240 0.5414
C35 C 0.6092(7) 0.5566(5) 0.4096(4)
H35 H 0.5065 0.5259 0.3948
C36 C 0.5536(6) 0.3290(4) 0.0912(3)
H36 H 0.6219 0.3910 0.0826
O5 O 0.3769(5) 0.2179(3) 0.2768(2)
O6 O 0.5648(5) 0.3884(3) 0.2559(2)
O7 O 0.6175(5) 0.3483(3) -0.0929(2)
O8 O 0.3578(7) 0.1044(4) -0.1369(3)
loop_
_geom_bond_atom_site_label_1
_geom_bond_atom_site_label_2
_geom_bond_site_symmetry_1
_geom_bond_site_symmetry_2
C1 H1 1_555 1_555
H2 C1 1_555 1_555
H3 C1 1_555 1_555
C2 C1 1_555 1_555
H4 C2 1_555 1_555
C3 H5 1_555 1_555
H6 C3 1_555 1_555
C4 C3 1_555 1_555
C5 C4 1_555 1_555
C6 C2 1_555 1_555
C7 C5 1_555 1_555
H7 C7 1_555 1_555
C8 C7 1_555 1_555
C9 C8 1_555 1_555
C10 H8 1_555 1_555
H9 C10 1_555 1_555
H10 C10 1_555 1_555
C11 H11 1_555 1_555
C12 C11 1_555 1_555
H12 C12 1_555 1_555
C13 C12 1_555 1_555
H13 C13 1_555 1_555
C14 C13 1_555 1_555
H14 C14 1_555 1_555
C15 C14 1_555 1_555
H15 C15 1_555 1_555
C16 C11 1_555 1_555
C17 C16 1_555 1_555
H16 C17 1_555 1_555
H17 C17 1_555 1_555
C18 C4 1_555 1_555
H18 C18 1_555 1_555
O1 C8 1_555 1_555
O2 C9 1_555 1_555
O3 C6 1_555 1_555
O4 C2 1_555 1_555
C19 H19 1_555 1_555
H20 C19 1_555 1_555
H21 C19 1_555 1_555
C20 C19 1_555 1_555
H22 C20 1_555 1_555
C21 C20 1_555 1_555
C22 C21 1_555 1_555
C23 C22 1_555 1_555
C24 C23 1_555 1_555
H23 C24 1_555 1_555
H24 C24 1_555 1_555
C25 C23 1_555 1_555
H25 C25 1_555 1_555
C26 C25 1_555 1_555
C27 C26 1_555 1_555
C28 H26 1_555 1_555
H27 C28 1_555 1_555
H28 C28 1_555 1_555
C29 H29 1_555 1_555
H30 C29 1_555 1_555
C30 C29 1_555 1_555
C31 C30 1_555 1_555
H31 C31 1_555 1_555
C32 C31 1_555 1_555
H32 C32 1_555 1_555
C33 C32 1_555 1_555
H33 C33 1_555 1_555
C34 C33 1_555 1_555
H34 C34 1_555 1_555
C35 C30 1_555 1_555
H35 C35 1_555 1_555
C36 C22 1_555 1_555
H36 C36 1_555 1_555
O5 C26 1_555 1_555
O6 C27 1_555 1_555
O7 C21 1_555 1_555
O8 C20 1_555 1_555
C3 O4 1_555 1_555
C5 C6 1_555 1_555
C9 C18 1_555 1_555
C10 O2 1_555 1_555
C15 C16 1_555 1_555
C17 O1 1_555 1_555
C24 O8 1_555 1_555
C27 C36 1_555 1_555
C28 O5 1_555 1_555
C29 O6 1_555 1_555
C34 C35 1_555 1_555

#END
