
#######################################################################
#
#                 Cambridge Crystallographic Data Centre
#                                CCDC 
#
#######################################################################
#
# If this CIF has been generated from an entry in the Cambridge 
# Structural Database, then it will include bibliographic, chemical, 
# crystal, experimental, refinement or atomic coordinate data resulting 
# from the CCDC's data processing and validation procedures.
#
#######################################################################

data_PUJWAT
_chemical_compound_source        'leaves of Muraya paniculata'
_chemical_name_common            'Meranzin hydrate'
_chemical_formula_moiety         'C15 H18 O5'
_chemical_name_systematic        
8-[2,3-dihydroxy-3-methylbutyl]-7-methoxy-2H-1-benzopyran-2-one
_symmetry_cell_setting           monoclinic
_symmetry_space_group_name_H-M   'P 21'
_symmetry_Int_Tables_number      4
_space_group_name_Hall           'P 2yb'
loop_
_symmetry_equiv_pos_site_id
_symmetry_equiv_pos_as_xyz
1 x,y,z
2 -x,1/2+y,-z
_cell_length_a                   5.8061(7)
_cell_length_b                   10.5146(13)
_cell_length_c                   11.4477(14)
_cell_angle_alpha                90
_cell_angle_beta                 91.547(2)
_cell_angle_gamma                90
_cell_volume                     698.614
_exptl_crystal_colour            colorless
_exptl_crystal_description       prism
_cell_formula_units_Z            2
loop_
_atom_site_label
_atom_site_type_symbol
_atom_site_fract_x
_atom_site_fract_y
_atom_site_fract_z
O1 O 1.4383(3) 0.50000(16) 0.83522(15)
O2 O 1.7272(3) 0.51296(19) 0.96204(18)
O3 O 0.8098(4) 0.4410(2) 0.57958(18)
O4 O 1.0213(3) 0.30444(18) 0.91374(15)
O5 O 1.1435(3) 0.06759(16) 0.79342(17)
C1 C 1.5866(4) 0.5712(3) 0.9034(2)
C2 C 1.5618(5) 0.7069(3) 0.8999(3)
H1 H 1.6632 0.7576 0.9436
C3 C 1.3954(5) 0.7612(3) 0.8350(3)
H2 H 1.3813 0.8493 0.8345
C4 C 1.2374(5) 0.6858(2) 0.7657(2)
C5 C 1.0585(5) 0.7350(3) 0.6972(3)
H3 H 1.0373 0.8226 0.6939
C6 C 0.9124(5) 0.6572(3) 0.6344(3)
H4 H 0.7931 0.6918 0.5888
C7 C 0.9433(5) 0.5268(3) 0.6391(2)
C8 C 1.1185(4) 0.4708(2) 0.7080(2)
C9 C 1.2625(4) 0.5534(2) 0.7693(2)
C10 C 0.6251(5) 0.4863(4) 0.5056(3)
H5 H 0.5429 0.4153 0.4723
H6 H 0.6864 0.5372 0.4442
H7 H 0.5222 0.5367 0.5507
C11 C 1.1382(4) 0.3280(2) 0.7160(2)
H8 H 1.2906 0.3052 0.7459
H9 H 1.1181 0.2912 0.6387
C12 C 0.9563(4) 0.2742(2) 0.79647(19)
H10 H 0.8090 0.3159 0.7777
C13 C 0.9231(4) 0.1295(2) 0.7838(2)
C14 C 0.7685(5) 0.0804(3) 0.8780(3)
H11 H 0.7520 -0.0100 0.8704
H12 H 0.6199 0.1200 0.8700
H13 H 0.8354 0.1002 0.9534
C15 C 0.8225(5) 0.0987(3) 0.6642(3)
H14 H 0.7866 0.0096 0.6600
H15 H 0.9324 0.1193 0.6059
H16 H 0.6846 0.1474 0.6505
H17 H 0.935(6) 0.363(3) 0.937(4)
H18 H 1.183(6) 0.068(4) 0.8650(12)
loop_
_geom_bond_atom_site_label_1
_geom_bond_atom_site_label_2
_geom_bond_site_symmetry_1
_geom_bond_site_symmetry_2
O1 C1 1_555 1_555
O2 C1 1_555 1_555
O3 C7 1_555 1_555
O4 C12 1_555 1_555
O5 C13 1_555 1_555
C1 C2 1_555 1_555
C2 H1 1_555 1_555
C3 C2 1_555 1_555
H2 C3 1_555 1_555
C4 C3 1_555 1_555
C5 C4 1_555 1_555
H3 C5 1_555 1_555
C6 C5 1_555 1_555
H4 C6 1_555 1_555
C7 C6 1_555 1_555
C8 C7 1_555 1_555
C9 O1 1_555 1_555
C10 O3 1_555 1_555
H5 C10 1_555 1_555
H6 C10 1_555 1_555
H7 C10 1_555 1_555
C11 C8 1_555 1_555
H8 C11 1_555 1_555
H9 C11 1_555 1_555
C12 C11 1_555 1_555
H10 C12 1_555 1_555
C13 C12 1_555 1_555
C14 C13 1_555 1_555
H11 C14 1_555 1_555
H12 C14 1_555 1_555
H13 C14 1_555 1_555
C15 C13 1_555 1_555
H14 C15 1_555 1_555
H15 C15 1_555 1_555
H16 C15 1_555 1_555
H17 O4 1_555 1_555
H18 O5 1_555 1_555
C4 C9 1_555 1_555
C8 C9 1_555 1_555

#END
