
#######################################################################
#
#                 Cambridge Crystallographic Data Centre
#                                CCDC 
#
#######################################################################
#
# If this CIF has been generated from an entry in the Cambridge 
# Structural Database, then it will include bibliographic, chemical, 
# crystal, experimental, refinement or atomic coordinate data resulting 
# from the CCDC's data processing and validation procedures.
#
#######################################################################

data_PUJZUQ
_chemical_formula_moiety         'C26 H18 N4 O6'
_chemical_name_systematic        
N,N'-bis(4-Nitrophenyl)biphenyl-2,2'-dicarboxamide
_symmetry_cell_setting           monoclinic
_symmetry_space_group_name_H-M   'P 21/n'
_symmetry_Int_Tables_number      14
_space_group_name_Hall           '-P 2yn'
loop_
_symmetry_equiv_pos_site_id
_symmetry_equiv_pos_as_xyz
1 x,y,z
2 1/2-x,1/2+y,1/2-z
3 -x,-y,-z
4 1/2+x,1/2-y,1/2+z
_cell_length_a                   12.568(3)
_cell_length_b                   12.003(3)
_cell_length_c                   14.858(4)
_cell_angle_alpha                90
_cell_angle_beta                 95.324(2)
_cell_angle_gamma                90
_cell_volume                     2231.71
_exptl_crystal_colour            colorless
_exptl_crystal_description       prism
_cell_formula_units_Z            4
_exptl_crystal_recrystallization_method acetonitrile
loop_
_atom_site_label
_atom_site_type_symbol
_atom_site_fract_x
_atom_site_fract_y
_atom_site_fract_z
N1 N 0.22874(9) 0.61297(10) -0.24831(8)
N2 N 0.17963(9) 0.37120(10) 0.06868(8)
N3 N 0.39547(9) 0.03271(10) 0.15619(8)
N4 N 0.45085(10) -0.31187(10) -0.09135(8)
O1 O 0.19449(8) 0.70898(9) -0.25307(8)
O2 O 0.26451(9) 0.56407(9) -0.31202(7)
O3 O 0.30986(7) 0.23718(8) 0.07673(6)
O4 O 0.44656(8) -0.04883(8) 0.29288(7)
O5 O 0.48585(9) -0.40159(9) -0.06211(8)
O6 O 0.42693(9) -0.29307(9) -0.17211(7)
C1 C 0.22503(10) 0.55285(11) -0.16268(9)
C2 C 0.17265(11) 0.60088(12) -0.09468(10)
H1 H 0.1444 0.6741 -0.1013
C3 C 0.16220(11) 0.54058(12) -0.01700(10)
H2 H 0.1261 0.5724 0.0302
C4 C 0.20437(10) 0.43306(11) -0.00715(9)
C5 C 0.26065(10) 0.38784(11) -0.07520(9)
H3 H 0.2923 0.3162 -0.0677
C6 C 0.27002(10) 0.44780(11) -0.15348(10)
H4 H 0.3071 0.4171 -0.2006
C7 C 0.22510(10) 0.27388(11) 0.10011(9)
C8 C 0.16061(11) 0.20871(11) 0.16179(9)
C9 C 0.05533(11) 0.18147(12) 0.13161(10)
H5 H 0.0232 0.2130 0.0771
C10 C -0.00279(11) 0.10879(12) 0.18054(10)
H6 H -0.0746 0.0910 0.1598
C11 C 0.04420(11) 0.06229(12) 0.25960(10)
H7 H 0.0055 0.0105 0.2923
C12 C 0.14757(11) 0.09124(12) 0.29113(10)
H8 H 0.1785 0.0602 0.3463
C13 C 0.20747(11) 0.16517(11) 0.24363(9)
C14 C 0.31259(10) 0.20675(12) 0.28613(9)
C15 C 0.31442(12) 0.31004(12) 0.32959(10)
H9 H 0.2511 0.3536 0.3266
C16 C 0.40666(13) 0.35024(14) 0.37692(10)
H10 H 0.4061 0.4206 0.4062
C17 C 0.49948(12) 0.28782(13) 0.38149(10)
H11 H 0.5631 0.3153 0.4134
C18 C 0.49917(11) 0.18540(13) 0.33941(9)
H12 H 0.5627 0.1422 0.3430
C19 C 0.40649(11) 0.14455(11) 0.29155(9)
C20 C 0.41647(10) 0.03335(12) 0.24765(9)
C21 C 0.40998(10) -0.05654(11) 0.09698(9)
C22 C 0.46411(10) -0.15411(12) 0.12407(10)
H13 H 0.4922 -0.1633 0.1852
C23 C 0.47664(11) -0.23714(12) 0.06188(10)
H14 H 0.5132 -0.3039 0.0799
C24 C 0.43563(11) -0.22264(12) -0.02687(9)
C25 C 0.38144(11) -0.12659(12) -0.05546(10)
H15 H 0.3538 -0.1181 -0.1168
C26 C 0.36826(11) -0.04339(12) 0.00675(9)
H16 H 0.3309 0.0228 -0.0116
H17 H 0.1284(10) 0.3995(13) 0.1007(10)
H18 H 0.3673(12) 0.0956(10) 0.1315(10)
loop_
_geom_bond_atom_site_label_1
_geom_bond_atom_site_label_2
_geom_bond_site_symmetry_1
_geom_bond_site_symmetry_2
N1 O1 1_555 1_555
N2 C4 1_555 1_555
N3 C20 1_555 1_555
N4 O5 1_555 1_555
O2 N1 1_555 1_555
O3 C7 1_555 1_555
O4 C20 1_555 1_555
O6 N4 1_555 1_555
C1 N1 1_555 1_555
C2 C1 1_555 1_555
H1 C2 1_555 1_555
C3 C2 1_555 1_555
H2 C3 1_555 1_555
C4 C3 1_555 1_555
C5 C4 1_555 1_555
H3 C5 1_555 1_555
C6 C1 1_555 1_555
H4 C6 1_555 1_555
C7 N2 1_555 1_555
C8 C7 1_555 1_555
C9 C8 1_555 1_555
H5 C9 1_555 1_555
C10 C9 1_555 1_555
H6 C10 1_555 1_555
C11 C10 1_555 1_555
H7 C11 1_555 1_555
C12 C11 1_555 1_555
H8 C12 1_555 1_555
C13 C8 1_555 1_555
C14 C13 1_555 1_555
C15 C14 1_555 1_555
H9 C15 1_555 1_555
C16 C15 1_555 1_555
H10 C16 1_555 1_555
C17 C16 1_555 1_555
H11 C17 1_555 1_555
C18 C17 1_555 1_555
H12 C18 1_555 1_555
C19 C14 1_555 1_555
C20 C19 1_555 1_555
C21 N3 1_555 1_555
C22 C21 1_555 1_555
H13 C22 1_555 1_555
C23 C22 1_555 1_555
H14 C23 1_555 1_555
C24 N4 1_555 1_555
C25 C24 1_555 1_555
H15 C25 1_555 1_555
C26 C21 1_555 1_555
H16 C26 1_555 1_555
H17 N2 1_555 1_555
H18 N3 1_555 1_555
C5 C6 1_555 1_555
C12 C13 1_555 1_555
C18 C19 1_555 1_555
C23 C24 1_555 1_555
C25 C26 1_555 1_555

#END
