
#######################################################################
#
#                 Cambridge Crystallographic Data Centre
#                                CCDC 
#
#######################################################################
#
# If this CIF has been generated from an entry in the Cambridge 
# Structural Database, then it will include bibliographic, chemical, 
# crystal, experimental, refinement or atomic coordinate data resulting 
# from the CCDC's data processing and validation procedures.
#
#######################################################################

data_PUKBAZ
_chemical_formula_moiety         'C18 H19 N1 O2'
_chemical_name_systematic        1,3,3-Trimethyl-5-nitro-1-phenylindane
_symmetry_cell_setting           monoclinic
_symmetry_space_group_name_H-M   'P 21/c'
_symmetry_Int_Tables_number      14
_space_group_name_Hall           '-P 2ybc'
loop_
_symmetry_equiv_pos_site_id
_symmetry_equiv_pos_as_xyz
1 x,y,z
2 -x,1/2+y,1/2-z
3 -x,-y,-z
4 x,1/2-y,1/2+z
_cell_length_a                   8.306(3)
_cell_length_b                   17.600(3)
_cell_length_c                   12.090(4)
_cell_angle_alpha                90
_cell_angle_beta                 120.50(3)
_cell_angle_gamma                90
_cell_volume                     1522.83
_exptl_crystal_colour            colorless
_exptl_crystal_description       block
_chemical_melting_point          '402-404 K'
_cell_formula_units_Z            4
_exptl_crystal_recrystallization_method methanol
loop_
_atom_site_label
_atom_site_type_symbol
_atom_site_fract_x
_atom_site_fract_y
_atom_site_fract_z
O1 O 0.3148(4) 0.65100(12) -0.0098(2)
O2 O 0.0977(4) 0.56794(15) -0.0607(2)
N1 N 0.2608(4) 0.58823(15) 0.0018(2)
C1 C 0.3981(4) 0.53506(15) 0.0954(2)
C2 C 0.5784(4) 0.55976(15) 0.1727(3)
H1 H 0.6123 0.6089 0.1647
C3 C 0.7087(4) 0.51059(14) 0.2623(3)
H2 H 0.8313 0.5264 0.3162
C4 C 0.6543(3) 0.43718(14) 0.2711(2)
C5 C 0.4721(4) 0.41334(14) 0.1900(2)
C6 C 0.3404(4) 0.46264(15) 0.1011(2)
H3 H 0.2174 0.4474 0.0472
C7 C 0.7734(4) 0.37453(13) 0.3611(2)
C8 C 0.6503(4) 0.30424(14) 0.2923(3)
H4 H 0.6888 0.2815 0.2363
H5 H 0.6636 0.2666 0.3550
C9 C 0.4461(4) 0.33044(14) 0.2134(3)
C10 C 0.9639(4) 0.36996(17) 0.3688(3)
H6 H 0.9449 0.3681 0.2836
H7 H 1.0286 0.3250 0.4149
H8 H 1.0369 0.4139 0.4126
C11 C 0.3445(4) 0.32497(16) 0.2899(3)
H9 H 0.2224 0.3471 0.2409
H10 H 0.4147 0.3518 0.3696
H11 H 0.3330 0.2726 0.3070
C12 C 0.3375(5) 0.28566(17) 0.0888(3)
H12 H 0.3957 0.2920 0.0382
H13 H 0.2113 0.3040 0.0416
H14 H 0.3370 0.2328 0.1082
C13 C 0.8050(3) 0.38424(14) 0.4966(2)
C14 C 0.7377(4) 0.44583(15) 0.5326(3)
H15 H 0.6684 0.4832 0.4727
C15 C 0.7731(5) 0.45205(18) 0.6572(3)
H16 H 0.7272 0.4936 0.6801
C16 C 0.8742(5) 0.39802(18) 0.7466(3)
H17 H 0.8993 0.4030 0.8305
C17 C 0.9385(4) 0.33629(17) 0.7115(3)
H18 H 1.0052 0.2986 0.7714
C18 C 0.9053(4) 0.32970(15) 0.5890(3)
H19 H 0.9512 0.2876 0.5672
loop_
_geom_bond_atom_site_label_1
_geom_bond_atom_site_label_2
_geom_bond_site_symmetry_1
_geom_bond_site_symmetry_2
O1 N1 1_555 1_555
O2 N1 1_555 1_555
N1 C1 1_555 1_555
C1 C2 1_555 1_555
C2 H1 1_555 1_555
C3 C2 1_555 1_555
H2 C3 1_555 1_555
C4 C3 1_555 1_555
C5 C4 1_555 1_555
C6 C1 1_555 1_555
H3 C6 1_555 1_555
C7 C4 1_555 1_555
C8 C7 1_555 1_555
H4 C8 1_555 1_555
H5 C8 1_555 1_555
C9 C5 1_555 1_555
C10 C7 1_555 1_555
H6 C10 1_555 1_555
H7 C10 1_555 1_555
H8 C10 1_555 1_555
C11 C9 1_555 1_555
H9 C11 1_555 1_555
H10 C11 1_555 1_555
H11 C11 1_555 1_555
C12 C9 1_555 1_555
H12 C12 1_555 1_555
H13 C12 1_555 1_555
H14 C12 1_555 1_555
C13 C7 1_555 1_555
C14 C13 1_555 1_555
H15 C14 1_555 1_555
C15 C14 1_555 1_555
H16 C15 1_555 1_555
C16 C15 1_555 1_555
H17 C16 1_555 1_555
C17 C16 1_555 1_555
H18 C17 1_555 1_555
C18 C13 1_555 1_555
H19 C18 1_555 1_555
C5 C6 1_555 1_555
C8 C9 1_555 1_555
C17 C18 1_555 1_555

#END
