
#######################################################################
#
#                 Cambridge Crystallographic Data Centre
#                                CCDC 
#
#######################################################################
#
# If this CIF has been generated from an entry in the Cambridge 
# Structural Database, then it will include bibliographic, chemical, 
# crystal, experimental, refinement or atomic coordinate data resulting 
# from the CCDC's data processing and validation procedures.
#
#######################################################################

data_PUKCEF
_chemical_formula_moiety         'C23 H28 B1 F2 N3'
_chemical_name_systematic        
N-(3-(5,5-Difluoro-1,3,7,9-tetramethyl-5H-4\l^5^,5\l^5^-dipyrrolo[1,2-c:2',1'-f][1,3,2]diazaborinin-10-yl)propyl)-N-methylaniline
_symmetry_cell_setting           orthorhombic
_symmetry_space_group_name_H-M   'F d d 2'
_symmetry_Int_Tables_number      43
_space_group_name_Hall           'F 2 -2d'
loop_
_symmetry_equiv_pos_site_id
_symmetry_equiv_pos_as_xyz
1 x,y,z
2 -x,-y,z
3 1/4-x,1/4+y,1/4+z
4 3/4+x,3/4-y,1/4+z
5 x,1/2+y,1/2+z
6 -x,1/2-y,1/2+z
7 1/4-x,3/4+y,3/4+z
8 3/4+x,1/4-y,3/4+z
9 1/2+x,y,1/2+z
10 1/2-x,-y,1/2+z
11 3/4-x,1/4+y,3/4+z
12 1/4+x,3/4-y,3/4+z
13 1/2+x,1/2+y,z
14 1/2-x,1/2-y,z
15 3/4-x,3/4+y,1/4+z
16 1/4+x,1/4-y,1/4+z
_cell_length_a                   21.107(6)
_cell_length_b                   50.004(10)
_cell_length_c                   7.9376(17)
_cell_angle_alpha                90
_cell_angle_beta                 90
_cell_angle_gamma                90
_cell_volume                     8377.62
_exptl_crystal_colour            brown
_exptl_crystal_description       plate
_cell_formula_units_Z            16
loop_
_atom_site_label
_atom_site_type_symbol
_atom_site_fract_x
_atom_site_fract_y
_atom_site_fract_z
F1 F 0.28312(17) 0.17906(7) -0.0329(4)
F2 F 0.18628(18) 0.18611(6) 0.0822(5)
N1 N 0.2546(2) 0.03280(9) 0.4622(6)
N2 N 0.2164(2) 0.14116(9) 0.0210(6)
N3 N 0.2652(2) 0.16604(9) 0.2552(6)
C1 C 0.1598(3) 0.15605(12) -0.2406(7)
H1 H 0.1472 0.1717 -0.1789
H2 H 0.1243 0.1493 -0.3033
H3 H 0.1934 0.1606 -0.3167
C2 C 0.1823(3) 0.13505(13) -0.1201(8)
C3 C 0.2323(3) 0.11707(12) 0.0990(8)
C4 C 0.2654(3) 0.11740(11) 0.2525(8)
C5 C 0.2851(3) 0.09146(9) 0.3343(7)
H4 H 0.3261 0.0939 0.3877
H5 H 0.2896 0.0778 0.2482
C6 C 0.2373(2) 0.08194(10) 0.4660(7)
H6 H 0.2298 0.0961 0.5468
H7 H 0.1974 0.0779 0.4111
C7 C 0.2610(3) 0.05726(10) 0.5579(7)
H8 H 0.3054 0.0598 0.5858
H9 H 0.2378 0.0554 0.6627
C8 C 0.1987(3) 0.01859(12) 0.4594(8)
C9 C 0.1925(3) -0.00479(12) 0.3671(8)
H10 H 0.2263 -0.0105 0.3013
C10 C 0.1377(3) -0.01982(13) 0.3698(9)
H11 H 0.1350 -0.0353 0.3056
C11 C 0.0868(3) -0.01198(14) 0.4670(9)
H12 H 0.0504 -0.0224 0.4730
C12 C 0.2832(3) 0.18632(13) 0.3583(9)
C13 C 0.2772(3) 0.21530(10) 0.3117(10)
H13 H 0.3002 0.2186 0.2094
H14 H 0.2942 0.2262 0.4005
H15 H 0.2333 0.2196 0.2952
C14 C 0.3094(3) 0.17537(13) 0.5020(9)
H16 H 0.3252 0.1851 0.5927
C15 C 0.3087(3) 0.14785(13) 0.4904(8)
C16 C 0.2809(3) 0.14162(12) 0.3328(8)
C17 C 0.2044(3) 0.09582(11) 0.0040(8)
C18 C 0.2066(3) 0.06615(11) 0.0297(8)
H17 H 0.1753 0.0578 -0.0405
H18 H 0.1979 0.0621 0.1457
H19 H 0.2478 0.0596 0.0004
C19 C 0.1737(3) 0.10774(14) -0.1288(8)
H20 H 0.1508 0.0988 -0.2115
C20 C 0.3107(3) 0.02229(12) 0.3782(9)
H21 H 0.3207 0.0050 0.4233
H22 H 0.3457 0.0342 0.3965
H23 H 0.3026 0.0208 0.2596
C21 C 0.1446(3) 0.02687(11) 0.5505(8)
H24 H 0.1456 0.0430 0.6086
C22 C 0.0913(3) 0.01168(14) 0.5548(8)
H25 H 0.0570 0.0174 0.6187
C23 C 0.3349(3) 0.13003(12) 0.6260(8)
H26 H 0.3442 0.1405 0.7243
H27 H 0.3730 0.1216 0.5864
H28 H 0.3042 0.1166 0.6539
B1 B 0.2374(4) 0.16923(15) 0.0785(11)
loop_
_geom_bond_atom_site_label_1
_geom_bond_atom_site_label_2
_geom_bond_site_symmetry_1
_geom_bond_site_symmetry_2
F1 B1 1_555 1_555
F2 B1 1_555 1_555
N1 C7 1_555 1_555
N2 C2 1_555 1_555
N3 C12 1_555 1_555
C1 H1 1_555 1_555
H2 C1 1_555 1_555
H3 C1 1_555 1_555
C2 C1 1_555 1_555
C3 N2 1_555 1_555
C4 C3 1_555 1_555
C5 C4 1_555 1_555
H4 C5 1_555 1_555
H5 C5 1_555 1_555
C6 C5 1_555 1_555
H6 C6 1_555 1_555
H7 C6 1_555 1_555
C7 C6 1_555 1_555
H8 C7 1_555 1_555
H9 C7 1_555 1_555
C8 N1 1_555 1_555
C9 C8 1_555 1_555
H10 C9 1_555 1_555
C10 C9 1_555 1_555
H11 C10 1_555 1_555
C11 C10 1_555 1_555
H12 C11 1_555 1_555
C12 C13 1_555 1_555
C13 H13 1_555 1_555
H14 C13 1_555 1_555
H15 C13 1_555 1_555
C14 C12 1_555 1_555
H16 C14 1_555 1_555
C15 C14 1_555 1_555
C16 N3 1_555 1_555
C17 C3 1_555 1_555
C18 C17 1_555 1_555
H17 C18 1_555 1_555
H18 C18 1_555 1_555
H19 C18 1_555 1_555
C19 C2 1_555 1_555
H20 C19 1_555 1_555
C20 N1 1_555 1_555
H21 C20 1_555 1_555
H22 C20 1_555 1_555
H23 C20 1_555 1_555
C21 C8 1_555 1_555
H24 C21 1_555 1_555
C22 C11 1_555 1_555
H25 C22 1_555 1_555
C23 C15 1_555 1_555
H26 C23 1_555 1_555
H27 C23 1_555 1_555
H28 C23 1_555 1_555
B1 N2 1_555 1_555
N3 B1 1_555 1_555
C4 C16 1_555 1_555
C15 C16 1_555 1_555
C17 C19 1_555 1_555
C21 C22 1_555 1_555

#END
