
#######################################################################
#
#                 Cambridge Crystallographic Data Centre
#                                CCDC 
#
#######################################################################
#
# If this CIF has been generated from an entry in the Cambridge 
# Structural Database, then it will include bibliographic, chemical, 
# crystal, experimental, refinement or atomic coordinate data resulting 
# from the CCDC's data processing and validation procedures.
#
#######################################################################

data_PUKFOR
_chemical_formula_moiety         'C13 H9 Br2 N3 O2'
_chemical_name_systematic        
(E)-N'-(3,5-Dibromo-2-hydroxybenzylidene)nicotinohydrazide
_symmetry_cell_setting           monoclinic
_symmetry_space_group_name_H-M   'P 21/c'
_symmetry_Int_Tables_number      14
_space_group_name_Hall           '-P 2ybc'
loop_
_symmetry_equiv_pos_site_id
_symmetry_equiv_pos_as_xyz
1 x,y,z
2 -x,1/2+y,1/2-z
3 -x,-y,-z
4 x,1/2-y,1/2+z
_cell_length_a                   17.013(4)
_cell_length_b                   8.091(2)
_cell_length_c                   10.153(3)
_cell_angle_alpha                90
_cell_angle_beta                 92.194(13)
_cell_angle_gamma                90
_cell_volume                     1396.56
_exptl_crystal_colour            colorless
_exptl_crystal_description       block
_cell_formula_units_Z            4
loop_
_atom_site_label
_atom_site_type_symbol
_atom_site_fract_x
_atom_site_fract_y
_atom_site_fract_z
Br1 Br 0.38611(2) 1.15620(7) 0.38681(5)
Br2 Br 0.44353(2) 0.85756(6) 0.88313(4)
N1 N 0.11733(17) 0.8462(3) 0.5380(3)
N2 N 0.04257(16) 0.7852(4) 0.5483(3)
N3 N -0.16645(18) 0.5160(4) 0.5780(3)
O1 O 0.22622(14) 1.0061(3) 0.4163(2)
H1 H 0.1820 0.9696 0.4270
O2 O 0.01730(14) 0.8169(3) 0.3293(2)
C1 C 0.2459(2) 0.8814(4) 0.6310(3)
C2 C 0.27257(19) 0.9725(4) 0.5231(3)
C3 C 0.3494(2) 1.0292(4) 0.5283(3)
C4 C 0.4001(2) 0.9964(4) 0.6347(3)
H2 H 0.4512 1.0374 0.6373
C5 C 0.3737(2) 0.9026(4) 0.7363(3)
C6 C 0.2980(2) 0.8450(4) 0.7371(3)
H3 H 0.2813 0.7823 0.8076
C7 C 0.1655(2) 0.8224(4) 0.6360(3)
H4 H 0.1490 0.7673 0.7104
C8 C -0.00388(19) 0.7712(4) 0.4372(3)
C9 C -0.08166(19) 0.6936(4) 0.4557(3)
C10 C -0.1424(2) 0.7215(5) 0.3642(4)
H5 H -0.1347 0.7889 0.2917
C11 C -0.2145(2) 0.6488(5) 0.3811(4)
H6 H -0.2561 0.6666 0.3207
C12 C -0.2236(2) 0.5493(5) 0.4894(4)
H7 H -0.2727 0.5025 0.5011
C13 C -0.0972(2) 0.5869(4) 0.5595(3)
H8 H -0.0563 0.5637 0.6200
H9 H 0.024(2) 0.764(6) 0.629(2)
loop_
_geom_bond_atom_site_label_1
_geom_bond_atom_site_label_2
_geom_bond_site_symmetry_1
_geom_bond_site_symmetry_2
Br1 C3 1_555 1_555
Br2 C5 1_555 1_555
N1 N2 1_555 1_555
N2 C8 1_555 1_555
N3 C12 1_555 1_555
O1 H1 1_555 1_555
O2 C8 1_555 1_555
C1 C2 1_555 1_555
C2 O1 1_555 1_555
C3 C2 1_555 1_555
C4 C3 1_555 1_555
H2 C4 1_555 1_555
C5 C4 1_555 1_555
C6 C1 1_555 1_555
H3 C6 1_555 1_555
C7 N1 1_555 1_555
H4 C7 1_555 1_555
C8 C9 1_555 1_555
C9 C10 1_555 1_555
C10 H5 1_555 1_555
C11 C10 1_555 1_555
H6 C11 1_555 1_555
C12 C11 1_555 1_555
H7 C12 1_555 1_555
C13 N3 1_555 1_555
H8 C13 1_555 1_555
H9 N2 1_555 1_555
C1 C7 1_555 1_555
C5 C6 1_555 1_555
C9 C13 1_555 1_555

#END
