
#######################################################################
#
#                 Cambridge Crystallographic Data Centre
#                                CCDC 
#
#######################################################################
#
# If this CIF has been generated from an entry in the Cambridge 
# Structural Database, then it will include bibliographic, chemical, 
# crystal, experimental, refinement or atomic coordinate data resulting 
# from the CCDC's data processing and validation procedures.
#
#######################################################################

data_PUKKAJ
_chemical_formula_moiety         'C94 F30,C6 H14'
_chemical_name_systematic        
'decakis(Trifluoromethyl)-C~s~-C84fullerene n-hexane solvate'
_symmetry_cell_setting           orthorhombic
_symmetry_space_group_name_H-M   'P b c a'
_symmetry_Int_Tables_number      61
_space_group_name_Hall           '-P 2ac 2ab'
loop_
_symmetry_equiv_pos_site_id
_symmetry_equiv_pos_as_xyz
1 x,y,z
2 1/2-x,-y,1/2+z
3 -x,1/2+y,1/2-z
4 1/2+x,1/2-y,-z
5 -x,-y,-z
6 1/2+x,y,1/2-z
7 x,1/2-y,1/2+z
8 1/2-x,1/2+y,z
_cell_length_a                   11.2710(10)
_cell_length_b                   30.835(2)
_cell_length_c                   36.589(2)
_cell_angle_alpha                90
_cell_angle_beta                 90
_cell_angle_gamma                90
_cell_volume                     12716.2
_exptl_crystal_colour            red
_exptl_crystal_description       needle
_cell_formula_units_Z            8
_exptl_crystal_recrystallization_method toluene/hexane
loop_
_atom_site_label
_atom_site_type_symbol
_atom_site_fract_x
_atom_site_fract_y
_atom_site_fract_z
F1 F 0.5960(3) 0.39719(11) 0.43241(9)
F2 F 0.7546(3) 0.41791(12) 0.45834(9)
F3 F 0.7580(4) 0.40000(12) 0.40194(10)
F4 F 0.3719(3) 0.41320(15) 0.33810(14)
F5 F 0.5261(4) 0.40975(13) 0.30463(10)
F6 F 0.5378(4) 0.39388(12) 0.36091(10)
F7 F 0.9562(3) 0.44583(11) 0.42380(9)
F8 F 1.0752(3) 0.48524(11) 0.39269(8)
F9 F 1.0560(3) 0.49569(12) 0.45020(9)
F10 F 0.5654(3) 0.51663(13) 0.22019(8)
F11 F 0.7250(3) 0.48410(11) 0.23727(8)
F12 F 0.5539(3) 0.45605(13) 0.24873(9)
F13 F 1.0829(2) 0.56961(10) 0.47903(8)
F14 F 1.0748(2) 0.63931(10) 0.47783(7)
F15 F 0.9750(2) 0.60417(12) 0.51773(7)
F16 F 0.7730(3) 0.58919(12) 0.55684(7)
F17 F 0.8162(3) 0.65648(12) 0.54817(7)
F18 F 0.6419(3) 0.63757(12) 0.56500(7)
F19 F 0.4707(3) 0.72722(12) 0.24096(8)
F20 F 0.6618(3) 0.72345(11) 0.23734(8)
F21 F 0.5533(3) 0.67409(12) 0.21272(7)
F22 F 1.0327(2) 0.73433(11) 0.38424(9)
F23 F 0.9519(3) 0.76444(12) 0.33724(8)
F24 F 0.9131(3) 0.78729(11) 0.39098(9)
F25 F 0.5953(7) 0.77085(16) 0.50683(14)
F26 F 0.6399(8) 0.7176(3) 0.54084(19)
F27 F 0.4557(4) 0.7371(3) 0.53241(15)
F28 F 0.6947(7) 0.82358(17) 0.39978(15)
F29 F 0.5684(8) 0.8220(3) 0.4432(2)
F30 F 0.7467(4) 0.80190(15) 0.45237(17)
C1 C 0.7191(4) 0.47951(16) 0.37827(12)
C2 C 0.6672(4) 0.46773(17) 0.41596(13)
C3 C 0.5344(4) 0.47784(17) 0.41602(13)
C4 C 0.4662(5) 0.47790(19) 0.38558(13)
C5 C 0.5137(4) 0.46801(18) 0.34707(13)
C6 C 0.6458(4) 0.47913(17) 0.34547(13)
C7 C 0.6874(4) 0.50015(18) 0.31449(12)
C8 C 0.7927(4) 0.52501(17) 0.31614(11)
C9 C 0.8610(4) 0.52521(17) 0.34738(12)
C10 C 0.8257(4) 0.50107(17) 0.37791(12)
C11 C 0.8958(4) 0.51797(17) 0.41149(12)
C12 C 0.8111(4) 0.52610(17) 0.44381(12)
C13 C 0.7097(4) 0.50092(17) 0.44482(12)
C14 C 0.6103(4) 0.51560(17) 0.46453(12)
C15 C 0.5031(4) 0.50522(17) 0.44528(12)
C16 C 0.4075(4) 0.53508(18) 0.44416(12)
C17 C 0.3335(4) 0.53489(19) 0.41189(13)
C18 C 0.3645(4) 0.50557(18) 0.38380(13)
C19 C 0.3432(4) 0.51488(19) 0.34615(13)
C20 C 0.4405(4) 0.50037(19) 0.32432(13)
C21 C 0.4827(4) 0.52610(19) 0.29629(12)
C22 C 0.6093(4) 0.51877(19) 0.28328(12)
C23 C 0.6734(4) 0.56203(16) 0.27658(11)
C24 C 0.7818(4) 0.56432(17) 0.29512(11)
C25 C 0.8315(4) 0.60393(16) 0.30713(11)
C26 C 0.9048(4) 0.60364(16) 0.34027(11)
C27 C 0.9229(4) 0.56375(16) 0.35856(11)
C28 C 0.9410(3) 0.56126(16) 0.39666(11)
C29 C 0.9445(4) 0.59881(16) 0.41680(11)
C30 C 0.9051(4) 0.60159(16) 0.45675(11)
C31 C 0.8170(4) 0.56538(17) 0.46538(11)
C32 C 0.7230(4) 0.57648(17) 0.48736(11)
C33 C 0.6168(4) 0.55218(18) 0.48533(11)
C34 C 0.5155(4) 0.58017(17) 0.48869(11)
C35 C 0.4133(4) 0.57408(17) 0.46686(11)
C36 C 0.3454(4) 0.61186(18) 0.45791(12)
C37 C 0.2689(4) 0.61155(19) 0.42542(12)
C38 C 0.2645(4) 0.57315(19) 0.40236(13)
C39 C 0.2334(4) 0.5789(2) 0.36523(13)
C40 C 0.2794(4) 0.55082(19) 0.33703(13)
C41 C 0.3177(4) 0.5773(2) 0.30669(12)
C42 C 0.4208(4) 0.56621(19) 0.28768(12)
C43 C 0.4853(4) 0.60271(19) 0.27354(11)
C44 C 0.6138(4) 0.60007(19) 0.26912(11)
C45 C 0.6651(4) 0.64017(17) 0.27684(11)
C46 C 0.7710(4) 0.64292(17) 0.29670(11)
C47 C 0.7877(4) 0.68085(16) 0.31822(11)
C48 C 0.8585(4) 0.68102(16) 0.34872(11)
C49 C 0.9158(3) 0.64220(16) 0.36132(11)
C50 C 0.9315(3) 0.63895(16) 0.39946(11)
C51 C 0.8686(4) 0.66864(16) 0.42436(11)
C52 C 0.8393(4) 0.64530(16) 0.45618(11)
C53 C 0.7400(4) 0.65678(17) 0.47648(11)
C54 C 0.6933(4) 0.62203(17) 0.50273(11)
C55 C 0.5574(4) 0.62127(17) 0.49903(11)
C56 C 0.4935(4) 0.65697(17) 0.49101(11)
C57 C 0.3844(4) 0.65170(18) 0.47188(12)
C58 C 0.3606(4) 0.69215(18) 0.45375(13)
C59 C 0.2888(4) 0.69222(19) 0.42298(13)
C60 C 0.2394(4) 0.65186(19) 0.40989(13)
C61 C 0.2290(4) 0.6569(2) 0.37079(13)
C62 C 0.2253(4) 0.6210(2) 0.34919(13)
C63 C 0.2860(4) 0.6207(2) 0.31463(13)
C64 C 0.3598(4) 0.6565(2) 0.30476(12)
C65 C 0.4563(4) 0.64558(19) 0.28154(12)
C66 C 0.5658(4) 0.67439(19) 0.27776(12)
C67 C 0.5790(4) 0.70580(18) 0.30952(12)
C68 C 0.6922(4) 0.71251(17) 0.32306(12)
C69 C 0.7145(4) 0.73493(17) 0.35638(12)
C70 C 0.8293(4) 0.71935(17) 0.37365(12)
C71 C 0.8051(4) 0.70425(16) 0.41291(11)
C72 C 0.7063(4) 0.71798(16) 0.43390(11)
C73 C 0.6721(4) 0.69329(17) 0.46521(11)
C74 C 0.5503(4) 0.70111(17) 0.48359(12)
C75 C 0.4622(4) 0.71978(18) 0.45630(13)
C76 C 0.4947(4) 0.74392(16) 0.42695(13)
C77 C 0.4255(4) 0.74226(17) 0.39417(13)
C78 C 0.3219(4) 0.71837(19) 0.39230(13)
C79 C 0.2913(4) 0.69554(19) 0.35921(13)
C80 C 0.3659(4) 0.6946(2) 0.32837(12)
C81 C 0.4794(4) 0.71871(18) 0.33089(12)
C82 C 0.5032(4) 0.74260(17) 0.36321(13)
C83 C 0.6211(4) 0.74942(17) 0.37621(13)
C84 C 0.6247(4) 0.75387(16) 0.41820(13)
C85 C 0.6954(5) 0.42032(19) 0.42723(15)
C86 C 0.4882(5) 0.4205(2) 0.33763(16)
C87 C 0.9975(4) 0.48567(18) 0.41995(13)
C88 C 0.6127(5) 0.4928(2) 0.24704(14)
C89 C 1.0105(4) 0.60380(17) 0.48324(12)
C90 C 0.7321(4) 0.62632(18) 0.54373(12)
C91 C 0.5635(4) 0.7001(2) 0.24176(13)
C92 C 0.9327(5) 0.75228(18) 0.37164(13)
C93 C 0.5594(5) 0.7312(2) 0.51735(14)
C94 C 0.6596(5) 0.80025(19) 0.42983(16)
F31? F 0.488(3) 0.7101(9) 0.5465(7)
F32? F 0.525(3) 0.7663(9) 0.5180(7)
F33? F 0.659(6) 0.730(2) 0.5326(15)
F34? F 0.682(3) 0.7990(7) 0.4710(6)
F35? F 0.7605(14) 0.8121(6) 0.4205(6)
F36? F 0.577(3) 0.8259(11) 0.4268(7)
C95? C 1.091(3) 0.3576(12) 0.3412(10)
C96? C 0.962(3) 0.3885(9) 0.3297(8)
C97? C 0.858(3) 0.3715(11) 0.2999(9)
C98? C 0.764(3) 0.3344(12) 0.2762(10)
C99? C 0.749(4) 0.3353(16) 0.2324(16)
C100? C 0.659(4) 0.3318(15) 0.1942(13)
loop_
_geom_bond_atom_site_label_1
_geom_bond_atom_site_label_2
_geom_bond_site_symmetry_1
_geom_bond_site_symmetry_2
F1 C85 1_555 1_555
F2 C85 1_555 1_555
F3 C85 1_555 1_555
F4 C86 1_555 1_555
F5 C86 1_555 1_555
F6 C86 1_555 1_555
F7 C87 1_555 1_555
F8 C87 1_555 1_555
F9 C87 1_555 1_555
F10 C88 1_555 1_555
F11 C88 1_555 1_555
F12 C88 1_555 1_555
F13 C89 1_555 1_555
F14 C89 1_555 1_555
F15 C89 1_555 1_555
F16 C90 1_555 1_555
F17 C90 1_555 1_555
F18 C90 1_555 1_555
F19 C91 1_555 1_555
F20 C91 1_555 1_555
F21 C91 1_555 1_555
F22 C92 1_555 1_555
F23 C92 1_555 1_555
F24 C92 1_555 1_555
F25 C93 1_555 1_555
F26 C93 1_555 1_555
F27 C93 1_555 1_555
F28 C94 1_555 1_555
F29 C94 1_555 1_555
F30 C94 1_555 1_555
C1 C2 1_555 1_555
C2 C3 1_555 1_555
C3 C4 1_555 1_555
C4 C5 1_555 1_555
C5 C6 1_555 1_555
C6 C1 1_555 1_555
C7 C6 1_555 1_555
C8 C7 1_555 1_555
C9 C8 1_555 1_555
C10 C1 1_555 1_555
C11 C10 1_555 1_555
C12 C11 1_555 1_555
C13 C2 1_555 1_555
C14 C13 1_555 1_555
C15 C3 1_555 1_555
C16 C15 1_555 1_555
C17 C16 1_555 1_555
C18 C4 1_555 1_555
C19 C18 1_555 1_555
C20 C5 1_555 1_555
C21 C20 1_555 1_555
C22 C7 1_555 1_555
C23 C22 1_555 1_555
C24 C8 1_555 1_555
C25 C24 1_555 1_555
C26 C25 1_555 1_555
C27 C9 1_555 1_555
C28 C11 1_555 1_555
C29 C28 1_555 1_555
C30 C29 1_555 1_555
C31 C12 1_555 1_555
C32 C31 1_555 1_555
C33 C14 1_555 1_555
C34 C33 1_555 1_555
C35 C16 1_555 1_555
C36 C35 1_555 1_555
C37 C36 1_555 1_555
C38 C17 1_555 1_555
C39 C38 1_555 1_555
C40 C19 1_555 1_555
C41 C40 1_555 1_555
C42 C21 1_555 1_555
C43 C42 1_555 1_555
C44 C23 1_555 1_555
C45 C44 1_555 1_555
C46 C25 1_555 1_555
C47 C46 1_555 1_555
C48 C47 1_555 1_555
C49 C26 1_555 1_555
C50 C29 1_555 1_555
C51 C50 1_555 1_555
C52 C30 1_555 1_555
C53 C52 1_555 1_555
C54 C32 1_555 1_555
C55 C34 1_555 1_555
C56 C55 1_555 1_555
C57 C36 1_555 1_555
C58 C57 1_555 1_555
C59 C58 1_555 1_555
C60 C37 1_555 1_555
C61 C60 1_555 1_555
C62 C39 1_555 1_555
C63 C41 1_555 1_555
C64 C63 1_555 1_555
C65 C43 1_555 1_555
C66 C45 1_555 1_555
C67 C66 1_555 1_555
C68 C47 1_555 1_555
C69 C68 1_555 1_555
C70 C48 1_555 1_555
C71 C51 1_555 1_555
C72 C71 1_555 1_555
C73 C53 1_555 1_555
C74 C56 1_555 1_555
C75 C58 1_555 1_555
C76 C75 1_555 1_555
C77 C76 1_555 1_555
C78 C59 1_555 1_555
C79 C61 1_555 1_555
C80 C64 1_555 1_555
C81 C67 1_555 1_555
C82 C77 1_555 1_555
C83 C69 1_555 1_555
C84 C72 1_555 1_555
C85 C2 1_555 1_555
C86 C5 1_555 1_555
C87 C11 1_555 1_555
C88 C22 1_555 1_555
C89 C30 1_555 1_555
C90 C54 1_555 1_555
C91 C66 1_555 1_555
C92 C70 1_555 1_555
C93 C74 1_555 1_555
C94 C84 1_555 1_555
C9 C10 1_555 1_555
C12 C13 1_555 1_555
C14 C15 1_555 1_555
C17 C18 1_555 1_555
C19 C20 1_555 1_555
C21 C22 1_555 1_555
C23 C24 1_555 1_555
C26 C27 1_555 1_555
C27 C28 1_555 1_555
C30 C31 1_555 1_555
C32 C33 1_555 1_555
C34 C35 1_555 1_555
C37 C38 1_555 1_555
C39 C40 1_555 1_555
C41 C42 1_555 1_555
C43 C44 1_555 1_555
C45 C46 1_555 1_555
C48 C49 1_555 1_555
C49 C50 1_555 1_555
C51 C52 1_555 1_555
C53 C54 1_555 1_555
C54 C55 1_555 1_555
C56 C57 1_555 1_555
C59 C60 1_555 1_555
C61 C62 1_555 1_555
C62 C63 1_555 1_555
C64 C65 1_555 1_555
C65 C66 1_555 1_555
C67 C68 1_555 1_555
C69 C70 1_555 1_555
C70 C71 1_555 1_555
C72 C73 1_555 1_555
C73 C74 1_555 1_555
C74 C75 1_555 1_555
C76 C84 1_555 1_555
C77 C78 1_555 1_555
C78 C79 1_555 1_555
C79 C80 1_555 1_555
C80 C81 1_555 1_555
C81 C82 1_555 1_555
C82 C83 1_555 1_555
C83 C84 1_555 1_555

#END
