
#######################################################################
#
#                 Cambridge Crystallographic Data Centre
#                                CCDC 
#
#######################################################################
#
# If this CIF has been generated from an entry in the Cambridge 
# Structural Database, then it will include bibliographic, chemical, 
# crystal, experimental, refinement or atomic coordinate data resulting 
# from the CCDC's data processing and validation procedures.
#
#######################################################################

data_PUKKIQ
_chemical_formula_moiety         'C17 H14 Cl1 N3 O1,H2 O1'
_chemical_name_systematic        
'7-Chloro-4-[(E)-2-(4-methoxybenzylidene)hydrazin-1-yl]quinoline monohydrate'
_symmetry_cell_setting           triclinic
_symmetry_space_group_name_H-M   'P -1'
_symmetry_Int_Tables_number      2
_space_group_name_Hall           '-P 1'
loop_
_symmetry_equiv_pos_site_id
_symmetry_equiv_pos_as_xyz
1 x,y,z
2 -x,-y,-z
_cell_length_a                   7.0086(6)
_cell_length_b                   9.2384(8)
_cell_length_c                   13.3701(12)
_cell_angle_alpha                100.026(4)
_cell_angle_beta                 103.903(5)
_cell_angle_gamma                107.000(5)
_cell_volume                     775.272
_exptl_crystal_colour            colorless
_exptl_crystal_description       needle
_chemical_melting_point          '417-418 K'
_cell_formula_units_Z            2
_exptl_crystal_recrystallization_method ethanol
loop_
_atom_site_label
_atom_site_type_symbol
_atom_site_fract_x
_atom_site_fract_y
_atom_site_fract_z
Cl1 Cl 0.12492(19) 0.53097(12) 0.13214(8)
O1 O 0.3226(4) 0.0839(3) 1.1296(2)
N1 N 0.2963(5) 0.7665(4) 0.5289(2)
N2 N 0.2484(5) 0.3358(4) 0.6035(2)
H1 H 0.2193 0.2506 0.5527
N3 N 0.2774(5) 0.3291(4) 0.7081(2)
C1 C 0.3251(6) 0.7500(4) 0.6279(3)
H2 H 0.3611 0.8418 0.6835
C2 C 0.3074(6) 0.6112(4) 0.6569(3)
H3 H 0.3239 0.6092 0.7292
C3 C 0.2653(6) 0.4750(4) 0.5796(3)
C4 C 0.2376(6) 0.4842(4) 0.4712(3)
C5 C 0.2011(6) 0.3562(4) 0.3853(3)
H4 H 0.1959 0.2576 0.3985
C6 C 0.1728(6) 0.3715(4) 0.2828(3)
H5 H 0.1518 0.2852 0.2259
C7 C 0.1753(6) 0.5170(4) 0.2634(3)
C8 C 0.2147(6) 0.6443(4) 0.3441(3)
H6 H 0.2180 0.7417 0.3292
C9 C 0.2507(6) 0.6313(4) 0.4502(3)
C10 C 0.2358(6) 0.1919(5) 0.7224(3)
H7 H 0.1879 0.1044 0.6620
C11 C 0.2591(6) 0.1642(4) 0.8281(3)
C12 C 0.2046(6) 0.0122(4) 0.8385(3)
H8 H 0.1524 -0.0724 0.7759
C13 C 0.2235(6) -0.0212(4) 0.9368(3)
H9 H 0.1854 -0.1267 0.9415
C14 C 0.2985(6) 0.1016(4) 1.0276(3)
C15 C 0.3569(6) 0.2567(4) 1.0201(3)
H10 H 0.4099 0.3408 1.0830
C16 C 0.3379(6) 0.2878(4) 0.9220(3)
H11 H 0.3781 0.3934 0.9176
C17 C 0.2580(7) -0.0735(4) 1.1403(3)
H12 H 0.1093 -0.1280 1.0997
H13 H 0.2787 -0.0709 1.2158
H14 H 0.3418 -0.1291 1.1127
O2 O 0.7337(5) 0.9550(3) 0.5298(2)
H15 H 0.736(8) 1.039(6) 0.511(4)
H16 H 0.610(8) 0.908(6) 0.530(4)
loop_
_geom_bond_atom_site_label_1
_geom_bond_atom_site_label_2
_geom_bond_site_symmetry_1
_geom_bond_site_symmetry_2
Cl1 C7 1_555 1_555
O1 C14 1_555 1_555
N1 C1 1_555 1_555
N2 H1 1_555 1_555
N3 N2 1_555 1_555
C1 H2 1_555 1_555
C2 C1 1_555 1_555
H3 C2 1_555 1_555
C3 N2 1_555 1_555
C4 C3 1_555 1_555
C5 C4 1_555 1_555
H4 C5 1_555 1_555
C6 C5 1_555 1_555
H5 C6 1_555 1_555
C7 C6 1_555 1_555
C8 C7 1_555 1_555
H6 C8 1_555 1_555
C9 N1 1_555 1_555
C10 N3 1_555 1_555
H7 C10 1_555 1_555
C11 C10 1_555 1_555
C12 C11 1_555 1_555
H8 C12 1_555 1_555
C13 C12 1_555 1_555
H9 C13 1_555 1_555
C14 C13 1_555 1_555
C15 C14 1_555 1_555
H10 C15 1_555 1_555
C16 C11 1_555 1_555
H11 C16 1_555 1_555
C17 O1 1_555 1_555
H12 C17 1_555 1_555
H13 C17 1_555 1_555
H14 C17 1_555 1_555
O2 H15 1_555 1_555
H16 O2 1_555 1_555
C2 C3 1_555 1_555
C4 C9 1_555 1_555
C8 C9 1_555 1_555
C15 C16 1_555 1_555

#END
