
#######################################################################
#
#                 Cambridge Crystallographic Data Centre
#                                CCDC 
#
#######################################################################
#
# If this CIF has been generated from an entry in the Cambridge 
# Structural Database, then it will include bibliographic, chemical, 
# crystal, experimental, refinement or atomic coordinate data resulting 
# from the CCDC's data processing and validation procedures.
#
#######################################################################

data_PUKKOW
_chemical_formula_moiety         'C17 H14 Cl1 N3 O1,H2 O1'
_chemical_name_systematic        
'7-Chloro-4-[(E)-2-(2-methoxybenzylidene)hydrazin-1-yl]quinoline monohydrate'
_symmetry_cell_setting           monoclinic
_symmetry_space_group_name_H-M   'P 21/c'
_symmetry_Int_Tables_number      14
_space_group_name_Hall           '-P 2ybc'
loop_
_symmetry_equiv_pos_site_id
_symmetry_equiv_pos_as_xyz
1 x,y,z
2 -x,1/2+y,1/2-z
3 -x,-y,-z
4 x,1/2-y,1/2+z
_cell_length_a                   3.9202(2)
_cell_length_b                   24.5084(17)
_cell_length_c                   16.1212(11)
_cell_angle_alpha                90
_cell_angle_beta                 91.639(4)
_cell_angle_gamma                90
_cell_volume                     1548.26
_exptl_crystal_colour            colorless
_exptl_crystal_description       needle
_chemical_melting_point          '459-461 K'
_cell_formula_units_Z            4
_exptl_crystal_recrystallization_method ethanol
loop_
_atom_site_label
_atom_site_type_symbol
_atom_site_fract_x
_atom_site_fract_y
_atom_site_fract_z
Cl1 Cl 0.0208(4) 0.57108(6) 0.05313(10)
O1 O 1.3298(11) 0.93299(18) 0.2940(3)
N1 N 0.1966(13) 0.7497(2) -0.0985(3)
N2 N 0.6619(13) 0.8261(2) 0.1080(3)
H1 H 0.6968 0.8080 0.1547
N3 N 0.7680(12) 0.8795(2) 0.1015(3)
C1 C 0.2920(16) 0.8018(3) -0.0989(4)
H2 H 0.2504 0.8220 -0.1484
C2 C 0.4479(15) 0.8288(2) -0.0322(4)
H3 H 0.5157 0.8658 -0.0377
C3 C 0.5046(15) 0.8016(2) 0.0426(4)
C4 C 0.3926(15) 0.7459(2) 0.0470(4)
C5 C 0.4234(15) 0.7141(3) 0.1204(4)
H4 H 0.5240 0.7296 0.1692
C6 C 0.3094(16) 0.6611(2) 0.1217(4)
H5 H 0.3293 0.6402 0.1712
C7 C 0.1640(15) 0.6384(2) 0.0496(4)
C8 C 0.1307(16) 0.6672(3) -0.0225(4)
H6 H 0.0329 0.6504 -0.0707
C9 C 0.2419(15) 0.7222(2) -0.0257(4)
C10 C 0.9303(15) 0.8980(3) 0.1657(4)
H7 H 0.9774 0.8745 0.2115
C11 C 1.0442(14) 0.9551(2) 0.1693(4)
C12 C 1.2380(14) 0.9726(2) 0.2387(4)
C13 C 1.3295(16) 1.0271(3) 0.2466(4)
H8 H 1.4596 1.0391 0.2938
C14 C 1.2299(16) 1.0641(3) 0.1851(4)
H9 H 1.2908 1.1014 0.1909
C15 C 1.0422(16) 1.0471(3) 0.1152(4)
H10 H 0.9778 1.0725 0.0731
C16 C 0.9495(15) 0.9922(2) 0.1078(4)
H11 H 0.8211 0.9802 0.0604
C17 C 1.5235(16) 0.9495(3) 0.3666(4)
H12 H 1.7439 0.9642 0.3501
H13 H 1.5613 0.9179 0.4030
H14 H 1.3976 0.9777 0.3962
O2 O 0.7223(14) 0.7893(2) 0.2807(3)
H15 H 0.53(2) 0.785(3) 0.300(5)
H16 H 0.89(2) 0.780(3) 0.309(5)
loop_
_geom_bond_atom_site_label_1
_geom_bond_atom_site_label_2
_geom_bond_site_symmetry_1
_geom_bond_site_symmetry_2
Cl1 C7 1_555 1_555
O1 C12 1_555 1_555
N1 C1 1_555 1_555
N2 H1 1_555 1_555
N3 N2 1_555 1_555
C1 H2 1_555 1_555
C2 C1 1_555 1_555
H3 C2 1_555 1_555
C3 N2 1_555 1_555
C4 C3 1_555 1_555
C5 C4 1_555 1_555
H4 C5 1_555 1_555
C6 C5 1_555 1_555
H5 C6 1_555 1_555
C7 C6 1_555 1_555
C8 C7 1_555 1_555
H6 C8 1_555 1_555
C9 N1 1_555 1_555
C10 N3 1_555 1_555
H7 C10 1_555 1_555
C11 C10 1_555 1_555
C12 C11 1_555 1_555
C13 C12 1_555 1_555
H8 C13 1_555 1_555
C14 C13 1_555 1_555
H9 C14 1_555 1_555
C15 C14 1_555 1_555
H10 C15 1_555 1_555
C16 C11 1_555 1_555
H11 C16 1_555 1_555
C17 O1 1_555 1_555
H12 C17 1_555 1_555
H13 C17 1_555 1_555
H14 C17 1_555 1_555
O2 H15 1_555 1_555
H16 O2 1_555 1_555
C2 C3 1_555 1_555
C4 C9 1_555 1_555
C8 C9 1_555 1_555
C15 C16 1_555 1_555

#END
