
#######################################################################
#
#                 Cambridge Crystallographic Data Centre
#                                CCDC 
#
#######################################################################
#
# If this CIF has been generated from an entry in the Cambridge 
# Structural Database, then it will include bibliographic, chemical, 
# crystal, experimental, refinement or atomic coordinate data resulting 
# from the CCDC's data processing and validation procedures.
#
#######################################################################

data_PUKPIV
_chemical_name_common            
2,2'-(3,7-Dioxa-2,8-diazanona-1,8-diene-1,9-diyl)bis(6-ethoxyphenol)
_chemical_formula_moiety         'C21 H26 N2 O6'
_chemical_name_systematic        
6,6'-Diethoxy-2,2'-[propane-1,3-diyldioxybis(nitrilomethylidyne)]diphenol
_symmetry_cell_setting           orthorhombic
_symmetry_space_group_name_H-M   'F d d 2'
_symmetry_Int_Tables_number      43
_space_group_name_Hall           'F 2 -2d'
loop_
_symmetry_equiv_pos_site_id
_symmetry_equiv_pos_as_xyz
1 x,y,z
2 -x,-y,z
3 1/4+x,1/4-y,1/4+z
4 1/4-x,1/4+y,1/4+z
5 x,1/2+y,1/2+z
6 -x,1/2-y,1/2+z
7 1/4+x,3/4-y,3/4+z
8 1/4-x,3/4+y,3/4+z
9 1/2+x,y,1/2+z
10 1/2-x,-y,1/2+z
11 3/4+x,1/4-y,3/4+z
12 3/4-x,1/4+y,3/4+z
13 1/2+x,1/2+y,z
14 1/2-x,1/2-y,z
15 3/4+x,3/4-y,1/4+z
16 3/4-x,3/4+y,1/4+z
_cell_length_a                   25.292(2)
_cell_length_b                   34.412(3)
_cell_length_c                   4.7176(5)
_cell_angle_alpha                90
_cell_angle_beta                 90
_cell_angle_gamma                90
_cell_volume                     4105.96
_exptl_crystal_colour            colorless
_exptl_crystal_description       needle
_chemical_melting_point          '462.5-463.5 K'
_cell_formula_units_Z            8
_exptl_crystal_recrystallization_method methanol
loop_
_atom_site_label
_atom_site_type_symbol
_atom_site_fract_x
_atom_site_fract_y
_atom_site_fract_z
N1 N 0.23158(9) 0.17094(6) 0.6113(5)
O1 O 0.21889(7) 0.20179(5) 0.4290(5)
O2 O 0.28824(6) 0.11584(5) 0.8533(5)
H1 H 0.2826 0.1334 0.7399
O3 O 0.29360(7) 0.05913(6) 1.2148(5)
C1 C 0.26566(10) 0.21504(7) 0.2881(7)
H2 H 0.2796 0.1948 0.1660
H3 H 0.2926 0.2220 0.4255
C2 C 0.2500 0.2500 0.1155(10)
H4 H 0.2794 0.2571 -0.0059
C3 C 0.19084(11) 0.15810(7) 0.7412(6)
H5 H 0.1580 0.1692 0.7050
C4 C 0.19489(10) 0.12638(7) 0.9451(6)
C5 C 0.24271(10) 0.10703(7) 0.9928(6)
C6 C 0.24500(10) 0.07660(7) 1.1909(6)
C7 C 0.20034(10) 0.06695(8) 1.3422(7)
H6 H 0.2021 0.0474 1.4782
C8 C 0.15281(11) 0.08595(8) 1.2947(7)
H7 H 0.1228 0.0788 1.3960
C9 C 0.15006(10) 0.11522(8) 1.0988(7)
H8 H 0.1181 0.1278 1.0674
C10 C 0.29937(10) 0.02900(8) 1.4204(7)
H9 H 0.2739 0.0085 1.3867
H10 H 0.2939 0.0392 1.6100
C11 C 0.35463(10) 0.01383(9) 1.3886(11)
H11 H 0.3609 0.0072 1.1938
H12 H 0.3590 -0.0088 1.5048
H13 H 0.3793 0.0335 1.4467
N1M N 0.26842(9) 0.32906(6) 0.6113(5)
O1M O 0.28111(7) 0.29821(5) 0.4290(5)
O2M O 0.21176(6) 0.38416(5) 0.8533(5)
H1M H 0.2174 0.3666 0.7399
O3M O 0.20640(7) 0.44087(6) 1.2148(5)
C1M C 0.23434(10) 0.28496(7) 0.2881(7)
H2M H 0.2204 0.3052 0.1660
H3M H 0.2074 0.2780 0.4255
H4M H 0.2206 0.2429 -0.0059
C3M C 0.30916(11) 0.34190(7) 0.7412(6)
H5M H 0.3420 0.3308 0.7050
C4M C 0.30511(10) 0.37362(7) 0.9451(6)
C5M C 0.25729(10) 0.39297(7) 0.9928(6)
C6M C 0.25500(10) 0.42340(7) 1.1909(6)
C7M C 0.29966(10) 0.43305(8) 1.3422(7)
H6M H 0.2979 0.4526 1.4782
C8M C 0.34719(11) 0.41405(8) 1.2947(7)
H7M H 0.3772 0.4212 1.3960
C9M C 0.34994(10) 0.38478(8) 1.0988(7)
H8M H 0.3819 0.3722 1.0674
C10M C 0.20063(10) 0.47100(8) 1.4204(7)
H9M H 0.2261 0.4915 1.3867
H10M H 0.2061 0.4608 1.6100
C11M C 0.14537(10) 0.48617(9) 1.3886(11)
H11M H 0.1391 0.4928 1.1938
H12M H 0.1410 0.5088 1.5048
H13M H 0.1207 0.4665 1.4467
loop_
_geom_bond_atom_site_label_1
_geom_bond_atom_site_label_2
_geom_bond_site_symmetry_1
_geom_bond_site_symmetry_2
N1 O1 1_555 1_555
O1 C1 1_555 1_555
O2 H1 1_555 1_555
O3 C6 1_555 1_555
C1 H2 1_555 1_555
H3 C1 1_555 1_555
C2 C1 1_555 1_555
H4 C2 1_555 1_555
C3 N1 1_555 1_555
H5 C3 1_555 1_555
C4 C3 1_555 1_555
C5 O2 1_555 1_555
C6 C5 1_555 1_555
C7 C6 1_555 1_555
H6 C7 1_555 1_555
C8 C7 1_555 1_555
H7 C8 1_555 1_555
C9 C4 1_555 1_555
H8 C9 1_555 1_555
C10 O3 1_555 1_555
H9 C10 1_555 1_555
H10 C10 1_555 1_555
C11 C10 1_555 1_555
H11 C11 1_555 1_555
H12 C11 1_555 1_555
H13 C11 1_555 1_555
N1M O1M 1_555 1_555
O1M C1M 1_555 1_555
O2M H1M 1_555 1_555
O3M C6M 1_555 1_555
C1M C2 1_555 1_555
H2M C1M 1_555 1_555
H3M C1M 1_555 1_555
H4M C2 1_555 1_555
C3M N1M 1_555 1_555
H5M C3M 1_555 1_555
C4M C3M 1_555 1_555
C5M O2M 1_555 1_555
C6M C5M 1_555 1_555
C7M C6M 1_555 1_555
H6M C7M 1_555 1_555
C8M C7M 1_555 1_555
H7M C8M 1_555 1_555
C9M C4M 1_555 1_555
H8M C9M 1_555 1_555
C10M O3M 1_555 1_555
H9M C10M 1_555 1_555
H10M C10M 1_555 1_555
C11M C10M 1_555 1_555
H11M C11M 1_555 1_555
H12M C11M 1_555 1_555
H13M C11M 1_555 1_555
C4 C5 1_555 1_555
C8 C9 1_555 1_555
C4M C5M 1_555 1_555
C8M C9M 1_555 1_555

#END
