
#######################################################################
#
#                 Cambridge Crystallographic Data Centre
#                                CCDC 
#
#######################################################################
#
# If this CIF has been generated from an entry in the Cambridge 
# Structural Database, then it will include bibliographic, chemical, 
# crystal, experimental, refinement or atomic coordinate data resulting 
# from the CCDC's data processing and validation procedures.
#
#######################################################################

data_PUKQUI
_chemical_name_common            
(Z)-3-(2-Methoxyanilino)-1-phenylbut-2-en-1-one
_chemical_formula_moiety         'C17 H17 N1 O2'
_chemical_name_systematic        
3-((2-Methoxyphenyl)amino)-1-phenylbut-2-en-1-one
_symmetry_cell_setting           tetragonal
_symmetry_space_group_name_H-M   'P 42/n'
_symmetry_Int_Tables_number      86
_space_group_name_Hall           '-P 4bc'
loop_
_symmetry_equiv_pos_site_id
_symmetry_equiv_pos_as_xyz
1 x,y,z
2 1/2-x,1/2-y,z
3 -y,1/2+x,1/2+z
4 1/2+y,-x,1/2+z
5 -x,-y,-z
6 1/2+x,1/2+y,-z
7 y,1/2-x,1/2-z
8 1/2-y,x,1/2-z
_cell_length_a                   19.125(2)
_cell_length_b                   19.125(2)
_cell_length_c                   7.9993(19)
_cell_angle_alpha                90
_cell_angle_beta                 90
_cell_angle_gamma                90
_cell_volume                     2925.87
_exptl_crystal_colour            colorless
_exptl_crystal_description       block
_chemical_melting_point          92-93deg.C
_cell_formula_units_Z            8
_exptl_crystal_recrystallization_method 'ethyl acetate/cyclohexane'
loop_
_atom_site_label
_atom_site_type_symbol
_atom_site_fract_x
_atom_site_fract_y
_atom_site_fract_z
O1 O 0.66062(7) 0.61242(9) 0.03020(19)
O2 O 0.50749(8) 0.65620(8) 0.22101(19)
N1 N 0.53344(8) 0.60548(8) -0.0795(2)
H1 H 0.5444 0.6304 0.0061
C1 C 0.58654(11) 0.59997(10) -0.1999(3)
C2 C 0.65502(11) 0.60408(11) -0.1391(3)
C3 C 0.71061(12) 0.60098(13) -0.2475(3)
H2 H 0.7560 0.6032 -0.2064
C4 C 0.69923(13) 0.59461(13) -0.4180(3)
H3 H 0.7370 0.5917 -0.4908
C5 C 0.63235(13) 0.59259(12) -0.4793(3)
H4 H 0.6247 0.5889 -0.5938
C6 C 0.57633(12) 0.59603(11) -0.3709(3)
H5 H 0.5311 0.5957 -0.4133
C7 C 0.72721(13) 0.62799(16) 0.0979(3)
H6 H 0.7570 0.5878 0.0880
H7 H 0.7223 0.6403 0.2137
H8 H 0.7475 0.6664 0.0379
C8 C 0.44084(11) 0.53573(11) -0.2157(3)
H9 H 0.4270 0.5660 -0.3056
H10 H 0.4012 0.5092 -0.1786
H11 H 0.4767 0.5044 -0.2539
C9 C 0.46824(11) 0.57866(10) -0.0740(2)
C10 C 0.42736(10) 0.59017(10) 0.0650(3)
H12 H 0.3825 0.5715 0.0647
C11 C 0.44829(11) 0.62827(10) 0.2084(3)
C12 C 0.39786(11) 0.63783(11) 0.3497(3)
C13 C 0.34395(11) 0.59189(12) 0.3815(3)
H13 H 0.3387 0.5524 0.3149
C14 C 0.29750(13) 0.60378(16) 0.5113(3)
H14 H 0.2615 0.5722 0.5320
C15 C 0.30459(18) 0.66161(19) 0.6081(4)
H15 H 0.2729 0.6702 0.6938
C16 C 0.35791(18) 0.70697(16) 0.5801(4)
H16 H 0.3628 0.7462 0.6478
C17 C 0.40504(14) 0.69538(13) 0.4520(3)
H17 H 0.4417 0.7265 0.4348
loop_
_geom_bond_atom_site_label_1
_geom_bond_atom_site_label_2
_geom_bond_site_symmetry_1
_geom_bond_site_symmetry_2
O1 C2 1_555 1_555
O2 C11 1_555 1_555
N1 H1 1_555 1_555
C1 N1 1_555 1_555
C2 C1 1_555 1_555
C3 C2 1_555 1_555
H2 C3 1_555 1_555
C4 C3 1_555 1_555
H3 C4 1_555 1_555
C5 C4 1_555 1_555
H4 C5 1_555 1_555
C6 C1 1_555 1_555
H5 C6 1_555 1_555
C7 O1 1_555 1_555
H6 C7 1_555 1_555
H7 C7 1_555 1_555
H8 C7 1_555 1_555
C8 H9 1_555 1_555
H10 C8 1_555 1_555
H11 C8 1_555 1_555
C9 N1 1_555 1_555
C10 C9 1_555 1_555
H12 C10 1_555 1_555
C11 C10 1_555 1_555
C12 C11 1_555 1_555
C13 C12 1_555 1_555
H13 C13 1_555 1_555
C14 C13 1_555 1_555
H14 C14 1_555 1_555
C15 C14 1_555 1_555
H15 C15 1_555 1_555
C16 C15 1_555 1_555
H16 C16 1_555 1_555
C17 C12 1_555 1_555
H17 C17 1_555 1_555
C5 C6 1_555 1_555
C8 C9 1_555 1_555
C16 C17 1_555 1_555

#END
