
#######################################################################
#
#                 Cambridge Crystallographic Data Centre
#                                CCDC 
#
#######################################################################
#
# If this CIF has been generated from an entry in the Cambridge 
# Structural Database, then it will include bibliographic, chemical, 
# crystal, experimental, refinement or atomic coordinate data resulting 
# from the CCDC's data processing and validation procedures.
#
#######################################################################

data_PULCOP
_chemical_formula_moiety         'C24 H22 S6 Si2'
_chemical_name_systematic        
"rac-Thieno[3',2':4,5]thieno[2,3-b]thieno[3'',2'':4',5'] thieno[3',2':4,5]thieno[3,2-e][1]benzothiene-2,11-diylbis(trimethylsilane)"
_symmetry_cell_setting           orthorhombic
_symmetry_space_group_name_H-M   'P b c a'
_symmetry_Int_Tables_number      61
_space_group_name_Hall           '-P 2ac 2ab'
loop_
_symmetry_equiv_pos_site_id
_symmetry_equiv_pos_as_xyz
1 x,y,z
2 1/2-x,-y,1/2+z
3 -x,1/2+y,1/2-z
4 1/2+x,1/2-y,-z
5 -x,-y,-z
6 1/2+x,y,1/2-z
7 x,1/2-y,1/2+z
8 1/2-x,1/2+y,z
_cell_length_a                   8.9624(8)
_cell_length_b                   19.1122(18)
_cell_length_c                   31.228(3)
_cell_angle_alpha                90
_cell_angle_beta                 90
_cell_angle_gamma                90
_cell_volume                     5349.08
_exptl_crystal_colour            pink
_exptl_crystal_description       block
_chemical_melting_point          251-253deg.C
_cell_formula_units_Z            8
loop_
_atom_site_label
_atom_site_type_symbol
_atom_site_fract_x
_atom_site_fract_y
_atom_site_fract_z
Si1 Si 0.95841(11) 0.53666(4) 0.40666(3)
C1 C 1.1439(3) 0.5762(3) 0.38630(13)
H1 H 1.1231 0.6146 0.3674
H2 H 1.1994 0.5410 0.3712
H3 H 1.2015 0.5926 0.4102
C2 C 0.8554(5) 0.6013(2) 0.43841(10)
H4 H 0.9111 0.6125 0.4637
H5 H 0.7601 0.5823 0.4464
H6 H 0.8409 0.6429 0.4217
C3 C 1.0031(5) 0.45468(10) 0.43769(11)
H7 H 1.0679 0.4660 0.4612
H8 H 1.0516 0.4217 0.4192
H9 H 0.9124 0.4346 0.4485
C4 C 0.8240(3) 0.31426(15) 0.20658(9)
C5 C 0.8340(3) 0.32432(13) 0.25123(8)
C6 C 0.9031(3) 0.27017(13) 0.27546(8)
C7 C 0.9831(3) 0.21858(14) 0.25228(10)
C8 C 0.9804(3) 0.21413(16) 0.20773(10)
H10 H 1.0366 0.1803 0.1937
C9 C 0.8951(3) 0.25951(16) 0.18504(10)
H11 H 0.8842 0.2543 0.1556
C10 C 1.0102(3) 0.20324(14) 0.32986(9)
C11 C 0.9106(3) 0.25628(13) 0.32088(9)
C12 C 0.8944(3) 0.24478(15) 0.39509(9)
C13 C 0.8348(3) 0.27797(13) 0.35961(8)
C14 C 0.6791(3) 0.31994(14) 0.41433(9)
C15 C 0.7091(3) 0.31962(13) 0.37146(9)
H12 H 0.6524 0.3444 0.3517
C16 C 0.3563(4) 0.3102(2) 0.44506(13)
H13 H 0.3140 0.3077 0.4169
H14 H 0.2849 0.3302 0.4644
H15 H 0.3824 0.2641 0.4546
C17 C 0.5907(5) 0.3810(3) 0.49973(12)
H16 H 0.6158 0.3371 0.5128
H17 H 0.5125 0.4031 0.5158
H18 H 0.6769 0.4108 0.4994
C18 C 0.4860(5) 0.44863(19) 0.41468(13)
H19 H 0.5738 0.4774 0.4144
H20 H 0.4064 0.4731 0.4288
H21 H 0.4570 0.4382 0.3858
C19 C 0.7731(3) 0.39142(13) 0.26311(8)
C20 C 0.7030(3) 0.42308(14) 0.22887(9)
C21 C 0.7870(3) 0.44044(13) 0.29833(8)
C22 C 0.7167(3) 0.50283(13) 0.28904(9)
C23 C 0.8684(3) 0.44554(13) 0.33738(8)
H22 H 0.9236 0.4086 0.3485
C24 C 0.8586(3) 0.50914(14) 0.35706(9)
S1 S 1.08190(9) 0.16128(4) 0.28537(3)
S2 S 1.03119(10) 0.18373(4) 0.38362(3)
S3 S 0.80624(11) 0.26729(4) 0.44182(2)
S4 S 0.71970(9) 0.37901(4) 0.18105(2)
S5 S 0.63651(9) 0.50708(4) 0.23860(2)
S6 S 0.74428(9) 0.56532(4) 0.32778(2)
Si2 Si 0.52605(11) 0.36576(5) 0.44376(3)
C25? C 1.0873(5) 0.6107(2) 0.39759(14)
C26? C 0.8037(4) 0.5671(3) 0.44706(10)
C27? C 1.0523(5) 0.45834(12) 0.43058(11)
H23? H 1.0310 0.6515 0.3898
H24? H 1.1553 0.5992 0.3749
H25? H 1.1423 0.6199 0.4233
H26? H 0.8496 0.5908 0.4708
H27? H 0.7498 0.5271 0.4573
H28? H 0.7362 0.5984 0.4329
H29? H 1.0900 0.4700 0.4585
H30? H 1.1335 0.4440 0.4125
H31? H 0.9817 0.4208 0.4330
loop_
_geom_bond_atom_site_label_1
_geom_bond_atom_site_label_2
_geom_bond_site_symmetry_1
_geom_bond_site_symmetry_2
Si1 C1 1_555 1_555
C1 H1 1_555 1_555
H2 C1 1_555 1_555
H3 C1 1_555 1_555
C2 Si1 1_555 1_555
H4 C2 1_555 1_555
H5 C2 1_555 1_555
H6 C2 1_555 1_555
C3 Si1 1_555 1_555
H7 C3 1_555 1_555
H8 C3 1_555 1_555
H9 C3 1_555 1_555
C4 C5 1_555 1_555
C5 C6 1_555 1_555
C6 C7 1_555 1_555
C7 C8 1_555 1_555
C8 H10 1_555 1_555
C9 C4 1_555 1_555
H11 C9 1_555 1_555
C10 C11 1_555 1_555
C11 C6 1_555 1_555
C12 C13 1_555 1_555
C13 C11 1_555 1_555
C14 C15 1_555 1_555
C15 C13 1_555 1_555
H12 C15 1_555 1_555
C16 H13 1_555 1_555
H14 C16 1_555 1_555
H15 C16 1_555 1_555
C17 H16 1_555 1_555
H17 C17 1_555 1_555
H18 C17 1_555 1_555
C18 H19 1_555 1_555
H20 C18 1_555 1_555
H21 C18 1_555 1_555
C19 C5 1_555 1_555
C20 C19 1_555 1_555
C21 C19 1_555 1_555
C22 C21 1_555 1_555
C23 C21 1_555 1_555
H22 C23 1_555 1_555
C24 Si1 1_555 1_555
S1 C7 1_555 1_555
S2 C10 1_555 1_555
S3 C12 1_555 1_555
S4 C4 1_555 1_555
S5 C20 1_555 1_555
S6 C22 1_555 1_555
Si2 C14 1_555 1_555
C8 C9 1_555 1_555
C10 S1 1_555 1_555
C12 S2 1_555 1_555
C14 S3 1_555 1_555
C16 Si2 1_555 1_555
C17 Si2 1_555 1_555
C18 Si2 1_555 1_555
C20 S4 1_555 1_555
C22 S5 1_555 1_555
C23 C24 1_555 1_555
C24 S6 1_555 1_555

#END
