
#######################################################################
#
#                 Cambridge Crystallographic Data Centre
#                                CCDC 
#
#######################################################################
#
# If this CIF has been generated from an entry in the Cambridge 
# Structural Database, then it will include bibliographic, chemical, 
# crystal, experimental, refinement or atomic coordinate data resulting 
# from the CCDC's data processing and validation procedures.
#
#######################################################################

data_PULDAC
_chemical_formula_moiety         'C46 H40 S12 Si4'
_chemical_name_systematic        
rac-Thieno[2,3-b]tristhieno[3'''',2'''':4''',5''']thieno[3''',2''':4'',5'']thieno[2'',3'':5',6';3''',2''':3',4';3'''',2'''':7',8']naphtho[2',1':4,5]thieno[3,2-d]thiene-3,6,13,16-tetrayltetrakis(trimethylsilane)
_symmetry_cell_setting           orthorhombic
_symmetry_space_group_name_H-M   'P 21 21 21'
_symmetry_Int_Tables_number      19
_space_group_name_Hall           'P 2ac 2ab'
loop_
_symmetry_equiv_pos_site_id
_symmetry_equiv_pos_as_xyz
1 x,y,z
2 1/2-x,-y,1/2+z
3 -x,1/2+y,1/2-z
4 1/2+x,1/2-y,-z
_cell_length_a                   16.816(3)
_cell_length_b                   16.811(3)
_cell_length_c                   38.298(7)
_cell_angle_alpha                90
_cell_angle_beta                 90
_cell_angle_gamma                90
_cell_volume                     10826.6
_exptl_crystal_colour            yellow
_exptl_crystal_description       block
_cell_formula_units_Z            8
loop_
_atom_site_label
_atom_site_type_symbol
_atom_site_fract_x
_atom_site_fract_y
_atom_site_fract_z
Si1 Si 0.7741(2) 0.31698(18) 0.91336(8)
Si2 Si 1.2102(3) 1.1334(2) 0.91450(11)
Si3 Si 1.28037(15) 1.15513(16) 0.77704(6)
Si4 Si 0.71274(16) 0.29300(16) 0.76976(7)
S1 S 0.66530(14) 0.46474(16) 0.89545(6)
S2 S 0.66469(11) 0.63645(13) 0.86237(6)
S3 S 0.79477(10) 0.74891(11) 0.83257(5)
S4 S 1.19093(10) 0.69608(11) 0.83810(6)
S5 S 1.31694(13) 0.80825(15) 0.87062(7)
S6 S 1.31544(17) 0.98135(18) 0.90157(7)
S7 S 1.09284(14) 1.16053(12) 0.77294(6)
S8 S 0.93427(13) 1.06562(12) 0.78501(6)
S9 S 0.88611(11) 0.89230(11) 0.80503(5)
S10 S 1.10379(11) 0.55142(11) 0.80986(5)
S11 S 1.05747(13) 0.37766(12) 0.78962(6)
S12 S 0.90012(15) 0.28417(12) 0.77251(6)
C1 C 0.7523(5) 0.4115(5) 0.8893(2)
C2 C 0.8026(5) 0.4509(4) 0.86795(19)
H1 H 0.8519 0.4308 0.8614
C3 C 0.7738(4) 0.5255(5) 0.85632(18)
C4 C 0.6990(4) 0.5395(5) 0.8694(2)
C5 C 0.7532(4) 0.6565(5) 0.8424(2)
C6 C 0.8057(4) 0.5945(4) 0.83903(18)
C7 C 0.8817(4) 0.6200(4) 0.82581(17)
C8 C 0.8867(4) 0.7023(4) 0.82363(18)
C9 C 0.9589(4) 0.7446(4) 0.81939(18)
C10 C 1.0294(4) 0.6994(4) 0.81989(17)
C11 C 1.1013(4) 0.7432(4) 0.82609(18)
C12 C 1.1052(4) 0.8248(4) 0.82791(17)
C13 C 1.1809(4) 0.8493(4) 0.84302(18)
C14 C 1.2303(4) 0.7860(5) 0.8483(2)
C15 C 1.2835(5) 0.9051(6) 0.8760(2)
C16 C 1.2098(4) 0.9207(4) 0.8606(2)
C17 C 1.1813(5) 0.9953(5) 0.87123(19)
H2 H 1.1326 1.0156 0.8639
C18 C 1.2305(6) 1.0351(5) 0.8929(2)
C19 C 1.1795(5) 1.1064(5) 0.7806(2)
C20 C 1.1640(4) 1.0316(4) 0.79225(18)
H3 H 1.2034 0.9944 0.7971
C21 C 1.0818(5) 1.0163(4) 0.79619(18)
C22 C 1.0363(5) 1.0812(4) 0.7856(2)
C23 C 0.9510(4) 0.9698(4) 0.79949(19)
C24 C 1.0306(4) 0.9510(4) 0.80605(18)
C25 C 1.0391(4) 0.8689(4) 0.81657(17)
C26 C 0.9657(4) 0.8287(4) 0.81501(19)
C27 C 1.0237(4) 0.6157(4) 0.81692(18)
C28 C 0.9512(4) 0.5773(4) 0.81693(18)
C29 C 0.9587(4) 0.4939(4) 0.80645(19)
C30 C 1.0386(5) 0.4739(4) 0.8030(2)
C31 C 0.9548(5) 0.3626(4) 0.7866(2)
C32 C 0.9110(5) 0.4278(4) 0.7954(2)
C33 C 0.8292(5) 0.4129(4) 0.7892(2)
H4 H 0.7899 0.4510 0.7927
C34 C 0.8128(5) 0.3375(5) 0.7774(2)
C35 C 0.8380(17) 0.2570(9) 0.8851(5)
H5 H 0.8209 0.2025 0.8859
H6 H 0.8920 0.2606 0.8930
H7 H 0.8345 0.2763 0.8616
C36 C 0.8143(16) 0.3389(10) 0.9554(4)
H8 H 0.8122 0.2921 0.9698
H9 H 0.7837 0.3805 0.9662
H10 H 0.8685 0.3558 0.9530
C37 C 0.6845(14) 0.2595(12) 0.9192(6)
H11 H 0.6915 0.2233 0.9384
H12 H 0.6735 0.2300 0.8983
H13 H 0.6409 0.2946 0.9241
C38 C 1.3052(12) 1.1874(9) 0.9196(5)
H14 H 1.3133 1.1999 0.9438
H15 H 1.3035 1.2357 0.9063
H16 H 1.3481 1.1546 0.9115
C39 C 1.1767(18) 1.1140(17) 0.9588(5)
H17 H 1.2087 1.0727 0.9689
H18 H 1.1221 1.0974 0.9583
H19 H 1.1816 1.1615 0.9725
C40 C 1.1389(14) 1.1821(10) 0.8899(8)
H20 H 1.0882 1.1571 0.8933
H21 H 1.1531 1.1796 0.8657
H22 H 1.1359 1.2368 0.8971
C41 C 1.3391(7) 1.1067(7) 0.7427(3)
H23 H 1.3920 1.1280 0.7427
H24 H 1.3148 1.1163 0.7205
H25 H 1.3412 1.0505 0.7471
C42 C 1.2670(7) 1.2630(7) 0.7686(3)
H26 H 1.3087 1.2922 0.7800
H27 H 1.2165 1.2799 0.7776
H28 H 1.2690 1.2728 0.7440
C43 C 1.3338(6) 1.1445(9) 0.8190(3)
H29 H 1.3830 1.1734 0.8180
H30 H 1.3447 1.0893 0.8233
H31 H 1.3016 1.1653 0.8376
C44 C 0.7266(9) 0.1869(6) 0.7588(3)
H32 H 0.7570 0.1615 0.7769
H33 H 0.7545 0.1825 0.7370
H34 H 0.6757 0.1615 0.7569
C45 C 0.6640(7) 0.3455(8) 0.7322(3)
H35 H 0.6607 0.4014 0.7372
H36 H 0.6114 0.3245 0.7288
H37 H 0.6948 0.3374 0.7114
C46 C 0.6533(7) 0.3036(10) 0.8096(4)
H38 H 0.6842 0.2867 0.8294
H39 H 0.6064 0.2713 0.8078
H40 H 0.6383 0.3583 0.8126
Si5 Si 1.41383(16) 0.44828(16) 0.98307(6)
Si6 Si 0.55397(14) 1.01298(16) 0.97077(6)
Si7 Si 0.57979(19) 0.9384(3) 0.82895(8)
Si8 Si 1.4058(2) 0.5064(3) 0.84608(9)
S13 S 1.41958(12) 0.63641(14) 0.98369(6)
S14 S 1.32358(12) 0.79338(13) 0.96833(6)
S15 S 1.15222(11) 0.83785(12) 0.94471(5)
S16 S 0.81381(10) 0.61745(11) 0.94003(5)
S17 S 0.63896(11) 0.66514(14) 0.95775(6)
S18 S 0.54544(12) 0.82493(14) 0.97203(6)
S19 S 0.72860(16) 1.04743(17) 0.84530(7)
S20 S 0.89904(16) 1.05104(13) 0.87909(7)
S21 S 1.01067(11) 0.92522(11) 0.91312(6)
S22 S 0.96135(10) 0.52806(11) 0.91440(6)
S23 S 1.07723(14) 0.39862(13) 0.88652(7)
S24 S 1.25257(16) 0.39973(17) 0.85769(7)
C47 C 1.3683(5) 0.5468(5) 0.97599(19)
C48 C 1.2931(4) 0.5627(5) 0.96308(18)
H41 H 1.2562 0.5233 0.9578
C49 C 1.2776(4) 0.6465(4) 0.95858(16)
C50 C 1.3400(4) 0.6918(5) 0.9697(2)
C51 C 1.2296(4) 0.7734(5) 0.9519(2)
C52 C 1.2121(4) 0.6938(4) 0.94672(19)
C53 C 1.1319(4) 0.6855(4) 0.93501(18)
C54 C 1.0906(4) 0.7569(4) 0.93378(17)
C55 C 1.0066(4) 0.7631(4) 0.92963(16)
C56 C 0.9612(4) 0.6909(4) 0.92920(17)
C57 C 0.8778(4) 0.6972(4) 0.93119(17)
C58 C 0.8380(4) 0.7714(4) 0.93043(18)
C59 C 0.7555(4) 0.7605(4) 0.94013(19)
C60 C 0.7361(4) 0.6828(4) 0.9443(2)
C61 C 0.6246(4) 0.7681(5) 0.9589(2)
C62 C 0.6895(4) 0.8099(4) 0.94971(19)
C63 C 0.6753(4) 0.8962(5) 0.95445(19)
H42 H 0.7133 0.9352 0.9501
C64 C 0.5996(5) 0.9121(5) 0.9661(2)
C65 C 0.6746(5) 0.9618(6) 0.8529(2)
C66 C 0.7134(5) 0.9132(5) 0.8753(2)
H43 H 0.6929 0.8644 0.8824
C67 C 0.7878(5) 0.9427(5) 0.88704(18)
C68 C 0.8029(5) 1.0157(5) 0.8716(2)
C69 C 0.9181(5) 0.9635(5) 0.9015(2)
C70 C 0.8571(4) 0.9135(4) 0.90570(19)
C71 C 0.8827(4) 0.8378(4) 0.92043(18)
C72 C 0.9657(4) 0.8358(4) 0.92306(19)
C73 C 1.0061(4) 0.6181(4) 0.92525(18)
C74 C 1.0878(4) 0.6151(4) 0.92404(17)
C75 C 1.1155(4) 0.5411(4) 0.91020(18)
C76 C 1.0536(4) 0.4872(4) 0.9064(2)
C77 C 1.1728(5) 0.4338(5) 0.8813(2)
C78 C 1.1870(4) 0.5095(4) 0.89443(19)
C79 C 1.2623(5) 0.5387(5) 0.8852(2)
H44 H 1.2812 0.5883 0.8920
C80 C 1.3048(5) 0.4870(6) 0.8650(2)
C81 C 1.3800(13) 0.4053(9) 1.0237(4)
H45 H 1.3386 0.3674 1.0190
H46 H 1.3597 0.4466 1.0385
H47 H 1.4236 0.3791 1.0351
C82 C 1.3843(13) 0.3848(8) 0.9473(4)
H48 H 1.3306 0.3671 0.9508
H49 H 1.4191 0.3396 0.9462
H50 H 1.3875 0.4141 0.9258
C83 C 1.5224(8) 0.4595(9) 0.9859(5)
H51 H 1.5432 0.4223 1.0026
H52 H 1.5351 0.5127 0.9931
H53 H 1.5456 0.4493 0.9634
C84 C 0.4507(5) 0.9979(7) 0.9863(3)
H54 H 0.4190 0.9763 0.9678
H55 H 0.4288 1.0480 0.9936
H56 H 0.4508 0.9617 1.0057
C85 C 0.5560(8) 1.0616(7) 0.9286(3)
H57 H 0.5239 1.0322 0.9124
H58 H 0.6098 1.0637 0.9203
H59 H 0.5355 1.1146 0.9309
C86 C 0.6153(7) 1.0733(7) 1.0010(3)
H60 H 0.5836 1.1157 1.0104
H61 H 0.6597 1.0953 0.9885
H62 H 0.6343 1.0402 1.0196
C87 C 0.5987(12) 0.8956(18) 0.7877(6)
H63 H 0.5890 0.9343 0.7698
H64 H 0.5643 0.8507 0.7843
H65 H 0.6531 0.8785 0.7866
C88 C 0.5247(12) 1.0304(15) 0.8226(6)
H66 H 0.5342 1.0501 0.7994
H67 H 0.5418 1.0691 0.8394
H68 H 0.4689 1.0204 0.8255
C89 C 0.5223(11) 0.8770(19) 0.8570(7)
H69 H 0.4673 0.8916 0.8553
H70 H 0.5399 0.8838 0.8807
H71 H 0.5286 0.8224 0.8503
C90 C 1.3906(13) 0.5547(17) 0.8041(4)
H72 H 1.3368 0.5733 0.8026
H73 H 1.4007 0.5174 0.7857
H74 H 1.4264 0.5990 0.8020
C91 C 1.4598(8) 0.5722(11) 0.8769(4)
H75 H 1.4241 0.6118 0.8859
H76 H 1.5030 0.5977 0.8650
H77 H 1.4803 0.5411 0.8959
C92 C 1.4616(11) 0.4127(14) 0.8418(6)
H78 H 1.4290 0.3737 0.8304
H79 H 1.4763 0.3938 0.8645
H80 H 1.5088 0.4218 0.8282
loop_
_geom_bond_atom_site_label_1
_geom_bond_atom_site_label_2
_geom_bond_site_symmetry_1
_geom_bond_site_symmetry_2
Si1 C1 1_555 1_555
Si2 C18 1_555 1_555
Si3 C19 1_555 1_555
Si4 C34 1_555 1_555
S1 C1 1_555 1_555
S2 C4 1_555 1_555
S3 C5 1_555 1_555
S4 C11 1_555 1_555
S5 C14 1_555 1_555
S6 C15 1_555 1_555
S7 C19 1_555 1_555
S8 C22 1_555 1_555
S9 C23 1_555 1_555
S10 C27 1_555 1_555
S11 C30 1_555 1_555
S12 C31 1_555 1_555
C1 C2 1_555 1_555
C2 H1 1_555 1_555
C3 C2 1_555 1_555
C4 S1 1_555 1_555
C5 S2 1_555 1_555
C6 C3 1_555 1_555
C7 C6 1_555 1_555
C8 S3 1_555 1_555
C9 C8 1_555 1_555
C10 C9 1_555 1_555
C11 C10 1_555 1_555
C12 C11 1_555 1_555
C13 C12 1_555 1_555
C14 S4 1_555 1_555
C15 S5 1_555 1_555
C16 C13 1_555 1_555
C17 C16 1_555 1_555
H2 C17 1_555 1_555
C18 S6 1_555 1_555
C19 C20 1_555 1_555
C20 H3 1_555 1_555
C21 C20 1_555 1_555
C22 S7 1_555 1_555
C23 S8 1_555 1_555
C24 C21 1_555 1_555
C25 C12 1_555 1_555
C26 S9 1_555 1_555
C27 C10 1_555 1_555
C28 C7 1_555 1_555
C29 C28 1_555 1_555
C30 S10 1_555 1_555
C31 S11 1_555 1_555
C32 C29 1_555 1_555
C33 C32 1_555 1_555
H4 C33 1_555 1_555
C34 S12 1_555 1_555
C35 Si1 1_555 1_555
H5 C35 1_555 1_555
H6 C35 1_555 1_555
H7 C35 1_555 1_555
C36 Si1 1_555 1_555
H8 C36 1_555 1_555
H9 C36 1_555 1_555
H10 C36 1_555 1_555
C37 Si1 1_555 1_555
H11 C37 1_555 1_555
H12 C37 1_555 1_555
H13 C37 1_555 1_555
C38 Si2 1_555 1_555
H14 C38 1_555 1_555
H15 C38 1_555 1_555
H16 C38 1_555 1_555
C39 Si2 1_555 1_555
H17 C39 1_555 1_555
H18 C39 1_555 1_555
H19 C39 1_555 1_555
C40 Si2 1_555 1_555
H20 C40 1_555 1_555
H21 C40 1_555 1_555
H22 C40 1_555 1_555
C41 Si3 1_555 1_555
H23 C41 1_555 1_555
H24 C41 1_555 1_555
H25 C41 1_555 1_555
C42 Si3 1_555 1_555
H26 C42 1_555 1_555
H27 C42 1_555 1_555
H28 C42 1_555 1_555
C43 Si3 1_555 1_555
H29 C43 1_555 1_555
H30 C43 1_555 1_555
H31 C43 1_555 1_555
C44 Si4 1_555 1_555
H32 C44 1_555 1_555
H33 C44 1_555 1_555
H34 C44 1_555 1_555
C45 Si4 1_555 1_555
H35 C45 1_555 1_555
H36 C45 1_555 1_555
H37 C45 1_555 1_555
C46 Si4 1_555 1_555
H38 C46 1_555 1_555
H39 C46 1_555 1_555
H40 C46 1_555 1_555
Si5 C47 1_555 1_555
Si6 C64 1_555 1_555
Si7 C65 1_555 1_555
Si8 C80 1_555 1_555
S13 C47 1_555 1_555
S14 C50 1_555 1_555
S15 C51 1_555 1_555
S16 C57 1_555 1_555
S17 C60 1_555 1_555
S18 C61 1_555 1_555
S19 C65 1_555 1_555
S20 C68 1_555 1_555
S21 C69 1_555 1_555
S22 C73 1_555 1_555
S23 C76 1_555 1_555
S24 C77 1_555 1_555
C47 C48 1_555 1_555
C48 H41 1_555 1_555
C49 C48 1_555 1_555
C50 S13 1_555 1_555
C51 S14 1_555 1_555
C52 C49 1_555 1_555
C53 C52 1_555 1_555
C54 S15 1_555 1_555
C55 C54 1_555 1_555
C56 C55 1_555 1_555
C57 C56 1_555 1_555
C58 C57 1_555 1_555
C59 C58 1_555 1_555
C60 S16 1_555 1_555
C61 S17 1_555 1_555
C62 C59 1_555 1_555
C63 C62 1_555 1_555
H42 C63 1_555 1_555
C64 S18 1_555 1_555
C65 C66 1_555 1_555
C66 H43 1_555 1_555
C67 C66 1_555 1_555
C68 S19 1_555 1_555
C69 S20 1_555 1_555
C70 C67 1_555 1_555
C71 C58 1_555 1_555
C72 S21 1_555 1_555
C73 C56 1_555 1_555
C74 C53 1_555 1_555
C75 C74 1_555 1_555
C76 S22 1_555 1_555
C77 S23 1_555 1_555
C78 C75 1_555 1_555
C79 C78 1_555 1_555
H44 C79 1_555 1_555
C80 S24 1_555 1_555
C81 Si5 1_555 1_555
H45 C81 1_555 1_555
H46 C81 1_555 1_555
H47 C81 1_555 1_555
C82 Si5 1_555 1_555
H48 C82 1_555 1_555
H49 C82 1_555 1_555
H50 C82 1_555 1_555
C83 Si5 1_555 1_555
H51 C83 1_555 1_555
H52 C83 1_555 1_555
H53 C83 1_555 1_555
C84 Si6 1_555 1_555
H54 C84 1_555 1_555
H55 C84 1_555 1_555
H56 C84 1_555 1_555
C85 Si6 1_555 1_555
H57 C85 1_555 1_555
H58 C85 1_555 1_555
H59 C85 1_555 1_555
C86 Si6 1_555 1_555
H60 C86 1_555 1_555
H61 C86 1_555 1_555
H62 C86 1_555 1_555
C87 Si7 1_555 1_555
H63 C87 1_555 1_555
H64 C87 1_555 1_555
H65 C87 1_555 1_555
C88 Si7 1_555 1_555
H66 C88 1_555 1_555
H67 C88 1_555 1_555
H68 C88 1_555 1_555
C89 Si7 1_555 1_555
H69 C89 1_555 1_555
H70 C89 1_555 1_555
H71 C89 1_555 1_555
C90 Si8 1_555 1_555
H72 C90 1_555 1_555
H73 C90 1_555 1_555
H74 C90 1_555 1_555
C91 Si8 1_555 1_555
H75 C91 1_555 1_555
H76 C91 1_555 1_555
H77 C91 1_555 1_555
C92 Si8 1_555 1_555
H78 C92 1_555 1_555
H79 C92 1_555 1_555
H80 C92 1_555 1_555
C3 C4 1_555 1_555
C5 C6 1_555 1_555
C7 C8 1_555 1_555
C9 C26 1_555 1_555
C13 C14 1_555 1_555
C15 C16 1_555 1_555
C17 C18 1_555 1_555
C21 C22 1_555 1_555
C23 C24 1_555 1_555
C24 C25 1_555 1_555
C25 C26 1_555 1_555
C27 C28 1_555 1_555
C29 C30 1_555 1_555
C31 C32 1_555 1_555
C33 C34 1_555 1_555
C49 C50 1_555 1_555
C51 C52 1_555 1_555
C53 C54 1_555 1_555
C55 C72 1_555 1_555
C59 C60 1_555 1_555
C61 C62 1_555 1_555
C63 C64 1_555 1_555
C67 C68 1_555 1_555
C69 C70 1_555 1_555
C70 C71 1_555 1_555
C71 C72 1_555 1_555
C73 C74 1_555 1_555
C75 C76 1_555 1_555
C77 C78 1_555 1_555
C79 C80 1_555 1_555

#END
