
#######################################################################
#
#                 Cambridge Crystallographic Data Centre
#                                CCDC 
#
#######################################################################
#
# If this CIF has been generated from an entry in the Cambridge 
# Structural Database, then it will include bibliographic, chemical, 
# crystal, experimental, refinement or atomic coordinate data resulting 
# from the CCDC's data processing and validation procedures.
#
#######################################################################

data_PULPUJ
_chemical_formula_moiety         'C33 H25 N1 O3'
_chemical_name_systematic        
1'-allyl-4-benzoyl-3,5-diphenyl-3H-spiro[furan-2,3'-indol]-2'(1'H)-one
_symmetry_cell_setting           monoclinic
_symmetry_space_group_name_H-M   'P 21/n'
_symmetry_Int_Tables_number      14
_space_group_name_Hall           '-P 2yn'
loop_
_symmetry_equiv_pos_site_id
_symmetry_equiv_pos_as_xyz
1 x,y,z
2 1/2-x,1/2+y,1/2-z
3 -x,-y,-z
4 1/2+x,1/2-y,1/2+z
_cell_length_a                   15.116(2)
_cell_length_b                   11.4640(17)
_cell_length_c                   15.484(2)
_cell_angle_alpha                90
_cell_angle_beta                 105.324(3)
_cell_angle_gamma                90
_cell_volume                     2587.82
_exptl_crystal_colour            colorless
_exptl_crystal_description       stick
_cell_formula_units_Z            4
loop_
_atom_site_label
_atom_site_type_symbol
_atom_site_fract_x
_atom_site_fract_y
_atom_site_fract_z
N1 N 0.88931(14) 1.13680(18) 1.01651(15)
O1 O 0.84786(13) 0.98335(16) 0.91783(13)
O2 O 0.76603(12) 0.90662(14) 1.05838(11)
O3 O 0.48126(13) 0.95760(17) 0.87247(14)
C1 C 0.86463(18) 1.1761(2) 1.09347(18)
C2 C 0.79182(17) 1.1107(2) 1.10525(17)
C3 C 0.7575(2) 1.1305(2) 1.17833(18)
H1 H 0.7088 1.0868 1.1871
C4 C 0.7978(2) 1.2174(3) 1.2381(2)
H2 H 0.7755 1.2324 1.2875
C5 C 0.8703(2) 1.2818(3) 1.2256(2)
H3 H 0.8963 1.3394 1.2668
C6 C 0.9051(2) 1.2623(2) 1.1527(2)
H4 H 0.9540 1.3057 1.1440
C7 C 0.76173(17) 1.0272(2) 1.02888(17)
C8 C 0.83665(18) 1.0437(2) 0.97895(18)
C9 C 0.66157(17) 1.0438(2) 0.96930(17)
H5 H 0.6243 1.0739 1.0074
C10 C 0.63414(17) 0.9182(2) 0.94660(16)
C11 C 0.69333(17) 0.8485(2) 1.00304(17)
C12 C 0.65404(17) 1.1279(2) 0.89324(19)
C13 C 0.6414(2) 1.2451(3) 0.9071(2)
H6 H 0.6339 1.2694 0.9620
C14 C 0.6398(3) 1.3261(3) 0.8421(3)
H7 H 0.6317 1.4045 0.8534
C15 C 0.6498(2) 1.2926(4) 0.7604(3)
H8 H 0.6490 1.3480 0.7163
C16 C 0.6611(2) 1.1766(3) 0.7439(2)
H9 H 0.6674 1.1530 0.6883
C17 C 0.66310(19) 1.0947(3) 0.8106(2)
H10 H 0.6707 1.0162 0.7992
C18 C 0.54562(19) 0.8885(2) 0.88437(17)
C19 C 0.53515(18) 0.7767(2) 0.83345(16)
C20 C 0.4497(2) 0.7233(3) 0.8087(2)
H11 H 0.4007 0.7567 0.8255
C21 C 0.4366(2) 0.6215(3) 0.7598(2)
H12 H 0.3794 0.5857 0.7444
C22 C 0.5089(3) 0.5730(3) 0.7337(2)
H13 H 0.5003 0.5045 0.7004
C23 C 0.5931(2) 0.6252(3) 0.7567(2)
H14 H 0.6415 0.5925 0.7384
C24 C 0.6067(2) 0.7267(2) 0.80701(18)
H15 H 0.6644 0.7612 0.8231
C25 C 0.6952(2) 0.7226(2) 1.02370(17)
C26 C 0.6181(2) 0.6631(3) 1.03082(19)
H16 H 0.5617 0.7009 1.0186
C27 C 0.6250(3) 0.5470(3) 1.0562(2)
H17 H 0.5727 0.5069 1.0603
C28 C 0.7063(4) 0.4912(3) 1.0751(2)
H18 H 0.7100 0.4132 1.0924
C29 C 0.7831(3) 0.5487(3) 1.0690(3)
H19 H 0.8392 0.5101 1.0820
C30 C 0.7779(3) 0.6646(3) 1.0434(2)
H20 H 0.8307 0.7036 1.0395
C31 C 0.9658(2) 1.1822(3) 0.9865(2)
H21 H 0.9813 1.1271 0.9453
H22 H 1.0187 1.1904 1.0376
C32 C 0.9441(4) 1.2980(4) 0.9411(3)
H23 H 0.9513 1.2770 0.8820
C33 C 0.8813(6) 1.3521(7) 0.9198(5)
H24 H 0.8860 1.4329 0.9182
H25 H 0.8239 1.3166 0.9036
C34? C 0.9754(9) 1.3935(9) 0.9470(9)
H26? H 0.9367 1.4577 0.9327
H27? H 1.0385 1.4041 0.9659
loop_
_geom_bond_atom_site_label_1
_geom_bond_atom_site_label_2
_geom_bond_site_symmetry_1
_geom_bond_site_symmetry_2
N1 C1 1_555 1_555
O1 C8 1_555 1_555
O2 C7 1_555 1_555
O3 C18 1_555 1_555
C1 C2 1_555 1_555
C2 C3 1_555 1_555
C3 H1 1_555 1_555
C4 C3 1_555 1_555
H2 C4 1_555 1_555
C5 C4 1_555 1_555
H3 C5 1_555 1_555
C6 C1 1_555 1_555
H4 C6 1_555 1_555
C7 C2 1_555 1_555
C8 N1 1_555 1_555
C9 C7 1_555 1_555
H5 C9 1_555 1_555
C10 C9 1_555 1_555
C11 O2 1_555 1_555
C12 C9 1_555 1_555
C13 C12 1_555 1_555
H6 C13 1_555 1_555
C14 C13 1_555 1_555
H7 C14 1_555 1_555
C15 C14 1_555 1_555
H8 C15 1_555 1_555
C16 C15 1_555 1_555
H9 C16 1_555 1_555
C17 C12 1_555 1_555
H10 C17 1_555 1_555
C18 C10 1_555 1_555
C19 C18 1_555 1_555
C20 C19 1_555 1_555
H11 C20 1_555 1_555
C21 C20 1_555 1_555
H12 C21 1_555 1_555
C22 C21 1_555 1_555
H13 C22 1_555 1_555
C23 C22 1_555 1_555
H14 C23 1_555 1_555
C24 C19 1_555 1_555
H15 C24 1_555 1_555
C25 C11 1_555 1_555
C26 C25 1_555 1_555
H16 C26 1_555 1_555
C27 C26 1_555 1_555
H17 C27 1_555 1_555
C28 C27 1_555 1_555
H18 C28 1_555 1_555
C29 C28 1_555 1_555
H19 C29 1_555 1_555
C30 C25 1_555 1_555
H20 C30 1_555 1_555
C31 N1 1_555 1_555
H21 C31 1_555 1_555
H22 C31 1_555 1_555
C32 C31 1_555 1_555
H23 C32 1_555 1_555
C33 C32 1_555 1_555
H24 C33 1_555 1_555
H25 C33 1_555 1_555
C5 C6 1_555 1_555
C7 C8 1_555 1_555
C10 C11 1_555 1_555
C16 C17 1_555 1_555
C23 C24 1_555 1_555
C29 C30 1_555 1_555

#END
