
#######################################################################
#
#                 Cambridge Crystallographic Data Centre
#                                CCDC 
#
#######################################################################
#
# If this CIF has been generated from an entry in the Cambridge 
# Structural Database, then it will include bibliographic, chemical, 
# crystal, experimental, refinement or atomic coordinate data resulting 
# from the CCDC's data processing and validation procedures.
#
#######################################################################

data_PULQAQ
_chemical_formula_moiety         'C31 H22 Br1 N1 O3'
_chemical_name_systematic        
"4-benzoyl-6'-bromo-1'-methyl-3,5-diphenyl-3H-spiro[furan-2,3'-indol]-2'(1'H)-one unknown solvate"
_symmetry_cell_setting           monoclinic
_symmetry_space_group_name_H-M   'P 21/n'
_symmetry_Int_Tables_number      14
_space_group_name_Hall           '-P 2yn'
loop_
_symmetry_equiv_pos_site_id
_symmetry_equiv_pos_as_xyz
1 x,y,z
2 1/2-x,1/2+y,1/2-z
3 -x,-y,-z
4 1/2+x,1/2-y,1/2+z
_cell_length_a                   15.016(3)
_cell_length_b                   11.906(2)
_cell_length_c                   15.221(3)
_cell_angle_alpha                90
_cell_angle_beta                 100.25(3)
_cell_angle_gamma                90
_cell_volume                     2677.79
_exptl_crystal_colour            colorless
_exptl_crystal_description       Prism
_cell_formula_units_Z            4
loop_
_atom_site_label
_atom_site_type_symbol
_atom_site_fract_x
_atom_site_fract_y
_atom_site_fract_z
Br1 Br 0.585944(16) 1.36983(2) 0.213277(17)
O1 O 0.66003(11) 0.95162(14) 0.59155(11)
O2 O 0.73933(11) 0.88137(12) 0.43901(11)
O3 O 1.01241(11) 0.92913(13) 0.61905(11)
N1 N 0.61523(13) 1.09790(16) 0.49445(13)
C1 C 0.64037(16) 1.13982(18) 0.41624(15)
C2 C 0.60094(15) 1.22677(19) 0.36339(16)
H1 H 0.5509 1.2675 0.3773
C3 C 0.63862(15) 1.25152(19) 0.28839(15)
C4 C 0.71198(15) 1.1946(2) 0.26742(15)
H2 H 0.7358 1.2143 0.2157
C5 C 0.75092(16) 1.1079(2) 0.32285(16)
H3 H 0.8020 1.0684 0.3098
C6 C 0.71457(15) 1.08018(18) 0.39656(15)
C7 C 0.74346(15) 0.99746(18) 0.47022(15)
C8 C 0.66991(15) 1.01015(19) 0.52855(15)
C9 C 0.53782(18) 1.1365(2) 0.53015(19)
H4 H 0.5247 1.0832 0.5753
H5 H 0.4853 1.1419 0.4819
H6 H 0.5509 1.2105 0.5576
C10 C 0.84157(15) 1.01230(18) 0.52196(15)
H7 H 0.8804 1.0363 0.4783
C11 C 0.84858(15) 1.10119(19) 0.59399(16)
C12 C 0.83639(16) 1.0780(2) 0.68052(16)
H8 H 0.8258 1.0029 0.6971
C13 C 0.83948(17) 1.1636(2) 0.74290(17)
H9 H 0.8313 1.1465 0.8019
C14 C 0.85430(18) 1.2733(2) 0.71999(19)
H10 H 0.8562 1.3316 0.7629
C15 C 0.86638(19) 1.2977(2) 0.63378(19)
H11 H 0.8762 1.3731 0.6174
C16 C 0.86410(17) 1.2122(2) 0.57120(18)
H12 H 0.8732 1.2295 0.5125
C17 C 0.86496(15) 0.89105(18) 0.54781(15)
C18 C 0.94897(16) 0.86240(18) 0.60872(15)
C19 C 0.95747(15) 0.75470(19) 0.65981(15)
C20 C 0.88315(17) 0.6980(2) 0.68114(16)
H13 H 0.8240 0.7279 0.6634
C21 C 0.89517(19) 0.5981(2) 0.72812(17)
H14 H 0.8444 0.5598 0.7431
C22 C 0.98191(19) 0.5536(2) 0.75359(17)
H15 H 0.9899 0.4834 0.7837
C23 C 1.05609(19) 0.6114(2) 0.73511(18)
H16 H 1.1153 0.5823 0.7542
C24 C 1.04419(16) 0.7112(2) 0.68898(16)
H17 H 1.0955 0.7511 0.6768
C25 C 0.80771(15) 0.82455(19) 0.49329(15)
C26 C 0.80632(16) 0.70343(19) 0.47281(15)
C27 C 0.72431(17) 0.6458(2) 0.45731(17)
H18 H 0.6700 0.6838 0.4632
C28 C 0.72142(18) 0.5335(2) 0.43336(18)
H19 H 0.6654 0.4944 0.4234
C29 C 0.80051(19) 0.4782(2) 0.42400(18)
H20 H 0.7985 0.4014 0.4068
C30 C 0.88201(18) 0.5344(2) 0.43957(17)
H21 H 0.9361 0.4959 0.4340
C31 C 0.88543(17) 0.6471(2) 0.46336(16)
H22 H 0.9417 0.6858 0.4732
loop_
_geom_bond_atom_site_label_1
_geom_bond_atom_site_label_2
_geom_bond_site_symmetry_1
_geom_bond_site_symmetry_2
Br1 C3 1_555 1_555
O1 C8 1_555 1_555
O2 C7 1_555 1_555
O3 C18 1_555 1_555
N1 C1 1_555 1_555
C1 C2 1_555 1_555
C2 H1 1_555 1_555
C3 C2 1_555 1_555
C4 C3 1_555 1_555
H2 C4 1_555 1_555
C5 C4 1_555 1_555
H3 C5 1_555 1_555
C6 C1 1_555 1_555
C7 C6 1_555 1_555
C8 N1 1_555 1_555
C9 N1 1_555 1_555
H4 C9 1_555 1_555
H5 C9 1_555 1_555
H6 C9 1_555 1_555
C10 C7 1_555 1_555
H7 C10 1_555 1_555
C11 C10 1_555 1_555
C12 C11 1_555 1_555
H8 C12 1_555 1_555
C13 C12 1_555 1_555
H9 C13 1_555 1_555
C14 C13 1_555 1_555
H10 C14 1_555 1_555
C15 C14 1_555 1_555
H11 C15 1_555 1_555
C16 C11 1_555 1_555
H12 C16 1_555 1_555
C17 C10 1_555 1_555
C18 C17 1_555 1_555
C19 C18 1_555 1_555
C20 C19 1_555 1_555
H13 C20 1_555 1_555
C21 C20 1_555 1_555
H14 C21 1_555 1_555
C22 C21 1_555 1_555
H15 C22 1_555 1_555
C23 C22 1_555 1_555
H16 C23 1_555 1_555
C24 C19 1_555 1_555
H17 C24 1_555 1_555
C25 O2 1_555 1_555
C26 C25 1_555 1_555
C27 C26 1_555 1_555
H18 C27 1_555 1_555
C28 C27 1_555 1_555
H19 C28 1_555 1_555
C29 C28 1_555 1_555
H20 C29 1_555 1_555
C30 C29 1_555 1_555
H21 C30 1_555 1_555
C31 C26 1_555 1_555
H22 C31 1_555 1_555
C5 C6 1_555 1_555
C7 C8 1_555 1_555
C15 C16 1_555 1_555
C17 C25 1_555 1_555
C23 C24 1_555 1_555
C30 C31 1_555 1_555

#END
