
#######################################################################
#
#                 Cambridge Crystallographic Data Centre
#                                CCDC 
#
#######################################################################
#
# If this CIF has been generated from an entry in the Cambridge 
# Structural Database, then it will include bibliographic, chemical, 
# crystal, experimental, refinement or atomic coordinate data resulting 
# from the CCDC's data processing and validation procedures.
#
#######################################################################

data_PULQOD
_chemical_compound_source        'stem bark of K.grandifoliola'
_chemical_name_common            'Grandifotane A monohydrate'
_chemical_formula_moiety         'C29 H36 O11,H2 O1'
_chemical_name_systematic        
'Methyl (14-acetoxy-6-(3-furyl)-2-hydroxy-7,11,13,13-tetramethyl-4,16-dioxo-5,17-dioxapentacyclo[13.2.1.0^1,10^.0^2,7^.0^11,15^]octadec-12-yl)(hydroxy)acetate monohydrate'
_symmetry_cell_setting           orthorhombic
_symmetry_space_group_name_H-M   'P 21 21 21'
_symmetry_Int_Tables_number      19
_space_group_name_Hall           'P 2ac 2ab'
loop_
_symmetry_equiv_pos_site_id
_symmetry_equiv_pos_as_xyz
1 x,y,z
2 1/2-x,-y,1/2+z
3 -x,1/2+y,1/2-z
4 1/2+x,1/2-y,-z
_cell_length_a                   7.3105(7)
_cell_length_b                   17.2217(17)
_cell_length_c                   22.357(2)
_cell_angle_alpha                90
_cell_angle_beta                 90
_cell_angle_gamma                90
_cell_volume                     2814.73
_exptl_crystal_colour            colorless
_exptl_crystal_description       prismatic
_chemical_melting_point          172-174deg.C
_cell_formula_units_Z            4
_exptl_crystal_recrystallization_method methanol
loop_
_atom_site_label
_atom_site_type_symbol
_atom_site_fract_x
_atom_site_fract_y
_atom_site_fract_z
O1 O 0.2883(5) 0.77112(19) 0.83777(16)
O2 O 0.3678(4) 0.68712(17) 0.90808(13)
O3 O 0.9910(5) 0.6673(2) 0.9787(2)
O4 O 0.8938(4) 0.54897(18) 0.96664(15)
O5 O 0.6098(4) 0.68017(16) 0.73257(13)
O6 O 0.4982(6) 0.7504(2) 0.65684(17)
O7 O 0.3637(5) 0.6128(3) 1.01175(16)
O8 O 0.9040(7) 0.2901(2) 0.9559(2)
O9 O 0.0691(5) 0.4352(2) 0.80475(15)
O10 O 0.3619(6) 0.3626(2) 0.72992(18)
O11 O 0.1158(5) 0.37832(17) 0.67303(13)
C1 C 0.3504(6) 0.7095(3) 0.8509(2)
C2 C 0.4123(6) 0.6421(2) 0.81346(18)
C3 C 0.4317(6) 0.6506(2) 0.74719(18)
H1 H 0.3396 0.6877 0.7330
C4 C 0.3919(7) 0.5700(2) 0.71841(19)
C5 C 0.3091(6) 0.5208(2) 0.77092(18)
H2 H 0.4080 0.4876 0.7859
C6 C 0.1525(6) 0.4661(3) 0.7524(2)
H3 H 0.0618 0.4945 0.7287
C7 C 0.2262(7) 0.3982(2) 0.7171(2)
C8 C 0.4472(6) 0.6071(2) 0.90843(18)
C9 C 0.2972(6) 0.5501(2) 0.88873(18)
H4 H 0.1871 0.5603 0.9125
C10 C 0.2606(6) 0.5775(2) 0.82214(19)
C11 C 0.3592(7) 0.4667(3) 0.9006(2)
H5 H 0.2596 0.4313 0.8918
H6 H 0.4606 0.4540 0.8744
C12 C 0.4181(7) 0.4565(3) 0.9655(2)
H7 H 0.4587 0.4033 0.9711
H8 H 0.3123 0.4643 0.9910
C13 C 0.5703(6) 0.5108(3) 0.98642(19)
C14 C 0.5144(6) 0.5959(3) 0.97323(19)
C15 C 0.6716(6) 0.6509(3) 0.9890(2)
H9 H 0.6526 0.6990 0.9672
H10 H 0.6626 0.6630 1.0312
C16 C 0.8615(7) 0.6243(3) 0.9769(2)
C17 C 0.7507(7) 0.4932(3) 0.9535(2)
H11 H 0.7258 0.4961 0.9105
C18 C 0.5979(8) 0.5007(3) 1.05423(19)
H12 H 0.6124 0.4466 1.0634
H13 H 0.4933 0.5208 1.0751
H14 H 0.7053 0.5286 1.0665
C19 C 0.0668(6) 0.6110(3) 0.8163(2)
H15 H -0.0212 0.5702 0.8216
H16 H 0.0519 0.6337 0.7774
H17 H 0.0483 0.6500 0.8464
C20 C 0.8326(7) 0.4150(3) 0.9659(2)
C21 C 0.8165(9) 0.3510(3) 0.9319(3)
H18 H 0.7523 0.3492 0.8960
C22 C 0.9430(9) 0.3920(4) 1.0145(3)
H19 H 0.9801 0.4232 1.0463
C23 C 0.9837(10) 0.3182(4) 1.0067(3)
H20 H 1.0570 0.2891 1.0323
C24 C 0.6249(8) 0.7270(3) 0.6844(2)
C25 C 0.8219(9) 0.7429(3) 0.6703(3)
H21 H 0.8321 0.7922 0.6505
H22 H 0.8682 0.7029 0.6446
H23 H 0.8915 0.7439 0.7067
C26 C 0.1706(10) 0.3097(3) 0.6399(2)
H24 H 0.1869 0.2671 0.6671
H25 H 0.2836 0.3198 0.6194
H26 H 0.0776 0.2968 0.6112
C27 C 0.2637(9) 0.5806(4) 0.6648(2)
H27 H 0.3166 0.6168 0.6372
H28 H 0.1478 0.5999 0.6784
H29 H 0.2463 0.5315 0.6452
C28 C 0.5702(8) 0.5323(3) 0.6957(2)
H30 H 0.6210 0.5634 0.6642
H31 H 0.5443 0.4812 0.6809
H32 H 0.6563 0.5288 0.7280
C29 C 0.5695(6) 0.6118(2) 0.85310(17)
H33 H 0.6157 0.5616 0.8404
H34 H 0.6690 0.6487 0.8574
H35 H 0.309(9) 0.647(3) 0.995(3)
H36 H -0.028(4) 0.416(2) 0.7952(19)
O12 O 0.7577(8) 0.3616(4) 0.7698(3)
H37 H 0.649(4) 0.359(3) 0.780(3)
H38 H 0.750(13) 0.349(5) 0.7342(13)
loop_
_geom_bond_atom_site_label_1
_geom_bond_atom_site_label_2
_geom_bond_site_symmetry_1
_geom_bond_site_symmetry_2
O1 C1 1_555 1_555
O2 C1 1_555 1_555
O3 C16 1_555 1_555
O4 C16 1_555 1_555
O5 C3 1_555 1_555
O6 C24 1_555 1_555
O7 C14 1_555 1_555
O8 C21 1_555 1_555
O9 C6 1_555 1_555
O10 C7 1_555 1_555
O11 C7 1_555 1_555
O12 H37 1_555 1_555
C1 C2 1_555 1_555
C2 C3 1_555 1_555
C3 H1 1_555 1_555
C4 C3 1_555 1_555
C5 C4 1_555 1_555
H2 C5 1_555 1_555
C6 C5 1_555 1_555
H3 C6 1_555 1_555
C7 C6 1_555 1_555
C8 O2 1_555 1_555
C9 C8 1_555 1_555
H4 C9 1_555 1_555
C10 C2 1_555 1_555
C11 C9 1_555 1_555
H5 C11 1_555 1_555
H6 C11 1_555 1_555
C12 C11 1_555 1_555
H7 C12 1_555 1_555
H8 C12 1_555 1_555
C13 C12 1_555 1_555
C14 C8 1_555 1_555
C15 C14 1_555 1_555
H9 C15 1_555 1_555
H10 C15 1_555 1_555
C16 C15 1_555 1_555
C17 O4 1_555 1_555
H11 C17 1_555 1_555
C18 C13 1_555 1_555
H12 C18 1_555 1_555
H13 C18 1_555 1_555
H14 C18 1_555 1_555
C19 C10 1_555 1_555
H15 C19 1_555 1_555
H16 C19 1_555 1_555
H17 C19 1_555 1_555
C20 C17 1_555 1_555
C21 C20 1_555 1_555
H18 C21 1_555 1_555
C22 C20 1_555 1_555
H19 C22 1_555 1_555
C23 O8 1_555 1_555
H20 C23 1_555 1_555
C24 O5 1_555 1_555
C25 C24 1_555 1_555
H21 C25 1_555 1_555
H22 C25 1_555 1_555
H23 C25 1_555 1_555
C26 O11 1_555 1_555
H24 C26 1_555 1_555
H25 C26 1_555 1_555
H26 C26 1_555 1_555
C27 C4 1_555 1_555
H27 C27 1_555 1_555
H28 C27 1_555 1_555
H29 C27 1_555 1_555
C28 C4 1_555 1_555
H30 C28 1_555 1_555
H31 C28 1_555 1_555
H32 C28 1_555 1_555
C29 C2 1_555 1_555
H33 C29 1_555 1_555
H34 C29 1_555 1_555
H35 O7 1_555 1_555
H36 O9 1_555 1_555
H38 O12 1_555 1_555
C5 C10 1_555 1_555
C8 C29 1_555 1_555
C9 C10 1_555 1_555
C13 C14 1_555 1_555
C13 C17 1_555 1_555
C22 C23 1_555 1_555

#END
