
#######################################################################
#
#                 Cambridge Crystallographic Data Centre
#                                CCDC 
#
#######################################################################
#
# If this CIF has been generated from an entry in the Cambridge 
# Structural Database, then it will include bibliographic, chemical, 
# crystal, experimental, refinement or atomic coordinate data resulting 
# from the CCDC's data processing and validation procedures.
#
#######################################################################

data_PULSOF
_chemical_formula_moiety         'C17 H19 Br1 N2 O5'
_chemical_name_systematic        
'Diisopropyl 5-(4-bromophenyl)-3-oxo-1H-pyrazole-1,2(3H)-dicarboxylate'
_symmetry_cell_setting           triclinic
_symmetry_space_group_name_H-M   'P -1'
_symmetry_Int_Tables_number      2
_space_group_name_Hall           '-P 1'
loop_
_symmetry_equiv_pos_site_id
_symmetry_equiv_pos_as_xyz
1 x,y,z
2 -x,-y,-z
_cell_length_a                   9.5516(6)
_cell_length_b                   9.9896(5)
_cell_length_c                   10.7976(7)
_cell_angle_alpha                97.369(2)
_cell_angle_beta                 101.399(2)
_cell_angle_gamma                107.244(2)
_cell_volume                     945.147
_exptl_crystal_colour            colorless
_exptl_crystal_description       chunk
_chemical_melting_point          124-125deg.C
_cell_formula_units_Z            2
loop_
_atom_site_label
_atom_site_type_symbol
_atom_site_fract_x
_atom_site_fract_y
_atom_site_fract_z
Br1 Br 0.14431(8) 0.91831(6) 1.21665(5)
O1 O 0.2340(4) 0.2089(3) 0.6270(3)
O2 O 0.3718(3) 0.5948(3) 0.7948(3)
O3 O 0.3464(4) 0.5015(3) 0.5871(3)
O4 O -0.1729(4) 0.2507(3) 0.4417(3)
O5 O 0.0746(4) 0.1403(3) 0.4277(3)
N1 N 0.1532(4) 0.4272(3) 0.6883(3)
N2 N 0.0724(4) 0.3270(4) 0.5724(3)
C1 C 0.0906(4) 0.6045(4) 0.8381(4)
C2 C 0.0502(5) 0.4954(4) 0.7197(4)
C3 C -0.0829(5) 0.4396(4) 0.6335(4)
H1 H -0.1672 0.4672 0.6362
C4 C -0.0776(5) 0.3295(4) 0.5346(4)
C5 C 0.2996(5) 0.5117(4) 0.6806(4)
C6 C 0.1784(5) 0.6783(5) 1.0684(4)
H2 H 0.2237 0.6634 1.1475
C7 C 0.0483(5) 0.7252(5) 0.8332(4)
H3 H 0.0058 0.7421 0.7540
C8 C 0.1251(5) 0.2150(5) 0.5327(4)
C9 C 0.1586(5) 0.5836(4) 0.9568(4)
H4 H 0.1910 0.5048 0.9610
C10 C 0.0689(6) 0.8208(5) 0.9454(4)
H5 H 0.0408 0.9021 0.9417
C11 C 0.3176(6) 0.1124(5) 0.5952(4)
H6 H 0.2482 0.0272 0.5328
C12 C 0.5181(6) 0.7029(6) 0.8043(6)
H7 H 0.5095 0.7436 0.7264
C13 C 0.3731(7) 0.0703(6) 0.7180(5)
H8 H 0.4424 0.1534 0.7788
H9 H 0.4238 0.0024 0.7019
H10 H 0.2889 0.0278 0.7524
C14 C 0.1312(5) 0.7948(5) 1.0626(4)
C15 C 0.4395(8) 0.1889(7) 0.5367(7)
H11 H 0.3957 0.2214 0.4634
H12 H 0.4905 0.1250 0.5098
H13 H 0.5107 0.2696 0.5992
C16 C 0.5392(9) 0.8165(8) 0.9151(7)
H14 H 0.5585 0.7821 0.9937
H15 H 0.4494 0.8426 0.9072
H16 H 0.6235 0.8986 0.9166
C17 C 0.6350(9) 0.6366(10) 0.8084(10)
H17 H 0.6460 0.5962 0.8843
H18 H 0.7292 0.7075 0.8105
H19 H 0.6071 0.5625 0.7332
loop_
_geom_bond_atom_site_label_1
_geom_bond_atom_site_label_2
_geom_bond_site_symmetry_1
_geom_bond_site_symmetry_2
Br1 C14 1_555 1_555
O1 C8 1_555 1_555
O2 C5 1_555 1_555
O3 C5 1_555 1_555
O4 C4 1_555 1_555
O5 C8 1_555 1_555
N1 N2 1_555 1_555
N2 C4 1_555 1_555
C1 C2 1_555 1_555
C2 N1 1_555 1_555
C3 C2 1_555 1_555
H1 C3 1_555 1_555
C4 C3 1_555 1_555
C5 N1 1_555 1_555
C6 H2 1_555 1_555
C7 C1 1_555 1_555
H3 C7 1_555 1_555
C8 N2 1_555 1_555
C9 C1 1_555 1_555
H4 C9 1_555 1_555
C10 C7 1_555 1_555
H5 C10 1_555 1_555
C11 O1 1_555 1_555
H6 C11 1_555 1_555
C12 O2 1_555 1_555
H7 C12 1_555 1_555
C13 C11 1_555 1_555
H8 C13 1_555 1_555
H9 C13 1_555 1_555
H10 C13 1_555 1_555
C14 C6 1_555 1_555
C15 C11 1_555 1_555
H11 C15 1_555 1_555
H12 C15 1_555 1_555
H13 C15 1_555 1_555
C16 C12 1_555 1_555
H14 C16 1_555 1_555
H15 C16 1_555 1_555
H16 C16 1_555 1_555
C17 C12 1_555 1_555
H17 C17 1_555 1_555
H18 C17 1_555 1_555
H19 C17 1_555 1_555
C6 C9 1_555 1_555
C10 C14 1_555 1_555

#END
