
#######################################################################
#
#                 Cambridge Crystallographic Data Centre
#                                CCDC 
#
#######################################################################
#
# If this CIF has been generated from an entry in the Cambridge 
# Structural Database, then it will include bibliographic, chemical, 
# crystal, experimental, refinement or atomic coordinate data resulting 
# from the CCDC's data processing and validation procedures.
#
#######################################################################

data_PULSEV
_chemical_formula_moiety         'C18 H17 N1 O2 S1'
_chemical_name_systematic        
'5-Phenyl-6-(2-phenylvinyl)-2-thia-1-azabicyclo[3.1.0]hexane 2,2-dioxide'
_symmetry_cell_setting           monoclinic
_symmetry_space_group_name_H-M   'P 21/n'
_symmetry_Int_Tables_number      14
_space_group_name_Hall           '-P 2yn'
loop_
_symmetry_equiv_pos_site_id
_symmetry_equiv_pos_as_xyz
1 x,y,z
2 1/2-x,1/2+y,1/2-z
3 -x,-y,-z
4 1/2+x,1/2-y,1/2+z
_cell_length_a                   5.9972(6)
_cell_length_b                   15.7900(17)
_cell_length_c                   16.6013(17)
_cell_angle_alpha                90
_cell_angle_beta                 95.271(2)
_cell_angle_gamma                90
_cell_volume                     1565.43
_exptl_crystal_colour            colorless
_exptl_crystal_description       prismatic
_cell_formula_units_Z            4
loop_
_atom_site_label
_atom_site_type_symbol
_atom_site_fract_x
_atom_site_fract_y
_atom_site_fract_z
S1 S 1.13197(8) 0.92368(3) 0.61944(3)
O1 O 1.3270(2) 0.87249(10) 0.61991(10)
O2 O 1.1496(3) 1.01146(9) 0.60174(9)
N1 N 1.0359(2) 0.91131(8) 0.70932(8)
C1 C 0.9099(3) 0.87323(11) 0.55901(11)
H1 H 0.7939 0.9135 0.5407
H2 H 0.9643 0.8457 0.5124
C2 C 0.8243(3) 0.80904(10) 0.61641(10)
H3 H 0.9061 0.7563 0.6136
H4 H 0.6668 0.7978 0.6018
C3 C 0.8578(3) 0.84546(10) 0.70199(9)
C4 C 0.7951(3) 0.93573(10) 0.71253(10)
H5 H 0.7244 0.9639 0.6642
C5 C 0.7417(3) 0.97121(10) 0.79027(10)
H6 H 0.8249 0.9533 0.8372
C6 C 0.5819(3) 1.02703(10) 0.79654(11)
H7 H 0.4982 1.0424 0.7488
C7 C 0.5216(3) 1.06769(10) 0.87113(12)
C8 C 0.3162(4) 1.10647(13) 0.87283(14)
H8 H 0.2154 1.1065 0.8268
C9 C 0.2587(5) 1.14569(13) 0.94340(18)
H9 H 0.1194 1.1715 0.9441
C10 C 0.4047(5) 1.14653(14) 1.01136(17)
H10 H 0.3655 1.1727 1.0582
C11 C 0.6088(5) 1.10865(13) 1.01003(14)
H11 H 0.7088 1.1092 1.0563
C12 C 0.6685(4) 1.06960(11) 0.94092(12)
H12 H 0.8085 1.0443 0.9410
C13 C 0.8536(3) 0.78240(10) 0.76852(10)
C14 C 0.6605(4) 0.73643(12) 0.77509(12)
H13 H 0.5348 0.7465 0.7393
C15 C 0.6526(5) 0.67549(12) 0.83460(14)
H14 H 0.5219 0.6447 0.8385
C16 C 0.8344(5) 0.66057(14) 0.88713(14)
H15 H 0.8288 0.6194 0.9270
C17 C 1.0252(5) 0.70574(18) 0.88159(14)
H16 H 1.1495 0.6951 0.9179
C18 C 1.0375(4) 0.76760(14) 0.82253(12)
H17 H 1.1684 0.7986 0.8196
loop_
_geom_bond_atom_site_label_1
_geom_bond_atom_site_label_2
_geom_bond_site_symmetry_1
_geom_bond_site_symmetry_2
S1 O1 1_555 1_555
O2 S1 1_555 1_555
N1 S1 1_555 1_555
C1 S1 1_555 1_555
H1 C1 1_555 1_555
H2 C1 1_555 1_555
C2 C1 1_555 1_555
H3 C2 1_555 1_555
H4 C2 1_555 1_555
C3 N1 1_555 1_555
C4 N1 1_555 1_555
H5 C4 1_555 1_555
C5 C4 1_555 1_555
H6 C5 1_555 1_555
C6 C5 1_555 1_555
H7 C6 1_555 1_555
C7 C6 1_555 1_555
C8 C7 1_555 1_555
H8 C8 1_555 1_555
C9 C8 1_555 1_555
H9 C9 1_555 1_555
C10 C9 1_555 1_555
H10 C10 1_555 1_555
C11 C10 1_555 1_555
H11 C11 1_555 1_555
C12 C7 1_555 1_555
H12 C12 1_555 1_555
C13 C3 1_555 1_555
C14 C13 1_555 1_555
H13 C14 1_555 1_555
C15 C14 1_555 1_555
H14 C15 1_555 1_555
C16 C15 1_555 1_555
H15 C16 1_555 1_555
C17 C16 1_555 1_555
H16 C17 1_555 1_555
C18 C13 1_555 1_555
H17 C18 1_555 1_555
C2 C3 1_555 1_555
C3 C4 1_555 1_555
C11 C12 1_555 1_555
C17 C18 1_555 1_555

#END
