
#######################################################################
#
#                 Cambridge Crystallographic Data Centre
#                                CCDC 
#
#######################################################################
#
# If this CIF has been generated from an entry in the Cambridge 
# Structural Database, then it will include bibliographic, chemical, 
# crystal, experimental, refinement or atomic coordinate data resulting 
# from the CCDC's data processing and validation procedures.
#
#######################################################################

data_PULWUQ
_chemical_formula_moiety         'C36 H40 O8'
_chemical_name_systematic        
"Dimethyl 5,5'-(1,2-diphenylethene-1,2-diyl)bis(4-butyl-2-methoxy-3-furoate)"
_symmetry_cell_setting           monoclinic
_symmetry_space_group_name_H-M   'C 2/c'
_symmetry_Int_Tables_number      15
_space_group_name_Hall           '-C 2yn'
loop_
_symmetry_equiv_pos_site_id
_symmetry_equiv_pos_as_xyz
1 x,y,z
2 -x,y,1/2-z
3 1/2+x,1/2+y,z
4 1/2-x,1/2+y,1/2-z
5 -x,-y,-z
6 x,-y,1/2+z
7 1/2-x,1/2-y,-z
8 1/2+x,1/2-y,1/2+z
_cell_length_a                   8.6210(11)
_cell_length_b                   21.744(3)
_cell_length_c                   18.379(2)
_cell_angle_alpha                90
_cell_angle_beta                 100.954(3)
_cell_angle_gamma                90
_cell_volume                     3382.46
_cell_formula_units_Z            4
loop_
_atom_site_label
_atom_site_type_symbol
_atom_site_fract_x
_atom_site_fract_y
_atom_site_fract_z
O1 O 0.5757(2) 0.68205(7) 0.32990(11)
O2 O 0.6392(2) 0.58568(8) 0.37396(13)
O3 O 0.3696(2) 0.52979(9) 0.40572(13)
O4 O 0.1498(3) 0.58483(9) 0.39413(13)
C1 C -0.0898(4) 0.79942(18) 0.4569(2)
H1 H -0.1015 0.7659 0.4894
H2 H -0.1885 0.8209 0.4437
H3 H -0.0103 0.8272 0.4816
C2 C -0.0415(3) 0.77489(13) 0.38800(17)
H4 H -0.0292 0.8091 0.3558
H5 H -0.1255 0.7489 0.3619
C3 C 0.1111(3) 0.73813(12) 0.40290(15)
H6 H 0.0985 0.7030 0.4338
H7 H 0.1953 0.7636 0.4297
C4 C 0.1563(3) 0.71584(12) 0.33127(14)
H8 H 0.0822 0.6841 0.3101
H9 H 0.1447 0.7498 0.2965
C5 C 0.3199(3) 0.69078(11) 0.33873(13)
C6 C 0.3768(3) 0.63069(11) 0.36446(14)
C7 C 0.2848(4) 0.58112(12) 0.38873(15)
C8 C 0.5306(3) 0.62902(12) 0.35722(16)
C9 C 0.4415(3) 0.72034(11) 0.31714(14)
C10 C 0.4630(3) 0.77834(10) 0.27963(14)
C11 C 0.3973(3) 0.83425(11) 0.30887(16)
C12 C 0.4159(4) 0.84446(12) 0.38464(18)
H10 H 0.4769 0.8174 0.4174
C13 C 0.3454(5) 0.89424(15) 0.4122(2)
H11 H 0.3608 0.9009 0.4631
C14 C 0.2529(5) 0.93368(15) 0.3644(3)
H12 H 0.2028 0.9665 0.3828
C15 C 0.2340(4) 0.92471(14) 0.2884(2)
H13 H 0.1733 0.9519 0.2557
C16 C 0.3063(3) 0.87493(12) 0.26172(17)
H14 H 0.2930 0.8689 0.2108
C17 C 0.7955(4) 0.59843(14) 0.3609(3)
H15 H 0.8384 0.6333 0.3899
H16 H 0.7903 0.6072 0.3093
H17 H 0.8620 0.5633 0.3748
C18 C 0.2882(4) 0.47822(13) 0.4300(2)
H18 H 0.2501 0.4892 0.4740
H19 H 0.3594 0.4440 0.4403
H20 H 0.2006 0.4670 0.3917
O1A O 0.4243(2) 0.68205(7) 0.17010(11)
O2A O 0.3608(2) 0.58568(8) 0.12604(13)
O3A O 0.6304(2) 0.52979(9) 0.09428(13)
O4A O 0.8502(3) 0.58483(9) 0.10587(13)
C1A C 1.0898(4) 0.79942(18) 0.0431(2)
H1A H 1.1015 0.7659 0.0106
H2A H 1.1885 0.8209 0.0563
H3A H 1.0103 0.8272 0.0184
C2A C 1.0415(3) 0.77489(13) 0.11200(17)
H4A H 1.0292 0.8091 0.1442
H5A H 1.1255 0.7489 0.1381
C3A C 0.8889(3) 0.73813(12) 0.09710(15)
H6A H 0.9015 0.7030 0.0662
H7A H 0.8047 0.7636 0.0703
C4A C 0.8437(3) 0.71584(12) 0.16873(14)
H8A H 0.9178 0.6841 0.1899
H9A H 0.8553 0.7498 0.2035
C5A C 0.6801(3) 0.69078(11) 0.16127(13)
C6A C 0.6232(3) 0.63069(11) 0.13554(14)
C7A C 0.7152(4) 0.58112(12) 0.11127(15)
C8A C 0.4694(3) 0.62902(12) 0.14278(16)
C9A C 0.5585(3) 0.72034(11) 0.18286(14)
C10A C 0.5370(3) 0.77834(10) 0.22037(14)
C11A C 0.6027(3) 0.83425(11) 0.19113(16)
C12A C 0.5841(4) 0.84446(12) 0.11536(18)
H10A H 0.5231 0.8174 0.0826
C13A C 0.6546(5) 0.89424(15) 0.0878(2)
H11A H 0.6392 0.9009 0.0369
C14A C 0.7471(5) 0.93368(15) 0.1356(3)
H12A H 0.7972 0.9665 0.1172
C15A C 0.7660(4) 0.92471(14) 0.2116(2)
H13A H 0.8267 0.9519 0.2443
C16A C 0.6937(3) 0.87493(12) 0.23828(17)
H14A H 0.7070 0.8689 0.2892
C17A C 0.2045(4) 0.59843(14) 0.1391(3)
H15A H 0.1616 0.6333 0.1101
H16A H 0.2097 0.6072 0.1907
H17A H 0.1380 0.5633 0.1252
C18A C 0.7118(4) 0.47822(13) 0.0700(2)
H18A H 0.7499 0.4892 0.0260
H19A H 0.6406 0.4440 0.0597
H20A H 0.7994 0.4670 0.1083
loop_
_geom_bond_atom_site_label_1
_geom_bond_atom_site_label_2
_geom_bond_site_symmetry_1
_geom_bond_site_symmetry_2
O1 C8 1_555 1_555
O2 C8 1_555 1_555
O3 C7 1_555 1_555
O4 C7 1_555 1_555
C1 H1 1_555 1_555
H2 C1 1_555 1_555
H3 C1 1_555 1_555
C2 C1 1_555 1_555
H4 C2 1_555 1_555
H5 C2 1_555 1_555
C3 C2 1_555 1_555
H6 C3 1_555 1_555
H7 C3 1_555 1_555
C4 C3 1_555 1_555
H8 C4 1_555 1_555
H9 C4 1_555 1_555
C5 C4 1_555 1_555
C6 C5 1_555 1_555
C7 C6 1_555 1_555
C8 C6 1_555 1_555
C9 O1 1_555 1_555
C10 C9 1_555 1_555
C11 C10 1_555 1_555
C12 C11 1_555 1_555
H10 C12 1_555 1_555
C13 C12 1_555 1_555
H11 C13 1_555 1_555
C14 C13 1_555 1_555
H12 C14 1_555 1_555
C15 C14 1_555 1_555
H13 C15 1_555 1_555
C16 C11 1_555 1_555
H14 C16 1_555 1_555
C17 O2 1_555 1_555
H15 C17 1_555 1_555
H16 C17 1_555 1_555
H17 C17 1_555 1_555
C18 O3 1_555 1_555
H18 C18 1_555 1_555
H19 C18 1_555 1_555
H20 C18 1_555 1_555
O1A C8A 1_555 1_555
O2A C8A 1_555 1_555
O3A C7A 1_555 1_555
O4A C7A 1_555 1_555
C1A H1A 1_555 1_555
H2A C1A 1_555 1_555
H3A C1A 1_555 1_555
C2A C1A 1_555 1_555
H4A C2A 1_555 1_555
H5A C2A 1_555 1_555
C3A C2A 1_555 1_555
H6A C3A 1_555 1_555
H7A C3A 1_555 1_555
C4A C3A 1_555 1_555
H8A C4A 1_555 1_555
H9A C4A 1_555 1_555
C5A C4A 1_555 1_555
C6A C5A 1_555 1_555
C7A C6A 1_555 1_555
C8A C6A 1_555 1_555
C9A O1A 1_555 1_555
C10A C10 1_555 1_555
C11A C10A 1_555 1_555
C12A C11A 1_555 1_555
H10A C12A 1_555 1_555
C13A C12A 1_555 1_555
H11A C13A 1_555 1_555
C14A C13A 1_555 1_555
H12A C14A 1_555 1_555
C15A C14A 1_555 1_555
H13A C15A 1_555 1_555
C16A C11A 1_555 1_555
H14A C16A 1_555 1_555
C17A O2A 1_555 1_555
H15A C17A 1_555 1_555
H16A C17A 1_555 1_555
H17A C17A 1_555 1_555
C18A O3A 1_555 1_555
H18A C18A 1_555 1_555
H19A C18A 1_555 1_555
H20A C18A 1_555 1_555
C5 C9 1_555 1_555
C15 C16 1_555 1_555
C5A C9A 1_555 1_555
C9A C10A 1_555 1_555
C15A C16A 1_555 1_555

#END
