
#######################################################################
#
#                 Cambridge Crystallographic Data Centre
#                                CCDC 
#
#######################################################################
#
# If this CIF has been generated from an entry in the Cambridge 
# Structural Database, then it will include bibliographic, chemical, 
# crystal, experimental, refinement or atomic coordinate data resulting 
# from the CCDC's data processing and validation procedures.
#
#######################################################################

data_PULWOK
_chemical_formula_moiety         'C40 H32 O8,3(H2 O1)'
_chemical_name_systematic        
"Dimethyl 5,5'-(1,2-diphenylethene-1,2-diyl)bis(2-methoxy-4-phenyl-3-furoate) trihydrate"
_symmetry_cell_setting           triclinic
_symmetry_space_group_name_H-M   'P -1'
_symmetry_Int_Tables_number      2
_space_group_name_Hall           '-P 1'
loop_
_symmetry_equiv_pos_site_id
_symmetry_equiv_pos_as_xyz
1 x,y,z
2 -x,-y,-z
_cell_length_a                   10.974(9)
_cell_length_b                   13.036(10)
_cell_length_c                   14.337(11)
_cell_angle_alpha                68.085(14)
_cell_angle_beta                 67.898(13)
_cell_angle_gamma                73.316(14)
_cell_volume                     1737.12
_cell_formula_units_Z            2
loop_
_atom_site_label
_atom_site_type_symbol
_atom_site_fract_x
_atom_site_fract_y
_atom_site_fract_z
O1 O 0.6163(10) 0.0038(9) 0.0287(8)
O2 O 0.8693(2) 0.10079(18) 0.28027(18)
O3 O 1.1931(2) 0.37129(19) 0.19505(18)
O4 O 1.1317(2) -0.1968(2) 0.2633(3)
O5 O 1.2779(4) -0.1240(3) 0.2781(3)
O6 O 1.4063(3) 0.3920(3) 0.0944(3)
O7 O 0.8854(3) -0.0622(2) 0.2486(3)
O8 O 1.4566(4) 0.3512(4) -0.0997(3)
O9 O 1.2918(3) 0.3063(3) -0.1195(2)
C1 C 1.0667(3) 0.0797(2) 0.3045(2)
C2 C 1.2561(3) 0.3388(3) 0.0390(3)
C3 C 0.9494(3) 0.1501(3) 0.3015(2)
C4 C 1.1183(3) 0.3233(3) 0.0926(2)
C5 C 0.8905(3) 0.2605(2) 0.3184(2)
C6 C 1.0853(3) 0.3420(3) 0.1871(3)
C7 C 0.9635(3) 0.3445(3) 0.2760(2)
C8 C 0.7490(3) 0.2747(3) 0.3840(2)
C9 C 0.9294(3) 0.4426(3) 0.3156(3)
C10 C 1.0623(3) -0.0175(3) 0.2815(2)
C11 C 1.1667(3) -0.1172(3) 0.2773(3)
C12 C 0.9412(3) 0.0011(3) 0.2691(3)
C13 C 1.2925(3) 0.3677(3) 0.1051(3)
C14 C 0.8870(3) 0.4291(3) 0.4238(3)
H1 H 0.8736 0.3588 0.4718
C15 C 1.0255(3) 0.2953(3) 0.0576(2)
C16 C 1.1735(3) 0.1004(3) 0.3301(3)
C17 C 0.6600(3) 0.3712(3) 0.3527(3)
H2 H 0.6893 0.4266 0.2900
C18 C 1.3438(4) 0.3348(3) -0.0662(3)
C19 C 0.7020(3) 0.1925(3) 0.4753(3)
H3 H 0.7596 0.1266 0.4960
C20 C 0.9021(4) 0.3644(3) 0.0584(3)
H4 H 0.8815 0.4293 0.0778
C21 C 0.9487(3) 0.5492(3) 0.2462(3)
H5 H 0.9770 0.5605 0.1738
C22 C 1.1476(5) 0.1208(3) 0.4256(3)
H6 H 1.0623 0.1208 0.4736
C23 C 1.3019(4) 0.1022(3) 0.2599(4)
H7 H 1.3206 0.0893 0.1960
C24 C 0.9263(4) 0.6375(3) 0.2841(3)
H8 H 0.9391 0.7082 0.2369
C25 C 0.8853(4) 0.6233(3) 0.3905(4)
H9 H 0.8716 0.6837 0.4150
C26 C 0.4851(4) 0.3019(4) 0.5064(4)
H10 H 0.3966 0.3113 0.5481
C27 C 0.8648(4) 0.5201(4) 0.4599(3)
H11 H 0.8357 0.5105 0.5320
C28 C 0.5704(4) 0.2068(4) 0.5367(3)
H12 H 0.5401 0.1511 0.5989
C29 C 0.5287(4) 0.3848(4) 0.4142(4)
H13 H 0.4698 0.4497 0.3935
C30 C 1.0532(5) 0.2001(3) 0.0263(3)
H14 H 1.1351 0.1527 0.0242
C31 C 1.2309(4) -0.2967(3) 0.2575(4)
H15 H 1.3015 -0.2805 0.1922
H16 H 1.1904 -0.3548 0.2609
H17 H 1.2666 -0.3214 0.3154
C32 C 1.4125(5) 0.4303(5) 0.1739(5)
H18 H 1.5002 0.4463 0.1556
H19 H 1.3939 0.3731 0.2407
H20 H 1.3478 0.4972 0.1786
C33 C 0.7505(4) -0.0233(4) 0.2453(4)
H21 H 0.7445 0.0490 0.1936
H22 H 0.6928 -0.0174 0.3133
H23 H 0.7240 -0.0753 0.2268
C34 C 1.3737(7) 0.1407(5) 0.3790(7)
H24 H 1.4413 0.1528 0.3959
C35 C 0.8103(5) 0.3379(5) 0.0310(4)
H25 H 0.7282 0.3848 0.0326
C36 C 1.3764(5) 0.2978(5) -0.2227(3)
H26 H 1.4104 0.3665 -0.2639
H27 H 1.3254 0.2843 -0.2574
H28 H 1.4495 0.2368 -0.2152
C37 C 1.4015(5) 0.1226(4) 0.2829(5)
H29 H 1.4867 0.1242 0.2348
C38 C 0.9604(7) 0.1754(5) -0.0016(4)
H30 H 0.9804 0.1116 -0.0227
C39 C 1.2483(8) 0.1410(4) 0.4487(5)
H31 H 1.2305 0.1548 0.5121
C40 C 0.8378(7) 0.2442(7) 0.0015(4)
H32 H 0.7750 0.2265 -0.0165
O10? O 0.5133(17) 0.0658(11) -0.0300(12)
O11? O 0.6019(8) 0.0490(7) 0.0099(6)
loop_
_geom_bond_atom_site_label_1
_geom_bond_atom_site_label_2
_geom_bond_site_symmetry_1
_geom_bond_site_symmetry_2
O2 C3 1_555 1_555
O3 C6 1_555 1_555
O4 C11 1_555 1_555
O5 C11 1_555 1_555
O6 C13 1_555 1_555
O7 C12 1_555 1_555
O8 C18 1_555 1_555
O9 C18 1_555 1_555
C1 C3 1_555 1_555
C2 C4 1_555 1_555
C3 C5 1_555 1_555
C4 C6 1_555 1_555
C5 C7 1_555 1_555
C6 C7 1_555 1_555
C7 C9 1_555 1_555
C8 C5 1_555 1_555
C9 C14 1_555 1_555
C10 C1 1_555 1_555
C11 C10 1_555 1_555
C12 O2 1_555 1_555
C13 O3 1_555 1_555
C14 H1 1_555 1_555
C15 C4 1_555 1_555
C16 C1 1_555 1_555
C17 C8 1_555 1_555
H2 C17 1_555 1_555
C18 C2 1_555 1_555
C19 C8 1_555 1_555
H3 C19 1_555 1_555
C20 C15 1_555 1_555
H4 C20 1_555 1_555
C21 C9 1_555 1_555
H5 C21 1_555 1_555
C22 C16 1_555 1_555
H6 C22 1_555 1_555
C23 C16 1_555 1_555
H7 C23 1_555 1_555
C24 C21 1_555 1_555
H8 C24 1_555 1_555
C25 C24 1_555 1_555
H9 C25 1_555 1_555
C26 H10 1_555 1_555
C27 C14 1_555 1_555
H11 C27 1_555 1_555
C28 C19 1_555 1_555
H12 C28 1_555 1_555
C29 C17 1_555 1_555
H13 C29 1_555 1_555
C30 C15 1_555 1_555
H14 C30 1_555 1_555
C31 O4 1_555 1_555
H15 C31 1_555 1_555
H16 C31 1_555 1_555
H17 C31 1_555 1_555
C32 O6 1_555 1_555
H18 C32 1_555 1_555
H19 C32 1_555 1_555
H20 C32 1_555 1_555
C33 O7 1_555 1_555
H21 C33 1_555 1_555
H22 C33 1_555 1_555
H23 C33 1_555 1_555
C34 H24 1_555 1_555
C35 C20 1_555 1_555
H25 C35 1_555 1_555
C36 O9 1_555 1_555
H26 C36 1_555 1_555
H27 C36 1_555 1_555
H28 C36 1_555 1_555
C37 C23 1_555 1_555
H29 C37 1_555 1_555
C38 C30 1_555 1_555
H30 C38 1_555 1_555
C39 C22 1_555 1_555
H31 C39 1_555 1_555
C40 C35 1_555 1_555
H32 C40 1_555 1_555
C2 C13 1_555 1_555
C10 C12 1_555 1_555
C25 C27 1_555 1_555
C26 C28 1_555 1_555
C26 C29 1_555 1_555
C34 C37 1_555 1_555
C34 C39 1_555 1_555
C38 C40 1_555 1_555

#END
