
#######################################################################
#
#                 Cambridge Crystallographic Data Centre
#                                CCDC 
#
#######################################################################
#
# If this CIF has been generated from an entry in the Cambridge 
# Structural Database, then it will include bibliographic, chemical, 
# crystal, experimental, refinement or atomic coordinate data resulting 
# from the CCDC's data processing and validation procedures.
#
#######################################################################

data_PULXAX
_chemical_formula_moiety         'C33 H41 N1 O9'
_chemical_name_systematic        
"Dimethyl 5,5'-(3-(dimethylamino)-3-oxo-1-phenylprop-1-ene-1,2-diyl)bis(4-butyl-2-methoxy-3-furoate)"
_symmetry_cell_setting           monoclinic
_symmetry_space_group_name_H-M   'P 21/c'
_symmetry_Int_Tables_number      14
_space_group_name_Hall           '-P 2ybc'
loop_
_symmetry_equiv_pos_site_id
_symmetry_equiv_pos_as_xyz
1 x,y,z
2 -x,1/2+y,1/2-z
3 -x,-y,-z
4 x,1/2-y,1/2+z
_cell_length_a                   9.7518(3)
_cell_length_b                   17.4971(5)
_cell_length_c                   20.0458(7)
_cell_angle_alpha                90
_cell_angle_beta                 101.206(3)
_cell_angle_gamma                90
_cell_volume                     3355.17
_cell_formula_units_Z            4
loop_
_atom_site_label
_atom_site_type_symbol
_atom_site_fract_x
_atom_site_fract_y
_atom_site_fract_z
O1 O 0.9810(3) -0.27962(16) -0.05167(13)
O2 O 1.1311(3) -0.05531(18) -0.06201(17)
O3 O 0.9365(4) 0.03299(19) -0.15836(17)
O4 O 1.0702(4) -0.3020(2) -0.14086(15)
O5 O 0.7055(4) 0.0106(2) -0.1775(2)
O6 O 1.3136(3) -0.3919(2) -0.09714(17)
O7 O 0.9673(4) -0.27988(18) 0.17236(14)
O8 O 1.4137(4) -0.4028(2) 0.01525(19)
O9 O 1.0080(3) -0.13028(15) -0.00770(14)
N1 N 0.8598(4) -0.3797(2) 0.10949(18)
C1 C 0.6198(5) -0.2323(3) 0.0708(3)
H1 H 0.6198 -0.2803 0.0509
C2 C 1.2576(5) -0.0860(3) -0.0159(3)
H2 H 1.2626 -0.1403 -0.0221
H3 H 1.2519 -0.0752 0.0304
H4 H 1.3396 -0.0623 -0.0264
C3 C 0.9050(7) 0.0950(3) -0.2068(3)
H5 H 0.8546 0.0754 -0.2493
H6 H 0.9905 0.1180 -0.2136
H7 H 0.8490 0.1325 -0.1896
C4 C 1.2678(7) -0.4889(3) 0.1777(3)
H8 H 1.3678 -0.4803 0.1850
H9 H 1.2323 -0.4633 0.2138
C5 C 0.6226(5) -0.0901(3) 0.1280(2)
H10 H 0.6211 -0.0420 0.1477
C6 C 0.7905(5) -0.4157(3) 0.0446(2)
H11 H 0.6939 -0.4249 0.0457
H12 H 0.8358 -0.4633 0.0388
H13 H 0.7971 -0.3823 0.0074
C7 C 0.8548(8) -0.4219(3) 0.1706(3)
H14 H 0.9312 -0.4066 0.2059
H15 H 0.8617 -0.4756 0.1620
H16 H 0.7680 -0.4116 0.1848
C8 C 0.5158(6) -0.2119(3) 0.1015(3)
H17 H 0.4425 -0.2455 0.1031
C9 C 1.4434(6) -0.4227(3) -0.1079(3)
H18 H 1.4370 -0.4334 -0.1553
H19 H 1.4637 -0.4690 -0.0822
H20 H 1.5168 -0.3863 -0.0932
C10 C 0.5181(6) -0.1414(4) 0.1306(3)
H21 H 0.4465 -0.1278 0.1528
C11 C 0.9654(7) -0.2487(4) -0.1782(3)
H22 H 0.9778 -0.2444 -0.2244
H23 H 0.9769 -0.1994 -0.1569
H24 H 0.8733 -0.2676 -0.1776
C12 C 0.5690(6) -0.1694(5) -0.1455(3)
H25 H 0.6044 -0.1533 -0.1852
H26 H 0.6135 -0.2177 -0.1307
C13 C 1.2390(8) -0.5740(4) 0.1802(3)
H27 H 1.2628 -0.5984 0.1410
H28 H 1.1416 -0.5821 0.1803
H29 H 1.2943 -0.5954 0.2207
C14 C 0.3778(11) -0.2409(5) -0.2244(4)
H30 H 0.4127 -0.2239 -0.2635
H31 H 0.2778 -0.2452 -0.2358
H32 H 0.4174 -0.2898 -0.2101
C15 C 0.4179(10) -0.1837(6) -0.1670(4)
H33 H 0.3720 -0.1356 -0.1811
H34 H 0.3820 -0.2018 -0.1280
C16 C 1.0060(4) -0.0784(2) -0.0565(2)
C17 C 1.3149(5) -0.3827(2) -0.0320(3)
C18 C 0.8646(4) -0.1465(2) -0.0127(2)
C19 C 0.7785(4) -0.1047(2) -0.0630(2)
C20 C 0.8711(4) -0.0594(2) -0.0925(2)
C21 C 0.8256(5) -0.0030(2) -0.1469(2)
C22 C 0.6187(5) -0.1090(3) -0.0875(2)
H35 H 0.5849 -0.0590 -0.1038
H36 H 0.5762 -0.1215 -0.0489
C23 C 0.8412(4) -0.2021(2) 0.0361(2)
C24 C 0.7273(4) -0.1817(2) 0.0686(2)
C25 C 0.7271(5) -0.1097(2) 0.0969(2)
H37 H 0.7986 -0.0753 0.0944
C26 C 0.9196(4) -0.2663(2) 0.05333(19)
C27 C 1.0193(4) -0.2955(2) 0.01825(19)
C28 C 1.1413(4) -0.3370(2) 0.0356(2)
C29 C 1.1845(4) -0.3471(2) -0.0261(2)
C30 C 1.0840(5) -0.3112(2) -0.0753(2)
C31 C 1.2169(5) -0.3689(2) 0.1042(2)
H38 H 1.3159 -0.3573 0.1103
H39 H 1.1809 -0.3443 0.1406
C32 C 1.1973(5) -0.4552(3) 0.1083(2)
H40 H 1.2361 -0.4797 0.0727
H41 H 1.0981 -0.4667 0.1002
C33 C 0.9163(5) -0.3093(2) 0.1167(2)
loop_
_geom_bond_atom_site_label_1
_geom_bond_atom_site_label_2
_geom_bond_site_symmetry_1
_geom_bond_site_symmetry_2
O1 C27 1_555 1_555
O2 C2 1_555 1_555
O3 C3 1_555 1_555
O4 C11 1_555 1_555
O5 C21 1_555 1_555
O6 C9 1_555 1_555
O7 C33 1_555 1_555
O8 C17 1_555 1_555
O9 C16 1_555 1_555
N1 C6 1_555 1_555
C1 H1 1_555 1_555
C2 H2 1_555 1_555
H3 C2 1_555 1_555
H4 C2 1_555 1_555
C3 H5 1_555 1_555
H6 C3 1_555 1_555
H7 C3 1_555 1_555
C4 H8 1_555 1_555
H9 C4 1_555 1_555
C5 H10 1_555 1_555
C6 H11 1_555 1_555
H12 C6 1_555 1_555
H13 C6 1_555 1_555
C7 N1 1_555 1_555
H14 C7 1_555 1_555
H15 C7 1_555 1_555
H16 C7 1_555 1_555
C8 C1 1_555 1_555
H17 C8 1_555 1_555
C9 H18 1_555 1_555
H19 C9 1_555 1_555
H20 C9 1_555 1_555
C10 C5 1_555 1_555
H21 C10 1_555 1_555
C11 H22 1_555 1_555
H23 C11 1_555 1_555
H24 C11 1_555 1_555
C12 H25 1_555 1_555
H26 C12 1_555 1_555
C13 C4 1_555 1_555
H27 C13 1_555 1_555
H28 C13 1_555 1_555
H29 C13 1_555 1_555
C14 H30 1_555 1_555
H31 C14 1_555 1_555
H32 C14 1_555 1_555
C15 C12 1_555 1_555
H33 C15 1_555 1_555
H34 C15 1_555 1_555
C16 O2 1_555 1_555
C17 O6 1_555 1_555
C18 O9 1_555 1_555
C19 C18 1_555 1_555
C20 C16 1_555 1_555
C21 O3 1_555 1_555
C22 C12 1_555 1_555
H35 C22 1_555 1_555
H36 C22 1_555 1_555
C23 C18 1_555 1_555
C24 C1 1_555 1_555
C25 C5 1_555 1_555
H37 C25 1_555 1_555
C26 C23 1_555 1_555
C27 C26 1_555 1_555
C28 C27 1_555 1_555
C29 C17 1_555 1_555
C30 O1 1_555 1_555
C31 C28 1_555 1_555
H38 C31 1_555 1_555
H39 C31 1_555 1_555
C32 C4 1_555 1_555
H40 C32 1_555 1_555
H41 C32 1_555 1_555
C33 N1 1_555 1_555
O4 C30 1_555 1_555
C8 C10 1_555 1_555
C14 C15 1_555 1_555
C19 C20 1_555 1_555
C19 C22 1_555 1_555
C20 C21 1_555 1_555
C23 C24 1_555 1_555
C24 C25 1_555 1_555
C26 C33 1_555 1_555
C28 C29 1_555 1_555
C29 C30 1_555 1_555
C31 C32 1_555 1_555

#END
