
#######################################################################
#
#                 Cambridge Crystallographic Data Centre
#                                CCDC 
#
#######################################################################
#
# If this CIF has been generated from an entry in the Cambridge 
# Structural Database, then it will include bibliographic, chemical, 
# crystal, experimental, refinement or atomic coordinate data resulting 
# from the CCDC's data processing and validation procedures.
#
#######################################################################

data_PUMBUU
_chemical_formula_moiety         'C30 H33 O6 Si1 1+,C10 H11 O2 1-'
_chemical_name_systematic        
"tris(5-Isopropyltropolonato-O,O')-silicon 5-isopropyltropolonate"
_symmetry_cell_setting           monoclinic
_symmetry_space_group_name_H-M   'P 21/n'
_symmetry_Int_Tables_number      14
_space_group_name_Hall           '-P 2yn'
loop_
_symmetry_equiv_pos_site_id
_symmetry_equiv_pos_as_xyz
1 x,y,z
2 1/2-x,1/2+y,1/2-z
3 -x,-y,-z
4 1/2+x,1/2-y,1/2+z
_cell_length_a                   14.176(3)
_cell_length_b                   12.379(2)
_cell_length_c                   21.943(4)
_cell_angle_alpha                90
_cell_angle_beta                 109.86(2)
_cell_angle_gamma                90
_cell_volume                     3621.64
_exptl_crystal_colour            red
_exptl_crystal_description       prism
_chemical_melting_point          194-195deg.C
_cell_formula_units_Z            4
_exptl_crystal_recrystallization_method dichloromethane/ether
loop_
_atom_site_label
_atom_site_type_symbol
_atom_site_fract_x
_atom_site_fract_y
_atom_site_fract_z
Si1 Si 0.6192(2) 0.2529(3) 0.4109(1)
O1 O 0.6260(5) 0.3541(6) 0.4702(3)
O2 O 0.5856(5) 0.3584(6) 0.3544(3)
O3 O 0.4959(5) 0.2256(5) 0.4097(3)
O4 O 0.5999(5) 0.1569(6) 0.3483(3)
O5 O 0.6618(5) 0.1558(6) 0.4723(3)
O6 O 0.7440(5) 0.2699(6) 0.4130(3)
C1 C 0.6084(7) 0.4518(9) 0.4467(5)
C2 C 0.5824(7) 0.4537(9) 0.3785(5)
C3 C 0.5576(8) 0.5419(9) 0.3408(5)
C4 C 0.5533(9) 0.6523(10) 0.3557(6)
C5 C 0.5711(10) 0.7013(10) 0.4124(7)
C6 C 0.5993(10) 0.6471(12) 0.4722(7)
C7 C 0.6137(9) 0.5373(10) 0.4878(6)
C8 C 0.4494(8) 0.1565(8) 0.3662(5)
C9 C 0.5102(7) 0.1157(8) 0.3309(5)
C10 C 0.4867(8) 0.0411(11) 0.2819(6)
C11 C 0.3975(10) -0.0089(14) 0.2578(6)
C12 C 0.3103(11) -0.0062(15) 0.2712(7)
C13 C 0.2898(9) 0.0654(13) 0.3148(6)
C14 C 0.3518(7) 0.1329(10) 0.3578(5)
C15 C 0.7584(8) 0.1521(9) 0.4947(5)
C16 C 0.8057(8) 0.2194(8) 0.4611(5)
C17 C 0.9046(9) 0.2417(11) 0.4743(6)
C18 C 0.9824(9) 0.2025(12) 0.5238(6)
C19 C 0.9822(8) 0.1326(12) 0.5727(5)
C20 C 0.9031(9) 0.0734(11) 0.5800(6)
C21 C 0.8025(8) 0.0827(10) 0.5462(6)
C29 C 0.5692(12) 0.8260(12) 0.4125(10)
C30 C 0.6655(14) 0.8716(14) 0.4127(11)
C31 C 0.4978(19) 0.8667(17) 0.4370(12)
C32 C 0.2214(16) -0.0772(21) 0.2352(10)
C33 C 0.1917(11) -0.0628(17) 0.1691(8)
C34 C 0.2191(33) -0.1811(33) 0.2866(18)
C35 C 1.0826(10) 0.1127(15) 0.6239(6)
C36 C 1.1204(12) 0.0086(14) 0.6151(9)
C37 C 1.0770(11) 0.1301(17) 0.6885(7)
H1 H 0.635(7) 0.513(8) 0.529(4)
H2 H 0.619(5) 0.692(6) 0.505(4)
H3 H 0.553(14) 0.699(16) 0.306(9)
H4 H 0.557(6) 0.538(7) 0.291(4)
H5 H 0.312(5) 0.159(6) 0.377(3)
H6 H 0.224(7) 0.048(8) 0.322(5)
H7 H 0.407(7) -0.057(8) 0.230(5)
H8 H 0.550(6) 0.022(7) 0.271(4)
H9 H 0.755(8) 0.024(9) 0.565(5)
H10 H 0.907(8) 0.019(10) 0.626(5)
H11 H 1.054(6) 0.232(8) 0.526(4)
H12 H 0.921(5) 0.283(6) 0.449(3)
H17 H 0.476(12) 0.836(14) 0.379(8)
H18 H 0.259(9) -0.151(10) 0.224(6)
H19 H 1.153(8) 0.169(10) 0.609(5)
H21 H 0.580(7) 0.871(8) 0.474(4)
H22 H 0.548(9) 0.941(11) 0.456(6)
H23 H 0.418(9) 0.830(11) 0.400(5)
H24 H 0.686(9) 0.839(10) 0.465(6)
H25 H 0.715(15) 0.859(18) 0.362(10)
H26 H 0.636(16) 0.976(19) 0.413(11)
H27 H 0.159(7) -0.114(8) 0.272(5)
H28 H 0.154(14) -0.210(17) 0.257(10)
H29 H 0.199(10) -0.319(12) 0.367(7)
H30 H 0.182(8) 0.057(9) 0.173(5)
H31 H 0.188(8) 0.103(9) 0.146(5)
H32 H 0.150(9) -0.112(11) 0.149(6)
H33 H 1.078(9) -0.037(10) 0.632(6)
H34 H 1.149(8) 0.021(10) 0.579(5)
H35 H 1.188(12) -0.009(13) 0.641(8)
H36 H 1.150(10) 0.126(11) 0.711(6)
H37 H 1.033(12) 0.198(13) 0.687(8)
H38 H 1.031(9) 0.094(10) 0.707(6)
O7 O 0.1819(6) 0.1943(8) 0.4117(4)
O8 O 0.0524(6) 0.1225(7) 0.3070(4)
C22 C 0.1111(8) 0.2524(12) 0.3855(5)
C23 C 0.0345(9) 0.2077(9) 0.3296(6)
C24 C -0.0612(9) 0.2588(12) 0.3051(5)
C25 C -0.0989(9) 0.3570(11) 0.3159(6)
C26 C -0.0596(10) 0.4412(11) 0.3558(6)
C27 C 0.0376(8) 0.4380(10) 0.3979(5)
C28 C 0.1066(8) 0.3593(11) 0.4106(6)
C38 C -0.1174(11) 0.5455(13) 0.3599(7)
C39 C -0.1513(11) 0.5470(13) 0.4195(7)
C40 C -0.1959(12) 0.5758(14) 0.3015(7)
H13 H 0.174(8) 0.383(9) 0.443(5)
H14 H 0.054(9) 0.513(10) 0.422(6)
H15 H -0.160(7) 0.343(8) 0.295(4)
H16 H -0.101(6) 0.216(7) 0.276(4)
H20 H -0.092(9) 0.627(10) 0.352(6)
H39 H -0.181(6) 0.613(7) 0.429(4)
H40 H -0.195(11) 0.472(13) 0.413(7)
H41 H -0.103(10) 0.531(11) 0.449(6)
H42 H -0.224(8) 0.666(10) 0.296(5)
H43 H -0.189(10) 0.584(12) 0.245(7)
H44 H -0.235(10) 0.498(12) 0.313(7)
loop_
_geom_bond_atom_site_label_1
_geom_bond_atom_site_label_2
_geom_bond_site_symmetry_1
_geom_bond_site_symmetry_2
Si1 O1 1_555 1_555
O1 C1 1_555 1_555
O2 Si1 1_555 1_555
O3 Si1 1_555 1_555
O4 Si1 1_555 1_555
O5 Si1 1_555 1_555
O6 Si1 1_555 1_555
O7 C22 1_555 1_555
O8 C23 1_555 1_555
C1 C2 1_555 1_555
C2 O2 1_555 1_555
C3 C2 1_555 1_555
C4 C3 1_555 1_555
C5 C4 1_555 1_555
C6 C5 1_555 1_555
C7 C1 1_555 1_555
C8 O3 1_555 1_555
C9 O4 1_555 1_555
C10 C9 1_555 1_555
C11 C10 1_555 1_555
C12 C11 1_555 1_555
C13 C12 1_555 1_555
C14 C8 1_555 1_555
C15 O5 1_555 1_555
C16 O6 1_555 1_555
C17 C16 1_555 1_555
C18 C17 1_555 1_555
C19 C18 1_555 1_555
C20 C19 1_555 1_555
C21 C15 1_555 1_555
C22 C23 1_555 1_555
C23 C24 1_555 1_555
C24 C25 1_555 1_555
C25 C26 1_555 1_555
C26 C27 1_555 1_555
C27 C28 1_555 1_555
C28 C22 1_555 1_555
C29 C5 1_555 1_555
C30 C29 1_555 1_555
C31 C29 1_555 1_555
C32 C12 1_555 1_555
C33 C32 1_555 1_555
C34 C32 1_555 1_555
C35 C19 1_555 1_555
C36 C35 1_555 1_555
C37 C35 1_555 1_555
C38 C26 1_555 1_555
C39 C38 1_555 1_555
C40 C38 1_555 1_555
H1 C7 1_555 1_555
H2 C6 1_555 1_555
H3 C4 1_555 1_555
H4 C3 1_555 1_555
H5 C14 1_555 1_555
H6 C13 1_555 1_555
H7 C11 1_555 1_555
H8 C10 1_555 1_555
H9 C21 1_555 1_555
H10 C20 1_555 1_555
H11 C18 1_555 1_555
H12 C17 1_555 1_555
H13 C28 1_555 1_555
H14 C27 1_555 1_555
H15 C25 1_555 1_555
H16 C24 1_555 1_555
H17 C29 1_555 1_555
H18 C32 1_555 1_555
H19 C35 1_555 1_555
H20 C38 1_555 1_555
H21 C31 1_555 1_555
H22 C31 1_555 1_555
H23 C31 1_555 1_555
H24 C30 1_555 1_555
H25 C30 1_555 1_555
H26 C30 1_555 1_555
H27 C34 1_555 1_555
H28 C34 1_555 1_555
H29 C34 1_555 1_555
H30 C33 1_555 1_555
H31 C33 1_555 1_555
H32 C33 1_555 1_555
H33 C36 1_555 1_555
H34 C36 1_555 1_555
H35 C36 1_555 1_555
H36 C37 1_555 1_555
H37 C37 1_555 1_555
H38 C37 1_555 1_555
H39 C39 1_555 1_555
H40 C39 1_555 1_555
H41 C39 1_555 1_555
H42 C40 1_555 1_555
H43 C40 1_555 1_555
H44 C40 1_555 1_555
C6 C7 1_555 1_555
C8 C9 1_555 1_555
C13 C14 1_555 1_555
C15 C16 1_555 1_555
C20 C21 1_555 1_555

#END
