
#######################################################################
#
#                 Cambridge Crystallographic Data Centre
#                                CCDC 
#
#######################################################################
#
# If this CIF has been generated from an entry in the Cambridge 
# Structural Database, then it will include bibliographic, chemical, 
# crystal, experimental, refinement or atomic coordinate data resulting 
# from the CCDC's data processing and validation procedures.
#
#######################################################################

data_PUMCOP
_chemical_formula_moiety         'C18 H19 N1 O2 Si1'
_chemical_name_systematic        
2-(1-(Dimethylphenylsilyl)ethyl)-1H-isoindole-1,3-(2H)-dione
_symmetry_cell_setting           monoclinic
_symmetry_space_group_name_H-M   'P 21/c'
_symmetry_Int_Tables_number      14
_space_group_name_Hall           '-P 2ybc'
loop_
_symmetry_equiv_pos_site_id
_symmetry_equiv_pos_as_xyz
1 x,y,z
2 -x,1/2+y,1/2-z
3 -x,-y,-z
4 x,1/2-y,1/2+z
_cell_length_a                   9.377(2)
_cell_length_b                   6.619(2)
_cell_length_c                   26.904(6)
_cell_angle_alpha                90
_cell_angle_beta                 99.32(2)
_cell_angle_gamma                90
_cell_volume                     1647.79
_exptl_crystal_colour            colorless
_exptl_crystal_description       prismatic
_chemical_melting_point          '90-92 deg.C'
_cell_formula_units_Z            4
_exptl_crystal_recrystallization_method dichloromethane/hexane
loop_
_atom_site_label
_atom_site_type_symbol
_atom_site_fract_x
_atom_site_fract_y
_atom_site_fract_z
Si1 Si 0.3803(1) 0.0231(2) 0.38677(4)
O1 O 0.1074(3) 0.0244(4) 0.4384(1)
O2 O 0.0631(2) 0.5232(4) 0.32051(9)
N1 N 0.1169(3) 0.2536(4) 0.3746(1)
C1 C -0.1422(4) 0.6446(6) 0.3971(1)
C2 C -0.2213(4) 0.6461(6) 0.4366(2)
C3 C -0.2126(4) 0.4891(7) 0.4710(1)
C4 C -0.1220(4) 0.3242(6) 0.4683(1)
C5 C -0.0429(3) 0.3258(5) 0.4293(1)
C6 C -0.0526(3) 0.4808(6) 0.3946(1)
C7 C 0.0450(4) 0.4333(5) 0.3579(1)
C8 C 0.0656(4) 0.1789(6) 0.4170(1)
C9 C 0.2209(3) 0.1559(5) 0.3467(1)
C10 C 0.4488(4) 0.1789(6) 0.4429(1)
C11 C 0.3453(4) -0.2430(6) 0.4046(1)
C12 C 0.5199(3) 0.0182(6) 0.3439(1)
C13 C 0.5329(4) -0.1470(6) 0.3130(2)
C14 C 0.6311(5) -0.1485(8) 0.2796(2)
C15 C 0.7191(4) 0.011(1) 0.2765(2)
C16 C 0.7106(5) 0.1764(8) 0.3067(2)
C17 C 0.6106(4) 0.1808(6) 0.3402(1)
C18 C 0.1410(4) 0.0244(6) 0.3052(1)
H1 H -0.1372 0.7947 0.3750
H2 H -0.2896 0.7693 0.4426
H3 H -0.2766 0.4938 0.4968
H4 H -0.1253 0.2083 0.4915
H5 H 0.2997 0.3003 0.3439
H6 H 0.0680 -0.0583 0.3182
H7 H 0.2057 -0.0718 0.2932
H8 H 0.0940 0.0988 0.2778
H9 H 0.4299 0.3217 0.4358
H10 H 0.3989 0.1461 0.4707
H11 H 0.5486 0.1624 0.4535
H12 H 0.2492 -0.2656 0.4049
H13 H 0.4043 -0.2753 0.4353
H14 H 0.3771 -0.3324 0.3786
H15 H 0.4564 -0.2667 0.3109
H16 H 0.6438 -0.2641 0.2598
H17 H 0.8009 0.0389 0.2567
H18 H 0.7727 0.3007 0.3068
H19 H 0.6066 0.3468 0.3584
loop_
_geom_bond_atom_site_label_1
_geom_bond_atom_site_label_2
_geom_bond_site_symmetry_1
_geom_bond_site_symmetry_2
Si1 C9 1_555 1_555
O1 C8 1_555 1_555
O2 C7 1_555 1_555
N1 C7 1_555 1_555
C1 C2 1_555 1_555
C2 C3 1_555 1_555
C3 C4 1_555 1_555
C4 C5 1_555 1_555
C5 C6 1_555 1_555
C6 C1 1_555 1_555
C7 C6 1_555 1_555
C8 N1 1_555 1_555
C9 N1 1_555 1_555
C10 Si1 1_555 1_555
C11 Si1 1_555 1_555
C12 Si1 1_555 1_555
C13 C12 1_555 1_555
C14 C13 1_555 1_555
C15 C14 1_555 1_555
C16 C15 1_555 1_555
C17 C12 1_555 1_555
C18 C9 1_555 1_555
H1 C1 1_555 1_555
H2 C2 1_555 1_555
H3 C3 1_555 1_555
H4 C4 1_555 1_555
H5 C9 1_555 1_555
H6 C18 1_555 1_555
H7 C18 1_555 1_555
H8 C18 1_555 1_555
H9 C10 1_555 1_555
H10 C10 1_555 1_555
H11 C10 1_555 1_555
H12 C11 1_555 1_555
H13 C11 1_555 1_555
H14 C11 1_555 1_555
H15 C13 1_555 1_555
H16 C14 1_555 1_555
H17 C15 1_555 1_555
H18 C16 1_555 1_555
H19 C17 1_555 1_555
C5 C8 1_555 1_555
C16 C17 1_555 1_555

#END
