
#######################################################################
#
#                 Cambridge Crystallographic Data Centre
#                                CCDC 
#
#######################################################################
#
# If this CIF has been generated from an entry in the Cambridge 
# Structural Database, then it will include bibliographic, chemical, 
# crystal, experimental, refinement or atomic coordinate data resulting 
# from the CCDC's data processing and validation procedures.
#
#######################################################################

data_PUMFIO
_chemical_name_common            'n-Butyl (S)-naproxenate'
_chemical_formula_moiety         'C18 H22 O3'
_chemical_name_systematic        
'n-Butyl (S)-2-(6-methoxy-2-naphthyl)propanoate'
_symmetry_cell_setting           monoclinic
_symmetry_space_group_name_H-M   'P 21'
_symmetry_Int_Tables_number      4
_space_group_name_Hall           'P 2yb'
loop_
_symmetry_equiv_pos_site_id
_symmetry_equiv_pos_as_xyz
1 x,y,z
2 -x,1/2+y,-z
_cell_length_a                   8.067(2)
_cell_length_b                   5.7361(15)
_cell_length_c                   17.495(5)
_cell_angle_alpha                90
_cell_angle_beta                 100.528(4)
_cell_angle_gamma                90
_cell_volume                     795.92
_exptl_crystal_colour            'pale yellow'
_exptl_crystal_description       needle
_cell_formula_units_Z            2
loop_
_atom_site_label
_atom_site_type_symbol
_atom_site_fract_x
_atom_site_fract_y
_atom_site_fract_z
O1 O 0.7844(3) 1.2104(4) 1.07289(12)
O2 O 0.2736(2) 0.8152(4) 0.61346(11)
O3 O 0.2768(3) 1.1417(4) 0.54411(12)
C1 C 0.8040(4) 0.8905(6) 0.89876(18)
H1 H 0.8569 0.7560 0.8857
C2 C 0.8284(4) 0.9613(6) 0.97360(19)
H2 H 0.8965 0.8737 1.0117
C3 C 0.7518(4) 1.1663(6) 0.99456(19)
C4 C 0.6540(3) 1.2975(6) 0.93987(17)
H3 H 0.6047 1.4335 0.9541
C5 C 0.6266(4) 1.2275(5) 0.86087(17)
C6 C 0.5241(3) 1.3559(6) 0.80101(17)
H4 H 0.4748 1.4942 0.8133
C7 C 0.4962(3) 1.2817(5) 0.72591(17)
H5 H 0.4291 1.3710 0.6880
C8 C 0.5662(3) 1.0740(5) 0.70454(17)
C9 C 0.6651(3) 0.9465(5) 0.76095(17)
H6 H 0.7120 0.8079 0.7474
C10 C 0.6984(3) 1.0195(5) 0.83971(17)
C11 C 0.7067(4) 1.4105(7) 1.09870(17)
H7 H 0.7384 1.4236 1.1542
H8 H 0.5865 1.3960 1.0847
H9 H 0.7429 1.5471 1.0746
C12 C 0.5360(3) 0.9948(5) 0.61994(16)
H10 H 0.5765 0.8342 0.6182
C13 C 0.6334(4) 1.1488(7) 0.57163(16)
H11 H 0.6138 1.0948 0.5188
H12 H 0.7518 1.1407 0.5928
H13 H 0.5957 1.3072 0.5731
C14 C 0.3505(4) 0.9984(6) 0.58726(18)
C15 C 0.0925(4) 0.8040(7) 0.58925(17)
H14 H 0.0632 0.7840 0.5334
H15 H 0.0407 0.9465 0.6033
C16 C 0.0329(4) 0.5993(7) 0.63015(18)
H16 H -0.0880 0.5843 0.6131
H17 H 0.0846 0.4595 0.6139
C17 C 0.0687(4) 0.6090(7) 0.71640(18)
H18 H 0.0149 0.7465 0.7329
H19 H 0.1893 0.6263 0.7337
C18 C 0.0104(4) 0.3998(7) 0.75571(19)
H20 H 0.0359 0.4210 0.8110
H21 H 0.0672 0.2632 0.7419
H22 H -0.1090 0.3811 0.7393
loop_
_geom_bond_atom_site_label_1
_geom_bond_atom_site_label_2
_geom_bond_site_symmetry_1
_geom_bond_site_symmetry_2
O1 C3 1_555 1_555
O2 C14 1_555 1_555
O3 C14 1_555 1_555
C1 H1 1_555 1_555
C2 C1 1_555 1_555
H2 C2 1_555 1_555
C3 C2 1_555 1_555
C4 C3 1_555 1_555
H3 C4 1_555 1_555
C5 C4 1_555 1_555
C6 C5 1_555 1_555
H4 C6 1_555 1_555
C7 C6 1_555 1_555
H5 C7 1_555 1_555
C8 C7 1_555 1_555
C9 C8 1_555 1_555
H6 C9 1_555 1_555
C10 C1 1_555 1_555
C11 O1 1_555 1_555
H7 C11 1_555 1_555
H8 C11 1_555 1_555
H9 C11 1_555 1_555
C12 C8 1_555 1_555
H10 C12 1_555 1_555
C13 C12 1_555 1_555
H11 C13 1_555 1_555
H12 C13 1_555 1_555
H13 C13 1_555 1_555
C14 C12 1_555 1_555
C15 O2 1_555 1_555
H14 C15 1_555 1_555
H15 C15 1_555 1_555
C16 C15 1_555 1_555
H16 C16 1_555 1_555
H17 C16 1_555 1_555
C17 C16 1_555 1_555
H18 C17 1_555 1_555
H19 C17 1_555 1_555
C18 C17 1_555 1_555
H20 C18 1_555 1_555
H21 C18 1_555 1_555
H22 C18 1_555 1_555
C5 C10 1_555 1_555
C9 C10 1_555 1_555

#END
