
#######################################################################
#
#                 Cambridge Crystallographic Data Centre
#                                CCDC 
#
#######################################################################
#
# If this CIF has been generated from an entry in the Cambridge 
# Structural Database, then it will include bibliographic, chemical, 
# crystal, experimental, refinement or atomic coordinate data resulting 
# from the CCDC's data processing and validation procedures.
#
#######################################################################

data_PUMFAG
_chemical_name_common            'Ethyl (S)-naproxenate'
_chemical_formula_moiety         'C16 H18 O3'
_chemical_name_systematic        'Ethyl (S)-2-(6-methoxy-2-naphthyl)propanoate'
_symmetry_cell_setting           monoclinic
_symmetry_space_group_name_H-M   'P 21'
_symmetry_Int_Tables_number      4
_space_group_name_Hall           'P 2yb'
loop_
_symmetry_equiv_pos_site_id
_symmetry_equiv_pos_as_xyz
1 x,y,z
2 -x,1/2+y,-z
_cell_length_a                   8.1459(9)
_cell_length_b                   5.8321(6)
_cell_length_c                   15.3640(12)
_cell_angle_alpha                90
_cell_angle_beta                 102.919(5)
_cell_angle_gamma                90
_cell_volume                     711.432
_exptl_crystal_colour            colorless
_exptl_crystal_description       plate
_cell_formula_units_Z            2
loop_
_atom_site_label
_atom_site_type_symbol
_atom_site_fract_x
_atom_site_fract_y
_atom_site_fract_z
O1 O -0.2616(3) -0.4992(5) -0.67759(16)
O2 O -0.2433(5) -0.6619(8) -0.0770(3)
O3 O -0.4878(5) -0.5198(9) -0.1371(3)
C1 C -0.1906(4) -0.5875(6) -0.5183(2)
H1 H -0.1337 -0.7211 -0.5266
C2 C -0.2600(4) -0.4547(6) -0.5896(2)
C3 C -0.3438(4) -0.2462(7) -0.5770(3)
H2 H -0.3901 -0.1544 -0.6258
C4 C -0.3557(4) -0.1826(6) -0.4940(2)
H3 H -0.4091 -0.0455 -0.4864
C5 C -0.2892(4) -0.3187(6) -0.4190(2)
C6 C -0.3070(4) -0.2602(7) -0.3326(2)
H4 H -0.3631 -0.1258 -0.3245
C7 C -0.2434(4) -0.3970(6) -0.2602(2)
C8 C -0.1594(5) -0.5981(7) -0.2746(2)
H5 H -0.1157 -0.6924 -0.2261
C9 C -0.1396(4) -0.6597(6) -0.3562(2)
H6 H -0.0820 -0.7942 -0.3625
C10 C -0.2045(4) -0.5240(6) -0.4321(2)
C11 C -0.1864(5) -0.7079(8) -0.6972(3)
H7 H -0.1952 -0.7191 -0.7604
H8 H -0.2434 -0.8353 -0.6776
H9 H -0.0698 -0.7100 -0.6668
C12 C -0.2577(5) -0.3238(8) -0.1672(2)
H10 H -0.3378 -0.1963 -0.1732
C13 C -0.3253(7) -0.5192(11) -0.1221(3)
C14 C -0.0886(6) -0.2430(11) -0.1103(3)
H11 H -0.0485 -0.1149 -0.1388
H12 H -0.0084 -0.3658 -0.1040
H13 H -0.1030 -0.1977 -0.0524
C15 C -0.5618(10) -0.721(2) -0.1003(6)
H14 H -0.5266 -0.8593 -0.1259
H15 H -0.5167 -0.7268 -0.0363
C16 C -0.7156(10) -0.7190(19) -0.1143(5)
H16 H -0.7539 -0.8559 -0.0902
H17 H -0.7619 -0.7126 -0.1774
H18 H -0.7518 -0.5873 -0.0861
loop_
_geom_bond_atom_site_label_1
_geom_bond_atom_site_label_2
_geom_bond_site_symmetry_1
_geom_bond_site_symmetry_2
O1 C2 1_555 1_555
O2 C13 1_555 1_555
O3 C13 1_555 1_555
C1 H1 1_555 1_555
C2 C1 1_555 1_555
C3 C2 1_555 1_555
H2 C3 1_555 1_555
C4 C3 1_555 1_555
H3 C4 1_555 1_555
C5 C4 1_555 1_555
C6 C5 1_555 1_555
H4 C6 1_555 1_555
C7 C6 1_555 1_555
C8 C7 1_555 1_555
H5 C8 1_555 1_555
C9 C8 1_555 1_555
H6 C9 1_555 1_555
C10 C1 1_555 1_555
C11 O1 1_555 1_555
H7 C11 1_555 1_555
H8 C11 1_555 1_555
H9 C11 1_555 1_555
C12 C7 1_555 1_555
H10 C12 1_555 1_555
C13 C12 1_555 1_555
C14 C12 1_555 1_555
H11 C14 1_555 1_555
H12 C14 1_555 1_555
H13 C14 1_555 1_555
C15 O3 1_555 1_555
H14 C15 1_555 1_555
H15 C15 1_555 1_555
C16 C15 1_555 1_555
H16 C16 1_555 1_555
H17 C16 1_555 1_555
H18 C16 1_555 1_555
C5 C10 1_555 1_555
C9 C10 1_555 1_555

#END
