
#######################################################################
#
#                 Cambridge Crystallographic Data Centre
#                                CCDC 
#
#######################################################################
#
# If this CIF has been generated from an entry in the Cambridge 
# Structural Database, then it will include bibliographic, chemical, 
# crystal, experimental, refinement or atomic coordinate data resulting 
# from the CCDC's data processing and validation procedures.
#
#######################################################################

data_PUMFEK
_chemical_name_common            'n-Propyl (S)-naproxenate'
_chemical_formula_moiety         'C17 H20 O3'
_chemical_name_systematic        
'n-Propyl (S)-2-(6-methoxy-2-naphthyl)propanoate'
_symmetry_cell_setting           orthorhombic
_symmetry_space_group_name_H-M   'P 21 21 21'
_symmetry_Int_Tables_number      19
_space_group_name_Hall           'P 2ac 2ab'
loop_
_symmetry_equiv_pos_site_id
_symmetry_equiv_pos_as_xyz
1 x,y,z
2 1/2-x,-y,1/2+z
3 -x,1/2+y,1/2-z
4 1/2+x,1/2-y,-z
_cell_length_a                   5.6809(12)
_cell_length_b                   8.0485(17)
_cell_length_c                   33.742(7)
_cell_angle_alpha                90
_cell_angle_beta                 90
_cell_angle_gamma                90
_cell_volume                     1542.78
_exptl_crystal_colour            colorless
_exptl_crystal_description       needle
_cell_formula_units_Z            4
loop_
_atom_site_label
_atom_site_type_symbol
_atom_site_fract_x
_atom_site_fract_y
_atom_site_fract_z
O1 O -0.1901(3) -0.8062(2) -0.29986(5)
O2 O -0.1643(4) -1.0093(4) -0.02510(7)
O3 O -0.5169(4) -1.0047(2) -0.05456(5)
C1 C -0.0771(4) -0.8702(3) -0.23217(7)
H1 H 0.0552 -0.9293 -0.2402
C2 C -0.2206(4) -0.8007(3) -0.25986(7)
C3 C -0.4252(4) -0.7121(3) -0.24773(8)
H2 H -0.5233 -0.6644 -0.2666
C4 C -0.4772(4) -0.6972(3) -0.20890(7)
H3 H -0.6128 -0.6402 -0.2015
C5 C -0.3315(4) -0.7657(3) -0.17899(6)
C6 C -0.3772(4) -0.7464(3) -0.13815(7)
H4 H -0.5143 -0.6927 -0.1302
C7 C -0.2246(4) -0.8047(3) -0.10978(7)
C8 C -0.0224(4) -0.8915(3) -0.12256(7)
H5 H 0.0822 -0.9323 -0.1037
C9 C 0.0235(4) -0.9170(3) -0.16137(7)
H6 H 0.1562 -0.9774 -0.1686
C10 C -0.1273(4) -0.8534(3) -0.19119(7)
C11 C 0.0172(6) -0.8813(5) -0.31441(9)
H7 H 0.0172 -0.8773 -0.3428
H8 H 0.0233 -0.9950 -0.3058
H9 H 0.1520 -0.8228 -0.3045
C12 C -0.2716(5) -0.7770(3) -0.06607(7)
H10 H -0.4180 -0.7136 -0.0635
C13 C -0.0739(7) -0.6784(5) -0.04565(10)
H11 H -0.1119 -0.6635 -0.0182
H12 H -0.0581 -0.5718 -0.0581
H13 H 0.0716 -0.7383 -0.0479
C14 C -0.3053(5) -0.9416(4) -0.04584(7)
C15 C -0.5761(7) -1.1681(4) -0.04003(10)
H14 H -0.4679 -1.1983 -0.0190
H15 H -0.7336 -1.1660 -0.0290
C16 C -0.566(2) -1.2861(5) -0.06946(18)
H16 H -0.4477 -1.3629 -0.0598
H17 H -0.7145 -1.3443 -0.0666
C17 C -0.5325(16) -1.2871(6) -0.10659(14)
H18 H -0.5221 -1.3998 -0.1157
H19 H -0.3887 -1.2298 -0.1126
H20 H -0.6615 -1.2325 -0.1196
loop_
_geom_bond_atom_site_label_1
_geom_bond_atom_site_label_2
_geom_bond_site_symmetry_1
_geom_bond_site_symmetry_2
O1 C2 1_555 1_555
O2 C14 1_555 1_555
O3 C14 1_555 1_555
C1 H1 1_555 1_555
C2 C1 1_555 1_555
C3 C2 1_555 1_555
H2 C3 1_555 1_555
C4 C3 1_555 1_555
H3 C4 1_555 1_555
C5 C4 1_555 1_555
C6 C5 1_555 1_555
H4 C6 1_555 1_555
C7 C6 1_555 1_555
C8 C7 1_555 1_555
H5 C8 1_555 1_555
C9 C8 1_555 1_555
H6 C9 1_555 1_555
C10 C1 1_555 1_555
C11 O1 1_555 1_555
H7 C11 1_555 1_555
H8 C11 1_555 1_555
H9 C11 1_555 1_555
C12 C7 1_555 1_555
H10 C12 1_555 1_555
C13 C12 1_555 1_555
H11 C13 1_555 1_555
H12 C13 1_555 1_555
H13 C13 1_555 1_555
C14 C12 1_555 1_555
C15 O3 1_555 1_555
H14 C15 1_555 1_555
H15 C15 1_555 1_555
C16 C15 1_555 1_555
H16 C16 1_555 1_555
H17 C16 1_555 1_555
C17 C16 1_555 1_555
H18 C17 1_555 1_555
H19 C17 1_555 1_555
H20 C17 1_555 1_555
C5 C10 1_555 1_555
C9 C10 1_555 1_555

#END
