
#######################################################################
#
#                 Cambridge Crystallographic Data Centre
#                                CCDC 
#
#######################################################################
#
# If this CIF has been generated from an entry in the Cambridge 
# Structural Database, then it will include bibliographic, chemical, 
# crystal, experimental, refinement or atomic coordinate data resulting 
# from the CCDC's data processing and validation procedures.
#
#######################################################################

data_PUMJAJ
_chemical_formula_moiety         'C27 H23 Br1'
_chemical_name_systematic        
1-(3-Bromophenyl)-6-(diphenylmethylene)bicyclo[5.1.0]oct-3-ene
_symmetry_cell_setting           triclinic
_symmetry_space_group_name_H-M   'P -1'
_symmetry_Int_Tables_number      2
_space_group_name_Hall           '-P 1'
loop_
_symmetry_equiv_pos_site_id
_symmetry_equiv_pos_as_xyz
1 x,y,z
2 -x,-y,-z
_cell_length_a                   10.2131(10)
_cell_length_b                   10.8469(10)
_cell_length_c                   19.9718(18)
_cell_angle_alpha                103.489(2)
_cell_angle_beta                 103.288(2)
_cell_angle_gamma                93.301(2)
_cell_volume                     2079.35
_exptl_crystal_colour            colorless
_exptl_crystal_description       prismatic
_cell_formula_units_Z            4
loop_
_atom_site_label
_atom_site_type_symbol
_atom_site_fract_x
_atom_site_fract_y
_atom_site_fract_z
Br1 Br 0.67296(4) -0.06984(4) 0.040694(19)
C1 C 0.8376(3) 0.3891(3) 0.13944(16)
C2 C 0.7783(3) 0.4010(3) 0.19275(16)
C3 C 0.6359(3) 0.4380(3) 0.19013(15)
H1 H 0.6257 0.5066 0.1664
H2 H 0.5731 0.3655 0.1596
C4 C 0.5894(3) 0.4793(3) 0.25675(17)
H3 H 0.5349 0.5449 0.2551
C5 C 0.6070(3) 0.4450(3) 0.31872(17)
H4 H 0.5550 0.4825 0.3487
C6 C 0.6989(3) 0.3547(3) 0.34595(15)
H5 H 0.7719 0.4021 0.3856
H6 H 0.6485 0.2949 0.3627
C7 C 0.7565(3) 0.2834(3) 0.28774(14)
C8 C 0.8367(3) 0.3809(3) 0.26397(15)
H7 H 0.8569 0.4626 0.3000
C9 C 0.9069(3) 0.2810(3) 0.29279(16)
H8 H 0.9685 0.3074 0.3398
H9 H 0.9339 0.2129 0.2596
C10 C 0.6652(3) 0.1772(3) 0.23193(15)
C11 C 0.7022(3) 0.1134(3) 0.17085(15)
H10 H 0.7850 0.1385 0.1632
C12 C 0.6168(3) 0.0143(3) 0.12233(15)
C13 C 0.4940(3) -0.0269(3) 0.13030(18)
H11 H 0.4377 -0.0945 0.0965
C14 C 0.4564(3) 0.0350(3) 0.18993(18)
H12 H 0.3731 0.0091 0.1968
C15 C 0.5403(3) 0.1349(3) 0.23971(16)
H13 H 0.5124 0.1750 0.2797
C16 C 0.9757(3) 0.3507(3) 0.14625(16)
C17 C 1.0848(3) 0.4204(4) 0.19759(19)
H14 H 1.0714 0.4935 0.2292
C18 C 1.2128(4) 0.3856(5) 0.2036(3)
H15 H 1.2851 0.4357 0.2383
C19 C 1.2342(5) 0.2783(6) 0.1589(3)
H16 H 1.3210 0.2540 0.1636
C20 C 1.1277(5) 0.2050(4) 0.1065(3)
H17 H 1.1426 0.1315 0.0757
C21 C 0.9971(4) 0.2417(3) 0.09982(18)
H18 H 0.9249 0.1930 0.0643
C22 C 0.7729(3) 0.4182(3) 0.07093(15)
C23 C 0.6505(3) 0.3576(3) 0.02739(16)
H19 H 0.6054 0.2929 0.0400
C24 C 0.5935(3) 0.3906(4) -0.03435(17)
H20 H 0.5100 0.3493 -0.0627
C25 C 0.6593(4) 0.4836(4) -0.05398(18)
H21 H 0.6202 0.5063 -0.0956
C26 C 0.7829(4) 0.5442(3) -0.01257(19)
H22 H 0.8286 0.6070 -0.0262
C27 C 0.8390(3) 0.5104(3) 0.05009(17)
H23 H 0.9228 0.5512 0.0783
Br2 Br 0.24430(5) 0.62168(5) 0.39773(3)
C28 C 0.0838(3) 0.9810(3) 0.30871(15)
C29 C -0.0371(4) 0.9699(3) 0.32315(15)
C30 C -0.0653(3) 1.0390(3) 0.39341(15)
H24 H -0.0182 1.0002 0.4298
H25 H -0.0234 1.1264 0.4052
C31 C -0.2079(4) 1.0439(3) 0.40010(18)
H26 H -0.2181 1.1204 0.4300
C32 C -0.3241(4) 0.9668(4) 0.37421(19)
H27 H -0.3965 0.9970 0.3914
C33 C -0.3560(3) 0.8381(3) 0.32121(18)
H28 H -0.3993 0.7771 0.3403
H29 H -0.4176 0.8443 0.2775
C34 C -0.2260(3) 0.7942(3) 0.30627(16)
C35 C -0.1616(3) 0.8929(3) 0.27706(15)
H30 H -0.2282 0.9482 0.2611
C36 C -0.2008(3) 0.7599(3) 0.23273(16)
H31 H -0.1287 0.7077 0.2257
H32 H -0.2787 0.7441 0.1922
C37 C -0.1367(4) 0.7425(3) 0.36086(16)
C38 C -0.1792(4) 0.7227(3) 0.41938(18)
H33 H -0.2640 0.7433 0.4247
C39 C -0.0982(6) 0.6733(4) 0.4695(2)
H34 H -0.1295 0.6608 0.5079
C40 C 0.0262(6) 0.6424(4) 0.4639(2)
H35 H 0.0803 0.6088 0.4979
C41 C 0.0703(4) 0.6618(3) 0.4070(2)
C42 C -0.0088(4) 0.7109(3) 0.35601(16)
H36 H 0.0238 0.7230 0.3179
C43 C 0.1057(3) 0.9087(3) 0.23972(16)
C44 C 0.0281(4) 0.9180(3) 0.17543(17)
H37 H -0.0398 0.9716 0.1744
C45 C 0.0498(4) 0.8485(3) 0.11216(17)
H38 H -0.0031 0.8564 0.0691
C46 C 0.1477(4) 0.7687(3) 0.11242(19)
H39 H 0.1610 0.7216 0.0697
C47 C 0.2269(4) 0.7579(3) 0.1759(2)
H40 H 0.2941 0.7035 0.1765
C48 C 0.2058(3) 0.8292(3) 0.23937(17)
H41 H 0.2605 0.8230 0.2824
C49 C 0.2017(3) 1.0667(3) 0.35842(16)
C50 C 0.2728(4) 1.0415(4) 0.42076(19)
H42 H 0.2462 0.9684 0.4333
C51 C 0.3832(4) 1.1250(5) 0.4644(2)
H43 H 0.4309 1.1071 0.5060
C52 C 0.4230(4) 1.2328(5) 0.4473(2)
H44 H 0.4970 1.2886 0.4771
C53 C 0.3540(4) 1.2584(4) 0.3864(2)
H45 H 0.3803 1.3327 0.3748
C54 C 0.2457(3) 1.1756(3) 0.34169(18)
H46 H 0.2012 1.1933 0.2994
loop_
_geom_bond_atom_site_label_1
_geom_bond_atom_site_label_2
_geom_bond_site_symmetry_1
_geom_bond_site_symmetry_2
Br1 C12 1_555 1_555
Br2 C41 1_555 1_555
C1 C2 1_555 1_555
C2 C3 1_555 1_555
C3 H1 1_555 1_555
H2 C3 1_555 1_555
C4 C3 1_555 1_555
H3 C4 1_555 1_555
C5 C4 1_555 1_555
H4 C5 1_555 1_555
C6 C5 1_555 1_555
H5 C6 1_555 1_555
H6 C6 1_555 1_555
C7 C6 1_555 1_555
C8 C2 1_555 1_555
H7 C8 1_555 1_555
C9 C7 1_555 1_555
H8 C9 1_555 1_555
H9 C9 1_555 1_555
C10 C7 1_555 1_555
C11 C10 1_555 1_555
H10 C11 1_555 1_555
C12 C11 1_555 1_555
C13 C12 1_555 1_555
H11 C13 1_555 1_555
C14 C13 1_555 1_555
H12 C14 1_555 1_555
C15 C10 1_555 1_555
H13 C15 1_555 1_555
C16 C1 1_555 1_555
C17 C16 1_555 1_555
H14 C17 1_555 1_555
C18 C17 1_555 1_555
H15 C18 1_555 1_555
C19 C18 1_555 1_555
H16 C19 1_555 1_555
C20 C19 1_555 1_555
H17 C20 1_555 1_555
C21 C16 1_555 1_555
H18 C21 1_555 1_555
C22 C1 1_555 1_555
C23 C22 1_555 1_555
H19 C23 1_555 1_555
C24 C23 1_555 1_555
H20 C24 1_555 1_555
C25 C24 1_555 1_555
H21 C25 1_555 1_555
C26 C25 1_555 1_555
H22 C26 1_555 1_555
C27 C22 1_555 1_555
H23 C27 1_555 1_555
C28 C29 1_555 1_555
C29 C30 1_555 1_555
C30 H24 1_555 1_555
H25 C30 1_555 1_555
C31 C30 1_555 1_555
H26 C31 1_555 1_555
C32 C31 1_555 1_555
H27 C32 1_555 1_555
C33 C32 1_555 1_555
H28 C33 1_555 1_555
H29 C33 1_555 1_555
C34 C33 1_555 1_555
C35 C29 1_555 1_555
H30 C35 1_555 1_555
C36 C34 1_555 1_555
H31 C36 1_555 1_555
H32 C36 1_555 1_555
C37 C34 1_555 1_555
C38 C37 1_555 1_555
H33 C38 1_555 1_555
C39 C38 1_555 1_555
H34 C39 1_555 1_555
C40 C39 1_555 1_555
H35 C40 1_555 1_555
C41 C40 1_555 1_555
C42 C37 1_555 1_555
H36 C42 1_555 1_555
C43 C28 1_555 1_555
C44 C43 1_555 1_555
H37 C44 1_555 1_555
C45 C44 1_555 1_555
H38 C45 1_555 1_555
C46 C45 1_555 1_555
H39 C46 1_555 1_555
C47 C46 1_555 1_555
H40 C47 1_555 1_555
C48 C43 1_555 1_555
H41 C48 1_555 1_555
C49 C28 1_555 1_555
C50 C49 1_555 1_555
H42 C50 1_555 1_555
C51 C50 1_555 1_555
H43 C51 1_555 1_555
C52 C51 1_555 1_555
H44 C52 1_555 1_555
C53 C52 1_555 1_555
H45 C53 1_555 1_555
C54 C49 1_555 1_555
H46 C54 1_555 1_555
C7 C8 1_555 1_555
C8 C9 1_555 1_555
C14 C15 1_555 1_555
C20 C21 1_555 1_555
C26 C27 1_555 1_555
C34 C35 1_555 1_555
C35 C36 1_555 1_555
C41 C42 1_555 1_555
C47 C48 1_555 1_555
C53 C54 1_555 1_555

#END
