
#######################################################################
#
#                 Cambridge Crystallographic Data Centre
#                                CCDC 
#
#######################################################################
#
# If this CIF has been generated from an entry in the Cambridge 
# Structural Database, then it will include bibliographic, chemical, 
# crystal, experimental, refinement or atomic coordinate data resulting 
# from the CCDC's data processing and validation procedures.
#
#######################################################################

data_PUMNAN
_chemical_formula_moiety         'C10 H16 N4 2+,C4 H4 O4,C4 H2 O4 2-'
_chemical_name_systematic        
"1,1'-Butane-1,4-diylbis(1H-imidazol-3-ium) fumarate fumaric acid"
_symmetry_cell_setting           triclinic
_symmetry_space_group_name_H-M   'P -1'
_symmetry_Int_Tables_number      2
_space_group_name_Hall           '-P 1'
loop_
_symmetry_equiv_pos_site_id
_symmetry_equiv_pos_as_xyz
1 x,y,z
2 -x,-y,-z
_cell_length_a                   5.9990(12)
_cell_length_b                   8.1772(16)
_cell_length_c                   10.419(2)
_cell_angle_alpha                86.88(3)
_cell_angle_beta                 84.73(3)
_cell_angle_gamma                77.03(3)
_cell_volume                     495.658
_cell_formula_units_Z            1
loop_
_atom_site_label
_atom_site_type_symbol
_atom_site_fract_x
_atom_site_fract_y
_atom_site_fract_z
N1 N 0.32332(18) 0.48367(14) 0.74584(10)
N2 N 0.65845(19) 0.39095(14) 0.65165(10)
H1 H 0.7818 0.3232 0.6224
C1 C 0.4807(2) 0.34647(17) 0.71624(12)
H2 H 0.4680 0.2368 0.7375
C2 C 0.6151(2) 0.56150(18) 0.63873(13)
H3 H 0.7122 0.6251 0.5968
C3 C 0.4050(3) 0.62099(18) 0.69808(13)
H4 H 0.3301 0.7331 0.7053
C4 C 0.1022(2) 0.4861(2) 0.82056(13)
H5 H 0.0528 0.3840 0.8060
H6 H -0.0121 0.5803 0.7901
C5 C 0.1160(2) 0.5000(2) 0.96362(13)
H7 H 0.1625 0.6029 0.9792
H8 H 0.2304 0.4063 0.9947
N1A N -0.32332(18) 0.51633(14) 1.25416(10)
N2A N -0.65845(19) 0.60905(14) 1.34835(10)
H1A H -0.7818 0.6768 1.3776
C1A C -0.4807(2) 0.65353(17) 1.28376(12)
H2A H -0.4680 0.7632 1.2625
C2A C -0.6151(2) 0.43850(18) 1.36127(13)
H3A H -0.7122 0.3749 1.4032
C3A C -0.4050(3) 0.37901(18) 1.30192(13)
H4A H -0.3301 0.2669 1.2947
C4A C -0.1022(2) 0.5139(2) 1.17944(13)
H5A H -0.0528 0.6160 1.1940
H6A H 0.0121 0.4197 1.2099
C5A C -0.1160(2) 0.5000(2) 1.03638(13)
H7A H -0.1625 0.3971 1.0208
H8A H -0.2304 0.5937 1.0053
O1 O 0.8062(2) -0.13260(15) 0.82912(11)
O2 O 0.89800(18) 0.10686(13) 0.86974(10)
C6 C 0.7763(2) -0.00691(17) 0.88939(12)
C7 C 0.5875(2) 0.03653(18) 0.99328(12)
H9 H 0.5937 0.1183 1.0507
H11 H 1.017(4) 0.079(3) 0.797(2)
O1A O 0.1938(2) 0.13260(15) 1.17088(11)
O2A O 0.10200(18) -0.10686(13) 1.13026(10)
C6A C 0.2237(2) 0.00691(17) 1.11061(12)
C7A C 0.4125(2) -0.03653(18) 1.00672(12)
H9A H 0.4063 -0.1183 0.9493
H11A H -0.017(4) -0.079(3) 1.203(2)
O3 O 0.21929(16) 0.04297(13) 0.69619(9)
O4 O 0.03786(18) 0.20799(14) 0.54225(10)
C8 C 0.2006(2) 0.09924(16) 0.58152(12)
C9 C 0.3963(2) 0.03724(16) 0.48398(12)
H10 H 0.3708 0.0517 0.3970
O3A O 0.78071(16) -0.04297(13) 0.30381(9)
O4A O 0.96214(18) -0.20799(14) 0.45775(10)
C8A C 0.7994(2) -0.09924(16) 0.41848(12)
C9A C 0.6037(2) -0.03724(16) 0.51602(12)
H10A H 0.6292 -0.0517 0.6030
loop_
_geom_bond_atom_site_label_1
_geom_bond_atom_site_label_2
_geom_bond_site_symmetry_1
_geom_bond_site_symmetry_2
N1 C1 1_555 1_555
N2 H1 1_555 1_555
O1 C6 1_555 1_555
O2 C6 1_555 1_555
O3 C8 1_555 1_555
O4 C8 1_555 1_555
C1 N2 1_555 1_555
H2 C1 1_555 1_555
C2 N2 1_555 1_555
H3 C2 1_555 1_555
C3 N1 1_555 1_555
H4 C3 1_555 1_555
C4 N1 1_555 1_555
H5 C4 1_555 1_555
H6 C4 1_555 1_555
C5 C4 1_555 1_555
H7 C5 1_555 1_555
H8 C5 1_555 1_555
C6 C7 1_555 1_555
C7 H9 1_555 1_555
C8 C9 1_555 1_555
C9 H10 1_555 1_555
H11 O2 1_555 1_555
N1A C1A 1_555 1_555
N2A H1A 1_555 1_555
O1A C6A 1_555 1_555
O2A C6A 1_555 1_555
O3A C8A 1_555 1_555
O4A C8A 1_555 1_555
C1A N2A 1_555 1_555
H2A C1A 1_555 1_555
C2A N2A 1_555 1_555
H3A C2A 1_555 1_555
C3A N1A 1_555 1_555
H4A C3A 1_555 1_555
C4A N1A 1_555 1_555
H5A C4A 1_555 1_555
H6A C4A 1_555 1_555
C5A C5 1_555 1_555
H7A C5A 1_555 1_555
H8A C5A 1_555 1_555
C6A C7A 1_555 1_555
C7A C7 1_555 1_555
H9A C7A 1_555 1_555
C8A C9A 1_555 1_555
C9A C9 1_555 1_555
H10A C9A 1_555 1_555
H11A O2A 1_555 1_555
C2 C3 1_555 1_555
C2A C3A 1_555 1_555
C4A C5A 1_555 1_555

#END
