
#######################################################################
#
#                 Cambridge Crystallographic Data Centre
#                                CCDC 
#
#######################################################################
#
# If this CIF has been generated from an entry in the Cambridge 
# Structural Database, then it will include bibliographic, chemical, 
# crystal, experimental, refinement or atomic coordinate data resulting 
# from the CCDC's data processing and validation procedures.
#
#######################################################################

data_PUMRUK01
_chemical_formula_moiety         'C10 H8 S8 1+,H1 Cl2 1-'
_chemical_name_systematic        
'\e-bis(Ethylenedithio)tetrathiafulvalene hydrogen dichloride'
_symmetry_cell_setting           monoclinic
_symmetry_space_group_name_H-M   'C 2/m'
_symmetry_Int_Tables_number      12
_space_group_name_Hall           '-C 2y'
loop_
_symmetry_equiv_pos_site_id
_symmetry_equiv_pos_as_xyz
1 x,y,z
2 -x,y,-z
3 1/2+x,1/2+y,z
4 1/2-x,1/2+y,-z
5 -x,-y,-z
6 x,-y,z
7 1/2-x,1/2-y,-z
8 1/2+x,1/2-y,z
_cell_length_a                   12.9687(8)
_cell_length_b                   11.6077(8)
_cell_length_c                   5.6949(4)
_cell_angle_alpha                90
_cell_angle_beta                 104.688(1)
_cell_angle_gamma                90
_cell_volume                     829.276
_exptl_crystal_colour            black
_cell_formula_units_Z            2
_chemical_properties_physical    Air-sensitive
loop_
_atom_site_label
_atom_site_type_symbol
_atom_site_fract_x
_atom_site_fract_y
_atom_site_fract_z
Cl1 Cl 0.4806(2) 0.3691(1) 0.5146(7)
H5 H 0.5000 0.5000 0.5000
Cl1A Cl 0.5194(2) 0.3691(1) 0.4854(7)
Cl1D Cl 0.5194(2) 0.6309(1) 0.4854(7)
Cl1E Cl 0.4806(2) 0.6309(1) 0.5146(7)
S1 S 0.0812(1) 0.3743(1) 0.2653(1)
S2 S 0.2203(1) 0.3500(1) 0.7602(1)
C1 C 0.0348(2) 0.5000 0.1149(4)
C2 C 0.1551(1) 0.4414(2) 0.5275(3)
C4 C 0.3348(3) 0.4389(4) 0.8781(9)
H3 H 0.3690(3) 0.4559(4) 0.7511(9)
H4 H 0.3847(3) 0.3976(4) 1.0033(9)
S1E S 0.0812(1) 0.6257(1) 0.2653(1)
C2E C 0.1551(1) 0.5586(2) 0.5275(3)
S2E S 0.2203(1) 0.6500(1) 0.7602(1)
C4E C 0.3348(3) 0.5611(4) 0.8781(9)
H3E H 0.3690(3) 0.5441(4) 0.7511(9)
H4E H 0.3847(3) 0.6024(4) 1.0033(9)
C1A C -0.0348(2) 0.5000 -0.1149(4)
S1A S -0.0812(1) 0.3743(1) -0.2653(1)
C2A C -0.1551(1) 0.4414(2) -0.5275(3)
S2A S -0.2203(1) 0.3500(1) -0.7602(1)
C4A C -0.3348(3) 0.4389(4) -0.8781(9)
C4D C -0.3348(3) 0.5611(4) -0.8781(9)
S2D S -0.2203(1) 0.6500(1) -0.7602(1)
C2D C -0.1551(1) 0.5586(2) -0.5275(3)
S1D S -0.0812(1) 0.6257(1) -0.2653(1)
H3D H -0.3690(3) 0.5441(4) -0.7511(9)
H4D H -0.3847(3) 0.6024(4) -1.0033(9)
H3A H -0.3690(3) 0.4559(4) -0.7511(9)
H4A H -0.3847(3) 0.3976(4) -1.0033(9)
C3? C 0.3061(4) 0.4490(4) 0.9783(8)
H1? H 0.3703(4) 0.4092(4) 1.0579(8)
H2? H 0.2692(4) 0.4675(4) 1.0998(8)
loop_
_geom_bond_atom_site_label_1
_geom_bond_atom_site_label_2
_geom_bond_site_symmetry_1
_geom_bond_site_symmetry_2
S1 C1 1_555 1_555
S2 C2 1_555 1_555
C1 S1E 1_555 1_555
C2 S1 1_555 1_555
C4 S2 1_555 1_555
Cl1 H5 1_555 1_555
H3 C4 1_555 1_555
H4 C4 1_555 1_555
H5 Cl1A 1_555 1_555
S1E C2E 1_555 1_555
C2E C2 1_555 1_555
S2E C2E 1_555 1_555
C4E C4 1_555 1_555
H3E C4E 1_555 1_555
H4E C4E 1_555 1_555
C1A C1 1_555 1_555
S1A C1A 1_555 1_555
C2A S1A 1_555 1_555
S2A C2A 1_555 1_555
C4A S2A 1_555 1_555
C4D C4A 1_555 1_555
S2D C4D 1_555 1_555
C2D C2A 1_555 1_555
S1D C1A 1_555 1_555
H3D C4D 1_555 1_555
H4D C4D 1_555 1_555
H3A C4A 1_555 1_555
H4A C4A 1_555 1_555
Cl1A Cl1 1_555 1_555
Cl1D H5 1_555 1_555
Cl1E H5 1_555 1_555
S2E C4E 1_555 1_555
S2D C2D 1_555 1_555
C2D S1D 1_555 1_555
Cl1D Cl1E 1_555 1_555

#END
