
#######################################################################
#
#                 Cambridge Crystallographic Data Centre
#                                CCDC 
#
#######################################################################
#
# If this CIF has been generated from an entry in the Cambridge 
# Structural Database, then it will include bibliographic, chemical, 
# crystal, experimental, refinement or atomic coordinate data resulting 
# from the CCDC's data processing and validation procedures.
#
#######################################################################

data_PUMRIY
_chemical_formula_moiety         'C10 H8 S8,C10 H8 S8 1+,H1 Cl2 1-'
_chemical_name_systematic        
"bis(\a'-bis(Ethylenedithio)tetrathiafulvalene) hydrogen dichloride"
_symmetry_cell_setting           monoclinic
_symmetry_space_group_name_H-M   'P 2/c'
_symmetry_Int_Tables_number      13
_space_group_name_Hall           '-P 2yc'
loop_
_symmetry_equiv_pos_site_id
_symmetry_equiv_pos_as_xyz
1 x,y,z
2 -x,y,1/2-z
3 -x,-y,-z
4 x,-y,1/2+z
_cell_length_a                   7.7023(1)
_cell_length_b                   6.6140(1)
_cell_length_c                   30.1077(6)
_cell_angle_alpha                90
_cell_angle_beta                 96.506(1)
_cell_angle_gamma                90
_cell_volume                     1523.9
_exptl_crystal_colour            brown
_exptl_crystal_description       plates
_cell_formula_units_Z            2
loop_
_atom_site_label
_atom_site_type_symbol
_atom_site_fract_x
_atom_site_fract_y
_atom_site_fract_z
S1 S 0.1958(1) -0.1509(1) 0.7119(1)
S2 S 0.3743(1) -0.2849(1) 0.8099(1)
S3 S 0.4378(1) 0.1407(1) 0.8335(1)
S4 S 0.2354(1) 0.2767(1) 0.7378(1)
S5 S -0.0166(1) -0.0739(1) 0.6256(1)
S6 S 0.4804(1) -0.4455(1) 0.9001(1)
S7 S 0.0099(1) 0.4288(1) 0.6579(1)
S8 S 0.5660(1) 0.0632(1) 0.9285(1)
C1 C 0.2671(4) 0.0252(5) 0.7532(1)
C2 C 0.3476(4) -0.0330(5) 0.7941(1)
C3 C 0.0866(4) 0.0274(4) 0.6753(1)
C4 C 0.4513(4) -0.2324(5) 0.8659(1)
C5 C 0.1011(4) 0.2223(5) 0.6882(1)
C6 C 0.4813(4) -0.0366(5) 0.8767(1)
C7 C -0.0673(4) 0.1466(5) 0.5901(1)
C8 C 0.5525(7) -0.3385(6) 0.9544(1)
C10 C 0.0377(4) 0.3365(5) 0.6026(1)
C11 C 0.6733(6) -0.1589(6) 0.9538(2)
H2 H -0.0499(4) 0.1104(5) 0.5597(1)
H3 H -0.1902(4) 0.1782(5) 0.5903(1)
H4 H 0.4503(7) -0.2977(6) 0.9683(1)
H5 H 0.6117(7) -0.4431(6) 0.9730(1)
H8 H 0.0026(4) 0.4415(5) 0.5810(1)
H9 H 0.1605(4) 0.3084(5) 0.6011(1)
H10 H 0.7703(6) -0.1947(6) 0.9375(2)
H11 H 0.7206(6) -0.1270(6) 0.9843(2)
Cl1 Cl 0.1076(1) -0.3090(1) 0.9883(1)
H1 H 0.0000 -0.5000 1.0000
Cl1B Cl -0.1076(1) -0.6910(1) 1.0117(1)
C9? C 0.6571(10) -0.3478(15) 0.9390(3)
C12? C 0.5968(22) -0.1630(12) 0.9624(3)
H6? H 0.6952(10) -0.4508(15) 0.9609(3)
H7? H 0.7554(10) -0.3128(15) 0.9230(3)
H12? H 0.6818(22) -0.1338(12) 0.9879(3)
H13? H 0.4872(22) -0.1949(12) 0.9738(3)
loop_
_geom_bond_atom_site_label_1
_geom_bond_atom_site_label_2
_geom_bond_site_symmetry_1
_geom_bond_site_symmetry_2
Cl1 H1 1_555 1_555
S1 C1 1_555 1_555
S2 C2 1_555 1_555
S3 C2 1_555 1_555
S4 C1 1_555 1_555
S5 C3 1_555 1_555
S6 C4 1_555 1_555
S7 C5 1_555 1_555
S8 C6 1_555 1_555
C1 C2 1_555 1_555
C3 S1 1_555 1_555
C4 S2 1_555 1_555
C5 S4 1_555 1_555
C6 S3 1_555 1_555
C7 S5 1_555 1_555
C8 S6 1_555 1_555
C10 S7 1_555 1_555
C11 S8 1_555 1_555
H1 Cl1B 1_555 1_555
H2 C7 1_555 1_555
H3 C7 1_555 1_555
H4 C8 1_555 1_555
H5 C8 1_555 1_555
H8 C10 1_555 1_555
H9 C10 1_555 1_555
H10 C11 1_555 1_555
H11 C11 1_555 1_555
C3 C5 1_555 1_555
C4 C6 1_555 1_555
C7 C10 1_555 1_555
C8 C11 1_555 1_555

#END
