
#######################################################################
#
#                 Cambridge Crystallographic Data Centre
#                                CCDC 
#
#######################################################################
#
# If this CIF has been generated from an entry in the Cambridge 
# Structural Database, then it will include bibliographic, chemical, 
# crystal, experimental, refinement or atomic coordinate data resulting 
# from the CCDC's data processing and validation procedures.
#
#######################################################################

data_PUNMUH
_chemical_formula_moiety         'C36 H36 N24 O12,C7 H9 N1,22(H2 O1)'
_chemical_name_systematic        
'cucurbit[6]uril benzylamine clathrate docosahydrate'
_symmetry_cell_setting           triclinic
_symmetry_space_group_name_H-M   'P -1'
_symmetry_Int_Tables_number      2
_space_group_name_Hall           '-P 1'
loop_
_symmetry_equiv_pos_site_id
_symmetry_equiv_pos_as_xyz
1 x,y,z
2 -x,-y,-z
_cell_length_a                   12.9178(4)
_cell_length_b                   14.3848(5)
_cell_length_c                   19.9852(7)
_cell_angle_alpha                70.4430(10)
_cell_angle_beta                 75.8170(10)
_cell_angle_gamma                68.1470(10)
_cell_volume                     3217.01
_cell_formula_units_Z            2
loop_
_atom_site_label
_atom_site_type_symbol
_atom_site_fract_x
_atom_site_fract_y
_atom_site_fract_z
C1 C 0.5995(3) 0.0348(3) 0.43517(18)
C2 C 0.4496(3) 0.1353(3) 0.36909(18)
H1 H 0.3712 0.1474 0.3920
C3 C 0.5017(3) 0.0269(3) 0.35447(18)
H2 H 0.4466 -0.0107 0.3696
C4 C 0.5011(3) 0.1543(3) 0.2456(2)
C5 C 0.6691(3) -0.1309(3) 0.40320(18)
H3 H 0.6970 -0.1579 0.4491
H4 H 0.6271 -0.1741 0.4024
C6 C 0.5809(3) -0.0259(3) 0.2367(2)
H5 H 0.5491 -0.0821 0.2597
H6 H 0.5584 0.0063 0.1892
C7 C 0.8700(3) -0.1528(3) 0.35719(17)
C8 C 0.7628(3) -0.1586(3) 0.28095(18)
H7 H 0.7375 -0.2185 0.2898
C9 C 0.8865(3) -0.1793(3) 0.24557(17)
H8 H 0.9187 -0.2485 0.2373
C10 C 0.7718(3) -0.0394(3) 0.16872(19)
C11 C 1.0628(3) -0.2087(3) 0.29428(19)
H9 H 1.0804 -0.2255 0.3423
H10 H 1.0920 -0.2725 0.2795
C12 C 0.9724(3) -0.1006(3) 0.12123(18)
H11 H 0.9431 -0.0594 0.0764
H12 H 1.0087 -0.1718 0.1183
C13 C 1.1743(3) -0.0918(3) 0.27021(18)
C14 C 1.1477(3) -0.1262(3) 0.17067(17)
H13 H 1.1836 -0.1940 0.1602
C15 C 1.2289(3) -0.0610(3) 0.14657(17)
H14 H 1.3033 -0.0991 0.1258
C16 C 1.0747(3) 0.0267(3) 0.08430(17)
C17 C 1.3144(3) 0.0025(3) 0.21741(19)
H15 H 1.3333 -0.0256 0.2659
H16 H 1.3828 -0.0187 0.1852
C18 C 1.2253(3) 0.1078(3) 0.05021(17)
H17 H 1.1948 0.1391 0.0051
H18 H 1.3056 0.0742 0.0396
C19 C 1.2335(3) 0.1655(3) 0.25279(18)
C20 C 1.2817(3) 0.1852(3) 0.12968(17)
H19 H 1.3599 0.1731 0.1063
C21 C 1.2301(3) 0.2941(3) 0.14346(17)
H20 H 1.2847 0.3324 0.1264
C22 C 1.1314(3) 0.2848(3) 0.06407(17)
C23 C 1.1513(3) 0.3465(3) 0.26109(19)
H21 H 1.1812 0.4040 0.2384
H22 H 1.1726 0.3153 0.3089
C24 C 1.0654(3) 0.4519(3) 0.09490(17)
H23 H 1.1100 0.4923 0.0965
H24 H 1.0404 0.4793 0.0481
C25 C 0.9608(3) 0.3561(3) 0.32737(18)
C26 C 0.9702(3) 0.4795(3) 0.21676(17)
H25 H 0.9965 0.5381 0.2103
C27 C 0.8457(3) 0.4998(3) 0.25241(18)
H26 H 0.8135 0.5684 0.2617
C28 C 0.8620(3) 0.4775(3) 0.13958(17)
C29 C 0.7611(3) 0.4198(3) 0.37682(18)
H27 H 0.7918 0.3787 0.4212
H28 H 0.7251 0.4910 0.3798
C30 C 0.6695(3) 0.5293(3) 0.20356(19)
H29 H 0.6503 0.5466 0.1559
H30 H 0.6395 0.5925 0.2191
C31 C 0.6582(3) 0.2924(3) 0.41619(18)
C32 C 0.5866(3) 0.4443(3) 0.32838(18)
H31 H 0.5506 0.5125 0.3381
C33 C 0.5047(3) 0.3806(3) 0.35209(18)
H32 H 0.4309 0.4185 0.3735
C34 C 0.5572(3) 0.4126(3) 0.22833(18)
C35 C 0.5070(3) 0.2120(3) 0.44858(18)
H33 H 0.4271 0.2471 0.4589
H34 H 0.5375 0.1807 0.4937
C36 C 0.4177(3) 0.3183(3) 0.2817(2)
H35 H 0.3973 0.3470 0.2336
H36 H 0.3501 0.3388 0.3147
N1 N 0.5222(2) 0.1299(2) 0.41614(16)
N2 N 0.5933(2) -0.0250(2) 0.39708(15)
N3 N 0.4586(3) 0.2057(2) 0.29761(16)
N4 N 0.5341(2) 0.0508(3) 0.27765(15)
N5 N 0.7635(2) -0.1389(2) 0.34694(14)
N6 N 0.9415(2) -0.1702(2) 0.29649(14)
N7 N 0.7021(2) -0.0690(3) 0.22957(16)
N8 N 0.8797(2) -0.0979(2) 0.17876(14)
N9 N 1.1192(2) -0.1369(2) 0.24673(14)
N10 N 1.2343(2) -0.0420(2) 0.21173(14)
N11 N 1.0563(2) -0.0616(2) 0.12961(15)
N12 N 1.1740(2) 0.0299(2) 0.09418(14)
N13 N 1.2742(2) 0.1145(2) 0.20078(14)
N14 N 1.2024(2) 0.2700(2) 0.22071(14)
N15 N 1.2082(2) 0.1892(2) 0.08286(14)
N16 N 1.1362(2) 0.3442(2) 0.10319(14)
N17 N 1.0297(2) 0.3867(2) 0.26686(14)
N18 N 0.8527(2) 0.4173(2) 0.31799(14)
N19 N 0.9685(2) 0.4654(2) 0.14877(14)
N20 N 0.7905(2) 0.4925(2) 0.19996(14)
N21 N 0.6772(2) 0.3809(2) 0.37008(14)
N22 N 0.5606(2) 0.2879(2) 0.40374(15)
N23 N 0.6162(2) 0.4540(2) 0.25194(15)
N24 N 0.4977(2) 0.3629(2) 0.28657(15)
O1 O 0.6621(2) 0.0075(2) 0.48010(13)
O2 O 0.8968(2) -0.1523(2) 0.41131(12)
O3 O 1.1722(2) -0.0954(2) 0.33250(12)
O4 O 1.2284(2) 0.1250(2) 0.31722(12)
O5 O 0.9904(2) 0.2871(2) 0.38109(12)
O6 O 0.7159(2) 0.2292(2) 0.46155(13)
O7 O 0.5069(2) 0.1953(2) 0.18114(14)
O8 O 0.7418(2) 0.0275(2) 0.11410(14)
O9 O 1.0139(2) 0.0924(2) 0.04062(12)
O10 O 1.0675(2) 0.31332(19) 0.01962(12)
O11 O 0.8359(2) 0.4758(2) 0.08479(12)
O12 O 0.5576(2) 0.4192(2) 0.16615(14)
C37 C 0.9057(4) 0.1189(3) 0.3136(2)
H37 H 0.9325 0.0899 0.3577
C38 C 0.8053(5) 0.1163(5) 0.3051(3)
H38 H 0.7627 0.0844 0.3444
C39 C 0.9640(4) 0.1661(4) 0.2544(3)
H39 H 1.0321 0.1707 0.2584
C40 C 0.7655(4) 0.1594(5) 0.2402(3)
H40 H 0.6958 0.1575 0.2370
C41 C 0.9262(3) 0.2074(4) 0.1887(2)
H41 H 0.9700 0.2376 0.1493
C42 C 0.8253(3) 0.2049(3) 0.1804(2)
C43 C 0.7777(4) 0.2496(5) 0.1115(3)
H42 H 0.7570 0.1969 0.1025
H43 H 0.7094 0.3070 0.1165
N25 N 0.8521(3) 0.2864(3) 0.0500(2)
H44 H 0.9184 0.2816 0.0549
H45 H 0.8302 0.3133 0.0084
O13 O 0.9403(8) -0.4245(6) 0.3728(3)
O14 O 1.1866(3) 0.6284(3) 0.12028(18)
O15 O 0.8588(3) -0.0353(5) 0.54004(18)
O16 O 0.8530(4) -0.2836(3) 0.1289(2)
O17 O 1.0672(6) -0.3764(4) 0.4817(3)
O18 O 1.0721(4) -0.1503(5) 0.4809(2)
O19 O 0.6572(4) 0.6532(6) 0.0217(3)
O20 O 0.5274(4) 0.0103(5) 0.0611(2)
O21 O 0.3818(7) -0.1616(6) 0.3907(3)
O22 O 0.6161(6) -0.1996(4) 0.1256(4)
O24 O 0.1913(4) 0.2784(8) 0.4439(2)
O27 O 1.2786(9) -0.3641(8) 0.4212(4)
O28 O 0.3409(8) 0.6222(11) 0.2594(5)
O29 O 0.4406(10) 0.7461(8) 0.2360(5)
O30 O 0.6471(18) 0.1377(11) -0.0043(8)
O31 O 0.8314(13) -0.4989(8) 0.6428(6)
O32 O 0.5416(10) -0.2863(10) 0.3513(11)
O33 O 0.4838(13) 0.682(2) -0.0400(5)
O34 O 0.617(3) -0.3807(14) 0.4598(11)
O35 O 1.4170(17) 0.4829(15) 0.0644(10)
O23? O 0.5189(7) 0.5338(6) 0.4910(4)
O25? O 1.2023(6) 0.5862(5) 0.1959(5)
O26? O 0.7434(18) -0.3904(12) 0.4877(15)
O36? O 0.890(2) -0.4074(12) 0.3967(9)
O37? O 1.289(2) 0.592(4) 0.0528(16)
O38? O 0.545(3) 0.7304(19) 0.280(2)
loop_
_geom_bond_atom_site_label_1
_geom_bond_atom_site_label_2
_geom_bond_site_symmetry_1
_geom_bond_site_symmetry_2
C1 N1 1_555 1_555
C2 H1 1_555 1_555
C3 C2 1_555 1_555
H2 C3 1_555 1_555
C4 N3 1_555 1_555
C5 H3 1_555 1_555
H4 C5 1_555 1_555
C6 H5 1_555 1_555
H6 C6 1_555 1_555
C7 N5 1_555 1_555
C8 H7 1_555 1_555
C9 C8 1_555 1_555
H8 C9 1_555 1_555
C10 N7 1_555 1_555
C11 H9 1_555 1_555
H10 C11 1_555 1_555
C12 H11 1_555 1_555
H12 C12 1_555 1_555
C13 N9 1_555 1_555
C14 H13 1_555 1_555
C15 C14 1_555 1_555
H14 C15 1_555 1_555
C16 N11 1_555 1_555
C17 H15 1_555 1_555
H16 C17 1_555 1_555
C18 H17 1_555 1_555
H18 C18 1_555 1_555
C19 N13 1_555 1_555
C20 H19 1_555 1_555
C21 C20 1_555 1_555
H20 C21 1_555 1_555
C22 N15 1_555 1_555
C23 H21 1_555 1_555
H22 C23 1_555 1_555
C24 H23 1_555 1_555
H24 C24 1_555 1_555
C25 N17 1_555 1_555
C26 H25 1_555 1_555
C27 C26 1_555 1_555
H26 C27 1_555 1_555
C28 N19 1_555 1_555
C29 H27 1_555 1_555
H28 C29 1_555 1_555
C30 H29 1_555 1_555
H30 C30 1_555 1_555
C31 N21 1_555 1_555
C32 H31 1_555 1_555
C33 C32 1_555 1_555
H32 C33 1_555 1_555
C34 N23 1_555 1_555
C35 H33 1_555 1_555
H34 C35 1_555 1_555
C36 H35 1_555 1_555
H36 C36 1_555 1_555
C37 H37 1_555 1_555
C38 C37 1_555 1_555
H38 C38 1_555 1_555
C39 C37 1_555 1_555
H39 C39 1_555 1_555
C40 C38 1_555 1_555
H40 C40 1_555 1_555
C41 C39 1_555 1_555
H41 C41 1_555 1_555
C42 C40 1_555 1_555
C43 C42 1_555 1_555
H42 C43 1_555 1_555
H43 C43 1_555 1_555
N1 C2 1_555 1_555
N2 C1 1_555 1_555
N3 C2 1_555 1_555
N4 C3 1_555 1_555
N5 C5 1_555 1_555
N6 C7 1_555 1_555
N7 C6 1_555 1_555
N8 C9 1_555 1_555
N9 C11 1_555 1_555
N10 C13 1_555 1_555
N11 C12 1_555 1_555
N12 C15 1_555 1_555
N13 C17 1_555 1_555
N14 C19 1_555 1_555
N15 C18 1_555 1_555
N16 C21 1_555 1_555
N17 C23 1_555 1_555
N18 C25 1_555 1_555
N19 C24 1_555 1_555
N20 C27 1_555 1_555
N21 C29 1_555 1_555
N22 C31 1_555 1_555
N23 C30 1_555 1_555
N24 C33 1_555 1_555
N25 C43 1_555 1_555
H44 N25 1_555 1_555
H45 N25 1_555 1_555
O1 C1 1_555 1_555
O2 C7 1_555 1_555
O3 C13 1_555 1_555
O4 C19 1_555 1_555
O5 C25 1_555 1_555
O6 C31 1_555 1_555
O7 C4 1_555 1_555
O8 C10 1_555 1_555
O9 C16 1_555 1_555
O10 C22 1_555 1_555
O11 C28 1_555 1_555
O12 C34 1_555 1_555
C3 N2 1_555 1_555
C4 N4 1_555 1_555
C5 N2 1_555 1_555
C6 N4 1_555 1_555
C8 N5 1_555 1_555
C8 N7 1_555 1_555
C9 N6 1_555 1_555
C10 N8 1_555 1_555
C11 N6 1_555 1_555
C12 N8 1_555 1_555
C14 N9 1_555 1_555
C14 N11 1_555 1_555
C15 N10 1_555 1_555
C16 N12 1_555 1_555
C17 N10 1_555 1_555
C18 N12 1_555 1_555
C20 N13 1_555 1_555
C20 N15 1_555 1_555
C21 N14 1_555 1_555
C22 N16 1_555 1_555
C23 N14 1_555 1_555
C24 N16 1_555 1_555
C26 N17 1_555 1_555
C26 N19 1_555 1_555
C27 N18 1_555 1_555
C28 N20 1_555 1_555
C29 N18 1_555 1_555
C30 N20 1_555 1_555
C32 N21 1_555 1_555
C32 N23 1_555 1_555
C33 N22 1_555 1_555
C34 N24 1_555 1_555
C35 N1 1_555 1_555
C35 N22 1_555 1_555
C36 N3 1_555 1_555
C36 N24 1_555 1_555
C41 C42 1_555 1_555

#END
