
#######################################################################
#
#                 Cambridge Crystallographic Data Centre
#                                CCDC 
#
#######################################################################
#
# If this CIF has been generated from an entry in the Cambridge 
# Structural Database, then it will include bibliographic, chemical, 
# crystal, experimental, refinement or atomic coordinate data resulting 
# from the CCDC's data processing and validation procedures.
#
#######################################################################

data_PUNNUI
_chemical_formula_moiety         'C17 H31 N1 O2'
_chemical_name_systematic        
8-Ethyl-10-(1-hydroxypropan-2-yl)dodecahydroazepino[3,2,1-hi]indol-9-ol
_symmetry_cell_setting           orthorhombic
_symmetry_space_group_name_H-M   'P 21 21 21'
_symmetry_Int_Tables_number      19
_space_group_name_Hall           'P 2ac 2ab'
loop_
_symmetry_equiv_pos_site_id
_symmetry_equiv_pos_as_xyz
1 x,y,z
2 1/2-x,-y,1/2+z
3 -x,1/2+y,1/2-z
4 1/2+x,1/2-y,-z
_cell_length_a                   7.9979(14)
_cell_length_b                   9.5350(16)
_cell_length_c                   21.515(4)
_cell_angle_alpha                90
_cell_angle_beta                 90
_cell_angle_gamma                90
_cell_volume                     1640.73
_exptl_crystal_colour            colorless
_exptl_crystal_description       block
_cell_formula_units_Z            4
loop_
_atom_site_label
_atom_site_type_symbol
_atom_site_fract_x
_atom_site_fract_y
_atom_site_fract_z
O1 O -0.2063(3) 0.33773(19) 0.39127(10)
H1 H -0.2834 0.3471 0.4160
O2 O -0.0027(2) 0.1387(2) 0.53629(9)
H2 H -0.0554 0.1328 0.5689
C1 C 0.1231(4) 0.2318(3) 0.33970(12)
H3 H 0.0317 0.2007 0.3127
C2 C 0.2779(4) 0.1388(3) 0.32823(14)
H4 H 0.2984 0.0781 0.3636
H5 H 0.2623 0.0810 0.2916
C3 C 0.4222(4) 0.2400(3) 0.31903(15)
H6 H 0.5185 0.2111 0.3433
H7 H 0.4541 0.2444 0.2756
N1 N 0.3588(3) 0.3781(2) 0.34070(9)
C4 C 0.4617(4) 0.4937(3) 0.31589(13)
H8 H 0.4312 0.5099 0.2728
H9 H 0.5783 0.4659 0.3168
C5 C 0.4416(5) 0.6294(3) 0.35183(15)
H10 H 0.4543 0.6081 0.3957
H11 H 0.5330 0.6909 0.3403
C6 C 0.2807(5) 0.7100(3) 0.34391(18)
H12 H 0.3063 0.7952 0.3212
H13 H 0.2429 0.7380 0.3849
C7 C 0.1354(5) 0.6391(3) 0.31144(14)
H14 H 0.1671 0.6243 0.2684
H15 H 0.0422 0.7041 0.3114
C8 C 0.0718(4) 0.4978(3) 0.33738(12)
H16 H -0.0348 0.4809 0.3162
C9 C 0.1838(3) 0.3765(3) 0.31840(12)
H17 H 0.1874 0.3751 0.2729
C10 C 0.0309(4) 0.4939(3) 0.40690(12)
H18 H 0.1369 0.5001 0.4296
C11 C -0.0494(3) 0.3517(3) 0.42341(12)
H19 H -0.0712 0.3500 0.4682
C12 C 0.0647(4) 0.2288(3) 0.40738(12)
H20 H 0.1655 0.2411 0.4327
C13 C -0.0083(4) 0.0823(3) 0.42554(12)
H21 H 0.0876 0.0192 0.4303
C14 C -0.0993(4) 0.0814(3) 0.48699(13)
H22 H -0.2019 0.1349 0.4829
H23 H -0.1294 -0.0143 0.4973
C15 C -0.1232(4) 0.0150(3) 0.37707(14)
H24 H -0.1614 -0.0742 0.3921
H25 H -0.0627 0.0020 0.3390
H26 H -0.2175 0.0751 0.3697
C16 C -0.0784(4) 0.6166(3) 0.42808(15)
H27 H -0.0288 0.7032 0.4132
H28 H -0.1875 0.6076 0.4088
C17 C -0.1013(7) 0.6274(4) 0.49713(17)
H29 H -0.1710 0.7066 0.5065
H30 H 0.0056 0.6392 0.5167
H31 H -0.1532 0.5434 0.5123
loop_
_geom_bond_atom_site_label_1
_geom_bond_atom_site_label_2
_geom_bond_site_symmetry_1
_geom_bond_site_symmetry_2
O1 H1 1_555 1_555
O2 H2 1_555 1_555
C1 H3 1_555 1_555
C2 C1 1_555 1_555
H4 C2 1_555 1_555
H5 C2 1_555 1_555
C3 C2 1_555 1_555
H6 C3 1_555 1_555
H7 C3 1_555 1_555
N1 C3 1_555 1_555
C4 N1 1_555 1_555
H8 C4 1_555 1_555
H9 C4 1_555 1_555
C5 C4 1_555 1_555
H10 C5 1_555 1_555
H11 C5 1_555 1_555
C6 C5 1_555 1_555
H12 C6 1_555 1_555
H13 C6 1_555 1_555
C7 C6 1_555 1_555
H14 C7 1_555 1_555
H15 C7 1_555 1_555
C8 C7 1_555 1_555
H16 C8 1_555 1_555
C9 C1 1_555 1_555
H17 C9 1_555 1_555
C10 C8 1_555 1_555
H18 C10 1_555 1_555
C11 O1 1_555 1_555
H19 C11 1_555 1_555
C12 C1 1_555 1_555
H20 C12 1_555 1_555
C13 C12 1_555 1_555
H21 C13 1_555 1_555
C14 O2 1_555 1_555
H22 C14 1_555 1_555
H23 C14 1_555 1_555
C15 C13 1_555 1_555
H24 C15 1_555 1_555
H25 C15 1_555 1_555
H26 C15 1_555 1_555
C16 C10 1_555 1_555
H27 C16 1_555 1_555
H28 C16 1_555 1_555
C17 C16 1_555 1_555
H29 C17 1_555 1_555
H30 C17 1_555 1_555
H31 C17 1_555 1_555
N1 C9 1_555 1_555
C8 C9 1_555 1_555
C10 C11 1_555 1_555
C11 C12 1_555 1_555
C13 C14 1_555 1_555

#END
