
#######################################################################
#
#                 Cambridge Crystallographic Data Centre
#                                CCDC 
#
#######################################################################
#
# If this CIF has been generated from an entry in the Cambridge 
# Structural Database, then it will include bibliographic, chemical, 
# crystal, experimental, refinement or atomic coordinate data resulting 
# from the CCDC's data processing and validation procedures.
#
#######################################################################

data_PUNNOC
_chemical_name_common            neostenine
_chemical_formula_moiety         'C17 H27 N1 O2'
_chemical_name_systematic        
8-Ethyl-11-methyldodecahydroazepino[3,2,1-hi]furo[3,2-e]indol-10(2H)-one
_symmetry_cell_setting           orthorhombic
_symmetry_space_group_name_H-M   'P 21 21 21'
_symmetry_Int_Tables_number      19
_space_group_name_Hall           'P 2ac 2ab'
loop_
_symmetry_equiv_pos_site_id
_symmetry_equiv_pos_as_xyz
1 x,y,z
2 1/2-x,-y,1/2+z
3 -x,1/2+y,1/2-z
4 1/2+x,1/2-y,-z
_cell_length_a                   5.8368(4)
_cell_length_b                   9.6805(7)
_cell_length_c                   27.789(2)
_cell_angle_alpha                90
_cell_angle_beta                 90
_cell_angle_gamma                90
_cell_volume                     1570.17
_exptl_crystal_colour            colorless
_exptl_crystal_description       block
_cell_formula_units_Z            4
loop_
_atom_site_label
_atom_site_type_symbol
_atom_site_fract_x
_atom_site_fract_y
_atom_site_fract_z
O1 O 0.4308(3) 0.35147(16) 0.45057(6)
O2 O 0.4903(4) 0.4315(2) 0.52470(7)
C1 C 0.1986(4) 0.6112(2) 0.41169(8)
H1 H 0.3197 0.6436 0.4333
C2 C 0.0121(5) 0.7232(2) 0.40687(9)
H2 H -0.1274 0.6953 0.4232
H3 H 0.0641 0.8101 0.4204
C3 C -0.0272(4) 0.7362(2) 0.35306(9)
H4 H -0.1898 0.7368 0.3459
H5 H 0.0402 0.8210 0.3409
N1 N 0.0830(3) 0.61620(18) 0.33130(7)
C4 C 0.1190(5) 0.6354(2) 0.27949(9)
H6 H 0.2504 0.6952 0.2748
H7 H -0.0137 0.6818 0.2661
C5 C 0.1576(5) 0.5031(3) 0.25226(9)
H8 H 0.1415 0.5236 0.2183
H9 H 0.0347 0.4402 0.2607
C6 C 0.3813(5) 0.4267(3) 0.25888(10)
H10 H 0.4661 0.4323 0.2289
H11 H 0.3463 0.3301 0.2644
C7 C 0.5372(4) 0.4752(3) 0.29910(9)
H12 H 0.5868 0.5684 0.2915
H13 H 0.6726 0.4171 0.2990
C8 C 0.4407(4) 0.4762(2) 0.35029(8)
H14 H 0.5740 0.4860 0.3715
C9 C 0.2918(4) 0.6009(2) 0.36042(8)
H15 H 0.3861 0.6832 0.3548
C10 C 0.3265(4) 0.3406(2) 0.36526(9)
H16 H 0.1926 0.3283 0.3444
C11 C 0.2381(4) 0.3495(2) 0.41642(8)
H17 H 0.1458 0.2670 0.4229
C12 C 0.0995(4) 0.4752(2) 0.43070(7)
H18 H -0.0602 0.4647 0.4204
C13 C 0.1172(5) 0.4645(3) 0.48559(8)
H19 H 0.0183 0.3880 0.4957
C14 C 0.3612(6) 0.4169(3) 0.49109(10)
C15 C 0.0572(6) 0.5882(3) 0.51666(9)
H20 H 0.0750 0.5643 0.5500
H21 H -0.0987 0.6149 0.5107
H22 H 0.1573 0.6637 0.5089
C16 C 0.4791(6) 0.2134(3) 0.35827(10)
H23 H 0.5448 0.2164 0.3262
H24 H 0.6043 0.2175 0.3812
C17 C 0.3553(7) 0.0786(3) 0.36449(12)
H25 H 0.4606 0.0036 0.3598
H26 H 0.2338 0.0723 0.3413
H27 H 0.2923 0.0738 0.3964
loop_
_geom_bond_atom_site_label_1
_geom_bond_atom_site_label_2
_geom_bond_site_symmetry_1
_geom_bond_site_symmetry_2
O1 C11 1_555 1_555
O2 C14 1_555 1_555
C1 H1 1_555 1_555
C2 C1 1_555 1_555
H2 C2 1_555 1_555
H3 C2 1_555 1_555
C3 C2 1_555 1_555
H4 C3 1_555 1_555
H5 C3 1_555 1_555
N1 C3 1_555 1_555
C4 N1 1_555 1_555
H6 C4 1_555 1_555
H7 C4 1_555 1_555
C5 C4 1_555 1_555
H8 C5 1_555 1_555
H9 C5 1_555 1_555
C6 C5 1_555 1_555
H10 C6 1_555 1_555
H11 C6 1_555 1_555
C7 C6 1_555 1_555
H12 C7 1_555 1_555
H13 C7 1_555 1_555
C8 C7 1_555 1_555
H14 C8 1_555 1_555
C9 C1 1_555 1_555
H15 C9 1_555 1_555
C10 C8 1_555 1_555
H16 C10 1_555 1_555
C11 C10 1_555 1_555
H17 C11 1_555 1_555
C12 C1 1_555 1_555
H18 C12 1_555 1_555
C13 C12 1_555 1_555
H19 C13 1_555 1_555
C14 O1 1_555 1_555
C15 C13 1_555 1_555
H20 C15 1_555 1_555
H21 C15 1_555 1_555
H22 C15 1_555 1_555
C16 C10 1_555 1_555
H23 C16 1_555 1_555
H24 C16 1_555 1_555
C17 C16 1_555 1_555
H25 C17 1_555 1_555
H26 C17 1_555 1_555
H27 C17 1_555 1_555
N1 C9 1_555 1_555
C8 C9 1_555 1_555
C11 C12 1_555 1_555
C13 C14 1_555 1_555

#END
