
#######################################################################
#
#                 Cambridge Crystallographic Data Centre
#                                CCDC 
#
#######################################################################
#
# If this CIF has been generated from an entry in the Cambridge 
# Structural Database, then it will include bibliographic, chemical, 
# crystal, experimental, refinement or atomic coordinate data resulting 
# from the CCDC's data processing and validation procedures.
#
#######################################################################

data_PUNNES
_chemical_formula_moiety         
'C44 H48 N24 O12,C16 H24 N4 2+,2(Cl1 1-),21(H2 O1)'
_chemical_name_systematic        
"sym-bis(butano)-cucurbit[6]uril N,N'-bis(pyridin-3-ylmethyl)butane-1,4-diammonium clathrate dichloride henicosahydrate"
_symmetry_cell_setting           triclinic
_symmetry_space_group_name_H-M   'P -1'
_symmetry_Int_Tables_number      2
_space_group_name_Hall           '-P 1'
loop_
_symmetry_equiv_pos_site_id
_symmetry_equiv_pos_as_xyz
1 x,y,z
2 -x,-y,-z
_cell_length_a                   12.6737(8)
_cell_length_b                   13.4253(9)
_cell_length_c                   14.1072(16)
_cell_angle_alpha                104.870(3)
_cell_angle_beta                 106.015(3)
_cell_angle_gamma                108.527(2)
_cell_volume                     2025.48
_cell_formula_units_Z            1
loop_
_atom_site_label
_atom_site_type_symbol
_atom_site_fract_x
_atom_site_fract_y
_atom_site_fract_z
O1 O -0.5797(3) 0.6070(3) 0.0300(3)
O3 O 0.4481(4) 1.5355(3) 0.4269(3)
O4 O 0.2897(5) 0.6342(5) 0.4436(5)
O5 O 0.2971(6) 1.4271(5) 0.7575(6)
O6 O 0.4131(7) 1.3249(7) 0.6478(6)
O7 O 0.5379(6) 1.1366(6) 0.4558(6)
O8 O -0.3374(6) 1.2334(8) -0.1149(6)
O10 O 0.6393(9) 1.3979(8) 0.7672(8)
O12 O -0.2732(13) 0.3336(11) 0.169(2)
O13 O 0.3682(9) 1.4482(9) 0.6429(8)
O14 O -0.4713(9) 0.9561(13) 0.3253(11)
Cl1 Cl -0.26149(17) 1.3893(2) 0.34740(18)
C1 C -0.2980(3) 0.9390(3) -0.2554(3)
C2 C -0.3979(3) 0.7490(4) -0.2820(3)
H1 H -0.4844 0.7059 -0.3260
C3 C -0.3222(3) 0.7570(3) -0.3510(3)
H2 H -0.3722 0.7128 -0.4268
C4 C -0.2634(4) 0.6697(3) -0.2360(3)
C5 C -0.2123(3) 0.9223(3) -0.3929(3)
H3 H -0.2567 0.8699 -0.4665
H4 H -0.2189 0.9932 -0.3885
C6 C -0.1648(4) 0.6833(3) -0.3651(3)
H5 H -0.1445 0.6253 -0.3460
H6 H -0.2125 0.6512 -0.4412
C7 C 0.0032(3) 1.0496(3) -0.3061(2)
C8 C -0.0408(3) 0.8573(3) -0.3967(2)
C9 C 0.0998(3) 0.9308(3) -0.3483(3)
C10 C 0.0547(4) 0.7942(3) -0.2705(3)
C11 C 0.2234(3) 1.1459(3) -0.2397(3)
H7 H 0.2773 1.1428 -0.2765
H8 H 0.2073 1.2120 -0.2393
C12 C 0.2711(4) 0.9088(4) -0.2167(3)
H9 H 0.3145 0.9290 -0.2607
H10 H 0.2768 0.8410 -0.2083
C13 C 0.2811(3) 1.2359(4) -0.0467(3)
C14 C 0.3747(3) 1.1172(5) -0.0976(3)
H11 H 0.4351 1.1365 -0.1284
C15 C 0.4318(4) 1.1784(5) 0.0256(3)
H12 H 0.5186 1.2255 0.0517
C16 C 0.3501(4) 0.9811(5) -0.0197(3)
C17 C -0.4464(4) 0.8994(5) -0.1735(3)
H13 H -0.4455 0.9701 -0.1792
H14 H -0.5288 0.8419 -0.2121
C18 C -0.4036(4) 0.6596(4) -0.1444(3)
H15 H -0.4911 0.6262 -0.1786
H16 H -0.3797 0.6019 -0.1286
C19 C -0.0919(4) 0.7985(3) -0.5176(3)
H17 H -0.1766 0.7481 -0.5427
H18 H -0.0866 0.8551 -0.5494
C20 C -0.0236(5) 0.7303(4) -0.5533(3)
H19 H -0.0500 0.7046 -0.6302
H20 H -0.0440 0.6637 -0.5350
C21 C 0.1122(5) 0.7978(5) -0.5030(4)
H21 H 0.1477 0.7626 -0.4590
H22 H 0.1431 0.7947 -0.5589
C22 C 0.1518(4) 0.9219(4) -0.4347(3)
H23 H 0.2394 0.9594 -0.4015
H24 H 0.1243 0.9600 -0.4795
N1 N -0.3691(3) 0.8663(3) -0.2233(3)
N2 N -0.2677(3) 0.8770(3) -0.3283(2)
N3 N -0.3538(3) 0.6927(3) -0.2170(3)
N4 N -0.2370(3) 0.7132(3) -0.3094(2)
N5 N -0.0865(2) 0.9425(2) -0.3632(2)
N6 N 0.1112(3) 1.0456(2) -0.2979(2)
N7 N -0.0533(3) 0.7791(2) -0.3419(2)
N8 N 0.1447(3) 0.8833(3) -0.2716(2)
N9 N 0.2837(3) 1.1597(3) -0.1307(2)
N10 N -0.3652(3) 0.7531(3) -0.0455(2)
N11 N 0.3286(3) 0.9994(4) -0.1138(3)
N12 N -0.4086(3) 0.9137(4) -0.0615(3)
O15 O -0.2642(2) 1.0419(3) -0.2226(2)
O16 O -0.0130(2) 1.1350(2) -0.27196(18)
O17 O 0.2152(3) 1.2859(2) -0.0523(2)
O18 O -0.2101(3) 0.6184(2) -0.1953(2)
O19 O 0.0686(3) 0.7380(3) -0.2173(2)
O20 O 0.3242(3) 0.8898(4) -0.0103(3)
C1A C 0.2980(3) 1.0610(3) 0.2554(3)
C2A C 0.3979(3) 1.2510(4) 0.2820(3)
H1A H 0.4844 1.2941 0.3260
C3A C 0.3222(3) 1.2430(3) 0.3510(3)
H2A H 0.3722 1.2872 0.4268
C4A C 0.2634(4) 1.3303(3) 0.2360(3)
C5A C 0.2123(3) 1.0777(3) 0.3929(3)
H3A H 0.2567 1.1301 0.4665
H4A H 0.2189 1.0068 0.3885
C6A C 0.1648(4) 1.3167(3) 0.3651(3)
H5A H 0.1445 1.3747 0.3460
H6A H 0.2125 1.3488 0.4412
C7A C -0.0032(3) 0.9504(3) 0.3061(2)
C8A C 0.0408(3) 1.1427(3) 0.3967(2)
C9A C -0.0998(3) 1.0692(3) 0.3483(3)
C10A C -0.0547(4) 1.2058(3) 0.2705(3)
C11A C -0.2234(3) 0.8541(3) 0.2397(3)
H7A H -0.2773 0.8572 0.2765
H8A H -0.2073 0.7880 0.2393
C12A C -0.2711(4) 1.0912(4) 0.2167(3)
H9A H -0.3145 1.0710 0.2607
H10A H -0.2768 1.1590 0.2083
C13A C -0.2811(3) 0.7641(4) 0.0467(3)
C14A C -0.3747(3) 0.8828(5) 0.0976(3)
H11A H -0.4351 0.8635 0.1284
C15A C -0.4318(4) 0.8216(5) -0.0256(3)
H12A H -0.5186 0.7745 -0.0517
C16A C -0.3501(4) 1.0189(5) 0.0197(3)
C17A C 0.4464(4) 1.1006(5) 0.1735(3)
H13A H 0.4455 1.0299 0.1792
H14A H 0.5288 1.1581 0.2121
C18A C 0.4036(4) 1.3404(4) 0.1444(3)
H15A H 0.4911 1.3738 0.1786
H16A H 0.3797 1.3981 0.1286
C19A C 0.0919(4) 1.2015(3) 0.5176(3)
H17A H 0.1766 1.2519 0.5427
H18A H 0.0866 1.1449 0.5494
C20A C 0.0236(5) 1.2697(4) 0.5533(3)
H19A H 0.0500 1.2954 0.6302
H20A H 0.0440 1.3363 0.5350
C21A C -0.1122(5) 1.2022(5) 0.5030(4)
H21A H -0.1477 1.2374 0.4590
H22A H -0.1431 1.2053 0.5589
C22A C -0.1518(4) 1.0781(4) 0.4347(3)
H23A H -0.2394 1.0406 0.4015
H24A H -0.1243 1.0400 0.4795
N1A N 0.3691(3) 1.1337(3) 0.2233(3)
N2A N 0.2677(3) 1.1230(3) 0.3283(2)
N3A N 0.3538(3) 1.3073(3) 0.2170(3)
N4A N 0.2370(3) 1.2868(3) 0.3094(2)
N5A N 0.0865(2) 1.0575(2) 0.3632(2)
N6A N -0.1112(3) 0.9544(2) 0.2979(2)
N7A N 0.0533(3) 1.2209(2) 0.3419(2)
N8A N -0.1447(3) 1.1167(3) 0.2716(2)
N9A N -0.2837(3) 0.8403(3) 0.1307(2)
N10A N 0.3652(3) 1.2469(3) 0.0455(2)
N11A N -0.3286(3) 1.0006(4) 0.1138(3)
N12A N 0.4086(3) 1.0863(4) 0.0615(3)
O15A O 0.2642(2) 0.9581(3) 0.2226(2)
O16A O 0.0130(2) 0.8650(2) 0.27196(18)
O17A O -0.2152(3) 0.7141(2) 0.0523(2)
O18A O 0.2101(3) 1.3816(2) 0.1953(2)
O19A O -0.0686(3) 1.2620(3) 0.2173(2)
O20A O -0.3242(3) 1.1102(4) 0.0103(3)
C23 C -0.1282(5) 1.3439(5) -0.1940(4)
H25 H -0.2042 1.2904 -0.2082
C24 C -0.1122(6) 1.4028(5) -0.2596(4)
H26 H -0.1794 1.3876 -0.3182
C25 C -0.0088(8) 1.4781(6) -0.2442(5)
H27 H -0.0021 1.5155 -0.2909
C26 C -0.0291(4) 1.3661(4) -0.1070(3)
C27 C 0.0809(5) 1.4457(4) -0.0912(4)
H28 H 0.1500 1.4615 -0.0341
C28 C -0.0410(4) 1.3037(3) -0.0332(3)
H29 H -0.1201 1.2855 -0.0300
H30 H 0.0195 1.3518 0.0380
C29 C -0.0278(3) 1.1333(3) 0.0002(3)
H31 H 0.0304 1.1835 0.0718
H32 H -0.1073 1.1070 0.0027
C30 C 0.0010(4) 1.0327(3) -0.0364(3)
H33 H -0.0575 0.9824 -0.1078
H34 H 0.0803 1.0591 -0.0393
N13 N 0.0889(7) 1.5013(4) -0.1591(5)
N14 N -0.0251(3) 1.1973(2) -0.0710(2)
H35 H 0.0461 1.2148 -0.0785
H36 H -0.0839 1.1520 -0.1357
C23A C 0.1282(5) 0.6561(5) 0.1940(4)
H25A H 0.2042 0.7096 0.2082
C24A C 0.1122(6) 0.5972(5) 0.2596(4)
H26A H 0.1794 0.6124 0.3182
C25A C 0.0088(8) 0.5219(6) 0.2442(5)
H27A H 0.0021 0.4845 0.2909
C26A C 0.0291(4) 0.6339(4) 0.1070(3)
C27A C -0.0809(5) 0.5543(4) 0.0912(4)
H28A H -0.1500 0.5385 0.0341
C28A C 0.0410(4) 0.6963(3) 0.0332(3)
H29A H 0.1201 0.7145 0.0300
H30A H -0.0195 0.6482 -0.0380
C29A C 0.0278(3) 0.8667(3) -0.0002(3)
H31A H -0.0304 0.8165 -0.0718
H32A H 0.1073 0.8930 -0.0027
C30A C -0.0010(4) 0.9673(3) 0.0364(3)
H33A H 0.0575 1.0176 0.1078
H34A H -0.0803 0.9409 0.0393
N13A N -0.0889(7) 0.4987(4) 0.1591(5)
N14A N 0.0251(3) 0.8027(2) 0.0710(2)
H35A H -0.0461 0.7852 0.0785
H36A H 0.0839 0.8480 0.1357
O2? O -0.4682(5) 0.8929(6) 0.3347(4)
O9? O -0.0177(9) 1.5248(7) 0.5491(6)
O11? O -0.5156(7) 0.8163(8) 0.2717(8)
Cl2? Cl -0.2620(6) 1.3924(5) 0.4619(5)
O21? O 0.6862(12) 1.4395(11) 0.8857(10)
O22? O 0.3647(12) 1.4174(11) 0.8299(11)
loop_
_geom_bond_atom_site_label_1
_geom_bond_atom_site_label_2
_geom_bond_site_symmetry_1
_geom_bond_site_symmetry_2
C1 N1 1_555 1_555
C2 H1 1_555 1_555
C3 C2 1_555 1_555
H2 C3 1_555 1_555
C4 N3 1_555 1_555
C5 H3 1_555 1_555
H4 C5 1_555 1_555
C6 H5 1_555 1_555
H6 C6 1_555 1_555
C7 N5 1_555 1_555
C8 C9 1_555 1_555
C9 C22 1_555 1_555
C10 N7 1_555 1_555
C11 H7 1_555 1_555
H8 C11 1_555 1_555
C12 H9 1_555 1_555
H10 C12 1_555 1_555
C13 N9 1_555 1_555
C14 H11 1_555 1_555
C15 C14 1_555 1_555
H12 C15 1_555 1_555
C16 N11 1_555 1_555
C17 H13 1_555 1_555
H14 C17 1_555 1_555
C18 H15 1_555 1_555
H16 C18 1_555 1_555
C19 C8 1_555 1_555
H17 C19 1_555 1_555
H18 C19 1_555 1_555
C20 C19 1_555 1_555
H19 C20 1_555 1_555
H20 C20 1_555 1_555
C21 C20 1_555 1_555
H21 C21 1_555 1_555
H22 C21 1_555 1_555
C22 C21 1_555 1_555
H23 C22 1_555 1_555
H24 C22 1_555 1_555
C23 H25 1_555 1_555
C24 C23 1_555 1_555
H26 C24 1_555 1_555
C25 C24 1_555 1_555
H27 C25 1_555 1_555
C26 C23 1_555 1_555
C27 C26 1_555 1_555
H28 C27 1_555 1_555
C28 C26 1_555 1_555
H29 C28 1_555 1_555
H30 C28 1_555 1_555
C29 H31 1_555 1_555
H32 C29 1_555 1_555
C30 C29 1_555 1_555
H33 C30 1_555 1_555
H34 C30 1_555 1_555
N1 C2 1_555 1_555
N2 C1 1_555 1_555
N3 C2 1_555 1_555
N4 C3 1_555 1_555
N5 C5 1_555 1_555
N6 C7 1_555 1_555
N7 C6 1_555 1_555
N8 C9 1_555 1_555
N9 C11 1_555 1_555
N10 C18 1_555 1_555
N11 C12 1_555 1_555
N12 C17 1_555 1_555
N13 C25 1_555 1_555
N14 C28 1_555 1_555
H35 N14 1_555 1_555
H36 N14 1_555 1_555
O15 C1 1_555 1_555
O16 C7 1_555 1_555
O17 C13 1_555 1_555
O18 C4 1_555 1_555
O19 C10 1_555 1_555
O20 C16 1_555 1_555
C1A N1A 1_555 1_555
C2A H1A 1_555 1_555
C3A C2A 1_555 1_555
H2A C3A 1_555 1_555
C4A N3A 1_555 1_555
C5A H3A 1_555 1_555
H4A C5A 1_555 1_555
C6A H5A 1_555 1_555
H6A C6A 1_555 1_555
C7A N5A 1_555 1_555
C8A C9A 1_555 1_555
C9A C22A 1_555 1_555
C10A N7A 1_555 1_555
C11A H7A 1_555 1_555
H8A C11A 1_555 1_555
C12A H9A 1_555 1_555
H10A C12A 1_555 1_555
C13A N10 1_555 1_555
C14A H11A 1_555 1_555
C15A N10 1_555 1_555
H12A C15A 1_555 1_555
C16A N12 1_555 1_555
C17A H13A 1_555 1_555
H14A C17A 1_555 1_555
C18A H15A 1_555 1_555
H16A C18A 1_555 1_555
C19A C8A 1_555 1_555
H17A C19A 1_555 1_555
H18A C19A 1_555 1_555
C20A C19A 1_555 1_555
H19A C20A 1_555 1_555
H20A C20A 1_555 1_555
C21A C20A 1_555 1_555
H21A C21A 1_555 1_555
H22A C21A 1_555 1_555
C22A C21A 1_555 1_555
H23A C22A 1_555 1_555
H24A C22A 1_555 1_555
C23A H25A 1_555 1_555
C24A C23A 1_555 1_555
H26A C24A 1_555 1_555
C25A C24A 1_555 1_555
H27A C25A 1_555 1_555
C26A C23A 1_555 1_555
C27A C26A 1_555 1_555
H28A C27A 1_555 1_555
C28A C26A 1_555 1_555
H29A C28A 1_555 1_555
H30A C28A 1_555 1_555
C29A H31A 1_555 1_555
H32A C29A 1_555 1_555
C30A C30 1_555 1_555
H33A C30A 1_555 1_555
H34A C30A 1_555 1_555
N1A C2A 1_555 1_555
N2A C1A 1_555 1_555
N3A C2A 1_555 1_555
N4A C3A 1_555 1_555
N5A C5A 1_555 1_555
N6A C7A 1_555 1_555
N7A C6A 1_555 1_555
N8A C9A 1_555 1_555
N9A C11A 1_555 1_555
N10A C13 1_555 1_555
N11A C12A 1_555 1_555
N12A C15 1_555 1_555
N13A C25A 1_555 1_555
N14A C28A 1_555 1_555
H35A N14A 1_555 1_555
H36A N14A 1_555 1_555
O15A C1A 1_555 1_555
O16A C7A 1_555 1_555
O17A C13A 1_555 1_555
O18A C4A 1_555 1_555
O19A C10A 1_555 1_555
O20A C16A 1_555 1_555
C3 N2 1_555 1_555
C4 N4 1_555 1_555
C5 N2 1_555 1_555
C6 N4 1_555 1_555
C8 N5 1_555 1_555
C8 N7 1_555 1_555
C9 N6 1_555 1_555
C10 N8 1_555 1_555
C11 N6 1_555 1_555
C12 N8 1_555 1_555
C14 N9 1_555 1_555
C14 N11 1_555 1_555
C15 N10A 1_555 1_555
C16 N12A 1_555 1_555
C17 N1 1_555 1_555
C18 N3 1_555 1_555
C27 N13 1_555 1_555
C29 N14 1_555 1_555
N12 C15A 1_555 1_555
C3A N2A 1_555 1_555
C4A N4A 1_555 1_555
C5A N2A 1_555 1_555
C6A N4A 1_555 1_555
C8A N5A 1_555 1_555
C8A N7A 1_555 1_555
C9A N6A 1_555 1_555
C10A N8A 1_555 1_555
C11A N6A 1_555 1_555
C12A N8A 1_555 1_555
C13A N9A 1_555 1_555
C14A C15A 1_555 1_555
C14A N9A 1_555 1_555
C14A N11A 1_555 1_555
C16A N11A 1_555 1_555
C17A N1A 1_555 1_555
C17A N12A 1_555 1_555
C18A N3A 1_555 1_555
C18A N10A 1_555 1_555
C27A N13A 1_555 1_555
C29A C30A 1_555 1_555
C29A N14A 1_555 1_555

#END
