
#######################################################################
#
#                 Cambridge Crystallographic Data Centre
#                                CCDC 
#
#######################################################################
#
# If this CIF has been generated from an entry in the Cambridge 
# Structural Database, then it will include bibliographic, chemical, 
# crystal, experimental, refinement or atomic coordinate data resulting 
# from the CCDC's data processing and validation procedures.
#
#######################################################################

data_PUNNAO
_chemical_formula_moiety         'C60 H72 N24 O12,C9 H8 N2,10(H2 O1)'
_chemical_name_systematic        
'hexakis(butano)-cucurbit[6]uril 2-phenyl-2H-imidazole clathrate decahydrate'
_symmetry_cell_setting           monoclinic
_symmetry_space_group_name_H-M   'C 2/m'
_symmetry_Int_Tables_number      12
_space_group_name_Hall           '-C 2y'
loop_
_symmetry_equiv_pos_site_id
_symmetry_equiv_pos_as_xyz
1 x,y,z
2 -x,y,-z
3 1/2+x,1/2+y,z
4 1/2-x,1/2+y,-z
5 -x,-y,-z
6 x,-y,z
7 1/2-x,1/2-y,-z
8 1/2+x,1/2-y,z
_cell_length_a                   15.153(3)
_cell_length_b                   18.339(4)
_cell_length_c                   12.791(4)
_cell_angle_alpha                90
_cell_angle_beta                 93.282(4)
_cell_angle_gamma                90
_cell_volume                     3548.67
_exptl_crystal_colour            colorless
_exptl_crystal_description       block
_cell_formula_units_Z            2
loop_
_atom_site_label
_atom_site_type_symbol
_atom_site_fract_x
_atom_site_fract_y
_atom_site_fract_z
O2 O 0.6656(3) 0.2502(2) -0.0602(3)
C1 C 0.5253(4) 0.5000 0.1340(4)
C2 C 0.6718(3) 0.4569(2) 0.1457(3)
C3 C 0.7488(4) 0.5000 0.2970(5)
C4 C 0.5409(3) 0.3661(3) 0.1334(3)
H1 H 0.4824 0.3687 0.0985
H2 H 0.5777 0.3370 0.0900
C5 C 0.7427(3) 0.3667(2) 0.2814(4)
H3 H 0.7572 0.3374 0.2217
H4 H 0.7955 0.3704 0.3277
C6 C 0.4551(3) 0.3207(2) 0.2779(3)
C7 C 0.6052(3) 0.2864(2) 0.2850(3)
C8 C 0.5581(3) 0.2509(2) 0.3798(3)
C9 C 0.6786(3) 0.3229(2) 0.4439(3)
C10 C 0.6052(3) 0.2528(2) 0.5757(3)
H5 H 0.6598 0.2653 0.6150
H6 H 0.6020 0.2001 0.5713
C11 C 0.7192(4) 0.4258(3) 0.0525(4)
H7 H 0.7238 0.3732 0.0597
H8 H 0.6844 0.4361 -0.0118
C12 C 0.8109(4) 0.4579(4) 0.0454(6)
H9 H 0.8359 0.4406 -0.0182
H10 H 0.8485 0.4406 0.1043
C13 C 0.6422(4) 0.2252(4) 0.2155(5)
H11 H 0.6886 0.1994 0.2555
H12 H 0.6681 0.2473 0.1556
C14 C 0.5696(8) 0.1694(6) 0.1759(8)
H13 H 0.5286 0.1931 0.1257
H14 H 0.5973 0.1293 0.1407
C15 C 0.5187(7) 0.1396(5) 0.2671(7)
H15 H 0.4573 0.1546 0.2584
H16 H 0.5203 0.0867 0.2661
C16 C 0.5577(5) 0.1667(4) 0.3715(5)
H17 H 0.6178 0.1489 0.3817
H18 H 0.5239 0.1467 0.4269
N1 N 0.5777(2) 0.4399(2) 0.1421(3)
N2 N 0.5343(2) 0.3295(2) 0.2338(3)
N3 N 0.7176(2) 0.4397(2) 0.2448(3)
N4 N 0.6746(2) 0.3296(2) 0.3365(3)
N5 N 0.6081(2) 0.2822(2) 0.4706(2)
N6 N 0.4690(2) 0.27908(19) 0.3671(2)
O3 O 0.4443(3) 0.5000 0.1210(3)
O4 O 0.3841(2) 0.34346(18) 0.2433(2)
O5 O 0.7971(3) 0.5000 0.3781(3)
O6 O 0.73640(19) 0.34775(18) 0.5040(2)
C1A C 0.4747(4) 0.5000 0.8660(4)
C2E C 0.6718(3) 0.5431(2) 0.1457(3)
C2A C 0.3282(3) 0.4569(2) 0.8543(3)
C2D C 0.3282(3) 0.5431(2) 0.8543(3)
C3A C 0.2512(4) 0.5000 0.7030(5)
C4E C 0.5409(3) 0.6339(3) 0.1334(3)
C4D C 0.4591(3) 0.6339(3) 0.8666(3)
C4A C 0.4591(3) 0.3661(3) 0.8666(3)
H1E H 0.4824 0.6313 0.0985
H1D H 0.5176 0.6313 0.9015
H1A H 0.5176 0.3687 0.9015
H2E H 0.5777 0.6630 0.0900
H2D H 0.4223 0.6630 0.9100
H2A H 0.4223 0.3370 0.9100
C5E C 0.7427(3) 0.6333(2) 0.2814(4)
C5A C 0.2573(3) 0.3667(2) 0.7186(4)
C5D C 0.2573(3) 0.6333(2) 0.7186(4)
H3E H 0.7572 0.6626 0.2217
H3A H 0.2428 0.3374 0.7783
H3D H 0.2428 0.6626 0.7783
H4E H 0.7955 0.6296 0.3277
H4A H 0.2045 0.3704 0.6723
H4D H 0.2045 0.6296 0.6723
C6E C 0.4551(3) 0.6793(2) 0.2779(3)
C6D C 0.5449(3) 0.6793(2) 0.7221(3)
C6A C 0.5449(3) 0.3207(2) 0.7221(3)
C7E C 0.6052(3) 0.7136(2) 0.2850(3)
C7A C 0.3948(3) 0.2864(2) 0.7150(3)
C7D C 0.3948(3) 0.7136(2) 0.7150(3)
C8E C 0.5581(3) 0.7491(2) 0.3798(3)
C8A C 0.4419(3) 0.2509(2) 0.6202(3)
C8D C 0.4419(3) 0.7491(2) 0.6202(3)
C9E C 0.6786(3) 0.6771(2) 0.4439(3)
C9A C 0.3214(3) 0.3229(2) 0.5561(3)
C9D C 0.3214(3) 0.6771(2) 0.5561(3)
C10E C 0.6052(3) 0.7472(2) 0.5757(3)
C10A C 0.3948(3) 0.2528(2) 0.4243(3)
C10D C 0.3948(3) 0.7472(2) 0.4243(3)
H5E H 0.6598 0.7347 0.6150
H5A H 0.3402 0.2653 0.3850
H5D H 0.3402 0.7347 0.3850
H6E H 0.6020 0.7999 0.5713
H6A H 0.3980 0.2001 0.4287
H6D H 0.3980 0.7999 0.4287
C11E C 0.7192(4) 0.5742(3) 0.0525(4)
C11A C 0.2808(4) 0.4258(3) 0.9475(4)
C11D C 0.2808(4) 0.5742(3) 0.9475(4)
H7E H 0.7238 0.6268 0.0597
H7A H 0.2762 0.3732 0.9403
H7D H 0.2762 0.6268 0.9403
H8E H 0.6844 0.5639 -0.0118
H8A H 0.3156 0.4361 1.0118
H8D H 0.3156 0.5639 1.0118
C12E C 0.8109(4) 0.5421(4) 0.0454(6)
C12A C 0.1891(4) 0.4579(4) 0.9546(6)
C12D C 0.1891(4) 0.5421(4) 0.9546(6)
H9D H 0.1641 0.5594 1.0182
H9A H 0.1641 0.4406 1.0182
H9E H 0.8359 0.5594 -0.0182
H10D H 0.1515 0.5594 0.8957
H10A H 0.1515 0.4406 0.8957
H10E H 0.8485 0.5594 0.1043
C13E C 0.6422(4) 0.7748(4) 0.2155(5)
C13A C 0.3578(4) 0.2252(4) 0.7845(5)
C13D C 0.3578(4) 0.7748(4) 0.7845(5)
H11E H 0.6886 0.8006 0.2555
H11A H 0.3114 0.1994 0.7445
H11D H 0.3114 0.8006 0.7445
H12E H 0.6681 0.7527 0.1556
H12A H 0.3319 0.2473 0.8444
H12D H 0.3319 0.7527 0.8444
C14E C 0.5696(8) 0.8306(6) 0.1759(8)
C14A C 0.4304(8) 0.1694(6) 0.8241(8)
C14D C 0.4304(8) 0.8306(6) 0.8241(8)
H13E H 0.5286 0.8069 0.1257
H13A H 0.4714 0.1931 0.8743
H13D H 0.4714 0.8069 0.8743
H14E H 0.5973 0.8707 0.1407
H14A H 0.4027 0.1293 0.8593
H14D H 0.4027 0.8707 0.8593
C15E C 0.5187(7) 0.8604(5) 0.2671(7)
C15A C 0.4813(7) 0.1396(5) 0.7329(7)
C15D C 0.4813(7) 0.8604(5) 0.7329(7)
H15E H 0.4573 0.8454 0.2584
H15A H 0.5427 0.1546 0.7416
H15D H 0.5427 0.8454 0.7416
H16E H 0.5203 0.9133 0.2661
H16A H 0.4797 0.0867 0.7339
H16D H 0.4797 0.9133 0.7339
C16E C 0.5577(5) 0.8333(4) 0.3715(5)
C16A C 0.4423(5) 0.1667(4) 0.6285(5)
C16D C 0.4423(5) 0.8333(4) 0.6285(5)
H17A H 0.3822 0.1489 0.6183
H17D H 0.3822 0.8511 0.6183
H17E H 0.6178 0.8511 0.3817
H18A H 0.4761 0.1467 0.5731
H18D H 0.4761 0.8533 0.5731
H18E H 0.5239 0.8533 0.4269
N1E N 0.5777(2) 0.5601(2) 0.1421(3)
N1D N 0.4223(2) 0.5601(2) 0.8579(3)
N1A N 0.4223(2) 0.4399(2) 0.8579(3)
N2E N 0.5343(2) 0.6705(2) 0.2338(3)
N2D N 0.4657(2) 0.6705(2) 0.7662(3)
N2A N 0.4657(2) 0.3295(2) 0.7662(3)
N3E N 0.7176(2) 0.5603(2) 0.2448(3)
N3D N 0.2824(2) 0.5603(2) 0.7552(3)
N3A N 0.2824(2) 0.4397(2) 0.7552(3)
N4E N 0.6746(2) 0.6704(2) 0.3365(3)
N4A N 0.3254(2) 0.3296(2) 0.6635(3)
N4D N 0.3254(2) 0.6704(2) 0.6635(3)
N5E N 0.6081(2) 0.7178(2) 0.4706(2)
N5A N 0.3919(2) 0.2822(2) 0.5294(2)
N5D N 0.3919(2) 0.7178(2) 0.5294(2)
N6E N 0.4690(2) 0.72092(19) 0.3671(2)
N6D N 0.5310(2) 0.72092(19) 0.6329(2)
N6A N 0.5310(2) 0.27908(19) 0.6329(2)
O3A O 0.5557(3) 0.5000 0.8790(3)
O4A O 0.6159(2) 0.34346(18) 0.7567(2)
O4D O 0.6159(2) 0.65654(18) 0.7567(2)
O4E O 0.3841(2) 0.65654(18) 0.2433(2)
O5A O 0.2029(3) 0.5000 0.6219(3)
O6E O 0.73640(19) 0.65225(18) 0.5040(2)
O6A O 0.26360(19) 0.34775(18) 0.4960(2)
O6D O 0.26360(19) 0.65225(18) 0.4960(2)
N7 N 0.6895(9) 0.5000 0.7315(9)
C17 C 0.7720(13) 0.5000 0.7656(15)
H19 H 0.7962 0.5000 0.8341
C18 C 0.8170(13) 0.5000 0.666(2)
H20 H 0.8778 0.5000 0.6591
N8 N 0.7571(8) 0.5000 0.5903(8)
C19 C 0.6734(6) 0.5000 0.6269(7)
C20 C 0.5817(5) 0.5000 0.5589(5)
C21 C 0.5774(7) 0.5000 0.4544(8)
H21 H 0.6296 0.5000 0.4194
C22 C 0.5050(7) 0.5000 0.6047(7)
H22 H 0.5053 0.5000 0.6774
N7A N 0.3105(9) 0.5000 0.2685(9)
C17A C 0.2280(13) 0.5000 0.2344(15)
H19A H 0.2038 0.5000 0.1659
C18A C 0.1830(13) 0.5000 0.334(2)
H20A H 0.1222 0.5000 0.3409
N8A N 0.2429(8) 0.5000 0.4097(8)
C19A C 0.3266(6) 0.5000 0.3731(7)
C20A C 0.4183(5) 0.5000 0.4411(5)
C21A C 0.4226(7) 0.5000 0.5456(8)
H21A H 0.3704 0.5000 0.5806
C22A C 0.4950(7) 0.5000 0.3953(7)
H22A H 0.4947 0.5000 0.3226
O7 O 0.5000 0.1912(10) 0.0000
O1 O 0.4612(9) 0.0601(14) 0.368(2)
H23? H 0.6472 0.5000 0.7737
H24? H 0.7680 0.5000 0.5251
loop_
_geom_bond_atom_site_label_1
_geom_bond_atom_site_label_2
_geom_bond_site_symmetry_1
_geom_bond_site_symmetry_2
C1 N1 1_555 1_555
C2 C11 1_555 1_555
C3 N3 1_555 1_555
C4 H1 1_555 1_555
H2 C4 1_555 1_555
C5 H3 1_555 1_555
H4 C5 1_555 1_555
C6 N2 1_555 1_555
C7 C8 1_555 1_555
C8 C16 1_555 1_555
C9 N4 1_555 1_555
C10 H5 1_555 1_555
H6 C10 1_555 1_555
C11 H7 1_555 1_555
H8 C11 1_555 1_555
C12 C11 1_555 1_555
H9 C12 1_555 1_555
H10 C12 1_555 1_555
C13 C7 1_555 1_555
H11 C13 1_555 1_555
H12 C13 1_555 1_555
C14 C13 1_555 1_555
H13 C14 1_555 1_555
H14 C14 1_555 1_555
C15 C14 1_555 1_555
H15 C15 1_555 1_555
H16 C15 1_555 1_555
C16 C15 1_555 1_555
H17 C16 1_555 1_555
H18 C16 1_555 1_555
N1 C2 1_555 1_555
N2 C4 1_555 1_555
N3 C2 1_555 1_555
N4 C5 1_555 1_555
N5 C8 1_555 1_555
N6 C6 1_555 1_555
O3 C1 1_555 1_555
O4 C6 1_555 1_555
O5 C3 1_555 1_555
O6 C9 1_555 1_555
N7 C17 1_555 1_555
C17 H19 1_555 1_555
C18 C17 1_555 1_555
H20 C18 1_555 1_555
N8 C18 1_555 1_555
C19 N7 1_555 1_555
C20 C19 1_555 1_555
C21 C20 1_555 1_555
H21 C21 1_555 1_555
C22 C20 1_555 1_555
H22 C22 1_555 1_555
C1A N1D 1_555 1_555
C2E C2 1_555 1_555
C2A C2D 1_555 1_555
C2D C11D 1_555 1_555
C3A N3D 1_555 1_555
C4E H1E 1_555 1_555
C4D H1D 1_555 1_555
C4A H1A 1_555 1_555
H2E C4E 1_555 1_555
H2D C4D 1_555 1_555
H2A C4A 1_555 1_555
C5E H3E 1_555 1_555
C5A H3A 1_555 1_555
C5D H3D 1_555 1_555
H4E C5E 1_555 1_555
H4A C5A 1_555 1_555
H4D C5D 1_555 1_555
C6E N2E 1_555 1_555
C6D N2D 1_555 1_555
C6A N2A 1_555 1_555
C7E C8E 1_555 1_555
C7A C8A 1_555 1_555
C7D C8D 1_555 1_555
C8E C16E 1_555 1_555
C8A C16A 1_555 1_555
C8D C16D 1_555 1_555
C9E N4E 1_555 1_555
C9A N4A 1_555 1_555
C9D N4D 1_555 1_555
C10E H5E 1_555 1_555
C10A N6 1_555 1_555
C10D H5D 1_555 1_555
H5A C10A 1_555 1_555
H6E C10E 1_555 1_555
H6A C10A 1_555 1_555
H6D C10D 1_555 1_555
C11E C2E 1_555 1_555
C11A C2A 1_555 1_555
C11D H7D 1_555 1_555
H7E C11E 1_555 1_555
H7A C11A 1_555 1_555
H8E C11E 1_555 1_555
H8A C11A 1_555 1_555
H8D C11D 1_555 1_555
C12E C12 1_555 1_555
C12A C11A 1_555 1_555
C12D C11D 1_555 1_555
H9D C12D 1_555 1_555
H9A C12A 1_555 1_555
H9E C12E 1_555 1_555
H10D C12D 1_555 1_555
H10A C12A 1_555 1_555
H10E C12E 1_555 1_555
C13E C7E 1_555 1_555
C13A C7A 1_555 1_555
C13D C7D 1_555 1_555
H11E C13E 1_555 1_555
H11A C13A 1_555 1_555
H11D C13D 1_555 1_555
H12E C13E 1_555 1_555
H12A C13A 1_555 1_555
H12D C13D 1_555 1_555
C14E C13E 1_555 1_555
C14A C13A 1_555 1_555
C14D C13D 1_555 1_555
H13E C14E 1_555 1_555
H13A C14A 1_555 1_555
H13D C14D 1_555 1_555
H14E C14E 1_555 1_555
H14A C14A 1_555 1_555
H14D C14D 1_555 1_555
C15E C14E 1_555 1_555
C15A C14A 1_555 1_555
C15D C14D 1_555 1_555
H15E C15E 1_555 1_555
H15A C15A 1_555 1_555
H15D C15D 1_555 1_555
H16E C15E 1_555 1_555
H16A C15A 1_555 1_555
H16D C15D 1_555 1_555
C16E C15E 1_555 1_555
C16A C15A 1_555 1_555
C16D C15D 1_555 1_555
H17A C16A 1_555 1_555
H17D C16D 1_555 1_555
H17E C16E 1_555 1_555
H18A C16A 1_555 1_555
H18D C16D 1_555 1_555
H18E C16E 1_555 1_555
N1E C1 1_555 1_555
N1D C2D 1_555 1_555
N1A C1A 1_555 1_555
N2E C4E 1_555 1_555
N2D C4D 1_555 1_555
N2A C4A 1_555 1_555
N3E C3 1_555 1_555
N3D C2D 1_555 1_555
N3A C2A 1_555 1_555
N4E C5E 1_555 1_555
N4A C5A 1_555 1_555
N4D C5D 1_555 1_555
N5E C8E 1_555 1_555
N5A C8A 1_555 1_555
N5D C8D 1_555 1_555
N6E C6E 1_555 1_555
N6D C6D 1_555 1_555
N6A C10 1_555 1_555
O3A C1A 1_555 1_555
O4A C6A 1_555 1_555
O4D C6D 1_555 1_555
O4E C6E 1_555 1_555
O5A C3A 1_555 1_555
O6E C9E 1_555 1_555
O6A C9A 1_555 1_555
O6D C9D 1_555 1_555
N7A C17A 1_555 1_555
C17A H19A 1_555 1_555
C18A C17A 1_555 1_555
H20A C18A 1_555 1_555
N8A C18A 1_555 1_555
C19A N7A 1_555 1_555
C20A C19A 1_555 1_555
C21A C22 1_555 1_555
H21A C21A 1_555 1_555
C22A C21 1_555 1_555
H22A C22A 1_555 1_555
C4 N1 1_555 1_555
C5 N3 1_555 1_555
C7 N2 1_555 1_555
C7 N4 1_555 1_555
C8 N6 1_555 1_555
C9 N5 1_555 1_555
C10 N5 1_555 1_555
N8 C19 1_555 1_555
C2E N1E 1_555 1_555
C2E N3E 1_555 1_555
C2A N1A 1_555 1_555
C3A N3A 1_555 1_555
C4E N1E 1_555 1_555
C4D N1D 1_555 1_555
C4A N1A 1_555 1_555
C5E N3E 1_555 1_555
C5A N3A 1_555 1_555
C5D N3D 1_555 1_555
C6A N6A 1_555 1_555
C7E N2E 1_555 1_555
C7E N4E 1_555 1_555
C7A N2A 1_555 1_555
C7A N4A 1_555 1_555
C7D N2D 1_555 1_555
C7D N4D 1_555 1_555
C8E N6E 1_555 1_555
C8A N6A 1_555 1_555
C8D N6D 1_555 1_555
C9E N5E 1_555 1_555
C9A N5A 1_555 1_555
C9D N5D 1_555 1_555
C10E N5E 1_555 1_555
C10E N6D 1_555 1_555
C10A N5A 1_555 1_555
C10D N5D 1_555 1_555
C10D N6E 1_555 1_555
C11E C12E 1_555 1_555
C12A C12D 1_555 1_555
N8A C19A 1_555 1_555
C20A C21A 1_555 1_555
C20A C22A 1_555 1_555

#END
