
#######################################################################
#
#                 Cambridge Crystallographic Data Centre
#                                CCDC 
#
#######################################################################
#
# If this CIF has been generated from an entry in the Cambridge 
# Structural Database, then it will include bibliographic, chemical, 
# crystal, experimental, refinement or atomic coordinate data resulting 
# from the CCDC's data processing and validation procedures.
#
#######################################################################

data_PUNRIZ
_chemical_formula_moiety         'C36 H38 Mg2 N8 O9'
_chemical_name_systematic        
(\m~2~-Aqua)-bis((\m~2~-acetato-O,O')-acetoxy-bis(benzimidazol-3-yl)-magnesium(ii))
_symmetry_cell_setting           orthorhombic
_symmetry_space_group_name_H-M   'A b a 2'
_symmetry_Int_Tables_number      41
_space_group_name_Hall           'A 2 -2ab'
loop_
_symmetry_equiv_pos_site_id
_symmetry_equiv_pos_as_xyz
1 x,y,z
2 -x,-y,z
3 1/2-x,1/2+y,z
4 1/2+x,1/2-y,z
5 x,1/2+y,1/2+z
6 -x,1/2-y,1/2+z
7 1/2-x,y,1/2+z
8 1/2+x,-y,1/2+z
_cell_length_a                   18.884(1)
_cell_length_b                   8.868(1)
_cell_length_c                   22.904(2)
_cell_angle_alpha                90
_cell_angle_beta                 90
_cell_angle_gamma                90
_cell_volume                     3835.58
_exptl_crystal_colour            colorless
_cell_formula_units_Z            4
_exptl_crystal_recrystallization_method 'diethyl ether/methanol'
loop_
_atom_site_label
_atom_site_type_symbol
_atom_site_fract_x
_atom_site_fract_y
_atom_site_fract_z
Mg1 Mg 0.0813(1) 0.1087(1) 0.4935
O1 O 0.0000 0.0000 0.4446(2)
N1 N 0.1628(1) 0.2221(3) 0.5452(2)
C1 C 0.2238(2) 0.2661(4) 0.5221(2)
N2 N 0.2620(1) 0.3559(3) 0.5564(2)
C2 C 0.2254(2) 0.3719(4) 0.6083(2)
C3 C 0.2401(2) 0.4510(5) 0.6591(2)
C4 C 0.1908(3) 0.4414(6) 0.7030(2)
C5 C 0.1289(2) 0.3560(5) 0.6974(2)
C6 C 0.1141(2) 0.2773(4) 0.6465(2)
C7 C 0.1627(2) 0.2875(1) 0.6007(2)
N3 N 0.0792(2) 0.2978(3) 0.4296(2)
C8 C 0.0832(2) 0.4391(4) 0.4463(2)
N4 N 0.0889(2) 0.5379(3) 0.4020(2)
C9 C 0.0880(2) 0.4576(4) 0.3514(2)
C10 C 0.0917(2) 0.5014(6) 0.2929(3)
C11 C 0.0870(3) 0.3894(7) 0.2517(3)
C12 C 0.0789(3) 0.2380(6) 0.2677(2)
C13 C 0.0764(2) 0.1947(4) 0.3256(2)
C14 C 0.0811(2) 0.3053(4) 0.3680(2)
O2 O 0.0913(1) -0.0799(3) 0.5469(1)
O3 O 0.0065(1) 0.2186(3) 0.5406(1)
C15 C 0.0547(2) -0.1947(4) 0.5584(2)
C16 C 0.0879(2) -0.3150(5) 0.5968(2)
O4 O 0.1614(1) 0.0179(3) 0.4417(1)
O5 O 0.1000(1) -0.1552(3) 0.3927(1)
C17 C 0.1572(2) -0.0860(4) 0.4049(2)
C18 C 0.2234(2) -0.1322(5) 0.3721(2)
H1 H 0.0265(24) -0.0529(51) 0.4192(20)
H2 H 0.2386(2) 0.2368(4) 0.4851(2)
H3 H 0.3021(1) 0.3964(3) 0.5479(2)
H4 H 0.2812(2) 0.5077(5) 0.6632(2)
H5 H 0.1989(3) 0.4933(6) 0.7377(2)
H6 H 0.0971(2) 0.3519(5) 0.7283(2)
H7 H 0.0731(2) 0.2198(4) 0.6430(2)
H8 H 0.0822(2) 0.4683(4) 0.4853(2)
H9 H 0.0925(2) 0.6343(3) 0.4051(2)
H10 H 0.0970(2) 0.6020(6) 0.2824(3)
H11 H 0.0893(3) 0.4146(7) 0.2123(3)
H12 H 0.0751(3) 0.1649(6) 0.2388(2)
H13 H 0.0716(2) 0.0937(4) 0.3358(2)
H14 H 0.1348(2) -0.2844(5) 0.6078(2)
H15 H 0.0903(2) -0.4084(5) 0.5757(2)
H16 H 0.0596(2) -0.3284(5) 0.6312(2)
H17 H 0.2122(2) -0.2125(5) 0.3456(2)
H18 H 0.2585(2) -0.1660(5) 0.3994(2)
H19 H 0.2414(2) -0.0475(5) 0.3507(2)
Mg1A Mg -0.0813(1) -0.1087(1) 0.4935
N1A N -0.1628(1) -0.2221(3) 0.5452(2)
C1A C -0.2238(2) -0.2661(4) 0.5221(2)
N2A N -0.2620(1) -0.3559(3) 0.5564(2)
C2A C -0.2254(2) -0.3719(4) 0.6083(2)
C3A C -0.2401(2) -0.4510(5) 0.6591(2)
C4A C -0.1908(3) -0.4414(6) 0.7030(2)
C5A C -0.1289(2) -0.3560(5) 0.6974(2)
C6A C -0.1141(2) -0.2773(4) 0.6465(2)
C7A C -0.1627(2) -0.2875(1) 0.6007(2)
H7A H -0.0731(2) -0.2198(4) 0.6430(2)
H6A H -0.0971(2) -0.3519(5) 0.7283(2)
H5A H -0.1989(3) -0.4933(6) 0.7377(2)
H4A H -0.2812(2) -0.5077(5) 0.6632(2)
H3A H -0.3021(1) -0.3964(3) 0.5479(2)
H2A H -0.2386(2) -0.2368(4) 0.4851(2)
N3A N -0.0792(2) -0.2978(3) 0.4296(2)
C8A C -0.0832(2) -0.4391(4) 0.4463(2)
N4A N -0.0889(2) -0.5379(3) 0.4020(2)
C9A C -0.0880(2) -0.4576(4) 0.3514(2)
C10A C -0.0917(2) -0.5014(6) 0.2929(3)
C11A C -0.0870(3) -0.3894(7) 0.2517(3)
C12A C -0.0789(3) -0.2380(6) 0.2677(2)
C13A C -0.0764(2) -0.1947(4) 0.3256(2)
C14A C -0.0811(2) -0.3053(4) 0.3680(2)
H13A H -0.0716(2) -0.0937(4) 0.3358(2)
H12A H -0.0751(3) -0.1649(6) 0.2388(2)
H11A H -0.0893(3) -0.4146(7) 0.2123(3)
H10A H -0.0970(2) -0.6020(6) 0.2824(3)
H9A H -0.0925(2) -0.6343(3) 0.4051(2)
H8A H -0.0822(2) -0.4683(4) 0.4853(2)
O2A O -0.0913(1) 0.0799(3) 0.5469(1)
C15A C -0.0547(2) 0.1947(4) 0.5584(2)
O3A O -0.0065(1) -0.2186(3) 0.5406(1)
O4A O -0.1614(1) -0.0179(3) 0.4417(1)
C17A C -0.1572(2) 0.0860(4) 0.4049(2)
O5A O -0.1000(1) 0.1552(3) 0.3927(1)
C18A C -0.2234(2) 0.1322(5) 0.3721(2)
H17A H -0.2122(2) 0.2125(5) 0.3456(2)
H18A H -0.2585(2) 0.1660(5) 0.3994(2)
H19A H -0.2414(2) 0.0475(5) 0.3507(2)
C16A C -0.0879(2) 0.3150(5) 0.5968(2)
H14A H -0.1348(2) 0.2844(5) 0.6078(2)
H15A H -0.0903(2) 0.4084(5) 0.5757(2)
H16A H -0.0596(2) 0.3284(5) 0.6312(2)
H1A H -0.0265(24) 0.0529(51) 0.4192(20)
loop_
_geom_bond_atom_site_label_1
_geom_bond_atom_site_label_2
_geom_bond_site_symmetry_1
_geom_bond_site_symmetry_2
Mg1 O1 1_555 1_555
O1 H1 1_555 1_555
N1 Mg1 1_555 1_555
C1 N1 1_555 1_555
N2 C1 1_555 1_555
C2 N2 1_555 1_555
C3 C2 1_555 1_555
C4 C3 1_555 1_555
C5 C4 1_555 1_555
C6 C5 1_555 1_555
C7 N1 1_555 1_555
N3 Mg1 1_555 1_555
C8 N3 1_555 1_555
N4 C8 1_555 1_555
C9 N4 1_555 1_555
C10 C9 1_555 1_555
C11 C10 1_555 1_555
C12 C11 1_555 1_555
C13 C12 1_555 1_555
C14 N3 1_555 1_555
O2 Mg1 1_555 1_555
O3 Mg1 1_555 1_555
C15 O2 1_555 1_555
C16 C15 1_555 1_555
O4 Mg1 1_555 1_555
O5 C17 1_555 1_555
C17 O4 1_555 1_555
C18 C17 1_555 1_555
H2 C1 1_555 1_555
H3 N2 1_555 1_555
H4 C3 1_555 1_555
H5 C4 1_555 1_555
H6 C5 1_555 1_555
H7 C6 1_555 1_555
H8 C8 1_555 1_555
H9 N4 1_555 1_555
H10 C10 1_555 1_555
H11 C11 1_555 1_555
H12 C12 1_555 1_555
H13 C13 1_555 1_555
H14 C16 1_555 1_555
H15 C16 1_555 1_555
H16 C16 1_555 1_555
H17 C18 1_555 1_555
H18 C18 1_555 1_555
H19 C18 1_555 1_555
Mg1A O1 1_555 1_555
N1A Mg1A 1_555 1_555
C1A N1A 1_555 1_555
N2A C1A 1_555 1_555
C2A N2A 1_555 1_555
C3A C2A 1_555 1_555
C4A C3A 1_555 1_555
C5A C4A 1_555 1_555
C6A C5A 1_555 1_555
C7A N1A 1_555 1_555
H7A C6A 1_555 1_555
H6A C5A 1_555 1_555
H5A C4A 1_555 1_555
H4A C3A 1_555 1_555
H3A N2A 1_555 1_555
H2A C1A 1_555 1_555
N3A Mg1A 1_555 1_555
C8A N3A 1_555 1_555
N4A C8A 1_555 1_555
C9A N4A 1_555 1_555
C10A C9A 1_555 1_555
C11A C10A 1_555 1_555
C12A C11A 1_555 1_555
C13A C12A 1_555 1_555
C14A N3A 1_555 1_555
H13A C13A 1_555 1_555
H12A C12A 1_555 1_555
H11A C11A 1_555 1_555
H10A C10A 1_555 1_555
H9A N4A 1_555 1_555
H8A C8A 1_555 1_555
O2A Mg1A 1_555 1_555
C15A O3 1_555 1_555
O3A C15 1_555 1_555
O4A Mg1A 1_555 1_555
C17A O4A 1_555 1_555
O5A C17A 1_555 1_555
C18A C17A 1_555 1_555
H17A C18A 1_555 1_555
H18A C18A 1_555 1_555
H19A C18A 1_555 1_555
C16A C15A 1_555 1_555
H14A C16A 1_555 1_555
H15A C16A 1_555 1_555
H16A C16A 1_555 1_555
H1A O1 1_555 1_555
C2 C7 1_555 1_555
C6 C7 1_555 1_555
C9 C14 1_555 1_555
C13 C14 1_555 1_555
Mg1A O3A 1_555 1_555
C2A C7A 1_555 1_555
C6A C7A 1_555 1_555
C9A C14A 1_555 1_555
C13A C14A 1_555 1_555
O2A C15A 1_555 1_555

#END
