
#######################################################################
#
#                 Cambridge Crystallographic Data Centre
#                                CCDC 
#
#######################################################################
#
# If this CIF has been generated from an entry in the Cambridge 
# Structural Database, then it will include bibliographic, chemical, 
# crystal, experimental, refinement or atomic coordinate data resulting 
# from the CCDC's data processing and validation procedures.
#
#######################################################################

data_PUNWOM
_chemical_formula_moiety         'C30 H45 K1 N4 Si1'
_chemical_name_systematic        
(tris((dimethylamino)ethyl)amine)-(triphenylsilane)-potassium
_symmetry_cell_setting           orthorhombic
_symmetry_space_group_name_H-M   'P n m a'
_symmetry_Int_Tables_number      62
_space_group_name_Hall           '-P 2ac 2n'
loop_
_symmetry_equiv_pos_site_id
_symmetry_equiv_pos_as_xyz
1 x,y,z
2 1/2-x,-y,1/2+z
3 1/2+x,1/2-y,1/2-z
4 -x,1/2+y,-z
5 -x,-y,-z
6 1/2+x,y,1/2-z
7 1/2-x,1/2+y,1/2+z
8 x,1/2-y,z
_cell_length_a                   18.0781(12)
_cell_length_b                   16.5653(11)
_cell_length_c                   10.2552(7)
_cell_angle_alpha                90
_cell_angle_beta                 90
_cell_angle_gamma                90
_cell_volume                     3071.12
_exptl_crystal_colour            orange
_exptl_crystal_description       block
_cell_formula_units_Z            4
_chemical_properties_physical    
'Air-sensitive, Moisture-sensitive, Hygroscopic, Heat-sensitive, Oxygen-sensitive'
_exptl_crystal_recrystallization_method tetrahydrofuran
loop_
_atom_site_label
_atom_site_type_symbol
_atom_site_fract_x
_atom_site_fract_y
_atom_site_fract_z
K1 K 0.45413(3) 0.2500 0.61088(4)
Si1 Si 0.61165(4) 0.2500 0.40266(6)
N1 N 0.5013(2) 0.3771(2) 0.7770(4)
C1 C 0.5799(2) 0.3564(3) 0.7732(4)
H1 H 0.5979 0.3601 0.6832
H2 H 0.5868 0.3013 0.8054
H3 H 0.6077 0.3941 0.8283
C2 C 0.4905(3) 0.4594(3) 0.7318(5)
H4 H 0.4374 0.4714 0.7287
H5 H 0.5117 0.4653 0.6444
H6 H 0.5149 0.4969 0.7917
C3 C 0.4729(3) 0.3698(3) 0.9099(4)
H7 H 0.4229 0.3941 0.9131
H8 H 0.5052 0.4015 0.9688
C4 C 0.4683(2) 0.2832(2) 0.9613(3)
H9 H 0.5187 0.2598 0.9620
H10 H 0.4504 0.2846 1.0524
C5 C 0.34136(15) 0.2500 0.9100(2)
C6 C 0.2511(2) 0.2011(2) 0.5877(4)
H11 H 0.1996 0.2095 0.6141
H12 H 0.2636 0.1437 0.5952
H13 H 0.2576 0.2186 0.4971
N2 N 0.30172(12) 0.2500 0.6754(2)
C7 C 0.51311(13) 0.2500 0.3348(2)
C8 C 0.47178(11) 0.32170(13) 0.32318(17)
H14 H 0.4966 0.3720 0.3304
C9 C 0.39587(12) 0.32132(19) 0.3016(2)
H15 H 0.3701 0.3711 0.2940
C10 C 0.35755(17) 0.2500 0.2911(3)
H16 H 0.3056 0.2500 0.2768
C11 C 0.65436(9) 0.16067(10) 0.30812(16)
C12 C 0.70618(11) 0.11106(11) 0.3696(2)
H17 H 0.7183 0.1216 0.4581
C13 C 0.74069(12) 0.04699(12) 0.3069(2)
H18 H 0.7761 0.0152 0.3523
C14 C 0.72375(12) 0.02947(12) 0.1795(2)
H19 H 0.7476 -0.0140 0.1360
C15 C 0.67178(14) 0.07571(14) 0.1157(2)
H20 H 0.6589 0.0634 0.0281
C16 C 0.63810(13) 0.14026(13) 0.17850(18)
H21 H 0.6029 0.1717 0.1321
N3 N 0.41928(16) 0.22987(15) 0.8845(3)
H22 H 0.2908 0.1583 0.8082
H23 H 0.2367 0.2326 0.8367
C17 C 0.2876(2) 0.2180(2) 0.8101(3)
C8G C 0.47178(11) 0.17830(13) 0.32318(17)
H14G H 0.4966 0.1280 0.3304
C9G C 0.39587(12) 0.17868(19) 0.3016(2)
H15G H 0.3701 0.1289 0.2940
C11G C 0.65436(9) 0.33933(10) 0.30812(16)
C12G C 0.70618(11) 0.38894(11) 0.3696(2)
H17G H 0.7183 0.3784 0.4581
C13G C 0.74069(12) 0.45301(12) 0.3069(2)
H18G H 0.7761 0.4848 0.3523
C14G C 0.72375(12) 0.47053(12) 0.1795(2)
H19G H 0.7476 0.5140 0.1360
C15G C 0.67178(14) 0.42429(14) 0.1157(2)
H20G H 0.6589 0.4366 0.0281
C16G C 0.63810(13) 0.35974(13) 0.17850(18)
H21G H 0.6029 0.3283 0.1321
N1G N 0.5013(2) 0.1229(2) 0.7770(4)
C1G C 0.5799(2) 0.1436(3) 0.7732(4)
H1G H 0.5979 0.1399 0.6832
H2G H 0.5868 0.1987 0.8054
H3G H 0.6077 0.1059 0.8283
C2G C 0.4905(3) 0.0406(3) 0.7318(5)
H4G H 0.4374 0.0286 0.7287
H5G H 0.5117 0.0347 0.6444
H6G H 0.5149 0.0031 0.7917
C3G C 0.4729(3) 0.1302(3) 0.9099(4)
H7G H 0.4229 0.1059 0.9131
H8G H 0.5052 0.0985 0.9688
C4G C 0.4683(2) 0.2168(2) 0.9613(3)
H9G H 0.5187 0.2402 0.9620
H10G H 0.4504 0.2154 1.0524
C6G C 0.2511(2) 0.2989(2) 0.5877(4)
H11G H 0.1996 0.2905 0.6141
H12G H 0.2636 0.3563 0.5952
H13G H 0.2576 0.2814 0.4971
N3G N 0.41928(16) 0.27013(15) 0.8845(3)
H22G H 0.2908 0.3417 0.8082
H23G H 0.2367 0.2674 0.8367
C17G C 0.2876(2) 0.2820(2) 0.8101(3)
N4? N 0.5032(2) 0.1069(2) 0.7187(4)
C18? C 0.5746(2) 0.4250(3) 0.6749(5)
C19? C 0.4434(2) 0.4412(2) 0.6635(4)
H24? H 0.4495 0.4446 0.5687
H25? H 0.5758 0.4263 0.5794
H26? H 0.5813 0.4798 0.7089
H27? H 0.4447 0.4957 0.7010
H28? H 0.6145 0.3903 0.7071
C20? C 0.5012(3) 0.1077(3) 0.8617(5)
H29? H 0.5056 0.0514 0.8932
C21? C 0.4329(3) 0.1447(3) 0.9210(4)
H30? H 0.3895 0.1122 0.8946
H31? H 0.4370 0.1414 1.0171
N5? N 0.41928(16) 0.22987(15) 0.8845(3)
H32? H 0.3275 0.2283 0.9966
H33? H 0.3364 0.3095 0.9139
C22? C 0.2922(2) 0.3312(2) 0.6609(4)
H34? H 0.2427 0.1536 0.6913
H35? H 0.2975 0.1543 0.5687
H36? H 0.5450 0.3624 0.8937
H37? H 0.3958 0.4159 0.6838
H38? H 0.3296 0.3600 0.7123
loop_
_geom_bond_atom_site_label_1
_geom_bond_atom_site_label_2
_geom_bond_site_symmetry_1
_geom_bond_site_symmetry_2
K1 N1 1_555 1_555
Si1 C7 1_555 1_555
N1 C1 1_555 1_555
C1 H1 1_555 1_555
H2 C1 1_555 1_555
H3 C1 1_555 1_555
C2 N1 1_555 1_555
H4 C2 1_555 1_555
H5 C2 1_555 1_555
H6 C2 1_555 1_555
C3 N1 1_555 1_555
H7 C3 1_555 1_555
H8 C3 1_555 1_555
C4 C3 1_555 1_555
H9 C4 1_555 1_555
H10 C4 1_555 1_555
C5 N3 1_555 1_555
C6 H11 1_555 1_555
H12 C6 1_555 1_555
H13 C6 1_555 1_555
N2 K1 1_555 1_555
C7 K1 1_555 1_555
C8 K1 1_555 1_555
H14 C8 1_555 1_555
C9 C8 1_555 1_555
H15 C9 1_555 1_555
C10 C9 1_555 1_555
H16 C10 1_555 1_555
C11 Si1 1_555 1_555
C12 C11 1_555 1_555
H17 C12 1_555 1_555
C13 C12 1_555 1_555
H18 C13 1_555 1_555
C14 C13 1_555 1_555
H19 C14 1_555 1_555
C15 C14 1_555 1_555
H20 C15 1_555 1_555
C16 C11 1_555 1_555
H21 C16 1_555 1_555
N3 K1 1_555 1_555
H22 C17 1_555 1_555
H23 C17 1_555 1_555
C17 C5 1_555 1_555
C8G K1 1_555 1_555
H14G C8G 1_555 1_555
C9G C10 1_555 1_555
H15G C9G 1_555 1_555
C11G Si1 1_555 1_555
C12G C11G 1_555 1_555
H17G C12G 1_555 1_555
C13G C12G 1_555 1_555
H18G C13G 1_555 1_555
C14G C13G 1_555 1_555
H19G C14G 1_555 1_555
C15G C14G 1_555 1_555
H20G C15G 1_555 1_555
C16G C11G 1_555 1_555
H21G C16G 1_555 1_555
N1G K1 1_555 1_555
C1G N1G 1_555 1_555
H1G C1G 1_555 1_555
H2G C1G 1_555 1_555
H3G C1G 1_555 1_555
C2G N1G 1_555 1_555
H4G C2G 1_555 1_555
H5G C2G 1_555 1_555
H6G C2G 1_555 1_555
C3G N1G 1_555 1_555
H7G C3G 1_555 1_555
H8G C3G 1_555 1_555
C4G N3 1_555 1_555
H9G C4G 1_555 1_555
H10G C4G 1_555 1_555
C6G N2 1_555 1_555
H11G C6G 1_555 1_555
H12G C6G 1_555 1_555
H13G C6G 1_555 1_555
N3G K1 1_555 1_555
H22G C17G 1_555 1_555
H23G C17G 1_555 1_555
C17G C5 1_555 1_555
C4 N3 1_555 1_555
C4 N3G 1_555 1_555
C5 N3G 1_555 1_555
C6 N2 1_555 1_555
N2 C17 1_555 1_555
N2 C17G 1_555 1_555
C7 C8 1_555 1_555
C7 C8G 1_555 1_555
C15 C16 1_555 1_555
C8G C9G 1_555 1_555
C15G C16G 1_555 1_555
C3G C4G 1_555 1_555
C4G N3G 1_555 1_555

#END
