
#######################################################################
#
#                 Cambridge Crystallographic Data Centre
#                                CCDC 
#
#######################################################################
#
# If this CIF has been generated from an entry in the Cambridge 
# Structural Database, then it will include bibliographic, chemical, 
# crystal, experimental, refinement or atomic coordinate data resulting 
# from the CCDC's data processing and validation procedures.
#
#######################################################################

data_PUNXED
_chemical_formula_moiety         'C72 H54 N2 O8,2(C2 H5 N1 O2)'
_chemical_name_systematic        
'(1,3,6,8-tetraoxo-1,3,6,8-tetrahydrobenzo[lmn][3,8]phenanthroline-2,7-diyl)bis-4-(2-methylbutan-2-yl)-2,1-phenylene bis(pyren-1-ylacetate) nitroethane solvate'
_symmetry_cell_setting           triclinic
_symmetry_space_group_name_H-M   'P -1'
_symmetry_Int_Tables_number      2
_space_group_name_Hall           '-P 1'
loop_
_symmetry_equiv_pos_site_id
_symmetry_equiv_pos_as_xyz
1 x,y,z
2 -x,-y,-z
_cell_length_a                   10.3369(14)
_cell_length_b                   17.1080(18)
_cell_length_c                   18.463(2)
_cell_angle_alpha                115.858(3)
_cell_angle_beta                 90.538(4)
_cell_angle_gamma                92.053(4)
_cell_volume                     2935.14
_exptl_crystal_colour            'dark red'
_exptl_crystal_description       plate
_cell_formula_units_Z            2
loop_
_atom_site_label
_atom_site_type_symbol
_atom_site_fract_x
_atom_site_fract_y
_atom_site_fract_z
C1 C 0.0561(5) 0.1928(3) 0.0300(3)
C2 C 0.0335(4) 0.1196(3) 0.0510(3)
C3 C 0.0094(4) 0.0346(3) -0.0105(3)
C4 C 0.0078(5) 0.0173(3) -0.0927(3)
C5 C 0.0341(5) 0.0897(3) -0.1155(3)
C6 C 0.0373(5) 0.1348(3) 0.1304(3)
H1 H 0.0538 0.1921 0.1713
C7 C -0.0168(5) -0.0660(3) -0.1512(3)
H2 H -0.0200 -0.0770 -0.2063
C8 C 0.0776(5) 0.2448(3) -0.0725(3)
C9 C -0.0173(5) 0.3038(3) -0.0579(3)
C10 C 0.0029(5) 0.3749(3) -0.0745(3)
H3 H -0.0621 0.4161 -0.0639
C11 C 0.1184(5) 0.3848(3) -0.1066(3)
H4 H 0.1327 0.4341 -0.1170
C12 C 0.2160(5) 0.3245(3) -0.1246(3)
C13 C 0.1923(5) 0.2544(3) -0.1061(3)
H5 H 0.2564 0.2125 -0.1168
C14 C -0.1829(5) 0.3439(3) 0.0393(3)
C15 C -0.3140(5) 0.3118(3) 0.0508(3)
H6 H -0.3709 0.3023 0.0040
H7 H -0.3519 0.3572 0.0994
C16 C -0.3122(5) 0.2285(3) 0.0601(3)
C17 C -0.3239(5) 0.1455(3) -0.0060(3)
C18 C -0.3336(5) 0.1321(3) -0.0884(3)
H8 H -0.3296 0.1810 -0.1000
C19 C -0.3481(5) 0.0522(3) -0.1492(3)
H9 H -0.3538 0.0462 -0.2028
C20 C -0.3552(5) -0.0241(3) -0.1362(3)
C21 C -0.3426(5) -0.0144(3) -0.0562(3)
C22 C -0.3265(5) 0.0705(3) 0.0085(3)
C23 C -0.3155(5) 0.0797(3) 0.0889(3)
C24 C -0.3017(5) 0.1617(3) 0.1515(3)
H10 H -0.2914 0.1683 0.2051
C25 C -0.3027(5) 0.2344(3) 0.1373(3)
H11 H -0.2966 0.2903 0.1818
C26 C -0.3734(5) -0.1077(3) -0.1989(3)
H12 H -0.3812 -0.1152 -0.2529
C27 C -0.3802(5) -0.1800(3) -0.1830(3)
H13 H -0.3923 -0.2365 -0.2263
C28 C -0.3696(5) -0.1705(3) -0.1052(3)
H14 H -0.3744 -0.2205 -0.0953
C29 C -0.3520(5) -0.0884(3) -0.0408(3)
C30 C -0.3412(5) -0.0760(3) 0.0410(3)
H15 H -0.3471 -0.1253 0.0520
C31 C -0.3234(5) 0.0019(3) 0.1013(3)
H16 H -0.3156 0.0071 0.1545
C32 C 0.3399(5) 0.3324(3) -0.1667(3)
C33 C 0.4484(11) 0.2767(8) -0.1543(8)
H17 H 0.4663 0.2967 -0.0966
H18 H 0.5275 0.2833 -0.1803
H19 H 0.4188 0.2153 -0.1784
C34 C 0.3018(13) 0.2879(7) -0.2573(5)
H20 H 0.2754 0.2269 -0.2732
H21 H 0.3761 0.2909 -0.2887
H22 H 0.2297 0.3178 -0.2676
C35 C 0.3667(11) 0.4276(5) -0.1573(7)
H23 H 0.2870 0.4536 -0.1653
H24 H 0.4339 0.4302 -0.1941
C36 C 0.4218(13) 0.4758(8) -0.0564(7)
H25 H 0.3567 0.4653 -0.0231
H26 H 0.4362 0.5385 -0.0382
H27 H 0.5031 0.4504 -0.0517
N1 N 0.0550(4) 0.1728(2) -0.0522(2)
O1 O 0.0738(4) 0.2673(2) 0.08029(19)
O2 O 0.0374(4) 0.0781(2) -0.18499(19)
O3 O -0.1368(3) 0.2866(2) -0.03263(19)
O4 O -0.1244(4) 0.4094(2) 0.0840(2)
C1A C -0.0561(5) -0.1928(3) -0.0300(3)
C2A C -0.0335(4) -0.1196(3) -0.0510(3)
C3A C -0.0094(4) -0.0346(3) 0.0105(3)
C4A C -0.0078(5) -0.0173(3) 0.0927(3)
C5A C -0.0341(5) -0.0897(3) 0.1155(3)
C6A C -0.0373(5) -0.1348(3) -0.1304(3)
H1A H -0.0538 -0.1921 -0.1713
C7A C 0.0168(5) 0.0660(3) 0.1512(3)
H2A H 0.0200 0.0770 0.2063
C8A C -0.0776(5) -0.2448(3) 0.0725(3)
C9A C 0.0173(5) -0.3038(3) 0.0579(3)
C10A C -0.0029(5) -0.3749(3) 0.0745(3)
H3A H 0.0621 -0.4161 0.0639
C11A C -0.1184(5) -0.3848(3) 0.1066(3)
H4A H -0.1327 -0.4341 0.1170
C12A C -0.2160(5) -0.3245(3) 0.1246(3)
C13A C -0.1923(5) -0.2544(3) 0.1061(3)
H5A H -0.2564 -0.2125 0.1168
C14A C 0.1829(5) -0.3439(3) -0.0393(3)
C15A C 0.3140(5) -0.3118(3) -0.0508(3)
H6A H 0.3709 -0.3023 -0.0040
H7A H 0.3519 -0.3572 -0.0994
C16A C 0.3122(5) -0.2285(3) -0.0601(3)
C17A C 0.3239(5) -0.1455(3) 0.0060(3)
C18A C 0.3336(5) -0.1321(3) 0.0884(3)
H8A H 0.3296 -0.1810 0.1000
C19A C 0.3481(5) -0.0522(3) 0.1492(3)
H9A H 0.3538 -0.0462 0.2028
C20A C 0.3552(5) 0.0241(3) 0.1362(3)
C21A C 0.3426(5) 0.0144(3) 0.0562(3)
C22A C 0.3265(5) -0.0705(3) -0.0085(3)
C23A C 0.3155(5) -0.0797(3) -0.0889(3)
C24A C 0.3017(5) -0.1617(3) -0.1515(3)
H10A H 0.2914 -0.1683 -0.2051
C25A C 0.3027(5) -0.2344(3) -0.1373(3)
H11A H 0.2966 -0.2903 -0.1818
C26A C 0.3734(5) 0.1077(3) 0.1989(3)
H12A H 0.3812 0.1152 0.2529
C27A C 0.3802(5) 0.1800(3) 0.1830(3)
H13A H 0.3923 0.2365 0.2263
C28A C 0.3696(5) 0.1705(3) 0.1052(3)
H14A H 0.3744 0.2205 0.0953
C29A C 0.3520(5) 0.0884(3) 0.0408(3)
C30A C 0.3412(5) 0.0760(3) -0.0410(3)
H15A H 0.3471 0.1253 -0.0520
C31A C 0.3234(5) -0.0019(3) -0.1013(3)
H16A H 0.3156 -0.0071 -0.1545
C32A C -0.3399(5) -0.3324(3) 0.1667(3)
C33A C -0.4484(11) -0.2767(8) 0.1543(8)
H17A H -0.4663 -0.2967 0.0966
H18A H -0.5275 -0.2833 0.1803
H19A H -0.4188 -0.2153 0.1784
C34A C -0.3018(13) -0.2879(7) 0.2573(5)
H20A H -0.2754 -0.2269 0.2732
H21A H -0.3761 -0.2909 0.2887
H22A H -0.2297 -0.3178 0.2676
C35A C -0.3667(11) -0.4276(5) 0.1573(7)
H23A H -0.2870 -0.4536 0.1653
H24A H -0.4339 -0.4302 0.1941
C36A C -0.4218(13) -0.4758(8) 0.0564(7)
H25A H -0.3567 -0.4653 0.0231
H26A H -0.4362 -0.5385 0.0382
H27A H -0.5031 -0.4504 0.0517
N1A N -0.0550(4) -0.1728(2) 0.0522(2)
O1A O -0.0738(4) -0.2673(2) -0.08029(19)
O2A O -0.0374(4) -0.0781(2) 0.18499(19)
O3A O 0.1368(3) -0.2866(2) 0.03263(19)
O4A O 0.1244(4) -0.4094(2) -0.0840(2)
C41 C 0.5479(5) 0.3072(3) 0.4642(3)
C42 C 0.5300(4) 0.3825(3) 0.4465(3)
C43 C 0.5075(4) 0.4640(3) 0.5089(3)
C44 C 0.5015(5) 0.4777(3) 0.5899(3)
C45 C 0.5238(5) 0.4044(3) 0.6100(3)
C46 C 0.5379(5) 0.3713(3) 0.3677(3)
H39 H 0.5544 0.3158 0.3258
C47 C 0.4785(5) 0.5577(3) 0.6500(3)
H40 H 0.4735 0.5653 0.7041
C48 C 0.5641(5) 0.2509(3) 0.5640(3)
C49 C 0.4672(5) 0.1884(3) 0.5460(3)
C50 C 0.4859(5) 0.1172(3) 0.5616(3)
H41 H 0.4197 0.0728 0.5486
C51 C 0.6022(5) 0.1117(3) 0.5965(3)
H42 H 0.6147 0.0628 0.6070
C52 C 0.7016(5) 0.1752(3) 0.6167(3)
C53 C 0.6795(5) 0.2452(3) 0.5992(3)
H43 H 0.7453 0.2898 0.6116
C54 C 0.3003(5) 0.1461(3) 0.4440(3)
C55 C 0.1710(5) 0.1744(3) 0.4293(3)
H44 H 0.1122 0.1775 0.4724
H45 H 0.1334 0.1301 0.3774
C56 C 0.1782(5) 0.2625(3) 0.4269(3)
C57 C 0.1699(5) 0.3417(3) 0.4962(3)
C58 C 0.1571(5) 0.3481(3) 0.5762(3)
H46 H 0.1566 0.2964 0.5835
C59 C 0.1460(5) 0.4241(3) 0.6402(3)
H47 H 0.1387 0.4249 0.6918
C60 C 0.1444(5) 0.5047(3) 0.6338(3)
C61 C 0.1567(5) 0.5012(3) 0.5555(3)
C62 C 0.1716(5) 0.4207(3) 0.4880(3)
C63 C 0.1846(5) 0.4190(3) 0.4105(3)
C64 C 0.1954(5) 0.3400(3) 0.3440(3)
H48 H 0.2059 0.3383 0.2922
C65 C 0.1910(5) 0.2630(3) 0.3525(3)
H49 H 0.1969 0.2092 0.3060
C66 C 0.1279(5) 0.5848(3) 0.6992(3)
H50 H 0.1201 0.5878 0.7515
C67 C 0.1226(5) 0.6596(3) 0.6890(3)
H51 H 0.1109 0.7133 0.7345
C68 C 0.1339(5) 0.6581(3) 0.6137(3)
H52 H 0.1297 0.7104 0.6077
C69 C 0.1517(5) 0.5790(3) 0.5466(3)
C70 C 0.1646(5) 0.5750(3) 0.4675(3)
H53 H 0.1612 0.6268 0.4607
C71 C 0.1811(5) 0.5001(3) 0.4042(3)
H54 H 0.1911 0.4996 0.3529
C72 C 0.8280(5) 0.1681(3) 0.6566(3)
C73 C 0.7942(9) 0.1355(7) 0.7210(5)
H55 H 0.7420 0.1782 0.7626
H56 H 0.8742 0.1280 0.7457
H57 H 0.7449 0.0797 0.6954
C74 C 0.9030(9) 0.2546(4) 0.6983(6)
H58 H 0.9284 0.2753 0.6584
H59 H 0.9808 0.2474 0.7252
H60 H 0.8485 0.2971 0.7383
C75 C 0.9080(8) 0.1002(6) 0.5912(4)
H61 H 0.8569 0.0442 0.5678
H62 H 0.9212 0.1185 0.5477
C76 C 1.0399(9) 0.0850(7) 0.6192(6)
H63 H 1.0950 0.1383 0.6374
H64 H 1.0807 0.0378 0.5745
H65 H 1.0288 0.0690 0.6638
N2 N 0.5445(4) 0.3237(2) 0.5457(2)
O5 O 0.5637(4) 0.23464(19) 0.41262(19)
O6 O 0.5255(4) 0.4120(2) 0.67870(18)
O7 O 0.3472(3) 0.2021(2) 0.51891(19)
O8 O 0.3558(4) 0.0842(2) 0.3990(2)
C41A C 0.4521(5) 0.6928(3) 0.5358(3)
C42A C 0.4700(4) 0.6175(3) 0.5535(3)
C43A C 0.4925(4) 0.5360(3) 0.4911(3)
C44A C 0.4985(5) 0.5223(3) 0.4101(3)
C45A C 0.4762(5) 0.5956(3) 0.3900(3)
C46A C 0.4621(5) 0.6287(3) 0.6323(3)
H39A H 0.4456 0.6842 0.6742
C47A C 0.5215(5) 0.4423(3) 0.3500(3)
H40A H 0.5265 0.4347 0.2959
C48A C 0.4359(5) 0.7491(3) 0.4360(3)
C49A C 0.5328(5) 0.8116(3) 0.4540(3)
C50A C 0.5141(5) 0.8828(3) 0.4384(3)
H41A H 0.5803 0.9272 0.4514
C51A C 0.3978(5) 0.8883(3) 0.4035(3)
H42A H 0.3853 0.9372 0.3930
C52A C 0.2984(5) 0.8248(3) 0.3833(3)
C53A C 0.3205(5) 0.7548(3) 0.4008(3)
H43A H 0.2547 0.7102 0.3884
C54A C 0.6997(5) 0.8539(3) 0.5560(3)
C55A C 0.8290(5) 0.8256(3) 0.5707(3)
H44A H 0.8878 0.8225 0.5276
H45A H 0.8666 0.8699 0.6226
C56A C 0.8218(5) 0.7375(3) 0.5731(3)
C57A C 0.8301(5) 0.6583(3) 0.5038(3)
C58A C 0.8429(5) 0.6519(3) 0.4238(3)
H46A H 0.8434 0.7036 0.4165
C59A C 0.8540(5) 0.5759(3) 0.3598(3)
H47A H 0.8613 0.5751 0.3082
C60A C 0.8556(5) 0.4953(3) 0.3662(3)
C61A C 0.8433(5) 0.4988(3) 0.4445(3)
C62A C 0.8284(5) 0.5793(3) 0.5120(3)
C63A C 0.8154(5) 0.5810(3) 0.5895(3)
C64A C 0.8046(5) 0.6600(3) 0.6560(3)
H48A H 0.7941 0.6617 0.7078
C65A C 0.8090(5) 0.7370(3) 0.6475(3)
H49A H 0.8031 0.7908 0.6940
C66A C 0.8721(5) 0.4152(3) 0.3008(3)
H50A H 0.8799 0.4122 0.2485
C67A C 0.8774(5) 0.3404(3) 0.3110(3)
H51A H 0.8891 0.2867 0.2655
C68A C 0.8661(5) 0.3419(3) 0.3863(3)
H52A H 0.8703 0.2896 0.3923
C69A C 0.8483(5) 0.4210(3) 0.4534(3)
C70A C 0.8354(5) 0.4250(3) 0.5325(3)
H53A H 0.8388 0.3732 0.5393
C71A C 0.8189(5) 0.4999(3) 0.5958(3)
H54A H 0.8089 0.5004 0.6471
C72A C 0.1720(5) 0.8319(3) 0.3434(3)
C73A C 0.2058(9) 0.8645(7) 0.2790(5)
H55A H 0.2580 0.8218 0.2374
H56A H 0.1258 0.8720 0.2543
H57A H 0.2551 0.9203 0.3046
C74A C 0.0970(9) 0.7454(4) 0.3017(6)
H58A H 0.0716 0.7247 0.3416
H59A H 0.0192 0.7526 0.2748
H60A H 0.1515 0.7029 0.2617
C75A C 0.0920(8) 0.8998(6) 0.4088(4)
H61A H 0.1431 0.9558 0.4322
H62A H 0.0788 0.8815 0.4523
C76A C -0.0399(9) 0.9150(7) 0.3808(6)
H63A H -0.0950 0.8617 0.3626
H64A H -0.0807 0.9622 0.4255
H65A H -0.0288 0.9310 0.3362
N2A N 0.4555(4) 0.6763(2) 0.4543(2)
O5A O 0.4363(4) 0.76536(19) 0.58738(19)
O6A O 0.4745(4) 0.5880(2) 0.32130(18)
O7A O 0.6528(3) 0.7979(2) 0.48109(19)
O8A O 0.6442(4) 0.9158(2) 0.6010(2)
C81 C 0.3083(5) 0.9436(3) 0.6201(3)
H77 H 0.3827 0.9083 0.5934
H78 H 0.2755 0.9692 0.5850
C82 C 0.3538(7) 1.0149(4) 0.6982(4)
H79 H 0.2790 1.0439 0.7292
H80 H 0.4088 1.0570 0.6884
H81 H 0.4038 0.9908 0.7285
N3 N 0.2041(5) 0.8856(3) 0.6284(3)
O9 O 0.1883(4) 0.8848(2) 0.6938(2)
O10 O 0.1410(4) 0.8386(3) 0.5680(2)
C83 C 0.2114(6) 0.4496(3) 0.1199(3)
H82 H 0.2495 0.4874 0.0967
H83 H 0.1446 0.4103 0.0810
C84 C 0.1486(7) 0.5046(4) 0.1953(3)
H84 H 0.1013 0.4676 0.2153
H85 H 0.0880 0.5418 0.1853
H86 H 0.2146 0.5409 0.2355
N4 N 0.3147(5) 0.3963(3) 0.1295(3)
O11 O 0.3236(4) 0.3903(2) 0.1935(2)
O12 O 0.3826(5) 0.3591(3) 0.0723(3)
C37? C 0.3279(13) 0.2748(7) -0.2579(5)
H28? H 0.3163 0.2137 -0.2680
H29? H 0.4066 0.2825 -0.2836
H30? H 0.2530 0.2913 -0.2802
C38? C 0.3904(12) 0.4240(5) -0.1415(7)
H31? H 0.3241 0.4570 -0.1529
H32? H 0.4683 0.4238 -0.1714
H33? H 0.4117 0.4512 -0.0836
C39? C 0.4555(10) 0.3105(8) -0.1286(7)
H34? H 0.4512 0.2473 -0.1439
H35? H 0.4503 0.3414 -0.0693
C40? C 0.5858(13) 0.3349(8) -0.1538(7)
H36? H 0.5916 0.3048 -0.2125
H37? H 0.6562 0.3176 -0.1287
H38? H 0.5928 0.3978 -0.1362
C77? C 0.8051(15) 0.1730(11) 0.7396(7)
H66? H 0.7784 0.2314 0.7759
H67? H 0.8852 0.1608 0.7609
H68? H 0.7368 0.1300 0.7358
C78? C 0.9270(13) 0.2418(8) 0.6647(11)
H69? H 0.9541 0.2330 0.6111
H70? H 1.0028 0.2409 0.6966
H71? H 0.8869 0.2980 0.6915
C79? C 0.8796(14) 0.0812(7) 0.5974(7)
H72? H 0.8141 0.0345 0.5903
H73? H 0.8890 0.0822 0.5445
C80? C 1.0086(15) 0.0576(11) 0.6215(10)
H74? H 1.0797 0.0821 0.6019
H75? H 1.0133 -0.0058 0.5978
H76? H 1.0158 0.0814 0.6803
loop_
_geom_bond_atom_site_label_1
_geom_bond_atom_site_label_2
_geom_bond_site_symmetry_1
_geom_bond_site_symmetry_2
C1 C2 1_555 1_555
C2 C3 1_555 1_555
C3 C4 1_555 1_555
C4 C5 1_555 1_555
C5 N1 1_555 1_555
C6 C2 1_555 1_555
H1 C6 1_555 1_555
C7 C4 1_555 1_555
H2 C7 1_555 1_555
C8 C9 1_555 1_555
C9 C10 1_555 1_555
C10 H3 1_555 1_555
C11 C10 1_555 1_555
H4 C11 1_555 1_555
C12 C11 1_555 1_555
C13 C8 1_555 1_555
H5 C13 1_555 1_555
C14 C15 1_555 1_555
C15 H6 1_555 1_555
H7 C15 1_555 1_555
C16 C15 1_555 1_555
C17 C16 1_555 1_555
C18 C17 1_555 1_555
H8 C18 1_555 1_555
C19 C18 1_555 1_555
H9 C19 1_555 1_555
C20 C19 1_555 1_555
C21 C20 1_555 1_555
C22 C17 1_555 1_555
C23 C22 1_555 1_555
C24 C23 1_555 1_555
H10 C24 1_555 1_555
C25 C16 1_555 1_555
H11 C25 1_555 1_555
C26 C20 1_555 1_555
H12 C26 1_555 1_555
C27 C26 1_555 1_555
H13 C27 1_555 1_555
C28 C27 1_555 1_555
H14 C28 1_555 1_555
C29 C21 1_555 1_555
C30 C29 1_555 1_555
H15 C30 1_555 1_555
C31 C23 1_555 1_555
H16 C31 1_555 1_555
C32 C12 1_555 1_555
C33 C32 1_555 1_555
H17 C33 1_555 1_555
H18 C33 1_555 1_555
H19 C33 1_555 1_555
C34 C32 1_555 1_555
H20 C34 1_555 1_555
H21 C34 1_555 1_555
H22 C34 1_555 1_555
C35 C32 1_555 1_555
H23 C35 1_555 1_555
H24 C35 1_555 1_555
C36 C35 1_555 1_555
H25 C36 1_555 1_555
H26 C36 1_555 1_555
H27 C36 1_555 1_555
N1 C1 1_555 1_555
O1 C1 1_555 1_555
O2 C5 1_555 1_555
O3 C9 1_555 1_555
O4 C14 1_555 1_555
C41 C42 1_555 1_555
C42 C43 1_555 1_555
C43 C44 1_555 1_555
C44 C45 1_555 1_555
C45 N2 1_555 1_555
C46 C42 1_555 1_555
H39 C46 1_555 1_555
C47 C44 1_555 1_555
H40 C47 1_555 1_555
C48 C49 1_555 1_555
C49 C50 1_555 1_555
C50 H41 1_555 1_555
C51 C50 1_555 1_555
H42 C51 1_555 1_555
C52 C51 1_555 1_555
C53 C48 1_555 1_555
H43 C53 1_555 1_555
C54 C55 1_555 1_555
C55 H44 1_555 1_555
H45 C55 1_555 1_555
C56 C55 1_555 1_555
C57 C56 1_555 1_555
C58 C57 1_555 1_555
H46 C58 1_555 1_555
C59 C58 1_555 1_555
H47 C59 1_555 1_555
C60 C59 1_555 1_555
C61 C60 1_555 1_555
C62 C57 1_555 1_555
C63 C62 1_555 1_555
C64 C63 1_555 1_555
H48 C64 1_555 1_555
C65 C56 1_555 1_555
H49 C65 1_555 1_555
C66 C60 1_555 1_555
H50 C66 1_555 1_555
C67 C66 1_555 1_555
H51 C67 1_555 1_555
C68 C67 1_555 1_555
H52 C68 1_555 1_555
C69 C61 1_555 1_555
C70 C69 1_555 1_555
H53 C70 1_555 1_555
C71 C63 1_555 1_555
H54 C71 1_555 1_555
C72 C52 1_555 1_555
C73 C72 1_555 1_555
H55 C73 1_555 1_555
H56 C73 1_555 1_555
H57 C73 1_555 1_555
C74 C72 1_555 1_555
H58 C74 1_555 1_555
H59 C74 1_555 1_555
H60 C74 1_555 1_555
C75 C72 1_555 1_555
H61 C75 1_555 1_555
H62 C75 1_555 1_555
C76 C75 1_555 1_555
H63 C76 1_555 1_555
H64 C76 1_555 1_555
H65 C76 1_555 1_555
N2 C41 1_555 1_555
O5 C41 1_555 1_555
O6 C45 1_555 1_555
O7 C49 1_555 1_555
O8 C54 1_555 1_555
C81 H77 1_555 1_555
H78 C81 1_555 1_555
C82 C81 1_555 1_555
H79 C82 1_555 1_555
H80 C82 1_555 1_555
H81 C82 1_555 1_555
N3 C81 1_555 1_555
O9 N3 1_555 1_555
O10 N3 1_555 1_555
C83 H82 1_555 1_555
H83 C83 1_555 1_555
C84 C83 1_555 1_555
H84 C84 1_555 1_555
H85 C84 1_555 1_555
H86 C84 1_555 1_555
N4 C83 1_555 1_555
O11 N4 1_555 1_555
O12 N4 1_555 1_555
C1A C2A 1_555 1_555
C2A C3A 1_555 1_555
C3A C3 1_555 1_555
C4A C3A 1_555 1_555
C5A C4A 1_555 1_555
C6A C7 1_555 1_555
H1A C6A 1_555 1_555
C7A C6 1_555 1_555
H2A C7A 1_555 1_555
C8A C9A 1_555 1_555
C9A C10A 1_555 1_555
C10A H3A 1_555 1_555
C11A C10A 1_555 1_555
H4A C11A 1_555 1_555
C12A C11A 1_555 1_555
C13A C8A 1_555 1_555
H5A C13A 1_555 1_555
C14A C15A 1_555 1_555
C15A H6A 1_555 1_555
H7A C15A 1_555 1_555
C16A C15A 1_555 1_555
C17A C16A 1_555 1_555
C18A C17A 1_555 1_555
H8A C18A 1_555 1_555
C19A C18A 1_555 1_555
H9A C19A 1_555 1_555
C20A C19A 1_555 1_555
C21A C20A 1_555 1_555
C22A C17A 1_555 1_555
C23A C22A 1_555 1_555
C24A C23A 1_555 1_555
H10A C24A 1_555 1_555
C25A C16A 1_555 1_555
H11A C25A 1_555 1_555
C26A C20A 1_555 1_555
H12A C26A 1_555 1_555
C27A C26A 1_555 1_555
H13A C27A 1_555 1_555
C28A C27A 1_555 1_555
H14A C28A 1_555 1_555
C29A C21A 1_555 1_555
C30A C29A 1_555 1_555
H15A C30A 1_555 1_555
C31A C23A 1_555 1_555
H16A C31A 1_555 1_555
C32A C12A 1_555 1_555
C33A C32A 1_555 1_555
H17A C33A 1_555 1_555
H18A C33A 1_555 1_555
H19A C33A 1_555 1_555
C34A C32A 1_555 1_555
H20A C34A 1_555 1_555
H21A C34A 1_555 1_555
H22A C34A 1_555 1_555
C35A C32A 1_555 1_555
H23A C35A 1_555 1_555
H24A C35A 1_555 1_555
C36A C35A 1_555 1_555
H25A C36A 1_555 1_555
H26A C36A 1_555 1_555
H27A C36A 1_555 1_555
N1A C1A 1_555 1_555
O1A C1A 1_555 1_555
O2A C5A 1_555 1_555
O3A C9A 1_555 1_555
O4A C14A 1_555 1_555
C41A C42A 1_555 1_555
C42A C43A 1_555 1_555
C43A C43 1_555 1_555
C44A C43A 1_555 1_555
C45A C44A 1_555 1_555
C46A C47 1_555 1_555
H39A C46A 1_555 1_555
C47A C46 1_555 1_555
H40A C47A 1_555 1_555
C48A C49A 1_555 1_555
C49A C50A 1_555 1_555
C50A H41A 1_555 1_555
C51A C50A 1_555 1_555
H42A C51A 1_555 1_555
C52A C51A 1_555 1_555
C53A C48A 1_555 1_555
H43A C53A 1_555 1_555
C54A C55A 1_555 1_555
C55A H44A 1_555 1_555
H45A C55A 1_555 1_555
C56A C55A 1_555 1_555
C57A C56A 1_555 1_555
C58A C57A 1_555 1_555
H46A C58A 1_555 1_555
C59A C58A 1_555 1_555
H47A C59A 1_555 1_555
C60A C59A 1_555 1_555
C61A C60A 1_555 1_555
C62A C57A 1_555 1_555
C63A C62A 1_555 1_555
C64A C63A 1_555 1_555
H48A C64A 1_555 1_555
C65A C56A 1_555 1_555
H49A C65A 1_555 1_555
C66A C60A 1_555 1_555
H50A C66A 1_555 1_555
C67A C66A 1_555 1_555
H51A C67A 1_555 1_555
C68A C67A 1_555 1_555
H52A C68A 1_555 1_555
C69A C61A 1_555 1_555
C70A C69A 1_555 1_555
H53A C70A 1_555 1_555
C71A C63A 1_555 1_555
H54A C71A 1_555 1_555
C72A C52A 1_555 1_555
C73A C72A 1_555 1_555
H55A C73A 1_555 1_555
H56A C73A 1_555 1_555
H57A C73A 1_555 1_555
C74A C72A 1_555 1_555
H58A C74A 1_555 1_555
H59A C74A 1_555 1_555
H60A C74A 1_555 1_555
C75A C72A 1_555 1_555
H61A C75A 1_555 1_555
H62A C75A 1_555 1_555
C76A C75A 1_555 1_555
H63A C76A 1_555 1_555
H64A C76A 1_555 1_555
H65A C76A 1_555 1_555
N2A C41A 1_555 1_555
O5A C41A 1_555 1_555
O6A C45A 1_555 1_555
O7A C49A 1_555 1_555
O8A C54A 1_555 1_555
C8 N1 1_555 1_555
C12 C13 1_555 1_555
C14 O3 1_555 1_555
C21 C22 1_555 1_555
C24 C25 1_555 1_555
C28 C29 1_555 1_555
C30 C31 1_555 1_555
C48 N2 1_555 1_555
C52 C53 1_555 1_555
C54 O7 1_555 1_555
C61 C62 1_555 1_555
C64 C65 1_555 1_555
C68 C69 1_555 1_555
C70 C71 1_555 1_555
C2A C6A 1_555 1_555
C4A C7A 1_555 1_555
C5A N1A 1_555 1_555
C8A N1A 1_555 1_555
C12A C13A 1_555 1_555
C14A O3A 1_555 1_555
C21A C22A 1_555 1_555
C24A C25A 1_555 1_555
C28A C29A 1_555 1_555
C30A C31A 1_555 1_555
C42A C46A 1_555 1_555
C44A C47A 1_555 1_555
C45A N2A 1_555 1_555
C48A N2A 1_555 1_555
C52A C53A 1_555 1_555
C54A O7A 1_555 1_555
C61A C62A 1_555 1_555
C64A C65A 1_555 1_555
C68A C69A 1_555 1_555
C70A C71A 1_555 1_555

#END
