
#######################################################################
#
#                 Cambridge Crystallographic Data Centre
#                                CCDC 
#
#######################################################################
#
# If this CIF has been generated from an entry in the Cambridge 
# Structural Database, then it will include bibliographic, chemical, 
# crystal, experimental, refinement or atomic coordinate data resulting 
# from the CCDC's data processing and validation procedures.
#
#######################################################################

data_PUNXIH
_chemical_formula_moiety         'C72 H54 N2 O8,2(C1 H3 N1 O2)'
_chemical_name_systematic        
'(1,3,6,8-tetraoxo-1,3,6,8-tetrahydrobenzo[lmn][3,8]phenanthroline-2,7-diyl)bis-4-(2-methylbutan-2-yl)-2,1-phenylene bis(pyren-1-ylacetate) nitromethane solvate'
_symmetry_cell_setting           triclinic
_symmetry_space_group_name_H-M   'P -1'
_symmetry_Int_Tables_number      2
_space_group_name_Hall           '-P 1'
loop_
_symmetry_equiv_pos_site_id
_symmetry_equiv_pos_as_xyz
1 x,y,z
2 -x,-y,-z
_cell_length_a                   10.0093(4)
_cell_length_b                   10.5133(4)
_cell_length_c                   16.3672(7)
_cell_angle_alpha                71.388(2)
_cell_angle_beta                 89.742(2)
_cell_angle_gamma                62.504(2)
_cell_volume                     1426.83
_exptl_crystal_colour            red
_exptl_crystal_description       plate
_cell_formula_units_Z            1
loop_
_atom_site_label
_atom_site_type_symbol
_atom_site_fract_x
_atom_site_fract_y
_atom_site_fract_z
O1 O 0.48271(11) 0.59558(12) 0.22934(6)
O2 O 0.92782(10) 0.35011(12) 0.41962(6)
O3 O 0.78751(11) 0.25167(10) 0.25704(6)
O4 O 0.63164(13) 0.32488(13) 0.13238(7)
N1 N 0.70383(12) 0.48123(12) 0.32497(7)
C1 C 0.54418(14) 0.54826(14) 0.30443(8)
C2 C 0.46018(14) 0.55808(14) 0.37874(8)
C3 C 0.54104(13) 0.49437(13) 0.46478(7)
C4 C 0.70259(13) 0.41882(13) 0.48267(8)
C5 C 0.78971(14) 0.41103(14) 0.40947(8)
C6 C 0.30256(14) 0.63190(15) 0.36317(8)
H1 H 0.2490 0.6750 0.3051
C7 C 0.77907(14) 0.35639(15) 0.56721(8)
H2 H 0.8876 0.3051 0.5784
C8 C 0.78974(13) 0.47842(14) 0.25391(8)
C9 C 0.82933(14) 0.36468(14) 0.21914(8)
C10 C 0.91749(15) 0.35895(15) 0.15345(8)
H3 H 0.9453 0.2808 0.1294
C11 C 0.96481(15) 0.46801(15) 0.12309(8)
H4 H 1.0262 0.4625 0.0786
C12 C 0.92450(14) 0.58634(14) 0.15629(8)
C13 C 0.83582(14) 0.58821(14) 0.22231(8)
H5 H 0.8062 0.6668 0.2462
C14 C 0.68022(15) 0.24706(15) 0.20770(8)
C15 C 0.63855(16) 0.12938(15) 0.26266(8)
H6 H 0.7337 0.0324 0.2935
H7 H 0.5823 0.1086 0.2236
C16 C 0.54111(15) 0.17835(14) 0.32995(8)
C17 C 0.60517(14) 0.13636(14) 0.41721(8)
C18 C 0.76718(15) 0.05427(15) 0.44895(9)
H8 H 0.8358 0.0309 0.4090
C19 C 0.82433(15) 0.00949(15) 0.53416(9)
H9 H 0.9320 -0.0443 0.5524
C20 C 0.72694(15) 0.04107(14) 0.59735(8)
C21 C 0.56617(14) 0.12269(14) 0.56874(8)
C22 C 0.50507(14) 0.17145(14) 0.47880(8)
C23 C 0.34398(14) 0.25136(14) 0.45155(8)
C24 C 0.28501(15) 0.29577(15) 0.36384(9)
H10 H 0.1776 0.3518 0.3446
C25 C 0.38270(15) 0.25835(15) 0.30473(9)
H11 H 0.3406 0.2880 0.2456
C26 C 0.78463(16) -0.00740(15) 0.68611(9)
H12 H 0.8920 -0.0608 0.7054
C27 C 0.68668(17) 0.02171(16) 0.74610(9)
H13 H 0.7274 -0.0128 0.8061
C28 C 0.52969(16) 0.10088(15) 0.71893(9)
H14 H 0.4639 0.1203 0.7606
C29 C 0.46652(15) 0.15270(14) 0.63068(8)
C30 C 0.30448(15) 0.23299(15) 0.60008(9)
H15 H 0.2367 0.2530 0.6408
C31 C 0.24641(15) 0.28043(15) 0.51564(9)
H16 H 0.1387 0.3343 0.4978
C32 C 0.97097(14) 0.71115(14) 0.11815(8)
C33 C 1.14157(16) 0.63730(17) 0.11063(11)
H17 H 1.2033 0.5759 0.1692
H18 H 1.1678 0.7180 0.0816
H19 H 1.1623 0.5710 0.0763
C34 C 0.87414(17) 0.81440(16) 0.02659(9)
H20 H 0.8902 0.7517 -0.0095
H21 H 0.9047 0.8923 -0.0007
H22 H 0.7658 0.8650 0.0317
C35 C 0.93987(16) 0.80843(16) 0.17681(9)
H23 H 0.8290 0.8584 0.1788
H24 H 0.9938 0.7383 0.2370
C36 C 0.98787(19) 0.93230(18) 0.14866(11)
H25 H 1.0976 0.8848 0.1466
H26 H 0.9662 0.9850 0.1908
H27 H 0.9306 1.0066 0.0906
O1A O 0.51729(11) 0.40442(12) 0.77066(6)
O2A O 0.07218(10) 0.64989(12) 0.58038(6)
O3A O 0.21249(11) 0.74833(10) 0.74296(6)
O4A O 0.36836(13) 0.67512(13) 0.86762(7)
N1A N 0.29617(12) 0.51877(12) 0.67503(7)
C1A C 0.45582(14) 0.45174(14) 0.69557(8)
C2A C 0.53982(14) 0.44192(14) 0.62126(8)
C3A C 0.45896(13) 0.50563(13) 0.53522(7)
C4A C 0.29741(13) 0.58118(13) 0.51733(8)
C5A C 0.21029(14) 0.58897(14) 0.59053(8)
C6A C 0.69744(14) 0.36810(15) 0.63683(8)
H1A H 0.7510 0.3250 0.6949
C7A C 0.22093(14) 0.64361(15) 0.43279(8)
H2A H 0.1124 0.6949 0.4216
C8A C 0.21026(13) 0.52158(14) 0.74609(8)
C9A C 0.17067(14) 0.63532(14) 0.78086(8)
C10A C 0.08251(15) 0.64105(15) 0.84655(8)
H3A H 0.0547 0.7192 0.8706
C11A C 0.03519(15) 0.53199(15) 0.87691(8)
H4A H -0.0262 0.5375 0.9214
C12A C 0.07550(14) 0.41366(14) 0.84371(8)
C13A C 0.16418(14) 0.41179(14) 0.77769(8)
H5A H 0.1938 0.3332 0.7538
C14A C 0.31978(15) 0.75294(15) 0.79230(8)
C15A C 0.36145(16) 0.87062(15) 0.73734(8)
H6A H 0.2663 0.9676 0.7065
H7A H 0.4177 0.8914 0.7764
C16A C 0.45889(15) 0.82165(14) 0.67005(8)
C17A C 0.39483(14) 0.86364(14) 0.58279(8)
C18A C 0.23282(15) 0.94573(15) 0.55105(9)
H8A H 0.1642 0.9691 0.5910
C19A C 0.17567(15) 0.99051(15) 0.46584(9)
H9A H 0.0680 1.0443 0.4476
C20A C 0.27306(15) 0.95893(14) 0.40265(8)
C21A C 0.43383(14) 0.87731(14) 0.43126(8)
C22A C 0.49493(14) 0.82855(14) 0.52120(8)
C23A C 0.65602(14) 0.74864(14) 0.54845(8)
C24A C 0.71499(15) 0.70423(15) 0.63616(9)
H10A H 0.8224 0.6482 0.6554
C25A C 0.61730(15) 0.74165(15) 0.69527(9)
H11A H 0.6594 0.7120 0.7544
C26A C 0.21537(16) 1.00740(15) 0.31389(9)
H12A H 0.1080 1.0608 0.2946
C27A C 0.31332(17) 0.97829(16) 0.25390(9)
H13A H 0.2726 1.0128 0.1939
C28A C 0.47031(16) 0.89912(15) 0.28107(9)
H14A H 0.5361 0.8797 0.2394
C29A C 0.53348(15) 0.84730(14) 0.36932(8)
C30A C 0.69552(15) 0.76701(15) 0.39992(9)
H15A H 0.7633 0.7470 0.3592
C31A C 0.75359(15) 0.71957(15) 0.48436(9)
H16A H 0.8613 0.6657 0.5022
C32A C 0.02903(14) 0.28885(14) 0.88185(8)
C33A C -0.14157(16) 0.36270(17) 0.88937(11)
H17A H -0.2033 0.4241 0.8308
H18A H -0.1678 0.2820 0.9184
H19A H -0.1623 0.4290 0.9237
C34A C 0.12586(17) 0.18560(16) 0.97341(9)
H20A H 0.1098 0.2483 1.0095
H21A H 0.0953 0.1077 1.0007
H22A H 0.2342 0.1350 0.9683
C35A C 0.06013(16) 0.19157(16) 0.82319(9)
H23A H 0.1710 0.1416 0.8212
H24A H 0.0062 0.2617 0.7630
C36A C 0.01213(19) 0.06770(18) 0.85134(11)
H25A H -0.0976 0.1152 0.8534
H26A H 0.0338 0.0150 0.8092
H27A H 0.0694 -0.0066 0.9094
O5 O 0.65961(13) 0.71901(15) -0.07691(8)
O6 O 0.46268(16) 0.92457(14) -0.07891(8)
N2 N 0.55043(14) 0.78699(14) -0.04559(8)
C37 C 0.5228(2) 0.7006(2) 0.03690(11)
H28 H 0.5725 0.5916 0.0445
H29 H 0.4126 0.7398 0.0351
H30 H 0.5649 0.7130 0.0860
loop_
_geom_bond_atom_site_label_1
_geom_bond_atom_site_label_2
_geom_bond_site_symmetry_1
_geom_bond_site_symmetry_2
O1 C1 1_555 1_555
O2 C5 1_555 1_555
O3 C9 1_555 1_555
O4 C14 1_555 1_555
N1 C1 1_555 1_555
C1 C2 1_555 1_555
C2 C3 1_555 1_555
C3 C4 1_555 1_555
C4 C5 1_555 1_555
C5 N1 1_555 1_555
C6 C2 1_555 1_555
H1 C6 1_555 1_555
C7 C4 1_555 1_555
H2 C7 1_555 1_555
C8 N1 1_555 1_555
C9 C8 1_555 1_555
C10 C9 1_555 1_555
H3 C10 1_555 1_555
C11 C10 1_555 1_555
H4 C11 1_555 1_555
C12 C11 1_555 1_555
C13 C8 1_555 1_555
H5 C13 1_555 1_555
C14 O3 1_555 1_555
C15 C14 1_555 1_555
H6 C15 1_555 1_555
H7 C15 1_555 1_555
C16 C15 1_555 1_555
C17 C16 1_555 1_555
C18 C17 1_555 1_555
H8 C18 1_555 1_555
C19 C18 1_555 1_555
H9 C19 1_555 1_555
C20 C19 1_555 1_555
C21 C20 1_555 1_555
C22 C17 1_555 1_555
C23 C22 1_555 1_555
C24 C23 1_555 1_555
H10 C24 1_555 1_555
C25 C16 1_555 1_555
H11 C25 1_555 1_555
C26 C20 1_555 1_555
H12 C26 1_555 1_555
C27 C26 1_555 1_555
H13 C27 1_555 1_555
C28 C27 1_555 1_555
H14 C28 1_555 1_555
C29 C21 1_555 1_555
C30 C29 1_555 1_555
H15 C30 1_555 1_555
C31 C23 1_555 1_555
H16 C31 1_555 1_555
C32 C12 1_555 1_555
C33 C32 1_555 1_555
H17 C33 1_555 1_555
H18 C33 1_555 1_555
H19 C33 1_555 1_555
C34 C32 1_555 1_555
H20 C34 1_555 1_555
H21 C34 1_555 1_555
H22 C34 1_555 1_555
C35 C32 1_555 1_555
H23 C35 1_555 1_555
H24 C35 1_555 1_555
C36 C35 1_555 1_555
H25 C36 1_555 1_555
H26 C36 1_555 1_555
H27 C36 1_555 1_555
O5 N2 1_555 1_555
O6 N2 1_555 1_555
N2 C37 1_555 1_555
C37 H28 1_555 1_555
H29 C37 1_555 1_555
H30 C37 1_555 1_555
O1A C1A 1_555 1_555
O2A C5A 1_555 1_555
O3A C9A 1_555 1_555
O4A C14A 1_555 1_555
N1A C1A 1_555 1_555
C1A C2A 1_555 1_555
C2A C3A 1_555 1_555
C3A C3 1_555 1_555
C4A C3A 1_555 1_555
C5A N1A 1_555 1_555
C6A C7 1_555 1_555
H1A C6A 1_555 1_555
C7A C6 1_555 1_555
H2A C7A 1_555 1_555
C8A N1A 1_555 1_555
C9A C8A 1_555 1_555
C10A C9A 1_555 1_555
H3A C10A 1_555 1_555
C11A C10A 1_555 1_555
H4A C11A 1_555 1_555
C12A C11A 1_555 1_555
C13A C8A 1_555 1_555
H5A C13A 1_555 1_555
C14A O3A 1_555 1_555
C15A C14A 1_555 1_555
H6A C15A 1_555 1_555
H7A C15A 1_555 1_555
C16A C15A 1_555 1_555
C17A C16A 1_555 1_555
C18A C17A 1_555 1_555
H8A C18A 1_555 1_555
C19A C18A 1_555 1_555
H9A C19A 1_555 1_555
C20A C19A 1_555 1_555
C21A C20A 1_555 1_555
C22A C17A 1_555 1_555
C23A C22A 1_555 1_555
C24A C23A 1_555 1_555
H10A C24A 1_555 1_555
C25A C16A 1_555 1_555
H11A C25A 1_555 1_555
C26A C20A 1_555 1_555
H12A C26A 1_555 1_555
C27A C26A 1_555 1_555
H13A C27A 1_555 1_555
C28A C27A 1_555 1_555
H14A C28A 1_555 1_555
C29A C21A 1_555 1_555
C30A C29A 1_555 1_555
H15A C30A 1_555 1_555
C31A C23A 1_555 1_555
H16A C31A 1_555 1_555
C32A C12A 1_555 1_555
C33A C32A 1_555 1_555
H17A C33A 1_555 1_555
H18A C33A 1_555 1_555
H19A C33A 1_555 1_555
C34A C32A 1_555 1_555
H20A C34A 1_555 1_555
H21A C34A 1_555 1_555
H22A C34A 1_555 1_555
C35A C32A 1_555 1_555
H23A C35A 1_555 1_555
H24A C35A 1_555 1_555
C36A C35A 1_555 1_555
H25A C36A 1_555 1_555
H26A C36A 1_555 1_555
H27A C36A 1_555 1_555
C12 C13 1_555 1_555
C21 C22 1_555 1_555
C24 C25 1_555 1_555
C28 C29 1_555 1_555
C30 C31 1_555 1_555
C2A C6A 1_555 1_555
C4A C5A 1_555 1_555
C4A C7A 1_555 1_555
C12A C13A 1_555 1_555
C21A C22A 1_555 1_555
C24A C25A 1_555 1_555
C28A C29A 1_555 1_555
C30A C31A 1_555 1_555

#END
