
#######################################################################
#
#                 Cambridge Crystallographic Data Centre
#                                CCDC 
#
#######################################################################
#
# If this CIF has been generated from an entry in the Cambridge 
# Structural Database, then it will include bibliographic, chemical, 
# crystal, experimental, refinement or atomic coordinate data resulting 
# from the CCDC's data processing and validation procedures.
#
#######################################################################

data_PUNYAA
_chemical_formula_moiety         'C72 H54 N2 O8,1.36(C2 H3 N1),0.64(C1 H2 Cl2)'
_chemical_name_systematic        
'(1,3,6,8-tetraoxo-1,3,6,8-tetrahydrobenzo[lmn][3,8]phenanthroline-2,7-diyl)bis-4-(2-methylbutan-2-yl)-2,1-phenylene bis(pyren-1-ylacetate) acetonitrile dichloromethane solvate'
_symmetry_cell_setting           monoclinic
_symmetry_space_group_name_H-M   'P 21/n'
_symmetry_Int_Tables_number      14
_space_group_name_Hall           '-P 2yn'
loop_
_symmetry_equiv_pos_site_id
_symmetry_equiv_pos_as_xyz
1 x,y,z
2 1/2-x,1/2+y,1/2-z
3 -x,-y,-z
4 1/2+x,1/2-y,1/2+z
_cell_length_a                   17.132(3)
_cell_length_b                   10.4771(16)
_cell_length_c                   17.718(3)
_cell_angle_alpha                90
_cell_angle_beta                 113.969(3)
_cell_angle_gamma                90
_cell_volume                     2906.02
_exptl_crystal_colour            'dark red'
_exptl_crystal_description       block
_cell_formula_units_Z            2
loop_
_atom_site_label
_atom_site_type_symbol
_atom_site_fract_x
_atom_site_fract_y
_atom_site_fract_z
O1 O 0.23641(14) 0.4296(2) 0.40043(14)
O2 O 0.39664(15) 0.4562(3) 0.67610(14)
O3 O 0.20289(15) 0.6333(2) 0.51907(16)
O4 O 0.08992(16) 0.6237(3) 0.39574(19)
N1 N 0.31747(16) 0.4399(2) 0.53822(16)
C1 C 0.30645(19) 0.4446(3) 0.45540(19)
C2 C 0.38458(19) 0.4676(3) 0.44073(18)
C3 C 0.46342(18) 0.4891(3) 0.50787(18)
C4 C 0.47047(19) 0.4892(3) 0.59008(19)
C5 C 0.3947(2) 0.4616(3) 0.6073(2)
C6 C 0.3793(2) 0.4666(3) 0.36104(19)
H1 H 0.3259 0.4514 0.3162
C7 C 0.5479(2) 0.5122(3) 0.65425(19)
H2 H 0.5520 0.5137 0.7094
C8 C 0.2425(2) 0.4172(3) 0.5543(2)
C9 C 0.1847(2) 0.5134(3) 0.5429(2)
C10 C 0.1144(2) 0.4941(4) 0.5608(2)
H3 H 0.0737 0.5603 0.5517
C11 C 0.1036(2) 0.3776(4) 0.5919(2)
H4 H 0.0557 0.3656 0.6053
C12 C 0.1610(2) 0.2772(4) 0.6042(2)
C13 C 0.2308(2) 0.3003(3) 0.5845(2)
H5 H 0.2712 0.2341 0.5920
C14 C 0.1507(2) 0.6797(4) 0.4430(3)
C15 C 0.1818(2) 0.8088(4) 0.4305(3)
H6 H 0.1889 0.8636 0.4783
H7 H 0.1378 0.8485 0.3807
C16 C 0.2659(2) 0.8050(3) 0.4205(2)
C17 C 0.3458(2) 0.8158(3) 0.4879(2)
C18 C 0.3565(3) 0.8241(4) 0.5717(3)
H8 H 0.3081 0.8180 0.5848
C19 C 0.4360(4) 0.8409(4) 0.6337(3)
H9 H 0.4414 0.8476 0.6890
C20 C 0.5109(3) 0.8485(4) 0.6174(4)
C21 C 0.5016(2) 0.8383(3) 0.5361(3)
C22 C 0.4204(2) 0.8209(3) 0.4715(3)
C23 C 0.4132(3) 0.8117(3) 0.3890(3)
C24 C 0.3321(3) 0.7986(4) 0.3250(3)
H10 H 0.3267 0.7910 0.2696
C25 C 0.2614(3) 0.7966(4) 0.3410(3)
H11 H 0.2070 0.7892 0.2963
C26 C 0.5920(4) 0.8698(5) 0.6800(5)
H12 H 0.6005 0.8776 0.7362
C27 C 0.6629(4) 0.8796(5) 0.6547(6)
H13 H 0.7185 0.8941 0.6962
C28 C 0.6540(3) 0.8692(5) 0.5754(6)
H14 H 0.7028 0.8760 0.5629
C29 C 0.5760(3) 0.8492(4) 0.5137(4)
C30 C 0.5614(4) 0.8401(4) 0.4289(5)
H15 H 0.6089 0.8473 0.4144
C31 C 0.4878(4) 0.8229(4) 0.3718(4)
H16 H 0.4819 0.8173 0.3163
C32 C 0.1523(2) 0.1492(4) 0.6419(3)
C33 C 0.0694(4) 0.1382(9) 0.6535(6)
H17 H 0.0667 0.2064 0.6902
H18 H 0.0673 0.0551 0.6780
H19 H 0.0209 0.1459 0.5998
C34 C 0.1497(6) 0.0408(8) 0.5782(5)
H20 H 0.1010 0.0554 0.5254
H21 H 0.1437 -0.0427 0.6002
H22 H 0.2027 0.0428 0.5697
C35 C 0.2296(5) 0.1114(8) 0.7182(4)
H23 H 0.2222 0.0258 0.7381
H24 H 0.2821 0.1118 0.7077
C36 C 0.2325(7) 0.2132(10) 0.7786(6)
H25 H 0.2029 0.2896 0.7486
H26 H 0.2921 0.2344 0.8134
H27 H 0.2042 0.1824 0.8134
O1B O 0.76359(14) 0.5704(2) 0.59957(14)
O2B O 0.60336(15) 0.5438(3) 0.32390(14)
O3B O 0.79711(15) 0.3667(2) 0.48093(16)
O4B O 0.91008(16) 0.3763(3) 0.60426(19)
N1B N 0.68253(16) 0.5601(2) 0.46178(16)
C1B C 0.69355(19) 0.5554(3) 0.54460(19)
C2B C 0.61542(19) 0.5324(3) 0.55927(18)
C3B C 0.53658(18) 0.5109(3) 0.49213(18)
C4B C 0.52953(19) 0.5108(3) 0.40992(19)
C5B C 0.6053(2) 0.5384(3) 0.3927(2)
C6B C 0.6207(2) 0.5334(3) 0.63896(19)
H1B H 0.6741 0.5486 0.6838
C7B C 0.4521(2) 0.4878(3) 0.34575(19)
H2B H 0.4480 0.4863 0.2906
C8B C 0.7575(2) 0.5828(3) 0.4457(2)
C9B C 0.8153(2) 0.4866(3) 0.4571(2)
C10B C 0.8856(2) 0.5059(4) 0.4392(2)
H3B H 0.9263 0.4397 0.4483
C11B C 0.8964(2) 0.6224(4) 0.4081(2)
H4B H 0.9443 0.6344 0.3947
C12B C 0.8390(2) 0.7228(4) 0.3958(2)
C13B C 0.7692(2) 0.6997(3) 0.4155(2)
H5B H 0.7288 0.7659 0.4080
C14B C 0.8493(2) 0.3203(4) 0.5570(3)
C15B C 0.8182(2) 0.1912(4) 0.5695(3)
H6B H 0.8111 0.1364 0.5217
H7B H 0.8622 0.1515 0.6193
C16B C 0.7341(2) 0.1950(3) 0.5795(2)
C17B C 0.6542(2) 0.1842(3) 0.5121(2)
C18B C 0.6435(3) 0.1759(4) 0.4283(3)
H8B H 0.6919 0.1820 0.4152
C19B C 0.5640(4) 0.1591(4) 0.3663(3)
H9B H 0.5586 0.1524 0.3110
C20B C 0.4891(3) 0.1515(4) 0.3826(4)
C21B C 0.4984(2) 0.1617(3) 0.4639(3)
C22B C 0.5796(2) 0.1791(3) 0.5285(3)
C23B C 0.5868(3) 0.1883(3) 0.6110(3)
C24B C 0.6679(3) 0.2014(4) 0.6750(3)
H10B H 0.6733 0.2090 0.7304
C25B C 0.7386(3) 0.2034(4) 0.6590(3)
H11B H 0.7930 0.2108 0.7037
C26B C 0.4080(4) 0.1302(5) 0.3200(5)
H12B H 0.3995 0.1224 0.2638
C27B C 0.3371(4) 0.1204(5) 0.3453(6)
H13B H 0.2815 0.1059 0.3038
C28B C 0.3460(3) 0.1308(5) 0.4246(6)
H14B H 0.2972 0.1240 0.4371
C29B C 0.4240(3) 0.1508(4) 0.4863(4)
C30B C 0.4386(4) 0.1599(4) 0.5711(5)
H15B H 0.3911 0.1527 0.5856
C31B C 0.5122(4) 0.1771(4) 0.6282(4)
H16B H 0.5181 0.1827 0.6837
C32B C 0.8477(2) 0.8508(4) 0.3581(3)
C33B C 0.9306(4) 0.8618(9) 0.3465(6)
H17B H 0.9333 0.7936 0.3098
H18B H 0.9327 0.9449 0.3220
H19B H 0.9791 0.8541 0.4002
C34B C 0.8503(6) 0.9592(8) 0.4218(5)
H20B H 0.8990 0.9446 0.4746
H21B H 0.8563 1.0427 0.3998
H22B H 0.7973 0.9572 0.4303
C35B C 0.7704(5) 0.8886(8) 0.2818(4)
H23B H 0.7778 0.9742 0.2619
H24B H 0.7179 0.8882 0.2923
C36B C 0.7675(7) 0.7868(10) 0.2214(6)
H25B H 0.7971 0.7104 0.2514
H26B H 0.7079 0.7656 0.1866
H27B H 0.7958 0.8176 0.1866
N2 N 0.3730(4) 0.6070(7) 0.1422(4)
C37 C 0.4083(4) 0.6929(7) 0.1428(4)
C38 C 0.4518(5) 0.8088(8) 0.1382(5)
H28 H 0.4096 0.8747 0.1093
H29 H 0.4876 0.7922 0.1081
H30 H 0.4876 0.8383 0.1942
C39 C 0.4339(10) 0.7803(19) 0.1175(14)
H31 H 0.4259 0.7794 0.0590
H32 H 0.4066 0.8584 0.1270
Cl1 Cl 0.3857(4) 0.6466(7) 0.1378(3)
Cl2 Cl 0.5411(3) 0.7822(5) 0.1803(3)
C40? C 0.0612(4) 0.1170(12) 0.6299(7)
H33? H 0.0397 0.1835 0.6554
H34? H 0.0607 0.0346 0.6559
H35? H 0.0246 0.1122 0.5708
C41? C 0.1977(8) 0.0380(10) 0.6253(8)
H36? H 0.1756 0.0230 0.5656
H37? H 0.1882 -0.0381 0.6526
H38? H 0.2590 0.0562 0.6467
C42? C 0.2000(7) 0.1713(14) 0.7378(5)
H39? H 0.1756 0.2471 0.7538
H40? H 0.1910 0.0964 0.7674
C43? C 0.2938(8) 0.1908(19) 0.7626(10)
H41? H 0.3051 0.2030 0.7131
H42? H 0.3251 0.1158 0.7930
H43? H 0.3126 0.2665 0.7980
C44? C 0.453(2) 0.784(8) 0.127(4)
H44? H 0.4213 0.7212 0.1449
H45? H 0.4117 0.8416 0.0858
Cl3? Cl 0.5129(10) 0.7040(15) 0.0813(9)
Cl4? Cl 0.5229(13) 0.8729(18) 0.2123(11)
loop_
_geom_bond_atom_site_label_1
_geom_bond_atom_site_label_2
_geom_bond_site_symmetry_1
_geom_bond_site_symmetry_2
O1 C1 1_555 1_555
O2 C5 1_555 1_555
O3 C9 1_555 1_555
O4 C14 1_555 1_555
N1 C1 1_555 1_555
C1 C2 1_555 1_555
C2 C3 1_555 1_555
C3 C4 1_555 1_555
C4 C5 1_555 1_555
C5 N1 1_555 1_555
C6 C2 1_555 1_555
H1 C6 1_555 1_555
C7 C4 1_555 1_555
H2 C7 1_555 1_555
C8 N1 1_555 1_555
C9 C8 1_555 1_555
C10 C9 1_555 1_555
H3 C10 1_555 1_555
C11 C10 1_555 1_555
H4 C11 1_555 1_555
C12 C11 1_555 1_555
C13 C8 1_555 1_555
H5 C13 1_555 1_555
C14 O3 1_555 1_555
C15 C14 1_555 1_555
H6 C15 1_555 1_555
H7 C15 1_555 1_555
C16 C15 1_555 1_555
C17 C16 1_555 1_555
C18 C17 1_555 1_555
H8 C18 1_555 1_555
C19 C18 1_555 1_555
H9 C19 1_555 1_555
C20 C19 1_555 1_555
C21 C20 1_555 1_555
C22 C17 1_555 1_555
C23 C22 1_555 1_555
C24 C23 1_555 1_555
H10 C24 1_555 1_555
C25 C16 1_555 1_555
H11 C25 1_555 1_555
C26 C20 1_555 1_555
H12 C26 1_555 1_555
C27 C26 1_555 1_555
H13 C27 1_555 1_555
C28 C27 1_555 1_555
H14 C28 1_555 1_555
C29 C21 1_555 1_555
C30 C29 1_555 1_555
H15 C30 1_555 1_555
C31 C23 1_555 1_555
H16 C31 1_555 1_555
C32 C12 1_555 1_555
C33 C32 1_555 1_555
H17 C33 1_555 1_555
H18 C33 1_555 1_555
H19 C33 1_555 1_555
C34 C32 1_555 1_555
H20 C34 1_555 1_555
H21 C34 1_555 1_555
H22 C34 1_555 1_555
C35 C32 1_555 1_555
H23 C35 1_555 1_555
H24 C35 1_555 1_555
C36 C35 1_555 1_555
H25 C36 1_555 1_555
H26 C36 1_555 1_555
H27 C36 1_555 1_555
N2 C37 1_555 1_555
C37 C38 1_555 1_555
C38 H28 1_555 1_555
H29 C38 1_555 1_555
H30 C38 1_555 1_555
C39 H31 1_555 1_555
H32 C39 1_555 1_555
Cl1 C39 1_555 1_555
Cl2 C39 1_555 1_555
O1B C1B 1_555 1_555
O2B C5B 1_555 1_555
O3B C9B 1_555 1_555
O4B C14B 1_555 1_555
N1B C1B 1_555 1_555
C1B C2B 1_555 1_555
C2B C3B 1_555 1_555
C3B C3 1_555 1_555
C4B C3B 1_555 1_555
C5B N1B 1_555 1_555
C6B C7 1_555 1_555
H1B C6B 1_555 1_555
C7B C6 1_555 1_555
H2B C7B 1_555 1_555
C8B N1B 1_555 1_555
C9B C8B 1_555 1_555
C10B C9B 1_555 1_555
H3B C10B 1_555 1_555
C11B C10B 1_555 1_555
H4B C11B 1_555 1_555
C12B C11B 1_555 1_555
C13B C8B 1_555 1_555
H5B C13B 1_555 1_555
C14B O3B 1_555 1_555
C15B C14B 1_555 1_555
H6B C15B 1_555 1_555
H7B C15B 1_555 1_555
C16B C15B 1_555 1_555
C17B C16B 1_555 1_555
C18B C17B 1_555 1_555
H8B C18B 1_555 1_555
C19B C18B 1_555 1_555
H9B C19B 1_555 1_555
C20B C19B 1_555 1_555
C21B C20B 1_555 1_555
C22B C17B 1_555 1_555
C23B C22B 1_555 1_555
C24B C23B 1_555 1_555
H10B C24B 1_555 1_555
C25B C16B 1_555 1_555
H11B C25B 1_555 1_555
C26B C20B 1_555 1_555
H12B C26B 1_555 1_555
C27B C26B 1_555 1_555
H13B C27B 1_555 1_555
C28B C27B 1_555 1_555
H14B C28B 1_555 1_555
C29B C21B 1_555 1_555
C30B C29B 1_555 1_555
H15B C30B 1_555 1_555
C31B C23B 1_555 1_555
H16B C31B 1_555 1_555
C32B C12B 1_555 1_555
C33B C32B 1_555 1_555
H17B C33B 1_555 1_555
H18B C33B 1_555 1_555
H19B C33B 1_555 1_555
C34B C32B 1_555 1_555
H20B C34B 1_555 1_555
H21B C34B 1_555 1_555
H22B C34B 1_555 1_555
C35B C32B 1_555 1_555
H23B C35B 1_555 1_555
H24B C35B 1_555 1_555
C36B C35B 1_555 1_555
H25B C36B 1_555 1_555
H26B C36B 1_555 1_555
H27B C36B 1_555 1_555
C12 C13 1_555 1_555
C21 C22 1_555 1_555
C24 C25 1_555 1_555
C28 C29 1_555 1_555
C30 C31 1_555 1_555
C2B C6B 1_555 1_555
C4B C5B 1_555 1_555
C4B C7B 1_555 1_555
C12B C13B 1_555 1_555
C21B C22B 1_555 1_555
C24B C25B 1_555 1_555
C28B C29B 1_555 1_555
C30B C31B 1_555 1_555

#END
