
#######################################################################
#
#                 Cambridge Crystallographic Data Centre
#                                CCDC 
#
#######################################################################
#
# If this CIF has been generated from an entry in the Cambridge 
# Structural Database, then it will include bibliographic, chemical, 
# crystal, experimental, refinement or atomic coordinate data resulting 
# from the CCDC's data processing and validation procedures.
#
#######################################################################

data_PUPBEH
_chemical_formula_moiety         'C20 H14 F6 O5'
_chemical_name_systematic        
1-Benzoyloxy-5-benzoyloxymethyl-2,2,3,3,4,4-hexafluoro-oxane
_symmetry_cell_setting           monoclinic
_symmetry_space_group_name_H-M   'C 2/c'
_symmetry_Int_Tables_number      15
_space_group_name_Hall           '-C 2yn'
loop_
_symmetry_equiv_pos_site_id
_symmetry_equiv_pos_as_xyz
1 x,y,z
2 1/2+x,1/2+y,z
3 -x,y,1/2-z
4 1/2-x,1/2+y,1/2-z
5 -x,-y,-z
6 1/2-x,1/2-y,-z
7 x,-y,1/2+z
8 1/2+x,1/2-y,1/2+z
_cell_length_a                   13.625(3)
_cell_length_b                   20.648(4)
_cell_length_c                   13.939(3)
_cell_angle_alpha                90
_cell_angle_beta                 92.33(3)
_cell_angle_gamma                90
_cell_volume                     3918.2
_exptl_crystal_colour            colorless
_exptl_crystal_description       chunk
_cell_formula_units_Z            8
loop_
_atom_site_label
_atom_site_type_symbol
_atom_site_fract_x
_atom_site_fract_y
_atom_site_fract_z
O1 O 0.74396(10) 0.41364(7) 0.21661(9)
O2 O 0.87419(10) 0.47657(7) 0.08925(10)
O3 O 1.02919(11) 0.45449(8) 0.14046(11)
O4 O 0.63969(10) 0.43543(7) 0.33423(10)
O5 O 0.73120(12) 0.51919(10) 0.38836(18)
F1 F 0.75190(12) 0.29175(7) 0.12571(10)
F2 F 0.90649(11) 0.28181(7) 0.17033(11)
F3 F 0.76932(12) 0.22699(6) 0.29137(11)
F4 F 0.87045(10) 0.29931(7) 0.35180(10)
F5 F 0.62342(9) 0.31251(7) 0.27977(11)
F6 F 0.69695(12) 0.31689(7) 0.42156(10)
C1 C 0.72636(14) 0.40279(10) 0.31411(14)
H1 H 0.7827 0.4178 0.3566
C2 C 0.70654(15) 0.33049(11) 0.32728(15)
C3 C 0.79207(16) 0.29038(10) 0.29081(16)
C4 C 0.82182(15) 0.31212(10) 0.19093(15)
C5 C 0.83407(14) 0.38489(10) 0.18818(13)
H2 H 0.8891 0.3983 0.2336
C6 C 0.85365(16) 0.40858(11) 0.08766(14)
H3 H 0.9103 0.3848 0.0625
H4 H 0.7956 0.4000 0.0446
C7 C 0.96658(14) 0.49342(10) 0.11641(13)
C8 C 0.98146(14) 0.56442(10) 0.11331(12)
C9 C 1.06992(16) 0.58936(12) 0.15030(14)
H5 H 1.1193 0.5612 0.1764
C10 C 1.0855(2) 0.65587(14) 0.14876(18)
H6 H 1.1457 0.6733 0.1740
C11 C 1.0143(2) 0.69653(13) 0.11093(18)
H7 H 1.0255 0.7419 0.1102
C12 C 0.9261(2) 0.67198(13) 0.07377(17)
H8 H 0.8770 0.7004 0.0478
C13 C 0.90965(16) 0.60597(11) 0.07459(14)
H9 H 0.8494 0.5889 0.0488
C14 C 0.65183(14) 0.49736(10) 0.36875(15)
C15 C 0.55725(14) 0.53127(10) 0.37892(14)
C16 C 0.56122(18) 0.59776(12) 0.3963(2)
H10 H 0.6228 0.6192 0.4019
C17 C 0.4755(2) 0.63211(13) 0.4053(3)
H11 H 0.4781 0.6775 0.4164
C18 C 0.38604(17) 0.60110(13) 0.39817(18)
H12 H 0.3273 0.6252 0.4043
C19 C 0.38116(15) 0.53530(12) 0.38219(15)
H13 H 0.3193 0.5140 0.3783
C20 C 0.46763(14) 0.50006(10) 0.37180(14)
H14 H 0.4648 0.4548 0.3599
loop_
_geom_bond_atom_site_label_1
_geom_bond_atom_site_label_2
_geom_bond_site_symmetry_1
_geom_bond_site_symmetry_2
O1 C1 1_555 1_555
O2 C6 1_555 1_555
O3 C7 1_555 1_555
O4 C1 1_555 1_555
O5 C14 1_555 1_555
F1 C4 1_555 1_555
F2 C4 1_555 1_555
F3 C3 1_555 1_555
F4 C3 1_555 1_555
F5 C2 1_555 1_555
F6 C2 1_555 1_555
C1 H1 1_555 1_555
C2 C1 1_555 1_555
C3 C2 1_555 1_555
C4 C3 1_555 1_555
C5 O1 1_555 1_555
H2 C5 1_555 1_555
C6 C5 1_555 1_555
H3 C6 1_555 1_555
H4 C6 1_555 1_555
C7 O2 1_555 1_555
C8 C7 1_555 1_555
C9 C8 1_555 1_555
H5 C9 1_555 1_555
C10 C9 1_555 1_555
H6 C10 1_555 1_555
C11 C10 1_555 1_555
H7 C11 1_555 1_555
C12 C11 1_555 1_555
H8 C12 1_555 1_555
C13 C8 1_555 1_555
H9 C13 1_555 1_555
C14 O4 1_555 1_555
C15 C14 1_555 1_555
C16 C15 1_555 1_555
H10 C16 1_555 1_555
C17 C16 1_555 1_555
H11 C17 1_555 1_555
C18 C17 1_555 1_555
H12 C18 1_555 1_555
C19 C18 1_555 1_555
H13 C19 1_555 1_555
C20 C15 1_555 1_555
H14 C20 1_555 1_555
C4 C5 1_555 1_555
C12 C13 1_555 1_555
C19 C20 1_555 1_555

#END
