
#######################################################################
#
#                 Cambridge Crystallographic Data Centre
#                                CCDC 
#
#######################################################################
#
# If this CIF has been generated from an entry in the Cambridge 
# Structural Database, then it will include bibliographic, chemical, 
# crystal, experimental, refinement or atomic coordinate data resulting 
# from the CCDC's data processing and validation procedures.
#
#######################################################################

data_PUPHIT
_chemical_formula_moiety         'C70 H72 F2 N4 O10 S4,C4 H8 O2'
_chemical_name_systematic        
"(1,1'-dibenzyl-2,2'-dioxo-1,1',2,2'-tetrahydro-3H,3'H-3,3'-biindole-3,3'-diyl)bis-2-(benzyl(t-butylsulfinyl)amino)propane-3,1-diyl bis(4-fluorobenzenesulfonate) ethyl acetate"
_symmetry_cell_setting           orthorhombic
_symmetry_space_group_name_H-M   'P 21 21 21'
_symmetry_Int_Tables_number      19
_space_group_name_Hall           'P 2ac 2ab'
loop_
_symmetry_equiv_pos_site_id
_symmetry_equiv_pos_as_xyz
1 x,y,z
2 1/2+x,1/2-y,-z
3 -x,1/2+y,1/2-z
4 1/2-x,-y,1/2+z
_cell_length_a                   10.1404(9)
_cell_length_b                   25.087(2)
_cell_length_c                   27.663(3)
_cell_angle_alpha                90
_cell_angle_beta                 90
_cell_angle_gamma                90
_cell_volume                     7037.25
_exptl_crystal_colour            colorless
_exptl_crystal_description       sheet
_cell_formula_units_Z            4
loop_
_atom_site_label
_atom_site_type_symbol
_atom_site_fract_x
_atom_site_fract_y
_atom_site_fract_z
S1 S 0.85655(6) 0.54950(2) 0.98911(2)
S2 S 1.09653(6) 0.61903(2) 0.538922(19)
S3 S 0.74668(5) 0.70947(2) 0.63754(2)
S4 S 0.91299(6) 0.70551(2) 0.88144(2)
F1 F 0.88446(17) 0.32108(6) 0.95393(6)
F2 F 1.19512(18) 0.39201(6) 0.55974(7)
O1 O 0.79516(15) 0.57674(6) 0.94297(5)
O2 O 1.07640(15) 0.64169(6) 0.59150(5)
O3 O 0.75834(19) 0.55599(7) 1.02533(6)
O4 O 0.64416(15) 0.57728(6) 0.76134(6)
O5 O 1.13744(15) 0.62471(6) 0.75725(5)
O6 O 0.66624(16) 0.73536(7) 0.67595(6)
O7 O 1.21504(18) 0.64354(7) 0.52241(6)
O8 O 0.97803(18) 0.62522(7) 0.51187(6)
O9 O 0.91106(18) 0.74483(6) 0.84105(6)
O10 O 0.98621(18) 0.56960(7) 0.99749(6)
N1 N 0.72029(18) 0.49528(7) 0.78534(7)
N2 N 1.15827(18) 0.54399(7) 0.71877(6)
N3 N 0.90704(17) 0.70696(7) 0.65556(6)
N4 N 0.77637(18) 0.66631(7) 0.87878(7)
C1 C 0.8809(3) 0.37481(10) 0.95930(9)
C2 C 0.9904(3) 0.40019(10) 0.97704(9)
H1 H 1.0683 0.3809 0.9845
C3 C 0.9841(3) 0.45491(10) 0.98381(9)
H2 H 1.0586 0.4738 0.9956
C4 C 0.8678(2) 0.48188(9) 0.97314(8)
C5 C 0.8819(2) 0.58077(9) 0.90111(8)
H3 H 0.9055 0.5448 0.8893
H4 H 0.9640 0.5997 0.9100
C6 C 0.8089(2) 0.61129(8) 0.86204(7)
H5 H 0.7242 0.5922 0.8553
C7 C 0.8906(2) 0.61251(8) 0.81477(7)
H6 H 0.8642 0.6445 0.7961
H7 H 0.9847 0.6169 0.8235
C8 C 0.8789(2) 0.56362(8) 0.78129(7)
C9 C 0.9402(2) 0.57527(8) 0.72916(7)
C10 C 0.8695(2) 0.62215(8) 0.70278(7)
H8 H 0.7904 0.6080 0.6862
H9 H 0.8391 0.6481 0.7274
C11 C 0.9546(2) 0.65188(8) 0.66543(8)
H10 H 1.0454 0.6549 0.6792
C12 C 0.9655(2) 0.62016(9) 0.61886(8)
H11 H 0.9805 0.5820 0.6261
H12 H 0.8831 0.6234 0.5999
C13 C 1.1234(2) 0.55068(9) 0.54743(8)
C14 C 1.2468(2) 0.53373(9) 0.56307(8)
H13 H 1.3134 0.5589 0.5710
C15 C 1.2710(2) 0.47947(9) 0.56681(9)
H14 H 1.3547 0.4666 0.5769
C16 C 1.1708(3) 0.44481(9) 0.55546(9)
C17 C 0.7596(2) 0.45525(10) 0.95401(9)
H15 H 0.6818 0.4744 0.9460
C18 C 0.7654(3) 0.40091(10) 0.94670(9)
H16 H 0.6927 0.3820 0.9335
C19 C 0.9374(2) 0.51295(8) 0.80212(7)
C20 C 1.0621(2) 0.50083(9) 0.81897(8)
H17 H 1.1284 0.5275 0.8203
C21 C 1.0895(3) 0.44899(10) 0.83395(8)
H18 H 1.1752 0.4401 0.8453
C22 C 0.9921(3) 0.41040(10) 0.83237(9)
H19 H 1.0131 0.3750 0.8419
C23 C 0.8637(2) 0.42179(9) 0.81711(9)
H20 H 0.7965 0.3954 0.8170
C24 C 0.8395(2) 0.47353(9) 0.80220(8)
C25 C 0.7333(2) 0.54829(8) 0.77422(7)
C26 C 0.5953(2) 0.46642(9) 0.78115(8)
H21 H 0.6131 0.4294 0.7706
H22 H 0.5401 0.4837 0.7561
C27 C 0.5201(2) 0.46528(9) 0.82842(8)
C28 C 0.5020(2) 0.41790(9) 0.85374(9)
H23 H 0.5364 0.3855 0.8411
C29 C 0.4342(2) 0.41772(10) 0.89726(9)
H24 H 0.4229 0.3853 0.9145
C30 C 0.3830(3) 0.46447(11) 0.91555(8)
H25 H 0.3360 0.4641 0.9453
C31 C 0.3998(3) 0.51194(10) 0.89071(9)
H26 H 0.3644 0.5441 0.9033
C32 C 0.4686(2) 0.51218(9) 0.84743(9)
H27 H 0.4808 0.5448 0.8305
C33 C 0.9440(2) 0.52368(8) 0.70059(7)
C34 C 1.0744(2) 0.50601(9) 0.69774(7)
C35 C 1.1080(2) 0.45692(9) 0.67770(8)
H28 H 1.1967 0.4449 0.6766
C36 C 1.0046(3) 0.42631(10) 0.65925(9)
H29 H 1.0233 0.3923 0.6458
C37 C 0.8750(3) 0.44433(10) 0.66008(9)
H30 H 0.8070 0.4230 0.6464
C38 C 0.8439(2) 0.49333(9) 0.68081(8)
H31 H 0.7554 0.5057 0.6813
C39 C 1.0891(2) 0.58604(8) 0.73726(7)
C40 C 1.3010(2) 0.53802(9) 0.72571(8)
H32 H 1.3212 0.4999 0.7312
H33 H 1.3274 0.5579 0.7551
C41 C 1.3824(2) 0.55784(9) 0.68322(8)
C42 C 1.3786(2) 0.61112(10) 0.66995(9)
H34 H 1.3214 0.6349 0.6866
C43 C 1.4567(3) 0.63009(10) 0.63295(10)
H35 H 1.4521 0.6666 0.6239
C44 C 1.5424(2) 0.59589(11) 0.60875(9)
H36 H 1.5972 0.6091 0.5836
C45 C 1.5472(2) 0.54271(11) 0.62150(9)
H37 H 1.6046 0.5191 0.6048
C46 C 1.4677(2) 0.52355(10) 0.65901(8)
H38 H 1.4720 0.4870 0.6680
C47 C 0.7530(2) 0.75790(8) 0.58709(8)
C48 C 0.8376(2) 0.73393(9) 0.54702(9)
H39 H 0.8343 0.7570 0.5185
H40 H 0.8039 0.6985 0.5386
H41 H 0.9290 0.7308 0.5582
C49 C 0.6092(2) 0.76225(10) 0.57123(10)
H42 H 0.5564 0.7770 0.5977
H43 H 0.5758 0.7268 0.5628
H44 H 0.6029 0.7857 0.5430
C50 C 0.8061(2) 0.81143(9) 0.60371(9)
H45 H 0.9003 0.8081 0.6110
H46 H 0.7586 0.8228 0.6328
H47 H 0.7935 0.8379 0.5780
C51 C 0.9437(2) 0.74458(9) 0.69459(8)
H48 H 0.9187 0.7291 0.7262
H49 H 0.8941 0.7782 0.6904
C52 C 1.0898(2) 0.75646(8) 0.69450(8)
C53 C 1.1561(3) 0.76291(10) 0.73808(10)
H50 H 1.1096 0.7600 0.7678
C54 C 1.2904(3) 0.77367(11) 0.73817(11)
H51 H 1.3355 0.7778 0.7680
C55 C 1.3594(3) 0.77845(10) 0.69497(12)
H52 H 1.4514 0.7856 0.6951
C56 C 1.2932(3) 0.77276(10) 0.65227(11)
H53 H 1.3397 0.7765 0.6227
C57 C 1.1592(2) 0.76164(9) 0.65138(9)
H54 H 1.1149 0.7576 0.6214
C58 C 1.0230(2) 0.51473(10) 0.53711(9)
H55 H 0.9385 0.5272 0.5275
C59 C 1.0474(3) 0.46048(10) 0.54097(10)
H56 H 0.9809 0.4350 0.5338
C60 C 0.8821(3) 0.74370(9) 0.93709(8)
C61 C 0.7515(3) 0.77378(10) 0.93550(10)
H57 H 0.6784 0.7482 0.9355
H58 H 0.7476 0.7955 0.9061
H59 H 0.7445 0.7970 0.9639
C62 C 0.8866(3) 0.70500(10) 0.97943(9)
H60 H 0.8805 0.7249 1.0098
H61 H 0.9696 0.6851 0.9786
H62 H 0.8123 0.6801 0.9771
C63 C 1.0007(3) 0.78222(10) 0.93900(10)
H63 H 0.9990 0.8020 0.9695
H64 H 0.9954 0.8073 0.9119
H65 H 1.0829 0.7618 0.9368
C64 C 0.6632(2) 0.68890(9) 0.85149(9)
H66 H 0.6691 0.6771 0.8174
H67 H 0.6696 0.7283 0.8519
C65 C 0.5312(2) 0.67268(9) 0.87153(9)
C66 C 0.4210(3) 0.67410(10) 0.84072(10)
H68 H 0.4328 0.6816 0.8073
C67 C 0.2959(3) 0.66477(11) 0.85838(12)
H69 H 0.2224 0.6661 0.8371
C68 C 0.2766(3) 0.65357(11) 0.90672(11)
H70 H 0.1900 0.6483 0.9189
C69 C 0.3841(2) 0.65010(10) 0.93724(10)
H71 H 0.3716 0.6412 0.9703
C70 C 0.5105(2) 0.65957(9) 0.91984(9)
H72 H 0.5836 0.6571 0.9412
O11 O 0.4534(2) 0.32279(8) 0.67034(9)
O12 O 0.4099(2) 0.40008(8) 0.70671(10)
C71 C 0.2890(4) 0.32244(12) 0.72895(11)
H73 H 0.2391 0.3465 0.7500
H74 H 0.3331 0.2953 0.7486
H75 H 0.2286 0.3051 0.7062
C72 C 0.3885(3) 0.35314(11) 0.70186(11)
C73 C 0.5479(4) 0.35141(17) 0.6383(2)
H76 H 0.4979 0.3727 0.6144
H77 H 0.6012 0.3763 0.6580
C74 C 0.6316(6) 0.31666(18) 0.61400(17)
H78 H 0.6766 0.2937 0.6374
H79 H 0.6972 0.3372 0.5958
H80 H 0.5802 0.2946 0.5916
loop_
_geom_bond_atom_site_label_1
_geom_bond_atom_site_label_2
_geom_bond_site_symmetry_1
_geom_bond_site_symmetry_2
S1 O1 1_555 1_555
S2 O2 1_555 1_555
S3 O6 1_555 1_555
S4 O9 1_555 1_555
F1 C1 1_555 1_555
F2 C16 1_555 1_555
O1 C5 1_555 1_555
O2 C12 1_555 1_555
O3 S1 1_555 1_555
O4 C25 1_555 1_555
O5 C39 1_555 1_555
O7 S2 1_555 1_555
O8 S2 1_555 1_555
O10 S1 1_555 1_555
N1 C24 1_555 1_555
N2 C34 1_555 1_555
N3 S3 1_555 1_555
N4 S4 1_555 1_555
C1 C2 1_555 1_555
C2 H1 1_555 1_555
C3 C2 1_555 1_555
H2 C3 1_555 1_555
C4 S1 1_555 1_555
C5 H3 1_555 1_555
H4 C5 1_555 1_555
C6 N4 1_555 1_555
H5 C6 1_555 1_555
C7 C6 1_555 1_555
H6 C7 1_555 1_555
H7 C7 1_555 1_555
C8 C7 1_555 1_555
C9 C8 1_555 1_555
C10 C9 1_555 1_555
H8 C10 1_555 1_555
H9 C10 1_555 1_555
C11 N3 1_555 1_555
H10 C11 1_555 1_555
C12 C11 1_555 1_555
H11 C12 1_555 1_555
H12 C12 1_555 1_555
C13 S2 1_555 1_555
C14 C13 1_555 1_555
H13 C14 1_555 1_555
C15 C14 1_555 1_555
H14 C15 1_555 1_555
C16 C15 1_555 1_555
C17 C4 1_555 1_555
H15 C17 1_555 1_555
C18 C1 1_555 1_555
H16 C18 1_555 1_555
C19 C8 1_555 1_555
C20 C19 1_555 1_555
H17 C20 1_555 1_555
C21 C20 1_555 1_555
H18 C21 1_555 1_555
C22 C21 1_555 1_555
H19 C22 1_555 1_555
C23 C22 1_555 1_555
H20 C23 1_555 1_555
C24 C19 1_555 1_555
C25 N1 1_555 1_555
C26 N1 1_555 1_555
H21 C26 1_555 1_555
H22 C26 1_555 1_555
C27 C26 1_555 1_555
C28 C27 1_555 1_555
H23 C28 1_555 1_555
C29 C28 1_555 1_555
H24 C29 1_555 1_555
C30 C29 1_555 1_555
H25 C30 1_555 1_555
C31 C30 1_555 1_555
H26 C31 1_555 1_555
C32 C27 1_555 1_555
H27 C32 1_555 1_555
C33 C9 1_555 1_555
C34 C33 1_555 1_555
C35 C34 1_555 1_555
H28 C35 1_555 1_555
C36 C35 1_555 1_555
H29 C36 1_555 1_555
C37 C36 1_555 1_555
H30 C37 1_555 1_555
C38 C33 1_555 1_555
H31 C38 1_555 1_555
C39 N2 1_555 1_555
C40 N2 1_555 1_555
H32 C40 1_555 1_555
H33 C40 1_555 1_555
C41 C40 1_555 1_555
C42 C41 1_555 1_555
H34 C42 1_555 1_555
C43 C42 1_555 1_555
H35 C43 1_555 1_555
C44 C43 1_555 1_555
H36 C44 1_555 1_555
C45 C44 1_555 1_555
H37 C45 1_555 1_555
C46 C41 1_555 1_555
H38 C46 1_555 1_555
C47 S3 1_555 1_555
C48 C47 1_555 1_555
H39 C48 1_555 1_555
H40 C48 1_555 1_555
H41 C48 1_555 1_555
C49 C47 1_555 1_555
H42 C49 1_555 1_555
H43 C49 1_555 1_555
H44 C49 1_555 1_555
C50 C47 1_555 1_555
H45 C50 1_555 1_555
H46 C50 1_555 1_555
H47 C50 1_555 1_555
C51 N3 1_555 1_555
H48 C51 1_555 1_555
H49 C51 1_555 1_555
C52 C51 1_555 1_555
C53 C52 1_555 1_555
H50 C53 1_555 1_555
C54 C53 1_555 1_555
H51 C54 1_555 1_555
C55 C54 1_555 1_555
H52 C55 1_555 1_555
C56 C55 1_555 1_555
H53 C56 1_555 1_555
C57 C52 1_555 1_555
H54 C57 1_555 1_555
C58 C13 1_555 1_555
H55 C58 1_555 1_555
C59 C16 1_555 1_555
H56 C59 1_555 1_555
C60 S4 1_555 1_555
C61 C60 1_555 1_555
H57 C61 1_555 1_555
H58 C61 1_555 1_555
H59 C61 1_555 1_555
C62 C60 1_555 1_555
H60 C62 1_555 1_555
H61 C62 1_555 1_555
H62 C62 1_555 1_555
C63 C60 1_555 1_555
H63 C63 1_555 1_555
H64 C63 1_555 1_555
H65 C63 1_555 1_555
C64 N4 1_555 1_555
H66 C64 1_555 1_555
H67 C64 1_555 1_555
C65 C64 1_555 1_555
C66 C65 1_555 1_555
H68 C66 1_555 1_555
C67 C66 1_555 1_555
H69 C67 1_555 1_555
C68 C67 1_555 1_555
H70 C68 1_555 1_555
C69 C68 1_555 1_555
H71 C69 1_555 1_555
C70 C65 1_555 1_555
H72 C70 1_555 1_555
O11 C72 1_555 1_555
O12 C72 1_555 1_555
C71 H73 1_555 1_555
H74 C71 1_555 1_555
H75 C71 1_555 1_555
C72 C71 1_555 1_555
C73 O11 1_555 1_555
H76 C73 1_555 1_555
H77 C73 1_555 1_555
C74 C73 1_555 1_555
H78 C74 1_555 1_555
H79 C74 1_555 1_555
H80 C74 1_555 1_555
C3 C4 1_555 1_555
C5 C6 1_555 1_555
C8 C25 1_555 1_555
C9 C39 1_555 1_555
C10 C11 1_555 1_555
C17 C18 1_555 1_555
C23 C24 1_555 1_555
C31 C32 1_555 1_555
C37 C38 1_555 1_555
C45 C46 1_555 1_555
C56 C57 1_555 1_555
C58 C59 1_555 1_555
C69 C70 1_555 1_555

#END
