
#######################################################################
#
#                 Cambridge Crystallographic Data Centre
#                                CCDC 
#
#######################################################################
#
# If this CIF has been generated from an entry in the Cambridge 
# Structural Database, then it will include bibliographic, chemical, 
# crystal, experimental, refinement or atomic coordinate data resulting 
# from the CCDC's data processing and validation procedures.
#
#######################################################################

data_PUPMEU
_chemical_formula_moiety         'C19 H18 F3 N1 O3'
_chemical_name_systematic        
6,7-Dimethoxy-1-methyl-4-phenyl-3-(trifluoromethyl)-3,4-dihydroquinolin-2(1H)-one
_symmetry_cell_setting           orthorhombic
_symmetry_space_group_name_H-M   'P b c a'
_symmetry_Int_Tables_number      61
_space_group_name_Hall           '-P 2ac 2ab'
loop_
_symmetry_equiv_pos_site_id
_symmetry_equiv_pos_as_xyz
1 x,y,z
2 1/2-x,-y,1/2+z
3 -x,1/2+y,1/2-z
4 1/2+x,1/2-y,-z
5 -x,-y,-z
6 1/2+x,y,1/2-z
7 x,1/2-y,1/2+z
8 1/2-x,1/2+y,z
_cell_length_a                   13.477(3)
_cell_length_b                   13.037(3)
_cell_length_c                   18.869(4)
_cell_angle_alpha                90
_cell_angle_beta                 90
_cell_angle_gamma                90
_cell_volume                     3315.28
_exptl_crystal_colour            colorless
_exptl_crystal_description       Prism
_cell_formula_units_Z            8
loop_
_atom_site_label
_atom_site_type_symbol
_atom_site_fract_x
_atom_site_fract_y
_atom_site_fract_z
F1 F 0.15993(11) 0.38569(12) 0.23023(7)
F2 F 0.12791(12) 0.35271(13) 0.12085(10)
F3 F 0.12302(11) 0.50929(12) 0.15832(9)
O1 O 0.34436(16) 0.26291(14) 0.12439(10)
O2 O 0.38601(14) 0.48581(13) 0.46892(9)
O3 O 0.35573(14) 0.66758(13) 0.41840(9)
N1 N 0.37576(16) 0.33500(15) 0.23207(11)
C1 C 0.1738(2) 0.42063(19) 0.16307(13)
C2 C 0.28257(19) 0.43276(17) 0.14297(13)
H1 H 0.2860 0.4373 0.0901
C3 C 0.33185(19) 0.53074(19) 0.17313(13)
H2 H 0.2855 0.5897 0.1657
C4 C 0.34765(18) 0.51753(18) 0.25149(13)
C5 C 0.34433(17) 0.60130(18) 0.29754(13)
H3 H 0.3314 0.6677 0.2789
C6 C 0.35929(18) 0.59010(19) 0.36944(13)
C7 C 0.37720(18) 0.49122(19) 0.39681(13)
C8 C 0.38332(18) 0.40825(19) 0.35184(13)
H4 H 0.3978 0.3421 0.3703
C9 C 0.36825(18) 0.42115(19) 0.27876(13)
C10 C 0.3376(2) 0.33558(19) 0.16504(13)
C11 C 0.4239(2) 0.24083(19) 0.25714(15)
H5 H 0.3792 0.2047 0.2897
H6 H 0.4855 0.2583 0.2819
H7 H 0.4390 0.1965 0.2166
C12 C 0.4103(2) 0.3872(2) 0.49781(15)
H8 H 0.3572 0.3384 0.4868
H9 H 0.4177 0.3928 0.5493
H10 H 0.4727 0.3629 0.4771
C13 C 0.3455(2) 0.76848(19) 0.39112(15)
H11 H 0.4028 0.7847 0.3611
H12 H 0.3421 0.8174 0.4305
H13 H 0.2846 0.7730 0.3629
C14 C 0.42778(19) 0.55270(18) 0.13259(12)
C15 C 0.4258(2) 0.6142(2) 0.07213(13)
H14 H 0.3648 0.6431 0.0567
C16 C 0.5123(2) 0.6334(2) 0.03428(14)
H15 H 0.5098 0.6741 -0.0075
C17 C 0.6023(2) 0.5936(2) 0.05713(14)
H16 H 0.6615 0.6082 0.0317
C18 C 0.6054(2) 0.5326(2) 0.11719(14)
H17 H 0.6666 0.5042 0.1326
C19 C 0.51865(19) 0.51313(19) 0.15487(13)
H18 H 0.5214 0.4722 0.1965
loop_
_geom_bond_atom_site_label_1
_geom_bond_atom_site_label_2
_geom_bond_site_symmetry_1
_geom_bond_site_symmetry_2
F1 C1 1_555 1_555
F2 C1 1_555 1_555
F3 C1 1_555 1_555
O1 C10 1_555 1_555
O2 C7 1_555 1_555
O3 C6 1_555 1_555
N1 C9 1_555 1_555
C1 C2 1_555 1_555
C2 H1 1_555 1_555
C3 C2 1_555 1_555
H2 C3 1_555 1_555
C4 C3 1_555 1_555
C5 C4 1_555 1_555
H3 C5 1_555 1_555
C6 C5 1_555 1_555
C7 C6 1_555 1_555
C8 C7 1_555 1_555
H4 C8 1_555 1_555
C9 C4 1_555 1_555
C10 N1 1_555 1_555
C11 N1 1_555 1_555
H5 C11 1_555 1_555
H6 C11 1_555 1_555
H7 C11 1_555 1_555
C12 O2 1_555 1_555
H8 C12 1_555 1_555
H9 C12 1_555 1_555
H10 C12 1_555 1_555
C13 O3 1_555 1_555
H11 C13 1_555 1_555
H12 C13 1_555 1_555
H13 C13 1_555 1_555
C14 C3 1_555 1_555
C15 C14 1_555 1_555
H14 C15 1_555 1_555
C16 C15 1_555 1_555
H15 C16 1_555 1_555
C17 C16 1_555 1_555
H16 C17 1_555 1_555
C18 C17 1_555 1_555
H17 C18 1_555 1_555
C19 C14 1_555 1_555
H18 C19 1_555 1_555
C2 C10 1_555 1_555
C8 C9 1_555 1_555
C18 C19 1_555 1_555

#END
