
#######################################################################
#
#                 Cambridge Crystallographic Data Centre
#                                CCDC 
#
#######################################################################
#
# If this CIF has been generated from an entry in the Cambridge 
# Structural Database, then it will include bibliographic, chemical, 
# crystal, experimental, refinement or atomic coordinate data resulting 
# from the CCDC's data processing and validation procedures.
#
#######################################################################

data_PUPMOE
_chemical_formula_moiety         'C22 H18 Br1 N3'
_chemical_name_systematic        
1,5-Dibenzyl-4-(4-bromophenyl)-1H-1,2,3-triazole
_symmetry_cell_setting           triclinic
_symmetry_space_group_name_H-M   'P -1'
_symmetry_Int_Tables_number      2
_space_group_name_Hall           '-P 1'
loop_
_symmetry_equiv_pos_site_id
_symmetry_equiv_pos_as_xyz
1 x,y,z
2 -x,-y,-z
_cell_length_a                   5.8703(4)
_cell_length_b                   12.2435(8)
_cell_length_c                   13.3953(10)
_cell_angle_alpha                95.884(6)
_cell_angle_beta                 90.958(6)
_cell_angle_gamma                102.709(6)
_cell_volume                     933.46
_cell_formula_units_Z            2
loop_
_atom_site_label
_atom_site_type_symbol
_atom_site_fract_x
_atom_site_fract_y
_atom_site_fract_z
Br1 Br 1.15202(5) 0.29815(3) 0.89085(2)
C1 C 0.5094(4) 0.6428(2) 0.65279(19)
C2 C 0.6799(4) 0.5827(2) 0.63708(19)
C3 C 0.7721(4) 0.5077(2) 0.69847(19)
C4 C 0.9107(4) 0.4388(2) 0.6541(2)
H1 H 0.9301 0.4355 0.5837
C5 C 1.0202(5) 0.3753(2) 0.7099(2)
H2 H 1.1157 0.3295 0.6786
C6 C 0.9889(5) 0.3794(2) 0.8121(2)
C7 C 0.8470(5) 0.4434(3) 0.8580(2)
H3 H 0.8224 0.4433 0.9279
C8 C 0.7403(5) 0.5081(2) 0.8015(2)
H4 H 0.6443 0.5534 0.8333
C9 C 0.3531(4) 0.6558(2) 0.73747(19)
H5 H 0.3000 0.5815 0.7627
H6 H 0.2132 0.6779 0.7111
C10 C 0.4602(4) 0.7410(2) 0.82536(18)
C11 C 0.3312(5) 0.7522(2) 0.9090(2)
H7 H 0.1775 0.7070 0.9100
C12 C 0.4196(5) 0.8274(3) 0.9914(2)
H8 H 0.3272 0.8338 1.0483
C13 C 0.6414(5) 0.8930(3) 0.9910(2)
H9 H 0.7030 0.9453 1.0475
C14 C 0.7733(5) 0.8827(3) 0.9090(2)
H10 H 0.9270 0.9279 0.9085
C15 C 0.6839(4) 0.8063(3) 0.8262(2)
H11 H 0.7776 0.7990 0.7698
C16 C 0.3642(5) 0.7734(3) 0.5430(2)
H12 H 0.1983 0.7392 0.5533
H13 H 0.3799 0.7836 0.4709
C17 C 0.4296(5) 0.8866(3) 0.60358(19)
C18 C 0.2718(5) 0.9279(3) 0.6623(2)
H14 H 0.1181 0.8834 0.6657
C19 C 0.3331(7) 1.0338(3) 0.7168(2)
H15 H 0.2218 1.0611 0.7573
C20 C 0.5528(8) 1.0982(3) 0.7123(3)
H16 H 0.5952 1.1706 0.7493
C21 C 0.7122(6) 1.0581(3) 0.6540(3)
H17 H 0.8658 1.1028 0.6512
C22 C 0.6524(5) 0.9536(3) 0.5994(2)
H18 H 0.7643 0.9273 0.5586
N1 N 0.5079(4) 0.6961(2) 0.56925(16)
N2 N 0.6690(4) 0.6723(2) 0.50508(17)
N3 N 0.7749(4) 0.6033(2) 0.54641(17)
loop_
_geom_bond_atom_site_label_1
_geom_bond_atom_site_label_2
_geom_bond_site_symmetry_1
_geom_bond_site_symmetry_2
Br1 C6 1_555 1_555
C1 C2 1_555 1_555
C2 C3 1_555 1_555
C3 C4 1_555 1_555
C4 H1 1_555 1_555
C5 C4 1_555 1_555
H2 C5 1_555 1_555
C6 C5 1_555 1_555
C7 C6 1_555 1_555
H3 C7 1_555 1_555
C8 C3 1_555 1_555
H4 C8 1_555 1_555
C9 C1 1_555 1_555
H5 C9 1_555 1_555
H6 C9 1_555 1_555
C10 C9 1_555 1_555
C11 C10 1_555 1_555
H7 C11 1_555 1_555
C12 C11 1_555 1_555
H8 C12 1_555 1_555
C13 C12 1_555 1_555
H9 C13 1_555 1_555
C14 C13 1_555 1_555
H10 C14 1_555 1_555
C15 C10 1_555 1_555
H11 C15 1_555 1_555
C16 H12 1_555 1_555
H13 C16 1_555 1_555
C17 C16 1_555 1_555
C18 C17 1_555 1_555
H14 C18 1_555 1_555
C19 C18 1_555 1_555
H15 C19 1_555 1_555
C20 C19 1_555 1_555
H16 C20 1_555 1_555
C21 C20 1_555 1_555
H17 C21 1_555 1_555
C22 C17 1_555 1_555
H18 C22 1_555 1_555
N1 C1 1_555 1_555
N2 N1 1_555 1_555
N3 C2 1_555 1_555
C7 C8 1_555 1_555
C14 C15 1_555 1_555
C16 N1 1_555 1_555
C21 C22 1_555 1_555
N2 N3 1_555 1_555

#END
