
#######################################################################
#
#                 Cambridge Crystallographic Data Centre
#                                CCDC 
#
#######################################################################
#
# If this CIF has been generated from an entry in the Cambridge 
# Structural Database, then it will include bibliographic, chemical, 
# crystal, experimental, refinement or atomic coordinate data resulting 
# from the CCDC's data processing and validation procedures.
#
#######################################################################

data_PUPSUQ
_chemical_formula_moiety         'C19 H16 O1'
_chemical_name_systematic        1-(1-phenylprop-1-en-1-yl)-2-naphthol
_symmetry_cell_setting           monoclinic
_symmetry_space_group_name_H-M   'P 21/c'
_symmetry_Int_Tables_number      14
_space_group_name_Hall           '-P 2ybc'
loop_
_symmetry_equiv_pos_site_id
_symmetry_equiv_pos_as_xyz
1 x,y,z
2 -x,1/2+y,1/2-z
3 -x,-y,-z
4 x,1/2-y,1/2+z
_cell_length_a                   6.75819(13)
_cell_length_b                   8.55021(16)
_cell_length_c                   24.5163(5)
_cell_angle_alpha                90
_cell_angle_beta                 97.7995(19)
_cell_angle_gamma                90
_cell_volume                     1403.54
_exptl_crystal_colour            colorless
_cell_formula_units_Z            4
_chemical_properties_physical    Air-sensitive
_exptl_crystal_recrystallization_method 'ethyl acetate'
loop_
_atom_site_label
_atom_site_type_symbol
_atom_site_fract_x
_atom_site_fract_y
_atom_site_fract_z
C1 C 0.3860(2) 0.78058(15) 0.33884(5)
O1 O 0.72832(17) 0.72636(17) 0.46821(5)
H1 H 0.6425(10) 0.685(3) 0.4840(4)
C2 C 0.45461(19) 0.73208(15) 0.39398(5)
C3 C 0.7745(2) 0.85438(19) 0.38639(7)
H2 H 0.9042(2) 0.87690(19) 0.40232(7)
C4 C 0.32360(19) 0.63960(16) 0.42655(5)
C5 C 0.6465(2) 0.76949(17) 0.41629(6)
C6 C 0.5139(2) 0.86931(17) 0.30929(6)
C7 C 0.1913(2) 0.74653(19) 0.31237(6)
H3 H 0.1057(2) 0.68719(19) 0.33069(6)
C8 C 0.2770(2) 0.47614(16) 0.40812(5)
C9 C 0.1275(3) 0.7992(2) 0.26056(7)
H4 H -0.0005(3) 0.7747(2) 0.24382(7)
C10 C 0.7096(2) 0.90305(19) 0.33476(7)
H5 H 0.7951(2) 0.95985(19) 0.31556(7)
C11 C 0.4174(2) 0.38696(19) 0.38600(7)
H6 H 0.5420(2) 0.42961(19) 0.38291(7)
C12 C 0.2777(3) 0.8624(2) 0.49153(7)
H7 H 0.332(2) 0.9264(4) 0.4650(3)
H8 H 0.1503(4) 0.9031(6) 0.4977(5)
H9 H 0.3671(16) 0.8629(3) 0.5255(3)
C13 C 0.4422(3) 0.9238(2) 0.25588(7)
H10 H 0.5250(3) 0.9834(2) 0.23668(7)
C14 C 0.2528(2) 0.69923(18) 0.47041(6)
H11 H 0.1802(2) 0.63165(18) 0.48983(6)
C15 C 0.0914(2) 0.40948(19) 0.41176(6)
H12 H -0.0060(2) 0.46752(19) 0.42605(6)
C16 C 0.0505(3) 0.2576(2) 0.39429(8)
H13 H -0.0737(3) 0.2141(2) 0.39720(8)
C17 C 0.1915(3) 0.1706(2) 0.37274(8)
H14 H 0.1634(3) 0.0685(2) 0.36109(8)
C18 C 0.2529(3) 0.8899(3) 0.23225(7)
H15 H 0.2067(3) 0.9271(3) 0.19719(7)
C19 C 0.3753(3) 0.2355(2) 0.36844(9)
H16 H 0.4714(3) 0.1773(2) 0.35367(9)
loop_
_geom_bond_atom_site_label_1
_geom_bond_atom_site_label_2
_geom_bond_site_symmetry_1
_geom_bond_site_symmetry_2
C1 C2 1_555 1_555
O1 H1 1_555 1_555
C2 C4 1_555 1_555
C3 H2 1_555 1_555
C4 C8 1_555 1_555
C5 O1 1_555 1_555
C6 C1 1_555 1_555
C7 C1 1_555 1_555
H3 C7 1_555 1_555
C8 C11 1_555 1_555
C9 C7 1_555 1_555
H4 C9 1_555 1_555
C10 C3 1_555 1_555
H5 C10 1_555 1_555
C11 H6 1_555 1_555
C12 H7 1_555 1_555
H8 C12 1_555 1_555
H9 C12 1_555 1_555
C13 C6 1_555 1_555
H10 C13 1_555 1_555
C14 C4 1_555 1_555
H11 C14 1_555 1_555
C15 C8 1_555 1_555
H12 C15 1_555 1_555
C16 C15 1_555 1_555
H13 C16 1_555 1_555
C17 C16 1_555 1_555
H14 C17 1_555 1_555
C18 C9 1_555 1_555
H15 C18 1_555 1_555
C19 C11 1_555 1_555
H16 C19 1_555 1_555
C2 C5 1_555 1_555
C3 C5 1_555 1_555
C6 C10 1_555 1_555
C12 C14 1_555 1_555
C13 C18 1_555 1_555
C17 C19 1_555 1_555

#END
