
#######################################################################
#
#                 Cambridge Crystallographic Data Centre
#                                CCDC 
#
#######################################################################
#
# If this CIF has been generated from an entry in the Cambridge 
# Structural Database, then it will include bibliographic, chemical, 
# crystal, experimental, refinement or atomic coordinate data resulting 
# from the CCDC's data processing and validation procedures.
#
#######################################################################

data_PUPTIF
_chemical_name_common            
1,6-dibromo-2-((3-(2-trifluoromethylphenyl)-1-propen-1-yl)oxy)naphthalene
_chemical_formula_moiety         'C20 H13 Br2 F3 O1'
_chemical_name_systematic        
'1,6-dibromo-2-naphthyl 3-(2-(trifluoromethyl)phenyl)prop-1-en-1-yl ether'
_symmetry_cell_setting           monoclinic
_symmetry_space_group_name_H-M   'P 21/n'
_symmetry_Int_Tables_number      14
_space_group_name_Hall           '-P 2yn'
loop_
_symmetry_equiv_pos_site_id
_symmetry_equiv_pos_as_xyz
1 x,y,z
2 1/2-x,1/2+y,1/2-z
3 -x,-y,-z
4 1/2+x,1/2-y,1/2+z
_cell_length_a                   17.8940(9)
_cell_length_b                   4.4399(3)
_cell_length_c                   23.0236(11)
_cell_angle_alpha                90
_cell_angle_beta                 97.562(5)
_cell_angle_gamma                90
_cell_volume                     1813.26
_exptl_crystal_colour            colorless
_cell_formula_units_Z            4
_chemical_properties_physical    Air-sensitive
_exptl_crystal_recrystallization_method 'ethyl acetate'
loop_
_atom_site_label
_atom_site_type_symbol
_atom_site_fract_x
_atom_site_fract_y
_atom_site_fract_z
Br1 Br 0.16728(3) 0.10146(17) 0.30933(2)
Br2 Br 0.57073(4) -0.0504(2) 0.39922(4)
F1 F -0.1530(2) 0.8604(10) 0.44204(18)
F2 F -0.2025(3) 0.4656(9) 0.4003(2)
F3 F -0.2545(2) 0.8922(10) 0.3820(2)
O1 O 0.1307(2) 0.4767(11) 0.40549(18)
C1 C 0.2066(3) 0.4295(12) 0.4134(2)
C2 C 0.3308(4) 0.4770(17) 0.4670(3)
H1 H 0.3625 0.5527 0.4990
C3 C -0.0307(3) 0.7154(16) 0.2969(3)
H2 H 0.0177 0.6368 0.2980
C4 C -0.1419(3) 0.7940(12) 0.3417(2)
C5 C 0.3613(3) 0.2962(15) 0.4252(2)
C6 C 0.3448(3) 0.0073(17) 0.3349(3)
H3 H 0.3136 -0.0661 0.3026
C7 C 0.0976(3) 0.6846(14) 0.4371(2)
H4 H 0.1275 0.8164 0.4615
C8 C 0.3130(3) 0.1816(14) 0.3764(2)
C9 C -0.1875(3) 0.7538(13) 0.3909(3)
C10 C 0.4202(4) -0.0581(18) 0.3405(3)
H5 H 0.4404 -0.1719 0.3124
C11 C -0.1729(4) 0.9587(15) 0.2920(3)
H6 H -0.2208 1.0424 0.2906
C12 C -0.0301(3) 0.5010(14) 0.3965(3)
H7 H -0.0671 0.4222 0.4198
H8 H -0.0029 0.3320 0.3828
C13 C -0.0699(3) 0.6732(13) 0.3444(2)
C14 C 0.2570(4) 0.5405(16) 0.4613(3)
H9 H 0.2384 0.6601 0.4893
C15 C 0.4403(3) 0.2242(16) 0.4313(2)
H10 H 0.4727 0.2955 0.4632
C16 C -0.0624(5) 0.8726(19) 0.2478(3)
H11 H -0.0357 0.8947 0.2161
C17 C -0.1330(5) 0.996(2) 0.2458(3)
H12 H -0.1537 1.1047 0.2131
C18 C 0.4665(3) 0.0546(16) 0.3908(3)
C19 C 0.0240(4) 0.7023(15) 0.4339(2)
H13 H 0.0040 0.8490 0.4562
C20 C 0.2354(3) 0.2566(13) 0.3727(2)
loop_
_geom_bond_atom_site_label_1
_geom_bond_atom_site_label_2
_geom_bond_site_symmetry_1
_geom_bond_site_symmetry_2
Br1 C20 1_555 1_555
Br2 C18 1_555 1_555
F1 C9 1_555 1_555
F2 C9 1_555 1_555
F3 C9 1_555 1_555
O1 C1 1_555 1_555
C1 C14 1_555 1_555
C2 H1 1_555 1_555
C3 H2 1_555 1_555
C4 C9 1_555 1_555
C5 C2 1_555 1_555
C6 H3 1_555 1_555
C7 O1 1_555 1_555
H4 C7 1_555 1_555
C8 C5 1_555 1_555
C10 C6 1_555 1_555
H5 C10 1_555 1_555
C11 C4 1_555 1_555
H6 C11 1_555 1_555
C12 H7 1_555 1_555
H8 C12 1_555 1_555
C13 C3 1_555 1_555
C14 C2 1_555 1_555
H9 C14 1_555 1_555
C15 C5 1_555 1_555
H10 C15 1_555 1_555
C16 C3 1_555 1_555
H11 C16 1_555 1_555
C17 C11 1_555 1_555
H12 C17 1_555 1_555
C18 C10 1_555 1_555
C19 C7 1_555 1_555
H13 C19 1_555 1_555
C20 C1 1_555 1_555
C4 C13 1_555 1_555
C6 C8 1_555 1_555
C8 C20 1_555 1_555
C12 C13 1_555 1_555
C12 C19 1_555 1_555
C15 C18 1_555 1_555
C16 C17 1_555 1_555

#END
