
#######################################################################
#
#                 Cambridge Crystallographic Data Centre
#                                CCDC 
#
#######################################################################
#
# If this CIF has been generated from an entry in the Cambridge 
# Structural Database, then it will include bibliographic, chemical, 
# crystal, experimental, refinement or atomic coordinate data resulting 
# from the CCDC's data processing and validation procedures.
#
#######################################################################

data_PUPXEF
_chemical_formula_moiety         'C23 H20 F3 N1 O1'
_chemical_name_systematic        
4-isopropyl-1-phenyl-2-(trifluoromethyl)-1,4-dihydrobenzo[f]quinolin-3(2H)-one
_symmetry_cell_setting           monoclinic
_symmetry_space_group_name_H-M   'P 21/c'
_symmetry_Int_Tables_number      14
_space_group_name_Hall           '-P 2ybc'
loop_
_symmetry_equiv_pos_site_id
_symmetry_equiv_pos_as_xyz
1 x,y,z
2 -x,1/2+y,1/2-z
3 -x,-y,-z
4 x,1/2-y,1/2+z
_cell_length_a                   16.695(3)
_cell_length_b                   11.905(2)
_cell_length_c                   9.7373(19)
_cell_angle_alpha                90
_cell_angle_beta                 104.26(3)
_cell_angle_gamma                90
_cell_volume                     1875.7
_exptl_crystal_colour            colorless
_exptl_crystal_description       solid
_cell_formula_units_Z            4
loop_
_atom_site_label
_atom_site_type_symbol
_atom_site_fract_x
_atom_site_fract_y
_atom_site_fract_z
F1 F 0.14024(11) -0.10351(16) 0.18195(18)
F2 F 0.20728(11) -0.07837(15) 0.02369(18)
F3 F 0.12167(12) 0.04773(16) 0.0562(2)
O1 O 0.36846(14) -0.08020(19) 0.2544(3)
N1 N 0.30043(17) -0.0972(2) 0.4301(3)
C1 C 0.17974(18) -0.0248(2) 0.1249(3)
C2 C 0.24805(17) 0.0335(2) 0.2305(3)
H1 H 0.2767 0.0837 0.1754
C3 C 0.21675(17) 0.1089(2) 0.3354(3)
H2 H 0.1650 0.1462 0.2808
C4 C 0.19357(17) 0.0373(2) 0.4489(3)
C5 C 0.13111(17) 0.0750(2) 0.5167(3)
C6 C 0.09197(17) 0.1803(2) 0.4878(3)
H3 H 0.1054 0.2280 0.4185
C7 C 0.03447(19) 0.2149(3) 0.5590(3)
H4 H 0.0092 0.2864 0.5378
C8 C 0.0124(2) 0.1481(3) 0.6610(4)
H5 H -0.0276 0.1735 0.7084
C9 C 0.0485(2) 0.0468(3) 0.6916(3)
H6 H 0.0334 0.0014 0.7613
C10 C 0.10923(19) 0.0054(3) 0.6220(3)
C11 C 0.1468(2) -0.0985(3) 0.6507(3)
H7 H 0.1303 -0.1468 0.7164
C12 C 0.2062(2) -0.1335(3) 0.5880(3)
H8 H 0.2304 -0.2055 0.6105
C13 C 0.2332(2) -0.0633(2) 0.4877(3)
C14 C 0.31178(19) -0.0530(2) 0.3060(3)
C15 C 0.27840(16) 0.2017(2) 0.3956(3)
C16 C 0.2713(2) 0.3059(2) 0.3306(3)
H9 H 0.2276 0.3190 0.2490
C17 C 0.3269(2) 0.3915(3) 0.3829(4)
H10 H 0.3211 0.4625 0.3369
C18 C 0.3899(2) 0.3737(3) 0.5004(4)
H11 H 0.4281 0.4322 0.5361
C19 C 0.3977(2) 0.2707(3) 0.5667(4)
H12 H 0.4416 0.2583 0.6482
C20 C 0.34217(18) 0.1851(3) 0.5155(3)
H13 H 0.3478 0.1147 0.5628
C21 C 0.3643(2) -0.1763(3) 0.5130(4)
H14 H 0.3431 -0.1978 0.5969
C22 C 0.4440(2) -0.1193(3) 0.5742(5)
H15 H 0.4655 -0.0874 0.4977
H16 H 0.4837 -0.1738 0.6276
H17 H 0.4355 -0.0591 0.6377
C23 C 0.3698(2) -0.2854(3) 0.4381(4)
H18 H 0.3142 -0.3155 0.4001
H19 H 0.4026 -0.3393 0.5052
H20 H 0.3964 -0.2725 0.3603
loop_
_geom_bond_atom_site_label_1
_geom_bond_atom_site_label_2
_geom_bond_site_symmetry_1
_geom_bond_site_symmetry_2
F1 C1 1_555 1_555
F2 C1 1_555 1_555
F3 C1 1_555 1_555
O1 C14 1_555 1_555
N1 C13 1_555 1_555
C1 C2 1_555 1_555
C2 H1 1_555 1_555
C3 C2 1_555 1_555
H2 C3 1_555 1_555
C4 C3 1_555 1_555
C5 C4 1_555 1_555
C6 C5 1_555 1_555
H3 C6 1_555 1_555
C7 C6 1_555 1_555
H4 C7 1_555 1_555
C8 C7 1_555 1_555
H5 C8 1_555 1_555
C9 C8 1_555 1_555
H6 C9 1_555 1_555
C10 C5 1_555 1_555
C11 C10 1_555 1_555
H7 C11 1_555 1_555
C12 C11 1_555 1_555
H8 C12 1_555 1_555
C13 C4 1_555 1_555
C14 N1 1_555 1_555
C15 C3 1_555 1_555
C16 C15 1_555 1_555
H9 C16 1_555 1_555
C17 C16 1_555 1_555
H10 C17 1_555 1_555
C18 C17 1_555 1_555
H11 C18 1_555 1_555
C19 C18 1_555 1_555
H12 C19 1_555 1_555
C20 C15 1_555 1_555
H13 C20 1_555 1_555
C21 N1 1_555 1_555
H14 C21 1_555 1_555
C22 C21 1_555 1_555
H15 C22 1_555 1_555
H16 C22 1_555 1_555
H17 C22 1_555 1_555
C23 C21 1_555 1_555
H18 C23 1_555 1_555
H19 C23 1_555 1_555
H20 C23 1_555 1_555
C2 C14 1_555 1_555
C9 C10 1_555 1_555
C12 C13 1_555 1_555
C19 C20 1_555 1_555

#END
