
#######################################################################
#
#                 Cambridge Crystallographic Data Centre
#                                CCDC 
#
#######################################################################
#
# If this CIF has been generated from an entry in the Cambridge 
# Structural Database, then it will include bibliographic, chemical, 
# crystal, experimental, refinement or atomic coordinate data resulting 
# from the CCDC's data processing and validation procedures.
#
#######################################################################

data_PUPXIJ
_chemical_formula_moiety         'C35 H24 N2 O9'
_chemical_name_systematic        
5'-(hydroxymethyl)-2',4'-bis(4-nitrophenyl)dispiro[indene-2,1'-cyclohexane-3',2''-indene]-1,1'',3,3''-tetrone
_symmetry_cell_setting           monoclinic
_symmetry_space_group_name_H-M   'P 21/c'
_symmetry_Int_Tables_number      14
_space_group_name_Hall           '-P 2ybc'
loop_
_symmetry_equiv_pos_site_id
_symmetry_equiv_pos_as_xyz
1 x,y,z
2 -x,1/2+y,1/2-z
3 -x,-y,-z
4 x,1/2-y,1/2+z
_cell_length_a                   20.119(17)
_cell_length_b                   12.776(11)
_cell_length_c                   14.115(12)
_cell_angle_alpha                90
_cell_angle_beta                 99.13(3)
_cell_angle_gamma                90
_cell_volume                     3582.16
_exptl_crystal_colour            colorless
_exptl_crystal_description       prism
_cell_formula_units_Z            4
loop_
_atom_site_label
_atom_site_type_symbol
_atom_site_fract_x
_atom_site_fract_y
_atom_site_fract_z
C1 C 0.0621(6) 0.4764(7) 0.4110(9)
C2 C 0.0943(6) 0.5109(7) 0.4960(8)
H1 H 0.1033 0.4660 0.5501
C3 C 0.1140(5) 0.6167(7) 0.5009(7)
H2 H 0.1358 0.6443 0.5602
C4 C 0.1026(5) 0.6799(6) 0.4234(7)
C5 C 0.0676(6) 0.6422(7) 0.3400(8)
H3 H 0.0579 0.6877 0.2863
C6 C 0.0458(6) 0.5405(8) 0.3310(8)
H4 H 0.0208 0.5149 0.2729
C7 C 0.1311(5) 0.7916(6) 0.4362(7)
H5 H 0.1417 0.8037 0.5070
C8 C 0.1988(5) 0.7963(6) 0.3989(7)
C9 C 0.1961(6) 0.7538(7) 0.2954(8)
C10 C 0.2469(5) 0.6680(8) 0.3001(8)
C11 C 0.2641(5) 0.6098(8) 0.2242(8)
H6 H 0.2413 0.6179 0.1603
C12 C 0.3163(6) 0.5401(10) 0.2472(9)
H7 H 0.3285 0.4994 0.1964
C13 C 0.3518(7) 0.5244(10) 0.3365(10)
H8 H 0.3883 0.4765 0.3469
C14 C 0.3318(6) 0.5839(10) 0.4155(10)
H9 H 0.3535 0.5752 0.4799
C15 C 0.2784(5) 0.6551(8) 0.3905(7)
C16 C 0.2523(6) 0.7276(8) 0.4599(9)
C17 C 0.2288(5) 0.9140(6) 0.4093(7)
H10 H 0.2418 0.9202 0.4804
C18 C 0.2954(6) 0.9246(6) 0.3767(9)
C19 C 0.3044(7) 0.9163(8) 0.2767(8)
H11 H 0.2665 0.9016 0.2293
C20 C 0.3661(8) 0.9291(9) 0.2492(11)
H12 H 0.3707 0.9226 0.1835
C21 C 0.4169(9) 0.9495(13) 0.3110(14)
C22 C 0.4139(7) 0.9617(14) 0.4138(11)
H13 H 0.4518 0.9805 0.4597
C23 C 0.3526(6) 0.9438(10) 0.4371(9)
H14 H 0.3495 0.9450 0.5035
C24 C 0.1793(5) 1.0053(6) 0.3876(7)
C25 C 0.2107(6) 1.1011(8) 0.4479(10)
C26 C 0.2001(5) 1.1927(7) 0.3812(8)
C27 C 0.2115(6) 1.3016(8) 0.4074(9)
H15 H 0.2285 1.3237 0.4709
C28 C 0.1956(6) 1.3708(8) 0.3314(10)
H16 H 0.2025 1.4435 0.3431
C29 C 0.1705(7) 1.3389(9) 0.2414(11)
H17 H 0.1612 1.3911 0.1933
C30 C 0.1575(6) 1.2366(9) 0.2144(9)
H18 H 0.1392 1.2160 0.1510
C31 C 0.1749(6) 1.1636(8) 0.2931(9)
C32 C 0.1664(5) 1.0468(8) 0.2868(9)
C33 C 0.1130(5) 0.9853(7) 0.4215(8)
H19 H 0.1198 0.9925 0.4922
H20 H 0.0807 1.0402 0.3945
C34 C 0.0819(5) 0.8811(6) 0.3956(8)
H21 H 0.0772 0.8759 0.3242
C35 C 0.0111(6) 0.8695(10) 0.4198(8)
H22 H -0.0180 0.9285 0.3934
H23 H -0.0097 0.8030 0.3944
N1 N 0.0416(5) 0.3656(7) 0.4022(9)
N2 N 0.4908(9) 0.9650(12) 0.2880(14)
O1 O 0.0108(5) 0.3324(6) 0.3242(7)
O2 O 0.0573(5) 0.3061(6) 0.4703(6)
O3 O 0.1551(4) 0.7741(5) 0.2249(6)
O4 O 0.2666(4) 0.7316(5) 0.5448(6)
O5 O 0.4856(7) 0.9566(13) 0.2017(12)
O6 O 0.5321(8) 0.9743(13) 0.3472(12)
O7 O 0.2371(5) 1.1019(5) 0.5313(7)
O8 O 0.1480(5) 0.9975(5) 0.2136(5)
O9 O 0.0225(5) 0.8704(10) 0.5265(9)
H24 H 0.0271 0.8087 0.5470
loop_
_geom_bond_atom_site_label_1
_geom_bond_atom_site_label_2
_geom_bond_site_symmetry_1
_geom_bond_site_symmetry_2
C1 C2 1_555 1_555
C2 H1 1_555 1_555
C3 C2 1_555 1_555
H2 C3 1_555 1_555
C4 C3 1_555 1_555
C5 C4 1_555 1_555
H3 C5 1_555 1_555
C6 C1 1_555 1_555
H4 C6 1_555 1_555
C7 C4 1_555 1_555
H5 C7 1_555 1_555
C8 C7 1_555 1_555
C9 C8 1_555 1_555
C10 C9 1_555 1_555
C11 C10 1_555 1_555
H6 C11 1_555 1_555
C12 C11 1_555 1_555
H7 C12 1_555 1_555
C13 C12 1_555 1_555
H8 C13 1_555 1_555
C14 C13 1_555 1_555
H9 C14 1_555 1_555
C15 C10 1_555 1_555
C16 C8 1_555 1_555
C17 C8 1_555 1_555
H10 C17 1_555 1_555
C18 C17 1_555 1_555
C19 C18 1_555 1_555
H11 C19 1_555 1_555
C20 C19 1_555 1_555
H12 C20 1_555 1_555
C21 C20 1_555 1_555
C22 C21 1_555 1_555
H13 C22 1_555 1_555
C23 C18 1_555 1_555
H14 C23 1_555 1_555
C24 C17 1_555 1_555
C25 C24 1_555 1_555
C26 C25 1_555 1_555
C27 C26 1_555 1_555
H15 C27 1_555 1_555
C28 C27 1_555 1_555
H16 C28 1_555 1_555
C29 C28 1_555 1_555
H17 C29 1_555 1_555
C30 C29 1_555 1_555
H18 C30 1_555 1_555
C31 C26 1_555 1_555
C32 C24 1_555 1_555
C33 C24 1_555 1_555
H19 C33 1_555 1_555
H20 C33 1_555 1_555
C34 C7 1_555 1_555
H21 C34 1_555 1_555
C35 C34 1_555 1_555
H22 C35 1_555 1_555
H23 C35 1_555 1_555
N1 C1 1_555 1_555
N2 C21 1_555 1_555
O1 N1 1_555 1_555
O2 N1 1_555 1_555
O3 C9 1_555 1_555
O4 C16 1_555 1_555
O5 N2 1_555 1_555
O6 N2 1_555 1_555
O7 C25 1_555 1_555
O8 C32 1_555 1_555
O9 C35 1_555 1_555
H24 O9 1_555 1_555
C5 C6 1_555 1_555
C14 C15 1_555 1_555
C15 C16 1_555 1_555
C22 C23 1_555 1_555
C30 C31 1_555 1_555
C31 C32 1_555 1_555
C33 C34 1_555 1_555

#END
