
#######################################################################
#
#                 Cambridge Crystallographic Data Centre
#                                CCDC 
#
#######################################################################
#
# If this CIF has been generated from an entry in the Cambridge 
# Structural Database, then it will include bibliographic, chemical, 
# crystal, experimental, refinement or atomic coordinate data resulting 
# from the CCDC's data processing and validation procedures.
#
#######################################################################

data_PUPXOP
_chemical_formula_moiety         'C26 H23 Cl1 F7 N1 O1'
_chemical_name_systematic        
2-(3-chlorophenyl)-5,7-dimethyl-N-(2,3,5,6-tetrafluoro-4-(trifluoromethyl)phenyl)adamantane-1-carboxamide
_symmetry_cell_setting           monoclinic
_symmetry_space_group_name_H-M   'C c'
_symmetry_Int_Tables_number      9
_space_group_name_Hall           'C -2yc'
loop_
_symmetry_equiv_pos_site_id
_symmetry_equiv_pos_as_xyz
1 x,y,z
2 x,-y,1/2+z
3 1/2+x,1/2+y,z
4 1/2+x,1/2-y,1/2+z
_cell_length_a                   12.89225(14)
_cell_length_b                   15.11065(14)
_cell_length_c                   24.8076(3)
_cell_angle_alpha                90
_cell_angle_beta                 101.9969(10)
_cell_angle_gamma                90
_cell_volume                     4727.22
_exptl_crystal_colour            colorless
_exptl_crystal_description       block
_cell_formula_units_Z            8
loop_
_atom_site_label
_atom_site_type_symbol
_atom_site_fract_x
_atom_site_fract_y
_atom_site_fract_z
Cl1 Cl -0.73964(4) -0.39282(4) -0.09545(3)
F1 F -0.68781(11) -0.39996(9) -0.24017(5)
F2 F -0.41303(11) -0.40131(9) -0.33918(5)
F3 F -0.82074(11) -0.46699(10) -0.32629(6)
O1 O -0.35299(12) -0.46424(10) -0.23150(6)
F4 F -0.54445(12) -0.46858(11) -0.42580(6)
F5 F -0.75293(13) -0.44337(12) -0.47380(6)
N1 N -0.47977(15) -0.35962(12) -0.24134(7)
H1 H -0.5017 -0.3120 -0.2283
F6 F -0.86177(12) -0.49924(12) -0.42918(7)
C1 C -0.58170(19) -0.45465(15) -0.37977(9)
F7 F -0.73595(18) -0.57868(13) -0.44788(9)
C2 C -0.54579(18) -0.40142(13) -0.28606(9)
C3 C -0.65107(18) -0.41893(14) -0.28544(9)
C4 C -0.43345(18) -0.36691(14) -0.10435(9)
C5 C -0.68756(19) -0.47015(15) -0.37975(10)
C6 C -0.20850(18) -0.37868(14) -0.14998(9)
H2 H -0.1730 -0.3965 -0.1791
H3 H -0.2238 -0.4317 -0.1310
C7 C -0.38135(17) -0.39184(13) -0.21755(9)
C8 C -0.51208(19) -0.42084(15) -0.33460(9)
C9 C -0.28485(18) -0.24825(14) -0.20609(9)
H4 H -0.2499 -0.2661 -0.2354
H5 H -0.3495 -0.2172 -0.2226
C10 C -0.72097(18) -0.45274(15) -0.33104(10)
C11 C -0.03290(19) -0.36783(16) -0.08389(11)
H6 H 0.0009 -0.3880 -0.1127
H7 H -0.0498 -0.4177 -0.0633
H8 H 0.0142 -0.3289 -0.0597
C12 C -0.13458(18) -0.31831(15) -0.10918(9)
C13 C -0.54320(18) -0.35438(14) -0.11079(9)
H9 H -0.5759 -0.3078 -0.1323
C14 C -0.1864(2) -0.10364(16) -0.19685(11)
H10 H -0.2511 -0.0736 -0.2128
H11 H -0.1505 -0.1208 -0.2255
H12 H -0.1416 -0.0648 -0.1715
C15 C -0.11004(18) -0.23575(15) -0.14029(10)
H13 H -0.0636 -0.1969 -0.1150
H14 H -0.0732 -0.2532 -0.1690
C16 C -0.31292(17) -0.33178(13) -0.17539(9)
C17 C -0.5581(2) -0.48046(15) -0.05316(9)
H15 H -0.5991 -0.5172 -0.0359
C18 C -0.19235(18) -0.28870(15) -0.06403(9)
H16 H -0.1467 -0.2496 -0.0385
H17 H -0.2081 -0.3400 -0.0436
C19 C -0.37324(17) -0.29841(14) -0.13071(8)
H18 H -0.4274 -0.2576 -0.1501
C20 C -0.26831(19) -0.15846(14) -0.12008(10)
H19 H -0.2228 -0.1194 -0.0945
H20 H -0.3327 -0.1265 -0.1358
C21 C -0.3884(2) -0.43896(15) -0.07242(10)
H21 H -0.3162 -0.4500 -0.0681
C22 C -0.29581(18) -0.24037(14) -0.08926(9)
H22 H -0.3308 -0.2215 -0.0597
C23 C -0.21158(19) -0.18572(14) -0.16626(10)
C24 C -0.4501(2) -0.49438(15) -0.04707(10)
H23 H -0.4184 -0.5415 -0.0257
C25 C -0.60311(19) -0.41043(15) -0.08560(9)
C26 C -0.7613(2) -0.49901(17) -0.43266(11)
Cl2 Cl -1.09878(8) -0.19660(4) -0.32399(3)
F8 F -1.00964(10) -0.57511(9) -0.12957(6)
O2 O -1.07811(13) -0.70010(10) -0.21589(6)
F9 F -1.37094(11) -0.65312(10) -0.16896(6)
F10 F -1.35886(11) -0.69707(10) -0.06432(6)
F11 F -1.09735(14) -0.63856(10) 0.05340(6)
F12 F -0.99451(11) -0.62092(11) -0.02517(6)
N2 N -1.19730(15) -0.59490(12) -0.20856(7)
H24 H -1.2383 -0.5532 -0.2240
F13 F -1.13471(18) -0.76995(10) 0.02562(7)
C27 C -1.09586(18) -0.60617(14) -0.11396(9)
C28 C -1.19050(18) -0.61424(13) -0.15249(9)
F14 F -1.25871(15) -0.6794(2) 0.03525(7)
C29 C -1.16042(18) -0.62651(14) -0.30047(9)
C30 C -1.25747(19) -0.68709(14) -0.32327(9)
H25 H -1.2417 -0.7471 -0.3103
H26 H -1.3183 -0.6667 -0.3094
C31 C -1.1868(2) -0.71630(15) -0.40779(10)
H27 H -1.1692 -0.7766 -0.3960
H28 H -1.2035 -0.7156 -0.4478
C32 C -1.08873(19) -0.62875(15) -0.05933(10)
C33 C -1.1361(2) -0.37095(16) -0.31538(11)
H29 H -1.1986 -0.3596 -0.3408
C34 C -1.19152(18) -0.53033(14) -0.31904(9)
H30 H -1.2580 -0.5168 -0.3075
C35 C -1.2159(2) -0.53035(15) -0.38321(9)
H31 H -1.2343 -0.4700 -0.3963
C36 C -1.27813(18) -0.64372(14) -0.13341(9)
C37 C -1.3789(2) -0.74694(18) -0.40726(11)
H32 H -1.3625 -0.8058 -0.3936
H33 H -1.3941 -0.7476 -0.4468
H34 H -1.4397 -0.7254 -0.3945
C38 C -1.2843(2) -0.68645(15) -0.38630(10)
C39 C -1.0668(3) -0.30277(16) -0.29682(12)
C40 C -1.17627(19) -0.65815(15) -0.04018(9)
C41 C -1.06572(18) -0.65900(14) -0.32386(9)
H35 H -1.0047 -0.6218 -0.3101
H36 H -1.0479 -0.7190 -0.3114
C42 C -1.11249(19) -0.45760(14) -0.29590(9)
C43 C -1.0908(2) -0.65693(15) -0.38712(9)
C44 C -1.27188(18) -0.66574(15) -0.07898(10)
C45 C -1.13916(17) -0.64196(13) -0.23827(9)
C46 C -1.3104(2) -0.59099(16) -0.40488(10)
H37 H -1.3279 -0.5885 -0.4448
H38 H -1.3715 -0.5708 -0.3912
C47 C -1.1196(2) -0.56088(15) -0.40509(10)
H39 H -1.0599 -0.5224 -0.3911
H40 H -1.1351 -0.5572 -0.4450
C48 C -0.9948(2) -0.68852(16) -0.40854(11)
H41 H -0.9345 -0.6526 -0.3931
H42 H -1.0092 -0.6838 -0.4480
H43 H -0.9801 -0.7491 -0.3980
C49 C -1.0195(2) -0.47023(16) -0.25643(10)
H44 H -1.0026 -0.5266 -0.2423
C50 C -0.9518(2) -0.40007(19) -0.23789(11)
H45 H -0.8908 -0.4101 -0.2112
C51 C -1.1676(2) -0.68696(18) 0.01881(10)
C52 C -0.9738(3) -0.31551(18) -0.25853(12)
H46 H -0.9274 -0.2689 -0.2470
loop_
_geom_bond_atom_site_label_1
_geom_bond_atom_site_label_2
_geom_bond_site_symmetry_1
_geom_bond_site_symmetry_2
Cl1 C25 1_555 1_555
F1 C3 1_555 1_555
F2 C8 1_555 1_555
F3 C10 1_555 1_555
O1 C7 1_555 1_555
F4 C1 1_555 1_555
F5 C26 1_555 1_555
N1 H1 1_555 1_555
F6 C26 1_555 1_555
C1 C5 1_555 1_555
F7 C26 1_555 1_555
C2 N1 1_555 1_555
C3 C2 1_555 1_555
C4 C13 1_555 1_555
C5 C10 1_555 1_555
C6 H2 1_555 1_555
H3 C6 1_555 1_555
C7 N1 1_555 1_555
C8 C1 1_555 1_555
C9 H4 1_555 1_555
H5 C9 1_555 1_555
C10 C3 1_555 1_555
C11 H6 1_555 1_555
H7 C11 1_555 1_555
H8 C11 1_555 1_555
C12 C6 1_555 1_555
C13 H9 1_555 1_555
C14 H10 1_555 1_555
H11 C14 1_555 1_555
H12 C14 1_555 1_555
C15 C12 1_555 1_555
H13 C15 1_555 1_555
H14 C15 1_555 1_555
C16 C6 1_555 1_555
C17 H15 1_555 1_555
C18 C12 1_555 1_555
H16 C18 1_555 1_555
H17 C18 1_555 1_555
C19 C4 1_555 1_555
H18 C19 1_555 1_555
C20 H19 1_555 1_555
H20 C20 1_555 1_555
C21 C4 1_555 1_555
H21 C21 1_555 1_555
C22 C18 1_555 1_555
H22 C22 1_555 1_555
C23 C9 1_555 1_555
C24 C17 1_555 1_555
H23 C24 1_555 1_555
C25 C13 1_555 1_555
C26 C5 1_555 1_555
Cl2 C39 1_555 1_555
F8 C27 1_555 1_555
O2 C45 1_555 1_555
F9 C36 1_555 1_555
F10 C44 1_555 1_555
F11 C51 1_555 1_555
F12 C32 1_555 1_555
N2 H24 1_555 1_555
F13 C51 1_555 1_555
C27 C28 1_555 1_555
C28 N2 1_555 1_555
F14 C51 1_555 1_555
C29 C30 1_555 1_555
C30 H25 1_555 1_555
H26 C30 1_555 1_555
C31 H27 1_555 1_555
H28 C31 1_555 1_555
C32 C27 1_555 1_555
C33 H29 1_555 1_555
C34 C29 1_555 1_555
H30 C34 1_555 1_555
C35 C34 1_555 1_555
H31 C35 1_555 1_555
C36 C28 1_555 1_555
C37 H32 1_555 1_555
H33 C37 1_555 1_555
H34 C37 1_555 1_555
C38 C30 1_555 1_555
C39 C33 1_555 1_555
C40 C32 1_555 1_555
C41 C29 1_555 1_555
H35 C41 1_555 1_555
H36 C41 1_555 1_555
C42 C33 1_555 1_555
C43 C31 1_555 1_555
C44 C36 1_555 1_555
C45 N2 1_555 1_555
C46 C35 1_555 1_555
H37 C46 1_555 1_555
H38 C46 1_555 1_555
C47 C35 1_555 1_555
H39 C47 1_555 1_555
H40 C47 1_555 1_555
C48 C43 1_555 1_555
H41 C48 1_555 1_555
H42 C48 1_555 1_555
H43 C48 1_555 1_555
C49 C42 1_555 1_555
H44 C49 1_555 1_555
C50 C49 1_555 1_555
H45 C50 1_555 1_555
C51 C40 1_555 1_555
C52 C39 1_555 1_555
H46 C52 1_555 1_555
C2 C8 1_555 1_555
C7 C16 1_555 1_555
C9 C16 1_555 1_555
C11 C12 1_555 1_555
C14 C23 1_555 1_555
C15 C23 1_555 1_555
C16 C19 1_555 1_555
C17 C25 1_555 1_555
C19 C22 1_555 1_555
C20 C22 1_555 1_555
C20 C23 1_555 1_555
C21 C24 1_555 1_555
C29 C45 1_555 1_555
C31 C38 1_555 1_555
C34 C42 1_555 1_555
C37 C38 1_555 1_555
C38 C46 1_555 1_555
C40 C44 1_555 1_555
C41 C43 1_555 1_555
C43 C47 1_555 1_555
C50 C52 1_555 1_555

#END
