
#######################################################################
#
#                 Cambridge Crystallographic Data Centre
#                                CCDC 
#
#######################################################################
#
# If this CIF has been generated from an entry in the Cambridge 
# Structural Database, then it will include bibliographic, chemical, 
# crystal, experimental, refinement or atomic coordinate data resulting 
# from the CCDC's data processing and validation procedures.
#
#######################################################################

data_PUQCOV
_chemical_formula_moiety         'C25 H44 N6 O6 S1,H2 O1'
_chemical_name_systematic        
'3-acetamido-12-sec-butyl-6,9,17-trimethyl-4,7,10,13-tetraoxo-1-thia-5,8,11,14-tetraazacycloicosane-15-carboxamide monohydrate unknown solvate'
_symmetry_cell_setting           orthorhombic
_symmetry_space_group_name_H-M   'P 21 21 21'
_symmetry_Int_Tables_number      19
_space_group_name_Hall           'P 2ac 2ab'
loop_
_symmetry_equiv_pos_site_id
_symmetry_equiv_pos_as_xyz
1 x,y,z
2 1/2+x,1/2-y,-z
3 -x,1/2+y,1/2-z
4 1/2-x,-y,1/2+z
_cell_length_a                   8.947(2)
_cell_length_b                   19.404(4)
_cell_length_c                   20.426(4)
_cell_angle_alpha                90
_cell_angle_beta                 90
_cell_angle_gamma                90
_cell_volume                     3546.11
_exptl_crystal_colour            colorless
_exptl_crystal_description       prism
_cell_formula_units_Z            4
_exptl_crystal_recrystallization_method 'Vapour Deposition'
loop_
_atom_site_label
_atom_site_type_symbol
_atom_site_fract_x
_atom_site_fract_y
_atom_site_fract_z
S1 S 0.73128(18) 0.25925(7) 0.07209(7)
O1 O 0.7680(4) -0.01436(17) 0.25046(17)
O2 O 0.6359(5) 0.11221(18) 0.15042(16)
O3 O 0.8932(5) -0.1283(2) 0.0361(2)
O4 O 0.4444(6) -0.1182(2) 0.0851(2)
O5 O 0.3474(5) 0.14832(19) 0.25365(18)
O6 O 0.4397(5) -0.1076(2) 0.2477(2)
N1 N 0.4037(5) -0.0003(2) 0.2115(2)
H1 H 0.4112 0.0442 0.2192
N2 N 0.7159(5) 0.1639(2) 0.24366(19)
H2 H 0.7129 0.1999 0.2697
N3 N 0.5918(5) -0.0238(2) 0.0983(2)
H3 H 0.6096 0.0134 0.1217
N4 N 0.8500(7) -0.0936(2) 0.1392(2)
H4 H 0.9243 -0.1187 0.1543
H5 H 0.7961 -0.0685 0.1662
N5 N 0.5984(5) 0.0450(2) 0.3096(2)
H6 H 0.5711 0.0848 0.3264
N6 N 0.4546(5) 0.2494(2) 0.2321(2)
H7 H 0.4667 0.2926 0.2439
C1 C 0.6298(6) 0.1624(2) 0.1891(2)
C2 C 0.7273(7) 0.0408(3) 0.2721(2)
C3 C 0.6975(6) -0.0454(3) 0.0496(2)
H8 H 0.6423 -0.0701 0.0141
C4 C 0.4640(7) -0.0604(3) 0.1085(3)
C5 C 0.8121(7) 0.1068(3) 0.2592(3)
H9 H 0.8763 0.0985 0.2198
C6 C 0.3792(8) 0.0020(4) 0.3666(3)
H10 H 0.4175 0.0211 0.4078
H11 H 0.3227 -0.0402 0.3757
H12 H 0.3135 0.0359 0.3456
C7 C 0.5307(7) 0.2231(3) 0.1734(3)
H13 H 0.4517 0.2065 0.1426
C8 C 0.6113(7) 0.2819(3) 0.1401(3)
H14 H 0.6726 0.3060 0.1733
H15 H 0.5355 0.3151 0.1241
C9 C 0.5105(7) -0.0146(3) 0.3209(2)
H16 H 0.5746 -0.0502 0.3425
C10 C 0.4472(7) -0.0455(3) 0.2565(2)
C11 C 0.9170(8) 0.1251(3) 0.3157(3)
H17 H 0.9718 0.1674 0.3050
H18 H 0.9880 0.0874 0.3226
H19 H 0.8584 0.1324 0.3556
C12 C 0.8197(7) -0.0936(3) 0.0763(3)
C13 C 0.1348(7) 0.0646(3) 0.1478(3)
H20 H 0.0488 0.0331 0.1422
H21 H 0.1585 0.0671 0.1950
C14 C 0.2717(6) 0.0351(3) 0.1104(2)
H22 H 0.3476 0.0726 0.1061
C15 C 0.3435(7) -0.0248(3) 0.1494(3)
H23 H 0.2637 -0.0594 0.1591
C16 C 0.5949(7) 0.2274(3) 0.0135(3)
H24 H 0.5330 0.1912 0.0342
H25 H 0.5281 0.2656 0.0000
C17 C 0.2966(8) 0.2431(3) 0.3271(3)
H26 H 0.3281 0.2915 0.3285
H27 H 0.3290 0.2197 0.3672
H28 H 0.1875 0.2408 0.3237
C18 C 0.3670(7) 0.2079(3) 0.2677(3)
C19 C 0.6731(8) 0.1979(3) -0.0468(3)
H29 H 0.7403 0.2334 -0.0653
H30 H 0.5970 0.1868 -0.0803
C20 C 0.5855(8) 0.0386(4) -0.0712(3)
H31 H 0.5277 -0.0013 -0.0563
H32 H 0.6561 0.0242 -0.1052
H33 H 0.5175 0.0735 -0.0891
C21 C 0.0924(8) 0.1351(3) 0.1236(3)
H34 H 0.0056 0.1518 0.1482
H35 H 0.0675 0.1327 0.0770
H36 H 0.1765 0.1667 0.1300
C22 C 0.6736(8) 0.0699(3) -0.0120(3)
H37 H 0.5992 0.0852 0.0215
C23 C 0.7754(7) 0.0172(2) 0.0197(3)
H38 H 0.8337 0.0404 0.0545
H39 H 0.8473 0.0007 -0.0137
C24 C 0.7652(8) 0.1324(3) -0.0320(3)
H40 H 0.8239 0.1204 -0.0715
H41 H 0.8370 0.1430 0.0035
C25 C 0.2268(8) 0.0124(4) 0.0423(3)
H42 H 0.3143 -0.0060 0.0193
H43 H 0.1872 0.0520 0.0180
H44 H 0.1498 -0.0234 0.0453
O7 O 0.4346(7) -0.3455(2) 0.0980(2)
O8? O 0.2078(6) 0.2261(2) -0.3530(2)
O9? O 0.4467(8) 0.2371(3) -0.4294(3)
O10? O 0.4429(7) 0.1645(3) -0.2833(2)
C26? C 0.4559(11) 0.1379(7) -0.2202(4)
C27? C 0.4742(16) 0.2843(5) -0.4777(5)
C28? C 0.296(3) 0.2002(13) -0.4256(15)
C29? C 0.337(3) 0.1928(12) -0.2967(11)
loop_
_geom_bond_atom_site_label_1
_geom_bond_atom_site_label_2
_geom_bond_site_symmetry_1
_geom_bond_site_symmetry_2
S1 C8 1_555 1_555
O1 C2 1_555 1_555
O2 C1 1_555 1_555
O3 C12 1_555 1_555
O4 C4 1_555 1_555
O5 C18 1_555 1_555
O6 C10 1_555 1_555
N1 H1 1_555 1_555
N2 H2 1_555 1_555
N3 H3 1_555 1_555
N4 H4 1_555 1_555
H5 N4 1_555 1_555
N5 H6 1_555 1_555
N6 H7 1_555 1_555
C1 N2 1_555 1_555
C2 N5 1_555 1_555
C3 N3 1_555 1_555
H8 C3 1_555 1_555
C4 N3 1_555 1_555
C5 N2 1_555 1_555
H9 C5 1_555 1_555
C6 H10 1_555 1_555
H11 C6 1_555 1_555
H12 C6 1_555 1_555
C7 N6 1_555 1_555
H13 C7 1_555 1_555
C8 C7 1_555 1_555
H14 C8 1_555 1_555
H15 C8 1_555 1_555
C9 N5 1_555 1_555
H16 C9 1_555 1_555
C10 N1 1_555 1_555
C11 C5 1_555 1_555
H17 C11 1_555 1_555
H18 C11 1_555 1_555
H19 C11 1_555 1_555
C12 N4 1_555 1_555
C13 H20 1_555 1_555
H21 C13 1_555 1_555
C14 C13 1_555 1_555
H22 C14 1_555 1_555
C15 N1 1_555 1_555
H23 C15 1_555 1_555
C16 S1 1_555 1_555
H24 C16 1_555 1_555
H25 C16 1_555 1_555
C17 H26 1_555 1_555
H27 C17 1_555 1_555
H28 C17 1_555 1_555
C18 N6 1_555 1_555
C19 C16 1_555 1_555
H29 C19 1_555 1_555
H30 C19 1_555 1_555
C20 H31 1_555 1_555
H32 C20 1_555 1_555
H33 C20 1_555 1_555
C21 C13 1_555 1_555
H34 C21 1_555 1_555
H35 C21 1_555 1_555
H36 C21 1_555 1_555
C22 C20 1_555 1_555
H37 C22 1_555 1_555
C23 C3 1_555 1_555
H38 C23 1_555 1_555
H39 C23 1_555 1_555
C24 C19 1_555 1_555
H40 C24 1_555 1_555
H41 C24 1_555 1_555
C25 C14 1_555 1_555
H42 C25 1_555 1_555
H43 C25 1_555 1_555
H44 C25 1_555 1_555
C1 C7 1_555 1_555
C2 C5 1_555 1_555
C3 C12 1_555 1_555
C4 C15 1_555 1_555
C6 C9 1_555 1_555
C9 C10 1_555 1_555
C14 C15 1_555 1_555
C17 C18 1_555 1_555
C22 C23 1_555 1_555
C22 C24 1_555 1_555

#END
