
#######################################################################
#
#                 Cambridge Crystallographic Data Centre
#                                CCDC 
#
#######################################################################
#
# If this CIF has been generated from an entry in the Cambridge 
# Structural Database, then it will include bibliographic, chemical, 
# crystal, experimental, refinement or atomic coordinate data resulting 
# from the CCDC's data processing and validation procedures.
#
#######################################################################

data_PUQHAM
_chemical_formula_moiety         'C4 H11 N1 O7 P2 2-,5(H2 O1),2(Na1 1+)'
_chemical_name_systematic        
'Di-sodium (4-ammonio-1-hydroxy-1-(hydroxyphosphinato)butyl)phosphonate pentahydrate'
_symmetry_cell_setting           monoclinic
_symmetry_space_group_name_H-M   'P 21/n'
_symmetry_Int_Tables_number      14
_space_group_name_Hall           '-P 2yn'
loop_
_symmetry_equiv_pos_site_id
_symmetry_equiv_pos_as_xyz
1 x,y,z
2 1/2-x,1/2+y,1/2-z
3 -x,-y,-z
4 1/2+x,1/2-y,1/2+z
_cell_length_a                   13.1262(3)
_cell_length_b                   6.9000(1)
_cell_length_c                   15.7837(4)
_cell_angle_alpha                90
_cell_angle_beta                 95.052(2)
_cell_angle_gamma                90
_cell_volume                     1423.99
_exptl_crystal_colour            colorless
_exptl_crystal_description       needle
_cell_formula_units_Z            4
loop_
_atom_site_label
_atom_site_type_symbol
_atom_site_fract_x
_atom_site_fract_y
_atom_site_fract_z
P1 P 0.03499(3) 0.03675(5) 0.22521(2)
P2 P 0.05010(3) -0.33716(5) 0.32812(2)
O1 O -0.09540(8) -0.06909(14) 0.34316(6)
H1 H -0.0551(13) -0.013(2) 0.3757(10)
O2 O 0.13465(7) 0.07334(13) 0.27715(6)
O3 O 0.04315(8) -0.02691(14) 0.13433(6)
O4 O -0.03397(8) 0.22464(14) 0.22109(6)
H2 H -0.0288(13) 0.294(2) 0.2610(9)
O5 O 0.13076(7) -0.38052(14) 0.26772(6)
O6 O 0.09538(8) -0.25399(14) 0.41295(6)
O7 O -0.01595(7) -0.51651(13) 0.34268(6)
N1 N -0.32554(9) -0.03203(18) 0.05464(8)
H3 H -0.3761(12) -0.014(2) 0.0903(10)
H4 H -0.3559(13) -0.077(2) 0.0043(9)
H5 H -0.2920(13) 0.072(2) 0.0453(11)
C1 C -0.03835(10) -0.15172(19) 0.27780(8)
C2 C -0.11647(11) -0.24662(19) 0.21284(9)
H6 H -0.1509 -0.3536 0.2409
H7 H -0.0799 -0.3035 0.1665
C3 C -0.19775(12) -0.1053(2) 0.17417(10)
H8 H -0.2487 -0.0820 0.2158
H9 H -0.1648 0.0201 0.1632
C4 C -0.25178(11) -0.1786(2) 0.09291(9)
H10 H -0.2009 -0.2092 0.0522
H11 H -0.2889 -0.2995 0.1043
Na1 Na 0.26522(4) -0.16487(8) 0.25551(3)
Na2 Na 0.18880(4) 0.06293(8) 0.42437(3)
O8 O 0.34981(8) -0.04550(16) 0.38752(7)
H12 H 0.3991(13) -0.084(3) 0.4190(11)
H13 H 0.3712(14) 0.015(3) 0.3510(10)
O9 O 0.23886(8) -0.10399(16) 0.10220(7)
H14 H 0.2671(14) -0.008(2) 0.1190(11)
H15 H 0.1779(11) -0.075(3) 0.1033(11)
O10 O 0.27978(10) 0.15538(16) 0.55746(7)
H16 H 0.3417(11) 0.168(3) 0.5522(12)
H17 H 0.2759(15) 0.135(3) 0.6081(9)
O11 O 0.02965(8) 0.18662(15) 0.45384(7)
H18 H 0.0230(14) 0.285(2) 0.4245(10)
H19 H -0.0022(13) 0.210(3) 0.4964(9)
O12 O -0.01631(9) 0.25619(16) 0.02015(7)
H20 H -0.0029(15) 0.167(2) 0.0552(10)
H21 H -0.0176(15) 0.206(3) -0.0296(10)
loop_
_geom_bond_atom_site_label_1
_geom_bond_atom_site_label_2
_geom_bond_site_symmetry_1
_geom_bond_site_symmetry_2
P1 O2 1_555 1_555
P2 O5 1_555 1_555
O1 H1 1_555 1_555
O3 P1 1_555 1_555
O4 P1 1_555 1_555
H2 O4 1_555 1_555
O6 P2 1_555 1_555
O7 P2 1_555 1_555
N1 H3 1_555 1_555
H4 N1 1_555 1_555
H5 N1 1_555 1_555
C1 P1 1_555 1_555
C2 C1 1_555 1_555
H6 C2 1_555 1_555
H7 C2 1_555 1_555
C3 C2 1_555 1_555
H8 C3 1_555 1_555
H9 C3 1_555 1_555
C4 N1 1_555 1_555
H10 C4 1_555 1_555
H11 C4 1_555 1_555
O8 H12 1_555 1_555
H13 O8 1_555 1_555
O9 H14 1_555 1_555
H15 O9 1_555 1_555
O10 H16 1_555 1_555
H17 O10 1_555 1_555
O11 H18 1_555 1_555
H19 O11 1_555 1_555
O12 H20 1_555 1_555
H21 O12 1_555 1_555
P2 C1 1_555 1_555
O1 C1 1_555 1_555
C3 C4 1_555 1_555

#END
