
#######################################################################
#
#                 Cambridge Crystallographic Data Centre
#                                CCDC 
#
#######################################################################
#
# If this CIF has been generated from an entry in the Cambridge 
# Structural Database, then it will include bibliographic, chemical, 
# crystal, experimental, refinement or atomic coordinate data resulting 
# from the CCDC's data processing and validation procedures.
#
#######################################################################

data_PUQHIU
_chemical_formula_moiety         'C4 H11 N1 O7 P2 2-,6(H2 O1),2(Rb1 1+)'
_chemical_name_systematic        
'Di-rubidium (4-ammonio-1-hydroxy-1-(hydroxyphosphinato)butyl)phosphonate hexahydrate'
_symmetry_cell_setting           monoclinic
_symmetry_space_group_name_H-M   'P 21/n'
_symmetry_Int_Tables_number      14
_space_group_name_Hall           '-P 2yn'
loop_
_symmetry_equiv_pos_site_id
_symmetry_equiv_pos_as_xyz
1 x,y,z
2 1/2-x,1/2+y,1/2-z
3 -x,-y,-z
4 1/2+x,1/2-y,1/2+z
_cell_length_a                   6.8174(5)
_cell_length_b                   26.990(2)
_cell_length_c                   9.3643(7)
_cell_angle_alpha                90
_cell_angle_beta                 98.805(7)
_cell_angle_gamma                90
_cell_volume                     1702.74
_exptl_crystal_colour            colorless
_exptl_crystal_description       plate
_cell_formula_units_Z            4
loop_
_atom_site_label
_atom_site_type_symbol
_atom_site_fract_x
_atom_site_fract_y
_atom_site_fract_z
Rb1 Rb 0.35487(6) 0.140171(15) 0.89854(4)
Rb2 Rb 0.49395(7) 0.280916(15) 0.69153(5)
P1 P 0.81980(15) 0.16462(4) 0.74147(11)
P2 P 0.72579(14) 0.05372(4) 0.76589(10)
O1 O 0.6049(4) 0.17890(11) 0.7160(3)
O2 O 0.9606(4) 0.19954(11) 0.6826(3)
O3 O 0.8999(5) 0.15771(11) 0.9101(3)
H1 H 0.871(8) 0.1311(13) 0.949(4)
O4 O 0.5032(4) 0.05566(10) 0.7167(3)
O5 O 0.8206(4) 0.00439(10) 0.7344(3)
O6 O 0.7801(4) 0.06714(10) 0.9270(3)
O7 O 1.0567(4) 0.09092(11) 0.6954(3)
H2 H 1.091(6) 0.0843(19) 0.618(3)
N1 N 0.7606(5) 0.01254(13) 0.1899(4)
H3 H 0.885(4) 0.0007(18) 0.217(5)
H4 H 0.748(8) 0.0184(18) 0.095(2)
H5 H 0.676(6) -0.0109(14) 0.212(5)
C1 C 0.8460(5) 0.10210(14) 0.6661(4)
C2 C 0.7682(6) 0.10373(15) 0.5038(4)
H6 H 0.6308 0.1167 0.4898
H7 H 0.8503 0.1273 0.4576
C3 C 0.7684(6) 0.05378(14) 0.4266(4)
H8 H 0.8964 0.0368 0.4581
H9 H 0.6611 0.0327 0.4536
C4 C 0.7384(6) 0.06037(15) 0.2647(4)
H10 H 0.6041 0.0739 0.2319
H11 H 0.8366 0.0844 0.2386
O8 O 0.1799(4) 0.05919(11) 1.0464(3)
H12 H 0.065(4) 0.0625(19) 1.001(5)
H13 H 0.174(7) 0.0386(17) 1.113(4)
O9 O 0.7601(5) 0.36345(12) 0.7339(4)
H14 H 0.731(9) 0.3884(15) 0.679(5)
H15 H 0.756(10) 0.374(2) 0.819(3)
O10 O 0.0787(5) 0.30050(15) 0.7203(5)
H16 H 0.038(9) 0.2731(13) 0.687(7)
H17 H -0.014(7) 0.3196(19) 0.732(8)
O11 O 0.2711(5) 0.24299(13) 0.9593(4)
H18 H 0.189(8) 0.2592(19) 0.902(5)
H19 H 0.327(9) 0.2628(18) 1.022(5)
O12 O 0.2587(5) 0.19833(14) 0.5078(4)
H20 H 0.360(6) 0.185(2) 0.552(6)
H21 H 0.172(6) 0.199(3) 0.562(6)
O13 O 0.2624(4) 0.07103(11) 0.4660(3)
H22 H 0.362(4) 0.0660(18) 0.529(3)
H23 H 0.239(7) 0.0475(14) 0.409(4)
loop_
_geom_bond_atom_site_label_1
_geom_bond_atom_site_label_2
_geom_bond_site_symmetry_1
_geom_bond_site_symmetry_2
P1 O1 1_555 1_555
P2 O4 1_555 1_555
O2 P1 1_555 1_555
O3 P1 1_555 1_555
H1 O3 1_555 1_555
O5 P2 1_555 1_555
O6 P2 1_555 1_555
O7 H2 1_555 1_555
N1 H3 1_555 1_555
H4 N1 1_555 1_555
H5 N1 1_555 1_555
C1 P1 1_555 1_555
C2 C1 1_555 1_555
H6 C2 1_555 1_555
H7 C2 1_555 1_555
C3 C2 1_555 1_555
H8 C3 1_555 1_555
H9 C3 1_555 1_555
C4 N1 1_555 1_555
H10 C4 1_555 1_555
H11 C4 1_555 1_555
O8 H12 1_555 1_555
H13 O8 1_555 1_555
O9 H14 1_555 1_555
H15 O9 1_555 1_555
O10 H16 1_555 1_555
H17 O10 1_555 1_555
O11 H18 1_555 1_555
H19 O11 1_555 1_555
O12 H20 1_555 1_555
H21 O12 1_555 1_555
O13 H22 1_555 1_555
H23 O13 1_555 1_555
P2 C1 1_555 1_555
O7 C1 1_555 1_555
C3 C4 1_555 1_555

#END
