
#######################################################################
#
#                 Cambridge Crystallographic Data Centre
#                                CCDC 
#
#######################################################################
#
# If this CIF has been generated from an entry in the Cambridge 
# Structural Database, then it will include bibliographic, chemical, 
# crystal, experimental, refinement or atomic coordinate data resulting 
# from the CCDC's data processing and validation procedures.
#
#######################################################################

data_PUQJAO
_chemical_formula_moiety         'C4 H11 N1 O7 P2 2-,4(H2 O1),2(Cs1 1+)'
_chemical_name_systematic        
'Di-cesium (4-ammonio-1-hydroxy-1-(hydroxyphosphinato)butyl)phosphonate tetrahydrate'
_symmetry_cell_setting           triclinic
_symmetry_space_group_name_H-M   'P -1'
_symmetry_Int_Tables_number      2
_space_group_name_Hall           '-P 1'
loop_
_symmetry_equiv_pos_site_id
_symmetry_equiv_pos_as_xyz
1 x,y,z
2 -x,-y,-z
_cell_length_a                   6.8740(14)
_cell_length_b                   9.3880(19)
_cell_length_c                   12.775(3)
_cell_angle_alpha                88.97(3)
_cell_angle_beta                 88.32(3)
_cell_angle_gamma                81.42(3)
_cell_volume                     814.757
_exptl_crystal_colour            colorless
_exptl_crystal_description       needle
_cell_formula_units_Z            2
loop_
_atom_site_label
_atom_site_type_symbol
_atom_site_fract_x
_atom_site_fract_y
_atom_site_fract_z
Cs1 Cs 0.65062(3) 1.42010(2) 0.19648(2)
Cs2 Cs 0.75285(3) 0.96995(2) 0.11056(2)
P1 P 0.27568(11) 1.26194(8) 0.38811(6)
P2 P 0.18639(11) 1.24077(8) 0.15278(6)
O1 O 0.4972(3) 1.2156(2) 0.38382(17)
O2 O 0.2222(3) 1.4230(2) 0.35789(17)
O3 O 0.1760(3) 1.2296(2) 0.49184(16)
O4 O 0.3960(3) 1.2041(2) 0.11370(17)
O5 O 0.1311(3) 1.4090(2) 0.17106(17)
H1 H 0.172(6) 1.427(5) 0.2304(17)
O6 O 0.0324(3) 1.1938(2) 0.08467(17)
O7 O -0.0480(3) 1.1908(2) 0.31030(17)
H2 H -0.094(6) 1.117(3) 0.331(3)
N1 N 0.2420(4) 0.6864(3) 0.4757(2)
H3 H 0.245(6) 0.5912(15) 0.463(3)
H4 H 0.122(3) 0.723(4) 0.503(3)
H5 H 0.328(5) 0.704(5) 0.525(3)
C1 C 0.1610(4) 1.1638(3) 0.2863(2)
C2 C 0.2397(4) 1.0023(3) 0.2840(2)
H6 H 0.1630 0.9565 0.2333
H7 H 0.3780 0.9900 0.2576
C3 C 0.2325(4) 0.9228(3) 0.3885(2)
H8 H 0.3322 0.9518 0.4349
H9 H 0.1013 0.9498 0.4226
C4 C 0.2717(5) 0.7614(3) 0.3740(2)
H10 H 0.1813 0.7333 0.3218
H11 H 0.4084 0.7327 0.3474
O8 O 0.8181(4) 1.5498(3) 0.37492(19)
H12 H 0.809(7) 1.621(4) 0.415(3)
H13 H 0.938(2) 1.515(5) 0.371(4)
O9 O 1.1060(4) 0.6967(3) 0.09769(19)
H14 H 1.055(7) 0.717(5) 0.039(2)
H15 H 1.109(7) 0.6081(15) 0.109(4)
O10 O 0.7403(3) 0.9685(2) 0.34838(18)
H16 H 0.651(5) 1.037(3) 0.363(3)
H17 H 0.759(6) 0.912(4) 0.400(2)
O11 O 0.5047(4) 0.7201(3) 0.0882(2)
H18 H 0.3816(18) 0.724(6) 0.084(4)
H19 H 0.544(7) 0.736(6) 0.0266(16)
loop_
_geom_bond_atom_site_label_1
_geom_bond_atom_site_label_2
_geom_bond_site_symmetry_1
_geom_bond_site_symmetry_2
P1 O1 1_555 1_555
P2 O4 1_555 1_555
O2 P1 1_555 1_555
O3 P1 1_555 1_555
O5 P2 1_555 1_555
H1 O5 1_555 1_555
O6 P2 1_555 1_555
O7 H2 1_555 1_555
N1 H3 1_555 1_555
H4 N1 1_555 1_555
H5 N1 1_555 1_555
C1 P1 1_555 1_555
C2 C1 1_555 1_555
H6 C2 1_555 1_555
H7 C2 1_555 1_555
C3 C2 1_555 1_555
H8 C3 1_555 1_555
H9 C3 1_555 1_555
C4 N1 1_555 1_555
H10 C4 1_555 1_555
H11 C4 1_555 1_555
O8 H12 1_555 1_555
H13 O8 1_555 1_555
O9 H14 1_555 1_555
H15 O9 1_555 1_555
O10 H16 1_555 1_555
H17 O10 1_555 1_555
O11 H18 1_555 1_555
H19 O11 1_555 1_555
P2 C1 1_555 1_555
O7 C1 1_555 1_555
C3 C4 1_555 1_555

#END
