
#######################################################################
#
#                 Cambridge Crystallographic Data Centre
#                                CCDC 
#
#######################################################################
#
# If this CIF has been generated from an entry in the Cambridge 
# Structural Database, then it will include bibliographic, chemical, 
# crystal, experimental, refinement or atomic coordinate data resulting 
# from the CCDC's data processing and validation procedures.
#
#######################################################################

data_PUQKOD
_chemical_formula_moiety         'C24 H17 N3 O4'
_chemical_name_systematic        
'Ethyl ((4-(2-(4-(dicyanomethylene)-4H-chromen-2-yl)vinyl)phenyl)amino)(oxo)acetate'
_symmetry_cell_setting           monoclinic
_symmetry_space_group_name_H-M   'P 21/c'
_symmetry_Int_Tables_number      14
_space_group_name_Hall           '-P 2ybc'
loop_
_symmetry_equiv_pos_site_id
_symmetry_equiv_pos_as_xyz
1 x,y,z
2 -x,1/2+y,1/2-z
3 -x,-y,-z
4 x,1/2-y,1/2+z
_cell_length_a                   9.1046(11)
_cell_length_b                   27.117(3)
_cell_length_c                   8.5164(11)
_cell_angle_alpha                90
_cell_angle_beta                 102.813(2)
_cell_angle_gamma                90
_cell_volume                     2050.25
_exptl_crystal_colour            brown
_exptl_crystal_description       block
_cell_formula_units_Z            4
loop_
_atom_site_label
_atom_site_type_symbol
_atom_site_fract_x
_atom_site_fract_y
_atom_site_fract_z
N1 N -0.3997(4) 0.56492(12) 0.6526(4)
N2 N -0.1742(3) 0.70013(9) 0.6243(3)
N3 N 0.8534(2) 0.69077(7) 0.0530(2)
O1 O 0.09757(18) 0.55356(6) 0.2662(2)
O2 O 0.9581(2) 0.62456(7) -0.0520(2)
O3 O 1.0706(2) 0.74774(7) -0.0270(3)
O4 O 1.16907(19) 0.68186(6) -0.1242(2)
C1 C -0.2504(3) 0.50865(9) 0.3642(3)
H1 H -0.3253 0.5178 0.4171
C2 C -0.2590(3) 0.46355(10) 0.2898(4)
H2 H -0.3394 0.4427 0.2926
C3 C -0.1488(3) 0.44889(9) 0.2106(3)
H3 H -0.1544 0.4180 0.1623
C4 C -0.0326(3) 0.47963(9) 0.2036(3)
H4 H 0.0407 0.4702 0.1489
C5 C -0.0246(3) 0.52519(9) 0.2790(3)
C6 C -0.1323(3) 0.54114(8) 0.3625(3)
C7 C -0.1141(3) 0.59005(8) 0.4356(3)
C8 C -0.2045(3) 0.60972(9) 0.5317(3)
C9 C -0.1861(3) 0.65978(11) 0.5836(3)
C10 C -0.3131(3) 0.58413(11) 0.5948(4)
C11 C 0.0081(3) 0.61855(9) 0.4036(3)
H5 H 0.0186 0.6511 0.4387
C12 C 0.1082(3) 0.60004(9) 0.3249(3)
C13 C 0.2395(3) 0.62587(9) 0.2965(3)
H6 H 0.2546 0.6583 0.3316
C14 C 0.3397(3) 0.60564(10) 0.2229(3)
H7 H 0.3224 0.5728 0.1924
C15 C 0.4718(3) 0.62795(9) 0.1844(3)
C16 C 0.5256(3) 0.67487(9) 0.2339(3)
H8 H 0.4759 0.6935 0.2980
C17 C 0.6503(3) 0.69430(9) 0.1904(3)
H9 H 0.6832 0.7258 0.2250
C18 C 0.7278(3) 0.66758(9) 0.0956(3)
C19 C 0.6793(3) 0.62051(9) 0.0483(3)
H10 H 0.7315 0.6016 -0.0126
C20 C 0.5529(3) 0.60156(9) 0.0918(3)
H11 H 0.5209 0.5700 0.0578
C21 C 0.9546(3) 0.66790(10) -0.0182(3)
C22 C 1.0707(3) 0.70432(10) -0.0566(3)
C23 C 1.2845(3) 0.71279(10) -0.1679(3)
H12 H 1.3529 0.7249 -0.0717
H13 H 1.2385 0.7409 -0.2305
C24 C 1.3680(3) 0.68233(11) -0.2643(4)
H14 H 1.4150 0.6551 -0.2005
H15 H 1.4437 0.7021 -0.2963
H16 H 1.2991 0.6701 -0.3583
loop_
_geom_bond_atom_site_label_1
_geom_bond_atom_site_label_2
_geom_bond_site_symmetry_1
_geom_bond_site_symmetry_2
N1 C10 1_555 1_555
N2 C9 1_555 1_555
N3 C18 1_555 1_555
O1 C5 1_555 1_555
O2 C21 1_555 1_555
O3 C22 1_555 1_555
O4 C22 1_555 1_555
C1 H1 1_555 1_555
C2 C1 1_555 1_555
H2 C2 1_555 1_555
C3 C2 1_555 1_555
H3 C3 1_555 1_555
C4 C3 1_555 1_555
H4 C4 1_555 1_555
C5 C4 1_555 1_555
C6 C1 1_555 1_555
C7 C6 1_555 1_555
C8 C7 1_555 1_555
C9 C8 1_555 1_555
C10 C8 1_555 1_555
C11 C7 1_555 1_555
H5 C11 1_555 1_555
C12 O1 1_555 1_555
C13 C12 1_555 1_555
H6 C13 1_555 1_555
C14 C13 1_555 1_555
H7 C14 1_555 1_555
C15 C14 1_555 1_555
C16 C15 1_555 1_555
H8 C16 1_555 1_555
C17 C16 1_555 1_555
H9 C17 1_555 1_555
C18 C17 1_555 1_555
C19 C18 1_555 1_555
H10 C19 1_555 1_555
C20 C15 1_555 1_555
H11 C20 1_555 1_555
C21 N3 1_555 1_555
C22 C21 1_555 1_555
C23 O4 1_555 1_555
H12 C23 1_555 1_555
H13 C23 1_555 1_555
C24 C23 1_555 1_555
H14 C24 1_555 1_555
H15 C24 1_555 1_555
H16 C24 1_555 1_555
C5 C6 1_555 1_555
C11 C12 1_555 1_555
C19 C20 1_555 1_555

#END
