
#######################################################################
#
#                 Cambridge Crystallographic Data Centre
#                                CCDC 
#
#######################################################################
#
# If this CIF has been generated from an entry in the Cambridge 
# Structural Database, then it will include bibliographic, chemical, 
# crystal, experimental, refinement or atomic coordinate data resulting 
# from the CCDC's data processing and validation procedures.
#
#######################################################################

data_PUQQIC
_chemical_formula_moiety         'C17 H12 N4 O6'
_chemical_name_systematic        
3-(1-(N-(2,4-Dinitrophenyl)hydrazono)ethyl)-2H-chromen-2-one
_symmetry_cell_setting           monoclinic
_symmetry_space_group_name_H-M   'P 21/c'
_symmetry_Int_Tables_number      14
_space_group_name_Hall           '-P 2ybc'
loop_
_symmetry_equiv_pos_site_id
_symmetry_equiv_pos_as_xyz
1 x,y,z
2 -x,1/2+y,1/2-z
3 -x,-y,-z
4 x,1/2-y,1/2+z
_cell_length_a                   8.0505(8)
_cell_length_b                   14.5331(14)
_cell_length_c                   13.2899(13)
_cell_angle_alpha                90
_cell_angle_beta                 93.290(2)
_cell_angle_gamma                90
_cell_volume                     1552.34
_exptl_crystal_colour            yellow
_chemical_melting_point          '493 K'
_cell_formula_units_Z            4
loop_
_atom_site_label
_atom_site_type_symbol
_atom_site_fract_x
_atom_site_fract_y
_atom_site_fract_z
O1 O 0.6670(3) 0.19877(15) 0.71484(16)
N1 N 0.9179(3) 0.16340(17) 0.40221(19)
O2 O 1.0954(3) -0.05163(15) 0.08603(17)
O3 O 0.9216(3) -0.03526(15) 0.20295(18)
O4 O 1.3425(3) 0.20414(16) -0.06178(17)
O5 O 0.7867(3) 0.06915(16) 0.67285(17)
N2 N 0.9568(3) 0.10905(17) 0.3221(2)
H1 H 0.9284 0.0520 0.3208
C1 C 1.0394(4) 0.1448(2) 0.2454(2)
N3 N 1.0297(3) -0.00473(18) 0.14963(19)
C2 C 1.0791(4) 0.0911(2) 0.1607(2)
C3 C 0.6625(4) 0.3313(2) 0.6052(2)
C4 C 1.0922(4) 0.2376(2) 0.2472(2)
H2 H 1.0675 0.2748 0.3013
C5 C 1.2170(4) 0.2180(2) 0.0897(2)
N4 N 1.3128(3) 0.25491(19) 0.0099(2)
C6 C 0.6233(4) 0.2892(2) 0.6955(2)
C7 C 1.1664(4) 0.1282(2) 0.0838(2)
H3 H 1.1906 0.0924 0.0285
O6 O 1.3641(3) 0.33469(16) 0.01741(19)
C8 C 0.7662(4) 0.0266(2) 0.4604(3)
H4 H 0.7144 0.0155 0.3947
H5 H 0.6869 0.0165 0.5105
H6 H 0.8586 -0.0145 0.4720
C9 C 0.7696(4) 0.1856(2) 0.5467(2)
C10 C 0.5383(4) 0.3340(2) 0.7685(2)
H7 H 0.5123 0.3041 0.8274
C11 C 1.1786(4) 0.2735(2) 0.1710(2)
H8 H 1.2119 0.3348 0.1732
C12 C 0.6161(4) 0.4232(2) 0.5913(3)
H9 H 0.6416 0.4535 0.5324
C13 C 0.5329(4) 0.4697(2) 0.6637(3)
H10 H 0.5034 0.5311 0.6540
C14 C 0.4934(4) 0.4241(3) 0.7513(3)
H11 H 0.4353 0.4553 0.7993
C15 C 0.7435(4) 0.1457(2) 0.6461(2)
C16 C 0.7354(4) 0.2760(2) 0.5304(2)
H12 H 0.7598 0.3025 0.4693
C17 C 0.8271(4) 0.1246(2) 0.4668(2)
loop_
_geom_bond_atom_site_label_1
_geom_bond_atom_site_label_2
_geom_bond_site_symmetry_1
_geom_bond_site_symmetry_2
O1 C6 1_555 1_555
N1 N2 1_555 1_555
O2 N3 1_555 1_555
O3 N3 1_555 1_555
O4 N4 1_555 1_555
O5 C15 1_555 1_555
N2 H1 1_555 1_555
C1 N2 1_555 1_555
N3 C2 1_555 1_555
C2 C1 1_555 1_555
C3 C6 1_555 1_555
C4 C1 1_555 1_555
H2 C4 1_555 1_555
C5 N4 1_555 1_555
N4 O6 1_555 1_555
C6 C10 1_555 1_555
C7 C2 1_555 1_555
H3 C7 1_555 1_555
C8 H4 1_555 1_555
H5 C8 1_555 1_555
H6 C8 1_555 1_555
C9 C15 1_555 1_555
C10 H7 1_555 1_555
C11 C4 1_555 1_555
H8 C11 1_555 1_555
C12 C3 1_555 1_555
H9 C12 1_555 1_555
C13 C12 1_555 1_555
H10 C13 1_555 1_555
C14 C10 1_555 1_555
H11 C14 1_555 1_555
C15 O1 1_555 1_555
C16 C3 1_555 1_555
H12 C16 1_555 1_555
C17 N1 1_555 1_555
C5 C7 1_555 1_555
C5 C11 1_555 1_555
C8 C17 1_555 1_555
C9 C16 1_555 1_555
C9 C17 1_555 1_555
C13 C14 1_555 1_555

#END
