
#######################################################################
#
#                 Cambridge Crystallographic Data Centre
#                                CCDC 
#
#######################################################################
#
# If this CIF has been generated from an entry in the Cambridge 
# Structural Database, then it will include bibliographic, chemical, 
# crystal, experimental, refinement or atomic coordinate data resulting 
# from the CCDC's data processing and validation procedures.
#
#######################################################################

data_PUQSUR
_chemical_formula_moiety         'C24 H18 Cl2 F6 N2 O1'
_chemical_name_systematic        
4-(3-(3,4-dichlorophenyl)hexahydro[1,3]oxazolo[3,4-a]pyridin-1-yl)-2,8-bis(trifluoromethyl)quinoline
_symmetry_cell_setting           triclinic
_symmetry_space_group_name_H-M   'P -1'
_symmetry_Int_Tables_number      2
_space_group_name_Hall           '-P 1'
loop_
_symmetry_equiv_pos_site_id
_symmetry_equiv_pos_as_xyz
1 x,y,z
2 -x,-y,-z
_cell_length_a                   9.1382(4)
_cell_length_b                   10.5917(5)
_cell_length_c                   12.9382(6)
_cell_angle_alpha                100.045(2)
_cell_angle_beta                 96.544(2)
_cell_angle_gamma                110.495(2)
_cell_volume                     1134.04
_exptl_crystal_colour            colorless
_exptl_crystal_description       BLOCK
_cell_formula_units_Z            2
loop_
_atom_site_label
_atom_site_type_symbol
_atom_site_fract_x
_atom_site_fract_y
_atom_site_fract_z
Cl1 Cl 0.58266(8) 0.78792(8) 1.05171(5)
Cl2 Cl 0.46235(8) 1.00714(8) 1.17533(5)
F1 F 0.10903(19) 0.82791(17) 0.27318(12)
F2 F -0.0759(2) 0.62572(17) 0.24498(13)
O1 O -0.0337(2) 0.89165(18) 0.84198(13)
N1 N 0.0586(2) 0.7484(2) 0.46890(16)
F3 F -0.1131(2) 0.7807(2) 0.16982(12)
N2 N -0.1720(2) 0.6594(2) 0.81817(16)
C1 C -0.2318(3) 0.8621(3) 0.3394(2)
H1 H -0.2657 0.8728 0.2704
C2 C 0.0552(3) 0.7801(2) 0.65812(19)
H2 H 0.1026 0.7760 0.7261
C3 C -0.0708(3) 0.8221(2) 0.64821(19)
C4 C 0.1880(3) 0.8750(3) 1.03098(19)
H3 H 0.1524 0.9417 1.0670
C5 C -0.2526(3) 0.8872(2) 0.5256(2)
H4 H -0.3013 0.9126 0.5826
F4 F 0.3026(3) 0.6919(3) 0.67213(16)
C6 C -0.0598(3) 0.7972(2) 0.45828(19)
C7 C -0.1303(3) 0.8359(2) 0.54569(19)
C8 C 0.3396(3) 0.8784(3) 1.06632(19)
C9 C -0.2743(3) 0.7111(3) 0.75654(19)
H5 H -0.3474 0.7343 0.8015
C10 C 0.0890(3) 0.7730(3) 0.94242(19)
C11 C 0.1126(3) 0.7433(3) 0.5662(2)
C12 C -0.1165(3) 0.8095(3) 0.35455(19)
C13 C 0.3917(3) 0.7806(3) 1.0141(2)
C14 C -0.0680(3) 0.7803(3) 0.89855(19)
H6 H -0.1239 0.7989 0.9581
C15 C -0.3013(3) 0.9007(3) 0.4256(2)
H7 H -0.3823 0.9363 0.4140
C16 C -0.0485(3) 0.7613(3) 0.2616(2)
C17 C -0.3719(3) 0.6016(3) 0.6569(2)
H8 H -0.3005 0.5813 0.6102
H9 H -0.4433 0.6357 0.6167
C18 C -0.1484(3) 0.8458(3) 0.74345(19)
H10 H -0.1972 0.9158 0.7368
F5 F 0.2028(3) 0.5630(3) 0.5185(2)
C19 C 0.1397(3) 0.6725(3) 0.8935(2)
H11 H 0.0702 0.6004 0.8354
C20 C -0.2640(3) 0.5386(3) 0.8565(2)
H12 H -0.3344 0.5627 0.9022
H13 H -0.1912 0.5083 0.8993
C21 C -0.4710(3) 0.4691(3) 0.6893(2)
H14 H -0.5512 0.4869 0.7288
H15 H -0.5280 0.3945 0.6245
F6 F 0.3681(3) 0.7634(3) 0.5354(3)
C22 C 0.2909(3) 0.6759(3) 0.9285(2)
H16 H 0.3250 0.6071 0.8942
C23 C 0.2464(3) 0.6911(3) 0.5734(2)
C24 C -0.3626(4) 0.4232(3) 0.7599(2)
H17 H -0.4282 0.3417 0.7844
H18 H -0.2908 0.3952 0.7175
loop_
_geom_bond_atom_site_label_1
_geom_bond_atom_site_label_2
_geom_bond_site_symmetry_1
_geom_bond_site_symmetry_2
Cl1 C13 1_555 1_555
Cl2 C8 1_555 1_555
F1 C16 1_555 1_555
F2 C16 1_555 1_555
O1 C14 1_555 1_555
N1 C6 1_555 1_555
F3 C16 1_555 1_555
N2 C9 1_555 1_555
C1 H1 1_555 1_555
C2 H2 1_555 1_555
C3 C2 1_555 1_555
C4 H3 1_555 1_555
C5 H4 1_555 1_555
F4 C23 1_555 1_555
C6 C7 1_555 1_555
C7 C3 1_555 1_555
C8 C4 1_555 1_555
C9 H5 1_555 1_555
C10 C4 1_555 1_555
C11 N1 1_555 1_555
C12 C1 1_555 1_555
C13 C8 1_555 1_555
C14 N2 1_555 1_555
H6 C14 1_555 1_555
C15 C1 1_555 1_555
H7 C15 1_555 1_555
C16 C12 1_555 1_555
C17 C9 1_555 1_555
H8 C17 1_555 1_555
H9 C17 1_555 1_555
C18 O1 1_555 1_555
H10 C18 1_555 1_555
F5 C23 1_555 1_555
C19 C10 1_555 1_555
H11 C19 1_555 1_555
C20 N2 1_555 1_555
H12 C20 1_555 1_555
H13 C20 1_555 1_555
C21 C17 1_555 1_555
H14 C21 1_555 1_555
H15 C21 1_555 1_555
F6 C23 1_555 1_555
C22 C13 1_555 1_555
H16 C22 1_555 1_555
C23 C11 1_555 1_555
C24 C20 1_555 1_555
H17 C24 1_555 1_555
H18 C24 1_555 1_555
C2 C11 1_555 1_555
C3 C18 1_555 1_555
C5 C7 1_555 1_555
C5 C15 1_555 1_555
C6 C12 1_555 1_555
C9 C18 1_555 1_555
C10 C14 1_555 1_555
C19 C22 1_555 1_555
C21 C24 1_555 1_555

#END
