
#######################################################################
#
#                 Cambridge Crystallographic Data Centre
#                                CCDC 
#
#######################################################################
#
# If this CIF has been generated from an entry in the Cambridge 
# Structural Database, then it will include bibliographic, chemical, 
# crystal, experimental, refinement or atomic coordinate data resulting 
# from the CCDC's data processing and validation procedures.
#
#######################################################################

data_PUQWAB
_chemical_formula_moiety         'C18 H15 N1 O3 S1'
_chemical_name_systematic        
(3R,3aR,6aR)-3-Hydroxy-3a,5-diphenyldihydro-2H-thieno[2,3-c]-pyrrole-4,6(5H,6aH)-dione
_symmetry_cell_setting           triclinic
_symmetry_space_group_name_H-M   'P -1'
_symmetry_Int_Tables_number      2
_space_group_name_Hall           '-P 1'
loop_
_symmetry_equiv_pos_site_id
_symmetry_equiv_pos_as_xyz
1 x,y,z
2 -x,-y,-z
_cell_length_a                   10.518(2)
_cell_length_b                   11.0863(18)
_cell_length_c                   15.2569(17)
_cell_angle_alpha                87.266(12)
_cell_angle_beta                 89.356(13)
_cell_angle_gamma                62.406(19)
_cell_volume                     1574.77
_exptl_crystal_colour            'light yellow'
_exptl_crystal_description       block
_cell_formula_units_Z            4
loop_
_atom_site_label
_atom_site_type_symbol
_atom_site_fract_x
_atom_site_fract_y
_atom_site_fract_z
S1 S 0.82159(18) 0.50646(14) 0.10743(11)
O1 O 0.5050(4) 0.5257(4) 0.1071(3)
O2 O 0.4277(4) 0.9151(3) -0.0486(3)
O3 O 0.6346(4) 0.8209(3) 0.1273(2)
H1 H 0.5743 0.8994 0.1147
N1 N 0.4344(5) 0.7320(4) 0.0308(3)
C1 C 0.5344(6) 0.6022(5) 0.0620(4)
C2 C 0.6783(6) 0.5737(5) 0.0260(4)
H2 H 0.7025 0.5093 -0.0208
C3 C 0.8648(7) 0.6456(5) 0.0850(4)
H3 H 0.9006 0.6658 0.1377
H4 H 0.9375 0.6220 0.0402
C4 C 0.7273(6) 0.7666(5) 0.0538(3)
H5 H 0.7483 0.8367 0.0257
C5 C 0.6607(6) 0.7124(5) -0.0141(3)
C6 C 0.4954(6) 0.8018(5) -0.0153(4)
C7 C 0.7239(6) 0.7100(5) -0.1050(4)
C8 C 0.7215(7) 0.8301(6) -0.1395(4)
H6 H 0.6803 0.9087 -0.1080
C9 C 0.7806(8) 0.8314(7) -0.2208(4)
H7 H 0.7798 0.9114 -0.2428
C10 C 0.8404(7) 0.7180(7) -0.2703(4)
H8 H 0.8793 0.7202 -0.3250
C11 C 0.8405(8) 0.6009(7) -0.2356(4)
H9 H 0.8799 0.5228 -0.2678
C12 C 0.7835(7) 0.5966(6) -0.1543(4)
H10 H 0.7854 0.5159 -0.1326
C13 C 0.2841(7) 0.7872(5) 0.0504(4)
C14 C 0.2362(8) 0.8354(6) 0.1311(4)
H11 H 0.2998 0.8366 0.1724
C15 C 0.0913(9) 0.8833(7) 0.1521(5)
H12 H 0.0577 0.9183 0.2066
C16 C 0.0007(9) 0.8778(6) 0.0916(6)
H13 H -0.0949 0.9063 0.1058
C17 C 0.0470(7) 0.8318(6) 0.0115(5)
H14 H -0.0172 0.8312 -0.0297
C18 C 0.1924(7) 0.7844(6) -0.0105(4)
H15 H 0.2250 0.7518 -0.0657
S2 S 1.1412(2) 0.47256(15) -0.39565(12)
O4 O 1.0867(5) 0.2490(4) -0.2845(3)
O5 O 1.5302(5) -0.0138(4) -0.3945(3)
O6 O 1.2483(5) 0.2158(4) -0.5103(3)
H16 H 1.2965 0.1405 -0.5299
N2 N 1.3098(5) 0.0884(4) -0.3314(3)
C19 C 1.2035(7) 0.2216(6) -0.3152(4)
C20 C 1.2661(7) 0.3164(5) -0.3367(4)
H17 H 1.2986 0.3384 -0.2826
C21 C 1.3950(6) 0.2354(5) -0.3942(4)
C22 C 1.3384(7) 0.2754(6) -0.4921(4)
H18 H 1.4177 0.2480 -0.5336
C23 C 1.2456(7) 0.4289(6) -0.4957(4)
H19 H 1.1822 0.4575 -0.5467
H20 H 1.3053 0.4743 -0.4998
C24 C 1.4257(7) 0.0893(5) -0.3749(4)
C25 C 1.5233(7) 0.2614(6) -0.3830(4)
C26 C 1.5263(8) 0.3537(7) -0.3288(5)
H21 H 1.4451 0.4053 -0.2964
C27 C 1.6479(10) 0.3739(9) -0.3198(6)
H22 H 1.6463 0.4381 -0.2822
C28 C 1.7678(10) 0.2995(9) -0.3664(6)
H23 H 1.8485 0.3125 -0.3609
C29 C 1.7688(8) 0.2050(9) -0.4216(6)
H24 H 1.8505 0.1534 -0.4535
C30 C 1.6484(8) 0.1864(7) -0.4297(5)
H25 H 1.6507 0.1220 -0.4675
C31 C 1.2902(7) -0.0303(5) -0.3158(4)
C32 C 1.1723(8) -0.0342(7) -0.3503(5)
H26 H 1.1050 0.0399 -0.3836
C33 C 1.1544(11) -0.1499(9) -0.3350(6)
H27 H 1.0772 -0.1547 -0.3606
C34 C 1.2478(14) -0.2547(9) -0.2837(7)
H28 H 1.2330 -0.3302 -0.2712
C35 C 1.3651(13) -0.2493(8) -0.2498(6)
H29 H 1.4313 -0.3229 -0.2155
C36 C 1.3864(9) -0.1375(6) -0.2655(4)
H30 H 1.4662 -0.1350 -0.2418
loop_
_geom_bond_atom_site_label_1
_geom_bond_atom_site_label_2
_geom_bond_site_symmetry_1
_geom_bond_site_symmetry_2
S1 C2 1_555 1_555
O1 C1 1_555 1_555
O2 C6 1_555 1_555
O3 H1 1_555 1_555
N1 C1 1_555 1_555
C1 C2 1_555 1_555
C2 H2 1_555 1_555
C3 S1 1_555 1_555
H3 C3 1_555 1_555
H4 C3 1_555 1_555
C4 O3 1_555 1_555
H5 C4 1_555 1_555
C5 C2 1_555 1_555
C6 N1 1_555 1_555
C7 C5 1_555 1_555
C8 C7 1_555 1_555
H6 C8 1_555 1_555
C9 C8 1_555 1_555
H7 C9 1_555 1_555
C10 C9 1_555 1_555
H8 C10 1_555 1_555
C11 C10 1_555 1_555
H9 C11 1_555 1_555
C12 C7 1_555 1_555
H10 C12 1_555 1_555
C13 N1 1_555 1_555
C14 C13 1_555 1_555
H11 C14 1_555 1_555
C15 C14 1_555 1_555
H12 C15 1_555 1_555
C16 C15 1_555 1_555
H13 C16 1_555 1_555
C17 C16 1_555 1_555
H14 C17 1_555 1_555
C18 C13 1_555 1_555
H15 C18 1_555 1_555
S2 C20 1_555 1_555
O4 C19 1_555 1_555
O5 C24 1_555 1_555
O6 H16 1_555 1_555
N2 C19 1_555 1_555
C19 C20 1_555 1_555
C20 H17 1_555 1_555
C21 C20 1_555 1_555
C22 O6 1_555 1_555
H18 C22 1_555 1_555
C23 S2 1_555 1_555
H19 C23 1_555 1_555
H20 C23 1_555 1_555
C24 N2 1_555 1_555
C25 C21 1_555 1_555
C26 C25 1_555 1_555
H21 C26 1_555 1_555
C27 C26 1_555 1_555
H22 C27 1_555 1_555
C28 C27 1_555 1_555
H23 C28 1_555 1_555
C29 C28 1_555 1_555
H24 C29 1_555 1_555
C30 C25 1_555 1_555
H25 C30 1_555 1_555
C31 N2 1_555 1_555
C32 C31 1_555 1_555
H26 C32 1_555 1_555
C33 C32 1_555 1_555
H27 C33 1_555 1_555
C34 C33 1_555 1_555
H28 C34 1_555 1_555
C35 C34 1_555 1_555
H29 C35 1_555 1_555
C36 C31 1_555 1_555
H30 C36 1_555 1_555
C3 C4 1_555 1_555
C4 C5 1_555 1_555
C5 C6 1_555 1_555
C11 C12 1_555 1_555
C17 C18 1_555 1_555
C21 C22 1_555 1_555
C21 C24 1_555 1_555
C22 C23 1_555 1_555
C29 C30 1_555 1_555
C35 C36 1_555 1_555

#END
