
#######################################################################
#
#                 Cambridge Crystallographic Data Centre
#                                CCDC 
#
#######################################################################
#
# If this CIF has been generated from an entry in the Cambridge 
# Structural Database, then it will include bibliographic, chemical, 
# crystal, experimental, refinement or atomic coordinate data resulting 
# from the CCDC's data processing and validation procedures.
#
#######################################################################

data_PUQYOQ03
_chemical_formula_moiety         'C13 H13 N3 O1 S1'
_chemical_name_systematic        
1-(3-(methylsulfanyl)phenyl)-3-(pyridin-2-yl)urea
_symmetry_cell_setting           monoclinic
_symmetry_space_group_name_H-M   'P 21/n'
_symmetry_Int_Tables_number      14
_space_group_name_Hall           '-P 2yn'
loop_
_symmetry_equiv_pos_site_id
_symmetry_equiv_pos_as_xyz
1 x,y,z
2 1/2-x,1/2+y,1/2-z
3 -x,-y,-z
4 1/2+x,1/2-y,1/2+z
_cell_length_a                   11.5968(4)
_cell_length_b                   5.3174(2)
_cell_length_c                   20.2874(8)
_cell_angle_alpha                90
_cell_angle_beta                 93.45(2)
_cell_angle_gamma                90
_cell_volume                     1248.75
_exptl_crystal_colour            colorless
_exptl_crystal_description       prism
_chemical_melting_point          '153 deg.C'
_cell_formula_units_Z            4
loop_
_atom_site_label
_atom_site_type_symbol
_atom_site_fract_x
_atom_site_fract_y
_atom_site_fract_z
S1 S 0.95477(4) 0.08866(9) 0.09920(2)
O1 O 0.94134(11) 0.3162(3) 0.43439(6)
N1 N 1.01838(12) 0.3918(3) 0.33472(7)
N2 N 1.07125(13) 0.6296(3) 0.42768(7)
N3 N 1.17125(12) 0.7784(3) 0.33739(7)
C1 C 0.8778(2) -0.1679(4) 0.05935(10)
C2 C 0.93042(14) 0.0435(3) 0.18349(8)
C3 C 0.97735(14) 0.2233(3) 0.22725(8)
C4 C 0.96251(13) 0.2062(3) 0.29485(8)
C5 C 0.89770(15) 0.0089(3) 0.31903(8)
C6 C 0.85135(15) -0.1687(3) 0.27499(9)
C7 C 0.86721(14) -0.1562(3) 0.20756(9)
C8 C 1.00600(15) 0.4352(3) 0.39957(8)
C9 C 1.14833(14) 0.7965(3) 0.40094(8)
C10 C 1.19880(15) 0.9813(3) 0.44349(8)
C11 C 1.27568(16) 1.1469(3) 0.41833(9)
C12 C 1.29994(15) 1.1311(3) 0.35208(9)
C13 C 1.24538(15) 0.9465(3) 0.31393(8)
H1 H 1.0634(19) 0.494(4) 0.3160(11)
H2 H 0.888(2) -0.153(4) 0.0107(12)
H3 H 0.911(2) -0.325(5) 0.0748(11)
H4 H 0.797(2) -0.162(5) 0.0675(12)
H5 H 1.0653(19) 0.650(4) 0.4698(11)
H6 H 1.0191(17) 0.366(4) 0.2126(10)
H7 H 0.8874(17) -0.008(4) 0.3646(11)
H8 H 0.8111(17) -0.298(4) 0.2903(10)
H9 H 0.8339(19) -0.286(4) 0.1792(10)
H10 H 1.1764(17) 0.994(4) 0.4884(10)
H11 H 1.310(2) 1.279(5) 0.4459(12)
H12 H 1.353(2) 1.242(4) 0.3335(11)
H13 H 1.2615(17) 0.925(4) 0.2672(10)
loop_
_geom_bond_atom_site_label_1
_geom_bond_atom_site_label_2
_geom_bond_site_symmetry_1
_geom_bond_site_symmetry_2
S1 C1 1_555 1_555
O1 C8 1_555 1_555
N1 C4 1_555 1_555
N2 C8 1_555 1_555
N3 C9 1_555 1_555
C1 H2 1_555 1_555
C2 S1 1_555 1_555
C3 C2 1_555 1_555
C4 C3 1_555 1_555
C5 C4 1_555 1_555
C6 C5 1_555 1_555
C7 C2 1_555 1_555
C8 N1 1_555 1_555
C9 N2 1_555 1_555
C10 C9 1_555 1_555
C11 C10 1_555 1_555
C12 C11 1_555 1_555
C13 N3 1_555 1_555
H1 N1 1_555 1_555
H3 C1 1_555 1_555
H4 C1 1_555 1_555
H5 N2 1_555 1_555
H6 C3 1_555 1_555
H7 C5 1_555 1_555
H8 C6 1_555 1_555
H9 C7 1_555 1_555
H10 C10 1_555 1_555
H11 C11 1_555 1_555
H12 C12 1_555 1_555
H13 C13 1_555 1_555
C6 C7 1_555 1_555
C12 C13 1_555 1_555

#END
