
#######################################################################
#
#                 Cambridge Crystallographic Data Centre
#                                CCDC 
#
#######################################################################
#
# If this CIF has been generated from an entry in the Cambridge 
# Structural Database, then it will include bibliographic, chemical, 
# crystal, experimental, refinement or atomic coordinate data resulting 
# from the CCDC's data processing and validation procedures.
#
#######################################################################

data_PURRAX
_chemical_formula_moiety         'C13 H9 Cl2 N3'
_chemical_name_systematic        
2-(2,6-Dichlorophenyl)-6-methyl[1,2,4]triazolo[1,5-a]pyridine
_symmetry_cell_setting           orthorhombic
_symmetry_space_group_name_H-M   'P b c a'
_symmetry_Int_Tables_number      61
_space_group_name_Hall           '-P 2ac 2ab'
loop_
_symmetry_equiv_pos_site_id
_symmetry_equiv_pos_as_xyz
1 x,y,z
2 1/2-x,-y,1/2+z
3 -x,1/2+y,1/2-z
4 1/2+x,1/2-y,-z
5 -x,-y,-z
6 1/2+x,y,1/2-z
7 x,1/2-y,1/2+z
8 1/2-x,1/2+y,z
_cell_length_a                   12.881(3)
_cell_length_b                   9.3888(19)
_cell_length_c                   20.978(4)
_cell_angle_alpha                90
_cell_angle_beta                 90
_cell_angle_gamma                90
_cell_volume                     2537.02
_exptl_crystal_colour            colorless
_exptl_crystal_description       block
_cell_formula_units_Z            8
loop_
_atom_site_label
_atom_site_type_symbol
_atom_site_fract_x
_atom_site_fract_y
_atom_site_fract_z
Cl1 Cl 1.08718(6) 1.04901(7) 0.56429(3)
Cl2 Cl 0.97605(7) 0.65829(8) 0.74154(4)
N1 N 0.90951(13) 0.7674(2) 0.57628(9)
N2 N 0.85623(14) 0.9261(2) 0.65189(9)
N3 N 0.77439(13) 0.88612(19) 0.61394(8)
C1 C 0.67415(18) 0.9315(2) 0.61951(12)
H1 H 0.6562 0.9973 0.6508
C2 C 0.60082(18) 0.8800(3) 0.57915(12)
C3 C 0.63235(19) 0.7822(3) 0.53133(12)
H2 H 0.5831 0.7471 0.5030
C4 C 0.73305(19) 0.7379(3) 0.52576(13)
H3 H 0.7521 0.6736 0.4941
C5 C 0.80738(16) 0.7913(2) 0.56879(10)
C6 C 0.93331(16) 0.8495(2) 0.62698(10)
C7 C 1.03937(16) 0.8543(2) 0.65464(10)
C8 C 1.11649(19) 0.9425(2) 0.62918(11)
C9 C 1.2162(2) 0.9473(3) 0.65405(15)
H4 H 1.2659 1.0073 0.6364
C10 C 1.2406(2) 0.8618(4) 0.70541(15)
H5 H 1.3073 0.8644 0.7224
C11 C 1.1675(2) 0.7727(4) 0.73182(14)
H6 H 1.1846 0.7149 0.7663
C12 C 1.06788(19) 0.7701(3) 0.70647(12)
C13 C 0.4886(2) 0.9250(3) 0.58539(17)
H7 H 0.4541 0.8643 0.6155
H8 H 0.4550 0.9174 0.5447
H9 H 0.4853 1.0218 0.5999
loop_
_geom_bond_atom_site_label_1
_geom_bond_atom_site_label_2
_geom_bond_site_symmetry_1
_geom_bond_site_symmetry_2
Cl1 C8 1_555 1_555
Cl2 C12 1_555 1_555
N1 C5 1_555 1_555
N2 N3 1_555 1_555
N3 C1 1_555 1_555
C1 H1 1_555 1_555
C2 C1 1_555 1_555
C3 C2 1_555 1_555
H2 C3 1_555 1_555
C4 C3 1_555 1_555
H3 C4 1_555 1_555
C5 N3 1_555 1_555
C6 N1 1_555 1_555
C7 C6 1_555 1_555
C8 C7 1_555 1_555
C9 C8 1_555 1_555
H4 C9 1_555 1_555
C10 C9 1_555 1_555
H5 C10 1_555 1_555
C11 C10 1_555 1_555
H6 C11 1_555 1_555
C12 C7 1_555 1_555
C13 C2 1_555 1_555
H7 C13 1_555 1_555
H8 C13 1_555 1_555
H9 C13 1_555 1_555
N2 C6 1_555 1_555
C4 C5 1_555 1_555
C11 C12 1_555 1_555

#END
