
#######################################################################
#
#                 Cambridge Crystallographic Data Centre
#                                CCDC 
#
#######################################################################
#
# If this CIF has been generated from an entry in the Cambridge 
# Structural Database, then it will include bibliographic, chemical, 
# crystal, experimental, refinement or atomic coordinate data resulting 
# from the CCDC's data processing and validation procedures.
#
#######################################################################

data_PURTIH
_chemical_formula_moiety         'C96 H84 Si6,2(C3 H6 O1)'
_chemical_name_systematic        
'acetone (triphenylene-2,3,6,7,10,11-hexaylhexakis(ethyne-2,1-diyl-4,1-phenyleneethyne-2,1-diyl))hexakis(trimethylsilane)'
_symmetry_cell_setting           monoclinic
_symmetry_space_group_name_H-M   'C 2/c'
_symmetry_Int_Tables_number      15
_space_group_name_Hall           '-C 2yn'
loop_
_symmetry_equiv_pos_site_id
_symmetry_equiv_pos_as_xyz
1 x,y,z
2 -x,y,1/2-z
3 1/2+x,1/2+y,z
4 1/2-x,1/2+y,1/2-z
5 -x,-y,-z
6 x,-y,1/2+z
7 1/2-x,1/2-y,-z
8 1/2+x,1/2-y,1/2+z
_cell_length_a                   28.295(8)
_cell_length_b                   39.941(11)
_cell_length_c                   8.314(2)
_cell_angle_alpha                90
_cell_angle_beta                 100.421(4)
_cell_angle_gamma                90
_cell_volume                     9240.92
_exptl_crystal_colour            orange
_exptl_crystal_description       needle
_cell_formula_units_Z            4
_exptl_crystal_recrystallization_method acetone
loop_
_atom_site_label
_atom_site_type_symbol
_atom_site_fract_x
_atom_site_fract_y
_atom_site_fract_z
Si1 Si 0.20909(11) 0.30700(9) -0.3747(7)
Si2 Si 0.0945(2) -0.32932(9) -0.4228(5)
C1 C 0.0363(3) -0.23567(17) -0.0425(10)
H1 H 0.0160 -0.2544 -0.0363
C2 C 0.0557(3) -0.17891(16) 0.0199(8)
C3 C 0.10348(19) 0.03373(13) 0.0618(7)
C4 C 0.03737(19) -0.05984(12) 0.1632(6)
H2 H 0.0628 -0.0599 0.1028
C5 C 0.08332(19) 0.00403(13) 0.1023(7)
H3 H 0.0983 -0.0164 0.0820
C6 C 0.01988(18) -0.02894(12) 0.2100(6)
C7 C 0.1138(2) 0.12161(16) 0.0161(8)
C8 C 0.0740(3) -0.23908(19) -0.1211(10)
C9 C 0.1550(3) 0.21502(18) -0.1578(11)
C10 C 0.1202(3) 0.21377(17) -0.0683(10)
H4 H 0.1048 0.2337 -0.0425
C11 C 0.04167(19) 0.00275(12) 0.1721(6)
C12 C 0.1022(2) 0.09764(18) 0.0559(7)
C13 C 0.0819(2) 0.06428(13) 0.1016(7)
C14 C 0.0446(2) -0.14542(19) 0.0906(8)
C15 C 0.1623(3) 0.15533(19) -0.1421(11)
H5 H 0.1770 0.1353 -0.1704
C16 C 0.1755(3) 0.1856(2) -0.1989(12)
H6 H 0.1990 0.1862 -0.2672
C17 C 0.0345(2) -0.12193(14) 0.1371(8)
C18 C 0.1071(2) 0.18292(17) -0.0137(9)
H7 H 0.0821 0.1822 0.0487
C19 C 0.0950(3) -0.18239(18) -0.0537(10)
H8 H 0.1158 -0.1639 -0.0579
C20 C 0.0265(3) -0.20581(16) 0.0289(10)
H9 H -0.0001 -0.2040 0.0834
C21 C 0.1282(2) 0.15387(15) -0.0448(8)
C22 C 0.04254(19) 0.06376(13) 0.1744(7)
H10 H 0.0288 0.0844 0.1992
C23 C 0.02138(17) 0.03359(11) 0.2143(6)
C24 C 0.01866(18) -0.08997(12) 0.2025(7)
C25 C 0.0688(5) -0.3172(3) -0.6303(17)
H11 H 0.0416 -0.3022 -0.6288
H12 H 0.0577 -0.3373 -0.6942
H13 H 0.0932 -0.3058 -0.6799
C26 C 0.0828(6) -0.3679(3) -0.3236(19)
H14 H 0.0996 -0.3675 -0.2096
H15 H 0.0944 -0.3868 -0.3806
H16 H 0.0482 -0.3702 -0.3269
C27 C 0.1831(3) 0.2713(2) -0.2827(15)
C28 C 0.0873(4) -0.2941(2) -0.2898(13)
C29 C 0.1691(3) 0.2459(2) -0.2264(13)
C30 C 0.1045(4) -0.2123(2) -0.1212(11)
H17 H 0.1324 -0.2146 -0.1686
C31 C 0.0809(4) -0.2695(2) -0.2080(11)
C32 C 0.1664(3) 0.3397(2) -0.4116(12)
H18 H 0.1668 0.3524 -0.3106
H19 H 0.1343 0.3301 -0.4482
H20 H 0.1744 0.3545 -0.4964
C33 C 0.1640(5) -0.3364(3) -0.4272(17)
H21 H 0.1787 -0.3151 -0.4494
H22 H 0.1674 -0.3525 -0.5133
H23 H 0.1801 -0.3451 -0.3211
C34 C 0.2649(5) 0.3153(4) -0.250(2)
H24 H 0.2893 0.3185 -0.3184
H25 H 0.2741 0.2964 -0.1757
H26 H 0.2625 0.3356 -0.1857
C35 C 0.2214(7) 0.2922(3) -0.586(3)
H27 H 0.2117 0.3099 -0.6676
H28 H 0.2029 0.2719 -0.6195
H29 H 0.2557 0.2876 -0.5782
C36 C 0.1791(2) 0.03591(14) -0.0709(8)
C37 C 0.1465(2) 0.03379(13) -0.0155(7)
C38 C 0.2375(2) 0.01126(16) -0.2256(8)
H30 H 0.2211 -0.0095 -0.2257
C39 C 0.2222(2) 0.03840(15) -0.1463(8)
C40 C 0.2756(3) 0.01363(18) -0.3037(9)
H31 H 0.2856 -0.0056 -0.3560
C41 C 0.2482(2) 0.06773(17) -0.1447(9)
H32 H 0.2392 0.0865 -0.0867
C42 C 0.2858(2) 0.07056(18) -0.2226(10)
H33 H 0.3028 0.0912 -0.2191
C43 C 0.3001(2) 0.0434(2) -0.3086(9)
C44 C 0.3374(3) 0.0463(2) -0.4016(10)
C45 C 0.3676(3) 0.0490(2) -0.4889(12)
Si3 Si 0.41191(11) 0.05149(10) -0.6241(4)
C46 C 0.4367(4) 0.0085(3) -0.6371(13)
H34 H 0.4583 0.0083 -0.7169
H35 H 0.4102 -0.0073 -0.6715
H36 H 0.4545 0.0019 -0.5296
C47 C 0.3792(5) 0.0641(3) -0.8347(14)
H37 H 0.3582 0.0832 -0.8251
H38 H 0.3599 0.0452 -0.8852
H39 H 0.4027 0.0704 -0.9028
C48 C 0.4584(6) 0.0798(5) -0.534(3)
H40 H 0.4440 0.1010 -0.5083
H41 H 0.4803 0.0839 -0.6104
H42 H 0.4763 0.0700 -0.4328
Si1A Si -0.20909(11) 0.30700(9) 0.8747(7)
Si2A Si -0.0945(2) -0.32932(9) 0.9228(5)
C1A C -0.0363(3) -0.23567(17) 0.5425(10)
H1A H -0.0160 -0.2544 0.5363
C2A C -0.0557(3) -0.17891(16) 0.4801(8)
C3A C -0.10348(19) 0.03373(13) 0.4382(7)
C4A C -0.03737(19) -0.05984(12) 0.3368(6)
H2A H -0.0628 -0.0599 0.3972
C5A C -0.08332(19) 0.00403(13) 0.3977(7)
H3A H -0.0983 -0.0164 0.4180
C6A C -0.01988(18) -0.02894(12) 0.2900(6)
C7A C -0.1138(2) 0.12161(16) 0.4839(8)
C8A C -0.0740(3) -0.23908(19) 0.6211(10)
C9A C -0.1550(3) 0.21502(18) 0.6578(11)
C10A C -0.1202(3) 0.21377(17) 0.5683(10)
H4A H -0.1048 0.2337 0.5425
C11A C -0.04167(19) 0.00275(12) 0.3279(6)
C12A C -0.1022(2) 0.09764(18) 0.4441(7)
C13A C -0.0819(2) 0.06428(13) 0.3984(7)
C14A C -0.0446(2) -0.14542(19) 0.4094(8)
C15A C -0.1623(3) 0.15533(19) 0.6421(11)
H5A H -0.1770 0.1353 0.6704
C16A C -0.1755(3) 0.1856(2) 0.6989(12)
H6A H -0.1990 0.1862 0.7672
C17A C -0.0345(2) -0.12193(14) 0.3629(8)
C18A C -0.1071(2) 0.18292(17) 0.5137(9)
H7A H -0.0821 0.1822 0.4513
C19A C -0.0950(3) -0.18239(18) 0.5537(10)
H8A H -0.1158 -0.1639 0.5579
C20A C -0.0265(3) -0.20581(16) 0.4711(10)
H9A H 0.0001 -0.2040 0.4166
C21A C -0.1282(2) 0.15387(15) 0.5448(8)
C22A C -0.04254(19) 0.06376(13) 0.3256(7)
H10A H -0.0288 0.0844 0.3008
C23A C -0.02138(17) 0.03359(11) 0.2857(6)
C24A C -0.01866(18) -0.08997(12) 0.2975(7)
C25A C -0.0688(5) -0.3172(3) 1.1303(17)
H11A H -0.0416 -0.3022 1.1288
H12A H -0.0577 -0.3373 1.1942
H13A H -0.0932 -0.3058 1.1799
C26A C -0.0828(6) -0.3679(3) 0.8236(19)
H14A H -0.0996 -0.3675 0.7096
H15A H -0.0944 -0.3868 0.8806
H16A H -0.0482 -0.3702 0.8269
C27A C -0.1831(3) 0.2713(2) 0.7827(15)
C28A C -0.0873(4) -0.2941(2) 0.7898(13)
C29A C -0.1691(3) 0.2459(2) 0.7264(13)
C30A C -0.1045(4) -0.2123(2) 0.6212(11)
H17A H -0.1324 -0.2146 0.6686
C31A C -0.0809(4) -0.2695(2) 0.7080(11)
C32A C -0.1664(3) 0.3397(2) 0.9116(12)
H18A H -0.1668 0.3524 0.8106
H19A H -0.1343 0.3301 0.9482
H20A H -0.1744 0.3545 0.9964
C33A C -0.1640(5) -0.3364(3) 0.9272(17)
H21A H -0.1787 -0.3151 0.9494
H22A H -0.1674 -0.3525 1.0133
H23A H -0.1801 -0.3451 0.8211
C34A C -0.2649(5) 0.3153(4) 0.750(2)
H24A H -0.2893 0.3185 0.8184
H25A H -0.2741 0.2964 0.6757
H26A H -0.2625 0.3356 0.6857
C35A C -0.2214(7) 0.2922(3) 1.086(3)
H27A H -0.2117 0.3099 1.1676
H28A H -0.2029 0.2719 1.1195
H29A H -0.2557 0.2876 1.0782
C36A C -0.1791(2) 0.03591(14) 0.5709(8)
C37A C -0.1465(2) 0.03379(13) 0.5155(7)
C38A C -0.2375(2) 0.01126(16) 0.7256(8)
H30A H -0.2211 -0.0095 0.7257
C39A C -0.2222(2) 0.03840(15) 0.6463(8)
C40A C -0.2756(3) 0.01363(18) 0.8037(9)
H31A H -0.2856 -0.0056 0.8560
C41A C -0.2482(2) 0.06773(17) 0.6447(9)
H32A H -0.2392 0.0865 0.5867
C42A C -0.2858(2) 0.07056(18) 0.7226(10)
H33A H -0.3028 0.0912 0.7191
C43A C -0.3001(2) 0.0434(2) 0.8086(9)
C44A C -0.3374(3) 0.0463(2) 0.9016(10)
C45A C -0.3676(3) 0.0490(2) 0.9889(12)
Si3A Si -0.41191(11) 0.05149(10) 1.1241(4)
C46A C -0.4367(4) 0.0085(3) 1.1371(13)
H34A H -0.4583 0.0083 1.2169
H35A H -0.4102 -0.0073 1.1715
H36A H -0.4545 0.0019 1.0296
C47A C -0.3792(5) 0.0641(3) 1.3347(14)
H37A H -0.3582 0.0832 1.3251
H38A H -0.3599 0.0452 1.3852
H39A H -0.4027 0.0704 1.4028
C48A C -0.4584(6) 0.0798(5) 1.034(3)
H40A H -0.4440 0.1010 1.0083
H41A H -0.4803 0.0839 1.1104
H42A H -0.4763 0.0700 0.9328
O1 O 0.2118(3) -0.12540(17) 0.0337(10)
C49 C 0.1996(3) -0.0990(2) -0.0417(12)
C50 C 0.2252(3) -0.0878(2) -0.1668(12)
H43 H 0.2437 -0.0676 -0.1291
H44 H 0.2022 -0.0826 -0.2667
H45 H 0.2471 -0.1055 -0.1895
C51 C 0.1594(3) -0.0789(3) -0.0056(12)
H46 H 0.1296 -0.0860 -0.0767
H47 H 0.1652 -0.0552 -0.0251
H48 H 0.1564 -0.0821 0.1090
loop_
_geom_bond_atom_site_label_1
_geom_bond_atom_site_label_2
_geom_bond_site_symmetry_1
_geom_bond_site_symmetry_2
Si1 C27 1_555 1_555
Si2 C25 1_555 1_555
C1 H1 1_555 1_555
C2 C14 1_555 1_555
C3 C5 1_555 1_555
C4 H2 1_555 1_555
C5 H3 1_555 1_555
C6 C4 1_555 1_555
C7 C12 1_555 1_555
C8 C1 1_555 1_555
C9 C10 1_555 1_555
C10 H4 1_555 1_555
C11 C5 1_555 1_555
C12 C13 1_555 1_555
C13 C3 1_555 1_555
C14 C17 1_555 1_555
C15 H5 1_555 1_555
C16 C9 1_555 1_555
H6 C16 1_555 1_555
C17 C24 1_555 1_555
C18 C10 1_555 1_555
H7 C18 1_555 1_555
C19 C2 1_555 1_555
H8 C19 1_555 1_555
C20 C1 1_555 1_555
H9 C20 1_555 1_555
C21 C7 1_555 1_555
C22 C13 1_555 1_555
H10 C22 1_555 1_555
C23 C11 1_555 1_555
C24 C4 1_555 1_555
C25 H11 1_555 1_555
H12 C25 1_555 1_555
H13 C25 1_555 1_555
C26 Si2 1_555 1_555
H14 C26 1_555 1_555
H15 C26 1_555 1_555
H16 C26 1_555 1_555
C27 C29 1_555 1_555
C28 Si2 1_555 1_555
C29 C9 1_555 1_555
C30 C8 1_555 1_555
H17 C30 1_555 1_555
C31 C8 1_555 1_555
C32 Si1 1_555 1_555
H18 C32 1_555 1_555
H19 C32 1_555 1_555
H20 C32 1_555 1_555
C33 Si2 1_555 1_555
H21 C33 1_555 1_555
H22 C33 1_555 1_555
H23 C33 1_555 1_555
C34 Si1 1_555 1_555
H24 C34 1_555 1_555
H25 C34 1_555 1_555
H26 C34 1_555 1_555
C35 Si1 1_555 1_555
H27 C35 1_555 1_555
H28 C35 1_555 1_555
H29 C35 1_555 1_555
C36 C37 1_555 1_555
C37 C3 1_555 1_555
C38 H30 1_555 1_555
C39 C36 1_555 1_555
C40 C38 1_555 1_555
H31 C40 1_555 1_555
C41 C39 1_555 1_555
H32 C41 1_555 1_555
C42 C41 1_555 1_555
H33 C42 1_555 1_555
C43 C40 1_555 1_555
C44 C43 1_555 1_555
C45 C44 1_555 1_555
Si3 C45 1_555 1_555
C46 Si3 1_555 1_555
H34 C46 1_555 1_555
H35 C46 1_555 1_555
H36 C46 1_555 1_555
C47 Si3 1_555 1_555
H37 C47 1_555 1_555
H38 C47 1_555 1_555
H39 C47 1_555 1_555
C48 Si3 1_555 1_555
H40 C48 1_555 1_555
H41 C48 1_555 1_555
H42 C48 1_555 1_555
O1 C49 1_555 1_555
C49 C50 1_555 1_555
C50 H43 1_555 1_555
H44 C50 1_555 1_555
H45 C50 1_555 1_555
C51 C49 1_555 1_555
H46 C51 1_555 1_555
H47 C51 1_555 1_555
H48 C51 1_555 1_555
Si1A C27A 1_555 1_555
Si2A C25A 1_555 1_555
C1A H1A 1_555 1_555
C2A C14A 1_555 1_555
C3A C5A 1_555 1_555
C4A H2A 1_555 1_555
C5A H3A 1_555 1_555
C6A C6 1_555 1_555
C7A C12A 1_555 1_555
C8A C1A 1_555 1_555
C9A C10A 1_555 1_555
C10A H4A 1_555 1_555
C11A C5A 1_555 1_555
C12A C13A 1_555 1_555
C13A C3A 1_555 1_555
C14A C17A 1_555 1_555
C15A H5A 1_555 1_555
C16A C9A 1_555 1_555
H6A C16A 1_555 1_555
C17A C24A 1_555 1_555
C18A C10A 1_555 1_555
H7A C18A 1_555 1_555
C19A C2A 1_555 1_555
H8A C19A 1_555 1_555
C20A C1A 1_555 1_555
H9A C20A 1_555 1_555
C21A C7A 1_555 1_555
C22A C13A 1_555 1_555
H10A C22A 1_555 1_555
C23A C23 1_555 1_555
C24A C24 1_555 1_555
C25A H11A 1_555 1_555
H12A C25A 1_555 1_555
H13A C25A 1_555 1_555
C26A Si2A 1_555 1_555
H14A C26A 1_555 1_555
H15A C26A 1_555 1_555
H16A C26A 1_555 1_555
C27A C29A 1_555 1_555
C28A Si2A 1_555 1_555
C29A C9A 1_555 1_555
C30A C8A 1_555 1_555
H17A C30A 1_555 1_555
C31A C8A 1_555 1_555
C32A Si1A 1_555 1_555
H18A C32A 1_555 1_555
H19A C32A 1_555 1_555
H20A C32A 1_555 1_555
C33A Si2A 1_555 1_555
H21A C33A 1_555 1_555
H22A C33A 1_555 1_555
H23A C33A 1_555 1_555
C34A Si1A 1_555 1_555
H24A C34A 1_555 1_555
H25A C34A 1_555 1_555
H26A C34A 1_555 1_555
C35A Si1A 1_555 1_555
H27A C35A 1_555 1_555
H28A C35A 1_555 1_555
H29A C35A 1_555 1_555
C36A C37A 1_555 1_555
C37A C3A 1_555 1_555
C38A H30A 1_555 1_555
C39A C36A 1_555 1_555
C40A C38A 1_555 1_555
H31A C40A 1_555 1_555
C41A C39A 1_555 1_555
H32A C41A 1_555 1_555
C42A C41A 1_555 1_555
H33A C42A 1_555 1_555
C43A C40A 1_555 1_555
C44A C43A 1_555 1_555
C45A C44A 1_555 1_555
Si3A C45A 1_555 1_555
C46A Si3A 1_555 1_555
H34A C46A 1_555 1_555
H35A C46A 1_555 1_555
H36A C46A 1_555 1_555
C47A Si3A 1_555 1_555
H37A C47A 1_555 1_555
H38A C47A 1_555 1_555
H39A C47A 1_555 1_555
C48A Si3A 1_555 1_555
H40A C48A 1_555 1_555
H41A C48A 1_555 1_555
H42A C48A 1_555 1_555
C2 C20 1_555 1_555
C6 C11 1_555 1_555
C15 C16 1_555 1_555
C15 C21 1_555 1_555
C18 C21 1_555 1_555
C19 C30 1_555 1_555
C22 C23 1_555 1_555
C28 C31 1_555 1_555
C38 C39 1_555 1_555
C42 C43 1_555 1_555
C2A C20A 1_555 1_555
C4A C6A 1_555 1_555
C4A C24A 1_555 1_555
C6A C11A 1_555 1_555
C11A C23A 1_555 1_555
C15A C16A 1_555 1_555
C15A C21A 1_555 1_555
C18A C21A 1_555 1_555
C19A C30A 1_555 1_555
C22A C23A 1_555 1_555
C28A C31A 1_555 1_555
C38A C39A 1_555 1_555
C42A C43A 1_555 1_555

#END
