
#######################################################################
#
#                 Cambridge Crystallographic Data Centre
#                                CCDC 
#
#######################################################################
#
# If this CIF has been generated from an entry in the Cambridge 
# Structural Database, then it will include bibliographic, chemical, 
# crystal, experimental, refinement or atomic coordinate data resulting 
# from the CCDC's data processing and validation procedures.
#
#######################################################################

data_PUSBIP
_chemical_formula_moiety         'C118 H116 Cl8 N16 O19,H2 O1'
_chemical_name_systematic        
'Methyl 7-(((7-(((7-(((7-(((7-(((7-(((7-(((7-((t-butoxycarbonyl)amino)-8-chloro-4-isobutoxyquinolin-2-yl)carbonyl)amino)-8-chloro-4-isobutoxyquinolin-2-yl)carbonyl)amino)-8-chloro-4-isobutoxyquinolin-2-yl)carbonyl)amino)-8-chloro-4-isobutoxyquinolin-2-yl)carbonyl)amino)-8-chloro-4-isobutoxyquinolin-2-yl)carbonyl)amino)-8-chloro-4-isobutoxyquinolin-2-yl)carbonyl)amino)-8-chloro-4-isobutoxyquinolin-2-yl)carbonyl)amino)-8-chloro-4-isobutoxyquinoline-2-carboxylate monohydrate'
_symmetry_cell_setting           triclinic
_symmetry_space_group_name_H-M   'P -1'
_symmetry_Int_Tables_number      2
_space_group_name_Hall           '-P 1'
loop_
_symmetry_equiv_pos_site_id
_symmetry_equiv_pos_as_xyz
1 x,y,z
2 -x,-y,-z
_cell_length_a                   24.1005(6)
_cell_length_b                   24.1347(6)
_cell_length_c                   24.1394(7)
_cell_angle_alpha                98.761(2)
_cell_angle_beta                 105.321(2)
_cell_angle_gamma                105.399(2)
_cell_volume                     12676.5
_cell_formula_units_Z            4
loop_
_atom_site_label
_atom_site_type_symbol
_atom_site_fract_x
_atom_site_fract_y
_atom_site_fract_z
Cl3 Cl 0.6718(4) 0.7169(3) 0.4235(4)
Cl4 Cl 0.9502(4) 0.8876(3) 0.4803(4)
Cl5 Cl 0.9649(4) 0.8789(4) 0.6528(4)
Cl6 Cl 0.6726(4) 0.6288(3) 0.2446(4)
Cl7 Cl 0.6490(4) 0.4498(4) 0.2441(4)
Cl11 Cl 0.7443(4) 0.6226(4) 0.5489(4)
Cl14 Cl 0.8854(4) 0.5757(4) 0.4893(4)
Cl16 Cl 0.9570(4) 0.7118(4) 0.3917(4)
N3 N 0.6403(9) 0.7539(8) 0.5260(10)
H1 H 0.6593 0.7294 0.5194
N6 N 0.6379(8) 0.3349(9) 0.2693(9)
N7 N 0.7119(8) 0.4651(8) 0.1591(9)
H3 H 0.7015 0.4889 0.1816
N8 N 0.9817(8) 0.6030(9) 0.3592(9)
N11 N 0.7100(8) 0.5764(8) 0.1525(9)
C2 C 0.6816(10) 0.7157(9) 0.1920(11)
N12 N 0.9647(8) 0.8878(8) 0.3666(10)
N13 N 0.9095(8) 0.9831(7) 0.5190(9)
H7 H 0.9202 0.9574 0.5367
O3 O 0.8666(8) 1.0565(7) 0.5328(8)
N14 N 0.6409(8) 0.7821(8) 0.3345(10)
N15 N 0.9108(8) 0.9672(8) 0.6275(10)
C3 C 0.8959(13) 0.5098(11) 0.4911(14)
C5 C 0.7062(10) 0.6291(10) 0.1505(11)
C6 C 0.6869(10) 0.6617(10) 0.1914(12)
O5 O 1.0116(8) 0.8354(7) 0.2483(9)
O6 O 0.7537(8) 0.6558(7) 0.0230(9)
N18 N 0.9913(9) 0.7937(9) 0.3233(10)
H8 H 0.9802 0.8005 0.3540
O7 O 0.9170(8) 0.9996(8) 0.2631(10)
O9 O 0.5752(9) 0.3143(8) 0.3405(10)
N22 N 0.6651(8) 0.7439(8) 0.2341(10)
H11 H 0.6678 0.7285 0.2642
C8 C 1.0035(11) 0.7383(11) 0.3103(12)
N23 N 0.7838(9) 0.5495(9) 0.6254(10)
H12 H 0.7955 0.5610 0.5972
C9 C 1.0261(12) 0.6320(12) 0.2835(13)
O11 O 0.5933(9) 0.7906(8) 0.5885(9)
C12 C 0.9977(12) 0.6409(11) 0.3300(13)
O12 O 0.6392(7) 0.8185(7) 0.1982(9)
C13 C 0.7061(10) 0.4140(10) 0.1733(11)
C14 C 0.8666(12) 1.0470(11) 0.6468(14)
H14 H 0.8512 1.0761 0.6344
O14 O 0.7083(9) 0.2153(9) 0.1971(9)
C15 C 0.7440(10) 0.5726(10) 0.0649(12)
H15 H 0.7541 0.5523 0.0351
N25 N 0.6764(10) 0.6903(9) 0.5977(10)
O16 O 0.5595(10) 0.9131(9) 0.3504(11)
C17 C 0.9310(13) 0.4282(12) 0.4580(15)
H16 H 0.9496 0.4110 0.4341
C18 C 1.0417(12) 0.6741(12) 0.2561(13)
H17 H 1.0606 0.6661 0.2283
C19 C 0.6985(11) 0.7444(11) 0.1485(12)
H18 H 0.6967 0.7824 0.1482
O17 O 0.7855(10) 0.4880(9) 0.6814(12)
O18 O 0.7460(8) 0.4585(7) 0.0806(9)
C26 C 1.0328(13) 0.5738(13) 0.2737(15)
C27 C 1.0326(11) 0.7300(11) 0.2644(13)
H22 H 1.0436 0.7581 0.2435
O20 O 0.8506(9) 1.0657(9) 0.7428(10)
O21 O 0.9836(9) 0.4598(9) 0.3703(10)
C30 C 0.9397(10) 0.9355(10) 0.4442(12)
C31 C 0.6268(11) 0.7986(11) 0.3828(13)
C32 C 0.8710(12) 0.4821(11) 0.5335(13)
C37 C 0.7224(11) 0.3189(12) 0.1600(13)
H25 H 0.7350 0.2914 0.1394
C38 C 0.9380(11) 0.9142(11) 0.6956(13)
C39 C 0.6411(11) 0.7685(10) 0.4303(13)
C40 C 0.9584(10) 0.9211(10) 0.2762(12)
H26 H 0.9629 0.9160 0.2388
C41 C 0.7223(11) 0.6614(10) 0.1065(12)
N28 N 0.9437(9) 0.5179(9) 0.4197(10)
H27 H 0.9370 0.5513 0.4204
C44 C 0.5875(11) 0.8594(11) 0.4480(13)
H29 H 0.5698 0.8886 0.4549
C45 C 0.6696(11) 0.3478(11) 0.2303(13)
C49 C 0.9453(11) 0.9336(11) 0.3858(13)
N29 N 0.8448(10) 0.5041(9) 0.5638(11)
C54 C 0.5859(12) 0.8701(11) 0.3361(14)
N30 N 0.9676(10) 0.8583(10) 0.7696(12)
H33 H 0.9739 0.8384 0.7404
C55 C 0.7176(10) 0.7153(10) 0.1067(12)
H34 H 0.7275 0.7340 0.0780
C58 C 0.7315(12) 0.4903(11) 0.1150(13)
C61 C 0.5998(10) 0.8459(10) 0.3889(12)
C63 C 0.7385(13) 0.5814(12) 0.6999(14)
H36 H 0.7504 0.5568 0.7233
O29 O 1.0590(10) 0.5686(9) 0.2294(11)
C64 C 0.9221(12) 0.4896(12) 0.4579(14)
C65 C 0.7099(13) 0.6114(13) 0.7149(15)
H37 H 0.7052 0.6103 0.7518
C66 C 0.8897(11) 1.0070(11) 0.6109(13)
C67 C 0.6940(11) 0.3048(11) 0.2046(12)
C68 C 0.7423(12) 0.6264(12) 0.0695(14)
C71 C 0.9179(11) 0.9799(11) 0.4660(13)
C74 C 0.6961(12) 0.6537(11) 0.6266(13)
C76 C 0.9087(13) 0.4030(13) 0.4966(14)
H41 H 0.9130 0.3661 0.4985
C77 C 0.6015(12) 0.8524(11) 0.2936(14)
H42 H 0.5944 0.8695 0.2615
C78 C 0.9715(13) 0.5072(13) 0.3829(14)
C79 C 0.6576(11) 0.2434(11) 0.2656(13)
H43 H 0.6581 0.2115 0.2829
C84 C 0.6738(11) 0.4031(11) 0.2159(12)
C85 C 0.9040(11) 1.0217(11) 0.4306(13)
H45 H 0.8909 1.0519 0.4460
C86 C 0.9729(10) 0.8858(10) 0.3136(12)
O31 O 0.9707(11) 0.8663(10) 0.8605(12)
C89 C 0.9096(10) 1.0172(10) 0.3770(12)
H47 H 0.8996 1.0438 0.3552
O33 O 0.8642(10) 0.3382(10) 0.5672(11)
O34 O 1.0048(10) 0.7984(10) 0.8152(12)
C90 C 0.9304(11) 0.9735(11) 0.3522(13)
C91 C 0.5485(16) 0.3112(14) 0.3876(17)
H48 H 0.5283 0.3404 0.3897
H49 H 0.5799 0.3186 0.4245
H50 H 0.5197 0.2725 0.3797
C92 C 0.9122(14) 0.9845(12) 0.2025(16)
C96 C 0.7279(11) 0.5475(10) 0.1131(12)
C98 C 0.7294(11) 0.3706(11) 0.1503(12)
H51 H 0.7522 0.3809 0.1256
C99 C 0.7555(13) 0.5825(12) 0.6441(14)
C100 C 0.7285(12) 0.6203(11) 0.6133(13)
C107 C 0.9860(11) 0.6984(11) 0.3405(13)
C108 C 1.0146(13) 0.5363(14) 0.3043(15)
H53 H 1.0178 0.4986 0.2958
C111 C 0.6326(12) 0.2860(12) 0.2825(13)
C112 C 0.7714(13) 0.6216(12) -0.0181(15)
C116 C 0.9407(13) 0.9027(13) 0.7531(16)
C119 C 0.8722(14) 1.0326(14) 0.7032(17)
C120 C 0.850(2) 0.247(2) 0.594(3)
C121 C 1.0693(14) 0.5098(13) 0.2189(15)
C124 C 0.9370(12) 0.9639(11) 0.2974(14)
C125 C 0.6257(14) 0.7195(13) 0.6666(15)
H61 H 0.6021 0.7411 0.6779
C126 C 0.8299(15) 0.4216(15) 0.6080(16)
H62 H 0.8149 0.4028 0.6344
C127 C 1.111(2) 0.520(2) 0.168(2)
O38 O 0.6304(13) 0.6755(10) 0.7482(13)
C130 C 0.8952(13) 0.9757(12) 0.7753(16)
H63 H 0.8810 0.9960 0.8015
C132 C 0.6832(13) 0.2533(13) 0.2178(14)
C134 C 0.8283(19) 0.3042(18) 0.602(2)
C136 C 0.8071(16) 0.6319(14) -0.1144(17)
C139 C 1.0601(19) 0.7371(17) 0.847(2)
H67 H 1.0277 0.7041 0.8194
H68 H 1.0811 0.7238 0.8794
H69 H 1.0879 0.7544 0.8276
C140 C 0.8207(19) 0.2136(18) 0.525(2)
C141 C 1.0340(19) 0.7830(17) 0.870(2)
C142 C 0.9772(19) 0.7488(18) 0.891(2)
H70 H 0.9478 0.7181 0.8584
H71 H 0.9585 0.7766 0.9041
H72 H 0.9920 0.7317 0.9231
C143 C 0.816(3) 0.203(3) 0.621(3)
C145 C 0.9199(12) 0.9322(12) 0.7911(15)
H73 H 0.9222 0.9235 0.8276
C148 C 0.828(2) 1.148(2) 0.786(2)
C152 C 0.8867(11) 1.0196(11) 0.5513(13)
C154 C 0.6270(12) 0.7859(12) 0.4843(14)
C155 C 0.8807(14) 0.4233(13) 0.5336(16)
C161 C 0.6276(11) 0.8107(10) 0.2906(13)
C162 C 0.9957(11) 0.8357(11) 0.2918(14)
C164 C 0.6460(12) 0.7891(13) 0.2394(15)
C166 C 0.9908(13) 0.5503(13) 0.3489(15)
C168 C 0.6244(12) 0.7587(12) 0.5797(14)
C169 C 0.6477(12) 0.7191(11) 0.6134(13)
C170 C 0.8012(15) 0.5012(15) 0.6366(18)
C174 C 0.6013(12) 0.8307(12) 0.4890(14)
H76 H 0.5932 0.8414 0.5240
C175 C 0.6834(13) 0.6466(13) 0.6864(15)
C176 C 0.9144(11) 0.9566(11) 0.6829(14)
C178 C 0.6477(15) 0.6819(14) 0.6937(16)
C179 C 0.8255(13) 0.4775(13) 0.6034(15)
C180 C 0.8538(15) 0.3981(14) 0.5769(17)
C182 C 0.8913(13) 0.9892(13) 0.7185(16)
C183 C 0.6989(17) 0.1557(17) 0.2103(19)
C189 C 0.9855(15) 0.8402(16) 0.8212(19)
O39 O 0.6042(10) 0.2332(10) 0.3538(11)
C193 C 0.6012(12) 0.2763(13) 0.3333(13)
C196 C 0.7785(17) 0.6597(16) -0.0663(19)
C197 C 0.5707(18) 0.6857(16) 0.7470(18)
C199 C 0.877(2) 1.0207(18) 0.172(2)
C200 C 0.7059(19) 0.1154(17) 0.144(2)
C202 C 0.807(2) 0.9932(18) 0.177(2)
C204 C 0.531(2) 0.9282(19) 0.292(2)
C206 C 0.707(2) 0.6623(17) -0.102(2)
C207 C 0.8373(18) 1.1183(18) 0.729(2)
C211 C 0.495(3) 0.966(3) 0.317(3)
C212 C 0.879(2) 1.005(2) 0.108(3)
C214 C 1.089(2) 0.835(2) 0.912(2)
H85 H 1.0757 0.8652 0.9286
H86 H 1.1149 0.8503 0.8896
H87 H 1.1116 0.8208 0.9427
C215 C 0.782(2) 0.1467(19) 0.177(2)
C216 C 0.493(4) 0.590(3) 0.711(4)
C217 C 0.815(3) 1.207(3) 0.779(3)
C222 C 1.118(2) 0.459(3) 0.161(3)
C226 C 0.541(3) 0.621(3) 0.781(4)
C227 C 0.434(3) 0.907(2) 0.333(3)
C230 C 1.047(3) 0.508(3) 0.114(3)
O37 O 0.757(8) 0.509(8) 0.494(10)
O40 O 0.464(4) 0.979(3) 0.015(4)
O41 O 0.668(3) 0.991(3) 0.597(3)
O42 O 0.689(2) 0.954(2) 0.684(3)
O43 O 0.833(2) 0.383(2) 0.019(2)
O44 O 0.813(2) 0.303(2) 0.043(3)
O45 O 0.006(3) 0.962(3) 0.013(4)
O46 O 0.826(3) 0.450(3) 0.981(3)
O48 O 0.698(4) 0.996(4) 0.778(5)
O49 O 0.741(5) 0.091(5) 0.958(5)
Cl1 Cl 0.5495(4) 0.5193(3) 0.1118(4)
Cl2 Cl 0.8292(4) 0.5771(3) 0.2829(4)
Cl8 Cl 0.7564(4) 0.4518(4) 0.3779(4)
Cl9 Cl 0.8280(4) 0.7557(4) 0.3711(4)
Cl10 Cl 0.5437(4) 0.6089(4) 0.2888(4)
Cl12 Cl 0.8507(4) 0.7560(4) 0.5501(4)
Cl13 Cl 0.5355(4) 0.3470(4) 0.1209(4)
Cl15 Cl 0.6149(4) 0.5107(4) 0.4242(5)
N1 N 0.7901(8) 0.8472(7) 0.4233(9)
N2 N 0.5346(8) 0.6331(8) 0.1118(9)
O1 O 0.6342(8) 0.4685(7) -0.0565(9)
N4 N 0.5183(8) 0.6408(8) 0.3961(11)
N5 N 0.5901(8) 0.4800(9) 0.0138(10)
H2 H 0.5767 0.4605 0.0371
N9 N 0.8609(9) 0.4757(9) 0.2458(10)
H4 H 0.8422 0.4835 0.2702
N10 N 0.7888(8) 0.8407(8) 0.5318(10)
H5 H 0.7988 0.8190 0.5071
O2 O 0.4891(7) 0.7539(7) 0.1645(8)
C1 C 0.7541(9) 0.9335(9) 0.4262(11)
H6 H 0.7414 0.9613 0.4462
N16 N 0.5894(9) 0.3734(9) 0.0343(10)
N17 N 0.8611(8) 0.7300(8) 0.6656(11)
C4 C 0.7951(10) 0.8485(10) 0.3718(13)
O4 O 0.7530(7) 0.9196(7) 0.5419(8)
C7 C 0.4738(10) 0.7136(10) 0.3687(12)
N19 N 0.8593(9) 0.6655(9) 0.2184(10)
N20 N 0.8355(8) 0.7655(8) 0.2579(9)
H9 H 0.8332 0.7352 0.2729
O8 O 0.7446(7) 0.9748(7) 0.3455(8)
N21 N 0.7182(10) 0.3745(9) 0.4497(11)
H10 H 0.7077 0.4034 0.4385
C10 C 0.4662(11) 0.7336(10) 0.2703(13)
H13 H 0.4538 0.7533 0.2414
O10 O 0.8613(8) 0.8017(8) 0.1803(9)
C11 C 0.8194(10) 0.8075(10) 0.2842(12)
O13 O 0.7891(9) 0.8019(8) 0.7853(11)
N24 N 0.6550(8) 0.4360(8) 0.4962(9)
O15 O 0.9235(9) 0.6581(8) 0.6855(9)
C16 C 0.5264(10) 0.6874(10) 0.1142(11)
C20 C 0.4574(11) 0.7447(10) 0.3252(12)
H19 H 0.4400 0.7738 0.3335
C21 C 0.8252(11) 0.7854(10) 0.5959(13)
C22 C 0.8063(11) 0.7953(10) 0.6966(13)
O19 O 0.5172(9) 0.6294(8) 0.5420(10)
C23 C 0.6327(11) 0.3556(11) -0.0450(13)
H20 H 0.6466 0.3686 -0.0747
C24 C 0.5861(12) 0.3214(12) 0.0399(13)
C25 C 0.7940(10) 0.8269(9) 0.5864(12)
N26 N 0.5565(9) 0.5812(9) 0.4822(10)
H21 H 0.5618 0.5797 0.4482
C28 C 0.8708(11) 0.6151(11) 0.2012(12)
C29 C 0.5544(10) 0.6149(10) 0.0696(12)
O22 O 0.5819(8) 0.7388(8) -0.0007(9)
C33 C 0.5610(10) 0.5566(10) 0.0613(12)
O23 O 0.9066(10) 0.4113(8) 0.2092(10)
N27 N 0.5089(8) 0.6777(8) 0.2073(10)
H23 H 0.5212 0.6478 0.2006
C34 C 0.8113(11) 0.8086(10) 0.3391(12)
C35 C 0.6273(9) 0.4699(9) 0.5217(12)
C36 C 0.5425(11) 0.7237(11) 0.0794(12)
H24 H 0.5387 0.7613 0.0842
C42 C 0.5914(12) 0.5025(12) 0.5978(14)
H28 H 0.5856 0.4976 0.6336
C43 C 0.5134(10) 0.6587(10) 0.3031(12)
O24 O 0.4418(8) 0.7678(8) 0.4325(10)
O25 O 0.6511(9) 0.2589(9) -0.0639(11)
C46 C 0.8581(11) 0.5687(11) 0.2331(12)
C47 C 0.4960(10) 0.6890(9) 0.2606(12)
C48 C 0.8992(12) 0.5144(13) 0.1682(14)
H30 H 0.9030 0.4779 0.1543
C50 C 0.7837(11) 0.8915(10) 0.2846(13)
H31 H 0.7735 0.9197 0.2654
C51 C 0.8999(12) 0.6099(12) 0.1565(14)
C52 C 0.5835(10) 0.5332(10) 0.0211(12)
C53 C 0.5682(13) 0.5433(13) 0.5749(14)
H32 H 0.5501 0.5669 0.5930
C56 C 0.8289(12) 0.7703(11) 0.6495(14)
C57 C 0.5108(12) 0.6545(12) 0.4519(14)
C59 C 0.4661(11) 0.7261(11) 0.4229(13)
C60 C 0.5827(12) 0.2110(12) 0.0671(14)
H35 H 0.5827 0.1745 0.0752
O26 O 0.7124(10) 0.3174(11) 0.5108(11)
O27 O 0.9412(10) 0.6494(9) 0.0859(11)
O28 O 0.6362(11) 0.4309(10) 0.6626(12)
C62 C 0.6111(12) 0.3891(11) -0.0071(13)
N31 N 0.8248(11) 0.4038(10) 0.3109(12)
C69 C 0.5704(11) 0.6471(10) 0.0282(12)
C70 C 0.4844(12) 0.6954(11) 0.4641(14)
H38 H 0.4785 0.7031 0.5006
C72 C 0.8754(11) 0.5188(11) 0.2140(13)
C73 C 0.7776(11) 0.8356(11) 0.6807(14)
H39 H 0.7623 0.8532 0.7076
C75 C 0.8423(11) 0.7361(11) 0.7540(13)
H40 H 0.8436 0.7195 0.7864
O30 O 0.8949(10) 0.6456(10) 0.7664(12)
C80 C 0.8156(16) 0.3135(15) 0.3488(17)
C81 C 0.8997(11) 0.7074(12) 0.1461(13)
H44 H 0.9088 0.7394 0.1293
C82 C 0.6028(12) 0.5092(11) 0.4879(13)
C83 C 0.7777(10) 0.8950(9) 0.3388(12)
C87 C 0.8670(11) 0.7157(10) 0.7157(14)
C88 C 0.5908(11) 0.6223(11) -0.0176(13)
H46 H 0.6013 0.6449 -0.0435
O32 O 0.8733(13) 0.2524(12) 0.3268(13)
C93 C 0.5626(12) 0.3011(12) 0.0858(14)
C94 C 0.5879(13) 0.8007(12) 0.0145(14)
C95 C 0.6076(13) 0.2816(13) 0.0084(15)
C97 C 0.6943(16) 1.1095(15) 0.3688(17)
C101 C 0.7474(14) 0.3556(13) 0.4172(15)
C102 C 0.4688(19) 0.1287(17) 0.220(2)
C103 C 0.5777(12) 0.5435(12) 0.5107(13)
O35 O 0.4947(10) 0.1845(9) 0.2016(11)
C104 C 0.6671(17) 0.2747(17) -0.116(2)
C105 C 0.5950(12) 0.5680(12) -0.0240(14)
H52 H 0.6049 0.5516 -0.0560
C106 C 0.6301(15) 0.2994(15) -0.0319(17)
C109 C 0.9516(17) 0.6105(16) 0.6875(19)
H54 H 0.9693 0.6075 0.6563
H55 H 0.9212 0.5735 0.6825
H56 H 0.9827 0.6195 0.7250
C110 C 0.8745(15) 0.3350(14) 0.2846(16)
H57 H 0.9021 0.3256 0.2673
N32 N 0.5332(10) 0.2317(10) 0.1429(11)
H58 H 0.5272 0.2610 0.1627
C113 C 0.8023(10) 0.8534(10) 0.2550(12)
H59 H 0.8046 0.8552 0.2175
C114 C 0.7294(12) 1.0168(12) 0.3763(14)
C115 C 0.6265(19) 0.8289(17) -0.0233(19)
C117 C 0.7893(15) 0.2843(14) 0.3884(16)
H60 H 0.7966 0.2488 0.3921
C118 C 0.6981(16) 0.3625(16) 0.4976(18)
C122 C 0.5597(13) 0.2461(13) 0.1005(15)
O36 O 0.5315(10) 0.1388(10) 0.1359(11)
C123 C 0.5651(12) 0.7018(12) 0.0359(14)
C128 C 0.8536(13) 0.3862(13) 0.2792(15)
C129 C 0.399(2) 0.834(2) 0.485(3)
C131 C 0.8551(13) 0.7637(13) 0.2110(15)
C133 C 0.5218(18) 0.1081(16) 0.2487(19)
H64 H 0.5345 0.0896 0.2183
H65 H 0.5093 0.0802 0.2709
H66 H 0.5550 0.1415 0.2746
C135 C 0.8500(17) 0.3049(16) 0.3161(19)
C137 C 0.4307(16) 0.7843(16) 0.4837(19)
C138 C 0.6427(11) 0.4259(11) 0.6023(14)
C144 C 0.6944(18) 0.8267(16) 0.0036(18)
C146 C 0.8737(14) 0.4191(13) 0.2427(15)
C147 C 0.9654(19) 0.7020(18) 0.067(2)
C149 C 0.625(2) 0.899(2) -0.001(2)
C150 C 0.6206(11) 0.4689(11) 0.5779(12)
C151 C 0.5017(11) 0.6697(10) 0.3569(13)
C153 C 0.6122(11) 0.4488(10) -0.0204(12)
C156 C 0.7583(11) 0.9312(11) 0.3729(13)
C157 C 0.7686(10) 0.8868(10) 0.5124(12)
C158 C 0.5036(12) 0.7099(13) 0.1649(14)
C159 C 0.9171(13) 0.5566(12) 0.1420(14)
H74 H 0.9391 0.5531 0.1161
C160 C 0.9111(13) 0.6601(13) 0.1301(14)
C163 C 0.8723(12) 0.7081(12) 0.1908(13)
C165 C 0.7724(10) 0.8858(10) 0.4502(12)
C167 C 0.8971(13) 0.6655(12) 0.7220(17)
C171 C 0.5299(12) 0.6188(12) 0.4946(15)
C172 C 0.7704(11) 0.8511(10) 0.6283(13)
H75 H 0.7497 0.8779 0.6198
C173 C 0.8162(12) 0.7774(12) 0.7504(15)
C177 C 0.6725(19) 0.3975(17) 0.699(2)
C181 C 0.7604(13) 0.2986(13) 0.4165(14)
H77 H 0.7452 0.2738 0.4388
C184 C 0.6057(13) 0.2268(13) 0.0224(15)
H78 H 0.6199 0.2009 0.0017
C185 C 0.7181(15) 1.0648(14) 0.3362(16)
C186 C 0.6756(11) 0.3973(11) 0.5263(13)
C187 C 0.5142(14) 0.1779(14) 0.1599(16)
C188 C 0.4441(17) 0.1590(16) 0.2632(19)
H79 H 0.4102 0.1691 0.2415
H80 H 0.4753 0.1943 0.2884
H81 H 0.4312 0.1328 0.2868
C190 C 0.697(3) 0.375(3) 0.803(4)
C191 C 0.8051(15) 0.7895(14) 0.8439(19)
C192 C 0.8041(14) 0.3729(14) 0.3435(16)
C194 C 0.930(2) 0.2476(17) 0.320(2)
C195 C 0.7722(13) 0.3870(12) 0.3782(15)
C198 C 0.681(2) 0.475(2) 0.787(2)
C201 C 0.664(3) 0.410(4) 0.775(4)
C203 C 0.7864(18) 1.1003(16) 0.3425(19)
C205 C 0.684(3) 0.230(3) -0.157(3)
C208 C 0.777(2) 0.824(2) 0.882(2)
C209 C 0.978(3) 0.260(4) 0.382(3)
C210 C 0.421(2) 0.087(2) 0.169(2)
H82 H 0.4385 0.0688 0.1430
H83 H 0.3959 0.1071 0.1482
H84 H 0.3958 0.0564 0.1819
C213 C 1.068(2) 0.671(2) 0.095(3)
C218 C 0.6717(12) 0.3907(12) 0.5820(14)
C219 C 1.026(3) 0.694(3) 0.049(4)
C220 C 0.807(2) 0.885(2) 0.895(2)
C221 C 0.944(4) 0.205(4) 0.401(4)
C223 C 0.381(3) 0.855(3) 0.540(4)
C224 C 0.706(2) 0.821(2) 0.846(2)
C225 C 0.345(3) 0.812(3) 0.435(3)
C228 C 0.635(4) 0.172(4) -0.162(4)
C229 C 0.992(4) 0.642(3) -0.005(4)
O47? O 0.780(5) 0.053(4) 0.928(5)
loop_
_geom_bond_atom_site_label_1
_geom_bond_atom_site_label_2
_geom_bond_site_symmetry_1
_geom_bond_site_symmetry_2
Cl1 C33 1_555 1_555
Cl2 C46 1_555 1_555
Cl3 C39 1_555 1_555
Cl4 C30 1_555 1_555
Cl5 C38 1_555 1_555
Cl6 C6 1_555 1_555
Cl7 C84 1_555 1_555
Cl8 C195 1_555 1_555
Cl9 C34 1_555 1_555
Cl10 C43 1_555 1_555
Cl11 C100 1_555 1_555
Cl12 C21 1_555 1_555
Cl13 C93 1_555 1_555
Cl14 C3 1_555 1_555
Cl15 C82 1_555 1_555
Cl16 C107 1_555 1_555
N1 C4 1_555 1_555
N2 C16 1_555 1_555
N3 H1 1_555 1_555
O1 C153 1_555 1_555
N4 C57 1_555 1_555
N5 H2 1_555 1_555
N6 C45 1_555 1_555
N7 H3 1_555 1_555
N8 C12 1_555 1_555
N9 H4 1_555 1_555
N10 H5 1_555 1_555
O2 C158 1_555 1_555
C1 H6 1_555 1_555
N11 C5 1_555 1_555
C2 C6 1_555 1_555
N12 C49 1_555 1_555
N13 H7 1_555 1_555
O3 C152 1_555 1_555
N14 C31 1_555 1_555
N15 C66 1_555 1_555
N16 C24 1_555 1_555
C3 C32 1_555 1_555
N17 C56 1_555 1_555
C4 C34 1_555 1_555
C5 C6 1_555 1_555
O4 C157 1_555 1_555
C7 C20 1_555 1_555
O5 C162 1_555 1_555
O6 C68 1_555 1_555
N18 H8 1_555 1_555
N19 C28 1_555 1_555
O7 C92 1_555 1_555
N20 H9 1_555 1_555
O8 C114 1_555 1_555
N21 H10 1_555 1_555
O9 C91 1_555 1_555
N22 C2 1_555 1_555
H11 N22 1_555 1_555
C8 N18 1_555 1_555
N23 H12 1_555 1_555
C9 C12 1_555 1_555
C10 H13 1_555 1_555
O10 C131 1_555 1_555
C11 N20 1_555 1_555
O11 C168 1_555 1_555
C12 C107 1_555 1_555
O12 C164 1_555 1_555
C13 N7 1_555 1_555
O13 C173 1_555 1_555
C14 H14 1_555 1_555
N24 C35 1_555 1_555
O14 C132 1_555 1_555
C15 H15 1_555 1_555
O15 C109 1_555 1_555
N25 C74 1_555 1_555
C16 C36 1_555 1_555
O16 C54 1_555 1_555
C17 H16 1_555 1_555
C18 C9 1_555 1_555
H17 C18 1_555 1_555
C19 C2 1_555 1_555
H18 C19 1_555 1_555
O17 C170 1_555 1_555
C20 C10 1_555 1_555
H19 C20 1_555 1_555
C21 C25 1_555 1_555
O18 C58 1_555 1_555
C22 C56 1_555 1_555
O19 C171 1_555 1_555
C23 H20 1_555 1_555
C24 C93 1_555 1_555
C25 N10 1_555 1_555
C26 C9 1_555 1_555
N26 H21 1_555 1_555
C27 C8 1_555 1_555
H22 C27 1_555 1_555
O20 C119 1_555 1_555
O21 C78 1_555 1_555
C28 C46 1_555 1_555
C29 N2 1_555 1_555
O22 C94 1_555 1_555
C30 C49 1_555 1_555
C31 C39 1_555 1_555
C32 N29 1_555 1_555
C33 C29 1_555 1_555
O23 C146 1_555 1_555
N27 H23 1_555 1_555
C34 C11 1_555 1_555
C35 C82 1_555 1_555
C36 H24 1_555 1_555
C37 H25 1_555 1_555
C38 C116 1_555 1_555
C39 C154 1_555 1_555
C40 H26 1_555 1_555
C41 C5 1_555 1_555
N28 H27 1_555 1_555
C42 H28 1_555 1_555
C43 C47 1_555 1_555
O24 C59 1_555 1_555
O25 C104 1_555 1_555
C44 H29 1_555 1_555
C45 C67 1_555 1_555
C46 C72 1_555 1_555
C47 C10 1_555 1_555
C48 H30 1_555 1_555
C49 C90 1_555 1_555
N29 C179 1_555 1_555
C50 H31 1_555 1_555
C51 C28 1_555 1_555
C52 N5 1_555 1_555
C53 C42 1_555 1_555
H32 C53 1_555 1_555
C54 C61 1_555 1_555
N30 H33 1_555 1_555
C55 C19 1_555 1_555
H34 C55 1_555 1_555
C56 C21 1_555 1_555
C57 C70 1_555 1_555
C58 N7 1_555 1_555
C59 C7 1_555 1_555
C60 H35 1_555 1_555
O26 C118 1_555 1_555
O27 C147 1_555 1_555
C61 C31 1_555 1_555
O28 C138 1_555 1_555
C62 N16 1_555 1_555
C63 H36 1_555 1_555
O29 C26 1_555 1_555
C64 C3 1_555 1_555
N31 C128 1_555 1_555
C65 C63 1_555 1_555
H37 C65 1_555 1_555
C66 C14 1_555 1_555
C67 C37 1_555 1_555
C68 C15 1_555 1_555
C69 C29 1_555 1_555
C70 C59 1_555 1_555
H38 C70 1_555 1_555
C71 N13 1_555 1_555
C72 N9 1_555 1_555
C73 C22 1_555 1_555
H39 C73 1_555 1_555
C74 C100 1_555 1_555
C75 H40 1_555 1_555
C76 C17 1_555 1_555
H41 C76 1_555 1_555
C77 C54 1_555 1_555
H42 C77 1_555 1_555
C78 N28 1_555 1_555
C79 H43 1_555 1_555
O30 C167 1_555 1_555
C80 C117 1_555 1_555
C81 H44 1_555 1_555
C82 C103 1_555 1_555
C83 C4 1_555 1_555
C84 C13 1_555 1_555
C85 C71 1_555 1_555
H45 C85 1_555 1_555
C86 N12 1_555 1_555
O31 C189 1_555 1_555
C87 N17 1_555 1_555
C88 C69 1_555 1_555
H46 C88 1_555 1_555
C89 C85 1_555 1_555
H47 C89 1_555 1_555
O32 C135 1_555 1_555
O33 C134 1_555 1_555
O34 C141 1_555 1_555
C90 C89 1_555 1_555
C91 H48 1_555 1_555
H49 C91 1_555 1_555
H50 C91 1_555 1_555
C92 C199 1_555 1_555
C93 C122 1_555 1_555
C94 C115 1_555 1_555
C95 C24 1_555 1_555
C96 N11 1_555 1_555
C97 C185 1_555 1_555
C98 C13 1_555 1_555
H51 C98 1_555 1_555
C99 N23 1_555 1_555
C100 C99 1_555 1_555
C101 N21 1_555 1_555
C102 O35 1_555 1_555
C103 N26 1_555 1_555
O35 C187 1_555 1_555
C104 C205 1_555 1_555
C105 C52 1_555 1_555
H52 C105 1_555 1_555
C106 C23 1_555 1_555
C107 C8 1_555 1_555
C108 C26 1_555 1_555
H53 C108 1_555 1_555
C109 H54 1_555 1_555
H55 C109 1_555 1_555
H56 C109 1_555 1_555
C110 H57 1_555 1_555
C111 N6 1_555 1_555
C112 O6 1_555 1_555
N32 H58 1_555 1_555
C113 C11 1_555 1_555
H59 C113 1_555 1_555
C114 C185 1_555 1_555
C115 C144 1_555 1_555
C116 N30 1_555 1_555
C117 H60 1_555 1_555
C118 N21 1_555 1_555
C119 C14 1_555 1_555
C120 C134 1_555 1_555
C121 O29 1_555 1_555
C122 C60 1_555 1_555
O36 C187 1_555 1_555
C123 O22 1_555 1_555
C124 O7 1_555 1_555
C125 H61 1_555 1_555
C126 H62 1_555 1_555
C127 C121 1_555 1_555
C128 C110 1_555 1_555
C129 C137 1_555 1_555
O38 C178 1_555 1_555
C130 H63 1_555 1_555
C131 N20 1_555 1_555
C132 C67 1_555 1_555
C133 C102 1_555 1_555
H64 C133 1_555 1_555
H65 C133 1_555 1_555
H66 C133 1_555 1_555
C135 C80 1_555 1_555
C136 C196 1_555 1_555
C137 O24 1_555 1_555
C138 C150 1_555 1_555
C139 H67 1_555 1_555
H68 C139 1_555 1_555
H69 C139 1_555 1_555
C140 C120 1_555 1_555
C141 C139 1_555 1_555
C142 C141 1_555 1_555
H70 C142 1_555 1_555
H71 C142 1_555 1_555
H72 C142 1_555 1_555
C143 C120 1_555 1_555
C145 C116 1_555 1_555
H73 C145 1_555 1_555
C146 N9 1_555 1_555
C147 C219 1_555 1_555
C148 C207 1_555 1_555
C149 C115 1_555 1_555
C150 C35 1_555 1_555
C151 N4 1_555 1_555
C152 N13 1_555 1_555
C153 N5 1_555 1_555
C154 N3 1_555 1_555
C155 C32 1_555 1_555
C156 C1 1_555 1_555
C157 N10 1_555 1_555
C158 C16 1_555 1_555
C159 C48 1_555 1_555
H74 C159 1_555 1_555
C160 C51 1_555 1_555
C161 N14 1_555 1_555
C162 N18 1_555 1_555
C163 N19 1_555 1_555
C164 N22 1_555 1_555
C165 N1 1_555 1_555
C166 N8 1_555 1_555
C167 O15 1_555 1_555
C168 N3 1_555 1_555
C169 N25 1_555 1_555
C170 N23 1_555 1_555
C171 N26 1_555 1_555
C172 C25 1_555 1_555
H75 C172 1_555 1_555
C173 C22 1_555 1_555
C174 C44 1_555 1_555
H76 C174 1_555 1_555
C175 C65 1_555 1_555
C176 N15 1_555 1_555
C177 O28 1_555 1_555
C178 C125 1_555 1_555
C179 C126 1_555 1_555
C180 O33 1_555 1_555
C181 C101 1_555 1_555
H77 C181 1_555 1_555
C182 C119 1_555 1_555
C183 O14 1_555 1_555
C184 C60 1_555 1_555
H78 C184 1_555 1_555
C185 C203 1_555 1_555
C186 N24 1_555 1_555
C187 N32 1_555 1_555
C188 C102 1_555 1_555
H79 C188 1_555 1_555
H80 C188 1_555 1_555
H81 C188 1_555 1_555
C189 N30 1_555 1_555
C190 C201 1_555 1_555
C191 O13 1_555 1_555
C192 N31 1_555 1_555
O39 C193 1_555 1_555
C193 O9 1_555 1_555
C194 O32 1_555 1_555
C195 C101 1_555 1_555
C196 C112 1_555 1_555
C197 O38 1_555 1_555
C198 C201 1_555 1_555
C199 C202 1_555 1_555
C200 C183 1_555 1_555
C201 C177 1_555 1_555
C204 O16 1_555 1_555
C205 C228 1_555 1_555
C206 C196 1_555 1_555
C207 O20 1_555 1_555
C208 C191 1_555 1_555
C209 C194 1_555 1_555
C210 C102 1_555 1_555
H82 C210 1_555 1_555
H83 C210 1_555 1_555
H84 C210 1_555 1_555
C211 C204 1_555 1_555
C212 C199 1_555 1_555
C213 C219 1_555 1_555
C214 C141 1_555 1_555
H85 C214 1_555 1_555
H86 C214 1_555 1_555
H87 C214 1_555 1_555
C215 C200 1_555 1_555
C216 C226 1_555 1_555
C217 C148 1_555 1_555
C218 C138 1_555 1_555
C219 C229 1_555 1_555
C220 C208 1_555 1_555
C221 C209 1_555 1_555
C222 C127 1_555 1_555
C223 C129 1_555 1_555
C224 C208 1_555 1_555
C225 C129 1_555 1_555
C226 C197 1_555 1_555
C227 C211 1_555 1_555
C230 C127 1_555 1_555
C1 C165 1_555 1_555
C7 C151 1_555 1_555
O8 C156 1_555 1_555
C15 C96 1_555 1_555
C17 C64 1_555 1_555
C18 C27 1_555 1_555
C23 C62 1_555 1_555
C30 C71 1_555 1_555
C33 C52 1_555 1_555
N27 C47 1_555 1_555
N27 C158 1_555 1_555
C36 C123 1_555 1_555
C37 C98 1_555 1_555
C38 C176 1_555 1_555
C40 C86 1_555 1_555
C40 C124 1_555 1_555
C41 C55 1_555 1_555
C41 C68 1_555 1_555
N28 C64 1_555 1_555
C42 C150 1_555 1_555
C43 C151 1_555 1_555
O25 C106 1_555 1_555
C44 C61 1_555 1_555
C45 C84 1_555 1_555
C48 C72 1_555 1_555
C50 C83 1_555 1_555
C50 C113 1_555 1_555
C51 C159 1_555 1_555
C53 C103 1_555 1_555
C57 C171 1_555 1_555
C58 C96 1_555 1_555
O27 C160 1_555 1_555
C62 C153 1_555 1_555
C63 C99 1_555 1_555
C66 C152 1_555 1_555
C69 C123 1_555 1_555
C73 C172 1_555 1_555
C74 C175 1_555 1_555
C75 C87 1_555 1_555
C75 C173 1_555 1_555
C76 C155 1_555 1_555
C77 C161 1_555 1_555
C78 C166 1_555 1_555
C79 C111 1_555 1_555
C79 C132 1_555 1_555
C80 C192 1_555 1_555
C81 C160 1_555 1_555
C81 C163 1_555 1_555
C83 C156 1_555 1_555
C86 C162 1_555 1_555
C87 C167 1_555 1_555
C88 C105 1_555 1_555
O34 C189 1_555 1_555
C90 C124 1_555 1_555
C95 C106 1_555 1_555
C95 C184 1_555 1_555
C108 C166 1_555 1_555
C110 C135 1_555 1_555
C111 C193 1_555 1_555
N32 C122 1_555 1_555
C117 C181 1_555 1_555
C118 C186 1_555 1_555
C125 C169 1_555 1_555
C126 C180 1_555 1_555
C128 C146 1_555 1_555
C130 C145 1_555 1_555
C130 C182 1_555 1_555
C131 C163 1_555 1_555
C154 C174 1_555 1_555
C155 C180 1_555 1_555
C157 C165 1_555 1_555
C161 C164 1_555 1_555
C168 C169 1_555 1_555
C170 C179 1_555 1_555
C175 C178 1_555 1_555
C176 C182 1_555 1_555
C186 C218 1_555 1_555
C192 C195 1_555 1_555

#END
