
#######################################################################
#
#                 Cambridge Crystallographic Data Centre
#                                CCDC 
#
#######################################################################
#
# If this CIF has been generated from an entry in the Cambridge 
# Structural Database, then it will include bibliographic, chemical, 
# crystal, experimental, refinement or atomic coordinate data resulting 
# from the CCDC's data processing and validation procedures.
#
#######################################################################

data_PUSBOV
_chemical_formula_moiety         'C118 H116 Cl8 N16 O19'
_chemical_name_systematic        
'Methyl 7-(((7-(((7-(((7-(((7-(((7-(((7-(((7-((t-butoxycarbonyl)amino)-8-chloro-4-isobutoxyquinolin-2-yl)carbonyl)amino)-8-chloro-4-isobutoxyquinolin-2-yl)carbonyl)amino)-8-chloro-4-isobutoxyquinolin-2-yl)carbonyl)amino)-8-chloro-4-isobutoxyquinolin-2-yl)carbonyl)amino)-8-chloro-4-isobutoxyquinolin-2-yl)carbonyl)amino)-8-chloro-4-isobutoxyquinolin-2-yl)carbonyl)amino)-8-chloro-4-isobutoxyquinolin-2-yl)carbonyl)amino)-8-chloro-4-isobutoxyquinoline-2-carboxylate unknown solvate'
_symmetry_cell_setting           monoclinic
_symmetry_space_group_name_H-M   'C 2/c'
_symmetry_Int_Tables_number      15
_space_group_name_Hall           '-C 2yn'
loop_
_symmetry_equiv_pos_site_id
_symmetry_equiv_pos_as_xyz
1 x,y,z
2 -x,y,1/2-z
3 1/2+x,1/2+y,z
4 1/2-x,1/2+y,1/2-z
5 -x,-y,-z
6 x,-y,1/2+z
7 1/2-x,1/2-y,-z
8 1/2+x,1/2-y,1/2+z
_cell_length_a                   31.428(6)
_cell_length_b                   36.642(7)
_cell_length_c                   24.101(5)
_cell_angle_alpha                90
_cell_angle_beta                 114.01(3)
_cell_angle_gamma                90
_cell_volume                     25352.9
_exptl_crystal_colour            colorless
_exptl_crystal_description       'thin needles'
_cell_formula_units_Z            8
loop_
_atom_site_label
_atom_site_type_symbol
_atom_site_fract_x
_atom_site_fract_y
_atom_site_fract_z
Cl1 Cl 0.81538(17) 0.20368(18) 0.0494(2)
Cl2 Cl 0.92981(19) 0.14725(15) 0.3293(2)
Cl3 Cl 0.91453(19) 0.03737(16) 0.2564(3)
Cl4 Cl 1.1533(2) 0.10262(16) 0.3510(2)
Cl5 Cl 1.06348(18) 0.19201(16) 0.3280(2)
Cl6 Cl 0.7341(2) 0.11276(16) 0.0353(3)
Cl7 Cl 0.96749(19) 0.04292(16) 0.1148(3)
Cl8 Cl 0.9485(2) 0.15996(17) 0.0432(3)
O1 O 1.1719(5) -0.0151(4) 0.4238(6)
N1 N 0.9142(6) -0.0359(6) 0.2166(7)
H1 H 0.9245 -0.0169 0.2051
O2 O 1.0475(6) -0.1157(5) 0.1348(7)
N2 N 0.8724(6) 0.2606(4) 0.0341(5)
O3 O 1.1604(4) 0.3157(4) 0.2441(5)
O4 O 0.9592(4) 0.2938(4) -0.0113(5)
O5 O 1.2304(5) 0.1889(3) 0.2528(5)
N3 N 0.9432(5) 0.2241(6) 0.3585(6)
O6 O 1.0849(5) 0.0434(4) 0.0171(6)
O7 O 1.2056(7) -0.0614(5) 0.3969(7)
O8 O 0.7058(5) 0.2631(4) 0.1343(6)
N4 N 1.0096(5) 0.2556(4) 0.3367(5)
H2 H 1.0020 0.2329 0.3350
N5 N 1.0196(5) 0.1215(6) 0.0180(5)
O9 O 1.1005(5) 0.1686(4) -0.0601(6)
N6 N 0.8599(4) 0.1151(6) 0.3607(6)
H3 H 0.8753 0.1057 0.3417
N7 N 0.7463(6) 0.2310(4) 0.0906(6)
H4 H 0.7494 0.2094 0.0789
O10 O 0.8691(5) 0.3691(5) 0.0838(6)
N8 N 1.1356(6) 0.2106(4) 0.2906(5)
N9 N 0.7025(3) 0.1710(5) 0.0893(4)
C1 C 0.6807(5) 0.1377(4) 0.0872(5)
C2 C 0.6454(5) 0.1350(4) 0.1077(6)
C3 C 0.6318(4) 0.1657(6) 0.1304(5)
C4 C 0.6536(5) 0.1990(5) 0.1325(5)
H5 H 0.6445 0.2195 0.1477
C5 C 0.6889(5) 0.2017(4) 0.1120(5)
N10 N 1.1872(5) 0.1549(6) 0.2897(6)
H6 H 1.1645 0.1566 0.3007
C6 C 1.0166(8) -0.0887(8) 0.1422(9)
O11 O 1.2943(5) 0.0085(4) 0.2916(6)
O12 O 0.9922(4) 0.3114(4) 0.3599(5)
O13 O 0.8681(6) 0.2803(5) 0.4405(7)
O14 O 0.6914(6) -0.0079(6) -0.0050(7)
O15 O 0.9155(5) -0.0993(5) 0.2109(7)
O16 O 0.5969(5) 0.1621(5) 0.1495(6)
N11 N 0.8572(5) 0.0466(5) 0.3224(7)
C7 C 0.8088(8) -0.0094(10) 0.3545(13)
C8 C 0.8102(7) 0.0250(9) 0.3695(11)
H7 H 0.7938 0.0309 0.3930
C9 C 0.8321(8) 0.0536(8) 0.3559(10)
N12 N 1.0303(5) 0.0509(5) 0.0555(7)
H8 H 1.0123 0.0669 0.0607
C10 C 0.9949(7) -0.0259(7) 0.1286(8)
N13 N 1.1973(5) 0.0328(6) 0.3630(6)
O17 O 0.8100(5) 0.0999(4) 0.4071(7)
N14 N 0.9642(6) -0.0297(6) 0.1560(7)
N15 N 0.9415(6) 0.2349(6) 0.0085(6)
H9 H 0.9228 0.2232 0.0201
C11 C 1.1507(6) -0.0393(7) 0.4502(8)
H10 H 1.1335 -0.0257 0.4682
H11 H 1.1743 -0.0536 0.4809
H12 H 1.1299 -0.0553 0.4195
O18 O 0.7885(6) -0.0367(5) 0.3695(11)
N16 N 0.6887(6) 0.0455(6) 0.0340(8)
H13 H 0.7131 0.0490 0.0269
C12 C 1.1924(5) 0.0940(7) 0.3237(7)
C13 C 1.0443(7) 0.2623(6) 0.3194(7)
C14 C 0.6947(6) 0.1076(7) 0.0602(8)
C15 C 1.0734(7) 0.2358(5) 0.3117(6)
C16 C 1.1096(6) 0.2402(6) 0.2933(6)
C17 C 1.2055(7) 0.1215(8) 0.2937(8)
C18 C 0.9255(7) 0.2791(6) 0.4004(8)
H14 H 0.9341 0.3032 0.4112
C19 C 0.9992(6) 0.0086(6) 0.1053(8)
C20 C 1.1163(7) 0.2762(7) 0.2784(7)
C21 C 1.1793(6) 0.2524(7) 0.2549(7)
H15 H 1.2033 0.2554 0.2420
C22 C 1.0220(8) -0.0538(8) 0.1211(9)
C23 C 0.8100(8) 0.2489(5) 0.0633(6)
C24 C 0.9735(7) 0.2153(8) -0.0035(8)
C25 C 1.0529(8) 0.1013(8) 0.0096(9)
C26 C 0.8841(7) 0.2281(7) 0.4008(8)
C27 C 1.0019(7) 0.2304(6) -0.0319(8)
H16 H 0.9976 0.2548 -0.0437
C28 C 0.9492(6) 0.2612(7) 0.3714(7)
C29 C 0.8368(6) 0.3102(7) 0.0695(7)
C30 C 1.0411(7) 0.1723(7) -0.0265(7)
C31 C 0.9003(6) 0.3233(7) 0.0409(8)
H17 H 0.9208 0.3399 0.0359
C32 C 1.0348(6) 0.2107(7) -0.0427(8)
H18 H 1.0530 0.2218 -0.0601
C33 C 0.8995(7) 0.2846(8) 0.0250(7)
C34 C 1.2439(6) 0.0510(7) 0.3072(7)
C35 C 0.7727(6) 0.2952(7) 0.0963(7)
H19 H 0.7509 0.3037 0.1102
C36 C 1.2394(7) 0.1121(6) 0.2707(7)
H20 H 1.2487 0.1301 0.2508
O19 O 0.6348(7) 0.0015(5) 0.0279(8)
C37 C 0.9094(8) 0.2079(7) 0.3731(8)
C38 C 1.0570(7) 0.0617(7) 0.0287(9)
C39 C 0.9594(8) -0.0633(7) 0.1753(9)
C40 C 1.0534(6) 0.2990(6) 0.3037(7)
H21 H 1.0358 0.3184 0.3076
C41 C 0.8028(7) 0.3188(6) 0.0889(7)
H22 H 0.8002 0.3432 0.0977
C42 C 0.8406(6) 0.1727(8) 0.4003(9)
H23 H 0.8177 0.1605 0.4083
C43 C 0.9814(5) 0.1799(8) 0.0109(7)
C44 C 0.8658(7) 0.1535(7) 0.3739(8)
C45 C 0.8840(5) 0.0038(5) 0.2700(7)
C46 C 0.8856(5) -0.0312(6) 0.2488(6)
C47 C 0.8610(7) -0.0593(4) 0.2608(8)
C48 C 0.8346(5) -0.0524(5) 0.2941(8)
C49 C 0.8330(5) -0.0174(7) 0.3153(7)
C50 C 0.8576(6) 0.0107(4) 0.3033(7)
C51 C 1.2465(8) -0.0100(6) 0.3431(8)
H24 H 1.2565 -0.0341 0.3465
C52 C 1.2106(5) 0.0581(7) 0.3315(8)
C53 C 0.8938(7) 0.2670(8) 0.4140(9)
C54 C 0.8994(6) 0.1703(7) 0.3607(7)
C55 C 1.0744(8) 0.1541(9) -0.0360(9)
C56 C 0.8484(7) 0.2088(7) 0.4150(8)
H25 H 0.8317 0.2209 0.4335
C57 C 1.0875(8) 0.3054(6) 0.2831(7)
H26 H 1.0920 0.3289 0.2721
C58 C 1.0135(6) 0.1575(8) 0.0021(7)
C59 C 0.7737(7) 0.2569(7) 0.0832(6)
C60 C 1.0553(7) -0.0135(7) 0.0682(8)
H27 H 1.0755 -0.0097 0.0492
C61 C 0.9257(8) -0.0691(9) 0.2035(10)
C62 C 1.2392(9) 0.3704(6) 0.1976(11)
H28 H 1.2284 0.3623 0.1563
H29 H 1.2670 0.3574 0.2221
H30 H 1.2458 0.3961 0.1996
C63 C 0.8413(7) 0.2735(8) 0.0551(7)
C64 C 1.2001(8) 0.1869(7) 0.2702(7)
C65 C 1.0287(7) 0.0145(8) 0.0769(9)
C66 C 1.1684(8) 0.2178(7) 0.2729(8)
C67 C 1.2588(6) 0.0788(7) 0.2762(8)
H31 H 1.2809 0.0738 0.2607
C68 C 1.1522(9) 0.2810(7) 0.2579(7)
C69 C 1.1348(9) 0.1495(7) -0.0695(11)
H32 H 1.1213 0.1283 -0.0947
H33 H 1.1580 0.1410 -0.0309
C70 C 0.9372(7) 0.2719(8) 0.0032(7)
C71 C 1.0797(8) 0.1184(9) -0.0183(10)
H34 H 1.1020 0.1046 -0.0249
C72 C 0.8322(7) 0.0928(7) 0.3756(9)
C73 C 0.6399(8) 0.0714(7) 0.0813(10)
H35 H 0.6269 0.0485 0.0807
C74 C 1.1577(12) 0.1738(10) -0.1004(16)
H36 H 1.1739 0.1931 -0.0714
C75 C 1.1309(12) -0.1551(7) 0.1781(16)
H37 H 1.1283 -0.1324 0.1570
H38 H 1.1542 -0.1701 0.1731
H39 H 1.1396 -0.1504 0.2205
C76 C 1.1968(7) 0.3225(6) 0.2264(9)
H40 H 1.1902 0.3107 0.1878
H41 H 1.2255 0.3123 0.2563
C77 C 0.8679(8) 0.3337(8) 0.0642(8)
C78 C 0.9052(8) 0.3926(7) 0.0887(10)
H42 H 0.9015 0.3998 0.0483
H43 H 0.9345 0.3796 0.1075
C79 C 1.2629(7) 0.0151(8) 0.3157(9)
C80 C 1.0509(9) -0.1502(8) 0.1654(11)
H44 H 1.0208 -0.1623 0.1501
H45 H 1.0609 -0.1463 0.2087
C81 C 1.0498(9) -0.0476(8) 0.0899(10)
H46 H 1.0657 -0.0673 0.0831
C82 C 0.7143(6) 0.2352(7) 0.1146(9)
C83 C 0.9853(6) 0.2768(7) 0.3555(7)
C84 C 1.2150(8) 0.0006(8) 0.3657(8)
C85 C 0.6741(12) -0.0439(9) -0.0321(13)
C86 C 0.6728(7) 0.0745(10) 0.0590(10)
C87 C 0.9073(9) 0.4253(8) 0.1240(13)
H47 H 0.8771 0.4377 0.1068
C88 C 0.6239(7) 0.1016(8) 0.1060(10)
H48 H 0.6005 0.0989 0.1199
C89 C 1.2026(8) 0.3635(6) 0.2206(11)
H49 H 1.1730 0.3748 0.1943
C90 C 0.6777(7) -0.0705(5) 0.0232(10)
H50 H 0.6539 -0.0642 0.0369
H51 H 0.7077 -0.0678 0.0561
H52 H 0.6735 -0.0954 0.0094
C91 C 1.3613(7) -0.0192(5) 0.2828(10)
H53 H 1.3742 0.0050 0.2978
C92 C 0.5800(9) 0.1931(9) 0.1667(13)
H54 H 0.5672 0.2097 0.1326
H55 H 0.6052 0.2054 0.1992
C93 C 1.1979(7) -0.0290(8) 0.3966(9)
C94 C 1.0865(15) -0.1739(10) 0.1534(16)
H56 H 1.0764 -0.1779 0.1097
C95 C 1.3203(8) -0.0250(7) 0.3028(12)
H57 H 1.3004 -0.0447 0.2797
H58 H 1.3323 -0.0312 0.3456
C96 C 1.0889(15) -0.2097(9) 0.1857(16)
H59 H 1.0607 -0.2232 0.1645
H60 H 1.0924 -0.2050 0.2265
H61 H 1.1150 -0.2235 0.1865
C97 C 1.2200(9) 0.3784(7) 0.2862(13)
H62 H 1.1963 0.3750 0.3012
H63 H 1.2270 0.4039 0.2863
H64 H 1.2477 0.3655 0.3117
C98 C 0.6257(9) -0.0404(7) -0.0840(15)
H65 H 0.6032 -0.0350 -0.0676
H66 H 0.6177 -0.0630 -0.1062
H67 H 0.6260 -0.0211 -0.1107
C99 C 0.9458(11) 0.4520(8) 0.1252(16)
H68 H 0.9466 0.4727 0.1501
H69 H 0.9392 0.4601 0.0847
H70 H 0.9754 0.4399 0.1417
C100 C 0.9165(10) 0.4113(7) 0.1892(12)
H71 H 0.9162 0.4316 0.2142
H72 H 0.9463 0.3995 0.2065
H73 H 0.8926 0.3943 0.1868
C101 C 0.7102(11) -0.0548(7) -0.0569(13)
H74 H 0.7067 -0.0396 -0.0909
H75 H 0.7056 -0.0799 -0.0695
H76 H 0.7410 -0.0518 -0.0256
C102 C 0.6681(11) 0.0129(11) 0.0208(12)
C103 C 1.3348(11) -0.0154(9) 0.2125(12)
H77 H 1.3045 -0.0052 0.2030
H78 H 1.3315 -0.0390 0.1939
H79 H 1.3520 0.0003 0.1972
C104 C 0.7846(11) -0.0377(9) 0.4276(16)
H80 H 0.7515 -0.0362 0.4179
H81 H 0.7980 -0.0149 0.4476
C105 C 0.8849(12) 0.3151(9) 0.4683(16)
H82 H 0.8712 0.3343 0.4388
H83 H 0.9184 0.3162 0.4816
C106 C 0.9855(8) -0.0932(7) 0.1701(9)
H84 H 0.9821 -0.1159 0.1850
C107 C 0.8035(13) -0.0668(10) 0.4761(18)
H85 H 0.7918 -0.0656 0.5080
C108 C 0.8838(14) 0.2886(10) 0.5686(14)
H86 H 0.9169 0.2852 0.5876
H87 H 0.8692 0.2668 0.5473
H88 H 0.8724 0.2940 0.5991
C109 C 1.3986(17) -0.0462(15) 0.317(2)
H89 H 1.4240 -0.0439 0.3049
H90 H 1.3861 -0.0705 0.3084
H91 H 1.4095 -0.0415 0.3598
C110 C 0.8191(17) 0.3268(13) 0.496(2)
H92 H 0.8076 0.3227 0.5265
H93 H 0.8046 0.3100 0.4629
H94 H 0.8122 0.3513 0.4810
C111 C 0.8722(17) 0.3209(10) 0.5231(18)
H95 H 0.8877 0.3431 0.5448
C112 C 0.8556(12) -0.0626(12) 0.498(2)
H96 H 0.8656 -0.0418 0.5249
H97 H 0.8636 -0.0590 0.4643
H98 H 0.8707 -0.0841 0.5200
C113 C 1.1934(11) 0.1554(9) -0.1165(17)
H99 H 1.2180 0.1464 -0.0802
H100 H 1.2058 0.1725 -0.1362
H101 H 1.1793 0.1354 -0.1434
C114 C 1.1203(13) 0.1925(11) -0.1549(16)
H102 H 1.1018 0.2079 -0.1413
H103 H 1.1008 0.1744 -0.1823
H104 H 1.1348 0.2070 -0.1755
C115 C 0.7894(18) -0.1016(10) 0.4367(19)
H105 H 0.7572 -0.1070 0.4266
H106 H 0.8083 -0.1217 0.4589
H107 H 0.7940 -0.0979 0.4001
C116 C 0.5420(11) 0.1826(12) 0.1886(14)
H108 H 0.5524 0.1681 0.2260
C117 C 0.5028(11) 0.1613(9) 0.1241(17)
H109 H 0.5166 0.1394 0.1168
H110 H 0.4950 0.1774 0.0899
H111 H 0.4751 0.1552 0.1297
C118 C 0.5138(16) 0.2170(10) 0.1877(18)
H112 H 0.5319 0.2326 0.2211
H113 H 0.4855 0.2102 0.1913
H114 H 0.5063 0.2299 0.1502
loop_
_geom_bond_atom_site_label_1
_geom_bond_atom_site_label_2
_geom_bond_site_symmetry_1
_geom_bond_site_symmetry_2
Cl1 C23 1_555 1_555
Cl2 C54 1_555 1_555
Cl3 C45 1_555 1_555
Cl4 C12 1_555 1_555
Cl5 C15 1_555 1_555
Cl6 C14 1_555 1_555
Cl7 C19 1_555 1_555
Cl8 C43 1_555 1_555
O1 C11 1_555 1_555
N1 H1 1_555 1_555
O2 C6 1_555 1_555
N2 C33 1_555 1_555
O3 C68 1_555 1_555
O4 C70 1_555 1_555
O5 C64 1_555 1_555
N3 C28 1_555 1_555
O6 C38 1_555 1_555
O7 C93 1_555 1_555
O8 C82 1_555 1_555
N4 H2 1_555 1_555
N5 C25 1_555 1_555
O9 C55 1_555 1_555
N6 H3 1_555 1_555
N7 H4 1_555 1_555
O10 C77 1_555 1_555
N8 C16 1_555 1_555
N9 C1 1_555 1_555
C1 C2 1_555 1_555
C2 C3 1_555 1_555
C3 C4 1_555 1_555
C4 H5 1_555 1_555
C5 N9 1_555 1_555
N10 H6 1_555 1_555
C6 C22 1_555 1_555
O11 C79 1_555 1_555
O12 C83 1_555 1_555
O13 C53 1_555 1_555
O14 C85 1_555 1_555
O15 C61 1_555 1_555
O16 C3 1_555 1_555
N11 C9 1_555 1_555
C7 C8 1_555 1_555
C8 H7 1_555 1_555
C9 C8 1_555 1_555
N12 H8 1_555 1_555
C10 N14 1_555 1_555
N13 C52 1_555 1_555
O17 C72 1_555 1_555
N14 C39 1_555 1_555
N15 H9 1_555 1_555
C11 H10 1_555 1_555
H11 C11 1_555 1_555
H12 C11 1_555 1_555
O18 C7 1_555 1_555
N16 H13 1_555 1_555
C12 C17 1_555 1_555
C13 N4 1_555 1_555
C14 C1 1_555 1_555
C15 C13 1_555 1_555
C16 C15 1_555 1_555
C17 N10 1_555 1_555
C18 H14 1_555 1_555
C19 C10 1_555 1_555
C20 C16 1_555 1_555
C21 H15 1_555 1_555
C22 C10 1_555 1_555
C23 C59 1_555 1_555
C24 N15 1_555 1_555
C25 C38 1_555 1_555
C26 C37 1_555 1_555
C27 C24 1_555 1_555
H16 C27 1_555 1_555
C28 C18 1_555 1_555
C29 C41 1_555 1_555
C30 C32 1_555 1_555
C31 H17 1_555 1_555
C32 C27 1_555 1_555
H18 C32 1_555 1_555
C33 C31 1_555 1_555
C34 C52 1_555 1_555
C35 H19 1_555 1_555
C36 C17 1_555 1_555
H20 C36 1_555 1_555
O19 C102 1_555 1_555
C37 N3 1_555 1_555
C38 N12 1_555 1_555
C39 C61 1_555 1_555
C40 C13 1_555 1_555
H21 C40 1_555 1_555
C41 C35 1_555 1_555
H22 C41 1_555 1_555
C42 H23 1_555 1_555
C43 C24 1_555 1_555
C44 N6 1_555 1_555
C45 C46 1_555 1_555
C46 N1 1_555 1_555
C47 C46 1_555 1_555
C48 C47 1_555 1_555
C49 C7 1_555 1_555
C50 N11 1_555 1_555
C51 H24 1_555 1_555
C52 C12 1_555 1_555
C53 C18 1_555 1_555
C54 C37 1_555 1_555
C55 C30 1_555 1_555
C56 C26 1_555 1_555
H25 C56 1_555 1_555
C57 C20 1_555 1_555
H26 C57 1_555 1_555
C58 N5 1_555 1_555
C59 N7 1_555 1_555
C60 H27 1_555 1_555
C61 N1 1_555 1_555
C62 H28 1_555 1_555
H29 C62 1_555 1_555
H30 C62 1_555 1_555
C63 N2 1_555 1_555
C64 N10 1_555 1_555
C65 N12 1_555 1_555
C66 N8 1_555 1_555
C67 C34 1_555 1_555
H31 C67 1_555 1_555
C68 C20 1_555 1_555
C69 O9 1_555 1_555
H32 C69 1_555 1_555
H33 C69 1_555 1_555
C70 N15 1_555 1_555
C71 C25 1_555 1_555
H34 C71 1_555 1_555
C72 N6 1_555 1_555
C73 H35 1_555 1_555
C74 C69 1_555 1_555
H36 C74 1_555 1_555
C75 H37 1_555 1_555
H38 C75 1_555 1_555
H39 C75 1_555 1_555
C76 O3 1_555 1_555
H40 C76 1_555 1_555
H41 C76 1_555 1_555
C77 C29 1_555 1_555
C78 O10 1_555 1_555
H42 C78 1_555 1_555
H43 C78 1_555 1_555
C79 C34 1_555 1_555
C80 O2 1_555 1_555
H44 C80 1_555 1_555
H45 C80 1_555 1_555
C81 C22 1_555 1_555
H46 C81 1_555 1_555
C82 N7 1_555 1_555
C83 N4 1_555 1_555
C84 N13 1_555 1_555
C85 C90 1_555 1_555
C86 N16 1_555 1_555
C87 C78 1_555 1_555
H47 C87 1_555 1_555
C88 C2 1_555 1_555
H48 C88 1_555 1_555
C89 C62 1_555 1_555
H49 C89 1_555 1_555
C90 H50 1_555 1_555
H51 C90 1_555 1_555
H52 C90 1_555 1_555
C91 H53 1_555 1_555
C92 O16 1_555 1_555
H54 C92 1_555 1_555
H55 C92 1_555 1_555
C93 O1 1_555 1_555
C94 C75 1_555 1_555
H56 C94 1_555 1_555
C95 O11 1_555 1_555
H57 C95 1_555 1_555
H58 C95 1_555 1_555
C96 C94 1_555 1_555
H59 C96 1_555 1_555
H60 C96 1_555 1_555
H61 C96 1_555 1_555
C97 C89 1_555 1_555
H62 C97 1_555 1_555
H63 C97 1_555 1_555
H64 C97 1_555 1_555
C98 C85 1_555 1_555
H65 C98 1_555 1_555
H66 C98 1_555 1_555
H67 C98 1_555 1_555
C99 C87 1_555 1_555
H68 C99 1_555 1_555
H69 C99 1_555 1_555
H70 C99 1_555 1_555
C100 C87 1_555 1_555
H71 C100 1_555 1_555
H72 C100 1_555 1_555
H73 C100 1_555 1_555
C101 C85 1_555 1_555
H74 C101 1_555 1_555
H75 C101 1_555 1_555
H76 C101 1_555 1_555
C102 O14 1_555 1_555
C103 C91 1_555 1_555
H77 C103 1_555 1_555
H78 C103 1_555 1_555
H79 C103 1_555 1_555
C104 O18 1_555 1_555
H80 C104 1_555 1_555
H81 C104 1_555 1_555
C105 O13 1_555 1_555
H82 C105 1_555 1_555
H83 C105 1_555 1_555
C106 C6 1_555 1_555
H84 C106 1_555 1_555
C107 C104 1_555 1_555
H85 C107 1_555 1_555
C108 H86 1_555 1_555
H87 C108 1_555 1_555
H88 C108 1_555 1_555
C109 C91 1_555 1_555
H89 C109 1_555 1_555
H90 C109 1_555 1_555
H91 C109 1_555 1_555
C110 H92 1_555 1_555
H93 C110 1_555 1_555
H94 C110 1_555 1_555
C111 C105 1_555 1_555
H95 C111 1_555 1_555
C112 C107 1_555 1_555
H96 C112 1_555 1_555
H97 C112 1_555 1_555
H98 C112 1_555 1_555
C113 C74 1_555 1_555
H99 C113 1_555 1_555
H100 C113 1_555 1_555
H101 C113 1_555 1_555
C114 C74 1_555 1_555
H102 C114 1_555 1_555
H103 C114 1_555 1_555
H104 C114 1_555 1_555
C115 C107 1_555 1_555
H105 C115 1_555 1_555
H106 C115 1_555 1_555
H107 C115 1_555 1_555
C116 C92 1_555 1_555
H108 C116 1_555 1_555
C117 C116 1_555 1_555
H109 C117 1_555 1_555
H110 C117 1_555 1_555
H111 C117 1_555 1_555
C118 C116 1_555 1_555
H112 C118 1_555 1_555
H113 C118 1_555 1_555
H114 C118 1_555 1_555
C4 C5 1_555 1_555
C5 C82 1_555 1_555
C9 C72 1_555 1_555
N16 C102 1_555 1_555
C14 C86 1_555 1_555
C19 C65 1_555 1_555
C21 C66 1_555 1_555
C21 C68 1_555 1_555
C23 C63 1_555 1_555
C26 C53 1_555 1_555
C28 C83 1_555 1_555
C29 C63 1_555 1_555
C30 C58 1_555 1_555
C31 C77 1_555 1_555
C33 C70 1_555 1_555
C35 C59 1_555 1_555
C36 C67 1_555 1_555
C39 C106 1_555 1_555
C40 C57 1_555 1_555
C42 C44 1_555 1_555
C42 C56 1_555 1_555
C43 C58 1_555 1_555
C44 C54 1_555 1_555
C45 C50 1_555 1_555
C48 C49 1_555 1_555
C49 C50 1_555 1_555
C51 C79 1_555 1_555
C51 C84 1_555 1_555
C55 C71 1_555 1_555
C60 C65 1_555 1_555
C60 C81 1_555 1_555
C64 C66 1_555 1_555
C73 C86 1_555 1_555
C73 C88 1_555 1_555
C76 C89 1_555 1_555
C80 C94 1_555 1_555
C84 C93 1_555 1_555
C91 C95 1_555 1_555
C108 C111 1_555 1_555
C110 C111 1_555 1_555

#END
