
#######################################################################
#
#                 Cambridge Crystallographic Data Centre
#                                CCDC 
#
#######################################################################
#
# If this CIF has been generated from an entry in the Cambridge 
# Structural Database, then it will include bibliographic, chemical, 
# crystal, experimental, refinement or atomic coordinate data resulting 
# from the CCDC's data processing and validation procedures.
#
#######################################################################

data_PUSKEU
_chemical_name_common            
'Diethyl (S!S$,R!C$)-(+)-(1-(4-Bromophenyl)-1-(t-butylsulfinylamino)ethyl)thiophosphonate'
_chemical_formula_moiety         'C16 H27 Br1 N1 O3 P1 S2'
_chemical_name_systematic        
'O,O-diethyl (R)-1-(4-bromophenyl)-1-((S)-1,1-dimethylethylsulfinamido)ethylphosphonothioate'
_symmetry_cell_setting           orthorhombic
_symmetry_space_group_name_H-M   'P 21 21 21'
_symmetry_Int_Tables_number      19
_space_group_name_Hall           'P 2ac 2ab'
loop_
_symmetry_equiv_pos_site_id
_symmetry_equiv_pos_as_xyz
1 x,y,z
2 1/2-x,-y,1/2+z
3 -x,1/2+y,1/2-z
4 1/2+x,1/2-y,-z
_cell_length_a                   10.6164(12)
_cell_length_b                   13.3048(16)
_cell_length_c                   15.1721(18)
_cell_angle_alpha                90
_cell_angle_beta                 90
_cell_angle_gamma                90
_cell_volume                     2143.05
_exptl_crystal_colour            colorless
_exptl_crystal_description       prismatic
_chemical_melting_point          '102-104 deg.C'
_cell_formula_units_Z            4
loop_
_atom_site_label
_atom_site_type_symbol
_atom_site_fract_x
_atom_site_fract_y
_atom_site_fract_z
Br1 Br 0.64764(4) 0.40697(4) 0.03734(4)
P1 P 0.04321(11) 0.47472(9) 0.23281(7)
S1 S 0.03906(10) 0.50286(8) -0.04676(7)
S2 S 0.06865(17) 0.37469(11) 0.32144(9)
O1 O -0.0652(3) 0.4404(2) -0.0802(2)
O2 O -0.0949(3) 0.5099(3) 0.2168(2)
O3 O 0.1163(3) 0.5743(2) 0.24478(18)
N1 N 0.0283(3) 0.5177(3) 0.0616(2)
C1 C 0.0100(4) 0.3366(3) 0.1022(3)
H1 H -0.0793 0.3471 0.1058
H2 H 0.0354 0.2888 0.1461
H3 H 0.0310 0.3113 0.0447
C2 C 0.0785(4) 0.4364(3) 0.1178(3)
C3 C 0.2197(4) 0.4271(3) 0.1043(2)
C4 C 0.2914(4) 0.5130(3) 0.0878(3)
H4 H 0.2531 0.5758 0.0896
C5 C 0.4168(4) 0.5062(3) 0.0691(3)
H5 H 0.4628 0.5638 0.0562
C6 C 0.4750(4) 0.4142(4) 0.0694(2)
C7 C 0.4089(4) 0.3293(3) 0.0877(3)
H6 H 0.4485 0.2670 0.0888
C8 C 0.2818(4) 0.3375(3) 0.1047(3)
H7 H 0.2364 0.2793 0.1169
C9 C 0.0011(4) 0.6331(3) -0.0790(3)
C10 C 0.1020(4) 0.7014(3) -0.0420(4)
H8 H 0.0916 0.7678 -0.0657
H9 H 0.1834 0.6759 -0.0580
H10 H 0.0949 0.7037 0.0210
C11 C 0.0075(5) 0.6306(4) -0.1794(3)
H11 H -0.0495 0.5805 -0.2014
H12 H 0.0918 0.6145 -0.1976
H13 H -0.0157 0.6952 -0.2025
C12 C -0.1304(4) 0.6610(4) -0.0478(4)
H14 H -0.1309 0.6664 0.0153
H15 H -0.1889 0.6100 -0.0658
H16 H -0.1545 0.7242 -0.0732
C13 C -0.1802(5) 0.5523(5) 0.2806(3)
H17 H -0.2173 0.4990 0.3156
H18 H -0.1343 0.5966 0.3199
C14 C -0.2777(5) 0.6077(4) 0.2366(3)
H19 H -0.2408 0.6612 0.2029
H20 H -0.3344 0.6354 0.2796
H21 H -0.3232 0.5636 0.1980
C15 C 0.1882(6) 0.6014(5) 0.3198(4)
H22 H 0.1320 0.6233 0.3664
H23 H 0.2341 0.5431 0.3409
C16 C 0.2746(6) 0.6795(5) 0.3003(5)
H24 H 0.3401 0.6540 0.2629
H25 H 0.3108 0.7043 0.3540
H26 H 0.2313 0.7331 0.2707
H27 H -0.0489(19) 0.528(3) 0.072(2)
loop_
_geom_bond_atom_site_label_1
_geom_bond_atom_site_label_2
_geom_bond_site_symmetry_1
_geom_bond_site_symmetry_2
Br1 C6 1_555 1_555
P1 S2 1_555 1_555
S1 O1 1_555 1_555
O2 P1 1_555 1_555
O3 P1 1_555 1_555
N1 S1 1_555 1_555
C1 H1 1_555 1_555
H2 C1 1_555 1_555
H3 C1 1_555 1_555
C2 P1 1_555 1_555
C3 C2 1_555 1_555
C4 C3 1_555 1_555
H4 C4 1_555 1_555
C5 C4 1_555 1_555
H5 C5 1_555 1_555
C6 C5 1_555 1_555
C7 C6 1_555 1_555
H6 C7 1_555 1_555
C8 C3 1_555 1_555
H7 C8 1_555 1_555
C9 S1 1_555 1_555
C10 C9 1_555 1_555
H8 C10 1_555 1_555
H9 C10 1_555 1_555
H10 C10 1_555 1_555
C11 C9 1_555 1_555
H11 C11 1_555 1_555
H12 C11 1_555 1_555
H13 C11 1_555 1_555
C12 C9 1_555 1_555
H14 C12 1_555 1_555
H15 C12 1_555 1_555
H16 C12 1_555 1_555
C13 O2 1_555 1_555
H17 C13 1_555 1_555
H18 C13 1_555 1_555
C14 C13 1_555 1_555
H19 C14 1_555 1_555
H20 C14 1_555 1_555
H21 C14 1_555 1_555
C15 O3 1_555 1_555
H22 C15 1_555 1_555
H23 C15 1_555 1_555
C16 C15 1_555 1_555
H24 C16 1_555 1_555
H25 C16 1_555 1_555
H26 C16 1_555 1_555
H27 N1 1_555 1_555
N1 C2 1_555 1_555
C1 C2 1_555 1_555
C7 C8 1_555 1_555

#END
