
#######################################################################
#
#                 Cambridge Crystallographic Data Centre
#                                CCDC 
#
#######################################################################
#
# If this CIF has been generated from an entry in the Cambridge 
# Structural Database, then it will include bibliographic, chemical, 
# crystal, experimental, refinement or atomic coordinate data resulting 
# from the CCDC's data processing and validation procedures.
#
#######################################################################

data_PUSMEW
_chemical_formula_moiety         'C18 H13 N1 O1'
_chemical_name_systematic        
(R)-3-Phenyl-3H-pyrrolo[1,2-a]indole-2-carbaldehyde
_symmetry_cell_setting           monoclinic
_symmetry_space_group_name_H-M   'P 21'
_symmetry_Int_Tables_number      4
_space_group_name_Hall           'P 2yb'
loop_
_symmetry_equiv_pos_site_id
_symmetry_equiv_pos_as_xyz
1 x,y,z
2 -x,1/2+y,-z
_cell_length_a                   9.0083(2)
_cell_length_b                   5.8548(2)
_cell_length_c                   12.8023(3)
_cell_angle_alpha                90
_cell_angle_beta                 103.3170(10)
_cell_angle_gamma                90
_cell_volume                     657.06
_chemical_melting_point          '183 deg.C'
_cell_formula_units_Z            2
loop_
_atom_site_label
_atom_site_type_symbol
_atom_site_fract_x
_atom_site_fract_y
_atom_site_fract_z
N1 N 0.69471(11) 0.5125(2) 0.13846(8)
O1 O 0.59100(16) 0.7598(4) 0.42971(11)
C1 C 0.62110(15) 0.1862(3) 0.04919(12)
C2 C 0.73873(17) 0.2960(4) -0.11181(12)
C3 C 0.70289(14) 0.3218(3) -0.01108(10)
C4 C 0.83140(15) 0.6963(3) 0.01048(11)
C5 C 0.74947(12) 0.5251(3) 0.04737(9)
C6 C 0.61875(14) 0.3084(3) 0.13997(10)
C7 C 0.60883(13) 0.5011(3) 0.29235(11)
C8 C 0.56334(17) 0.5740(4) 0.38899(13)
C9 C 0.70641(14) 0.6480(3) 0.23575(9)
C10 C 0.87060(14) 0.6724(2) 0.29981(9)
C11 C 0.91603(17) 0.8680(3) 0.35955(10)
C12 C 1.06498(18) 0.8871(3) 0.42069(11)
C13 C 1.16692(16) 0.7120(3) 0.42137(11)
C14 C 1.12257(16) 0.5172(3) 0.36212(12)
C15 C 0.97420(15) 0.4973(3) 0.30119(10)
C16 C 0.81801(18) 0.4659(4) -0.14856(12)
C17 C 0.86432(17) 0.6636(4) -0.08840(12)
C18 C 0.56369(15) 0.3078(3) 0.23711(12)
H1 H 1.271(2) 0.727(4) 0.4642(15)
H2 H 0.845(2) 0.994(4) 0.3574(13)
H3 H 0.8592(16) 0.830(3) 0.0506(12)
H4 H 0.503(2) 0.196(4) 0.2558(14)
H5 H 0.709(2) 0.155(4) -0.1528(15)
H6 H 0.9424(16) 0.357(3) 0.2593(12)
H7 H 1.192(2) 0.397(4) 0.3594(15)
H8 H 0.5749(18) 0.042(4) 0.0309(13)
H9 H 0.921(2) 0.782(4) -0.1173(14)
H10 H 0.6614(16) 0.805(3) 0.2197(11)
H11 H 1.091(2) 1.019(5) 0.4641(17)
H12 H 0.8440(19) 0.448(4) -0.2177(15)
H13 H 0.502(2) 0.448(4) 0.4196(16)
loop_
_geom_bond_atom_site_label_1
_geom_bond_atom_site_label_2
_geom_bond_site_symmetry_1
_geom_bond_site_symmetry_2
N1 C5 1_555 1_555
O1 C8 1_555 1_555
C1 C3 1_555 1_555
C2 C3 1_555 1_555
C3 C5 1_555 1_555
C4 C5 1_555 1_555
C6 N1 1_555 1_555
C7 C8 1_555 1_555
C8 H13 1_555 1_555
C9 N1 1_555 1_555
C10 C9 1_555 1_555
C11 C10 1_555 1_555
C12 C11 1_555 1_555
C13 C12 1_555 1_555
C14 C13 1_555 1_555
C15 C10 1_555 1_555
C16 C2 1_555 1_555
C17 C4 1_555 1_555
C18 C6 1_555 1_555
H1 C13 1_555 1_555
H2 C11 1_555 1_555
H3 C4 1_555 1_555
H4 C18 1_555 1_555
H5 C2 1_555 1_555
H6 C15 1_555 1_555
H7 C14 1_555 1_555
H8 C1 1_555 1_555
H9 C17 1_555 1_555
H10 C9 1_555 1_555
H11 C12 1_555 1_555
H12 C16 1_555 1_555
C1 C6 1_555 1_555
C7 C9 1_555 1_555
C7 C18 1_555 1_555
C14 C15 1_555 1_555
C16 C17 1_555 1_555

#END
