
#######################################################################
#
#                 Cambridge Crystallographic Data Centre
#                                CCDC 
#
#######################################################################
#
# If this CIF has been generated from an entry in the Cambridge 
# Structural Database, then it will include bibliographic, chemical, 
# crystal, experimental, refinement or atomic coordinate data resulting 
# from the CCDC's data processing and validation procedures.
#
#######################################################################

data_PUSMUL01
_chemical_name_common            
6-Ethylidene-1,9,10-trimethyl-14-vinyl-4,8-dioxatetracyclo[8.3.1.0$2,9!.0$3,7!]tetradec-12-ene-5,11-dione
_chemical_formula_moiety         'C19 H22 O4'
_chemical_name_systematic        'Pallambin D'
_symmetry_cell_setting           orthorhombic
_symmetry_space_group_name_H-M   'P 21 21 2'
_symmetry_Int_Tables_number      18
_space_group_name_Hall           'P 2 2ab'
loop_
_symmetry_equiv_pos_site_id
_symmetry_equiv_pos_as_xyz
1 x,y,z
2 -x,-y,z
3 1/2+x,1/2-y,-z
4 1/2-x,1/2+y,-z
_cell_length_a                   8.1441(6)
_cell_length_b                   28.387(2)
_cell_length_c                   7.2652(6)
_cell_angle_alpha                90
_cell_angle_beta                 90
_cell_angle_gamma                90
_cell_volume                     1679.62
_exptl_crystal_colour            colorless
_exptl_crystal_description       prism
_cell_formula_units_Z            4
loop_
_atom_site_label
_atom_site_type_symbol
_atom_site_fract_x
_atom_site_fract_y
_atom_site_fract_z
C1 C 0.6674(3) 0.83086(10) 0.5869(3)
H1 H 0.6926 0.8109 0.6843
C2 C 0.5536(3) 0.86371(10) 0.6130(4)
H2 H 0.5003 0.8660 0.7259
C3 C 0.5122(3) 0.89618(9) 0.4647(3)
C4 C 0.6228(3) 0.89380(7) 0.2947(3)
C5 C 0.6453(3) 0.84084(7) 0.2486(3)
H3 H 0.7077 0.8387 0.1336
C6 C 0.4896(3) 0.81346(8) 0.2240(4)
H4 H 0.4175 0.8126 0.3232
C7 C 0.4468(4) 0.79112(10) 0.0787(4)
H5 H 0.5151 0.7910 -0.0239
H6 H 0.3474 0.7750 0.0758
C8 C 0.8008(3) 0.90892(8) 0.3476(3)
C9 C 0.8926(3) 0.86329(8) 0.4050(3)
H7 H 0.9359 0.8672 0.5300
C10 C 0.7585(3) 0.82427(7) 0.4066(3)
C11 C 1.0362(3) 0.85979(8) 0.2701(3)
H8 H 1.1380 0.8519 0.3350
C12 C 1.0481(3) 0.90817(8) 0.1828(3)
H9 H 1.1235 0.9294 0.2472
C13 C 1.0977(3) 0.89799(8) -0.0095(3)
C14 C 1.1672(3) 0.92578(9) -0.1345(4)
H10 H 1.1873 0.9127 -0.2497
C15 C 1.2155(3) 0.97541(9) -0.1075(4)
H11 H 1.1970 0.9842 0.0183
H12 H 1.1511 0.9952 -0.1868
H13 H 1.3298 0.9791 -0.1366
C16 C 1.0538(3) 0.84874(9) -0.0460(4)
C17 C 0.8085(3) 0.94926(9) 0.4860(4)
H14 H 0.7450 0.9753 0.4412
H15 H 0.9206 0.9589 0.5020
H16 H 0.7649 0.9389 0.6019
C18 C 0.5506(3) 0.92233(8) 0.1388(3)
H17 H 0.5438 0.9548 0.1748
H18 H 0.4428 0.9108 0.1106
H19 H 0.6195 0.9195 0.0322
C19 C 0.8206(3) 0.77375(8) 0.3909(4)
H20 H 0.7314 0.7523 0.4121
H21 H 0.9049 0.7685 0.4808
H22 H 0.8644 0.7687 0.2698
O1 O 0.3977(2) 0.92338(7) 0.4759(3)
O2 O 0.88146(18) 0.92444(5) 0.1813(2)
O3 O 1.0095(2) 0.82781(5) 0.1156(2)
O4 O 1.0527(2) 0.82710(7) -0.1878(2)
loop_
_geom_bond_atom_site_label_1
_geom_bond_atom_site_label_2
_geom_bond_site_symmetry_1
_geom_bond_site_symmetry_2
C1 H1 1_555 1_555
C2 C1 1_555 1_555
H2 C2 1_555 1_555
C3 C2 1_555 1_555
C4 C3 1_555 1_555
C5 C4 1_555 1_555
H3 C5 1_555 1_555
C6 C5 1_555 1_555
H4 C6 1_555 1_555
C7 C6 1_555 1_555
H5 C7 1_555 1_555
H6 C7 1_555 1_555
C8 C4 1_555 1_555
C9 C8 1_555 1_555
H7 C9 1_555 1_555
C10 C1 1_555 1_555
C11 C9 1_555 1_555
H8 C11 1_555 1_555
C12 C11 1_555 1_555
H9 C12 1_555 1_555
C13 C12 1_555 1_555
C14 C13 1_555 1_555
H10 C14 1_555 1_555
C15 C14 1_555 1_555
H11 C15 1_555 1_555
H12 C15 1_555 1_555
H13 C15 1_555 1_555
C16 C13 1_555 1_555
C17 C8 1_555 1_555
H14 C17 1_555 1_555
H15 C17 1_555 1_555
H16 C17 1_555 1_555
C18 C4 1_555 1_555
H17 C18 1_555 1_555
H18 C18 1_555 1_555
H19 C18 1_555 1_555
C19 C10 1_555 1_555
H20 C19 1_555 1_555
H21 C19 1_555 1_555
H22 C19 1_555 1_555
O1 C3 1_555 1_555
O2 C8 1_555 1_555
O3 C11 1_555 1_555
O4 C16 1_555 1_555
C5 C10 1_555 1_555
C9 C10 1_555 1_555
C12 O2 1_555 1_555
C16 O3 1_555 1_555

#END
