
#######################################################################
#
#                 Cambridge Crystallographic Data Centre
#                                CCDC 
#
#######################################################################
#
# If this CIF has been generated from an entry in the Cambridge 
# Structural Database, then it will include bibliographic, chemical, 
# crystal, experimental, refinement or atomic coordinate data resulting 
# from the CCDC's data processing and validation procedures.
#
#######################################################################

data_PUSMUL02
_chemical_formula_moiety         'C19 H22 O4'
_chemical_name_systematic        
6-Ethylidene-1,9,10-trimethyl-14-vinyl-4,8-dioxatetracyclo[8.3.1.0^2,9^.0^3,7^]tetradec-12-ene-5,11-dione
_symmetry_cell_setting           triclinic
_symmetry_space_group_name_H-M   'P -1'
_symmetry_Int_Tables_number      2
_space_group_name_Hall           '-P 1'
loop_
_symmetry_equiv_pos_site_id
_symmetry_equiv_pos_as_xyz
1 x,y,z
2 -x,-y,-z
_cell_length_a                   7.3712(7)
_cell_length_b                   8.0916(8)
_cell_length_c                   13.8262(13)
_cell_angle_alpha                94.596(2)
_cell_angle_beta                 98.403(2)
_cell_angle_gamma                90.318(2)
_cell_volume                     813.06
_exptl_crystal_colour            colorless
_exptl_crystal_description       block
_cell_formula_units_Z            2
loop_
_atom_site_label
_atom_site_type_symbol
_atom_site_fract_x
_atom_site_fract_y
_atom_site_fract_z
O1 O -0.3711(2) -0.0541(2) -0.35501(14)
O2 O -0.2601(2) -0.1421(2) -0.15074(13)
O3 O -0.6733(3) -0.0220(3) -0.36501(17)
O4 O 0.0479(3) -0.6213(3) -0.14375(18)
C1 C -0.5247(4) -0.0069(3) -0.3168(2)
C2 C -0.4709(4) 0.0575(3) -0.2135(2)
C3 C -0.2745(4) 0.0189(3) -0.1871(2)
H1 H -0.2055 0.1053 -0.1427
C4 C -0.2066(3) -0.0071(3) -0.28602(19)
H2 H -0.1510 0.0950 -0.3029
C5 C -0.0642(3) -0.1436(3) -0.27273(19)
H3 H 0.0588 -0.0927 -0.2620
C6 C -0.0705(3) -0.2908(3) -0.35238(18)
C7 C 0.1134(4) -0.3737(4) -0.3344(2)
H4 H 0.2004 -0.3524 -0.3744
C8 C 0.1563(4) -0.4750(4) -0.2645(2)
H5 H 0.2714 -0.5229 -0.2563
C9 C 0.0233(4) -0.5121(4) -0.1997(2)
C10 C -0.1506(3) -0.4084(3) -0.21011(19)
C11 C -0.0980(3) -0.2221(3) -0.17817(19)
C12 C -0.2172(3) -0.4058(3) -0.32183(18)
H6 H -0.3346 -0.3486 -0.3302
C13 C -0.2444(4) -0.5721(3) -0.3780(2)
H7 H -0.1399 -0.6322 -0.3865
C14 C -0.4011(5) -0.6393(4) -0.4158(2)
H8 H -0.5089 -0.5834 -0.4089
H9 H -0.4059 -0.7436 -0.4497
C15 C -0.5874(4) 0.1345(3) -0.1609(2)
H10 H -0.7070 0.1453 -0.1919
C16 C -0.5453(5) 0.2039(4) -0.0587(2)
H11 H -0.6535 0.2525 -0.0382
H12 H -0.4505 0.2874 -0.0534
H13 H -0.5044 0.1173 -0.0176
C17 C -0.1075(4) -0.2447(4) -0.4582(2)
H14 H -0.0102 -0.1736 -0.4706
H15 H -0.2218 -0.1879 -0.4687
H16 H -0.1136 -0.3436 -0.5020
C18 C -0.2910(4) -0.4781(3) -0.1532(2)
H17 H -0.3170 -0.5923 -0.1758
H18 H -0.4017 -0.4159 -0.1633
H19 H -0.2429 -0.4702 -0.0846
C19 C 0.0551(4) -0.1953(4) -0.0925(2)
H20 H 0.0784 -0.0786 -0.0773
H21 H 0.1641 -0.2475 -0.1093
H22 H 0.0198 -0.2428 -0.0364
loop_
_geom_bond_atom_site_label_1
_geom_bond_atom_site_label_2
_geom_bond_site_symmetry_1
_geom_bond_site_symmetry_2
O1 C1 1_555 1_555
O2 C3 1_555 1_555
O3 C1 1_555 1_555
O4 C9 1_555 1_555
C1 C2 1_555 1_555
C2 C3 1_555 1_555
C3 H1 1_555 1_555
C4 O1 1_555 1_555
H2 C4 1_555 1_555
C5 C4 1_555 1_555
H3 C5 1_555 1_555
C6 C5 1_555 1_555
C7 C6 1_555 1_555
H4 C7 1_555 1_555
C8 C7 1_555 1_555
H5 C8 1_555 1_555
C9 C8 1_555 1_555
C10 C9 1_555 1_555
C11 O2 1_555 1_555
C12 C6 1_555 1_555
H6 C12 1_555 1_555
C13 C12 1_555 1_555
H7 C13 1_555 1_555
C14 C13 1_555 1_555
H8 C14 1_555 1_555
H9 C14 1_555 1_555
C15 C2 1_555 1_555
H10 C15 1_555 1_555
C16 C15 1_555 1_555
H11 C16 1_555 1_555
H12 C16 1_555 1_555
H13 C16 1_555 1_555
C17 C6 1_555 1_555
H14 C17 1_555 1_555
H15 C17 1_555 1_555
H16 C17 1_555 1_555
C18 C10 1_555 1_555
H17 C18 1_555 1_555
H18 C18 1_555 1_555
H19 C18 1_555 1_555
C19 C11 1_555 1_555
H20 C19 1_555 1_555
H21 C19 1_555 1_555
H22 C19 1_555 1_555
C3 C4 1_555 1_555
C5 C11 1_555 1_555
C10 C11 1_555 1_555
C10 C12 1_555 1_555

#END
