
#######################################################################
#
#                 Cambridge Crystallographic Data Centre
#                                CCDC 
#
#######################################################################
#
# If this CIF has been generated from an entry in the Cambridge 
# Structural Database, then it will include bibliographic, chemical, 
# crystal, experimental, refinement or atomic coordinate data resulting 
# from the CCDC's data processing and validation procedures.
#
#######################################################################

data_PUSNIC
_chemical_formula_moiety         'C38 H29 Cl4 N5 O8,C4 H8 O2'
_chemical_name_systematic        
'4,15,21,32-tetrachloro-39,39,41,41-tetramethoxy-38,40-dioxa-6,13,23,30,36-pentaazatridecacyclo[16.16.3.1^2,17^.1^4,15^.1^19,34^.1^21,32^.0^1,18^.0^3,16^.0^5,14^.0^7,12^.0^20,33^.0^22,31^.0^24,29^]hentetraconta-5(14),6,8,10,12,22(31),23,25,27,29-decaene-35,37-dione ethyl acetate solvate'
_symmetry_cell_setting           orthorhombic
_symmetry_space_group_name_H-M   'F d d 2'
_symmetry_Int_Tables_number      43
_space_group_name_Hall           'F 2 -2d'
loop_
_symmetry_equiv_pos_site_id
_symmetry_equiv_pos_as_xyz
1 x,y,z
2 -x,-y,z
3 1/4+x,1/4-y,1/4+z
4 1/4-x,1/4+y,1/4+z
5 x,1/2+y,1/2+z
6 -x,1/2-y,1/2+z
7 1/4+x,3/4-y,3/4+z
8 1/4-x,3/4+y,3/4+z
9 1/2+x,y,1/2+z
10 1/2-x,-y,1/2+z
11 3/4+x,1/4-y,3/4+z
12 3/4-x,1/4+y,3/4+z
13 1/2+x,1/2+y,z
14 1/2-x,1/2-y,z
15 3/4+x,3/4-y,1/4+z
16 3/4-x,3/4+y,1/4+z
_cell_length_a                   39.687(5)
_cell_length_b                   39.839(4)
_cell_length_c                   10.8206(12)
_cell_angle_alpha                90
_cell_angle_beta                 90
_cell_angle_gamma                90
_cell_volume                     17108.3
_exptl_crystal_colour            colorless
_exptl_crystal_description       chunk
_cell_formula_units_Z            16
loop_
_atom_site_label
_atom_site_type_symbol
_atom_site_fract_x
_atom_site_fract_y
_atom_site_fract_z
C1 C 0.53479(17) 0.84377(16) 0.1168(6)
C2 C 0.55090(19) 0.85407(19) 0.3109(7)
C3 C 0.5749(2) 0.8656(2) 0.3995(8)
H1 H 0.5945 0.8762 0.3729
C4 C 0.5695(3) 0.8611(3) 0.5216(9)
H2 H 0.5854 0.8682 0.5789
C5 C 0.5396(3) 0.8457(3) 0.5612(8)
H3 H 0.5359 0.8430 0.6455
C6 C 0.5163(2) 0.8347(2) 0.4817(7)
H4 H 0.4967 0.8246 0.5109
C7 C 0.52135(18) 0.83857(19) 0.3521(6)
C8 C 0.50549(15) 0.82860(15) 0.1591(6)
C9 C 0.48755(15) 0.81472(15) 0.0476(6)
C10 C 0.47387(16) 0.84320(15) -0.0357(5)
H5 H 0.4601 0.8343 -0.1034
C11 C 0.45661(16) 0.87269(15) 0.0287(6)
H6 H 0.4405 0.8659 0.0926
C12 C 0.44154(14) 0.89685(14) -0.0693(5)
C13 C 0.42201(16) 0.92760(16) -0.0182(6)
H7 H 0.4053 0.9218 0.0450
C14 C 0.40790(15) 0.94846(15) -0.1225(6)
H8 H 0.3967 0.9344 -0.1846
C15 C 0.38628(14) 0.97916(15) -0.0886(6)
C16 C 0.40221(16) 0.99746(14) 0.0181(6)
C17 C 0.41565(17) 1.01740(18) 0.2047(6)
C18 C 0.40866(19) 1.0209(2) 0.3306(7)
H9 H 0.3892 1.0115 0.3635
C19 C 0.4302(3) 1.0381(3) 0.4055(8)
H10 H 0.4253 1.0399 0.4893
C20 C 0.4591(2) 1.0529(2) 0.3601(8)
H11 H 0.4731 1.0650 0.4127
C21 C 0.4674(2) 1.04976(19) 0.2353(7)
H12 H 0.4873 1.0588 0.2039
C22 C 0.44443(17) 1.03227(17) 0.1579(6)
C23 C 0.43179(16) 1.01281(14) -0.0308(6)
C24 C 0.39440(16) 1.00379(15) -0.1965(6)
C25 C 0.43312(15) 1.00295(15) -0.1643(6)
C26 C 0.44078(15) 0.96512(15) -0.1757(6)
H13 H 0.4450 0.9585 -0.2615
C27 C 0.46752(14) 0.95088(16) -0.0873(6)
H14 H 0.4880 0.9645 -0.0818
C28 C 0.47405(15) 0.91338(13) -0.1181(5)
C29 C 0.50182(14) 0.89614(15) -0.0406(6)
H15 H 0.5227 0.9091 -0.0344
C30 C 0.50693(14) 0.86016(15) -0.0849(6)
H16 H 0.5086 0.8589 -0.1752
C31 C 0.53506(15) 0.83963(16) -0.0210(6)
C32 C 0.51876(18) 0.80320(16) -0.0300(7)
C33 C 0.5664(2) 0.7665(2) 0.0039(9)
H17 H 0.5646 0.7543 -0.0724
H18 H 0.5754 0.7519 0.0666
H19 H 0.5813 0.7853 -0.0072
C34 C 0.4979(3) 0.7644(2) -0.1787(9)
H20 H 0.5092 0.7465 -0.1362
H21 H 0.4986 0.7604 -0.2662
H22 H 0.4749 0.7656 -0.1519
C35 C 0.3825(2) 1.0617(2) -0.2538(8)
H23 H 0.4031 1.0726 -0.2310
H24 H 0.3641 1.0772 -0.2454
H25 H 0.3839 1.0542 -0.3380
C36 C 0.35652(18) 0.9861(2) -0.3626(7)
H26 H 0.3457 0.9690 -0.3144
H27 H 0.3576 0.9791 -0.4474
H28 H 0.3439 1.0066 -0.3568
C37 C 0.47470(16) 0.90492(15) -0.2579(6)
C38 C 0.42502(17) 0.88006(15) -0.1790(6)
Cl1 Cl 0.57450(4) 0.84653(5) -0.09436(17)
Cl2 Cl 0.45614(4) 0.78496(4) 0.08344(18)
Cl3 Cl 0.34313(4) 0.96875(4) -0.06395(16)
Cl4 Cl 0.45976(4) 1.02836(4) -0.25779(14)
N1 N 0.55846(13) 0.85667(14) 0.1861(5)
N2 N 0.49681(14) 0.82602(15) 0.2740(5)
N3 N 0.39308(13) 0.99918(14) 0.1327(5)
N4 N 0.45366(14) 1.03005(13) 0.0322(5)
N5 N 0.44564(14) 0.88547(13) -0.2798(5)
H29 H 0.4410 0.8775 -0.3516
O1 O 0.48470(10) 0.89163(10) 0.0756(4)
O2 O 0.44921(10) 0.94820(10) 0.0273(4)
O3 O 0.53393(12) 0.77816(12) 0.0406(4)
O4 O 0.51446(13) 0.79532(11) -0.1520(4)
O5 O 0.37689(11) 1.03296(10) -0.1734(4)
O6 O 0.39054(11) 0.99161(12) -0.3160(4)
O7 O 0.49425(12) 0.91331(12) -0.3349(4)
O8 O 0.39906(11) 0.86444(12) -0.1794(4)
O9 O 0.4235(2) 0.8566(2) 0.4954(7)
O10 O 0.4214(2) 0.8820(2) 0.3164(7)
C39 C 0.3921(4) 0.8337(3) 0.3294(11)
H30 H 0.4030 0.8122 0.3275
H31 H 0.3880 0.8412 0.2465
H32 H 0.3710 0.8319 0.3727
C40 C 0.4138(3) 0.8580(3) 0.3931(9)
C41 C 0.4464(4) 0.9083(4) 0.3631(13)
H33 H 0.4606 0.8999 0.4290
H34 H 0.4601 0.9176 0.2974
C42 C 0.4205(7) 0.9325(4) 0.409(2)
H35 H 0.4035 0.9355 0.3464
H36 H 0.4310 0.9537 0.4258
H37 H 0.4104 0.9239 0.4826
loop_
_geom_bond_atom_site_label_1
_geom_bond_atom_site_label_2
_geom_bond_site_symmetry_1
_geom_bond_site_symmetry_2
C1 C8 1_555 1_555
C2 C3 1_555 1_555
C3 H1 1_555 1_555
C4 C3 1_555 1_555
H2 C4 1_555 1_555
C5 C4 1_555 1_555
H3 C5 1_555 1_555
C6 C5 1_555 1_555
H4 C6 1_555 1_555
C7 C2 1_555 1_555
C8 C9 1_555 1_555
C9 C10 1_555 1_555
C10 H5 1_555 1_555
C11 C10 1_555 1_555
H6 C11 1_555 1_555
C12 C11 1_555 1_555
C13 C12 1_555 1_555
H7 C13 1_555 1_555
C14 C13 1_555 1_555
H8 C14 1_555 1_555
C15 C14 1_555 1_555
C16 C15 1_555 1_555
C17 C18 1_555 1_555
C18 H9 1_555 1_555
C19 C18 1_555 1_555
H10 C19 1_555 1_555
C20 C19 1_555 1_555
H11 C20 1_555 1_555
C21 C20 1_555 1_555
H12 C21 1_555 1_555
C22 C17 1_555 1_555
C23 C16 1_555 1_555
C24 C15 1_555 1_555
C25 C23 1_555 1_555
C26 C14 1_555 1_555
H13 C26 1_555 1_555
C27 C26 1_555 1_555
H14 C27 1_555 1_555
C28 C12 1_555 1_555
C29 C28 1_555 1_555
H15 C29 1_555 1_555
C30 C10 1_555 1_555
H16 C30 1_555 1_555
C31 C1 1_555 1_555
C32 C9 1_555 1_555
C33 H17 1_555 1_555
H18 C33 1_555 1_555
H19 C33 1_555 1_555
C34 H20 1_555 1_555
H21 C34 1_555 1_555
H22 C34 1_555 1_555
C35 H23 1_555 1_555
H24 C35 1_555 1_555
H25 C35 1_555 1_555
C36 H26 1_555 1_555
H27 C36 1_555 1_555
H28 C36 1_555 1_555
C37 C28 1_555 1_555
C38 C12 1_555 1_555
Cl1 C31 1_555 1_555
Cl2 C9 1_555 1_555
Cl3 C15 1_555 1_555
Cl4 C25 1_555 1_555
N1 C1 1_555 1_555
N2 C7 1_555 1_555
N3 C16 1_555 1_555
N4 C22 1_555 1_555
N5 C37 1_555 1_555
H29 N5 1_555 1_555
O1 C11 1_555 1_555
O2 C13 1_555 1_555
O3 C32 1_555 1_555
O4 C32 1_555 1_555
O5 C24 1_555 1_555
O6 C24 1_555 1_555
O7 C37 1_555 1_555
O8 C38 1_555 1_555
O9 C40 1_555 1_555
O10 C40 1_555 1_555
C39 H30 1_555 1_555
H31 C39 1_555 1_555
H32 C39 1_555 1_555
C40 C39 1_555 1_555
C41 O10 1_555 1_555
H33 C41 1_555 1_555
H34 C41 1_555 1_555
C42 C41 1_555 1_555
H35 C42 1_555 1_555
H36 C42 1_555 1_555
H37 C42 1_555 1_555
C2 N1 1_555 1_555
C6 C7 1_555 1_555
C8 N2 1_555 1_555
C17 N3 1_555 1_555
C21 C22 1_555 1_555
C23 N4 1_555 1_555
C24 C25 1_555 1_555
C25 C26 1_555 1_555
C27 C28 1_555 1_555
C27 O2 1_555 1_555
C29 C30 1_555 1_555
C29 O1 1_555 1_555
C30 C31 1_555 1_555
C31 C32 1_555 1_555
C33 O3 1_555 1_555
C34 O4 1_555 1_555
C35 O5 1_555 1_555
C36 O6 1_555 1_555
C38 N5 1_555 1_555

#END
