
#######################################################################
#
#                 Cambridge Crystallographic Data Centre
#                                CCDC 
#
#######################################################################
#
# If this CIF has been generated from an entry in the Cambridge 
# Structural Database, then it will include bibliographic, chemical, 
# crystal, experimental, refinement or atomic coordinate data resulting 
# from the CCDC's data processing and validation procedures.
#
#######################################################################

data_PUSQAX
_chemical_formula_moiety         'C30 H38 N6 O2'
_chemical_name_systematic        
2,3-bis((2-butoxy-4-(dimethylamino)benzylidene)amino)but-2-enedinitrile
_symmetry_cell_setting           triclinic
_symmetry_space_group_name_H-M   'P -1'
_symmetry_Int_Tables_number      2
_space_group_name_Hall           '-P 1'
loop_
_symmetry_equiv_pos_site_id
_symmetry_equiv_pos_as_xyz
1 x,y,z
2 -x,-y,-z
_cell_length_a                   8.5720(3)
_cell_length_b                   9.4914(3)
_cell_length_c                   10.6283(3)
_cell_angle_alpha                115.2669(12)
_cell_angle_beta                 98.1638(14)
_cell_angle_gamma                102.7069(14)
_cell_volume                     735.063
_exptl_crystal_colour            purple
_exptl_crystal_description       needle
_cell_formula_units_Z            1
loop_
_atom_site_label
_atom_site_type_symbol
_atom_site_fract_x
_atom_site_fract_y
_atom_site_fract_z
O1 O 0.3618(3) 0.1789(3) 0.9619(3)
N1 N 0.9424(4) 0.3497(4) 1.1908(4)
N2 N 0.7764(3) 0.4284(3) 0.9195(3)
N3 N 0.0098(4) 0.2206(4) 0.5907(3)
C1 C 0.9422(4) 0.4013(4) 1.1125(4)
C2 C 0.9278(4) 0.4583(4) 1.0071(3)
C3 C 0.6410(4) 0.3533(4) 0.9350(4)
C4 C 0.4817(4) 0.3183(4) 0.8464(3)
C5 C 0.4608(4) 0.3716(4) 0.7429(4)
C6 C 0.3078(4) 0.3429(4) 0.6613(4)
C7 C 0.1623(4) 0.2539(4) 0.6747(4)
C8 C 0.1811(4) 0.1980(4) 0.7788(3)
C9 C 0.3370(4) 0.2301(4) 0.8614(3)
C10 C 0.2248(5) 0.1021(5) 0.9975(4)
C11 C 0.2971(5) 0.0584(6) 1.1084(5)
C12 C 0.4089(7) 0.2028(7) 1.2454(5)
C13 C 0.4980(6) 0.1580(7) 1.3454(5)
C14 C -0.0074(5) 0.2792(5) 0.4843(5)
C15 C -0.1394(5) 0.1369(5) 0.6084(4)
H1 H 0.6479 0.3211 1.0064
H2 H 0.5544 0.4285 0.7292
H3 H 0.2996 0.3831 0.5955
H4 H 0.0878 0.1394 0.7914
H5 H 0.1514 0.0043 0.9123
H6 H 0.1621 0.1766 1.0366
H7 H 0.2069 0.0004 1.1313
H8 H 0.3591 -0.0159 1.0667
H9 H 0.4897 0.2696 1.2215
H10 H 0.3433 0.2689 1.2944
H11 H 0.5684 0.0979 1.2998
H12 H 0.4191 0.0912 1.3692
H13 H 0.5644 0.2559 1.4319
H14 H 0.0733 0.3850 0.5215
H15 H -0.1169 0.2877 0.4649
H16 H 0.0099 0.2034 0.3967
H17 H -0.2334 0.1470 0.5560
H18 H -0.1361 0.1845 0.7090
H19 H -0.1487 0.0229 0.5721
O1A O 1.6382(3) 0.8211(3) 1.0381(3)
N1A N 1.0576(4) 0.6503(4) 0.8092(4)
N2A N 1.2236(3) 0.5716(3) 1.0805(3)
N3A N 1.9902(4) 0.7794(4) 1.4093(3)
C1A C 1.0578(4) 0.5987(4) 0.8875(4)
C2A C 1.0722(4) 0.5417(4) 0.9929(3)
C3A C 1.3590(4) 0.6467(4) 1.0650(4)
C4A C 1.5183(4) 0.6817(4) 1.1536(3)
C5A C 1.5392(4) 0.6284(4) 1.2571(4)
C6A C 1.6922(4) 0.6571(4) 1.3387(4)
C7A C 1.8377(4) 0.7461(4) 1.3253(4)
C8A C 1.8189(4) 0.8020(4) 1.2212(3)
C9A C 1.6630(4) 0.7699(4) 1.1386(3)
C10A C 1.7752(5) 0.8979(5) 1.0025(4)
C11A C 1.7029(5) 0.9416(6) 0.8916(5)
C12A C 1.5911(7) 0.7972(7) 0.7546(5)
C13A C 1.5020(6) 0.8420(7) 0.6546(5)
C14A C 2.0074(5) 0.7208(5) 1.5157(5)
C15A C 2.1394(5) 0.8631(5) 1.3916(4)
H1A H 1.3521 0.6789 0.9936
H2A H 1.4456 0.5715 1.2708
H3A H 1.7004 0.6169 1.4045
H4A H 1.9122 0.8606 1.2086
H5A H 1.8486 0.9957 1.0877
H6A H 1.8379 0.8234 0.9634
H7A H 1.7931 0.9996 0.8687
H8A H 1.6409 1.0159 0.9333
H9A H 1.5103 0.7304 0.7785
H10A H 1.6567 0.7311 0.7056
H11A H 1.4316 0.9021 0.7002
H12A H 1.5809 0.9088 0.6308
H13A H 1.4356 0.7441 0.5681
H14A H 1.9267 0.6150 1.4785
H15A H 2.1169 0.7123 1.5351
H16A H 1.9901 0.7966 1.6033
H17A H 2.2334 0.8530 1.4440
H18A H 2.1361 0.8155 1.2910
H19A H 2.1487 0.9771 1.4279
loop_
_geom_bond_atom_site_label_1
_geom_bond_atom_site_label_2
_geom_bond_site_symmetry_1
_geom_bond_site_symmetry_2
O1 C9 1_555 1_555
N1 C1 1_555 1_555
N2 C2 1_555 1_555
N3 C7 1_555 1_555
C1 C2 1_555 1_555
C2 C2A 1_555 1_555
C3 N2 1_555 1_555
C4 C3 1_555 1_555
C5 C4 1_555 1_555
C6 C5 1_555 1_555
C7 C6 1_555 1_555
C8 C7 1_555 1_555
C9 C4 1_555 1_555
C10 O1 1_555 1_555
C11 C10 1_555 1_555
C12 C11 1_555 1_555
C13 C12 1_555 1_555
C14 N3 1_555 1_555
C15 N3 1_555 1_555
H1 C3 1_555 1_555
H2 C5 1_555 1_555
H3 C6 1_555 1_555
H4 C8 1_555 1_555
H5 C10 1_555 1_555
H6 C10 1_555 1_555
H7 C11 1_555 1_555
H8 C11 1_555 1_555
H9 C12 1_555 1_555
H10 C12 1_555 1_555
H11 C13 1_555 1_555
H12 C13 1_555 1_555
H13 C13 1_555 1_555
H14 C14 1_555 1_555
H15 C14 1_555 1_555
H16 C14 1_555 1_555
H17 C15 1_555 1_555
H18 C15 1_555 1_555
H19 C15 1_555 1_555
O1A C9A 1_555 1_555
N1A C1A 1_555 1_555
N2A C2A 1_555 1_555
N3A C7A 1_555 1_555
C1A C2A 1_555 1_555
C3A N2A 1_555 1_555
C4A C3A 1_555 1_555
C5A C4A 1_555 1_555
C6A C5A 1_555 1_555
C7A C6A 1_555 1_555
C8A C7A 1_555 1_555
C9A C4A 1_555 1_555
C10A O1A 1_555 1_555
C11A C10A 1_555 1_555
C12A C11A 1_555 1_555
C13A C12A 1_555 1_555
C14A N3A 1_555 1_555
C15A N3A 1_555 1_555
H1A C3A 1_555 1_555
H2A C5A 1_555 1_555
H3A C6A 1_555 1_555
H4A C8A 1_555 1_555
H5A C10A 1_555 1_555
H6A C10A 1_555 1_555
H7A C11A 1_555 1_555
H8A C11A 1_555 1_555
H9A C12A 1_555 1_555
H10A C12A 1_555 1_555
H11A C13A 1_555 1_555
H12A C13A 1_555 1_555
H13A C13A 1_555 1_555
H14A C14A 1_555 1_555
H15A C14A 1_555 1_555
H16A C14A 1_555 1_555
H17A C15A 1_555 1_555
H18A C15A 1_555 1_555
H19A C15A 1_555 1_555
C8 C9 1_555 1_555
C8A C9A 1_555 1_555

#END
