
#######################################################################
#
#                 Cambridge Crystallographic Data Centre
#                                CCDC 
#
#######################################################################
#
# If this CIF has been generated from an entry in the Cambridge 
# Structural Database, then it will include bibliographic, chemical, 
# crystal, experimental, refinement or atomic coordinate data resulting 
# from the CCDC's data processing and validation procedures.
#
#######################################################################

data_PUSQEB
_chemical_formula_moiety         'C32 H42 N6 O2'
_chemical_name_systematic        
2,3-bis((4-(dimethylamino)-2-(pentoxy)benzylidene)amino)but-2-enedinitrile
_symmetry_cell_setting           triclinic
_symmetry_space_group_name_H-M   'P -1'
_symmetry_Int_Tables_number      2
_space_group_name_Hall           '-P 1'
loop_
_symmetry_equiv_pos_site_id
_symmetry_equiv_pos_as_xyz
1 x,y,z
2 -x,-y,-z
_cell_length_a                   8.4017(2)
_cell_length_b                   10.0488(3)
_cell_length_c                   10.0892(3)
_cell_angle_alpha                95.1228(12)
_cell_angle_beta                 102.0454(13)
_cell_angle_gamma                108.3491(12)
_cell_volume                     779.592
_exptl_crystal_colour            purple
_exptl_crystal_description       block
_cell_formula_units_Z            1
loop_
_atom_site_label
_atom_site_type_symbol
_atom_site_fract_x
_atom_site_fract_y
_atom_site_fract_z
O1 O 0.90589(17) 0.05264(16) 0.19660(13)
N1 N 1.3395(3) -0.1537(2) 0.21233(18)
N2 N 1.3280(2) 0.07654(16) 0.48435(15)
N3 N 0.7482(3) 0.36702(18) 0.49175(17)
C1 C 1.3821(3) -0.0896(2) 0.3197(2)
C2 C 1.4271(3) -0.00206(18) 0.45312(17)
C3 C 1.1891(3) 0.06830(19) 0.39436(18)
C4 C 1.0798(3) 0.14667(18) 0.41933(17)
C5 C 1.1077(3) 0.2303(2) 0.54686(18)
C6 C 1.0006(3) 0.3015(2) 0.57223(18)
C7 C 0.8546(3) 0.29494(19) 0.46857(19)
C8 C 0.8238(3) 0.21115(19) 0.34056(18)
C9 C 0.9318(3) 0.13750(19) 0.31722(17)
C10 C 0.7421(3) 0.0100(3) 0.0978(2)
C11 C 0.7378(3) -0.1084(3) -0.0070(2)
C12 C 0.7553(4) -0.2372(3) 0.0530(3)
C13 C 0.7530(5) -0.3570(3) -0.0487(3)
C14 C 0.7748(6) -0.4812(4) 0.0139(4)
C15 C 0.7742(4) 0.4509(3) 0.6245(3)
C16 C 0.6071(3) 0.3698(3) 0.3827(3)
H1 H 1.1593 0.0091 0.3102
H2 H 1.2031 0.2374 0.6168
H3 H 1.0237 0.3550 0.6585
H4 H 0.7291 0.2052 0.2704
H5 H 0.7295 0.0894 0.0539
H6 H 0.6484 -0.0228 0.1423
H7 H 0.8310 -0.0727 -0.0513
H8 H 0.6293 -0.1372 -0.0769
H9 H 0.8630 -0.2076 0.1237
H10 H 0.6615 -0.2727 0.0969
H11 H 0.6440 -0.3888 -0.1182
H12 H 0.8451 -0.3215 -0.0942
H13 H 0.8900 -0.4547 0.0715
H14 H 0.7558 -0.5584 -0.0575
H15 H 0.6924 -0.5103 0.0681
H16 H 0.7797 0.3928 0.6946
H17 H 0.6794 0.4853 0.6228
H18 H 0.8805 0.5300 0.6437
H19 H 0.6501 0.3972 0.3046
H20 H 0.5579 0.4371 0.4143
H21 H 0.5199 0.2770 0.3569
O1A O 2.09411(17) -0.05264(16) 0.80340(13)
N1A N 1.6605(3) 0.1537(2) 0.78767(18)
N2A N 1.6720(2) -0.07654(16) 0.51565(15)
N3A N 2.2518(3) -0.36702(18) 0.50825(17)
C1A C 1.6179(3) 0.0896(2) 0.6803(2)
C2A C 1.5729(3) 0.00206(18) 0.54688(17)
C3A C 1.8109(3) -0.06830(19) 0.60564(18)
C4A C 1.9202(3) -0.14667(18) 0.58067(17)
C5A C 1.8923(3) -0.2303(2) 0.45314(18)
C6A C 1.9994(3) -0.3015(2) 0.42777(18)
C7A C 2.1454(3) -0.29494(19) 0.53143(19)
C8A C 2.1762(3) -0.21115(19) 0.65944(18)
C9A C 2.0682(3) -0.13750(19) 0.68278(17)
C10A C 2.2579(3) -0.0100(3) 0.9022(2)
C11A C 2.2622(3) 0.1084(3) 1.0070(2)
C12A C 2.2447(4) 0.2372(3) 0.9470(3)
C13A C 2.2470(5) 0.3570(3) 1.0487(3)
C14A C 2.2252(6) 0.4812(4) 0.9861(4)
C15A C 2.2258(4) -0.4509(3) 0.3755(3)
C16A C 2.3929(3) -0.3698(3) 0.6173(3)
H1A H 1.8407 -0.0091 0.6898
H2A H 1.7969 -0.2374 0.3832
H3A H 1.9763 -0.3550 0.3415
H4A H 2.2709 -0.2052 0.7296
H5A H 2.2705 -0.0894 0.9461
H6A H 2.3516 0.0228 0.8577
H7A H 2.1690 0.0727 1.0513
H8A H 2.3707 0.1372 1.0769
H9A H 2.1370 0.2076 0.8763
H10A H 2.3385 0.2727 0.9031
H11A H 2.3560 0.3888 1.1182
H12A H 2.1549 0.3215 1.0942
H13A H 2.1100 0.4547 0.9285
H14A H 2.2442 0.5584 1.0575
H15A H 2.3076 0.5103 0.9319
H16A H 2.2203 -0.3928 0.3054
H17A H 2.3206 -0.4853 0.3772
H18A H 2.1195 -0.5300 0.3563
H19A H 2.3499 -0.3972 0.6954
H20A H 2.4421 -0.4371 0.5857
H21A H 2.4801 -0.2770 0.6431
loop_
_geom_bond_atom_site_label_1
_geom_bond_atom_site_label_2
_geom_bond_site_symmetry_1
_geom_bond_site_symmetry_2
O1 C9 1_555 1_555
N1 C1 1_555 1_555
N2 C2 1_555 1_555
N3 C7 1_555 1_555
C1 C2 1_555 1_555
C2 C2A 1_555 1_555
C3 N2 1_555 1_555
C4 C3 1_555 1_555
C5 C4 1_555 1_555
C6 C5 1_555 1_555
C7 C6 1_555 1_555
C8 C7 1_555 1_555
C9 C4 1_555 1_555
C10 O1 1_555 1_555
C11 C10 1_555 1_555
C12 C11 1_555 1_555
C13 C12 1_555 1_555
C14 C13 1_555 1_555
C15 N3 1_555 1_555
C16 N3 1_555 1_555
H1 C3 1_555 1_555
H2 C5 1_555 1_555
H3 C6 1_555 1_555
H4 C8 1_555 1_555
H5 C10 1_555 1_555
H6 C10 1_555 1_555
H7 C11 1_555 1_555
H8 C11 1_555 1_555
H9 C12 1_555 1_555
H10 C12 1_555 1_555
H11 C13 1_555 1_555
H12 C13 1_555 1_555
H13 C14 1_555 1_555
H14 C14 1_555 1_555
H15 C14 1_555 1_555
H16 C15 1_555 1_555
H17 C15 1_555 1_555
H18 C15 1_555 1_555
H19 C16 1_555 1_555
H20 C16 1_555 1_555
H21 C16 1_555 1_555
O1A C9A 1_555 1_555
N1A C1A 1_555 1_555
N2A C2A 1_555 1_555
N3A C7A 1_555 1_555
C1A C2A 1_555 1_555
C3A N2A 1_555 1_555
C4A C3A 1_555 1_555
C5A C4A 1_555 1_555
C6A C5A 1_555 1_555
C7A C6A 1_555 1_555
C8A C7A 1_555 1_555
C9A C4A 1_555 1_555
C10A O1A 1_555 1_555
C11A C10A 1_555 1_555
C12A C11A 1_555 1_555
C13A C12A 1_555 1_555
C14A C13A 1_555 1_555
C15A N3A 1_555 1_555
C16A N3A 1_555 1_555
H1A C3A 1_555 1_555
H2A C5A 1_555 1_555
H3A C6A 1_555 1_555
H4A C8A 1_555 1_555
H5A C10A 1_555 1_555
H6A C10A 1_555 1_555
H7A C11A 1_555 1_555
H8A C11A 1_555 1_555
H9A C12A 1_555 1_555
H10A C12A 1_555 1_555
H11A C13A 1_555 1_555
H12A C13A 1_555 1_555
H13A C14A 1_555 1_555
H14A C14A 1_555 1_555
H15A C14A 1_555 1_555
H16A C15A 1_555 1_555
H17A C15A 1_555 1_555
H18A C15A 1_555 1_555
H19A C16A 1_555 1_555
H20A C16A 1_555 1_555
H21A C16A 1_555 1_555
C8 C9 1_555 1_555
C8A C9A 1_555 1_555

#END
