
#######################################################################
#
#                 Cambridge Crystallographic Data Centre
#                                CCDC 
#
#######################################################################
#
# If this CIF has been generated from an entry in the Cambridge 
# Structural Database, then it will include bibliographic, chemical, 
# crystal, experimental, refinement or atomic coordinate data resulting 
# from the CCDC's data processing and validation procedures.
#
#######################################################################

data_PUSTOO
_chemical_formula_moiety         'C57 H37 Cl4 N5 O12,2(C2 H3 N1)'
_chemical_name_systematic        
'4,19,25,40-tetrachloro-47,47,49,49-tetramethoxy-44-(2-naphthylmethyl)-46,48-dioxa-6,17,27,38,44-pentaazapentadecacyclo[20.20.3.1^2,21^.1^4,19^.1^23,42^.1^25,40^.0^1,22^.0^3,20^.0^5,18^.0^7,16^.0^9,14^.0^24,41^.0^26,39^.0^28,37^.0^30,35^]nonatetraconta-5(18),6,9,11,13,16,26(39),27,30,32,34,37-dodecaene-8,15,29,36,43,45-hexone acetonitrile solvate'
_symmetry_cell_setting           monoclinic
_symmetry_space_group_name_H-M   'P 21/c'
_symmetry_Int_Tables_number      14
_space_group_name_Hall           '-P 2ybc'
loop_
_symmetry_equiv_pos_site_id
_symmetry_equiv_pos_as_xyz
1 x,y,z
2 -x,1/2+y,1/2-z
3 -x,-y,-z
4 x,1/2-y,1/2+z
_cell_length_a                   11.2273(5)
_cell_length_b                   41.0968(19)
_cell_length_c                   14.4557(7)
_cell_angle_alpha                90
_cell_angle_beta                 111.5100(10)
_cell_angle_gamma                90
_cell_volume                     6205.41
_cell_formula_units_Z            4
loop_
_atom_site_label
_atom_site_type_symbol
_atom_site_fract_x
_atom_site_fract_y
_atom_site_fract_z
C1 C 0.3412(4) 0.11946(12) 0.9218(3)
C2 C 0.2601(5) 0.06925(14) 0.9123(4)
C3 C 0.1470(6) 0.04821(16) 0.9069(5)
C4 C 0.1645(7) 0.01274(16) 0.9023(4)
C5 C 0.0680(8) -0.00796(18) 0.9052(5)
H1 H -0.0062 0.0006 0.9101
C6 C 0.0826(11) -0.0411(2) 0.9008(6)
H2 H 0.0167 -0.0547 0.9017
C7 C 0.1891(10) -0.05444(19) 0.8954(5)
H3 H 0.1972 -0.0770 0.8949
C8 C 0.2873(8) -0.03476(17) 0.8905(5)
H4 H 0.3593 -0.0439 0.8834
C9 C 0.2754(7) -0.00054(14) 0.8965(4)
C10 C 0.3820(6) 0.02055(14) 0.8934(4)
C11 C 0.3684(5) 0.05636(12) 0.9037(4)
C12 C 0.4518(4) 0.10579(12) 0.9106(3)
C13 C 0.3578(4) 0.15547(12) 0.9226(3)
C14 C 0.5066(5) 0.15787(12) 0.9805(3)
C15 C 0.5368(4) 0.13408(11) 0.9058(3)
C16 C 0.4704(4) 0.15219(11) 0.8058(3)
H5 H 0.5256 0.1690 0.7946
C17 C 0.4125(4) 0.13000(10) 0.7149(3)
H6 H 0.4688 0.1123 0.7109
C18 C 0.3562(4) 0.15089(10) 0.6182(3)
C19 C 0.2964(4) 0.13053(10) 0.5215(3)
H7 H 0.3519 0.1130 0.5145
C20 C 0.2477(4) 0.15338(11) 0.4318(3)
H8 H 0.3097 0.1706 0.4353
C21 C 0.1979(4) 0.13617(12) 0.3279(3)
C22 C 0.0844(5) 0.16031(13) 0.2687(4)
C23 C 0.0154(4) 0.15581(11) 0.3457(3)
C24 C 0.1223(4) 0.16737(11) 0.4417(3)
H9 H 0.1249 0.1911 0.4475
C25 C 0.1258(4) 0.15082(10) 0.5379(3)
H10 H 0.0426 0.1499 0.5455
C26 C 0.2357(4) 0.16540(10) 0.6293(3)
C27 C 0.2414(4) 0.15061(11) 0.7293(3)
H11 H 0.1585 0.1498 0.7374
C28 C 0.3486(4) 0.16694(11) 0.8166(3)
H12 H 0.3464 0.1907 0.8106
C29 C 0.0085(4) 0.11896(11) 0.3444(3)
C30 C -0.0513(5) 0.06818(12) 0.3575(3)
C31 C -0.1492(5) 0.04478(13) 0.3681(4)
C32 C -0.1225(5) 0.00994(13) 0.3685(4)
C33 C -0.2129(6) -0.01211(14) 0.3763(5)
H13 H -0.2875 -0.0046 0.3828
C34 C -0.1912(7) -0.04511(15) 0.3744(5)
H14 H -0.2533 -0.0596 0.3771
C35 C -0.0832(8) -0.05660(15) 0.3687(6)
H15 H -0.0707 -0.0790 0.3693
C36 C 0.0138(7) -0.03544(14) 0.3616(5)
H16 H 0.0896 -0.0434 0.3582
C37 C -0.0111(6) -0.00162(12) 0.3601(4)
C38 C 0.0890(5) 0.02084(13) 0.3530(4)
C39 C 0.0602(5) 0.05608(12) 0.3473(4)
C40 C 0.1212(4) 0.10703(11) 0.3338(3)
C41 C 0.5302(7) 0.1573(2) 1.1539(5)
H17 H 0.5325 0.1806 1.1481
H18 H 0.5941 0.1506 1.2159
H19 H 0.4472 0.1508 1.1519
C42 C 0.6779(6) 0.19696(18) 1.0288(5)
H20 H 0.6931 0.2078 1.0909
H21 H 0.7042 0.2108 0.9862
H22 H 0.7259 0.1771 1.0407
C43 C 0.0477(8) 0.1495(3) 0.0963(5)
H23 H 0.1059 0.1673 0.1033
H24 H -0.0233 0.1515 0.0343
H25 H 0.0912 0.1293 0.0976
C44 C 0.0530(8) 0.21765(18) 0.2289(7)
H26 H -0.0118 0.2118 0.1664
H27 H 0.1007 0.2359 0.2195
H28 H 0.0134 0.2234 0.2753
C45 C 0.4351(4) 0.17930(11) 0.6099(3)
C46 C 0.2557(4) 0.20213(10) 0.6289(3)
C47 C 0.4184(5) 0.24039(11) 0.6086(4)
H29 H 0.3479 0.2556 0.5815
H30 H 0.4656 0.2399 0.5644
C48 C 0.5054(5) 0.25187(11) 0.7102(4)
C49 C 0.4539(5) 0.27238(13) 0.7671(4)
H31 H 0.3684 0.2787 0.7415
C50 C 0.5330(6) 0.28251(14) 0.8595(5)
H32 H 0.4999 0.2956 0.8969
C51 C 0.6623(5) 0.27368(12) 0.8990(4)
C52 C 0.7469(6) 0.28400(14) 0.9969(4)
H33 H 0.7153 0.2973 1.0348
C53 C 0.8683(6) 0.27482(16) 1.0333(5)
H34 H 0.9214 0.2819 1.0959
C54 C 0.9183(6) 0.25408(17) 0.9769(5)
H35 H 1.0036 0.2476 1.0030
C55 C 0.8411(6) 0.24383(15) 0.8851(5)
H36 H 0.8739 0.2304 0.8484
C56 C 0.7122(5) 0.25347(12) 0.8452(4)
C57 C 0.6286(5) 0.24302(12) 0.7473(4)
H37 H 0.6610 0.2299 0.7096
Cl1 Cl 0.25726(14) 0.17837(4) 0.96714(11)
Cl2 Cl 0.69578(11) 0.12335(4) 0.93087(10)
Cl3 Cl -0.13342(12) 0.17454(3) 0.31881(10)
Cl4 Cl 0.31989(14) 0.13003(4) 0.28228(11)
N1 N 0.2431(4) 0.10197(12) 0.9213(3)
N2 N 0.4686(4) 0.07462(10) 0.9018(3)
N3 N -0.0788(4) 0.10025(10) 0.3557(3)
N4 N 0.1504(4) 0.07627(10) 0.3359(3)
N5 N 0.3674(4) 0.20770(9) 0.6142(3)
O1 O 0.0518(5) 0.05998(14) 0.9081(6)
O2 O 0.4768(5) 0.00954(12) 0.8822(5)
O3 O 0.5554(4) 0.14236(10) 1.0730(2)
O4 O 0.5433(3) 0.18980(9) 0.9817(3)
O5 O -0.2457(4) 0.05539(11) 0.3745(4)
O6 O 0.1885(5) 0.01091(11) 0.3486(5)
O7 O 0.0015(4) 0.15023(11) 0.1770(3)
O8 O 0.1385(4) 0.19039(9) 0.2673(3)
O9 O 0.2954(3) 0.11929(7) 0.7259(2)
O10 O 0.1792(3) 0.11922(7) 0.5299(2)
O11 O 0.1866(3) 0.22313(8) 0.6382(3)
O12 O 0.5367(3) 0.17879(9) 0.5984(3)
C58 C 0.7177(15) 0.0436(4) 0.8020(16)
H38 H 0.6911 0.0343 0.8522
H39 H 0.7675 0.0628 0.8278
H40 H 0.7685 0.0281 0.7831
C59 C 0.604(2) 0.0523(5) 0.714(2)
N6 N 0.515(2) 0.0594(7) 0.649(2)
C60 C 0.7718(16) 0.1173(4) 0.5273(12)
C61 C 0.6574(14) 0.1227(3) 0.4527(11)
H41 H 0.6386 0.1456 0.4486
H42 H 0.5914 0.1110 0.4660
H43 H 0.6615 0.1154 0.3908
N7 N 0.8818(12) 0.1221(4) 0.5852(11)
loop_
_geom_bond_atom_site_label_1
_geom_bond_atom_site_label_2
_geom_bond_site_symmetry_1
_geom_bond_site_symmetry_2
C1 C12 1_555 1_555
C2 C3 1_555 1_555
C3 C4 1_555 1_555
C4 C5 1_555 1_555
C5 H1 1_555 1_555
C6 C5 1_555 1_555
H2 C6 1_555 1_555
C7 C6 1_555 1_555
H3 C7 1_555 1_555
C8 C7 1_555 1_555
H4 C8 1_555 1_555
C9 C4 1_555 1_555
C10 C9 1_555 1_555
C11 C2 1_555 1_555
C12 C15 1_555 1_555
C13 C1 1_555 1_555
C14 C13 1_555 1_555
C15 C14 1_555 1_555
C16 C15 1_555 1_555
H5 C16 1_555 1_555
C17 C16 1_555 1_555
H6 C17 1_555 1_555
C18 C17 1_555 1_555
C19 C18 1_555 1_555
H7 C19 1_555 1_555
C20 C19 1_555 1_555
H8 C20 1_555 1_555
C21 C20 1_555 1_555
C22 C21 1_555 1_555
C23 C22 1_555 1_555
C24 C20 1_555 1_555
H9 C24 1_555 1_555
C25 C24 1_555 1_555
H10 C25 1_555 1_555
C26 C18 1_555 1_555
C27 C26 1_555 1_555
H11 C27 1_555 1_555
C28 C13 1_555 1_555
H12 C28 1_555 1_555
C29 C23 1_555 1_555
C30 C31 1_555 1_555
C31 C32 1_555 1_555
C32 C33 1_555 1_555
C33 H13 1_555 1_555
C34 C33 1_555 1_555
H14 C34 1_555 1_555
C35 C34 1_555 1_555
H15 C35 1_555 1_555
C36 C35 1_555 1_555
H16 C36 1_555 1_555
C37 C32 1_555 1_555
C38 C37 1_555 1_555
C39 C30 1_555 1_555
C40 C21 1_555 1_555
C41 H17 1_555 1_555
H18 C41 1_555 1_555
H19 C41 1_555 1_555
C42 H20 1_555 1_555
H21 C42 1_555 1_555
H22 C42 1_555 1_555
C43 H23 1_555 1_555
H24 C43 1_555 1_555
H25 C43 1_555 1_555
C44 H26 1_555 1_555
H27 C44 1_555 1_555
H28 C44 1_555 1_555
C45 C18 1_555 1_555
C46 C26 1_555 1_555
C47 H29 1_555 1_555
H30 C47 1_555 1_555
C48 C47 1_555 1_555
C49 C48 1_555 1_555
H31 C49 1_555 1_555
C50 C49 1_555 1_555
H32 C50 1_555 1_555
C51 C50 1_555 1_555
C52 C51 1_555 1_555
H33 C52 1_555 1_555
C53 C52 1_555 1_555
H34 C53 1_555 1_555
C54 C53 1_555 1_555
H35 C54 1_555 1_555
C55 C54 1_555 1_555
H36 C55 1_555 1_555
C56 C51 1_555 1_555
C57 C48 1_555 1_555
H37 C57 1_555 1_555
Cl1 C13 1_555 1_555
Cl2 C15 1_555 1_555
Cl3 C23 1_555 1_555
Cl4 C21 1_555 1_555
N1 C1 1_555 1_555
N2 C11 1_555 1_555
N3 C29 1_555 1_555
N4 C39 1_555 1_555
N5 C45 1_555 1_555
O1 C3 1_555 1_555
O2 C10 1_555 1_555
O3 C14 1_555 1_555
O4 C14 1_555 1_555
O5 C31 1_555 1_555
O6 C38 1_555 1_555
O7 C22 1_555 1_555
O8 C22 1_555 1_555
O9 C17 1_555 1_555
O10 C19 1_555 1_555
O11 C46 1_555 1_555
O12 C45 1_555 1_555
C58 H38 1_555 1_555
H39 C58 1_555 1_555
H40 C58 1_555 1_555
C59 C58 1_555 1_555
N6 C59 1_555 1_555
C60 C61 1_555 1_555
C61 H41 1_555 1_555
H42 C61 1_555 1_555
H43 C61 1_555 1_555
N7 C60 1_555 1_555
C2 N1 1_555 1_555
C8 C9 1_555 1_555
C10 C11 1_555 1_555
C12 N2 1_555 1_555
C16 C28 1_555 1_555
C23 C24 1_555 1_555
C25 C26 1_555 1_555
C25 O10 1_555 1_555
C27 C28 1_555 1_555
C27 O9 1_555 1_555
C29 C40 1_555 1_555
C30 N3 1_555 1_555
C36 C37 1_555 1_555
C38 C39 1_555 1_555
C40 N4 1_555 1_555
C41 O3 1_555 1_555
C42 O4 1_555 1_555
C43 O7 1_555 1_555
C44 O8 1_555 1_555
C46 N5 1_555 1_555
C47 N5 1_555 1_555
C55 C56 1_555 1_555
C56 C57 1_555 1_555

#END
