
#######################################################################
#
#                 Cambridge Crystallographic Data Centre
#                                CCDC 
#
#######################################################################
#
# If this CIF has been generated from an entry in the Cambridge 
# Structural Database, then it will include bibliographic, chemical, 
# crystal, experimental, refinement or atomic coordinate data resulting 
# from the CCDC's data processing and validation procedures.
#
#######################################################################

data_PUSWIL
_chemical_formula_moiety         'C16 H18 N2 O1'
_chemical_name_systematic        
N-mesityl-1-(6-methoxypyridin-2-yl)methanimine
_symmetry_cell_setting           monoclinic
_symmetry_space_group_name_H-M   'P 21/c'
_symmetry_Int_Tables_number      14
_space_group_name_Hall           '-P 2ybc'
loop_
_symmetry_equiv_pos_site_id
_symmetry_equiv_pos_as_xyz
1 x,y,z
2 -x,1/2+y,1/2-z
3 -x,-y,-z
4 x,1/2-y,1/2+z
_cell_length_a                   14.8508(8)
_cell_length_b                   17.0038(6)
_cell_length_c                   12.5663(7)
_cell_angle_alpha                90
_cell_angle_beta                 112.049(6)
_cell_angle_gamma                90
_cell_volume                     2941.16
_exptl_crystal_colour            yellow
_exptl_crystal_description       block
_cell_formula_units_Z            8
loop_
_atom_site_label
_atom_site_type_symbol
_atom_site_fract_x
_atom_site_fract_y
_atom_site_fract_z
O1 O 0.77050(14) 0.56586(10) 0.33711(17)
N1 N 0.70373(14) 0.44486(10) 0.26612(16)
N2 N 0.58965(15) 0.26992(11) 0.12748(18)
C1 C 0.65669(17) 0.39886(13) 0.1761(2)
C2 C 0.6279(2) 0.42549(15) 0.0658(2)
H1 H 0.5947 0.3927 0.0043
C3 C 0.6493(3) 0.50250(17) 0.0473(3)
H2 H 0.6308 0.5220 -0.0270
C4 C 0.6980(2) 0.54930(15) 0.1393(3)
H3 H 0.7135 0.6011 0.1293
C5 C 0.72326(18) 0.51731(13) 0.2474(2)
C6 C 0.7970(3) 0.53385(19) 0.4484(3)
H4 H 0.8335 0.5720 0.5042
H5 H 0.8360 0.4877 0.4548
H6 H 0.7395 0.5200 0.4619
C7 C 0.63984(17) 0.31752(13) 0.2034(2)
H7 H 0.6671 0.3006 0.2792
C8 C 0.57985(16) 0.19025(12) 0.15553(19)
C9 C 0.62162(17) 0.13352(13) 0.1079(2)
C10 C 0.60723(18) 0.05478(13) 0.1256(2)
H8 H 0.6350 0.0169 0.0940
C11 C 0.55334(17) 0.03030(13) 0.1881(2)
C12 C 0.51277(17) 0.08777(14) 0.2343(2)
H9 H 0.4764 0.0723 0.2769
C13 C 0.52422(17) 0.16768(13) 0.2194(2)
C14 C 0.6831(2) 0.15815(15) 0.0416(2)
H10 H 0.6924 0.1140 -0.0009
H11 H 0.7450 0.1764 0.0940
H12 H 0.6510 0.1997 -0.0106
C15 C 0.5410(2) -0.05618(14) 0.2070(3)
H13 H 0.5203 -0.0833 0.1348
H14 H 0.4929 -0.0626 0.2404
H15 H 0.6017 -0.0776 0.2578
C16 C 0.4751(2) 0.22685(15) 0.2692(3)
H16 H 0.4578 0.2726 0.2209
H17 H 0.5187 0.2417 0.3447
H18 H 0.4175 0.2039 0.2737
O2 O 0.27756(13) 0.25585(10) 0.35178(16)
N3 N 0.21234(14) 0.37780(11) 0.28375(16)
N4 N 0.09794(15) 0.55287(11) 0.14538(18)
C17 C 0.15937(16) 0.42258(13) 0.1942(2)
C18 C 0.11778(19) 0.39288(15) 0.0855(2)
H19 H 0.0807 0.4250 0.0250
C19 C 0.1316(2) 0.31442(15) 0.0669(2)
H20 H 0.1038 0.2930 -0.0064
C20 C 0.18634(19) 0.26906(14) 0.1570(2)
H21 H 0.1975 0.2163 0.1468
C21 C 0.22519(17) 0.30392(13) 0.2649(2)
C22 C 0.3291(3) 0.29068(18) 0.4611(3)
H22 H 0.3679 0.2514 0.5130
H23 H 0.2837 0.3124 0.4909
H24 H 0.3705 0.3317 0.4530
C23 C 0.14852(16) 0.50553(13) 0.2202(2)
H25 H 0.1804 0.5234 0.2949
C24 C 0.09126(17) 0.63351(13) 0.1707(2)
C25 C 0.13090(18) 0.68762(14) 0.1167(2)
C26 C 0.11741(19) 0.76721(14) 0.1309(2)
H26 H 0.1436 0.8036 0.0953
C27 C 0.06709(18) 0.79453(14) 0.1954(2)
C28 C 0.02961(19) 0.73950(14) 0.2481(2)
H27 H -0.0038 0.7571 0.2931
C29 C 0.03947(18) 0.65913(14) 0.2370(2)
C30 C 0.1871(3) 0.65939(17) 0.0461(3)
H28 H 0.1951 0.7020 0.0003
H29 H 0.1523 0.6173 -0.0031
H30 H 0.2498 0.6409 0.0962
C31 C 0.0539(2) 0.88155(15) 0.2093(3)
H31 H -0.0019 0.8897 0.2291
H32 H 0.0446 0.9081 0.1386
H33 H 0.1106 0.9021 0.2692
C32 C -0.0077(3) 0.60189(17) 0.2923(3)
H34 H -0.0385 0.5605 0.2390
H35 H -0.0555 0.6290 0.3131
H36 H 0.0408 0.5798 0.3598
loop_
_geom_bond_atom_site_label_1
_geom_bond_atom_site_label_2
_geom_bond_site_symmetry_1
_geom_bond_site_symmetry_2
O1 C5 1_555 1_555
N1 C1 1_555 1_555
N2 C7 1_555 1_555
C1 C2 1_555 1_555
C2 H1 1_555 1_555
C3 C2 1_555 1_555
H2 C3 1_555 1_555
C4 C3 1_555 1_555
H3 C4 1_555 1_555
C5 N1 1_555 1_555
C6 O1 1_555 1_555
H4 C6 1_555 1_555
H5 C6 1_555 1_555
H6 C6 1_555 1_555
C7 C1 1_555 1_555
H7 C7 1_555 1_555
C8 N2 1_555 1_555
C9 C8 1_555 1_555
C10 C9 1_555 1_555
H8 C10 1_555 1_555
C11 C10 1_555 1_555
C12 C11 1_555 1_555
H9 C12 1_555 1_555
C13 C8 1_555 1_555
C14 C9 1_555 1_555
H10 C14 1_555 1_555
H11 C14 1_555 1_555
H12 C14 1_555 1_555
C15 C11 1_555 1_555
H13 C15 1_555 1_555
H14 C15 1_555 1_555
H15 C15 1_555 1_555
C16 C13 1_555 1_555
H16 C16 1_555 1_555
H17 C16 1_555 1_555
H18 C16 1_555 1_555
O2 C21 1_555 1_555
N3 C17 1_555 1_555
N4 C23 1_555 1_555
C17 C18 1_555 1_555
C18 H19 1_555 1_555
C19 C18 1_555 1_555
H20 C19 1_555 1_555
C20 C19 1_555 1_555
H21 C20 1_555 1_555
C21 N3 1_555 1_555
C22 O2 1_555 1_555
H22 C22 1_555 1_555
H23 C22 1_555 1_555
H24 C22 1_555 1_555
C23 C17 1_555 1_555
H25 C23 1_555 1_555
C24 N4 1_555 1_555
C25 C24 1_555 1_555
C26 C25 1_555 1_555
H26 C26 1_555 1_555
C27 C26 1_555 1_555
C28 C27 1_555 1_555
H27 C28 1_555 1_555
C29 C24 1_555 1_555
C30 C25 1_555 1_555
H28 C30 1_555 1_555
H29 C30 1_555 1_555
H30 C30 1_555 1_555
C31 C27 1_555 1_555
H31 C31 1_555 1_555
H32 C31 1_555 1_555
H33 C31 1_555 1_555
C32 C29 1_555 1_555
H34 C32 1_555 1_555
H35 C32 1_555 1_555
H36 C32 1_555 1_555
C4 C5 1_555 1_555
C12 C13 1_555 1_555
C20 C21 1_555 1_555
C28 C29 1_555 1_555

#END
