
#######################################################################
#
#                 Cambridge Crystallographic Data Centre
#                                CCDC 
#
#######################################################################
#
# If this CIF has been generated from an entry in the Cambridge 
# Structural Database, then it will include bibliographic, chemical, 
# crystal, experimental, refinement or atomic coordinate data resulting 
# from the CCDC's data processing and validation procedures.
#
#######################################################################

data_PUSWUW
_chemical_formula_moiety         'C21 H24 N4 O4,H2 O1'
_chemical_name_systematic        
'3-Acetamido-N-(2-((3-(dimethylcarbamoyl)phenyl)amino)-2-oxoethyl)-N-methylbenzamide monohydrate'
_symmetry_cell_setting           monoclinic
_symmetry_space_group_name_H-M   'P 21/c'
_symmetry_Int_Tables_number      14
_space_group_name_Hall           '-P 2ybc'
loop_
_symmetry_equiv_pos_site_id
_symmetry_equiv_pos_as_xyz
1 x,y,z
2 -x,1/2+y,1/2-z
3 -x,-y,-z
4 x,1/2-y,1/2+z
_cell_length_a                   13.7983(3)
_cell_length_b                   7.5207(2)
_cell_length_c                   21.2520(5)
_cell_angle_alpha                90
_cell_angle_beta                 102.834(2)
_cell_angle_gamma                90
_cell_volume                     2150.29
_exptl_crystal_colour            colorless
_exptl_crystal_description       block
_cell_formula_units_Z            4
loop_
_atom_site_label
_atom_site_type_symbol
_atom_site_fract_x
_atom_site_fract_y
_atom_site_fract_z
C1 C 0.58970(17) 1.0557(3) 0.08451(12)
H1 H 0.6592 1.0499 0.0844
H2 H 0.5772 1.1590 0.1081
H3 H 0.5515 1.0630 0.0409
N1 N 0.46377(11) 0.8831(2) 0.12022(8)
H4 H 0.4238(15) 0.978(2) 0.1034(11)
O1 O 0.62065(10) 0.7747(2) 0.13657(8)
C2 C 0.56027(14) 0.8917(3) 0.11609(9)
N2 N 0.17900(11) 0.8574(2) 0.25414(8)
O3 O 0.11397(10) 0.6162(2) 0.19914(8)
C3 C 0.41987(13) 0.7518(2) 0.15261(8)
N3 N -0.02429(12) 0.7813(2) 0.33512(8)
H7 H -0.0626(15) 0.878(2) 0.3189(11)
O4 O 0.13087(10) 0.6672(2) 0.35318(7)
C4 C 0.33086(12) 0.7951(2) 0.16919(8)
H8 H 0.3028 0.9067 0.1587
N4 N -0.26845(14) 0.9133(2) 0.49236(9)
O5 O -0.36038(11) 0.6818(2) 0.44709(9)
C5 C 0.28352(13) 0.6737(2) 0.20124(8)
C6 C 0.32444(14) 0.5069(3) 0.21640(9)
H9 H 0.2930 0.4247 0.2378
C7 C 0.41267(15) 0.4638(3) 0.19938(11)
H10 H 0.4404 0.3519 0.2096
C8 C 0.45998(15) 0.5838(3) 0.16761(10)
H11 H 0.5189 0.5523 0.1562
C9 C 0.18566(13) 0.7141(2) 0.21817(9)
C10 C 0.08408(14) 0.8903(3) 0.27105(10)
H12 H 0.0310 0.8744 0.2330
H13 H 0.0820 1.0126 0.2853
C11 C 0.06696(13) 0.7669(2) 0.32398(8)
C12 C -0.06676(13) 0.6837(2) 0.37943(8)
C13 C -0.14273(13) 0.7650(2) 0.40175(9)
H14 H -0.1613 0.8807 0.3891
C14 C -0.19127(13) 0.6757(2) 0.44276(8)
C15 C -0.16331(15) 0.5036(3) 0.46178(9)
H15 H -0.1957 0.4421 0.4891
C16 C -0.08702(15) 0.4243(3) 0.43978(10)
H16 H -0.0679 0.3092 0.4529
C17 C -0.03842(14) 0.5115(3) 0.39882(9)
H17 H 0.0127 0.4557 0.3843
C18 C -0.27940(14) 0.7569(3) 0.46151(9)
C19 C -0.1726(2) 0.9901(4) 0.52258(15)
H18 H -0.1205 0.9233 0.5102
H19 H -0.1639 0.9864 0.5687
H20 H -0.1700 1.1113 0.5088
C20 C -0.3560(2) 0.9987(4) 0.50667(13)
H21 H -0.4147 0.9380 0.4841
H22 H -0.3585 1.1206 0.4930
H23 H -0.3524 0.9936 0.5523
C21 C 0.26371(17) 0.9609(3) 0.28842(11)
H24 H 0.3220 0.9272 0.2737
H25 H 0.2741 0.9384 0.3339
H26 H 0.2508 1.0852 0.2803
O2 O 0.17319(16) 1.3060(3) 0.3485(2)
H5 H 0.2367(9) 1.302(7) 0.353(3)
H6 H 0.157(4) 1.417(2) 0.343(3)
loop_
_geom_bond_atom_site_label_1
_geom_bond_atom_site_label_2
_geom_bond_site_symmetry_1
_geom_bond_site_symmetry_2
C1 H1 1_555 1_555
H2 C1 1_555 1_555
H3 C1 1_555 1_555
N1 H4 1_555 1_555
O1 C2 1_555 1_555
O2 H5 1_555 1_555
H6 O2 1_555 1_555
C2 C1 1_555 1_555
N2 C9 1_555 1_555
O3 C9 1_555 1_555
C3 N1 1_555 1_555
N3 H7 1_555 1_555
O4 C11 1_555 1_555
C4 C3 1_555 1_555
H8 C4 1_555 1_555
N4 C18 1_555 1_555
O5 C18 1_555 1_555
C5 C4 1_555 1_555
C6 C5 1_555 1_555
H9 C6 1_555 1_555
C7 C6 1_555 1_555
H10 C7 1_555 1_555
C8 C3 1_555 1_555
H11 C8 1_555 1_555
C9 C5 1_555 1_555
C10 N2 1_555 1_555
H12 C10 1_555 1_555
H13 C10 1_555 1_555
C11 N3 1_555 1_555
C12 N3 1_555 1_555
C13 C12 1_555 1_555
H14 C13 1_555 1_555
C14 C13 1_555 1_555
C15 C14 1_555 1_555
H15 C15 1_555 1_555
C16 C15 1_555 1_555
H16 C16 1_555 1_555
C17 C12 1_555 1_555
H17 C17 1_555 1_555
C18 C14 1_555 1_555
C19 N4 1_555 1_555
H18 C19 1_555 1_555
H19 C19 1_555 1_555
H20 C19 1_555 1_555
C20 N4 1_555 1_555
H21 C20 1_555 1_555
H22 C20 1_555 1_555
H23 C20 1_555 1_555
C21 N2 1_555 1_555
H24 C21 1_555 1_555
H25 C21 1_555 1_555
H26 C21 1_555 1_555
N1 C2 1_555 1_555
C7 C8 1_555 1_555
C10 C11 1_555 1_555
C16 C17 1_555 1_555

#END
