
#######################################################################
#
#                 Cambridge Crystallographic Data Centre
#                                CCDC 
#
#######################################################################
#
# If this CIF has been generated from an entry in the Cambridge 
# Structural Database, then it will include bibliographic, chemical, 
# crystal, experimental, refinement or atomic coordinate data resulting 
# from the CCDC's data processing and validation procedures.
#
#######################################################################

data_PUTFAL
_chemical_name_common            'Mazapertine succinate'
_chemical_formula_moiety         '2(C26 H36 N3 O2 1+),C4 H4 O4 2-,C4 H6 O4'
_chemical_name_systematic        
'bis(1-(3-((4-(2-Isopropoxyphenyl)-1-piperazinyl)methyl)benzoyl)piperidine) succinic acid succinate'
_chemical_properties_biological  'antipyschotic agent'
_symmetry_cell_setting           triclinic
_symmetry_space_group_name_H-M   'P -1'
_symmetry_Int_Tables_number      2
_space_group_name_Hall           '-P 1'
loop_
_symmetry_equiv_pos_site_id
_symmetry_equiv_pos_as_xyz
1 x,y,z
2 -x,-y,-z
_cell_length_a                   9.066(2)
_cell_length_b                   12.103(3)
_cell_length_c                   14.859(3)
_cell_angle_alpha                65.62(2)
_cell_angle_beta                 90.40(2)
_cell_angle_gamma                86.75(2)
_cell_volume                     1481.81
_cell_formula_units_Z            1
loop_
_atom_site_label
_atom_site_type_symbol
_atom_site_fract_x
_atom_site_fract_y
_atom_site_fract_z
O1 O -0.7340(2) 0.5343(2) 0.8407(1)
O2 O -0.1799(2) 1.1160(2) 0.1802(2)
N1 N -0.4907(2) 0.5722(2) 0.7356(2)
N2 N -0.4676(2) 0.7630(2) 0.5422(1)
N3 N 0.0153(3) 0.9854(2) 0.1938(2)
C1 C -0.5299(3) 0.8301(2) 0.4386(2)
C2 C -0.1280(3) 1.0112(2) 0.2062(2)
C3 C -0.8747(3) 0.5136(3) 0.8841(2)
C4 C -0.9720(3) 0.6250(3) 0.8223(3)
C5 C -0.9330(3) 0.3991(3) 0.8860(3)
C6 C -0.6108(3) 0.4634(2) 0.8906(2)
C7 C -0.4820(3) 0.4858(2) 0.8349(2)
C8 C -0.3543(3) 0.4148(3) 0.8794(2)
C9 C -0.3511(3) 0.3253(3) 0.9744(2)
C10 C -0.4769(3) 0.3054(3) 1.0278(2)
C11 C -0.6063(3) 0.3760(3) 0.9858(2)
C12 C -0.5225(3) 0.6995(2) 0.7189(2)
C13 C -0.5776(3) 0.7721(2) 0.6144(2)
C14 C -0.4234(2) 0.6332(2) 0.5657(2)
C15 C -0.3724(2) 0.5657(2) 0.6717(2)
C16 C -0.4264(3) 0.8259(2) 0.3614(2)
C17 C -0.3235(3) 0.9121(2) 0.3228(2)
C18 C -0.2278(3) 0.9098(2) 0.2509(2)
C19 C -0.2383(3) 0.8194(3) 0.2171(2)
C20 C -0.3412(4) 0.7339(3) 0.2543(3)
C21 C -0.4352(3) 0.7365(3) 0.3264(2)
C22 C 0.1107(4) 1.0841(3) 0.1406(3)
C23 C 0.2042(4) 1.0538(3) 0.0707(3)
C24 C 0.2920(4) 0.9337(4) 0.1223(3)
C25 C 0.1902(4) 0.8343(3) 0.1790(4)
C26 C 0.0974(4) 0.8688(3) 0.2471(3)
H1 H -0.3862(30) 0.8053(24) 0.5474(19)
H2 H -0.5553 0.9131 0.4269
H3 H -0.6192 0.7942 0.4328
H4 H -0.8665 0.5074 0.9504
H5 H -0.9735 0.6372 0.7542
H6 H -0.9316 0.6935 0.8282
H7 H -1.0709 0.6170 0.8458
H8 H -0.9447 0.4168 0.8170
H9 H -1.0261 0.3791 0.9171
H10 H -0.8618 0.3315 0.9167
H11 H -0.2649 0.4289 0.8432
H12 H -0.2613 0.2760 1.0020
H13 H -0.4745 0.2432 1.0940
H14 H -0.6937 0.3642 1.0240
H15 H -0.4341 0.7323 0.7305
H16 H -0.5953 0.7043 0.7640
H17 H -0.6688 0.7415 0.6042
H18 H -0.5972 0.8558 0.6029
H19 H -0.3454 0.6287 0.5237
H20 H -0.5064 0.5952 0.5530
H21 H -0.3466 0.4820 0.6854
H22 H -0.2859 0.6003 0.6840
H23 H -0.3173 0.9742 0.3468
H24 H -0.1739 0.8175 0.1667
H25 H -0.3475 0.6722 0.2298
H26 H -0.5060 0.6760 0.3530
H27 H 0.1753 1.0956 0.1870
H28 H 0.0505 1.1581 0.1061
H29 H 0.2691 1.1171 0.0370
H30 H 0.1392 1.0470 0.0221
H31 H 0.3611 0.9423 0.1679
H32 H 0.3471 0.9125 0.0761
H33 H 0.2484 0.7599 0.2158
H34 H 0.1260 0.8212 0.1331
H35 H 0.0290 0.8080 0.2795
H36 H 0.1611 0.8744 0.2967
O3 O 0.1230(2) 0.7249(2) 0.5024(2)
O4 O 0.2414(2) 0.5930(2) 0.4589(2)
C27 C 0.1299(3) 0.6257(2) 0.4877(2)
C28 C -0.0086(3) 0.5585(3) 0.5061(3)
H37 H 0.0206(41) 0.7480(33) 0.5221(27)
H38 H -0.0277(39) 0.5393(33) 0.5725(29)
H39 H -0.0788(41) 0.6136(34) 0.4664(28)
C28A C 0.0086(3) 0.4415(3) 0.4939(3)
C27A C -0.1299(3) 0.3743(2) 0.5123(2)
O3A O -0.1230(2) 0.2751(2) 0.4976(2)
H37A H -0.0206(41) 0.2520(33) 0.4779(27)
O4A O -0.2414(2) 0.4070(2) 0.5411(2)
H38A H 0.0277(39) 0.4607(33) 0.4275(29)
H39A H 0.0788(41) 0.3864(34) 0.5336(28)
O5 O -0.1233(2) 0.7856(2) 0.5455(2)
O6 O -0.2759(2) 0.9226(2) 0.5591(2)
C29 C -0.1485(3) 0.8841(2) 0.5532(2)
C30 C -0.0197(3) 0.9596(2) 0.5526(2)
H40 H 0.0684(30) 0.9048(24) 0.5881(19)
H41 H -0.0471(29) 1.0135(25) 0.5882(21)
C30A C 0.0197(3) 1.0404(2) 0.4474(2)
C29A C 0.1485(3) 1.1159(2) 0.4468(2)
O5A O 0.1233(2) 1.2144(2) 0.4545(2)
O6A O 0.2759(2) 1.0774(2) 0.4409(2)
H40A H -0.0684(30) 1.0952(24) 0.4119(19)
H41A H 0.0471(29) 0.9865(25) 0.4118(21)
loop_
_geom_bond_atom_site_label_1
_geom_bond_atom_site_label_2
_geom_bond_site_symmetry_1
_geom_bond_site_symmetry_2
O1 C3 1_555 1_555
O2 C2 1_555 1_555
N1 C7 1_555 1_555
N2 C1 1_555 1_555
N3 C2 1_555 1_555
C1 C16 1_555 1_555
C2 C18 1_555 1_555
C3 C4 1_555 1_555
C4 H5 1_555 1_555
C5 C3 1_555 1_555
C6 O1 1_555 1_555
C7 C6 1_555 1_555
C8 C7 1_555 1_555
C9 C8 1_555 1_555
C10 C9 1_555 1_555
C11 C6 1_555 1_555
C12 N1 1_555 1_555
C13 N2 1_555 1_555
C14 N2 1_555 1_555
C15 N1 1_555 1_555
C16 C17 1_555 1_555
C17 C18 1_555 1_555
C18 C19 1_555 1_555
C19 C20 1_555 1_555
C20 C21 1_555 1_555
C21 C16 1_555 1_555
C22 N3 1_555 1_555
C23 C22 1_555 1_555
C24 C23 1_555 1_555
C25 C24 1_555 1_555
C26 N3 1_555 1_555
O3 C27 1_555 1_555
O4 C27 1_555 1_555
O5 C29 1_555 1_555
O6 C29 1_555 1_555
C27 C28 1_555 1_555
C28 H38 1_555 1_555
C29 C30 1_555 1_555
C30 H40 1_555 1_555
H1 N2 1_555 1_555
H2 C1 1_555 1_555
H3 C1 1_555 1_555
H4 C3 1_555 1_555
H6 C4 1_555 1_555
H7 C4 1_555 1_555
H8 C5 1_555 1_555
H9 C5 1_555 1_555
H10 C5 1_555 1_555
H11 C8 1_555 1_555
H12 C9 1_555 1_555
H13 C10 1_555 1_555
H14 C11 1_555 1_555
H15 C12 1_555 1_555
H16 C12 1_555 1_555
H17 C13 1_555 1_555
H18 C13 1_555 1_555
H19 C14 1_555 1_555
H20 C14 1_555 1_555
H21 C15 1_555 1_555
H22 C15 1_555 1_555
H23 C17 1_555 1_555
H24 C19 1_555 1_555
H25 C20 1_555 1_555
H26 C21 1_555 1_555
H27 C22 1_555 1_555
H28 C22 1_555 1_555
H29 C23 1_555 1_555
H30 C23 1_555 1_555
H31 C24 1_555 1_555
H32 C24 1_555 1_555
H33 C25 1_555 1_555
H34 C25 1_555 1_555
H35 C26 1_555 1_555
H36 C26 1_555 1_555
H37 O3 1_555 1_555
H39 C28 1_555 1_555
H41 C30 1_555 1_555
C28A C28 1_555 1_555
C27A C28A 1_555 1_555
O3A C27A 1_555 1_555
H37A O3A 1_555 1_555
O4A C27A 1_555 1_555
H38A C28A 1_555 1_555
H39A C28A 1_555 1_555
C30A C30 1_555 1_555
C29A C30A 1_555 1_555
O5A C29A 1_555 1_555
O6A C29A 1_555 1_555
H40A C30A 1_555 1_555
H41A C30A 1_555 1_555
C10 C11 1_555 1_555
C12 C13 1_555 1_555
C14 C15 1_555 1_555
C25 C26 1_555 1_555

#END
