
#######################################################################
#
#                 Cambridge Crystallographic Data Centre
#                                CCDC 
#
#######################################################################
#
# If this CIF has been generated from an entry in the Cambridge 
# Structural Database, then it will include bibliographic, chemical, 
# crystal, experimental, refinement or atomic coordinate data resulting 
# from the CCDC's data processing and validation procedures.
#
#######################################################################

data_PUTLEW
_chemical_formula_moiety         'C27 H30 N6 O2 4+,C2 H6 O1 S1,4(I1 1-)'
_chemical_name_systematic        
"1,1''-(1,3-Propanediyl)bis(1'-carbamoylmethyl)-4,4'-bipyridinium tetrakis(iodide) dimethylsulfoxide solvate"
_symmetry_cell_setting           monoclinic
_symmetry_space_group_name_H-M   'C 2/c'
_symmetry_Int_Tables_number      15
_space_group_name_Hall           '-C 2yn'
loop_
_symmetry_equiv_pos_site_id
_symmetry_equiv_pos_as_xyz
1 x,y,z
2 -x,y,1/2-z
3 1/2+x,1/2+y,z
4 1/2-x,1/2+y,1/2-z
5 -x,-y,-z
6 x,-y,1/2+z
7 1/2-x,1/2-y,-z
8 1/2+x,1/2-y,1/2+z
_cell_length_a                   18.430(1)
_cell_length_b                   9.537(3)
_cell_length_c                   20.999(4)
_cell_angle_alpha                90
_cell_angle_beta                 91.64(2)
_cell_angle_gamma                90
_cell_volume                     3689.42
_exptl_crystal_colour            red
_exptl_crystal_description       platelet
_cell_formula_units_Z            4
loop_
_atom_site_label
_atom_site_type_symbol
_atom_site_fract_x
_atom_site_fract_y
_atom_site_fract_z
I2 I 0.10942(1) 0.25157(3) 0.43187(1)
S1 S 0.5000 0.0460(2) 0.2500
O2 O 0.4891(4) 0.1270(5) 0.3079(3)
C15 C 0.5716(6) -0.0752(8) 0.2580(4)
H17 H 0.5852 -0.0851 0.3017
H18 H 0.5564 -0.1634 0.2414
H19 H 0.6120 -0.0425 0.2351
O2A O 0.5109(4) 0.1270(5) 0.1921(3)
C15A C 0.4284(6) -0.0752(8) 0.2420(4)
H17A H 0.4148 -0.0851 0.1983
H18A H 0.4436 -0.1634 0.2586
H19A H 0.3880 -0.0425 0.2649
O1 O 0.2362(2) 0.4763(3) 0.6924(1)
N1 N 0.1708(2) 0.4275(3) 0.5782(1)
N2 N 0.0651(2) 0.9290(3) 0.3529(1)
N3 N 0.2421(2) 0.2478(4) 0.7211(2)
C1 C 0.2204(2) 0.4763(4) 0.5381(2)
C2 C 0.2030(2) 0.5825(4) 0.4964(2)
C3 C 0.1340(2) 0.6400(4) 0.4955(2)
C4 C 0.1105(2) 0.7459(4) 0.4468(2)
C5 C 0.1516(2) 0.7683(4) 0.3924(2)
C6 C 0.1272(2) 0.8596(4) 0.3466(2)
C7 C 0.0379(2) 1.0216(3) 0.3003(2)
C8 C 0.0255(2) 0.9124(4) 0.4048(2)
C9 C 0.0476(2) 0.8207(4) 0.4523(2)
C10 C 0.0845(2) 0.5896(4) 0.5390(2)
C11 C 0.1047(2) 0.4827(4) 0.5800(2)
C12 C 0.1894(2) 0.3056(4) 0.6189(2)
C13 C 0.2247(2) 0.3540(4) 0.6812(2)
C14 C 0.0000 0.9319(5) 0.2500
H1 H 0.2315 0.1538 0.7091
H2 H 0.2651 0.2669 0.7612
H3 H 0.2678 0.4371 0.5387
H4 H 0.2382 0.6165 0.4681
H5 H 0.1962 0.7199 0.3875
H6 H 0.1549 0.8740 0.3097
H7 H 0.0047 1.0880 0.3164
H8 H 0.0775 1.0694 0.2821
H9 H -0.0182 0.9641 0.4089
H10 H 0.0191 0.8094 0.4889
H11 H 0.0372 0.6287 0.5404
H12 H 0.0711 0.4483 0.6098
H13 H 0.1464 0.2549 0.6275
H14 H 0.2221 0.2465 0.5973
H15 H -0.0396 0.8853 0.2684
O1A O -0.2362(2) 0.4763(3) -0.1924(1)
N1A N -0.1708(2) 0.4275(3) -0.0782(1)
N2A N -0.0651(2) 0.9290(3) 0.1471(1)
N3A N -0.2421(2) 0.2478(4) -0.2211(2)
C1A C -0.2204(2) 0.4763(4) -0.0381(2)
C2A C -0.2030(2) 0.5825(4) 0.0036(2)
C3A C -0.1340(2) 0.6400(4) 0.0045(2)
C4A C -0.1105(2) 0.7459(4) 0.0532(2)
C5A C -0.1516(2) 0.7683(4) 0.1076(2)
C6A C -0.1272(2) 0.8596(4) 0.1534(2)
C7A C -0.0379(2) 1.0216(3) 0.1997(2)
C8A C -0.0255(2) 0.9124(4) 0.0952(2)
C9A C -0.0476(2) 0.8207(4) 0.0477(2)
C10A C -0.0845(2) 0.5896(4) -0.0390(2)
C11A C -0.1047(2) 0.4827(4) -0.0800(2)
C12A C -0.1894(2) 0.3056(4) -0.1189(2)
C13A C -0.2247(2) 0.3540(4) -0.1812(2)
H1A H -0.2315 0.1538 -0.2091
H2A H -0.2651 0.2669 -0.2612
H3A H -0.2678 0.4371 -0.0387
H4A H -0.2382 0.6165 0.0319
H5A H -0.1962 0.7199 0.1125
H6A H -0.1549 0.8740 0.1903
H7A H -0.0047 1.0880 0.1836
H8A H -0.0775 1.0694 0.2179
H9A H 0.0182 0.9641 0.0911
H10A H -0.0191 0.8094 0.0111
H11A H -0.0372 0.6287 -0.0404
H12A H -0.0711 0.4483 -0.1098
H13A H -0.1464 0.2549 -0.1275
H14A H -0.2221 0.2465 -0.0973
H15A H 0.0396 0.8853 0.2316
I1 I 0.15786(1) 0.09166(3) 0.14215(1)
H16? H 0.0330 0.8665 0.2335
loop_
_geom_bond_atom_site_label_1
_geom_bond_atom_site_label_2
_geom_bond_site_symmetry_1
_geom_bond_site_symmetry_2
S1 O2 1_555 1_555
O1 C13 1_555 1_555
N1 C1 1_555 1_555
N2 C6 1_555 1_555
N3 C13 1_555 1_555
C1 C2 1_555 1_555
C2 C3 1_555 1_555
C3 C4 1_555 1_555
C4 C5 1_555 1_555
C5 C6 1_555 1_555
C6 H6 1_555 1_555
C7 N2 1_555 1_555
C8 N2 1_555 1_555
C9 C4 1_555 1_555
C10 C3 1_555 1_555
C11 N1 1_555 1_555
C12 N1 1_555 1_555
C13 C12 1_555 1_555
C14 C7 1_555 1_555
C15 S1 1_555 1_555
H1 N3 1_555 1_555
H2 N3 1_555 1_555
H3 C1 1_555 1_555
H4 C2 1_555 1_555
H5 C5 1_555 1_555
H7 C7 1_555 1_555
H8 C7 1_555 1_555
H9 C8 1_555 1_555
H10 C9 1_555 1_555
H11 C10 1_555 1_555
H12 C11 1_555 1_555
H13 C12 1_555 1_555
H14 C12 1_555 1_555
H15 C14 1_555 1_555
H17 C15 1_555 1_555
H18 C15 1_555 1_555
H19 C15 1_555 1_555
O1A C13A 1_555 1_555
O2A S1 1_555 1_555
N1A C1A 1_555 1_555
N2A C6A 1_555 1_555
N3A C13A 1_555 1_555
C1A C2A 1_555 1_555
C2A C3A 1_555 1_555
C3A C4A 1_555 1_555
C4A C5A 1_555 1_555
C5A C6A 1_555 1_555
C6A H6A 1_555 1_555
C7A C14 1_555 1_555
C8A N2A 1_555 1_555
C9A C4A 1_555 1_555
C10A C3A 1_555 1_555
C11A N1A 1_555 1_555
C12A N1A 1_555 1_555
C13A C12A 1_555 1_555
C15A S1 1_555 1_555
H1A N3A 1_555 1_555
H2A N3A 1_555 1_555
H3A C1A 1_555 1_555
H4A C2A 1_555 1_555
H5A C5A 1_555 1_555
H7A C7A 1_555 1_555
H8A C7A 1_555 1_555
H9A C8A 1_555 1_555
H10A C9A 1_555 1_555
H11A C10A 1_555 1_555
H12A C11A 1_555 1_555
H13A C12A 1_555 1_555
H14A C12A 1_555 1_555
H15A C14 1_555 1_555
H17A C15A 1_555 1_555
H18A C15A 1_555 1_555
H19A C15A 1_555 1_555
C8 C9 1_555 1_555
C10 C11 1_555 1_555
N2A C7A 1_555 1_555
C8A C9A 1_555 1_555
C10A C11A 1_555 1_555

#END
