
#######################################################################
#
#                 Cambridge Crystallographic Data Centre
#                                CCDC 
#
#######################################################################
#
# If this CIF has been generated from an entry in the Cambridge 
# Structural Database, then it will include bibliographic, chemical, 
# crystal, experimental, refinement or atomic coordinate data resulting 
# from the CCDC's data processing and validation procedures.
#
#######################################################################

data_PUTLIA
_chemical_formula_moiety         'C13 H15 N3 O1 2+,2(F6 P1 1-)'
_chemical_name_systematic        
"1-(Carbamoylmethyl)-1'-methyl-4,4'-bipyridinium bis(hexafluorophosphate)"
_symmetry_cell_setting           orthorhombic
_symmetry_space_group_name_H-M   'P b c a'
_symmetry_Int_Tables_number      61
_space_group_name_Hall           '-P 2ac 2ab'
loop_
_symmetry_equiv_pos_site_id
_symmetry_equiv_pos_as_xyz
1 x,y,z
2 1/2+x,1/2-y,-z
3 -x,1/2+y,1/2-z
4 1/2-x,-y,1/2+z
5 -x,-y,-z
6 1/2-x,1/2+y,z
7 x,1/2-y,1/2+z
8 1/2+x,y,1/2-z
_cell_length_a                   23.589(4)
_cell_length_b                   19.661(3)
_cell_length_c                   8.559(2)
_cell_angle_alpha                90
_cell_angle_beta                 90
_cell_angle_gamma                90
_cell_volume                     3969.52
_exptl_crystal_colour            yellow
_exptl_crystal_description       prism
_cell_formula_units_Z            8
loop_
_atom_site_label
_atom_site_type_symbol
_atom_site_fract_x
_atom_site_fract_y
_atom_site_fract_z
P1 P 0.91386(5) -0.11385(6) 0.2069(1)
F1 F 0.8822(2) -0.0851(2) 0.0596(4)
F2 F 0.8545(2) -0.1268(3) 0.2839(5)
F3 F 0.9152(2) -0.0446(2) 0.2938(6)
F4 F 0.9147(2) -0.1847(2) 0.1154(6)
F5 F 0.9729(2) -0.0977(2) 0.1260(4)
F6 F 0.9433(3) -0.1467(3) 0.3499(5)
P2 P 0.67758(5) -0.36885(6) 1.0375(1)
F7 F 0.6150(3) -0.3824(5) 1.022(2)
F8 F 0.6838(3) -0.4133(3) 1.1868(6)
F9 F 0.6946(4) -0.4342(4) 0.9502(8)
F10 F 0.6667(4) -0.3024(3) 1.133(1)
F11 F 0.6773(3) -0.3221(4) 0.8890(7)
F12 F 0.7439(2) -0.3501(3) 1.060(1)
O1 O 1.0421(1) -0.1911(1) 0.5783(3)
N1 N 0.9635(1) -0.1369(2) 0.7711(4)
N2 N 0.7812(2) 0.1222(2) 0.5325(4)
N3 N 1.0631(1) -0.2760(2) 0.7459(4)
C1 C 0.9812(2) -0.0722(2) 0.7720(5)
C2 C 0.9462(2) -0.0204(2) 0.7211(5)
C3 C 0.8932(1) -0.0363(2) 0.6620(4)
C4 C 0.8540(1) 0.0185(2) 0.6123(4)
C5 C 0.7964(2) 0.0113(2) 0.6291(6)
C6 C 0.7608(2) 0.0634(2) 0.5911(6)
C7 C 0.7420(2) 0.1775(3) 0.4954(9)
C8 C 0.8362(2) 0.1302(2) 0.5120(5)
C9 C 0.8741(2) 0.0794(2) 0.5498(5)
C10 C 0.8773(2) -0.1035(2) 0.6572(5)
C11 C 0.9130(2) -0.1528(2) 0.7129(5)
C12 C 0.9998(2) -0.1905(2) 0.8321(4)
C13 C 1.0371(1) -0.2195(2) 0.7038(4)
H1 H 1.0883 -0.2979 0.6755
H2 H 1.0567 -0.2947 0.8467
H3 H 1.0182 -0.0618 0.8082
H4 H 0.9584 0.0256 0.7265
H5 H 0.7813 -0.0302 0.6674
H6 H 0.7212 0.0583 0.6062
H7 H 0.7497 0.1941 0.3933
H8 H 0.7467 0.2133 0.5689
H9 H 0.7041 0.1611 0.4998
H10 H 0.8500 0.1718 0.4703
H11 H 0.9135 0.0858 0.5333
H12 H 0.8415 -0.1157 0.6151
H13 H 0.9014 -0.1991 0.7099
H14 H 0.9768 -0.2257 0.8738
H15 H 1.0231 -0.1723 0.9124
F13? F 0.7210(7) -0.3578(9) 1.150(2)
F14? F 0.6553(8) -0.2972(6) 1.041(2)
F15? F 0.7124(7) -0.3563(9) 0.898(2)
F16? F 0.6245 -0.3817 1.1365
F17? F 0.7007 -0.4387 1.0850
F18? F 0.6484 -0.4009 0.8964
loop_
_geom_bond_atom_site_label_1
_geom_bond_atom_site_label_2
_geom_bond_site_symmetry_1
_geom_bond_site_symmetry_2
P1 F1 1_555 1_555
P2 F7 1_555 1_555
F2 P1 1_555 1_555
F3 P1 1_555 1_555
F4 P1 1_555 1_555
F5 P1 1_555 1_555
F6 P1 1_555 1_555
F8 P2 1_555 1_555
F9 P2 1_555 1_555
F10 P2 1_555 1_555
F11 P2 1_555 1_555
F12 P2 1_555 1_555
O1 C13 1_555 1_555
N1 C1 1_555 1_555
N2 C6 1_555 1_555
N3 C13 1_555 1_555
C1 C2 1_555 1_555
C2 C3 1_555 1_555
C3 C4 1_555 1_555
C4 C5 1_555 1_555
C5 C6 1_555 1_555
C6 H6 1_555 1_555
C7 N2 1_555 1_555
C8 N2 1_555 1_555
C9 C4 1_555 1_555
C10 C3 1_555 1_555
C11 N1 1_555 1_555
C12 N1 1_555 1_555
C13 C12 1_555 1_555
H1 N3 1_555 1_555
H2 N3 1_555 1_555
H3 C1 1_555 1_555
H4 C2 1_555 1_555
H5 C5 1_555 1_555
H7 C7 1_555 1_555
H8 C7 1_555 1_555
H9 C7 1_555 1_555
H10 C8 1_555 1_555
H11 C9 1_555 1_555
H12 C10 1_555 1_555
H13 C11 1_555 1_555
H14 C12 1_555 1_555
H15 C12 1_555 1_555
C8 C9 1_555 1_555
C10 C11 1_555 1_555

#END
