
#######################################################################
#
#                 Cambridge Crystallographic Data Centre
#                                CCDC 
#
#######################################################################
#
# If this CIF has been generated from an entry in the Cambridge 
# Structural Database, then it will include bibliographic, chemical, 
# crystal, experimental, refinement or atomic coordinate data resulting 
# from the CCDC's data processing and validation procedures.
#
#######################################################################

data_PUTNUP
_chemical_formula_moiety         'C27 H17 N3 O4'
_chemical_name_systematic        
'5-methyl-2-(4-nitrophenyl)-10-phenylpyrrolo[3,4-b]carbazole-1,3(2H,5H)-dione unknown solvate'
_symmetry_cell_setting           monoclinic
_symmetry_space_group_name_H-M   'P 21/c'
_symmetry_Int_Tables_number      14
_space_group_name_Hall           '-P 2ybc'
loop_
_symmetry_equiv_pos_site_id
_symmetry_equiv_pos_as_xyz
1 x,y,z
2 -x,1/2+y,1/2-z
3 -x,-y,-z
4 x,1/2-y,1/2+z
_cell_length_a                   7.9873(4)
_cell_length_b                   15.7630(8)
_cell_length_c                   17.2684(9)
_cell_angle_alpha                90
_cell_angle_beta                 91.632(2)
_cell_angle_gamma                90
_cell_volume                     2173.28
_exptl_crystal_colour            colorless
_exptl_crystal_description       block
_cell_formula_units_Z            4
loop_
_atom_site_label
_atom_site_type_symbol
_atom_site_fract_x
_atom_site_fract_y
_atom_site_fract_z
O1 O 0.26539(19) 0.66583(9) 0.46611(9)
O2 O 0.22050(19) 0.95532(9) 0.48653(10)
O3 O -0.4255(2) 0.70341(13) 0.67918(12)
O4 O -0.5151(2) 0.82181(13) 0.62968(11)
N1 N 0.8117(2) 0.92807(11) 0.33045(10)
N2 N 0.2011(2) 0.80776(10) 0.48660(10)
N3 N -0.4063(2) 0.76733(14) 0.63939(11)
C1 C 0.9268(3) 0.86759(13) 0.30948(12)
C2 C 1.0841(3) 0.88073(15) 0.27864(12)
H1 H 1.1239 0.9362 0.2678
C3 C 1.1795(3) 0.80976(16) 0.26454(13)
H2 H 1.2873 0.8164 0.2435
C4 C 1.1210(3) 0.72865(16) 0.28054(13)
H3 H 1.1900 0.6811 0.2702
C5 C 0.9657(3) 0.71551(14) 0.31092(13)
H4 H 0.9276 0.6597 0.3215
C6 C 0.8645(3) 0.78616(13) 0.32603(11)
C7 C 0.7031(2) 0.79841(12) 0.35953(11)
C8 C 0.6767(2) 0.88768(13) 0.36220(12)
C9 C 0.5373(3) 0.92418(13) 0.39561(12)
H5 H 0.5201 0.9838 0.3971
C10 C 0.4262(2) 0.86721(12) 0.42628(12)
C11 C 0.4469(2) 0.77922(12) 0.42261(11)
C12 C 0.5842(2) 0.74189(12) 0.38885(11)
C13 C 0.2738(3) 0.88626(12) 0.46832(12)
C14 C 0.3018(3) 0.73956(12) 0.45922(12)
C15 C 0.0496(2) 0.79767(13) 0.52684(12)
C16 C 0.0256(3) 0.72778(15) 0.57437(13)
H6 H 0.1120 0.6868 0.5811
C17 C -0.1232(3) 0.71797(16) 0.61162(13)
H7 H -0.1408 0.6700 0.6437
C18 C -0.2458(3) 0.77835(14) 0.60188(11)
C19 C -0.2226(3) 0.84953(14) 0.55725(12)
H8 H -0.3072 0.8918 0.5532
C20 C -0.0754(3) 0.85874(13) 0.51863(12)
H9 H -0.0591 0.9067 0.4864
C21 C 0.8329(3) 1.01869(13) 0.32129(15)
H10 H 0.9399 1.0300 0.2968
H11 H 0.8322 1.0461 0.3722
H12 H 0.7410 1.0413 0.2886
C22 C 0.6057(3) 0.64813(13) 0.38521(12)
C23 C 0.6703(6) 0.60356(18) 0.44652(18)
H13 H 0.7037 0.6330 0.4924
C24 C 0.6881(7) 0.51684(19) 0.4435(2)
H14 H 0.7366 0.4876 0.4867
C25 C 0.6376(4) 0.47273(15) 0.37994(16)
H15 H 0.6478 0.4127 0.3785
C26 C 0.5726(3) 0.51545(16) 0.31857(17)
H16 H 0.5369 0.4854 0.2734
C27 C 0.5574(3) 0.60320(15) 0.32102(14)
H17 H 0.5124 0.6324 0.2771
loop_
_geom_bond_atom_site_label_1
_geom_bond_atom_site_label_2
_geom_bond_site_symmetry_1
_geom_bond_site_symmetry_2
O1 C14 1_555 1_555
O2 C13 1_555 1_555
O3 N3 1_555 1_555
O4 N3 1_555 1_555
N1 C1 1_555 1_555
N2 C13 1_555 1_555
N3 C18 1_555 1_555
C1 C2 1_555 1_555
C2 H1 1_555 1_555
C3 C2 1_555 1_555
H2 C3 1_555 1_555
C4 C3 1_555 1_555
H3 C4 1_555 1_555
C5 C4 1_555 1_555
H4 C5 1_555 1_555
C6 C1 1_555 1_555
C7 C6 1_555 1_555
C8 N1 1_555 1_555
C9 C8 1_555 1_555
H5 C9 1_555 1_555
C10 C9 1_555 1_555
C11 C10 1_555 1_555
C12 C7 1_555 1_555
C13 C10 1_555 1_555
C14 N2 1_555 1_555
C15 N2 1_555 1_555
C16 C15 1_555 1_555
H6 C16 1_555 1_555
C17 C16 1_555 1_555
H7 C17 1_555 1_555
C18 C17 1_555 1_555
C19 C18 1_555 1_555
H8 C19 1_555 1_555
C20 C15 1_555 1_555
H9 C20 1_555 1_555
C21 N1 1_555 1_555
H10 C21 1_555 1_555
H11 C21 1_555 1_555
H12 C21 1_555 1_555
C22 C12 1_555 1_555
C23 C22 1_555 1_555
H13 C23 1_555 1_555
C24 C23 1_555 1_555
H14 C24 1_555 1_555
C25 C24 1_555 1_555
H15 C25 1_555 1_555
C26 C25 1_555 1_555
H16 C26 1_555 1_555
C27 C22 1_555 1_555
H17 C27 1_555 1_555
C5 C6 1_555 1_555
C7 C8 1_555 1_555
C11 C12 1_555 1_555
C11 C14 1_555 1_555
C19 C20 1_555 1_555
C26 C27 1_555 1_555

#END
