
#######################################################################
#
#                 Cambridge Crystallographic Data Centre
#                                CCDC 
#
#######################################################################
#
# If this CIF has been generated from an entry in the Cambridge 
# Structural Database, then it will include bibliographic, chemical, 
# crystal, experimental, refinement or atomic coordinate data resulting 
# from the CCDC's data processing and validation procedures.
#
#######################################################################

data_PUTNID
_chemical_formula_moiety         'C36 H28 N4 O1'
_chemical_name_systematic        
1'-benzyl-9-methyl-4-(4-methylphenyl)-2'-oxo-1',2',4,9-tetrahydrospiro[carbazole-2,3'-indole]-3,3(1H)-dicarbonitrile
_symmetry_cell_setting           monoclinic
_symmetry_space_group_name_H-M   'P 21/c'
_symmetry_Int_Tables_number      14
_space_group_name_Hall           '-P 2ybc'
loop_
_symmetry_equiv_pos_site_id
_symmetry_equiv_pos_as_xyz
1 x,y,z
2 -x,1/2+y,1/2-z
3 -x,-y,-z
4 x,1/2-y,1/2+z
_cell_length_a                   11.8011(5)
_cell_length_b                   13.2070(6)
_cell_length_c                   18.5785(8)
_cell_angle_alpha                90
_cell_angle_beta                 107.0700(10)
_cell_angle_gamma                90
_cell_volume                     2768.03
_exptl_crystal_colour            colorless
_exptl_crystal_description       block
_cell_formula_units_Z            4
loop_
_atom_site_label
_atom_site_type_symbol
_atom_site_fract_x
_atom_site_fract_y
_atom_site_fract_z
O1 O 0.08043(11) 0.33336(9) 0.19788(7)
N1 N -0.10317(12) 0.55449(11) 0.03584(8)
N2 N -0.13274(15) 0.30211(14) 0.34265(10)
N3 N -0.29614(15) 0.57064(13) 0.22667(10)
N4 N 0.14129(12) 0.38485(11) 0.32117(8)
C1 C -0.18075(15) 0.50007(14) -0.02124(10)
C2 C -0.21200(16) 0.51481(15) -0.09895(10)
H1 H -0.1820 0.5689 -0.1197
C3 C -0.28894(17) 0.44622(16) -0.14384(11)
H2 H -0.3107 0.4539 -0.1959
C4 C -0.33520(17) 0.36506(16) -0.11275(11)
H3 H -0.3874 0.3202 -0.1445
C5 C -0.30459(16) 0.35070(15) -0.03609(10)
H4 H -0.3355 0.2965 -0.0159
C6 C -0.22589(15) 0.41915(13) 0.01131(10)
C7 C -0.17292(14) 0.42786(13) 0.09137(9)
C8 C -0.09955(14) 0.50973(13) 0.10353(9)
C9 C -0.02460(15) 0.54889(13) 0.17751(9)
H5 H -0.0561 0.6132 0.1880
H6 H 0.0553 0.5604 0.1749
C10 C -0.02052(14) 0.47435(13) 0.24190(9)
C11 C -0.14712(15) 0.42296(13) 0.22851(9)
C12 C -0.18844(15) 0.36103(13) 0.15300(9)
H7 H -0.1349 0.3031 0.1576
C13 C -0.31290(15) 0.32019(13) 0.14059(9)
C14 C -0.41288(15) 0.37826(14) 0.10743(10)
H8 H -0.4039 0.4436 0.0913
C15 C -0.52576(16) 0.34010(15) 0.09805(10)
H9 H -0.5914 0.3803 0.0758
C16 C -0.54233(17) 0.24280(16) 0.12143(10)
C17 C -0.44266(18) 0.18443(16) 0.15349(11)
H10 H -0.4517 0.1188 0.1691
C18 C -0.32980(17) 0.22215(15) 0.16268(11)
H11 H -0.2643 0.1813 0.1839
C19 C -0.66524(18) 0.20254(18) 0.11253(12)
H12 H -0.6600 0.1346 0.1316
H13 H -0.7098 0.2027 0.0602
H14 H -0.7042 0.2447 0.1401
C20 C 0.07156(14) 0.38866(13) 0.24845(10)
C21 C 0.11462(15) 0.46430(14) 0.36425(10)
C22 C 0.02143(15) 0.52167(13) 0.31928(10)
C23 C -0.01777(16) 0.60578(14) 0.34885(11)
H15 H -0.0789 0.6454 0.3192
C24 C 0.03577(18) 0.63018(17) 0.42392(12)
H16 H 0.0105 0.6869 0.4445
C25 C 0.12572(19) 0.57144(18) 0.46810(12)
H17 H 0.1591 0.5883 0.5185
C26 C 0.16762(17) 0.48734(16) 0.43889(11)
H18 H 0.2291 0.4481 0.4686
C27 C 0.23445(15) 0.30893(14) 0.34955(11)
H19 H 0.2191 0.2516 0.3154
H20 H 0.2307 0.2851 0.3982
C28 C 0.35764(15) 0.34782(13) 0.35784(10)
C29 C 0.43827(16) 0.36290(15) 0.42806(11)
H21 H 0.4161 0.3496 0.4712
C30 C 0.55127(17) 0.39754(16) 0.43463(11)
H22 H 0.6046 0.4077 0.4821
C31 C 0.58524(17) 0.41699(16) 0.37123(12)
H23 H 0.6613 0.4404 0.3757
C32 C 0.50598(17) 0.40168(17) 0.30082(12)
H24 H 0.5287 0.4145 0.2578
C33 C 0.39299(16) 0.36737(15) 0.29442(10)
H25 H 0.3399 0.3572 0.2469
C34 C -0.04319(16) 0.64682(14) 0.02512(11)
H26 H 0.0057 0.6707 0.0730
H27 H -0.1010 0.6975 0.0025
H28 H 0.0053 0.6333 -0.0072
C35 C -0.23272(15) 0.50518(14) 0.22771(10)
C36 C -0.14167(15) 0.35541(14) 0.29308(10)
loop_
_geom_bond_atom_site_label_1
_geom_bond_atom_site_label_2
_geom_bond_site_symmetry_1
_geom_bond_site_symmetry_2
O1 C20 1_555 1_555
N1 C1 1_555 1_555
N2 C36 1_555 1_555
N3 C35 1_555 1_555
N4 C20 1_555 1_555
C1 C2 1_555 1_555
C2 H1 1_555 1_555
C3 C2 1_555 1_555
H2 C3 1_555 1_555
C4 C3 1_555 1_555
H3 C4 1_555 1_555
C5 C4 1_555 1_555
H4 C5 1_555 1_555
C6 C1 1_555 1_555
C7 C6 1_555 1_555
C8 N1 1_555 1_555
C9 C8 1_555 1_555
H5 C9 1_555 1_555
H6 C9 1_555 1_555
C10 C9 1_555 1_555
C11 C10 1_555 1_555
C12 C7 1_555 1_555
H7 C12 1_555 1_555
C13 C12 1_555 1_555
C14 C13 1_555 1_555
H8 C14 1_555 1_555
C15 C14 1_555 1_555
H9 C15 1_555 1_555
C16 C15 1_555 1_555
C17 C16 1_555 1_555
H10 C17 1_555 1_555
C18 C13 1_555 1_555
H11 C18 1_555 1_555
C19 C16 1_555 1_555
H12 C19 1_555 1_555
H13 C19 1_555 1_555
H14 C19 1_555 1_555
C20 C10 1_555 1_555
C21 N4 1_555 1_555
C22 C10 1_555 1_555
C23 C22 1_555 1_555
H15 C23 1_555 1_555
C24 C23 1_555 1_555
H16 C24 1_555 1_555
C25 C24 1_555 1_555
H17 C25 1_555 1_555
C26 C21 1_555 1_555
H18 C26 1_555 1_555
C27 N4 1_555 1_555
H19 C27 1_555 1_555
H20 C27 1_555 1_555
C28 C27 1_555 1_555
C29 C28 1_555 1_555
H21 C29 1_555 1_555
C30 C29 1_555 1_555
H22 C30 1_555 1_555
C31 C30 1_555 1_555
H23 C31 1_555 1_555
C32 C31 1_555 1_555
H24 C32 1_555 1_555
C33 C28 1_555 1_555
H25 C33 1_555 1_555
C34 N1 1_555 1_555
H26 C34 1_555 1_555
H27 C34 1_555 1_555
H28 C34 1_555 1_555
C35 C11 1_555 1_555
C36 C11 1_555 1_555
C5 C6 1_555 1_555
C7 C8 1_555 1_555
C11 C12 1_555 1_555
C17 C18 1_555 1_555
C21 C22 1_555 1_555
C25 C26 1_555 1_555
C32 C33 1_555 1_555

#END
