
#######################################################################
#
#                 Cambridge Crystallographic Data Centre
#                                CCDC 
#
#######################################################################
#
# If this CIF has been generated from an entry in the Cambridge 
# Structural Database, then it will include bibliographic, chemical, 
# crystal, experimental, refinement or atomic coordinate data resulting 
# from the CCDC's data processing and validation procedures.
#
#######################################################################

data_PUTPOL
_chemical_formula_moiety         'C21 H14 Cl1 N1 O3'
_chemical_name_systematic        
'1-(4-chlorobenzoyl)pyrrolo[1,2-a]quinolin-3-yl acetate'
_symmetry_cell_setting           orthorhombic
_symmetry_space_group_name_H-M   'P n a 21'
_symmetry_Int_Tables_number      33
_space_group_name_Hall           'P 2c -2n'
loop_
_symmetry_equiv_pos_site_id
_symmetry_equiv_pos_as_xyz
1 x,y,z
2 -x,-y,1/2+z
3 1/2+x,1/2-y,z
4 1/2-x,1/2+y,1/2+z
_cell_length_a                   18.6725(14)
_cell_length_b                   9.6689(7)
_cell_length_c                   19.3848(14)
_cell_angle_alpha                90
_cell_angle_beta                 90
_cell_angle_gamma                90
_cell_volume                     3499.78
_exptl_crystal_colour            yellow
_exptl_crystal_description       block
_cell_formula_units_Z            8
loop_
_atom_site_label
_atom_site_type_symbol
_atom_site_fract_x
_atom_site_fract_y
_atom_site_fract_z
Cl1 Cl 0.80270(5) 0.66689(11) 0.54093(4)
O1 O 0.53873(12) 0.7697(2) 0.76853(12)
N1 N 0.48039(10) 0.5014(2) 0.81325(10)
O2 O 0.45099(10) 0.2116(2) 0.70489(12)
C1 C 0.62908(13) 0.6635(2) 0.70213(13)
C2 C 0.44531(12) 0.3799(2) 0.79462(13)
C3 C 0.53313(13) 0.4177(2) 0.71741(14)
H1 H 0.5635 0.4069 0.6798
C4 C 0.46371(14) 0.5652(3) 0.87671(13)
C5 C 0.73767(15) 0.6690(3) 0.60543(15)
C6 C 0.47874(13) 0.3284(2) 0.73671(14)
C7 C 0.53422(12) 0.5267(2) 0.76453(13)
C8 C 0.67886(13) 0.5572(2) 0.69939(14)
H2 H 0.6753 0.4840 0.7303
C9 C 0.56583(13) 0.6618(2) 0.74980(13)
C10 C 0.38451(14) 0.3321(3) 0.83130(14)
H3 H 0.3601 0.2534 0.8168
O3 O 0.55645(12) 0.1443(2) 0.66151(15)
C11 C 0.49391(16) 0.1264(3) 0.66918(15)
C12 C 0.40283(15) 0.5170(3) 0.91268(14)
C13 C 0.63777(15) 0.7753(3) 0.65801(15)
H4 H 0.6065 0.8498 0.6611
C14 C 0.73393(15) 0.5585(3) 0.65121(16)
H5 H 0.7674 0.4873 0.6496
C15 C 0.69167(16) 0.7778(3) 0.60999(15)
H6 H 0.6968 0.8534 0.5807
C16 C 0.50705(16) 0.6684(3) 0.90557(14)
H7 H 0.5485 0.6971 0.8832
C17 C 0.36260(15) 0.4024(3) 0.88734(16)
H8 H 0.3208 0.3759 0.9098
C18 C 0.4527(2) 0.0060(4) 0.6420(2)
H9 H 0.4852 -0.0665 0.6294
H10 H 0.4257 0.0340 0.6023
H11 H 0.4205 -0.0270 0.6770
C19 C 0.38522(19) 0.5805(4) 0.97544(16)
H12 H 0.3448 0.5513 0.9994
C20 C 0.4265(2) 0.6850(4) 1.00222(18)
H13 H 0.4135 0.7274 1.0434
C21 C 0.4875(2) 0.7267(3) 0.96761(17)
H14 H 0.5159 0.7958 0.9866
Cl2 Cl 0.44815(6) 0.18991(13) 1.00140(5)
O4 O 0.71543(12) 0.2623(2) 0.77445(13)
O5 O 0.79773(11) -0.2923(2) 0.84858(15)
N2 N 0.77076(11) -0.0101(2) 0.73520(11)
C22 C 0.62315(13) 0.1655(2) 0.84284(14)
C23 C 0.57142(14) 0.0623(3) 0.84631(16)
H15 H 0.5737 -0.0130 0.8165
C24 C 0.71636(14) -0.0871(3) 0.83112(16)
H16 H 0.6853 -0.0959 0.8683
C25 C 0.77117(14) -0.1782(3) 0.81375(18)
C26 C 0.71638(13) 0.0196(3) 0.78273(14)
C27 C 0.68671(14) 0.1571(3) 0.79545(14)
C28 C 0.61681(16) 0.2804(3) 0.88426(16)
H17 H 0.6492 0.3528 0.8796
C29 C 0.80482(13) -0.1312(3) 0.75556(17)
C30 C 0.51399(17) 0.1827(3) 0.93766(16)
C31 C 0.74400(18) 0.1510(3) 0.64059(17)
H18 H 0.7009 0.1762 0.6611
O6 O 0.68968(13) -0.3723(3) 0.87622(14)
C32 C 0.75332(16) -0.3830(3) 0.87795(16)
C33 C 0.51652(16) 0.0714(3) 0.89407(17)
H19 H 0.4817 0.0028 0.8965
C34 C 0.56229(17) 0.2891(3) 0.93299(16)
H20 H 0.5587 0.3656 0.9618
C35 C 0.85067(16) 0.0065(3) 0.63798(16)
C36 C 0.88970(16) -0.1098(3) 0.66421(18)
H21 H 0.9319 -0.1372 0.6428
C37 C 0.86593(15) -0.1787(3) 0.71888(18)
H22 H 0.8894 -0.2585 0.7332
C38 C 0.78798(14) 0.0527(3) 0.67163(15)
C39 C 0.7650(2) 0.2107(5) 0.57912(19)
H23 H 0.7358 0.2766 0.5583
C40 C 0.8704(2) 0.0729(4) 0.57648(18)
H24 H 0.9128 0.0474 0.5548
C41 C 0.7940(2) -0.4949(3) 0.9123(2)
H25 H 0.7996 -0.5711 0.8811
H26 H 0.7685 -0.5251 0.9526
H27 H 0.8403 -0.4610 0.9256
C42 C 0.8295(2) 0.1732(4) 0.54794(19)
H28 H 0.8443 0.2169 0.5077
loop_
_geom_bond_atom_site_label_1
_geom_bond_atom_site_label_2
_geom_bond_site_symmetry_1
_geom_bond_site_symmetry_2
Cl1 C5 1_555 1_555
O1 C9 1_555 1_555
N1 C2 1_555 1_555
O2 C6 1_555 1_555
C1 C8 1_555 1_555
C2 C6 1_555 1_555
C3 H1 1_555 1_555
C4 N1 1_555 1_555
C5 C14 1_555 1_555
C6 C3 1_555 1_555
C7 N1 1_555 1_555
C8 H2 1_555 1_555
C9 C1 1_555 1_555
C10 C2 1_555 1_555
H3 C10 1_555 1_555
O3 C11 1_555 1_555
C11 O2 1_555 1_555
C12 C4 1_555 1_555
C13 C1 1_555 1_555
H4 C13 1_555 1_555
C14 C8 1_555 1_555
H5 C14 1_555 1_555
C15 C5 1_555 1_555
H6 C15 1_555 1_555
C16 C4 1_555 1_555
H7 C16 1_555 1_555
C17 C10 1_555 1_555
H8 C17 1_555 1_555
C18 C11 1_555 1_555
H9 C18 1_555 1_555
H10 C18 1_555 1_555
H11 C18 1_555 1_555
C19 C12 1_555 1_555
H12 C19 1_555 1_555
C20 C19 1_555 1_555
H13 C20 1_555 1_555
C21 C16 1_555 1_555
H14 C21 1_555 1_555
Cl2 C30 1_555 1_555
O4 C27 1_555 1_555
O5 C25 1_555 1_555
N2 C26 1_555 1_555
C22 C23 1_555 1_555
C23 H15 1_555 1_555
C24 H16 1_555 1_555
C25 C24 1_555 1_555
C26 C24 1_555 1_555
C27 C22 1_555 1_555
C28 C22 1_555 1_555
H17 C28 1_555 1_555
C29 N2 1_555 1_555
C30 C33 1_555 1_555
C31 H18 1_555 1_555
O6 C32 1_555 1_555
C32 O5 1_555 1_555
C33 C23 1_555 1_555
H19 C33 1_555 1_555
C34 C28 1_555 1_555
H20 C34 1_555 1_555
C35 C36 1_555 1_555
C36 H21 1_555 1_555
C37 C29 1_555 1_555
H22 C37 1_555 1_555
C38 N2 1_555 1_555
C39 C31 1_555 1_555
H23 C39 1_555 1_555
C40 C35 1_555 1_555
H24 C40 1_555 1_555
C41 C32 1_555 1_555
H25 C41 1_555 1_555
H26 C41 1_555 1_555
H27 C41 1_555 1_555
C42 C39 1_555 1_555
H28 C42 1_555 1_555
C3 C7 1_555 1_555
C7 C9 1_555 1_555
C12 C17 1_555 1_555
C13 C15 1_555 1_555
C20 C21 1_555 1_555
C25 C29 1_555 1_555
C26 C27 1_555 1_555
C30 C34 1_555 1_555
C31 C38 1_555 1_555
C35 C38 1_555 1_555
C36 C37 1_555 1_555
C40 C42 1_555 1_555

#END
