
#######################################################################
#
#                 Cambridge Crystallographic Data Centre
#                                CCDC 
#
#######################################################################
#
# If this CIF has been generated from an entry in the Cambridge 
# Structural Database, then it will include bibliographic, chemical, 
# crystal, experimental, refinement or atomic coordinate data resulting 
# from the CCDC's data processing and validation procedures.
#
#######################################################################

data_PUTPAV01
_chemical_formula_moiety         'C6 H12 N2,2(C6 H5 N1 O3)'
_chemical_name_systematic        
'bis(4-Nitrophenol) 1,4-diazabicyclo[2.2.2]octane'
_symmetry_cell_setting           triclinic
_symmetry_space_group_name_H-M   'P -1'
_symmetry_Int_Tables_number      2
_space_group_name_Hall           '-P 1'
loop_
_symmetry_equiv_pos_site_id
_symmetry_equiv_pos_as_xyz
1 x,y,z
2 -x,-y,-z
_cell_length_a                   9.785(2)
_cell_length_b                   13.7474(18)
_cell_length_c                   13.7474(18)
_cell_angle_alpha                80.157(14)
_cell_angle_beta                 84.13(2)
_cell_angle_gamma                84.13(2)
_cell_volume                     1805.71
_exptl_crystal_colour            yellow
_exptl_crystal_description       block
_cell_formula_units_Z            4
loop_
_atom_site_label
_atom_site_type_symbol
_atom_site_fract_x
_atom_site_fract_y
_atom_site_fract_z
O1 O 0.3877(5) -0.0717(3) 0.9429(3)
O2 O -0.1283(5) 0.2246(3) 1.0112(3)
O3 O -0.1329(5) 0.2226(4) 0.8543(4)
N1 N -0.0809(5) 0.1957(4) 0.9332(4)
C1 C 0.2757(6) -0.0058(5) 0.9376(5)
C2 C 0.0882(6) 0.0854(5) 0.8513(5)
H1 H 0.0387 0.1017 0.7939
C3 C 0.0442(6) 0.1282(4) 0.9355(5)
C4 C 0.1127(7) 0.1040(4) 1.0201(5)
H2 H 0.0795 0.1320 1.0775
C5 C 0.2296(7) 0.0388(4) 1.0212(5)
H3 H 0.2791 0.0240 1.0786
C6 C 0.2041(6) 0.0193(5) 0.8523(5)
H4 H 0.2356 -0.0093 0.7950
H5 H 0.3994 -0.1015 0.8819
O4 O 0.3937(4) 0.4110(3) 0.4531(3)
O5 O -0.1066(5) 0.7119(3) 0.5429(4)
O6 O -0.1061(5) 0.7303(4) 0.3830(4)
N2 N -0.0571(5) 0.6912(4) 0.4610(4)
C7 C 0.0618(6) 0.6182(4) 0.4579(5)
C8 C 0.2862(6) 0.4787(4) 0.4519(4)
C9 C 0.2081(6) 0.5081(5) 0.3713(5)
H6 H 0.2309 0.4779 0.3139
C10 C 0.0977(6) 0.5802(5) 0.3718(5)
H7 H 0.0489 0.6025 0.3147
C11 C 0.2482(7) 0.5208(4) 0.5370(5)
H8 H 0.3008 0.5020 0.5926
C12 C 0.1346(7) 0.5900(4) 0.5419(5)
H9 H 0.1073 0.6172 0.6006
H10 H 0.4082 0.3825 0.4012
O7 O 0.3953(4) 0.4493(3) -0.0909(3)
O8 O -0.0987(4) 0.5329(4) 0.2168(3)
O9 O -0.1108(5) 0.3756(4) 0.2174(4)
N3 N -0.0554(5) 0.4551(4) 0.1874(4)
C13 C 0.0954(6) 0.3694(5) 0.0698(4)
H11 H 0.0415 0.3143 0.0874
C14 C 0.2859(6) 0.4491(4) -0.0239(4)
C15 C 0.1409(6) 0.5337(4) 0.0944(4)
H12 H 0.1178 0.5896 0.1270
C16 C 0.0638(6) 0.4535(5) 0.1153(4)
C17 C 0.2533(6) 0.5311(5) 0.0246(5)
H13 H 0.3087 0.5855 0.0096
C18 C 0.2049(6) 0.3675(5) -0.0002(5)
H14 H 0.2266 0.3115 -0.0328
H15 H 0.4037 0.3932 -0.1147
O10 O 0.6161(4) 0.0526(3) 0.5695(3)
O11 O 1.1268(5) 0.1446(4) 0.2657(4)
O12 O 1.1359(5) -0.0158(4) 0.2773(4)
N4 N 1.0820(5) 0.0658(4) 0.2978(4)
C19 C 0.9575(6) 0.0618(5) 0.3685(4)
C20 C 0.7924(6) 0.1461(5) 0.4727(4)
H16 H 0.7590 0.2043 0.4993
C21 C 0.9064(6) 0.1485(5) 0.4030(4)
H17 H 0.9482 0.2085 0.3796
C22 C 0.7272(6) 0.0601(5) 0.5038(4)
C23 C 0.8978(7) -0.0256(5) 0.3996(5)
H18 H 0.9361 -0.0845 0.3763
C24 C 0.7813(7) -0.0265(5) 0.4655(5)
H19 H 0.7370 -0.0859 0.4853
H20 H 0.5966 0.1057 0.6204
N5 N 0.5472(5) 0.1889(4) 0.6833(4)
N6 N 0.4470(5) 0.3042(4) 0.8066(4)
C25 C 0.3987(6) 0.2183(5) 0.6716(5)
H21 H 0.3481 0.1582 0.6802
H22 H 0.3879 0.2549 0.6039
C26 C 0.5624(7) 0.1391(5) 0.7872(5)
H23 H 0.6611 0.1188 0.7958
H24 H 0.5120 0.0787 0.8009
C27 C 0.3364(6) 0.2847(5) 0.7489(5)
H25 H 0.2938 0.3480 0.7145
H26 H 0.2640 0.2508 0.7938
C28 C 0.6200(7) 0.2796(5) 0.6674(6)
H27 H 0.6139 0.3135 0.5982
H28 H 0.7187 0.2618 0.6777
C29 C 0.5572(7) 0.3510(5) 0.7394(5)
H29 H 0.6298 0.3662 0.7784
H30 H 0.5193 0.4139 0.7013
C30 C 0.5057(7) 0.2089(5) 0.8615(5)
H31 H 0.4333 0.1777 0.9086
H32 H 0.5807 0.2213 0.8997
N7 N 0.4526(5) 0.3087(4) 0.3073(4)
N8 N 0.5515(5) 0.1848(4) 0.1925(4)
C31 C 0.4372(7) 0.2063(4) 0.3583(5)
H33 H 0.3386 0.1980 0.3790
H34 H 0.4881 0.1932 0.4185
C32 C 0.4937(7) 0.1320(4) 0.2885(5)
H35 H 0.5663 0.0851 0.3198
H36 H 0.4185 0.0933 0.2771
C33 C 0.6600(6) 0.2459(5) 0.2113(5)
H37 H 0.7006 0.2806 0.1475
H38 H 0.7344 0.2024 0.2444
C34 C 0.4374(7) 0.2528(5) 0.1473(5)
H39 H 0.3643 0.2134 0.1338
H40 H 0.4732 0.2906 0.0835
C35 C 0.5983(6) 0.3226(5) 0.2774(5)
H41 H 0.6498 0.3147 0.3370
H42 H 0.6071 0.3904 0.2404
C36 C 0.3758(7) 0.3255(5) 0.2180(5)
H43 H 0.3817 0.3946 0.1837
H44 H 0.2774 0.3153 0.2373
loop_
_geom_bond_atom_site_label_1
_geom_bond_atom_site_label_2
_geom_bond_site_symmetry_1
_geom_bond_site_symmetry_2
O1 C1 1_555 1_555
O2 N1 1_555 1_555
O3 N1 1_555 1_555
N1 C3 1_555 1_555
C1 C5 1_555 1_555
C2 H1 1_555 1_555
C3 C2 1_555 1_555
C4 C3 1_555 1_555
H2 C4 1_555 1_555
C5 C4 1_555 1_555
H3 C5 1_555 1_555
C6 C1 1_555 1_555
H4 C6 1_555 1_555
H5 O1 1_555 1_555
O4 C8 1_555 1_555
O5 N2 1_555 1_555
O6 N2 1_555 1_555
N2 C7 1_555 1_555
C7 C10 1_555 1_555
C8 C9 1_555 1_555
C9 H6 1_555 1_555
C10 C9 1_555 1_555
H7 C10 1_555 1_555
C11 C8 1_555 1_555
H8 C11 1_555 1_555
C12 C7 1_555 1_555
H9 C12 1_555 1_555
H10 O4 1_555 1_555
O7 C14 1_555 1_555
O8 N3 1_555 1_555
O9 N3 1_555 1_555
N3 C16 1_555 1_555
C13 H11 1_555 1_555
C14 C17 1_555 1_555
C15 H12 1_555 1_555
C16 C13 1_555 1_555
C17 C15 1_555 1_555
H13 C17 1_555 1_555
C18 C13 1_555 1_555
H14 C18 1_555 1_555
H15 O7 1_555 1_555
O10 C22 1_555 1_555
O11 N4 1_555 1_555
O12 N4 1_555 1_555
N4 C19 1_555 1_555
C19 C21 1_555 1_555
C20 H16 1_555 1_555
C21 C20 1_555 1_555
H17 C21 1_555 1_555
C22 C20 1_555 1_555
C23 C19 1_555 1_555
H18 C23 1_555 1_555
C24 C22 1_555 1_555
H19 C24 1_555 1_555
H20 O10 1_555 1_555
N5 C25 1_555 1_555
N6 C27 1_555 1_555
C25 H21 1_555 1_555
H22 C25 1_555 1_555
C26 N5 1_555 1_555
H23 C26 1_555 1_555
H24 C26 1_555 1_555
C27 C25 1_555 1_555
H25 C27 1_555 1_555
H26 C27 1_555 1_555
C28 N5 1_555 1_555
H27 C28 1_555 1_555
H28 C28 1_555 1_555
C29 N6 1_555 1_555
H29 C29 1_555 1_555
H30 C29 1_555 1_555
C30 N6 1_555 1_555
H31 C30 1_555 1_555
H32 C30 1_555 1_555
N7 C31 1_555 1_555
N8 C32 1_555 1_555
C31 H33 1_555 1_555
H34 C31 1_555 1_555
C32 C31 1_555 1_555
H35 C32 1_555 1_555
H36 C32 1_555 1_555
C33 N8 1_555 1_555
H37 C33 1_555 1_555
H38 C33 1_555 1_555
C34 N8 1_555 1_555
H39 C34 1_555 1_555
H40 C34 1_555 1_555
C35 N7 1_555 1_555
H41 C35 1_555 1_555
H42 C35 1_555 1_555
C36 N7 1_555 1_555
H43 C36 1_555 1_555
H44 C36 1_555 1_555
C2 C6 1_555 1_555
C11 C12 1_555 1_555
C14 C18 1_555 1_555
C15 C16 1_555 1_555
C23 C24 1_555 1_555
C26 C30 1_555 1_555
C28 C29 1_555 1_555
C33 C35 1_555 1_555
C34 C36 1_555 1_555

#END
