
#######################################################################
#
#                 Cambridge Crystallographic Data Centre
#                                CCDC 
#
#######################################################################
#
# If this CIF has been generated from an entry in the Cambridge 
# Structural Database, then it will include bibliographic, chemical, 
# crystal, experimental, refinement or atomic coordinate data resulting 
# from the CCDC's data processing and validation procedures.
#
#######################################################################

data_PUTPAX
_chemical_formula_moiety         'C23 H14 Br1 N1 O2'
_chemical_name_systematic        
11-(4-bromophenyl)-5-methyl-5H-benzo[b]carbazole-7,10-dione
_symmetry_cell_setting           monoclinic
_symmetry_space_group_name_H-M   'C 2/c'
_symmetry_Int_Tables_number      15
_space_group_name_Hall           '-C 2yn'
loop_
_symmetry_equiv_pos_site_id
_symmetry_equiv_pos_as_xyz
1 x,y,z
2 -x,y,1/2-z
3 1/2+x,1/2+y,z
4 1/2-x,1/2+y,1/2-z
5 -x,-y,-z
6 x,-y,1/2+z
7 1/2-x,1/2-y,-z
8 1/2+x,1/2-y,1/2+z
_cell_length_a                   23.3287(17)
_cell_length_b                   9.9669(8)
_cell_length_c                   18.5469(13)
_cell_angle_alpha                90
_cell_angle_beta                 124.378(2)
_cell_angle_gamma                90
_cell_volume                     3559.18
_exptl_crystal_colour            colorless
_exptl_crystal_description       block
_cell_formula_units_Z            8
loop_
_atom_site_label
_atom_site_type_symbol
_atom_site_fract_x
_atom_site_fract_y
_atom_site_fract_z
Br1 Br 0.10168(4) 0.40246(8) 0.33182(5)
O1 O 0.0845(3) 1.0160(5) -0.1548(3)
O2 O 0.1854(2) 0.7706(7) 0.1471(3)
N1 N -0.1303(2) 0.8803(5) -0.1598(3)
C1 C -0.1554(3) 0.8143(6) -0.1165(3)
C2 C -0.2244(3) 0.7953(6) -0.1446(4)
H1 H -0.2611 0.8307 -0.1972
C3 C -0.2354(3) 0.7234(7) -0.0920(4)
H2 H -0.2807 0.7079 -0.1091
C4 C -0.1810(3) 0.6717(8) -0.0129(4)
H3 H -0.1906 0.6242 0.0223
C5 C -0.1133(3) 0.6895(6) 0.0141(4)
H4 H -0.0774 0.6517 0.0662
C6 C -0.0988(3) 0.7649(6) -0.0372(3)
C7 C -0.0363(3) 0.8021(5) -0.0317(3)
C8 C -0.0587(3) 0.8719(5) -0.1099(3)
C9 C -0.0136(3) 0.9157(5) -0.1304(4)
H5 H -0.0298 0.9560 -0.1839
C10 C 0.0568(3) 0.8979(5) -0.0686(4)
C11 C 0.0813(3) 0.8277(6) 0.0103(3)
C12 C 0.0346(3) 0.7764(5) 0.0288(3)
C13 C 0.1571(3) 0.8144(7) 0.0734(4)
C14 C 0.2017(4) 0.8620(9) 0.0447(5)
H6 H 0.2494 0.8498 0.0832
C15 C 0.1804(4) 0.9169(7) -0.0266(5)
H7 H 0.2118 0.9375 -0.0408
C16 C 0.1036(3) 0.9508(7) -0.0912(4)
C17 C 0.0567(3) 0.6896(5) 0.1072(3)
C18 C 0.0559(3) 0.7382(6) 0.1763(4)
H8 H 0.0445 0.8275 0.1766
C19 C 0.0721(3) 0.6546(6) 0.2457(3)
H9 H 0.0725 0.6881 0.2928
C20 C 0.0875(3) 0.5222(6) 0.2437(4)
C21 C 0.0897(4) 0.4748(6) 0.1747(4)
H10 H 0.1014 0.3857 0.1743
C22 C 0.0748(4) 0.5576(7) 0.1073(4)
H11 H 0.0769 0.5252 0.0619
C23 C -0.1739(3) 0.9463(7) -0.2453(4)
H12 H -0.1449 0.9860 -0.2609
H13 H -0.2014 1.0149 -0.2422
H14 H -0.2040 0.8812 -0.2886
loop_
_geom_bond_atom_site_label_1
_geom_bond_atom_site_label_2
_geom_bond_site_symmetry_1
_geom_bond_site_symmetry_2
Br1 C20 1_555 1_555
O1 C16 1_555 1_555
O2 C13 1_555 1_555
N1 C1 1_555 1_555
C1 C2 1_555 1_555
C2 H1 1_555 1_555
C3 C2 1_555 1_555
H2 C3 1_555 1_555
C4 C3 1_555 1_555
H3 C4 1_555 1_555
C5 C4 1_555 1_555
H4 C5 1_555 1_555
C6 C1 1_555 1_555
C7 C6 1_555 1_555
C8 N1 1_555 1_555
C9 C8 1_555 1_555
H5 C9 1_555 1_555
C10 C9 1_555 1_555
C11 C10 1_555 1_555
C12 C7 1_555 1_555
C13 C11 1_555 1_555
C14 C13 1_555 1_555
H6 C14 1_555 1_555
C15 C14 1_555 1_555
H7 C15 1_555 1_555
C16 C10 1_555 1_555
C17 C12 1_555 1_555
C18 C17 1_555 1_555
H8 C18 1_555 1_555
C19 C18 1_555 1_555
H9 C19 1_555 1_555
C20 C19 1_555 1_555
C21 C20 1_555 1_555
H10 C21 1_555 1_555
C22 C17 1_555 1_555
H11 C22 1_555 1_555
C23 N1 1_555 1_555
H12 C23 1_555 1_555
H13 C23 1_555 1_555
H14 C23 1_555 1_555
C5 C6 1_555 1_555
C7 C8 1_555 1_555
C11 C12 1_555 1_555
C15 C16 1_555 1_555
C21 C22 1_555 1_555

#END
