
#######################################################################
#
#                 Cambridge Crystallographic Data Centre
#                                CCDC 
#
#######################################################################
#
# If this CIF has been generated from an entry in the Cambridge 
# Structural Database, then it will include bibliographic, chemical, 
# crystal, experimental, refinement or atomic coordinate data resulting 
# from the CCDC's data processing and validation procedures.
#
#######################################################################

data_PUTPEB
_chemical_formula_moiety         'C34 H19 N3 O1,C1 H1 Cl3'
_chemical_name_systematic        
'(5-methyl-14-oxo-15-phenyl-5,14-dihydro-7H-anthra[2,3-b]carbazol-7-ylidene)malononitrile chloroform solvate'
_symmetry_cell_setting           monoclinic
_symmetry_space_group_name_H-M   'P 21/n'
_symmetry_Int_Tables_number      14
_space_group_name_Hall           '-P 2yn'
loop_
_symmetry_equiv_pos_site_id
_symmetry_equiv_pos_as_xyz
1 x,y,z
2 1/2-x,1/2+y,1/2-z
3 -x,-y,-z
4 1/2+x,1/2-y,1/2+z
_cell_length_a                   7.5626(4)
_cell_length_b                   26.0651(13)
_cell_length_c                   14.6450(7)
_cell_angle_alpha                90
_cell_angle_beta                 92.724(2)
_cell_angle_gamma                90
_cell_volume                     2883.56
_exptl_crystal_colour            colorless
_exptl_crystal_description       block
_cell_formula_units_Z            4
loop_
_atom_site_label
_atom_site_type_symbol
_atom_site_fract_x
_atom_site_fract_y
_atom_site_fract_z
O1 O 0.1896(3) 0.09537(8) 0.16223(14)
N1 N -0.0363(3) 0.31058(9) 0.32217(16)
N2 N 0.1784(4) 0.35530(12) 0.04081(19)
N3 N 0.1107(4) 0.27307(12) -0.19761(18)
C1 C -0.0071(4) 0.29383(12) 0.41136(19)
C2 C -0.0218(4) 0.32187(13) 0.4920(2)
H1 H -0.0540 0.3563 0.4908
C3 C 0.0129(4) 0.29665(14) 0.5731(2)
H2 H 0.0030 0.3143 0.6278
C4 C 0.0629(4) 0.24500(15) 0.5755(2)
H3 H 0.0836 0.2288 0.6316
C5 C 0.0819(4) 0.21783(13) 0.49583(18)
H4 H 0.1173 0.1837 0.4979
C6 C 0.0474(4) 0.24232(12) 0.41191(18)
C7 C 0.0528(4) 0.22713(11) 0.31649(18)
C8 C 0.0913(4) 0.18122(11) 0.27257(17)
C9 C 0.0827(4) 0.18040(10) 0.17592(17)
C10 C 0.1200(4) 0.13261(11) 0.12564(18)
C11 C 0.0577(4) 0.13015(11) 0.02754(18)
C12 C 0.0559(4) 0.08380(11) -0.01599(19)
H5 H 0.0985 0.0550 0.0155
C13 C -0.0090(4) 0.07835(11) -0.10753(19)
C14 C -0.0074(5) 0.03124(13) -0.1545(2)
H6 H 0.0373 0.0021 -0.1249
C15 C -0.0712(5) 0.02801(14) -0.2434(2)
H7 H -0.0699 -0.0033 -0.2738
C16 C -0.1380(5) 0.07139(14) -0.2886(2)
H8 H -0.1809 0.0687 -0.3490
C17 C -0.1416(4) 0.11773(13) -0.2458(2)
H9 H -0.1863 0.1463 -0.2770
C18 C -0.0773(4) 0.12244(12) -0.15359(19)
C19 C -0.0701(4) 0.17023(12) -0.10859(18)
H10 H -0.1149 0.1992 -0.1388
C20 C 0.0020(4) 0.17505(11) -0.02057(18)
C21 C 0.0356(4) 0.22486(10) 0.02470(18)
C22 C 0.0344(4) 0.22537(10) 0.12547(17)
C23 C -0.0115(4) 0.26987(11) 0.17027(18)
H11 H -0.0494 0.2987 0.1375
C24 C 0.0003(4) 0.27056(11) 0.26479(18)
C25 C -0.1037(5) 0.36035(13) 0.2933(2)
H12 H -0.1182 0.3816 0.3459
H13 H -0.2159 0.3561 0.2607
H14 H -0.0216 0.3763 0.2540
C26 C 0.0814(4) 0.26699(11) -0.02348(18)
C27 C 0.1349(4) 0.31556(13) 0.01593(19)
C28 C 0.0966(4) 0.26806(11) -0.1209(2)
C29 C 0.1286(4) 0.13567(11) 0.33280(18)
C30 C 0.2989(5) 0.12100(13) 0.3601(2)
H15 H 0.3953 0.1368 0.3347
C31 C 0.3257(6) 0.08307(15) 0.4248(3)
H16 H 0.4402 0.0735 0.4435
C32 C 0.1837(9) 0.05938(16) 0.4617(3)
H17 H 0.2027 0.0337 0.5052
C33 C 0.0147(7) 0.07314(15) 0.4351(3)
H18 H -0.0812 0.0569 0.4600
C34 C -0.0121(5) 0.11104(13) 0.3713(2)
H19 H -0.1271 0.1205 0.3534
C35 C -0.0173(6) 0.52889(16) 0.2931(3)
H20 H 0.0973 0.5432 0.2775
Cl1 Cl -0.1589(2) 0.57925(6) 0.31633(15)
Cl2 Cl 0.0155(2) 0.48901(5) 0.38733(8)
Cl3 Cl -0.10164(19) 0.49309(5) 0.20050(9)
loop_
_geom_bond_atom_site_label_1
_geom_bond_atom_site_label_2
_geom_bond_site_symmetry_1
_geom_bond_site_symmetry_2
O1 C10 1_555 1_555
N1 C1 1_555 1_555
N2 C27 1_555 1_555
N3 C28 1_555 1_555
C1 C2 1_555 1_555
C2 H1 1_555 1_555
C3 C2 1_555 1_555
H2 C3 1_555 1_555
C4 C3 1_555 1_555
H3 C4 1_555 1_555
C5 C4 1_555 1_555
H4 C5 1_555 1_555
C6 C1 1_555 1_555
C7 C6 1_555 1_555
C8 C7 1_555 1_555
C9 C8 1_555 1_555
C10 C9 1_555 1_555
C11 C10 1_555 1_555
C12 C11 1_555 1_555
H5 C12 1_555 1_555
C13 C12 1_555 1_555
C14 C13 1_555 1_555
H6 C14 1_555 1_555
C15 C14 1_555 1_555
H7 C15 1_555 1_555
C16 C15 1_555 1_555
H8 C16 1_555 1_555
C17 C16 1_555 1_555
H9 C17 1_555 1_555
C18 C13 1_555 1_555
C19 C18 1_555 1_555
H10 C19 1_555 1_555
C20 C11 1_555 1_555
C21 C20 1_555 1_555
C22 C9 1_555 1_555
C23 C22 1_555 1_555
H11 C23 1_555 1_555
C24 N1 1_555 1_555
C25 N1 1_555 1_555
H12 C25 1_555 1_555
H13 C25 1_555 1_555
H14 C25 1_555 1_555
C26 C21 1_555 1_555
C27 C26 1_555 1_555
C28 C26 1_555 1_555
C29 C8 1_555 1_555
C30 C29 1_555 1_555
H15 C30 1_555 1_555
C31 C30 1_555 1_555
H16 C31 1_555 1_555
C32 C31 1_555 1_555
H17 C32 1_555 1_555
C33 C32 1_555 1_555
H18 C33 1_555 1_555
C34 C29 1_555 1_555
H19 C34 1_555 1_555
C35 H20 1_555 1_555
Cl1 C35 1_555 1_555
Cl2 C35 1_555 1_555
Cl3 C35 1_555 1_555
C5 C6 1_555 1_555
C7 C24 1_555 1_555
C17 C18 1_555 1_555
C19 C20 1_555 1_555
C21 C22 1_555 1_555
C23 C24 1_555 1_555
C33 C34 1_555 1_555

#END
