
#######################################################################
#
#                 Cambridge Crystallographic Data Centre
#                                CCDC 
#
#######################################################################
#
# If this CIF has been generated from an entry in the Cambridge 
# Structural Database, then it will include bibliographic, chemical, 
# crystal, experimental, refinement or atomic coordinate data resulting 
# from the CCDC's data processing and validation procedures.
#
#######################################################################

data_PUTQIG
_chemical_formula_moiety         '1.5(C3 H6 O3),C2 B1 F2 O4 1-,Li1 1+'
_chemical_name_systematic        
'lithium (ethanedioato)(difluoro)borate dimethyl carbonate solvate'
_symmetry_cell_setting           monoclinic
_symmetry_space_group_name_H-M   'P 21/n'
_symmetry_Int_Tables_number      14
_space_group_name_Hall           '-P 2yn'
loop_
_symmetry_equiv_pos_site_id
_symmetry_equiv_pos_as_xyz
1 x,y,z
2 1/2-x,1/2+y,1/2-z
3 -x,-y,-z
4 1/2+x,1/2-y,1/2+z
_cell_length_a                   8.1749(2)
_cell_length_b                   10.7449(2)
_cell_length_c                   12.8665(3)
_cell_angle_alpha                90
_cell_angle_beta                 94.654(2)
_cell_angle_gamma                90
_cell_volume                     1126.45
_exptl_crystal_colour            colorless
_exptl_crystal_description       plate
_cell_formula_units_Z            4
loop_
_atom_site_label
_atom_site_type_symbol
_atom_site_fract_x
_atom_site_fract_y
_atom_site_fract_z
Li1 Li 0.7416(3) 0.6117(3) 0.3468(2)
C1 C 0.75097(19) 0.87958(15) 0.41114(13)
O1 O 0.75097(15) 0.79380(11) 0.35042(9)
C2 C 0.74406(18) 1.01796(15) 0.38064(13)
O2 O 0.75673(15) 0.87233(11) 0.51253(9)
O3 O 0.73382(15) 1.05692(11) 0.29225(9)
F1 F 0.89637(13) 1.02048(10) 0.62217(8)
O4 O 0.74995(14) 1.08405(10) 0.46551(9)
F2 F 0.61867(13) 1.01698(10) 0.61204(8)
B1 B 0.7552(2) 1.00078(18) 0.55931(15)
C3 C 0.3948(2) 0.50880(16) 0.36377(13)
C4 C 0.2499(3) 0.69607(18) 0.33646(17)
H1 H 0.1367 0.7269 0.3304
H2 H 0.3014 0.7141 0.2720
H3 H 0.3117 0.7373 0.3952
C5 C 0.5209(2) 0.31369(19) 0.37754(16)
H4 H 0.4918 0.2253 0.3802
H5 H 0.5871 0.3366 0.4416
H6 H 0.5842 0.3288 0.3173
O5 O 0.52495(15) 0.56196(12) 0.37001(10)
O6 O 0.24966(15) 0.56333(11) 0.35392(10)
O7 O 0.37324(14) 0.38780(11) 0.36808(10)
O8? O 0.9026(3) 0.5521(3) 0.4413(2)
C6? C 1.0000 0.5000 0.5000
O9? O 1.0832(3) 0.5230(3) 0.58164(19)
O10? O 1.0436(3) 0.3730(2) 0.47249(18)
C7? C 1.0322(9) 0.6530(7) 0.6183(7)
H7? H 1.1241 0.5969 0.6378
H8? H 1.0513 0.6955 0.5531
H9? H 0.9303 0.6047 0.6089
C8? C 0.9704(16) 0.3301(12) 0.3665(8)
H10? H 0.9950 0.2484 0.3978
H11? H 1.0589 0.3543 0.3236
H12? H 0.8666 0.3259 0.3228
loop_
_geom_bond_atom_site_label_1
_geom_bond_atom_site_label_2
_geom_bond_site_symmetry_1
_geom_bond_site_symmetry_2
C1 O1 1_555 1_555
C2 C1 1_555 1_555
O2 C1 1_555 1_555
O3 C2 1_555 1_555
F1 B1 1_555 1_555
O4 C2 1_555 1_555
F2 B1 1_555 1_555
B1 O2 1_555 1_555
C3 O5 1_555 1_555
C4 H1 1_555 1_555
H2 C4 1_555 1_555
H3 C4 1_555 1_555
C5 H4 1_555 1_555
H5 C5 1_555 1_555
H6 C5 1_555 1_555
O6 C3 1_555 1_555
O7 C3 1_555 1_555
O4 B1 1_555 1_555
C4 O6 1_555 1_555
C5 O7 1_555 1_555

#END
