
#######################################################################
#
#                 Cambridge Crystallographic Data Centre
#                                CCDC 
#
#######################################################################
#
# If this CIF has been generated from an entry in the Cambridge 
# Structural Database, then it will include bibliographic, chemical, 
# crystal, experimental, refinement or atomic coordinate data resulting 
# from the CCDC's data processing and validation procedures.
#
#######################################################################

data_PUTRAZ
_chemical_formula_moiety         'C15 H25 N1 O6 P2'
_chemical_name_systematic        
'tetramethyl (1,4-dimethyl-1,2,3,4-tetrahydroquinoline-2,4-diyl)bis(phosphonate)'
_symmetry_cell_setting           monoclinic
_symmetry_space_group_name_H-M   'P 21/c'
_symmetry_Int_Tables_number      14
_space_group_name_Hall           '-P 2ybc'
loop_
_symmetry_equiv_pos_site_id
_symmetry_equiv_pos_as_xyz
1 x,y,z
2 -x,1/2+y,1/2-z
3 -x,-y,-z
4 x,1/2-y,1/2+z
_cell_length_a                   14.3880(5)
_cell_length_b                   6.97267(18)
_cell_length_c                   18.7882(9)
_cell_angle_alpha                90
_cell_angle_beta                 104.709(4)
_cell_angle_gamma                90
_cell_volume                     1823.11
_cell_formula_units_Z            4
loop_
_atom_site_label
_atom_site_type_symbol
_atom_site_fract_x
_atom_site_fract_y
_atom_site_fract_z
P1 P 0.75391(4) 0.63962(8) 0.41390(3)
P2 P 0.62934(4) 0.58228(10) 0.14888(3)
O1 O 0.72715(12) 0.8364(2) 0.39058(9)
O2 O 0.82312(14) 0.6242(3) 0.49342(9)
O3 O 0.66641(13) 0.5047(3) 0.41525(11)
O4 O 0.59580(13) 0.7403(3) 0.09744(10)
O5 O 0.68240(13) 0.4161(3) 0.11925(10)
O6 O 0.54527(12) 0.4748(3) 0.17242(10)
N1 N 0.79139(13) 0.7647(3) 0.22861(11)
C1 C 0.87995(16) 0.7528(3) 0.28273(12)
C2 C 0.95662(18) 0.8667(3) 0.27426(14)
H1 H 0.9479 0.9467 0.2335
C3 C 1.04468(18) 0.8629(4) 0.32500(15)
H2 H 1.0940 0.9419 0.3187
C4 C 1.05983(17) 0.7426(4) 0.38495(14)
H3 H 1.1192 0.7393 0.4192
C5 C 0.98544(16) 0.6271(4) 0.39330(13)
H4 H 0.9960 0.5448 0.4335
C6 C 0.89533(15) 0.6292(3) 0.34378(12)
C7 C 0.81433(15) 0.5035(3) 0.35604(12)
C8 C 0.74501(16) 0.4648(3) 0.28036(12)
H5 H 0.7767 0.3820 0.2523
H6 H 0.6892 0.3970 0.2875
C9 C 0.71190(16) 0.6444(3) 0.23638(12)
H7 H 0.6752 0.7192 0.2640
C10 C 0.84876(18) 0.3076(3) 0.39105(14)
H8 H 0.8865 0.3265 0.4406
H9 H 0.8872 0.2453 0.3629
H10 H 0.7941 0.2291 0.3914
C11 C 0.7615(2) 0.9590(4) 0.20214(19)
H11 H 0.6980 0.9545 0.1699
H12 H 0.8054 1.0088 0.1759
H13 H 0.7615 1.0406 0.2433
C12 C 0.8536(3) 0.7866(5) 0.5387(2)
H14 H 0.9119 0.7564 0.5751
H15 H 0.8047 0.8216 0.5628
H16 H 0.8650 0.8917 0.5090
C13 C 0.58149(19) 0.5797(4) 0.43189(17)
H17 H 0.5965 0.6207 0.4823
H18 H 0.5331 0.4818 0.4242
H19 H 0.5581 0.6868 0.4003
C14 C 0.6462(2) 0.3419(5) 0.04576(18)
H20 H 0.5842 0.2849 0.0413
H21 H 0.6897 0.2469 0.0361
H22 H 0.6404 0.4447 0.0109
C15 C 0.4668(2) 0.5841(5) 0.1877(2)
H23 H 0.4780 0.6019 0.2398
H24 H 0.4076 0.5159 0.1693
H25 H 0.4630 0.7068 0.1639
loop_
_geom_bond_atom_site_label_1
_geom_bond_atom_site_label_2
_geom_bond_site_symmetry_1
_geom_bond_site_symmetry_2
P1 O1 1_555 1_555
P2 O4 1_555 1_555
O2 P1 1_555 1_555
O3 P1 1_555 1_555
O5 P2 1_555 1_555
O6 P2 1_555 1_555
N1 C1 1_555 1_555
C1 C2 1_555 1_555
C2 H1 1_555 1_555
C3 C2 1_555 1_555
H2 C3 1_555 1_555
C4 C3 1_555 1_555
H3 C4 1_555 1_555
C5 C4 1_555 1_555
H4 C5 1_555 1_555
C6 C1 1_555 1_555
C7 P1 1_555 1_555
C8 C7 1_555 1_555
H5 C8 1_555 1_555
H6 C8 1_555 1_555
C9 P2 1_555 1_555
H7 C9 1_555 1_555
C10 C7 1_555 1_555
H8 C10 1_555 1_555
H9 C10 1_555 1_555
H10 C10 1_555 1_555
C11 N1 1_555 1_555
H11 C11 1_555 1_555
H12 C11 1_555 1_555
H13 C11 1_555 1_555
C12 O2 1_555 1_555
H14 C12 1_555 1_555
H15 C12 1_555 1_555
H16 C12 1_555 1_555
C13 O3 1_555 1_555
H17 C13 1_555 1_555
H18 C13 1_555 1_555
H19 C13 1_555 1_555
C14 O5 1_555 1_555
H20 C14 1_555 1_555
H21 C14 1_555 1_555
H22 C14 1_555 1_555
C15 O6 1_555 1_555
H23 C15 1_555 1_555
H24 C15 1_555 1_555
H25 C15 1_555 1_555
N1 C9 1_555 1_555
C5 C6 1_555 1_555
C6 C7 1_555 1_555
C8 C9 1_555 1_555

#END
