
#######################################################################
#
#                 Cambridge Crystallographic Data Centre
#                                CCDC 
#
#######################################################################
#
# If this CIF has been generated from an entry in the Cambridge 
# Structural Database, then it will include bibliographic, chemical, 
# crystal, experimental, refinement or atomic coordinate data resulting 
# from the CCDC's data processing and validation procedures.
#
#######################################################################

data_PUVCIU
_chemical_formula_moiety         'C20 H16 O5'
_chemical_name_systematic        
'methyl (3-(2-methoxy-2-oxoethylidene)-2-benzofuran-1(3H)-ylidene)(phenyl)acetate'
_symmetry_cell_setting           triclinic
_symmetry_space_group_name_H-M   'P -1'
_symmetry_Int_Tables_number      2
_space_group_name_Hall           '-P 1'
loop_
_symmetry_equiv_pos_site_id
_symmetry_equiv_pos_as_xyz
1 x,y,z
2 -x,-y,-z
_cell_length_a                   7.1154(3)
_cell_length_b                   11.1585(5)
_cell_length_c                   11.1645(5)
_cell_angle_alpha                107.811(3)
_cell_angle_beta                 95.510(3)
_cell_angle_gamma                91.238(3)
_cell_volume                     838.828
_exptl_crystal_colour            white
_exptl_crystal_description       block
_cell_formula_units_Z            2
loop_
_atom_site_label
_atom_site_type_symbol
_atom_site_fract_x
_atom_site_fract_y
_atom_site_fract_z
O1 O 0.24369(15) 0.90684(10) 0.84509(10)
O2 O 0.38390(17) 0.64601(13) 1.07359(12)
C1 C 0.2516(2) 1.03637(14) 0.87951(16)
O3 O 0.2466(2) 0.92359(13) 0.61458(12)
C2 C 0.2422(2) 0.86778(15) 0.95205(15)
C3 C 0.24898(19) 0.98080(15) 1.06154(15)
C4 C 0.2321(2) 0.74309(15) 0.93659(16)
C5 C 0.2525(2) 1.08392(15) 1.01585(15)
C6 C 0.2583(2) 1.09895(17) 0.79502(17)
H1 H 0.2629 1.1864 0.8281
C7 C 0.2172(2) 0.63970(15) 0.81529(17)
O4 O 0.1020(2) 0.71513(17) 1.11684(17)
C8 C 0.2293(2) 0.70295(15) 1.05225(17)
O5 O 0.2726(3) 1.11316(16) 0.59071(15)
C9 C 0.2532(2) 1.20679(17) 1.09567(17)
H2 H 0.2554 1.2750 1.0643
C10 C 0.2487(2) 1.00065(19) 1.19087(17)
H3 H 0.2484 0.9331 1.2231
C11 C 0.2594(3) 1.04903(18) 0.65888(18)
C12 C 0.1351(2) 0.52294(17) 0.80997(19)
H4 H 0.0902 0.5131 0.8821
C13 C 0.1190(3) 0.42241(19) 0.7007(2)
H5 H 0.0635 0.3458 0.6996
C14 C 0.2814(3) 0.65062(18) 0.70512(18)
H6 H 0.3353 0.7272 0.7047
C15 C 0.2506(3) 1.2241(2) 1.22291(19)
H7 H 0.2499 1.3055 1.2784
C16 C 0.3930(3) 0.5958(2) 1.1791(2)
H8 H 0.5104 0.5561 1.1847
H9 H 0.2897 0.5349 1.1664
H10 H 0.3849 0.6631 1.2560
C17 C 0.2489(3) 1.1227(2) 1.26994(19)
H11 H 0.2478 1.1373 1.3565
C18 C 0.1843(3) 0.4348(2) 0.5942(2)
H12 H 0.1739 0.3667 0.5204
C19 C 0.2657(3) 0.5483(2) 0.5961(2)
H13 H 0.3108 0.5565 0.5233
C20 C 0.2471(4) 0.8671(2) 0.4803(2)
H14 H 0.2398 0.7770 0.4600
H15 H 0.3617 0.8934 0.4543
H16 H 0.1404 0.8932 0.4369
loop_
_geom_bond_atom_site_label_1
_geom_bond_atom_site_label_2
_geom_bond_site_symmetry_1
_geom_bond_site_symmetry_2
O1 C1 1_555 1_555
O2 C8 1_555 1_555
C1 C5 1_555 1_555
O3 C11 1_555 1_555
C2 O1 1_555 1_555
C3 C2 1_555 1_555
C4 C2 1_555 1_555
C5 C3 1_555 1_555
C6 C1 1_555 1_555
H1 C6 1_555 1_555
C7 C4 1_555 1_555
O4 C8 1_555 1_555
C8 C4 1_555 1_555
O5 C11 1_555 1_555
C9 C5 1_555 1_555
H2 C9 1_555 1_555
C10 C3 1_555 1_555
H3 C10 1_555 1_555
C11 C6 1_555 1_555
C12 C7 1_555 1_555
H4 C12 1_555 1_555
C13 C12 1_555 1_555
H5 C13 1_555 1_555
C14 C7 1_555 1_555
H6 C14 1_555 1_555
C15 C9 1_555 1_555
H7 C15 1_555 1_555
C16 O2 1_555 1_555
H8 C16 1_555 1_555
H9 C16 1_555 1_555
H10 C16 1_555 1_555
C17 C10 1_555 1_555
H11 C17 1_555 1_555
C18 C13 1_555 1_555
H12 C18 1_555 1_555
C19 C14 1_555 1_555
H13 C19 1_555 1_555
C20 O3 1_555 1_555
H14 C20 1_555 1_555
H15 C20 1_555 1_555
H16 C20 1_555 1_555
C15 C17 1_555 1_555
C18 C19 1_555 1_555

#END
