
#######################################################################
#
#                 Cambridge Crystallographic Data Centre
#                                CCDC 
#
#######################################################################
#
# If this CIF has been generated from an entry in the Cambridge 
# Structural Database, then it will include bibliographic, chemical, 
# crystal, experimental, refinement or atomic coordinate data resulting 
# from the CCDC's data processing and validation procedures.
#
#######################################################################

data_PUVJUM
_chemical_name_common            
2,2'-(2,7-Di-n-hexyl-4,9-dihydro-s-indaceno[1,2-b:5,6-b']dithiophene-4,9-diylidene)dimalononitrile
_chemical_formula_moiety         'C34 H30 N4 S2'
_chemical_name_systematic        
2,2'-(2,7-Dihexylthieno[2',3':5,6]-s-indaceno[1,2-b]thiene-4,9-diylidene)dimalononitrile
_symmetry_cell_setting           triclinic
_symmetry_space_group_name_H-M   'P -1'
_symmetry_Int_Tables_number      2
_space_group_name_Hall           '-P 1'
loop_
_symmetry_equiv_pos_site_id
_symmetry_equiv_pos_as_xyz
1 x,y,z
2 -x,-y,-z
_cell_length_a                   4.7904(7)
_cell_length_b                   9.2698(14)
_cell_length_c                   16.959(3)
_cell_angle_alpha                74.549(2)
_cell_angle_beta                 89.651(2)
_cell_angle_gamma                86.261(2)
_cell_volume                     724.27
_exptl_crystal_colour            green
_exptl_crystal_description       plate
_cell_formula_units_Z            1
_exptl_crystal_recrystallization_method toluene
_exptl_crystal_preparation       'n-type semiconductor'
loop_
_atom_site_label
_atom_site_type_symbol
_atom_site_fract_x
_atom_site_fract_y
_atom_site_fract_z
S1 S 0.54465(10) 0.79649(5) 0.35079(3)
N1 N 0.1317(7) 1.5358(2) 0.41939(19)
N2 N 0.7366(6) 1.4528(3) 0.25198(17)
C1 C 0.7412(4) 0.9224(2) 0.28148(12)
C2 C 0.6898(4) 1.0656(2) 0.28759(12)
H1 H 0.7770 1.1480 0.2561
C3 C 0.4863(4) 1.0731(2) 0.34813(11)
C4 C 0.3468(4) 1.1854(2) 0.38340(11)
C5 C 0.1551(4) 1.10455(19) 0.44644(11)
C6 C 0.1819(4) 0.94973(19) 0.44828(11)
C7 C 0.3890(4) 0.9362(2) 0.38631(11)
C8 C -0.0284(4) 1.1554(2) 0.49880(11)
H2 H -0.0469 1.2562 0.4982
C9 C 0.3863(4) 1.3350(2) 0.36182(13)
C10 C 0.2401(6) 1.4425(2) 0.39650(17)
C11 C 0.5806(5) 1.3990(2) 0.29998(16)
C12 C 0.9212(4) 0.8681(2) 0.22113(12)
H3 H 1.0202 0.7739 0.2491
H4 H 1.0596 0.9403 0.2002
C13 C 0.7549(4) 0.8456(2) 0.14970(13)
H5 H 0.6194 0.7718 0.1706
H6 H 0.6524 0.9393 0.1226
C14 C 0.9361(5) 0.7940(3) 0.08732(13)
H7 H 1.0456 0.7030 0.1149
H8 H 1.0654 0.8702 0.0643
C15 C 0.7680(5) 0.7642(3) 0.01818(14)
H9 H 0.6464 0.6842 0.0412
H10 H 0.6498 0.8536 -0.0069
C16 C 0.9418(5) 0.7215(3) -0.04730(15)
H11 H 1.0637 0.6337 -0.0222
H12 H 1.0593 0.8027 -0.0717
C17 C 0.7694(7) 0.6881(4) -0.11420(17)
H13 H 0.6456 0.6112 -0.0903
H14 H 0.8916 0.6545 -0.1517
H15 H 0.6617 0.7774 -0.1430
S1A S -0.54465(10) 1.20351(5) 0.64921(3)
N1A N -0.1317(7) 0.4642(2) 0.58061(19)
N2A N -0.7366(6) 0.5472(3) 0.74802(17)
C1A C -0.7412(4) 1.0776(2) 0.71852(12)
C2A C -0.6898(4) 0.9344(2) 0.71241(12)
H1A H -0.7770 0.8520 0.7439
C3A C -0.4863(4) 0.9269(2) 0.65187(11)
C4A C -0.3468(4) 0.8146(2) 0.61660(11)
C5A C -0.1551(4) 0.89545(19) 0.55356(11)
C6A C -0.1819(4) 1.05027(19) 0.55172(11)
C7A C -0.3890(4) 1.0638(2) 0.61369(11)
C8A C 0.0284(4) 0.8446(2) 0.50120(11)
H2A H 0.0469 0.7438 0.5018
C9A C -0.3863(4) 0.6650(2) 0.63818(13)
C10A C -0.2401(6) 0.5575(2) 0.60350(17)
C11A C -0.5806(5) 0.6010(2) 0.70002(16)
C12A C -0.9212(4) 1.1319(2) 0.77887(12)
H3A H -1.0202 1.2261 0.7509
H4A H -1.0596 1.0597 0.7998
C13A C -0.7549(4) 1.1544(2) 0.85030(13)
H5A H -0.6194 1.2282 0.8294
H6A H -0.6524 1.0607 0.8774
C14A C -0.9361(5) 1.2060(3) 0.91268(13)
H7A H -1.0456 1.2970 0.8851
H8A H -1.0654 1.1298 0.9357
C15A C -0.7680(5) 1.2358(3) 0.98182(14)
H9A H -0.6464 1.3158 0.9588
H10A H -0.6498 1.1464 1.0069
C16A C -0.9418(5) 1.2785(3) 1.04730(15)
H11A H -1.0637 1.3663 1.0222
H12A H -1.0593 1.1973 1.0717
C17A C -0.7694(7) 1.3119(4) 1.11420(17)
H13A H -0.6456 1.3888 1.0903
H14A H -0.8916 1.3455 1.1517
H15A H -0.6617 1.2226 1.1430
loop_
_geom_bond_atom_site_label_1
_geom_bond_atom_site_label_2
_geom_bond_site_symmetry_1
_geom_bond_site_symmetry_2
S1 C1 1_555 1_555
N1 C10 1_555 1_555
N2 C11 1_555 1_555
C1 C2 1_555 1_555
C2 H1 1_555 1_555
C3 C2 1_555 1_555
C4 C3 1_555 1_555
C5 C4 1_555 1_555
C6 C5 1_555 1_555
C7 S1 1_555 1_555
C8 C5 1_555 1_555
H2 C8 1_555 1_555
C9 C4 1_555 1_555
C10 C9 1_555 1_555
C11 C9 1_555 1_555
C12 C1 1_555 1_555
H3 C12 1_555 1_555
H4 C12 1_555 1_555
C13 C12 1_555 1_555
H5 C13 1_555 1_555
H6 C13 1_555 1_555
C14 C13 1_555 1_555
H7 C14 1_555 1_555
H8 C14 1_555 1_555
C15 C14 1_555 1_555
H9 C15 1_555 1_555
H10 C15 1_555 1_555
C16 C15 1_555 1_555
H11 C16 1_555 1_555
H12 C16 1_555 1_555
C17 C16 1_555 1_555
H13 C17 1_555 1_555
H14 C17 1_555 1_555
H15 C17 1_555 1_555
S1A C1A 1_555 1_555
N1A C10A 1_555 1_555
N2A C11A 1_555 1_555
C1A C2A 1_555 1_555
C2A H1A 1_555 1_555
C3A C2A 1_555 1_555
C4A C3A 1_555 1_555
C5A C4A 1_555 1_555
C6A C8 1_555 1_555
C7A S1A 1_555 1_555
C8A C6 1_555 1_555
H2A C8A 1_555 1_555
C9A C4A 1_555 1_555
C10A C9A 1_555 1_555
C11A C9A 1_555 1_555
C12A C1A 1_555 1_555
H3A C12A 1_555 1_555
H4A C12A 1_555 1_555
C13A C12A 1_555 1_555
H5A C13A 1_555 1_555
H6A C13A 1_555 1_555
C14A C13A 1_555 1_555
H7A C14A 1_555 1_555
H8A C14A 1_555 1_555
C15A C14A 1_555 1_555
H9A C15A 1_555 1_555
H10A C15A 1_555 1_555
C16A C15A 1_555 1_555
H11A C16A 1_555 1_555
H12A C16A 1_555 1_555
C17A C16A 1_555 1_555
H13A C17A 1_555 1_555
H14A C17A 1_555 1_555
H15A C17A 1_555 1_555
C3 C7 1_555 1_555
C6 C7 1_555 1_555
C3A C7A 1_555 1_555
C5A C6A 1_555 1_555
C5A C8A 1_555 1_555
C6A C7A 1_555 1_555

#END
