
#######################################################################
#
#                 Cambridge Crystallographic Data Centre
#                                CCDC 
#
#######################################################################
#
# If this CIF has been generated from an entry in the Cambridge 
# Structural Database, then it will include bibliographic, chemical, 
# crystal, experimental, refinement or atomic coordinate data resulting 
# from the CCDC's data processing and validation procedures.
#
#######################################################################

data_PUVJAS
_chemical_formula_moiety         'C22 H19 Br1 N2 O5 S1'
_chemical_name_systematic        
(R,R)-N-(2-Bromo-1-(3-nitrophenyl)-3-oxo-3-phenylpropyl)-4-methylbenzenesulfonamide
_symmetry_cell_setting           monoclinic
_symmetry_space_group_name_H-M   'P 21'
_symmetry_Int_Tables_number      4
_space_group_name_Hall           'P 2yb'
loop_
_symmetry_equiv_pos_site_id
_symmetry_equiv_pos_as_xyz
1 x,y,z
2 -x,1/2+y,-z
_cell_length_a                   10.445(5)
_cell_length_b                   8.296(4)
_cell_length_c                   13.207(6)
_cell_angle_alpha                90
_cell_angle_beta                 109.964(6)
_cell_angle_gamma                90
_cell_volume                     1075.64
_exptl_crystal_colour            colorless
_exptl_crystal_description       plate
_cell_formula_units_Z            2
_exptl_crystal_recrystallization_method dichloromethane/ether
loop_
_atom_site_label
_atom_site_type_symbol
_atom_site_fract_x
_atom_site_fract_y
_atom_site_fract_z
Br1 Br 0.19949(4) 0.83126(6) 0.21954(3)
S1 S 0.33524(9) 0.41442(11) -0.05699(8)
O1 O 0.0943(4) 1.1134(4) -0.2918(3)
O2 O 0.2992(3) 1.0599(4) -0.1866(3)
O3 O 0.2224(2) 0.3207(4) -0.0521(2)
O4 O 0.4629(2) 0.3359(4) -0.0466(2)
O5 O 0.3437(3) 0.4557(4) 0.2649(3)
N1 N 0.1756(4) 1.0417(4) -0.2155(3)
N2 N 0.3717(3) 0.5454(4) 0.0406(3)
H1 H 0.4570 0.5716 0.0758
C1 C 0.3330(4) 0.7071(5) 0.1763(3)
H2 H 0.4057 0.7797 0.1689
C2 C 0.2602(4) 0.6200(5) 0.0698(3)
H3 H 0.2049 0.5309 0.0850
C3 C 0.1647(3) 0.7244(4) -0.0186(3)
C4 C 0.0250(4) 0.6947(5) -0.0517(3)
H4 H -0.0090 0.6140 -0.0166
C5 C -0.0643(4) 0.7823(5) -0.1355(3)
H5 H -0.1594 0.7624 -0.1564
C6 C -0.0169(4) 0.8982(5) -0.1890(3)
H6 H -0.0780 0.9582 -0.2467
C7 C 0.1222(4) 0.9245(5) -0.1562(3)
C8 C 0.2137(3) 0.8415(6) -0.0719(3)
H7 H 0.3085 0.8635 -0.0506
C9 C 0.2856(4) 0.5228(5) -0.1799(3)
C10 C 0.1512(4) 0.5152(5) -0.2505(3)
H8 H 0.0856 0.4501 -0.2348
C11 C 0.1164(5) 0.6061(6) -0.3446(4)
H9 H 0.0253 0.6022 -0.3935
C12 C 0.2094(5) 0.7015(5) -0.3693(4)
C13 C 0.3420(5) 0.7061(6) -0.2980(4)
H10 H 0.4074 0.7713 -0.3142
C14 C 0.3808(4) 0.6180(6) -0.2043(4)
H11 H 0.4723 0.6221 -0.1563
C15 C 0.1660(7) 0.8001(8) -0.4720(4)
H12 H 0.0758 0.7646 -0.5190
H13 H 0.2319 0.7852 -0.5092
H14 H 0.1622 0.9144 -0.4544
C16 C 0.3927(4) 0.5893(5) 0.2700(3)
C17 C 0.5055(4) 0.6435(5) 0.3677(3)
C18 C 0.6091(4) 0.7455(5) 0.3624(3)
H15 H 0.6057 0.7903 0.2953
C19 C 0.7176(4) 0.7817(5) 0.4555(4)
H16 H 0.7897 0.8484 0.4518
C20 C 0.7202(4) 0.7207(6) 0.5528(4)
H17 H 0.7946 0.7456 0.6161
C21 C 0.6164(5) 0.6240(6) 0.5599(3)
H18 H 0.6179 0.5858 0.6281
C22 C 0.5095(5) 0.5821(6) 0.4673(3)
H19 H 0.4395 0.5122 0.4716
loop_
_geom_bond_atom_site_label_1
_geom_bond_atom_site_label_2
_geom_bond_site_symmetry_1
_geom_bond_site_symmetry_2
Br1 C1 1_555 1_555
S1 O3 1_555 1_555
O1 N1 1_555 1_555
O2 N1 1_555 1_555
O4 S1 1_555 1_555
O5 C16 1_555 1_555
N1 C7 1_555 1_555
N2 S1 1_555 1_555
H1 N2 1_555 1_555
C1 H2 1_555 1_555
C2 N2 1_555 1_555
H3 C2 1_555 1_555
C3 C2 1_555 1_555
C4 C3 1_555 1_555
H4 C4 1_555 1_555
C5 C4 1_555 1_555
H5 C5 1_555 1_555
C6 C5 1_555 1_555
H6 C6 1_555 1_555
C7 C6 1_555 1_555
C8 C3 1_555 1_555
H7 C8 1_555 1_555
C9 S1 1_555 1_555
C10 C9 1_555 1_555
H8 C10 1_555 1_555
C11 C10 1_555 1_555
H9 C11 1_555 1_555
C12 C11 1_555 1_555
C13 C12 1_555 1_555
H10 C13 1_555 1_555
C14 C9 1_555 1_555
H11 C14 1_555 1_555
C15 C12 1_555 1_555
H12 C15 1_555 1_555
H13 C15 1_555 1_555
H14 C15 1_555 1_555
C16 C1 1_555 1_555
C17 C16 1_555 1_555
C18 C17 1_555 1_555
H15 C18 1_555 1_555
C19 C18 1_555 1_555
H16 C19 1_555 1_555
C20 C19 1_555 1_555
H17 C20 1_555 1_555
C21 C20 1_555 1_555
H18 C21 1_555 1_555
C22 C17 1_555 1_555
H19 C22 1_555 1_555
C1 C2 1_555 1_555
C7 C8 1_555 1_555
C13 C14 1_555 1_555
C21 C22 1_555 1_555

#END
