
#######################################################################
#
#                 Cambridge Crystallographic Data Centre
#                                CCDC 
#
#######################################################################
#
# If this CIF has been generated from an entry in the Cambridge 
# Structural Database, then it will include bibliographic, chemical, 
# crystal, experimental, refinement or atomic coordinate data resulting 
# from the CCDC's data processing and validation procedures.
#
#######################################################################

data_PUVKOH
_chemical_formula_moiety         'C36 H38 O4'
_chemical_name_systematic        9,10-Dimesityl-2,3,6,7-tetramethoxyanthracene
_symmetry_cell_setting           monoclinic
_symmetry_space_group_name_H-M   'P 21/c'
_symmetry_Int_Tables_number      14
_space_group_name_Hall           '-P 2ybc'
loop_
_symmetry_equiv_pos_site_id
_symmetry_equiv_pos_as_xyz
1 x,y,z
2 -x,1/2+y,1/2-z
3 -x,-y,-z
4 x,1/2-y,1/2+z
_cell_length_a                   8.187(2)
_cell_length_b                   21.305(6)
_cell_length_c                   8.621(3)
_cell_angle_alpha                90
_cell_angle_beta                 93.215(6)
_cell_angle_gamma                90
_cell_volume                     1501.34
_exptl_crystal_colour            colorless
_exptl_crystal_description       block
_cell_formula_units_Z            2
loop_
_atom_site_label
_atom_site_type_symbol
_atom_site_fract_x
_atom_site_fract_y
_atom_site_fract_z
C1 C -0.1083(4) 0.41157(13) 0.2292(3)
C2 C -0.0048(4) 0.40913(15) 0.3646(4)
C3 C -0.0452(5) 0.37012(18) 0.4856(4)
H1 H 0.0251 0.3689 0.5771
C4 C -0.1800(6) 0.33401(16) 0.4783(4)
C5 C -0.2821(5) 0.33689(15) 0.3460(4)
H2 H -0.3786 0.3120 0.3399
C6 C -0.2479(4) 0.37542(15) 0.2201(4)
C7 C 0.1499(5) 0.4474(2) 0.3816(5)
H3 H 0.2047 0.4394 0.4837
H4 H 0.1228 0.4921 0.3723
H5 H 0.2227 0.4356 0.3000
C8 C -0.2210(8) 0.2909(2) 0.6100(5)
H6 H -0.1368 0.2948 0.6949
H7 H -0.2251 0.2474 0.5728
H8 H -0.3276 0.3026 0.6477
C9 C -0.3638(6) 0.3783(2) 0.0770(5)
H9 H -0.3208 0.4077 0.0018
H10 H -0.4715 0.3927 0.1064
H11 H -0.3741 0.3365 0.0302
C10 C -0.0606(5) 0.45536(15) 0.1039(4)
C11 C 0.0596(4) 0.43741(14) 0.0019(3)
C12 C 0.1235(4) 0.37513(14) -0.0031(4)
H12 H 0.0809 0.3441 0.0628
C13 C 0.2421(4) 0.35852(14) -0.0978(4)
C14 C 0.3133(4) 0.40574(15) -0.1913(3)
C15 C 0.2526(4) 0.46464(15) -0.1927(4)
H13 H 0.2972 0.4949 -0.2594
C16 C 0.1247(4) 0.48307(14) -0.0985(3)
C17 C 0.2435(6) 0.25211(17) -0.0178(6)
H14 H 0.2993 0.2124 -0.0368
H15 H 0.1261 0.2474 -0.0439
H16 H 0.2607 0.2635 0.0920
C18 C 0.5402(5) 0.43374(17) -0.3364(5)
H17 H 0.6276 0.4146 -0.3934
H18 H 0.5884 0.4594 -0.2514
H19 H 0.4723 0.4602 -0.4071
O1 O 0.3083(3) 0.30027(10) -0.1122(3)
O2 O 0.4408(3) 0.38532(10) -0.2740(2)
C1B C 0.1083(4) 0.58843(13) -0.2292(3)
C2B C 0.0048(4) 0.59087(15) -0.3646(4)
C3B C 0.0452(5) 0.62988(18) -0.4856(4)
H1B H -0.0251 0.6311 -0.5771
C4B C 0.1800(6) 0.66599(16) -0.4783(4)
C5B C 0.2821(5) 0.66311(15) -0.3460(4)
H2B H 0.3786 0.6880 -0.3399
C6B C 0.2479(4) 0.62458(15) -0.2201(4)
C7B C -0.1499(5) 0.5526(2) -0.3816(5)
H3B H -0.2047 0.5606 -0.4837
H4B H -0.1228 0.5079 -0.3723
H5B H -0.2227 0.5644 -0.3000
C8B C 0.2210(8) 0.7091(2) -0.6100(5)
H6B H 0.1368 0.7052 -0.6949
H7B H 0.2251 0.7526 -0.5728
H8B H 0.3276 0.6974 -0.6477
C9B C 0.3638(6) 0.6217(2) -0.0770(5)
H9B H 0.3208 0.5923 -0.0018
H10B H 0.4715 0.6073 -0.1064
H11B H 0.3741 0.6635 -0.0302
C10B C 0.0606(5) 0.54464(15) -0.1039(4)
C11B C -0.0596(4) 0.56259(14) -0.0019(3)
C12B C -0.1235(4) 0.62487(14) 0.0031(4)
H12B H -0.0809 0.6559 -0.0628
C13B C -0.2421(4) 0.64148(14) 0.0978(4)
C14B C -0.3133(4) 0.59426(15) 0.1913(3)
C15B C -0.2526(4) 0.53536(15) 0.1927(4)
H13B H -0.2972 0.5051 0.2594
C16B C -0.1247(4) 0.51693(14) 0.0985(3)
C17B C -0.2435(6) 0.74789(17) 0.0178(6)
H14B H -0.2993 0.7876 0.0368
H15B H -0.1261 0.7526 0.0439
H16B H -0.2607 0.7365 -0.0920
C18B C -0.5402(5) 0.56626(17) 0.3364(5)
H17B H -0.6276 0.5854 0.3934
H18B H -0.5884 0.5406 0.2514
H19B H -0.4723 0.5398 0.4071
O1B O -0.3083(3) 0.69973(10) 0.1122(3)
O2B O -0.4408(3) 0.61468(10) 0.2740(2)
loop_
_geom_bond_atom_site_label_1
_geom_bond_atom_site_label_2
_geom_bond_site_symmetry_1
_geom_bond_site_symmetry_2
C1 C2 1_555 1_555
C2 C3 1_555 1_555
C3 H1 1_555 1_555
C4 C3 1_555 1_555
C5 C4 1_555 1_555
H2 C5 1_555 1_555
C6 C1 1_555 1_555
C7 C2 1_555 1_555
H3 C7 1_555 1_555
H4 C7 1_555 1_555
H5 C7 1_555 1_555
C8 C4 1_555 1_555
H6 C8 1_555 1_555
H7 C8 1_555 1_555
H8 C8 1_555 1_555
C9 C6 1_555 1_555
H9 C9 1_555 1_555
H10 C9 1_555 1_555
H11 C9 1_555 1_555
C10 C1 1_555 1_555
C11 C10 1_555 1_555
C12 C11 1_555 1_555
H12 C12 1_555 1_555
C13 C12 1_555 1_555
C14 C13 1_555 1_555
C15 C14 1_555 1_555
H13 C15 1_555 1_555
C16 C11 1_555 1_555
C17 H14 1_555 1_555
H15 C17 1_555 1_555
H16 C17 1_555 1_555
C18 H17 1_555 1_555
H18 C18 1_555 1_555
H19 C18 1_555 1_555
O1 C13 1_555 1_555
O2 C14 1_555 1_555
C1B C2B 1_555 1_555
C2B C3B 1_555 1_555
C3B H1B 1_555 1_555
C4B C3B 1_555 1_555
C5B C4B 1_555 1_555
H2B C5B 1_555 1_555
C6B C1B 1_555 1_555
C7B C2B 1_555 1_555
H3B C7B 1_555 1_555
H4B C7B 1_555 1_555
H5B C7B 1_555 1_555
C8B C4B 1_555 1_555
H6B C8B 1_555 1_555
H7B C8B 1_555 1_555
H8B C8B 1_555 1_555
C9B C6B 1_555 1_555
H9B C9B 1_555 1_555
H10B C9B 1_555 1_555
H11B C9B 1_555 1_555
C10B C16 1_555 1_555
C11B C10B 1_555 1_555
C12B C11B 1_555 1_555
H12B C12B 1_555 1_555
C13B C12B 1_555 1_555
C14B C13B 1_555 1_555
C15B C14B 1_555 1_555
H13B C15B 1_555 1_555
C16B C10 1_555 1_555
C17B H14B 1_555 1_555
H15B C17B 1_555 1_555
H16B C17B 1_555 1_555
C18B H17B 1_555 1_555
H18B C18B 1_555 1_555
H19B C18B 1_555 1_555
O1B C13B 1_555 1_555
O2B C14B 1_555 1_555
C5 C6 1_555 1_555
C15 C16 1_555 1_555
C17 O1 1_555 1_555
C18 O2 1_555 1_555
C1B C10B 1_555 1_555
C5B C6B 1_555 1_555
C11B C16B 1_555 1_555
C15B C16B 1_555 1_555
C17B O1B 1_555 1_555
C18B O2B 1_555 1_555

#END
