
#######################################################################
#
#                 Cambridge Crystallographic Data Centre
#                                CCDC 
#
#######################################################################
#
# If this CIF has been generated from an entry in the Cambridge 
# Structural Database, then it will include bibliographic, chemical, 
# crystal, experimental, refinement or atomic coordinate data resulting 
# from the CCDC's data processing and validation procedures.
#
#######################################################################

data_PUVKAT
_chemical_name_common            
2,7-Di-n-hexyl-4,9-dihydro-s-indaceno[1,2-b:5,6-b']dithiophene-4,9-dione
_chemical_formula_moiety         'C28 H30 O2 S2'
_chemical_name_systematic        
2,7-Dihexylthieno[2',3':5,6]-s-indaceno[1,2-b]thiophene-4,9-dione
_symmetry_cell_setting           triclinic
_symmetry_space_group_name_H-M   'P -1'
_symmetry_Int_Tables_number      2
_space_group_name_Hall           '-P 1'
loop_
_symmetry_equiv_pos_site_id
_symmetry_equiv_pos_as_xyz
1 x,y,z
2 -x,-y,-z
_cell_length_a                   5.1178(10)
_cell_length_b                   7.8729(13)
_cell_length_c                   15.815(3)
_cell_angle_alpha                85.153(5)
_cell_angle_beta                 88.003(4)
_cell_angle_gamma                76.368(4)
_cell_volume                     616.978
_cell_formula_units_Z            1
_exptl_crystal_recrystallization_method toluene
_exptl_crystal_preparation       'p-type semiconductor'
loop_
_atom_site_label
_atom_site_type_symbol
_atom_site_fract_x
_atom_site_fract_y
_atom_site_fract_z
C1 C -0.6150(4) 1.4796(3) 0.08315(14)
H1 H -0.6902 1.4668 0.1370
C2 C -0.3658(4) 1.3762(3) 0.06046(13)
C3 C -0.2557(4) 1.3978(3) -0.02115(14)
C4 C 0.0158(4) 1.2689(3) -0.02680(14)
C5 C 0.0524(4) 1.1728(3) 0.05812(13)
C6 C -0.1693(4) 1.2366(3) 0.10738(14)
C7 C 0.2488(4) 1.0403(3) 0.10135(15)
H2 H 0.4100 0.9835 0.0768
C8 C 0.1740(4) 1.0059(3) 0.18319(15)
C9 C 0.3227(5) 0.8693(3) 0.24777(17)
H3 H 0.3750 0.9275 0.2938
H4 H 0.4858 0.8043 0.2215
C10 C 0.1593(5) 0.7406(3) 0.28427(16)
H5 H 0.0145 0.8017 0.3196
H6 H 0.0792 0.6982 0.2380
C11 C 0.3266(6) 0.5848(4) 0.33672(18)
H7 H 0.3995 0.6268 0.3846
H8 H 0.4766 0.5272 0.3022
C12 C 0.1669(7) 0.4515(4) 0.3697(2)
H9 H 0.0179 0.5099 0.4044
H10 H 0.0917 0.4118 0.3217
C13 C 0.3232(8) 0.2955(4) 0.4206(2)
H11 H 0.4042 0.3347 0.4676
H12 H 0.4675 0.2336 0.3854
C14 C 0.1561(9) 0.1698(5) 0.4552(3)
H13 H 0.0061 0.2316 0.4873
H14 H 0.2646 0.0778 0.4913
H15 H 0.0914 0.1202 0.4091
O1 O 0.1663(3) 1.2545(2) -0.08805(10)
S1 S -0.14128(12) 1.13749(8) 0.20758(4)
C1A C -0.3850(4) 1.5204(3) -0.08315(14)
H1A H -0.3098 1.5332 -0.1370
C2A C -0.6342(4) 1.6238(3) -0.06046(13)
C3A C -0.7443(4) 1.6022(3) 0.02115(14)
C4A C -1.0158(4) 1.7311(3) 0.02680(14)
C5A C -1.0524(4) 1.8272(3) -0.05812(13)
C6A C -0.8307(4) 1.7634(3) -0.10738(14)
C7A C -1.2488(4) 1.9597(3) -0.10135(15)
H2A H -1.4100 2.0165 -0.0768
C8A C -1.1740(4) 1.9941(3) -0.18319(15)
C9A C -1.3227(5) 2.1307(3) -0.24777(17)
H3A H -1.3750 2.0725 -0.2938
H4A H -1.4858 2.1957 -0.2215
C10A C -1.1593(5) 2.2594(3) -0.28427(16)
H5A H -1.0145 2.1983 -0.3196
H6A H -1.0792 2.3018 -0.2380
C11A C -1.3266(6) 2.4152(4) -0.33672(18)
H7A H -1.3995 2.3732 -0.3846
H8A H -1.4766 2.4728 -0.3022
C12A C -1.1669(7) 2.5485(4) -0.3697(2)
H9A H -1.0179 2.4901 -0.4044
H10A H -1.0917 2.5882 -0.3217
C13A C -1.3232(8) 2.7045(4) -0.4206(2)
H11A H -1.4042 2.6653 -0.4676
H12A H -1.4675 2.7664 -0.3854
C14A C -1.1561(9) 2.8302(5) -0.4552(3)
H13A H -1.0061 2.7684 -0.4873
H14A H -1.2646 2.9222 -0.4913
H15A H -1.0914 2.8798 -0.4091
O1A O -1.1663(3) 1.7455(2) 0.08805(10)
S1A S -0.85872(12) 1.86251(8) -0.20758(4)
loop_
_geom_bond_atom_site_label_1
_geom_bond_atom_site_label_2
_geom_bond_site_symmetry_1
_geom_bond_site_symmetry_2
C1 H1 1_555 1_555
C2 C1 1_555 1_555
C3 C2 1_555 1_555
C4 C3 1_555 1_555
C5 C4 1_555 1_555
C6 C2 1_555 1_555
C7 C5 1_555 1_555
H2 C7 1_555 1_555
C8 C7 1_555 1_555
C9 C8 1_555 1_555
H3 C9 1_555 1_555
H4 C9 1_555 1_555
C10 C9 1_555 1_555
H5 C10 1_555 1_555
H6 C10 1_555 1_555
C11 C10 1_555 1_555
H7 C11 1_555 1_555
H8 C11 1_555 1_555
C12 C11 1_555 1_555
H9 C12 1_555 1_555
H10 C12 1_555 1_555
C13 C12 1_555 1_555
H11 C13 1_555 1_555
H12 C13 1_555 1_555
C14 C13 1_555 1_555
H13 C14 1_555 1_555
H14 C14 1_555 1_555
H15 C14 1_555 1_555
O1 C4 1_555 1_555
S1 C6 1_555 1_555
C1A C3 1_555 1_555
H1A C1A 1_555 1_555
C2A C1A 1_555 1_555
C3A C1 1_555 1_555
C4A C3A 1_555 1_555
C5A C4A 1_555 1_555
C6A C2A 1_555 1_555
C7A C5A 1_555 1_555
H2A C7A 1_555 1_555
C8A C7A 1_555 1_555
C9A C8A 1_555 1_555
H3A C9A 1_555 1_555
H4A C9A 1_555 1_555
C10A C9A 1_555 1_555
H5A C10A 1_555 1_555
H6A C10A 1_555 1_555
C11A C10A 1_555 1_555
H7A C11A 1_555 1_555
H8A C11A 1_555 1_555
C12A C11A 1_555 1_555
H9A C12A 1_555 1_555
H10A C12A 1_555 1_555
C13A C12A 1_555 1_555
H11A C13A 1_555 1_555
H12A C13A 1_555 1_555
C14A C13A 1_555 1_555
H13A C14A 1_555 1_555
H14A C14A 1_555 1_555
H15A C14A 1_555 1_555
O1A C4A 1_555 1_555
S1A C6A 1_555 1_555
C5 C6 1_555 1_555
C8 S1 1_555 1_555
C2A C3A 1_555 1_555
C5A C6A 1_555 1_555
C8A S1A 1_555 1_555

#END
