
#######################################################################
#
#                 Cambridge Crystallographic Data Centre
#                                CCDC 
#
#######################################################################
#
# If this CIF has been generated from an entry in the Cambridge 
# Structural Database, then it will include bibliographic, chemical, 
# crystal, experimental, refinement or atomic coordinate data resulting 
# from the CCDC's data processing and validation procedures.
#
#######################################################################

data_PUVKAT01
_chemical_formula_moiety         'C28 H30 O2 S2'
_chemical_name_systematic        
2,7-dihexylthieno[2',3':5,6]-s-indaceno[1,2-b]thiophene-4,9-dione
_symmetry_cell_setting           triclinic
_symmetry_space_group_name_H-M   'P -1'
_symmetry_Int_Tables_number      2
_space_group_name_Hall           '-P 1'
loop_
_symmetry_equiv_pos_site_id
_symmetry_equiv_pos_as_xyz
1 x,y,z
2 -x,-y,-z
_cell_length_a                   5.1056(4)
_cell_length_b                   7.8568(6)
_cell_length_c                   15.7812(12)
_cell_angle_alpha                85.276(4)
_cell_angle_beta                 87.953(4)
_cell_angle_gamma                76.426(4)
_cell_volume                     613.181
_exptl_crystal_colour            blue
_exptl_crystal_description       block
_cell_formula_units_Z            1
loop_
_atom_site_label
_atom_site_type_symbol
_atom_site_fract_x
_atom_site_fract_y
_atom_site_fract_z
C1 C 0.3436(8) 1.3296(4) 0.0447(2)
H1 H 0.4233 1.3704 0.0909
H2 H 0.2308 1.4277 0.0133
H3 H 0.4832 1.2704 0.0078
C2 C 0.1767(7) 1.2044(4) 0.0793(2)
H4 H 0.0319 1.2665 0.1146
H5 H 0.0955 1.1648 0.0322
C3 C 0.3333(6) 1.0483(3) 0.13028(18)
H6 H 0.4087 1.0884 0.1784
H7 H 0.4827 0.9897 0.0955
C4 C 0.1739(5) 0.9151(3) 0.16336(16)
H8 H 0.0239 0.9730 0.1981
H9 H 0.1004 0.8731 0.1155
C5 C 0.3406(5) 0.7592(3) 0.21561(14)
H10 H 0.4215 0.8016 0.2619
H11 H 0.4854 0.6979 0.1801
C6 C 0.1774(5) 0.6308(3) 0.25223(15)
H12 H 0.0142 0.6960 0.2787
H13 H 0.1245 0.5724 0.2061
C7 C 0.3263(4) 0.4939(3) 0.31676(14)
C8 C 0.2511(4) 0.4592(3) 0.39848(13)
H14 H 0.0891 0.5157 0.4231
C9 C 0.4481(4) 0.3269(2) 0.44193(12)
C10 C 0.6690(4) 0.2626(2) 0.39250(12)
C11 C 0.8663(4) 0.1236(2) 0.43949(12)
C12 C 1.1142(4) 0.0203(2) 0.41679(12)
H15 H 1.1891 0.0329 0.3627
C13 C 1.2449(4) -0.1026(2) 0.47860(12)
C14 C 0.4842(4) 0.2308(2) 0.52689(13)
O1 O 0.3334(3) 0.24528(18) 0.58826(9)
S1 S 0.64154(11) 0.36223(7) 0.29237(3)
C1A C 1.6564(8) -1.3296(4) 0.9553(2)
H1A H 1.5767 -1.3704 0.9091
H2A H 1.7692 -1.4277 0.9867
H3A H 1.5168 -1.2704 0.9922
C2A C 1.8233(7) -1.2044(4) 0.9207(2)
H4A H 1.9681 -1.2665 0.8854
H5A H 1.9045 -1.1648 0.9678
C3A C 1.6667(6) -1.0483(3) 0.86972(18)
H6A H 1.5913 -1.0884 0.8216
H7A H 1.5173 -0.9897 0.9045
C4A C 1.8261(5) -0.9151(3) 0.83664(16)
H8A H 1.9761 -0.9730 0.8019
H9A H 1.8996 -0.8731 0.8845
C5A C 1.6594(5) -0.7592(3) 0.78439(14)
H10A H 1.5785 -0.8016 0.7381
H11A H 1.5146 -0.6979 0.8199
C6A C 1.8226(5) -0.6308(3) 0.74777(15)
H12A H 1.9858 -0.6960 0.7213
H13A H 1.8755 -0.5724 0.7939
C7A C 1.6737(4) -0.4939(3) 0.68324(14)
C8A C 1.7489(4) -0.4592(3) 0.60152(13)
H14A H 1.9109 -0.5157 0.5769
C9A C 1.5519(4) -0.3269(2) 0.55807(12)
C10A C 1.3310(4) -0.2626(2) 0.60750(12)
C11A C 1.1337(4) -0.1236(2) 0.56051(12)
C12A C 0.8858(4) -0.0203(2) 0.58321(12)
H15A H 0.8109 -0.0329 0.6373
C13A C 0.7551(4) 0.1026(2) 0.52140(12)
C14A C 1.5158(4) -0.2308(2) 0.47311(13)
O1A O 1.6666(3) -0.24528(18) 0.41174(9)
S1A S 1.35846(11) -0.36223(7) 0.70763(3)
loop_
_geom_bond_atom_site_label_1
_geom_bond_atom_site_label_2
_geom_bond_site_symmetry_1
_geom_bond_site_symmetry_2
C1 H1 1_555 1_555
H2 C1 1_555 1_555
H3 C1 1_555 1_555
C2 C1 1_555 1_555
H4 C2 1_555 1_555
H5 C2 1_555 1_555
C3 C2 1_555 1_555
H6 C3 1_555 1_555
H7 C3 1_555 1_555
C4 C3 1_555 1_555
H8 C4 1_555 1_555
H9 C4 1_555 1_555
C5 C4 1_555 1_555
H10 C5 1_555 1_555
H11 C5 1_555 1_555
C6 C5 1_555 1_555
H12 C6 1_555 1_555
H13 C6 1_555 1_555
C7 C6 1_555 1_555
C8 C7 1_555 1_555
H14 C8 1_555 1_555
C9 C8 1_555 1_555
C10 C9 1_555 1_555
C11 C10 1_555 1_555
C12 C11 1_555 1_555
H15 C12 1_555 1_555
C13 C12 1_555 1_555
C14 C9 1_555 1_555
O1 C14 1_555 1_555
S1 C7 1_555 1_555
C1A H1A 1_555 1_555
H2A C1A 1_555 1_555
H3A C1A 1_555 1_555
C2A C1A 1_555 1_555
H4A C2A 1_555 1_555
H5A C2A 1_555 1_555
C3A C2A 1_555 1_555
H6A C3A 1_555 1_555
H7A C3A 1_555 1_555
C4A C3A 1_555 1_555
H8A C4A 1_555 1_555
H9A C4A 1_555 1_555
C5A C4A 1_555 1_555
H10A C5A 1_555 1_555
H11A C5A 1_555 1_555
C6A C5A 1_555 1_555
H12A C6A 1_555 1_555
H13A C6A 1_555 1_555
C7A C6A 1_555 1_555
C8A C7A 1_555 1_555
H14A C8A 1_555 1_555
C9A C8A 1_555 1_555
C10A C9A 1_555 1_555
C11A C13 1_555 1_555
C12A C11A 1_555 1_555
H15A C12A 1_555 1_555
C13A C11 1_555 1_555
C14A C13 1_555 1_555
O1A C14A 1_555 1_555
S1A C7A 1_555 1_555
C10 S1 1_555 1_555
C14 C13A 1_555 1_555
C9A C14A 1_555 1_555
C10A C11A 1_555 1_555
C10A S1A 1_555 1_555
C12A C13A 1_555 1_555

#END
