
#######################################################################
#
#                 Cambridge Crystallographic Data Centre
#                                CCDC 
#
#######################################################################
#
# If this CIF has been generated from an entry in the Cambridge 
# Structural Database, then it will include bibliographic, chemical, 
# crystal, experimental, refinement or atomic coordinate data resulting 
# from the CCDC's data processing and validation procedures.
#
#######################################################################

data_PUVLID
_chemical_formula_moiety         'C22 H26 N2 S6'
_chemical_name_systematic        
4-(2-(4,5-bis(n-Propylsulfanyl)-1,3-dithiol-2-ylidene)-5H-[1,3]dithiolo[4,5-c]pyrrol-5-yl)-N,N-dimethylaniline
_symmetry_cell_setting           triclinic
_symmetry_space_group_name_H-M   'P -1'
_symmetry_Int_Tables_number      2
_space_group_name_Hall           '-P 1'
loop_
_symmetry_equiv_pos_site_id
_symmetry_equiv_pos_as_xyz
1 x,y,z
2 -x,-y,-z
_cell_length_a                   11.5871(4)
_cell_length_b                   12.1431(5)
_cell_length_c                   18.8970(8)
_cell_angle_alpha                94.0239(14)
_cell_angle_beta                 90.9921(13)
_cell_angle_gamma                117.9112(12)
_cell_volume                     2339.99
_exptl_crystal_colour            yellow
_exptl_crystal_description       plate
_chemical_melting_point          '469 K'
_cell_formula_units_Z            4
_exptl_crystal_recrystallization_method chloroform/heptane
loop_
_atom_site_label
_atom_site_type_symbol
_atom_site_fract_x
_atom_site_fract_y
_atom_site_fract_z
C1 C -0.0042(2) -0.0845(2) 0.15100(11)
C2 C -0.1240(2) -0.1387(2) 0.17657(11)
C3 C 0.0183(2) 0.04663(19) 0.27033(11)
C4 C 0.06539(19) 0.14076(19) 0.32225(11)
C5 C 0.3040(2) 0.45448(19) 0.43650(11)
H1 H 0.3928 0.5066 0.4272
C6 C 0.21883(19) 0.34518(19) 0.39819(11)
C7 C 0.09630(19) 0.29685(19) 0.43000(11)
C8 C 0.10855(19) 0.37770(19) 0.48736(11)
H2 H 0.0422 0.3692 0.5187
C9 C 0.28895(19) 0.58074(19) 0.54217(11)
C10 C 0.20787(19) 0.60861(19) 0.58503(11)
H3 H 0.1158 0.5570 0.5795
C11 C 0.2592(2) 0.7107(2) 0.63586(11)
H4 H 0.2017 0.7272 0.6646
C12 C 0.3954(2) 0.79010(19) 0.64547(11)
C13 C 0.4759(2) 0.7627(2) 0.60074(11)
H5 H 0.5678 0.8157 0.6048
C14 C 0.4238(2) 0.6594(2) 0.55063(11)
H6 H 0.4808 0.6422 0.5218
C15 C 0.5836(2) 0.9851(2) 0.69345(12)
H7 H 0.5943 1.0231 0.6483
H8 H 0.6407 0.9462 0.6964
H9 H 0.6071 1.0498 0.7330
C16 C 0.3603(2) 0.9319(2) 0.72965(13)
H10 H 0.3186 0.9564 0.6927
H11 H 0.4105 1.0038 0.7643
H12 H 0.2930 0.8637 0.7537
S1 S 0.0455(5) -0.1079(4) 0.0677(3)
C17 C 0.0995(4) -0.2229(3) 0.08318(19)
H13 H 0.0238 -0.2993 0.0971
H14 H 0.1281 -0.2456 0.0379
C18 C 0.2094(5) -0.1821(5) 0.1393(2)
H15 H 0.2830 -0.1016 0.1283
H16 H 0.1786 -0.1685 0.1860
C19 C 0.2570(6) -0.2779(6) 0.1435(5)
H17 H 0.2950 -0.2860 0.0987
H18 H 0.1834 -0.3589 0.1519
H19 H 0.3236 -0.2511 0.1827
C20 C -0.3685(18) -0.2075(15) 0.1162(9)
H20 H -0.4531 -0.2768 0.0963
H21 H -0.3853 -0.1723 0.1613
C21 C -0.3190(11) -0.1074(12) 0.0651(6)
H22 H -0.2987 -0.1403 0.0202
H23 H -0.2375 -0.0349 0.0857
C22 C -0.4205(7) -0.0660(7) 0.0497(4)
H24 H -0.3842 0.0039 0.0197
H25 H -0.4451 -0.0392 0.0945
H26 H -0.4979 -0.1358 0.0250
N1 N 0.23671(16) 0.47498(16) 0.49127(9)
N2 N 0.44760(18) 0.89010(18) 0.69733(10)
S2 S -0.25999(6) -0.27001(5) 0.13521(3)
S3 S 0.12071(5) 0.03692(5) 0.20542(3)
S4 S -0.14258(5) -0.07757(5) 0.26080(3)
S5 S -0.02744(5) 0.15216(5) 0.39320(3)
S6 S 0.23205(5) 0.25635(5) 0.32518(3)
C29 C -0.0397(2) 0.35498(19) 0.17004(11)
C30 C -0.1119(2) 0.4071(2) 0.14715(11)
C31 C 0.00358(19) 0.53547(19) 0.26618(11)
C32 C 0.05326(19) 0.62964(18) 0.31807(10)
C33 C 0.14660(19) 0.95076(19) 0.42786(10)
H41 H 0.1119 1.0054 0.4179
C34 C 0.11435(19) 0.83730(19) 0.39197(10)
C35 C 0.18837(19) 0.78658(18) 0.42389(10)
C36 C 0.26497(19) 0.86989(18) 0.47945(11)
H42 H 0.3242 0.8601 0.5106
C37 C 0.29678(19) 1.07814(18) 0.53153(10)
C38 C 0.23888(19) 1.15573(19) 0.54161(11)
H43 H 0.1599 1.1359 0.5153
C39 C 0.2951(2) 1.26138(19) 0.58947(11)
H44 H 0.2547 1.3136 0.5947
C40 C 0.41071(19) 1.29299(18) 0.63047(11)
C41 C 0.4669(2) 1.21310(19) 0.62024(11)
H45 H 0.5444 1.2309 0.6474
C42 C 0.4116(2) 1.10852(19) 0.57129(11)
H46 H 0.4527 1.0571 0.5649
C43 C 0.5693(2) 1.4138(2) 0.72907(12)
H47 H 0.5318 1.3452 0.7599
H48 H 0.6021 1.4940 0.7578
H49 H 0.6416 1.4104 0.7045
C44 C 0.3908(2) 1.4612(2) 0.69946(12)
H50 H 0.4450 1.5372 0.7306
H51 H 0.3172 1.4034 0.7253
H52 H 0.3575 1.4831 0.6576
S8 S -0.03395(5) 0.22579(5) 0.12593(3)
C45 C 0.1402(2) 0.2886(2) 0.11281(11)
H53 H 0.1886 0.3174 0.1598
H54 H 0.1560 0.2204 0.0914
C46 C 0.1951(2) 0.3961(2) 0.06598(13)
H55 H 0.1812 0.4656 0.0872
H56 H 0.1480 0.3683 0.0186
C47 C 0.3403(2) 0.4423(3) 0.05765(14)
H57 H 0.3873 0.4724 0.1043
H58 H 0.3733 0.5107 0.0266
H59 H 0.3540 0.3735 0.0367
C48 C -0.3574(2) 0.3498(2) 0.09227(12)
H60 H -0.3463 0.4309 0.1142
H61 H -0.4176 0.3262 0.0496
C49 C -0.4198(2) 0.2517(2) 0.14452(13)
H62 H -0.4208 0.1731 0.1256
H63 H -0.3665 0.2806 0.1900
C50 C -0.5582(2) 0.2261(3) 0.15800(15)
H64 H -0.5931 0.1664 0.1942
H65 H -0.6130 0.1908 0.1138
H66 H -0.5580 0.3044 0.1747
N3 N 0.23953(16) 0.97098(15) 0.48151(9)
N4 N 0.46915(17) 1.40147(17) 0.67695(10)
S9 S -0.19907(6) 0.37014(6) 0.06460(3)
S10 S 0.04386(5) 0.41278(5) 0.25457(3)
S11 S -0.11683(5) 0.52524(5) 0.20425(3)
S12 S 0.00271(5) 0.74654(5) 0.32188(3)
S13 S 0.16177(5) 0.63895(5) 0.38849(3)
S7? S 0.0228(8) -0.1337(7) 0.0632(5)
C23? C 0.1738(5) -0.1384(5) 0.0792(3)
H27? H 0.2073 -0.1500 0.0329
H28? H 0.2389 -0.0568 0.1030
C24? C 0.1619(7) -0.2419(7) 0.1245(4)
H29? H 0.1345 -0.2282 0.1722
H30? H 0.0944 -0.3239 0.1023
C25? C 0.2921(10) -0.2428(12) 0.1316(8)
H31? H 0.3140 -0.2663 0.0850
H32? H 0.2859 -0.3034 0.1649
H33? H 0.3603 -0.1592 0.1495
C26? C -0.358(3) -0.194(2) 0.1067(13)
H34? H -0.4456 -0.2595 0.0874
H35? H -0.3713 -0.1481 0.1486
C27? C -0.2944(14) -0.1050(14) 0.0514(7)
H36? H -0.2875 -0.1516 0.0080
H37? H -0.2049 -0.0427 0.0692
C28? C -0.3711(7) -0.0384(7) 0.0333(4)
H38? H -0.3307 0.0145 -0.0053
H39? H -0.3715 0.0137 0.0752
H40? H -0.4612 -0.1001 0.0181
loop_
_geom_bond_atom_site_label_1
_geom_bond_atom_site_label_2
_geom_bond_site_symmetry_1
_geom_bond_site_symmetry_2
C1 C2 1_555 1_555
C2 S2 1_555 1_555
C3 C4 1_555 1_555
C4 S5 1_555 1_555
C5 H1 1_555 1_555
C6 C5 1_555 1_555
C7 C6 1_555 1_555
C8 C7 1_555 1_555
H2 C8 1_555 1_555
C9 C10 1_555 1_555
C10 H3 1_555 1_555
C11 C10 1_555 1_555
H4 C11 1_555 1_555
C12 C11 1_555 1_555
C13 C12 1_555 1_555
H5 C13 1_555 1_555
C14 C9 1_555 1_555
H6 C14 1_555 1_555
C15 H7 1_555 1_555
H8 C15 1_555 1_555
H9 C15 1_555 1_555
C16 H10 1_555 1_555
H11 C16 1_555 1_555
H12 C16 1_555 1_555
S1 C1 1_555 1_555
C17 S1 1_555 1_555
H13 C17 1_555 1_555
H14 C17 1_555 1_555
C18 C17 1_555 1_555
H15 C18 1_555 1_555
H16 C18 1_555 1_555
C19 C18 1_555 1_555
H17 C19 1_555 1_555
H18 C19 1_555 1_555
H19 C19 1_555 1_555
C20 H20 1_555 1_555
H21 C20 1_555 1_555
C21 C20 1_555 1_555
H22 C21 1_555 1_555
H23 C21 1_555 1_555
C22 C21 1_555 1_555
H24 C22 1_555 1_555
H25 C22 1_555 1_555
H26 C22 1_555 1_555
N1 C5 1_555 1_555
N2 C12 1_555 1_555
S2 C20 1_555 1_555
S3 C1 1_555 1_555
S4 C2 1_555 1_555
S5 C7 1_555 1_555
S6 C4 1_555 1_555
C29 C30 1_555 1_555
C30 S9 1_555 1_555
C31 C32 1_555 1_555
C32 S12 1_555 1_555
C33 H41 1_555 1_555
C34 C33 1_555 1_555
C35 C34 1_555 1_555
C36 C35 1_555 1_555
H42 C36 1_555 1_555
C37 C38 1_555 1_555
C38 H43 1_555 1_555
C39 C38 1_555 1_555
H44 C39 1_555 1_555
C40 C39 1_555 1_555
C41 C40 1_555 1_555
H45 C41 1_555 1_555
C42 C37 1_555 1_555
H46 C42 1_555 1_555
C43 H47 1_555 1_555
H48 C43 1_555 1_555
H49 C43 1_555 1_555
C44 H50 1_555 1_555
H51 C44 1_555 1_555
H52 C44 1_555 1_555
S8 C29 1_555 1_555
C45 S8 1_555 1_555
H53 C45 1_555 1_555
H54 C45 1_555 1_555
C46 C45 1_555 1_555
H55 C46 1_555 1_555
H56 C46 1_555 1_555
C47 C46 1_555 1_555
H57 C47 1_555 1_555
H58 C47 1_555 1_555
H59 C47 1_555 1_555
C48 H60 1_555 1_555
H61 C48 1_555 1_555
C49 C48 1_555 1_555
H62 C49 1_555 1_555
H63 C49 1_555 1_555
C50 C49 1_555 1_555
H64 C50 1_555 1_555
H65 C50 1_555 1_555
H66 C50 1_555 1_555
N3 C33 1_555 1_555
N4 C40 1_555 1_555
S9 C48 1_555 1_555
S10 C29 1_555 1_555
S11 C30 1_555 1_555
S12 C34 1_555 1_555
S13 C32 1_555 1_555
C3 S3 1_555 1_555
C3 S4 1_555 1_555
C6 S6 1_555 1_555
C8 N1 1_555 1_555
C9 N1 1_555 1_555
C13 C14 1_555 1_555
C15 N2 1_555 1_555
C16 N2 1_555 1_555
C31 S10 1_555 1_555
C31 S11 1_555 1_555
C35 S13 1_555 1_555
C36 N3 1_555 1_555
C37 N3 1_555 1_555
C41 C42 1_555 1_555
C43 N4 1_555 1_555
C44 N4 1_555 1_555

#END
