
#######################################################################
#
#                 Cambridge Crystallographic Data Centre
#                                CCDC 
#
#######################################################################
#
# If this CIF has been generated from an entry in the Cambridge 
# Structural Database, then it will include bibliographic, chemical, 
# crystal, experimental, refinement or atomic coordinate data resulting 
# from the CCDC's data processing and validation procedures.
#
#######################################################################

data_PUVLUP
_chemical_formula_moiety         'C17 H15 N1 O1 S6'
_chemical_name_systematic        
2-(4,5-bis(Methylsulfanyl)-1,3-dithiol-2-ylidene)-5-(4-methoxyphenyl)-5H-[1,3]dithiolo[4,5-c]pyrrole
_symmetry_cell_setting           triclinic
_symmetry_space_group_name_H-M   'P -1'
_symmetry_Int_Tables_number      2
_space_group_name_Hall           '-P 1'
loop_
_symmetry_equiv_pos_site_id
_symmetry_equiv_pos_as_xyz
1 x,y,z
2 -x,-y,-z
_cell_length_a                   10.761(3)
_cell_length_b                   11.927(4)
_cell_length_c                   16.090(5)
_cell_angle_alpha                80.067(5)
_cell_angle_beta                 84.081(5)
_cell_angle_gamma                66.129(4)
_cell_volume                     1858.86
_exptl_crystal_colour            yellow
_exptl_crystal_description       block
_chemical_melting_point          '471 K'
_cell_formula_units_Z            4
_exptl_crystal_recrystallization_method chloroform
loop_
_atom_site_label
_atom_site_type_symbol
_atom_site_fract_x
_atom_site_fract_y
_atom_site_fract_z
S1 S 0.27572(4) 0.46225(4) 0.10850(2)
S2 S 0.17603(4) 0.67500(4) 0.20965(3)
S3 S 0.46704(4) 0.28813(4) 0.26275(2)
S4 S 0.36799(4) 0.49958(4) 0.35953(2)
S5 S 0.60635(4) 0.10269(4) 0.41046(3)
S6 S 0.49321(4) 0.33750(4) 0.52128(3)
O1 O -0.36651(12) 1.05959(11) -0.26051(7)
N1 N -0.01165(13) 0.76266(12) -0.00545(8)
C1 C 0.00306(16) 0.79957(15) 0.06893(10)
H1 H -0.0460 0.8788 0.0859
C2 C 0.10132(16) 0.70063(15) 0.11333(10)
C3 C 0.14756(15) 0.60038(14) 0.06572(10)
C4 C 0.07773(16) 0.63985(15) -0.00751(10)
H2 H 0.0883 0.5924 -0.0514
C5 C 0.27599(16) 0.51692(15) 0.20391(9)
C6 C 0.35618(16) 0.44332(15) 0.26754(10)
C7 C 0.50330(16) 0.25481(15) 0.37116(10)
C8 C 0.45673(16) 0.35115(15) 0.41567(9)
C9 C -0.10365(15) 0.83980(15) -0.06956(9)
C10 C -0.16829(16) 0.96682(15) -0.06793(10)
H3 H -0.1502 1.0019 -0.0243
C11 C -0.25941(16) 1.04309(16) -0.12972(10)
H4 H -0.3046 1.1294 -0.1274
C12 C -0.28399(15) 0.99245(16) -0.19478(9)
C13 C -0.22016(17) 0.86514(16) -0.19605(10)
H5 H -0.2381 0.8302 -0.2399
C14 C -0.13046(16) 0.78859(16) -0.13387(10)
H6 H -0.0877 0.7019 -0.1352
C15 C -0.44214(18) 1.18889(16) -0.25791(11)
H7 H -0.3793 1.2307 -0.2622
H8 H -0.4954 1.2004 -0.2045
H9 H -0.5035 1.2243 -0.3052
C16 C 0.5081(2) 0.02239(17) 0.38480(12)
H10 H 0.5056 0.0299 0.3233
H11 H 0.4152 0.0589 0.4085
H12 H 0.5501 -0.0653 0.4086
C17 C 0.33619(18) 0.44576(18) 0.56420(11)
H13 H 0.3153 0.5289 0.5327
H14 H 0.3467 0.4467 0.6238
H15 H 0.2619 0.4200 0.5592
S7 S 0.78224(4) 0.14554(4) 0.12160(3)
S8 S 0.62251(4) -0.01509(4) 0.14667(3)
S9 S 0.97197(4) -0.03002(4) 0.27309(3)
S10 S 0.81922(4) -0.19075(4) 0.30119(3)
S11 S 1.14706(4) -0.16767(4) 0.42299(3)
S12 S 0.97282(4) -0.34417(4) 0.45660(3)
O2 O 0.10896(13) 0.58986(12) -0.27721(8)
N2 N 0.46501(13) 0.27990(13) -0.02488(8)
C18 C 0.45609(16) 0.17290(15) 0.02069(10)
H16 H 0.3892 0.1418 0.0153
C19 C 0.56181(16) 0.12060(15) 0.07488(10)
C20 C 0.63716(15) 0.19631(15) 0.06243(10)
C21 C 0.57618(15) 0.29444(15) 0.00087(10)
H17 H 0.6048 0.3600 -0.0201
C22 C 0.75239(16) 0.01846(15) 0.18122(10)
C23 C 0.83273(16) -0.05547(15) 0.24493(10)
C24 C 1.00769(16) -0.14174(15) 0.36413(10)
C25 C 0.93731(16) -0.21506(16) 0.37794(10)
C26 C 0.37168(15) 0.36414(15) -0.08671(10)
C27 C 0.39373(17) 0.46527(16) -0.13185(11)
H18 H 0.4689 0.4812 -0.1193
C28 C 0.30698(17) 0.54379(16) -0.19541(11)
H19 H 0.3229 0.6129 -0.2255
C29 C 0.19739(17) 0.52057(15) -0.21448(10)
C30 C 0.17302(17) 0.42087(16) -0.16792(11)
H20 H 0.0970 0.4057 -0.1798
C31 C 0.25896(17) 0.34374(16) -0.10438(11)
H21 H 0.2409 0.2767 -0.0727
C32 C 0.1271(2) 0.69661(18) -0.32236(13)
H22 H 0.2194 0.6718 -0.3476
H23 H 0.1132 0.7558 -0.2835
H24 H 0.0610 0.7354 -0.3670
C33 C 1.14018(18) -0.01267(17) 0.41791(11)
H25 H 1.1499 0.0217 0.3589
H26 H 1.2142 -0.0154 0.4500
H27 H 1.0527 0.0397 0.4421
C34 C 0.8342(2) -0.28561(19) 0.53250(12)
H28 H 0.7475 -0.2522 0.5042
H29 H 0.8439 -0.2199 0.5569
H30 H 0.8361 -0.3531 0.5775
loop_
_geom_bond_atom_site_label_1
_geom_bond_atom_site_label_2
_geom_bond_site_symmetry_1
_geom_bond_site_symmetry_2
S1 C3 1_555 1_555
S2 C2 1_555 1_555
S3 C6 1_555 1_555
S4 C6 1_555 1_555
S5 C7 1_555 1_555
S6 C8 1_555 1_555
O1 C12 1_555 1_555
N1 C1 1_555 1_555
C1 H1 1_555 1_555
C2 C1 1_555 1_555
C3 C2 1_555 1_555
C4 N1 1_555 1_555
H2 C4 1_555 1_555
C5 S1 1_555 1_555
C6 C5 1_555 1_555
C7 S3 1_555 1_555
C8 S4 1_555 1_555
C9 N1 1_555 1_555
C10 C9 1_555 1_555
H3 C10 1_555 1_555
C11 C10 1_555 1_555
H4 C11 1_555 1_555
C12 C11 1_555 1_555
C13 C12 1_555 1_555
H5 C13 1_555 1_555
C14 C9 1_555 1_555
H6 C14 1_555 1_555
C15 O1 1_555 1_555
H7 C15 1_555 1_555
H8 C15 1_555 1_555
H9 C15 1_555 1_555
C16 S5 1_555 1_555
H10 C16 1_555 1_555
H11 C16 1_555 1_555
H12 C16 1_555 1_555
C17 S6 1_555 1_555
H13 C17 1_555 1_555
H14 C17 1_555 1_555
H15 C17 1_555 1_555
S7 C20 1_555 1_555
S8 C19 1_555 1_555
S9 C23 1_555 1_555
S10 C23 1_555 1_555
S11 C24 1_555 1_555
S12 C25 1_555 1_555
O2 C29 1_555 1_555
N2 C18 1_555 1_555
C18 H16 1_555 1_555
C19 C18 1_555 1_555
C20 C19 1_555 1_555
C21 N2 1_555 1_555
H17 C21 1_555 1_555
C22 S7 1_555 1_555
C23 C22 1_555 1_555
C24 S9 1_555 1_555
C25 S10 1_555 1_555
C26 N2 1_555 1_555
C27 C26 1_555 1_555
H18 C27 1_555 1_555
C28 C27 1_555 1_555
H19 C28 1_555 1_555
C29 C28 1_555 1_555
C30 C29 1_555 1_555
H20 C30 1_555 1_555
C31 C26 1_555 1_555
H21 C31 1_555 1_555
C32 O2 1_555 1_555
H22 C32 1_555 1_555
H23 C32 1_555 1_555
H24 C32 1_555 1_555
C33 S11 1_555 1_555
H25 C33 1_555 1_555
H26 C33 1_555 1_555
H27 C33 1_555 1_555
C34 S12 1_555 1_555
H28 C34 1_555 1_555
H29 C34 1_555 1_555
H30 C34 1_555 1_555
S2 C5 1_555 1_555
C3 C4 1_555 1_555
C7 C8 1_555 1_555
C13 C14 1_555 1_555
S8 C22 1_555 1_555
C20 C21 1_555 1_555
C24 C25 1_555 1_555
C30 C31 1_555 1_555

#END
