
#######################################################################
#
#                 Cambridge Crystallographic Data Centre
#                                CCDC 
#
#######################################################################
#
# If this CIF has been generated from an entry in the Cambridge 
# Structural Database, then it will include bibliographic, chemical, 
# crystal, experimental, refinement or atomic coordinate data resulting 
# from the CCDC's data processing and validation procedures.
#
#######################################################################

data_PUVMUQ
_chemical_formula_moiety         'C18 H16 O4 S2'
_chemical_name_systematic        
'Dimethyl 6-methyl-5-methylene-4-(2-thienyl)-4,5-dihydro-1-benzothiophene-4,7-dicarboxylate'
_symmetry_cell_setting           monoclinic
_symmetry_space_group_name_H-M   'P 21/n'
_symmetry_Int_Tables_number      14
_space_group_name_Hall           '-P 2yn'
loop_
_symmetry_equiv_pos_site_id
_symmetry_equiv_pos_as_xyz
1 x,y,z
2 1/2-x,1/2+y,1/2-z
3 -x,-y,-z
4 1/2+x,1/2-y,1/2+z
_cell_length_a                   14.506(3)
_cell_length_b                   7.4613(15)
_cell_length_c                   15.677(3)
_cell_angle_alpha                90
_cell_angle_beta                 95.919(5)
_cell_angle_gamma                90
_cell_volume                     1687.73
_exptl_crystal_colour            colorless
_exptl_crystal_description       prismatic
_cell_formula_units_Z            4
loop_
_atom_site_label
_atom_site_type_symbol
_atom_site_fract_x
_atom_site_fract_y
_atom_site_fract_z
S1 S 1.12291(7) 0.20986(12) 0.20513(6)
S2 S 0.90994(7) 0.73465(11) 0.43435(5)
O1 O 1.07662(16) 0.5719(3) 0.10625(14)
O2 O 0.94892(17) 0.7208(3) 0.13019(14)
O3 O 0.77005(17) 0.4615(3) 0.46054(15)
O4 O 0.82742(16) 0.1853(3) 0.45433(15)
C1 C 1.2119(2) 0.1709(5) 0.2824(2)
H1 H 1.2562 0.0820 0.2789
C2 C 1.2104(3) 0.2830(5) 0.3488(2)
H2 H 1.2543 0.2802 0.3964
C3 C 1.1361(2) 0.4062(4) 0.33983(19)
H3 H 1.1250 0.4919 0.3806
C4 C 1.08177(19) 0.3831(4) 0.26239(17)
C5 C 0.99575(18) 0.4912(4) 0.22976(16)
C6 C 0.91305(19) 0.3636(4) 0.20819(17)
C7 C 0.86563(19) 0.2991(4) 0.28152(18)
C8 C 0.86953(18) 0.3981(4) 0.35384(17)
C9 C 0.91696(19) 0.5702(4) 0.35788(17)
C10 C 0.97554(19) 0.6210(4) 0.29896(17)
C11 C 1.0153(2) 0.7924(4) 0.3161(2)
H4 H 1.0568 0.8465 0.2827
C12 C 0.9859(3) 0.8685(4) 0.3872(2)
H5 H 1.0049 0.9809 0.4079
C13 C 0.8873(2) 0.3117(5) 0.1285(2)
H6 H 0.8380 0.2324 0.1174
H7 H 0.9184 0.3545 0.0837
C14 C 0.8072(2) 0.1339(4) 0.2664(2)
H8 H 0.7819 0.1013 0.3185
H9 H 0.8447 0.0374 0.2488
H10 H 0.7576 0.1572 0.2224
C15 C 1.0133(2) 0.5961(4) 0.14831(18)
C16 C 0.9611(3) 0.8343(5) 0.0582(2)
H11 H 1.0228 0.8823 0.0641
H12 H 0.9171 0.9308 0.0561
H13 H 0.9515 0.7657 0.0062
C17 C 0.8165(2) 0.3539(4) 0.42768(18)
C18 C 0.7731(3) 0.1291(5) 0.5218(2)
H14 H 0.7685 0.2261 0.5613
H15 H 0.8026 0.0285 0.5516
H16 H 0.7122 0.0952 0.4974
loop_
_geom_bond_atom_site_label_1
_geom_bond_atom_site_label_2
_geom_bond_site_symmetry_1
_geom_bond_site_symmetry_2
S1 C1 1_555 1_555
S2 C9 1_555 1_555
O1 C15 1_555 1_555
O2 C15 1_555 1_555
O3 C17 1_555 1_555
O4 C17 1_555 1_555
C1 H1 1_555 1_555
C2 C1 1_555 1_555
H2 C2 1_555 1_555
C3 C2 1_555 1_555
H3 C3 1_555 1_555
C4 S1 1_555 1_555
C5 C4 1_555 1_555
C6 C5 1_555 1_555
C7 C6 1_555 1_555
C8 C7 1_555 1_555
C9 C8 1_555 1_555
C10 C5 1_555 1_555
C11 C10 1_555 1_555
H4 C11 1_555 1_555
C12 S2 1_555 1_555
H5 C12 1_555 1_555
C13 C6 1_555 1_555
H6 C13 1_555 1_555
H7 C13 1_555 1_555
C14 C7 1_555 1_555
H8 C14 1_555 1_555
H9 C14 1_555 1_555
H10 C14 1_555 1_555
C15 C5 1_555 1_555
C16 O2 1_555 1_555
H11 C16 1_555 1_555
H12 C16 1_555 1_555
H13 C16 1_555 1_555
C17 C8 1_555 1_555
C18 O4 1_555 1_555
H14 C18 1_555 1_555
H15 C18 1_555 1_555
H16 C18 1_555 1_555
C3 C4 1_555 1_555
C9 C10 1_555 1_555
C11 C12 1_555 1_555

#END
