
#######################################################################
#
#                 Cambridge Crystallographic Data Centre
#                                CCDC 
#
#######################################################################
#
# If this CIF has been generated from an entry in the Cambridge 
# Structural Database, then it will include bibliographic, chemical, 
# crystal, experimental, refinement or atomic coordinate data resulting 
# from the CCDC's data processing and validation procedures.
#
#######################################################################

data_PUVNOL
_chemical_formula_moiety         'C29 H18 N2 O3'
_chemical_name_systematic        
2-((3,4-Diphenyl-1H-isochromen-1-ylidene)amino)-1H-isoindole-1,3(2H)-dione
_symmetry_cell_setting           triclinic
_symmetry_space_group_name_H-M   'P -1'
_symmetry_Int_Tables_number      2
_space_group_name_Hall           '-P 1'
loop_
_symmetry_equiv_pos_site_id
_symmetry_equiv_pos_as_xyz
1 x,y,z
2 -x,-y,-z
_cell_length_a                   9.7434(8)
_cell_length_b                   10.5090(7)
_cell_length_c                   11.1380(9)
_cell_angle_alpha                101.345(7)
_cell_angle_beta                 103.176(7)
_cell_angle_gamma                93.347(6)
_cell_volume                     1082.35
_cell_formula_units_Z            2
loop_
_atom_site_label
_atom_site_type_symbol
_atom_site_fract_x
_atom_site_fract_y
_atom_site_fract_z
C1 C 0.3937(2) 0.2922(2) 0.8929(2)
C2 C 0.4894(2) 0.38375(19) 0.8552(2)
C3 C 0.6282(2) 0.3774(2) 0.8496(2)
H1 H 0.6775 0.3061 0.8700
C4 C 0.6938(3) 0.4790(2) 0.8130(2)
H2 H 0.7900 0.4779 0.8087
C5 C 0.6213(3) 0.5812(2) 0.7830(3)
H3 H 0.6686 0.6490 0.7575
C6 C 0.4818(3) 0.5885(2) 0.7889(2)
H4 H 0.4329 0.6599 0.7685
C7 C 0.4161(2) 0.48712(19) 0.8258(2)
C8 C 0.2698(2) 0.46453(19) 0.8402(2)
C9 C 0.0906(2) 0.18206(19) 0.8611(2)
C10 C 0.0814(2) -0.01521(18) 0.7053(2)
C11 C -0.0394(2) -0.06692(18) 0.7241(2)
C12 C -0.1012(2) 0.00494(18) 0.8212(2)
C13 C -0.2228(2) -0.0451(2) 0.8505(2)
H5 H -0.2697 -0.1279 0.8042
C14 C -0.2755(2) 0.0243(2) 0.9457(2)
H6 H -0.3585 -0.0110 0.9638
C15 C -0.2084(2) 0.1447(2) 1.0148(2)
H7 H -0.2451 0.1916 1.0804
C16 C -0.0879(2) 0.1968(2) 0.9884(2)
H8 H -0.0416 0.2795 1.0358
C17 C -0.0344(2) 0.12735(18) 0.8916(2)
C18 C 0.1697(2) -0.07161(18) 0.6210(2)
C19 C 0.3163(2) -0.0488(2) 0.6630(2)
H9 H 0.3581 0.0027 0.7450
C20 C 0.4018(3) -0.1002(2) 0.5868(3)
H10 H 0.5020 -0.0848 0.6169
C21 C 0.3426(3) -0.1738(2) 0.4671(3)
H11 H 0.4019 -0.2087 0.4147
C22 C 0.1973(3) -0.1967(2) 0.4235(2)
H12 H 0.1563 -0.2470 0.3408
C23 C 0.1106(2) -0.14652(19) 0.5002(2)
H13 H 0.0105 -0.1633 0.4702
C24 C -0.1079(2) -0.19851(18) 0.6498(2)
C25 C -0.0443(2) -0.31067(19) 0.6689(2)
H14 H 0.0426 -0.3036 0.7307
C26 C -0.1065(2) -0.4313(2) 0.5991(2)
H15 H -0.0620 -0.5071 0.6123
C27 C -0.2335(3) -0.4429(2) 0.5098(2)
H16 H -0.2763 -0.5265 0.4618
C28 C -0.2977(2) -0.3331(2) 0.4905(2)
H17 H -0.3854 -0.3411 0.4295
C29 C -0.2350(2) -0.2108(2) 0.5597(2)
H18 H -0.2794 -0.1352 0.5453
N1 N 0.26286(17) 0.34248(15) 0.87330(17)
N2 N 0.14406(18) 0.30001(16) 0.91327(18)
O1 O 0.41981(15) 0.19576(13) 0.93360(15)
O2 O 0.17405(18) 0.53137(14) 0.82741(16)
O3 O 0.14475(14) 0.10804(12) 0.77289(14)
loop_
_geom_bond_atom_site_label_1
_geom_bond_atom_site_label_2
_geom_bond_site_symmetry_1
_geom_bond_site_symmetry_2
C1 C2 1_555 1_555
C2 C3 1_555 1_555
C3 H1 1_555 1_555
C4 C3 1_555 1_555
H2 C4 1_555 1_555
C5 C4 1_555 1_555
H3 C5 1_555 1_555
C6 C5 1_555 1_555
H4 C6 1_555 1_555
C7 C2 1_555 1_555
C8 C7 1_555 1_555
C9 C17 1_555 1_555
C10 C11 1_555 1_555
C11 C12 1_555 1_555
C12 C13 1_555 1_555
C13 H5 1_555 1_555
C14 C13 1_555 1_555
H6 C14 1_555 1_555
C15 C14 1_555 1_555
H7 C15 1_555 1_555
C16 C15 1_555 1_555
H8 C16 1_555 1_555
C17 C12 1_555 1_555
C18 C10 1_555 1_555
C19 C18 1_555 1_555
H9 C19 1_555 1_555
C20 C19 1_555 1_555
H10 C20 1_555 1_555
C21 C20 1_555 1_555
H11 C21 1_555 1_555
C22 C21 1_555 1_555
H12 C22 1_555 1_555
C23 C18 1_555 1_555
H13 C23 1_555 1_555
C24 C11 1_555 1_555
C25 C24 1_555 1_555
H14 C25 1_555 1_555
C26 C25 1_555 1_555
H15 C26 1_555 1_555
C27 C26 1_555 1_555
H16 C27 1_555 1_555
C28 C27 1_555 1_555
H17 C28 1_555 1_555
C29 C24 1_555 1_555
H18 C29 1_555 1_555
N1 C1 1_555 1_555
N2 C9 1_555 1_555
O1 C1 1_555 1_555
O2 C8 1_555 1_555
O3 C9 1_555 1_555
C6 C7 1_555 1_555
C8 N1 1_555 1_555
C10 O3 1_555 1_555
C16 C17 1_555 1_555
C22 C23 1_555 1_555
C28 C29 1_555 1_555
N1 N2 1_555 1_555

#END
