
#######################################################################
#
#                 Cambridge Crystallographic Data Centre
#                                CCDC 
#
#######################################################################
#
# If this CIF has been generated from an entry in the Cambridge 
# Structural Database, then it will include bibliographic, chemical, 
# crystal, experimental, refinement or atomic coordinate data resulting 
# from the CCDC's data processing and validation procedures.
#
#######################################################################

data_PUVNEA
_chemical_formula_moiety         'C14 H12 O3'
_chemical_name_systematic        1-(5-Benzoyl-2-methyl-3-furyl)ethanone
_symmetry_cell_setting           monoclinic
_symmetry_space_group_name_H-M   'P 21/c'
_symmetry_Int_Tables_number      14
_space_group_name_Hall           '-P 2ybc'
loop_
_symmetry_equiv_pos_site_id
_symmetry_equiv_pos_as_xyz
1 x,y,z
2 -x,1/2+y,1/2-z
3 -x,-y,-z
4 x,1/2-y,1/2+z
_cell_length_a                   9.6681(6)
_cell_length_b                   10.6721(6)
_cell_length_c                   11.7312(7)
_cell_angle_alpha                90
_cell_angle_beta                 108.073(2)
_cell_angle_gamma                90
_cell_volume                     1150.69
_exptl_crystal_colour            colorless
_exptl_crystal_description       block
_cell_formula_units_Z            4
loop_
_atom_site_label
_atom_site_type_symbol
_atom_site_fract_x
_atom_site_fract_y
_atom_site_fract_z
O1 O 0.34557(19) 0.80415(13) -0.07287(14)
O2 O 0.25368(15) 0.92859(12) 0.08960(11)
O3 O 0.04819(19) 1.22079(15) 0.21645(14)
C1 C 0.3799(2) 1.10289(19) -0.19855(18)
H1 H 0.3872 1.1525 -0.1317
C2 C 0.4099(2) 1.1537(2) -0.29706(19)
H2 H 0.4372 1.2373 -0.2963
C3 C 0.3992(2) 1.0803(2) -0.39642(19)
H3 H 0.4189 1.1148 -0.4625
C4 C 0.3594(2) 0.9559(2) -0.39805(18)
H4 H 0.3529 0.9066 -0.4649
C5 C 0.3293(2) 0.90477(19) -0.30014(17)
H5 H 0.3024 0.8210 -0.3015
C6 C 0.3388(2) 0.97763(18) -0.19943(16)
C7 C 0.3135(2) 0.91423(18) -0.09428(17)
C8 C 0.2498(2) 0.98654(18) -0.01722(16)
C9 C 0.1802(2) 1.09816(17) -0.02588(16)
H6 H 0.1616 1.1546 -0.0893
C10 C 0.1409(2) 1.11220(18) 0.08179(16)
C11 C 0.1894(2) 1.00655(19) 0.14839(17)
C12 C 0.1849(3) 0.9633(2) 0.26702(19)
H7 H 0.2306 0.8827 0.2844
H8 H 0.0855 0.9571 0.2662
H9 H 0.2356 1.0222 0.3274
C13 C 0.0663(2) 1.21837(19) 0.11723(18)
C14 C 0.0146(3) 1.3231(2) 0.0295(2)
H10 H -0.0317 1.3858 0.0638
H11 H -0.0538 1.2912 -0.0426
H12 H 0.0960 1.3594 0.0112
loop_
_geom_bond_atom_site_label_1
_geom_bond_atom_site_label_2
_geom_bond_site_symmetry_1
_geom_bond_site_symmetry_2
O1 C7 1_555 1_555
O2 C8 1_555 1_555
O3 C13 1_555 1_555
C1 H1 1_555 1_555
C2 C1 1_555 1_555
H2 C2 1_555 1_555
C3 C2 1_555 1_555
H3 C3 1_555 1_555
C4 C3 1_555 1_555
H4 C4 1_555 1_555
C5 C4 1_555 1_555
H5 C5 1_555 1_555
C6 C1 1_555 1_555
C7 C6 1_555 1_555
C8 C7 1_555 1_555
C9 C8 1_555 1_555
H6 C9 1_555 1_555
C10 C9 1_555 1_555
C11 O2 1_555 1_555
C12 C11 1_555 1_555
H7 C12 1_555 1_555
H8 C12 1_555 1_555
H9 C12 1_555 1_555
C13 C10 1_555 1_555
C14 C13 1_555 1_555
H10 C14 1_555 1_555
H11 C14 1_555 1_555
H12 C14 1_555 1_555
C5 C6 1_555 1_555
C10 C11 1_555 1_555

#END
