
#######################################################################
#
#                 Cambridge Crystallographic Data Centre
#                                CCDC 
#
#######################################################################
#
# If this CIF has been generated from an entry in the Cambridge 
# Structural Database, then it will include bibliographic, chemical, 
# crystal, experimental, refinement or atomic coordinate data resulting 
# from the CCDC's data processing and validation procedures.
#
#######################################################################

data_PUVVUZ
_chemical_formula_moiety         'C4 H6 S3'
_chemical_name_systematic        1,3-Dithiane-2-thione
_symmetry_cell_setting           monoclinic
_symmetry_space_group_name_H-M   'P 21/n'
_symmetry_Int_Tables_number      14
_space_group_name_Hall           '-P 2yn'
loop_
_symmetry_equiv_pos_site_id
_symmetry_equiv_pos_as_xyz
1 x,y,z
2 1/2-x,1/2+y,1/2-z
3 -x,-y,-z
4 1/2+x,1/2-y,1/2+z
_cell_length_a                   5.965(4)
_cell_length_b                   10.206(8)
_cell_length_c                   10.513(8)
_cell_angle_alpha                90
_cell_angle_beta                 90.678(9)
_cell_angle_gamma                90
_cell_volume                     639.974
_exptl_crystal_colour            yellow
_exptl_crystal_description       block
_cell_formula_units_Z            4
loop_
_atom_site_label
_atom_site_type_symbol
_atom_site_fract_x
_atom_site_fract_y
_atom_site_fract_z
S1 S 1.02713(11) 0.68462(6) 0.00171(6)
S2 S 1.14639(9) 0.82224(6) 0.23081(5)
S3 S 0.73331(9) 0.89653(6) 0.07019(5)
C1 C 0.9222(4) 1.0612(2) 0.2560(2)
H1 H 1.0209 1.0922 0.1899
H2 H 0.8931 1.1339 0.3129
C2 C 1.0383(4) 0.9532(2) 0.3295(2)
H3 H 0.9333 0.9162 0.3895
H4 H 1.1615 0.9909 0.3782
C3 C 0.7033(4) 1.0168(2) 0.1959(2)
H5 H 0.6263 1.0929 0.1615
H6 H 0.6097 0.9800 0.2617
C4 C 0.9673(4) 0.8040(2) 0.1031(2)
loop_
_geom_bond_atom_site_label_1
_geom_bond_atom_site_label_2
_geom_bond_site_symmetry_1
_geom_bond_site_symmetry_2
S1 C4 1_555 1_555
S2 C2 1_555 1_555
S3 C3 1_555 1_555
C1 H1 1_555 1_555
H2 C1 1_555 1_555
C2 C1 1_555 1_555
H3 C2 1_555 1_555
H4 C2 1_555 1_555
C3 C1 1_555 1_555
H5 C3 1_555 1_555
H6 C3 1_555 1_555
C4 S2 1_555 1_555
S3 C4 1_555 1_555

#END
