
#######################################################################
#
#                 Cambridge Crystallographic Data Centre
#                                CCDC 
#
#######################################################################
#
# If this CIF has been generated from an entry in the Cambridge 
# Structural Database, then it will include bibliographic, chemical, 
# crystal, experimental, refinement or atomic coordinate data resulting 
# from the CCDC's data processing and validation procedures.
#
#######################################################################

data_PUWLAW
_chemical_formula_moiety         'C14 F10,2(C7 H8 O1)'
_chemical_name_systematic        'decafluoroanthracene bis(anisole)'
_symmetry_cell_setting           triclinic
_symmetry_space_group_name_H-M   'P -1'
_symmetry_Int_Tables_number      2
_space_group_name_Hall           '-P 1'
loop_
_symmetry_equiv_pos_site_id
_symmetry_equiv_pos_as_xyz
1 x,y,z
2 -x,-y,-z
_cell_length_a                   6.8010(9)
_cell_length_b                   8.3587(11)
_cell_length_c                   11.0540(15)
_cell_angle_alpha                93.153(11)
_cell_angle_beta                 106.642(11)
_cell_angle_gamma                99.145(11)
_cell_volume                     591.053
_exptl_crystal_colour            colorless
_exptl_crystal_description       needle
_cell_formula_units_Z            1
loop_
_atom_site_label
_atom_site_type_symbol
_atom_site_fract_x
_atom_site_fract_y
_atom_site_fract_z
O1 O 0.9561(2) 0.56167(16) 0.33391(13)
C1 C 0.8845(3) 0.4085(2) 0.27107(17)
C2 C 0.8683(3) 0.2845(2) 0.34835(18)
H1 H 0.9070 0.3091 0.4379
C3 C 0.7955(3) 0.1248(2) 0.2940(2)
H2 H 0.7833 0.0396 0.3463
C4 C 0.7402(3) 0.0894(3) 0.1632(2)
H3 H 0.6910 -0.0202 0.1259
C5 C 0.7569(3) 0.2133(3) 0.0873(2)
H4 H 0.7186 0.1885 -0.0022
C6 C 0.8289(3) 0.3741(3) 0.14032(18)
H5 H 0.8400 0.4591 0.0878
C7 C 0.9749(4) 0.6944(3) 0.2603(2)
H6 H 1.0284 0.7963 0.3167
H7 H 0.8377 0.6994 0.2018
H8 H 1.0716 0.6789 0.2117
C8 C 0.4482(3) 0.4741(2) 0.36543(16)
C9 C 0.4178(3) 0.3398(2) 0.43794(16)
C10 C 0.3348(3) 0.1814(2) 0.37059(18)
C11 C 0.2878(3) 0.1582(2) 0.24276(19)
C12 C 0.3158(3) 0.2896(3) 0.17191(17)
C13 C 0.3935(3) 0.4421(2) 0.23092(18)
C14 C 0.5301(3) 0.6289(2) 0.43081(17)
F1 F 0.3019(2) 0.05299(14) 0.43342(11)
F2 F 0.2136(2) 0.00910(15) 0.18020(12)
F3 F 0.2619(2) 0.26143(16) 0.04511(10)
F4 F 0.4156(2) 0.56370(15) 0.15863(10)
F5 F 0.5575(2) 0.75443(14) 0.36301(10)
C8A C 0.5518(3) 0.5259(2) 0.63457(16)
C9A C 0.5822(3) 0.6602(2) 0.56206(16)
C10A C 0.6652(3) 0.8186(2) 0.62941(18)
C11A C 0.7122(3) 0.8418(2) 0.75724(19)
C12A C 0.6842(3) 0.7104(3) 0.82809(17)
C13A C 0.6065(3) 0.5579(2) 0.76908(18)
C14A C 0.4699(3) 0.3711(2) 0.56919(17)
F1A F 0.6981(2) 0.94701(14) 0.56658(11)
F2A F 0.7864(2) 0.99090(15) 0.81980(12)
F3A F 0.7381(2) 0.73857(16) 0.95489(10)
F4A F 0.5844(2) 0.43630(15) 0.84137(10)
F5A F 0.4425(2) 0.24557(14) 0.63699(10)
loop_
_geom_bond_atom_site_label_1
_geom_bond_atom_site_label_2
_geom_bond_site_symmetry_1
_geom_bond_site_symmetry_2
O1 C1 1_555 1_555
C1 C2 1_555 1_555
C2 H1 1_555 1_555
C3 C2 1_555 1_555
H2 C3 1_555 1_555
C4 C3 1_555 1_555
H3 C4 1_555 1_555
C5 C4 1_555 1_555
H4 C5 1_555 1_555
C6 C1 1_555 1_555
H5 C6 1_555 1_555
C7 O1 1_555 1_555
H6 C7 1_555 1_555
H7 C7 1_555 1_555
H8 C7 1_555 1_555
C8 C9 1_555 1_555
C9 C10 1_555 1_555
C10 C11 1_555 1_555
C11 C12 1_555 1_555
C12 C13 1_555 1_555
C13 C8 1_555 1_555
C14 C8 1_555 1_555
F1 C10 1_555 1_555
F2 C11 1_555 1_555
F3 C12 1_555 1_555
F4 C13 1_555 1_555
F5 C14 1_555 1_555
C8A C9A 1_555 1_555
C9A C14 1_555 1_555
C10A C9A 1_555 1_555
C11A C10A 1_555 1_555
C12A C11A 1_555 1_555
C13A C8A 1_555 1_555
C14A C9 1_555 1_555
F1A C10A 1_555 1_555
F2A C11A 1_555 1_555
F3A C12A 1_555 1_555
F4A C13A 1_555 1_555
F5A C14A 1_555 1_555
C5 C6 1_555 1_555
C8A C14A 1_555 1_555
C12A C13A 1_555 1_555

#END
