
#######################################################################
#
#                 Cambridge Crystallographic Data Centre
#                                CCDC 
#
#######################################################################
#
# If this CIF has been generated from an entry in the Cambridge 
# Structural Database, then it will include bibliographic, chemical, 
# crystal, experimental, refinement or atomic coordinate data resulting 
# from the CCDC's data processing and validation procedures.
#
#######################################################################

data_PUWMOK
_chemical_formula_moiety         'C18 H11 Cl2 N3 O2'
_chemical_name_systematic        
(+-)-cis-3,4-Dichloro-7-(4-(dimethylamino)phenyl)-2,5-dioxobicyclo[4.2.0]octa-3,7-diene-1,6-dicarbonitrile
_symmetry_cell_setting           monoclinic
_symmetry_space_group_name_H-M   'P 21/c'
_symmetry_Int_Tables_number      14
_space_group_name_Hall           '-P 2ybc'
loop_
_symmetry_equiv_pos_site_id
_symmetry_equiv_pos_as_xyz
1 x,y,z
2 -x,1/2+y,1/2-z
3 -x,-y,-z
4 x,1/2-y,1/2+z
_cell_length_a                   9.8079(8)
_cell_length_b                   6.6081(4)
_cell_length_c                   24.869(2)
_cell_angle_alpha                90
_cell_angle_beta                 91.339(3)
_cell_angle_gamma                90
_cell_volume                     1611.36
_exptl_crystal_colour            'dark purple'
_exptl_crystal_description       plate
_chemical_melting_point          'above 300 deg.C'
_cell_formula_units_Z            4
loop_
_atom_site_label
_atom_site_type_symbol
_atom_site_fract_x
_atom_site_fract_y
_atom_site_fract_z
Cl1 Cl 0.28361(13) -0.22371(18) 0.17776(5)
Cl2 Cl 0.42258(12) 0.20177(19) 0.20579(5)
O1 O 0.0421(3) -0.2820(4) 0.24446(12)
O2 O 0.2668(3) 0.4092(4) 0.28871(12)
N1 N -0.1191(4) -0.1646(6) 0.36350(18)
N2 N 0.0392(4) 0.3663(6) 0.39159(17)
N3 N 0.7505(4) 0.2863(6) 0.48745(16)
C1 C 0.1182(4) -0.0959(6) 0.32163(16)
C2 C 0.1223(4) -0.1612(6) 0.26308(17)
C3 C 0.2372(4) -0.0797(6) 0.23129(16)
C4 C 0.2952(4) 0.0990(6) 0.24279(17)
C5 C 0.2479(4) 0.2307(6) 0.28724(17)
C6 C 0.1836(4) 0.1199(6) 0.33459(16)
C7 C 0.2915(4) 0.0000(6) 0.36855(16)
C8 C 0.2364(5) -0.1785(6) 0.35641(17)
C9 C -0.0174(5) -0.1321(6) 0.34376(17)
C10 C 0.0994(4) 0.2571(6) 0.36582(18)
C11 C 0.4078(4) 0.0766(6) 0.39874(16)
C12 C 0.5092(5) -0.0564(7) 0.41759(18)
C13 C 0.6210(5) 0.0121(7) 0.44619(18)
C14 C 0.6398(4) 0.2187(7) 0.45785(17)
C15 C 0.5383(5) 0.3502(7) 0.43808(19)
C16 C 0.4268(4) 0.2820(6) 0.40933(18)
C17 C 0.8592(5) 0.1469(10) 0.5014(2)
C18 C 0.7868(6) 0.5009(8) 0.4850(3)
H1 H 0.369(4) 0.386(6) 0.3959(15)
H2 H 0.262(5) -0.339(8) 0.3634(18)
H3 H 0.551(4) 0.477(7) 0.4467(16)
H4 H 0.711(5) 0.585(7) 0.5007(19)
H5 H 0.491(6) -0.213(8) 0.410(2)
H6 H 0.818(6) 0.037(10) 0.522(2)
H7 H 0.693(5) -0.095(8) 0.4570(19)
H8 H 0.929(6) 0.233(8) 0.524(2)
H9 H 0.805(6) 0.537(9) 0.447(2)
H10 H 0.862(6) 0.523(10) 0.509(3)
H11 H 0.910(7) 0.112(11) 0.470(3)
loop_
_geom_bond_atom_site_label_1
_geom_bond_atom_site_label_2
_geom_bond_site_symmetry_1
_geom_bond_site_symmetry_2
Cl1 C3 1_555 1_555
Cl2 C4 1_555 1_555
O1 C2 1_555 1_555
O2 C5 1_555 1_555
N1 C9 1_555 1_555
N2 C10 1_555 1_555
N3 C14 1_555 1_555
C1 C2 1_555 1_555
C2 C3 1_555 1_555
C3 C4 1_555 1_555
C4 C5 1_555 1_555
C5 C6 1_555 1_555
C6 C1 1_555 1_555
C7 C6 1_555 1_555
C8 C1 1_555 1_555
C9 C1 1_555 1_555
C10 C6 1_555 1_555
C11 C7 1_555 1_555
C12 C11 1_555 1_555
C13 C12 1_555 1_555
C14 C13 1_555 1_555
C15 C14 1_555 1_555
C16 C11 1_555 1_555
C17 N3 1_555 1_555
C18 N3 1_555 1_555
H1 C16 1_555 1_555
H2 C8 1_555 1_555
H3 C15 1_555 1_555
H4 C18 1_555 1_555
H5 C12 1_555 1_555
H6 C17 1_555 1_555
H7 C13 1_555 1_555
H8 C17 1_555 1_555
H9 C18 1_555 1_555
H10 C18 1_555 1_555
H11 C17 1_555 1_555
C7 C8 1_555 1_555
C15 C16 1_555 1_555

#END
