
#######################################################################
#
#                 Cambridge Crystallographic Data Centre
#                                CCDC 
#
#######################################################################
#
# If this CIF has been generated from an entry in the Cambridge 
# Structural Database, then it will include bibliographic, chemical, 
# crystal, experimental, refinement or atomic coordinate data resulting 
# from the CCDC's data processing and validation procedures.
#
#######################################################################

data_PUWNIF
_chemical_formula_moiety         'C76 H78 Si2,2(C1 H1 Cl3)'
_chemical_name_systematic        
'(Buta-1,3-diyne-1,4-diylbis(pentacene-13,6-diylethyne-2,1-diyl))bis(tri-isobutylsilane) chloroform solvate'
_symmetry_cell_setting           triclinic
_symmetry_space_group_name_H-M   'P -1'
_symmetry_Int_Tables_number      2
_space_group_name_Hall           '-P 1'
loop_
_symmetry_equiv_pos_site_id
_symmetry_equiv_pos_as_xyz
1 x,y,z
2 -x,-y,-z
_cell_length_a                   10.1229(10)
_cell_length_b                   11.4926(11)
_cell_length_c                   15.3308(15)
_cell_angle_alpha                101.5627(12)
_cell_angle_beta                 91.9451(12)
_cell_angle_gamma                96.5342(12)
_cell_volume                     1733.06
_exptl_crystal_colour            blue
_exptl_crystal_description       slab
_cell_formula_units_Z            1
loop_
_atom_site_label
_atom_site_type_symbol
_atom_site_fract_x
_atom_site_fract_y
_atom_site_fract_z
Si1 Si 0.17767(8) 0.92060(6) 0.28200(5)
C1 C 0.0795(3) 0.5461(2) 0.12865(17)
C2 C 0.1550(3) 0.4947(2) 0.05815(17)
C3 C 0.2531(3) 0.5645(2) 0.02161(18)
H1 H 0.2673 0.6485 0.0440
C4 C 0.3297(3) 0.5145(3) -0.04603(18)
C5 C 0.4310(3) 0.5852(3) -0.0816(2)
H2 H 0.4460 0.6693 -0.0595
C6 C 0.5062(3) 0.5338(3) -0.1467(2)
H3 H 0.5732 0.5820 -0.1699
C7 C 0.4854(3) 0.4085(3) -0.1801(2)
H4 H 0.5393 0.3735 -0.2253
C8 C 0.3897(3) 0.3374(3) -0.1487(2)
H5 H 0.3766 0.2538 -0.1727
C9 C 0.3086(3) 0.3878(3) -0.07988(19)
C10 C 0.2111(3) 0.3179(2) -0.04499(18)
H6 H 0.1972 0.2341 -0.0681
C11 C 0.1328(3) 0.3671(2) 0.02314(17)
C12 C 0.0337(3) 0.2952(2) 0.05941(17)
C13 C -0.0464(3) 0.3485(2) 0.12696(17)
C14 C -0.1486(3) 0.2800(2) 0.16171(19)
H7 H -0.1659 0.1965 0.1379
C15 C -0.2241(3) 0.3306(3) 0.22910(19)
C16 C -0.3274(3) 0.2617(3) 0.2649(2)
H8 H -0.3459 0.1781 0.2416
C17 C -0.3987(4) 0.3137(3) 0.3312(2)
H9 H -0.4668 0.2662 0.3540
C18 C -0.3737(4) 0.4381(3) 0.3673(2)
H10 H -0.4249 0.4730 0.4142
C19 C -0.2773(3) 0.5079(3) 0.3358(2)
H11 H -0.2619 0.5913 0.3606
C20 C -0.1986(3) 0.4569(3) 0.26544(18)
C21 C -0.0995(3) 0.5256(2) 0.23144(18)
H12 H -0.0834 0.6092 0.2554
C22 C -0.0222(3) 0.4755(2) 0.16286(17)
C23 C 0.1093(3) 0.6701(2) 0.16913(18)
C24 C 0.1350(3) 0.7723(2) 0.20868(18)
C25 C 0.0253(4) 0.9575(3) 0.3459(2)
H13 H 0.0253 0.9191 0.3983
H14 H 0.0347 1.0451 0.3688
C26 C -0.1116(3) 0.9196(3) 0.2942(2)
H15 H -0.1195 0.8319 0.2683
C27 C -0.1287(5) 0.9839(4) 0.2202(3)
H16 H -0.0618 0.9645 0.1766
H17 H -0.1174 1.0704 0.2441
H18 H -0.2180 0.9592 0.1911
C28 C -0.2242(5) 0.9422(6) 0.3596(4)
H19 H -0.3109 0.9142 0.3275
H20 H -0.2190 1.0281 0.3850
H21 H -0.2136 0.8987 0.4078
C29 C 0.3133(4) 0.9083(3) 0.3645(3)
H22 H 0.3993 0.9324 0.3404
H23 H 0.3046 0.9681 0.4197
C30 C 0.3223(5) 0.7877(5) 0.3913(3)
H24 H 0.3286 0.7274 0.3352
C31 C 0.2037(7) 0.7441(5) 0.4362(4)
H25 H 0.2165 0.6673 0.4516
H26 H 0.1241 0.7338 0.3958
H27 H 0.1924 0.8027 0.4906
C32 C 0.4491(7) 0.7929(9) 0.4486(5)
H28 H 0.5255 0.8244 0.4190
H29 H 0.4608 0.7123 0.4570
H30 H 0.4429 0.8455 0.5068
C33 C 0.2341(4) 1.0336(3) 0.2149(3)
H31 H 0.1539 1.0647 0.1944
H32 H 0.2881 1.1013 0.2557
C34 C 0.3130(6) 0.9980(7) 0.1352(5)
H33 H 0.2492 0.9498 0.0865
C35 C 0.4262(9) 0.9236(9) 0.1453(8)
H34 H 0.3908 0.8497 0.1635
H35 H 0.4931 0.9697 0.1906
H36 H 0.4675 0.9036 0.0882
C36 C 0.3687(5) 1.1169(5) 0.1035(4)
H37 H 0.4208 1.0963 0.0511
H38 H 0.4257 1.1698 0.1517
H39 H 0.2941 1.1577 0.0881
C37 C 0.0172(3) 0.1692(2) 0.03052(18)
C38 C 0.0057(3) 0.0611(2) 0.01089(18)
Si1A Si -0.17767(8) -0.92060(6) -0.28200(5)
C1A C -0.0795(3) -0.5461(2) -0.12865(17)
C2A C -0.1550(3) -0.4947(2) -0.05815(17)
C3A C -0.2531(3) -0.5645(2) -0.02161(18)
H1A H -0.2673 -0.6485 -0.0440
C4A C -0.3297(3) -0.5145(3) 0.04603(18)
C5A C -0.4310(3) -0.5852(3) 0.0816(2)
H2A H -0.4460 -0.6693 0.0595
C6A C -0.5062(3) -0.5338(3) 0.1467(2)
H3A H -0.5732 -0.5820 0.1699
C7A C -0.4854(3) -0.4085(3) 0.1801(2)
H4A H -0.5393 -0.3735 0.2253
C8A C -0.3897(3) -0.3374(3) 0.1487(2)
H5A H -0.3766 -0.2538 0.1727
C9A C -0.3086(3) -0.3878(3) 0.07988(19)
C10A C -0.2111(3) -0.3179(2) 0.04499(18)
H6A H -0.1972 -0.2341 0.0681
C11A C -0.1328(3) -0.3671(2) -0.02314(17)
C12A C -0.0337(3) -0.2952(2) -0.05941(17)
C13A C 0.0464(3) -0.3485(2) -0.12696(17)
C14A C 0.1486(3) -0.2800(2) -0.16171(19)
H7A H 0.1659 -0.1965 -0.1379
C15A C 0.2241(3) -0.3306(3) -0.22910(19)
C16A C 0.3274(3) -0.2617(3) -0.2649(2)
H8A H 0.3459 -0.1781 -0.2416
C17A C 0.3987(4) -0.3137(3) -0.3312(2)
H9A H 0.4668 -0.2662 -0.3540
C18A C 0.3737(4) -0.4381(3) -0.3673(2)
H10A H 0.4249 -0.4730 -0.4142
C19A C 0.2773(3) -0.5079(3) -0.3358(2)
H11A H 0.2619 -0.5913 -0.3606
C20A C 0.1986(3) -0.4569(3) -0.26544(18)
C21A C 0.0995(3) -0.5256(2) -0.23144(18)
H12A H 0.0834 -0.6092 -0.2554
C22A C 0.0222(3) -0.4755(2) -0.16286(17)
C23A C -0.1093(3) -0.6701(2) -0.16913(18)
C24A C -0.1350(3) -0.7723(2) -0.20868(18)
C25A C -0.0253(4) -0.9575(3) -0.3459(2)
H13A H -0.0253 -0.9191 -0.3983
H14A H -0.0347 -1.0451 -0.3688
C26A C 0.1116(3) -0.9196(3) -0.2942(2)
H15A H 0.1195 -0.8319 -0.2683
C27A C 0.1287(5) -0.9839(4) -0.2202(3)
H16A H 0.0618 -0.9645 -0.1766
H17A H 0.1174 -1.0704 -0.2441
H18A H 0.2180 -0.9592 -0.1911
C28A C 0.2242(5) -0.9422(6) -0.3596(4)
H19A H 0.3109 -0.9142 -0.3275
H20A H 0.2190 -1.0281 -0.3850
H21A H 0.2136 -0.8987 -0.4078
C29A C -0.3133(4) -0.9083(3) -0.3645(3)
H22A H -0.3993 -0.9324 -0.3404
H23A H -0.3046 -0.9681 -0.4197
C30A C -0.3223(5) -0.7877(5) -0.3913(3)
H24A H -0.3286 -0.7274 -0.3352
C31A C -0.2037(7) -0.7441(5) -0.4362(4)
H25A H -0.2165 -0.6673 -0.4516
H26A H -0.1241 -0.7338 -0.3958
H27A H -0.1924 -0.8027 -0.4906
C32A C -0.4491(7) -0.7929(9) -0.4486(5)
H28A H -0.5255 -0.8244 -0.4190
H29A H -0.4608 -0.7123 -0.4570
H30A H -0.4429 -0.8455 -0.5068
C33A C -0.2341(4) -1.0336(3) -0.2149(3)
H31A H -0.1539 -1.0647 -0.1944
H32A H -0.2881 -1.1013 -0.2557
C34A C -0.3130(6) -0.9980(7) -0.1352(5)
H33A H -0.2492 -0.9498 -0.0865
C35A C -0.4262(9) -0.9236(9) -0.1453(8)
H34A H -0.3908 -0.8497 -0.1635
H35A H -0.4931 -0.9697 -0.1906
H36A H -0.4675 -0.9036 -0.0882
C36A C -0.3687(5) -1.1169(5) -0.1035(4)
H37A H -0.4208 -1.0963 -0.0511
H38A H -0.4257 -1.1698 -0.1517
H39A H -0.2941 -1.1577 -0.0881
C37A C -0.0172(3) -0.1692(2) -0.03052(18)
C38A C -0.0057(3) -0.0611(2) -0.01089(18)
Cl1 Cl 0.2683(3) 0.2743(4) 0.44746(19)
Cl2 Cl 0.2159(5) 0.4077(6) 0.3140(3)
Cl3 Cl 0.0077(4) 0.3287(5) 0.4103(5)
C39 C 0.1715(8) 0.3769(11) 0.4161(7)
H40 H 0.1886 0.4531 0.4620
C40? C 0.1846(10) 0.3866(15) 0.4219(11)
C41? C 0.3611(9) 1.0339(8) 0.1741(7)
C42? C 0.3772(16) 0.9174(12) 0.1079(10)
Cl4? Cl 0.2418(8) 0.2631(7) 0.4513(5)
Cl5? Cl 0.2587(6) 0.4256(7) 0.3302(5)
Cl6? Cl 0.0165(5) 0.3696(7) 0.4109(5)
H41? H 0.2109 0.4552 0.4732
H42? H 0.2333 1.1133 0.2540
H43? H 0.1648 1.0266 0.1664
H44? H 0.4373 1.0571 0.2198
H45? H 0.3738 0.8511 0.1396
H46? H 0.4630 0.9260 0.0807
H47? H 0.3049 0.9007 0.0613
H48? H 0.3577 1.1992 0.1318
H49? H 0.4563 1.1153 0.0782
H50? H 0.2989 1.0865 0.0559
loop_
_geom_bond_atom_site_label_1
_geom_bond_atom_site_label_2
_geom_bond_site_symmetry_1
_geom_bond_site_symmetry_2
Si1 C24 1_555 1_555
C1 C2 1_555 1_555
C2 C3 1_555 1_555
C3 H1 1_555 1_555
C4 C3 1_555 1_555
C5 C4 1_555 1_555
H2 C5 1_555 1_555
C6 C5 1_555 1_555
H3 C6 1_555 1_555
C7 C6 1_555 1_555
H4 C7 1_555 1_555
C8 C7 1_555 1_555
H5 C8 1_555 1_555
C9 C4 1_555 1_555
C10 C9 1_555 1_555
H6 C10 1_555 1_555
C11 C2 1_555 1_555
C12 C11 1_555 1_555
C13 C12 1_555 1_555
C14 C13 1_555 1_555
H7 C14 1_555 1_555
C15 C14 1_555 1_555
C16 C15 1_555 1_555
H8 C16 1_555 1_555
C17 C16 1_555 1_555
H9 C17 1_555 1_555
C18 C17 1_555 1_555
H10 C18 1_555 1_555
C19 C18 1_555 1_555
H11 C19 1_555 1_555
C20 C15 1_555 1_555
C21 C20 1_555 1_555
H12 C21 1_555 1_555
C22 C1 1_555 1_555
C23 C1 1_555 1_555
C24 C23 1_555 1_555
C25 Si1 1_555 1_555
H13 C25 1_555 1_555
H14 C25 1_555 1_555
C26 C25 1_555 1_555
H15 C26 1_555 1_555
C27 C26 1_555 1_555
H16 C27 1_555 1_555
H17 C27 1_555 1_555
H18 C27 1_555 1_555
C28 C26 1_555 1_555
H19 C28 1_555 1_555
H20 C28 1_555 1_555
H21 C28 1_555 1_555
C29 Si1 1_555 1_555
H22 C29 1_555 1_555
H23 C29 1_555 1_555
C30 C29 1_555 1_555
H24 C30 1_555 1_555
C31 C30 1_555 1_555
H25 C31 1_555 1_555
H26 C31 1_555 1_555
H27 C31 1_555 1_555
C32 C30 1_555 1_555
H28 C32 1_555 1_555
H29 C32 1_555 1_555
H30 C32 1_555 1_555
C33 Si1 1_555 1_555
H31 C33 1_555 1_555
H32 C33 1_555 1_555
C34 C33 1_555 1_555
H33 C34 1_555 1_555
C35 C34 1_555 1_555
H34 C35 1_555 1_555
H35 C35 1_555 1_555
H36 C35 1_555 1_555
C36 C34 1_555 1_555
H37 C36 1_555 1_555
H38 C36 1_555 1_555
H39 C36 1_555 1_555
C37 C12 1_555 1_555
C38 C37 1_555 1_555
Cl1 C39 1_555 1_555
Cl2 C39 1_555 1_555
Cl3 C39 1_555 1_555
C39 H40 1_555 1_555
Si1A C24A 1_555 1_555
C1A C2A 1_555 1_555
C2A C3A 1_555 1_555
C3A H1A 1_555 1_555
C4A C3A 1_555 1_555
C5A C4A 1_555 1_555
H2A C5A 1_555 1_555
C6A C5A 1_555 1_555
H3A C6A 1_555 1_555
C7A C6A 1_555 1_555
H4A C7A 1_555 1_555
C8A C7A 1_555 1_555
H5A C8A 1_555 1_555
C9A C4A 1_555 1_555
C10A C9A 1_555 1_555
H6A C10A 1_555 1_555
C11A C2A 1_555 1_555
C12A C11A 1_555 1_555
C13A C12A 1_555 1_555
C14A C13A 1_555 1_555
H7A C14A 1_555 1_555
C15A C14A 1_555 1_555
C16A C15A 1_555 1_555
H8A C16A 1_555 1_555
C17A C16A 1_555 1_555
H9A C17A 1_555 1_555
C18A C17A 1_555 1_555
H10A C18A 1_555 1_555
C19A C18A 1_555 1_555
H11A C19A 1_555 1_555
C20A C15A 1_555 1_555
C21A C20A 1_555 1_555
H12A C21A 1_555 1_555
C22A C1A 1_555 1_555
C23A C1A 1_555 1_555
C24A C23A 1_555 1_555
C25A Si1A 1_555 1_555
H13A C25A 1_555 1_555
H14A C25A 1_555 1_555
C26A C25A 1_555 1_555
H15A C26A 1_555 1_555
C27A C26A 1_555 1_555
H16A C27A 1_555 1_555
H17A C27A 1_555 1_555
H18A C27A 1_555 1_555
C28A C26A 1_555 1_555
H19A C28A 1_555 1_555
H20A C28A 1_555 1_555
H21A C28A 1_555 1_555
C29A Si1A 1_555 1_555
H22A C29A 1_555 1_555
H23A C29A 1_555 1_555
C30A C29A 1_555 1_555
H24A C30A 1_555 1_555
C31A C30A 1_555 1_555
H25A C31A 1_555 1_555
H26A C31A 1_555 1_555
H27A C31A 1_555 1_555
C32A C30A 1_555 1_555
H28A C32A 1_555 1_555
H29A C32A 1_555 1_555
H30A C32A 1_555 1_555
C33A Si1A 1_555 1_555
H31A C33A 1_555 1_555
H32A C33A 1_555 1_555
C34A C33A 1_555 1_555
H33A C34A 1_555 1_555
C35A C34A 1_555 1_555
H34A C35A 1_555 1_555
H35A C35A 1_555 1_555
H36A C35A 1_555 1_555
C36A C34A 1_555 1_555
H37A C36A 1_555 1_555
H38A C36A 1_555 1_555
H39A C36A 1_555 1_555
C37A C12A 1_555 1_555
C38A C38 1_555 1_555
C8 C9 1_555 1_555
C10 C11 1_555 1_555
C13 C22 1_555 1_555
C19 C20 1_555 1_555
C21 C22 1_555 1_555
C8A C9A 1_555 1_555
C10A C11A 1_555 1_555
C13A C22A 1_555 1_555
C19A C20A 1_555 1_555
C21A C22A 1_555 1_555
C37A C38A 1_555 1_555

#END
