
#######################################################################
#
#                 Cambridge Crystallographic Data Centre
#                                CCDC 
#
#######################################################################
#
# If this CIF has been generated from an entry in the Cambridge 
# Structural Database, then it will include bibliographic, chemical, 
# crystal, experimental, refinement or atomic coordinate data resulting 
# from the CCDC's data processing and validation procedures.
#
#######################################################################

data_PUWNUR
_chemical_formula_moiety         'C43 H54 O2 Si2'
_chemical_name_systematic        
((6,13-Dimethoxy-13-((triisobutylsilyl)ethynyl)-6,13-dihydropentacen-6-yl)ethynyl)(trimethyl)silane
_symmetry_cell_setting           monoclinic
_symmetry_space_group_name_H-M   'P 21/n'
_symmetry_Int_Tables_number      14
_space_group_name_Hall           '-P 2yn'
loop_
_symmetry_equiv_pos_site_id
_symmetry_equiv_pos_as_xyz
1 x,y,z
2 1/2-x,1/2+y,1/2-z
3 -x,-y,-z
4 1/2+x,1/2-y,1/2+z
_cell_length_a                   15.0416(5)
_cell_length_b                   9.0311(3)
_cell_length_c                   29.3069(9)
_cell_angle_alpha                90
_cell_angle_beta                 94.9851(4)
_cell_angle_gamma                90
_cell_volume                     3966.05
_exptl_crystal_colour            colorless
_exptl_crystal_description       prism
_chemical_melting_point          '150-152 deg.C'
_cell_formula_units_Z            4
_exptl_crystal_recrystallization_method dichloromethane/methanol
loop_
_atom_site_label
_atom_site_type_symbol
_atom_site_fract_x
_atom_site_fract_y
_atom_site_fract_z
Si1 Si 0.47023(3) 0.18966(5) 0.221066(15)
Si2 Si 0.15972(4) 0.14309(6) -0.090026(19)
O1 O 0.29693(7) 0.19381(12) 0.06400(4)
O2 O 0.12067(7) 0.59533(13) 0.00754(4)
C1 C 0.29110(10) 0.31701(16) 0.09540(5)
C2 C 0.19376(10) 0.34282(16) 0.10388(5)
C3 C 0.15916(10) 0.29057(17) 0.14252(5)
H1 H 0.1980 0.2478 0.1662
C4 C 0.06656(10) 0.29907(18) 0.14789(5)
C5 C 0.02944(12) 0.2448(2) 0.18745(6)
H2 H 0.0673 0.2039 0.2119
C6 C -0.06042(12) 0.2509(2) 0.19067(6)
H3 H -0.0847 0.2140 0.2173
C7 C -0.11741(12) 0.3115(2) 0.15498(7)
H4 H -0.1799 0.3142 0.1576
C8 C -0.08406(11) 0.3664(2) 0.11661(6)
H5 H -0.1233 0.4081 0.0929
C9 C 0.00907(10) 0.36143(18) 0.11198(5)
C10 C 0.04638(10) 0.41644(19) 0.07269(5)
H6 H 0.0083 0.4590 0.0486
C11 C 0.13636(10) 0.40945(17) 0.06869(5)
C12 C 0.17372(9) 0.47312(17) 0.02576(5)
C13 C 0.27195(9) 0.51784(16) 0.03486(5)
C14 C 0.30641(10) 0.62464(17) 0.00827(5)
H7 H 0.2682 0.6726 -0.0147
C15 C 0.39754(10) 0.66523(17) 0.01413(5)
C16 C 0.43523(11) 0.77377(19) -0.01354(6)
H8 H 0.3979 0.8257 -0.0360
C17 C 0.52423(12) 0.80424(19) -0.00825(6)
H9 H 0.5483 0.8773 -0.0270
C18 C 0.58085(11) 0.72866(19) 0.02468(6)
H10 H 0.6430 0.7494 0.0276
C19 C 0.54659(10) 0.62551(18) 0.05245(6)
H11 H 0.5851 0.5761 0.0749
C20 C 0.45412(10) 0.59122(17) 0.04813(5)
C21 C 0.41684(10) 0.48264(17) 0.07533(5)
H12 H 0.4542 0.4338 0.0984
C22 C 0.32828(9) 0.44560(16) 0.06935(5)
C23 C 0.34702(10) 0.28537(17) 0.13844(5)
C24 C 0.39522(10) 0.25333(18) 0.17166(5)
C25 C 0.52606(14) 0.0144(2) 0.20452(7)
H13 H 0.5834 0.0410 0.1924
H14 H 0.5403 -0.0449 0.2326
C26 C 0.47350(15) -0.0842(2) 0.16904(6)
H15 H 0.4084 -0.0713 0.1725
C27 C 0.49099(19) -0.0389(3) 0.12034(7)
H16 H 0.4762 0.0660 0.1157
H17 H 0.4539 -0.0989 0.0983
H18 H 0.5541 -0.0547 0.1159
C28 C 0.4968(2) -0.2468(3) 0.17638(8)
H19 H 0.4853 -0.2759 0.2075
H20 H 0.5600 -0.2622 0.1721
H21 H 0.4601 -0.3071 0.1542
C29 C 0.55521(12) 0.3371(2) 0.23877(6)
H22 H 0.5242 0.4338 0.2363
H23 H 0.5744 0.3214 0.2716
C30 C 0.63954(13) 0.3504(2) 0.21337(7)
H24 H 0.6726 0.2546 0.2174
C31 C 0.61824(13) 0.3739(3) 0.16250(7)
H25 H 0.6739 0.3783 0.1475
H26 H 0.5854 0.4669 0.1573
H27 H 0.5816 0.2915 0.1498
C32 C 0.70113(14) 0.4716(3) 0.23326(8)
H28 H 0.7137 0.4558 0.2663
H29 H 0.6724 0.5681 0.2279
H30 H 0.7571 0.4691 0.2185
C33 C 0.39967(12) 0.1446(2) 0.26913(6)
H31 H 0.3796 0.0408 0.2648
H32 H 0.4394 0.1474 0.2979
C34 C 0.31597(19) 0.2386(3) 0.27712(10)
H33 H 0.2739 0.2320 0.2488
C35 C 0.2676(3) 0.1792(5) 0.31719(14)
H34 H 0.2522 0.0749 0.3117
H35 H 0.2131 0.2366 0.3199
H36 H 0.3067 0.1881 0.3456
C36 C 0.3403(2) 0.4006(4) 0.28477(14)
H37 H 0.3706 0.4374 0.2587
H38 H 0.3801 0.4105 0.3129
H39 H 0.2860 0.4585 0.2876
C37 C 0.16520(10) 0.36195(18) -0.01135(5)
C38 C 0.15907(11) 0.2740(2) -0.04219(6)
C39 C 0.2171(3) 0.2388(4) -0.13604(9)
H40 H 0.1811 0.3233 -0.1477
H41 H 0.2245 0.1693 -0.1611
H42 H 0.2758 0.2739 -0.1234
C40 C 0.22502(19) -0.0205(3) -0.06942(11)
H43 H 0.1937 -0.0721 -0.0461
H44 H 0.2839 0.0112 -0.0560
H45 H 0.2322 -0.0876 -0.0951
C41 C 0.04512(17) 0.0936(4) -0.11108(12)
H46 H 0.0133 0.1824 -0.1227
H47 H 0.0144 0.0511 -0.0860
H48 H 0.0464 0.0207 -0.1358
C42 C 0.25829(13) 0.05839(19) 0.07730(7)
H49 H 0.2651 -0.0169 0.0538
H50 H 0.1947 0.0736 0.0808
H51 H 0.2884 0.0252 0.1065
C43 C 0.11497(12) 0.7192(2) 0.03730(7)
H52 H 0.0779 0.7962 0.0217
H53 H 0.1749 0.7585 0.0456
H54 H 0.0882 0.6880 0.0651
C44? C 0.3650(5) 0.2768(8) 0.2946(2)
C45? C 0.3208(8) 0.2164(11) 0.3356(3)
C46? C 0.3014(7) 0.3729(12) 0.2654(3)
H55? H 0.3478 0.0854 0.2565
H56? H 0.4352 0.0815 0.2915
H57? H 0.4172 0.3388 0.3062
H58? H 0.3629 0.1525 0.3538
H59? H 0.2678 0.1589 0.3249
H60? H 0.3032 0.2989 0.3546
H61? H 0.2821 0.4558 0.2837
H62? H 0.2493 0.3143 0.2540
H63? H 0.3313 0.4112 0.2394
loop_
_geom_bond_atom_site_label_1
_geom_bond_atom_site_label_2
_geom_bond_site_symmetry_1
_geom_bond_site_symmetry_2
Si1 C24 1_555 1_555
Si2 C38 1_555 1_555
O1 C1 1_555 1_555
O2 C12 1_555 1_555
C1 C2 1_555 1_555
C2 C3 1_555 1_555
C3 H1 1_555 1_555
C4 C3 1_555 1_555
C5 C4 1_555 1_555
H2 C5 1_555 1_555
C6 C5 1_555 1_555
H3 C6 1_555 1_555
C7 C6 1_555 1_555
H4 C7 1_555 1_555
C8 C7 1_555 1_555
H5 C8 1_555 1_555
C9 C4 1_555 1_555
C10 C9 1_555 1_555
H6 C10 1_555 1_555
C11 C2 1_555 1_555
C12 C11 1_555 1_555
C13 C12 1_555 1_555
C14 C13 1_555 1_555
H7 C14 1_555 1_555
C15 C14 1_555 1_555
C16 C15 1_555 1_555
H8 C16 1_555 1_555
C17 C16 1_555 1_555
H9 C17 1_555 1_555
C18 C17 1_555 1_555
H10 C18 1_555 1_555
C19 C18 1_555 1_555
H11 C19 1_555 1_555
C20 C15 1_555 1_555
C21 C20 1_555 1_555
H12 C21 1_555 1_555
C22 C1 1_555 1_555
C23 C1 1_555 1_555
C24 C23 1_555 1_555
C25 Si1 1_555 1_555
H13 C25 1_555 1_555
H14 C25 1_555 1_555
C26 C25 1_555 1_555
H15 C26 1_555 1_555
C27 C26 1_555 1_555
H16 C27 1_555 1_555
H17 C27 1_555 1_555
H18 C27 1_555 1_555
C28 C26 1_555 1_555
H19 C28 1_555 1_555
H20 C28 1_555 1_555
H21 C28 1_555 1_555
C29 Si1 1_555 1_555
H22 C29 1_555 1_555
H23 C29 1_555 1_555
C30 C29 1_555 1_555
H24 C30 1_555 1_555
C31 C30 1_555 1_555
H25 C31 1_555 1_555
H26 C31 1_555 1_555
H27 C31 1_555 1_555
C32 C30 1_555 1_555
H28 C32 1_555 1_555
H29 C32 1_555 1_555
H30 C32 1_555 1_555
C33 Si1 1_555 1_555
H31 C33 1_555 1_555
H32 C33 1_555 1_555
C34 C33 1_555 1_555
H33 C34 1_555 1_555
C35 C34 1_555 1_555
H34 C35 1_555 1_555
H35 C35 1_555 1_555
H36 C35 1_555 1_555
C36 C34 1_555 1_555
H37 C36 1_555 1_555
H38 C36 1_555 1_555
H39 C36 1_555 1_555
C37 C12 1_555 1_555
C38 C37 1_555 1_555
C39 Si2 1_555 1_555
H40 C39 1_555 1_555
H41 C39 1_555 1_555
H42 C39 1_555 1_555
C40 Si2 1_555 1_555
H43 C40 1_555 1_555
H44 C40 1_555 1_555
H45 C40 1_555 1_555
C41 Si2 1_555 1_555
H46 C41 1_555 1_555
H47 C41 1_555 1_555
H48 C41 1_555 1_555
C42 O1 1_555 1_555
H49 C42 1_555 1_555
H50 C42 1_555 1_555
H51 C42 1_555 1_555
C43 O2 1_555 1_555
H52 C43 1_555 1_555
H53 C43 1_555 1_555
H54 C43 1_555 1_555
C8 C9 1_555 1_555
C10 C11 1_555 1_555
C13 C22 1_555 1_555
C19 C20 1_555 1_555
C21 C22 1_555 1_555

#END
