
#######################################################################
#
#                 Cambridge Crystallographic Data Centre
#                                CCDC 
#
#######################################################################
#
# If this CIF has been generated from an entry in the Cambridge 
# Structural Database, then it will include bibliographic, chemical, 
# crystal, experimental, refinement or atomic coordinate data resulting 
# from the CCDC's data processing and validation procedures.
#
#######################################################################

data_PUWNAX
_chemical_formula_moiety         'C19 H13 Cl2 N3 O2'
_chemical_name_systematic        
(+-)-cis-3,4-Dichloro-7-(4-(dimethylamino)phenyl)-8-methyl-2,5-dioxobicyclo(4.2.0)octa-3,7-diene-1,6-dicarbonitrile
_symmetry_cell_setting           triclinic
_symmetry_space_group_name_H-M   'P -1'
_symmetry_Int_Tables_number      2
_space_group_name_Hall           '-P 1'
loop_
_symmetry_equiv_pos_site_id
_symmetry_equiv_pos_as_xyz
1 x,y,z
2 -x,-y,-z
_cell_length_a                   7.9126(4)
_cell_length_b                   9.9944(4)
_cell_length_c                   12.5169(6)
_cell_angle_alpha                67.271(2)
_cell_angle_beta                 89.819(2)
_cell_angle_gamma                74.827(2)
_cell_volume                     875.809
_exptl_crystal_colour            'deep purple'
_exptl_crystal_description       plate
_chemical_melting_point          'above 300 deg.C.(dec.)'
_cell_formula_units_Z            2
loop_
_atom_site_label
_atom_site_type_symbol
_atom_site_fract_x
_atom_site_fract_y
_atom_site_fract_z
Cl1 Cl 0.30382(7) 0.12078(6) 0.93436(5)
Cl2 Cl 0.16790(8) -0.12456(7) 1.13536(5)
O1 O 0.4811(2) -0.0112(2) 0.77729(15)
O2 O 0.1871(3) -0.3891(2) 1.08811(15)
N1 N 0.5443(3) -0.2974(3) 0.6770(2)
N2 N 0.3830(3) -0.5921(2) 0.9333(2)
N3 N -0.1557(3) 0.4639(2) 0.3748(2)
C1 C 0.3149(3) -0.1849(2) 0.79300(19)
C2 C 0.3779(3) -0.0752(2) 0.82960(19)
C3 C 0.2971(3) -0.0461(2) 0.9286(2)
C4 C 0.2350(3) -0.1469(2) 1.01166(19)
C5 C 0.2242(3) -0.2919(2) 1.00700(19)
C6 C 0.2420(3) -0.3063(2) 0.88983(19)
C7 C 0.4451(3) -0.2478(3) 0.7285(2)
C8 C 0.3229(3) -0.4667(3) 0.9125(2)
C9 C 0.0653(3) -0.2280(2) 0.81314(19)
C10 C -0.1032(3) -0.2661(3) 0.8350(2)
C11 C 0.1233(3) -0.1176(3) 0.73351(19)
C12 C 0.0500(3) 0.0248(3) 0.63586(19)
C13 C 0.1598(3) 0.1030(3) 0.5639(2)
C14 C 0.0928(3) 0.2453(3) 0.4769(2)
C15 C -0.0896(3) 0.3198(3) 0.4574(2)
C16 C -0.2004(3) 0.2391(3) 0.5268(2)
C17 C -0.1324(3) 0.0960(3) 0.6126(2)
C18 C -0.0339(4) 0.5506(3) 0.3193(3)
C19 C -0.3350(4) 0.5514(3) 0.3748(3)
H1 H -0.326(3) 0.283(3) 0.513(2)
H2 H 0.289(3) 0.049(3) 0.580(2)
H3 H -0.214(4) 0.043(3) 0.663(2)
H4 H -0.091(5) -0.369(5) 0.865(3)
H5 H 0.171(4) 0.297(3) 0.431(2)
H6 H -0.427(5) 0.504(4) 0.365(3)
H7 H -0.107(5) 0.655(5) 0.262(4)
H8 H 0.036(5) 0.578(4) 0.369(3)
H9 H -0.359(5) 0.648(5) 0.308(3)
H10 H -0.353(4) 0.559(4) 0.449(3)
H11 H -0.179(5) -0.223(5) 0.765(4)
H12 H -0.153(5) -0.229(4) 0.889(3)
H13 H 0.059(5) 0.496(4) 0.281(3)
loop_
_geom_bond_atom_site_label_1
_geom_bond_atom_site_label_2
_geom_bond_site_symmetry_1
_geom_bond_site_symmetry_2
Cl1 C3 1_555 1_555
Cl2 C4 1_555 1_555
O1 C2 1_555 1_555
O2 C5 1_555 1_555
N1 C7 1_555 1_555
N2 C8 1_555 1_555
N3 C15 1_555 1_555
C1 C2 1_555 1_555
C2 C3 1_555 1_555
C3 C4 1_555 1_555
C4 C5 1_555 1_555
C5 C6 1_555 1_555
C6 C1 1_555 1_555
C7 C1 1_555 1_555
C8 C6 1_555 1_555
C9 C6 1_555 1_555
C10 C9 1_555 1_555
C11 C1 1_555 1_555
C12 C11 1_555 1_555
C13 C12 1_555 1_555
C14 C13 1_555 1_555
C15 C14 1_555 1_555
C16 C15 1_555 1_555
C17 C12 1_555 1_555
C18 N3 1_555 1_555
C19 N3 1_555 1_555
H1 C16 1_555 1_555
H2 C13 1_555 1_555
H3 C17 1_555 1_555
H4 C10 1_555 1_555
H5 C14 1_555 1_555
H6 C19 1_555 1_555
H7 C18 1_555 1_555
H8 C18 1_555 1_555
H9 C19 1_555 1_555
H10 C19 1_555 1_555
H11 C10 1_555 1_555
H12 C10 1_555 1_555
H13 C18 1_555 1_555
C9 C11 1_555 1_555
C16 C17 1_555 1_555

#END
