
#######################################################################
#
#                 Cambridge Crystallographic Data Centre
#                                CCDC 
#
#######################################################################
#
# If this CIF has been generated from an entry in the Cambridge 
# Structural Database, then it will include bibliographic, chemical, 
# crystal, experimental, refinement or atomic coordinate data resulting 
# from the CCDC's data processing and validation procedures.
#
#######################################################################

data_PUWPAZ
_chemical_formula_moiety         'C37 H40 O2 Si1'
_chemical_name_systematic        
((13-Ethynyl-6,13-dimethoxy-6,13-dihydropentacen-6-yl)ethynyl)(tri-isopropyl)silane
_symmetry_cell_setting           triclinic
_symmetry_space_group_name_H-M   'P -1'
_symmetry_Int_Tables_number      2
_space_group_name_Hall           '-P 1'
loop_
_symmetry_equiv_pos_site_id
_symmetry_equiv_pos_as_xyz
1 x,y,z
2 -x,-y,-z
_cell_length_a                   10.5928(5)
_cell_length_b                   10.6887(5)
_cell_length_c                   14.8316(6)
_cell_angle_alpha                72.8209(5)
_cell_angle_beta                 80.8655(5)
_cell_angle_gamma                79.0299(5)
_cell_volume                     1565.6
_exptl_crystal_colour            colorless
_exptl_crystal_description       prism
_cell_formula_units_Z            2
_exptl_crystal_recrystallization_method dichloromethane/methanol
loop_
_atom_site_label
_atom_site_type_symbol
_atom_site_fract_x
_atom_site_fract_y
_atom_site_fract_z
Si1 Si 0.09375(4) -0.25779(4) 0.32543(3)
O1 O 0.07335(9) 0.24216(9) 0.13735(7)
O2 O 0.46004(10) 0.36964(10) -0.04806(7)
C1 C 0.18762(13) 0.14154(13) 0.14474(9)
C2 C 0.29410(13) 0.18812(13) 0.17937(10)
C3 C 0.31838(14) 0.14544(13) 0.27279(10)
H1 H 0.2742 0.0783 0.3157
C4 C 0.40779(14) 0.19936(14) 0.30644(10)
C5 C 0.43573(15) 0.15546(15) 0.40247(11)
H2 H 0.3931 0.0882 0.4467
C6 C 0.52379(16) 0.20978(16) 0.43144(12)
H3 H 0.5422 0.1795 0.4956
C7 C 0.58733(16) 0.31008(17) 0.36697(12)
H4 H 0.6484 0.3467 0.3881
C8 C 0.56210(15) 0.35523(16) 0.27453(12)
H5 H 0.6052 0.4233 0.2317
C9 C 0.47151(14) 0.30070(14) 0.24208(10)
C10 C 0.44617(14) 0.34277(14) 0.14589(10)
H6 H 0.4884 0.4110 0.1025
C11 C 0.36183(13) 0.28666(13) 0.11443(10)
C12 C 0.34429(13) 0.32919(13) 0.00866(10)
C13 C 0.30290(13) 0.21885(13) -0.02110(10)
C14 C 0.33905(14) 0.20789(15) -0.11150(10)
H7 H 0.3899 0.2688 -0.1547
C15 C 0.30238(14) 0.10780(15) -0.14230(10)
C16 C 0.34505(15) 0.08971(18) -0.23391(12)
H8 H 0.4013 0.1452 -0.2768
C17 C 0.30543(16) -0.00719(18) -0.26058(12)
H9 H 0.3355 -0.0194 -0.3217
C18 C 0.22091(16) -0.08888(17) -0.19877(13)
H10 H 0.1928 -0.1545 -0.2190
C19 C 0.17887(16) -0.07498(15) -0.11020(12)
H11 H 0.1216 -0.1308 -0.0690
C20 C 0.22018(14) 0.02260(14) -0.07891(10)
C21 C 0.18425(14) 0.03584(13) 0.01399(10)
H12 H 0.1297 -0.0215 0.0570
C22 C 0.22607(13) 0.12948(13) 0.04386(9)
C23 C 0.15469(13) 0.01435(13) 0.20923(10)
C24 C 0.12856(14) -0.09074(13) 0.25786(10)
C25 C 0.02484(15) -0.24944(16) 0.44896(10)
H13 H 0.0124 -0.3413 0.4872
C26 C -0.10665(17) -0.16238(19) 0.45154(13)
H14 H -0.1386 -0.1626 0.5173
H15 H -0.1677 -0.1969 0.4254
H16 H -0.0983 -0.0716 0.4136
C27 C 0.1171(2) -0.2032(3) 0.49719(14)
H17 H 0.0784 -0.2016 0.5615
H18 H 0.1332 -0.1141 0.4604
H19 H 0.1990 -0.2643 0.5006
C28 C 0.25125(15) -0.37493(15) 0.32379(11)
H20 H 0.2643 -0.3954 0.2611
C29 C 0.2425(2) -0.50687(19) 0.39921(17)
H21 H 0.3254 -0.5656 0.3964
H22 H 0.1741 -0.5483 0.3874
H23 H 0.2225 -0.4914 0.4622
C30 C 0.37061(18) -0.3182(2) 0.32893(16)
H24 H 0.4475 -0.3851 0.3268
H25 H 0.3612 -0.2930 0.3883
H26 H 0.3798 -0.2399 0.2750
C31 C -0.02798(15) -0.29693(15) 0.26196(11)
H27 H -0.0960 -0.2169 0.2496
C32 C 0.02893(18) -0.31598(17) 0.16453(12)
H28 H -0.0382 -0.3351 0.1343
H29 H 0.1005 -0.3901 0.1723
H30 H 0.0609 -0.2350 0.1247
C33 C -0.0985(2) -0.4130(2) 0.31917(14)
H31 H -0.1598 -0.4259 0.2809
H32 H -0.1454 -0.3936 0.3772
H33 H -0.0353 -0.4937 0.3360
C34 C 0.24439(15) 0.44801(14) -0.01239(10)
C35 C 0.16139(17) 0.54010(15) -0.02807(11)
H34 H 0.0947 0.6141 -0.0407
C36 C 0.02566(16) 0.27992(17) 0.22215(12)
H35 H -0.0512 0.3475 0.2111
H36 H 0.0925 0.3160 0.2411
H37 H 0.0029 0.2023 0.2727
C37 C 0.57339(15) 0.27123(17) -0.03796(12)
H38 H 0.6467 0.3084 -0.0794
H39 H 0.5583 0.1945 -0.0558
H40 H 0.5926 0.2435 0.0282
loop_
_geom_bond_atom_site_label_1
_geom_bond_atom_site_label_2
_geom_bond_site_symmetry_1
_geom_bond_site_symmetry_2
Si1 C24 1_555 1_555
O1 C1 1_555 1_555
O2 C12 1_555 1_555
C1 C2 1_555 1_555
C2 C3 1_555 1_555
C3 H1 1_555 1_555
C4 C3 1_555 1_555
C5 C4 1_555 1_555
H2 C5 1_555 1_555
C6 C5 1_555 1_555
H3 C6 1_555 1_555
C7 C6 1_555 1_555
H4 C7 1_555 1_555
C8 C7 1_555 1_555
H5 C8 1_555 1_555
C9 C4 1_555 1_555
C10 C9 1_555 1_555
H6 C10 1_555 1_555
C11 C2 1_555 1_555
C12 C11 1_555 1_555
C13 C12 1_555 1_555
C14 C13 1_555 1_555
H7 C14 1_555 1_555
C15 C14 1_555 1_555
C16 C15 1_555 1_555
H8 C16 1_555 1_555
C17 C16 1_555 1_555
H9 C17 1_555 1_555
C18 C17 1_555 1_555
H10 C18 1_555 1_555
C19 C18 1_555 1_555
H11 C19 1_555 1_555
C20 C15 1_555 1_555
C21 C20 1_555 1_555
H12 C21 1_555 1_555
C22 C1 1_555 1_555
C23 C1 1_555 1_555
C24 C23 1_555 1_555
C25 Si1 1_555 1_555
H13 C25 1_555 1_555
C26 C25 1_555 1_555
H14 C26 1_555 1_555
H15 C26 1_555 1_555
H16 C26 1_555 1_555
C27 C25 1_555 1_555
H17 C27 1_555 1_555
H18 C27 1_555 1_555
H19 C27 1_555 1_555
C28 Si1 1_555 1_555
H20 C28 1_555 1_555
C29 C28 1_555 1_555
H21 C29 1_555 1_555
H22 C29 1_555 1_555
H23 C29 1_555 1_555
C30 C28 1_555 1_555
H24 C30 1_555 1_555
H25 C30 1_555 1_555
H26 C30 1_555 1_555
C31 Si1 1_555 1_555
H27 C31 1_555 1_555
C32 C31 1_555 1_555
H28 C32 1_555 1_555
H29 C32 1_555 1_555
H30 C32 1_555 1_555
C33 C31 1_555 1_555
H31 C33 1_555 1_555
H32 C33 1_555 1_555
H33 C33 1_555 1_555
C34 C12 1_555 1_555
C35 C34 1_555 1_555
H34 C35 1_555 1_555
C36 O1 1_555 1_555
H35 C36 1_555 1_555
H36 C36 1_555 1_555
H37 C36 1_555 1_555
C37 O2 1_555 1_555
H38 C37 1_555 1_555
H39 C37 1_555 1_555
H40 C37 1_555 1_555
C8 C9 1_555 1_555
C10 C11 1_555 1_555
C13 C22 1_555 1_555
C19 C20 1_555 1_555
C21 C22 1_555 1_555

#END
