
#######################################################################
#
#                 Cambridge Crystallographic Data Centre
#                                CCDC 
#
#######################################################################
#
# If this CIF has been generated from an entry in the Cambridge 
# Structural Database, then it will include bibliographic, chemical, 
# crystal, experimental, refinement or atomic coordinate data resulting 
# from the CCDC's data processing and validation procedures.
#
#######################################################################

data_PUXGEW
_chemical_formula_moiety         'C28 H22 Br1 Cl2 N1 O10 S1'
_chemical_name_systematic        
9-((((3-bromophenyl)sulfonyl)oxy)imino)-5-(2,6-dichloro-3,4,5-trimethoxyphenyl)-5,8,8a,9-tetrahydrofuro[3',4':6,7]naphtho[2,3-d][1,3]dioxol-6(5aH)-one
_chemical_properties_biological  'insecticidal activity'
_symmetry_cell_setting           orthorhombic
_symmetry_space_group_name_H-M   'P 21 21 21'
_symmetry_Int_Tables_number      19
_space_group_name_Hall           'P 2ac 2ab'
loop_
_symmetry_equiv_pos_site_id
_symmetry_equiv_pos_as_xyz
1 x,y,z
2 1/2-x,-y,1/2+z
3 1/2+x,1/2-y,-z
4 -x,1/2+y,1/2-z
_cell_length_a                   8.2093(3)
_cell_length_b                   12.3125(4)
_cell_length_c                   29.7541(12)
_cell_angle_alpha                90
_cell_angle_beta                 90
_cell_angle_gamma                90
_cell_volume                     3007.46
_exptl_crystal_colour            colorless
_exptl_crystal_description       block
_cell_formula_units_Z            4
loop_
_atom_site_label
_atom_site_type_symbol
_atom_site_fract_x
_atom_site_fract_y
_atom_site_fract_z
Br1 Br 0.05283(9) 0.40267(5) 0.18463(3)
Cl1 Cl -0.64614(15) -0.15303(12) -0.08544(5)
Cl2 Cl -0.03244(14) 0.00899(11) -0.06743(5)
S1 S -0.32009(15) 0.03063(12) 0.18416(5)
O1 O -0.4536(4) -0.2504(3) 0.03659(13)
O2 O -0.3372(5) -0.3018(3) -0.02717(13)
O3 O -0.3664(5) 0.3457(3) -0.07059(14)
O4 O -0.2908(5) 0.4024(3) 0.00032(15)
O5 O -0.3354(4) -0.0183(3) 0.13408(12)
O6 O -0.3177(4) -0.0647(3) 0.21087(12)
O7 O -0.4402(4) 0.1123(3) 0.19080(12)
O8 O -0.5160(4) -0.2421(3) -0.16813(13)
O9 O -0.2232(4) -0.1885(3) -0.20701(13)
O10 O 0.0090(4) -0.0783(3) -0.15652(12)
N1 N -0.3387(5) 0.0705(3) 0.10171(15)
C1 C -0.4567(6) -0.1583(4) 0.06642(19)
H1 H -0.4476 -0.1813 0.0975
H2 H -0.5568 -0.1173 0.0628
C2 C -0.3074(5) -0.0891(4) 0.05255(16)
H3 H -0.2132 -0.1160 0.0694
C3 C -0.3233(5) 0.0301(4) 0.06206(18)
C4 C -0.3218(5) 0.1082(4) 0.02500(17)
C5 C -0.2981(6) 0.2213(4) 0.0343(2)
H4 H -0.2739 0.2455 0.0632
C6 C -0.3121(6) 0.2915(4) -0.0004(2)
C7 C -0.3325(9) 0.4369(5) -0.0434(2)
H5 H -0.4273 0.4838 -0.0421
H6 H -0.2431 0.4780 -0.0563
C8 C -0.3535(7) 0.2575(4) -0.0428(2)
C9 C -0.3724(6) 0.1505(4) -0.05295(19)
H7 H -0.3969 0.1287 -0.0821
C10 C -0.3541(6) 0.0746(4) -0.01881(18)
C11 C -0.3772(6) -0.0455(4) -0.02951(16)
H8 H -0.4932 -0.0612 -0.0252
C12 C -0.2831(6) -0.1200(3) 0.00352(16)
H9 H -0.1669 -0.1213 -0.0040
C13 C -0.3544(6) -0.2332(4) 0.0014(2)
C14 C -0.3372(5) -0.0775(3) -0.07728(16)
C15 C -0.4476(6) -0.1337(4) -0.10365(16)
C16 C -0.4091(6) -0.1759(4) -0.14562(18)
C17 C -0.2558(6) -0.1551(4) -0.16354(18)
C18 C -0.1424(6) -0.0956(4) -0.13910(18)
C19 C -0.1832(5) -0.0601(4) -0.09629(17)
C20 C -0.6120(6) -0.1892(5) -0.2014(2)
H10 H -0.5422 -0.1498 -0.2215
H11 H -0.6860 -0.1396 -0.1870
H12 H -0.6728 -0.2423 -0.2180
C21 C -0.1152(8) -0.2769(5) -0.2112(2)
H13 H -0.0676 -0.2767 -0.2406
H14 H -0.1737 -0.3436 -0.2067
H15 H -0.0307 -0.2708 -0.1890
C22 C 0.0232(7) 0.0153(6) -0.1843(2)
H16 H -0.0430 0.0063 -0.2106
H17 H 0.1348 0.0248 -0.1930
H18 H -0.0128 0.0781 -0.1679
C23 C -0.1273(5) 0.0912(4) 0.18282(17)
C24 C 0.0100(6) 0.0271(4) 0.18156(19)
H19 H 0.0011 -0.0482 0.1813
C25 C 0.1611(6) 0.0763(5) 0.1807(2)
H20 H 0.2546 0.0338 0.1796
C26 C 0.1747(6) 0.1871(5) 0.1813(2)
H21 H 0.2767 0.2199 0.1810
C27 C 0.0369(7) 0.2487(4) 0.18244(18)
C28 C -0.1159(5) 0.2034(4) 0.18318(18)
H22 H -0.2087 0.2466 0.1839
loop_
_geom_bond_atom_site_label_1
_geom_bond_atom_site_label_2
_geom_bond_site_symmetry_1
_geom_bond_site_symmetry_2
Br1 C27 1_555 1_555
Cl1 C15 1_555 1_555
Cl2 C19 1_555 1_555
S1 O5 1_555 1_555
O1 C1 1_555 1_555
O2 C13 1_555 1_555
O3 C7 1_555 1_555
O4 C6 1_555 1_555
O5 N1 1_555 1_555
O6 S1 1_555 1_555
O7 S1 1_555 1_555
O8 C16 1_555 1_555
O9 C17 1_555 1_555
O10 C18 1_555 1_555
N1 C3 1_555 1_555
C1 H1 1_555 1_555
H2 C1 1_555 1_555
C2 C1 1_555 1_555
H3 C2 1_555 1_555
C3 C2 1_555 1_555
C4 C3 1_555 1_555
C5 C4 1_555 1_555
H4 C5 1_555 1_555
C6 C5 1_555 1_555
C7 O4 1_555 1_555
H5 C7 1_555 1_555
H6 C7 1_555 1_555
C8 O3 1_555 1_555
C9 C8 1_555 1_555
H7 C9 1_555 1_555
C10 C4 1_555 1_555
C11 C10 1_555 1_555
H8 C11 1_555 1_555
C12 C2 1_555 1_555
H9 C12 1_555 1_555
C13 O1 1_555 1_555
C14 C11 1_555 1_555
C15 C14 1_555 1_555
C16 C15 1_555 1_555
C17 C16 1_555 1_555
C18 C17 1_555 1_555
C19 C14 1_555 1_555
C20 O8 1_555 1_555
H10 C20 1_555 1_555
H11 C20 1_555 1_555
H12 C20 1_555 1_555
C21 O9 1_555 1_555
H13 C21 1_555 1_555
H14 C21 1_555 1_555
H15 C21 1_555 1_555
C22 O10 1_555 1_555
H16 C22 1_555 1_555
H17 C22 1_555 1_555
H18 C22 1_555 1_555
C23 S1 1_555 1_555
C24 C23 1_555 1_555
H19 C24 1_555 1_555
C25 C24 1_555 1_555
H20 C25 1_555 1_555
C26 C25 1_555 1_555
H21 C26 1_555 1_555
C27 C26 1_555 1_555
C28 C23 1_555 1_555
H22 C28 1_555 1_555
C6 C8 1_555 1_555
C9 C10 1_555 1_555
C11 C12 1_555 1_555
C12 C13 1_555 1_555
C18 C19 1_555 1_555
C27 C28 1_555 1_555

#END
