
#######################################################################
#
#                 Cambridge Crystallographic Data Centre
#                                CCDC 
#
#######################################################################
#
# If this CIF has been generated from an entry in the Cambridge 
# Structural Database, then it will include bibliographic, chemical, 
# crystal, experimental, refinement or atomic coordinate data resulting 
# from the CCDC's data processing and validation procedures.
#
#######################################################################

data_PUXJEX
_chemical_formula_moiety         'C24 H24 Cl2 N2 O2 S1'
_chemical_name_systematic        
2,5-bis(Morpholinyl)-3,4-bis(4-chlorophenyl)thiophene
_symmetry_cell_setting           triclinic
_symmetry_space_group_name_H-M   'P -1'
_symmetry_Int_Tables_number      2
_space_group_name_Hall           '-P 1'
loop_
_symmetry_equiv_pos_site_id
_symmetry_equiv_pos_as_xyz
1 x,y,z
2 -x,-y,-z
_cell_length_a                   6.074(1)
_cell_length_b                   10.325(1)
_cell_length_c                   19.779(2)
_cell_angle_alpha                76.74(1)
_cell_angle_beta                 87.11(1)
_cell_angle_gamma                74.92(1)
_cell_volume                     1165.72
_chemical_melting_point          215.5-217.5deg.C
_cell_formula_units_Z            2
_exptl_crystal_recrystallization_method 'acetone/petroleum ether'
loop_
_atom_site_label
_atom_site_type_symbol
_atom_site_fract_x
_atom_site_fract_y
_atom_site_fract_z
Cl1 Cl -0.2543(1) 1.1458(1) 0.1191(1)
Cl2 Cl 0.7790(1) 0.6511(1) -0.0538(1)
S1 S 0.7944(1) 0.5742(1) 0.3830(1)
O1 O 0.2607(3) 0.9047(1) 0.5072(1)
O2 O 1.4162(2) 0.2048(1) 0.2995(1)
N1 N 0.4043(3) 0.7742(1) 0.3959(1)
N2 N 1.0698(2) 0.4538(1) 0.2878(1)
C1 C 0.1062(3) 0.8490(2) 0.2671(1)
C2 C -0.0708(3) 0.9480(2) 0.2304(1)
C3 C -0.0306(3) 1.0217(2) 0.1660(1)
C4 C 0.1845(3) 0.9995(2) 0.1382(1)
C5 C 0.3623(3) 0.9021(2) 0.1759(1)
C6 C 0.3276(3) 0.8233(2) 0.2413(1)
C7 C 0.5194(3) 0.7186(2) 0.2816(1)
C8 C 0.7099(3) 0.6344(2) 0.2514(1)
C9 C 0.7299(3) 0.6353(2) 0.1761(1)
C10 C 0.5706(3) 0.5975(2) 0.1422(1)
C11 C 0.5839(3) 0.6022(2) 0.0717(1)
C12 C 0.7584(3) 0.6469(2) 0.0347(1)
C13 C 0.9184(3) 0.6863(2) 0.0664(1)
C14 C 0.9042(3) 0.6791(2) 0.1374(1)
C15 C 0.3616(4) 0.6973(2) 0.4644(1)
C16 C 0.1863(4) 0.7897(2) 0.5006(1)
C17 C 0.2948(4) 0.9823(2) 0.4398(1)
C18 C 0.4730(4) 0.8973(2) 0.4008(1)
C19 C 0.5423(3) 0.6976(2) 0.3520(1)
C20 C 0.8703(2) 0.5521(2) 0.2993(1)
C21 C 1.0323(3) 0.3355(2) 0.2651(1)
C22 C 1.2551(4) 0.2521(2) 0.2440(1)
C23 C 1.4540(3) 0.3182(2) 0.3206(1)
C24 C 1.2390(3) 0.4073(2) 0.3432(1)
loop_
_geom_bond_atom_site_label_1
_geom_bond_atom_site_label_2
_geom_bond_site_symmetry_1
_geom_bond_site_symmetry_2
Cl1 C3 1_555 1_555
Cl2 C12 1_555 1_555
S1 C19 1_555 1_555
O1 C16 1_555 1_555
O2 C22 1_555 1_555
N1 C15 1_555 1_555
N2 C20 1_555 1_555
C1 C2 1_555 1_555
C2 C3 1_555 1_555
C3 C4 1_555 1_555
C4 C5 1_555 1_555
C5 C6 1_555 1_555
C6 C1 1_555 1_555
C7 C6 1_555 1_555
C8 C7 1_555 1_555
C9 C8 1_555 1_555
C10 C9 1_555 1_555
C11 C10 1_555 1_555
C12 C11 1_555 1_555
C13 C12 1_555 1_555
C14 C9 1_555 1_555
C15 C16 1_555 1_555
C17 O1 1_555 1_555
C18 N1 1_555 1_555
C19 N1 1_555 1_555
C20 S1 1_555 1_555
C21 N2 1_555 1_555
C22 C21 1_555 1_555
C23 O2 1_555 1_555
C24 N2 1_555 1_555
C7 C19 1_555 1_555
C8 C20 1_555 1_555
C13 C14 1_555 1_555
C17 C18 1_555 1_555
C23 C24 1_555 1_555

#END
