
#######################################################################
#
#                 Cambridge Crystallographic Data Centre
#                                CCDC 
#
#######################################################################
#
# If this CIF has been generated from an entry in the Cambridge 
# Structural Database, then it will include bibliographic, chemical, 
# crystal, experimental, refinement or atomic coordinate data resulting 
# from the CCDC's data processing and validation procedures.
#
#######################################################################

data_PUXJIB
_chemical_formula_moiety         'C17 H18 Cl1 N1 O2'
_chemical_name_systematic        
4-(4-Chlorophenyl)-7,7-dimethyl-2,5-dioxo-1,2,3,4,5,6,7,8-octahydroquinoline
_symmetry_cell_setting           monoclinic
_symmetry_space_group_name_H-M   'C 2/c'
_symmetry_Int_Tables_number      15
_space_group_name_Hall           '-C 2yn'
loop_
_symmetry_equiv_pos_site_id
_symmetry_equiv_pos_as_xyz
1 x,y,z
2 -x,y,1/2-z
3 1/2+x,1/2+y,z
4 1/2-x,1/2+y,1/2-z
5 -x,-y,-z
6 x,-y,1/2+z
7 1/2-x,1/2-y,-z
8 1/2+x,1/2-y,1/2+z
_cell_length_a                   23.677(5)
_cell_length_b                   9.5333(2)
_cell_length_c                   14.027(3)
_cell_angle_alpha                90
_cell_angle_beta                 98.06(3)
_cell_angle_gamma                90
_cell_volume                     3134.9
_exptl_crystal_colour            colorless
_chemical_melting_point          188-190deg.C
_cell_formula_units_Z            8
_exptl_crystal_recrystallization_method '95% ethanol'
loop_
_atom_site_label
_atom_site_type_symbol
_atom_site_fract_x
_atom_site_fract_y
_atom_site_fract_z
N1 N 0.0758(1) -0.3516(3) 0.5336(2)
O1 O 0.0523(1) -0.1351(3) 0.5795(2)
O2 O 0.0725(1) -0.4937(3) 0.2112(1)
Cl1 Cl 0.2815(1) 0.0591(1) 0.2887(1)
C1 C 0.2210(2) -0.0369(4) 0.3030(2)
C2 C 0.2214(2) -0.1276(4) 0.3789(3)
C3 C 0.1727(1) -0.2027(3) 0.3896(2)
C4 C 0.1231(1) -0.1882(3) 0.3263(2)
C5 C 0.1239(1) -0.0952(4) 0.2503(2)
C6 C 0.1721(2) -0.0189(4) 0.2381(3)
C7 C 0.0683(1) -0.2638(3) 0.3389(2)
C8 C 0.0351(1) -0.1878(3) 0.4105(2)
C9 C 0.0557(1) -0.2176(3) 0.5144(2)
C10 C 0.0816(1) -0.4506(3) 0.4636(2)
C11 C 0.0771(1) -0.4146(3) 0.3696(2)
C12 C 0.0790(1) -0.5236(3) 0.2977(2)
C13 C 0.0857(2) -0.6731(3) 0.3307(2)
C14 C 0.1202(2) -0.6898(3) 0.4301(2)
C15 C 0.0929(2) -0.5967(3) 0.4995(2)
C16 C 0.1822(2) -0.6471(4) 0.4281(3)
C17 C 0.1179(2) -0.8428(4) 0.4649(3)
loop_
_geom_bond_atom_site_label_1
_geom_bond_atom_site_label_2
_geom_bond_site_symmetry_1
_geom_bond_site_symmetry_2
N1 C9 1_555 1_555
O1 C9 1_555 1_555
O2 C12 1_555 1_555
Cl1 C1 1_555 1_555
C1 C2 1_555 1_555
C2 C3 1_555 1_555
C3 C4 1_555 1_555
C4 C5 1_555 1_555
C5 C6 1_555 1_555
C6 C1 1_555 1_555
C7 C4 1_555 1_555
C8 C7 1_555 1_555
C9 C8 1_555 1_555
C10 N1 1_555 1_555
C11 C7 1_555 1_555
C12 C11 1_555 1_555
C13 C12 1_555 1_555
C14 C13 1_555 1_555
C15 C10 1_555 1_555
C16 C14 1_555 1_555
C17 C14 1_555 1_555
C10 C11 1_555 1_555
C14 C15 1_555 1_555

#END
