
#######################################################################
#
#                 Cambridge Crystallographic Data Centre
#                                CCDC 
#
#######################################################################
#
# If this CIF has been generated from an entry in the Cambridge 
# Structural Database, then it will include bibliographic, chemical, 
# crystal, experimental, refinement or atomic coordinate data resulting 
# from the CCDC's data processing and validation procedures.
#
#######################################################################

data_PUXZEP
_chemical_formula_moiety         'C25 H25 N3 O3 S1'
_chemical_name_systematic        
6-benzyl-1-((2-(2-methylphenyl)-4,5-dihydro-1,3-thiazol-4-yl)carbonyl)tetrahydro-1H-pyrrolo[3,4-b]pyridine-5,7(2H,6H)-dione
_symmetry_cell_setting           triclinic
_symmetry_space_group_name_H-M   'P -1'
_symmetry_Int_Tables_number      2
_space_group_name_Hall           '-P 1'
loop_
_symmetry_equiv_pos_site_id
_symmetry_equiv_pos_as_xyz
1 x,y,z
2 -x,-y,-z
_cell_length_a                   8.3494(17)
_cell_length_b                   10.968(2)
_cell_length_c                   13.344(3)
_cell_angle_alpha                114.12(3)
_cell_angle_beta                 97.26(3)
_cell_angle_gamma                95.53(3)
_cell_volume                     1091.48
_exptl_crystal_colour            white
_exptl_crystal_description       block
_cell_formula_units_Z            2
loop_
_atom_site_label
_atom_site_type_symbol
_atom_site_fract_x
_atom_site_fract_y
_atom_site_fract_z
S1 S 0.54489(4) 0.14021(3) 0.47788(3)
O1 O 0.67629(12) 0.28374(10) -0.14174(8)
O2 O 0.81669(11) -0.04031(8) -0.03332(7)
O3 O 0.54384(10) 0.04744(9) 0.17944(7)
N1 N 0.77707(12) 0.11426(10) -0.10676(8)
N2 N 0.76680(12) 0.17920(10) 0.17682(8)
N3 N 0.77752(12) 0.27021(10) 0.42568(8)
C1 C 0.82177(16) 0.04170(13) -0.21532(10)
H1 H 0.7251 0.0192 -0.2747
H2 H 0.8555 -0.0443 -0.2199
C2 C 0.95962(15) 0.12432(12) -0.23468(10)
C3 C 1.10917(15) 0.17023(13) -0.16132(11)
H3 H 1.1255 0.1493 -0.0988
C4 C 1.23486(16) 0.24713(13) -0.18005(12)
H4 H 1.3370 0.2786 -0.1301
C5 C 1.21142(17) 0.27782(14) -0.27131(13)
H5 H 1.2973 0.3305 -0.2836
C6 C 1.06386(18) 0.23209(14) -0.34411(12)
H6 H 1.0480 0.2529 -0.4068
C7 C 0.93821(16) 0.15553(13) -0.32596(11)
H7 H 0.8365 0.1241 -0.3764
C8 C 0.71510(15) 0.23511(13) -0.07732(10)
C9 C 0.71547(15) 0.29245(12) 0.04658(10)
H8 H 0.6215 0.3422 0.0664
C10 C 0.88141(16) 0.38615(12) 0.10622(11)
H9 H 0.9679 0.3483 0.0641
H10 H 0.8754 0.4765 0.1075
C11 C 0.92596(16) 0.40103(12) 0.22514(11)
H11 H 0.8445 0.4459 0.2693
H12 H 1.0346 0.4584 0.2604
C12 C 0.92971(14) 0.26267(12) 0.22509(10)
H13 H 1.0109 0.2176 0.1808
H14 H 0.9628 0.2733 0.3025
C13 C 0.69808(14) 0.16316(12) 0.06582(10)
H15 H 0.5786 0.1272 0.0511
C14 C 0.77341(14) 0.06439(12) -0.02678(10)
C15 C 0.67920(14) 0.11519(12) 0.22537(10)
C16 C 0.75791(15) 0.12843(12) 0.34126(10)
H16 H 0.8689 0.1019 0.3364
C17 C 0.65599(16) 0.03407(12) 0.37727(10)
H17 H 0.7282 -0.0106 0.4114
H18 H 0.5792 -0.0366 0.3121
C18 C 0.67889(14) 0.28608(12) 0.49414(10)
C19 C 0.66779(13) 0.41630(11) 0.58785(9)
C20 C 0.63321(14) 0.41201(12) 0.68613(10)
H19 H 0.6193 0.3276 0.6907
C21 C 0.61878(15) 0.52874(12) 0.77726(10)
H20 H 0.5997 0.5247 0.8446
C22 C 0.63243(15) 0.65114(12) 0.76914(11)
H21 H 0.6187 0.7312 0.8299
C23 C 0.66648(14) 0.65574(12) 0.67126(10)
H22 H 0.6741 0.7399 0.6661
C24 C 0.68981(14) 0.54148(12) 0.58042(10)
C25 C 0.73840(15) 0.55663(12) 0.48109(10)
H23 H 0.7214 0.6457 0.4854
H24 H 0.6714 0.4857 0.4125
H25 H 0.8541 0.5484 0.4805
loop_
_geom_bond_atom_site_label_1
_geom_bond_atom_site_label_2
_geom_bond_site_symmetry_1
_geom_bond_site_symmetry_2
S1 C17 1_555 1_555
O1 C8 1_555 1_555
O2 C14 1_555 1_555
O3 C15 1_555 1_555
N1 C1 1_555 1_555
N2 C12 1_555 1_555
N3 C16 1_555 1_555
C1 H1 1_555 1_555
H2 C1 1_555 1_555
C2 C1 1_555 1_555
C3 C2 1_555 1_555
H3 C3 1_555 1_555
C4 C3 1_555 1_555
H4 C4 1_555 1_555
C5 C4 1_555 1_555
H5 C5 1_555 1_555
C6 C5 1_555 1_555
H6 C6 1_555 1_555
C7 C2 1_555 1_555
H7 C7 1_555 1_555
C8 N1 1_555 1_555
C9 C8 1_555 1_555
H8 C9 1_555 1_555
C10 C9 1_555 1_555
H9 C10 1_555 1_555
H10 C10 1_555 1_555
C11 C10 1_555 1_555
H11 C11 1_555 1_555
H12 C11 1_555 1_555
C12 C11 1_555 1_555
H13 C12 1_555 1_555
H14 C12 1_555 1_555
C13 N2 1_555 1_555
H15 C13 1_555 1_555
C14 N1 1_555 1_555
C15 N2 1_555 1_555
C16 C15 1_555 1_555
H16 C16 1_555 1_555
C17 C16 1_555 1_555
H17 C17 1_555 1_555
H18 C17 1_555 1_555
C18 S1 1_555 1_555
C19 C18 1_555 1_555
C20 C19 1_555 1_555
H19 C20 1_555 1_555
C21 C20 1_555 1_555
H20 C21 1_555 1_555
C22 C21 1_555 1_555
H21 C22 1_555 1_555
C23 C22 1_555 1_555
H22 C23 1_555 1_555
C24 C19 1_555 1_555
C25 C24 1_555 1_555
H23 C25 1_555 1_555
H24 C25 1_555 1_555
H25 C25 1_555 1_555
N3 C18 1_555 1_555
C6 C7 1_555 1_555
C9 C13 1_555 1_555
C13 C14 1_555 1_555
C23 C24 1_555 1_555

#END
