
#######################################################################
#
#                 Cambridge Crystallographic Data Centre
#                                CCDC 
#
#######################################################################
#
# If this CIF has been generated from an entry in the Cambridge 
# Structural Database, then it will include bibliographic, chemical, 
# crystal, experimental, refinement or atomic coordinate data resulting 
# from the CCDC's data processing and validation procedures.
#
#######################################################################

data_PUYFAR
_chemical_formula_moiety         'C35 H23 B1 N2 O2'
_chemical_name_systematic        
8a-(4-(9H-Carbazol-9-yl)phenyl)-8aH-8,9-dioxa-13\L^5^-aza-8a\l^5^-borabenzo[fg]tetracene
_symmetry_cell_setting           monoclinic
_symmetry_space_group_name_H-M   'P 21/n'
_symmetry_Int_Tables_number      14
_space_group_name_Hall           '-P 2yn'
loop_
_symmetry_equiv_pos_site_id
_symmetry_equiv_pos_as_xyz
1 x,y,z
2 1/2-x,1/2+y,1/2-z
3 -x,-y,-z
4 1/2+x,1/2-y,1/2+z
_cell_length_a                   11.376(2)
_cell_length_b                   19.307(4)
_cell_length_c                   12.927(3)
_cell_angle_alpha                90
_cell_angle_beta                 111.60(3)
_cell_angle_gamma                90
_cell_volume                     2639.86
_exptl_crystal_colour            yellow
_exptl_crystal_description       block
_cell_formula_units_Z            4
loop_
_atom_site_label
_atom_site_type_symbol
_atom_site_fract_x
_atom_site_fract_y
_atom_site_fract_z
O1 O 0.66562(10) 0.16602(5) 0.58145(8)
O2 O 0.66608(10) 0.04655(5) 0.58630(9)
N1 N 0.87222(12) 0.10692(7) 0.63871(10)
N2 N 0.76152(15) 0.11328(7) 1.10761(10)
C1 C 0.92951(16) 0.04599(9) 0.63378(13)
C2 C 0.93004(17) 0.16937(9) 0.64116(13)
C3 C 0.74961(15) 0.10969(7) 0.77516(12)
C4 C 0.72671(16) -0.01494(8) 0.59967(12)
C5 C 0.72518(17) 0.22792(8) 0.60044(13)
C6 C 0.65579(19) -0.07524(9) 0.58164(15)
H1 H 0.5682 -0.0731 0.5585
C7 C 0.85680(18) 0.23214(9) 0.63804(14)
C8 C 0.85782(17) -0.01761(8) 0.62783(13)
B1 B 0.73416(17) 0.10704(9) 0.64571(14)
C9 C 0.76012(16) 0.11221(8) 0.99640(12)
C10 C 0.6529(2) 0.28799(10) 0.57719(17)
H2 H 0.5652 0.2851 0.5484
C11 C 0.79356(16) 0.17059(9) 1.17755(13)
C12 C 0.70186(17) 0.06498(9) 1.15192(13)
C13 C 0.69118(18) 0.16077(8) 0.92122(14)
H3 H 0.6471 0.1947 0.9430
C14 C 0.9157(2) -0.08270(10) 0.64504(17)
H4 H 1.0030 -0.0856 0.6661
C15 C 0.9119(2) 0.29800(11) 0.65840(17)
H5 H 0.9995 0.3017 0.6862
C16 C 1.05153(18) 0.04734(11) 0.63176(16)
H6 H 1.0925 0.0062 0.6284
C17 C 0.7164(3) -0.13845(10) 0.59827(18)
H7 H 0.6694 -0.1791 0.5871
C18 C 1.05066(19) 0.17041(11) 0.63868(17)
H8 H 1.0911 0.2124 0.6397
C19 C 0.7110(3) 0.35162(11) 0.5967(2)
H9 H 0.6620 0.3916 0.5814
C20 C 0.69972(18) 0.09058(10) 1.25281(14)
C21 C 0.68708(17) 0.15943(8) 0.81285(14)
H10 H 0.6406 0.1932 0.7634
C22 C 1.1102(2) 0.10942(12) 0.63471(19)
H11 H 1.1916 0.1103 0.6340
C23 C 0.85055(17) 0.23220(9) 1.16627(15)
H12 H 0.8728 0.2405 1.1050
C24 C 0.75906(17) 0.15758(10) 1.26951(13)
C25 C 0.8408(3) 0.35701(12) 0.6387(2)
H13 H 0.8795 0.4002 0.6534
C26 C 0.8471(2) -0.14177(11) 0.63161(19)
H14 H 0.8876 -0.1845 0.6448
C27 C 0.8193(2) 0.06205(9) 0.85450(14)
H15 H 0.8637 0.0279 0.8334
C28 C 0.7828(2) 0.20803(13) 1.35176(16)
H16 H 0.7606 0.2003 1.4132
C29 C 0.8259(2) 0.06301(10) 0.96335(15)
H17 H 0.8747 0.0304 1.0140
C30 C 0.6416(2) 0.05158(13) 1.31186(17)
H18 H 0.6413 0.0674 1.3797
C31 C 0.6464(2) 0.00279(10) 1.10866(16)
H19 H 0.6487 -0.0143 1.0421
C32 C 0.8387(2) 0.26871(14) 1.34158(18)
H20 H 0.8543 0.3025 1.3963
C33 C 0.87282(19) 0.28071(11) 1.25009(18)
H21 H 0.9115 0.3224 1.2452
C34 C 0.5870(2) -0.03338(11) 1.1684(2)
H22 H 0.5468 -0.0749 1.1399
C35 C 0.5857(3) -0.00965(14) 1.2693(2)
H23 H 0.5465 -0.0357 1.3079
loop_
_geom_bond_atom_site_label_1
_geom_bond_atom_site_label_2
_geom_bond_site_symmetry_1
_geom_bond_site_symmetry_2
O1 C5 1_555 1_555
O2 C4 1_555 1_555
N1 C1 1_555 1_555
N2 C9 1_555 1_555
C1 C8 1_555 1_555
C2 N1 1_555 1_555
C3 B1 1_555 1_555
C4 C6 1_555 1_555
C5 C7 1_555 1_555
C6 H1 1_555 1_555
C7 C2 1_555 1_555
C8 C4 1_555 1_555
B1 O1 1_555 1_555
C9 C13 1_555 1_555
C10 C5 1_555 1_555
H2 C10 1_555 1_555
C11 N2 1_555 1_555
C12 N2 1_555 1_555
C13 H3 1_555 1_555
C14 C8 1_555 1_555
H4 C14 1_555 1_555
C15 C7 1_555 1_555
H5 C15 1_555 1_555
C16 C1 1_555 1_555
H6 C16 1_555 1_555
C17 C6 1_555 1_555
H7 C17 1_555 1_555
C18 C2 1_555 1_555
H8 C18 1_555 1_555
C19 C10 1_555 1_555
H9 C19 1_555 1_555
C20 C12 1_555 1_555
C21 C3 1_555 1_555
H10 C21 1_555 1_555
C22 C16 1_555 1_555
H11 C22 1_555 1_555
C23 C11 1_555 1_555
H12 C23 1_555 1_555
C24 C11 1_555 1_555
C25 C15 1_555 1_555
H13 C25 1_555 1_555
C26 C14 1_555 1_555
H14 C26 1_555 1_555
C27 C3 1_555 1_555
H15 C27 1_555 1_555
C28 C24 1_555 1_555
H16 C28 1_555 1_555
C29 C9 1_555 1_555
H17 C29 1_555 1_555
C30 C20 1_555 1_555
H18 C30 1_555 1_555
C31 C12 1_555 1_555
H19 C31 1_555 1_555
C32 C28 1_555 1_555
H20 C32 1_555 1_555
C33 C23 1_555 1_555
H21 C33 1_555 1_555
C34 C31 1_555 1_555
H22 C34 1_555 1_555
C35 C30 1_555 1_555
H23 C35 1_555 1_555
O2 B1 1_555 1_555
N1 B1 1_555 1_555
C13 C21 1_555 1_555
C17 C26 1_555 1_555
C18 C22 1_555 1_555
C19 C25 1_555 1_555
C20 C24 1_555 1_555
C27 C29 1_555 1_555
C32 C33 1_555 1_555
C34 C35 1_555 1_555

#END
