
#######################################################################
#
#                 Cambridge Crystallographic Data Centre
#                                CCDC 
#
#######################################################################
#
# If this CIF has been generated from an entry in the Cambridge 
# Structural Database, then it will include bibliographic, chemical, 
# crystal, experimental, refinement or atomic coordinate data resulting 
# from the CCDC's data processing and validation procedures.
#
#######################################################################

data_PUYHUM01
_chemical_name_common            tris(N,N-Methylphenylamino)silane
_chemical_formula_moiety         'C21 H25 N3 Si1'
_chemical_name_systematic        
N,N',N''-Trimethyl-N,N',N''-triphenylsilanetriamine
_symmetry_cell_setting           rhombohedral
_symmetry_space_group_name_H-M   'R 3'
_symmetry_Int_Tables_number      146
_space_group_name_Hall           'P 3*'
loop_
_symmetry_equiv_pos_site_id
_symmetry_equiv_pos_as_xyz
1 x,y,z
2 z,x,y
3 y,z,x
_cell_length_a                   8.2010(5)
_cell_length_b                   8.2010(5)
_cell_length_c                   8.2010(5)
_cell_angle_alpha                104.84
_cell_angle_beta                 104.84
_cell_angle_gamma                104.84
_cell_volume                     483.876
_exptl_crystal_description       Cubic
_cell_formula_units_Z            1
_chemical_properties_physical    moisture-sensitive
_exptl_crystal_recrystallization_method benzene
loop_
_atom_site_label
_atom_site_type_symbol
_atom_site_fract_x
_atom_site_fract_y
_atom_site_fract_z
Si1 Si 1.0414 0.0414 0.0414
H1 H 1.174(4) 0.174(4) 0.174(4)
N1 N 0.8507(3) 0.0988(3) 0.0017(3)
C1 C 0.7337(4) 0.0641(5) -0.1821(4)
H2 H 0.6124 -0.0028 -0.1990
H3 H 0.7741 -0.0037 -0.2673
H4 H 0.7385 0.1763 -0.1998
C2 C 0.8007(3) 0.1904(3) 0.1428(4)
C3 C 0.8926(3) 0.2120(4) 0.3213(3)
H5 H 0.9812 0.1611 0.3453
C4 C 0.8527(4) 0.3078(4) 0.4610(4)
H6 H 0.9160 0.3225 0.5785
C5 C 0.7201(4) 0.3820(4) 0.4284(4)
H7 H 0.6950 0.4483 0.5232
C6 C 0.6251(4) 0.3564(4) 0.2536(4)
H8 H 0.5332 0.4034 0.2304
C7 C 0.6645(3) 0.2622(3) 0.1125(4)
H9 H 0.5988 0.2465 -0.0045
N1A N 1.0017(3) -0.1493(3) 0.0988(3)
C1A C 0.8179(4) -0.2663(4) 0.0641(5)
H2A H 0.8010 -0.3876 -0.0028
H3A H 0.7327 -0.2259 -0.0037
H4A H 0.8002 -0.2615 0.1763
C2A C 1.1428(4) -0.1993(3) 0.1904(3)
C3A C 1.3213(3) -0.1074(3) 0.2120(4)
H5A H 1.3453 -0.0188 0.1611
C4A C 1.4610(4) -0.1473(4) 0.3078(4)
H6A H 1.5785 -0.0840 0.3225
C5A C 1.4284(4) -0.2799(4) 0.3820(4)
H7A H 1.5232 -0.3050 0.4483
C6A C 1.2536(4) -0.3749(4) 0.3564(4)
H8A H 1.2304 -0.4668 0.4034
C7A C 1.1125(4) -0.3355(3) 0.2622(3)
H9A H 0.9955 -0.4012 0.2465
N1B N 1.0988(3) 0.0017(3) -0.1493(3)
C1B C 1.0641(5) -0.1821(4) -0.2663(4)
H2B H 0.9972 -0.1990 -0.3876
H3B H 0.9963 -0.2673 -0.2259
H4B H 1.1763 -0.1998 -0.2615
C2B C 1.1904(3) 0.1428(4) -0.1993(3)
C3B C 1.2120(4) 0.3213(3) -0.1074(3)
H5B H 1.1611 0.3453 -0.0188
C4B C 1.3078(4) 0.4610(4) -0.1473(4)
H6B H 1.3225 0.5785 -0.0840
C5B C 1.3820(4) 0.4284(4) -0.2799(4)
H7B H 1.4483 0.5232 -0.3050
C6B C 1.3564(4) 0.2536(4) -0.3749(4)
H8B H 1.4034 0.2304 -0.4668
C7B C 1.2622(3) 0.1125(4) -0.3355(3)
H9B H 1.2465 -0.0045 -0.4012
loop_
_geom_bond_atom_site_label_1
_geom_bond_atom_site_label_2
_geom_bond_site_symmetry_1
_geom_bond_site_symmetry_2
Si1 H1 1_555 1_555
N1 Si1 1_555 1_555
C1 N1 1_555 1_555
H2 C1 1_555 1_555
H3 C1 1_555 1_555
H4 C1 1_555 1_555
C2 N1 1_555 1_555
C3 C2 1_555 1_555
H5 C3 1_555 1_555
C4 C3 1_555 1_555
H6 C4 1_555 1_555
C5 C4 1_555 1_555
H7 C5 1_555 1_555
C6 C5 1_555 1_555
H8 C6 1_555 1_555
C7 C2 1_555 1_555
H9 C7 1_555 1_555
N1A Si1 1_555 1_555
C1A N1A 1_555 1_555
H2A C1A 1_555 1_555
H3A C1A 1_555 1_555
H4A C1A 1_555 1_555
C2A N1A 1_555 1_555
C3A C2A 1_555 1_555
H5A C3A 1_555 1_555
C4A C3A 1_555 1_555
H6A C4A 1_555 1_555
C5A C4A 1_555 1_555
H7A C5A 1_555 1_555
C6A C5A 1_555 1_555
H8A C6A 1_555 1_555
C7A C2A 1_555 1_555
H9A C7A 1_555 1_555
N1B Si1 1_555 1_555
C1B N1B 1_555 1_555
H2B C1B 1_555 1_555
H3B C1B 1_555 1_555
H4B C1B 1_555 1_555
C2B N1B 1_555 1_555
C3B C2B 1_555 1_555
H5B C3B 1_555 1_555
C4B C3B 1_555 1_555
H6B C4B 1_555 1_555
C5B C4B 1_555 1_555
H7B C5B 1_555 1_555
C6B C5B 1_555 1_555
H8B C6B 1_555 1_555
C7B C2B 1_555 1_555
H9B C7B 1_555 1_555
C6 C7 1_555 1_555
C6A C7A 1_555 1_555
C6B C7B 1_555 1_555

#END
