
#######################################################################
#
#                 Cambridge Crystallographic Data Centre
#                                CCDC 
#
#######################################################################
#
# If this CIF has been generated from an entry in the Cambridge 
# Structural Database, then it will include bibliographic, chemical, 
# crystal, experimental, refinement or atomic coordinate data resulting 
# from the CCDC's data processing and validation procedures.
#
#######################################################################

data_PUYQEG
_chemical_formula_moiety         'C39 H34 N6 P2 2+,C6 H4 Cl2,2(Br1 1-)'
_chemical_name_systematic        
'2-amino-4,6-bis(triphenylphosphinimino)-1,3,5-triazine-1,3-diium dibromide 1,2-dichlorobenzene solvate'
_symmetry_cell_setting           monoclinic
_symmetry_space_group_name_H-M   'P 21/n'
_symmetry_Int_Tables_number      14
_space_group_name_Hall           '-P 2yn'
loop_
_symmetry_equiv_pos_site_id
_symmetry_equiv_pos_as_xyz
1 x,y,z
2 1/2-x,1/2+y,1/2-z
3 -x,-y,-z
4 1/2+x,1/2-y,1/2+z
_cell_length_a                   13.4575(5)
_cell_length_b                   20.1036(9)
_cell_length_c                   15.6687(6)
_cell_angle_alpha                90
_cell_angle_beta                 93.930(2)
_cell_angle_gamma                90
_cell_volume                     4229.11
_exptl_crystal_colour            colorless
_exptl_crystal_description       piece
_cell_formula_units_Z            4
loop_
_atom_site_label
_atom_site_type_symbol
_atom_site_fract_x
_atom_site_fract_y
_atom_site_fract_z
Br1 Br 0.95616(3) 0.873619(19) 0.80077(2)
Br2 Br 0.18020(2) 0.940244(18) 0.53098(2)
P1 P 0.95849(6) 0.82825(4) 0.27115(5)
P2 P 0.99297(6) 0.66315(4) 0.55626(6)
N1 N 0.96840(18) 0.80227(13) 0.46046(16)
N2 N 0.9257(2) 0.91488(15) 0.48340(18)
H1 H 0.908(3) 0.9462(18) 0.466(2)
N3 N 0.9637(2) 0.84811(15) 0.59880(18)
H2 H 0.964(3) 0.8406(19) 0.645(2)
N4 N 0.94072(19) 0.88005(13) 0.34804(16)
N5 N 0.9167(2) 0.95735(16) 0.6201(2)
H3 H 0.895(3) 0.994(2) 0.604(2)
H4 H 0.919(3) 0.9512(18) 0.677(3)
N6 N 1.00022(19) 0.73930(14) 0.58775(17)
C1 C 0.9467(2) 0.86317(17) 0.4289(2)
C2 C 0.9352(2) 0.90825(17) 0.5684(2)
C3 C 0.9778(2) 0.79411(16) 0.5458(2)
C4 C 0.8769(2) 0.75706(16) 0.2668(2)
C5 C 0.9093(3) 0.69221(17) 0.2618(2)
H5 H 0.9785 0.6825 0.2654
C6 C 0.8403(3) 0.64136(18) 0.2516(2)
H6 H 0.8625 0.5967 0.2470
C7 C 0.7394(3) 0.65481(19) 0.2480(2)
H7 H 0.6926 0.6195 0.2415
C8 C 0.7066(2) 0.71927(19) 0.2538(2)
H8 H 0.6373 0.7285 0.2516
C9 C 0.7750(2) 0.77083(18) 0.2630(2)
H9 H 0.7525 0.8155 0.2666
C10 C 1.0872(2) 0.80455(17) 0.2678(2)
C11 C 1.1574(2) 0.82927(17) 0.3300(2)
H10 H 1.1367 0.8555 0.3760
C12 C 1.2578(2) 0.81504(19) 0.3236(2)
H11 H 1.3058 0.8320 0.3652
C13 C 1.2883(2) 0.77652(18) 0.2575(2)
H12 H 1.3569 0.7663 0.2548
C14 C 1.2196(3) 0.75250(19) 0.1949(2)
H13 H 1.2411 0.7263 0.1492
C15 C 1.1188(2) 0.76712(18) 0.1996(2)
H14 H 1.0715 0.7516 0.1563
C16 C 0.9274(2) 0.87387(17) 0.1749(2)
C17 C 0.9412(2) 0.94259(17) 0.1727(2)
H15 H 0.9638 0.9660 0.2230
C18 C 0.9214(2) 0.97659(18) 0.0961(2)
H16 H 0.9285 1.0236 0.0945
C19 C 0.8913(2) 0.94234(19) 0.0223(2)
H17 H 0.8793 0.9659 -0.0299
C20 C 0.8786(2) 0.87396(19) 0.0236(2)
H18 H 0.8579 0.8508 -0.0273
C21 C 0.8963(2) 0.83959(18) 0.1001(2)
H19 H 0.8872 0.7928 0.1015
C22 C 0.8649(2) 0.63683(17) 0.5497(2)
C23 C 0.8252(2) 0.59811(18) 0.6118(2)
H20 H 0.8675 0.5806 0.6574
C24 C 0.7243(3) 0.58473(19) 0.6079(2)
H21 H 0.6971 0.5589 0.6514
C25 C 0.6631(3) 0.60907(19) 0.5404(2)
H22 H 0.5937 0.5998 0.5380
C26 C 0.7015(2) 0.64659(19) 0.4765(2)
H23 H 0.6590 0.6624 0.4299
C27 C 0.8027(2) 0.66112(18) 0.4806(2)
H24 H 0.8297 0.6872 0.4373
C28 C 1.0456(2) 0.63943(16) 0.4587(2)
C29 C 1.1315(2) 0.67126(18) 0.4342(2)
H25 H 1.1563 0.7096 0.4640
C30 C 1.1801(3) 0.64619(19) 0.3659(2)
H26 H 1.2392 0.6671 0.3497
C31 C 1.1435(3) 0.59116(19) 0.3213(2)
H27 H 1.1770 0.5747 0.2742
C32 C 1.0575(3) 0.55994(19) 0.3452(2)
H28 H 1.0321 0.5222 0.3145
C33 C 1.0089(3) 0.58391(18) 0.4141(2)
H29 H 0.9504 0.5624 0.4308
C34 C 1.0617(2) 0.61719(16) 0.6397(2)
C35 C 1.1329(2) 0.57012(17) 0.6204(2)
H30 H 1.1451 0.5615 0.5625
C36 C 1.1860(2) 0.53585(18) 0.6855(2)
H31 H 1.2344 0.5039 0.6720
C37 C 1.1689(3) 0.54798(18) 0.7693(2)
H32 H 1.2062 0.5250 0.8138
C38 C 1.0968(3) 0.59387(18) 0.7892(2)
H33 H 1.0835 0.6013 0.8472
C39 C 1.0442(2) 0.62879(17) 0.7246(2)
H34 H 0.9960 0.6608 0.7386
Cl1 Cl -0.00176(7) 0.72753(5) -0.05649(7)
Cl2 Cl 0.21685(6) 0.67384(5) -0.02245(6)
C40 C 0.0211(3) 0.65641(19) 0.0039(2)
C41 C 0.1178(3) 0.6325(2) 0.0187(2)
C42 C 0.1360(3) 0.5740(2) 0.0647(3)
H35 H 0.2020 0.5575 0.0745
C43 C 0.0556(3) 0.5398(2) 0.0962(2)
H36 H 0.0665 0.4997 0.1274
C44 C -0.0387(3) 0.5645(2) 0.0819(3)
H37 H -0.0929 0.5413 0.1039
C45 C -0.0571(3) 0.6226(2) 0.0361(2)
H38 H -0.1232 0.6390 0.0268
loop_
_geom_bond_atom_site_label_1
_geom_bond_atom_site_label_2
_geom_bond_site_symmetry_1
_geom_bond_site_symmetry_2
P1 N4 1_555 1_555
P2 N6 1_555 1_555
N1 C1 1_555 1_555
N2 H1 1_555 1_555
N3 H2 1_555 1_555
N4 C1 1_555 1_555
N5 H3 1_555 1_555
H4 N5 1_555 1_555
N6 C3 1_555 1_555
C1 N2 1_555 1_555
C2 N2 1_555 1_555
C3 N1 1_555 1_555
C4 P1 1_555 1_555
C5 C4 1_555 1_555
H5 C5 1_555 1_555
C6 C5 1_555 1_555
H6 C6 1_555 1_555
C7 C6 1_555 1_555
H7 C7 1_555 1_555
C8 C7 1_555 1_555
H8 C8 1_555 1_555
C9 C4 1_555 1_555
H9 C9 1_555 1_555
C10 P1 1_555 1_555
C11 C10 1_555 1_555
H10 C11 1_555 1_555
C12 C11 1_555 1_555
H11 C12 1_555 1_555
C13 C12 1_555 1_555
H12 C13 1_555 1_555
C14 C13 1_555 1_555
H13 C14 1_555 1_555
C15 C10 1_555 1_555
H14 C15 1_555 1_555
C16 P1 1_555 1_555
C17 C16 1_555 1_555
H15 C17 1_555 1_555
C18 C17 1_555 1_555
H16 C18 1_555 1_555
C19 C18 1_555 1_555
H17 C19 1_555 1_555
C20 C19 1_555 1_555
H18 C20 1_555 1_555
C21 C16 1_555 1_555
H19 C21 1_555 1_555
C22 P2 1_555 1_555
C23 C22 1_555 1_555
H20 C23 1_555 1_555
C24 C23 1_555 1_555
H21 C24 1_555 1_555
C25 C24 1_555 1_555
H22 C25 1_555 1_555
C26 C25 1_555 1_555
H23 C26 1_555 1_555
C27 C22 1_555 1_555
H24 C27 1_555 1_555
C28 P2 1_555 1_555
C29 C28 1_555 1_555
H25 C29 1_555 1_555
C30 C29 1_555 1_555
H26 C30 1_555 1_555
C31 C30 1_555 1_555
H27 C31 1_555 1_555
C32 C31 1_555 1_555
H28 C32 1_555 1_555
C33 C28 1_555 1_555
H29 C33 1_555 1_555
C34 P2 1_555 1_555
C35 C34 1_555 1_555
H30 C35 1_555 1_555
C36 C35 1_555 1_555
H31 C36 1_555 1_555
C37 C36 1_555 1_555
H32 C37 1_555 1_555
C38 C37 1_555 1_555
H33 C38 1_555 1_555
C39 C34 1_555 1_555
H34 C39 1_555 1_555
Cl1 C40 1_555 1_555
Cl2 C41 1_555 1_555
C40 C41 1_555 1_555
C41 C42 1_555 1_555
C42 H35 1_555 1_555
C43 C42 1_555 1_555
H36 C43 1_555 1_555
C44 C43 1_555 1_555
H37 C44 1_555 1_555
C45 C40 1_555 1_555
H38 C45 1_555 1_555
N3 C2 1_555 1_555
N3 C3 1_555 1_555
N5 C2 1_555 1_555
C8 C9 1_555 1_555
C14 C15 1_555 1_555
C20 C21 1_555 1_555
C26 C27 1_555 1_555
C32 C33 1_555 1_555
C38 C39 1_555 1_555
C44 C45 1_555 1_555

#END
