
#######################################################################
#
#                 Cambridge Crystallographic Data Centre
#                                CCDC 
#
#######################################################################
#
# If this CIF has been generated from an entry in the Cambridge 
# Structural Database, then it will include bibliographic, chemical, 
# crystal, experimental, refinement or atomic coordinate data resulting 
# from the CCDC's data processing and validation procedures.
#
#######################################################################

data_PUYSOT
_chemical_formula_moiety         'C23 H15 Br3'
_chemical_name_systematic        
4b,8b,12b-tribromo-12d-methyl-4b,8b,12b,12d-tetrahydrodibenzo[2,3:4,5]pentaleno[1,6-ab]indene
_symmetry_cell_setting           trigonal
_symmetry_space_group_name_H-M   'P 3 1 m'
_symmetry_Int_Tables_number      157
_space_group_name_Hall           "P 3 -2'"
loop_
_symmetry_equiv_pos_site_id
_symmetry_equiv_pos_as_xyz
1 x,y,z
2 -y,x-y,z
3 -x+y,-x,z
4 y,x,z
5 x-y,-y,z
6 -x,-x+y,z
_cell_length_a                   27.856(2)
_cell_length_b                   27.856(2)
_cell_length_c                   6.3654(5)
_cell_angle_alpha                90
_cell_angle_beta                 90
_cell_angle_gamma                120
_cell_volume                     4277.54
_exptl_crystal_colour            colorless
_exptl_crystal_description       needle
_cell_formula_units_Z            9
loop_
_atom_site_label
_atom_site_type_symbol
_atom_site_fract_x
_atom_site_fract_y
_atom_site_fract_z
Br1 Br 0.75616(7) 0.0000 -0.9695(4)
Br2 Br 0.64807(7) 0.10443(6) -0.9860(3)
C1 C 0.7012(7) 0.0000 -0.767(3)
C2 C 0.6492(5) 0.0516(5) -0.776(2)
C3 C 0.6511(6) 0.0000 -0.880(3)
C4 C 0.6487(7) 0.0000 -1.121(3)
H1 H 0.6150 0.0000 -1.1660
H2 H 0.6813 0.0332 -1.1756
C5 C 0.7299(6) 0.0523(6) -0.646(2)
C6 C 0.7020(6) 0.0828(5) -0.652(2)
C7 C 0.7217(7) 0.1307(6) -0.537(2)
H3 H 0.7024 0.1507 -0.5404
C8 C 0.7665(6) 0.1492(6) -0.423(2)
H4 H 0.7793 0.1826 -0.3461
C9 C 0.7966(7) 0.1206(7) -0.412(3)
H5 H 0.8286 0.1340 -0.3251
C10 C 0.7785(6) 0.0732(6) -0.528(2)
H6 H 0.7992 0.0545 -0.5286
C11 C 0.5971(5) 0.0282(6) -0.649(2)
C12 C 0.5306(6) 0.0290(7) -0.415(3)
H7 H 0.5170 0.0484 -0.3343
C13 C 0.5785(6) 0.0583(7) -0.531(2)
H8 H 0.5983 0.0977 -0.5305
H2D H 0.6481 -0.0332 -1.1756
Br2D Br 0.54364(9) -0.10443(6) -0.9860(3)
C2D C 0.5976(7) -0.0516(5) -0.776(2)
C5D C 0.6776(8) -0.0523(6) -0.646(2)
C6D C 0.6192(8) -0.0828(5) -0.652(2)
C7D C 0.5910(9) -0.1307(6) -0.537(2)
H3D H 0.5517 -0.1507 -0.5404
C8D C 0.6173(8) -0.1492(6) -0.423(2)
H4D H 0.5967 -0.1826 -0.3461
C9D C 0.6760(10) -0.1206(7) -0.412(3)
H5D H 0.6946 -0.1340 -0.3251
C10D C 0.7053(8) -0.0732(6) -0.528(2)
H6D H 0.7447 -0.0545 -0.5286
C11D C 0.5689(8) -0.0282(6) -0.649(2)
C12D C 0.5016(9) -0.0290(7) -0.415(3)
H7D H 0.4686 -0.0484 -0.3343
C13D C 0.5202(9) -0.0583(7) -0.531(2)
H8D H 0.5006 -0.0977 -0.5305
Br3 Br 0.21373(7) 0.0000 0.4962(3)
Br4 Br 0.42289(6) 0.10707(7) 0.5356(3)
C14 C 0.2638(6) 0.0000 0.716(3)
C15 C 0.3675(6) 0.0519(6) 0.732(2)
C16 C 0.3162(6) 0.0000 0.624(3)
C17 C 0.3209(7) 0.0000 0.384(3)
H10 H 0.3549 0.0000 0.3454
H11 H 0.2887 -0.0332 0.3271
C18 C 0.2856(6) 0.0516(5) 0.843(2)
C19 C 0.3431(6) 0.0800(6) 0.856(2)
C20 C 0.3712(6) 0.1278(6) 0.980(2)
H12 H 0.4105 0.1471 0.9902
C21 C 0.3396(7) 0.1464(6) 1.088(2)
H13 H 0.3577 0.1788 1.1725
C22 C 0.2830(7) 0.1182(5) 1.073(2)
H14 H 0.2623 0.1313 1.1479
C23 C 0.2557(6) 0.0713(6) 0.953(2)
H15 H 0.2164 0.0523 0.9438
C24 C 0.3959(5) 0.0273(5) 0.862(2)
C25 C 0.4645(6) 0.0294(6) 1.094(2)
H16 H 0.4975 0.0489 1.1743
C26 C 0.4449(6) 0.0590(7) 0.977(2)
H17 H 0.4639 0.0984 0.9751
H11D H 0.3219 0.0332 0.3271
Br4D Br 0.31582(9) -0.10707(7) 0.5356(3)
C15D C 0.3156(8) -0.0519(6) 0.732(2)
C18D C 0.2340(8) -0.0516(5) 0.843(2)
C19D C 0.2631(8) -0.0800(6) 0.856(2)
C20D C 0.2434(8) -0.1278(6) 0.980(2)
H12D H 0.2634 -0.1471 0.9902
C21D C 0.1932(9) -0.1464(6) 1.088(2)
H13D H 0.1789 -0.1788 1.1725
C22D C 0.1648(9) -0.1182(5) 1.073(2)
H14D H 0.1310 -0.1313 1.1479
C23D C 0.1844(8) -0.0713(6) 0.953(2)
H15D H 0.1641 -0.0523 0.9438
C24D C 0.3686(7) -0.0273(5) 0.862(2)
C25D C 0.4351(8) -0.0294(6) 1.094(2)
H16D H 0.4486 -0.0489 1.1743
C26D C 0.3859(9) -0.0590(7) 0.977(2)
H17D H 0.3655 -0.0984 0.9751
Br5 Br 0.10595(8) 0.0000 -0.8309(4)
C27 C 0.0508(6) 0.0000 -0.627(3)
C28 C 0.0000 0.0000 -0.733(5)
C29 C 0.0000 0.0000 -0.959(5)
H19 H 0.0000 -0.0332 -1.0102
C30 C 0.0286(5) -0.0531(5) -0.496(2)
C31 C 0.0289(6) -0.1189(6) -0.266(2)
H20 H 0.0486 -0.1317 -0.1833
C32 C 0.0570(5) -0.0718(5) -0.385(2)
H21 H 0.0964 -0.0525 -0.3887
H19B H -0.0332 0.0000 -1.0102
H19A H 0.0332 0.0332 -1.0102
Br5A Br 0.0000 0.10595(8) -0.8309(4)
C27A C 0.0000 0.0508(6) -0.627(3)
C30A C 0.0531(5) 0.0817(7) -0.496(2)
C31A C 0.1189(6) 0.1478(8) -0.266(2)
H20A H 0.1317 0.1803 -0.1833
C32A C 0.0718(5) 0.1288(7) -0.385(2)
H21A H 0.0525 0.1489 -0.3887
Br5B Br -0.10595(8) -0.10595(8) -0.8309(4)
C27B C -0.0508(6) -0.0508(6) -0.627(3)
C30B C -0.0817(7) -0.0286(5) -0.496(2)
C31B C -0.1478(8) -0.0289(6) -0.266(2)
H20B H -0.1803 -0.0486 -0.1833
C32B C -0.1288(7) -0.0570(5) -0.385(2)
H21B H -0.1489 -0.0964 -0.3887
C30C C -0.0531(5) 0.0286(5) -0.496(2)
C31C C -0.1189(6) 0.0289(6) -0.266(2)
H20C H -0.1317 0.0486 -0.1833
C32C C -0.0718(5) 0.0570(5) -0.385(2)
H21C H -0.0525 0.0964 -0.3887
C30D C 0.0817(7) 0.0531(5) -0.496(2)
C31D C 0.1478(8) 0.1189(6) -0.266(2)
H20D H 0.1803 0.1317 -0.1833
C32D C 0.1288(7) 0.0718(5) -0.385(2)
H21D H 0.1489 0.0525 -0.3887
C30E C -0.0286(5) -0.0817(7) -0.496(2)
C31E C -0.0289(6) -0.1478(8) -0.266(2)
H20E H -0.0486 -0.1803 -0.1833
C32E C -0.0570(5) -0.1288(7) -0.385(2)
H21E H -0.0964 -0.1489 -0.3887
Br6 Br 0.56506(6) 0.34267(6) 1.6510(3)
C33 C 0.6169(5) 0.3378(5) 1.853(2)
C34 C 0.6667 0.3333 1.749(4)
C35 C 0.6667 0.3333 1.510(4)
H24 H 0.6983 0.3305 1.4585
C36 C 0.6438(5) 0.3903(5) 1.9793(19)
C37 C 0.7008(5) 0.4146(5) 1.9781(19)
C38 C 0.7330(5) 0.4624(5) 2.098(2)
H25 H 0.7723 0.4800 2.0940
C39 C 0.7077(6) 0.4840(6) 2.220(2)
H26 H 0.7296 0.5164 2.3014
C40 C 0.6489(6) 0.4582(6) 2.225(2)
H27 H 0.6317 0.4732 2.3109
C41 C 0.6163(5) 0.4105(5) 2.104(2)
H28 H 0.5770 0.3925 2.1072
H24B H 0.6322 0.3017 1.4585
H24A H 0.6695 0.3678 1.4585
Br6A Br 0.65733(6) 0.22239(8) 1.6510(3)
C33A C 0.6622(5) 0.2791(7) 1.853(2)
C36A C 0.6097(5) 0.2535(7) 1.9793(19)
C37A C 0.5854(5) 0.2862(7) 1.9781(19)
C38A C 0.5376(5) 0.2706(7) 2.098(2)
H25A H 0.5200 0.2923 2.0940
C39A C 0.5160(6) 0.2237(8) 2.220(2)
H26A H 0.4836 0.2132 2.3014
C40A C 0.5418(6) 0.1907(8) 2.225(2)
H27A H 0.5268 0.1585 2.3109
C41A C 0.5895(5) 0.2058(7) 2.104(2)
H28A H 0.6075 0.1845 2.1072
Br6B Br 0.77761(8) 0.43494(6) 1.6510(3)
C33B C 0.7209(7) 0.3831(5) 1.853(2)
C36B C 0.7465(7) 0.3562(5) 1.9793(19)
C37B C 0.7138(7) 0.2992(5) 1.9781(19)
C38B C 0.7294(7) 0.2670(5) 2.098(2)
H25B H 0.7077 0.2277 2.0940
C39B C 0.7763(8) 0.2923(6) 2.220(2)
H26B H 0.7868 0.2704 2.3014
C40B C 0.8093(8) 0.3511(6) 2.225(2)
H27B H 0.8415 0.3683 2.3109
C41B C 0.7942(7) 0.3837(5) 2.104(2)
H28B H 0.8155 0.4230 2.1072
H9? H 0.6813 0.0332 -1.1756
H18? H 0.2887 -0.0332 0.3271
H22? H 0.0000 -0.0332 -1.0102
H23? H 0.0000 -0.0332 -1.0102
H29? H 0.6983 0.3305 1.4585
H30? H 0.6983 0.3305 1.4585
loop_
_geom_bond_atom_site_label_1
_geom_bond_atom_site_label_2
_geom_bond_site_symmetry_1
_geom_bond_site_symmetry_2
Br1 C1 1_555 1_555
Br2 C2 1_555 1_555
C1 C3 1_555 1_555
C2 C3 1_555 1_555
C3 C4 1_555 1_555
C4 H1 1_555 1_555
H2 C4 1_555 1_555
C5 C1 1_555 1_555
C6 C2 1_555 1_555
C7 C6 1_555 1_555
H3 C7 1_555 1_555
C8 C7 1_555 1_555
H4 C8 1_555 1_555
C9 C8 1_555 1_555
H5 C9 1_555 1_555
C10 C5 1_555 1_555
H6 C10 1_555 1_555
C11 C2 1_555 1_555
C12 H7 1_555 1_555
C13 C11 1_555 1_555
H8 C13 1_555 1_555
Br3 C14 1_555 1_555
Br4 C15 1_555 1_555
C14 C16 1_555 1_555
C15 C16 1_555 1_555
C16 C17 1_555 1_555
C17 H10 1_555 1_555
H11 C17 1_555 1_555
C18 C14 1_555 1_555
C19 C15 1_555 1_555
C20 C19 1_555 1_555
H12 C20 1_555 1_555
C21 C20 1_555 1_555
H13 C21 1_555 1_555
C22 C21 1_555 1_555
H14 C22 1_555 1_555
C23 C18 1_555 1_555
H15 C23 1_555 1_555
C24 C15 1_555 1_555
C25 H16 1_555 1_555
C26 C24 1_555 1_555
H17 C26 1_555 1_555
Br5 C27 1_555 1_555
C27 C28 1_555 1_555
C28 C29 1_555 1_555
C29 H19 1_555 1_555
C30 C27 1_555 1_555
C31 H20 1_555 1_555
C32 C30 1_555 1_555
H21 C32 1_555 1_555
Br6 C33 1_555 1_555
C33 C34 1_555 1_555
C34 C35 1_555 1_555
C35 H24 1_555 1_555
C36 C33 1_555 1_555
C37 C36 1_555 1_555
C38 C37 1_555 1_555
H25 C38 1_555 1_555
C39 C38 1_555 1_555
H26 C39 1_555 1_555
C40 C39 1_555 1_555
H27 C40 1_555 1_555
C41 C36 1_555 1_555
H28 C41 1_555 1_555
H2D C4 1_555 1_555
Br2D C2D 1_555 1_555
C2D C3 1_555 1_555
C5D C1 1_555 1_555
C6D C2D 1_555 1_555
C7D C6D 1_555 1_555
H3D C7D 1_555 1_555
C8D C7D 1_555 1_555
H4D C8D 1_555 1_555
C9D C8D 1_555 1_555
H5D C9D 1_555 1_555
C10D C5D 1_555 1_555
H6D C10D 1_555 1_555
C11D C11 1_555 1_555
C12D C12 1_555 1_555
H7D C12D 1_555 1_555
C13D C11D 1_555 1_555
H8D C13D 1_555 1_555
H11D C17 1_555 1_555
Br4D C15D 1_555 1_555
C15D C16 1_555 1_555
C18D C14 1_555 1_555
C19D C15D 1_555 1_555
C20D C19D 1_555 1_555
H12D C20D 1_555 1_555
C21D C20D 1_555 1_555
H13D C21D 1_555 1_555
C22D C21D 1_555 1_555
H14D C22D 1_555 1_555
C23D C18D 1_555 1_555
H15D C23D 1_555 1_555
C24D C24 1_555 1_555
C25D C25 1_555 1_555
H16D C25D 1_555 1_555
C26D C24D 1_555 1_555
H17D C26D 1_555 1_555
H19B C29 1_555 1_555
H19A C29 1_555 1_555
Br5A C27A 1_555 1_555
C27A C28 1_555 1_555
C30A C27A 1_555 1_555
C31A H20A 1_555 1_555
C32A C30A 1_555 1_555
H21A C32A 1_555 1_555
Br5B C27B 1_555 1_555
C27B C28 1_555 1_555
C30B C27B 1_555 1_555
C31B H20B 1_555 1_555
C32B C30B 1_555 1_555
H21B C32B 1_555 1_555
C30C C27A 1_555 1_555
C31C C31B 1_555 1_555
H20C C31C 1_555 1_555
C32C C30C 1_555 1_555
H21C C32C 1_555 1_555
C30D C27 1_555 1_555
C31D C31A 1_555 1_555
H20D C31D 1_555 1_555
C32D C30D 1_555 1_555
H21D C32D 1_555 1_555
C30E C30 1_555 1_555
C31E C31 1_555 1_555
H20E C31E 1_555 1_555
C32E C30E 1_555 1_555
H21E C32E 1_555 1_555
H24B C35 1_555 1_555
H24A C35 1_555 1_555
Br6A C33A 1_555 1_555
C33A C34 1_555 1_555
C36A C33A 1_555 1_555
C37A C33 1_555 1_555
C38A C37A 1_555 1_555
H25A C38A 1_555 1_555
C39A C38A 1_555 1_555
H26A C39A 1_555 1_555
C40A C39A 1_555 1_555
H27A C40A 1_555 1_555
C41A C36A 1_555 1_555
H28A C41A 1_555 1_555
Br6B C33B 1_555 1_555
C33B C34 1_555 1_555
C36B C33B 1_555 1_555
C37B C33A 1_555 1_555
C38B C37B 1_555 1_555
H25B C38B 1_555 1_555
C39B C38B 1_555 1_555
H26B C39B 1_555 1_555
C40B C39B 1_555 1_555
H27B C40B 1_555 1_555
C41B C36B 1_555 1_555
H28B C41B 1_555 1_555
C5 C6 1_555 1_555
C9 C10 1_555 1_555
C12 C13 1_555 1_555
C18 C19 1_555 1_555
C22 C23 1_555 1_555
C25 C26 1_555 1_555
C31 C32 1_555 1_555
C37 C33B 1_555 1_555
C40 C41 1_555 1_555
C2D C11D 1_555 1_555
C5D C6D 1_555 1_555
C9D C10D 1_555 1_555
C12D C13D 1_555 1_555
C15D C24D 1_555 1_555
C18D C19D 1_555 1_555
C22D C23D 1_555 1_555
C25D C26D 1_555 1_555
C30A C30D 1_555 1_555
C31A C32A 1_555 1_555
C27B C30E 1_555 1_555
C30B C30C 1_555 1_555
C31B C32B 1_555 1_555
C31C C32C 1_555 1_555
C31D C32D 1_555 1_555
C31E C32E 1_555 1_555
C36A C37A 1_555 1_555
C40A C41A 1_555 1_555
C36B C37B 1_555 1_555
C40B C41B 1_555 1_555

#END
