
#######################################################################
#
#                 Cambridge Crystallographic Data Centre
#                                CCDC 
#
#######################################################################
#
# If this CIF has been generated from an entry in the Cambridge 
# Structural Database, then it will include bibliographic, chemical, 
# crystal, experimental, refinement or atomic coordinate data resulting 
# from the CCDC's data processing and validation procedures.
#
#######################################################################

data_PUYSUZ
_chemical_formula_moiety         'C28 H30 Cl2 O6'
_chemical_name_systematic        
1,1',1''-(2,6-bis(2-(2-chloroethoxy)phenyl)-4-hydroxycyclohex-3-ene-1,1,3-triyl)triethanone
_symmetry_cell_setting           monoclinic
_symmetry_space_group_name_H-M   'P 21/n'
_symmetry_Int_Tables_number      14
_space_group_name_Hall           '-P 2yn'
loop_
_symmetry_equiv_pos_site_id
_symmetry_equiv_pos_as_xyz
1 x,y,z
2 1/2-x,1/2+y,1/2-z
3 -x,-y,-z
4 1/2+x,1/2-y,1/2+z
_cell_length_a                   10.0539(4)
_cell_length_b                   16.5912(7)
_cell_length_c                   15.9963(6)
_cell_angle_alpha                90
_cell_angle_beta                 99.823(4)
_cell_angle_gamma                90
_cell_volume                     2629.16
_exptl_crystal_colour            'light colorless'
_exptl_crystal_description       block
_cell_formula_units_Z            4
loop_
_atom_site_label
_atom_site_type_symbol
_atom_site_fract_x
_atom_site_fract_y
_atom_site_fract_z
Cl1 Cl 0.31412(14) 0.04429(7) 0.47975(7)
Cl2 Cl 0.57928(13) 0.53437(7) 0.15532(7)
O1 O 0.2773(2) 0.21538(13) 0.53794(12)
O2 O 0.2970(2) 0.49508(12) 0.43299(14)
O3 O 0.02194(18) 0.42055(13) 0.29298(12)
O4 O 0.0534(2) 0.20033(15) 0.19145(12)
H1 H 0.0763 0.2015 0.1447
O5 O 0.1785(2) 0.24293(16) 0.08030(12)
O6 O 0.56901(17) 0.42354(13) 0.30710(13)
C1 C 0.1832(3) 0.27298(17) 0.54719(15)
C2 C 0.1382(3) 0.2875(2) 0.62321(17)
H2 H 0.1727 0.2578 0.6714
C3 C -0.0078(3) 0.3900(2) 0.55705(19)
H3 H -0.0736 0.4289 0.5599
C4 C 0.0426(3) 0.3458(2) 0.62696(19)
H4 H 0.0119 0.3552 0.6778
C5 C 0.0393(3) 0.37689(17) 0.48137(17)
H5 H 0.0054 0.4079 0.4341
C6 C 0.1358(2) 0.31858(16) 0.47480(14)
C7 C 0.3096(3) 0.15591(19) 0.60128(18)
H6 H 0.2281 0.1301 0.6129
H7 H 0.3563 0.1800 0.6534
C8 C 0.3982(4) 0.0958(2) 0.5683(2)
H8 H 0.4306 0.0572 0.6127
H9 H 0.4760 0.1232 0.5533
C9 C 0.1915(2) 0.30237(15) 0.39351(14)
H10 H 0.2701 0.2676 0.4111
C10 C 0.0950(3) 0.25141(17) 0.33037(15)
H11 H 0.0929 0.1971 0.3526
H12 H 0.0048 0.2736 0.3255
C11 C 0.1326(3) 0.24735(17) 0.24371(16)
C12 C 0.2362(2) 0.29127(16) 0.21964(14)
C13 C 0.3294(2) 0.34284(15) 0.28268(14)
H13 H 0.3530 0.3898 0.2511
C14 C 0.2477(2) 0.37598(15) 0.35137(14)
C15 C 0.3297(2) 0.42607(17) 0.42330(16)
C16 C 0.4392(3) 0.38858(18) 0.48624(15)
H14 H 0.5244 0.4123 0.4807
H15 H 0.4420 0.3317 0.4759
H16 H 0.4215 0.3977 0.5426
C17 C 0.4615(2) 0.29966(16) 0.31624(14)
C18 C 0.5824(3) 0.34310(18) 0.32582(16)
C19 C 0.7058(3) 0.3055(2) 0.35378(17)
H17 H 0.7856 0.3349 0.3597
C20 C 0.7088(3) 0.2250(2) 0.37248(18)
H18 H 0.7913 0.2000 0.3912
C21 C 0.5924(3) 0.1807(2) 0.36410(17)
H19 H 0.5953 0.1261 0.3774
C22 C 0.4692(3) 0.21868(17) 0.33524(15)
H20 H 0.3902 0.1885 0.3286
C23 C 0.6875(3) 0.4714(2) 0.3070(2)
H21 H 0.7500 0.4434 0.2772
H22 H 0.7322 0.4814 0.3647
C24 C 0.6452(4) 0.5484(2) 0.2640(3)
H23 H 0.7221 0.5845 0.2695
H24 H 0.5771 0.5736 0.2916
C25 C 0.1419(3) 0.43273(17) 0.30001(15)
C26 C 0.1898(3) 0.5031(2) 0.2542(2)
H25 H 0.1889 0.4890 0.1959
H26 H 0.2800 0.5171 0.2803
H27 H 0.1311 0.5483 0.2571
C27 C 0.2530(3) 0.28804(19) 0.13281(17)
C28 C 0.3544(3) 0.3387(2) 0.09908(18)
H28 H 0.3796 0.3128 0.0504
H29 H 0.4328 0.3452 0.1421
H30 H 0.3160 0.3905 0.0831
loop_
_geom_bond_atom_site_label_1
_geom_bond_atom_site_label_2
_geom_bond_site_symmetry_1
_geom_bond_site_symmetry_2
Cl1 C8 1_555 1_555
Cl2 C24 1_555 1_555
O1 C1 1_555 1_555
O2 C15 1_555 1_555
O3 C25 1_555 1_555
O4 H1 1_555 1_555
O5 C27 1_555 1_555
O6 C18 1_555 1_555
C1 C2 1_555 1_555
C2 H2 1_555 1_555
C3 H3 1_555 1_555
C4 C2 1_555 1_555
H4 C4 1_555 1_555
C5 C3 1_555 1_555
H5 C5 1_555 1_555
C6 C1 1_555 1_555
C7 O1 1_555 1_555
H6 C7 1_555 1_555
H7 C7 1_555 1_555
C8 C7 1_555 1_555
H8 C8 1_555 1_555
H9 C8 1_555 1_555
C9 C6 1_555 1_555
H10 C9 1_555 1_555
C10 C9 1_555 1_555
H11 C10 1_555 1_555
H12 C10 1_555 1_555
C11 O4 1_555 1_555
C12 C11 1_555 1_555
C13 C12 1_555 1_555
H13 C13 1_555 1_555
C14 C9 1_555 1_555
C15 C14 1_555 1_555
C16 C15 1_555 1_555
H14 C16 1_555 1_555
H15 C16 1_555 1_555
H16 C16 1_555 1_555
C17 C13 1_555 1_555
C18 C17 1_555 1_555
C19 C18 1_555 1_555
H17 C19 1_555 1_555
C20 C19 1_555 1_555
H18 C20 1_555 1_555
C21 C20 1_555 1_555
H19 C21 1_555 1_555
C22 C17 1_555 1_555
H20 C22 1_555 1_555
C23 O6 1_555 1_555
H21 C23 1_555 1_555
H22 C23 1_555 1_555
C24 C23 1_555 1_555
H23 C24 1_555 1_555
H24 C24 1_555 1_555
C25 C14 1_555 1_555
C26 C25 1_555 1_555
H25 C26 1_555 1_555
H26 C26 1_555 1_555
H27 C26 1_555 1_555
C27 C12 1_555 1_555
C28 C27 1_555 1_555
H28 C28 1_555 1_555
H29 C28 1_555 1_555
H30 C28 1_555 1_555
C3 C4 1_555 1_555
C5 C6 1_555 1_555
C10 C11 1_555 1_555
C13 C14 1_555 1_555
C21 C22 1_555 1_555

#END
