
#######################################################################
#
#                 Cambridge Crystallographic Data Centre
#                                CCDC 
#
#######################################################################
#
# If this CIF has been generated from an entry in the Cambridge 
# Structural Database, then it will include bibliographic, chemical, 
# crystal, experimental, refinement or atomic coordinate data resulting 
# from the CCDC's data processing and validation procedures.
#
#######################################################################

data_PUYSIN
_chemical_formula_moiety         'C26 H24 O3'
_chemical_name_systematic        
4b,8b,12b-trimethoxy-12d-methyl-4b,8b,12b,12d-tetrahydrodibenzo[2,3:4,5]pentaleno[1,6-ab]indene
_symmetry_cell_setting           monoclinic
_symmetry_space_group_name_H-M   'P 21/c'
_symmetry_Int_Tables_number      14
_space_group_name_Hall           '-P 2ybc'
loop_
_symmetry_equiv_pos_site_id
_symmetry_equiv_pos_as_xyz
1 x,y,z
2 -x,1/2+y,1/2-z
3 -x,-y,-z
4 x,1/2-y,1/2+z
_cell_length_a                   8.8937(3)
_cell_length_b                   12.5662(4)
_cell_length_c                   17.4648(5)
_cell_angle_alpha                90
_cell_angle_beta                 90.911(2)
_cell_angle_gamma                90
_cell_volume                     1951.62
_exptl_crystal_colour            colorless
_exptl_crystal_description       needle
_cell_formula_units_Z            4
loop_
_atom_site_label
_atom_site_type_symbol
_atom_site_fract_x
_atom_site_fract_y
_atom_site_fract_z
C1 C 0.3585(2) 0.78570(15) 0.62623(11)
C2 C 0.4165(2) 0.67825(16) 0.66407(11)
C3 C 0.4354(2) 0.79255(15) 0.54526(11)
C4 C 0.1848(2) 0.76738(15) 0.60916(11)
O1 O 0.48450(16) 0.68902(13) 0.73919(8)
O2 O 0.50701(16) 0.89051(11) 0.52748(9)
O3 O 0.08493(15) 0.84450(11) 0.64215(8)
C5 C 0.3860(3) 0.88161(18) 0.67767(14)
H1 H 0.3696 0.9470 0.6482
H2 H 0.4898 0.8800 0.6974
H3 H 0.3164 0.8796 0.7206
C6 C 0.6416(3) 0.7104(2) 0.74484(14)
H4 H 0.6647 0.7436 0.7944
H5 H 0.6703 0.7588 0.7035
H6 H 0.6977 0.6437 0.7404
C7 C 0.6559(3) 0.90790(19) 0.55640(16)
H7 H 0.6811 0.9836 0.5521
H8 H 0.7270 0.8657 0.5267
H9 H 0.6618 0.8864 0.6103
C8 C 0.0684(3) 0.94351(17) 0.60209(14)
H10 H 0.0275 0.9973 0.6367
H11 H -0.0004 0.9340 0.5582
H12 H 0.1667 0.9670 0.5840
C9 C 0.5218(2) 0.63142(15) 0.60581(11)
C10 C 0.5365(2) 0.69555(15) 0.54219(11)
C11 C 0.6311(2) 0.66628(17) 0.48344(12)
H13 H 0.6417 0.7108 0.4399
C12 C 0.7101(2) 0.57162(18) 0.48882(12)
H14 H 0.7759 0.5514 0.4490
C13 C 0.6938(2) 0.50618(17) 0.55203(13)
H15 H 0.7476 0.4410 0.5551
C14 C 0.5996(2) 0.53526(16) 0.61071(13)
H16 H 0.5879 0.4902 0.6539
C15 C 0.3060(2) 0.78211(15) 0.48802(11)
C16 C 0.1702(2) 0.76379(15) 0.52317(11)
C17 C 0.0398(2) 0.74797(17) 0.47996(12)
H17 H -0.0530 0.7343 0.5043
C18 C 0.0469(3) 0.75242(18) 0.40112(13)
H18 H -0.0414 0.7411 0.3709
C19 C 0.1827(3) 0.77337(18) 0.36567(13)
H19 H 0.1859 0.7778 0.3114
C20 C 0.3130(3) 0.78782(17) 0.40865(12)
H20 H 0.4058 0.8014 0.3843
C21 C 0.1494(2) 0.66259(16) 0.64697(11)
C22 C 0.2758(2) 0.61376(16) 0.67629(11)
C23 C 0.2656(2) 0.51685(17) 0.71430(12)
H21 H 0.3532 0.4836 0.7349
C24 C 0.1263(2) 0.46968(18) 0.72165(13)
H22 H 0.1179 0.4035 0.7476
C25 C -0.0013(2) 0.51848(18) 0.69135(13)
H23 H -0.0965 0.4849 0.6961
C26 C 0.0084(2) 0.61525(17) 0.65432(12)
H24 H -0.0792 0.6490 0.6342
loop_
_geom_bond_atom_site_label_1
_geom_bond_atom_site_label_2
_geom_bond_site_symmetry_1
_geom_bond_site_symmetry_2
C1 C2 1_555 1_555
C2 O1 1_555 1_555
C3 C1 1_555 1_555
C4 C1 1_555 1_555
O1 C6 1_555 1_555
O2 C3 1_555 1_555
O3 C4 1_555 1_555
C5 C1 1_555 1_555
H1 C5 1_555 1_555
H2 C5 1_555 1_555
H3 C5 1_555 1_555
C6 H4 1_555 1_555
H5 C6 1_555 1_555
H6 C6 1_555 1_555
C7 O2 1_555 1_555
H7 C7 1_555 1_555
H8 C7 1_555 1_555
H9 C7 1_555 1_555
C8 O3 1_555 1_555
H10 C8 1_555 1_555
H11 C8 1_555 1_555
H12 C8 1_555 1_555
C9 C2 1_555 1_555
C10 C3 1_555 1_555
C11 C10 1_555 1_555
H13 C11 1_555 1_555
C12 C11 1_555 1_555
H14 C12 1_555 1_555
C13 C12 1_555 1_555
H15 C13 1_555 1_555
C14 C9 1_555 1_555
H16 C14 1_555 1_555
C15 C3 1_555 1_555
C16 C4 1_555 1_555
C17 C16 1_555 1_555
H17 C17 1_555 1_555
C18 C17 1_555 1_555
H18 C18 1_555 1_555
C19 C18 1_555 1_555
H19 C19 1_555 1_555
C20 C15 1_555 1_555
H20 C20 1_555 1_555
C21 C4 1_555 1_555
C22 C2 1_555 1_555
C23 C22 1_555 1_555
H21 C23 1_555 1_555
C24 C23 1_555 1_555
H22 C24 1_555 1_555
C25 C24 1_555 1_555
H23 C25 1_555 1_555
C26 C21 1_555 1_555
H24 C26 1_555 1_555
C9 C10 1_555 1_555
C13 C14 1_555 1_555
C15 C16 1_555 1_555
C19 C20 1_555 1_555
C21 C22 1_555 1_555
C25 C26 1_555 1_555

#END
