
#######################################################################
#
#                 Cambridge Crystallographic Data Centre
#                                CCDC 
#
#######################################################################
#
# If this CIF has been generated from an entry in the Cambridge 
# Structural Database, then it will include bibliographic, chemical, 
# crystal, experimental, refinement or atomic coordinate data resulting 
# from the CCDC's data processing and validation procedures.
#
#######################################################################

data_PUZCOE
_chemical_formula_moiety         'C16 H17 N5 O1,H2 O1'
_chemical_name_systematic        
'N-(1H-Benzimidazol-2-ylmethyl)-1-(4-methylphenyl)hydrazinecarboxamide monohydrate'
_symmetry_cell_setting           monoclinic
_symmetry_space_group_name_H-M   'P 21/c'
_symmetry_Int_Tables_number      14
_space_group_name_Hall           '-P 2ybc'
loop_
_symmetry_equiv_pos_site_id
_symmetry_equiv_pos_as_xyz
1 x,y,z
2 -x,1/2+y,1/2-z
3 -x,-y,-z
4 x,1/2-y,1/2+z
_cell_length_a                   15.3794(7)
_cell_length_b                   8.2222(5)
_cell_length_c                   13.8159(7)
_cell_angle_alpha                90
_cell_angle_beta                 104.331(5)
_cell_angle_gamma                90
_cell_volume                     1692.69
_cell_formula_units_Z            4
loop_
_atom_site_label
_atom_site_type_symbol
_atom_site_fract_x
_atom_site_fract_y
_atom_site_fract_z
O1 O 0.47093(16) 0.6076(3) 0.17906(19)
N1 N 0.4129(2) 1.0142(4) 0.1127(2)
N2 N 0.40881(18) 0.8607(3) 0.15743(19)
N3 N 0.52684(18) 0.7941(4) 0.0903(2)
N4 N 0.7217(2) 0.8218(4) 0.1701(2)
N5 N 0.73411(19) 0.7337(4) 0.0223(2)
C1 C 0.4693(2) 0.7462(4) 0.1445(2)
C2 C 0.5885(2) 0.6818(5) 0.0625(3)
H1 H 0.5681 0.6583 -0.0084
H2 H 0.5883 0.5806 0.0985
C3 C 0.6821(2) 0.7465(4) 0.0841(2)
C4 C 0.8071(2) 0.8599(5) 0.1666(3)
C5 C 0.8768(3) 0.9408(7) 0.2330(4)
H3 H 0.8702 0.9810 0.2937
C6 C 0.9556(3) 0.9579(9) 0.2041(5)
H4 H 1.0040 1.0092 0.2471
C7 C 0.9650(3) 0.9009(10) 0.1129(5)
H5 H 1.0198 0.9137 0.0966
C8 C 0.8952(3) 0.8256(8) 0.0454(4)
H6 H 0.9015 0.7898 -0.0163
C9 C 0.8152(2) 0.8053(6) 0.0735(3)
C10 C 0.3529(2) 0.8421(4) 0.2257(2)
C11 C 0.3802(2) 0.7590(5) 0.3145(3)
H7 H 0.4358 0.7077 0.3309
C12 C 0.3245(3) 0.7521(5) 0.3794(3)
H8 H 0.3437 0.6946 0.4389
C13 C 0.2425(3) 0.8262(5) 0.3595(3)
C14 C 0.2174(3) 0.9110(7) 0.2717(3)
H9 H 0.1625 0.9647 0.2566
C15 C 0.2708(3) 0.9196(6) 0.2049(3)
H10 H 0.2514 0.9778 0.1458
C16 C 0.1844(4) 0.8192(7) 0.4335(4)
H11 H 0.2130 0.7525 0.4894
H12 H 0.1270 0.7738 0.4016
H13 H 0.1764 0.9271 0.4565
H14 H 0.354(3) 1.037(5) 0.077(3)
H15 H 0.426(3) 1.080(6) 0.164(4)
H16 H 0.698(2) 0.836(5) 0.217(3)
H17 H 0.521(2) 0.892(5) 0.070(3)
O2 O 0.6482(3) 0.8597(4) 0.3290(2)
H18 H 0.608(3) 0.959(6) 0.338(3)
H19 H 0.691(2) 0.938(4) 0.341(2)
loop_
_geom_bond_atom_site_label_1
_geom_bond_atom_site_label_2
_geom_bond_site_symmetry_1
_geom_bond_site_symmetry_2
O1 C1 1_555 1_555
N1 N2 1_555 1_555
N2 C1 1_555 1_555
N3 C1 1_555 1_555
N4 C3 1_555 1_555
N5 C3 1_555 1_555
C2 N3 1_555 1_555
H1 C2 1_555 1_555
H2 C2 1_555 1_555
C3 C2 1_555 1_555
C4 N4 1_555 1_555
C5 C4 1_555 1_555
H3 C5 1_555 1_555
C6 C5 1_555 1_555
H4 C6 1_555 1_555
C7 C6 1_555 1_555
H5 C7 1_555 1_555
C8 C7 1_555 1_555
H6 C8 1_555 1_555
C9 N5 1_555 1_555
C10 N2 1_555 1_555
C11 C10 1_555 1_555
H7 C11 1_555 1_555
C12 C11 1_555 1_555
H8 C12 1_555 1_555
C13 C12 1_555 1_555
C14 C13 1_555 1_555
H9 C14 1_555 1_555
C15 C10 1_555 1_555
H10 C15 1_555 1_555
C16 C13 1_555 1_555
H11 C16 1_555 1_555
H12 C16 1_555 1_555
H13 C16 1_555 1_555
H14 N1 1_555 1_555
H15 N1 1_555 1_555
H16 N4 1_555 1_555
H17 N3 1_555 1_555
O2 H18 1_555 1_555
H19 O2 1_555 1_555
C4 C9 1_555 1_555
C8 C9 1_555 1_555
C14 C15 1_555 1_555

#END
