
#######################################################################
#
#                 Cambridge Crystallographic Data Centre
#                                CCDC 
#
#######################################################################
#
# If this CIF has been generated from an entry in the Cambridge 
# Structural Database, then it will include bibliographic, chemical, 
# crystal, experimental, refinement or atomic coordinate data resulting 
# from the CCDC's data processing and validation procedures.
#
#######################################################################

data_PUZHAV
_chemical_formula_moiety         'C30 H27 N3 O2'
_chemical_name_systematic        
2-Amino-4-(4-(bis(4-methylphenyl)amino)phenyl)-5-oxo-5,6,7,8-tetrahydro-4H-chromene-3-carbonitrile
_symmetry_cell_setting           triclinic
_symmetry_space_group_name_H-M   'P -1'
_symmetry_Int_Tables_number      2
_space_group_name_Hall           '-P 1'
loop_
_symmetry_equiv_pos_site_id
_symmetry_equiv_pos_as_xyz
1 x,y,z
2 -x,-y,-z
_cell_length_a                   6.8328(3)
_cell_length_b                   7.7158(4)
_cell_length_c                   23.8029(13)
_cell_angle_alpha                88.727(4)
_cell_angle_beta                 83.460(4)
_cell_angle_gamma                80.562(4)
_cell_volume                     1229.85
_exptl_crystal_colour            colorless
_exptl_crystal_description       block
_cell_formula_units_Z            2
loop_
_atom_site_label
_atom_site_type_symbol
_atom_site_fract_x
_atom_site_fract_y
_atom_site_fract_z
C1 C 0.3365(3) 0.6565(3) 0.44945(9)
C2 C 0.5345(3) 0.6491(3) 0.43477(9)
C3 C 0.6560(3) 0.5164(3) 0.39274(8)
H1 H 0.7757 0.4615 0.4095
C4 C 0.5341(3) 0.3760(3) 0.38417(9)
C5 C 0.3386(3) 0.3920(3) 0.40031(9)
C6 C 0.2058(4) 0.2676(3) 0.38846(11)
H2 H 0.1254 0.3163 0.3591
H3 H 0.1161 0.2532 0.4222
C7 C 0.3176(4) 0.0935(4) 0.37025(17)
H4 H 0.3418 0.0231 0.4038
H5 H 0.2331 0.0360 0.3492
C8 C 0.5076(4) 0.0923(4) 0.33579(13)
H6 H 0.4816 0.1217 0.2972
H7 H 0.5822 -0.0260 0.3356
C9 C 0.6352(4) 0.2152(3) 0.35434(10)
C10 C 0.6361(3) 0.7717(3) 0.45743(9)
C11 C 0.7228(3) 0.6018(3) 0.33704(9)
C12 C 0.6065(4) 0.6250(3) 0.29272(9)
H8 H 0.4819 0.5897 0.2972
C13 C 0.6701(4) 0.6989(3) 0.24195(10)
H9 H 0.5873 0.7146 0.2132
C14 C 0.8575(4) 0.7503(3) 0.23351(10)
C15 C 0.9718(4) 0.7329(3) 0.27818(10)
H10 H 1.0952 0.7705 0.2740
C16 C 0.9053(3) 0.6604(3) 0.32899(9)
H11 H 0.9849 0.6506 0.3585
C17 C 0.8747(4) 0.7748(4) 0.12938(10)
C18 C 0.8419(5) 0.6066(4) 0.11949(12)
H12 H 0.8575 0.5212 0.1476
C19 C 0.7861(6) 0.5646(6) 0.06817(14)
H13 H 0.7620 0.4513 0.0628
C20 C 0.7649(6) 0.6838(7) 0.02490(14)
C21 C 0.8023(6) 0.8495(6) 0.03474(14)
H14 H 0.7908 0.9330 0.0060
C22 C 0.8560(5) 0.8962(5) 0.08552(13)
H15 H 0.8800 1.0098 0.0906
C23 C 0.7009(8) 0.6341(9) -0.03053(17)
H16 H 0.6830 0.5132 -0.0291
H17 H 0.8016 0.6506 -0.0608
H18 H 0.5773 0.7071 -0.0368
C24 C 1.0494(4) 0.9573(3) 0.18259(10)
C25 C 1.2368(5) 0.9405(4) 0.15287(13)
H19 H 1.2885 0.8395 0.1320
C26 C 1.3477(5) 1.0753(5) 0.15437(14)
H20 H 1.4735 1.0636 0.1339
C27 C 1.2772(5) 1.2259(4) 0.18526(13)
C28 C 1.0921(5) 1.2381(4) 0.21511(13)
H21 H 1.0413 1.3378 0.2367
C29 C 0.9800(5) 1.1067(4) 0.21395(11)
H22 H 0.8547 1.1187 0.2347
C30 C 1.3990(7) 1.3731(6) 0.18457(17)
H23 H 1.3273 1.4673 0.2081
H24 H 1.4227 1.4153 0.1466
H25 H 1.5244 1.3302 0.1986
N1 N 0.2137(3) 0.7698(3) 0.48453(9)
H26 H 0.2597 0.8506 0.5008
H27 H 0.0891 0.7618 0.4907
N2 N 0.7266(4) 0.8672(3) 0.47487(10)
N3 N 0.9304(4) 0.8215(3) 0.18159(9)
O1 O 0.2336(2) 0.53667(19) 0.43015(7)
O2 O 0.8159(3) 0.1883(2) 0.34449(9)
loop_
_geom_bond_atom_site_label_1
_geom_bond_atom_site_label_2
_geom_bond_site_symmetry_1
_geom_bond_site_symmetry_2
C1 C2 1_555 1_555
C2 C3 1_555 1_555
C3 H1 1_555 1_555
C4 C3 1_555 1_555
C5 C4 1_555 1_555
C6 C5 1_555 1_555
H2 C6 1_555 1_555
H3 C6 1_555 1_555
C7 C6 1_555 1_555
H4 C7 1_555 1_555
H5 C7 1_555 1_555
C8 C7 1_555 1_555
H6 C8 1_555 1_555
H7 C8 1_555 1_555
C9 C4 1_555 1_555
C10 C2 1_555 1_555
C11 C3 1_555 1_555
C12 C11 1_555 1_555
H8 C12 1_555 1_555
C13 C12 1_555 1_555
H9 C13 1_555 1_555
C14 C13 1_555 1_555
C15 C14 1_555 1_555
H10 C15 1_555 1_555
C16 C11 1_555 1_555
H11 C16 1_555 1_555
C17 C18 1_555 1_555
C18 H12 1_555 1_555
C19 C18 1_555 1_555
H13 C19 1_555 1_555
C20 C19 1_555 1_555
C21 C20 1_555 1_555
H14 C21 1_555 1_555
C22 C17 1_555 1_555
H15 C22 1_555 1_555
C23 C20 1_555 1_555
H16 C23 1_555 1_555
H17 C23 1_555 1_555
H18 C23 1_555 1_555
C24 C25 1_555 1_555
C25 H19 1_555 1_555
C26 C25 1_555 1_555
H20 C26 1_555 1_555
C27 C26 1_555 1_555
C28 C27 1_555 1_555
H21 C28 1_555 1_555
C29 C24 1_555 1_555
H22 C29 1_555 1_555
C30 C27 1_555 1_555
H23 C30 1_555 1_555
H24 C30 1_555 1_555
H25 C30 1_555 1_555
N1 C1 1_555 1_555
H26 N1 1_555 1_555
H27 N1 1_555 1_555
N2 C10 1_555 1_555
N3 C14 1_555 1_555
O1 C1 1_555 1_555
O2 C9 1_555 1_555
C5 O1 1_555 1_555
C8 C9 1_555 1_555
C15 C16 1_555 1_555
C17 N3 1_555 1_555
C21 C22 1_555 1_555
C24 N3 1_555 1_555
C28 C29 1_555 1_555

#END
