
#######################################################################
#
#                 Cambridge Crystallographic Data Centre
#                                CCDC 
#
#######################################################################
#
# If this CIF has been generated from an entry in the Cambridge 
# Structural Database, then it will include bibliographic, chemical, 
# crystal, experimental, refinement or atomic coordinate data resulting 
# from the CCDC's data processing and validation procedures.
#
#######################################################################

data_PUZHAT
_chemical_formula_moiety         
'2(C22 H18 N2 O4 S2),H4 N1 1+,F6 P1 1-,3(C1 H2 Cl2)'
_chemical_name_systematic        
'bis(1,7(1,2)-Dibenzena-4,10(2,4)-dithiazola-2,6,8,12-tetraoxacyclododecaphane) ammonium hexafluorophosphate dichloromethane solvate'
_symmetry_cell_setting           monoclinic
_symmetry_space_group_name_H-M   'P 21/n'
_symmetry_Int_Tables_number      14
_space_group_name_Hall           '-P 2yn'
loop_
_symmetry_equiv_pos_site_id
_symmetry_equiv_pos_as_xyz
1 x,y,z
2 1/2+x,1/2-y,1/2+z
3 -x,-y,-z
4 1/2-x,1/2+y,1/2-z
_cell_length_a                   14.8593(3)
_cell_length_b                   24.7893(5)
_cell_length_c                   16.6228(3)
_cell_angle_alpha                90
_cell_angle_beta                 114.5940(10)
_cell_angle_gamma                90
_cell_volume                     5567.55
_exptl_crystal_colour            colorless
_exptl_crystal_description       block
_chemical_melting_point          '226-227 deg.C'
_cell_formula_units_Z            4
loop_
_atom_site_label
_atom_site_type_symbol
_atom_site_fract_x
_atom_site_fract_y
_atom_site_fract_z
C1 C 0.1769(6) 0.0490(3) 0.5509(5)
C2 C 0.0933(6) 0.0690(3) 0.5623(5)
C3 C 0.0488(6) 0.0375(3) 0.6031(6)
H1 H -0.0085(6) 0.0502(3) 0.6091(6)
C4 C 0.0876(7) -0.0130(3) 0.6359(6)
H2 H 0.0573(7) -0.0342(3) 0.6654(6)
C5 C 0.1694(6) -0.0327(3) 0.6262(6)
H3 H 0.1953(6) -0.0672(3) 0.6488(6)
C6 C 0.2145(6) -0.0011(3) 0.5823(6)
H4 H 0.2703(6) -0.0144(3) 0.5747(6)
C7 C 0.3018(6) 0.0688(3) 0.5016(5)
H5 H 0.2915(6) 0.0347(3) 0.4679(5)
H6 H 0.3563(6) 0.0636(3) 0.5609(5)
C8 C 0.3244(5) 0.1136(3) 0.4542(4)
C9 C 0.3720(6) 0.1682(5) 0.3642(8)
H7 H 0.3912(6) 0.1845(5) 0.3220(8)
C10 C 0.3695(5) 0.1963(3) 0.4351(5)
C11 C 0.3835(3) 0.25481(14) 0.4499(2)
H8 H 0.4384(3) 0.26231(14) 0.5081(2)
H9 H 0.3991(3) 0.27174(14) 0.4032(2)
C12 C 0.2793(3) 0.33029(14) 0.4473(2)
C13 C 0.1861(3) 0.34700(14) 0.4378(2)
C14 C 0.1642(3) 0.40170(14) 0.4342(2)
H10 H 0.1005(3) 0.41312(14) 0.4277(2)
C15 C 0.2355(3) 0.43969(14) 0.4401(2)
H11 H 0.2205(3) 0.47707(14) 0.4376(2)
C16 C 0.3287(3) 0.42299(14) 0.4496(2)
H12 H 0.3774(3) 0.44896(14) 0.4536(2)
C17 C 0.3506(3) 0.36829(14) 0.4532(2)
H13 H 0.4143(3) 0.35687(14) 0.4597(2)
C18 C 0.0290(6) 0.3212(3) 0.4332(5)
H14 H -0.0088(6) 0.3430(3) 0.3797(5)
H15 H 0.0380(6) 0.3428(3) 0.4861(5)
C19 C -0.0241(4) 0.2703(3) 0.4317(4)
C20 C -0.1176(9) 0.2567(5) 0.3683(9)
H16 H -0.1562(9) 0.2786(5) 0.3190(9)
C21 C -0.0459(5) 0.1910(3) 0.4815(4)
C22 C -0.0208(6) 0.1416(3) 0.5372(5)
H17 H -0.0021(6) 0.1507(3) 0.6001(5)
H18 H -0.0775(6) 0.1163(3) 0.5173(5)
N1 N 0.3434(4) 0.1639(3) 0.4869(4)
N2 N 0.0165(4) 0.2320(3) 0.4967(4)
S1 S 0.3382(3) 0.1027(2) 0.3585(2)
S2 S -0.1536(2) 0.19555(14) 0.3910(2)
O1 O 0.0612(4) 0.1186(2) 0.5253(4)
O2 O 0.1232(4) 0.3060(2) 0.4355(4)
O3 O 0.2908(4) 0.2756(2) 0.4469(4)
O4 O 0.2136(2) 0.08467(13) 0.5087(2)
C23 C 0.5992(2) 0.16537(13) 0.1687(2)
C24 C 0.6704(2) 0.13164(13) 0.1617(2)
C25 C 0.6440(2) 0.08058(13) 0.1248(2)
H19 H 0.6926(2) 0.05753(13) 0.1201(2)
C26 C 0.5465(2) 0.06324(13) 0.0949(2)
H20 H 0.5284(2) 0.02834(13) 0.0697(2)
C27 C 0.4753(2) 0.09697(13) 0.1019(2)
H21 H 0.4087(2) 0.08512(13) 0.0814(2)
C28 C 0.5017(2) 0.14803(13) 0.1388(2)
H22 H 0.4531(2) 0.17108(13) 0.1435(2)
C29 C 0.5648(6) 0.2481(4) 0.2241(6)
H23 H 0.5332(6) 0.2285(4) 0.2575(6)
H24 H 0.5127(6) 0.2602(4) 0.1670(6)
C30 C 0.6227(5) 0.2949(3) 0.2760(5)
C31 C 0.7107(8) 0.3570(5) 0.3832(10)
H25 H 0.7422(8) 0.3785(5) 0.4347(10)
C32 C 0.7212(5) 0.3675(3) 0.3049(5)
C33 C 0.7821(2) 0.40944(12) 0.2862(2)
H26 H 0.7394(2) 0.43597(12) 0.2425(2)
H27 H 0.8247(2) 0.42876(12) 0.3410(2)
C34 C 0.9136(2) 0.40822(12) 0.2395(2)
C35 C 0.9766(2) 0.37725(12) 0.2156(2)
C36 C 1.0524(2) 0.40184(12) 0.2008(2)
H28 H 1.0955(2) 0.38067(12) 0.1845(2)
C37 C 1.0652(2) 0.45740(12) 0.2098(2)
H29 H 1.1170(2) 0.47420(12) 0.1997(2)
C38 C 1.0022(2) 0.48838(12) 0.2337(2)
H30 H 1.0109(2) 0.52636(12) 0.2398(2)
C39 C 0.9264(2) 0.46379(12) 0.2485(2)
H31 H 0.8833(2) 0.48496(12) 0.2648(2)
C40 C 1.0358(6) 0.2887(3) 0.2073(5)
H32 H 1.1022(6) 0.3005(3) 0.2499(5)
H33 H 1.0333(6) 0.2904(3) 0.1469(5)
C41 C 1.0158(5) 0.2335(3) 0.2277(4)
C42 C 1.0836(12) 0.2027(5) 0.2969(8)
H34 H 1.1480(12) 0.2140(5) 0.3362(8)
C43 C 0.9274(5) 0.1591(3) 0.2122(4)
C44 C 0.8382(6) 0.1235(3) 0.1765(5)
H35 H 0.8183(6) 0.1159(3) 0.1130(5)
H36 H 0.8512(6) 0.0889(3) 0.2092(5)
N3 N 0.6683(4) 0.3299(3) 0.2440(4)
N4 N 0.9277(4) 0.2080(2) 0.1808(4)
S3 S 0.6383(3) 0.3034(2) 0.3806(3)
S4 S 1.0326(3) 0.1417(2) 0.2994(3)
O5 O 0.6350(4) 0.2139(2) 0.2096(4)
O6 O 0.8402(4) 0.3804(2) 0.2518(3)
O7 O 0.9602(3) 0.3226(2) 0.2138(3)
O8 O 0.7620(4) 0.1541(2) 0.1899(4)
N5 N 0.2397(5) 0.2141(3) 0.5976(4)
H37 H 0.2758(36) 0.2489(12) 0.6178(35)
H38 H 0.2687(38) 0.1932(19) 0.5629(32)
H39 H 0.2444(41) 0.1924(19) 0.6498(23)
H40 H 0.1686(14) 0.2223(22) 0.5597(31)
F1 F 0.3247(5) 0.3127(3) 0.1001(5)
F2 F 0.1805(6) 0.2754(4) 0.0844(6)
F3 F 0.2416(6) 0.3414(4) 0.1758(5)
F4 F 0.3253(6) 0.2306(4) 0.1530(8)
F5 F 0.3870(6) 0.2964(5) 0.2453(6)
F6 F 0.2431(7) 0.2592(5) 0.2279(8)
P1 P 0.2837(2) 0.2858(2) 0.1633(3)
C45 C 0.9096(14) 0.0638(6) 0.7697(8)
H41 H 0.9294(14) 0.0963(6) 0.7466(8)
H42 H 0.8636(14) 0.0750(6) 0.7958(8)
Cl1 Cl 0.8503(3) 0.0175(3) 0.6829(3)
Cl2 Cl 1.0142(4) 0.0330(5) 0.8505(5)
C46 C 0.6289(10) 0.1164(4) 0.4783(6)
H43 H 0.7004(10) 0.1187(4) 0.5175(6)
H44 H 0.5952(10) 0.1468(4) 0.4930(6)
Cl3 Cl 0.6121(2) 0.12237(11) 0.3666(2)
Cl4 Cl 0.5818(2) 0.05544(14) 0.4977(2)
C47 C 0.1256(41) 0.1010(11) 0.1411(48)
H45 H 0.1383(41) 0.1047(11) 0.2042(48)
H46 H 0.0580(41) 0.0864(11) 0.1088(48)
Cl5 Cl 0.2118(16) 0.0566(5) 0.1311(11)
Cl6 Cl 0.1340(8) 0.1645(4) 0.0980(9)
C48? C 0.1827(13) 0.1261(9) 0.1448(23)
H47? H 0.1905(13) 0.1371(9) 0.2046(23)
H48? H 0.1826(13) 0.1591(9) 0.1111(23)
Cl7? Cl 0.0721(9) 0.0913(13) 0.0912(19)
Cl8? Cl 0.2803(7) 0.0841(6) 0.1527(8)
S5? S 0.3786(6) 0.1683(4) 0.3481(5)
C49? C 0.3384(7) 0.1102(8) 0.3762(9)
H49? H 0.3266(7) 0.0782(8) 0.3419(9)
S6? S -0.1377(5) 0.2570(4) 0.3529(5)
C50? C -0.1337(12) 0.1974(7) 0.4050(8)
H50? H -0.1853(12) 0.1714(7) 0.3847(8)
S7? S 0.7198(4) 0.3624(2) 0.4057(3)
C51? C 0.6440(8) 0.3083(5) 0.3637(9)
H51? H 0.6178(8) 0.2884(5) 0.3979(9)
S8? S 1.0983(4) 0.1959(2) 0.3127(3)
C52? C 1.0152(9) 0.1446(7) 0.2846(8)
H52? H 1.0264(9) 0.1107(7) 0.3138(8)
loop_
_geom_bond_atom_site_label_1
_geom_bond_atom_site_label_2
_geom_bond_site_symmetry_1
_geom_bond_site_symmetry_2
C1 C2 1_555 1_555
C2 C3 1_555 1_555
C3 H1 1_555 1_555
C4 C3 1_555 1_555
H2 C4 1_555 1_555
C5 C4 1_555 1_555
H3 C5 1_555 1_555
C6 C1 1_555 1_555
H4 C6 1_555 1_555
C7 H5 1_555 1_555
H6 C7 1_555 1_555
C8 C7 1_555 1_555
C9 H7 1_555 1_555
C10 C9 1_555 1_555
C11 C10 1_555 1_555
H8 C11 1_555 1_555
H9 C11 1_555 1_555
C12 C13 1_555 1_555
C13 C14 1_555 1_555
C14 H10 1_555 1_555
C15 C14 1_555 1_555
H11 C15 1_555 1_555
C16 C15 1_555 1_555
H12 C16 1_555 1_555
C17 C12 1_555 1_555
H13 C17 1_555 1_555
C18 H14 1_555 1_555
H15 C18 1_555 1_555
C19 C18 1_555 1_555
C20 C19 1_555 1_555
H16 C20 1_555 1_555
C21 C22 1_555 1_555
C22 H17 1_555 1_555
H18 C22 1_555 1_555
N1 C8 1_555 1_555
N2 C19 1_555 1_555
S1 C8 1_555 1_555
S2 C20 1_555 1_555
O1 C2 1_555 1_555
O2 C13 1_555 1_555
O3 C11 1_555 1_555
O4 C1 1_555 1_555
C23 C24 1_555 1_555
C24 C25 1_555 1_555
C25 H19 1_555 1_555
C26 C25 1_555 1_555
H20 C26 1_555 1_555
C27 C26 1_555 1_555
H21 C27 1_555 1_555
C28 C23 1_555 1_555
H22 C28 1_555 1_555
C29 H23 1_555 1_555
H24 C29 1_555 1_555
C30 C29 1_555 1_555
C31 H25 1_555 1_555
C32 C31 1_555 1_555
C33 C32 1_555 1_555
H26 C33 1_555 1_555
H27 C33 1_555 1_555
C34 C35 1_555 1_555
C35 C36 1_555 1_555
C36 H28 1_555 1_555
C37 C36 1_555 1_555
H29 C37 1_555 1_555
C38 C37 1_555 1_555
H30 C38 1_555 1_555
C39 C34 1_555 1_555
H31 C39 1_555 1_555
C40 H32 1_555 1_555
H33 C40 1_555 1_555
C41 C40 1_555 1_555
C42 C41 1_555 1_555
H34 C42 1_555 1_555
C43 C44 1_555 1_555
C44 H35 1_555 1_555
H36 C44 1_555 1_555
N3 C30 1_555 1_555
N4 C41 1_555 1_555
S3 C30 1_555 1_555
S4 C42 1_555 1_555
O5 C23 1_555 1_555
O6 C33 1_555 1_555
O7 C35 1_555 1_555
O8 C24 1_555 1_555
N5 H37 1_555 1_555
H38 N5 1_555 1_555
H39 N5 1_555 1_555
H40 N5 1_555 1_555
F1 P1 1_555 1_555
F2 P1 1_555 1_555
F3 P1 1_555 1_555
F4 P1 1_555 1_555
F5 P1 1_555 1_555
F6 P1 1_555 1_555
C45 H41 1_555 1_555
H42 C45 1_555 1_555
Cl1 C45 1_555 1_555
Cl2 C45 1_555 1_555
C46 H43 1_555 1_555
H44 C46 1_555 1_555
Cl3 C46 1_555 1_555
Cl4 C46 1_555 1_555
C47 H45 1_555 1_555
H46 C47 1_555 1_555
Cl5 C47 1_555 1_555
Cl6 C47 1_555 1_555
C5 C6 1_555 1_555
C7 O4 1_555 1_555
C9 S1 1_555 1_555
C10 N1 1_555 1_555
C12 O3 1_555 1_555
C16 C17 1_555 1_555
C18 O2 1_555 1_555
C21 S2 1_555 1_555
C21 N2 1_555 1_555
C22 O1 1_555 1_555
C27 C28 1_555 1_555
C29 O5 1_555 1_555
C31 S3 1_555 1_555
C32 N3 1_555 1_555
C34 O6 1_555 1_555
C38 C39 1_555 1_555
C40 O7 1_555 1_555
C43 S4 1_555 1_555
C43 N4 1_555 1_555
C44 O8 1_555 1_555

#END
