
#######################################################################
#
#                 Cambridge Crystallographic Data Centre
#                                CCDC 
#
#######################################################################
#
# If this CIF has been generated from an entry in the Cambridge 
# Structural Database, then it will include bibliographic, chemical, 
# crystal, experimental, refinement or atomic coordinate data resulting 
# from the CCDC's data processing and validation procedures.
#
#######################################################################

data_PUZLED
_chemical_formula_moiety         'C18 H15 N1 O4'
_chemical_name_systematic        
1-Acetyl-3-hydroxy-3-(2-oxo-2-phenylethyl)-1,3-dihydro-2H-indol-2-one
_symmetry_cell_setting           monoclinic
_symmetry_space_group_name_H-M   'P 21/c'
_symmetry_Int_Tables_number      14
_space_group_name_Hall           '-P 2ybc'
loop_
_symmetry_equiv_pos_site_id
_symmetry_equiv_pos_as_xyz
1 x,y,z
2 -x,1/2+y,1/2-z
3 -x,-y,-z
4 x,1/2-y,1/2+z
_cell_length_a                   11.1239(3)
_cell_length_b                   8.9956(2)
_cell_length_c                   15.6586(4)
_cell_angle_alpha                90
_cell_angle_beta                 105.218(2)
_cell_angle_gamma                90
_cell_volume                     1511.95
_exptl_crystal_colour            colorless
_exptl_crystal_description       block
_cell_formula_units_Z            4
loop_
_atom_site_label
_atom_site_type_symbol
_atom_site_fract_x
_atom_site_fract_y
_atom_site_fract_z
O1 O 0.72612(10) 0.37452(13) 0.92232(9)
O2 O 0.84586(10) -0.01859(13) 1.05432(7)
H1 H 0.7953 -0.0775 1.0647
O3 O 0.70509(11) 0.22510(16) 1.10666(8)
O4 O 0.35815(10) 0.19296(15) 0.92593(8)
N1 N 0.56556(10) 0.15537(13) 0.97351(8)
C1 C 0.88350(13) 0.20055(17) 0.98494(10)
H2 H 0.9308 0.2332 1.0431
H3 H 0.9401 0.1481 0.9578
C2 C 0.57834(13) 0.07091(15) 0.89875(9)
C3 C 0.78187(12) 0.09336(16) 0.99542(9)
C4 C 0.83301(13) 0.33520(16) 0.92954(9)
C5 C 0.73896(16) -0.04961(18) 0.84702(11)
H4 H 0.8222 -0.0749 0.8546
C6 C 0.70266(13) 0.03316(15) 0.90985(9)
C7 C 0.91471(13) 0.41922(16) 0.88501(9)
C8 C 0.68480(13) 0.17052(17) 1.03452(9)
C9 C 0.45578(14) 0.22117(17) 0.98115(11)
C10 C 0.4605(2) 0.3254(2) 1.05570(13)
H5 H 0.3828 0.3779 1.0454
H6 H 0.5270 0.3953 1.0598
H7 H 0.4747 0.2704 1.1100
C11 C 1.04178(14) 0.39253(17) 0.90172(10)
H8 H 1.0790 0.3190 0.9417
C12 C 0.9321(2) 0.6100(2) 0.78171(12)
H9 H 0.8952 0.6826 0.7409
C13 C 1.05861(19) 0.5819(2) 0.79839(12)
H10 H 1.1066 0.6353 0.7686
C14 C 1.11307(17) 0.4754(2) 0.85877(13)
H11 H 1.1984 0.4587 0.8710
C15 C 0.64924(19) -0.0945(2) 0.77228(11)
H12 H 0.6721 -0.1509 0.7293
C16 C 0.48781(15) 0.02689(18) 0.82438(10)
H13 H 0.4045 0.0518 0.8168
C17 C 0.86110(16) 0.5303(2) 0.82560(11)
H14 H 0.7766 0.5511 0.8154
C18 C 0.52600(18) -0.0560(2) 0.76138(11)
H15 H 0.4670 -0.0863 0.7105
loop_
_geom_bond_atom_site_label_1
_geom_bond_atom_site_label_2
_geom_bond_site_symmetry_1
_geom_bond_site_symmetry_2
O1 C4 1_555 1_555
O2 H1 1_555 1_555
O3 C8 1_555 1_555
O4 C9 1_555 1_555
N1 C2 1_555 1_555
C1 H2 1_555 1_555
H3 C1 1_555 1_555
C2 C6 1_555 1_555
C3 O2 1_555 1_555
C4 C1 1_555 1_555
C5 H4 1_555 1_555
C6 C3 1_555 1_555
C7 C4 1_555 1_555
C8 N1 1_555 1_555
C9 N1 1_555 1_555
C10 C9 1_555 1_555
H5 C10 1_555 1_555
H6 C10 1_555 1_555
H7 C10 1_555 1_555
C11 C7 1_555 1_555
H8 C11 1_555 1_555
C12 H9 1_555 1_555
C13 C12 1_555 1_555
H10 C13 1_555 1_555
C14 C11 1_555 1_555
H11 C14 1_555 1_555
C15 C5 1_555 1_555
H12 C15 1_555 1_555
C16 C2 1_555 1_555
H13 C16 1_555 1_555
C17 C7 1_555 1_555
H14 C17 1_555 1_555
C18 C15 1_555 1_555
H15 C18 1_555 1_555
C1 C3 1_555 1_555
C3 C8 1_555 1_555
C5 C6 1_555 1_555
C12 C17 1_555 1_555
C13 C14 1_555 1_555
C16 C18 1_555 1_555

#END
