
#######################################################################
#
#                 Cambridge Crystallographic Data Centre
#                                CCDC 
#
#######################################################################
#
# If this CIF has been generated from an entry in the Cambridge 
# Structural Database, then it will include bibliographic, chemical, 
# crystal, experimental, refinement or atomic coordinate data resulting 
# from the CCDC's data processing and validation procedures.
#
#######################################################################

data_PUZLIH
_chemical_formula_moiety         'C20 H25 N1 O2'
_chemical_name_systematic        
4-((2-Methylcyclohexyl)oxy)-6-(2-phenylethyl)pyridin-2(1H)-one
_symmetry_cell_setting           orthorhombic
_symmetry_space_group_name_H-M   'P 21 21 21'
_symmetry_Int_Tables_number      19
_space_group_name_Hall           'P 2ac 2ab'
loop_
_symmetry_equiv_pos_site_id
_symmetry_equiv_pos_as_xyz
1 x,y,z
2 1/2-x,-y,1/2+z
3 1/2+x,1/2-y,-z
4 -x,1/2+y,1/2-z
_cell_length_a                   11.71049(13)
_cell_length_b                   11.80555(11)
_cell_length_c                   52.7036(5)
_cell_angle_alpha                90
_cell_angle_beta                 90
_cell_angle_gamma                90
_cell_volume                     7286.21
_exptl_crystal_colour            colorless
_exptl_crystal_description       block
_chemical_melting_point          '159 deg.C'
_cell_formula_units_Z            16
loop_
_atom_site_label
_atom_site_type_symbol
_atom_site_fract_x
_atom_site_fract_y
_atom_site_fract_z
C1 C 0.72397(18) 0.34754(18) 0.02180(4)
C2 C 0.69132(19) 0.24295(17) 0.03337(4)
H1 H 0.7342 0.2143 0.0473
C3 C 0.5990(2) 0.18375(19) 0.02465(5)
C4 C 0.5325(2) 0.2279(2) 0.00436(5)
H2 H 0.4680 0.1872 -0.0017
C5 C 0.5617(2) 0.32847(19) -0.00627(4)
C6 C 0.4975(2) 0.3822(2) -0.02767(5)
H3 H 0.4842 0.4631 -0.0237
H4 H 0.4222 0.3449 -0.0294
C7 C 0.5622(4) 0.3727(3) -0.05264(5)
H5 H 0.6335 0.4176 -0.0515
H6 H 0.5836 0.2926 -0.0555
C8 C 0.4928(3) 0.4143(2) -0.07488(5)
C9 C 0.4294(5) 0.3415(3) -0.08957(7)
H7 H 0.4275 0.2631 -0.0855
C10 C 0.3678(5) 0.3812(3) -0.11041(7)
H8 H 0.3250 0.3298 -0.1205
C11 C 0.3690(3) 0.4923(3) -0.11628(6)
H9 H 0.3293 0.5191 -0.1308
C12 C 0.4274(3) 0.5655(3) -0.10124(6)
H10 H 0.4253 0.6443 -0.1049
C13 C 0.4898(3) 0.5272(2) -0.08073(5)
H11 H 0.5311 0.5797 -0.0706
C14 C 0.6049(2) 0.03107(19) 0.05606(5)
H12 H 0.6814 0.0634 0.0604
C15 C 0.5208(3) 0.0540(3) 0.07750(7)
H13 H 0.5194 0.1362 0.0812
H14 H 0.4432 0.0311 0.0721
C16 C 0.5535(3) -0.0108(3) 0.10139(6)
H15 H 0.6282 0.0169 0.1077
H16 H 0.4958 0.0029 0.1148
C17 C 0.5610(3) -0.1353(3) 0.09600(6)
H17 H 0.4847 -0.1643 0.0912
H18 H 0.5861 -0.1758 0.1115
C18 C 0.6443(3) -0.1577(2) 0.07478(5)
H19 H 0.6453 -0.2400 0.0712
H20 H 0.7218 -0.1358 0.0804
C19 C 0.6161(2) -0.09404(19) 0.05035(4)
H21 H 0.5409 -0.1220 0.0439
C20 C 0.7061(3) -0.1179(3) 0.03036(6)
H22 H 0.6883 -0.0752 0.0149
H23 H 0.7070 -0.1991 0.0265
H24 H 0.7812 -0.0948 0.0367
N1 N 0.65534(15) 0.38501(15) 0.00227(4)
O1 O 0.80898(13) 0.40516(13) 0.02816(3)
O2 O 0.5620(2) 0.08300(17) 0.03307(4)
H25 H 0.675(2) 0.452(3) -0.0053(5)
C21 C 0.38975(18) 0.46837(16) 0.23316(4)
C22 C 0.49529(18) 0.43354(16) 0.22202(4)
H26 H 0.5261 0.4749 0.2082
C23 C 0.55248(17) 0.34051(17) 0.23124(4)
C24 C 0.50734(18) 0.27760(16) 0.25182(4)
H27 H 0.5466 0.2131 0.2581
C25 C 0.40737(18) 0.31092(16) 0.26236(4)
C26 C 0.35404(19) 0.25138(17) 0.28440(4)
H28 H 0.3855 0.1737 0.2855
H29 H 0.2708 0.2450 0.2815
C27 C 0.3748(2) 0.3128(2) 0.30965(4)
H30 H 0.4573 0.3284 0.3117
H31 H 0.3337 0.3861 0.3096
C28 C 0.3336(2) 0.2413(2) 0.33138(4)
C29 C 0.3993(2) 0.1518(2) 0.34019(5)
H32 H 0.4726 0.1392 0.3330
C30 C 0.3608(3) 0.0802(3) 0.35915(5)
H33 H 0.4077 0.0199 0.3650
C31 C 0.2550(3) 0.0967(3) 0.36946(5)
H34 H 0.2283 0.0481 0.3825
C32 C 0.1873(3) 0.1835(3) 0.36095(5)
H35 H 0.1134 0.1941 0.3680
C33 C 0.2265(2) 0.2567(2) 0.34193(5)
H36 H 0.1794 0.3171 0.3362
C34 C 0.71708(18) 0.36142(17) 0.20379(4)
H37 H 0.6657 0.3947 0.1906
C35 C 0.79981(18) 0.27848(18) 0.19149(4)
H38 H 0.8490 0.2461 0.2052
C36 C 0.8770(2) 0.3437(2) 0.17331(4)
H39 H 0.8301 0.3756 0.1594
H40 H 0.9328 0.2907 0.1657
C37 C 0.9415(2) 0.4397(2) 0.18646(5)
H41 H 0.9947 0.4076 0.1992
H42 H 0.9870 0.4820 0.1738
C38 C 0.8581(2) 0.5200(2) 0.19953(5)
H43 H 0.8114 0.5593 0.1866
H44 H 0.9013 0.5780 0.2091
C39 C 0.77999(19) 0.45521(18) 0.21763(4)
H45 H 0.8260 0.4222 0.2315
H46 H 0.7240 0.5081 0.2252
C40 C 0.7392(2) 0.1808(2) 0.17850(5)
H47 H 0.6908 0.2101 0.1648
H48 H 0.6918 0.1405 0.1909
H49 H 0.7959 0.1286 0.1714
N2 N 0.35145(15) 0.40331(14) 0.25322(3)
O3 O 0.33207(13) 0.55171(12) 0.22607(3)
O4 O 0.65057(13) 0.29753(12) 0.22193(3)
H50 H 0.288(3) 0.425(3) 0.2603(5)
C41 C 1.08744(18) 0.54433(17) 0.27127(4)
C42 C 0.98344(18) 0.57933(18) 0.28304(4)
H51 H 0.9529 0.5368 0.2967
C43 C 0.92752(18) 0.67407(19) 0.27462(4)
C44 C 0.97290(19) 0.73875(18) 0.25416(4)
H52 H 0.9339 0.8041 0.2482
C45 C 1.07272(18) 0.70579(17) 0.24328(4)
C46 C 1.1299(2) 0.76933(18) 0.22211(4)
H53 H 1.2126 0.7754 0.2258
H54 H 1.0984 0.8471 0.2213
C47 C 1.1137(2) 0.7119(2) 0.19626(4)
H55 H 1.1462 0.6346 0.1969
H56 H 1.0310 0.7051 0.1926
C48 C 1.1701(2) 0.7772(2) 0.17516(4)
C49 C 1.1110(2) 0.8577(2) 0.16136(5)
H57 H 1.0337 0.8736 0.1655
C50 C 1.1625(3) 0.9158(3) 0.14157(5)
H58 H 1.1204 0.9706 0.1323
C51 C 1.2744(3) 0.8939(3) 0.13543(5)
H59 H 1.3097 0.9327 0.1217
C52 C 1.3349(2) 0.8156(3) 0.14922(5)
H60 H 1.4126 0.8012 0.1452
C53 C 1.2835(2) 0.7575(2) 0.16902(4)
H61 H 1.3264 0.7037 0.1785
C54 C 0.7759(2) 0.6769(2) 0.30703(4)
H62 H 0.8187 0.6104 0.3139
C55 C 0.6546(2) 0.6442(2) 0.30100(4)
H63 H 0.6176 0.7093 0.2921
C56 C 0.5886(2) 0.6213(3) 0.32530(6)
H64 H 0.5081 0.6046 0.3210
H65 H 0.6208 0.5535 0.3337
C57 C 0.5919(3) 0.7185(3) 0.34347(7)
H66 H 0.5497 0.6984 0.3591
H67 H 0.5544 0.7853 0.3358
C58 C 0.7135(4) 0.7465(4) 0.34991(6)
H68 H 0.7497 0.6810 0.3584
H69 H 0.7155 0.8117 0.3617
C59 C 0.7804(3) 0.7759(4) 0.32570(6)
H70 H 0.7472 0.8442 0.3177
H71 H 0.8609 0.7926 0.3301
C60 C 0.6515(4) 0.5428(3) 0.28348(6)
H72 H 0.6983 0.5582 0.2685
H73 H 0.5725 0.5282 0.2783
H74 H 0.6816 0.4763 0.2924
N3 N 1.12604(16) 0.61080(14) 0.25157(3)
O5 O 1.14360(14) 0.45866(13) 0.27773(3)
O6 O 0.82882(15) 0.71711(17) 0.28383(3)
H75 H 1.187(2) 0.593(2) 0.2439(5)
C61 C 0.79722(17) 0.64522(17) -0.01735(4)
C62 C 0.83046(18) 0.74940(17) -0.02886(4)
H76 H 0.7897 0.7771 -0.0432
C63 C 0.92102(17) 0.80999(17) -0.01941(4)
C64 C 0.98300(17) 0.76947(17) 0.00188(4)
H77 H 1.0453 0.8116 0.0085
C65 C 0.95176(17) 0.66970(18) 0.01258(4)
C66 C 1.00898(18) 0.62058(19) 0.03547(4)
H78 H 1.0841 0.6576 0.0378
H79 H 1.0226 0.5388 0.0326
C67 C 0.9373(2) 0.6359(2) 0.05966(4)
H80 H 0.9197 0.7172 0.0620
H81 H 0.8642 0.5946 0.0578
C68 C 1.0002(2) 0.59211(19) 0.08259(4)
C69 C 1.0853(2) 0.6555(2) 0.09384(4)
H82 H 1.1034 0.7280 0.0872
C70 C 1.1449(3) 0.6153(3) 0.11468(5)
H83 H 1.2033 0.6601 0.1222
C71 C 1.1196(3) 0.5108(3) 0.12453(5)
H84 H 1.1597 0.4833 0.1389
C72 C 1.0359(3) 0.4460(3) 0.11346(6)
H85 H 1.0190 0.3732 0.1201
C73 C 0.9760(2) 0.4860(2) 0.09259(5)
H86 H 0.9181 0.4406 0.0851
C74 C 0.89918(18) 0.96739(18) -0.04837(4)
H87 H 0.8710 0.9113 -0.0611
C75 C 0.9819(2) 1.04925(18) -0.06106(4)
H88 H 1.0083 1.1045 -0.0479
C76 C 0.9166(3) 1.1154(2) -0.08140(5)
H89 H 0.9688 1.1708 -0.0894
H90 H 0.8905 1.0623 -0.0947
C77 C 0.8139(3) 1.1778(2) -0.07066(6)
H91 H 0.7722 1.2160 -0.0846
H92 H 0.8399 1.2364 -0.0585
C78 C 0.7344(2) 1.0953(2) -0.05720(6)
H93 H 0.7017 1.0418 -0.0697
H94 H 0.6707 1.1376 -0.0493
C79 C 0.7987(2) 1.02917(19) -0.03681(5)
H95 H 0.8261 1.0819 -0.0235
H96 H 0.7465 0.9739 -0.0287
C80 C 1.0863(3) 0.9901(2) -0.07172(6)
H97 H 1.1274 0.9520 -0.0580
H98 H 1.1365 1.0460 -0.0797
H99 H 1.0624 0.9340 -0.0844
N4 N 0.86150(15) 0.61040(15) 0.00307(3)
O7 O 0.71406(13) 0.58586(13) -0.02438(3)
O8 O 0.96175(13) 0.90891(13) -0.02870(3)
H100 H 0.841(2) 0.542(2) 0.0105(5)
loop_
_geom_bond_atom_site_label_1
_geom_bond_atom_site_label_2
_geom_bond_site_symmetry_1
_geom_bond_site_symmetry_2
C1 C2 1_555 1_555
C2 H1 1_555 1_555
C3 C2 1_555 1_555
C4 C3 1_555 1_555
H2 C4 1_555 1_555
C5 C4 1_555 1_555
C6 C5 1_555 1_555
H3 C6 1_555 1_555
H4 C6 1_555 1_555
C7 C6 1_555 1_555
H5 C7 1_555 1_555
H6 C7 1_555 1_555
C8 C7 1_555 1_555
C9 C8 1_555 1_555
H7 C9 1_555 1_555
C10 C9 1_555 1_555
H8 C10 1_555 1_555
C11 C10 1_555 1_555
H9 C11 1_555 1_555
C12 C11 1_555 1_555
H10 C12 1_555 1_555
C13 C8 1_555 1_555
H11 C13 1_555 1_555
C14 H12 1_555 1_555
C15 C14 1_555 1_555
H13 C15 1_555 1_555
H14 C15 1_555 1_555
C16 C15 1_555 1_555
H15 C16 1_555 1_555
H16 C16 1_555 1_555
C17 C16 1_555 1_555
H17 C17 1_555 1_555
H18 C17 1_555 1_555
C18 C17 1_555 1_555
H19 C18 1_555 1_555
H20 C18 1_555 1_555
C19 C14 1_555 1_555
H21 C19 1_555 1_555
C20 C19 1_555 1_555
H22 C20 1_555 1_555
H23 C20 1_555 1_555
H24 C20 1_555 1_555
N1 C1 1_555 1_555
O1 C1 1_555 1_555
O2 C3 1_555 1_555
H25 N1 1_555 1_555
C21 C22 1_555 1_555
C22 H26 1_555 1_555
C23 C22 1_555 1_555
C24 C23 1_555 1_555
H27 C24 1_555 1_555
C25 C24 1_555 1_555
C26 C25 1_555 1_555
H28 C26 1_555 1_555
H29 C26 1_555 1_555
C27 C26 1_555 1_555
H30 C27 1_555 1_555
H31 C27 1_555 1_555
C28 C27 1_555 1_555
C29 C28 1_555 1_555
H32 C29 1_555 1_555
C30 C29 1_555 1_555
H33 C30 1_555 1_555
C31 C30 1_555 1_555
H34 C31 1_555 1_555
C32 C31 1_555 1_555
H35 C32 1_555 1_555
C33 C28 1_555 1_555
H36 C33 1_555 1_555
C34 H37 1_555 1_555
C35 C34 1_555 1_555
H38 C35 1_555 1_555
C36 C35 1_555 1_555
H39 C36 1_555 1_555
H40 C36 1_555 1_555
C37 C36 1_555 1_555
H41 C37 1_555 1_555
H42 C37 1_555 1_555
C38 C37 1_555 1_555
H43 C38 1_555 1_555
H44 C38 1_555 1_555
C39 C34 1_555 1_555
H45 C39 1_555 1_555
H46 C39 1_555 1_555
C40 C35 1_555 1_555
H47 C40 1_555 1_555
H48 C40 1_555 1_555
H49 C40 1_555 1_555
N2 C21 1_555 1_555
O3 C21 1_555 1_555
O4 C23 1_555 1_555
H50 N2 1_555 1_555
C41 C42 1_555 1_555
C42 H51 1_555 1_555
C43 C42 1_555 1_555
C44 C43 1_555 1_555
H52 C44 1_555 1_555
C45 C44 1_555 1_555
C46 C45 1_555 1_555
H53 C46 1_555 1_555
H54 C46 1_555 1_555
C47 C46 1_555 1_555
H55 C47 1_555 1_555
H56 C47 1_555 1_555
C48 C47 1_555 1_555
C49 C48 1_555 1_555
H57 C49 1_555 1_555
C50 C49 1_555 1_555
H58 C50 1_555 1_555
C51 C50 1_555 1_555
H59 C51 1_555 1_555
C52 C51 1_555 1_555
H60 C52 1_555 1_555
C53 C48 1_555 1_555
H61 C53 1_555 1_555
C54 H62 1_555 1_555
C55 C54 1_555 1_555
H63 C55 1_555 1_555
C56 C55 1_555 1_555
H64 C56 1_555 1_555
H65 C56 1_555 1_555
C57 C56 1_555 1_555
H66 C57 1_555 1_555
H67 C57 1_555 1_555
C58 C57 1_555 1_555
H68 C58 1_555 1_555
H69 C58 1_555 1_555
C59 C54 1_555 1_555
H70 C59 1_555 1_555
H71 C59 1_555 1_555
C60 C55 1_555 1_555
H72 C60 1_555 1_555
H73 C60 1_555 1_555
H74 C60 1_555 1_555
N3 C41 1_555 1_555
O5 C41 1_555 1_555
O6 C43 1_555 1_555
H75 N3 1_555 1_555
C61 C62 1_555 1_555
C62 H76 1_555 1_555
C63 C62 1_555 1_555
C64 C63 1_555 1_555
H77 C64 1_555 1_555
C65 C64 1_555 1_555
C66 C65 1_555 1_555
H78 C66 1_555 1_555
H79 C66 1_555 1_555
C67 C66 1_555 1_555
H80 C67 1_555 1_555
H81 C67 1_555 1_555
C68 C67 1_555 1_555
C69 C68 1_555 1_555
H82 C69 1_555 1_555
C70 C69 1_555 1_555
H83 C70 1_555 1_555
C71 C70 1_555 1_555
H84 C71 1_555 1_555
C72 C71 1_555 1_555
H85 C72 1_555 1_555
C73 C68 1_555 1_555
H86 C73 1_555 1_555
C74 H87 1_555 1_555
C75 C74 1_555 1_555
H88 C75 1_555 1_555
C76 C75 1_555 1_555
H89 C76 1_555 1_555
H90 C76 1_555 1_555
C77 C76 1_555 1_555
H91 C77 1_555 1_555
H92 C77 1_555 1_555
C78 C77 1_555 1_555
H93 C78 1_555 1_555
H94 C78 1_555 1_555
C79 C74 1_555 1_555
H95 C79 1_555 1_555
H96 C79 1_555 1_555
C80 C75 1_555 1_555
H97 C80 1_555 1_555
H98 C80 1_555 1_555
H99 C80 1_555 1_555
N4 C61 1_555 1_555
O7 C61 1_555 1_555
O8 C63 1_555 1_555
H100 N4 1_555 1_555
C5 N1 1_555 1_555
C12 C13 1_555 1_555
C14 O2 1_555 1_555
C18 C19 1_555 1_555
C25 N2 1_555 1_555
C32 C33 1_555 1_555
C34 O4 1_555 1_555
C38 C39 1_555 1_555
C45 N3 1_555 1_555
C52 C53 1_555 1_555
C54 O6 1_555 1_555
C58 C59 1_555 1_555
C65 N4 1_555 1_555
C72 C73 1_555 1_555
C74 O8 1_555 1_555
C78 C79 1_555 1_555

#END
