
#######################################################################
#
#                 Cambridge Crystallographic Data Centre
#                                CCDC 
#
#######################################################################
#
# If this CIF has been generated from an entry in the Cambridge 
# Structural Database, then it will include bibliographic, chemical, 
# crystal, experimental, refinement or atomic coordinate data resulting 
# from the CCDC's data processing and validation procedures.
#
#######################################################################

data_PUZPOR
_chemical_formula_moiety         'C18 H26 O5'
_chemical_name_systematic        
'6-hydroxy-7-methoxy-2,2,9-trimethyl-12-oxatetracyclo[6.3.2.0^1,4^.0^5,13^]tridec-8-en-11-yl acetate'
_symmetry_cell_setting           triclinic
_symmetry_space_group_name_H-M   'P 1'
_symmetry_Int_Tables_number      1
_space_group_name_Hall           'P 1'
loop_
_symmetry_equiv_pos_site_id
_symmetry_equiv_pos_as_xyz
1 x,y,z
_cell_length_a                   8.2138(2)
_cell_length_b                   10.2617(2)
_cell_length_c                   11.1885(2)
_cell_angle_alpha                110.943(2)
_cell_angle_beta                 93.610(2)
_cell_angle_gamma                99.762(2)
_cell_volume                     860.139
_exptl_crystal_colour            colorless
_exptl_crystal_description       block
_cell_formula_units_Z            2
loop_
_atom_site_label
_atom_site_type_symbol
_atom_site_fract_x
_atom_site_fract_y
_atom_site_fract_z
O1 O 0.40377(18) 0.21279(13) 0.72375(13)
O2 O 0.69197(19) 0.37545(15) 0.94476(14)
O3 O 0.8739(2) 0.58440(18) 1.03598(17)
O4 O 0.3145(2) 0.2195(2) 0.34209(16)
C1 C 0.4896(3) 0.3054(2) 0.55179(19)
O5 O 0.2840(3) 0.54807(19) 0.58759(19)
H1 H 0.2543 0.5818 0.5356
C2 C 0.7145(3) 0.3549(2) 0.7292(2)
H2 H 0.8307 0.4033 0.7515
H3 H 0.7099 0.2550 0.7135
C3 C 0.6218(2) 0.41736(18) 0.84324(18)
H4 H 0.6422 0.5215 0.8715
C4 C 0.2960(3) 0.4208(2) 0.7731(2)
H5 H 0.3290 0.5230 0.7908
C5 C 0.6447(3) 0.3676(2) 0.6068(2)
C6 C 0.4350(2) 0.35466(18) 0.81997(18)
C7 C 0.3567(3) 0.22627(19) 0.60439(19)
H6 H 0.3048 0.1330 0.5384
C8 C 0.3896(3) 0.3416(2) 0.4542(2)
H7 H 0.4564 0.4155 0.4310
C9 C 0.2326(3) 0.3274(2) 0.6306(2)
H8 H 0.1187 0.2740 0.6216
C10 C 0.8162(3) 0.4681(2) 1.03265(19)
C11 C 0.3432(3) 0.3614(2) 0.9402(2)
C12 C 0.3226(4) 0.2306(3) 0.9749(3)
H9 H 0.2705 0.1481 0.9005
H10 H 0.2543 0.2418 1.0430
H11 H 0.4300 0.2189 1.0033
C13 C 0.2483(3) 0.3963(3) 0.5281(2)
H12 H 0.1441 0.3642 0.4686
C14 C 0.8727(4) 0.4052(3) 1.1260(3)
H13 H 0.7802 0.3406 1.1359
H14 H 0.9155 0.4801 1.2081
H15 H 0.9587 0.3546 1.0938
C15 C 0.7638(3) 0.4585(3) 0.5565(3)
H16 H 0.7102 0.4614 0.4790
H17 H 0.8611 0.4184 0.5381
H18 H 0.7959 0.5534 0.6205
C16 C 0.4138(4) 0.4959(3) 1.0600(3)
H19 H 0.5128 0.4838 1.1016
H20 H 0.3324 0.5119 1.1187
H21 H 0.4403 0.5763 1.0347
C17 C 0.1894(3) 0.3843(3) 0.8701(3)
H22 H 0.1431 0.4631 0.9234
H23 H 0.1032 0.2987 0.8305
C18 C 0.4328(5) 0.1570(4) 0.2673(3)
H24 H 0.3763 0.0798 0.1903
H25 H 0.5008 0.1214 0.3163
H26 H 0.5019 0.2272 0.2441
O6 O 0.89021(17) 0.04033(12) 0.67982(12)
O7 O 1.07101(19) -0.14239(14) 0.46571(13)
O8 O 1.1566(2) -0.34957(17) 0.39998(16)
O9 O 0.7991(3) 0.0191(2) 1.04965(17)
O10 O 0.5792(3) -0.2871(2) 0.7948(3)
H27 H 0.5007 -0.3094 0.7375
C19 C 0.8384(3) -0.09817(19) 0.58005(19)
C20 C 1.1130(3) -0.1207(2) 0.6864(2)
H28 H 1.2021 -0.1733 0.6693
H29 H 1.1611 -0.0209 0.7070
C21 C 1.0359(3) -0.1372(2) 0.8011(2)
C22 C 0.8353(3) 0.02560(19) 0.79428(19)
H30 H 0.8406 0.1192 0.8620
C23 C 0.6632(3) -0.1516(2) 0.6143(2)
H31 H 0.6328 -0.2549 0.5921
C24 C 0.9163(3) -0.0688(2) 0.84715(19)
C25 C 0.6547(3) -0.0612(2) 0.7556(2)
H32 H 0.5757 0.0017 0.7609
C26 C 0.9850(3) -0.17490(19) 0.56603(18)
H33 H 0.9440 -0.2780 0.5386
C27 C 1.2025(3) -0.1975(3) 0.2805(2)
H34 H 1.1148 -0.2326 0.2091
H35 H 1.2978 -0.2374 0.2535
H36 H 1.2326 -0.0955 0.3102
C28 C 0.7973(3) -0.1025(2) 0.9347(2)
H37 H 0.8170 -0.1845 0.9547
C29 C 1.1441(3) -0.2397(2) 0.38754(19)
C30 C 0.7489(3) -0.0889(3) 0.4555(2)
C31 C 1.1009(4) -0.2385(3) 0.8527(3)
H38 H 1.0888 -0.3298 0.7840
H39 H 1.0388 -0.2488 0.9198
H40 H 1.2166 -0.2015 0.8869
C32 C 0.7357(4) -0.2231(4) 0.3339(3)
H41 H 0.8358 -0.2162 0.2947
H42 H 0.6419 -0.2315 0.2740
H43 H 0.7212 -0.3055 0.3570
C33 C 0.6274(3) -0.1357(3) 0.8524(3)
H44 H 0.5453 -0.0971 0.9076
C34 C 0.9503(5) 0.0588(4) 1.1333(3)
H45 H 1.0416 0.0797 1.0889
H46 H 0.9646 -0.0180 1.1601
H47 H 0.9477 0.1419 1.2077
C35 C 0.5850(4) -0.0984(4) 0.5152(3)
H48 H 0.4925 -0.1677 0.4557
H49 H 0.5541 -0.0068 0.5547
C36 C 0.8121(4) 0.0447(3) 0.4298(3)
H50 H 0.8083 0.1271 0.5046
H51 H 0.7432 0.0447 0.3572
H52 H 0.9249 0.0472 0.4114
loop_
_geom_bond_atom_site_label_1
_geom_bond_atom_site_label_2
_geom_bond_site_symmetry_1
_geom_bond_site_symmetry_2
O1 C6 1_555 1_555
O2 C3 1_555 1_555
O3 C10 1_555 1_555
O4 C8 1_555 1_555
C1 C5 1_555 1_555
O5 H1 1_555 1_555
C2 H2 1_555 1_555
H3 C2 1_555 1_555
C3 C2 1_555 1_555
H4 C3 1_555 1_555
C4 H5 1_555 1_555
C5 C2 1_555 1_555
C6 C3 1_555 1_555
C7 O1 1_555 1_555
H6 C7 1_555 1_555
C8 C1 1_555 1_555
H7 C8 1_555 1_555
C9 C4 1_555 1_555
H8 C9 1_555 1_555
C10 O2 1_555 1_555
C11 C6 1_555 1_555
C12 C11 1_555 1_555
H9 C12 1_555 1_555
H10 C12 1_555 1_555
H11 C12 1_555 1_555
C13 O5 1_555 1_555
H12 C13 1_555 1_555
C14 C10 1_555 1_555
H13 C14 1_555 1_555
H14 C14 1_555 1_555
H15 C14 1_555 1_555
C15 C5 1_555 1_555
H16 C15 1_555 1_555
H17 C15 1_555 1_555
H18 C15 1_555 1_555
C16 C11 1_555 1_555
H19 C16 1_555 1_555
H20 C16 1_555 1_555
H21 C16 1_555 1_555
C17 C4 1_555 1_555
H22 C17 1_555 1_555
H23 C17 1_555 1_555
C18 O4 1_555 1_555
H24 C18 1_555 1_555
H25 C18 1_555 1_555
H26 C18 1_555 1_555
O6 C19 1_555 1_555
O7 C26 1_555 1_555
O8 C29 1_555 1_555
O9 C28 1_555 1_555
O10 H27 1_555 1_555
C19 C23 1_555 1_555
C20 H28 1_555 1_555
H29 C20 1_555 1_555
C21 C20 1_555 1_555
C22 O6 1_555 1_555
H30 C22 1_555 1_555
C23 H31 1_555 1_555
C24 C21 1_555 1_555
C25 C22 1_555 1_555
H32 C25 1_555 1_555
C26 C19 1_555 1_555
H33 C26 1_555 1_555
C27 H34 1_555 1_555
H35 C27 1_555 1_555
H36 C27 1_555 1_555
C28 C24 1_555 1_555
H37 C28 1_555 1_555
C29 O7 1_555 1_555
C30 C19 1_555 1_555
C31 C21 1_555 1_555
H38 C31 1_555 1_555
H39 C31 1_555 1_555
H40 C31 1_555 1_555
C32 C30 1_555 1_555
H41 C32 1_555 1_555
H42 C32 1_555 1_555
H43 C32 1_555 1_555
C33 O10 1_555 1_555
H44 C33 1_555 1_555
C34 O9 1_555 1_555
H45 C34 1_555 1_555
H46 C34 1_555 1_555
H47 C34 1_555 1_555
C35 C23 1_555 1_555
H48 C35 1_555 1_555
H49 C35 1_555 1_555
C36 C30 1_555 1_555
H50 C36 1_555 1_555
H51 C36 1_555 1_555
H52 C36 1_555 1_555
C1 C7 1_555 1_555
C4 C6 1_555 1_555
C7 C9 1_555 1_555
C8 C13 1_555 1_555
C9 C13 1_555 1_555
C11 C17 1_555 1_555
C20 C26 1_555 1_555
C22 C24 1_555 1_555
C23 C25 1_555 1_555
C25 C33 1_555 1_555
C27 C29 1_555 1_555
C28 C33 1_555 1_555
C30 C35 1_555 1_555

#END
