
#######################################################################
#
#                 Cambridge Crystallographic Data Centre
#                                CCDC 
#
#######################################################################
#
# If this CIF has been generated from an entry in the Cambridge 
# Structural Database, then it will include bibliographic, chemical, 
# crystal, experimental, refinement or atomic coordinate data resulting 
# from the CCDC's data processing and validation procedures.
#
#######################################################################

data_PUZQAE
_chemical_formula_moiety         'C18 H26 O5'
_chemical_name_systematic        
'7-methoxy-4,13,13-trimethyl-5,14-dioxapentacyclo[7.4.1.0^1,11^.0^4,8^.0^6,10^]tetradec-2-yl acetate'
_symmetry_cell_setting           monoclinic
_symmetry_space_group_name_H-M   'P 21'
_symmetry_Int_Tables_number      4
_space_group_name_Hall           'P 2yb'
loop_
_symmetry_equiv_pos_site_id
_symmetry_equiv_pos_as_xyz
1 x,y,z
2 -x,1/2+y,-z
_cell_length_a                   8.16450(10)
_cell_length_b                   18.5595(2)
_cell_length_c                   11.44970(10)
_cell_angle_alpha                90
_cell_angle_beta                 96.8590(10)
_cell_angle_gamma                90
_cell_volume                     1722.54
_exptl_crystal_description       block
_cell_formula_units_Z            4
loop_
_atom_site_label
_atom_site_type_symbol
_atom_site_fract_x
_atom_site_fract_y
_atom_site_fract_z
O1 O 0.99611(15) 0.49045(6) -0.00480(11)
O2 O 0.80382(17) 0.40573(7) 0.15817(13)
O3 O 0.8546(2) 0.35699(8) -0.20758(14)
O4 O 0.6616(2) 0.30355(9) 0.17271(16)
O5 O 1.0168(3) 0.50688(11) -0.36161(15)
C1 C 0.7146(2) 0.40795(11) -0.04824(19)
H1 H 0.6764 0.4544 -0.0236
H2 H 0.6238 0.3744 -0.0467
C2 C 1.1365(2) 0.38476(11) -0.0456(2)
H3 H 1.1255 0.3324 -0.0550
C3 C 1.0186(2) 0.41746(9) 0.03628(17)
C4 C 1.0057(2) 0.49264(10) -0.12841(17)
H4 H 1.0607 0.5370 -0.1489
C5 C 1.1602(2) 0.41449(12) 0.14038(19)
C6 C 0.7477(3) 0.41540(11) -0.17643(19)
C7 C 0.6748(3) 0.39024(15) 0.3281(2)
H5 H 0.7588 0.3744 0.3885
H6 H 0.5692 0.3733 0.3455
H7 H 0.6741 0.4419 0.3249
C8 C 0.8427(3) 0.48323(11) -0.20824(19)
H8 H 0.7754 0.5270 -0.2187
C9 C 0.7092(2) 0.36071(12) 0.21230(18)
C10 C 0.9898(3) 0.39058(13) -0.2574(2)
H9 H 1.0447 0.3587 -0.3089
C11 C 1.1074(3) 0.42564(12) -0.15978(19)
H10 H 1.2115 0.4398 -0.1879
C12 C 1.1593(3) 0.34475(16) 0.2112(3)
H11 H 1.0749 0.3473 0.2626
H12 H 1.2647 0.3384 0.2569
H13 H 1.1378 0.3048 0.1584
C13 C 0.8522(2) 0.38348(10) 0.04464(18)
H14 H 0.8622 0.3309 0.0424
C14 C 1.1794(3) 0.47940(15) 0.2209(2)
H15 H 1.1805 0.5225 0.1746
H16 H 1.2811 0.4757 0.2721
H17 H 1.0888 0.4812 0.2671
C15 C 1.2812(3) 0.40765(15) 0.0464(2)
H18 H 1.3317 0.4529 0.0281
H19 H 1.3639 0.3704 0.0638
C16 C 0.9079(3) 0.45637(13) -0.3204(2)
H20 H 0.8186 0.4428 -0.3813
C17 C 0.5800(3) 0.41053(16) -0.2526(3)
H21 H 0.5960 0.4140 -0.3342
H22 H 0.5105 0.4493 -0.2328
H23 H 0.5287 0.3653 -0.2386
C18 C 1.0631(6) 0.4892(3) -0.4725(3)
H24 H 0.9677 0.4906 -0.5303
H25 H 1.1097 0.4416 -0.4698
H26 H 1.1433 0.5232 -0.4932
O6 O 0.64945(15) 0.58534(6) 0.30642(10)
O7 O 0.71662(16) 0.72767(6) 0.12048(13)
O8 O 0.50659(18) 0.58416(8) -0.05331(12)
O9 O 0.89474(18) 0.66993(8) 0.47822(13)
O10 O 1.0130(3) 0.77818(10) 0.50648(17)
C19 C 0.4921(2) 0.69083(11) 0.27838(17)
H27 H 0.4994 0.7435 0.2746
C20 C 0.7322(2) 0.60206(9) 0.10332(15)
H28 H 0.7965 0.5594 0.0871
C21 C 0.8059(2) 0.69217(10) 0.36621(16)
H29 H 0.7916 0.7446 0.3656
C22 C 0.3795(3) 0.66388(15) 0.3686(2)
H30 H 0.3219 0.6194 0.3456
H31 H 0.3036 0.7002 0.3909
C23 C 0.5648(2) 0.69551(10) 0.06616(17)
H32 H 0.4918 0.7292 0.0191
C24 C 0.6277(2) 0.63390(10) -0.00499(17)
H33 H 0.6961 0.6513 -0.0639
C25 C 0.6389(2) 0.65605(10) 0.35527(16)
C26 C 0.5963(2) 0.58806(9) 0.18263(14)
H34 H 0.5357 0.5440 0.1576
C27 C 0.9129(2) 0.67054(11) 0.27172(18)
H35 H 0.9568 0.6229 0.2915
H36 H 1.0060 0.7033 0.2771
C28 C 0.4819(2) 0.65499(10) 0.15919(16)
H37 H 0.3685 0.6411 0.1300
C29 C 0.8365(2) 0.66870(10) 0.14323(17)
C30 C 0.5428(4) 0.58417(18) 0.5312(2)
H38 H 0.4598 0.5847 0.5839
H39 H 0.6498 0.5802 0.5756
H40 H 0.5246 0.5438 0.4788
C31 C 0.9777(3) 0.67908(13) 0.0675(2)
H41 H 0.9338 0.6799 -0.0141
H42 H 1.0547 0.6400 0.0813
H43 H 1.0329 0.7238 0.0880
C32 C 0.5335(3) 0.65309(13) 0.46067(19)
C33 C 0.5581(4) 0.71935(18) 0.5406(2)
H44 H 0.5589 0.7620 0.4932
H45 H 0.6613 0.7153 0.5900
H46 H 0.4697 0.7223 0.5886
C34 C 1.0716(4) 0.68702(16) 0.6510(2)
H47 H 0.9911 0.6828 0.7053
H48 H 1.1596 0.7179 0.6839
H49 H 1.1150 0.6402 0.6365
C35 C 0.9930(3) 0.71817(12) 0.53879(19)
C36 C 0.3988(3) 0.61441(17) -0.1463(2)
H50 H 0.4621 0.6386 -0.2000
H51 H 0.3268 0.6484 -0.1150
H52 H 0.3344 0.5769 -0.1870
loop_
_geom_bond_atom_site_label_1
_geom_bond_atom_site_label_2
_geom_bond_site_symmetry_1
_geom_bond_site_symmetry_2
O1 C3 1_555 1_555
O2 C9 1_555 1_555
O3 C6 1_555 1_555
O4 C9 1_555 1_555
O5 C16 1_555 1_555
C1 H1 1_555 1_555
H2 C1 1_555 1_555
C2 H3 1_555 1_555
C3 C2 1_555 1_555
C4 O1 1_555 1_555
H4 C4 1_555 1_555
C5 C3 1_555 1_555
C6 C1 1_555 1_555
C7 H5 1_555 1_555
H6 C7 1_555 1_555
H7 C7 1_555 1_555
C8 C4 1_555 1_555
H8 C8 1_555 1_555
C9 C7 1_555 1_555
C10 O3 1_555 1_555
H9 C10 1_555 1_555
C11 C2 1_555 1_555
H10 C11 1_555 1_555
C12 C5 1_555 1_555
H11 C12 1_555 1_555
H12 C12 1_555 1_555
H13 C12 1_555 1_555
C13 O2 1_555 1_555
H14 C13 1_555 1_555
C14 C5 1_555 1_555
H15 C14 1_555 1_555
H16 C14 1_555 1_555
H17 C14 1_555 1_555
C15 C2 1_555 1_555
H18 C15 1_555 1_555
H19 C15 1_555 1_555
C16 C8 1_555 1_555
H20 C16 1_555 1_555
C17 C6 1_555 1_555
H21 C17 1_555 1_555
H22 C17 1_555 1_555
H23 C17 1_555 1_555
C18 O5 1_555 1_555
H24 C18 1_555 1_555
H25 C18 1_555 1_555
H26 C18 1_555 1_555
O6 C25 1_555 1_555
O7 C23 1_555 1_555
O8 C24 1_555 1_555
O9 C21 1_555 1_555
O10 C35 1_555 1_555
C19 H27 1_555 1_555
C20 H28 1_555 1_555
C21 H29 1_555 1_555
C22 C19 1_555 1_555
H30 C22 1_555 1_555
H31 C22 1_555 1_555
C23 H32 1_555 1_555
C24 C20 1_555 1_555
H33 C24 1_555 1_555
C25 C19 1_555 1_555
C26 O6 1_555 1_555
H34 C26 1_555 1_555
C27 C21 1_555 1_555
H35 C27 1_555 1_555
H36 C27 1_555 1_555
C28 C19 1_555 1_555
H37 C28 1_555 1_555
C29 O7 1_555 1_555
C30 H38 1_555 1_555
H39 C30 1_555 1_555
H40 C30 1_555 1_555
C31 C29 1_555 1_555
H41 C31 1_555 1_555
H42 C31 1_555 1_555
H43 C31 1_555 1_555
C32 C22 1_555 1_555
C33 C32 1_555 1_555
H44 C33 1_555 1_555
H45 C33 1_555 1_555
H46 C33 1_555 1_555
C34 H47 1_555 1_555
H48 C34 1_555 1_555
H49 C34 1_555 1_555
C35 O9 1_555 1_555
C36 O8 1_555 1_555
H50 C36 1_555 1_555
H51 C36 1_555 1_555
H52 C36 1_555 1_555
C1 C13 1_555 1_555
C3 C13 1_555 1_555
C4 C11 1_555 1_555
C5 C15 1_555 1_555
C6 C8 1_555 1_555
C10 C11 1_555 1_555
C10 C16 1_555 1_555
C20 C26 1_555 1_555
C20 C29 1_555 1_555
C21 C25 1_555 1_555
C23 C24 1_555 1_555
C23 C28 1_555 1_555
C25 C32 1_555 1_555
C26 C28 1_555 1_555
C27 C29 1_555 1_555
C30 C32 1_555 1_555
C34 C35 1_555 1_555

#END
