
#######################################################################
#
#                 Cambridge Crystallographic Data Centre
#                                CCDC 
#
#######################################################################
#
# If this CIF has been generated from an entry in the Cambridge 
# Structural Database, then it will include bibliographic, chemical, 
# crystal, experimental, refinement or atomic coordinate data resulting 
# from the CCDC's data processing and validation procedures.
#
#######################################################################

data_PVVBHJ01
_chemical_formula_moiety         'C10 H8,C6 H3 N3 O7'
_chemical_name_systematic        'Picric acid naphthalene'
_symmetry_cell_setting           monoclinic
_symmetry_space_group_name_H-M   'P 21/a'
_symmetry_Int_Tables_number      14
_space_group_name_Hall           '-P 2yab'
loop_
_symmetry_equiv_pos_site_id
_symmetry_equiv_pos_as_xyz
1 x,y,z
2 1/2-x,1/2+y,-z
3 -x,-y,-z
4 1/2+x,1/2-y,z
_cell_length_a                   16.248(5)
_cell_length_b                   6.871(2)
_cell_length_c                   14.306(5)
_cell_angle_alpha                90
_cell_angle_beta                 96.62(5)
_cell_angle_gamma                90
_cell_volume                     1586.47
_chemical_melting_point          401K
_cell_formula_units_Z            4
loop_
_atom_site_label
_atom_site_type_symbol
_atom_site_fract_x
_atom_site_fract_y
_atom_site_fract_z
C1 C 0.9413(4) 0.1182(8) 0.1542(4)
C2 C 0.8541(5) 0.1027(10) 0.1526(4)
C3 C 0.8145(3) 0.1105(7) 0.2347(3)
C4 C 0.8623(4) 0.1189(9) 0.3190(4)
C5 C 0.9503(4) 0.1096(11) 0.3272(5)
C6 C 0.9872(3) 0.1123(9) 0.2456(5)
N1 N 0.7991(5) 0.0996(10) 0.0619(5)
N2 N 0.8264(4) 0.1093(8) 0.4111(4)
N3 N 1.0772(4) 0.1259(9) 0.2546(6)
O1 O 0.9799(5) 0.1131(10) 0.0775(5)
O2 O 0.8301(6) 0.1472(14) -0.0063(6)
O3 O 0.7262(5) 0.0744(13) 0.0678(5)
O4 O 0.7473(4) 0.0854(8) 0.3935(5)
O5 O 0.8685(5) 0.1293(9) 0.4839(4)
O6 O 1.1150(4) 0.1389(10) 0.3398(6)
O7 O 1.1098(4) 0.1457(9) 0.1851(6)
H1 H 0.7477 0.1098 0.2309
H2 H 0.9868 0.1008 0.3951
C7 C 0.6395(6) 0.1211(9) 0.5927(6)
C8 C 0.5552(5) 0.1325(11) 0.6061(5)
C9 C 0.5347(4) 0.1231(8) 0.7002(4)
C10 C 0.4508(5) 0.1413(11) 0.7093(5)
C11 C 0.4328(5) 0.1152(10) 0.7958(6)
C12 C 0.4875(7) 0.1229(11) 0.8743(6)
C13 C 0.5671(6) 0.1294(12) 0.8647(6)
C14 C 0.5947(4) 0.1259(9) 0.7742(5)
C15 C 0.6795(5) 0.1116(10) 0.7592(6)
C16 C 0.6998(5) 0.1180(11) 0.6672(5)
H3 H 0.6567 0.1146 0.5220
H4 H 0.5078 0.1479 0.5472
H5 H 0.4047 0.1738 0.6508
H6 H 0.3690 0.0852 0.8047
H7 H 0.4665 0.1237 0.9432
H8 H 0.6119 0.1375 0.9265
H9 H 0.7272 0.0960 0.8179
H10 H 0.7642 0.1207 0.6548
loop_
_geom_bond_atom_site_label_1
_geom_bond_atom_site_label_2
_geom_bond_site_symmetry_1
_geom_bond_site_symmetry_2
C1 C2 1_555 1_555
C2 C3 1_555 1_555
C3 C4 1_555 1_555
C4 C5 1_555 1_555
C5 C6 1_555 1_555
C6 C1 1_555 1_555
C7 C8 1_555 1_555
C8 C9 1_555 1_555
C9 C10 1_555 1_555
C10 C11 1_555 1_555
C11 C12 1_555 1_555
C12 C13 1_555 1_555
C13 C14 1_555 1_555
C14 C9 1_555 1_555
C15 C14 1_555 1_555
C16 C7 1_555 1_555
N1 C2 1_555 1_555
N2 C4 1_555 1_555
N3 C6 1_555 1_555
O1 C1 1_555 1_555
O2 N1 1_555 1_555
O3 N1 1_555 1_555
O4 N2 1_555 1_555
O5 N2 1_555 1_555
O6 N3 1_555 1_555
O7 N3 1_555 1_555
H1 C3 1_555 1_555
H2 C5 1_555 1_555
H3 C7 1_555 1_555
H4 C8 1_555 1_555
H5 C10 1_555 1_555
H6 C11 1_555 1_555
H7 C12 1_555 1_555
H8 C13 1_555 1_555
H9 C15 1_555 1_555
H10 C16 1_555 1_555
C15 C16 1_555 1_555

#END
