
#######################################################################
#
#                 Cambridge Crystallographic Data Centre
#                                CCDC 
#
#######################################################################
#
# If this CIF has been generated from an entry in the Cambridge 
# Structural Database, then it will include bibliographic, chemical, 
# crystal, experimental, refinement or atomic coordinate data resulting 
# from the CCDC's data processing and validation procedures.
#
#######################################################################

data_PYMCBZ02
_chemical_formula_moiety         'C7 H4 Cl1 O2 1-,C4 H10 N1 1+'
_chemical_name_systematic        'Pyrrolidinium 4-chlorobenzoate'
_symmetry_cell_setting           orthorhombic
_symmetry_space_group_name_H-M   'P b c a'
_symmetry_Int_Tables_number      61
_space_group_name_Hall           '-P 2ac 2ab'
loop_
_symmetry_equiv_pos_site_id
_symmetry_equiv_pos_as_xyz
1 x,y,z
2 1/2-x,-y,1/2+z
3 -x,1/2+y,1/2-z
4 1/2+x,1/2-y,-z
5 -x,-y,-z
6 1/2+x,y,1/2-z
7 x,1/2-y,1/2+z
8 1/2-x,1/2+y,z
_cell_length_a                   9.4202(6)
_cell_length_b                   9.1404(5)
_cell_length_c                   26.5952(16)
_cell_angle_alpha                90
_cell_angle_beta                 90
_cell_angle_gamma                90
_cell_volume                     2289.96
_exptl_crystal_colour            colorless
_exptl_crystal_description       block
_chemical_melting_point          '424 K'
_cell_formula_units_Z            8
loop_
_atom_site_label
_atom_site_type_symbol
_atom_site_fract_x
_atom_site_fract_y
_atom_site_fract_z
C1 C 0.16463(19) -0.0165(2) 0.72760(7)
C2 C 0.2677(2) 0.0254(2) 0.69365(7)
C3 C 0.25909(19) -0.02535(19) 0.64459(7)
C4 C 0.14958(16) -0.11832(17) 0.63004(6)
C5 C 0.04735(19) -0.15745(19) 0.66529(7)
C6 C 0.05370(19) -0.1069(2) 0.71426(7)
C7 C 0.14029(17) -0.17475(17) 0.57686(6)
Cl1 Cl 0.17609(6) 0.04826(6) 0.789114(18)
O1 O 0.22710(12) -0.12865(13) 0.54489(4)
O2 O 0.04200(13) -0.26488(14) 0.56781(5)
H1 H -0.026(2) -0.222(2) 0.6569(7)
H2 H 0.328(2) 0.009(2) 0.6225(8)
H4 H 0.341(2) 0.091(2) 0.7051(8)
H10 H -0.015(2) -0.135(2) 0.7373(8)
C8 C 0.0121(2) -0.16052(19) 0.44269(7)
C9 C 0.0775(2) -0.1971(2) 0.39254(7)
C10 C 0.1892(2) -0.3091(2) 0.40663(8)
C11 C 0.1187(2) -0.4016(2) 0.44709(7)
N1 N 0.00621(15) -0.30485(16) 0.46930(5)
H3 H 0.021(2) -0.293(2) 0.5042(9)
H5 H 0.005(3) -0.245(3) 0.3662(10)
H6 H 0.073(2) -0.096(2) 0.4617(7)
H7 H -0.083(3) -0.343(2) 0.4639(9)
H8 H 0.071(2) -0.488(2) 0.4302(8)
H9 H 0.181(2) -0.431(2) 0.4721(9)
H11 H 0.118(2) -0.107(2) 0.3733(9)
H12 H -0.082(3) -0.121(2) 0.4396(8)
H13 H 0.218(3) -0.373(3) 0.3748(9)
H14 H 0.272(3) -0.264(3) 0.4184(10)
loop_
_geom_bond_atom_site_label_1
_geom_bond_atom_site_label_2
_geom_bond_site_symmetry_1
_geom_bond_site_symmetry_2
C1 C2 1_555 1_555
C2 C3 1_555 1_555
C3 C4 1_555 1_555
C4 C5 1_555 1_555
C5 C6 1_555 1_555
C6 C1 1_555 1_555
C7 C4 1_555 1_555
C8 C9 1_555 1_555
C9 C10 1_555 1_555
C10 C11 1_555 1_555
C11 N1 1_555 1_555
Cl1 C1 1_555 1_555
N1 C8 1_555 1_555
O1 C7 1_555 1_555
O2 C7 1_555 1_555
H1 C5 1_555 1_555
H2 C3 1_555 1_555
H3 N1 1_555 1_555
H4 C2 1_555 1_555
H5 C9 1_555 1_555
H6 C8 1_555 1_555
H7 N1 1_555 1_555
H8 C11 1_555 1_555
H9 C11 1_555 1_555
H10 C6 1_555 1_555
H11 C9 1_555 1_555
H12 C8 1_555 1_555
H13 C10 1_555 1_555
H14 C10 1_555 1_555

#END
