
#######################################################################
#
#                 Cambridge Crystallographic Data Centre
#                                CCDC 
#
#######################################################################
#
# If this CIF has been generated from an entry in the Cambridge 
# Structural Database, then it will include bibliographic, chemical, 
# crystal, experimental, refinement or atomic coordinate data resulting 
# from the CCDC's data processing and validation procedures.
#
#######################################################################

data_PYPCBA
_chemical_formula_moiety         'C26 H36 Ba1 Cl2 N8 O8'
_chemical_name_systematic        
(2,10,16,24-Tetramethyl-3,6,9,17,20,23,29,30-octa-azatricyclo(23.3.1.1^11,15^.0^6,10^.0^20,24^)octacosa-2,16-diene)-diperchlorato-barium
_symmetry_cell_setting           monoclinic
_symmetry_space_group_name_H-M   'P 21/a'
_symmetry_Int_Tables_number      14
_space_group_name_Hall           '-P 2yab'
loop_
_symmetry_equiv_pos_site_id
_symmetry_equiv_pos_as_xyz
1 x,y,z
2 1/2-x,1/2+y,-z
3 -x,-y,-z
4 1/2+x,1/2-y,z
_cell_length_a                   19.427(12)
_cell_length_b                   9.320(8)
_cell_length_c                   9.768(11)
_cell_angle_alpha                90
_cell_angle_beta                 116.1(1)
_cell_angle_gamma                90
_cell_volume                     1588.24
_cell_formula_units_Z            2
loop_
_atom_site_label
_atom_site_type_symbol
_atom_site_fract_x
_atom_site_fract_y
_atom_site_fract_z
Ba1 Ba 0.00000 0.00000 0.00000
Cl1 Cl 0.13620 -0.25750 -0.02020
O1 O 0.12070 -0.11250 -0.07210
O2 O 0.11690 -0.35120 -0.14880
O3 O 0.21410 -0.27200 0.08170
O4 O 0.08980 -0.28110 0.05700
C1 C 0.08710 0.30190 -0.11480
C2 C 0.13910 0.26810 0.03830
N1 N 0.11710 0.21370 0.14770
C3 C 0.08140 0.34760 0.19170
C4 C 0.14320 0.41530 0.31920
N2 N 0.21500 0.31010 0.37550
C5 C 0.17580 0.18320 0.30080
C6 C 0.14170 0.10930 0.39560
N3 N 0.08860 0.00340 0.32760
C7 C 0.06810 -0.08210 0.41450
C8 C 0.01240 -0.20050 0.33720
N4 N 0.03060 0.19070 -0.19340
C9 C 0.24220 0.09330 0.29010
C10 C 0.17140 0.13450 0.55380
C11 C 0.15010 0.04440 0.64140
C12 C 0.09900 -0.06230 0.57100
C13 C 0.00980 -0.32390 0.43450
H1 H 0.05670 0.39860 -0.11390
H2 H 0.12000 0.32050 -0.17790
H3 H 0.16940 0.36670 0.08620
H4 H 0.17840 0.19040 0.03040
H5 H 0.03740 0.31350 0.22380
H6 H 0.05710 0.42100 0.09670
H7 H 0.15740 0.51640 0.28380
H8 H 0.12660 0.43380 0.40980
H9 H 0.21010 0.22280 0.60590
H10 H 0.17370 0.05870 0.76330
H11 H 0.08210 -0.13300 0.63840
O1B O -0.12070 0.11250 0.07210
O4B O -0.08980 0.28110 -0.05700
N1B N -0.11710 -0.21370 -0.14770
N3B N -0.08860 -0.00340 -0.32760
N4B N -0.03060 -0.19070 0.19340
C8B C -0.01240 0.20050 -0.33720
Cl1B Cl -0.13620 0.25750 0.02020
C2B C -0.13910 -0.26810 -0.03830
C3B C -0.08140 -0.34760 -0.19170
C5B C -0.17580 -0.18320 -0.30080
C6B C -0.14170 -0.10930 -0.39560
C7B C -0.06810 0.08210 -0.41450
C1B C -0.08710 -0.30190 0.11480
C13B C -0.00980 0.32390 -0.43450
O2B O -0.11690 0.35120 0.14880
O3B O -0.21410 0.27200 -0.08170
H3B H -0.16940 -0.36670 -0.08620
H4B H -0.17840 -0.19040 -0.03040
C4B C -0.14320 -0.41530 -0.31920
H5B H -0.03740 -0.31350 -0.22380
H6B H -0.05710 -0.42100 -0.09670
N2B N -0.21500 -0.31010 -0.37550
C9B C -0.24220 -0.09330 -0.29010
C10B C -0.17140 -0.13450 -0.55380
C12B C -0.09900 0.06230 -0.57100
H1B H -0.05670 -0.39860 0.11390
H2B H -0.12000 -0.32050 0.17790
H7B H -0.15740 -0.51640 -0.28380
H8B H -0.12660 -0.43380 -0.40980
C11B C -0.15010 -0.04440 -0.64140
H9B H -0.21010 -0.22280 -0.60590
H11B H -0.08210 0.13300 -0.63840
H10B H -0.17370 -0.05870 -0.76330
loop_
_geom_bond_atom_site_label_1
_geom_bond_atom_site_label_2
_geom_bond_site_symmetry_1
_geom_bond_site_symmetry_2
Ba1 O1 1_555 1_555
Cl1 O1 1_555 1_555
O2 Cl1 1_555 1_555
O3 Cl1 1_555 1_555
O4 Ba1 1_555 1_555
C1 C2 1_555 1_555
C2 N1 1_555 1_555
N1 Ba1 1_555 1_555
C3 N1 1_555 1_555
C4 C3 1_555 1_555
N2 C4 1_555 1_555
C5 N1 1_555 1_555
C6 C5 1_555 1_555
N3 Ba1 1_555 1_555
C7 N3 1_555 1_555
C8 C7 1_555 1_555
N4 Ba1 1_555 1_555
C9 C5 1_555 1_555
C10 C6 1_555 1_555
C11 C10 1_555 1_555
C12 C7 1_555 1_555
C13 C8 1_555 1_555
H1 C1 1_555 1_555
H2 C1 1_555 1_555
H3 C2 1_555 1_555
H4 C2 1_555 1_555
H5 C3 1_555 1_555
H6 C3 1_555 1_555
H7 C4 1_555 1_555
H8 C4 1_555 1_555
H9 C10 1_555 1_555
H10 C11 1_555 1_555
H11 C12 1_555 1_555
O1B Ba1 1_555 1_555
O4B Ba1 1_555 1_555
N1B Ba1 1_555 1_555
N3B Ba1 1_555 1_555
N4B Ba1 1_555 1_555
C8B N4 1_555 1_555
Cl1B O1B 1_555 1_555
C2B N1B 1_555 1_555
C3B N1B 1_555 1_555
C5B N1B 1_555 1_555
C6B N3B 1_555 1_555
C7B N3B 1_555 1_555
C1B N4B 1_555 1_555
C13B C8B 1_555 1_555
O2B Cl1B 1_555 1_555
O3B Cl1B 1_555 1_555
H3B C2B 1_555 1_555
H4B C2B 1_555 1_555
C4B C3B 1_555 1_555
H5B C3B 1_555 1_555
H6B C3B 1_555 1_555
N2B C5B 1_555 1_555
C9B C5B 1_555 1_555
C10B C6B 1_555 1_555
C12B C7B 1_555 1_555
H1B C1B 1_555 1_555
H2B C1B 1_555 1_555
H7B C4B 1_555 1_555
H8B C4B 1_555 1_555
C11B C10B 1_555 1_555
H9B C10B 1_555 1_555
H11B C12B 1_555 1_555
H10B C11B 1_555 1_555
Cl1 O4 1_555 1_555
C1 N4 1_555 1_555
N2 C5 1_555 1_555
C6 N3 1_555 1_555
C8 N4B 1_555 1_555
C11 C12 1_555 1_555
O4B Cl1B 1_555 1_555
C8B C7B 1_555 1_555
C2B C1B 1_555 1_555
C5B C6B 1_555 1_555
C4B N2B 1_555 1_555
C12B C11B 1_555 1_555

#END
