
#######################################################################
#
#                 Cambridge Crystallographic Data Centre
#                                CCDC 
#
#######################################################################
#
# If this CIF has been generated from an entry in the Cambridge 
# Structural Database, then it will include bibliographic, chemical, 
# crystal, experimental, refinement or atomic coordinate data resulting 
# from the CCDC's data processing and validation procedures.
#
#######################################################################

data_PYRGLU13
_chemical_name_common            5-oxoproline
_chemical_formula_moiety         'C5 H7 N1 O3'
_chemical_name_systematic        'rac-pyroglutamic acid'
_symmetry_cell_setting           monoclinic
_symmetry_space_group_name_H-M   'P 21/n'
_symmetry_Int_Tables_number      14
_space_group_name_Hall           '-P 2yn'
loop_
_symmetry_equiv_pos_site_id
_symmetry_equiv_pos_as_xyz
1 x,y,z
2 1/2-x,1/2+y,1/2-z
3 -x,-y,-z
4 1/2+x,1/2-y,1/2+z
_cell_length_a                   8.059(5)
_cell_length_b                   8.762(5)
_cell_length_c                   9.167(6)
_cell_angle_alpha                90
_cell_angle_beta                 114.875(8)
_cell_angle_gamma                90
_cell_volume                     587.257
_exptl_crystal_colour            colorless
_exptl_crystal_description       block
_cell_formula_units_Z            4
loop_
_atom_site_label
_atom_site_type_symbol
_atom_site_fract_x
_atom_site_fract_y
_atom_site_fract_z
O1 O 0.84122(17) 0.44484(14) 0.30984(15)
O2 O 0.59395(17) 0.11454(15) 0.71701(17)
H1 H 0.5060 0.1096 0.7398
N1 N 0.73314(19) 0.38569(17) 0.49531(17)
O3 O 0.44339(19) 0.31171(17) 0.5702(2)
C1 C 0.8325(2) 0.35896(19) 0.4136(2)
C2 C 0.7563(2) 0.27312(18) 0.6187(2)
H2 H 0.8446 0.3122 0.7226
C3 C 0.5802(2) 0.23699(19) 0.6311(2)
C4 C 0.8428(2) 0.13771(19) 0.5690(2)
H3 H 0.9337 0.0872 0.6627
H4 H 0.7504 0.0640 0.5066
C5 C 0.9307(2) 0.2099(2) 0.4682(2)
H5 H 1.0605 0.2263 0.5318
H6 H 0.9146 0.1458 0.3769
H7 H 0.681(3) 0.471(2) 0.490(2)
loop_
_geom_bond_atom_site_label_1
_geom_bond_atom_site_label_2
_geom_bond_site_symmetry_1
_geom_bond_site_symmetry_2
O1 C1 1_555 1_555
O2 H1 1_555 1_555
N1 C1 1_555 1_555
O3 C3 1_555 1_555
C1 C5 1_555 1_555
C2 N1 1_555 1_555
H2 C2 1_555 1_555
C3 O2 1_555 1_555
C4 C2 1_555 1_555
H3 C4 1_555 1_555
H4 C4 1_555 1_555
C5 C4 1_555 1_555
H5 C5 1_555 1_555
H6 C5 1_555 1_555
H7 N1 1_555 1_555
C2 C3 1_555 1_555

#END
