
#######################################################################
#
#                 Cambridge Crystallographic Data Centre
#                                CCDC 
#
#######################################################################
#
# If this CIF has been generated from an entry in the Cambridge 
# Structural Database, then it will include bibliographic, chemical, 
# crystal, experimental, refinement or atomic coordinate data resulting 
# from the CCDC's data processing and validation procedures.
#
#######################################################################

data_PYRIDI01
_chemical_formula_moiety         'C10 H10 I1 N2 1+,I3 1-,2(I2)'
_chemical_name_systematic        'bis(pyridine)iodonium bis(iodine) (triiodide)'
_symmetry_cell_setting           monoclinic
_symmetry_space_group_name_H-M   'P 21/n'
_symmetry_Int_Tables_number      14
_space_group_name_Hall           '-P 2yn'
loop_
_symmetry_equiv_pos_site_id
_symmetry_equiv_pos_as_xyz
1 x,y,z
2 1/2-x,1/2+y,1/2-z
3 -x,-y,-z
4 1/2+x,1/2-y,1/2+z
_cell_length_a                   4.3576(1)
_cell_length_b                   15.3233(2)
_cell_length_c                   16.8802(2)
_cell_angle_alpha                90
_cell_angle_beta                 91.7309(10)
_cell_angle_gamma                90
_cell_volume                     1126.62
_exptl_crystal_colour            'metallic intense purple'
_exptl_crystal_description       needle
_cell_formula_units_Z            2
loop_
_atom_site_label
_atom_site_type_symbol
_atom_site_fract_x
_atom_site_fract_y
_atom_site_fract_z
I1 I 0.0000 0.5000 0.5000
N1 N 0.1274(8) 0.3723(2) 0.4438(2)
C1 C 0.3053(10) 0.3728(3) 0.3806(3)
C2 C 0.3847(11) 0.2953(3) 0.3432(3)
C3 C 0.2826(12) 0.2175(3) 0.3727(3)
C4 C 0.0965(11) 0.2182(3) 0.4387(3)
C5 C 0.0245(10) 0.2965(3) 0.4731(3)
H1 H 0.3764 0.4257 0.3609
H2 H 0.5064 0.2956 0.2988
H3 H 0.3368 0.1647 0.3490
H4 H 0.0236 0.1663 0.4588
H5 H -0.0990 0.2968 0.5176
N1B N -0.1274(8) 0.6277(2) 0.5562(2)
C1B C -0.3053(10) 0.6272(3) 0.6194(3)
C2B C -0.3847(11) 0.7047(3) 0.6568(3)
C3B C -0.2826(12) 0.7825(3) 0.6273(3)
C4B C -0.0965(11) 0.7818(3) 0.5613(3)
C5B C -0.0245(10) 0.7035(3) 0.5269(3)
H1B H -0.3764 0.5743 0.6391
H2B H -0.5064 0.7044 0.7012
H3B H -0.3368 0.8353 0.6510
H4B H -0.0236 0.8337 0.5412
H5B H 0.0990 0.7032 0.4824
I2 I 0.37335(6) 0.333299(19) 0.677361(16)
I3 I 0.18365(6) 0.478375(18) 0.757536(16)
I4 I -0.12051(7) 0.631110(17) 0.877218(17)
I5 I 0.0000 0.5000 1.0000
I4B I 0.12051(7) 0.368890(17) 1.122782(17)
loop_
_geom_bond_atom_site_label_1
_geom_bond_atom_site_label_2
_geom_bond_site_symmetry_1
_geom_bond_site_symmetry_2
I1 N1 1_555 1_555
N1 C1 1_555 1_555
C1 C2 1_555 1_555
C2 C3 1_555 1_555
C3 C4 1_555 1_555
C4 C5 1_555 1_555
C5 N1 1_555 1_555
H1 C1 1_555 1_555
H2 C2 1_555 1_555
H3 C3 1_555 1_555
H4 C4 1_555 1_555
H5 C5 1_555 1_555
I2 I3 1_555 1_555
I4 I5 1_555 1_555
I5 I4B 1_555 1_555
N1B I1 1_555 1_555
C1B N1B 1_555 1_555
C2B C1B 1_555 1_555
C3B C2B 1_555 1_555
C4B C3B 1_555 1_555
C5B N1B 1_555 1_555
H1B C1B 1_555 1_555
H2B C2B 1_555 1_555
H3B C3B 1_555 1_555
H4B C4B 1_555 1_555
H5B C5B 1_555 1_555
C4B C5B 1_555 1_555

#END
