
#######################################################################
#
#                 Cambridge Crystallographic Data Centre
#                                CCDC 
#
#######################################################################
#
# If this CIF has been generated from an entry in the Cambridge 
# Structural Database, then it will include bibliographic, chemical, 
# crystal, experimental, refinement or atomic coordinate data resulting 
# from the CCDC's data processing and validation procedures.
#
#######################################################################

data_PYZDCX01
_chemical_formula_moiety         'C6 H4 N2 O4,2(H2 O1)'
_chemical_name_systematic        '2,3-Pyrazinedicarboxylic acid dihydrate'
_symmetry_cell_setting           monoclinic
_symmetry_space_group_name_H-M   'C 2/c'
_symmetry_Int_Tables_number      15
_space_group_name_Hall           '-C 2yn'
loop_
_symmetry_equiv_pos_site_id
_symmetry_equiv_pos_as_xyz
1 x,y,z
2 1/2+x,1/2+y,z
3 x,-y,1/2+z
4 1/2+x,1/2-y,1/2+z
5 -x,-y,-z
6 1/2-x,1/2-y,-z
7 -x,y,1/2-z
8 1/2-x,1/2+y,1/2-z
_cell_length_a                   5.3470(2)
_cell_length_b                   13.0286(4)
_cell_length_c                   11.7443(4)
_cell_angle_alpha                90
_cell_angle_beta                 99.0360(10)
_cell_angle_gamma                90
_cell_volume                     808.001
_exptl_crystal_colour            colorless
_exptl_crystal_description       Plate
_chemical_melting_point          '468 K'
_cell_formula_units_Z            4
loop_
_atom_site_label
_atom_site_type_symbol
_atom_site_fract_x
_atom_site_fract_y
_atom_site_fract_z
O1 O 0.05791(15) 0.17309(6) 0.54141(7)
H2 H 0.055(3) 0.2378(15) 0.5471(15)
H3 H -0.059(4) 0.1499(14) 0.5800(17)
O2 O 0.12913(15) 0.04318(6) 0.38714(7)
O3 O 0.50078(16) 0.11961(6) 0.37699(7)
N1 N 0.32566(16) -0.13294(6) 0.32572(7)
C1 C 0.40760(19) -0.22024(8) 0.28563(8)
C2 C 0.41799(18) -0.04486(7) 0.29096(8)
C3 C 0.3524(2) 0.04944(7) 0.35468(8)
H1 H 0.340(2) -0.2839(10) 0.3095(11)
H4 H 0.112(4) 0.0979(17) 0.439(2)
C1F C 0.59240(19) -0.22024(8) 0.21437(8)
N1F N 0.67434(16) -0.13294(6) 0.17428(7)
C2F C 0.58201(18) -0.04486(7) 0.20904(8)
C3F C 0.6476(2) 0.04944(7) 0.14532(8)
O2F O 0.87087(15) 0.04318(6) 0.11286(7)
H4F H 0.888(4) 0.0979(17) 0.061(2)
O3F O 0.49922(16) 0.11961(6) 0.12301(7)
H1F H 0.660(2) -0.2839(10) 0.1905(11)
loop_
_geom_bond_atom_site_label_1
_geom_bond_atom_site_label_2
_geom_bond_site_symmetry_1
_geom_bond_site_symmetry_2
O1 H2 1_555 1_555
O2 C3 1_555 1_555
O3 C3 1_555 1_555
N1 C1 1_555 1_555
C1 H1 1_555 1_555
C2 N1 1_555 1_555
C3 C2 1_555 1_555
H3 O1 1_555 1_555
H4 O2 1_555 1_555
C1F C1 1_555 1_555
N1F C1F 1_555 1_555
C2F C2 1_555 1_555
C3F C2F 1_555 1_555
O2F C3F 1_555 1_555
H4F O2F 1_555 1_555
O3F C3F 1_555 1_555
H1F C1F 1_555 1_555
N1F C2F 1_555 1_555

#END
