
#######################################################################
#
#                 Cambridge Crystallographic Data Centre
#                                CCDC 
#
#######################################################################
#
# If this CIF has been generated from an entry in the Cambridge 
# Structural Database, then it will include bibliographic, chemical, 
# crystal, experimental, refinement or atomic coordinate data resulting 
# from the CCDC's data processing and validation procedures.
#
#######################################################################

data_PYZPYT01
_chemical_name_common            Thiopurinol
_chemical_formula_moiety         'C5 H4 N4 S1'
_chemical_name_systematic        
1,5-Dihydro-4H-pyrazolo(3,4-d)pyrimidine-4-thione
_chemical_properties_biological  
'effective antigout and antiparasitic and antithrombitic agent with inhibitory activity against guanosine monophosphate reductase and RNA and protein biosynthesis'
_symmetry_cell_setting           orthorhombic
_symmetry_space_group_name_H-M   'I b a m'
_symmetry_Int_Tables_number      72
_space_group_name_Hall           '-I 2 2c'
loop_
_symmetry_equiv_pos_site_id
_symmetry_equiv_pos_as_xyz
1 x,y,z
2 1/2+x,1/2+y,1/2+z
3 1/2-x,1/2+y,z
4 -x,y,1/2+z
5 1/2+x,1/2-y,z
6 x,-y,1/2+z
7 -x,-y,z
8 1/2-x,1/2-y,1/2+z
9 -x,-y,-z
10 1/2-x,1/2-y,1/2-z
11 1/2+x,1/2-y,-z
12 x,-y,1/2-z
13 1/2-x,1/2+y,-z
14 -x,y,1/2-z
15 x,y,-z
16 1/2+x,1/2+y,1/2-z
_cell_length_a                   14.597(5)
_cell_length_b                   13.153(5)
_cell_length_c                   6.584(3)
_cell_angle_alpha                90
_cell_angle_beta                 90
_cell_angle_gamma                90
_cell_volume                     1264.09
_exptl_crystal_colour            'pale yellow'
_cell_formula_units_Z            8
loop_
_atom_site_label
_atom_site_type_symbol
_atom_site_fract_x
_atom_site_fract_y
_atom_site_fract_z
N1 N -0.1997(2) 0.7742(2) 0.00000
C1 C -0.1807(3) 0.8745(3) 0.00000
N2 N -0.0993(2) 0.9157(2) 0.00000
C2 C -0.0321(2) 0.8438(3) 0.00000
C3 C -0.0448(2) 0.7394(3) 0.00000
C4 C -0.1343(2) 0.6984(3) 0.00000
S1 S -0.1638(1) 0.5781(1) 0.00000
C5 C 0.0451(3) 0.6987(3) 0.00000
N3 N 0.1061(2) 0.7722(2) 0.00000
N4 N 0.0583(2) 0.8615(3) 0.00000
H1 H -0.2612(42) 0.7533(37) 0.00000
H2 H -0.2268(35) 0.9082(32) 0.00000
H3 H 0.0605(26) 0.6352(35) 0.00000
H4 H 0.0945(36) 0.9233(32) 0.00000
loop_
_geom_bond_atom_site_label_1
_geom_bond_atom_site_label_2
_geom_bond_site_symmetry_1
_geom_bond_site_symmetry_2
N1 C1 1_555 1_555
C1 N2 1_555 1_555
N2 C2 1_555 1_555
C2 C3 1_555 1_555
C3 C4 1_555 1_555
C4 N1 1_555 1_555
S1 C4 1_555 1_555
C5 C3 1_555 1_555
N3 C5 1_555 1_555
N4 C2 1_555 1_555
H1 N1 1_555 1_555
H2 C1 1_555 1_555
H3 C5 1_555 1_555
H4 N4 1_555 1_555
N3 N4 1_555 1_555

#END
