
#######################################################################
#
#                 Cambridge Crystallographic Data Centre
#                                CCDC 
#
#######################################################################
#
# If this CIF has been generated from an entry in the Cambridge 
# Structural Database, then it will include bibliographic, chemical, 
# crystal, experimental, refinement or atomic coordinate data resulting 
# from the CCDC's data processing and validation procedures.
#
#######################################################################

data_QABBAX
_chemical_formula_moiety         'C62 H76 O5 Si1'
_chemical_name_systematic        
(5,11,17,23,29-penta-t-butyl-31,32,33-trihydroxycalix(5)arene-34,35-dioxy)-methyl-phenylsilane
_symmetry_cell_setting           monoclinic
_symmetry_space_group_name_H-M   'P 21/c'
_symmetry_Int_Tables_number      14
_space_group_name_Hall           '-P 2ybc'
loop_
_symmetry_equiv_pos_site_id
_symmetry_equiv_pos_as_xyz
1 x,y,z
2 -x,1/2+y,1/2-z
3 -x,-y,-z
4 x,1/2-y,1/2+z
_cell_length_a                   14.622(3)
_cell_length_b                   17.445(3)
_cell_length_c                   21.173(3)
_cell_angle_alpha                90
_cell_angle_beta                 91.58(1)
_cell_angle_gamma                90
_cell_volume                     5398.77
_chemical_melting_point          258-260deg.C
_cell_formula_units_Z            4
loop_
_atom_site_label
_atom_site_type_symbol
_atom_site_fract_x
_atom_site_fract_y
_atom_site_fract_z
Si1 Si 0.9155(2) 0.1182(2) 0.6553(2)
O1 O 0.9018(5) 0.0572(4) 0.7145(3)
O2 O 0.8431(5) 0.1010(4) 0.5967(3)
O3 O 0.7118(5) 0.3351(5) 0.5765(4)
O4 O 0.9576(5) 0.4315(5) 0.7200(3)
O5 O 0.8578(5) 0.2325(4) 0.8658(3)
C1 C 0.9051(8) 0.2144(6) 0.6845(5)
C2 C 0.8320(7) 0.0571(6) 0.7580(5)
C3 C 0.8530(7) 0.0706(6) 0.8205(5)
C4 C 0.7810(8) 0.0646(6) 0.8635(5)
C5 C 0.6895(7) 0.0486(6) 0.8468(5)
C6 C 0.6755(8) 0.0316(6) 0.7809(6)
C7 C 0.7429(7) 0.0348(6) 0.7379(5)
C8 C 0.6143(7) 0.0390(6) 0.8918(5)
C9 C 0.5242(10) 0.0743(10) 0.8673(8)
C10 C 0.6399(13) 0.0765(10) 0.9551(7)
C11 C 0.5978(11) -0.0465(7) 0.9033(8)
C15 C 0.7500(8) 0.1163(7) 0.5909(5)
C16 C 0.6896(8) 0.0736(7) 0.6266(5)
C17 C 0.5953(8) 0.0899(7) 0.6171(5)
C18 C 0.5617(7) 0.1440(8) 0.5748(5)
C19 C 0.6272(7) 0.1805(7) 0.5362(5)
C20 C 0.7205(8) 0.1667(7) 0.5432(5)
C21 C 0.4595(8) 0.1622(6) 0.5638(4)
C22 C 0.4196(14) 0.1214(15) 0.5054(9)
C23 C 0.4085(14) 0.1356(16) 0.6221(7)
C24 C 0.4474(16) 0.2488(8) 0.5561(15)
C28 C 0.8051(8) 0.3294(7) 0.5646(5)
C29 C 0.8422(7) 0.2731(7) 0.5302(5)
C30 C 0.9355(7) 0.2749(7) 0.5187(5)
C31 C 0.9921(7) 0.3338(7) 0.5427(5)
C32 C 0.9504(8) 0.3920(7) 0.5758(5)
C33 C 0.8565(8) 0.3918(7) 0.5875(5)
C34 C 1.0954(8) 0.3367(8) 0.5345(5)
C35 C 1.1297(8) 0.2663(9) 0.4996(6)
C36 C 1.1405(9) 0.3382(9) 0.6010(5)
C37 C 1.1216(9) 0.4084(8) 0.4987(6)
C38 C 0.8714(7) 0.4151(7) 0.7402(5)
C39 C 0.7978(8) 0.4233(7) 0.6956(5)
C40 C 0.7134(8) 0.4033(7) 0.7151(5)
C41 C 0.6933(7) 0.3757(7) 0.7746(5)
C42 C 0.7673(7) 0.3653(6) 0.8148(5)
C43 C 0.8574(7) 0.3865(6) 0.8009(5)
C44 C 0.5958(7) 0.3473(6) 0.7910(4)
C45 C 0.5362(18) 0.4175(12) 0.7945(15)
C46 C 0.5948(16) 0.3054(16) 0.8533(8)
C47 C 0.5592(19) 0.2951(15) 0.7394(10)
C51 C 0.9468(7) 0.2312(7) 0.8467(5)
C52 C 0.9883(7) 0.3023(7) 0.8392(5)
C53 C 1.0816(7) 0.3018(7) 0.8244(5)
C54 C 1.1327(7) 0.2365(7) 0.8163(5)
C55 C 1.0848(7) 0.1670(6) 0.8215(5)
C56 C 0.9922(7) 0.1629(7) 0.8358(5)
C57 C 1.2354(8) 0.2389(5) 0.8049(4)
C58 C 1.2545(14) 0.2730(2) 0.7399(9)
C59 C 1.2842(13) 0.2887(15) 0.8548(11)
C60 C 1.2775(14) 0.1587(8) 0.8083(17)
C64 C 0.7203(8) 0.0125(7) 0.6696(5)
C65 C 0.7854(8) 0.2090(7) 0.5010(5)
C66 C 0.8167(8) 0.4503(7) 0.6285(5)
C67 C 0.9353(7) 0.3764(6) 0.8478(5)
C68 C 0.9486(7) 0.0844(7) 0.8469(5)
C69 C 1.0259(8) 0.0879(7) 0.6216(5)
C70 C 1.0331(9) 0.0721(7) 0.5578(6)
C71 C 1.1172(11) 0.0487(9) 0.5330(7)
C72 C 1.1889(11) 0.0373(8) 0.5738(9)
C73 C 1.1850(9) 0.0521(8) 0.6363(8)
C74 C 1.1030(7) 0.0780(7) 0.6595(6)
H1 H 0.6856 0.2960 0.5643
H2 H 0.9910 0.4420 0.7505
H3 H 0.8449 0.1909 0.8812
H4 H 0.9293 0.2497 0.6545
H5 H 0.9386 0.2191 0.7240
H7 H 0.7955 0.0717 0.9062
H8 H 0.6171 0.0175 0.7668
H9 H 0.4779 0.0670 0.8980
H10 H 0.5056 0.0499 0.8283
H11 H 0.5327 0.1282 0.8602
H12 H 0.5905 0.0703 0.9836
H13 H 0.6512 0.1301 0.9487
H14 H 0.6939 0.0526 0.9727
H15 H 0.5491 -0.0526 0.9323
H16 H 0.6526 -0.0694 0.9207
H17 H 0.5814 -0.0711 0.8640
H27 H 0.5535 0.0626 0.6407
H28 H 0.6067 0.2148 0.5053
H29 H 0.3561 0.1344 0.4999
H30 H 0.4256 0.0670 0.5107
H31 H 0.4520 0.1372 0.4688
H32 H 0.3445 0.1463 0.6163
H33 H 0.4320 0.1623 0.6587
H34 H 0.4172 0.0814 0.6278
H35 H 0.3838 0.2603 0.5489
H36 H 0.4816 0.2661 0.5207
H37 H 0.4692 0.2743 0.5937
H47 H 0.9610 0.2362 0.4945
H48 H 0.9860 0.4327 0.5908
H49 H 1.0951 0.2600 0.4607
H50 H 1.1224 0.2216 0.5255
H51 H 1.1932 0.2728 0.4905
H52 H 1.2049 0.3288 0.5981
H53 H 1.1136 0.2993 0.6267
H54 H 1.1311 0.3876 0.6199
H55 H 1.0805 0.4152 0.4630
H56 H 1.1831 0.4033 0.4844
H57 H 1.1179 0.4521 0.5261
H58 H 0.6648 0.4086 0.6861
H59 H 0.7573 0.3428 0.8539
H60 H 0.5358 0.4437 0.7546
H61 H 0.5599 0.4511 0.8269
H62 H 0.4750 0.4026 0.8042
H63 H 0.6327 0.2606 0.8511
H64 H 0.5333 0.2904 0.8621
H65 H 0.6179 0.3385 0.8863
H66 H 0.5967 0.2500 0.7376
H67 H 0.5602 0.3215 0.6997
H68 H 0.4975 0.2807 0.7483
H78 H 1.1107 0.3499 0.8198
H79 H 1.1163 0.1215 0.8151
H80 H 1.3193 0.2738 0.7339
H81 H 1.2304 0.3236 0.7372
H82 H 1.2258 0.2412 0.7078
H83 H 1.3486 0.2897 0.8469
H84 H 1.2746 0.2677 0.8960
H85 H 1.2602 0.3399 0.8527
H86 H 1.3419 0.1620 0.8010
H87 H 1.2489 0.1266 0.7767
H88 H 1.2682 0.1372 0.8494
H98 H 0.7744 -0.0108 0.6523
H99 H 0.6731 -0.0266 0.6699
H100 H 0.8271 0.1718 0.4837
H101 H 0.7498 0.2303 0.4659
H102 H 0.7598 0.4681 0.6090
H103 H 0.8581 0.4937 0.6310
H104 H 0.9114 0.3773 0.8901
H105 H 0.9769 0.4193 0.8441
H106 H 0.9884 0.0459 0.8293
H107 H 0.9479 0.0758 0.8921
H108 H 0.9820 0.0770 0.5310
H109 H 1.1232 0.0412 0.4898
H110 H 1.2432 0.0186 0.5580
H111 H 1.2359 0.0450 0.6630
H112 H 1.0998 0.0892 0.7023
C12? C 0.6010(3) 0.1159(15) 0.9250(2)
C13? C 0.6380(3) -0.0210(2) 0.9424(18)
C14? C 0.5224(17) 0.0160(3) 0.8610(2)
C25? C 0.4280(3) 0.0898(16) 0.5285(19)
C26? C 0.4040(2) 0.1710(2) 0.6237(11)
C27? C 0.4419(19) 0.2320(17) 0.5213(18)
C48? C 0.5860(2) 0.3490(2) 0.8616(7)
C49? C 0.5900(2) 0.2658(12) 0.7681(19)
C50? C 0.5212(18) 0.3940(2) 0.7597(17)
C61? C 1.2500(2) 0.3020(3) 0.7560(2)
C62? C 1.2840(2) 0.2630(3) 0.8664(11)
C63? C 1.2810(2) 0.1658(18) 0.7810(3)
H6? H 0.8417 0.2259 0.0608
H18? H 0.5525 0.1113 0.9548
H19? H 0.5853 0.1546 0.8947
H20? H 0.6565 0.1300 0.9475
H21? H 0.5889 -0.0254 0.9711
H22? H 0.6929 -0.0058 0.9652
H23? H 0.6482 -0.0698 0.9225
H24? H 0.4773 0.0110 0.8924
H25? H 0.5290 -0.0317 0.8389
H26? H 0.5034 0.0551 0.8309
H38? H 0.3638 0.0938 0.5180
H39? H 0.4384 0.0458 0.5549
H40? H 0.4616 0.0845 0.4905
H41? H 0.3417 0.1823 0.6123
H42? H 0.4294 0.2116 0.6491
H43? H 0.4069 0.1238 0.6473
H44? H 0.3772 0.2400 0.5160
H45? H 0.4678 0.2231 0.4807
H46? H 0.4696 0.2765 0.5403
H69? H 0.6327 0.3183 0.8814
H70? H 0.5268 0.3300 0.8721
H71? H 0.5920 0.4013 0.8762
H72? H 0.5943 0.2649 0.7229
H73? H 0.5324 0.2441 0.7797
H74? H 0.6390 0.2365 0.7869
H75? H 0.5278 0.3931 0.7147
H76? H 0.5255 0.4463 0.7743
H77? H 0.4627 0.3736 0.7701
H89? H 1.3141 0.3055 0.7472
H90? H 1.2292 0.3500 0.7721
H91? H 1.2164 0.2897 0.7177
H92? H 1.3492 0.2651 0.8601
H93? H 1.2720 0.2264 0.8989
H94? H 1.2631 0.3126 0.8789
H95? H 1.3449 0.1751 0.7756
H96? H 1.2528 0.1506 0.7418
H97? H 1.2738 0.1256 0.8118
loop_
_geom_bond_atom_site_label_1
_geom_bond_atom_site_label_2
_geom_bond_site_symmetry_1
_geom_bond_site_symmetry_2
Si1 O1 1_555 1_555
O1 C2 1_555 1_555
O2 Si1 1_555 1_555
O3 C28 1_555 1_555
O4 C38 1_555 1_555
O5 C51 1_555 1_555
C1 Si1 1_555 1_555
C2 C3 1_555 1_555
C3 C4 1_555 1_555
C4 C5 1_555 1_555
C5 C6 1_555 1_555
C6 C7 1_555 1_555
C7 C2 1_555 1_555
C8 C5 1_555 1_555
C9 C8 1_555 1_555
C10 C8 1_555 1_555
C11 C8 1_555 1_555
C15 O2 1_555 1_555
C16 C15 1_555 1_555
C17 C16 1_555 1_555
C18 C17 1_555 1_555
C19 C18 1_555 1_555
C20 C15 1_555 1_555
C21 C18 1_555 1_555
C22 C21 1_555 1_555
C23 C21 1_555 1_555
C24 C21 1_555 1_555
C28 C29 1_555 1_555
C29 C30 1_555 1_555
C30 C31 1_555 1_555
C31 C32 1_555 1_555
C32 C33 1_555 1_555
C33 C28 1_555 1_555
C34 C31 1_555 1_555
C35 C34 1_555 1_555
C36 C34 1_555 1_555
C37 C34 1_555 1_555
C38 C39 1_555 1_555
C39 C40 1_555 1_555
C40 C41 1_555 1_555
C41 C42 1_555 1_555
C42 C43 1_555 1_555
C43 C38 1_555 1_555
C44 C41 1_555 1_555
C45 C44 1_555 1_555
C46 C44 1_555 1_555
C47 C44 1_555 1_555
C51 C52 1_555 1_555
C52 C53 1_555 1_555
C53 C54 1_555 1_555
C54 C55 1_555 1_555
C55 C56 1_555 1_555
C56 C51 1_555 1_555
C57 C54 1_555 1_555
C58 C57 1_555 1_555
C59 C57 1_555 1_555
C60 C57 1_555 1_555
C64 C7 1_555 1_555
C65 C20 1_555 1_555
C66 C33 1_555 1_555
C67 C43 1_555 1_555
C68 C3 1_555 1_555
C69 Si1 1_555 1_555
C70 C69 1_555 1_555
C71 C70 1_555 1_555
C72 C71 1_555 1_555
C73 C72 1_555 1_555
C74 C69 1_555 1_555
H1 O3 1_555 1_555
H2 O4 1_555 1_555
H3 O5 1_555 1_555
H4 C1 1_555 1_555
H5 C1 1_555 1_555
H7 C4 1_555 1_555
H8 C6 1_555 1_555
H9 C9 1_555 1_555
H10 C9 1_555 1_555
H11 C9 1_555 1_555
H12 C10 1_555 1_555
H13 C10 1_555 1_555
H14 C10 1_555 1_555
H15 C11 1_555 1_555
H16 C11 1_555 1_555
H17 C11 1_555 1_555
H27 C17 1_555 1_555
H28 C19 1_555 1_555
H29 C22 1_555 1_555
H30 C22 1_555 1_555
H31 C22 1_555 1_555
H32 C23 1_555 1_555
H33 C23 1_555 1_555
H34 C23 1_555 1_555
H35 C24 1_555 1_555
H36 C24 1_555 1_555
H37 C24 1_555 1_555
H47 C30 1_555 1_555
H48 C32 1_555 1_555
H49 C35 1_555 1_555
H50 C35 1_555 1_555
H51 C35 1_555 1_555
H52 C36 1_555 1_555
H53 C36 1_555 1_555
H54 C36 1_555 1_555
H55 C37 1_555 1_555
H56 C37 1_555 1_555
H57 C37 1_555 1_555
H58 C40 1_555 1_555
H59 C42 1_555 1_555
H60 C45 1_555 1_555
H61 C45 1_555 1_555
H62 C45 1_555 1_555
H63 C46 1_555 1_555
H64 C46 1_555 1_555
H65 C46 1_555 1_555
H66 C47 1_555 1_555
H67 C47 1_555 1_555
H68 C47 1_555 1_555
H78 C53 1_555 1_555
H79 C55 1_555 1_555
H80 C58 1_555 1_555
H81 C58 1_555 1_555
H82 C58 1_555 1_555
H83 C59 1_555 1_555
H84 C59 1_555 1_555
H85 C59 1_555 1_555
H86 C60 1_555 1_555
H87 C60 1_555 1_555
H88 C60 1_555 1_555
H98 C64 1_555 1_555
H99 C64 1_555 1_555
H100 C65 1_555 1_555
H101 C65 1_555 1_555
H102 C66 1_555 1_555
H103 C66 1_555 1_555
H104 C67 1_555 1_555
H105 C67 1_555 1_555
H106 C68 1_555 1_555
H107 C68 1_555 1_555
H108 C70 1_555 1_555
H109 C71 1_555 1_555
H110 C72 1_555 1_555
H111 C73 1_555 1_555
H112 C74 1_555 1_555
C16 C64 1_555 1_555
C19 C20 1_555 1_555
C29 C65 1_555 1_555
C39 C66 1_555 1_555
C52 C67 1_555 1_555
C56 C68 1_555 1_555
C73 C74 1_555 1_555

#END
