
#######################################################################
#
#                 Cambridge Crystallographic Data Centre
#                                CCDC 
#
#######################################################################
#
# If this CIF has been generated from an entry in the Cambridge 
# Structural Database, then it will include bibliographic, chemical, 
# crystal, experimental, refinement or atomic coordinate data resulting 
# from the CCDC's data processing and validation procedures.
#
#######################################################################

data_QABDON
_chemical_formula_moiety         'C20 H18 Cl2 N4 O2'
_chemical_name_systematic        
2-(2,6-dichlorophenylamino)-3,6,6,8-tetramethyl-3H,6H-imidazo[4,5-h]isoquinoline-7,9-dione
_symmetry_cell_setting           orthorhombic
_symmetry_space_group_name_H-M   'P 21 21 21'
_symmetry_Int_Tables_number      19
_space_group_name_Hall           'P 2ac 2ab'
loop_
_symmetry_equiv_pos_site_id
_symmetry_equiv_pos_as_xyz
1 x,y,z
2 1/2-x,-y,1/2+z
3 1/2+x,1/2-y,-z
4 -x,1/2+y,1/2-z
_cell_length_a                   7.554(2)
_cell_length_b                   10.089(2)
_cell_length_c                   25.751(5)
_cell_angle_alpha                90
_cell_angle_beta                 90
_cell_angle_gamma                90
_cell_volume                     1962.54
_exptl_crystal_colour            colorless
_exptl_crystal_description       plate
_chemical_melting_point          235-237deg.C
_cell_formula_units_Z            4
_exptl_crystal_recrystallization_method 'ethyl acetate/hexane'
loop_
_atom_site_label
_atom_site_type_symbol
_atom_site_fract_x
_atom_site_fract_y
_atom_site_fract_z
Cl1 Cl 0.1315(4) 0.6867(3) 0.1799(1)
Cl2 Cl 0.7636(4) 0.4385(4) 0.1812(2)
O1 O 0.4576(12) 0.2613(8) 0.0295(3)
C1 C 0.6441(14) 0.6509(10) 0.0201(3)
C2 C 0.5865(1) 0.4347(10) -0.0175(4)
C3 C 0.6627(14) 0.4808(10) -0.0645(4)
N1 N 0.5636(12) 0.2105(8) -0.0504(3)
N2 N 0.6270(11) 0.7104(8) 0.0691(3)
C4 C 0.8364(20) 0.4095(13) -0.1430(5)
C5 C 0.5433(14) 0.6230(10) 0.1018(4)
O2 O 0.7187(12) 0.1570(7) -0.1221(3)
C6 C 0.5751(13) 0.5232(10) 0.0241(4)
N3 N 0.5132(10) 0.5066(8) 0.0752(3)
C7 C 0.5280(14) 0.3018(11) -0.0109(4)
C8 C 0.4458(15) 0.5558(10) 0.1835(4)
C9 C 0.2713(15) 0.5632(11) 0.2026(4)
C10 C 0.5446(15) 0.4557(13) 0.2029(4)
C11 C 0.5335(18) 0.0688(11) -0.0417(5)
C12 C 0.6591(16) 0.2452(11) -0.0955(4)
C13 C 0.7188(15) 0.6985(10) -0.0254(4)
N4 N 0.5083(12) 0.6515(8) 0.1498(3)
C14 C 0.7253(15) 0.6099(11) -0.0679(4)
C15 C 0.6726(17) 0.3896(11) -0.1103(4)
C16 C 0.3151(20) 0.3731(13) 0.2567(4)
C17 C 0.4852(20) 0.3654(13) 0.2389(5)
C18 C 0.2060(18) 0.4732(12) 0.2392(4)
C19 C 0.7034(16) 0.8389(10) 0.0841(4)
C20 C 0.5019(22) 0.4121(14) -0.1444(5)
H1 H 0.9384 0.3964 -0.1213
H2 H 0.8366 0.3451 -0.1704
H3 H 0.8397 0.4970 -0.1576
H4 H 0.5618 0.0195 -0.0724
H5 H 0.6077 0.0399 -0.0136
H6 H 0.4116 0.0543 -0.0327
H7 H 0.7666 0.7864 -0.0278
H8 H 0.5235 0.7351 0.1612
H9 H 0.7705 0.6420 -0.1003
H10 H 0.2705 0.3083 0.2807
H11 H 0.5643 0.2998 0.2528
H12 H 0.0965 0.4817 0.2515
H13 H 0.7577 0.8829 0.0552
H14 H 0.6085 0.8924 0.0974
H15 H 0.7899 0.8254 0.1109
H16 H 0.4979 0.5015 -0.1570
H17 H 0.5028 0.3518 -0.1733
H18 H 0.3997 0.3952 -0.1232
loop_
_geom_bond_atom_site_label_1
_geom_bond_atom_site_label_2
_geom_bond_site_symmetry_1
_geom_bond_site_symmetry_2
Cl1 C9 1_555 1_555
Cl2 C10 1_555 1_555
O1 C7 1_555 1_555
C1 N2 1_555 1_555
C2 C3 1_555 1_555
C3 C14 1_555 1_555
N1 C7 1_555 1_555
N2 C5 1_555 1_555
C4 C15 1_555 1_555
C5 N3 1_555 1_555
O2 C12 1_555 1_555
C6 C1 1_555 1_555
N3 C6 1_555 1_555
C7 C2 1_555 1_555
C8 C9 1_555 1_555
C9 C18 1_555 1_555
C10 C8 1_555 1_555
C11 N1 1_555 1_555
C12 N1 1_555 1_555
C13 C1 1_555 1_555
N4 C5 1_555 1_555
C14 C13 1_555 1_555
C15 C3 1_555 1_555
C16 C17 1_555 1_555
C17 C10 1_555 1_555
C18 C16 1_555 1_555
C19 N2 1_555 1_555
C20 C15 1_555 1_555
H1 C4 1_555 1_555
H2 C4 1_555 1_555
H3 C4 1_555 1_555
H4 C11 1_555 1_555
H5 C11 1_555 1_555
H6 C11 1_555 1_555
H7 C13 1_555 1_555
H8 N4 1_555 1_555
H9 C14 1_555 1_555
H10 C16 1_555 1_555
H11 C17 1_555 1_555
H12 C18 1_555 1_555
H13 C19 1_555 1_555
H14 C19 1_555 1_555
H15 C19 1_555 1_555
H16 C20 1_555 1_555
H17 C20 1_555 1_555
H18 C20 1_555 1_555
C2 C6 1_555 1_555
C8 N4 1_555 1_555
C12 C15 1_555 1_555

#END
