
#######################################################################
#
#                 Cambridge Crystallographic Data Centre
#                                CCDC 
#
#######################################################################
#
# If this CIF has been generated from an entry in the Cambridge 
# Structural Database, then it will include bibliographic, chemical, 
# crystal, experimental, refinement or atomic coordinate data resulting 
# from the CCDC's data processing and validation procedures.
#
#######################################################################

data_QABJAH
_chemical_formula_moiety         'C17 H20 F2 N4 O3 S1'
_chemical_name_systematic        
2-(2,5-Difluorophenyl)-5-(2-(methylsulfonyl)-2,6-dihydropyrrolo[3,4-c]pyrazol-5(4H)-yl)tetrahydro-2H-pyran-3-amine
_symmetry_cell_setting           triclinic
_symmetry_space_group_name_H-M   'P 1'
_symmetry_Int_Tables_number      1
_space_group_name_Hall           'P 1'
loop_
_symmetry_equiv_pos_site_id
_symmetry_equiv_pos_as_xyz
1 x,y,z
_cell_length_a                   6.0020(12)
_cell_length_b                   6.7650(14)
_cell_length_c                   11.831(2)
_cell_angle_alpha                89.39(3)
_cell_angle_beta                 86.29(3)
_cell_angle_gamma                66.50(3)
_cell_volume                     439.554
_exptl_crystal_colour            colorless
_exptl_crystal_description       block
_cell_formula_units_Z            1
loop_
_atom_site_label
_atom_site_type_symbol
_atom_site_fract_x
_atom_site_fract_y
_atom_site_fract_z
S1 S 0.6234(2) -0.0161(2) 0.53489(13)
O1 O 0.2259(7) 1.1988(6) 0.0659(3)
F1 F -0.0338(9) 1.4463(8) -0.3177(4)
N1 N 0.8552(10) 1.0226(9) -0.0607(5)
H1 H 0.9931 0.9626 -0.0311
H2 H 0.8441 1.0953 -0.1217
C1 C 0.1924(12) 1.3403(11) -0.1559(5)
H3 H 0.1147 1.2489 -0.1368
F2 F 0.6462(7) 1.5111(6) -0.0587(3)
O2 O 0.3983(10) -0.0143(9) 0.5767(5)
N2 N 0.4984(9) 0.7395(7) 0.2593(4)
C2 C 0.1401(12) 1.4606(11) -0.2533(5)
N3 N 0.5510(10) 0.1840(8) 0.4401(5)
O3 O 0.8012(10) -0.2031(7) 0.4835(4)
C3 C 0.2447(13) 1.5986(10) -0.2861(6)
H4 H 0.2019 1.6789 -0.3515
C4 C 0.3374(12) 0.3600(10) 0.4354(5)
H5 H 0.1881 0.3810 0.4725
C5 C 0.4157(15) 1.6161(10) -0.2198(6)
H6 H 0.4931 1.7073 -0.2401
C6 C 0.4716(12) 1.4953(9) -0.1215(5)
C7 C 0.3612(10) 1.3578(8) -0.0875(5)
C8 C 0.4354(11) 1.2218(9) 0.0175(5)
H7 H 0.4892 1.2994 0.0716
C9 C 0.6407(11) 1.0010(9) -0.0077(5)
H8 H 0.5837 0.9268 -0.0624
C10 C 0.6889(11) 0.8676(9) 0.0996(5)
H9 H 0.8087 0.7232 0.0816
H10 H 0.7552 0.9321 0.1540
C11 C 0.4587(11) 0.8549(9) 0.1515(5)
H11 H 0.3998 0.7795 0.0984
C12 C 0.2686(12) 1.0827(9) 0.1707(5)
H12 H 0.1177 1.0778 0.2023
H13 H 0.3235 1.1576 0.2248
C13 C 0.7134(11) 0.5308(10) 0.2532(5)
H14 H 0.8574 0.5464 0.2769
H15 H 0.7464 0.4679 0.1774
C14 C 0.6302(11) 0.4010(9) 0.3350(5)
N4 N 0.7450(10) 0.2078(8) 0.3785(4)
C15 C 0.3888(11) 0.4976(10) 0.3653(5)
C16 C 0.2755(12) 0.7114(10) 0.3066(6)
H16 H 0.1750 0.7041 0.2471
H17 H 0.1791 0.8265 0.3598
C17 C 0.7542(16) 0.0770(13) 0.6387(7)
H18 H 0.8027 -0.0265 0.6981
H19 H 0.6374 0.2121 0.6695
H20 H 0.8942 0.0965 0.6056
loop_
_geom_bond_atom_site_label_1
_geom_bond_atom_site_label_2
_geom_bond_site_symmetry_1
_geom_bond_site_symmetry_2
S1 O2 1_555 1_555
O1 C8 1_555 1_555
F1 C2 1_555 1_555
N1 H1 1_555 1_555
H2 N1 1_555 1_555
C1 H3 1_555 1_555
F2 C6 1_555 1_555
N2 C11 1_555 1_555
C2 C1 1_555 1_555
N3 S1 1_555 1_555
O3 S1 1_555 1_555
C3 C2 1_555 1_555
H4 C3 1_555 1_555
C4 N3 1_555 1_555
H5 C4 1_555 1_555
C5 C3 1_555 1_555
H6 C5 1_555 1_555
C6 C5 1_555 1_555
C7 C1 1_555 1_555
C8 C7 1_555 1_555
H7 C8 1_555 1_555
C9 N1 1_555 1_555
H8 C9 1_555 1_555
C10 C9 1_555 1_555
H9 C10 1_555 1_555
H10 C10 1_555 1_555
C11 C10 1_555 1_555
H11 C11 1_555 1_555
C12 O1 1_555 1_555
H12 C12 1_555 1_555
H13 C12 1_555 1_555
C13 N2 1_555 1_555
H14 C13 1_555 1_555
H15 C13 1_555 1_555
C14 C13 1_555 1_555
N4 N3 1_555 1_555
C15 C4 1_555 1_555
C16 N2 1_555 1_555
H16 C16 1_555 1_555
H17 C16 1_555 1_555
C17 S1 1_555 1_555
H18 C17 1_555 1_555
H19 C17 1_555 1_555
H20 C17 1_555 1_555
C6 C7 1_555 1_555
C8 C9 1_555 1_555
C11 C12 1_555 1_555
C14 N4 1_555 1_555
C14 C15 1_555 1_555
C15 C16 1_555 1_555

#END
