
#######################################################################
#
#                 Cambridge Crystallographic Data Centre
#                                CCDC 
#
#######################################################################
#
# If this CIF has been generated from an entry in the Cambridge 
# Structural Database, then it will include bibliographic, chemical, 
# crystal, experimental, refinement or atomic coordinate data resulting 
# from the CCDC's data processing and validation procedures.
#
#######################################################################

data_QABPOA
_chemical_formula_moiety         
'C40 H44 N24 O12,C18 H28 N4 2+,2(Cl1 1-),21(H2 O1)'
_chemical_name_systematic        
"\a,\a',\f,\f'-Tetramethylcucurbit(6)uril N,N'-bis(4-pyridylmethyl)-1,6-hexanediamine dichloride henicosahydrate"
_symmetry_cell_setting           monoclinic
_symmetry_space_group_name_H-M   'P 21/c'
_symmetry_Int_Tables_number      14
_space_group_name_Hall           '-P 2ybc'
loop_
_symmetry_equiv_pos_site_id
_symmetry_equiv_pos_as_xyz
1 x,y,z
2 -x,1/2+y,1/2-z
3 -x,-y,-z
4 x,1/2-y,1/2+z
_cell_length_a                   14.686(3)
_cell_length_b                   20.098(5)
_cell_length_c                   14.503(3)
_cell_angle_alpha                90
_cell_angle_beta                 111.058(3)
_cell_angle_gamma                90
_cell_volume                     3994.82
_cell_formula_units_Z            2
loop_
_atom_site_label
_atom_site_type_symbol
_atom_site_fract_x
_atom_site_fract_y
_atom_site_fract_z
Cl1 Cl 0.3199(3) 0.2932(2) 0.6499(4)
O1 O 0.7074(4) 0.1873(4) 0.8983(5)
O2 O 0.7726(4) 0.1513(3) 0.1346(5)
O3 O 0.6548(5) 0.2500(3) 0.6834(6)
O4 O 0.2362(5) 0.3520(4) 0.4004(7)
O5 O 0.3617(6) 0.2619(3) 0.3527(6)
O6 O 0.2150(7) 0.6127(6) 0.5578(6)
O8 O 0.0195(11) 0.8875(6) 0.9494(7)
O9 O -0.0627(15) 0.9850(13) 1.0383(13)
O10 O 0.5432(11) 0.2687(10) 0.4759(15)
C1 C 0.1947(4) 0.8377(2) 0.5808(4)
C2 C 0.0980(4) 0.7749(2) 0.4471(4)
H1 H 0.1025 0.7262 0.4454
C3 C 0.1799(3) 0.8085(2) 0.4201(4)
H2 H 0.2239 0.7756 0.4086
C4 C 0.0271(4) 0.8370(2) 0.3007(4)
C5 C 0.3264(3) 0.8754(2) 0.5243(4)
H3 H 0.3597 0.8464 0.4932
H4 H 0.3628 0.8746 0.5949
C6 C 0.1748(3) 0.8829(2) 0.2760(4)
H5 H 0.1291 0.8890 0.2091
H6 H 0.2291 0.8568 0.2725
C7 C 0.3350(3) 0.9972(2) 0.5475(3)
C8 C 0.3107(3) 0.9613(2) 0.3861(3)
C9 C 0.3127(3) 1.0410(2) 0.3911(3)
C10 C 0.1585(4) 1.0040(2) 0.2805(4)
C11 C 0.3334(3) 1.1174(2) 0.5404(4)
H7 H 0.3691 1.1479 0.5142
H8 H 0.3690 1.1134 0.6109
C12 C 0.1803(3) 1.1249(2) 0.2908(4)
H9 H 0.2358 1.1506 0.2898
H10 H 0.1342 1.1221 0.2234
C13 C 0.2030(3) 1.1526(2) 0.6008(4)
C14 C 0.1914(3) 1.1915(2) 0.4447(4)
H11 H 0.2381 1.2240 0.4373
C15 C 0.1128(4) 1.2250(2) 0.4771(4)
H12 H 0.1221 1.2733 0.4832
C16 C 0.0367(4) 1.1719(2) 0.3221(4)
C17 C 0.0722(4) 0.7659(3) 0.6105(4)
H13 H 0.0650 0.7188 0.5950
H14 H 0.1173 0.7704 0.6781
C18 C -0.0865(4) 0.7754(3) 0.3586(4)
H15 H -0.0839 0.7274 0.3667
H16 H -0.1304 0.7851 0.2919
C19 C 0.3875(3) 0.9292(3) 0.3519(4)
H17 H 0.3758 0.9418 0.2848
H18 H 0.3837 0.8817 0.3561
H19 H 0.4512 0.9440 0.3934
C20 C 0.3900(4) 1.0736(3) 0.3597(4)
H20 H 0.3765 1.0647 0.2911
H21 H 0.4529 1.0560 0.3984
H22 H 0.3895 1.1208 0.3699
N3 N 0.1145(3) 0.79831(19) 0.5449(3)
N4 N 0.2298(3) 0.84954(19) 0.5057(3)
N5 N 0.0086(3) 0.7992(2) 0.3704(3)
N6 N 0.1270(3) 0.84542(19) 0.3310(3)
N7 N 0.3269(3) 0.94308(18) 0.4881(3)
N8 N 0.3300(3) 1.05304(18) 0.4951(3)
N9 N 0.2112(3) 0.94783(18) 0.3176(3)
N10 N 0.2132(3) 1.05778(18) 0.3258(3)
N11 N 0.2378(3) 1.14513(19) 0.5245(3)
N12 N -0.1263(3) 0.8049(2) 0.4292(3)
N13 N 0.1346(3) 1.1600(2) 0.3499(3)
N14 N -0.0213(3) 0.7924(2) 0.6036(3)
O12 O 0.2300(2) 0.8597(2) 0.6648(3)
O13 O 0.3482(3) 0.99391(15) 0.6369(3)
O14 O 0.2360(3) 1.12497(19) 0.6811(3)
O15 O -0.0334(2) 0.8580(2) 0.2237(3)
O16 O 0.0762(2) 1.00584(15) 0.2184(3)
O17 O -0.0249(3) 1.15577(19) 0.2437(3)
C1B C -0.1947(4) 1.1623(2) 0.4192(4)
C2B C -0.0980(4) 1.2251(2) 0.5529(4)
H1B H -0.1025 1.2738 0.5546
C3B C -0.1799(3) 1.1915(2) 0.5799(4)
H2B H -0.2239 1.2244 0.5914
C4B C -0.0271(4) 1.1630(2) 0.6993(4)
C5B C -0.3264(3) 1.1246(2) 0.4757(4)
H3B H -0.3597 1.1536 0.5068
H4B H -0.3628 1.1254 0.4051
C6B C -0.1748(3) 1.1171(2) 0.7240(4)
H5B H -0.1291 1.1110 0.7909
H6B H -0.2291 1.1432 0.7275
C7B C -0.3350(3) 1.0028(2) 0.4525(3)
C8B C -0.3107(3) 1.0387(2) 0.6139(3)
C9B C -0.3127(3) 0.9590(2) 0.6089(3)
C10B C -0.1585(4) 0.9960(2) 0.7195(4)
C11B C -0.3334(3) 0.8826(2) 0.4596(4)
H7B H -0.3691 0.8521 0.4858
H8B H -0.3690 0.8866 0.3891
C12B C -0.1803(3) 0.8751(2) 0.7092(4)
H9B H -0.2358 0.8494 0.7102
H10B H -0.1342 0.8779 0.7766
C13B C -0.2030(3) 0.8474(2) 0.3992(4)
C14B C -0.1914(3) 0.8085(2) 0.5553(4)
H11B H -0.2381 0.7760 0.5627
C15B C -0.1128(4) 0.7750(2) 0.5229(4)
H12B H -0.1221 0.7267 0.5168
C16B C -0.0367(4) 0.8281(2) 0.6779(4)
C17B C -0.0722(4) 1.2341(3) 0.3895(4)
H13B H -0.0650 1.2812 0.4050
H14B H -0.1173 1.2296 0.3219
C18B C 0.0865(4) 1.2246(3) 0.6414(4)
H15B H 0.0839 1.2726 0.6333
H16B H 0.1304 1.2149 0.7081
C19B C -0.3875(3) 1.0708(3) 0.6481(4)
H17B H -0.3758 1.0582 0.7152
H18B H -0.3837 1.1183 0.6439
H19B H -0.4512 1.0560 0.6066
C20B C -0.3900(4) 0.9264(3) 0.6403(4)
H20B H -0.3765 0.9353 0.7089
H21B H -0.4529 0.9440 0.6016
H22B H -0.3895 0.8792 0.6301
N3B N -0.1145(3) 1.20169(19) 0.4551(3)
N4B N -0.2298(3) 1.15046(19) 0.4943(3)
N5B N -0.0086(3) 1.2008(2) 0.6296(3)
N6B N -0.1270(3) 1.15458(19) 0.6690(3)
N7B N -0.3269(3) 1.05692(18) 0.5119(3)
N8B N -0.3300(3) 0.94696(18) 0.5049(3)
N9B N -0.2112(3) 1.05217(18) 0.6824(3)
N10B N -0.2132(3) 0.94222(18) 0.6742(3)
N11B N -0.2378(3) 0.85487(19) 0.4755(3)
N12B N 0.1263(3) 1.1951(2) 0.5708(3)
N13B N -0.1346(3) 0.8400(2) 0.6501(3)
N14B N 0.0213(3) 1.2076(2) 0.3964(3)
O12B O -0.2300(2) 1.1403(2) 0.3352(3)
O13B O -0.3482(3) 1.00609(15) 0.3631(3)
O14B O -0.2360(3) 0.87503(19) 0.3189(3)
O15B O 0.0334(2) 1.1420(2) 0.7763(3)
O16B O -0.0762(2) 0.99416(15) 0.7816(3)
O17B O 0.0249(3) 0.84423(19) 0.7563(3)
C21 C 0.4376(4) -0.0663(3) 0.8676(4)
H23 H 0.4031 -0.1058 0.8632
C22 C 0.5339(5) -0.0677(5) 0.8776(5)
H24 H 0.5642 -0.1085 0.8784
N1 N 0.5845(4) -0.0126(4) 0.8860(4)
C23 C 0.5415(6) 0.0462(4) 0.8816(5)
H25 H 0.5778 0.0848 0.8862
C24 C 0.4448(5) 0.0511(3) 0.8703(4)
H26 H 0.4157 0.0926 0.8668
C25 C 0.3922(4) -0.0056(2) 0.8643(4)
C26 C 0.2849(4) -0.0023(2) 0.8506(4)
H27 H 0.2696 -0.0376 0.8884
H28 H 0.2711 0.0399 0.8752
N2 N 0.2238(3) -0.0094(2) 0.7459(3)
H29 H 0.2364 -0.0490 0.7239
H30 H 0.2399 0.0226 0.7111
C27 C 0.1171(4) -0.0049(2) 0.7274(4)
H31 H 0.1005 -0.0373 0.7683
H32 H 0.1027 0.0390 0.7466
C28 C 0.0557(7) -0.0167(6) 0.6222(7)
H33 H 0.0656 -0.0637 0.6139
H34 H -0.0101 -0.0135 0.6226
C29 C 0.0475(13) 0.0065(5) 0.5422(8)
H35 H 0.1002 -0.0109 0.5237
H36 H 0.0565 0.0543 0.5496
C21B C -0.4376(4) 0.0663(3) 0.1324(4)
H23B H -0.4031 0.1058 0.1368
C22B C -0.5339(5) 0.0677(5) 0.1224(5)
H24B H -0.5642 0.1085 0.1216
N1B N -0.5845(4) 0.0126(4) 0.1140(4)
C23B C -0.5415(6) -0.0462(4) 0.1184(5)
H25B H -0.5778 -0.0848 0.1138
C24B C -0.4448(5) -0.0511(3) 0.1297(4)
H26B H -0.4157 -0.0926 0.1332
C25B C -0.3922(4) 0.0056(2) 0.1357(4)
C26B C -0.2849(4) 0.0023(2) 0.1494(4)
H27B H -0.2696 0.0376 0.1116
H28B H -0.2711 -0.0399 0.1248
N2B N -0.2238(3) 0.0094(2) 0.2541(3)
H29B H -0.2364 0.0490 0.2761
H30B H -0.2399 -0.0226 0.2889
C27B C -0.1171(4) 0.0049(2) 0.2726(4)
H31B H -0.1005 0.0373 0.2317
H32B H -0.1027 -0.0390 0.2534
C28B C -0.0557(7) 0.0167(6) 0.3778(7)
H33B H -0.0656 0.0637 0.3861
H34B H 0.0101 0.0135 0.3774
C29B C -0.0475(13) -0.0065(5) 0.4578(8)
H35B H -0.1002 0.0109 0.4763
H36B H -0.0565 -0.0543 0.4504
O7? O 0.2322(12) 0.5397(9) 0.5899(12)
O11? O 0.6550(16) 0.2140(10) 0.850(2)
O18? O 0.2323(9) 0.3917(12) 0.5841(11)
O19? O 0.4741(11) 0.2494(8) 0.5518(16)
O20? O -0.054(2) 0.906(3) 1.024(2)
O21? O 0.2359(11) 0.4751(12) 0.6042(11)
loop_
_geom_bond_atom_site_label_1
_geom_bond_atom_site_label_2
_geom_bond_site_symmetry_1
_geom_bond_site_symmetry_2
C1 N3 1_555 1_555
C2 H1 1_555 1_555
C3 C2 1_555 1_555
H2 C3 1_555 1_555
C4 N5 1_555 1_555
C5 H3 1_555 1_555
H4 C5 1_555 1_555
C6 H5 1_555 1_555
H6 C6 1_555 1_555
C7 N7 1_555 1_555
C8 C9 1_555 1_555
C9 C20 1_555 1_555
C10 N9 1_555 1_555
C11 H7 1_555 1_555
H8 C11 1_555 1_555
C12 H9 1_555 1_555
H10 C12 1_555 1_555
C13 N11 1_555 1_555
C14 H11 1_555 1_555
C15 C14 1_555 1_555
H12 C15 1_555 1_555
C16 N13 1_555 1_555
C17 H13 1_555 1_555
H14 C17 1_555 1_555
C18 H15 1_555 1_555
H16 C18 1_555 1_555
C19 C8 1_555 1_555
H17 C19 1_555 1_555
H18 C19 1_555 1_555
H19 C19 1_555 1_555
C20 H20 1_555 1_555
H21 C20 1_555 1_555
H22 C20 1_555 1_555
C21 H23 1_555 1_555
C22 C21 1_555 1_555
H24 C22 1_555 1_555
N1 C22 1_555 1_555
C23 N1 1_555 1_555
H25 C23 1_555 1_555
C24 C23 1_555 1_555
H26 C24 1_555 1_555
C25 C21 1_555 1_555
C26 C25 1_555 1_555
H27 C26 1_555 1_555
H28 C26 1_555 1_555
N2 C26 1_555 1_555
H29 N2 1_555 1_555
H30 N2 1_555 1_555
C27 N2 1_555 1_555
H31 C27 1_555 1_555
H32 C27 1_555 1_555
C28 C27 1_555 1_555
H33 C28 1_555 1_555
H34 C28 1_555 1_555
C29 C28 1_555 1_555
H35 C29 1_555 1_555
H36 C29 1_555 1_555
N3 C2 1_555 1_555
N4 C1 1_555 1_555
N5 C2 1_555 1_555
N6 C3 1_555 1_555
N7 C5 1_555 1_555
N8 C7 1_555 1_555
N9 C6 1_555 1_555
N10 C9 1_555 1_555
N11 C11 1_555 1_555
N12 C18 1_555 1_555
N13 C12 1_555 1_555
N14 C17 1_555 1_555
O12 C1 1_555 1_555
O13 C7 1_555 1_555
O14 C13 1_555 1_555
O15 C4 1_555 1_555
O16 C10 1_555 1_555
O17 C16 1_555 1_555
C1B N3B 1_555 1_555
C2B H1B 1_555 1_555
C3B C2B 1_555 1_555
H2B C3B 1_555 1_555
C4B N5B 1_555 1_555
C5B H3B 1_555 1_555
H4B C5B 1_555 1_555
C6B H5B 1_555 1_555
H6B C6B 1_555 1_555
C7B N7B 1_555 1_555
C8B C9B 1_555 1_555
C9B C20B 1_555 1_555
C10B N9B 1_555 1_555
C11B H7B 1_555 1_555
H8B C11B 1_555 1_555
C12B H9B 1_555 1_555
H10B C12B 1_555 1_555
C13B N12 1_555 1_555
C14B H11B 1_555 1_555
C15B N12 1_555 1_555
H12B C15B 1_555 1_555
C16B N14 1_555 1_555
C17B H13B 1_555 1_555
H14B C17B 1_555 1_555
C18B H15B 1_555 1_555
H16B C18B 1_555 1_555
C19B C8B 1_555 1_555
H17B C19B 1_555 1_555
H18B C19B 1_555 1_555
H19B C19B 1_555 1_555
C20B H20B 1_555 1_555
H21B C20B 1_555 1_555
H22B C20B 1_555 1_555
C21B H23B 1_555 1_555
C22B C21B 1_555 1_555
H24B C22B 1_555 1_555
N1B C22B 1_555 1_555
C23B N1B 1_555 1_555
H25B C23B 1_555 1_555
C24B C23B 1_555 1_555
H26B C24B 1_555 1_555
C25B C21B 1_555 1_555
C26B C25B 1_555 1_555
H27B C26B 1_555 1_555
H28B C26B 1_555 1_555
N2B C26B 1_555 1_555
H29B N2B 1_555 1_555
H30B N2B 1_555 1_555
C27B N2B 1_555 1_555
H31B C27B 1_555 1_555
H32B C27B 1_555 1_555
C28B C27B 1_555 1_555
H33B C28B 1_555 1_555
H34B C28B 1_555 1_555
C29B C29 1_555 1_555
H35B C29B 1_555 1_555
H36B C29B 1_555 1_555
N3B C2B 1_555 1_555
N4B C1B 1_555 1_555
N5B C2B 1_555 1_555
N6B C3B 1_555 1_555
N7B C5B 1_555 1_555
N8B C7B 1_555 1_555
N9B C6B 1_555 1_555
N10B C9B 1_555 1_555
N11B C11B 1_555 1_555
N12B C13 1_555 1_555
N13B C12B 1_555 1_555
N14B C15 1_555 1_555
O12B C1B 1_555 1_555
O13B C7B 1_555 1_555
O14B C13B 1_555 1_555
O15B C4B 1_555 1_555
O16B C10B 1_555 1_555
O17B C16B 1_555 1_555
C3 N4 1_555 1_555
C4 N6 1_555 1_555
C5 N4 1_555 1_555
C6 N6 1_555 1_555
C8 N7 1_555 1_555
C8 N9 1_555 1_555
C9 N8 1_555 1_555
C10 N10 1_555 1_555
C11 N8 1_555 1_555
C12 N10 1_555 1_555
C14 N11 1_555 1_555
C14 N13 1_555 1_555
C15 N12B 1_555 1_555
C16 N14B 1_555 1_555
C17 N3 1_555 1_555
C18 N5 1_555 1_555
C24 C25 1_555 1_555
N14 C15B 1_555 1_555
C3B N4B 1_555 1_555
C4B N6B 1_555 1_555
C5B N4B 1_555 1_555
C6B N6B 1_555 1_555
C8B N7B 1_555 1_555
C8B N9B 1_555 1_555
C9B N8B 1_555 1_555
C10B N10B 1_555 1_555
C11B N8B 1_555 1_555
C12B N10B 1_555 1_555
C13B N11B 1_555 1_555
C14B C15B 1_555 1_555
C14B N11B 1_555 1_555
C14B N13B 1_555 1_555
C16B N13B 1_555 1_555
C17B N3B 1_555 1_555
C17B N14B 1_555 1_555
C18B N5B 1_555 1_555
C18B N12B 1_555 1_555
C24B C25B 1_555 1_555
C28B C29B 1_555 1_555

#END
