
#######################################################################
#
#                 Cambridge Crystallographic Data Centre
#                                CCDC 
#
#######################################################################
#
# If this CIF has been generated from an entry in the Cambridge 
# Structural Database, then it will include bibliographic, chemical, 
# crystal, experimental, refinement or atomic coordinate data resulting 
# from the CCDC's data processing and validation procedures.
#
#######################################################################

data_QABQES
_chemical_formula_moiety         'C22 H28 N2 O2'
_chemical_name_systematic        
N,N'-diisopropyl-1,2-bis(2-methoxyphenyl)ethane-1,2-diimine
_symmetry_cell_setting           triclinic
_symmetry_space_group_name_H-M   'P -1'
_symmetry_Int_Tables_number      2
_space_group_name_Hall           '-P 1'
loop_
_symmetry_equiv_pos_site_id
_symmetry_equiv_pos_as_xyz
1 x,y,z
2 -x,-y,-z
_cell_length_a                   7.7110(6)
_cell_length_b                   8.0184(5)
_cell_length_c                   9.1829(7)
_cell_angle_alpha                91.270(6)
_cell_angle_beta                 113.790(5)
_cell_angle_gamma                102.764(6)
_cell_volume                     502.74
_exptl_crystal_colour            colorless
_exptl_crystal_description       spline
_cell_formula_units_Z            1
loop_
_atom_site_label
_atom_site_type_symbol
_atom_site_fract_x
_atom_site_fract_y
_atom_site_fract_z
O1 O 0.24000(10) 0.25921(10) 0.43483(9)
N1 N 0.27530(12) -0.12275(11) 0.35457(10)
C1 C 0.42184(13) 0.00674(12) 0.42003(10)
C2 C 0.45345(13) 0.16961(12) 0.34780(10)
C3 C 0.35810(12) 0.29610(12) 0.35693(11)
C4 C 0.38520(15) 0.44692(13) 0.28822(12)
H1 H 0.319(2) 0.5362(19) 0.2990(17)
C5 C 0.50214(16) 0.46844(16) 0.20570(13)
H2 H 0.522(2) 0.574(2) 0.1584(19)
C6 C 0.59332(16) 0.34388(17) 0.19231(13)
H3 H 0.674(2) 0.360(2) 0.1343(19)
C7 C 0.57091(14) 0.19534(15) 0.26523(12)
H4 H 0.6334(19) 0.1008(18) 0.2574(16)
C8 C 0.11634(17) 0.37192(19) 0.42426(16)
H5 H 0.032(2) 0.316(2) 0.4780(19)
H6 H 0.036(2) 0.380(2) 0.3077(19)
H7 H 0.195(2) 0.492(2) 0.4800(18)
C9 C 0.11898(16) -0.11323(14) 0.19836(13)
H8 H 0.1343(18) 0.0009(17) 0.1673(15)
C10 C -0.0691(8) -0.1894(6) 0.1955(6)
H9 H -0.0771 -0.3097 0.2160
H10 H -0.1717 -0.1850 0.0901
H11 H -0.0870 -0.1256 0.2785
C11 C 0.1720(6) -0.2076(5) 0.0601(5)
H12 H 0.3013 -0.1452 0.0695
H13 H 0.0730 -0.2048 -0.0475
H14 H 0.1724 -0.3275 0.0784
O1A O 0.76000(10) -0.25921(10) 0.56517(9)
N1A N 0.72470(12) 0.12275(11) 0.64543(10)
C1A C 0.57816(13) -0.00674(12) 0.57997(10)
C2A C 0.54655(13) -0.16961(12) 0.65220(10)
C3A C 0.64190(12) -0.29610(12) 0.64307(11)
C4A C 0.61480(15) -0.44692(13) 0.71178(12)
H1A H 0.681(2) -0.5362(19) 0.7010(17)
C5A C 0.49786(16) -0.46844(16) 0.79430(13)
H2A H 0.478(2) -0.574(2) 0.8416(19)
C6A C 0.40668(16) -0.34388(17) 0.80769(13)
H3A H 0.326(2) -0.360(2) 0.8657(19)
C7A C 0.42909(14) -0.19534(15) 0.73477(12)
H4A H 0.3666(19) -0.1008(18) 0.7426(16)
C8A C 0.88366(17) -0.37192(19) 0.57574(16)
H5A H 0.968(2) -0.316(2) 0.5220(19)
H6A H 0.964(2) -0.380(2) 0.6923(19)
H7A H 0.805(2) -0.492(2) 0.5200(18)
C9A C 0.88102(16) 0.11323(14) 0.80164(13)
H8A H 0.8657(18) -0.0009(17) 0.8327(15)
C10A C 1.0691(8) 0.1894(6) 0.8045(6)
H9A H 1.0771 0.3097 0.7840
H10A H 1.1717 0.1850 0.9099
H11A H 1.0870 0.1256 0.7215
C11A C 0.8280(6) 0.2076(5) 0.9399(5)
H12A H 0.6987 0.1452 0.9305
H13A H 0.9270 0.2048 1.0475
H14A H 0.8276 0.3275 0.9216
C12? C -0.0799(12) -0.1301(11) 0.2333(10)
H15? H -0.1115 -0.2415 0.2706
H16? H -0.1902 -0.1216 0.1341
H17? H -0.0549 -0.0369 0.3156
C13? C 0.0560(11) -0.2636(10) 0.0991(9)
H18? H 0.1688 -0.2961 0.0937
H19? H -0.0335 -0.2482 -0.0085
H20? H -0.0124 -0.3545 0.1406
C14? C 0.1160(6) -0.2330(5) 0.0746(4)
H21? H 0.2410 -0.2006 0.0652
H22? H 0.0090 -0.2286 -0.0283
H23? H 0.0961 -0.3503 0.1040
loop_
_geom_bond_atom_site_label_1
_geom_bond_atom_site_label_2
_geom_bond_site_symmetry_1
_geom_bond_site_symmetry_2
O1 C3 1_555 1_555
N1 C1 1_555 1_555
C1 C2 1_555 1_555
C2 C3 1_555 1_555
C3 C4 1_555 1_555
C4 H1 1_555 1_555
C5 C4 1_555 1_555
H2 C5 1_555 1_555
C6 C5 1_555 1_555
H3 C6 1_555 1_555
C7 C2 1_555 1_555
H4 C7 1_555 1_555
C8 O1 1_555 1_555
H5 C8 1_555 1_555
H6 C8 1_555 1_555
H7 C8 1_555 1_555
C9 N1 1_555 1_555
H8 C9 1_555 1_555
C10 C9 1_555 1_555
H9 C10 1_555 1_555
H10 C10 1_555 1_555
H11 C10 1_555 1_555
C11 C9 1_555 1_555
H12 C11 1_555 1_555
H13 C11 1_555 1_555
H14 C11 1_555 1_555
O1A C3A 1_555 1_555
N1A C1A 1_555 1_555
C1A C1 1_555 1_555
C2A C1A 1_555 1_555
C3A C2A 1_555 1_555
C4A C3A 1_555 1_555
H1A C4A 1_555 1_555
C5A C4A 1_555 1_555
H2A C5A 1_555 1_555
C6A C5A 1_555 1_555
H3A C6A 1_555 1_555
C7A C2A 1_555 1_555
H4A C7A 1_555 1_555
C8A O1A 1_555 1_555
H5A C8A 1_555 1_555
H6A C8A 1_555 1_555
H7A C8A 1_555 1_555
C9A N1A 1_555 1_555
H8A C9A 1_555 1_555
C10A C9A 1_555 1_555
H9A C10A 1_555 1_555
H10A C10A 1_555 1_555
H11A C10A 1_555 1_555
C11A C9A 1_555 1_555
H12A C11A 1_555 1_555
H13A C11A 1_555 1_555
H14A C11A 1_555 1_555
C6 C7 1_555 1_555
C6A C7A 1_555 1_555

#END
