
#######################################################################
#
#                 Cambridge Crystallographic Data Centre
#                                CCDC 
#
#######################################################################
#
# If this CIF has been generated from an entry in the Cambridge 
# Structural Database, then it will include bibliographic, chemical, 
# crystal, experimental, refinement or atomic coordinate data resulting 
# from the CCDC's data processing and validation procedures.
#
#######################################################################

data_QABSAQ
_chemical_formula_moiety         'C6 H6 N1 O3 S1 1-,C8 H20 N1 1+'
_chemical_name_systematic        'tetraethylammonium 4-aminobenzenesulfonate'
_symmetry_cell_setting           monoclinic
_symmetry_space_group_name_H-M   'P c'
_symmetry_Int_Tables_number      7
_space_group_name_Hall           'P -2yc'
loop_
_symmetry_equiv_pos_site_id
_symmetry_equiv_pos_as_xyz
1 x,y,z
2 x,-y,1/2+z
_cell_length_a                   7.1396(4)
_cell_length_b                   9.2946(5)
_cell_length_c                   13.4298(7)
_cell_angle_alpha                90
_cell_angle_beta                 115.688(4)
_cell_angle_gamma                90
_cell_volume                     803.119
_exptl_crystal_colour            colorless
_exptl_crystal_description       block
_cell_formula_units_Z            2
loop_
_atom_site_label
_atom_site_type_symbol
_atom_site_fract_x
_atom_site_fract_y
_atom_site_fract_z
S1 S 0.78442(13) 0.25528(8) 0.49051(9)
O1 O 0.8906(5) 0.1364(3) 0.4677(3)
N1 N 0.3492(5) 0.5824(3) 0.0718(3)
H1 H 0.213(3) 0.608(5) 0.053(4)
H2 H 0.421(6) 0.650(3) 0.052(4)
C1 C 0.6529(5) 0.3505(3) 0.3650(3)
O2 O 0.9277(4) 0.3581(3) 0.5679(2)
C2 C 0.4389(5) 0.3682(3) 0.3180(3)
H3 H 0.3626 0.3286 0.3524
O3 O 0.6277(4) 0.2087(3) 0.5242(2)
C3 C 0.3379(5) 0.4437(3) 0.2207(3)
H4 H 0.1939 0.4524 0.1890
C4 C 0.4508(5) 0.5068(3) 0.1697(3)
C5 C 0.6641(5) 0.4893(4) 0.2168(3)
H5 H 0.7410 0.5301 0.1832
C6 C 0.7641(5) 0.4118(3) 0.3134(3)
H6 H 0.9076 0.4007 0.3441
N2 N 0.2774(4) 0.8729(3) 0.3498(3)
C7 C 0.3216(6) 0.8450(4) 0.2521(3)
H7 H 0.1910 0.8466 0.1860
H8 H 0.3789 0.7489 0.2590
C8 C 0.4690(7) 0.9495(5) 0.2366(4)
H9 H 0.4884 0.9224 0.1727
H10 H 0.6005 0.9476 0.3007
H11 H 0.4119 1.0448 0.2265
C9 C 0.1901(7) 1.0227(4) 0.3462(4)
H12 H 0.1524 1.0324 0.4071
H13 H 0.2987 1.0924 0.3575
C10 C 0.0041(8) 1.0590(6) 0.2408(5)
H14 H -0.0429 1.1543 0.2460
H15 H -0.1051 0.9912 0.2289
H16 H 0.0412 1.0547 0.1802
C11 C 0.1226(6) 0.7592(4) 0.3466(4)
H17 H 0.1806 0.6652 0.3455
H18 H -0.0026 0.7698 0.2782
C12 C 0.0637(8) 0.7646(5) 0.4424(5)
H19 H -0.0333 0.6889 0.4344
H20 H 0.0010 0.8559 0.4427
H21 H 0.1860 0.7524 0.5106
C13 C 0.4746(6) 0.8633(4) 0.4560(4)
H22 H 0.4421 0.8875 0.5171
H23 H 0.5718 0.9349 0.4540
C14 C 0.5809(7) 0.7172(4) 0.4789(4)
H24 H 0.7035 0.7204 0.5478
H25 H 0.6189 0.6935 0.4205
H26 H 0.4876 0.6455 0.4827
loop_
_geom_bond_atom_site_label_1
_geom_bond_atom_site_label_2
_geom_bond_site_symmetry_1
_geom_bond_site_symmetry_2
S1 O1 1_555 1_555
N1 H1 1_555 1_555
H2 N1 1_555 1_555
C1 S1 1_555 1_555
O2 S1 1_555 1_555
C2 C1 1_555 1_555
H3 C2 1_555 1_555
O3 S1 1_555 1_555
C3 C2 1_555 1_555
H4 C3 1_555 1_555
C4 N1 1_555 1_555
C5 C4 1_555 1_555
H5 C5 1_555 1_555
C6 C1 1_555 1_555
H6 C6 1_555 1_555
N2 C7 1_555 1_555
C7 H7 1_555 1_555
H8 C7 1_555 1_555
C8 C7 1_555 1_555
H9 C8 1_555 1_555
H10 C8 1_555 1_555
H11 C8 1_555 1_555
C9 N2 1_555 1_555
H12 C9 1_555 1_555
H13 C9 1_555 1_555
C10 C9 1_555 1_555
H14 C10 1_555 1_555
H15 C10 1_555 1_555
H16 C10 1_555 1_555
C11 N2 1_555 1_555
H17 C11 1_555 1_555
H18 C11 1_555 1_555
C12 C11 1_555 1_555
H19 C12 1_555 1_555
H20 C12 1_555 1_555
H21 C12 1_555 1_555
C13 N2 1_555 1_555
H22 C13 1_555 1_555
H23 C13 1_555 1_555
C14 C13 1_555 1_555
H24 C14 1_555 1_555
H25 C14 1_555 1_555
H26 C14 1_555 1_555
C3 C4 1_555 1_555
C5 C6 1_555 1_555

#END
