
#######################################################################
#
#                 Cambridge Crystallographic Data Centre
#                                CCDC 
#
#######################################################################
#
# If this CIF has been generated from an entry in the Cambridge 
# Structural Database, then it will include bibliographic, chemical, 
# crystal, experimental, refinement or atomic coordinate data resulting 
# from the CCDC's data processing and validation procedures.
#
#######################################################################

data_QABTUK
_chemical_formula_moiety         'C34 H26 O2,0.5(C6 H12)'
_chemical_name_systematic        
'2,9,11-Triphenyl-12,18-dioxapentacyclo[8.6.1.1^2,9^.0^3,8^.0^13,17^]octadeca-3,5,7,10,13(17)-pentaene cyclohexane solvate'
_symmetry_cell_setting           monoclinic
_symmetry_space_group_name_H-M   'P 21/c'
_symmetry_Int_Tables_number      14
_space_group_name_Hall           '-P 2ybc'
loop_
_symmetry_equiv_pos_site_id
_symmetry_equiv_pos_as_xyz
1 x,y,z
2 -x,1/2+y,1/2-z
3 -x,-y,-z
4 x,1/2-y,1/2+z
_cell_length_a                   9.7864(2)
_cell_length_b                   14.5065(4)
_cell_length_c                   19.1323(5)
_cell_angle_alpha                90
_cell_angle_beta                 99.5040(10)
_cell_angle_gamma                90
_cell_volume                     2678.86
_exptl_crystal_colour            colorless
_exptl_crystal_description       block
_cell_formula_units_Z            4
loop_
_atom_site_label
_atom_site_type_symbol
_atom_site_fract_x
_atom_site_fract_y
_atom_site_fract_z
O1 O 0.43408(12) 1.12979(8) 0.08172(6)
O2 O 0.60452(13) 0.86509(8) 0.18220(7)
C1 C 0.1769(2) 1.09217(15) -0.06094(10)
H1 H 0.2065 1.0334 -0.0708
C2 C 0.0960(2) 1.14232(17) -0.11405(11)
H2 H 0.0712 1.1166 -0.1589
C3 C 0.0525(2) 1.22898(18) -0.10121(13)
H3 H -0.0010 1.2627 -0.1370
C4 C 0.0887(3) 1.26560(18) -0.03480(15)
H4 H 0.0593 1.3246 -0.0254
C5 C 0.1683(3) 1.21574(16) 0.01838(13)
H5 H 0.1917 1.2416 0.0632
C6 C 0.21392(18) 1.12803(13) 0.00610(10)
C7 C 0.5558(2) 1.27020(13) 0.20273(11)
H6 H 0.4630 1.2795 0.2061
C8 C 0.6507(2) 1.33980(15) 0.22257(14)
H7 H 0.6219 1.3952 0.2398
C9 C 0.7874(2) 1.32715(15) 0.21693(13)
H8 H 0.8516 1.3737 0.2306
C10 C 0.8289(2) 1.24566(14) 0.19108(13)
H9 H 0.9213 1.2373 0.1866
C11 C 0.73450(19) 1.17604(13) 0.17171(11)
H10 H 0.7637 1.1209 0.1542
C12 C 0.59688(17) 1.18718(12) 0.17806(9)
C13 C 0.7284(2) 1.04736(14) 0.31009(11)
H11 H 0.6661 1.0946 0.2954
C14 C 0.8239(3) 1.05797(17) 0.37106(12)
H12 H 0.8256 1.1124 0.3968
C15 C 0.9161(3) 0.98924(19) 0.39416(12)
H13 H 0.9821 0.9975 0.4346
C16 C 0.9103(2) 0.90778(18) 0.35684(12)
H14 H 0.9708 0.8601 0.3731
C17 C 0.8155(2) 0.89613(15) 0.29559(10)
H15 H 0.8126 0.8407 0.2710
C18 C 0.72407(18) 0.96686(13) 0.27023(9)
C19 C 0.4359(2) 0.78113(14) 0.09218(12)
H16 H 0.3973 0.7471 0.1280
H17 H 0.5028 0.7420 0.0744
C20 C 0.3199(2) 0.80843(14) 0.03130(11)
H18 H 0.3591 0.8140 -0.0119
H19 H 0.2518 0.7593 0.0243
C21 C 0.2461(2) 0.89904(13) 0.04355(11)
H20 H 0.1709 0.9099 0.0046
H21 H 0.2073 0.8948 0.0869
C22 C 0.34937(17) 0.97917(12) 0.04896(9)
H22 H 0.3857 0.9820 0.0042
C23 C 0.46679(17) 0.95317(12) 0.10610(9)
C24 C 0.54337(16) 1.01215(12) 0.15795(9)
C25 C 0.62594(17) 0.95589(12) 0.20443(9)
C26 C 0.50426(19) 0.86617(12) 0.12335(10)
C27 C 0.30414(17) 1.07778(12) 0.06595(9)
C28 C 0.49246(17) 1.11181(12) 0.15547(9)
C29 C 0.25272(17) 1.08339(12) 0.13657(9)
C30 C 0.12206(19) 1.06646(13) 0.15268(11)
H23 H 0.0491 1.0498 0.1174
C31 C 0.1024(2) 1.07486(14) 0.22237(12)
H24 H 0.0155 1.0632 0.2341
C32 C 0.2102(2) 1.10039(15) 0.27467(11)
H25 H 0.1947 1.1069 0.3211
C33 C 0.3419(2) 1.11651(13) 0.25885(10)
H26 H 0.4149 1.1327 0.2942
C34 C 0.36137(17) 1.10782(11) 0.18921(9)
C35 C 0.3798(18) 0.9457(8) 0.4685(6)
H27 H 0.3177 0.9162 0.4302
H28 H 0.3538 0.9280 0.5134
C36 C 0.3791(12) 1.0289(13) 0.4614(6)
H29 H 0.2846 1.0495 0.4459
H30 H 0.4327 1.0451 0.4248
C37 C 0.5571(14) 0.9173(7) 0.4655(6)
H31 H 0.5893 0.9427 0.4243
H32 H 0.5743 0.8514 0.4684
C35B C 0.6202(18) 1.0543(8) 0.5315(6)
H27B H 0.6823 1.0838 0.5698
H28B H 0.6462 1.0720 0.4866
C36B C 0.6209(12) 0.9711(13) 0.5386(6)
H29B H 0.7154 0.9505 0.5541
H30B H 0.5673 0.9549 0.5752
C37B C 0.4429(14) 1.0827(7) 0.5345(6)
H31B H 0.4107 1.0573 0.5757
H32B H 0.4257 1.1486 0.5316
loop_
_geom_bond_atom_site_label_1
_geom_bond_atom_site_label_2
_geom_bond_site_symmetry_1
_geom_bond_site_symmetry_2
O1 C27 1_555 1_555
O2 C25 1_555 1_555
C1 H1 1_555 1_555
C2 C1 1_555 1_555
H2 C2 1_555 1_555
C3 C2 1_555 1_555
H3 C3 1_555 1_555
C4 C3 1_555 1_555
H4 C4 1_555 1_555
C5 C4 1_555 1_555
H5 C5 1_555 1_555
C6 C1 1_555 1_555
C7 H6 1_555 1_555
C8 C7 1_555 1_555
H7 C8 1_555 1_555
C9 C8 1_555 1_555
H8 C9 1_555 1_555
C10 C9 1_555 1_555
H9 C10 1_555 1_555
C11 C10 1_555 1_555
H10 C11 1_555 1_555
C12 C7 1_555 1_555
C13 H11 1_555 1_555
C14 C13 1_555 1_555
H12 C14 1_555 1_555
C15 C14 1_555 1_555
H13 C15 1_555 1_555
C16 C15 1_555 1_555
H14 C16 1_555 1_555
C17 C16 1_555 1_555
H15 C17 1_555 1_555
C18 C13 1_555 1_555
C19 H16 1_555 1_555
H17 C19 1_555 1_555
C20 C19 1_555 1_555
H18 C20 1_555 1_555
H19 C20 1_555 1_555
C21 C20 1_555 1_555
H20 C21 1_555 1_555
H21 C21 1_555 1_555
C22 C21 1_555 1_555
H22 C22 1_555 1_555
C23 C22 1_555 1_555
C24 C23 1_555 1_555
C25 C18 1_555 1_555
C26 O2 1_555 1_555
C27 C6 1_555 1_555
C28 O1 1_555 1_555
C29 C27 1_555 1_555
C30 C29 1_555 1_555
H23 C30 1_555 1_555
C31 C30 1_555 1_555
H24 C31 1_555 1_555
C32 C31 1_555 1_555
H25 C32 1_555 1_555
C33 C32 1_555 1_555
H26 C33 1_555 1_555
C34 C28 1_555 1_555
C35 H27 1_555 1_555
H28 C35 1_555 1_555
C36 C35 1_555 1_555
H29 C36 1_555 1_555
H30 C36 1_555 1_555
C37 C35 1_555 1_555
H31 C37 1_555 1_555
H32 C37 1_555 1_555
C35B H27B 1_555 1_555
H28B C35B 1_555 1_555
C36B C37 1_555 1_555
H29B C36B 1_555 1_555
H30B C36B 1_555 1_555
C37B C36 1_555 1_555
H31B C37B 1_555 1_555
H32B C37B 1_555 1_555
C5 C6 1_555 1_555
C11 C12 1_555 1_555
C12 C28 1_555 1_555
C17 C18 1_555 1_555
C19 C26 1_555 1_555
C22 C27 1_555 1_555
C23 C26 1_555 1_555
C24 C25 1_555 1_555
C24 C28 1_555 1_555
C29 C34 1_555 1_555
C33 C34 1_555 1_555
C35B C36B 1_555 1_555
C35B C37B 1_555 1_555

#END
