
#######################################################################
#
#                 Cambridge Crystallographic Data Centre
#                                CCDC 
#
#######################################################################
#
# If this CIF has been generated from an entry in the Cambridge 
# Structural Database, then it will include bibliographic, chemical, 
# crystal, experimental, refinement or atomic coordinate data resulting 
# from the CCDC's data processing and validation procedures.
#
#######################################################################

data_QABWIC
_chemical_formula_moiety         'C31 H40 Br1 N5 O6 S1'
_chemical_name_systematic        
1-(2,2-dimethylpropanoyl)prolyl-N-(2-((2-((4-bromophenyl)carbamoyl)pyrrolidin-1-yl)sulfonyl)phenyl)-2-methylalaninamide
_symmetry_cell_setting           monoclinic
_symmetry_space_group_name_H-M   'P 21'
_symmetry_Int_Tables_number      4
_space_group_name_Hall           'P 2yb'
loop_
_symmetry_equiv_pos_site_id
_symmetry_equiv_pos_as_xyz
1 x,y,z
2 -x,1/2+y,-z
_cell_length_a                   6.5980(2)
_cell_length_b                   25.5565(8)
_cell_length_c                   9.6629(3)
_cell_angle_alpha                90
_cell_angle_beta                 96.854(2)
_cell_angle_gamma                90
_cell_volume                     1617.73
_exptl_crystal_colour            colorless
_exptl_crystal_description       needle
_cell_formula_units_Z            2
loop_
_atom_site_label
_atom_site_type_symbol
_atom_site_fract_x
_atom_site_fract_y
_atom_site_fract_z
Br1 Br 0.86332(8) 0.79926(3) 1.17404(6)
S1 S 0.1021(2) 0.46073(4) 1.05275(11)
O1 O 0.2891(6) 0.73089(14) 0.5332(4)
O2 O 0.1087(5) 0.61423(11) 0.7151(3)
O3 O -0.0850(5) 0.50970(11) 0.5374(3)
O4 O 0.2840(5) 0.47631(12) 0.9971(3)
O5 O 0.1111(5) 0.42536(13) 1.1667(3)
O6 O 0.1869(5) 0.60131(11) 1.2171(3)
N1 N -0.0184(6) 0.70811(14) 0.5720(4)
N2 N 0.2153(5) 0.58189(13) 0.5182(3)
H1 H 0.2431 0.5894 0.4357
N3 N 0.0954(5) 0.47288(12) 0.7280(3)
H2 H 0.2134 0.4717 0.7766
N4 N -0.0015(6) 0.51327(14) 1.1028(3)
N5 N 0.2073(6) 0.63796(14) 1.0062(3)
H3 H 0.1575 0.6367 0.9198
C1 C 0.1345(8) 0.74292(19) 0.5819(5)
C2 C 0.0016(8) 0.65897(18) 0.4994(5)
H4 H 0.0599 0.6645 0.4119
C3 C -0.2252(10) 0.6404(2) 0.4712(7)
H5 H -0.2910 0.6545 0.3840
H6 H -0.2338 0.6026 0.4681
C4 C -0.3191(10) 0.6615(2) 0.5910(9)
H7 H -0.2857 0.6400 0.6733
H8 H -0.4663 0.6637 0.5701
C5 C -0.2268(8) 0.7141(2) 0.6103(7)
H9 H -0.3035 0.7395 0.5503
H10 H -0.2233 0.7254 0.7063
C6 C 0.1200(7) 0.61749(17) 0.5881(4)
C7 C 0.2740(6) 0.53074(16) 0.5765(4)
C8 C 0.4444(7) 0.53518(18) 0.6970(4)
H11 H 0.5584 0.5533 0.6662
H12 H 0.4863 0.5008 0.7286
H13 H 0.3959 0.5542 0.7721
C9 C 0.3459(6) 0.49832(18) 0.4579(4)
H14 H 0.2383 0.4964 0.3818
H15 H 0.3809 0.4637 0.4909
H16 H 0.4634 0.5146 0.4267
C10 C 0.0758(7) 0.50410(16) 0.6118(4)
C11 C -0.0619(7) 0.44231(15) 0.7752(4)
C12 C -0.0702(7) 0.43322(16) 0.9161(4)
C13 C -0.2253(8) 0.40227(17) 0.9565(5)
H17 H -0.2301 0.3961 1.0509
C14 C -0.3711(9) 0.38056(19) 0.8619(6)
H18 H -0.4751 0.3602 0.8909
C15 C -0.3606(8) 0.38940(18) 0.7231(6)
H19 H -0.4584 0.3747 0.6571
C16 C -0.2088(7) 0.41941(17) 0.6801(5)
H20 H -0.2040 0.4245 0.5853
C17 C -0.0048(9) 0.56113(18) 1.0184(5)
H21 H 0.0267 0.5537 0.9238
C18 C -0.2247(11) 0.5801(3) 1.0178(10)
H22 H -0.2290 0.6181 1.0196
H23 H -0.3083 0.5681 0.9346
C19 C -0.2959(11) 0.5599(4) 1.1350(11)
H24 H -0.4419 0.5540 1.1170
H25 H -0.2707 0.5846 1.2116
C20 C -0.1916(8) 0.5107(2) 1.1722(5)
H26 H -0.2752 0.4811 1.1380
H27 H -0.1593 0.5076 1.2724
C21 C 0.1434(7) 0.60148(17) 1.0914(5)
C22 C 0.3493(8) 0.67821(18) 1.0461(4)
C23 C 0.4799(9) 0.6943(2) 0.9542(5)
H28 H 0.4665 0.6804 0.8648
C24 C 0.6301(9) 0.7307(2) 0.9915(6)
H29 H 0.7179 0.7410 0.9281
C25 C 0.6489(7) 0.75137(18) 1.1210(6)
C26 C 0.5146(9) 0.73854(19) 1.2120(5)
H30 H 0.5234 0.7547 1.2987
C27 C 0.3645(9) 0.7013(2) 1.1755(5)
H31 H 0.2745 0.6920 1.2384
C28 C 0.1182(7) 0.7952(2) 0.6542(4)
C29 C 0.0774(9) 0.7892(2) 0.8062(5)
H32 H 0.1940 0.7736 0.8593
H33 H -0.0399 0.7673 0.8103
H34 H 0.0525 0.8230 0.8441
C30 C 0.3169(9) 0.8246(2) 0.6539(6)
H35 H 0.4223 0.8070 0.7134
H36 H 0.3012 0.8595 0.6874
H37 H 0.3533 0.8259 0.5607
C31 C -0.0488(9) 0.82903(19) 0.5745(6)
H38 H -0.0459 0.8634 0.6149
H39 H -0.1797 0.8133 0.5802
H40 H -0.0253 0.8315 0.4786
loop_
_geom_bond_atom_site_label_1
_geom_bond_atom_site_label_2
_geom_bond_site_symmetry_1
_geom_bond_site_symmetry_2
Br1 C25 1_555 1_555
S1 O4 1_555 1_555
O1 C1 1_555 1_555
O2 C6 1_555 1_555
O3 C10 1_555 1_555
O5 S1 1_555 1_555
O6 C21 1_555 1_555
N1 C1 1_555 1_555
N2 H1 1_555 1_555
N3 H2 1_555 1_555
N4 S1 1_555 1_555
N5 H3 1_555 1_555
C1 C28 1_555 1_555
C2 N1 1_555 1_555
H4 C2 1_555 1_555
C3 C2 1_555 1_555
H5 C3 1_555 1_555
H6 C3 1_555 1_555
C4 C3 1_555 1_555
H7 C4 1_555 1_555
H8 C4 1_555 1_555
C5 N1 1_555 1_555
H9 C5 1_555 1_555
H10 C5 1_555 1_555
C6 N2 1_555 1_555
C7 N2 1_555 1_555
C8 C7 1_555 1_555
H11 C8 1_555 1_555
H12 C8 1_555 1_555
H13 C8 1_555 1_555
C9 C7 1_555 1_555
H14 C9 1_555 1_555
H15 C9 1_555 1_555
H16 C9 1_555 1_555
C10 N3 1_555 1_555
C11 N3 1_555 1_555
C12 S1 1_555 1_555
C13 C12 1_555 1_555
H17 C13 1_555 1_555
C14 C13 1_555 1_555
H18 C14 1_555 1_555
C15 C14 1_555 1_555
H19 C15 1_555 1_555
C16 C11 1_555 1_555
H20 C16 1_555 1_555
C17 N4 1_555 1_555
H21 C17 1_555 1_555
C18 C17 1_555 1_555
H22 C18 1_555 1_555
H23 C18 1_555 1_555
C19 C18 1_555 1_555
H24 C19 1_555 1_555
H25 C19 1_555 1_555
C20 N4 1_555 1_555
H26 C20 1_555 1_555
H27 C20 1_555 1_555
C21 N5 1_555 1_555
C22 N5 1_555 1_555
C23 C22 1_555 1_555
H28 C23 1_555 1_555
C24 C23 1_555 1_555
H29 C24 1_555 1_555
C25 C24 1_555 1_555
C26 C25 1_555 1_555
H30 C26 1_555 1_555
C27 C22 1_555 1_555
H31 C27 1_555 1_555
C28 C29 1_555 1_555
C29 H32 1_555 1_555
H33 C29 1_555 1_555
H34 C29 1_555 1_555
C30 C28 1_555 1_555
H35 C30 1_555 1_555
H36 C30 1_555 1_555
H37 C30 1_555 1_555
C31 C28 1_555 1_555
H38 C31 1_555 1_555
H39 C31 1_555 1_555
H40 C31 1_555 1_555
C2 C6 1_555 1_555
C4 C5 1_555 1_555
C7 C10 1_555 1_555
C11 C12 1_555 1_555
C15 C16 1_555 1_555
C17 C21 1_555 1_555
C19 C20 1_555 1_555
C26 C27 1_555 1_555

#END
