
#######################################################################
#
#                 Cambridge Crystallographic Data Centre
#                                CCDC 
#
#######################################################################
#
# If this CIF has been generated from an entry in the Cambridge 
# Structural Database, then it will include bibliographic, chemical, 
# crystal, experimental, refinement or atomic coordinate data resulting 
# from the CCDC's data processing and validation procedures.
#
#######################################################################

data_QABWUO
_chemical_formula_moiety         'C31 H40 Br1 N5 O7 S1'
_chemical_name_systematic        
N-(t-butoxycarbonyl)-2-methylalanyl-N-(2-((2-((4-bromophenyl)carbamoyl)pyrrolidin-1-yl)sulfonyl)phenyl)prolinamide
_symmetry_cell_setting           orthorhombic
_symmetry_space_group_name_H-M   'P 21 21 21'
_symmetry_Int_Tables_number      19
_space_group_name_Hall           'P 2ac 2ab'
loop_
_symmetry_equiv_pos_site_id
_symmetry_equiv_pos_as_xyz
1 x,y,z
2 1/2+x,1/2-y,-z
3 -x,1/2+y,1/2-z
4 1/2-x,-y,1/2+z
_cell_length_a                   6.7431(4)
_cell_length_b                   16.1961(7)
_cell_length_c                   30.9899(13)
_cell_angle_alpha                90
_cell_angle_beta                 90
_cell_angle_gamma                90
_cell_volume                     3384.47
_exptl_crystal_colour            colorless
_exptl_crystal_description       plate
_cell_formula_units_Z            4
loop_
_atom_site_label
_atom_site_type_symbol
_atom_site_fract_x
_atom_site_fract_y
_atom_site_fract_z
S1 S 0.62221(17) 0.45768(6) 0.33523(4)
O1 O 0.6329(6) 0.4328(2) 0.05706(12)
O2 O 0.7824(6) 0.29583(18) 0.14212(10)
O3 O 0.4674(5) 0.26152(18) 0.22391(9)
O4 O 0.4610(4) 0.47284(18) 0.30643(11)
O5 O 0.5964(5) 0.47914(19) 0.37943(9)
O6 O 0.8580(5) 0.51382(16) 0.22746(8)
O7 O 0.3591(7) 0.42166(17) 0.01498(11)
N1 N 0.4546(9) 0.3153(3) 0.05328(13)
N2 N 0.4781(6) 0.34814(19) 0.14609(10)
N3 N 0.6870(6) 0.3497(2) 0.25409(11)
N4 N 0.8124(5) 0.50232(19) 0.31415(10)
N5 N 0.7327(5) 0.64382(18) 0.22341(10)
H1 H 0.6766 0.6814 0.2388
Br1 Br 0.81229(12) 0.73160(3) 0.034509(17)
C1 C 0.4982(11) 0.3940(3) 0.04253(14)
C2 C 0.5760(9) 0.2634(3) 0.08122(14)
C3 C 0.7735(11) 0.2432(3) 0.05925(18)
H2 H 0.7486 0.2178 0.0318
H3 H 0.8481 0.2061 0.0771
H4 H 0.8476 0.2932 0.0551
C4 C 0.4570(10) 0.1849(3) 0.08978(17)
H5 H 0.3365 0.1987 0.1046
H6 H 0.5340 0.1479 0.1072
H7 H 0.4255 0.1587 0.0629
C5 C 0.6203(9) 0.3049(3) 0.12471(14)
C6 C 0.5366(7) 0.3877(2) 0.18628(12)
H8 H 0.6590 0.4194 0.1821
C7 C 0.3647(8) 0.4456(3) 0.19630(16)
H9 H 0.3441 0.4502 0.2272
H10 H 0.3886 0.5002 0.1845
C8 C 0.1915(9) 0.4060(4) 0.1751(2)
H11 H 0.0921 0.4469 0.1677
H12 H 0.1319 0.3653 0.1940
C9 C 0.2715(8) 0.3655(3) 0.13499(15)
H13 H 0.2000 0.3151 0.1285
H14 H 0.2630 0.4024 0.1104
C10 C 0.5624(7) 0.3256(3) 0.22273(13)
C11 C 0.7078(6) 0.3092(2) 0.29474(13)
C12 C 0.6911(7) 0.3524(2) 0.33333(13)
C13 C 0.7109(7) 0.3105(3) 0.37245(14)
H15 H 0.7006 0.3393 0.3983
C14 C 0.7449(7) 0.2281(3) 0.37294(18)
H16 H 0.7592 0.2007 0.3991
C15 C 0.7585(7) 0.1846(3) 0.3347(2)
H17 H 0.7798 0.1279 0.3353
C16 C 0.7404(6) 0.2253(2) 0.29541(15)
H18 H 0.7503 0.1960 0.2697
C17 C 0.7830(7) 0.5840(2) 0.29338(12)
H19 H 0.6692 0.6155 0.3042
C18 C 0.930(4) 0.6441(17) 0.3119(10)
H20 H 0.9675 0.6860 0.2911
H21 H 0.8800 0.6704 0.3378
C19 C 1.096(2) 0.5871(9) 0.3214(7)
H22 H 1.1832 0.6112 0.3430
H23 H 1.1731 0.5769 0.2955
C20 C 1.0024(7) 0.5013(3) 0.33928(18)
H24 H 0.9902 0.4634 0.3634
H25 H 1.1094 0.4821 0.3209
C21 C 0.7926(6) 0.5754(2) 0.24481(12)
C22 C 0.7510(6) 0.6610(2) 0.17886(13)
C23 C 0.7525(6) 0.7429(2) 0.16668(15)
H26 H 0.7423 0.7838 0.1876
C24 C 0.7690(6) 0.7647(3) 0.12377(15)
H27 H 0.7693 0.8199 0.1156
C25 C 0.7850(7) 0.7029(3) 0.09323(14)
C26 C 0.7820(7) 0.6215(2) 0.10485(14)
H28 H 0.7916 0.5805 0.0839
C27 C 0.7646(7) 0.6005(2) 0.14792(13)
H29 H 0.7621 0.5452 0.1560
C28 C 0.3562(11) 0.5083(3) 0.00088(16)
C29 C 0.3164(9) 0.5631(3) 0.03967(16)
H30 H 0.1939 0.5469 0.0530
H31 H 0.3073 0.6196 0.0305
H32 H 0.4227 0.5575 0.0601
C30 C 0.5454(14) 0.5297(4) -0.0224(2)
H33 H 0.6503 0.5368 -0.0018
H34 H 0.5273 0.5800 -0.0383
H35 H 0.5793 0.4859 -0.0419
C31 C 0.1802(13) 0.5103(3) -0.0291(2)
H36 H 0.2103 0.4796 -0.0548
H37 H 0.1505 0.5664 -0.0366
H38 H 0.0676 0.4860 -0.0150
H39 H 0.731(6) 0.393(2) 0.2532(11)
H40 H 0.334(7) 0.296(3) 0.0451(15)
C32? C 1.003(5) 0.6202(16) 0.3085(9)
H41? H 1.1047 0.6046 0.2879
H42? H 1.0001 0.6799 0.3108
C33? C 1.046(2) 0.5793(7) 0.3544(4)
H43? H 1.1822 0.5854 0.3637
H44? H 0.9554 0.5980 0.3767
loop_
_geom_bond_atom_site_label_1
_geom_bond_atom_site_label_2
_geom_bond_site_symmetry_1
_geom_bond_site_symmetry_2
S1 O4 1_555 1_555
O1 C1 1_555 1_555
O2 C5 1_555 1_555
O3 C10 1_555 1_555
O5 S1 1_555 1_555
O6 C21 1_555 1_555
O7 C1 1_555 1_555
N1 C1 1_555 1_555
N2 C5 1_555 1_555
N3 C10 1_555 1_555
N4 S1 1_555 1_555
N5 H1 1_555 1_555
Br1 C25 1_555 1_555
C2 N1 1_555 1_555
C3 C2 1_555 1_555
H2 C3 1_555 1_555
H3 C3 1_555 1_555
H4 C3 1_555 1_555
C4 C2 1_555 1_555
H5 C4 1_555 1_555
H6 C4 1_555 1_555
H7 C4 1_555 1_555
C5 C2 1_555 1_555
C6 N2 1_555 1_555
H8 C6 1_555 1_555
C7 C6 1_555 1_555
H9 C7 1_555 1_555
H10 C7 1_555 1_555
C8 C7 1_555 1_555
H11 C8 1_555 1_555
H12 C8 1_555 1_555
C9 N2 1_555 1_555
H13 C9 1_555 1_555
H14 C9 1_555 1_555
C10 C6 1_555 1_555
C11 N3 1_555 1_555
C12 S1 1_555 1_555
C13 C12 1_555 1_555
H15 C13 1_555 1_555
C14 C13 1_555 1_555
H16 C14 1_555 1_555
C15 C14 1_555 1_555
H17 C15 1_555 1_555
C16 C11 1_555 1_555
H18 C16 1_555 1_555
C17 N4 1_555 1_555
H19 C17 1_555 1_555
C18 C17 1_555 1_555
H20 C18 1_555 1_555
H21 C18 1_555 1_555
C19 C18 1_555 1_555
H22 C19 1_555 1_555
H23 C19 1_555 1_555
C20 N4 1_555 1_555
H24 C20 1_555 1_555
H25 C20 1_555 1_555
C21 N5 1_555 1_555
C22 N5 1_555 1_555
C23 C22 1_555 1_555
H26 C23 1_555 1_555
C24 C23 1_555 1_555
H27 C24 1_555 1_555
C25 C24 1_555 1_555
C26 C25 1_555 1_555
H28 C26 1_555 1_555
C27 C22 1_555 1_555
H29 C27 1_555 1_555
C28 O7 1_555 1_555
C29 C28 1_555 1_555
H30 C29 1_555 1_555
H31 C29 1_555 1_555
H32 C29 1_555 1_555
C30 C28 1_555 1_555
H33 C30 1_555 1_555
H34 C30 1_555 1_555
H35 C30 1_555 1_555
C31 C28 1_555 1_555
H36 C31 1_555 1_555
H37 C31 1_555 1_555
H38 C31 1_555 1_555
H39 N3 1_555 1_555
H40 N1 1_555 1_555
C8 C9 1_555 1_555
C11 C12 1_555 1_555
C15 C16 1_555 1_555
C17 C21 1_555 1_555
C19 C20 1_555 1_555
C26 C27 1_555 1_555

#END
