
#######################################################################
#
#                 Cambridge Crystallographic Data Centre
#                                CCDC 
#
#######################################################################
#
# If this CIF has been generated from an entry in the Cambridge 
# Structural Database, then it will include bibliographic, chemical, 
# crystal, experimental, refinement or atomic coordinate data resulting 
# from the CCDC's data processing and validation procedures.
#
#######################################################################

data_QABWOI
_chemical_formula_moiety         'C32 H40 Br1 N5 O7 S1'
_chemical_name_systematic        
1-(t-butoxycarbonyl)prolyl-N-(2-((2-((4-bromophenyl)carbamoyl)pyrrolidin-1-yl)sulfonyl)phenyl)prolinamide
_symmetry_cell_setting           monoclinic
_symmetry_space_group_name_H-M   'P 21'
_symmetry_Int_Tables_number      4
_space_group_name_Hall           'P 2yb'
loop_
_symmetry_equiv_pos_site_id
_symmetry_equiv_pos_as_xyz
1 x,y,z
2 -x,1/2+y,-z
_cell_length_a                   6.7004(12)
_cell_length_b                   15.440(3)
_cell_length_c                   16.310(3)
_cell_angle_alpha                90
_cell_angle_beta                 98.363(9)
_cell_angle_gamma                90
_cell_volume                     1669.4
_exptl_crystal_colour            colorless
_exptl_crystal_description       needle
_cell_formula_units_Z            2
loop_
_atom_site_label
_atom_site_type_symbol
_atom_site_fract_x
_atom_site_fract_y
_atom_site_fract_z
Br1 Br 0.54320(5) 0.94198(3) 0.575086(17)
S1 S 0.72924(11) 0.65065(6) 1.16653(5)
O1 O 0.8954(3) 0.57235(17) 0.56304(13)
O2 O 0.6392(3) 0.63408(17) 0.62049(14)
O3 O 0.7826(3) 0.49682(17) 0.78639(13)
O4 O 0.5129(3) 0.4390(2) 0.95166(11)
O5 O 0.5318(3) 0.65787(17) 1.11911(14)
O6 O 0.7551(4) 0.68009(18) 1.25058(14)
O7 O 0.8769(3) 0.71626(16) 0.94479(13)
N1 N 0.6799(4) 0.4888(2) 0.61730(16)
N2 N 0.4700(3) 0.5360(2) 0.80399(15)
N3 N 0.7436(3) 0.53616(19) 1.01427(15)
H1 H 0.8098 0.5823 1.0062
N4 N 0.8825(4) 0.69770(19) 1.11155(15)
N5 N 0.6878(3) 0.8403(2) 0.93902(15)
H2 H 0.6281 0.8743 0.9694
C1 C 0.7313(5) 0.5712(3) 0.60199(19)
C2 C 0.5254(5) 0.4743(3) 0.6702(2)
H3 H 0.4009 0.5051 0.6485
C3 C 0.4934(6) 0.3755(3) 0.6638(2)
H4 H 0.4454 0.3528 0.7128
H5 H 0.3979 0.3604 0.6153
C4 C 0.7034(7) 0.3411(3) 0.6564(2)
H6 H 0.7799 0.3314 0.7109
H7 H 0.6947 0.2870 0.6258
C5 C 0.8022(5) 0.4110(3) 0.6102(2)
H8 H 0.9409 0.4204 0.6353
H9 H 0.8004 0.3951 0.5525
C6 C 0.6033(5) 0.5035(2) 0.75833(19)
C7 C 0.5449(4) 0.5761(3) 0.88367(18)
H10 H 0.6610 0.6133 0.8786
C8 C 0.3661(4) 0.6307(3) 0.9027(2)
H11 H 0.3629 0.6332 0.9620
H12 H 0.3745 0.6893 0.8819
C9 C 0.1874(5) 0.5866(3) 0.8604(3)
H13 H 0.0760 0.6269 0.8481
H14 H 0.1469 0.5402 0.8945
C10 C 0.2501(4) 0.5500(3) 0.7794(2)
H15 H 0.1809 0.4961 0.7633
H16 H 0.2236 0.5913 0.7343
C11 C 0.6006(4) 0.5087(2) 0.95201(18)
C12 C 0.7908(4) 0.4935(2) 1.0919(2)
C13 C 0.8076(4) 0.5410(2) 1.16695(19)
C14 C 0.8599(4) 0.5004(3) 1.2430(2)
H17 H 0.8752 0.5328 1.2916
C15 C 0.8891(4) 0.4120(2) 1.2464(2)
H18 H 0.9221 0.3846 1.2974
C16 C 0.8696(4) 0.3641(2) 1.1742(2)
H19 H 0.8869 0.3044 1.1769
C17 C 0.8237(4) 0.4048(3) 1.0970(2)
H20 H 0.8153 0.3721 1.0488
C18 C 0.8180(4) 0.7822(2) 1.07362(18)
H21 H 0.6917 0.8014 1.0914
C19 C 0.9921(4) 0.8434(2) 1.10616(19)
H22 H 1.0045 0.8898 1.0671
H23 H 0.9735 0.8682 1.1592
C20 C 1.1745(4) 0.7842(2) 1.11476(19)
H24 H 1.2852 0.8084 1.1527
H25 H 1.2189 0.7745 1.0615
C21 C 1.0992(4) 0.7005(2) 1.1488(2)
H26 H 1.1719 0.6509 1.1318
H27 H 1.1135 0.7020 1.2088
C22 C 0.7949(4) 0.7748(2) 0.97876(19)
C23 C 0.6620(4) 0.8599(2) 0.85301(18)
C24 C 0.6452(4) 0.7966(2) 0.79147(18)
H28 H 0.6567 0.7383 0.8057
C25 C 0.6111(4) 0.8215(3) 0.70853(19)
H29 H 0.5984 0.7798 0.6669
C26 C 0.5963(4) 0.9085(3) 0.68861(18)
C27 C 0.6143(4) 0.9715(2) 0.74908(19)
H30 H 0.6042 1.0297 0.7344
C28 C 0.6477(4) 0.9476(3) 0.83198(17)
H31 H 0.6605 0.9897 0.8732
C29 C 0.9537(5) 0.6524(3) 0.5242(2)
C30 C 1.0340(6) 0.7195(3) 0.5896(2)
H32 H 0.9281 0.7363 0.6202
H33 H 1.0808 0.7694 0.5629
H34 H 1.1437 0.6950 0.6268
C31 C 0.7786(6) 0.6872(3) 0.4632(2)
H35 H 0.7222 0.6413 0.4275
H36 H 0.8262 0.7324 0.4304
H37 H 0.6770 0.7101 0.4930
C32 C 1.1231(5) 0.6221(3) 0.4782(2)
H38 H 1.2361 0.6038 0.5174
H39 H 1.1636 0.6690 0.4455
H40 H 1.0765 0.5746 0.4426
loop_
_geom_bond_atom_site_label_1
_geom_bond_atom_site_label_2
_geom_bond_site_symmetry_1
_geom_bond_site_symmetry_2
Br1 C26 1_555 1_555
S1 O5 1_555 1_555
O1 C1 1_555 1_555
O2 C1 1_555 1_555
O3 C6 1_555 1_555
O4 C11 1_555 1_555
O6 S1 1_555 1_555
O7 C22 1_555 1_555
N1 C1 1_555 1_555
N2 C6 1_555 1_555
N3 H1 1_555 1_555
N4 S1 1_555 1_555
N5 H2 1_555 1_555
C2 N1 1_555 1_555
H3 C2 1_555 1_555
C3 C2 1_555 1_555
H4 C3 1_555 1_555
H5 C3 1_555 1_555
C4 C3 1_555 1_555
H6 C4 1_555 1_555
H7 C4 1_555 1_555
C5 N1 1_555 1_555
H8 C5 1_555 1_555
H9 C5 1_555 1_555
C6 C2 1_555 1_555
C7 N2 1_555 1_555
H10 C7 1_555 1_555
C8 C7 1_555 1_555
H11 C8 1_555 1_555
H12 C8 1_555 1_555
C9 C8 1_555 1_555
H13 C9 1_555 1_555
H14 C9 1_555 1_555
C10 N2 1_555 1_555
H15 C10 1_555 1_555
H16 C10 1_555 1_555
C11 N3 1_555 1_555
C12 N3 1_555 1_555
C13 S1 1_555 1_555
C14 C13 1_555 1_555
H17 C14 1_555 1_555
C15 C14 1_555 1_555
H18 C15 1_555 1_555
C16 C15 1_555 1_555
H19 C16 1_555 1_555
C17 C12 1_555 1_555
H20 C17 1_555 1_555
C18 N4 1_555 1_555
H21 C18 1_555 1_555
C19 C18 1_555 1_555
H22 C19 1_555 1_555
H23 C19 1_555 1_555
C20 C19 1_555 1_555
H24 C20 1_555 1_555
H25 C20 1_555 1_555
C21 N4 1_555 1_555
H26 C21 1_555 1_555
H27 C21 1_555 1_555
C22 N5 1_555 1_555
C23 N5 1_555 1_555
C24 C23 1_555 1_555
H28 C24 1_555 1_555
C25 C24 1_555 1_555
H29 C25 1_555 1_555
C26 C25 1_555 1_555
C27 C26 1_555 1_555
H30 C27 1_555 1_555
C28 C23 1_555 1_555
H31 C28 1_555 1_555
C29 O1 1_555 1_555
C30 C29 1_555 1_555
H32 C30 1_555 1_555
H33 C30 1_555 1_555
H34 C30 1_555 1_555
C31 C29 1_555 1_555
H35 C31 1_555 1_555
H36 C31 1_555 1_555
H37 C31 1_555 1_555
C32 C29 1_555 1_555
H38 C32 1_555 1_555
H39 C32 1_555 1_555
H40 C32 1_555 1_555
C4 C5 1_555 1_555
C7 C11 1_555 1_555
C9 C10 1_555 1_555
C12 C13 1_555 1_555
C16 C17 1_555 1_555
C18 C22 1_555 1_555
C20 C21 1_555 1_555
C27 C28 1_555 1_555

#END
