
#######################################################################
#
#                 Cambridge Crystallographic Data Centre
#                                CCDC 
#
#######################################################################
#
# If this CIF has been generated from an entry in the Cambridge 
# Structural Database, then it will include bibliographic, chemical, 
# crystal, experimental, refinement or atomic coordinate data resulting 
# from the CCDC's data processing and validation procedures.
#
#######################################################################

data_QABXEY01
_chemical_formula_moiety         'C42 H36 N2 O6'
_chemical_name_systematic        
3',9'-bis(diethylamino)-3H,3''H-dispiro[2-benzofuran-1,12'-chromeno[3,2-b]xanthene-14',1''-[2]benzofuran]-3,3''-dione
_symmetry_cell_setting           orthorhombic
_symmetry_space_group_name_H-M   'P b c n'
_symmetry_Int_Tables_number      60
_space_group_name_Hall           '-P 2n 2ab'
loop_
_symmetry_equiv_pos_site_id
_symmetry_equiv_pos_as_xyz
1 x,y,z
2 1/2-x,1/2-y,1/2+z
3 1/2+x,1/2-y,-z
4 -x,y,1/2-z
5 -x,-y,-z
6 1/2+x,1/2+y,1/2-z
7 1/2-x,1/2+y,z
8 x,-y,1/2+z
_cell_length_a                   14.8537(10)
_cell_length_b                   19.5680(13)
_cell_length_c                   12.1682(8)
_cell_angle_alpha                90
_cell_angle_beta                 90
_cell_angle_gamma                90
_cell_volume                     3536.77
_exptl_crystal_colour            pink
_exptl_crystal_description       block
_cell_formula_units_Z            4
loop_
_atom_site_label
_atom_site_type_symbol
_atom_site_fract_x
_atom_site_fract_y
_atom_site_fract_z
O1 O 0.08189(11) -0.00241(7) 0.08615(12)
O2 O 0.14286(9) -0.20341(7) 0.11413(12)
O3 O 0.14888(13) -0.31615(8) 0.14066(17)
N1 N 0.26962(17) 0.02369(11) -0.22597(19)
C1 C 0.12894(14) -0.03568(11) 0.00340(16)
C2 C 0.17511(16) 0.00739(11) -0.06646(18)
H1 H 0.1727 0.0543 -0.0550
C3 C 0.22544(16) -0.01846(12) -0.15433(19)
C4 C 0.22736(18) -0.08989(13) -0.1667(2)
H2 H 0.2611 -0.1094 -0.2230
C5 C 0.17975(17) -0.13108(12) -0.0962(2)
H3 H 0.1811 -0.1781 -0.1075
C6 C 0.12965(14) -0.10583(10) -0.00868(17)
C7 C 0.07951(13) -0.15192(10) 0.06751(16)
C8 C 0.00912(14) -0.19706(10) 0.01471(17)
C9 C -0.06550(16) -0.17849(14) -0.0469(2)
H4 H -0.0754 -0.1333 -0.0671
C10 C -0.1243(2) -0.22952(17) -0.0769(3)
H5 H -0.1745 -0.2186 -0.1192
C11 C -0.1105(2) -0.29633(18) -0.0458(3)
H6 H -0.1528 -0.3293 -0.0648
C12 C -0.0352(2) -0.31533(14) 0.0131(3)
H7 H -0.0251 -0.3606 0.0327
C13 C 0.02499(16) -0.26411(11) 0.0420(2)
C14 C 0.10958(17) -0.26780(11) 0.1034(2)
C15 C 0.0000 -0.14573(14) 0.2500
H8 H 0.0000 -0.1933 0.2500
C16 C 0.03997(13) -0.11214(10) 0.16267(16)
C17 C 0.04120(14) -0.04113(10) 0.16563(16)
C18 C 0.0000 -0.00550(14) 0.2500
H9 H 0.0000 0.0420 0.2500
C19 C 0.2614(2) 0.09747(15) -0.2175(2)
H10 H 0.2010 0.1088 -0.1933
H11 H 0.2702 0.1175 -0.2896
C20 C 0.3267(3) 0.1272(2) -0.1408(4)
H12 H 0.3161 0.1754 -0.1344
H13 H 0.3866 0.1195 -0.1678
H14 H 0.3201 0.1061 -0.0701
C21 C 0.3205(3) -0.0039(2) -0.3191(4)
H15 H 0.2939 -0.0470 -0.3414
H16 H 0.3160 0.0274 -0.3806
C22 C 0.4061(6) -0.0138(5) -0.2956(12)
H17 H 0.4374 -0.0286 -0.3605
H18 H 0.4113 -0.0482 -0.2397
H19 H 0.4321 0.0281 -0.2697
O1C O -0.08189(11) -0.00241(7) 0.41385(12)
O2C O -0.14286(9) -0.20341(7) 0.38587(12)
O3C O -0.14888(13) -0.31615(8) 0.35934(17)
N1C N -0.26962(17) 0.02369(11) 0.72597(19)
C1C C -0.12894(14) -0.03568(11) 0.49660(16)
C2C C -0.17511(16) 0.00739(11) 0.56646(18)
H1C H -0.1727 0.0543 0.5550
C3C C -0.22544(16) -0.01846(12) 0.65433(19)
C4C C -0.22736(18) -0.08989(13) 0.6667(2)
H2C H -0.2611 -0.1094 0.7230
C5C C -0.17975(17) -0.13108(12) 0.5962(2)
H3C H -0.1811 -0.1781 0.6075
C6C C -0.12965(14) -0.10583(10) 0.50868(17)
C7C C -0.07951(13) -0.15192(10) 0.43249(16)
C8C C -0.00912(14) -0.19706(10) 0.48529(17)
C9C C 0.06550(16) -0.17849(14) 0.5469(2)
H4C H 0.0754 -0.1333 0.5671
C10C C 0.1243(2) -0.22952(17) 0.5769(3)
H5C H 0.1745 -0.2186 0.6192
C11C C 0.1105(2) -0.29633(18) 0.5458(3)
H6C H 0.1528 -0.3293 0.5648
C12C C 0.0352(2) -0.31533(14) 0.4869(3)
H7C H 0.0251 -0.3606 0.4673
C13C C -0.02499(16) -0.26411(11) 0.4580(2)
C14C C -0.10958(17) -0.26780(11) 0.3966(2)
C16C C -0.03997(13) -0.11214(10) 0.33733(16)
C17C C -0.04120(14) -0.04113(10) 0.33437(16)
C19C C -0.2614(2) 0.09747(15) 0.7175(2)
H10C H -0.2010 0.1088 0.6933
H11C H -0.2702 0.1175 0.7896
C20C C -0.3267(3) 0.1272(2) 0.6408(4)
H12C H -0.3161 0.1754 0.6344
H13C H -0.3866 0.1195 0.6678
H14C H -0.3201 0.1061 0.5701
C21C C -0.3205(3) -0.0039(2) 0.8191(4)
H15C H -0.2939 -0.0470 0.8414
H16C H -0.3160 0.0274 0.8806
C22C C -0.4061(6) -0.0138(5) 0.7956(12)
H17C H -0.4374 -0.0286 0.8605
H18C H -0.4113 -0.0482 0.7397
H19C H -0.4321 0.0281 0.7697
H20? H 0.3513 -0.0429 -0.2871
H21? H 0.2738 -0.0235 -0.3651
C23? C 0.3753(8) 0.0173(7) -0.3864(10)
H22? H 0.3984 -0.0203 -0.4285
H23? H 0.4239 0.0396 -0.3487
H24? H 0.3464 0.0493 -0.4347
loop_
_geom_bond_atom_site_label_1
_geom_bond_atom_site_label_2
_geom_bond_site_symmetry_1
_geom_bond_site_symmetry_2
O1 C1 1_555 1_555
O2 C7 1_555 1_555
O3 C14 1_555 1_555
N1 C3 1_555 1_555
C1 C2 1_555 1_555
C2 H1 1_555 1_555
C3 C2 1_555 1_555
C4 C3 1_555 1_555
H2 C4 1_555 1_555
C5 C4 1_555 1_555
H3 C5 1_555 1_555
C6 C1 1_555 1_555
C7 C6 1_555 1_555
C8 C7 1_555 1_555
C9 C8 1_555 1_555
H4 C9 1_555 1_555
C10 C9 1_555 1_555
H5 C10 1_555 1_555
C11 C10 1_555 1_555
H6 C11 1_555 1_555
C12 C11 1_555 1_555
H7 C12 1_555 1_555
C13 C8 1_555 1_555
C14 O2 1_555 1_555
C15 H8 1_555 1_555
C16 C7 1_555 1_555
C17 O1 1_555 1_555
C18 C17 1_555 1_555
H9 C18 1_555 1_555
C19 N1 1_555 1_555
H10 C19 1_555 1_555
H11 C19 1_555 1_555
C20 C19 1_555 1_555
H12 C20 1_555 1_555
H13 C20 1_555 1_555
H14 C20 1_555 1_555
C21 N1 1_555 1_555
H15 C21 1_555 1_555
H16 C21 1_555 1_555
C22 C21 1_555 1_555
H17 C22 1_555 1_555
H18 C22 1_555 1_555
H19 C22 1_555 1_555
O1C C1C 1_555 1_555
O2C C7C 1_555 1_555
O3C C14C 1_555 1_555
N1C C3C 1_555 1_555
C1C C2C 1_555 1_555
C2C H1C 1_555 1_555
C3C C2C 1_555 1_555
C4C C3C 1_555 1_555
H2C C4C 1_555 1_555
C5C C4C 1_555 1_555
H3C C5C 1_555 1_555
C6C C1C 1_555 1_555
C7C C6C 1_555 1_555
C8C C7C 1_555 1_555
C9C C8C 1_555 1_555
H4C C9C 1_555 1_555
C10C C9C 1_555 1_555
H5C C10C 1_555 1_555
C11C C10C 1_555 1_555
H6C C11C 1_555 1_555
C12C C11C 1_555 1_555
H7C C12C 1_555 1_555
C13C C8C 1_555 1_555
C14C O2C 1_555 1_555
C16C C15 1_555 1_555
C17C C18 1_555 1_555
C19C N1C 1_555 1_555
H10C C19C 1_555 1_555
H11C C19C 1_555 1_555
C20C C19C 1_555 1_555
H12C C20C 1_555 1_555
H13C C20C 1_555 1_555
H14C C20C 1_555 1_555
C21C N1C 1_555 1_555
H15C C21C 1_555 1_555
H16C C21C 1_555 1_555
C22C C21C 1_555 1_555
H17C C22C 1_555 1_555
H18C C22C 1_555 1_555
H19C C22C 1_555 1_555
C5 C6 1_555 1_555
C12 C13 1_555 1_555
C13 C14 1_555 1_555
C15 C16 1_555 1_555
C16 C17 1_555 1_555
O1C C17C 1_555 1_555
C5C C6C 1_555 1_555
C7C C16C 1_555 1_555
C12C C13C 1_555 1_555
C13C C14C 1_555 1_555
C16C C17C 1_555 1_555

#END
