
#######################################################################
#
#                 Cambridge Crystallographic Data Centre
#                                CCDC 
#
#######################################################################
#
# If this CIF has been generated from an entry in the Cambridge 
# Structural Database, then it will include bibliographic, chemical, 
# crystal, experimental, refinement or atomic coordinate data resulting 
# from the CCDC's data processing and validation procedures.
#
#######################################################################

data_QABZIF
_chemical_name_common            'GS-6213-1 (lot 6366-066-10 A3)'
_chemical_formula_moiety         'C21 H27 N2 O7 P1'
_chemical_name_systematic        
'(S)-2-ethylbutyl N-((S)-(4-nitrophenoxy)(phenoxy)phosphoryl)alaninate'
_symmetry_cell_setting           orthorhombic
_symmetry_space_group_name_H-M   'P 21 21 21'
_symmetry_Int_Tables_number      19
_space_group_name_Hall           'P 2ac 2ab'
loop_
_symmetry_equiv_pos_site_id
_symmetry_equiv_pos_as_xyz
1 x,y,z
2 1/2-x,-y,1/2+z
3 -x,1/2+y,1/2-z
4 1/2+x,1/2-y,-z
_cell_length_a                   5.2493(4)
_cell_length_b                   16.5797(12)
_cell_length_c                   25.2623(17)
_cell_angle_alpha                90
_cell_angle_beta                 90
_cell_angle_gamma                90
_cell_volume                     2198.62
_exptl_crystal_colour            colorless
_exptl_crystal_description       block
_cell_formula_units_Z            4
loop_
_atom_site_label
_atom_site_type_symbol
_atom_site_fract_x
_atom_site_fract_y
_atom_site_fract_z
P1 P 0.43257(15) 0.49796(4) 0.52260(3)
O1 O 0.8014(4) 0.54223(12) 0.70077(7)
O2 O 0.9873(4) 0.57246(11) 0.62331(7)
O3 O 0.1855(4) 0.46037(11) 0.53344(7)
O4 O 0.5629(4) 0.47234(10) 0.46834(7)
O5 O 0.4191(4) 0.59358(11) 0.51316(7)
O6 O -0.2854(5) 0.72169(14) 0.33092(9)
O7 O -0.0174(5) 0.82037(12) 0.33772(8)
N1 N 0.6476(5) 0.48534(14) 0.56729(8)
H1 H 0.8023 0.4715 0.5574
N2 N -0.1003(5) 0.75448(15) 0.35160(9)
C1 C 1.1325(7) 0.4558(2) 0.80917(14)
H2 H 1.1035 0.4071 0.8303
H3 H 1.2800 0.4851 0.8232
H4 H 1.1651 0.4406 0.7723
C2 C 0.8977(6) 0.50965(19) 0.81181(11)
H5 H 0.8509 0.5174 0.8494
H6 H 0.7544 0.4815 0.7943
C3 C 0.9304(7) 0.59290(17) 0.78597(10)
H7 H 1.0754 0.6201 0.8044
C4 C 0.6949(7) 0.64552(19) 0.79473(11)
H8 H 0.5518 0.6226 0.7741
H9 H 0.6474 0.6429 0.8326
C5 C 0.7278(8) 0.7338(2) 0.77923(13)
H10 H 0.5684 0.7629 0.7858
H11 H 0.7713 0.7373 0.7416
H12 H 0.8647 0.7578 0.8004
C6 C 1.0022(6) 0.58711(17) 0.72777(10)
H13 H 1.0184 0.6417 0.7123
H14 H 1.1673 0.5589 0.7238
C7 C 0.8169(6) 0.54110(17) 0.64801(10)
C8 C 0.5948(6) 0.49604(17) 0.62392(9)
H15 H 0.4389 0.5303 0.6276
C9 C 0.5453(7) 0.41568(17) 0.65182(10)
H16 H 0.4051 0.3875 0.6341
H17 H 0.4998 0.4257 0.6889
H18 H 0.6994 0.3824 0.6503
C10 C 0.5517(6) 0.39054(16) 0.45188(10)
C11 C 0.7436(6) 0.33904(17) 0.46722(10)
H19 H 0.8806 0.3574 0.4886
C12 C 0.7308(6) 0.25893(18) 0.45034(11)
H20 H 0.8595 0.2219 0.4607
C13 C 0.5321(6) 0.23322(17) 0.41870(10)
H21 H 0.5240 0.1785 0.4077
C14 C 0.3445(6) 0.28706(18) 0.40300(11)
H22 H 0.2097 0.2693 0.3808
C15 C 0.3533(6) 0.36701(17) 0.41978(10)
H23 H 0.2257 0.4044 0.4093
C16 C 0.2809(6) 0.63069(17) 0.47326(11)
C17 C 0.0647(6) 0.59610(17) 0.45046(10)
H24 H 0.0045 0.5451 0.4622
C18 C -0.0607(6) 0.63731(16) 0.41050(10)
H25 H -0.2077 0.6149 0.3943
C19 C 0.0315(6) 0.71178(17) 0.39459(10)
C20 C 0.2429(6) 0.74684(17) 0.41741(11)
H26 H 0.3012 0.7982 0.4060
C21 C 0.3682(6) 0.70556(17) 0.45719(11)
H27 H 0.5142 0.7286 0.4735
loop_
_geom_bond_atom_site_label_1
_geom_bond_atom_site_label_2
_geom_bond_site_symmetry_1
_geom_bond_site_symmetry_2
P1 O3 1_555 1_555
O1 C6 1_555 1_555
O2 C7 1_555 1_555
O4 P1 1_555 1_555
O5 P1 1_555 1_555
O6 N2 1_555 1_555
O7 N2 1_555 1_555
N1 P1 1_555 1_555
H1 N1 1_555 1_555
N2 C19 1_555 1_555
C1 H2 1_555 1_555
H3 C1 1_555 1_555
H4 C1 1_555 1_555
C2 C1 1_555 1_555
H5 C2 1_555 1_555
H6 C2 1_555 1_555
C3 C2 1_555 1_555
H7 C3 1_555 1_555
C4 C3 1_555 1_555
H8 C4 1_555 1_555
H9 C4 1_555 1_555
C5 C4 1_555 1_555
H10 C5 1_555 1_555
H11 C5 1_555 1_555
H12 C5 1_555 1_555
C6 C3 1_555 1_555
H13 C6 1_555 1_555
H14 C6 1_555 1_555
C7 O1 1_555 1_555
C8 N1 1_555 1_555
H15 C8 1_555 1_555
C9 C8 1_555 1_555
H16 C9 1_555 1_555
H17 C9 1_555 1_555
H18 C9 1_555 1_555
C10 O4 1_555 1_555
C11 C10 1_555 1_555
H19 C11 1_555 1_555
C12 C11 1_555 1_555
H20 C12 1_555 1_555
C13 C12 1_555 1_555
H21 C13 1_555 1_555
C14 C13 1_555 1_555
H22 C14 1_555 1_555
C15 C10 1_555 1_555
H23 C15 1_555 1_555
C16 O5 1_555 1_555
C17 C16 1_555 1_555
H24 C17 1_555 1_555
C18 C17 1_555 1_555
H25 C18 1_555 1_555
C19 C18 1_555 1_555
C20 C19 1_555 1_555
H26 C20 1_555 1_555
C21 C16 1_555 1_555
H27 C21 1_555 1_555
C7 C8 1_555 1_555
C14 C15 1_555 1_555
C20 C21 1_555 1_555

#END
