
#######################################################################
#
#                 Cambridge Crystallographic Data Centre
#                                CCDC 
#
#######################################################################
#
# If this CIF has been generated from an entry in the Cambridge 
# Structural Database, then it will include bibliographic, chemical, 
# crystal, experimental, refinement or atomic coordinate data resulting 
# from the CCDC's data processing and validation procedures.
#
#######################################################################

data_QACCIJ
_chemical_formula_moiety         'C7 H3 N1 O4 2-,2(C3 H10 N1 1+)'
_chemical_name_systematic        
'bis(propan-2-aminium) pyridine-2,6-dicarboxylate'
_symmetry_cell_setting           monoclinic
_symmetry_space_group_name_H-M   'P 21/c'
_symmetry_Int_Tables_number      14
_space_group_name_Hall           '-P 2ybc'
loop_
_symmetry_equiv_pos_site_id
_symmetry_equiv_pos_as_xyz
1 x,y,z
2 -x,1/2+y,1/2-z
3 -x,-y,-z
4 x,1/2-y,1/2+z
_cell_length_a                   7.0436(5)
_cell_length_b                   17.2844(13)
_cell_length_c                   13.0970(11)
_cell_angle_alpha                90
_cell_angle_beta                 97.2680(10)
_cell_angle_gamma                90
_cell_volume                     1581.68
_exptl_crystal_colour            colorless
_exptl_crystal_description       block
_cell_formula_units_Z            4
loop_
_atom_site_label
_atom_site_type_symbol
_atom_site_fract_x
_atom_site_fract_y
_atom_site_fract_z
N1 N 0.9654(3) 0.71758(13) 0.25812(18)
H1 H 1.043(4) 0.7495(15) 0.314(2)
H2 H 1.020(4) 0.7234(15) 0.190(2)
H3 H 0.980(4) 0.6659(17) 0.276(2)
C1 C 0.6886(4) 0.73244(19) 0.3497(2)
H4 H 0.6909 0.6789 0.3695
H5 H 0.5597 0.7515 0.3447
H6 H 0.7685 0.7618 0.4005
C2 C 0.7611(4) 0.74041(15) 0.2476(2)
H7 H 0.7510 0.7949 0.2267
C3 C 0.6499(5) 0.69215(19) 0.1643(2)
H8 H 0.7024 0.6992 0.1008
H9 H 0.5182 0.7080 0.1556
H10 H 0.6583 0.6386 0.1837
N2 N 0.9099(3) 0.39692(12) 0.46450(17)
H11 H 0.949(3) 0.4140(13) 0.537(2)
H12 H 1.005(4) 0.4185(14) 0.423(2)
H13 H 0.914(3) 0.3417(15) 0.4646(19)
C4 C 0.5748(4) 0.39109(17) 0.4909(2)
H14 H 0.5792 0.3356 0.4900
H15 H 0.4478 0.4082 0.4656
H16 H 0.6083 0.4092 0.5602
C5 C 0.7139(4) 0.42286(15) 0.4238(2)
H17 H 0.7099 0.4795 0.4269
C6 C 0.6696(5) 0.3986(2) 0.3134(2)
H18 H 0.7663 0.4183 0.2749
H19 H 0.5471 0.4189 0.2854
H20 H 0.6671 0.3432 0.3093
N3 N 0.1331(2) 0.59565(10) 0.14337(14)
O1 O 0.0832(3) 0.73901(9) 0.06299(14)
O2 O 0.1752(3) 0.69968(10) -0.08417(15)
O3 O 0.0138(3) 0.56365(10) 0.32810(13)
O4 O 0.1543(3) 0.44899(10) 0.33121(14)
C7 C 0.1428(3) 0.68881(15) 0.0056(2)
C8 C 0.1767(3) 0.60797(13) 0.04833(18)
C9 C 0.2440(3) 0.55069(14) -0.00949(19)
H21 H 0.2722 0.5612 -0.0756
C10 C 0.2696(4) 0.47751(14) 0.0309(2)
H22 H 0.3159 0.4379 -0.0071
C11 C 0.2254(3) 0.46417(14) 0.1283(2)
H23 H 0.2409 0.4152 0.1576
C12 C 0.1578(3) 0.52430(13) 0.18208(18)
C13 C 0.1049(3) 0.51130(15) 0.28876(19)
loop_
_geom_bond_atom_site_label_1
_geom_bond_atom_site_label_2
_geom_bond_site_symmetry_1
_geom_bond_site_symmetry_2
N1 H1 1_555 1_555
H2 N1 1_555 1_555
H3 N1 1_555 1_555
C1 H4 1_555 1_555
H5 C1 1_555 1_555
H6 C1 1_555 1_555
C2 N1 1_555 1_555
H7 C2 1_555 1_555
C3 C2 1_555 1_555
H8 C3 1_555 1_555
H9 C3 1_555 1_555
H10 C3 1_555 1_555
N2 H11 1_555 1_555
H12 N2 1_555 1_555
H13 N2 1_555 1_555
C4 H14 1_555 1_555
H15 C4 1_555 1_555
H16 C4 1_555 1_555
C5 N2 1_555 1_555
H17 C5 1_555 1_555
C6 C5 1_555 1_555
H18 C6 1_555 1_555
H19 C6 1_555 1_555
H20 C6 1_555 1_555
N3 C8 1_555 1_555
O1 C7 1_555 1_555
O2 C7 1_555 1_555
O3 C13 1_555 1_555
O4 C13 1_555 1_555
C7 C8 1_555 1_555
C8 C9 1_555 1_555
C9 H21 1_555 1_555
C10 C9 1_555 1_555
H22 C10 1_555 1_555
C11 C10 1_555 1_555
H23 C11 1_555 1_555
C12 N3 1_555 1_555
C13 C12 1_555 1_555
C1 C2 1_555 1_555
C4 C5 1_555 1_555
C11 C12 1_555 1_555

#END
