
#######################################################################
#
#                 Cambridge Crystallographic Data Centre
#                                CCDC 
#
#######################################################################
#
# If this CIF has been generated from an entry in the Cambridge 
# Structural Database, then it will include bibliographic, chemical, 
# crystal, experimental, refinement or atomic coordinate data resulting 
# from the CCDC's data processing and validation procedures.
#
#######################################################################

data_QACHUA
_chemical_formula_moiety         'C24 H32 N2 O6 2+,H2 O1,2(Cl1 1-)'
_chemical_name_systematic        
'4,10-bis(4-carboxybenzyl)-1,7-dioxa-4,10-diazoniacyclododecane dichloride monohydrate'
_symmetry_cell_setting           orthorhombic
_symmetry_space_group_name_H-M   'P c a 21'
_symmetry_Int_Tables_number      29
_space_group_name_Hall           'P 2c -2ac'
loop_
_symmetry_equiv_pos_site_id
_symmetry_equiv_pos_as_xyz
1 x,y,z
2 -x,-y,1/2+z
3 1/2-x,y,1/2+z
4 1/2+x,-y,z
_cell_length_a                   10.6102(10)
_cell_length_b                   21.855(2)
_cell_length_c                   22.183(2)
_cell_angle_alpha                90
_cell_angle_beta                 90
_cell_angle_gamma                90
_cell_volume                     5143.93
_exptl_crystal_colour            colorless
_exptl_crystal_description       needle
_cell_formula_units_Z            8
loop_
_atom_site_label
_atom_site_type_symbol
_atom_site_fract_x
_atom_site_fract_y
_atom_site_fract_z
O1 O -1.0783(4) 0.0829(2) 1.1225(2)
O2 O -0.4327(4) 0.18487(19) 0.8354(2)
O3 O -0.2702(4) 0.09505(19) 0.9083(2)
O4 O -0.9172(4) 0.0420(2) 1.1743(2)
H1 H -0.9704 0.0408 1.2023
O5 O 0.3458(4) 0.1928(2) 0.6374(2)
H2 H 0.4050 0.2123 0.6210
O6 O 0.2372(5) 0.2215(2) 0.5543(2)
N1 N -0.5390(5) 0.0949(2) 0.9155(2)
H3 H -0.4879 0.0861 0.8786
N2 N -0.2263(5) 0.1247(2) 0.7797(2)
H4 H -0.3042 0.1046 0.7955
C1 C -0.9185(6) 0.0928(3) 1.0190(3)
H5 H -0.9920 0.1176 1.0186
C2 C -0.5819(6) 0.1605(3) 0.9098(3)
H6 H -0.5320 0.1867 0.9372
H7 H -0.6718 0.1638 0.9214
C3 C -0.7051(6) 0.0192(3) 1.0204(3)
H8 H -0.6326 -0.0063 1.0206
C4 C -0.9719(5) 0.0625(3) 1.1245(3)
C5 C -0.3291(6) 0.1168(3) 0.9617(3)
H9 H -0.3432 0.1615 0.9589
H10 H -0.2750 0.1086 0.9971
C6 C -0.5650(5) 0.1818(3) 0.8454(3)
H11 H -0.6045 0.1525 0.8171
H12 H -0.6040 0.2225 0.8396
C7 C -0.7804(6) 0.0221(3) 1.0710(3)
H13 H -0.7590 -0.0008 1.1059
C8 C -0.8879(6) 0.0587(3) 1.0707(3)
C9 C -0.7340(6) 0.0534(3) 0.9687(3)
C10 C -0.1721(6) 0.1354(3) 0.8886(3)
H14 H -0.1009 0.1340 0.9175
H15 H -0.2041 0.1780 0.8871
C11 C 0.0411(6) 0.1041(3) 0.7101(3)
H16 H 0.0519 0.0776 0.7437
C12 C -0.4538(6) 0.0837(3) 0.9681(3)
H17 H -0.4378 0.0392 0.9718
H18 H -0.4961 0.0975 1.0054
C13 C -0.1280(6) 0.1163(3) 0.8273(3)
H19 H -0.0524 0.1404 0.8164
H20 H -0.1032 0.0726 0.8286
C14 C 0.2438(7) 0.1962(3) 0.6029(3)
C15 C -0.6494(6) 0.0499(3) 0.9142(3)
H21 H -0.7005 0.0579 0.8777
H22 H -0.6156 0.0078 0.9110
C16 C 0.1464(6) 0.1296(3) 0.6820(3)
H23 H 0.2284 0.1216 0.6973
C17 C -0.2613(6) 0.1907(3) 0.7685(3)
H24 H -0.2346 0.2027 0.7274
H25 H -0.2165 0.2172 0.7976
C18 C -0.0797(6) 0.1173(3) 0.6894(3)
C19 C -0.8416(6) 0.0901(3) 0.9688(3)
H26 H -0.8621 0.1135 0.9340
C20 C 0.1319(6) 0.1666(2) 0.6318(3)
C21 C -0.1937(6) 0.0913(3) 0.7215(3)
H27 H -0.1777 0.0477 0.7309
H28 H -0.2671 0.0932 0.6940
C22 C -0.4017(6) 0.1998(3) 0.7749(3)
H29 H -0.4245 0.2428 0.7661
H30 H -0.4477 0.1729 0.7466
C23 C 0.0126(7) 0.1777(3) 0.6099(3)
H31 H 0.0022 0.2024 0.5750
C24 C -0.0930(6) 0.1533(3) 0.6382(3)
H32 H -0.1746 0.1612 0.6224
O7 O 0.0470(4) 0.32149(19) 0.6712(2)
O8 O 0.2212(4) 0.40247(18) 0.5957(2)
O9 O -0.3966(4) 0.4542(2) 0.3208(2)
H33 H -0.4464 0.4541 0.2913
O10 O -0.5666(4) 0.4204(2) 0.3708(2)
O11 O 0.7641(4) 0.2948(2) 0.9165(2)
H34 H 0.8106 0.2818 0.9443
O12 O 0.6072(5) 0.2692(2) 0.9794(2)
N3 N 0.2663(5) 0.3773(2) 0.7185(2)
H35 H 0.1919 0.3973 0.6991
N4 N -0.0567(5) 0.4095(2) 0.5914(2)
H36 H -0.0062 0.4193 0.6282
C25 C 0.3712(6) 0.3801(3) 0.6728(3)
H37 H 0.4398 0.3519 0.6848
H38 H 0.4060 0.4221 0.6713
C26 C 0.3907(6) 0.3863(3) 0.8155(3)
C27 C -0.3822(6) 0.4430(3) 0.4264(3)
C28 C -0.3482(6) 0.4150(3) 0.5300(3)
H39 H -0.3732 0.3924 0.5645
C29 C -0.4589(6) 0.4375(3) 0.3709(3)
C30 C 0.2256(6) 0.3127(3) 0.7331(3)
H40 H 0.2635 0.2840 0.7036
H41 H 0.2563 0.3014 0.7737
C31 C 0.6045(6) 0.3608(3) 0.8428(3)
H42 H 0.6925 0.3633 0.8352
C32 C -0.2755(6) 0.4804(3) 0.4283(3)
H43 H -0.2501 0.5025 0.3935
C33 C 0.5195(6) 0.3898(3) 0.8043(3)
H44 H 0.5495 0.4120 0.7704
C34 C 0.0847(6) 0.3070(3) 0.7311(3)
H45 H 0.0587 0.2648 0.7416
H46 H 0.0454 0.3356 0.7602
C35 C 0.2960(6) 0.4153(3) 0.7742(3)
H47 H 0.3283 0.4557 0.7612
H48 H 0.2170 0.4223 0.7969
C36 C -0.4187(6) 0.4113(3) 0.4771(3)
H49 H -0.4925 0.3867 0.4760
C37 C -0.2415(6) 0.4517(3) 0.5324(3)
C38 C 0.3226(6) 0.3623(3) 0.6109(3)
H50 H 0.3909 0.3659 0.5808
H51 H 0.2927 0.3194 0.6114
C39 C -0.2066(6) 0.4852(3) 0.4815(3)
H52 H -0.1353 0.5115 0.4832
C40 C 0.3486(6) 0.3553(3) 0.8666(3)
H53 H 0.2610 0.3540 0.8753
C41 C 0.5607(6) 0.3286(3) 0.8921(3)
C42 C -0.0862(6) 0.3247(3) 0.6637(3)
H54 H -0.1233 0.3545 0.6923
H55 H -0.1252 0.2842 0.6708
C43 C 0.4326(6) 0.3266(3) 0.9045(3)
H56 H 0.4029 0.3055 0.9391
C44 C -0.1628(6) 0.4562(3) 0.5890(3)
H57 H -0.2181 0.4504 0.6245
H58 H -0.1262 0.4978 0.5916
C45 C 0.6460(6) 0.2953(3) 0.9349(3)
C46 C 0.0313(6) 0.4161(3) 0.5387(3)
H59 H 0.0534 0.4599 0.5339
H60 H -0.0127 0.4028 0.5016
C47 C 0.1510(6) 0.3794(3) 0.5456(3)
H61 H 0.1302 0.3358 0.5523
H62 H 0.2021 0.3826 0.5084
C48 C -0.1069(6) 0.3449(3) 0.6001(3)
H63 H -0.1981 0.3438 0.5907
H64 H -0.0631 0.3166 0.5723
Cl1 Cl -0.40882(13) 0.26620(7) 0.62842(8)
Cl2 Cl 0.04476(14) 0.47490(6) 0.70427(7)
Cl3 Cl -0.45107(14) 0.03372(6) 0.79581(7)
Cl4 Cl 0.12738(14) 0.21192(7) 0.85234(8)
O13 O 0.1338(5) 0.2883(2) 0.9672(3)
H65 H 0.170(7) 0.260(3) 0.998(2)
H66 H 0.134(8) 0.263(3) 0.929(2)
O14 O -0.4041(5) 0.2385(2) 0.4916(3)
H67 H -0.484(4) 0.258(3) 0.477(3)
H68 H -0.396(8) 0.245(5) 0.5361(15)
loop_
_geom_bond_atom_site_label_1
_geom_bond_atom_site_label_2
_geom_bond_site_symmetry_1
_geom_bond_site_symmetry_2
O1 C4 1_555 1_555
O2 C6 1_555 1_555
O3 C5 1_555 1_555
O4 H1 1_555 1_555
O5 H2 1_555 1_555
O6 C14 1_555 1_555
N1 H3 1_555 1_555
N2 H4 1_555 1_555
C1 H5 1_555 1_555
C2 N1 1_555 1_555
H6 C2 1_555 1_555
H7 C2 1_555 1_555
C3 H8 1_555 1_555
C4 O4 1_555 1_555
C5 H9 1_555 1_555
H10 C5 1_555 1_555
C6 C2 1_555 1_555
H11 C6 1_555 1_555
H12 C6 1_555 1_555
C7 C3 1_555 1_555
H13 C7 1_555 1_555
C8 C1 1_555 1_555
C9 C3 1_555 1_555
C10 O3 1_555 1_555
H14 C10 1_555 1_555
H15 C10 1_555 1_555
C11 H16 1_555 1_555
C12 N1 1_555 1_555
H17 C12 1_555 1_555
H18 C12 1_555 1_555
C13 N2 1_555 1_555
H19 C13 1_555 1_555
H20 C13 1_555 1_555
C14 O5 1_555 1_555
C15 N1 1_555 1_555
H21 C15 1_555 1_555
H22 C15 1_555 1_555
C16 C11 1_555 1_555
H23 C16 1_555 1_555
C17 N2 1_555 1_555
H24 C17 1_555 1_555
H25 C17 1_555 1_555
C18 C11 1_555 1_555
C19 C1 1_555 1_555
H26 C19 1_555 1_555
C20 C14 1_555 1_555
C21 N2 1_555 1_555
H27 C21 1_555 1_555
H28 C21 1_555 1_555
C22 O2 1_555 1_555
H29 C22 1_555 1_555
H30 C22 1_555 1_555
C23 C20 1_555 1_555
H31 C23 1_555 1_555
C24 C18 1_555 1_555
H32 C24 1_555 1_555
O7 C34 1_555 1_555
O8 C38 1_555 1_555
O9 H33 1_555 1_555
O10 C29 1_555 1_555
O11 H34 1_555 1_555
O12 C45 1_555 1_555
N3 H35 1_555 1_555
N4 H36 1_555 1_555
C25 N3 1_555 1_555
H37 C25 1_555 1_555
H38 C25 1_555 1_555
C26 C33 1_555 1_555
C27 C29 1_555 1_555
C28 H39 1_555 1_555
C29 O9 1_555 1_555
C30 N3 1_555 1_555
H40 C30 1_555 1_555
H41 C30 1_555 1_555
C31 H42 1_555 1_555
C32 C27 1_555 1_555
H43 C32 1_555 1_555
C33 C31 1_555 1_555
H44 C33 1_555 1_555
C34 C30 1_555 1_555
H45 C34 1_555 1_555
H46 C34 1_555 1_555
C35 N3 1_555 1_555
H47 C35 1_555 1_555
H48 C35 1_555 1_555
C36 C27 1_555 1_555
H49 C36 1_555 1_555
C37 C28 1_555 1_555
C38 C25 1_555 1_555
H50 C38 1_555 1_555
H51 C38 1_555 1_555
C39 C32 1_555 1_555
H52 C39 1_555 1_555
C40 C26 1_555 1_555
H53 C40 1_555 1_555
C41 C31 1_555 1_555
C42 O7 1_555 1_555
H54 C42 1_555 1_555
H55 C42 1_555 1_555
C43 C40 1_555 1_555
H56 C43 1_555 1_555
C44 N4 1_555 1_555
H57 C44 1_555 1_555
H58 C44 1_555 1_555
C45 O11 1_555 1_555
C46 N4 1_555 1_555
H59 C46 1_555 1_555
H60 C46 1_555 1_555
C47 O8 1_555 1_555
H61 C47 1_555 1_555
H62 C47 1_555 1_555
C48 N4 1_555 1_555
H63 C48 1_555 1_555
H64 C48 1_555 1_555
O13 H65 1_555 1_555
H66 O13 1_555 1_555
O14 H67 1_555 1_555
H68 O14 1_555 1_555
C4 C8 1_555 1_555
C5 C12 1_555 1_555
C7 C8 1_555 1_555
C9 C15 1_555 1_555
C9 C19 1_555 1_555
C10 C13 1_555 1_555
C16 C20 1_555 1_555
C17 C22 1_555 1_555
C18 C21 1_555 1_555
C23 C24 1_555 1_555
C26 C35 1_555 1_555
C28 C36 1_555 1_555
C37 C39 1_555 1_555
C37 C44 1_555 1_555
C41 C43 1_555 1_555
C41 C45 1_555 1_555
C42 C48 1_555 1_555
C46 C47 1_555 1_555

#END
