
#######################################################################
#
#                 Cambridge Crystallographic Data Centre
#                                CCDC 
#
#######################################################################
#
# If this CIF has been generated from an entry in the Cambridge 
# Structural Database, then it will include bibliographic, chemical, 
# crystal, experimental, refinement or atomic coordinate data resulting 
# from the CCDC's data processing and validation procedures.
#
#######################################################################

data_QACJIN01
_chemical_formula_moiety         'C13 H22 O6'
_chemical_name_systematic        
7-Deoxy-2,3:5,6-di-O-isopropylidene-\a-L-glycero-D-manno-heptafuranose
_symmetry_cell_setting           orthorhombic
_symmetry_space_group_name_H-M   'P 21 21 21'
_symmetry_Int_Tables_number      19
_space_group_name_Hall           'P 2ac 2ab'
loop_
_symmetry_equiv_pos_site_id
_symmetry_equiv_pos_as_xyz
1 x,y,z
2 1/2-x,-y,1/2+z
3 1/2+x,1/2-y,-z
4 -x,1/2+y,1/2-z
_cell_length_a                   6.9393(5)
_cell_length_b                   10.5584(8)
_cell_length_c                   19.7333(8)
_cell_angle_alpha                90
_cell_angle_beta                 90
_cell_angle_gamma                90
_cell_volume                     1445.82
_exptl_crystal_colour            colorless
_exptl_crystal_description       needle
_chemical_melting_point          '118-119 deg.C'
_cell_formula_units_Z            4
_exptl_crystal_recrystallization_method hexane
loop_
_atom_site_label
_atom_site_type_symbol
_atom_site_fract_x
_atom_site_fract_y
_atom_site_fract_z
O1 O -0.2789(3) 0.3302(3) 0.07119(14)
O2 O 0.0712(4) 0.5675(2) 0.04114(14)
O3 O 0.3170(3) 0.4531(2) 0.08202(12)
O4 O -0.0486(3) 0.3781(2) 0.15335(11)
O5 O 0.3986(3) 0.2031(2) 0.15439(12)
O6 O 0.3555(3) 0.1336(2) 0.26260(12)
C1 C -0.1526(5) 0.4233(4) 0.09532(18)
C2 C 0.0005(5) 0.4403(4) 0.04094(18)
C3 C 0.1735(5) 0.3613(3) 0.06449(16)
C4 C 0.0979(5) 0.2961(3) 0.12778(16)
C5 C 0.2466(5) 0.2745(3) 0.18312(16)
C6 C 0.1788(5) 0.1962(3) 0.24284(17)
C7 C 0.1031(6) 0.2684(4) 0.30273(19)
C8 C 0.2775(5) 0.5616(4) 0.04288(19)
C9 C 0.3523(8) 0.6770(4) 0.0794(3)
C10 C 0.3606(9) 0.5486(5) -0.0276(2)
C11 C 0.4560(5) 0.1055(3) 0.20174(18)
C12 C 0.6682(5) 0.1181(4) 0.2156(2)
C13 C 0.4003(6) -0.0210(4) 0.1733(2)
H1 H -0.3918(3) 0.3352(3) 0.09596(14)
H2 H -0.2274(5) 0.5015(4) 0.10662(17)
H3 H -0.0517(5) 0.4149(4) -0.00428(18)
H4 H 0.2284(5) 0.2987(3) 0.03174(16)
H5 H 0.0526(5) 0.2095(3) 0.11485(16)
H6 H 0.2804(5) 0.3612(3) 0.19974(16)
H7 H 0.0665(5) 0.1422(3) 0.22959(17)
H8 H -0.0195(6) 0.3128(4) 0.29065(19)
H9 H 0.2022(6) 0.3323(4) 0.31636(19)
H10 H 0.0791(6) 0.2090(4) 0.34127(19)
H11 H 0.4963(8) 0.6747(4) 0.0812(3)
H12 H 0.3096(8) 0.7554(4) 0.0552(3)
H13 H 0.2994(8) 0.6772(4) 0.1265(3)
H14 H 0.5047(9) 0.5461(5) -0.0263(2)
H15 H 0.3174(9) 0.6213(5) -0.0562(2)
H16 H 0.3107(9) 0.4676(5) -0.0472(2)
H17 H 0.7121(5) 0.0518(4) 0.2484(2)
H18 H 0.6915(5) 0.2039(4) 0.2354(2)
H19 H 0.7418(5) 0.1095(4) 0.1723(2)
H20 H 0.4373(6) -0.0901(4) 0.2054(2)
H21 H 0.4671(6) -0.0342(4) 0.1289(2)
H22 H 0.2576(6) -0.0223(4) 0.1661(2)
loop_
_geom_bond_atom_site_label_1
_geom_bond_atom_site_label_2
_geom_bond_site_symmetry_1
_geom_bond_site_symmetry_2
O1 C1 1_555 1_555
O2 C2 1_555 1_555
O3 C3 1_555 1_555
O4 C1 1_555 1_555
O5 C5 1_555 1_555
O6 C6 1_555 1_555
C1 C2 1_555 1_555
C2 C3 1_555 1_555
C3 C4 1_555 1_555
C4 O4 1_555 1_555
C5 C4 1_555 1_555
C6 C5 1_555 1_555
C7 C6 1_555 1_555
C8 O2 1_555 1_555
C9 C8 1_555 1_555
C10 C8 1_555 1_555
C11 O5 1_555 1_555
C12 C11 1_555 1_555
C13 C11 1_555 1_555
H1 O1 1_555 1_555
H2 C1 1_555 1_555
H3 C2 1_555 1_555
H4 C3 1_555 1_555
H5 C4 1_555 1_555
H6 C5 1_555 1_555
H7 C6 1_555 1_555
H8 C7 1_555 1_555
H9 C7 1_555 1_555
H10 C7 1_555 1_555
H11 C9 1_555 1_555
H12 C9 1_555 1_555
H13 C9 1_555 1_555
H14 C10 1_555 1_555
H15 C10 1_555 1_555
H16 C10 1_555 1_555
H17 C12 1_555 1_555
H18 C12 1_555 1_555
H19 C12 1_555 1_555
H20 C13 1_555 1_555
H21 C13 1_555 1_555
H22 C13 1_555 1_555
O3 C8 1_555 1_555
O6 C11 1_555 1_555

#END
