
#######################################################################
#
#                 Cambridge Crystallographic Data Centre
#                                CCDC 
#
#######################################################################
#
# If this CIF has been generated from an entry in the Cambridge 
# Structural Database, then it will include bibliographic, chemical, 
# crystal, experimental, refinement or atomic coordinate data resulting 
# from the CCDC's data processing and validation procedures.
#
#######################################################################

data_QACLUE
_chemical_formula_moiety         'C11 H13 N5 O4'
_chemical_name_systematic        
'(4-(6-amino-9H-purin-9-yl)-3-hydroxyoxetan-2-yl)methyl acetate'
_symmetry_cell_setting           orthorhombic
_symmetry_space_group_name_H-M   'P 21 21 21'
_symmetry_Int_Tables_number      19
_space_group_name_Hall           'P 2ac 2ab'
loop_
_symmetry_equiv_pos_site_id
_symmetry_equiv_pos_as_xyz
1 x,y,z
2 1/2+x,1/2-y,-z
3 -x,1/2+y,1/2-z
4 1/2-x,-y,1/2+z
_cell_length_a                   7.4773(10)
_cell_length_b                   8.2931(11)
_cell_length_c                   20.419(3)
_cell_angle_alpha                90
_cell_angle_beta                 90
_cell_angle_gamma                90
_cell_volume                     1266.18
_exptl_crystal_colour            colorless
_exptl_crystal_description       block
_chemical_melting_point          '494-496 K'
_cell_formula_units_Z            4
loop_
_atom_site_label
_atom_site_type_symbol
_atom_site_fract_x
_atom_site_fract_y
_atom_site_fract_z
C1 C 0.85266(19) -0.40630(15) -0.12529(6)
H1 H 0.8396 -0.5168 -0.1190
C2 C 0.94824(17) -0.20401(14) -0.19524(5)
C3 C 0.89345(16) -0.09335(14) -0.14694(5)
C4 C 0.82066(15) -0.15748(14) -0.08986(5)
C5 C 0.8297(2) 0.10594(15) -0.08535(6)
H2 H 0.8182 0.2101 -0.0690
C6 C 0.72557(19) -0.03808(15) 0.01662(5)
H3 H 0.6569 -0.1360 0.0260
C7 C 0.8772(2) -0.00897(16) 0.06743(6)
H4 H 0.8902 -0.0960 0.0995
C8 C 0.75757(18) 0.13088(16) 0.09086(6)
H5 H 0.7011 0.1054 0.1329
C9 C 0.8278(2) 0.30048(17) 0.09024(7)
H6 H 0.9186 0.3130 0.0567
H7 H 0.7319 0.3764 0.0817
C10 C 0.9324(3) 0.4807(2) 0.17206(10)
C11 C 1.0050(4) 0.4891(3) 0.24042(11)
H8 H 0.9077 0.4940 0.2710
H9 H 1.0780 0.5837 0.2450
H10 H 1.0759 0.3949 0.2491
N1 N 0.79482(16) -0.31429(13) -0.07637(5)
N2 N 0.92662(17) -0.36296(12) -0.18199(5)
N3 N 1.0182(2) -0.16383(14) -0.25280(5)
H11 H 1.0481 -0.2377 -0.2802
H12 H 1.0335 -0.0639 -0.2626
N4 N 0.89643(18) 0.07411(13) -0.14350(5)
N5 N 0.77866(15) -0.02829(12) -0.05117(5)
O1 O 1.03849(14) 0.04146(14) 0.03995(6)
H13 H 1.1114 -0.0323 0.0417
O2 O 0.63363(13) 0.10460(13) 0.03649(4)
O3 O 0.9032(2) 0.32766(15) 0.15438(6)
O4 O 0.9055(3) 0.5921(2) 0.13678(10)
loop_
_geom_bond_atom_site_label_1
_geom_bond_atom_site_label_2
_geom_bond_site_symmetry_1
_geom_bond_site_symmetry_2
C1 H1 1_555 1_555
C2 C3 1_555 1_555
C3 C4 1_555 1_555
C4 N1 1_555 1_555
C5 H2 1_555 1_555
C6 H3 1_555 1_555
C7 C6 1_555 1_555
H4 C7 1_555 1_555
C8 C7 1_555 1_555
H5 C8 1_555 1_555
C9 C8 1_555 1_555
H6 C9 1_555 1_555
H7 C9 1_555 1_555
C10 C11 1_555 1_555
C11 H8 1_555 1_555
H9 C11 1_555 1_555
H10 C11 1_555 1_555
N1 C1 1_555 1_555
N2 C1 1_555 1_555
N3 C2 1_555 1_555
H11 N3 1_555 1_555
H12 N3 1_555 1_555
N4 C3 1_555 1_555
N5 C4 1_555 1_555
O1 C7 1_555 1_555
H13 O1 1_555 1_555
O2 C6 1_555 1_555
O3 C9 1_555 1_555
O4 C10 1_555 1_555
C2 N2 1_555 1_555
C5 N4 1_555 1_555
C5 N5 1_555 1_555
C6 N5 1_555 1_555
C8 O2 1_555 1_555
C10 O3 1_555 1_555

#END
