
#######################################################################
#
#                 Cambridge Crystallographic Data Centre
#                                CCDC 
#
#######################################################################
#
# If this CIF has been generated from an entry in the Cambridge 
# Structural Database, then it will include bibliographic, chemical, 
# crystal, experimental, refinement or atomic coordinate data resulting 
# from the CCDC's data processing and validation procedures.
#
#######################################################################

data_QACMAL
_chemical_name_common            '1R,3S-albucidin hydrate'
_chemical_formula_moiety         'C9 H3 D8 N5 O2,D2 O1'
_chemical_name_systematic        
'perdeutero(4-(6-amino-9H-purin-9-yl)oxetan-2-yl)methanol perdeuterohydrate'
_symmetry_cell_setting           tetragonal
_symmetry_space_group_name_H-M   'P 43 21 2'
_symmetry_Int_Tables_number      96
_space_group_name_Hall           'P 4nw 2abw'
loop_
_symmetry_equiv_pos_site_id
_symmetry_equiv_pos_as_xyz
1 x,y,z
2 -x,-y,1/2+z
3 1/2-y,1/2+x,3/4+z
4 1/2+y,1/2-x,1/4+z
5 1/2-x,1/2+y,3/4-z
6 1/2+x,1/2-y,1/4-z
7 y,x,-z
8 -y,-x,1/2-z
_cell_length_a                   5.94120(10)
_cell_length_b                   5.94120(10)
_cell_length_c                   60.1040(9)
_cell_angle_alpha                90
_cell_angle_beta                 90
_cell_angle_gamma                90
_cell_volume                     2121.54
_exptl_crystal_colour            colorless
_exptl_crystal_description       block
_chemical_melting_point          '439-441 K'
_cell_formula_units_Z            8
loop_
_atom_site_label
_atom_site_type_symbol
_atom_site_fract_x
_atom_site_fract_y
_atom_site_fract_z
C1 C 0.4362(3) 0.5047(2) 0.03555(2)
D1 D 0.3446 0.3747 0.0372
C2 C 0.7309(2) 0.7048(2) 0.04533(2)
C3 C 0.6930(2) 0.8632(2) 0.02887(2)
C4 C 0.4995(2) 0.8318(2) 0.01556(2)
C5 C 0.9849(2) 0.9725(2) 0.04629(2)
D2 D 1.1107 1.0589 0.0510
C6 C 0.9910(2) 0.6828(2) 0.07765(2)
D3 D 0.9607 0.5174 0.0784
C7 C 1.2254(2) 0.7380(2) 0.08656(2)
D4 D 1.3049 0.8584 0.0783
D5 D 1.3232 0.6053 0.0889
C8 C 1.1008(2) 0.8190(2) 0.10752(2)
D6 D 1.1124 0.7056 0.1198
C9 C 1.1400(3) 1.0530(2) 0.11617(2)
D7 D 1.0167 1.0930 0.1265
D8 D 1.2827 1.0555 0.1247
N1 N 0.4317(2) 0.9738(2) -0.00026(2)
H1 H 0.514(3) 1.089(2) -0.0035(3)
H2 H 0.317(2) 0.940(3) -0.0085(3)
N2 N 0.3726(2) 0.6467(2) 0.019535(19)
N3 N 0.6089(2) 0.51899(19) 0.049466(18)
N4 N 0.8568(2) 1.0302(2) 0.029580(19)
N5 N 0.9206(2) 0.77437(19) 0.056489(18)
O1 O 0.88322(17) 0.80053(17) 0.095919(15)
O2 O 1.15093(19) 1.21766(17) 0.098975(18)
H3 H 1.282(2) 1.216(4) 0.0941(3)
O3 O 0.57285(19) 0.1715(2) 0.081042(18)
D9 D 0.617(3) 0.268(3) 0.0721(3)
D10 D 0.682(3) 0.095(3) 0.0851(3)
loop_
_geom_bond_atom_site_label_1
_geom_bond_atom_site_label_2
_geom_bond_site_symmetry_1
_geom_bond_site_symmetry_2
C1 D1 1_555 1_555
C2 C3 1_555 1_555
C3 C4 1_555 1_555
C4 N1 1_555 1_555
C5 D2 1_555 1_555
C6 D3 1_555 1_555
C7 C6 1_555 1_555
D4 C7 1_555 1_555
D5 C7 1_555 1_555
C8 C7 1_555 1_555
D6 C8 1_555 1_555
C9 C8 1_555 1_555
D7 C9 1_555 1_555
D8 C9 1_555 1_555
N1 H1 1_555 1_555
H2 N1 1_555 1_555
N2 C1 1_555 1_555
N3 C1 1_555 1_555
N4 C3 1_555 1_555
N5 C2 1_555 1_555
O1 C6 1_555 1_555
O2 C9 1_555 1_555
H3 O2 1_555 1_555
O3 D9 1_555 1_555
D10 O3 1_555 1_555
C2 N3 1_555 1_555
C4 N2 1_555 1_555
C5 N4 1_555 1_555
C5 N5 1_555 1_555
C6 N5 1_555 1_555
C8 O1 1_555 1_555

#END
