
#######################################################################
#
#                 Cambridge Crystallographic Data Centre
#                                CCDC 
#
#######################################################################
#
# If this CIF has been generated from an entry in the Cambridge 
# Structural Database, then it will include bibliographic, chemical, 
# crystal, experimental, refinement or atomic coordinate data resulting 
# from the CCDC's data processing and validation procedures.
#
#######################################################################

data_QACQOA
_chemical_formula_moiety         'C25 H20 N2 O3'
_chemical_name_systematic        
7-Amino-6,8-bis(4-methoxyphenyl)benz(c,d)indol-2(1H)-one
_symmetry_cell_setting           monoclinic
_symmetry_space_group_name_H-M   'P 21/c'
_symmetry_Int_Tables_number      14
_space_group_name_Hall           '-P 2ybc'
loop_
_symmetry_equiv_pos_site_id
_symmetry_equiv_pos_as_xyz
1 x,y,z
2 -x,1/2+y,1/2-z
3 -x,-y,-z
4 x,1/2-y,1/2+z
_cell_length_a                   12.034(1)
_cell_length_b                   13.143(1)
_cell_length_c                   12.769(1)
_cell_angle_alpha                90
_cell_angle_beta                 101.08(1)
_cell_angle_gamma                90
_cell_volume                     1981.94
_exptl_crystal_colour            colorless
_exptl_crystal_description       cubic
_cell_formula_units_Z            4
loop_
_atom_site_label
_atom_site_type_symbol
_atom_site_fract_x
_atom_site_fract_y
_atom_site_fract_z
C1 C 0.2555(5) 0.7783(4) -0.2770(5)
C2 C 0.1697(5) 0.7210(4) -0.3366(5)
C3 C 0.0867(5) 0.5397(5) -0.3634(6)
C4 C 0.0955(5) 0.4397(5) -0.3341(6)
C5 C 0.1828(5) 0.4027(5) -0.2533(6)
C6 C 0.3616(5) 0.4685(4) -0.1164(5)
N1 N 0.4006(4) 0.5669(4) -0.1018(4)
C7 C 0.3409(5) 0.7350(4) -0.1913(5)
C8 C 0.2484(4) 0.5745(4) -0.23680(5)
C9 C 0.1647(5) 0.6134(4) -0.3158(5)
C10 C 0.2603(5) 0.4727(4) -0.2035(5)
C11 C 0.3336(4) 0.6330(4) -0.1741(5)
O1 O 0.4043(4) 0.3948(3) -0.0650(4)
N2 N 0.2638(6) 0.8809(4) -0.2937(5)
C12 C 0.0794(5) 0.7679(4) -0.4195(5)
C13 C 0.1032(5) 0.8201(5) -0.5054(6)
C14 C 0.0171(5) 0.8597(6) -0.5844(7)
C15 C -0.0936(5) 0.8478(5) -0.5745(6)
C16 C -0.1204(5) 0.7991(5) -0.4865(6)
C17 C -0.0336(5) 0.7595(5) -0.4110(7)
O2 O -0.1736(3) 0.8884(4) -0.6561(4)
C18 C -0.2894(5) 0.8703(6) -0.6546(7)
C19 C 0.4255(5) 0.7976(4) -0.1185(6)
C20 C 0.5112(5) 0.8504(5) -0.1563(6)
C21 C 0.5948(6) 0.9019(5) -0.0865(7)
C22 C 0.5927(5) 0.9024(4) 0.0212(6)
C23 C 0.5076(5) 0.8521(5) 0.0614(6)
C24 C 0.4258(5) 0.7996(5) -0.0100(6)
O3 O 0.6715(3) 0.9508(3) 0.0991(4)
C25 C 0.7720(5) 0.9858(6) 0.0671(7)
H1 H 0.0293(61) 0.5573(56) -0.4277(61)
H2 H 0.0421(47) 0.3939(41) -0.3664(46)
H3 H 0.1926(52) 0.3330(50) -0.2417(50)
H4 H 0.4620(43) 0.5906(34) -0.0575(43)
H5 H 0.1995(47) 0.9083(38) -0.3254(43)
H6 H 0.3154(59) 0.9139(50) -0.2638(56)
H7 H 0.1853(65) 0.8214(55) -0.5247(61)
H8 H 0.0387(49) 0.9039(46) -0.6345(52)
H9 H -0.1907(57) 0.7897(48) -0.4830(53)
H10 H -0.0518(47) 0.7301(42) -0.3449(48)
H11 H -0.3356 0.9024 -0.7152
H12 H -0.3074 0.8978 -0.5902
H13 H -0.3035 0.7984 -0.6572
H14 H 0.5236(48) 0.8481(43) -0.2357(52)
H15 H 0.6506(58) 0.9342(51) -0.1006(57)
H16 H 0.4932(44) 0.8509(40) 0.1209(44)
H17 H 0.3667(51) 0.7598(44) 0.0173(50)
H18 H 0.8203 1.0179 0.1265
H19 H 0.7525 1.0340 0.0100
H20 H 0.8109 0.9292 0.0432
loop_
_geom_bond_atom_site_label_1
_geom_bond_atom_site_label_2
_geom_bond_site_symmetry_1
_geom_bond_site_symmetry_2
C1 C2 1_555 1_555
C2 C9 1_555 1_555
C3 C4 1_555 1_555
C4 C5 1_555 1_555
C5 C10 1_555 1_555
C6 N1 1_555 1_555
N1 C11 1_555 1_555
C7 C1 1_555 1_555
C8 C9 1_555 1_555
C9 C3 1_555 1_555
C10 C6 1_555 1_555
C11 C7 1_555 1_555
O1 C6 1_555 1_555
N2 C1 1_555 1_555
C12 C2 1_555 1_555
C13 C12 1_555 1_555
C14 C13 1_555 1_555
C15 C14 1_555 1_555
C16 C15 1_555 1_555
C17 C12 1_555 1_555
O2 C15 1_555 1_555
C18 O2 1_555 1_555
C19 C7 1_555 1_555
C20 C19 1_555 1_555
C21 C20 1_555 1_555
C22 C21 1_555 1_555
C23 C22 1_555 1_555
C24 C19 1_555 1_555
O3 C22 1_555 1_555
C25 O3 1_555 1_555
H1 C3 1_555 1_555
H2 C4 1_555 1_555
H3 C5 1_555 1_555
H4 N1 1_555 1_555
H5 N2 1_555 1_555
H6 N2 1_555 1_555
H7 C13 1_555 1_555
H8 C14 1_555 1_555
H9 C16 1_555 1_555
H10 C17 1_555 1_555
H11 C18 1_555 1_555
H12 C18 1_555 1_555
H13 C18 1_555 1_555
H14 C20 1_555 1_555
H15 C21 1_555 1_555
H16 C23 1_555 1_555
H17 C24 1_555 1_555
H18 C25 1_555 1_555
H19 C25 1_555 1_555
H20 C25 1_555 1_555
C8 C10 1_555 1_555
C8 C11 1_555 1_555
C16 C17 1_555 1_555
C23 C24 1_555 1_555

#END
