
#######################################################################
#
#                 Cambridge Crystallographic Data Centre
#                                CCDC 
#
#######################################################################
#
# If this CIF has been generated from an entry in the Cambridge 
# Structural Database, then it will include bibliographic, chemical, 
# crystal, experimental, refinement or atomic coordinate data resulting 
# from the CCDC's data processing and validation procedures.
#
#######################################################################

data_QACTIA
_chemical_name_common            'Acortatarinowins J'
_chemical_formula_moiety         'C24 H32 O8'
_chemical_name_systematic        
2,5-dimethyl-3,6-bis(2,4,5-trimethoxyphenyl)-1,4-dioxane
_symmetry_cell_setting           monoclinic
_symmetry_space_group_name_H-M   'P c'
_symmetry_Int_Tables_number      7
_space_group_name_Hall           'P -2yc'
loop_
_symmetry_equiv_pos_site_id
_symmetry_equiv_pos_as_xyz
1 x,y,z
2 x,-y,1/2+z
_cell_length_a                   14.8444(2)
_cell_length_b                   10.0477(2)
_cell_length_c                   8.05590(10)
_cell_angle_alpha                90
_cell_angle_beta                 91.0230(10)
_cell_angle_gamma                90
_cell_volume                     1201.36
_exptl_crystal_colour            colorless
_exptl_crystal_description       block
_cell_formula_units_Z            2
loop_
_atom_site_label
_atom_site_type_symbol
_atom_site_fract_x
_atom_site_fract_y
_atom_site_fract_z
O1 O 0.77114(8) 0.25233(14) 0.70609(19)
O2 O 0.41866(6) 0.12799(9) 0.30821(13)
O3 O -0.07888(8) 0.14262(14) -0.02058(18)
O4 O 0.53565(8) 0.48608(11) 0.39811(17)
O5 O 0.17119(7) -0.08865(10) 0.24842(15)
O6 O -0.00143(9) 0.36990(13) 0.0382(2)
O7 O 0.26908(6) 0.27732(9) 0.39500(12)
O8 O 0.67950(8) 0.03360(12) 0.68806(17)
C1 C 0.82459(17) 0.3680(3) 0.7187(4)
H1 H 0.8439 0.3938 0.6103
H2 H 0.8763 0.3504 0.7885
H3 H 0.7899 0.4387 0.7661
C2 C 0.69027(10) 0.26053(18) 0.6238(2)
C3 C 0.65618(11) 0.37574(17) 0.5530(2)
H4 H 0.6897 0.4539 0.5578
C4 C 0.57174(10) 0.37515(15) 0.47442(19)
C5 C 0.52050(9) 0.25937(14) 0.46779(17)
C6 C 0.42961(10) 0.25761(14) 0.38018(18)
H5 H 0.4295 0.3240 0.2911
C7 C 0.33590(9) 0.11207(13) 0.21469(18)
H6 H 0.3304 0.0173 0.1874
C8 C 0.25656(9) 0.14722(13) 0.32625(17)
H7 H 0.2551 0.0829 0.4176
C9 C 0.16687(9) 0.14396(14) 0.23636(17)
C10 C 0.12524(10) 0.02320(15) 0.19870(17)
C11 C 0.04262(10) 0.01978(16) 0.11502(19)
H8 H 0.0151 -0.0615 0.0923
C12 C 0.00098(10) 0.13694(17) 0.0653(2)
C13 C -0.12590(13) 0.0211(2) -0.0504(3)
H9 H -0.0885 -0.0383 -0.1122
H10 H -0.1803 0.0389 -0.1128
H11 H -0.1406 -0.0193 0.0537
C14 C 0.64026(11) 0.14276(15) 0.6159(2)
C15 C 0.55614(10) 0.14433(15) 0.5394(2)
H12 H 0.5224 0.0663 0.5357
C16 C 0.56505(13) 0.61195(17) 0.4537(3)
H13 H 0.5570 0.6186 0.5714
H14 H 0.5305 0.6801 0.3985
H15 H 0.6277 0.6229 0.4292
C17 C 0.12373(10) 0.26124(16) 0.1858(2)
H16 H 0.1504 0.3428 0.2107
C18 C 0.04270(10) 0.25875(16) 0.1000(2)
C19 C 0.13150(12) -0.21389(15) 0.2123(2)
H17 H 0.0725 -0.2177 0.2590
H18 H 0.1683 -0.2834 0.2592
H19 H 0.1268 -0.2254 0.0941
C20 C 0.04308(16) 0.49282(19) 0.0528(3)
H20 H 0.0502 0.5155 0.1681
H21 H 0.0082 0.5604 -0.0029
H22 H 0.1013 0.4866 0.0032
C21 C 0.35023(9) 0.28478(13) 0.49328(17)
H23 H 0.3488 0.2170 0.5806
C22 C 0.35154(12) 0.42137(17) 0.5717(2)
H24 H 0.3561 0.4878 0.4867
H25 H 0.4024 0.4283 0.6466
H26 H 0.2970 0.4347 0.6318
C23 C 0.33760(11) 0.18737(17) 0.0517(2)
H27 H 0.3342 0.2812 0.0731
H28 H 0.2872 0.1607 -0.0167
H29 H 0.3926 0.1679 -0.0044
C24 C 0.64536(13) -0.09271(17) 0.6404(3)
H30 H 0.5837 -0.1002 0.6733
H31 H 0.6804 -0.1613 0.6936
H32 H 0.6488 -0.1023 0.5222
loop_
_geom_bond_atom_site_label_1
_geom_bond_atom_site_label_2
_geom_bond_site_symmetry_1
_geom_bond_site_symmetry_2
O1 C1 1_555 1_555
O2 C6 1_555 1_555
O3 C12 1_555 1_555
O4 C4 1_555 1_555
O5 C10 1_555 1_555
O6 C18 1_555 1_555
O7 C8 1_555 1_555
O8 C14 1_555 1_555
C1 H1 1_555 1_555
H2 C1 1_555 1_555
H3 C1 1_555 1_555
C2 O1 1_555 1_555
C3 C2 1_555 1_555
H4 C3 1_555 1_555
C4 C3 1_555 1_555
C5 C4 1_555 1_555
C6 C5 1_555 1_555
H5 C6 1_555 1_555
C7 O2 1_555 1_555
H6 C7 1_555 1_555
C8 C7 1_555 1_555
H7 C8 1_555 1_555
C9 C8 1_555 1_555
C10 C9 1_555 1_555
C11 C10 1_555 1_555
H8 C11 1_555 1_555
C12 C11 1_555 1_555
C13 O3 1_555 1_555
H9 C13 1_555 1_555
H10 C13 1_555 1_555
H11 C13 1_555 1_555
C14 C2 1_555 1_555
C15 C5 1_555 1_555
H12 C15 1_555 1_555
C16 O4 1_555 1_555
H13 C16 1_555 1_555
H14 C16 1_555 1_555
H15 C16 1_555 1_555
C17 C9 1_555 1_555
H16 C17 1_555 1_555
C18 C12 1_555 1_555
C19 O5 1_555 1_555
H17 C19 1_555 1_555
H18 C19 1_555 1_555
H19 C19 1_555 1_555
C20 O6 1_555 1_555
H20 C20 1_555 1_555
H21 C20 1_555 1_555
H22 C20 1_555 1_555
C21 O7 1_555 1_555
H23 C21 1_555 1_555
C22 C21 1_555 1_555
H24 C22 1_555 1_555
H25 C22 1_555 1_555
H26 C22 1_555 1_555
C23 C7 1_555 1_555
H27 C23 1_555 1_555
H28 C23 1_555 1_555
H29 C23 1_555 1_555
C24 O8 1_555 1_555
H30 C24 1_555 1_555
H31 C24 1_555 1_555
H32 C24 1_555 1_555
C6 C21 1_555 1_555
C14 C15 1_555 1_555
C17 C18 1_555 1_555

#END
