
#######################################################################
#
#                 Cambridge Crystallographic Data Centre
#                                CCDC 
#
#######################################################################
#
# If this CIF has been generated from an entry in the Cambridge 
# Structural Database, then it will include bibliographic, chemical, 
# crystal, experimental, refinement or atomic coordinate data resulting 
# from the CCDC's data processing and validation procedures.
#
#######################################################################

data_QACTOG
_chemical_formula_moiety         'C23 H28 O7'
_chemical_name_systematic        
(3,4-dimethoxyphenyl)(4-methyl-5-(3,4,5-trimethoxyphenyl)tetrahydrofuran-3-yl)methanone
_symmetry_cell_setting           monoclinic
_symmetry_space_group_name_H-M   'P 21'
_symmetry_Int_Tables_number      4
_space_group_name_Hall           'P 2yb'
loop_
_symmetry_equiv_pos_site_id
_symmetry_equiv_pos_as_xyz
1 x,y,z
2 -x,1/2+y,-z
_cell_length_a                   9.8071(4)
_cell_length_b                   7.9422(3)
_cell_length_c                   13.6711(5)
_cell_angle_alpha                90
_cell_angle_beta                 99.0390(10)
_cell_angle_gamma                90
_cell_volume                     1051.62
_exptl_crystal_colour            colorless
_exptl_crystal_description       chunk
_cell_formula_units_Z            2
loop_
_atom_site_label
_atom_site_type_symbol
_atom_site_fract_x
_atom_site_fract_y
_atom_site_fract_z
O1 O 1.38291(15) 1.13806(18) 0.48084(10)
O2 O 0.29429(14) 0.49436(18) 0.78771(10)
O3 O 0.94638(15) 1.1703(2) 0.77061(11)
O4 O 0.87821(15) 0.8210(2) 0.94263(10)
O5 O 0.49314(14) 0.27752(19) 0.75551(10)
O6 O 0.35688(14) 0.78851(19) 0.87826(10)
O7 O 1.22295(15) 1.37889(18) 0.51235(10)
C1 C 1.4761(2) 1.0089(3) 0.46153(17)
H1 H 1.5370 0.9797 0.5231
H2 H 1.5317 1.0491 0.4126
H3 H 1.4236 0.9091 0.4356
C2 C 1.2995(2) 1.1043(3) 0.54804(14)
C3 C 1.2950(2) 0.9529(3) 0.59841(14)
H4 H 1.3521 0.8618 0.5851
C4 C 1.2073(2) 0.9347(3) 0.66790(14)
H5 H 1.2061 0.8314 0.7028
C5 C 1.1208(2) 1.0657(3) 0.68742(14)
C6 C 1.0240(2) 1.0535(3) 0.75995(15)
C7 C 1.0168(2) 0.8930(3) 0.81922(14)
H6 H 1.1033 0.8261 0.8199
C8 C 0.88981(19) 0.7865(3) 0.77399(13)
H7 H 0.8127 0.8638 0.7468
C9 C 0.8535(2) 0.6987(3) 0.86612(13)
H8 H 0.9168 0.6008 0.8833
C10 C 0.7058(2) 0.6391(3) 0.85406(13)
C11 C 0.6737(2) 0.4799(3) 0.81565(14)
H9 H 0.7450 0.4054 0.8036
C12 C 0.5359(2) 0.4300(3) 0.79480(14)
C13 C 0.4307(2) 0.5400(3) 0.81309(13)
C14 C 0.2381(2) 0.4234(3) 0.86913(15)
H10 H 0.2919 0.3239 0.8939
H11 H 0.1419 0.3907 0.8470
H12 H 0.2422 0.5070 0.9222
C15 C 0.9915(2) 0.9248(3) 0.92618(15)
H13 H 1.0751 0.8958 0.9738
H14 H 0.9695 1.0449 0.9351
C16 C 0.9170(2) 0.6658(3) 0.69295(13)
H15 H 0.9933 0.5904 0.7188
H16 H 0.9414 0.7300 0.6370
H17 H 0.8338 0.5992 0.6708
C17 C 0.5993(2) 0.1601(3) 0.74272(16)
H18 H 0.6525 0.2032 0.6931
H19 H 0.5575 0.0518 0.7204
H20 H 0.6608 0.1446 0.8059
C18 C 0.4664(2) 0.6958(3) 0.85703(13)
C19 C 0.3864(2) 0.9513(3) 0.92046(16)
H21 H 0.4524 0.9406 0.9819
H22 H 0.3010 1.0027 0.9349
H23 H 0.4262 1.0223 0.8735
C20 C 0.6029(2) 0.7476(3) 0.87580(13)
H24 H 0.6260 0.8558 0.9031
C21 C 1.1241(2) 1.2175(3) 0.63478(14)
H25 H 1.0651 1.3075 0.6468
C22 C 1.2109(2) 1.2372(2) 0.56644(14)
C23 C 1.1411(2) 1.5203(3) 0.53192(16)
H26 H 1.0432 1.4890 0.5200
H27 H 1.1567 1.6137 0.4881
H28 H 1.1672 1.5552 0.6011
loop_
_geom_bond_atom_site_label_1
_geom_bond_atom_site_label_2
_geom_bond_site_symmetry_1
_geom_bond_site_symmetry_2
O1 C1 1_555 1_555
O2 C13 1_555 1_555
O3 C6 1_555 1_555
O4 C9 1_555 1_555
O5 C12 1_555 1_555
O6 C18 1_555 1_555
O7 C22 1_555 1_555
C1 H1 1_555 1_555
H2 C1 1_555 1_555
H3 C1 1_555 1_555
C2 O1 1_555 1_555
C3 C2 1_555 1_555
H4 C3 1_555 1_555
C4 C3 1_555 1_555
H5 C4 1_555 1_555
C5 C4 1_555 1_555
C6 C5 1_555 1_555
C7 C6 1_555 1_555
H6 C7 1_555 1_555
C8 C7 1_555 1_555
H7 C8 1_555 1_555
C9 C8 1_555 1_555
H8 C9 1_555 1_555
C10 C9 1_555 1_555
C11 C10 1_555 1_555
H9 C11 1_555 1_555
C12 C11 1_555 1_555
C13 C12 1_555 1_555
C14 O2 1_555 1_555
H10 C14 1_555 1_555
H11 C14 1_555 1_555
H12 C14 1_555 1_555
C15 O4 1_555 1_555
H13 C15 1_555 1_555
H14 C15 1_555 1_555
C16 C8 1_555 1_555
H15 C16 1_555 1_555
H16 C16 1_555 1_555
H17 C16 1_555 1_555
C17 O5 1_555 1_555
H18 C17 1_555 1_555
H19 C17 1_555 1_555
H20 C17 1_555 1_555
C18 C13 1_555 1_555
C19 O6 1_555 1_555
H21 C19 1_555 1_555
H22 C19 1_555 1_555
H23 C19 1_555 1_555
C20 C10 1_555 1_555
H24 C20 1_555 1_555
C21 C5 1_555 1_555
H25 C21 1_555 1_555
C22 C2 1_555 1_555
C23 O7 1_555 1_555
H26 C23 1_555 1_555
H27 C23 1_555 1_555
H28 C23 1_555 1_555
C7 C15 1_555 1_555
C18 C20 1_555 1_555
C21 C22 1_555 1_555

#END
