
#######################################################################
#
#                 Cambridge Crystallographic Data Centre
#                                CCDC 
#
#######################################################################
#
# If this CIF has been generated from an entry in the Cambridge 
# Structural Database, then it will include bibliographic, chemical, 
# crystal, experimental, refinement or atomic coordinate data resulting 
# from the CCDC's data processing and validation procedures.
#
#######################################################################

data_QADCII
_chemical_formula_moiety         'C27 H33 Si1 1+,C6 H16 B11 Br6 1-,C6 H6'
_chemical_name_systematic        
'Trimesitylsilylium closo-7,8,9,10,11,12-hexabromo-2,3,4,5,6-pentamethyl-1-carbadodecaborate benzene solvate'
_symmetry_cell_setting           monoclinic
_symmetry_space_group_name_H-M   'P 21/c'
_symmetry_Int_Tables_number      14
_space_group_name_Hall           '-P 2ybc'
loop_
_symmetry_equiv_pos_site_id
_symmetry_equiv_pos_as_xyz
1 x,y,z
2 -x,1/2+y,1/2-z
3 -x,-y,-z
4 x,1/2-y,1/2+z
_cell_length_a                   12.7715(10)
_cell_length_b                   29.227(2)
_cell_length_c                   13.6012(10)
_cell_angle_alpha                90
_cell_angle_beta                 102.152(2)
_cell_angle_gamma                90
_cell_volume                     4963.19
_exptl_crystal_colour            yellow
_exptl_crystal_description       'fragment of needle'
_cell_formula_units_Z            4
_exptl_crystal_recrystallization_method benzene/hexanes
loop_
_atom_site_label
_atom_site_type_symbol
_atom_site_fract_x
_atom_site_fract_y
_atom_site_fract_z
C1 C 0.2058(4) 0.20550(16) 0.3776(3)
H1 H 0.2012 0.2327 0.4335
C2 C 0.3270(4) 0.14992(19) 0.5366(3)
H2 H 0.3421 0.1794 0.5694
H3 H 0.3932 0.1330 0.5417
H4 H 0.2788 0.1328 0.5692
C3 C 0.0551(4) 0.15332(18) 0.4611(4)
H5 H 0.0926 0.1365 0.5194
H6 H -0.0098 0.1371 0.4304
H7 H 0.0367 0.1835 0.4816
C4 C -0.0084(4) 0.22942(17) 0.2720(4)
H8 H 0.0037 0.2531 0.3232
H9 H -0.0681 0.2104 0.2806
H10 H -0.0247 0.2435 0.2059
C5 C 0.2232(5) 0.27633(16) 0.2335(4)
H11 H 0.2003 0.2946 0.2847
H12 H 0.1763 0.2822 0.1688
H13 H 0.2961 0.2844 0.2305
C6 C 0.4304(4) 0.22688(18) 0.3951(4)
H14 H 0.4542 0.2436 0.3422
H15 H 0.4875 0.2069 0.4289
H16 H 0.4121 0.2483 0.4432
B1 B 0.2729(4) 0.15736(19) 0.4222(4)
B2 B 0.1296(4) 0.15797(19) 0.3824(4)
B3 B 0.0955(4) 0.19900(19) 0.2823(4)
B4 B 0.2178(5) 0.22309(19) 0.2609(4)
B5 B 0.3287(4) 0.19720(19) 0.3480(4)
B6 B 0.3264(4) 0.1380(2) 0.3197(4)
B7 B 0.2051(4) 0.11439(19) 0.3419(4)
B8 B 0.0971(4) 0.13925(18) 0.2552(4)
B9 B 0.1510(5) 0.17901(19) 0.1810(4)
B10 B 0.2926(5) 0.1785(2) 0.2223(4)
B11 B 0.2193(4) 0.12637(18) 0.2173(4)
Br1 Br 0.46000(4) 0.10288(2) 0.34563(5)
Br2 Br 0.19839(5) 0.051573(19) 0.38893(5)
Br3 Br -0.03565(4) 0.106284(19) 0.20491(4)
Br4 Br 0.08322(5) 0.19284(2) 0.04109(4)
Br5 Br 0.38737(5) 0.19123(2) 0.12788(4)
Br6 Br 0.23069(5) 0.07770(2) 0.12193(4)
Si1 Si 0.68545(11) 0.12903(5) 0.82386(10)
C7 C 0.6905(4) 0.19099(16) 0.8374(4)
C8 C 0.6565(4) 0.21936(17) 0.7531(4)
C9 C 0.6711(4) 0.26627(19) 0.7645(4)
H17 H 0.6467 0.2852 0.7085
C10 C 0.7192(4) 0.28618(19) 0.8533(5)
C11 C 0.7517(4) 0.2580(2) 0.9360(5)
H18 H 0.7854 0.2712 0.9976
C12 C 0.7361(4) 0.2112(2) 0.9307(4)
C13 C 0.7742(5) 0.1832(2) 1.0255(4)
H19 H 0.8053 0.2034 1.0804
H20 H 0.8277 0.1613 1.0144
H21 H 0.7140 0.1670 1.0422
C14 C 0.7342(5) 0.33716(19) 0.8594(6)
H22 H 0.6702 0.3521 0.8220
H23 H 0.7950 0.3456 0.8310
H24 H 0.7469 0.3467 0.9293
C15 C 0.6003(5) 0.20123(19) 0.6521(4)
H25 H 0.5558 0.2251 0.6152
H26 H 0.5559 0.1754 0.6615
H27 H 0.6530 0.1916 0.6144
C16 C 0.7242(4) 0.10446(16) 0.7135(4)
C17 C 0.6576(5) 0.07329(18) 0.6525(4)
C18 C 0.6873(6) 0.05666(18) 0.5659(4)
H28 H 0.6415 0.0365 0.5232
C19 C 0.7835(7) 0.0696(2) 0.5426(5)
C20 C 0.8489(6) 0.0994(2) 0.6052(5)
H29 H 0.9151 0.1075 0.5904
C21 C 0.8206(5) 0.11805(17) 0.6889(4)
C22 C 0.8968(4) 0.1509(2) 0.7528(5)
H30 H 0.9687 0.1458 0.7424
H31 H 0.8956 0.1461 0.8232
H32 H 0.8751 0.1821 0.7341
C23 C 0.8139(8) 0.0496(2) 0.4493(5)
H33 H 0.8274 0.0742 0.4058
H34 H 0.7557 0.0307 0.4137
H35 H 0.8779 0.0311 0.4690
C24 C 0.5531(5) 0.0570(2) 0.6740(4)
H36 H 0.5622 0.0264 0.7026
H37 H 0.4992 0.0563 0.6120
H38 H 0.5304 0.0776 0.7214
C25 C 0.6468(4) 0.09349(16) 0.9191(3)
C26 C 0.5503(4) 0.10164(18) 0.9511(4)
C27 C 0.5267(5) 0.0762(2) 1.0287(4)
H39 H 0.4620 0.0816 1.0494
C28 C 0.5964(5) 0.0427(2) 1.0774(4)
C29 C 0.6896(5) 0.03464(19) 1.0452(4)
H40 H 0.7364 0.0117 1.0770
C30 C 0.7168(4) 0.05922(18) 0.9676(4)
C31 C 0.4710(4) 0.1367(2) 0.8988(4)
H41 H 0.4019 0.1314 0.9156
H42 H 0.4642 0.1342 0.8267
H43 H 0.4960 0.1672 0.9207
C32 C 0.5691(6) 0.0153(2) 1.1633(5)
H44 H 0.5580 0.0360 1.2160
H45 H 0.6276 -0.0054 1.1900
H46 H 0.5043 -0.0022 1.1390
C33 C 0.8235(4) 0.04978(19) 0.9393(4)
H47 H 0.8112 0.0385 0.8707
H48 H 0.8625 0.0270 0.9844
H49 H 0.8650 0.0778 0.9446
C34 C 0.0409(4) 0.02756(19) -0.2024(5)
H50 H -0.0080 0.0063 -0.1862
C35 C 0.0691(5) 0.0259(2) -0.2937(5)
H51 H 0.0383 0.0036 -0.3409
C36 C 0.1421(5) 0.0562(2) -0.3174(4)
H52 H 0.1618 0.0546 -0.3801
C37 C 0.1856(5) 0.0888(2) -0.2492(5)
H53 H 0.2357 0.1097 -0.2646
C38 C 0.1561(5) 0.0909(2) -0.1585(4)
H54 H 0.1855 0.1136 -0.1118
C39 C 0.0844(4) 0.0605(2) -0.1349(4)
H55 H 0.0649 0.0621 -0.0721
loop_
_geom_bond_atom_site_label_1
_geom_bond_atom_site_label_2
_geom_bond_site_symmetry_1
_geom_bond_site_symmetry_2
C1 H1 1_555 1_555
C2 H2 1_555 1_555
H3 C2 1_555 1_555
H4 C2 1_555 1_555
C3 H5 1_555 1_555
H6 C3 1_555 1_555
H7 C3 1_555 1_555
C4 H8 1_555 1_555
H9 C4 1_555 1_555
H10 C4 1_555 1_555
C5 H11 1_555 1_555
H12 C5 1_555 1_555
H13 C5 1_555 1_555
C6 H14 1_555 1_555
H15 C6 1_555 1_555
H16 C6 1_555 1_555
B1 C1 1_555 1_555
B2 C1 1_555 1_555
B3 C1 1_555 1_555
B4 C1 1_555 1_555
B5 C1 1_555 1_555
B6 B1 1_555 1_555
B7 B1 1_555 1_555
B8 B2 1_555 1_555
B9 B3 1_555 1_555
B10 B4 1_555 1_555
B11 B6 1_555 1_555
Br1 B6 1_555 1_555
Br2 B7 1_555 1_555
Br3 B8 1_555 1_555
Br4 B9 1_555 1_555
Br5 B10 1_555 1_555
Br6 B11 1_555 1_555
Si1 C7 1_555 1_555
C7 C8 1_555 1_555
C8 C9 1_555 1_555
C9 H17 1_555 1_555
C10 C9 1_555 1_555
C11 C10 1_555 1_555
H18 C11 1_555 1_555
C12 C7 1_555 1_555
C13 C12 1_555 1_555
H19 C13 1_555 1_555
H20 C13 1_555 1_555
H21 C13 1_555 1_555
C14 C10 1_555 1_555
H22 C14 1_555 1_555
H23 C14 1_555 1_555
H24 C14 1_555 1_555
C15 C8 1_555 1_555
H25 C15 1_555 1_555
H26 C15 1_555 1_555
H27 C15 1_555 1_555
C16 Si1 1_555 1_555
C17 C16 1_555 1_555
C18 C17 1_555 1_555
H28 C18 1_555 1_555
C19 C18 1_555 1_555
C20 C19 1_555 1_555
H29 C20 1_555 1_555
C21 C16 1_555 1_555
C22 C21 1_555 1_555
H30 C22 1_555 1_555
H31 C22 1_555 1_555
H32 C22 1_555 1_555
C23 C19 1_555 1_555
H33 C23 1_555 1_555
H34 C23 1_555 1_555
H35 C23 1_555 1_555
C24 C17 1_555 1_555
H36 C24 1_555 1_555
H37 C24 1_555 1_555
H38 C24 1_555 1_555
C25 Si1 1_555 1_555
C26 C25 1_555 1_555
C27 C26 1_555 1_555
H39 C27 1_555 1_555
C28 C27 1_555 1_555
C29 C28 1_555 1_555
H40 C29 1_555 1_555
C30 C25 1_555 1_555
C31 C26 1_555 1_555
H41 C31 1_555 1_555
H42 C31 1_555 1_555
H43 C31 1_555 1_555
C32 C28 1_555 1_555
H44 C32 1_555 1_555
H45 C32 1_555 1_555
H46 C32 1_555 1_555
C33 C30 1_555 1_555
H47 C33 1_555 1_555
H48 C33 1_555 1_555
H49 C33 1_555 1_555
C34 H50 1_555 1_555
C35 C34 1_555 1_555
H51 C35 1_555 1_555
C36 C35 1_555 1_555
H52 C36 1_555 1_555
C37 C36 1_555 1_555
H53 C37 1_555 1_555
C38 C37 1_555 1_555
H54 C38 1_555 1_555
C39 C34 1_555 1_555
H55 C39 1_555 1_555
C2 B1 1_555 1_555
C3 B2 1_555 1_555
C4 B3 1_555 1_555
C5 B4 1_555 1_555
C6 B5 1_555 1_555
B1 B2 1_555 1_555
B1 B5 1_555 1_555
B2 B3 1_555 1_555
B2 B7 1_555 1_555
B3 B4 1_555 1_555
B3 B8 1_555 1_555
B4 B5 1_555 1_555
B4 B9 1_555 1_555
B5 B6 1_555 1_555
B5 B10 1_555 1_555
B6 B7 1_555 1_555
B6 B10 1_555 1_555
B7 B8 1_555 1_555
B7 B11 1_555 1_555
B8 B9 1_555 1_555
B8 B11 1_555 1_555
B9 B10 1_555 1_555
B9 B11 1_555 1_555
B10 B11 1_555 1_555
C11 C12 1_555 1_555
C20 C21 1_555 1_555
C29 C30 1_555 1_555
C38 C39 1_555 1_555

#END
