
#######################################################################
#
#                 Cambridge Crystallographic Data Centre
#                                CCDC 
#
#######################################################################
#
# If this CIF has been generated from an entry in the Cambridge 
# Structural Database, then it will include bibliographic, chemical, 
# crystal, experimental, refinement or atomic coordinate data resulting 
# from the CCDC's data processing and validation procedures.
#
#######################################################################

data_QADGIM
_chemical_formula_moiety         'C10 H9 N1 O4 S1'
_chemical_name_systematic        
'3-Phenyl-6,6a-dihydro-3aH-(1,2)oxathiolo(3,4-d)isoxazole 4,4-dioxide'
_symmetry_cell_setting           monoclinic
_symmetry_space_group_name_H-M   'P 21/c'
_symmetry_Int_Tables_number      14
_space_group_name_Hall           '-P 2ybc'
loop_
_symmetry_equiv_pos_site_id
_symmetry_equiv_pos_as_xyz
1 x,y,z
2 x,1/2-y,1/2+z
3 -x,-y,-z
4 -x,1/2+y,1/2-z
_cell_length_a                   5.2298(5)
_cell_length_b                   17.0015(17)
_cell_length_c                   11.8759(12)
_cell_angle_alpha                90
_cell_angle_beta                 102.217(2)
_cell_angle_gamma                90
_cell_volume                     1032.03
_exptl_crystal_colour            colorless
_exptl_crystal_description       plate
_cell_formula_units_Z            4
loop_
_atom_site_label
_atom_site_type_symbol
_atom_site_fract_x
_atom_site_fract_y
_atom_site_fract_z
C1 C 0.3141(7) 0.3519(2) 0.8936(2)
C2 C 0.5193(7) 0.3067(2) 0.9510(3)
C3 C 0.6638(7) 0.2611(2) 0.8929(3)
C4 C 0.6041(7) 0.26059(19) 0.7743(3)
C5 C 0.4008(6) 0.30464(16) 0.7150(3)
C6 C 0.2521(5) 0.35138(15) 0.7738(2)
C7 C 0.0394(5) 0.40070(14) 0.7103(2)
C8 C -0.1131(5) 0.46066(16) 0.7617(3)
C9 C -0.3051(6) 0.49103(17) 0.6560(3)
C10 C -0.2626(6) 0.5782(2) 0.6434(3)
H1 H -0.2968 0.5930 0.5627
H2 H -0.3778 0.6082 0.6814
H3 H 0.216(5) 0.3861(16) 0.933(2)
H4 H 0.571(6) 0.3129(19) 1.022(3)
H5 H 0.814(7) 0.233(2) 0.923(3)
H6 H 0.675(6) 0.227(2) 0.735(3)
H7 H 0.352(6) 0.3046(17) 0.630(3)
H8 H -0.174(6) 0.4417(18) 0.812(2)
H9 H -0.472(5) 0.4830(16) 0.656(2)
N1 N -0.0292(4) 0.39715(13) 0.60010(19)
O1 O -0.2361(4) 0.44950(12) 0.56005(16)
O2 O 0.0092(5) 0.59283(14) 0.6975(2)
O3 O -0.0226(5) 0.58176(16) 0.9028(2)
O4 O 0.3524(4) 0.53535(14) 0.8334(2)
S1 S 0.08010(15) 0.54649(4) 0.81563(7)
loop_
_geom_bond_atom_site_label_1
_geom_bond_atom_site_label_2
_geom_bond_site_symmetry_1
_geom_bond_site_symmetry_2
C1 C2 1_555 1_555
C2 C3 1_555 1_555
C3 C4 1_555 1_555
C4 C5 1_555 1_555
C5 C6 1_555 1_555
C6 C1 1_555 1_555
C7 C6 1_555 1_555
C8 C7 1_555 1_555
C9 C8 1_555 1_555
C10 C9 1_555 1_555
H1 C10 1_555 1_555
H2 C10 1_555 1_555
H3 C1 1_555 1_555
H4 C2 1_555 1_555
H5 C3 1_555 1_555
H6 C4 1_555 1_555
H7 C5 1_555 1_555
H8 C8 1_555 1_555
H9 C9 1_555 1_555
N1 C7 1_555 1_555
O1 C9 1_555 1_555
O2 C10 1_555 1_555
O3 S1 1_555 1_555
O4 S1 1_555 1_555
S1 C8 1_555 1_555
N1 O1 1_555 1_555
O2 S1 1_555 1_555

#END
