
#######################################################################
#
#                 Cambridge Crystallographic Data Centre
#                                CCDC 
#
#######################################################################
#
# If this CIF has been generated from an entry in the Cambridge 
# Structural Database, then it will include bibliographic, chemical, 
# crystal, experimental, refinement or atomic coordinate data resulting 
# from the CCDC's data processing and validation procedures.
#
#######################################################################

data_QADGOS
_chemical_formula_moiety         'C17 H17 N1 O4 S1'
_chemical_name_systematic        
'2-Benzyl-3-phenyl-tetrahydro-2H-(1,2)oxathiolo(3,4-d)isoxazole 4,4-dioxide'
_symmetry_cell_setting           monoclinic
_symmetry_space_group_name_H-M   'P 21'
_symmetry_Int_Tables_number      4
_space_group_name_Hall           'P 2yb'
loop_
_symmetry_equiv_pos_site_id
_symmetry_equiv_pos_as_xyz
1 x,y,z
2 -x,1/2+y,-z
_cell_length_a                   6.5608(6)
_cell_length_b                   15.7544(13)
_cell_length_c                   7.9593(7)
_cell_angle_alpha                90
_cell_angle_beta                 97.1850(10)
_cell_angle_gamma                90
_cell_volume                     816.225
_exptl_crystal_colour            colorless
_exptl_crystal_description       cube
_cell_formula_units_Z            2
loop_
_atom_site_label
_atom_site_type_symbol
_atom_site_fract_x
_atom_site_fract_y
_atom_site_fract_z
C1 C 0.7040(4) 1.13185(17) 0.7132(4)
C2 C 0.6940(3) 1.03873(16) 0.6724(3)
C3 C 0.4932(3) 1.00328(13) 0.7261(3)
C4 C 0.3873(3) 0.95869(14) 0.5663(2)
C5 C 0.2835(3) 0.87580(13) 0.5980(2)
C6 C 0.0780(3) 0.86398(15) 0.5415(3)
C7 C -0.0187(4) 0.78890(18) 0.5717(3)
C8 C 0.0897(4) 0.72414(17) 0.6600(4)
C9 C 0.2954(5) 0.73557(17) 0.7175(4)
C10 C 0.3923(4) 0.81026(15) 0.6865(3)
C11 C 0.4976(3) 0.94164(18) 0.2860(2)
C12 C 0.6737(3) 0.92282(15) 0.1865(2)
C13 C 0.7035(5) 0.84163(18) 0.1304(3)
C14 C 0.8688(6) 0.8233(2) 0.0421(4)
C15 C 1.0018(5) 0.8857(2) 0.0094(3)
C16 C 0.9727(4) 0.9665(2) 0.0644(3)
C17 C 0.8079(4) 0.98601(17) 0.1513(3)
H1 H 0.762(5) 1.144(2) 0.836(4)
H2 H 0.766(4) 1.1604(17) 0.635(3)
H3 H 0.804(4) 1.0082(16) 0.721(3)
H4 H 0.516(3) 0.9686(17) 0.819(3)
H5 H 0.288(4) 0.9950(15) 0.504(3)
H6 H 0.003(4) 0.9118(19) 0.478(3)
H7 H -0.155(5) 0.780(2) 0.535(4)
H8 H 0.020(5) 0.675(2) 0.679(4)
H9 H 0.377(5) 0.691(2) 0.771(4)
H10 H 0.525(5) 0.8168(19) 0.727(3)
H11 H 0.421(4) 0.9936(17) 0.253(3)
H12 H 0.402(4) 0.8962(17) 0.275(3)
H13 H 0.603(5) 0.799(2) 0.157(4)
H14 H 0.886(5) 0.769(3) 0.007(4)
H15 H 1.115(5) 0.874(2) -0.051(4)
H16 H 1.057(4) 1.0107(18) 0.049(3)
H17 H 0.785(4) 1.041(2) 0.191(3)
N1 N 0.5646(2) 0.94668(11) 0.46892(19)
O1 O 0.3982(3) 1.10545(13) 0.9649(2)
O2 O 0.1548(2) 1.10243(16) 0.7073(2)
O3 O 0.4919(3) 1.16212(11) 0.6971(2)
O4 O 0.6684(2) 1.02881(10) 0.49384(17)
S1 S 0.36007(7) 1.09565(3) 0.78589(6)
loop_
_geom_bond_atom_site_label_1
_geom_bond_atom_site_label_2
_geom_bond_site_symmetry_1
_geom_bond_site_symmetry_2
C1 C2 1_555 1_555
C2 C3 1_555 1_555
C3 C4 1_555 1_555
C4 C5 1_555 1_555
C5 C6 1_555 1_555
C6 C7 1_555 1_555
C7 C8 1_555 1_555
C8 C9 1_555 1_555
C9 C10 1_555 1_555
C10 C5 1_555 1_555
C11 C12 1_555 1_555
C12 C13 1_555 1_555
C13 C14 1_555 1_555
C14 C15 1_555 1_555
C15 C16 1_555 1_555
C16 C17 1_555 1_555
C17 C12 1_555 1_555
H1 C1 1_555 1_555
H2 C1 1_555 1_555
H3 C2 1_555 1_555
H4 C3 1_555 1_555
H5 C4 1_555 1_555
H6 C6 1_555 1_555
H7 C7 1_555 1_555
H8 C8 1_555 1_555
H9 C9 1_555 1_555
H10 C10 1_555 1_555
H11 C11 1_555 1_555
H12 C11 1_555 1_555
H13 C13 1_555 1_555
H14 C14 1_555 1_555
H15 C15 1_555 1_555
H16 C16 1_555 1_555
H17 C17 1_555 1_555
N1 C4 1_555 1_555
O1 S1 1_555 1_555
O2 S1 1_555 1_555
O3 C1 1_555 1_555
O4 C2 1_555 1_555
S1 C3 1_555 1_555
C11 N1 1_555 1_555
N1 O4 1_555 1_555
O3 S1 1_555 1_555

#END
