
#######################################################################
#
#                 Cambridge Crystallographic Data Centre
#                                CCDC 
#
#######################################################################
#
# If this CIF has been generated from an entry in the Cambridge 
# Structural Database, then it will include bibliographic, chemical, 
# crystal, experimental, refinement or atomic coordinate data resulting 
# from the CCDC's data processing and validation procedures.
#
#######################################################################

data_QADJIR
_chemical_formula_moiety         'C37 H26 O4,C4 H8 O2'
_chemical_name_systematic        
'3-(2,5-Dihydroxy-2,3,4,5-tetraphenylcyclopent-3-en-1-ylidene)-2-benzofuran-1(3H)-one ethyl acetate solvate'
_symmetry_cell_setting           monoclinic
_symmetry_space_group_name_H-M   'P 21/c'
_symmetry_Int_Tables_number      14
_space_group_name_Hall           '-P 2ybc'
loop_
_symmetry_equiv_pos_site_id
_symmetry_equiv_pos_as_xyz
1 x,y,z
2 -x,1/2+y,1/2-z
3 -x,-y,-z
4 x,1/2-y,1/2+z
_cell_length_a                   9.5936(12)
_cell_length_b                   9.4163(12)
_cell_length_c                   34.688(5)
_cell_angle_alpha                90
_cell_angle_beta                 93.150(3)
_cell_angle_gamma                90
_cell_volume                     3128.85
_exptl_crystal_colour            colorless
_exptl_crystal_description       block
_cell_formula_units_Z            4
loop_
_atom_site_label
_atom_site_type_symbol
_atom_site_fract_x
_atom_site_fract_y
_atom_site_fract_z
O1 O 0.07389(11) 0.60366(12) 0.14612(3)
O2 O 0.28311(11) 0.70804(11) 0.13990(3)
O3 O 0.50396(11) 1.01452(11) 0.07135(3)
H1 H 0.471(2) 1.066(2) 0.0908(6)
O4 O 0.46216(11) 0.89944(12) 0.18519(3)
H2 H 0.429(2) 0.972(2) 0.1711(6)
C1 C 0.15714(16) 0.65374(16) 0.12532(5)
C2 C 0.15184(16) 0.67524(16) 0.08322(5)
C3 C 0.04699(16) 0.63885(17) 0.05593(5)
H3 H -0.0337 0.5886 0.0629
C4 C 0.06495(17) 0.67895(17) 0.01810(5)
H4 H -0.0045 0.6556 -0.0014
C5 C 0.18366(17) 0.75309(17) 0.00839(5)
H5 H 0.1931 0.7801 -0.0177
C6 C 0.28845(16) 0.78842(16) 0.03585(4)
H6 H 0.3690 0.8389 0.0289
C7 C 0.27186(15) 0.74750(15) 0.07403(5)
C8 C 0.35846(16) 0.76627(16) 0.10987(4)
C9 C 0.48475(15) 0.82166(15) 0.11829(4)
C10 C 0.57553(16) 0.89603(15) 0.08942(4)
C11 C 0.69695(15) 0.95120(15) 0.11601(4)
C12 C 0.68210(15) 0.91988(15) 0.15311(4)
C13 C 0.55189(15) 0.83142(15) 0.15917(4)
C14 C 0.62109(15) 0.79996(16) 0.05710(4)
C15 C 0.63724(16) 0.65440(16) 0.06279(5)
H7 H 0.6244 0.6149 0.0875
C16 C 0.67194(17) 0.56636(17) 0.03266(5)
H8 H 0.6826 0.4672 0.0369
C17 C 0.69114(16) 0.62275(18) -0.00363(5)
H9 H 0.7137 0.5624 -0.0243
C18 C 0.67725(16) 0.76750(18) -0.00944(5)
H10 H 0.6908 0.8067 -0.0342
C19 C 0.64358(16) 0.85592(17) 0.02074(5)
H11 H 0.6358 0.9554 0.0166
C20 C 0.80931(16) 1.04258(16) 0.10164(4)
C21 C 0.91131(17) 0.98931(17) 0.07840(5)
H12 H 0.9057 0.8936 0.0698
C22 C 1.02098(17) 1.07434(18) 0.06761(5)
H13 H 1.0906 1.0365 0.0521
C23 C 1.02829(17) 1.21471(18) 0.07961(5)
H14 H 1.1032 1.2731 0.0723
C24 C 0.92718(18) 1.26999(18) 0.10210(5)
H15 H 0.9319 1.3665 0.1101
C25 C 0.81805(17) 1.18388(17) 0.11307(4)
H16 H 0.7487 1.2223 0.1286
C26 C 0.78000(16) 0.95684(15) 0.18628(4)
C27 C 0.91686(17) 0.90560(17) 0.18791(5)
H17 H 0.9481 0.8497 0.1673
C28 C 1.00743(18) 0.93565(18) 0.21938(5)
H18 H 1.1000 0.8994 0.2203
C29 C 0.96338(18) 1.01834(18) 0.24938(5)
H19 H 1.0258 1.0396 0.2708
C30 C 0.82850(18) 1.06985(18) 0.24802(5)
H20 H 0.7982 1.1267 0.2686
C31 C 0.73694(17) 1.03908(16) 0.21676(5)
H21 H 0.6441 1.0745 0.2162
C32 C 0.59175(16) 0.68609(15) 0.17601(4)
C33 C 0.51084(17) 0.61958(17) 0.20276(5)
H22 H 0.4291 0.6649 0.2109
C34 C 0.54882(19) 0.48782(17) 0.21752(5)
H23 H 0.4932 0.4435 0.2359
C35 C 0.66692(19) 0.42017(17) 0.20575(5)
H24 H 0.6922 0.3295 0.2159
C36 C 0.74856(17) 0.48505(17) 0.17906(5)
H25 H 0.8297 0.4388 0.1708
C37 C 0.71136(16) 0.61762(16) 0.16447(4)
H26 H 0.7680 0.6623 0.1464
O5 O 0.38884(13) 0.14592(12) 0.13531(4)
O6 O 0.26303(13) 0.32982(12) 0.15471(3)
C38 C 0.4353(2) 0.37958(18) 0.11173(5)
H27 H 0.4924 0.4406 0.1292
H28 H 0.3669 0.4378 0.0969
H29 H 0.4955 0.3308 0.0940
C39 C 0.36078(17) 0.27214(17) 0.13478(5)
C40 C 0.18640(19) 0.2371(2) 0.17998(5)
H30 H 0.1687 0.1445 0.1671
H31 H 0.0951 0.2806 0.1849
C41 C 0.26780(19) 0.21410(19) 0.21752(5)
H32 H 0.3571 0.1688 0.2127
H33 H 0.2145 0.1527 0.2341
H34 H 0.2850 0.3057 0.2303
loop_
_geom_bond_atom_site_label_1
_geom_bond_atom_site_label_2
_geom_bond_site_symmetry_1
_geom_bond_site_symmetry_2
O1 C1 1_555 1_555
O2 C1 1_555 1_555
O3 H1 1_555 1_555
O4 H2 1_555 1_555
C1 C2 1_555 1_555
C2 C3 1_555 1_555
C3 H3 1_555 1_555
C4 C3 1_555 1_555
H4 C4 1_555 1_555
C5 C4 1_555 1_555
H5 C5 1_555 1_555
C6 C5 1_555 1_555
H6 C6 1_555 1_555
C7 C2 1_555 1_555
C8 O2 1_555 1_555
C9 C8 1_555 1_555
C10 O3 1_555 1_555
C11 C10 1_555 1_555
C12 C11 1_555 1_555
C13 O4 1_555 1_555
C14 C10 1_555 1_555
C15 C14 1_555 1_555
H7 C15 1_555 1_555
C16 C15 1_555 1_555
H8 C16 1_555 1_555
C17 C16 1_555 1_555
H9 C17 1_555 1_555
C18 C17 1_555 1_555
H10 C18 1_555 1_555
C19 C14 1_555 1_555
H11 C19 1_555 1_555
C20 C11 1_555 1_555
C21 C20 1_555 1_555
H12 C21 1_555 1_555
C22 C21 1_555 1_555
H13 C22 1_555 1_555
C23 C22 1_555 1_555
H14 C23 1_555 1_555
C24 C23 1_555 1_555
H15 C24 1_555 1_555
C25 C20 1_555 1_555
H16 C25 1_555 1_555
C26 C12 1_555 1_555
C27 C26 1_555 1_555
H17 C27 1_555 1_555
C28 C27 1_555 1_555
H18 C28 1_555 1_555
C29 C28 1_555 1_555
H19 C29 1_555 1_555
C30 C29 1_555 1_555
H20 C30 1_555 1_555
C31 C26 1_555 1_555
H21 C31 1_555 1_555
C32 C13 1_555 1_555
C33 C32 1_555 1_555
H22 C33 1_555 1_555
C34 C33 1_555 1_555
H23 C34 1_555 1_555
C35 C34 1_555 1_555
H24 C35 1_555 1_555
C36 C35 1_555 1_555
H25 C36 1_555 1_555
C37 C32 1_555 1_555
H26 C37 1_555 1_555
O5 C39 1_555 1_555
O6 C39 1_555 1_555
C38 H27 1_555 1_555
H28 C38 1_555 1_555
H29 C38 1_555 1_555
C39 C38 1_555 1_555
C40 O6 1_555 1_555
H30 C40 1_555 1_555
H31 C40 1_555 1_555
C41 C40 1_555 1_555
H32 C41 1_555 1_555
H33 C41 1_555 1_555
H34 C41 1_555 1_555
C6 C7 1_555 1_555
C7 C8 1_555 1_555
C9 C10 1_555 1_555
C9 C13 1_555 1_555
C12 C13 1_555 1_555
C18 C19 1_555 1_555
C24 C25 1_555 1_555
C30 C31 1_555 1_555
C36 C37 1_555 1_555

#END
