
#######################################################################
#
#                 Cambridge Crystallographic Data Centre
#                                CCDC 
#
#######################################################################
#
# If this CIF has been generated from an entry in the Cambridge 
# Structural Database, then it will include bibliographic, chemical, 
# crystal, experimental, refinement or atomic coordinate data resulting 
# from the CCDC's data processing and validation procedures.
#
#######################################################################

data_QADKOV
_chemical_formula_moiety         'C21 H32 O3'
_chemical_name_systematic        (15\a,20R)-Dihydroxypregn-4-en-3-one
_symmetry_cell_setting           orthorhombic
_symmetry_space_group_name_H-M   'P 21 21 21'
_symmetry_Int_Tables_number      19
_space_group_name_Hall           'P 2ac 2ab'
loop_
_symmetry_equiv_pos_site_id
_symmetry_equiv_pos_as_xyz
1 x,y,z
2 1/2-x,-y,1/2+z
3 1/2+x,1/2-y,-z
4 -x,1/2+y,1/2-z
_cell_length_a                   7.938(1)
_cell_length_b                   12.365(1)
_cell_length_c                   18.413(2)
_cell_angle_alpha                90
_cell_angle_beta                 90
_cell_angle_gamma                90
_cell_volume                     1807.3
_exptl_crystal_colour            colorless
_exptl_crystal_description       prism
_chemical_melting_point          229.5-231deg.C
_cell_formula_units_Z            4
_exptl_crystal_recrystallization_method chloroform/hexane
loop_
_atom_site_label
_atom_site_type_symbol
_atom_site_fract_x
_atom_site_fract_y
_atom_site_fract_z
O1 O -0.5124(4) 0.2796(3) 0.7092(2)
O2 O 0.2041(4) 0.3562(3) 0.6207(2)
O3 O 0.2010(5) -0.2215(3) 0.3326(2)
C1 C -0.0895(6) -0.1205(4) 0.4665(3)
C2 C -0.0116(7) -0.2141(4) 0.4229(3)
C3 C 0.1518(6) -0.1815(4) 0.3892(2)
C4 C 0.2523(6) -0.1035(4) 0.4289(3)
C5 C 0.2021(6) -0.0534(4) 0.4901(2)
C6 C 0.3204(6) 0.0196(4) 0.5305(3)
C7 C 0.2397(5) 0.1256(4) 0.5546(2)
C8 C 0.0766(5) 0.1059(3) 0.5968(2)
C9 C -0.0446(5) 0.0375(3) 0.5499(2)
C10 C 0.0298(5) -0.0715(3) 0.5232(2)
C11 C -0.2180(5) 0.0235(4) 0.5864(3)
C12 C -0.2963(5) 0.1306(4) 0.6110(2)
C13 C -0.1772(5) 0.1955(3) 0.6591(2)
C14 C -0.0110(5) 0.2116(3) 0.6172(2)
C15 C 0.0840(5) 0.2963(4) 0.6621(2)
C16 C -0.0572(6) 0.3694(4) 0.6909(2)
C17 C -0.2271(5) 0.3149(3) 0.6723(2)
C18 C -0.1513(6) 0.1372(4) 0.7326(2)
C19 C 0.0545(7) -0.1517(4) 0.5876(3)
C20 C -0.3623(6) 0.3372(4) 0.7293(2)
C21 C -0.4039(7) 0.4568(4) 0.7374(3)
H1 H -0.187 -0.147 0.491
H2 H -0.121 -0.065 0.433
H3 H -0.087 -0.235 0.386
H4 H 0.008 -0.273 0.455
H5 H 0.361 -0.087 0.410
H6 H 0.413 0.036 0.500
H7 H 0.360 -0.017 0.572
H8 H 0.215 0.168 0.513
H9 H 0.317 0.164 0.585
H10 H 0.106 0.069 0.640
H11 H -0.061 0.079 0.507
H12 H -0.204 -0.022 0.628
H13 H -0.292 -0.010 0.553
H14 H -0.397 0.116 0.637
H15 H -0.323 0.173 0.569
H16 H -0.025 0.238 0.569
H17 H 0.151 0.265 0.699
H18 H -0.051 0.438 0.669
H19 H -0.047 0.376 0.742
H20 H -0.283 0.344 0.631
H21 H -0.077 0.179 0.762
H22 H -0.257 0.131 0.757
H23 H -0.105 0.068 0.725
H24 H 0.100 -0.218 0.570
H25 H 0.130 -0.121 0.622
H26 H -0.051 -0.166 0.610
H27 H -0.306 0.495 0.751
H28 H -0.444 0.483 0.692
H29 H -0.489 0.466 0.774
H30 H -0.319 0.311 0.776
H31 H -0.584 0.277 0.750
H32 H 0.332 0.332 0.648
loop_
_geom_bond_atom_site_label_1
_geom_bond_atom_site_label_2
_geom_bond_site_symmetry_1
_geom_bond_site_symmetry_2
O1 C20 1_555 1_555
O2 C15 1_555 1_555
O3 C3 1_555 1_555
C1 C2 1_555 1_555
C2 C3 1_555 1_555
C3 C4 1_555 1_555
C4 C5 1_555 1_555
C5 C6 1_555 1_555
C6 C7 1_555 1_555
C7 C8 1_555 1_555
C8 C9 1_555 1_555
C9 C10 1_555 1_555
C10 C1 1_555 1_555
C11 C9 1_555 1_555
C12 C11 1_555 1_555
C13 C12 1_555 1_555
C14 C8 1_555 1_555
C15 C14 1_555 1_555
C16 C15 1_555 1_555
C17 C13 1_555 1_555
C18 C13 1_555 1_555
C19 C10 1_555 1_555
C20 C17 1_555 1_555
C21 C20 1_555 1_555
H1 C1 1_555 1_555
H2 C1 1_555 1_555
H3 C2 1_555 1_555
H4 C2 1_555 1_555
H5 C4 1_555 1_555
H6 C6 1_555 1_555
H7 C6 1_555 1_555
H8 C7 1_555 1_555
H9 C7 1_555 1_555
H10 C8 1_555 1_555
H11 C9 1_555 1_555
H12 C11 1_555 1_555
H13 C11 1_555 1_555
H14 C12 1_555 1_555
H15 C12 1_555 1_555
H16 C14 1_555 1_555
H17 C15 1_555 1_555
H18 C16 1_555 1_555
H19 C16 1_555 1_555
H20 C17 1_555 1_555
H21 C18 1_555 1_555
H22 C18 1_555 1_555
H23 C18 1_555 1_555
H24 C19 1_555 1_555
H25 C19 1_555 1_555
H26 C19 1_555 1_555
H27 C21 1_555 1_555
H28 C21 1_555 1_555
H29 C21 1_555 1_555
H30 C20 1_555 1_555
H31 O1 1_555 1_555
H32 O2 1_555 1_555
C5 C10 1_555 1_555
C13 C14 1_555 1_555
C16 C17 1_555 1_555

#END
