
#######################################################################
#
#                 Cambridge Crystallographic Data Centre
#                                CCDC 
#
#######################################################################
#
# If this CIF has been generated from an entry in the Cambridge 
# Structural Database, then it will include bibliographic, chemical, 
# crystal, experimental, refinement or atomic coordinate data resulting 
# from the CCDC's data processing and validation procedures.
#
#######################################################################

data_QADQET
_chemical_formula_moiety         'C36 H31 N5 S2'
_chemical_name_systematic        
(5-(2-(5-(2-(5'-Methyl-2,2'-bipyridin-5-yl)vinyl)-2-thienyl)vinyl)-2-thienylmethyl)bis(pyridin-2-ylmethyl)amine
_symmetry_cell_setting           triclinic
_symmetry_space_group_name_H-M   'P -1'
_symmetry_Int_Tables_number      2
_space_group_name_Hall           '-P 1'
loop_
_symmetry_equiv_pos_site_id
_symmetry_equiv_pos_as_xyz
1 x,y,z
2 -x,-y,-z
_cell_length_a                   6.2947(10)
_cell_length_b                   9.8820(12)
_cell_length_c                   25.1671(19)
_cell_angle_alpha                86.318(5)
_cell_angle_beta                 83.519(6)
_cell_angle_gamma                81.658(7)
_cell_volume                     1537.21
_exptl_crystal_colour            colorless
_exptl_crystal_description       irregular
_cell_formula_units_Z            2
_exptl_crystal_recrystallization_method dichloromethane/hexanes
loop_
_atom_site_label
_atom_site_type_symbol
_atom_site_fract_x
_atom_site_fract_y
_atom_site_fract_z
S1 S 0.4606(3) 0.44977(19) 0.31963(7)
S2 S 0.9619(3) 0.87297(18) 0.22408(7)
C1 C -0.7943(11) -0.4482(7) 0.5561(3)
H1 H -0.9298 -0.4586 0.5421
H2 H -0.8257 -0.4136 0.5922
H3 H -0.7028 -0.5372 0.5575
C2 C -0.6773(13) -0.3473(6) 0.5196(3)
C3 C -0.7444(11) -0.2992(8) 0.4713(4)
H4 H -0.8683 -0.3285 0.4599
C4 C -0.6352(13) -0.2089(8) 0.4391(3)
H5 H -0.6816 -0.1770 0.4053
C5 C -0.4559(12) -0.1646(7) 0.4564(3)
C6 C -0.4940(14) -0.3006(8) 0.5329(3)
H6 H -0.4410 -0.3352 0.5657
C7 C -0.3356(12) -0.0642(7) 0.4246(3)
C8 C -0.3074(14) 0.0746(8) 0.3483(3)
H7 H -0.3633 0.1094 0.3159
C9 C -0.1234(12) 0.1223(7) 0.3608(3)
C10 C -0.0481(11) 0.0722(8) 0.4086(4)
H8 H 0.0765 0.1022 0.4194
C11 C -0.1529(12) -0.0216(7) 0.4410(3)
H9 H -0.1008 -0.0565 0.4738
C12 C -0.0160(13) 0.2226(7) 0.3253(3)
H10 H -0.0780 0.2503 0.2929
C13 C 0.1553(13) 0.2785(8) 0.3330(3)
H11 H 0.2206 0.2494 0.3648
C14 C 0.2545(10) 0.3791(7) 0.2983(3)
C15 C 0.2131(11) 0.4322(7) 0.2476(3)
H12 H 0.1054 0.4054 0.2285
C16 C 0.3461(12) 0.5289(7) 0.2275(3)
H13 H 0.3353 0.5759 0.1936
C17 C 0.4933(11) 0.5503(7) 0.2610(3)
C18 C 0.6487(11) 0.6445(7) 0.2538(3)
H14 H 0.6625 0.6917 0.2197
C19 C 0.7762(12) 0.6736(7) 0.2892(3)
H15 H 0.7626 0.6269 0.3234
C20 C 0.9325(12) 0.7684(7) 0.2813(3)
C21 C 1.0785(12) 0.7855(7) 0.3151(3)
H16 H 1.0858 0.7385 0.3491
C22 C 1.2211(11) 0.8820(7) 0.2942(3)
H17 H 1.3327 0.9052 0.3129
C23 C 1.1793(10) 0.9359(7) 0.2453(3)
C24 C 1.2841(11) 1.0409(7) 0.2114(3)
H18 H 1.2073 1.1328 0.2200
H19 H 1.4349 1.0365 0.2198
C25 C 1.3473(11) 1.1411(7) 0.1216(3)
H20 H 1.3823 1.1151 0.0840
H21 H 1.4802 1.1655 0.1339
C26 C 1.1774(12) 1.2658(8) 0.1235(3)
C27 C 0.9625(13) 1.2585(8) 0.1386(3)
H22 H 0.9158 1.1735 0.1506
C28 C 0.8139(13) 1.3774(11) 0.1363(3)
H23 H 0.6639 1.3756 0.1456
C29 C 0.8945(17) 1.4988(8) 0.1196(3)
H24 H 0.7997 1.5825 0.1175
C30 C 1.1086(18) 1.4962(9) 0.1063(3)
H25 H 1.1599 1.5802 0.0948
C31 C 1.4243(10) 0.8976(7) 0.1374(3)
H26 H 1.4103 0.8248 0.1660
H27 H 1.5762 0.9155 0.1332
C32 C 1.3749(13) 0.8470(7) 0.0863(3)
C33 C 1.1755(13) 0.8761(8) 0.0672(3)
H28 H 1.0627 0.9358 0.0854
C34 C 1.1423(16) 0.8164(10) 0.0206(4)
H29 H 1.0064 0.8348 0.0066
C35 C 1.309(2) 0.7308(9) -0.0047(4)
H30 H 1.2925 0.6898 -0.0369
C36 C 1.5002(18) 0.7062(9) 0.0178(5)
H31 H 1.6147 0.6458 0.0006
N1 N -0.3863(9) -0.2112(6) 0.5034(3)
N2 N -0.4123(9) -0.0161(7) 0.3782(3)
N3 N 1.2846(8) 1.0224(5) 0.1542(2)
N4 N 1.2521(10) 1.3844(7) 0.1084(2)
N5 N 1.5357(10) 0.7609(7) 0.0619(3)
loop_
_geom_bond_atom_site_label_1
_geom_bond_atom_site_label_2
_geom_bond_site_symmetry_1
_geom_bond_site_symmetry_2
S1 C14 1_555 1_555
S2 C20 1_555 1_555
C1 H1 1_555 1_555
H2 C1 1_555 1_555
H3 C1 1_555 1_555
C2 C1 1_555 1_555
C3 C2 1_555 1_555
H4 C3 1_555 1_555
C4 C3 1_555 1_555
H5 C4 1_555 1_555
C5 C4 1_555 1_555
C6 C2 1_555 1_555
H6 C6 1_555 1_555
C7 C5 1_555 1_555
C8 H7 1_555 1_555
C9 C8 1_555 1_555
C10 C9 1_555 1_555
H8 C10 1_555 1_555
C11 C7 1_555 1_555
H9 C11 1_555 1_555
C12 C9 1_555 1_555
H10 C12 1_555 1_555
C13 C12 1_555 1_555
H11 C13 1_555 1_555
C14 C13 1_555 1_555
C15 C14 1_555 1_555
H12 C15 1_555 1_555
C16 C15 1_555 1_555
H13 C16 1_555 1_555
C17 S1 1_555 1_555
C18 C17 1_555 1_555
H14 C18 1_555 1_555
C19 C18 1_555 1_555
H15 C19 1_555 1_555
C20 C19 1_555 1_555
C21 C20 1_555 1_555
H16 C21 1_555 1_555
C22 C21 1_555 1_555
H17 C22 1_555 1_555
C23 S2 1_555 1_555
C24 C23 1_555 1_555
H18 C24 1_555 1_555
H19 C24 1_555 1_555
C25 H20 1_555 1_555
H21 C25 1_555 1_555
C26 C25 1_555 1_555
C27 C26 1_555 1_555
H22 C27 1_555 1_555
C28 C27 1_555 1_555
H23 C28 1_555 1_555
C29 C28 1_555 1_555
H24 C29 1_555 1_555
C30 C29 1_555 1_555
H25 C30 1_555 1_555
C31 H26 1_555 1_555
H27 C31 1_555 1_555
C32 C31 1_555 1_555
C33 C32 1_555 1_555
H28 C33 1_555 1_555
C34 C33 1_555 1_555
H29 C34 1_555 1_555
C35 C34 1_555 1_555
H30 C35 1_555 1_555
C36 C35 1_555 1_555
H31 C36 1_555 1_555
N1 C5 1_555 1_555
N2 C7 1_555 1_555
N3 C24 1_555 1_555
N4 C26 1_555 1_555
N5 C32 1_555 1_555
C6 N1 1_555 1_555
C8 N2 1_555 1_555
C10 C11 1_555 1_555
C16 C17 1_555 1_555
C22 C23 1_555 1_555
C25 N3 1_555 1_555
C30 N4 1_555 1_555
C31 N3 1_555 1_555
C36 N5 1_555 1_555

#END
