
#######################################################################
#
#                 Cambridge Crystallographic Data Centre
#                                CCDC 
#
#######################################################################
#
# If this CIF has been generated from an entry in the Cambridge 
# Structural Database, then it will include bibliographic, chemical, 
# crystal, experimental, refinement or atomic coordinate data resulting 
# from the CCDC's data processing and validation procedures.
#
#######################################################################

data_QADSEW
_chemical_formula_moiety         'C26 H27 Cl1 F1 N1 O8 S1'
_chemical_name_systematic        
'triethyl 3-(4-chlorophenyl)-5-fluoro-1-((4-methylphenyl)sulfonyl)-1,3-dihydro-2H-pyrrole-2,2,4-tricarboxylate'
_symmetry_cell_setting           monoclinic
_symmetry_space_group_name_H-M   'P 21/c'
_symmetry_Int_Tables_number      14
_space_group_name_Hall           '-P 2ybc'
loop_
_symmetry_equiv_pos_site_id
_symmetry_equiv_pos_as_xyz
1 x,y,z
2 -x,1/2+y,1/2-z
3 -x,-y,-z
4 x,1/2-y,1/2+z
_cell_length_a                   11.3397(13)
_cell_length_b                   20.295(2)
_cell_length_c                   13.4500(16)
_cell_angle_alpha                90
_cell_angle_beta                 114.440(4)
_cell_angle_gamma                90
_cell_volume                     2818.01
_exptl_crystal_colour            colorless
_exptl_crystal_description       block
_cell_formula_units_Z            4
_exptl_crystal_recrystallization_method dichloromethane/hexane
loop_
_atom_site_label
_atom_site_type_symbol
_atom_site_fract_x
_atom_site_fract_y
_atom_site_fract_z
S1 S 0.04644(8) 0.66029(4) 0.84157(7)
F1 F 0.07567(17) 0.53819(9) 0.73805(16)
Cl1 Cl -0.59095(16) 0.43150(9) 0.87231(16)
O1 O -0.1913(3) 0.71828(13) 0.6125(2)
O2 O -0.3800(2) 0.66738(13) 0.5548(2)
O3 O -0.2563(3) 0.42501(13) 0.5549(3)
O4 O -0.0412(2) 0.43000(11) 0.6246(2)
O5 O -0.3373(2) 0.67710(13) 0.7904(2)
O6 O -0.1754(2) 0.61022(11) 0.89353(17)
O7 O 0.1228(2) 0.61843(12) 0.92935(18)
O8 O -0.0225(2) 0.71418(11) 0.85969(19)
N1 N -0.0688(2) 0.61368(12) 0.7478(2)
C1 C 0.1418(3) 0.68744(16) 0.7752(3)
C2 C 0.2547(3) 0.65460(17) 0.7898(3)
H1 H 0.2829 0.6193 0.8381
C3 C 0.3246(4) 0.67409(19) 0.7331(3)
H2 H 0.4002 0.6517 0.7430
C4 C 0.2845(3) 0.72660(19) 0.6609(3)
C5 C 0.1746(4) 0.76027(19) 0.6508(3)
H3 H 0.1484 0.7967 0.6049
C6 C 0.1027(3) 0.74131(17) 0.7068(3)
H4 H 0.0285 0.7645 0.6987
C7 C -0.2105(3) 0.62211(14) 0.7096(2)
C8 C -0.2685(3) 0.55124(15) 0.6598(3)
H5 H -0.3247 0.5574 0.5822
C9 C -0.1489(3) 0.51450(15) 0.6675(3)
C10 C -0.0461(3) 0.55136(15) 0.7176(3)
C11 C -0.3478(3) 0.51861(15) 0.7123(3)
C12 C -0.2932(4) 0.47926(18) 0.8043(3)
H6 H -0.2049 0.4703 0.8331
C13 C -0.3672(4) 0.4532(2) 0.8539(3)
H7 H -0.3288 0.4277 0.9166
C14 C -0.4965(5) 0.4649(2) 0.8105(4)
C15 C -0.5550(4) 0.5021(2) 0.7185(4)
H8 H -0.6439 0.5095 0.6895
C16 C -0.4804(3) 0.52885(18) 0.6686(3)
H9 H -0.5198 0.5539 0.6055
C17 C -0.2576(3) 0.67569(16) 0.6212(3)
C18 C -0.4328(4) 0.71080(19) 0.4612(3)
H10 H -0.3644 0.7358 0.4531
H11 H -0.4945 0.7413 0.4686
C19 C -0.4988(10) 0.6655(3) 0.3641(4)
H12 H -0.5355 0.6912 0.2985
H13 H -0.5663 0.6413 0.3735
H14 H -0.4365 0.6353 0.3590
C20 C -0.1571(4) 0.45204(17) 0.6103(3)
C21 C -0.0358(5) 0.3716(2) 0.5641(4)
H15 H -0.0595 0.3331 0.5943
H16 H -0.0964 0.3759 0.4882
C22 C 0.0920(6) 0.3645(3) 0.5713(6)
H17 H 0.0960 0.3266 0.5300
H18 H 0.1511 0.3588 0.6464
H19 H 0.1155 0.4031 0.5425
C23 C -0.2489(3) 0.64130(16) 0.8021(3)
C24 C -0.2016(4) 0.6237(2) 0.9887(3)
H20 H -0.2888 0.6101 0.9755
H21 H -0.1929 0.6704 1.0054
C25 C -0.1047(5) 0.5853(3) 1.0807(3)
H22 H -0.1190 0.5922 1.1455
H23 H -0.0190 0.5997 1.0934
H24 H -0.1135 0.5393 1.0625
C26 C 0.3579(4) 0.7456(3) 0.5941(4)
H25 H 0.3176 0.7833 0.5500
H26 H 0.3570 0.7095 0.5476
H27 H 0.4458 0.7561 0.6419
loop_
_geom_bond_atom_site_label_1
_geom_bond_atom_site_label_2
_geom_bond_site_symmetry_1
_geom_bond_site_symmetry_2
S1 O7 1_555 1_555
F1 C10 1_555 1_555
Cl1 C14 1_555 1_555
O1 C17 1_555 1_555
O2 C17 1_555 1_555
O3 C20 1_555 1_555
O4 C20 1_555 1_555
O5 C23 1_555 1_555
O6 C23 1_555 1_555
O8 S1 1_555 1_555
N1 S1 1_555 1_555
C1 S1 1_555 1_555
C2 C1 1_555 1_555
H1 C2 1_555 1_555
C3 C2 1_555 1_555
H2 C3 1_555 1_555
C4 C3 1_555 1_555
C5 C4 1_555 1_555
H3 C5 1_555 1_555
C6 C1 1_555 1_555
H4 C6 1_555 1_555
C7 N1 1_555 1_555
C8 C7 1_555 1_555
H5 C8 1_555 1_555
C9 C8 1_555 1_555
C10 N1 1_555 1_555
C11 C8 1_555 1_555
C12 C11 1_555 1_555
H6 C12 1_555 1_555
C13 C12 1_555 1_555
H7 C13 1_555 1_555
C14 C13 1_555 1_555
C15 C14 1_555 1_555
H8 C15 1_555 1_555
C16 C11 1_555 1_555
H9 C16 1_555 1_555
C17 C7 1_555 1_555
C18 O2 1_555 1_555
H10 C18 1_555 1_555
H11 C18 1_555 1_555
C19 C18 1_555 1_555
H12 C19 1_555 1_555
H13 C19 1_555 1_555
H14 C19 1_555 1_555
C20 C9 1_555 1_555
C21 O4 1_555 1_555
H15 C21 1_555 1_555
H16 C21 1_555 1_555
C22 C21 1_555 1_555
H17 C22 1_555 1_555
H18 C22 1_555 1_555
H19 C22 1_555 1_555
C23 C7 1_555 1_555
C24 O6 1_555 1_555
H20 C24 1_555 1_555
H21 C24 1_555 1_555
C25 C24 1_555 1_555
H22 C25 1_555 1_555
H23 C25 1_555 1_555
H24 C25 1_555 1_555
C26 C4 1_555 1_555
H25 C26 1_555 1_555
H26 C26 1_555 1_555
H27 C26 1_555 1_555
C5 C6 1_555 1_555
C9 C10 1_555 1_555
C15 C16 1_555 1_555

#END
