
#######################################################################
#
#                 Cambridge Crystallographic Data Centre
#                                CCDC 
#
#######################################################################
#
# If this CIF has been generated from an entry in the Cambridge 
# Structural Database, then it will include bibliographic, chemical, 
# crystal, experimental, refinement or atomic coordinate data resulting 
# from the CCDC's data processing and validation procedures.
#
#######################################################################

data_QADYEC
_chemical_formula_moiety         'C16 H14 O3'
_chemical_name_systematic        '1-oxo-1-phenylpropan-2-yl benzoate'
_symmetry_cell_setting           monoclinic
_symmetry_space_group_name_H-M   'P 21/n'
_symmetry_Int_Tables_number      14
_space_group_name_Hall           '-P 2yn'
loop_
_symmetry_equiv_pos_site_id
_symmetry_equiv_pos_as_xyz
1 x,y,z
2 1/2-x,1/2+y,1/2-z
3 -x,-y,-z
4 1/2+x,1/2-y,1/2+z
_cell_length_a                   9.6276(13)
_cell_length_b                   9.6187(13)
_cell_length_c                   14.414(2)
_cell_angle_alpha                90
_cell_angle_beta                 98.581(2)
_cell_angle_gamma                90
_cell_volume                     1319.87
_exptl_crystal_colour            white
_exptl_crystal_description       block
_cell_formula_units_Z            4
loop_
_atom_site_label
_atom_site_type_symbol
_atom_site_fract_x
_atom_site_fract_y
_atom_site_fract_z
O1 O 0.88801(12) 0.62052(14) 0.23695(8)
C1 C 0.7189(2) 0.6749(2) -0.10719(12)
H1 H 0.7073 0.6891 -0.1717
C2 C 0.8518(2) 0.6680(2) -0.05663(12)
H2 H 0.9300 0.6770 -0.0871
O2 O 0.66964(14) 0.78350(13) 0.33773(8)
C3 C 0.86918(18) 0.64759(19) 0.03942(12)
H3 H 0.9590 0.6439 0.0736
C4 C 0.75359(16) 0.63288(16) 0.08430(10)
C5 C 0.62045(16) 0.63925(17) 0.03308(10)
H4 H 0.5421 0.6289 0.0632
C6 C 0.60349(19) 0.6609(2) -0.06256(11)
H5 H 0.5137 0.6659 -0.0968
C7 C 0.77677(17) 0.60752(17) 0.18705(10)
C8 C 0.67344(18) 0.53874(17) 0.31782(10)
H6 H 0.7510 0.4735 0.3355
C9 C 0.5367(2) 0.4733(2) 0.33440(12)
H7 H 0.5216 0.3890 0.2987
H8 H 0.4608 0.5367 0.3151
H9 H 0.5408 0.4527 0.3999
C10 C 0.70006(16) 0.67194(17) 0.37413(10)
C11 C 0.75591(15) 0.66128(17) 0.47595(10)
C12 C 0.74544(17) 0.77645(19) 0.53209(11)
H10 H 0.7020 0.8568 0.5062
C13 C 0.7991(2) 0.7726(2) 0.62642(12)
H11 H 0.7894 0.8494 0.6642
C14 C 0.8669(2) 0.6557(2) 0.66457(12)
H12 H 0.9062 0.6546 0.7276
C15 C 0.8768(2) 0.5412(2) 0.61020(12)
H13 H 0.9214 0.4616 0.6364
C16 C 0.82075(19) 0.54311(19) 0.51631(11)
H14 H 0.8266 0.4642 0.4798
O3 O 0.65891(11) 0.56823(12) 0.21895(6)
loop_
_geom_bond_atom_site_label_1
_geom_bond_atom_site_label_2
_geom_bond_site_symmetry_1
_geom_bond_site_symmetry_2
O1 C7 1_555 1_555
C1 H1 1_555 1_555
C2 C1 1_555 1_555
H2 C2 1_555 1_555
O2 C10 1_555 1_555
C3 C2 1_555 1_555
H3 C3 1_555 1_555
C4 C3 1_555 1_555
C5 C4 1_555 1_555
H4 C5 1_555 1_555
C6 C1 1_555 1_555
H5 C6 1_555 1_555
C7 C4 1_555 1_555
C8 H6 1_555 1_555
C9 C8 1_555 1_555
H7 C9 1_555 1_555
H8 C9 1_555 1_555
H9 C9 1_555 1_555
C10 C8 1_555 1_555
C11 C10 1_555 1_555
C12 C11 1_555 1_555
H10 C12 1_555 1_555
C13 C12 1_555 1_555
H11 C13 1_555 1_555
C14 C13 1_555 1_555
H12 C14 1_555 1_555
C15 C14 1_555 1_555
H13 C15 1_555 1_555
C16 C11 1_555 1_555
H14 C16 1_555 1_555
O3 C7 1_555 1_555
C5 C6 1_555 1_555
C8 O3 1_555 1_555
C15 C16 1_555 1_555

#END
