
#######################################################################
#
#                 Cambridge Crystallographic Data Centre
#                                CCDC 
#
#######################################################################
#
# If this CIF has been generated from an entry in the Cambridge 
# Structural Database, then it will include bibliographic, chemical, 
# crystal, experimental, refinement or atomic coordinate data resulting 
# from the CCDC's data processing and validation procedures.
#
#######################################################################

data_QAFBIK
_chemical_name_common            
'(2,3-Dichloro-6-(2,6-dimethyl-4-((3-methyl-4,5-dihydro-1H-benzo[g]indol-2-yl-kappaN)(3-methyl-4,5-dihydro-2H-benzo[g]indol-2-ylidene-kappaN)methyl)phenyl)-5H-pyrrolo[3,4-b]pyrazine-5,7(6H)-dionato)(difluoro)boron dichloromethane solvate'
_chemical_formula_moiety         'C41 H30 B1 Cl2 F2 N5 O2,0.5(C1 H2 Cl2)'
_chemical_name_systematic        
"2,3-Dichloro-6-(4-(17,17-difluoro-7,9-dimethyl-5,10,11,17-tetrahydro-6H-18\l^5^,17\l^5^-benzo[g]benzo[6',7']indolo[1',2':3,4][1,3,2]diazaborinino[1,6-a]indol-8-yl)-2,6-dimethylphenyl)-5H-pyrrolo[3,4-b]pyrazine-5,7(6H)-dione dichloromethane solvate"
_symmetry_cell_setting           triclinic
_symmetry_space_group_name_H-M   'P -1'
_symmetry_Int_Tables_number      2
_space_group_name_Hall           '-P 1'
loop_
_symmetry_equiv_pos_site_id
_symmetry_equiv_pos_as_xyz
1 x,y,z
2 -x,-y,-z
_cell_length_a                   7.9206(1)
_cell_length_b                   12.1909(2)
_cell_length_c                   20.3353(4)
_cell_angle_alpha                102.6460(8)
_cell_angle_beta                 96.7771(9)
_cell_angle_gamma                107.0610(9)
_cell_volume                     1796.32
_exptl_crystal_colour            red-brown
_exptl_crystal_description       cube
_chemical_melting_point          '310-320 deg.C (dec.)'
_cell_formula_units_Z            2
_exptl_crystal_recrystallization_method dichloromethane
loop_
_atom_site_label
_atom_site_type_symbol
_atom_site_fract_x
_atom_site_fract_y
_atom_site_fract_z
Cl3 Cl 0.4171(3) -0.11263(13) -0.05125(8)
C42 C 0.5904(13) -0.0189(9) 0.0083(6)
H1 H 0.7061 -0.0013 -0.0160
H2 H 0.6166 -0.0652 0.0459
Cl3A Cl 0.5829(3) 0.11263(13) 0.05125(8)
C42A C 0.4096(13) 0.0189(9) -0.0083(6)
H1A H 0.2939 0.0013 0.0160
H2A H 0.3834 0.0652 -0.0459
Cl1 Cl 1.44161(9) 1.04109(6) 0.30901(4)
Cl2 Cl 1.40825(11) 0.93074(7) 0.15112(4)
F1 F 0.9135(2) -0.30434(13) 0.26808(7)
F2 F 0.62217(19) -0.31207(14) 0.26022(7)
O1 O 1.2272(2) 0.61327(16) 0.38319(9)
O2 O 1.1374(3) 0.45224(17) 0.15051(10)
B1 B 0.7975(4) -0.2382(2) 0.26698(14)
N1 N 0.8377(3) -0.13726(18) 0.33458(10)
N2 N 0.8230(3) -0.17985(18) 0.20656(10)
N3 N 1.1582(3) 0.50433(18) 0.26877(10)
N4 N 1.3361(3) 0.82416(18) 0.31960(11)
N5 N 1.2856(3) 0.72373(19) 0.17486(11)
C1 C 0.7913(3) -0.1519(2) 0.39570(12)
C2 C 0.7666(3) -0.2549(2) 0.42295(12)
C3 C 0.8461(3) -0.3426(2) 0.40439(13)
C4 C 0.8338(4) -0.4305(2) 0.43915(14)
C5 C 0.7376(4) -0.4328(2) 0.49207(13)
C6 C 0.6569(4) -0.3469(2) 0.51021(13)
C7 C 0.6720(3) -0.2565(2) 0.47790(13)
C8 C 0.5921(4) -0.1591(2) 0.49936(14)
C9 C 0.7267(3) -0.0372(2) 0.50360(13)
C10 C 0.7861(3) -0.0422(2) 0.43595(12)
C11 C 0.8382(3) 0.0423(2) 0.40054(12)
C12 C 0.8686(3) -0.0170(2) 0.33663(12)
C13 C 0.9089(3) 0.0229(2) 0.27888(13)
C14 C 0.8960(3) -0.0561(2) 0.21608(13)
C15 C 0.9467(4) -0.0351(2) 0.15325(13)
C16 C 0.9040(4) -0.1458(2) 0.10779(13)
C17 C 0.9290(4) -0.1799(3) 0.03500(14)
C18 C 0.9706(4) -0.2968(3) 0.02286(14)
C19 C 0.8319(3) -0.3906(2) 0.04369(13)
C20 C 0.7684(4) -0.5077(2) 0.00369(14)
C21 C 0.6373(4) -0.5946(2) 0.02090(15)
C22 C 0.5682(4) -0.5645(2) 0.07894(14)
C23 C 0.6299(4) -0.4486(2) 0.12034(13)
C24 C 0.7629(3) -0.3604(2) 0.10361(12)
C25 C 0.8274(3) -0.2342(2) 0.14049(12)
C26 C 0.8572(4) 0.1715(2) 0.42616(14)
C27 C 1.0370(5) 0.0805(3) 0.13790(15)
C28 C 0.9685(3) 0.1529(2) 0.28339(12)
C29 C 1.1475(3) 0.2220(2) 0.30994(12)
C30 C 1.2149(3) 0.3393(2) 0.30552(12)
C31 C 1.0915(3) 0.3860(2) 0.27677(12)
C32 C 0.9090(3) 0.3214(2) 0.25278(13)
C33 C 0.8505(4) 0.2028(2) 0.25524(13)
C34 C 1.4114(4) 0.4106(3) 0.32834(16)
C35 C 0.7803(4) 0.3744(3) 0.22191(18)
C36 C 1.2215(3) 0.6091(2) 0.32349(12)
C37 C 1.2751(3) 0.7074(2) 0.28950(13)
C38 C 1.3703(3) 0.8890(2) 0.27543(14)
C39 C 1.3491(3) 0.8397(2) 0.20403(14)
C40 C 1.2486(3) 0.6594(2) 0.21990(13)
C41 C 1.1743(3) 0.5269(2) 0.20429(13)
H3 H 0.918(4) -0.340(2) 0.3674(14)
H4 H 0.890(4) -0.492(3) 0.4219(15)
H5 H 0.721(4) -0.498(3) 0.5150(17)
H6 H 0.591(4) -0.354(3) 0.5449(16)
H7 H 0.479(4) -0.170(2) 0.4654(14)
H8 H 0.563(4) -0.158(3) 0.5437(18)
H9 H 0.826(4) -0.021(3) 0.5392(17)
H10 H 0.670(4) 0.028(3) 0.5150(16)
H11 H 0.816(4) -0.198(2) 0.0025(15)
H12 H 1.020(4) -0.120(3) 0.0266(16)
H13 H 0.981(5) -0.320(3) -0.022(2)
H14 H 1.091(4) -0.283(3) 0.0501(17)
H15 H 0.807(5) -0.532(3) -0.0391(19)
H16 H 0.592(4) -0.677(3) -0.0119(16)
H17 H 0.474(5) -0.617(3) 0.0874(17)
H18 H 0.574(4) -0.429(2) 0.1579(15)
H19 H 0.815(4) 0.186(3) 0.4709(16)
H20 H 0.979(5) 0.219(3) 0.4320(17)
H21 H 0.788(5) 0.199(3) 0.393(2)
H22 H 1.063(4) 0.059(3) 0.0939(19)
H23 H 1.150(5) 0.126(3) 0.174(2)
H24 H 0.958(6) 0.124(4) 0.133(2)
H25 H 1.237(4) 0.188(3) 0.3311(17)
H26 H 0.725(4) 0.157(3) 0.2381(15)
H27 H 1.439(4) 0.473(3) 0.3691(19)
H28 H 1.447(4) 0.435(3) 0.2925(18)
H29 H 1.481(5) 0.359(3) 0.3358(17)
H30 H 0.659(4) 0.324(3) 0.2165(15)
H31 H 0.797(5) 0.450(4) 0.251(2)
H32 H 0.807(5) 0.378(3) 0.178(2)
loop_
_geom_bond_atom_site_label_1
_geom_bond_atom_site_label_2
_geom_bond_site_symmetry_1
_geom_bond_site_symmetry_2
Cl1 C38 1_555 1_555
Cl2 C39 1_555 1_555
F1 B1 1_555 1_555
F2 B1 1_555 1_555
O1 C36 1_555 1_555
O2 C41 1_555 1_555
B1 N1 1_555 1_555
N1 C1 1_555 1_555
N2 B1 1_555 1_555
N3 C31 1_555 1_555
N4 C37 1_555 1_555
N5 C39 1_555 1_555
C1 C2 1_555 1_555
C2 C3 1_555 1_555
C3 C4 1_555 1_555
C4 C5 1_555 1_555
C5 C6 1_555 1_555
C6 C7 1_555 1_555
C7 C2 1_555 1_555
C8 C7 1_555 1_555
C9 C8 1_555 1_555
C10 C1 1_555 1_555
C11 C10 1_555 1_555
C12 N1 1_555 1_555
C13 C12 1_555 1_555
C14 N2 1_555 1_555
C15 C14 1_555 1_555
C16 C15 1_555 1_555
C17 C16 1_555 1_555
C18 C17 1_555 1_555
C19 C18 1_555 1_555
C20 C19 1_555 1_555
C21 C20 1_555 1_555
C22 C21 1_555 1_555
C23 C22 1_555 1_555
C24 C19 1_555 1_555
C25 N2 1_555 1_555
C26 C11 1_555 1_555
C27 C15 1_555 1_555
C28 C13 1_555 1_555
C29 C28 1_555 1_555
C30 C29 1_555 1_555
C31 C30 1_555 1_555
C32 C31 1_555 1_555
C33 C28 1_555 1_555
C34 C30 1_555 1_555
C35 C32 1_555 1_555
C36 N3 1_555 1_555
C37 C36 1_555 1_555
C38 N4 1_555 1_555
C39 C38 1_555 1_555
C40 N5 1_555 1_555
C41 N3 1_555 1_555
Cl3 C42 1_555 1_555
C42 H1 1_555 1_555
H2 C42 1_555 1_555
H3 C3 1_555 1_555
H4 C4 1_555 1_555
H5 C5 1_555 1_555
H6 C6 1_555 1_555
H7 C8 1_555 1_555
H8 C8 1_555 1_555
H9 C9 1_555 1_555
H10 C9 1_555 1_555
H11 C17 1_555 1_555
H12 C17 1_555 1_555
H13 C18 1_555 1_555
H14 C18 1_555 1_555
H15 C20 1_555 1_555
H16 C21 1_555 1_555
H17 C22 1_555 1_555
H18 C23 1_555 1_555
H19 C26 1_555 1_555
H20 C26 1_555 1_555
H21 C26 1_555 1_555
H22 C27 1_555 1_555
H23 C27 1_555 1_555
H24 C27 1_555 1_555
H25 C29 1_555 1_555
H26 C33 1_555 1_555
H27 C34 1_555 1_555
H28 C34 1_555 1_555
H29 C34 1_555 1_555
H30 C35 1_555 1_555
H31 C35 1_555 1_555
H32 C35 1_555 1_555
Cl3A C42 1_555 1_555
C42A Cl3 1_555 1_555
H1A C42A 1_555 1_555
H2A C42A 1_555 1_555
C9 C10 1_555 1_555
C11 C12 1_555 1_555
C13 C14 1_555 1_555
C16 C25 1_555 1_555
C23 C24 1_555 1_555
C24 C25 1_555 1_555
C32 C33 1_555 1_555
C37 C40 1_555 1_555
C40 C41 1_555 1_555
C42 C42A 1_555 1_555
Cl3A C42A 1_555 1_555

#END
