
#######################################################################
#
#                 Cambridge Crystallographic Data Centre
#                                CCDC 
#
#######################################################################
#
# If this CIF has been generated from an entry in the Cambridge 
# Structural Database, then it will include bibliographic, chemical, 
# crystal, experimental, refinement or atomic coordinate data resulting 
# from the CCDC's data processing and validation procedures.
#
#######################################################################

data_QAFBAC
_chemical_name_common            
"2,8,14,20-Tetra-n-hexyl-4,24;12,16-O,O'-bis(quinoxaline-2,3-diyl)-6,10;18,22-O,O'-bis(6-(4-iodo-2,6-dimethylphenyl)-5,7-dioxo-5,6,7,7a-tetrahydro-4aH-pyrrolo[3,4-b]pyrazine-2,3-diyl)calix(4)resorcinarene cavitand acetone dichloromethane solvate"
_chemical_formula_moiety         'C96 H88 I2 N10 O12,4(C3 H6 O1),C1 H2 Cl2'
_chemical_name_systematic        
'2,8,14,20-Tetra-n-hexyl-4,24;12,16-bis(quinoxaline-2,3-diolato)-6,10;18,22-bis(6-(4-iodo-2,6-dimethylphenyl)-5,7-dioxo-5,6,7,7a-tetrahydro-4aH-pyrrolo[3,4-b]pyrazine-2,3-diolato)calix(4)arene acetone dichloromethane solvate'
_symmetry_cell_setting           monoclinic
_symmetry_space_group_name_H-M   'P 21/c'
_symmetry_Int_Tables_number      14
_space_group_name_Hall           '-P 2ybc'
loop_
_symmetry_equiv_pos_site_id
_symmetry_equiv_pos_as_xyz
1 x,y,z
2 -x,1/2+y,1/2-z
3 -x,-y,-z
4 x,1/2-y,1/2+z
_cell_length_a                   21.5466(6)
_cell_length_b                   25.6543(4)
_cell_length_c                   20.0679(5)
_cell_angle_alpha                90
_cell_angle_beta                 110.4544(10)
_cell_angle_gamma                90
_cell_volume                     10393.4
_exptl_crystal_colour            green-yellow
_exptl_crystal_description       cube
_cell_formula_units_Z            4
loop_
_atom_site_label
_atom_site_type_symbol
_atom_site_fract_x
_atom_site_fract_y
_atom_site_fract_z
I1 I 1.1229(2) -0.11306(13) 0.13286(13)
I2 I 1.00569(12) -0.25394(7) 0.44983(17)
O1 O 0.7960(4) 0.2193(3) 0.4502(4)
O2 O 0.8493(5) 0.0351(4) 0.0246(5)
O3 O 0.9970(6) 0.1411(3) 0.1875(6)
O4 O 0.7825(5) 0.2648(3) 0.1037(4)
O5 O 0.8367(4) 0.2706(2) 0.3554(4)
O6 O 0.7094(5) -0.1278(4) 0.3469(8)
O7 O 0.8556(7) -0.0191(3) 0.5020(6)
O8 O 0.5480(5) 0.0323(3) 0.3468(9)
O9 O 0.5492(5) 0.0626(5) 0.0073(7)
O10 O 0.6983(7) 0.2021(4) 0.0064(4)
N1 N 0.9357(5) 0.0794(3) 0.1064(5)
N2 N 0.7745(6) 0.1366(4) 0.0253(5)
N3 N 0.9072(5) 0.2041(3) 0.3541(5)
N4 N 0.7944(7) -0.0839(3) 0.4245(6)
N5 N 0.7229(8) 0.0346(4) 0.4615(6)
N6 N 0.8648(6) 0.2030(3) 0.1273(5)
N7 N 0.8631(6) 0.1482(4) 0.4498(5)
N8 N 0.6281(7) -0.0313(4) 0.3585(9)
N9 N 0.5955(9) -0.0440(7) 0.1422(14)
N10 N 0.6434(7) 0.0122(6) 0.0449(8)
C1 C 1.0704(9) -0.0410(5) 0.1335(8)
C2 C 1.0747(7) 0.0004(5) 0.0925(8)
C3 C 1.0323(7) 0.0424(4) 0.0862(6)
C4 C 0.9842(6) 0.0389(4) 0.1164(6)
C5 C 0.9804(6) -0.0039(4) 0.1592(6)
C6 C 1.0263(7) -0.0444(5) 0.1683(7)
C7 C 1.0325(10) 0.0895(5) 0.0388(10)
C8 C 0.9319(7) -0.0042(5) 0.1976(6)
C9 C 0.8727(8) 0.0743(5) 0.0599(7)
C10 C 0.8383(8) 0.1246(5) 0.0622(7)
C11 C 0.7594(8) 0.1834(6) 0.0409(6)
C12 C 0.8035(8) 0.2166(4) 0.0913(7)
C13 C 0.8801(7) 0.1551(4) 0.1103(6)
C14 C 0.9462(8) 0.1275(4) 0.1414(7)
C15 C 0.7603(8) 0.2662(4) 0.1636(6)
C16 C 0.8098(6) 0.2654(3) 0.2301(6)
C17 C 0.7868(6) 0.2704(3) 0.2877(5)
C18 C 0.7225(6) 0.2755(3) 0.2816(5)
C19 C 0.6747(6) 0.2747(4) 0.2115(5)
C20 C 0.6928(7) 0.2700(4) 0.1523(5)
C21 C 0.8645(6) 0.2216(4) 0.3774(6)
C22 C 0.9318(7) 0.1543(5) 0.3774(7)
C23 C 0.9805(8) 0.1327(6) 0.3522(9)
C24 C 1.0058(9) 0.0852(7) 0.3773(10)
C25 C 0.9852(10) 0.0569(6) 0.4227(12)
C26 C 0.9328(10) 0.0764(6) 0.4514(9)
C27 C 0.9101(8) 0.1280(5) 0.4271(8)
C28 C 0.8409(6) 0.1939(4) 0.4270(5)
C29 C 0.7293(5) 0.2011(4) 0.4217(6)
C30 C 0.6528(6) 0.1383(4) 0.4206(7)
C31 C 0.7167(6) 0.1542(4) 0.4472(6)
O11 O 0.6328(5) 0.0912(3) 0.4461(5)
C32 C 0.6833(5) 0.2312(3) 0.3727(5)
C33 C 0.6023(6) 0.1644(4) 0.3705(6)
C34 C 0.6179(5) 0.2128(3) 0.3439(5)
C35 C 0.7020(5) 0.2834(3) 0.3471(5)
C36 C 0.9399(10) -0.1929(8) 0.4414(14)
C37 C 0.9336(10) -0.1519(8) 0.3961(11)
C38 C 0.8814(8) -0.1132(5) 0.3891(8)
C39 C 0.8467(8) -0.1188(4) 0.4309(7)
C40 C 0.8562(11) -0.1617(7) 0.4791(10)
C41 C 0.9058(15) -0.1996(8) 0.4814(12)
C42 C 0.8693(12) -0.0665(7) 0.3377(11)
C43 C 0.8130(16) -0.1651(11) 0.5264(14)
C44 C 0.7308(8) -0.0904(5) 0.3847(10)
C45 C 0.6922(9) -0.0434(5) 0.3903(10)
C46 C 0.6119(9) 0.0138(4) 0.3776(11)
C47 C 0.6605(10) 0.0459(4) 0.4308(9)
C48 C 0.7396(8) -0.0124(5) 0.4411(8)
C49 C 0.8037(9) -0.0364(5) 0.4652(9)
C50 C 0.5335(9) 0.0561(7) 0.2811(10)
C51 C 0.5267(9) 0.0214(6) 0.2267(10)
C52 C 0.5129(7) 0.0410(5) 0.1720(8)
O12 O 0.5020(5) 0.0140(5) 0.1004(8)
C53 C 0.5594(13) -0.0073(11) 0.1056(16)
C54 C 0.6528(9) -0.0569(9) 0.1340(16)
C55 C 0.6884(9) -0.0978(7) 0.1755(14)
C56 C 0.7505(11) -0.1103(7) 0.1738(15)
C57 C 0.7758(8) -0.0842(7) 0.1288(11)
C58 C 0.7420(8) -0.0423(7) 0.0858(12)
C59 C 0.6776(8) -0.0296(8) 0.0904(13)
C60 C 0.5845(9) 0.0188(8) 0.0566(12)
C61 C 0.5713(9) 0.1141(8) 0.0252(9)
C62 C 0.6240(11) 0.1305(8) 0.0097(7)
C63 C 0.6442(10) 0.1814(8) 0.0243(7)
C64 C 0.6146(8) 0.2172(7) 0.0586(6)
C65 C 0.5606(8) 0.1974(6) 0.0735(7)
C66 C 0.5376(9) 0.1474(6) 0.0587(9)
C67 C 0.4795(10) 0.1235(7) 0.0773(11)
C68 C 0.4968(10) 0.1008(7) 0.1448(11)
C69 C 0.5053(8) 0.1279(6) 0.2166(9)
C70 C 0.5222(7) 0.1083(5) 0.2763(8)
C71 C 0.6429(7) 0.2729(5) 0.0795(7)
C72 C 0.5871(8) 0.3140(6) 0.0722(9)
C73 C 0.6187(8) 0.3677(5) 0.0933(9)
C74 C 0.5670(11) 0.4132(8) 0.0810(13)
C75 C 0.6083(15) 0.4651(11) 0.1031(17)
C76 C 0.565(2) 0.5115(18) 0.072(3)
C77 C 0.616(3) 0.5536(19) 0.077(3)
C78 C 0.6469(5) 0.3245(4) 0.3340(6)
C79 C 0.6750(6) 0.3797(4) 0.3277(6)
C80 C 0.6194(6) 0.4215(4) 0.3104(7)
C81 C 0.6490(8) 0.4763(5) 0.3064(8)
C82 C 0.6842(10) 0.4980(7) 0.3836(11)
C83 C 0.4769(8) 0.1863(5) 0.3234(8)
C88 C 0.4074(11) 0.1674(11) 0.3179(18)
C89 C 0.3561(14) 0.2127(12) 0.290(2)
C90 C 0.2881(17) 0.1956(15) 0.291(2)
C91 C 0.250(3) 0.2455(17) 0.253(3)
C92 C 0.179(3) 0.222(2) 0.197(3)
C93 C 0.5304(7) 0.1428(5) 0.3424(7)
C94 C 0.7195(12) 0.5522(8) 0.3788(13)
C95 C 0.4177(15) 0.1559(10) 0.0755(16)
C96 C 0.3872(18) 0.1676(11) 0.001(2)
C97 C 0.324(2) 0.2062(14) -0.009(2)
C98 C 0.301(3) 0.212(3) 0.058(3)
C99 C 0.247(2) 0.2036(17) 0.093(3)
C100 C 0.189(3) 0.189(3) 0.117(5)
C101 C 0.7375(12) 0.0760(10) 0.2623(11)
C102 C 0.7918(11) 0.0742(13) 0.2326(14)
C103 C 0.6920(9) 0.1239(6) 0.2339(10)
O13 O 0.7287(9) 0.0448(6) 0.3000(10)
C104 C 0.8666(15) 0.0832(10) 0.6029(13)
Cl1 Cl 0.8287(5) 0.1112(3) 0.6541(4)
Cl2 Cl 0.9429(4) 0.0577(3) 0.6471(3)
C105 C 0.211(2) 0.0104(17) 0.293(2)
C106 C 0.1932(11) 0.0543(8) 0.3333(14)
C107 C 0.148(2) 0.090(2) 0.277(2)
O14 O 0.2139(12) 0.0567(7) 0.3984(11)
C108 C 0.4208(11) 0.3319(8) 0.1065(15)
C109 C 0.4630(9) 0.3113(7) 0.1862(11)
C110 C 0.4559(9) 0.3431(6) 0.2376(13)
O15 O 0.5004(5) 0.2761(4) 0.1909(6)
O16 O 0.0813(7) 0.3506(5) 0.2900(8)
C111 C -0.0146(16) 0.2990(17) 0.262(2)
C112 C 0.0592(15) 0.3074(9) 0.2946(18)
C113 C 0.075(4) 0.2520(9) 0.279(2)
C84? C 0.4754(13) 0.2162(9) 0.3843(12)
C85? C 0.4178(14) 0.2548(11) 0.3627(18)
C86? C 0.354(2) 0.224(2) 0.327(4)
C87? C 0.341(7) 0.202(5) 0.393(6)
C114? C 0.4271(16) 0.1807(12) 0.0461(18)
C115? C 0.3614(14) 0.1542(9) 0.0483(14)
C116? C 0.3019(18) 0.1893(14) 0.017(2)
C117? C 0.2447(19) 0.1786(16) 0.042(2)
C118? C 0.198(2) 0.1965(18) -0.031(2)
C119? C 0.135(3) 0.167(2) -0.034(4)
I3? I 1.1544(3) -0.0896(3) 0.1520(4)
I4? I 1.0241(2) -0.2289(3) 0.4082(4)
loop_
_geom_bond_atom_site_label_1
_geom_bond_atom_site_label_2
_geom_bond_site_symmetry_1
_geom_bond_site_symmetry_2
I1 C1 1_555 1_555
I2 C36 1_555 1_555
O1 C28 1_555 1_555
O2 C9 1_555 1_555
O3 C14 1_555 1_555
O4 C12 1_555 1_555
O5 C17 1_555 1_555
O6 C44 1_555 1_555
O7 C49 1_555 1_555
O8 C46 1_555 1_555
O9 C60 1_555 1_555
O10 C11 1_555 1_555
N1 C4 1_555 1_555
N2 C10 1_555 1_555
N3 C21 1_555 1_555
N4 C39 1_555 1_555
N5 C47 1_555 1_555
N6 C12 1_555 1_555
N7 C27 1_555 1_555
N8 C45 1_555 1_555
N9 C53 1_555 1_555
N10 C59 1_555 1_555
C1 C2 1_555 1_555
C2 C3 1_555 1_555
C3 C4 1_555 1_555
C4 C5 1_555 1_555
C5 C6 1_555 1_555
C6 C1 1_555 1_555
C7 C3 1_555 1_555
C8 C5 1_555 1_555
C9 N1 1_555 1_555
C10 C9 1_555 1_555
C11 N2 1_555 1_555
C12 C11 1_555 1_555
C13 N6 1_555 1_555
C14 N1 1_555 1_555
C15 O4 1_555 1_555
C16 C15 1_555 1_555
C17 C16 1_555 1_555
C18 C17 1_555 1_555
C19 C18 1_555 1_555
C20 C15 1_555 1_555
C21 O5 1_555 1_555
C22 N3 1_555 1_555
C23 C22 1_555 1_555
C24 C23 1_555 1_555
C25 C24 1_555 1_555
C26 C25 1_555 1_555
C27 C22 1_555 1_555
C28 N7 1_555 1_555
C29 O1 1_555 1_555
C30 C31 1_555 1_555
C31 C29 1_555 1_555
O11 C30 1_555 1_555
C32 C29 1_555 1_555
C33 C30 1_555 1_555
C34 C32 1_555 1_555
C35 C18 1_555 1_555
C36 C37 1_555 1_555
C37 C38 1_555 1_555
C38 C39 1_555 1_555
C39 C40 1_555 1_555
C40 C41 1_555 1_555
C41 C36 1_555 1_555
C42 C38 1_555 1_555
C43 C40 1_555 1_555
C44 N4 1_555 1_555
C45 C44 1_555 1_555
C46 N8 1_555 1_555
C47 O11 1_555 1_555
C48 N5 1_555 1_555
C49 N4 1_555 1_555
C50 O8 1_555 1_555
C51 C50 1_555 1_555
C52 C51 1_555 1_555
O12 C52 1_555 1_555
C53 O12 1_555 1_555
C54 N9 1_555 1_555
C55 C54 1_555 1_555
C56 C55 1_555 1_555
C57 C56 1_555 1_555
C58 C57 1_555 1_555
C59 C54 1_555 1_555
C60 N10 1_555 1_555
C61 O9 1_555 1_555
C62 C61 1_555 1_555
C63 O10 1_555 1_555
C64 C63 1_555 1_555
C65 C64 1_555 1_555
C66 C61 1_555 1_555
C67 C66 1_555 1_555
C68 C52 1_555 1_555
C69 C68 1_555 1_555
C70 C50 1_555 1_555
C71 C20 1_555 1_555
C72 C71 1_555 1_555
C73 C72 1_555 1_555
C74 C73 1_555 1_555
C75 C74 1_555 1_555
C76 C75 1_555 1_555
C77 C76 1_555 1_555
C78 C35 1_555 1_555
C79 C78 1_555 1_555
C80 C79 1_555 1_555
C81 C80 1_555 1_555
C82 C81 1_555 1_555
C83 C88 1_555 1_555
C88 C89 1_555 1_555
C89 C90 1_555 1_555
C90 C91 1_555 1_555
C91 C92 1_555 1_555
C93 C33 1_555 1_555
C94 C82 1_555 1_555
C95 C67 1_555 1_555
C96 C95 1_555 1_555
C97 C96 1_555 1_555
C98 C97 1_555 1_555
C99 C98 1_555 1_555
C100 C99 1_555 1_555
C101 C102 1_555 1_555
C103 C101 1_555 1_555
O13 C101 1_555 1_555
C104 Cl1 1_555 1_555
Cl2 C104 1_555 1_555
C105 C106 1_555 1_555
C106 C107 1_555 1_555
O14 C106 1_555 1_555
C108 C109 1_555 1_555
C109 C110 1_555 1_555
O15 C109 1_555 1_555
O16 C112 1_555 1_555
C111 C112 1_555 1_555
C112 C113 1_555 1_555
C10 C13 1_555 1_555
C13 C14 1_555 1_555
C19 C20 1_555 1_555
C21 C28 1_555 1_555
C26 C27 1_555 1_555
C32 C35 1_555 1_555
C33 C34 1_555 1_555
C45 C48 1_555 1_555
C46 C47 1_555 1_555
C48 C49 1_555 1_555
C53 C60 1_555 1_555
C58 C59 1_555 1_555
C62 C63 1_555 1_555
C64 C71 1_555 1_555
C65 C66 1_555 1_555
C67 C68 1_555 1_555
C69 C70 1_555 1_555
C70 C93 1_555 1_555
C83 C93 1_555 1_555

#END
