
#######################################################################
#
#                 Cambridge Crystallographic Data Centre
#                                CCDC 
#
#######################################################################
#
# If this CIF has been generated from an entry in the Cambridge 
# Structural Database, then it will include bibliographic, chemical, 
# crystal, experimental, refinement or atomic coordinate data resulting 
# from the CCDC's data processing and validation procedures.
#
#######################################################################

data_QAFBUW
_chemical_name_common            
(2-((3,5-Dimethyl-4-nitrophenyl)(4-ethyl-3,5-dimethyl-2H-pyrrol-2-ylidene-kappaN)methyl)-4-ethyl-3,5-dimethyl-1H-pyrrolato-kappaN)(difluoro)boron
_chemical_formula_moiety         'C25 H30 B1 F2 N3 O2'
_chemical_name_systematic        
10-(3,5-Dimethyl-4-nitrophenyl)-2,8-diethyl-5,5-difluoro-1,3,7,9-tetramethyl-5H-4\l^5^,5\l^5^-dipyrrolo[1,2-c:2',1'-f][1,3,2]diazaborinine
_symmetry_cell_setting           monoclinic
_symmetry_space_group_name_H-M   'P 21/n'
_symmetry_Int_Tables_number      14
_space_group_name_Hall           '-P 2yn'
loop_
_symmetry_equiv_pos_site_id
_symmetry_equiv_pos_as_xyz
1 x,y,z
2 1/2-x,1/2+y,1/2-z
3 -x,-y,-z
4 1/2+x,1/2-y,1/2+z
_cell_length_a                   8.5829(3)
_cell_length_b                   24.5096(7)
_cell_length_c                   11.5112(3)
_cell_angle_alpha                90
_cell_angle_beta                 98.844(2)
_cell_angle_gamma                90
_cell_volume                     2392.75
_exptl_crystal_colour            purple
_exptl_crystal_description       plate
_chemical_melting_point          '237-250 deg.C'
_cell_formula_units_Z            4
_exptl_crystal_recrystallization_method dichloromethane
loop_
_atom_site_label
_atom_site_type_symbol
_atom_site_fract_x
_atom_site_fract_y
_atom_site_fract_z
F1 F 0.3953(3) 0.18636(9) 0.25354(18)
F2 F 0.1334(3) 0.17051(9) 0.22756(19)
N1 N 0.2531(4) 0.21065(12) 0.4108(3)
N2 N 0.2230(4) 0.26393(12) 0.2260(3)
C1 C 0.2478(4) 0.25930(15) 0.4739(3)
C2 C 0.2191(4) 0.31231(14) 0.2921(3)
C3 C 0.0547(5) 0.41879(16) 0.5849(3)
C4 C 0.2030(4) 0.35718(15) 0.2119(3)
C5 C 0.2184(5) 0.35983(15) 0.4852(3)
C6 C 0.2679(4) 0.16887(15) 0.4897(3)
C7 C 0.2301(4) 0.30933(14) 0.4138(3)
C8 C 0.0716(5) 0.37490(15) 0.5113(3)
C9 C 0.2733(4) 0.18982(16) 0.6043(3)
C10 C 0.1902(5) 0.44646(15) 0.6280(3)
C11 C 0.3406(5) 0.43424(16) 0.6043(3)
C12 C 0.2645(5) 0.28347(17) 0.6984(3)
B1 B 0.2499(5) 0.20607(18) 0.2774(4)
C13 C 0.2097(5) 0.27856(16) 0.1119(3)
N3 N 0.1772(5) 0.49373(15) 0.7058(3)
C14 C 0.2604(4) 0.24557(16) 0.5956(3)
C15 C 0.3517(5) 0.37601(19) -0.0482(3)
C16 C 0.1967(4) 0.33552(16) 0.0999(3)
C17 C 0.3512(5) 0.38917(16) 0.5304(3)
C18 C 0.2876(5) 0.15674(17) 0.7153(3)
C19 C 0.2738(5) 0.11081(16) 0.4520(4)
C20 C 0.1289(5) 0.14777(19) 0.7566(3)
C21 C 0.1972(5) 0.41635(16) 0.2398(3)
C22 C 0.1884(5) 0.36553(18) -0.0155(3)
C23 C -0.1063(6) 0.43409(18) 0.6136(4)
O1 O 0.1514(10) 0.4860(2) 0.8024(3)
C24 C 0.4865(6) 0.4651(2) 0.6562(5)
C25 C 0.2080(6) 0.23758(17) 0.0154(3)
O2 O 0.1714(7) 0.53716(15) 0.6680(4)
H1 H -0.0222 0.3544 0.4768
H2 H 0.3417 0.3174 0.6885
H3 H 0.3077 0.2618 0.7786
H4 H 0.1471 0.2985 0.7021
H5 H 0.4135 0.4054 0.0120
H6 H 0.3395 0.3918 -0.1368
H7 H 0.4176 0.3383 -0.0430
H8 H 0.4541 0.3786 0.5105
H9 H 0.3663 0.1774 0.7836
H10 H 0.3387 0.1176 0.7004
H11 H 0.1561 0.0972 0.4174
H12 H 0.3211 0.0858 0.5263
H13 H 0.3481 0.1074 0.3846
H14 H 0.0758 0.1869 0.7692
H15 H 0.1458 0.1256 0.8386
H16 H 0.0524 0.1248 0.6911
H17 H 0.3091 0.4288 0.2888
H18 H 0.1047 0.4238 0.2918
H19 H 0.1739 0.4394 0.1591
H20 H 0.1287 0.4040 -0.0096
H21 H 0.1198 0.3417 -0.0839
H22 H -0.1962 0.4118 0.5566
H23 H -0.1248 0.4774 0.6002
H24 H -0.1126 0.4241 0.7041
H25 H 0.5894 0.4405 0.6502
H26 H 0.4813 0.4742 0.7473
H27 H 0.4933 0.5027 0.6083
H28 H 0.1797 0.1978 0.0467
H29 H 0.3223 0.2362 -0.0128
H30 H 0.1199 0.2492 -0.0578
loop_
_geom_bond_atom_site_label_1
_geom_bond_atom_site_label_2
_geom_bond_site_symmetry_1
_geom_bond_site_symmetry_2
F1 B1 1_555 1_555
F2 B1 1_555 1_555
N1 C1 1_555 1_555
N2 C2 1_555 1_555
C1 C7 1_555 1_555
C2 C4 1_555 1_555
C3 C8 1_555 1_555
C4 C16 1_555 1_555
C5 C7 1_555 1_555
C6 N1 1_555 1_555
C7 C2 1_555 1_555
C8 C5 1_555 1_555
C9 C6 1_555 1_555
C10 C3 1_555 1_555
C11 C10 1_555 1_555
C12 C14 1_555 1_555
B1 N1 1_555 1_555
C13 N2 1_555 1_555
N3 C10 1_555 1_555
C14 C1 1_555 1_555
C15 C22 1_555 1_555
C16 C13 1_555 1_555
C17 C5 1_555 1_555
C18 C9 1_555 1_555
C19 C6 1_555 1_555
C20 C18 1_555 1_555
C21 C4 1_555 1_555
C22 C16 1_555 1_555
C23 C3 1_555 1_555
O1 N3 1_555 1_555
C24 C11 1_555 1_555
C25 C13 1_555 1_555
O2 N3 1_555 1_555
H1 C8 1_555 1_555
H2 C12 1_555 1_555
H3 C12 1_555 1_555
H4 C12 1_555 1_555
H5 C15 1_555 1_555
H6 C15 1_555 1_555
H7 C15 1_555 1_555
H8 C17 1_555 1_555
H9 C18 1_555 1_555
H10 C18 1_555 1_555
H11 C19 1_555 1_555
H12 C19 1_555 1_555
H13 C19 1_555 1_555
H14 C20 1_555 1_555
H15 C20 1_555 1_555
H16 C20 1_555 1_555
H17 C21 1_555 1_555
H18 C21 1_555 1_555
H19 C21 1_555 1_555
H20 C22 1_555 1_555
H21 C22 1_555 1_555
H22 C23 1_555 1_555
H23 C23 1_555 1_555
H24 C23 1_555 1_555
H25 C24 1_555 1_555
H26 C24 1_555 1_555
H27 C24 1_555 1_555
H28 C25 1_555 1_555
H29 C25 1_555 1_555
H30 C25 1_555 1_555
N2 B1 1_555 1_555
C9 C14 1_555 1_555
C11 C17 1_555 1_555

#END
