
#######################################################################
#
#                 Cambridge Crystallographic Data Centre
#                                CCDC 
#
#######################################################################
#
# If this CIF has been generated from an entry in the Cambridge 
# Structural Database, then it will include bibliographic, chemical, 
# crystal, experimental, refinement or atomic coordinate data resulting 
# from the CCDC's data processing and validation procedures.
#
#######################################################################

data_QAFROH
_chemical_formula_moiety         'C9 H12 N1 O1 1+,C7 H7 O3 S1 1-,H2 O1'
_chemical_name_systematic        
'4-formyl-N,N-dimethylanilinium 4-methylbenzenesulfonate monohydrate'
_symmetry_cell_setting           triclinic
_symmetry_space_group_name_H-M   'P -1'
_symmetry_Int_Tables_number      2
_space_group_name_Hall           '-P 1'
loop_
_symmetry_equiv_pos_site_id
_symmetry_equiv_pos_as_xyz
1 x,y,z
2 -x,-y,-z
_cell_length_a                   6.288(5)
_cell_length_b                   7.757(6)
_cell_length_c                   18.372(15)
_cell_angle_alpha                99.018(10)
_cell_angle_beta                 92.048(9)
_cell_angle_gamma                98.081(10)
_cell_volume                     874.718
_exptl_crystal_colour            colorless
_exptl_crystal_description       block
_cell_formula_units_Z            2
loop_
_atom_site_label
_atom_site_type_symbol
_atom_site_fract_x
_atom_site_fract_y
_atom_site_fract_z
N1 N 0.3007(4) 0.2222(3) 0.60365(11)
H1 H 0.4154 0.2778 0.5833
O1 O 0.4045(6) 0.2608(7) 0.95747(17)
C1 C 0.5179(8) 0.3088(7) 0.9122(2)
H2 H 0.6556 0.3658 0.9282
C2 C 0.4584(6) 0.2856(5) 0.83224(17)
C3 C 0.2562(6) 0.2051(5) 0.80358(18)
H3 H 0.1558 0.1634 0.8350
C4 C 0.2010(5) 0.1856(5) 0.72946(16)
H4 H 0.0635 0.1343 0.7106
C5 C 0.3555(5) 0.2443(4) 0.68354(14)
C6 C 0.5577(5) 0.3230(4) 0.71017(16)
H5 H 0.6590 0.3620 0.6784
C7 C 0.6090(6) 0.3434(5) 0.78540(18)
H6 H 0.7458 0.3965 0.8043
C8 C 0.1112(5) 0.3075(4) 0.58569(16)
H7 H -0.0151 0.2489 0.6043
H8 H 0.0913 0.2988 0.5331
H9 H 0.1356 0.4295 0.6081
C9 C 0.2704(5) 0.0318(4) 0.56773(16)
H10 H 0.3899 -0.0222 0.5824
H11 H 0.2624 0.0246 0.5150
H12 H 0.1397 -0.0287 0.5828
O2 O 0.1465(3) 0.3381(3) 0.40691(10)
O3 O 0.4993(3) 0.3072(3) 0.36406(11)
O4 O 0.2421(4) 0.0472(3) 0.36982(12)
S1 S 0.27361(12) 0.22965(10) 0.35913(4)
C10 C 0.1717(5) 0.2308(4) 0.26812(15)
C11 C -0.0247(5) 0.2861(4) 0.25606(17)
H13 H -0.1046 0.3225 0.2957
C12 C -0.1016(6) 0.2869(5) 0.1843(2)
H14 H -0.2336 0.3243 0.1766
C13 C 0.0124(7) 0.2338(6) 0.12430(18)
C14 C 0.2057(7) 0.1761(6) 0.13692(18)
H15 H 0.2830 0.1372 0.0969
C15 C 0.2881(5) 0.1746(5) 0.20811(16)
H16 H 0.4197 0.1364 0.2155
C16 C -0.0772(8) 0.2358(8) 0.0461(2)
H17 H -0.0860 0.3552 0.0399
H18 H -0.2181 0.1675 0.0384
H19 H 0.0161 0.1861 0.0111
O5 O 0.6332(3) 0.3407(3) 0.52142(10)
H20 H 0.5996 0.3403 0.4762
H21 H 0.6998 0.4422 0.5398
loop_
_geom_bond_atom_site_label_1
_geom_bond_atom_site_label_2
_geom_bond_site_symmetry_1
_geom_bond_site_symmetry_2
N1 H1 1_555 1_555
O1 C1 1_555 1_555
C1 H2 1_555 1_555
C2 C1 1_555 1_555
C3 C2 1_555 1_555
H3 C3 1_555 1_555
C4 C3 1_555 1_555
H4 C4 1_555 1_555
C5 N1 1_555 1_555
C6 C5 1_555 1_555
H5 C6 1_555 1_555
C7 C2 1_555 1_555
H6 C7 1_555 1_555
C8 N1 1_555 1_555
H7 C8 1_555 1_555
H8 C8 1_555 1_555
H9 C8 1_555 1_555
C9 N1 1_555 1_555
H10 C9 1_555 1_555
H11 C9 1_555 1_555
H12 C9 1_555 1_555
O2 S1 1_555 1_555
O3 S1 1_555 1_555
O4 S1 1_555 1_555
S1 C10 1_555 1_555
C10 C11 1_555 1_555
C11 H13 1_555 1_555
C12 C11 1_555 1_555
H14 C12 1_555 1_555
C13 C12 1_555 1_555
C14 C13 1_555 1_555
H15 C14 1_555 1_555
C15 C10 1_555 1_555
H16 C15 1_555 1_555
C16 C13 1_555 1_555
H17 C16 1_555 1_555
H18 C16 1_555 1_555
H19 C16 1_555 1_555
O5 H20 1_555 1_555
H21 O5 1_555 1_555
C4 C5 1_555 1_555
C6 C7 1_555 1_555
C14 C15 1_555 1_555

#END
