
#######################################################################
#
#                 Cambridge Crystallographic Data Centre
#                                CCDC 
#
#######################################################################
#
# If this CIF has been generated from an entry in the Cambridge 
# Structural Database, then it will include bibliographic, chemical, 
# crystal, experimental, refinement or atomic coordinate data resulting 
# from the CCDC's data processing and validation procedures.
#
#######################################################################

data_QAFRUN
_chemical_formula_moiety         'C9 H11 N1 O1,C7 H6 O3'
_chemical_name_systematic        
'4-hydroxybenzoic acid 4-(dimethylamino)benzaldehyde'
_symmetry_cell_setting           triclinic
_symmetry_space_group_name_H-M   'P -1'
_symmetry_Int_Tables_number      2
_space_group_name_Hall           '-P 1'
loop_
_symmetry_equiv_pos_site_id
_symmetry_equiv_pos_as_xyz
1 x,y,z
2 -x,-y,-z
_cell_length_a                   7.6678(5)
_cell_length_b                   9.2975(8)
_cell_length_c                   11.4249(9)
_cell_angle_alpha                77.4110(10)
_cell_angle_beta                 84.529(2)
_cell_angle_gamma                65.9930(10)
_cell_volume                     726.131
_exptl_crystal_colour            colorless
_exptl_crystal_description       block
_cell_formula_units_Z            2
loop_
_atom_site_label
_atom_site_type_symbol
_atom_site_fract_x
_atom_site_fract_y
_atom_site_fract_z
N1 N 0.4619(3) 0.7451(2) 0.61611(18)
O1 O 1.1041(5) 0.2117(4) 0.3591(3)
C1 C 0.996(2) 0.3527(10) 0.3302(8)
H1 H 1.0005 0.4060 0.2517
C2 C 0.8634(3) 0.4383(3) 0.4120(2)
C3 C 0.8405(3) 0.3883(3) 0.5333(2)
H2 H 0.9173 0.2845 0.5703
C4 C 0.7080(3) 0.4875(3) 0.60056(19)
H3 H 0.6962 0.4497 0.6820
C5 C 0.5897(3) 0.6449(2) 0.54890(19)
C6 C 0.6133(3) 0.6947(3) 0.4252(2)
H4 H 0.5368 0.7982 0.3872
C7 C 0.7464(3) 0.5939(3) 0.3602(2)
H5 H 0.7592 0.6304 0.2787
C8 C 0.4445(4) 0.6947(4) 0.7438(2)
H6 H 0.3863 0.6184 0.7590
H7 H 0.3668 0.7863 0.7780
H8 H 0.5689 0.6459 0.7792
C9 C 0.3225(4) 0.9001(3) 0.5615(3)
H9 H 0.3834 0.9532 0.5006
H10 H 0.2679 0.9642 0.6215
H11 H 0.2236 0.8858 0.5260
O3 O 0.2076(2) 0.53410(18) -0.00102(15)
H13 H 0.1546 0.4815 -0.0196
O4 O -0.0882(2) 0.67042(17) 0.05725(13)
O5 O 0.3506(2) 1.05466(19) 0.19923(16)
H14 H 0.2655 1.1199 0.2328
C11 C 0.0853(3) 0.6491(2) 0.04492(17)
C12 C 0.1529(3) 0.7570(2) 0.08382(16)
C13 C 0.3403(3) 0.7441(2) 0.06232(18)
H15 H 0.4239 0.6657 0.0220
C14 C 0.4036(3) 0.8453(2) 0.09969(19)
H16 H 0.5283 0.8364 0.0834
C15 C 0.2810(3) 0.9605(2) 0.16162(19)
C16 C 0.0944(3) 0.9756(2) 0.1822(2)
H17 H 0.0111 1.0542 0.2224
C17 C 0.0308(3) 0.8754(2) 0.14366(18)
H18 H -0.0952 0.8871 0.1579
O2? O 1.0616(7) 0.3232(5) 0.2566(6)
C10? C 1.016(4) 0.305(2) 0.3633(12)
H12? H 1.0784 0.2074 0.4142
loop_
_geom_bond_atom_site_label_1
_geom_bond_atom_site_label_2
_geom_bond_site_symmetry_1
_geom_bond_site_symmetry_2
N1 C5 1_555 1_555
O1 C1 1_555 1_555
C1 H1 1_555 1_555
C2 C1 1_555 1_555
C3 C2 1_555 1_555
H2 C3 1_555 1_555
C4 C3 1_555 1_555
H3 C4 1_555 1_555
C5 C4 1_555 1_555
C6 C5 1_555 1_555
H4 C6 1_555 1_555
C7 C2 1_555 1_555
H5 C7 1_555 1_555
C8 N1 1_555 1_555
H6 C8 1_555 1_555
H7 C8 1_555 1_555
H8 C8 1_555 1_555
C9 N1 1_555 1_555
H9 C9 1_555 1_555
H10 C9 1_555 1_555
H11 C9 1_555 1_555
O3 H13 1_555 1_555
O4 C11 1_555 1_555
O5 H14 1_555 1_555
C11 O3 1_555 1_555
C12 C11 1_555 1_555
C13 C12 1_555 1_555
H15 C13 1_555 1_555
C14 C13 1_555 1_555
H16 C14 1_555 1_555
C15 O5 1_555 1_555
C16 C15 1_555 1_555
H17 C16 1_555 1_555
C17 C12 1_555 1_555
H18 C17 1_555 1_555
C6 C7 1_555 1_555
C14 C15 1_555 1_555
C16 C17 1_555 1_555

#END
