
#######################################################################
#
#                 Cambridge Crystallographic Data Centre
#                                CCDC 
#
#######################################################################
#
# If this CIF has been generated from an entry in the Cambridge 
# Structural Database, then it will include bibliographic, chemical, 
# crystal, experimental, refinement or atomic coordinate data resulting 
# from the CCDC's data processing and validation procedures.
#
#######################################################################

data_QAGFUB
_chemical_formula_moiety         'C20 H16 N4 O3 S1,H2 O1'
_chemical_name_systematic        
'1-(2-Amino-5-benzoylphenyl)-3-(4-nitrophenyl)thiourea monohydrate'
_symmetry_cell_setting           triclinic
_symmetry_space_group_name_H-M   'P -1'
_symmetry_Int_Tables_number      2
_space_group_name_Hall           '-P 1'
loop_
_symmetry_equiv_pos_site_id
_symmetry_equiv_pos_as_xyz
1 x,y,z
2 -x,-y,-z
_cell_length_a                   8.6646(15)
_cell_length_b                   12.366(2)
_cell_length_c                   19.082(3)
_cell_angle_alpha                89.530(4)
_cell_angle_beta                 85.461(4)
_cell_angle_gamma                78.375(4)
_cell_volume                     1996.29
_exptl_crystal_colour            colorless
_exptl_crystal_description       block
_cell_formula_units_Z            4
loop_
_atom_site_label
_atom_site_type_symbol
_atom_site_fract_x
_atom_site_fract_y
_atom_site_fract_z
C1 C 0.6407(7) 0.5599(5) 0.1491(3)
C2 C 0.5355(6) 0.5076(5) 0.1862(3)
H1 H 0.4847 0.4598 0.1638
C3 C 0.5067(6) 0.5273(4) 0.2577(2)
H2 H 0.4365 0.4920 0.2838
C4 C 0.5806(5) 0.5984(4) 0.2903(2)
C5 C 0.6908(6) 0.6457(4) 0.2522(3)
H3 H 0.7462 0.6904 0.2748
C6 C 0.7198(7) 0.6274(4) 0.1803(3)
H4 H 0.7922 0.6609 0.1542
C7 C 0.4332(5) 0.6327(3) 0.4097(2)
C8 C 0.3469(5) 0.6998(4) 0.5309(2)
C9 C 0.2699(5) 0.6277(4) 0.5666(2)
H5 H 0.2885 0.5546 0.5514
C19 C 0.1653(5) 0.6595(4) 0.6246(2)
C20 C 0.1374(5) 0.7692(4) 0.6455(2)
H11 H 0.0658 0.7933 0.6838
C21 C 0.2129(5) 0.8417(4) 0.6110(2)
H12 H 0.1904 0.9151 0.6258
C22 C 0.3241(5) 0.8100(4) 0.5537(2)
C23 C 0.0879(5) 0.5771(4) 0.6615(2)
C24 C 0.0321(6) 0.5946(4) 0.7376(2)
C25 C -0.0872(6) 0.5421(4) 0.7652(3)
H13 H -0.1351 0.5013 0.7358
C26 C -0.1346(6) 0.5508(5) 0.8371(3)
H14 H -0.2147 0.5163 0.8554
C27 C -0.0642(7) 0.6097(5) 0.8804(3)
H15 H -0.0966 0.6151 0.9281
C28 C 0.0547(7) 0.6615(4) 0.8542(3)
H16 H 0.1021 0.7019 0.8839
C29 C 0.1029(6) 0.6526(4) 0.7829(2)
H17 H 0.1844 0.6863 0.7654
N1 N 0.6726(9) 0.5396(8) 0.0723(3)
N2 N 0.5608(4) 0.6244(3) 0.36222(18)
H25 H 0.6440 0.6376 0.3794
N3 N 0.4611(4) 0.6676(3) 0.47285(17)
H26 H 0.5572 0.6710 0.4790
N4 N 0.4046(4) 0.8836(3) 0.52246(17)
H27 H 0.3875 0.9504 0.5379
H28 H 0.4725 0.8632 0.4873
O1 O 0.6288(8) 0.4601(6) 0.0478(3)
O2 O 0.7434(8) 0.5992(6) 0.0400(3)
O3 O 0.0717(4) 0.4929(3) 0.63094(15)
S1 S 0.25869(14) 0.60492(9) 0.39179(6)
C10 C 0.9682(8) 0.8521(5) 0.1232(3)
C11 C 0.8564(6) 0.9203(4) 0.1666(3)
H6 H 0.7765 0.9708 0.1474
C12 C 0.8627(6) 0.9137(4) 0.2377(2)
H7 H 0.7879 0.9606 0.2669
C13 C 0.9787(6) 0.8384(4) 0.2661(2)
C14 C 1.0941(6) 0.7711(4) 0.2221(3)
H8 H 1.1747 0.7213 0.2414
C15 C 1.0894(7) 0.7782(5) 0.1498(3)
H9 H 1.1664 0.7339 0.1200
C16 C 0.8864(5) 0.8320(3) 0.3930(2)
C17 C 0.8525(5) 0.8167(4) 0.5215(2)
C18 C 0.8217(5) 0.9099(3) 0.5617(2)
H10 H 0.8561 0.9722 0.5443
C30 C 0.7410(5) 0.9158(4) 0.6278(2)
C31 C 0.6923(5) 0.8216(4) 0.6526(2)
H18 H 0.6388 0.8224 0.6969
C32 C 0.7224(5) 0.7268(4) 0.6123(2)
H19 H 0.6876 0.6647 0.6296
C33 C 0.8039(5) 0.7217(4) 0.5460(2)
C34 C 0.7078(5) 1.0208(4) 0.6680(2)
C35 C 0.6831(6) 1.0186(4) 0.7462(2)
C36 C 0.5700(6) 1.0998(4) 0.7803(3)
H20 H 0.5057 1.1517 0.7542
C37 C 0.5518(7) 1.1045(4) 0.8522(3)
H21 H 0.4738 1.1587 0.8746
C38 C 0.6474(7) 1.0303(5) 0.8910(3)
H22 H 0.6357 1.0347 0.9399
C39 C 0.7611(6) 0.9490(4) 0.8581(3)
H23 H 0.8266 0.8981 0.8844
C40 C 0.7774(6) 0.9435(4) 0.7851(2)
H24 H 0.8533 0.8882 0.7626
N5 N 0.9666(9) 0.8570(6) 0.0465(3)
N6 N 0.9961(4) 0.8261(3) 0.33865(17)
H29 H 1.0923 0.8128 0.3499
N7 N 0.9457(4) 0.8113(3) 0.45576(18)
H30 H 1.0468 0.7936 0.4565
N8 N 0.8271(4) 0.6278(3) 0.50595(17)
H31 H 0.8729 0.6262 0.4642
H32 H 0.7959 0.5702 0.5225
O4 O 0.8487(8) 0.9125(6) 0.0246(3)
O5 O 1.0743(8) 0.8058(5) 0.0091(2)
O6 O 0.7013(4) 1.1101(3) 0.63810(16)
S2 S 0.69077(14) 0.86200(9) 0.38462(6)
O7 O 0.4232(6) 0.7993(4) 0.8286(3)
O8 O 0.5250(8) 0.2175(5) 0.0743(3)
loop_
_geom_bond_atom_site_label_1
_geom_bond_atom_site_label_2
_geom_bond_site_symmetry_1
_geom_bond_site_symmetry_2
C1 C2 1_555 1_555
C2 H1 1_555 1_555
C3 C2 1_555 1_555
H2 C3 1_555 1_555
C4 C3 1_555 1_555
C5 C4 1_555 1_555
H3 C5 1_555 1_555
C6 C1 1_555 1_555
H4 C6 1_555 1_555
C7 N2 1_555 1_555
C8 C9 1_555 1_555
C9 H5 1_555 1_555
C10 C11 1_555 1_555
C11 H6 1_555 1_555
C12 C11 1_555 1_555
H7 C12 1_555 1_555
C13 C12 1_555 1_555
C14 C13 1_555 1_555
H8 C14 1_555 1_555
C15 C10 1_555 1_555
H9 C15 1_555 1_555
C16 N6 1_555 1_555
C17 C18 1_555 1_555
C18 H10 1_555 1_555
C19 C9 1_555 1_555
C20 C19 1_555 1_555
H11 C20 1_555 1_555
C21 C20 1_555 1_555
H12 C21 1_555 1_555
C22 C8 1_555 1_555
C23 C19 1_555 1_555
C24 C23 1_555 1_555
C25 C24 1_555 1_555
H13 C25 1_555 1_555
C26 C25 1_555 1_555
H14 C26 1_555 1_555
C27 C26 1_555 1_555
H15 C27 1_555 1_555
C28 C27 1_555 1_555
H16 C28 1_555 1_555
C29 C24 1_555 1_555
H17 C29 1_555 1_555
C30 C18 1_555 1_555
C31 C30 1_555 1_555
H18 C31 1_555 1_555
C32 C31 1_555 1_555
H19 C32 1_555 1_555
C33 C17 1_555 1_555
C34 C30 1_555 1_555
C35 C34 1_555 1_555
C36 C35 1_555 1_555
H20 C36 1_555 1_555
C37 C36 1_555 1_555
H21 C37 1_555 1_555
C38 C37 1_555 1_555
H22 C38 1_555 1_555
C39 C38 1_555 1_555
H23 C39 1_555 1_555
C40 C35 1_555 1_555
H24 C40 1_555 1_555
N1 C1 1_555 1_555
N2 C4 1_555 1_555
H25 N2 1_555 1_555
N3 C7 1_555 1_555
H26 N3 1_555 1_555
N4 C22 1_555 1_555
H27 N4 1_555 1_555
H28 N4 1_555 1_555
N5 C10 1_555 1_555
N6 C13 1_555 1_555
H29 N6 1_555 1_555
N7 C16 1_555 1_555
H30 N7 1_555 1_555
N8 C33 1_555 1_555
H31 N8 1_555 1_555
H32 N8 1_555 1_555
O1 N1 1_555 1_555
O2 N1 1_555 1_555
O3 C23 1_555 1_555
O4 N5 1_555 1_555
O5 N5 1_555 1_555
O6 C34 1_555 1_555
S1 C7 1_555 1_555
S2 C16 1_555 1_555
C5 C6 1_555 1_555
C8 N3 1_555 1_555
C14 C15 1_555 1_555
C17 N7 1_555 1_555
C21 C22 1_555 1_555
C28 C29 1_555 1_555
C32 C33 1_555 1_555
C39 C40 1_555 1_555

#END
