
#######################################################################
#
#                 Cambridge Crystallographic Data Centre
#                                CCDC 
#
#######################################################################
#
# If this CIF has been generated from an entry in the Cambridge 
# Structural Database, then it will include bibliographic, chemical, 
# crystal, experimental, refinement or atomic coordinate data resulting 
# from the CCDC's data processing and validation procedures.
#
#######################################################################

data_QAGGIP
_chemical_formula_moiety         'C96 H66 F4 N4,2(C1 H2 Cl2)'
_chemical_name_systematic        
'2,7,12,17-tetramethyl-3,8,13,18-tetrakis[2,6-diphenyl-4-fluorophenyl]porphyrin dichloromethane solvate'
_symmetry_cell_setting           monoclinic
_symmetry_space_group_name_H-M   'P 21/n'
_symmetry_Int_Tables_number      14
_space_group_name_Hall           '-P 2yn'
loop_
_symmetry_equiv_pos_site_id
_symmetry_equiv_pos_as_xyz
1 x,y,z
2 1/2+x,1/2-y,1/2+z
3 -x,-y,-z
4 1/2-x,1/2+y,1/2-z
_cell_length_a                   11.0987(10)
_cell_length_b                   24.357(2)
_cell_length_c                   14.4675(12)
_cell_angle_alpha                90
_cell_angle_beta                 98.770(2)
_cell_angle_gamma                90
_cell_volume                     3865.29
_exptl_crystal_description       block
_cell_formula_units_Z            2
loop_
_atom_site_label
_atom_site_type_symbol
_atom_site_fract_x
_atom_site_fract_y
_atom_site_fract_z
C1 C 1.1573(2) 0.40295(10) 0.13540(17)
H1 H 1.2000 0.3762 0.1729
C2 C 1.0573(2) 0.38471(10) 0.07335(17)
C3 C 1.0153(2) 0.32885(10) 0.06493(17)
C4 C 0.9098(2) 0.32832(10) 0.00249(16)
C5 C 0.8877(2) 0.38393(10) -0.03075(16)
C6 C 0.7936(2) 0.40220(10) -0.09814(16)
H2 H 0.7367 0.3761 -0.1232
C7 C 0.7757(2) 0.45523(10) -0.13198(16)
C8 C 0.6832(2) 0.47238(10) -0.20883(16)
C9 C 0.6984(2) 0.52742(10) -0.21909(16)
C10 C 1.2011(2) 0.45617(10) 0.14832(16)
C11 C 1.0788(2) 0.28156(10) 0.11620(19)
H3 H 1.0336 0.2485 0.0994
H4 H 1.0846 0.2876 0.1823
H5 H 1.1592 0.2781 0.1000
C12 C 0.5937(2) 0.43559(10) -0.26630(18)
H6 H 0.5429 0.4569 -0.3126
H7 H 0.5440 0.4177 -0.2266
H8 H 0.6367 0.4085 -0.2967
C13 C 0.8302(2) 0.28004(10) -0.02174(17)
C14 C 0.7798(2) 0.25227(10) 0.04880(18)
C15 C 0.7076(2) 0.20611(11) 0.0261(2)
H9 H 0.6745 0.1875 0.0724
C16 C 0.6855(2) 0.18827(10) -0.0643(2)
C17 C 0.7329(2) 0.21392(10) -0.13449(19)
H10 H 0.7159 0.2008 -0.1955
C18 C 0.8071(2) 0.25998(10) -0.11409(17)
C19 C 0.8014(2) 0.26990(11) 0.14870(19)
C20 C 0.7845(3) 0.32388(12) 0.17581(19)
H11 H 0.7588 0.3504 0.1308
C21 C 0.8057(3) 0.33830(15) 0.2696(2)
H12 H 0.7951 0.3746 0.2867
C22 C 0.8424(3) 0.29977(16) 0.3377(2)
H13 H 0.8569 0.3098 0.4004
C23 C 0.8575(3) 0.24593(17) 0.3115(2)
H14 H 0.8807 0.2194 0.3571
C24 C 0.8384(3) 0.23119(13) 0.2180(2)
H15 H 0.8503 0.1950 0.2013
C25 C 0.8626(2) 0.28574(10) -0.19029(18)
C26 C 0.7891(3) 0.30429(11) -0.27074(19)
H16 H 0.7050 0.3002 -0.2763
C27 C 0.8386(3) 0.32870(12) -0.3427(2)
H17 H 0.7883 0.3406 -0.3963
C28 C 0.9625(3) 0.33508(14) -0.3341(2)
H18 H 0.9963 0.3520 -0.3817
C29 C 1.0382(3) 0.31644(14) -0.2549(2)
H19 H 1.1223 0.3203 -0.2502
C30 C 0.9883(3) 0.29229(11) -0.1835(2)
H20 H 1.0390 0.2802 -0.1302
C31 C 0.6320(2) 0.56407(10) -0.29190(17)
C32 C 0.6476(2) 0.55830(10) -0.38596(17)
C33 C 0.5840(3) 0.59313(11) -0.45372(18)
H21 H 0.5929 0.5895 -0.5163
C34 C 0.5090(3) 0.63224(11) -0.42675(19)
C35 C 0.4926(2) 0.63989(11) -0.33646(19)
H22 H 0.4414 0.6675 -0.3210
C36 C 0.5540(2) 0.60555(10) -0.26701(17)
C37 C 0.7295(3) 0.51671(11) -0.41977(18)
C38 C 0.8498(3) 0.50922(11) -0.3771(2)
H23 H 0.8796 0.5288 -0.3233
C39 C 0.9251(3) 0.47288(12) -0.4145(2)
H24 H 1.0056 0.4685 -0.3862
C40 C 0.8808(3) 0.44286(13) -0.4941(2)
H25 H 0.9316 0.4184 -0.5191
C41 C 0.7638(3) 0.44921(13) -0.5350(2)
H26 H 0.7343 0.4287 -0.5879
C42 C 0.6875(3) 0.48588(13) -0.4993(2)
H27 H 0.6074 0.4900 -0.5287
C43 C 0.5319(2) 0.61508(11) -0.16975(18)
C44 C 0.5451(2) 0.66809(11) -0.13271(19)
H28 H 0.5706 0.6963 -0.1684
C45 C 0.5208(3) 0.67899(13) -0.0440(2)
H29 H 0.5302 0.7144 -0.0201
C46 C 0.4825(3) 0.63720(14) 0.0095(2)
H30 H 0.4664 0.6445 0.0695
C47 C 0.4684(3) 0.58454(13) -0.0266(2)
H31 H 0.4422 0.5565 0.0091
C48 C 0.4929(3) 0.57358(11) -0.1154(2)
H32 H 0.4833 0.5381 -0.1391
N1 N 0.97962(19) 0.41620(9) 0.01340(15)
N2 N 0.84459(18) 0.49942(8) -0.09745(14)
F1 F 0.61510(15) 0.14303(6) -0.08520(12)
F2 F 0.44671(17) 0.66540(7) -0.49390(12)
H36 H 0.980(3) 0.4468(16) 0.005(3)
C10B C 0.7989(2) 0.54383(10) -0.14832(16)
C1B C 0.8427(2) 0.59705(10) -0.13540(17)
H1B H 0.8000 0.6238 -0.1729
C2B C 0.9427(2) 0.61529(10) -0.07335(17)
C3B C 0.9847(2) 0.67115(10) -0.06493(17)
C4B C 1.0902(2) 0.67168(10) -0.00249(16)
C5B C 1.1123(2) 0.61607(10) 0.03075(16)
C6B C 1.2064(2) 0.59780(10) 0.09814(16)
H2B H 1.2633 0.6239 0.1232
C7B C 1.2243(2) 0.54477(10) 0.13198(16)
C8B C 1.3168(2) 0.52762(10) 0.20883(16)
C9B C 1.3016(2) 0.47258(10) 0.21909(16)
N2B N 1.15541(18) 0.50058(8) 0.09745(14)
C31B C 1.3680(2) 0.43593(10) 0.29190(17)
C32B C 1.3524(2) 0.44170(10) 0.38596(17)
C33B C 1.4160(3) 0.40687(11) 0.45372(18)
H21B H 1.4071 0.4105 0.5163
C34B C 1.4910(3) 0.36776(11) 0.42675(19)
C35B C 1.5074(2) 0.36011(11) 0.33646(19)
H22B H 1.5586 0.3325 0.3210
C36B C 1.4460(2) 0.39445(10) 0.26701(17)
C43B C 1.4681(2) 0.38492(11) 0.16975(18)
C44B C 1.4549(2) 0.33191(11) 0.13271(19)
H28B H 1.4294 0.3037 0.1684
C45B C 1.4792(3) 0.32101(13) 0.0440(2)
H29B H 1.4698 0.2856 0.0201
C46B C 1.5175(3) 0.36280(14) -0.0095(2)
H30B H 1.5336 0.3555 -0.0695
C47B C 1.5316(3) 0.41546(13) 0.0266(2)
H31B H 1.5578 0.4435 -0.0091
C48B C 1.5071(3) 0.42642(11) 0.1154(2)
H32B H 1.5167 0.4619 0.1391
F2B F 1.55329(17) 0.33460(7) 0.49390(12)
C37B C 1.2705(3) 0.48329(11) 0.41977(18)
C38B C 1.1502(3) 0.49078(11) 0.3771(2)
H23B H 1.1204 0.4712 0.3233
C39B C 1.0749(3) 0.52712(12) 0.4145(2)
H24B H 0.9944 0.5315 0.3862
C40B C 1.1192(3) 0.55714(13) 0.4941(2)
H25B H 1.0684 0.5816 0.5191
C41B C 1.2362(3) 0.55079(13) 0.5350(2)
H26B H 1.2657 0.5713 0.5879
C42B C 1.3125(3) 0.51412(13) 0.4993(2)
H27B H 1.3926 0.5100 0.5287
C12B C 1.4063(2) 0.56441(10) 0.26630(18)
H6B H 1.4571 0.5431 0.3126
H7B H 1.4560 0.5823 0.2266
H8B H 1.3633 0.5915 0.2967
N1B N 1.02038(19) 0.58380(9) -0.01340(15)
H36B H 1.020(3) 0.5532(16) -0.005(3)
C13B C 1.1698(2) 0.71996(10) 0.02174(17)
C14B C 1.2202(2) 0.74773(10) -0.04880(18)
C15B C 1.2924(2) 0.79389(11) -0.0261(2)
H9B H 1.3255 0.8125 -0.0724
C16B C 1.3145(2) 0.81173(10) 0.0643(2)
C17B C 1.2671(2) 0.78608(10) 0.13449(19)
H10B H 1.2841 0.7992 0.1955
C18B C 1.1929(2) 0.74002(10) 0.11409(17)
C25B C 1.1374(2) 0.71426(10) 0.19029(18)
C26B C 1.2109(3) 0.69571(11) 0.27074(19)
H16B H 1.2950 0.6998 0.2763
C27B C 1.1614(3) 0.67130(12) 0.3427(2)
H17B H 1.2117 0.6594 0.3963
C28B C 1.0375(3) 0.66492(14) 0.3341(2)
H18B H 1.0037 0.6480 0.3817
C29B C 0.9618(3) 0.68356(14) 0.2549(2)
H19B H 0.8777 0.6797 0.2502
C30B C 1.0117(3) 0.70771(11) 0.1835(2)
H20B H 0.9610 0.7198 0.1302
F1B F 1.38490(15) 0.85697(6) 0.08520(12)
C19B C 1.1986(2) 0.73010(11) -0.14870(19)
C20B C 1.2155(3) 0.67612(12) -0.17581(19)
H11B H 1.2412 0.6496 -0.1308
C21B C 1.1943(3) 0.66170(15) -0.2696(2)
H12B H 1.2049 0.6254 -0.2867
C22B C 1.1576(3) 0.70023(16) -0.3377(2)
H13B H 1.1431 0.6902 -0.4004
C23B C 1.1425(3) 0.75407(17) -0.3115(2)
H14B H 1.1193 0.7806 -0.3571
C24B C 1.1616(3) 0.76881(13) -0.2180(2)
H15B H 1.1497 0.8050 -0.2013
C11B C 0.9212(2) 0.71844(10) -0.11620(19)
H3B H 0.9664 0.7515 -0.0994
H4B H 0.9154 0.7124 -0.1823
H5B H 0.8408 0.7219 -0.1000
C49 C 0.8393(5) 0.5390(3) 0.1529(3)
H33 H 0.9155 0.5582 0.1664
H34 H 0.8143 0.5392 0.0864
Cl1 Cl 0.72222(16) 0.57551(7) 0.21057(18)
Cl3 Cl 0.85751(15) 0.47624(7) 0.18957(14)
H35? H 0.8602 0.5115 0.1106
Cl2? Cl 0.7384(4) 0.5748(2) 0.0995(3)
Cl4? Cl 0.8077(5) 0.5053(3) 0.2540(4)
loop_
_geom_bond_atom_site_label_1
_geom_bond_atom_site_label_2
_geom_bond_site_symmetry_1
_geom_bond_site_symmetry_2
C1 H1 1_555 1_555
C2 C1 1_555 1_555
C3 C2 1_555 1_555
C4 C3 1_555 1_555
C5 C4 1_555 1_555
C6 C5 1_555 1_555
H2 C6 1_555 1_555
C7 C6 1_555 1_555
C8 C7 1_555 1_555
C9 C8 1_555 1_555
C10 C1 1_555 1_555
C11 C3 1_555 1_555
H3 C11 1_555 1_555
H4 C11 1_555 1_555
H5 C11 1_555 1_555
C12 C8 1_555 1_555
H6 C12 1_555 1_555
H7 C12 1_555 1_555
H8 C12 1_555 1_555
C13 C4 1_555 1_555
C14 C13 1_555 1_555
C15 C14 1_555 1_555
H9 C15 1_555 1_555
C16 C15 1_555 1_555
C17 C16 1_555 1_555
H10 C17 1_555 1_555
C18 C13 1_555 1_555
C19 C14 1_555 1_555
C20 C19 1_555 1_555
H11 C20 1_555 1_555
C21 C20 1_555 1_555
H12 C21 1_555 1_555
C22 C21 1_555 1_555
H13 C22 1_555 1_555
C23 C22 1_555 1_555
H14 C23 1_555 1_555
C24 C19 1_555 1_555
H15 C24 1_555 1_555
C25 C18 1_555 1_555
C26 C25 1_555 1_555
H16 C26 1_555 1_555
C27 C26 1_555 1_555
H17 C27 1_555 1_555
C28 C27 1_555 1_555
H18 C28 1_555 1_555
C29 C28 1_555 1_555
H19 C29 1_555 1_555
C30 C25 1_555 1_555
H20 C30 1_555 1_555
C31 C9 1_555 1_555
C32 C31 1_555 1_555
C33 C32 1_555 1_555
H21 C33 1_555 1_555
C34 C33 1_555 1_555
C35 C34 1_555 1_555
H22 C35 1_555 1_555
C36 C31 1_555 1_555
C37 C32 1_555 1_555
C38 C37 1_555 1_555
H23 C38 1_555 1_555
C39 C38 1_555 1_555
H24 C39 1_555 1_555
C40 C39 1_555 1_555
H25 C40 1_555 1_555
C41 C40 1_555 1_555
H26 C41 1_555 1_555
C42 C37 1_555 1_555
H27 C42 1_555 1_555
C43 C36 1_555 1_555
C44 C43 1_555 1_555
H28 C44 1_555 1_555
C45 C44 1_555 1_555
H29 C45 1_555 1_555
C46 C45 1_555 1_555
H30 C46 1_555 1_555
C47 C46 1_555 1_555
H31 C47 1_555 1_555
C48 C43 1_555 1_555
H32 C48 1_555 1_555
N1 C2 1_555 1_555
N2 C7 1_555 1_555
F1 C16 1_555 1_555
F2 C34 1_555 1_555
C49 H33 1_555 1_555
H34 C49 1_555 1_555
Cl1 C49 1_555 1_555
Cl3 C49 1_555 1_555
H36 N1 1_555 1_555
C10B C9 1_555 1_555
C1B C10B 1_555 1_555
H1B C1B 1_555 1_555
C2B C1B 1_555 1_555
C3B C2B 1_555 1_555
C4B C3B 1_555 1_555
C5B C4B 1_555 1_555
C6B C5B 1_555 1_555
H2B C6B 1_555 1_555
C7B C6B 1_555 1_555
C8B C7B 1_555 1_555
C9B C10 1_555 1_555
N2B C10 1_555 1_555
C31B C9B 1_555 1_555
C32B C31B 1_555 1_555
C33B C32B 1_555 1_555
H21B C33B 1_555 1_555
C34B C33B 1_555 1_555
C35B C34B 1_555 1_555
H22B C35B 1_555 1_555
C36B C31B 1_555 1_555
C43B C36B 1_555 1_555
C44B C43B 1_555 1_555
H28B C44B 1_555 1_555
C45B C44B 1_555 1_555
H29B C45B 1_555 1_555
C46B C45B 1_555 1_555
H30B C46B 1_555 1_555
C47B C46B 1_555 1_555
H31B C47B 1_555 1_555
C48B C43B 1_555 1_555
H32B C48B 1_555 1_555
F2B C34B 1_555 1_555
C37B C32B 1_555 1_555
C38B C37B 1_555 1_555
H23B C38B 1_555 1_555
C39B C38B 1_555 1_555
H24B C39B 1_555 1_555
C40B C39B 1_555 1_555
H25B C40B 1_555 1_555
C41B C40B 1_555 1_555
H26B C41B 1_555 1_555
C42B C37B 1_555 1_555
H27B C42B 1_555 1_555
C12B C8B 1_555 1_555
H6B C12B 1_555 1_555
H7B C12B 1_555 1_555
H8B C12B 1_555 1_555
N1B C2B 1_555 1_555
H36B N1B 1_555 1_555
C13B C4B 1_555 1_555
C14B C13B 1_555 1_555
C15B C14B 1_555 1_555
H9B C15B 1_555 1_555
C16B C15B 1_555 1_555
C17B C16B 1_555 1_555
H10B C17B 1_555 1_555
C18B C13B 1_555 1_555
C25B C18B 1_555 1_555
C26B C25B 1_555 1_555
H16B C26B 1_555 1_555
C27B C26B 1_555 1_555
H17B C27B 1_555 1_555
C28B C27B 1_555 1_555
H18B C28B 1_555 1_555
C29B C28B 1_555 1_555
H19B C29B 1_555 1_555
C30B C25B 1_555 1_555
H20B C30B 1_555 1_555
F1B C16B 1_555 1_555
C19B C14B 1_555 1_555
C20B C19B 1_555 1_555
H11B C20B 1_555 1_555
C21B C20B 1_555 1_555
H12B C21B 1_555 1_555
C22B C21B 1_555 1_555
H13B C22B 1_555 1_555
C23B C22B 1_555 1_555
H14B C23B 1_555 1_555
C24B C19B 1_555 1_555
H15B C24B 1_555 1_555
C11B C3B 1_555 1_555
H3B C11B 1_555 1_555
H4B C11B 1_555 1_555
H5B C11B 1_555 1_555
C5 N1 1_555 1_555
C17 C18 1_555 1_555
C23 C24 1_555 1_555
C29 C30 1_555 1_555
C35 C36 1_555 1_555
C41 C42 1_555 1_555
C47 C48 1_555 1_555
N2 C10B 1_555 1_555
C5B N1B 1_555 1_555
C7B N2B 1_555 1_555
C8B C9B 1_555 1_555
C35B C36B 1_555 1_555
C47B C48B 1_555 1_555
C41B C42B 1_555 1_555
C17B C18B 1_555 1_555
C29B C30B 1_555 1_555
C23B C24B 1_555 1_555

#END
