
#######################################################################
#
#                 Cambridge Crystallographic Data Centre
#                                CCDC 
#
#######################################################################
#
# If this CIF has been generated from an entry in the Cambridge 
# Structural Database, then it will include bibliographic, chemical, 
# crystal, experimental, refinement or atomic coordinate data resulting 
# from the CCDC's data processing and validation procedures.
#
#######################################################################

data_QAGLOZ
_chemical_name_common            Tetrabenzo(ab,f,jk,o)(18)annulene
_chemical_formula_moiety         'C32 H24'
_chemical_name_systematic        
(4E,10E,15E,21E)-Tetrabenzo(ab,f,jk,o)cyclo-octadecene
_symmetry_cell_setting           rhombohedral
_symmetry_space_group_name_H-M   'R -3'
_symmetry_Int_Tables_number      148
_space_group_name_Hall           '-R 3'
loop_
_symmetry_equiv_pos_site_id
_symmetry_equiv_pos_as_xyz
1 x,y,z
2 -y,x-y,z
3 -x+y,-x,z
4 2/3+x,1/3+y,1/3+z
5 2/3-y,1/3+x-y,1/3+z
6 2/3-x+y,1/3-x,1/3+z
7 1/3+x,2/3+y,2/3+z
8 2/3+y,1/3-x+y,1/3-z
9 2/3+x-y,1/3+x,1/3-z
10 -x,-y,-z
11 y,-x+y,-z
12 x-y,x,-z
13 1/3-x,2/3-y,2/3-z
14 1/3+y,2/3-x+y,2/3-z
15 1/3+x-y,2/3+x,2/3-z
16 2/3-x,1/3-y,1/3-z
17 1/3-y,2/3+x-y,2/3+z
18 1/3-x+y,2/3-x,2/3+z
_cell_length_a                   28.1031(12)
_cell_length_b                   28.1031(12)
_cell_length_c                   7.1509(4)
_cell_angle_alpha                90
_cell_angle_beta                 90
_cell_angle_gamma                120.00
_cell_volume                     4891.02
_exptl_crystal_colour            colorless
_exptl_crystal_description       needle
_chemical_melting_point          'above 300deg.C'
_cell_formula_units_Z            9
_exptl_crystal_recrystallization_method toluene
loop_
_atom_site_label
_atom_site_type_symbol
_atom_site_fract_x
_atom_site_fract_y
_atom_site_fract_z
C1 C 0.22021(9) 0.12794(9) 0.6826(3)
H1 H 0.2609 0.1393 0.6691
C2 C 0.19134(8) 0.09789(8) 0.8389(3)
C3 C 0.13503(9) 0.07956(9) 0.8483(3)
H2 H 0.1120 0.0606 0.9603
C4 C 0.10937(9) 0.09141(10) 0.7049(3)
H3 H 0.0670 0.0781 0.7213
C5 C 0.13848(9) 0.12093(9) 0.5510(3)
H4 H 0.1204 0.1291 0.4394
C6 C 0.19506(8) 0.14039(8) 0.5375(3)
C7 C 0.22582(9) 0.17061(9) 0.3710(3)
H5 H 0.2034 0.1662 0.2679
C8 C 0.28010(9) 0.20088(9) 0.3589(3)
H6 H 0.2984 0.2031 0.4740
C9 C 0.31179(9) 0.22758(8) 0.1894(3)
C10 C 0.28733(10) 0.23983(9) 0.0399(3)
H7 H 0.2506 0.2362 0.0686
C11 C 0.31518(10) 0.26170(9) -0.1243(3)
H8 H 0.2943 0.2664 -0.2307
C12 C 0.36834(10) 0.27164(9) -0.1461(3)
H9 H 0.3856 0.2891 -0.2685
C13 C 0.39388(9) 0.26124(9) 0.0008(3)
H10 H 0.4347 0.2721 -0.0080
C14 C 0.36695(9) 0.23987(8) 0.1703(3)
C15 C 0.39492(9) 0.22799(9) 0.3229(3)
H11 H 0.3705 0.2024 0.4210
C16 C 0.21817(9) 0.08428(9) 0.9906(3)
H12 H 0.1938 0.0575 1.0933
C16O C 0.44850(9) 0.24905(9) 0.3427(3)
C2O C 0.47533(8) 0.23544(8) 0.4944(3)
C1O C 0.44646(9) 0.20539(9) 0.6507(3)
H1O H 0.4058 0.1940 0.6642
C6O C 0.47161(8) 0.19294(8) 0.7958(3)
C5O C 0.52819(9) 0.21240(9) 0.7823(3)
C4O C 0.55730(9) 0.24192(10) 0.6284(3)
C3O C 0.53164(9) 0.25377(9) 0.4850(3)
H2O H 0.5547 0.2727 0.3730
H3O H 0.5997 0.2552 0.6120
H4O H 0.5463 0.2042 0.8939
C7O C 0.44085(9) 0.16272(9) 0.9623(3)
H5O H 0.4633 0.1671 1.0654
C8O C 0.38657(9) 0.13245(9) 0.9744(3)
H6O H 0.3683 0.1302 0.8593
C9O C 0.35488(9) 0.10575(8) 1.1439(3)
C10O C 0.37934(10) 0.09350(9) 1.2934(3)
H7O H 0.4161 0.0971 1.2647
C11O C 0.35149(10) 0.07163(9) 1.4576(3)
H8O H 0.3724 0.0669 1.5640
C12O C 0.29833(10) 0.06169(9) 1.4794(3)
H9O H 0.2811 0.0442 1.6018
C13O C 0.27279(9) 0.07209(9) 1.3325(3)
H10O H 0.2320 0.0612 1.3413
C14O C 0.29972(9) 0.09346(8) 1.1630(3)
C15O C 0.27175(9) 0.10534(9) 1.0104(3)
H11O H 0.2962 0.1309 0.9123
H12O H 0.4729 0.2758 0.2400
loop_
_geom_bond_atom_site_label_1
_geom_bond_atom_site_label_2
_geom_bond_site_symmetry_1
_geom_bond_site_symmetry_2
C1 H1 1_555 1_555
C2 C1 1_555 1_555
C3 C2 1_555 1_555
H2 C3 1_555 1_555
C4 C3 1_555 1_555
H3 C4 1_555 1_555
C5 C4 1_555 1_555
H4 C5 1_555 1_555
C6 C1 1_555 1_555
C7 C6 1_555 1_555
H5 C7 1_555 1_555
C8 C7 1_555 1_555
H6 C8 1_555 1_555
C9 C8 1_555 1_555
C10 C9 1_555 1_555
H7 C10 1_555 1_555
C11 C10 1_555 1_555
H8 C11 1_555 1_555
C12 C11 1_555 1_555
H9 C12 1_555 1_555
C13 C12 1_555 1_555
H10 C13 1_555 1_555
C14 C9 1_555 1_555
C15 C14 1_555 1_555
H11 C15 1_555 1_555
C16 C2 1_555 1_555
H12 C16 1_555 1_555
C16O C15 1_555 1_555
C2O C16O 1_555 1_555
C1O C2O 1_555 1_555
H1O C1O 1_555 1_555
C6O C1O 1_555 1_555
C5O C6O 1_555 1_555
C4O C5O 1_555 1_555
C3O C2O 1_555 1_555
H2O C3O 1_555 1_555
H3O C4O 1_555 1_555
H4O C5O 1_555 1_555
C7O C6O 1_555 1_555
H5O C7O 1_555 1_555
C8O C7O 1_555 1_555
H6O C8O 1_555 1_555
C9O C8O 1_555 1_555
C10O C9O 1_555 1_555
H7O C10O 1_555 1_555
C11O C10O 1_555 1_555
H8O C11O 1_555 1_555
C12O C11O 1_555 1_555
H9O C12O 1_555 1_555
C13O C12O 1_555 1_555
H10O C13O 1_555 1_555
C14O C9O 1_555 1_555
C15O C16 1_555 1_555
H11O C15O 1_555 1_555
H12O C16O 1_555 1_555
C5 C6 1_555 1_555
C13 C14 1_555 1_555
C4O C3O 1_555 1_555
C13O C14O 1_555 1_555
C14O C15O 1_555 1_555

#END
