
#######################################################################
#
#                 Cambridge Crystallographic Data Centre
#                                CCDC 
#
#######################################################################
#
# If this CIF has been generated from an entry in the Cambridge 
# Structural Database, then it will include bibliographic, chemical, 
# crystal, experimental, refinement or atomic coordinate data resulting 
# from the CCDC's data processing and validation procedures.
#
#######################################################################

data_QAGMOD
_chemical_formula_moiety         'C16 H17 Br1 O5'
_chemical_name_systematic        
"octahydro-3bH-furo[3',2':4,5]furo[2,3-c]pyran-4-yl 4-bromobenzoate"
_symmetry_cell_setting           monoclinic
_symmetry_space_group_name_H-M   'P 21'
_symmetry_Int_Tables_number      4
_space_group_name_Hall           'P 2yb'
loop_
_symmetry_equiv_pos_site_id
_symmetry_equiv_pos_as_xyz
1 x,y,z
2 -x,1/2+y,-z
_cell_length_a                   10.0764(11)
_cell_length_b                   15.9264(15)
_cell_length_c                   10.9239(10)
_cell_angle_alpha                90
_cell_angle_beta                 115.497(7)
_cell_angle_gamma                90
_cell_volume                     1582.34
_exptl_crystal_colour            colorless
_exptl_crystal_description       needle
_cell_formula_units_Z            4
loop_
_atom_site_label
_atom_site_type_symbol
_atom_site_fract_x
_atom_site_fract_y
_atom_site_fract_z
Br1 Br 0.60526(10) 0.70859(9) 0.89530(11)
O1 O -0.3018(7) 0.6537(4) 0.4486(7)
O2 O -0.2284(7) 0.8271(6) 0.3688(6)
O3 O -0.0939(6) 0.7143(4) 0.8532(5)
O4 O -0.1327(5) 0.7674(3) 0.6502(5)
O5 O -0.241(3) 0.9602(19) 0.326(5)
C1 C -0.2929(8) 0.7623(5) 0.6046(8)
C2 C -0.3391(10) 0.6741(5) 0.5560(10)
C3 C -0.3802(10) 0.7042(8) 0.3314(8)
C4 C -0.3653(9) 0.7967(6) 0.3604(8)
C5 C -0.1978(11) 0.9022(7) 0.4400(13)
C6 C -0.340(2) 1.0171(7) 0.3476(13)
C7 C -0.3981(12) 0.9835(7) 0.4424(12)
C8 C -0.2946(9) 0.9101(6) 0.5147(9)
C9 C -0.3686(7) 0.8241(4) 0.4895(7)
C10 C -0.0495(9) 0.7359(5) 0.7730(7)
C11 C 0.1086(8) 0.7314(5) 0.7988(7)
C12 C 0.1605(9) 0.7568(6) 0.7053(8)
C13 C 0.3067(9) 0.7518(6) 0.7337(8)
C14 C 0.4010(7) 0.7184(6) 0.8536(8)
C15 C 0.3564(9) 0.6902(5) 0.9496(8)
C16 C 0.2092(8) 0.6977(5) 0.9214(7)
H1 H -0.3179 0.7754 0.6816
H2 H -0.4463 0.8262 0.2837
H3 H -0.0972 0.8930 0.5146
H4 H -0.2355 0.9214 0.6137
H5 H -0.4733 0.8311 0.4743
H6 H 0.0930 0.7781 0.6198
H7 H 0.3412 0.7715 0.6704
H8 H 0.4248 0.6665 1.0326
H9 H -0.5006 0.9637 0.3920
H10 H -0.3951 1.0270 0.5083
H11 H 0.1763 0.6796 0.9866
H12 H -0.2900 0.6345 0.6321
H13 H -0.4466 0.6685 0.5245
H14 H -0.4857 0.6889 0.2924
H15 H -0.3437 0.6916 0.2625
H16 H -0.3938 0.9935 0.2553
H17 H -0.3459 1.0791 0.3425
O6? O -0.197(4) 0.991(3) 0.405(5)
O7? O 0.245(10) 0.709(10) 1.381(4)
O8? O 0.1252(12) 1.0172(5) 1.2669(9)
O9? O 0.2563(6) 0.8401(5) 1.3400(6)
O10? O 0.0974(5) 0.9117(3) 1.0576(5)
O11? O -0.0530(7) 0.9650(5) 0.8562(6)
O12? O 0.2588(15) 0.6982(11) 1.334(3)
C17? C -0.0179(9) 0.9177(5) 1.1015(8)
C18? C -0.0100(13) 1.0056(6) 1.1577(12)
C19? C 0.1489(15) 0.9672(8) 1.3798(10)
C20? C 0.1279(10) 0.8741(6) 1.3467(8)
C21? C 0.2159(10) 0.7697(6) 1.2626(11)
C22? C 0.1425(19) 0.6535(9) 1.3294(19)
C23? C 0.0021(11) 0.6922(6) 1.2329(13)
C24? C 0.0514(9) 0.7679(5) 1.1778(9)
C25? C 0.0043(8) 0.8535(5) 1.2098(7)
C26? C 0.0691(8) 0.9443(5) 0.9364(8)
C27? C 0.1995(8) 0.9485(5) 0.9106(7)
C28? C 0.1851(9) 0.9854(6) 0.7898(7)
C29? C 0.3052(10) 0.9938(6) 0.7622(7)
C30? C 0.4434(9) 0.9700(6) 0.8580(8)
C31? C 0.4596(8) 0.9373(6) 0.9779(8)
C32? C 0.3407(10) 0.9270(6) 1.0040(7)
H18? H -0.1156 0.9089 1.0225
H19? H 0.1107 0.8443 1.4192
H20? H 0.2750 0.7581 1.2108
H21? H 0.0254 0.7617 1.0789
H22? H -0.0893 0.8468 1.2197
H23? H 0.0916 1.0050 0.7262
H24? H 0.2936 1.0158 0.6773
H25? H 0.5545 0.9216 1.0439
H26? H -0.0582 0.7098 1.2799
H27? H -0.0556 0.6526 1.1592
H28? H 0.3544 0.9042 1.0890
H29? H -0.0234 1.0475 1.0864
H30? H -0.0895 1.0135 1.1869
H31? H 0.0800 0.9847 1.4178
H32? H 0.2502 0.9766 1.4503
H33? H 0.1273 0.6254 1.4032
H34? H 0.1730 0.6103 1.2815
loop_
_geom_bond_atom_site_label_1
_geom_bond_atom_site_label_2
_geom_bond_site_symmetry_1
_geom_bond_site_symmetry_2
Br1 C14 1_555 1_555
O1 C2 1_555 1_555
O2 C4 1_555 1_555
O3 C10 1_555 1_555
O4 C1 1_555 1_555
O5 C5 1_555 1_555
C1 C2 1_555 1_555
C2 H12 1_555 1_555
C3 O1 1_555 1_555
C4 C3 1_555 1_555
C5 O2 1_555 1_555
C6 O5 1_555 1_555
C7 C6 1_555 1_555
C8 C5 1_555 1_555
C9 C1 1_555 1_555
C10 O4 1_555 1_555
C11 C10 1_555 1_555
C12 C11 1_555 1_555
C13 C12 1_555 1_555
C14 C13 1_555 1_555
C15 C14 1_555 1_555
C16 C11 1_555 1_555
H1 C1 1_555 1_555
H2 C4 1_555 1_555
H3 C5 1_555 1_555
H4 C8 1_555 1_555
H5 C9 1_555 1_555
H6 C12 1_555 1_555
H7 C13 1_555 1_555
H8 C15 1_555 1_555
H9 C7 1_555 1_555
H10 C7 1_555 1_555
H11 C16 1_555 1_555
H13 C2 1_555 1_555
H14 C3 1_555 1_555
H15 C3 1_555 1_555
H16 C6 1_555 1_555
H17 C6 1_555 1_555
C4 C9 1_555 1_555
C7 C8 1_555 1_555
C8 C9 1_555 1_555
C15 C16 1_555 1_555

#END
