
#######################################################################
#
#                 Cambridge Crystallographic Data Centre
#                                CCDC 
#
#######################################################################
#
# If this CIF has been generated from an entry in the Cambridge 
# Structural Database, then it will include bibliographic, chemical, 
# crystal, experimental, refinement or atomic coordinate data resulting 
# from the CCDC's data processing and validation procedures.
#
#######################################################################

data_QAGPIZ
_chemical_formula_moiety         'C52 H60 N10'
_chemical_name_systematic        
3,4-bis(dicyanomethylene)-2,5-bis(4-(dihexylamino)phenyl)hexa-1,5-diene-1,1,6,6-tetracarbonitrile
_symmetry_cell_setting           monoclinic
_symmetry_space_group_name_H-M   'P 21/c'
_symmetry_Int_Tables_number      14
_space_group_name_Hall           '-P 2ybc'
loop_
_symmetry_equiv_pos_site_id
_symmetry_equiv_pos_as_xyz
1 x,y,z
2 -x,1/2+y,1/2-z
3 -x,-y,-z
4 x,1/2-y,1/2+z
_cell_length_a                   14.1265(2)
_cell_length_b                   21.8947(4)
_cell_length_c                   15.3826(3)
_cell_angle_alpha                90
_cell_angle_beta                 93.6655(9)
_cell_angle_gamma                90
_cell_volume                     4748.04
_exptl_crystal_colour            red
_exptl_crystal_description       needle
_cell_formula_units_Z            4
loop_
_atom_site_label
_atom_site_type_symbol
_atom_site_fract_x
_atom_site_fract_y
_atom_site_fract_z
N1 N 0.92768(16) -0.07716(11) 0.84371(13)
N2 N 0.97820(13) -0.07232(10) 0.56621(12)
N3 N 0.71013(17) -0.17067(10) 0.61771(13)
N4 N 0.62995(14) -0.07122(10) 0.37848(12)
N5 N 0.85688(14) -0.04067(10) 0.36240(12)
N6 N 0.80847(13) 0.15602(9) 0.38540(11)
N7 N 0.56114(16) 0.21666(11) 0.61907(14)
N8 N 0.52387(13) 0.06226(9) 0.45166(12)
N9 N 0.53479(12) 0.09172(9) 0.89814(11)
N10 N 1.02137(11) 0.21486(8) 0.79016(10)
C1 C 0.86715(13) -0.04561(9) 0.68840(12)
C2 C 0.77949(13) -0.02055(9) 0.66994(12)
C3 C 0.74624(13) -0.01703(9) 0.57506(11)
C4 C 0.75679(12) 0.04256(9) 0.53184(11)
C5 C 0.73060(13) 0.09923(9) 0.58009(11)
C6 C 0.63857(13) 0.11872(9) 0.56214(12)
C7 C 0.90099(15) -0.06182(11) 0.77511(14)
C8 C 0.92884(14) -0.06088(10) 0.62066(13)
C9 C 0.70741(13) -0.06744(9) 0.53551(12)
C10 C 0.70707(16) -0.12482(10) 0.58189(13)
C11 C 0.66409(14) -0.06869(10) 0.44781(13)
C12 C 0.79428(13) 0.04862(9) 0.45291(12)
C13 C 0.82975(14) -0.00154(10) 0.40332(12)
C14 C 0.80324(13) 0.10840(10) 0.41529(12)
C15 C 0.59784(15) 0.17287(11) 0.59547(13)
C16 C 0.57554(14) 0.08618(10) 0.50141(12)
C17 C 0.71697(13) 0.00431(9) 0.73168(12)
C18 C 0.75231(14) 0.03209(9) 0.80992(12)
C19 C 0.69348(14) 0.06063(10) 0.86449(12)
C20 C 0.59369(14) 0.06178(9) 0.84576(12)
C21 C 0.55803(13) 0.03136(10) 0.76914(12)
C22 C 0.61798(13) 0.00507(9) 0.71325(12)
C23 C 0.57271(16) 0.13220(11) 0.96847(13)
C24 C 0.61302(16) 0.19162(11) 0.93360(15)
C25 C 0.54218(16) 0.22931(11) 0.87779(16)
C26 C 0.58834(16) 0.28469(11) 0.83826(16)
C27 C 0.52037(17) 0.32454(12) 0.78150(16)
C28 C 0.57017(19) 0.37541(13) 0.73602(18)
C29 C 0.43127(15) 0.08654(12) 0.88284(15)
C30 C 0.39478(17) 0.02468(13) 0.91601(16)
C31 C 0.29420(18) 0.00868(13) 0.88273(17)
C32 C 0.21804(17) 0.04831(14) 0.91665(17)
C33 C 0.11691(17) 0.02903(14) 0.88381(17)
C34 C 0.04286(16) 0.06980(12) 0.91843(16)
C35 C 0.80293(13) 0.12683(9) 0.63724(11)
C36 C 0.78304(13) 0.17050(9) 0.70203(12)
C37 C 0.85300(14) 0.19829(9) 0.75345(12)
C38 C 0.95068(14) 0.18518(9) 0.74372(12)
C39 C 0.97089(13) 0.13875(9) 0.68288(12)
C40 C 0.89965(14) 0.11132(9) 0.63212(12)
C41 C 1.12170(14) 0.20242(10) 0.77650(13)
C42 C 1.15475(14) 0.23544(11) 0.69624(13)
C43 C 1.26009(15) 0.22580(11) 0.68432(14)
C44 C 1.28781(18) 0.24489(14) 0.59392(16)
C45 C 1.26612(18) 0.31094(14) 0.56818(15)
C46 C 1.3189(2) 0.35780(15) 0.62517(19)
C47 C 1.00500(15) 0.26833(10) 0.84568(12)
C48 C 1.00519(15) 0.25277(10) 0.94266(12)
C49 C 0.92118(15) 0.21321(10) 0.96600(13)
C50 C 0.92306(15) 0.19685(10) 1.06237(13)
C51 C 0.84411(17) 0.15308(11) 1.08265(13)
C52 C 0.84093(17) 0.13904(11) 1.17944(13)
H1 H 0.8206 0.0309 0.8256
H2 H 0.7207 0.0806 0.9174
H3 H 0.4893 0.0291 0.7559
H4 H 0.5913 -0.0136 0.6592
H5 H 0.6279 0.1085 1.0068
H6 H 0.5168 0.1430 1.0107
H7 H 0.6396 0.2191 0.9881
H8 H 0.6723 0.1806 0.8955
H9 H 0.4861 0.2444 0.9172
H10 H 0.5108 0.2010 0.8261
H11 H 0.6445 0.2692 0.7993
H12 H 0.6202 0.3124 0.8903
H13 H 0.4832 0.2962 0.7331
H14 H 0.4684 0.3442 0.8218
H15 H 0.5185 0.4023 0.6980
H16 H 0.6203 0.3561 0.6936
H17 H 0.6073 0.4042 0.7840
H18 H 0.4124 0.0907 0.8140
H19 H 0.3975 0.1233 0.9159
H20 H 0.4419 -0.0110 0.8968
H21 H 0.3979 0.0257 0.9863
H22 H 0.2898 0.0115 0.8125
H23 H 0.2803 -0.0381 0.9000
H24 H 0.2298 0.0950 0.8972
H25 H 0.2234 0.0468 0.9870
H26 H 0.1111 0.0304 0.8135
H27 H 0.1044 -0.0174 0.9037
H28 H -0.0265 0.0555 0.8925
H29 H 0.0555 0.1164 0.8991
H30 H 0.0462 0.0669 0.9886
H31 H 0.7168 0.1811 0.7102
H32 H 0.8357 0.2277 0.7977
H33 H 1.0368 0.1262 0.6771
H34 H 0.9164 0.0797 0.5907
H35 H 1.1315 0.1538 0.7688
H36 H 1.1648 0.2168 0.8333
H37 H 1.1142 0.2191 0.6391
H38 H 1.1411 0.2837 0.7023
H39 H 1.2772 0.1782 0.6944
H40 H 1.3011 0.2519 0.7329
H41 H 1.3630 0.2373 0.5904
H42 H 1.2516 0.2153 0.5464
H43 H 1.2838 0.3177 0.5016
H44 H 1.1909 0.3187 0.5708
H45 H 1.3021 0.4031 0.6010
H46 H 1.3943 0.3501 0.6239
H47 H 1.2980 0.3537 0.6912
H48 H 0.9375 0.2886 0.8251
H49 H 1.0595 0.3019 0.8364
H50 H 1.0702 0.2291 0.9619
H51 H 1.0043 0.2947 0.9795
H52 H 0.8561 0.2373 0.9481
H53 H 0.9212 0.1716 0.9283
H54 H 0.9906 0.1763 1.0818
H55 H 0.9164 0.2381 1.1000
H56 H 0.8534 0.1109 1.0478
H57 H 0.7770 0.1725 1.0593
H58 H 0.7880 0.1045 1.1886
H59 H 0.8231 0.1800 1.2138
H60 H 0.9095 0.1227 1.2044
loop_
_geom_bond_atom_site_label_1
_geom_bond_atom_site_label_2
_geom_bond_site_symmetry_1
_geom_bond_site_symmetry_2
N1 C7 1_555 1_555
N2 C8 1_555 1_555
N3 C10 1_555 1_555
N4 C11 1_555 1_555
N5 C13 1_555 1_555
N6 C14 1_555 1_555
N7 C15 1_555 1_555
N8 C16 1_555 1_555
N9 C20 1_555 1_555
N10 C38 1_555 1_555
C1 C2 1_555 1_555
C2 C3 1_555 1_555
C3 C4 1_555 1_555
C4 C5 1_555 1_555
C5 C6 1_555 1_555
C6 C15 1_555 1_555
C7 C1 1_555 1_555
C8 C1 1_555 1_555
C9 C3 1_555 1_555
C10 C9 1_555 1_555
C11 C9 1_555 1_555
C12 C4 1_555 1_555
C13 C12 1_555 1_555
C14 C12 1_555 1_555
C16 C6 1_555 1_555
C17 C2 1_555 1_555
C18 C17 1_555 1_555
C19 C18 1_555 1_555
C20 C19 1_555 1_555
C21 C20 1_555 1_555
C22 C17 1_555 1_555
C23 N9 1_555 1_555
C24 C23 1_555 1_555
C25 C24 1_555 1_555
C26 C25 1_555 1_555
C27 C26 1_555 1_555
C28 C27 1_555 1_555
C29 N9 1_555 1_555
C30 C29 1_555 1_555
C31 C30 1_555 1_555
C32 C31 1_555 1_555
C33 C32 1_555 1_555
C34 C33 1_555 1_555
C35 C5 1_555 1_555
C36 C35 1_555 1_555
C37 C36 1_555 1_555
C38 C37 1_555 1_555
C39 C38 1_555 1_555
C40 C35 1_555 1_555
C41 N10 1_555 1_555
C42 C41 1_555 1_555
C43 C42 1_555 1_555
C44 C43 1_555 1_555
C45 C44 1_555 1_555
C46 C45 1_555 1_555
C47 N10 1_555 1_555
C48 C47 1_555 1_555
C49 C48 1_555 1_555
C50 C49 1_555 1_555
C51 C50 1_555 1_555
C52 C51 1_555 1_555
H1 C18 1_555 1_555
H2 C19 1_555 1_555
H3 C21 1_555 1_555
H4 C22 1_555 1_555
H5 C23 1_555 1_555
H6 C23 1_555 1_555
H7 C24 1_555 1_555
H8 C24 1_555 1_555
H9 C25 1_555 1_555
H10 C25 1_555 1_555
H11 C26 1_555 1_555
H12 C26 1_555 1_555
H13 C27 1_555 1_555
H14 C27 1_555 1_555
H15 C28 1_555 1_555
H16 C28 1_555 1_555
H17 C28 1_555 1_555
H18 C29 1_555 1_555
H19 C29 1_555 1_555
H20 C30 1_555 1_555
H21 C30 1_555 1_555
H22 C31 1_555 1_555
H23 C31 1_555 1_555
H24 C32 1_555 1_555
H25 C32 1_555 1_555
H26 C33 1_555 1_555
H27 C33 1_555 1_555
H28 C34 1_555 1_555
H29 C34 1_555 1_555
H30 C34 1_555 1_555
H31 C36 1_555 1_555
H32 C37 1_555 1_555
H33 C39 1_555 1_555
H34 C40 1_555 1_555
H35 C41 1_555 1_555
H36 C41 1_555 1_555
H37 C42 1_555 1_555
H38 C42 1_555 1_555
H39 C43 1_555 1_555
H40 C43 1_555 1_555
H41 C44 1_555 1_555
H42 C44 1_555 1_555
H43 C45 1_555 1_555
H44 C45 1_555 1_555
H45 C46 1_555 1_555
H46 C46 1_555 1_555
H47 C46 1_555 1_555
H48 C47 1_555 1_555
H49 C47 1_555 1_555
H50 C48 1_555 1_555
H51 C48 1_555 1_555
H52 C49 1_555 1_555
H53 C49 1_555 1_555
H54 C50 1_555 1_555
H55 C50 1_555 1_555
H56 C51 1_555 1_555
H57 C51 1_555 1_555
H58 C52 1_555 1_555
H59 C52 1_555 1_555
H60 C52 1_555 1_555
C21 C22 1_555 1_555
C39 C40 1_555 1_555

#END
