
#######################################################################
#
#                 Cambridge Crystallographic Data Centre
#                                CCDC 
#
#######################################################################
#
# If this CIF has been generated from an entry in the Cambridge 
# Structural Database, then it will include bibliographic, chemical, 
# crystal, experimental, refinement or atomic coordinate data resulting 
# from the CCDC's data processing and validation procedures.
#
#######################################################################

data_QAHFAJ
_chemical_formula_moiety         'C14 H20 O3 S1'
_chemical_name_systematic        '4-methylcyclohexyl 4-methylbenzenesulfonate'
_symmetry_cell_setting           monoclinic
_symmetry_space_group_name_H-M   'P 21/c'
_symmetry_Int_Tables_number      14
_space_group_name_Hall           '-P 2ybc'
loop_
_symmetry_equiv_pos_site_id
_symmetry_equiv_pos_as_xyz
1 x,y,z
2 -x,1/2+y,1/2-z
3 -x,-y,-z
4 x,1/2-y,1/2+z
_cell_length_a                   11.390(2)
_cell_length_b                   10.9935(18)
_cell_length_c                   12.5613(19)
_cell_angle_alpha                90
_cell_angle_beta                 113.790(9)
_cell_angle_gamma                90
_cell_volume                     1439.23
_exptl_crystal_colour            colorless
_exptl_crystal_description       needle
_cell_formula_units_Z            4
loop_
_atom_site_label
_atom_site_type_symbol
_atom_site_fract_x
_atom_site_fract_y
_atom_site_fract_z
S1 S 0.21794(7) 0.40952(6) 0.43539(5)
O1 O 0.33075(16) 0.38628(14) 0.55667(13)
O2 O 0.2587(2) 0.38475(19) 0.34409(16)
O3 O 0.1735(2) 0.52791(17) 0.44614(18)
C1 C 0.4404(3) 0.2253(2) 0.6879(2)
H1 H 0.3592 0.1980 0.6914
H2 H 0.4795 0.2877 0.7488
C2 C 0.5313(3) 0.1179(3) 0.7097(3)
H3 H 0.5518 0.0857 0.7888
H4 H 0.4878 0.0526 0.6533
C3 C 0.6544(3) 0.1515(3) 0.6987(2)
H5 H 0.6994 0.2131 0.7602
C4 C 0.6252(3) 0.2108(3) 0.5822(3)
H6 H 0.5870 0.1494 0.5200
H7 H 0.7064 0.2391 0.5794
C5 C 0.5332(3) 0.3185(3) 0.5586(3)
H8 H 0.5748 0.3847 0.6146
H9 H 0.5118 0.3500 0.4791
C6 C 0.4134(2) 0.2788(2) 0.5703(2)
H10 H 0.3672 0.2178 0.5085
C7 C 0.7438(3) 0.0438(3) 0.7188(3)
H11 H 0.7639 0.0101 0.7965
H12 H 0.8231 0.0703 0.7131
H13 H 0.7021 -0.0187 0.6600
C8 C 0.1017(2) 0.3018(2) 0.42833(18)
C9 C 0.0655(3) 0.2116(3) 0.3445(2)
H14 H 0.1055 0.2058 0.2913
C10 C -0.0284(3) 0.1308(3) 0.3385(2)
H15 H -0.0529 0.0692 0.2806
C11 C -0.0887(2) 0.1364(2) 0.4146(2)
C12 C -0.0512(3) 0.2275(3) 0.4980(2)
H16 H -0.0909 0.2330 0.5513
C13 C 0.0425(3) 0.3102(3) 0.5051(2)
H17 H 0.0663 0.3726 0.5623
C14 C -0.1925(3) 0.0476(3) 0.4064(3)
H18 H -0.1995 -0.0150 0.3486
H19 H -0.2744 0.0908 0.3829
H20 H -0.1712 0.0093 0.4824
loop_
_geom_bond_atom_site_label_1
_geom_bond_atom_site_label_2
_geom_bond_site_symmetry_1
_geom_bond_site_symmetry_2
S1 O1 1_555 1_555
O1 C6 1_555 1_555
O2 S1 1_555 1_555
O3 S1 1_555 1_555
C1 H1 1_555 1_555
H2 C1 1_555 1_555
C2 C1 1_555 1_555
H3 C2 1_555 1_555
H4 C2 1_555 1_555
C3 C2 1_555 1_555
H5 C3 1_555 1_555
C4 C3 1_555 1_555
H6 C4 1_555 1_555
H7 C4 1_555 1_555
C5 C4 1_555 1_555
H8 C5 1_555 1_555
H9 C5 1_555 1_555
C6 C1 1_555 1_555
H10 C6 1_555 1_555
C7 C3 1_555 1_555
H11 C7 1_555 1_555
H12 C7 1_555 1_555
H13 C7 1_555 1_555
C8 S1 1_555 1_555
C9 C8 1_555 1_555
H14 C9 1_555 1_555
C10 C9 1_555 1_555
H15 C10 1_555 1_555
C11 C10 1_555 1_555
C12 C11 1_555 1_555
H16 C12 1_555 1_555
C13 C8 1_555 1_555
H17 C13 1_555 1_555
C14 C11 1_555 1_555
H18 C14 1_555 1_555
H19 C14 1_555 1_555
H20 C14 1_555 1_555
C5 C6 1_555 1_555
C12 C13 1_555 1_555

#END
