
#######################################################################
#
#                 Cambridge Crystallographic Data Centre
#                                CCDC 
#
#######################################################################
#
# If this CIF has been generated from an entry in the Cambridge 
# Structural Database, then it will include bibliographic, chemical, 
# crystal, experimental, refinement or atomic coordinate data resulting 
# from the CCDC's data processing and validation procedures.
#
#######################################################################

data_QAHFEM
_chemical_formula_moiety         'C23 H18 Br1 N1 O1'
_chemical_name_systematic        
2-(5-Bromo-1-methyl-1H-indol-3-yl)-1,2-diphenylethanone
_symmetry_cell_setting           triclinic
_symmetry_space_group_name_H-M   'P 1'
_symmetry_Int_Tables_number      1
_space_group_name_Hall           'P 1'
loop_
_symmetry_equiv_pos_site_id
_symmetry_equiv_pos_as_xyz
1 x,y,z
_cell_length_a                   9.2830(2)
_cell_length_b                   10.0796(2)
_cell_length_c                   11.2161(2)
_cell_angle_alpha                64.9030(10)
_cell_angle_beta                 82.9700(10)
_cell_angle_gamma                75.7590(10)
_cell_volume                     920.997
_exptl_crystal_colour            colorless
_exptl_crystal_description       prism
_cell_formula_units_Z            2
loop_
_atom_site_label
_atom_site_type_symbol
_atom_site_fract_x
_atom_site_fract_y
_atom_site_fract_z
Br1 Br 0.42354(3) -0.12390(3) 0.56683(3)
C1 C 0.3707(5) 0.1566(5) 0.9659(4)
H1 H 0.4021 0.2035 0.8791
C2 C 0.4740(5) 0.0904(6) 1.0673(5)
H2 H 0.5739 0.0921 1.0471
C3 C 0.4286(5) 0.0229(5) 1.1963(5)
H3 H 0.4972 -0.0207 1.2634
C4 C 0.2786(5) 0.0205(5) 1.2253(4)
H4 H 0.2467 -0.0245 1.3123
C5 C 0.1767(5) 0.0851(5) 1.1249(4)
H5 H 0.0768 0.0833 1.1450
C6 C 0.2225(5) 0.1526(5) 0.9945(4)
C7 C 0.1091(4) 0.2127(4) 0.8852(4)
H6 H 0.0823 0.1255 0.8832
C8 C -0.0344(4) 0.3113(4) 0.9096(3)
C9 C -0.1695(4) 0.3309(4) 0.8388(4)
C10 C -0.1886(5) 0.2323(5) 0.7875(4)
H7 H -0.1146 0.1474 0.7975
C11 C -0.3167(5) 0.2597(5) 0.7217(5)
H8 H -0.3283 0.1934 0.6878
C12 C -0.4289(5) 0.3873(5) 0.7061(5)
H9 H -0.5150 0.4056 0.6619
C13 C -0.4113(5) 0.4858(5) 0.7566(4)
H10 H -0.4855 0.5707 0.7461
C14 C -0.2833(4) 0.4582(4) 0.8228(4)
H11 H -0.2724 0.5246 0.8570
C15 C 0.1483(4) 0.4538(4) 0.6831(4)
H12 H 0.1013 0.5229 0.7177
C16 C 0.2168(5) 0.6404(5) 0.4619(4)
H13 H 0.3186 0.6479 0.4398
H14 H 0.1689 0.7123 0.4972
H15 H 0.1666 0.6603 0.3842
C17 C 0.2680(4) 0.3608(5) 0.5418(4)
C18 C 0.3414(5) 0.3401(5) 0.4318(4)
H16 H 0.3594 0.4208 0.3554
C19 C 0.3858(5) 0.1944(5) 0.4422(5)
H17 H 0.4336 0.1757 0.3713
C20 C 0.3592(5) 0.0756(5) 0.5584(4)
C21 C 0.2887(5) 0.0922(5) 0.6690(4)
H18 H 0.2734 0.0103 0.7454
C22 C 0.2419(4) 0.2395(5) 0.6589(4)
C23 C 0.1640(4) 0.3006(4) 0.7493(4)
N1 N 0.2112(4) 0.4908(4) 0.5591(4)
O1 O -0.0372(3) 0.3794(3) 0.9768(3)
Br2 Br -0.20531(3) 1.03514(3) 0.29084(3)
C24 C 0.6218(5) 0.4887(6) 0.1784(5)
H19 H 0.7138 0.4384 0.2171
C25 C 0.5509(5) 0.4229(5) 0.1229(4)
H20 H 0.5967 0.3303 0.1219
C26 C 0.4109(4) 0.4960(5) 0.0685(4)
H21 H 0.3616 0.4499 0.0347
C27 C 0.3449(4) 0.6369(5) 0.0645(4)
C28 C 0.4190(4) 0.7043(5) 0.1180(4)
H22 H 0.3761 0.7995 0.1144
C29 C 0.5564(5) 0.6293(6) 0.1764(5)
H23 H 0.6041 0.6730 0.2139
C30 C 0.1989(4) 0.7249(4) 0.0027(3)
C31 C 0.0836(4) 0.6401(4) -0.0008(4)
H24 H 0.1377 0.5556 -0.0215
C32 C -0.0273(5) 0.7383(5) -0.1097(4)
C33 C 0.0254(5) 0.7965(5) -0.2392(4)
H25 H 0.1273 0.7787 -0.2563
C34 C -0.0710(6) 0.8808(5) -0.3434(4)
H26 H -0.0336 0.9187 -0.4293
C35 C -0.2231(6) 0.9085(5) -0.3192(5)
H27 H -0.2883 0.9643 -0.3885
C36 C -0.2774(5) 0.8518(5) -0.1898(5)
H28 H -0.3792 0.8705 -0.1725
C37 C -0.1793(5) 0.7675(5) -0.0867(4)
H29 H -0.2164 0.7302 -0.0007
C38 C 0.0224(4) 0.5755(4) 0.1369(4)
C39 C 0.0327(4) 0.4262(4) 0.2132(4)
H30 H 0.0750 0.3504 0.1851
C40 C -0.0479(4) 0.6518(5) 0.2208(4)
C41 C -0.0889(5) 0.8029(5) 0.2021(4)
H31 H -0.0721 0.8796 0.1220
C42 C -0.1553(4) 0.8328(5) 0.3077(5)
C43 C -0.1850(5) 0.7207(5) 0.4298(4)
H32 H -0.2307 0.7470 0.4976
C44 C -0.1462(5) 0.5718(5) 0.4493(4)
H33 H -0.1646 0.4960 0.5295
C45 C -0.0784(5) 0.5395(5) 0.3437(4)
C46 C -0.0361(4) 0.2572(5) 0.4413(4)
H34 H 0.0138 0.1793 0.4136
H35 H -0.1385 0.2515 0.4616
H36 H 0.0106 0.2449 0.5183
N2 N -0.0271(4) 0.4024(4) 0.3363(3)
O2 O 0.1678(3) 0.8611(3) -0.0375(3)
loop_
_geom_bond_atom_site_label_1
_geom_bond_atom_site_label_2
_geom_bond_site_symmetry_1
_geom_bond_site_symmetry_2
Br1 C20 1_555 1_555
Br2 C42 1_555 1_555
C1 H1 1_555 1_555
C2 C1 1_555 1_555
H2 C2 1_555 1_555
C3 C2 1_555 1_555
H3 C3 1_555 1_555
C4 C3 1_555 1_555
H4 C4 1_555 1_555
C5 C4 1_555 1_555
H5 C5 1_555 1_555
C6 C1 1_555 1_555
C7 C6 1_555 1_555
H6 C7 1_555 1_555
C8 C7 1_555 1_555
C9 C8 1_555 1_555
C10 C9 1_555 1_555
H7 C10 1_555 1_555
C11 C10 1_555 1_555
H8 C11 1_555 1_555
C12 C11 1_555 1_555
H9 C12 1_555 1_555
C13 C12 1_555 1_555
H10 C13 1_555 1_555
C14 C9 1_555 1_555
H11 C14 1_555 1_555
C15 H12 1_555 1_555
C16 H13 1_555 1_555
H14 C16 1_555 1_555
H15 C16 1_555 1_555
C17 C18 1_555 1_555
C18 H16 1_555 1_555
C19 C18 1_555 1_555
H17 C19 1_555 1_555
C20 C19 1_555 1_555
C21 C20 1_555 1_555
H18 C21 1_555 1_555
C22 C17 1_555 1_555
C23 C7 1_555 1_555
C24 H19 1_555 1_555
C25 C24 1_555 1_555
H20 C25 1_555 1_555
C26 C25 1_555 1_555
H21 C26 1_555 1_555
C27 C26 1_555 1_555
C28 C27 1_555 1_555
H22 C28 1_555 1_555
C29 C24 1_555 1_555
H23 C29 1_555 1_555
C30 C27 1_555 1_555
C31 C30 1_555 1_555
H24 C31 1_555 1_555
C32 C31 1_555 1_555
C33 C32 1_555 1_555
H25 C33 1_555 1_555
C34 C33 1_555 1_555
H26 C34 1_555 1_555
C35 C34 1_555 1_555
H27 C35 1_555 1_555
C36 C35 1_555 1_555
H28 C36 1_555 1_555
C37 C32 1_555 1_555
H29 C37 1_555 1_555
C38 C31 1_555 1_555
C39 C38 1_555 1_555
H30 C39 1_555 1_555
C40 C38 1_555 1_555
C41 C40 1_555 1_555
H31 C41 1_555 1_555
C42 C41 1_555 1_555
C43 C42 1_555 1_555
H32 C43 1_555 1_555
C44 C43 1_555 1_555
H33 C44 1_555 1_555
C45 C40 1_555 1_555
C46 H34 1_555 1_555
H35 C46 1_555 1_555
H36 C46 1_555 1_555
N1 C15 1_555 1_555
N2 C39 1_555 1_555
O1 C8 1_555 1_555
O2 C30 1_555 1_555
C5 C6 1_555 1_555
C13 C14 1_555 1_555
C15 C23 1_555 1_555
C16 N1 1_555 1_555
C17 N1 1_555 1_555
C21 C22 1_555 1_555
C22 C23 1_555 1_555
C28 C29 1_555 1_555
C36 C37 1_555 1_555
C44 C45 1_555 1_555
C45 N2 1_555 1_555
C46 N2 1_555 1_555

#END
