
#######################################################################
#
#                 Cambridge Crystallographic Data Centre
#                                CCDC 
#
#######################################################################
#
# If this CIF has been generated from an entry in the Cambridge 
# Structural Database, then it will include bibliographic, chemical, 
# crystal, experimental, refinement or atomic coordinate data resulting 
# from the CCDC's data processing and validation procedures.
#
#######################################################################

data_QAHMIY
_chemical_formula_moiety         'C38 H36 N10 O2 2+,2(F6 P1 1-),C2 H3 N1'
_chemical_name_systematic        
'15,22-diformyl-3,12,15,22,25,34,42,45-octaaza-6,31-diazoniaheptacyclo[34.2.2.2^17,20^.1^3,6^.1^7,11^.1^26,30^.1^31,34^]hexatetraconta-1(38),4,6(46),7(45),8,10,13,17,19,23,26(42),27,29,31(41),32,36,39,43-octadecaene bis(hexafluorophosphate) acetonitrile solvate'
_symmetry_cell_setting           monoclinic
_symmetry_space_group_name_H-M   'P 21/n'
_symmetry_Int_Tables_number      14
_space_group_name_Hall           '-P 2yn'
loop_
_symmetry_equiv_pos_site_id
_symmetry_equiv_pos_as_xyz
1 x,y,z
2 1/2-x,1/2+y,1/2-z
3 -x,-y,-z
4 1/2+x,1/2-y,1/2+z
_cell_length_a                   11.353(2)
_cell_length_b                   20.065(4)
_cell_length_c                   19.117(4)
_cell_angle_alpha                90
_cell_angle_beta                 98.58(3)
_cell_angle_gamma                90
_cell_volume                     4306.08
_exptl_crystal_colour            yellow
_exptl_crystal_description       Prism
_cell_formula_units_Z            4
loop_
_atom_site_label
_atom_site_type_symbol
_atom_site_fract_x
_atom_site_fract_y
_atom_site_fract_z
P1 P -0.01801(10) 0.38984(6) 0.65108(7)
F1 F -0.0724(3) 0.33097(17) 0.6013(2)
F2 F 0.0370(3) 0.44961(18) 0.6972(2)
F3 F -0.1469(4) 0.4213(3) 0.6475(3)
F4 F 0.0018(5) 0.4355(3) 0.5856(3)
F5 F 0.1086(7) 0.3562(4) 0.6525(5)
F6 F -0.0461(5) 0.3430(2) 0.7124(3)
P2 P 0.74462(12) 0.59783(7) 0.97405(7)
F11 F 0.7173(3) 0.5899(2) 0.89167(16)
F12 F 0.7732(4) 0.6049(2) 1.05801(18)
F13 F 0.7330(3) 0.67587(16) 0.9667(2)
F14 F 0.8837(3) 0.60157(18) 0.9692(2)
F15 F 0.7569(3) 0.51937(15) 0.98350(18)
F16 F 0.6063(3) 0.59321(16) 0.97934(17)
N1 N 0.1672(3) 0.21289(16) 0.51905(17)
N2 N 0.3451(3) 0.22485(16) 0.57726(16)
N3 N 0.4174(3) 0.30337(16) 0.66210(17)
N4 N 0.4788(3) 0.38611(17) 0.74439(17)
H1 H 0.5355 0.4091 0.7677
N5 N 0.3883(3) 0.47786(16) 0.85383(18)
N6 N 0.3652(3) 0.73969(17) 0.61717(18)
N7 N 0.4897(3) 0.64125(17) 0.53115(17)
H2 H 0.5349 0.6617 0.5645
N8 N 0.4749(3) 0.56104(16) 0.44156(16)
N9 N 0.4530(3) 0.48172(16) 0.35269(16)
N10 N 0.2886(3) 0.44168(17) 0.29597(17)
O1 O 0.5361(3) 0.40216(17) 0.88838(17)
O2 O 0.5402(3) 0.76626(17) 0.57696(18)
C1 C 0.2372(4) 0.2519(2) 0.5644(2)
H3 H 0.2141 0.2914 0.5838
C2 C 0.2325(4) 0.1584(2) 0.5032(2)
H4 H 0.2052 0.1234 0.4732
C3 C 0.3430(4) 0.1653(2) 0.5394(2)
H5 H 0.4062 0.1359 0.5391
C4 C 0.4466(3) 0.25695(19) 0.61824(19)
C5 C 0.5597(4) 0.2412(2) 0.6077(2)
H6 H 0.5744 0.2080 0.5762
C6 C 0.6517(4) 0.2771(2) 0.6462(2)
H7 H 0.7302 0.2684 0.6407
C7 C 0.6267(4) 0.3253(2) 0.6922(2)
H8 H 0.6875 0.3497 0.7184
C8 C 0.5068(4) 0.33723(19) 0.6990(2)
C9 C 0.3622(4) 0.3996(2) 0.7539(2)
H9 H 0.3034 0.3773 0.7235
C10 C 0.3238(4) 0.4396(2) 0.8001(2)
H10 H 0.2414 0.4429 0.7965
C11 C 0.4884(4) 0.4561(2) 0.8946(2)
H11 H 0.5239 0.4844 0.9301
C12 C 0.3277(4) 0.5369(2) 0.8772(2)
H12 H 0.3715 0.5524 0.9217
H13 H 0.2487 0.5241 0.8857
C13 C 0.3167(4) 0.5935(2) 0.8245(2)
C14 C 0.2209(4) 0.5980(2) 0.7707(2)
H14 H 0.1615 0.5658 0.7671
C15 C 0.2119(4) 0.6497(2) 0.7220(2)
H15 H 0.1472 0.6514 0.6859
C16 C 0.2975(4) 0.6982(2) 0.7266(2)
C17 C 0.3934(4) 0.6945(2) 0.7813(2)
H16 H 0.4519 0.7273 0.7855
C18 C 0.4025(4) 0.6426(2) 0.8294(2)
H17 H 0.4672 0.6408 0.8654
C19 C 0.2912(4) 0.7536(2) 0.6729(2)
H18 H 0.2091 0.7597 0.6512
H19 H 0.3179 0.7948 0.6968
C20 C 0.4694(5) 0.7717(2) 0.6198(3)
H20 H 0.4904 0.8009 0.6574
C21 C 0.3142(4) 0.6959(2) 0.5622(2)
H21 H 0.2316 0.6972 0.5514
C22 C 0.3686(4) 0.6533(2) 0.5241(2)
H22 H 0.3203 0.6293 0.4893
C23 C 0.5428(4) 0.5992(2) 0.4889(2)
C24 C 0.6680(4) 0.5968(2) 0.4979(2)
H23 H 0.7133 0.6238 0.5310
C25 C 0.7215(4) 0.5540(2) 0.4571(2)
H24 H 0.8042 0.5514 0.4626
C26 C 0.6528(4) 0.5139(2) 0.4069(2)
H25 H 0.6871 0.4844 0.3783
C27 C 0.5317(4) 0.5207(2) 0.4024(2)
C28 C 0.3344(4) 0.48328(19) 0.3467(2)
H26 H 0.2909 0.5094 0.3739
C29 C 0.4834(4) 0.4371(2) 0.3034(2)
H27 H 0.5601 0.4261 0.2958
C30 C 0.3814(4) 0.4127(2) 0.2686(2)
H28 H 0.3745 0.3814 0.2323
C31 C 0.1601(4) 0.4264(2) 0.2761(2)
H29 H 0.1460 0.4090 0.2283
H30 H 0.1141 0.4671 0.2772
C32 C 0.1194(3) 0.3762(2) 0.3261(2)
C33 C 0.0663(3) 0.3959(2) 0.3835(2)
H31 H 0.0487 0.4406 0.3892
C34 C 0.0390(3) 0.3493(2) 0.4326(2)
H32 H 0.0037 0.3633 0.4710
C35 C 0.0640(3) 0.2823(2) 0.4250(2)
C36 C 0.1124(4) 0.2627(2) 0.3660(2)
H33 H 0.1262 0.2177 0.3588
C37 C 0.1407(4) 0.3087(2) 0.3176(2)
H34 H 0.1744 0.2944 0.2788
C38 C 0.0483(3) 0.2326(2) 0.4824(2)
H35 H 0.0022 0.2524 0.5159
H36 H 0.0058 0.1937 0.4618
N11 N 0.7410(6) 0.4385(3) 0.8108(3)
C39 C 0.9494(6) 0.4537(4) 0.8853(4)
H37 H 0.9793 0.4131 0.9079
H38 H 0.9430 0.4870 0.9206
H39 H 1.0029 0.4689 0.8543
C40 C 0.8354(6) 0.4420(3) 0.8456(3)
F7? F -0.080(2) 0.4250(10) 0.5852(8)
F8? F 0.096(3) 0.3742(13) 0.6191(16)
F9? F 0.0445(14) 0.3591(7) 0.7234(7)
F10? F -0.1230(15) 0.4103(10) 0.6917(10)
loop_
_geom_bond_atom_site_label_1
_geom_bond_atom_site_label_2
_geom_bond_site_symmetry_1
_geom_bond_site_symmetry_2
P1 F1 1_555 1_555
F2 P1 1_555 1_555
F3 P1 1_555 1_555
F4 P1 1_555 1_555
F5 P1 1_555 1_555
F6 P1 1_555 1_555
P2 F11 1_555 1_555
F12 P2 1_555 1_555
F13 P2 1_555 1_555
F14 P2 1_555 1_555
F15 P2 1_555 1_555
F16 P2 1_555 1_555
N1 C1 1_555 1_555
N2 C1 1_555 1_555
N3 C4 1_555 1_555
N4 H1 1_555 1_555
N5 C10 1_555 1_555
N6 C19 1_555 1_555
N7 H2 1_555 1_555
N8 C23 1_555 1_555
N9 C27 1_555 1_555
N10 C28 1_555 1_555
O1 C11 1_555 1_555
O2 C20 1_555 1_555
C1 H3 1_555 1_555
C2 N1 1_555 1_555
H4 C2 1_555 1_555
C3 N2 1_555 1_555
H5 C3 1_555 1_555
C4 N2 1_555 1_555
C5 C4 1_555 1_555
H6 C5 1_555 1_555
C6 C5 1_555 1_555
H7 C6 1_555 1_555
C7 C6 1_555 1_555
H8 C7 1_555 1_555
C8 N3 1_555 1_555
C9 N4 1_555 1_555
H9 C9 1_555 1_555
C10 C9 1_555 1_555
H10 C10 1_555 1_555
C11 N5 1_555 1_555
H11 C11 1_555 1_555
C12 N5 1_555 1_555
H12 C12 1_555 1_555
H13 C12 1_555 1_555
C13 C12 1_555 1_555
C14 C13 1_555 1_555
H14 C14 1_555 1_555
C15 C14 1_555 1_555
H15 C15 1_555 1_555
C16 C15 1_555 1_555
C17 C16 1_555 1_555
H16 C17 1_555 1_555
C18 C13 1_555 1_555
H17 C18 1_555 1_555
C19 C16 1_555 1_555
H18 C19 1_555 1_555
H19 C19 1_555 1_555
C20 N6 1_555 1_555
H20 C20 1_555 1_555
C21 N6 1_555 1_555
H21 C21 1_555 1_555
C22 N7 1_555 1_555
H22 C22 1_555 1_555
C23 N7 1_555 1_555
C24 C23 1_555 1_555
H23 C24 1_555 1_555
C25 C24 1_555 1_555
H24 C25 1_555 1_555
C26 C25 1_555 1_555
H25 C26 1_555 1_555
C27 N8 1_555 1_555
C28 N9 1_555 1_555
H26 C28 1_555 1_555
C29 N9 1_555 1_555
H27 C29 1_555 1_555
C30 N10 1_555 1_555
H28 C30 1_555 1_555
C31 N10 1_555 1_555
H29 C31 1_555 1_555
H30 C31 1_555 1_555
C32 C31 1_555 1_555
C33 C32 1_555 1_555
H31 C33 1_555 1_555
C34 C33 1_555 1_555
H32 C34 1_555 1_555
C35 C34 1_555 1_555
C36 C35 1_555 1_555
H33 C36 1_555 1_555
C37 C32 1_555 1_555
H34 C37 1_555 1_555
C38 N1 1_555 1_555
H35 C38 1_555 1_555
H36 C38 1_555 1_555
N11 C40 1_555 1_555
C39 H37 1_555 1_555
H38 C39 1_555 1_555
H39 C39 1_555 1_555
C40 C39 1_555 1_555
N4 C8 1_555 1_555
C2 C3 1_555 1_555
C7 C8 1_555 1_555
C17 C18 1_555 1_555
C21 C22 1_555 1_555
C26 C27 1_555 1_555
C29 C30 1_555 1_555
C35 C38 1_555 1_555
C36 C37 1_555 1_555

#END
