
#######################################################################
#
#                 Cambridge Crystallographic Data Centre
#                                CCDC 
#
#######################################################################
#
# If this CIF has been generated from an entry in the Cambridge 
# Structural Database, then it will include bibliographic, chemical, 
# crystal, experimental, refinement or atomic coordinate data resulting 
# from the CCDC's data processing and validation procedures.
#
#######################################################################

data_QAHMAQ
_chemical_formula_moiety         'C38 H36 N10 O2 2+,C10 H6 O6 S2 2-,5(H2 O1)'
_chemical_name_systematic        
'15,34-diformyl-3,12,15,22,31,34,41,45-octaaza-6,25-diazoniaheptacyclo[34.2.2.2^17,20^.1^3,6^.1^7,11^.1^22,25^.1^26,30^]hexatetraconta-1(38),4,6(46),7(45),8,10,13,17,19,23,25(42),26(41),27,29,32,36,39,43-octadecaene naphthalene-2,6-disulfonate pentahydrate'
_symmetry_cell_setting           monoclinic
_symmetry_space_group_name_H-M   'P 21/n'
_symmetry_Int_Tables_number      14
_space_group_name_Hall           '-P 2yn'
loop_
_symmetry_equiv_pos_site_id
_symmetry_equiv_pos_as_xyz
1 x,y,z
2 1/2-x,1/2+y,1/2-z
3 -x,-y,-z
4 1/2+x,1/2-y,1/2+z
_cell_length_a                   13.490(3)
_cell_length_b                   18.126(4)
_cell_length_c                   20.197(4)
_cell_angle_alpha                90
_cell_angle_beta                 101.26(3)
_cell_angle_gamma                90
_cell_volume                     4843.5
_exptl_crystal_colour            colorless
_exptl_crystal_description       prism
_cell_formula_units_Z            4
loop_
_atom_site_label
_atom_site_type_symbol
_atom_site_fract_x
_atom_site_fract_y
_atom_site_fract_z
S2 S 0.32889(13) -0.30013(9) 0.46014(10)
O4 O 0.2277(3) -0.3285(3) 0.4387(3)
O5 O 0.3663(4) -0.2676(2) 0.4030(2)
O6 O 0.3403(4) -0.2514(2) 0.5181(3)
C6 C 0.4970(5) -0.3675(4) 0.5360(4)
H4 H 0.5107 -0.3214 0.5559
C7 C 0.4093(5) -0.3771(3) 0.4866(3)
C8 C 0.3891(5) -0.4446(3) 0.4563(3)
H5 H 0.3311 -0.4510 0.4234
C9 C 0.4557(4) -0.5049(3) 0.4748(3)
C10 C 0.4370(5) -0.5756(4) 0.4444(4)
H6 H 0.3797 -0.5832 0.4111
S2B S 0.67111(13) -0.69987(9) 0.53986(10)
O4B O 0.7723(3) -0.6715(3) 0.5613(3)
O5B O 0.6337(4) -0.7324(2) 0.5970(2)
O6B O 0.6597(4) -0.7486(2) 0.4819(3)
C6B C 0.5030(5) -0.6325(4) 0.4640(4)
H4B H 0.4893 -0.6786 0.4441
C7B C 0.5907(5) -0.6229(3) 0.5134(3)
C8B C 0.6109(5) -0.5554(3) 0.5437(3)
H5B H 0.6689 -0.5490 0.5766
C9B C 0.5443(4) -0.4951(3) 0.5252(3)
C10B C 0.5630(5) -0.4244(4) 0.5556(4)
H6B H 0.6203 -0.4168 0.5889
O7 O -0.0628(5) -0.0329(4) 0.7762(2)
O8 O 0.4097(5) 0.2371(4) 0.2908(3)
C11 C -0.1595(4) 0.1087(3) 0.4278(3)
H7 H -0.1403 0.1319 0.4693
C12 C -0.2093(4) 0.0897(3) 0.3196(3)
H8 H -0.2313 0.0985 0.2737
C13 C -0.1925(5) 0.0242(3) 0.3488(3)
H9 H -0.1998 -0.0213 0.3272
C14 C -0.1380(4) -0.0185(3) 0.4702(3)
C15 C -0.1480(4) -0.0918(3) 0.4557(3)
H10 H -0.1692 -0.1087 0.4118
C16 C -0.1247(5) -0.1403(3) 0.5101(3)
H11 H -0.1308 -0.1910 0.5031
C17 C -0.0932(4) -0.1131(3) 0.5734(3)
H12 H -0.0780 -0.1446 0.6103
C18 C -0.0841(4) -0.0366(3) 0.5820(3)
C19 C 0.0076(6) 0.0070(5) 0.8037(3)
H13 H 0.0446 -0.0086 0.8450
C20 C -0.0452(5) 0.0683(3) 0.6585(3)
H14 H -0.0705 0.0990 0.6222
C21 C -0.0098(5) 0.1016(4) 0.7161(3)
H15 H -0.0150 0.1528 0.7152
C22 C 0.1209(5) 0.1118(4) 0.8191(3)
H16 H 0.1326 0.0948 0.8655
H17 H 0.1039 0.1638 0.8189
C23 C 0.2156(5) 0.1024(3) 0.7920(3)
C24 C 0.2372(5) 0.1462(3) 0.7399(3)
H18 H 0.1928 0.1836 0.7220
C25 C 0.3236(5) 0.1346(3) 0.7144(3)
H19 H 0.3375 0.1649 0.6802
C26 C 0.3901(5) 0.0781(3) 0.7395(3)
C27 C 0.3696(5) 0.0344(4) 0.7903(3)
H20 H 0.4137 -0.0036 0.8073
C28 C 0.2841(6) 0.0461(4) 0.8165(3)
H21 H 0.2716 0.0160 0.8513
C29 C 0.4804(5) 0.0630(3) 0.7083(3)
H22 H 0.5053 0.1090 0.6932
H23 H 0.5339 0.0415 0.7419
C30 C 0.4228(4) 0.0340(3) 0.5873(3)
H24 H 0.4177 0.0826 0.5724
C31 C 0.4506(5) -0.0641(3) 0.6516(4)
H25 H 0.4689 -0.0933 0.6899
C32 C 0.4166(5) -0.0895(3) 0.5884(3)
H26 H 0.4066 -0.1383 0.5746
C33 C 0.3632(4) -0.0229(3) 0.4767(3)
C34 C 0.3402(5) -0.0859(3) 0.4390(3)
H27 H 0.3497 -0.1328 0.4580
C35 C 0.3020(5) -0.0751(4) 0.3711(3)
H28 H 0.2831 -0.1155 0.3431
C36 C 0.2918(5) -0.0054(4) 0.3448(3)
H29 H 0.2680 0.0016 0.2988
C37 C 0.3174(4) 0.0554(3) 0.3874(3)
C38 C 0.3315(6) 0.2730(5) 0.2803(4)
H30 H 0.3098 0.2923 0.2373
C39 C 0.3166(5) 0.1868(3) 0.4080(3)
H31 H 0.3394 0.1763 0.4535
C40 C 0.2984(5) 0.2578(4) 0.3925(3)
H32 H 0.3013 0.2909 0.4280
C41 C 0.1912(5) 0.3386(4) 0.3109(4)
H33 H 0.1820 0.3528 0.2638
H34 H 0.2080 0.3826 0.3381
C42 C 0.0934(5) 0.3067(3) 0.3243(3)
C43 C 0.0391(5) 0.2562(4) 0.2797(3)
H35 H 0.0643 0.2406 0.2423
C44 C -0.0533(5) 0.2288(3) 0.2905(3)
H36 H -0.0893 0.1955 0.2599
C45 C -0.0921(5) 0.2509(3) 0.3466(3)
C46 C -0.0363(5) 0.3003(4) 0.3907(3)
H37 H -0.0601 0.3153 0.4287
C47 C 0.0544(6) 0.3278(4) 0.3793(3)
H38 H 0.0900 0.3615 0.4097
C48 C -0.1914(5) 0.2231(3) 0.3588(3)
H39 H -0.2073 0.2472 0.3984
H40 H -0.2442 0.2353 0.3204
N1 N -0.1885(4) 0.1423(3) 0.3692(2)
N2 N -0.1622(3) 0.0363(2) 0.4176(2)
N3 N -0.1067(3) 0.0108(2) 0.5304(2)
N4 N -0.0497(4) -0.0066(3) 0.6449(2)
H41 H -0.0296 -0.0364 0.6779
N5 N 0.0352(4) 0.0706(3) 0.7793(3)
N6 N 0.4539(4) 0.0117(3) 0.6502(2)
N7 N 0.3997(3) -0.0264(2) 0.5485(2)
N8 N 0.3533(3) 0.0459(3) 0.4532(2)
N9 N 0.3058(4) 0.1272(3) 0.3648(3)
H42 H 0.2913 0.1352 0.3220
N10 N 0.2750(4) 0.2863(3) 0.3264(3)
S1 S 0.19488(12) 0.32883(8) 0.59921(8)
O1 O 0.1177(3) 0.2777(2) 0.6139(2)
O2 O 0.2542(4) 0.2974(3) 0.5539(2)
O3 O 0.2546(4) 0.3611(2) 0.6592(2)
C1 C 0.1322(5) 0.5140(3) 0.4875(3)
H1 H 0.1686 0.5472 0.4664
C2 C 0.1806(5) 0.4544(3) 0.5216(3)
H2 H 0.2494 0.4477 0.5236
C3 C 0.1271(5) 0.4038(3) 0.5534(3)
C4 C 0.0246(5) 0.4136(3) 0.5507(3)
H3 H -0.0106 0.3799 0.5721
C5 C -0.0275(5) 0.4748(3) 0.5157(3)
S1B S -0.19488(12) 0.67117(8) 0.40079(8)
O1B O -0.1177(3) 0.7223(2) 0.3861(2)
O2B O -0.2542(4) 0.7026(3) 0.4461(2)
O3B O -0.2546(4) 0.6389(2) 0.3408(2)
C1B C -0.1322(5) 0.4860(3) 0.5125(3)
H1B H -0.1686 0.4528 0.5336
C2B C -0.1806(5) 0.5456(3) 0.4784(3)
H2B H -0.2494 0.5523 0.4764
C3B C -0.1271(5) 0.5962(3) 0.4466(3)
C4B C -0.0246(5) 0.5864(3) 0.4493(3)
H3B H 0.0106 0.6201 0.4279
C5B C 0.0275(5) 0.5252(3) 0.4843(3)
loop_
_geom_bond_atom_site_label_1
_geom_bond_atom_site_label_2
_geom_bond_site_symmetry_1
_geom_bond_site_symmetry_2
S1 O1 1_555 1_555
O2 S1 1_555 1_555
O3 S1 1_555 1_555
C1 H1 1_555 1_555
C2 C1 1_555 1_555
H2 C2 1_555 1_555
C3 S1 1_555 1_555
C4 C3 1_555 1_555
H3 C4 1_555 1_555
C5 C4 1_555 1_555
S2 O4 1_555 1_555
O5 S2 1_555 1_555
O6 S2 1_555 1_555
C6 H4 1_555 1_555
C7 S2 1_555 1_555
C8 C7 1_555 1_555
H5 C8 1_555 1_555
C9 C8 1_555 1_555
C10 C9 1_555 1_555
H6 C10 1_555 1_555
O7 C19 1_555 1_555
O8 C38 1_555 1_555
C11 H7 1_555 1_555
C12 H8 1_555 1_555
C13 C12 1_555 1_555
H9 C13 1_555 1_555
C14 C15 1_555 1_555
C15 H10 1_555 1_555
C16 C15 1_555 1_555
H11 C16 1_555 1_555
C17 C16 1_555 1_555
H12 C17 1_555 1_555
C18 C17 1_555 1_555
C19 H13 1_555 1_555
C20 H14 1_555 1_555
C21 C20 1_555 1_555
H15 C21 1_555 1_555
C22 H16 1_555 1_555
H17 C22 1_555 1_555
C23 C22 1_555 1_555
C24 C23 1_555 1_555
H18 C24 1_555 1_555
C25 C24 1_555 1_555
H19 C25 1_555 1_555
C26 C25 1_555 1_555
C27 C26 1_555 1_555
H20 C27 1_555 1_555
C28 C23 1_555 1_555
H21 C28 1_555 1_555
C29 C26 1_555 1_555
H22 C29 1_555 1_555
H23 C29 1_555 1_555
C30 H24 1_555 1_555
C31 H25 1_555 1_555
C32 C31 1_555 1_555
H26 C32 1_555 1_555
C33 C34 1_555 1_555
C34 H27 1_555 1_555
C35 C34 1_555 1_555
H28 C35 1_555 1_555
C36 C35 1_555 1_555
H29 C36 1_555 1_555
C37 C36 1_555 1_555
C38 H30 1_555 1_555
C39 H31 1_555 1_555
C40 C39 1_555 1_555
H32 C40 1_555 1_555
C41 H33 1_555 1_555
H34 C41 1_555 1_555
C42 C41 1_555 1_555
C43 C42 1_555 1_555
H35 C43 1_555 1_555
C44 C43 1_555 1_555
H36 C44 1_555 1_555
C45 C44 1_555 1_555
C46 C45 1_555 1_555
H37 C46 1_555 1_555
C47 C42 1_555 1_555
H38 C47 1_555 1_555
C48 C45 1_555 1_555
H39 C48 1_555 1_555
H40 C48 1_555 1_555
N1 C11 1_555 1_555
N2 C11 1_555 1_555
N3 C14 1_555 1_555
N4 C18 1_555 1_555
H41 N4 1_555 1_555
N5 C19 1_555 1_555
N6 C29 1_555 1_555
N7 C30 1_555 1_555
N8 C33 1_555 1_555
N9 C37 1_555 1_555
H42 N9 1_555 1_555
N10 C38 1_555 1_555
S1B O1B 1_555 1_555
O2B S1B 1_555 1_555
O3B S1B 1_555 1_555
C1B C5 1_555 1_555
H1B C1B 1_555 1_555
C2B C1B 1_555 1_555
H2B C2B 1_555 1_555
C3B S1B 1_555 1_555
C4B C3B 1_555 1_555
H3B C4B 1_555 1_555
C5B C1 1_555 1_555
S2B O4B 1_555 1_555
O5B S2B 1_555 1_555
O6B S2B 1_555 1_555
C6B C10 1_555 1_555
H4B C6B 1_555 1_555
C7B S2B 1_555 1_555
C8B C7B 1_555 1_555
H5B C8B 1_555 1_555
C9B C9 1_555 1_555
C10B C6 1_555 1_555
H6B C10B 1_555 1_555
C2 C3 1_555 1_555
C5 C5B 1_555 1_555
C6 C7 1_555 1_555
C12 N1 1_555 1_555
C13 N2 1_555 1_555
C14 N2 1_555 1_555
C18 N3 1_555 1_555
C20 N4 1_555 1_555
C21 N5 1_555 1_555
C22 N5 1_555 1_555
C27 C28 1_555 1_555
C30 N6 1_555 1_555
C31 N6 1_555 1_555
C32 N7 1_555 1_555
C33 N7 1_555 1_555
C37 N8 1_555 1_555
C39 N9 1_555 1_555
C40 N10 1_555 1_555
C41 N10 1_555 1_555
C46 C47 1_555 1_555
C48 N1 1_555 1_555
C2B C3B 1_555 1_555
C4B C5B 1_555 1_555
C6B C7B 1_555 1_555
C8B C9B 1_555 1_555
C9B C10B 1_555 1_555

#END
