
#######################################################################
#
#                 Cambridge Crystallographic Data Centre
#                                CCDC 
#
#######################################################################
#
# If this CIF has been generated from an entry in the Cambridge 
# Structural Database, then it will include bibliographic, chemical, 
# crystal, experimental, refinement or atomic coordinate data resulting 
# from the CCDC's data processing and validation procedures.
#
#######################################################################

data_QAHRUN
_chemical_formula_moiety         'C21 H27 N1 O3'
_chemical_name_systematic        
anti-2-(1-Hydroxy-3-oxobutyl)-N,N-di-isopropyl-1-naphthamide
_symmetry_cell_setting           orthorhombic
_symmetry_space_group_name_H-M   'P 21 21 21'
_symmetry_Int_Tables_number      19
_space_group_name_Hall           'P 2ac 2ab'
loop_
_symmetry_equiv_pos_site_id
_symmetry_equiv_pos_as_xyz
1 x,y,z
2 1/2-x,-y,1/2+z
3 1/2+x,1/2-y,-z
4 -x,1/2+y,1/2-z
_cell_length_a                   7.656(2)
_cell_length_b                   12.953(3)
_cell_length_c                   19.434(6)
_cell_angle_alpha                90
_cell_angle_beta                 90
_cell_angle_gamma                90
_cell_volume                     1927.23
_exptl_crystal_colour            colorless
_chemical_melting_point          158-160deg.C
_cell_formula_units_Z            4
_exptl_crystal_recrystallization_method dichloromethane/hexanes
loop_
_atom_site_label
_atom_site_type_symbol
_atom_site_fract_x
_atom_site_fract_y
_atom_site_fract_z
C1 C 0.4007(3) 0.4671(2) 0.38929(13)
C2 C 0.4299(3) 0.5430(2) 0.43718(13)
C3 C 0.5176(4) 0.5179(2) 0.49903(14)
H1 H 0.5391(4) 0.5694(2) 0.53129(14)
C4 C 0.5707(4) 0.4205(3) 0.51202(14)
H2 H 0.6270(4) 0.4060(3) 0.55333(14)
C5 C 0.5427(3) 0.3397(2) 0.46407(15)
C6 C 0.5987(4) 0.2377(3) 0.4764(2)
H3 H 0.6556(4) 0.2219(3) 0.5173(2)
C7 C 0.5706(4) 0.1625(3) 0.4295(2)
H4 H 0.6072(4) 0.0954(3) 0.4387(2)
C8 C 0.4867(4) 0.1848(2) 0.3671(2)
H5 H 0.4684(4) 0.1325(2) 0.3351(2)
C9 C 0.4313(4) 0.2833(2) 0.3530(2)
H6 H 0.3760(4) 0.2973(2) 0.3114(2)
C10 C 0.4578(3) 0.3633(2) 0.40105(14)
C11 C 0.3218(3) 0.4926(2) 0.32022(13)
C12 C 0.0653(4) 0.4989(3) 0.24440(14)
H7 H -0.0592(4) 0.4831(3) 0.24983(14)
C13 C 0.1362(5) 0.4240(3) 0.1912(2)
H8 H 0.0723(22) 0.4317(14) 0.1490(4)
H9 H 0.1237(29) 0.3546(3) 0.2078(6)
H10 H 0.2575(10) 0.4384(13) 0.1831(9)
C14 C 0.0771(5) 0.6106(3) 0.2213(2)
H11 H 0.0153(28) 0.6189(5) 0.1787(7)
H12 H 0.1974(6) 0.6291(6) 0.2150(13)
H13 H 0.0259(30) 0.6544(3) 0.2557(6)
C15 C 0.0304(3) 0.4555(2) 0.37084(14)
H14 H 0.1032(3) 0.4481(2) 0.41202(14)
C16 C -0.0592(4) 0.3526(3) 0.3585(2)
H15 H -0.1201(23) 0.3319(8) 0.3994(4)
H16 H 0.0267(5) 0.3014(4) 0.3469(11)
H17 H -0.1408(20) 0.3593(5) 0.3212(7)
C17 C -0.1008(4) 0.5412(3) 0.3849(2)
H18 H -0.1629(21) 0.5265(9) 0.4266(6)
H19 H -0.1819(18) 0.5456(12) 0.3473(6)
H20 H -0.0401(5) 0.6058(4) 0.3895(11)
C18 C 0.3743(4) 0.6534(2) 0.4248(2)
H21 H 0.2798(4) 0.6542(2) 0.3907(2)
C19 C 0.5261(3) 0.7194(2) 0.39804(15)
H22 H 0.6284(3) 0.7080(2) 0.42648(15)
H23 H 0.5545(3) 0.6989(2) 0.35136(15)
C20 C 0.4787(3) 0.8321(2) 0.3992(2)
C21 C 0.3433(4) 0.8697(3) 0.3494(2)
H24 H 0.2450(14) 0.8237(10) 0.3499(9)
H25 H 0.3923(10) 0.8719(17) 0.3040(3)
H26 H 0.3059(22) 0.9377(8) 0.3625(7)
N1 N 0.1479(3) 0.4826(2) 0.31262(11)
O1 O 0.4209(2) 0.5203(2) 0.27362(9)
O2 O 0.3159(3) 0.7029(2) 0.48569(12)
H27 H 0.2400(37) 0.6677(15) 0.5040(11)
O3 O 0.5501(3) 0.8919(2) 0.43857(11)
loop_
_geom_bond_atom_site_label_1
_geom_bond_atom_site_label_2
_geom_bond_site_symmetry_1
_geom_bond_site_symmetry_2
C1 C2 1_555 1_555
C2 C3 1_555 1_555
C3 H1 1_555 1_555
C4 C3 1_555 1_555
H2 C4 1_555 1_555
C5 C4 1_555 1_555
C6 C5 1_555 1_555
H3 C6 1_555 1_555
C7 C6 1_555 1_555
H4 C7 1_555 1_555
C8 C7 1_555 1_555
H5 C8 1_555 1_555
C9 C8 1_555 1_555
H6 C9 1_555 1_555
C10 C1 1_555 1_555
C11 C1 1_555 1_555
C12 H7 1_555 1_555
C13 C12 1_555 1_555
H8 C13 1_555 1_555
H9 C13 1_555 1_555
H10 C13 1_555 1_555
C14 C12 1_555 1_555
H11 C14 1_555 1_555
H12 C14 1_555 1_555
H13 C14 1_555 1_555
C15 H14 1_555 1_555
C16 C15 1_555 1_555
H15 C16 1_555 1_555
H16 C16 1_555 1_555
H17 C16 1_555 1_555
C17 C15 1_555 1_555
H18 C17 1_555 1_555
H19 C17 1_555 1_555
H20 C17 1_555 1_555
C18 C2 1_555 1_555
H21 C18 1_555 1_555
C19 C18 1_555 1_555
H22 C19 1_555 1_555
H23 C19 1_555 1_555
C20 C19 1_555 1_555
C21 C20 1_555 1_555
H24 C21 1_555 1_555
H25 C21 1_555 1_555
H26 C21 1_555 1_555
N1 C11 1_555 1_555
O1 C11 1_555 1_555
O2 C18 1_555 1_555
H27 O2 1_555 1_555
O3 C20 1_555 1_555
C5 C10 1_555 1_555
C9 C10 1_555 1_555
C12 N1 1_555 1_555
C15 N1 1_555 1_555

#END
