
#######################################################################
#
#                 Cambridge Crystallographic Data Centre
#                                CCDC 
#
#######################################################################
#
# If this CIF has been generated from an entry in the Cambridge 
# Structural Database, then it will include bibliographic, chemical, 
# crystal, experimental, refinement or atomic coordinate data resulting 
# from the CCDC's data processing and validation procedures.
#
#######################################################################

data_QAHVON
_chemical_name_common            
2-(2-(4-Chlorobenzylidene)hydrazino)-5-phenyl-1,3,4-thiadiazole
_chemical_formula_moiety         'C15 H11 Cl1 N4 S1'
_chemical_name_systematic        
'4-Chlorobenzaldehyde (5-phenyl-1,3,4-thiadiazol-2-yl)hydrazone'
_symmetry_cell_setting           monoclinic
_symmetry_space_group_name_H-M   'P 21/c'
_symmetry_Int_Tables_number      14
_space_group_name_Hall           '-P 2ybc'
loop_
_symmetry_equiv_pos_site_id
_symmetry_equiv_pos_as_xyz
1 x,y,z
2 -x,1/2+y,1/2-z
3 -x,-y,-z
4 x,1/2-y,1/2+z
_cell_length_a                   14.9276(8)
_cell_length_b                   5.6463(2)
_cell_length_c                   18.1288(9)
_cell_angle_alpha                90
_cell_angle_beta                 106.114(2)
_cell_angle_gamma                90
_cell_volume                     1467.97
_exptl_crystal_colour            yellow
_exptl_crystal_description       blade
_chemical_melting_point          '280-282 deg.C'
_cell_formula_units_Z            4
loop_
_atom_site_label
_atom_site_type_symbol
_atom_site_fract_x
_atom_site_fract_y
_atom_site_fract_z
C1 C 0.76008(19) 1.6649(5) 0.39724(16)
H1 H 0.7974 1.7963 0.3916
C2 C 0.78581(19) 1.5258(5) 0.46289(17)
H2 H 0.8410 1.5616 0.5022
C3 C 0.73122(17) 1.3351(5) 0.47124(15)
H3 H 0.7489 1.2413 0.5165
C4 C 0.65057(17) 1.2801(4) 0.41367(15)
C5 C 0.62516(19) 1.4198(4) 0.34794(15)
H4 H 0.5702 1.3839 0.3084
C6 C 0.67976(19) 1.6110(5) 0.34011(16)
H5 H 0.6620 1.7060 0.2951
C7 C 0.59390(17) 1.0756(4) 0.42403(14)
C8 C 0.48425(17) 0.7654(4) 0.41828(14)
C9 C 0.27641(18) 0.4680(4) 0.33540(15)
H6 H 0.2847 0.3454 0.3726
C10 C 0.19165(17) 0.4728(4) 0.27111(14)
C11 C 0.17250(17) 0.6564(4) 0.21692(15)
H7 H 0.2150 0.7846 0.2221
C12 C 0.09272(18) 0.6533(5) 0.15616(15)
H8 H 0.0804 0.7781 0.1196
C13 C 0.03070(18) 0.4660(5) 0.14909(15)
C14 C 0.04672(18) 0.2842(5) 0.20169(16)
H9 H 0.0035 0.1576 0.1963
C15 C 0.12731(18) 0.2887(5) 0.26280(15)
H10 H 0.1387 0.1642 0.2995
N1 N 0.61886(14) 0.9350(3) 0.48299(12)
N2 N 0.55571(14) 0.7540(4) 0.48020(11)
N3 N 0.41552(14) 0.6017(4) 0.40480(12)
H11 H 0.4194 0.4799 0.4358
N4 N 0.34001(14) 0.6277(4) 0.34237(11)
S1 S 0.48733(4) 1.00068(11) 0.35821(4)
Cl1 Cl -0.06977(5) 0.46099(14) 0.07187(4)
loop_
_geom_bond_atom_site_label_1
_geom_bond_atom_site_label_2
_geom_bond_site_symmetry_1
_geom_bond_site_symmetry_2
C1 H1 1_555 1_555
C2 C1 1_555 1_555
H2 C2 1_555 1_555
C3 C2 1_555 1_555
H3 C3 1_555 1_555
C4 C3 1_555 1_555
C5 C4 1_555 1_555
H4 C5 1_555 1_555
C6 C1 1_555 1_555
H5 C6 1_555 1_555
C7 C4 1_555 1_555
C8 N2 1_555 1_555
C9 H6 1_555 1_555
C10 C9 1_555 1_555
C11 C10 1_555 1_555
H7 C11 1_555 1_555
C12 C11 1_555 1_555
H8 C12 1_555 1_555
C13 C12 1_555 1_555
C14 C13 1_555 1_555
H9 C14 1_555 1_555
C15 C10 1_555 1_555
H10 C15 1_555 1_555
N1 C7 1_555 1_555
N2 N1 1_555 1_555
N3 C8 1_555 1_555
H11 N3 1_555 1_555
N4 C9 1_555 1_555
S1 C7 1_555 1_555
Cl1 C13 1_555 1_555
C5 C6 1_555 1_555
C8 S1 1_555 1_555
C14 C15 1_555 1_555
N3 N4 1_555 1_555

#END
