
#######################################################################
#
#                 Cambridge Crystallographic Data Centre
#                                CCDC 
#
#######################################################################
#
# If this CIF has been generated from an entry in the Cambridge 
# Structural Database, then it will include bibliographic, chemical, 
# crystal, experimental, refinement or atomic coordinate data resulting 
# from the CCDC's data processing and validation procedures.
#
#######################################################################

data_QAHVUT
_chemical_name_common            
2-(2-(4-Bromobenzylidene)hydrazino)-5-phenyl-1,3,4-thiadiazole
_chemical_formula_moiety         'C15 H11 Br1 N4 S1'
_chemical_name_systematic        
'4-Bromobenzaldehyde (5-phenyl-1,3,4-thiadiazol-2-yl)hydrazone'
_symmetry_cell_setting           monoclinic
_symmetry_space_group_name_H-M   'P 21/c'
_symmetry_Int_Tables_number      14
_space_group_name_Hall           '-P 2ybc'
loop_
_symmetry_equiv_pos_site_id
_symmetry_equiv_pos_as_xyz
1 x,y,z
2 -x,1/2+y,1/2-z
3 -x,-y,-z
4 x,1/2-y,1/2+z
_cell_length_a                   14.9469(7)
_cell_length_b                   5.6426(3)
_cell_length_c                   18.3140(8)
_cell_angle_alpha                90
_cell_angle_beta                 105.541(2)
_cell_angle_gamma                90
_cell_volume                     1488.12
_exptl_crystal_colour            yellow
_exptl_crystal_description       block
_chemical_melting_point          '299-301 deg.C'
_cell_formula_units_Z            4
loop_
_atom_site_label
_atom_site_type_symbol
_atom_site_fract_x
_atom_site_fract_y
_atom_site_fract_z
C1 C 0.7544(2) 1.6663(5) 0.39124(18)
H1 H 0.7914 1.7975 0.3848
C2 C 0.7794(2) 1.5320(5) 0.45698(18)
H2 H 0.8339 1.5711 0.4955
C3 C 0.7255(2) 1.3414(5) 0.46705(17)
H3 H 0.7426 1.2521 0.5127
C4 C 0.6463(2) 1.2807(5) 0.41034(16)
C5 C 0.6214(2) 1.4150(5) 0.34425(16)
H4 H 0.5674 1.3748 0.3053
C6 C 0.6752(2) 1.6078(5) 0.33511(17)
H5 H 0.6576 1.6998 0.2901
C7 C 0.59103(19) 1.0760(5) 0.42223(14)
C8 C 0.4829(2) 0.7644(5) 0.41900(15)
C9 C 0.2771(2) 0.4631(5) 0.33764(16)
H6 H 0.2852 0.3396 0.3741
C10 C 0.19338(19) 0.4675(5) 0.27404(16)
C11 C 0.1745(2) 0.6511(5) 0.22082(16)
H7 H 0.2163 0.7808 0.2262
C12 C 0.0956(2) 0.6462(5) 0.16035(16)
H8 H 0.0832 0.7710 0.1242
C13 C 0.03515(19) 0.4559(5) 0.15342(16)
C14 C 0.0514(2) 0.2722(5) 0.20522(17)
H9 H 0.0091 0.1435 0.1996
C15 C 0.1310(2) 0.2795(5) 0.26574(16)
H10 H 0.1429 0.1546 0.3019
N1 N 0.61666(16) 0.9358(4) 0.48039(13)
N2 N 0.55437(16) 0.7546(4) 0.47928(13)
N3 N 0.41500(16) 0.5999(4) 0.40648(13)
H11 H 0.4189 0.4787 0.4374
N4 N 0.34005(16) 0.6247(4) 0.34492(13)
S1 S 0.48479(5) 0.99859(13) 0.35872(4)
Br1 Br -0.07315(2) 0.44336(7) 0.070813(18)
loop_
_geom_bond_atom_site_label_1
_geom_bond_atom_site_label_2
_geom_bond_site_symmetry_1
_geom_bond_site_symmetry_2
C1 H1 1_555 1_555
C2 C1 1_555 1_555
H2 C2 1_555 1_555
C3 C2 1_555 1_555
H3 C3 1_555 1_555
C4 C3 1_555 1_555
C5 C4 1_555 1_555
H4 C5 1_555 1_555
C6 C1 1_555 1_555
H5 C6 1_555 1_555
C7 C4 1_555 1_555
C8 N2 1_555 1_555
C9 H6 1_555 1_555
C10 C9 1_555 1_555
C11 C10 1_555 1_555
H7 C11 1_555 1_555
C12 C11 1_555 1_555
H8 C12 1_555 1_555
C13 C12 1_555 1_555
C14 C13 1_555 1_555
H9 C14 1_555 1_555
C15 C10 1_555 1_555
H10 C15 1_555 1_555
N1 C7 1_555 1_555
N2 N1 1_555 1_555
N3 C8 1_555 1_555
H11 N3 1_555 1_555
N4 C9 1_555 1_555
S1 C7 1_555 1_555
Br1 C13 1_555 1_555
C5 C6 1_555 1_555
C8 S1 1_555 1_555
C14 C15 1_555 1_555
N3 N4 1_555 1_555

#END
