
#######################################################################
#
#                 Cambridge Crystallographic Data Centre
#                                CCDC 
#
#######################################################################
#
# If this CIF has been generated from an entry in the Cambridge 
# Structural Database, then it will include bibliographic, chemical, 
# crystal, experimental, refinement or atomic coordinate data resulting 
# from the CCDC's data processing and validation procedures.
#
#######################################################################

data_QAHWEE
_chemical_name_common            
2-((5-Phenyl-1,3,4-thiadiazol-2-yl)carbonohydrazonoyl)phenol
_chemical_formula_moiety         'C15 H12 N4 O1 S1'
_chemical_name_systematic        
'2-Hydroxybenzaldehyde (5-phenyl-1,3,4-thiadiazol-2-yl)hydrazone'
_symmetry_cell_setting           monoclinic
_symmetry_space_group_name_H-M   'P 21/c'
_symmetry_Int_Tables_number      14
_space_group_name_Hall           '-P 2ybc'
loop_
_symmetry_equiv_pos_site_id
_symmetry_equiv_pos_as_xyz
1 x,y,z
2 -x,1/2+y,1/2-z
3 -x,-y,-z
4 x,1/2-y,1/2+z
_cell_length_a                   5.7570(2)
_cell_length_b                   25.2824(10)
_cell_length_c                   9.7241(3)
_cell_angle_alpha                90
_cell_angle_beta                 95.411(2)
_cell_angle_gamma                90
_cell_volume                     1409.04
_exptl_crystal_colour            colorless
_exptl_crystal_description       Plate
_chemical_melting_point          '287-289 deg.C'
_cell_formula_units_Z            4
loop_
_atom_site_label
_atom_site_type_symbol
_atom_site_fract_x
_atom_site_fract_y
_atom_site_fract_z
C1 C 0.2222(5) 0.37296(11) -0.1578(3)
H1 H 0.1478 0.3551 -0.2359
C2 C 0.4443(5) 0.35808(10) -0.1039(3)
H2 H 0.5209 0.3296 -0.1446
C3 C 0.5553(4) 0.38436(10) 0.0088(3)
H3 H 0.7072 0.3738 0.0452
C4 C 0.4441(4) 0.42638(9) 0.0690(2)
C5 C 0.2188(4) 0.44071(10) 0.0165(3)
H4 H 0.1400 0.4686 0.0581
C6 C 0.1099(4) 0.41395(11) -0.0971(3)
H5 H -0.0429 0.4240 -0.1332
C7 C 0.5668(4) 0.45503(9) 0.1857(2)
C8 C 0.7065(4) 0.51367(9) 0.3675(2)
C9 C 0.6511(4) 0.62122(9) 0.5876(2)
H6 H 0.7979 0.6170 0.6398
C10 C 0.4958(4) 0.66298(9) 0.6247(2)
C11 C 0.2752(4) 0.67211(10) 0.5534(3)
C12 C 0.1321(5) 0.71198(11) 0.5971(3)
H7 H -0.0158 0.7184 0.5480
C13 C 0.2049(5) 0.74228(11) 0.7119(3)
H8 H 0.1057 0.7692 0.7416
C14 C 0.4211(5) 0.73369(11) 0.7838(3)
H9 H 0.4700 0.7545 0.8626
C15 C 0.5652(5) 0.69459(10) 0.7399(3)
H10 H 0.7141 0.6890 0.7887
N1 N 0.7719(3) 0.44166(8) 0.2429(2)
N2 N 0.8535(3) 0.47512(8) 0.3485(2)
N3 N 0.7569(3) 0.55132(8) 0.4639(2)
H11 H 0.8934 0.5514 0.5131
N4 N 0.5952(3) 0.58955(8) 0.4854(2)
O1 O 0.1944(3) 0.64302(8) 0.4409(2)
H12 H 0.302(6) 0.6180(13) 0.425(3)
S1 S 0.45123(10) 0.51175(2) 0.25846(6)
loop_
_geom_bond_atom_site_label_1
_geom_bond_atom_site_label_2
_geom_bond_site_symmetry_1
_geom_bond_site_symmetry_2
C1 H1 1_555 1_555
C2 C1 1_555 1_555
H2 C2 1_555 1_555
C3 C2 1_555 1_555
H3 C3 1_555 1_555
C4 C3 1_555 1_555
C5 C4 1_555 1_555
H4 C5 1_555 1_555
C6 C1 1_555 1_555
H5 C6 1_555 1_555
C7 C4 1_555 1_555
C8 N2 1_555 1_555
C9 H6 1_555 1_555
C10 C9 1_555 1_555
C11 C10 1_555 1_555
C12 C11 1_555 1_555
H7 C12 1_555 1_555
C13 C12 1_555 1_555
H8 C13 1_555 1_555
C14 C13 1_555 1_555
H9 C14 1_555 1_555
C15 C10 1_555 1_555
H10 C15 1_555 1_555
N1 C7 1_555 1_555
N2 N1 1_555 1_555
N3 C8 1_555 1_555
H11 N3 1_555 1_555
N4 C9 1_555 1_555
O1 C11 1_555 1_555
H12 O1 1_555 1_555
S1 C7 1_555 1_555
C5 C6 1_555 1_555
C8 S1 1_555 1_555
C14 C15 1_555 1_555
N3 N4 1_555 1_555

#END
