
#######################################################################
#
#                 Cambridge Crystallographic Data Centre
#                                CCDC 
#
#######################################################################
#
# If this CIF has been generated from an entry in the Cambridge 
# Structural Database, then it will include bibliographic, chemical, 
# crystal, experimental, refinement or atomic coordinate data resulting 
# from the CCDC's data processing and validation procedures.
#
#######################################################################

data_QAJBEK
_chemical_formula_moiety         'C12 H24 N10 Na2 O10'
_chemical_name_systematic        
bis(\m~2~-aqua)-bis(triaqua-[5-(1-oxopyridin-4-yl)tetrazol-1-ide]-sodium)
_symmetry_cell_setting           triclinic
_symmetry_space_group_name_H-M   'P -1'
_symmetry_Int_Tables_number      2
_space_group_name_Hall           '-P 1'
loop_
_symmetry_equiv_pos_site_id
_symmetry_equiv_pos_as_xyz
1 x,y,z
2 -x,-y,-z
_cell_length_a                   6.887(2)
_cell_length_b                   7.5200(15)
_cell_length_c                   12.258(5)
_cell_angle_alpha                78.16(4)
_cell_angle_beta                 83.42(4)
_cell_angle_gamma                66.68(3)
_cell_volume                     570.187
_exptl_crystal_colour            colorless
_exptl_crystal_description       needle
_cell_formula_units_Z            1
loop_
_atom_site_label
_atom_site_type_symbol
_atom_site_fract_x
_atom_site_fract_y
_atom_site_fract_z
Na1 Na 0.44822(10) 0.33639(10) 0.43816(5)
O1 O 0.61821(19) 0.08957(19) 0.31881(9)
O2 O 0.33072(19) 0.59396(19) 0.28360(10)
H1 H 0.2225 0.6181 0.2472
H2 H 0.4285 0.6085 0.2368
O3 O 0.74752(18) 0.43381(18) 0.43714(9)
H3 H 0.8677 0.3598 0.4637
H4 H 0.7715 0.5053 0.3761
O4 O 0.1735(2) 0.1911(2) 0.49613(11)
H5 H 0.2095 0.0977 0.4599
H6 H 0.2038 0.1404 0.5635
O5 O 0.6251(2) 0.12583(19) 0.61122(10)
H7 H 0.6486 0.2025 0.6463
H8 H 0.5445 0.0774 0.6532
N1 N 0.7291(2) 0.1343(2) 0.22842(11)
N2 N 1.0244(2) 0.3306(2) -0.15939(12)
N3 N 1.1872(2) 0.3602(3) -0.21981(12)
N4 N 1.3389(2) 0.3266(3) -0.15339(12)
N5 N 1.2806(2) 0.2732(2) -0.04794(12)
C1 C 0.6427(3) 0.1983(3) 0.12848(14)
H9 H 0.5044 0.2109 0.1220
C2 C 0.7555(3) 0.2455(3) 0.03546(14)
H10 H 0.6926 0.2900 -0.0334
C3 C 0.9619(3) 0.2278(2) 0.04267(13)
C4 C 1.0458(3) 0.1597(3) 0.14777(15)
H11 H 1.1842 0.1445 0.1566
C5 C 0.9284(3) 0.1147(3) 0.23857(14)
H12 H 0.9875 0.0698 0.3084
C6 C 1.0873(3) 0.2775(2) -0.05454(13)
Na1A Na 0.55178(10) 0.66361(10) 0.56184(5)
O1A O 0.38179(19) 0.91043(19) 0.68119(9)
O2A O 0.66928(19) 0.40604(19) 0.71640(10)
H1A H 0.7775 0.3819 0.7528
H2A H 0.5715 0.3915 0.7632
O3A O 0.25248(18) 0.56619(18) 0.56286(9)
H3A H 0.1323 0.6402 0.5363
H4A H 0.2285 0.4947 0.6239
O4A O 0.8265(2) 0.8089(2) 0.50387(11)
H5A H 0.7905 0.9023 0.5401
H6A H 0.7962 0.8596 0.4365
O5A O 0.3749(2) 0.87417(19) 0.38878(10)
H7A H 0.3514 0.7975 0.3537
H8A H 0.4555 0.9226 0.3468
N1A N 0.2709(2) 0.8657(2) 0.77158(11)
N2A N -0.0244(2) 0.6694(2) 1.15939(12)
N3A N -0.1872(2) 0.6398(3) 1.21981(12)
N4A N -0.3389(2) 0.6734(3) 1.15339(12)
N5A N -0.2806(2) 0.7268(2) 1.04794(12)
C1A C 0.3573(3) 0.8017(3) 0.87152(14)
H9A H 0.4956 0.7891 0.8780
C2A C 0.2445(3) 0.7545(3) 0.96454(14)
H10A H 0.3074 0.7100 1.0334
C3A C 0.0381(3) 0.7722(2) 0.95733(13)
C4A C -0.0458(3) 0.8403(3) 0.85223(15)
H11A H -0.1842 0.8555 0.8434
C5A C 0.0716(3) 0.8853(3) 0.76143(14)
H12A H 0.0125 0.9302 0.6916
C6A C -0.0873(3) 0.7225(2) 1.05454(13)
loop_
_geom_bond_atom_site_label_1
_geom_bond_atom_site_label_2
_geom_bond_site_symmetry_1
_geom_bond_site_symmetry_2
Na1 O1 1_555 1_555
O1 N1 1_555 1_555
O2 Na1 1_555 1_555
H1 O2 1_555 1_555
H2 O2 1_555 1_555
O3 Na1 1_555 1_555
H3 O3 1_555 1_555
H4 O3 1_555 1_555
O4 Na1 1_555 1_555
H5 O4 1_555 1_555
H6 O4 1_555 1_555
O5 Na1 1_555 1_555
H7 O5 1_555 1_555
H8 O5 1_555 1_555
N1 C1 1_555 1_555
N2 N3 1_555 1_555
N3 N4 1_555 1_555
N4 N5 1_555 1_555
N5 C6 1_555 1_555
C1 H9 1_555 1_555
C2 C1 1_555 1_555
H10 C2 1_555 1_555
C3 C2 1_555 1_555
C4 C3 1_555 1_555
H11 C4 1_555 1_555
C5 N1 1_555 1_555
H12 C5 1_555 1_555
C6 N2 1_555 1_555
Na1A O3 1_555 1_555
O1A Na1A 1_555 1_555
O2A Na1A 1_555 1_555
H1A O2A 1_555 1_555
H2A O2A 1_555 1_555
O3A Na1 1_555 1_555
H3A O3A 1_555 1_555
H4A O3A 1_555 1_555
O4A Na1A 1_555 1_555
H5A O4A 1_555 1_555
H6A O4A 1_555 1_555
O5A Na1A 1_555 1_555
H7A O5A 1_555 1_555
H8A O5A 1_555 1_555
N1A O1A 1_555 1_555
N2A N3A 1_555 1_555
N3A N4A 1_555 1_555
N4A N5A 1_555 1_555
N5A C6A 1_555 1_555
C1A N1A 1_555 1_555
H9A C1A 1_555 1_555
C2A C1A 1_555 1_555
H10A C2A 1_555 1_555
C3A C2A 1_555 1_555
C4A C3A 1_555 1_555
H11A C4A 1_555 1_555
C5A N1A 1_555 1_555
H12A C5A 1_555 1_555
C6A N2A 1_555 1_555
C3 C6 1_555 1_555
C4 C5 1_555 1_555
Na1A O3A 1_555 1_555
C3A C6A 1_555 1_555
C4A C5A 1_555 1_555

#END
