
#######################################################################
#
#                 Cambridge Crystallographic Data Centre
#                                CCDC 
#
#######################################################################
#
# If this CIF has been generated from an entry in the Cambridge 
# Structural Database, then it will include bibliographic, chemical, 
# crystal, experimental, refinement or atomic coordinate data resulting 
# from the CCDC's data processing and validation procedures.
#
#######################################################################

data_QAJCEK
_chemical_formula_moiety         'C46 H34 O7,C1 H2 Cl2'
_chemical_name_systematic        
'25-Benzyl-12,15,20,21,29-pentamethoxy-35-oxadecacyclo(30.2.1.0^2,31^.0^3,28^.0^4,25^.0^5,22^.0^6,19^.0^7,16^.0^8,13^.0^10,27^)-pentatriaconta-2,5,8,10,12,15,17,19,21,23,28,30,33-tridecaen-26-one dichloromethane solvate'
_symmetry_cell_setting           triclinic
_symmetry_space_group_name_H-M   'P -1'
_symmetry_Int_Tables_number      2
_space_group_name_Hall           '-P 1'
loop_
_symmetry_equiv_pos_site_id
_symmetry_equiv_pos_as_xyz
1 x,y,z
2 -x,-y,-z
_cell_length_a                   11.4540(7)
_cell_length_b                   11.4933(7)
_cell_length_c                   15.0500(10)
_cell_angle_alpha                93.1910(10)
_cell_angle_beta                 107.7030(10)
_cell_angle_gamma                108.2560(10)
_cell_volume                     1767.31
_exptl_crystal_colour            yellow
_exptl_crystal_description       block
_cell_formula_units_Z            2
loop_
_atom_site_label
_atom_site_type_symbol
_atom_site_fract_x
_atom_site_fract_y
_atom_site_fract_z
O1 O 0.00528(11) 0.34137(11) 0.54533(9)
O2 O -0.47639(11) 0.22951(11) 0.48499(9)
O3 O -0.54432(11) 0.67758(12) 0.77108(9)
O4 O -0.31447(12) 0.86875(12) 0.89546(9)
O5 O 0.32157(11) 0.97414(11) 0.68281(9)
O6 O -0.21567(12) 0.96036(12) 0.56132(9)
O7 O 0.29339(11) 0.82727(12) 0.92083(9)
C1 C -0.04259(15) 0.72676(14) 0.76105(11)
C2 C -0.17540(15) 0.70652(15) 0.76622(11)
C3 C -0.28486(15) 0.60964(15) 0.70587(11)
C4 C -0.27125(15) 0.51471(15) 0.64782(11)
C5 C -0.14361(15) 0.51946(15) 0.65125(11)
C6 C -0.03364(15) 0.62014(14) 0.70519(11)
C7 C 0.08833(15) 0.63374(15) 0.70254(11)
C8 C 0.10687(16) 0.53997(15) 0.65063(12)
C9 C -0.00034(16) 0.43722(15) 0.59931(12)
C10 C -0.12865(16) 0.42588(15) 0.59625(11)
C11 C -0.24204(16) 0.32582(15) 0.53815(12)
C12 C -0.36291(16) 0.32193(15) 0.53654(12)
C13 C -0.38081(16) 0.41686(15) 0.59134(11)
C14 C -0.50724(16) 0.41322(16) 0.59021(12)
C15 C -0.52058(16) 0.50135(16) 0.64582(12)
C16 C -0.41012(16) 0.60170(15) 0.70670(12)
C17 C -0.42127(16) 0.68982(16) 0.76959(12)
C18 C -0.31181(16) 0.78327(16) 0.83038(12)
C19 C -0.18669(16) 0.78921(15) 0.83053(11)
C20 C -0.06721(16) 0.87882(16) 0.89938(12)
C21 C 0.04770(16) 0.86284(16) 0.91717(12)
C22 C 0.05818(15) 0.75418(15) 0.86319(11)
C23 C 0.19399(16) 0.78368(15) 0.85446(12)
C24 C 0.18929(15) 0.76053(15) 0.75203(11)
C25 C 0.13235(15) 0.85711(15) 0.71084(11)
C26 C 0.19586(16) 0.95744(15) 0.67602(12)
C27 C 0.12959(17) 1.03581(16) 0.63453(12)
C28 C 0.00273(17) 1.00907(15) 0.63149(12)
C29 C -0.09903(17) 1.06997(16) 0.59231(13)
C30 C -0.11658(19) 1.13071(18) 0.67795(14)
C31 C -0.17686(18) 1.03830(17) 0.71441(14)
C32 C -0.19625(17) 0.91968(16) 0.65231(12)
C33 C -0.06006(16) 0.91130(15) 0.67067(11)
C34 C 0.00531(15) 0.83691(14) 0.71274(11)
C35 C 0.02523(17) 0.63707(17) 0.91158(12)
C36 C 0.12805(16) 0.63788(16) 1.00183(12)
C37 C 0.1413(2) 0.69776(18) 1.08857(13)
C38 C 0.2380(2) 0.6960(2) 1.16989(14)
C39 C 0.3217(2) 0.6346(2) 1.16553(15)
C40 C 0.3085(2) 0.5731(2) 1.08043(16)
C41 C 0.21202(19) 0.57412(19) 0.99905(14)
C42 C 0.13047(17) 0.34059(17) 0.54879(14)
C43 C -0.46508(19) 0.13105(19) 0.43082(16)
C44 C -0.5713(2) 0.6167(2) 0.84670(17)
C45 C -0.4100(2) 0.9291(2) 0.86783(16)
C46 C 0.39741(18) 1.09108(17) 0.66728(14)
H1 H 0.190(2) 0.5520(19) 0.6472(14)
H2 H -0.234(2) 0.260(2) 0.4998(15)
H3 H -0.584(2) 0.346(2) 0.5513(15)
H4 H -0.606(2) 0.497(2) 0.6452(15)
H5 H -0.073(2) 0.947(2) 0.9328(15)
H6 H 0.128(2) 0.9194(19) 0.9679(14)
H7 H 0.2751(19) 0.7758(18) 0.7505(13)
H8 H 0.171(2) 1.103(2) 0.6067(14)
H9 H -0.0916(19) 1.1150(19) 0.5409(15)
H10 H -0.081(2) 1.218(2) 0.7017(16)
H11 H -0.200(2) 1.038(2) 0.7693(16)
H12 H -0.2663(18) 0.8464(18) 0.6512(13)
H13 H 0.0086(19) 0.564(2) 0.8672(14)
H14 H -0.056(2) 0.627(2) 0.9228(15)
H15 H 0.083(2) 0.741(2) 1.0907(16)
H16 H 0.245(2) 0.737(2) 1.2272(17)
H17 H 0.389(2) 0.636(2) 1.2202(17)
H18 H 0.363(2) 0.530(2) 1.0739(17)
H19 H 0.199(2) 0.527(2) 0.9380(16)
H20 H 0.179(2) 0.411(2) 0.5274(14)
H21 H 0.181(2) 0.336(2) 0.6153(16)
H22 H 0.1135(19) 0.267(2) 0.5072(14)
H23 H -0.406(2) 0.097(2) 0.4727(16)
H24 H -0.551(2) 0.073(2) 0.4026(15)
H25 H -0.432(2) 0.165(2) 0.3786(17)
H26 H -0.567(2) 0.536(3) 0.8391(18)
H27 H -0.658(3) 0.608(2) 0.8413(18)
H28 H -0.512(3) 0.666(3) 0.906(2)
H29 H -0.486(2) 0.885(2) 0.8821(16)
H30 H -0.368(2) 1.009(2) 0.9020(17)
H31 H -0.433(2) 0.932(2) 0.8018(19)
H32 H 0.485(2) 1.096(2) 0.6891(15)
H33 H 0.393(2) 1.157(2) 0.7056(15)
H34 H 0.365(2) 1.099(2) 0.5992(16)
C47 C 0.2249(3) 0.1657(2) 0.88060(18)
Cl1 Cl 0.21118(16) 0.30324(11) 0.83184(15)
Cl2 Cl 0.3765(3) 0.1548(2) 0.89983(16)
Cl3? Cl 0.1924(6) 0.2909(5) 0.8981(9)
Cl4? Cl 0.3922(7) 0.2073(9) 0.8941(5)
loop_
_geom_bond_atom_site_label_1
_geom_bond_atom_site_label_2
_geom_bond_site_symmetry_1
_geom_bond_site_symmetry_2
O1 C9 1_555 1_555
O2 C12 1_555 1_555
O3 C17 1_555 1_555
O4 C18 1_555 1_555
O5 C26 1_555 1_555
O6 C29 1_555 1_555
O7 C23 1_555 1_555
C1 C2 1_555 1_555
C2 C3 1_555 1_555
C3 C4 1_555 1_555
C4 C5 1_555 1_555
C5 C6 1_555 1_555
C6 C1 1_555 1_555
C7 C6 1_555 1_555
C8 C7 1_555 1_555
C9 C8 1_555 1_555
C10 C5 1_555 1_555
C11 C10 1_555 1_555
C12 C11 1_555 1_555
C13 C4 1_555 1_555
C14 C13 1_555 1_555
C15 C14 1_555 1_555
C16 C3 1_555 1_555
C17 C16 1_555 1_555
C18 C17 1_555 1_555
C19 C2 1_555 1_555
C20 C19 1_555 1_555
C21 C20 1_555 1_555
C22 C1 1_555 1_555
C23 C22 1_555 1_555
C24 C7 1_555 1_555
C25 C24 1_555 1_555
C26 C25 1_555 1_555
C27 C26 1_555 1_555
C28 C27 1_555 1_555
C29 C28 1_555 1_555
C30 C29 1_555 1_555
C31 C30 1_555 1_555
C32 O6 1_555 1_555
C33 C28 1_555 1_555
C34 C1 1_555 1_555
C35 C22 1_555 1_555
C36 C35 1_555 1_555
C37 C36 1_555 1_555
C38 C37 1_555 1_555
C39 C38 1_555 1_555
C40 C39 1_555 1_555
C41 C36 1_555 1_555
C42 O1 1_555 1_555
C43 O2 1_555 1_555
C44 O3 1_555 1_555
C45 O4 1_555 1_555
C46 O5 1_555 1_555
C47 Cl1 1_555 1_555
Cl2 C47 1_555 1_555
H1 C8 1_555 1_555
H2 C11 1_555 1_555
H3 C14 1_555 1_555
H4 C15 1_555 1_555
H5 C20 1_555 1_555
H6 C21 1_555 1_555
H7 C24 1_555 1_555
H8 C27 1_555 1_555
H9 C29 1_555 1_555
H10 C30 1_555 1_555
H11 C31 1_555 1_555
H12 C32 1_555 1_555
H13 C35 1_555 1_555
H14 C35 1_555 1_555
H15 C37 1_555 1_555
H16 C38 1_555 1_555
H17 C39 1_555 1_555
H18 C40 1_555 1_555
H19 C41 1_555 1_555
H20 C42 1_555 1_555
H21 C42 1_555 1_555
H22 C42 1_555 1_555
H23 C43 1_555 1_555
H24 C43 1_555 1_555
H25 C43 1_555 1_555
H26 C44 1_555 1_555
H27 C44 1_555 1_555
H28 C44 1_555 1_555
H29 C45 1_555 1_555
H30 C45 1_555 1_555
H31 C45 1_555 1_555
H32 C46 1_555 1_555
H33 C46 1_555 1_555
H34 C46 1_555 1_555
C9 C10 1_555 1_555
C12 C13 1_555 1_555
C15 C16 1_555 1_555
C18 C19 1_555 1_555
C21 C22 1_555 1_555
C23 C24 1_555 1_555
C25 C34 1_555 1_555
C31 C32 1_555 1_555
C32 C33 1_555 1_555
C33 C34 1_555 1_555
C40 C41 1_555 1_555

#END
