
#######################################################################
#
#                 Cambridge Crystallographic Data Centre
#                                CCDC 
#
#######################################################################
#
# If this CIF has been generated from an entry in the Cambridge 
# Structural Database, then it will include bibliographic, chemical, 
# crystal, experimental, refinement or atomic coordinate data resulting 
# from the CCDC's data processing and validation procedures.
#
#######################################################################

data_QAJJIW
_chemical_formula_moiety         'C19 H17 Cl1 N1 O3 P1'
_chemical_name_systematic        'Diphenyl (2-chlorobenzylamido)phosphate'
_symmetry_cell_setting           triclinic
_symmetry_space_group_name_H-M   'P -1'
_symmetry_Int_Tables_number      2
_space_group_name_Hall           '-P 1'
loop_
_symmetry_equiv_pos_site_id
_symmetry_equiv_pos_as_xyz
1 x,y,z
2 -x,-y,-z
_cell_length_a                   8.6178(5)
_cell_length_b                   9.5901(6)
_cell_length_c                   12.1543(7)
_cell_angle_alpha                107.6090(10)
_cell_angle_beta                 93.8820(10)
_cell_angle_gamma                110.0360(10)
_cell_volume                     882.864
_exptl_crystal_colour            colorless
_exptl_crystal_description       block
_cell_formula_units_Z            2
_exptl_crystal_recrystallization_method acetonitrile
loop_
_atom_site_label
_atom_site_type_symbol
_atom_site_fract_x
_atom_site_fract_y
_atom_site_fract_z
Cl1 Cl 1.12274(4) 0.65811(4) 0.77058(3)
P1 P 0.49017(4) 0.15695(4) 0.67814(3)
O1 O 0.35884(12) 0.01133(11) 0.59500(8)
O2 O 0.44078(12) 0.30686(11) 0.72227(8)
O3 O 0.53917(12) 0.14595(11) 0.80359(8)
N1 N 0.65627(15) 0.21809(13) 0.62570(10)
C1 C 0.97088(17) 0.61883(16) 0.65109(11)
C2 C 1.00000(19) 0.72582(16) 0.59229(13)
H1 H 1.1015 0.8170 0.6159
C3 C 0.8788(2) 0.69789(18) 0.49836(13)
H2 H 0.8965 0.7708 0.4577
C4 C 0.7317(2) 0.56346(18) 0.46398(13)
H3 H 0.6485 0.5443 0.3999
C5 C 0.70658(17) 0.45701(16) 0.52345(12)
H4 H 0.6058 0.3650 0.4989
C6 C 0.82539(16) 0.48181(15) 0.61804(11)
C7 C 0.80201(17) 0.36547(15) 0.68278(11)
H5 H 0.9043 0.3410 0.6882
H6 H 0.7890 0.4157 0.7639
C8 C 0.32185(16) 0.31673(15) 0.79467(11)
C9 C 0.35893(18) 0.46128(16) 0.88220(12)
H7 H 0.4608 0.5481 0.8920
C10 C 0.24451(19) 0.47717(17) 0.95549(12)
H8 H 0.2686 0.5755 1.0163
C11 C 0.09537(19) 0.35066(17) 0.94059(13)
H9 H 0.0181 0.3619 0.9915
C12 C 0.05959(18) 0.20772(17) 0.85097(13)
H10 H -0.0430 0.1213 0.8402
C13 C 0.17259(18) 0.18976(16) 0.77676(12)
H11 H 0.1478 0.0921 0.7149
C14 C 0.60296(16) 0.03684(15) 0.82152(12)
C15 C 0.60994(18) -0.08832(16) 0.73025(13)
H12 H 0.5699 -0.1047 0.6508
C16 C 0.67701(19) -0.18925(17) 0.75786(14)
H13 H 0.6826 -0.2756 0.6965
C17 C 0.7356(2) -0.16551(18) 0.87353(15)
H14 H 0.7817 -0.2348 0.8913
C18 C 0.7269(2) -0.03992(19) 0.96360(14)
H15 H 0.7667 -0.0235 1.0431
C19 C 0.65988(18) 0.06176(16) 0.93767(12)
H16 H 0.6533 0.1475 0.9991
H17 H 0.661(2) 0.160(2) 0.5644(18)
loop_
_geom_bond_atom_site_label_1
_geom_bond_atom_site_label_2
_geom_bond_site_symmetry_1
_geom_bond_site_symmetry_2
Cl1 C1 1_555 1_555
P1 O1 1_555 1_555
O2 P1 1_555 1_555
O3 P1 1_555 1_555
N1 P1 1_555 1_555
C1 C2 1_555 1_555
C2 H1 1_555 1_555
C3 C2 1_555 1_555
H2 C3 1_555 1_555
C4 C3 1_555 1_555
H3 C4 1_555 1_555
C5 C4 1_555 1_555
H4 C5 1_555 1_555
C6 C1 1_555 1_555
C7 N1 1_555 1_555
H5 C7 1_555 1_555
H6 C7 1_555 1_555
C8 O2 1_555 1_555
C9 C8 1_555 1_555
H7 C9 1_555 1_555
C10 C9 1_555 1_555
H8 C10 1_555 1_555
C11 C10 1_555 1_555
H9 C11 1_555 1_555
C12 C11 1_555 1_555
H10 C12 1_555 1_555
C13 C8 1_555 1_555
H11 C13 1_555 1_555
C14 O3 1_555 1_555
C15 C14 1_555 1_555
H12 C15 1_555 1_555
C16 C15 1_555 1_555
H13 C16 1_555 1_555
C17 C16 1_555 1_555
H14 C17 1_555 1_555
C18 C17 1_555 1_555
H15 C18 1_555 1_555
C19 C14 1_555 1_555
H16 C19 1_555 1_555
H17 N1 1_555 1_555
C5 C6 1_555 1_555
C6 C7 1_555 1_555
C12 C13 1_555 1_555
C18 C19 1_555 1_555

#END
