
#######################################################################
#
#                 Cambridge Crystallographic Data Centre
#                                CCDC 
#
#######################################################################
#
# If this CIF has been generated from an entry in the Cambridge 
# Structural Database, then it will include bibliographic, chemical, 
# crystal, experimental, refinement or atomic coordinate data resulting 
# from the CCDC's data processing and validation procedures.
#
#######################################################################

data_QAJJAP
_chemical_name_common            
'C-Methyl-5,11,17,23-tetrakis(cyclohexylammoniomethyl)calix(4)resorcinarene tetrakis(trifluoroacetate) 1,4-dioxane solvate'
_chemical_formula_moiety         'C60 H88 N4 O8 4+,4(C2 F3 O2 1-),3(C4 H8 O2)'
_chemical_name_systematic        
'2,8,14,20-Tetramethyl-5,11,17,23-tetrakis(cyclohexylammoniomethyl)-4,6,10,12,16,18,22,24-octahydroxycalix(4)arene tetrakis(trifluoroacetate) 1,4-dioxane solvate'
_symmetry_cell_setting           monoclinic
_symmetry_space_group_name_H-M   'P 21/c'
_symmetry_Int_Tables_number      14
_space_group_name_Hall           '-P 2ybc'
loop_
_symmetry_equiv_pos_site_id
_symmetry_equiv_pos_as_xyz
1 x,y,z
2 -x,1/2+y,1/2-z
3 -x,-y,-z
4 x,1/2-y,1/2+z
_cell_length_a                   20.5036(9)
_cell_length_b                   14.3500(6)
_cell_length_c                   30.0433(11)
_cell_angle_alpha                90
_cell_angle_beta                 107.926(4)
_cell_angle_gamma                90
_cell_volume                     8410.42
_exptl_crystal_colour            colorless
_exptl_crystal_description       block
_cell_formula_units_Z            4
loop_
_atom_site_label
_atom_site_type_symbol
_atom_site_fract_x
_atom_site_fract_y
_atom_site_fract_z
O1 O 0.03912(14) 0.7254(2) 0.24867(9)
H1 H 0.0636 0.7478 0.2334
O2 O 0.20205(15) 0.8815(2) 0.38038(10)
H2 H 0.2262 0.8708 0.4080
O3 O 0.31015(15) 0.8488(2) 0.46628(10)
H3 H 0.3441 0.8739 0.4611
O4 O 0.45182(13) 0.5768(2) 0.48534(10)
H4 H 0.4497 0.5236 0.4733
O5 O 0.42374(14) 0.4263(2) 0.42346(10)
H5 H 0.4411 0.4481 0.4038
O6 O 0.25625(15) 0.2715(2) 0.29416(9)
H6 H 0.2137 0.2700 0.2812
O7 O 0.11293(15) 0.28706(19) 0.23341(9)
H7 H 0.1249 0.3030 0.2102
O8 O -0.02629(14) 0.5633(2) 0.20318(9)
H8 H -0.0204 0.6177 0.2139
N1 N 0.20670(17) 0.8750(2) 0.28525(11)
H9 H 0.2394 0.8937 0.3157
H10 H 0.2157 0.8089 0.2797
N2 N 0.47837(17) 0.7811(2) 0.45620(11)
H11 H 0.4431 0.8123 0.4304
H12 H 0.4891 0.7205 0.4443
N3 N 0.38083(17) 0.3720(3) 0.29200(11)
H13 H 0.3413 0.3447 0.2677
H14 H 0.3695 0.4375 0.2968
N4 N 0.04250(17) 0.4692(2) 0.13923(11)
H15 H 0.0862 0.4400 0.1390
H16 H 0.0536 0.5298 0.1555
C1 C 0.05675(19) 0.6696(3) 0.32480(13)
C2 C 0.07297(19) 0.7343(3) 0.29629(12)
C3 C 0.12058(19) 0.8070(3) 0.31591(13)
C4 C 0.15610(19) 0.8093(3) 0.36459(13)
C5 C 0.14294(19) 0.7434(3) 0.39373(12)
C6 C 0.09247(19) 0.6758(3) 0.37272(13)
H17 H 0.0820 0.6310 0.3927
C7 C 0.1352(2) 0.8842(3) 0.28753(13)
H18 H 0.1299 0.9448 0.3018
H19 H 0.1023 0.8822 0.2555
C8 C 0.2185(2) 0.9330(3) 0.24770(14)
H20 H 0.1824 0.9183 0.2176
C9 C 0.2170(2) 1.0366(3) 0.25701(15)
H21 H 0.1716 1.0539 0.2596
H22 H 0.2521 1.0517 0.2871
C10 C 0.2306(3) 1.0918(3) 0.21873(16)
H23 H 0.2310 1.1591 0.2260
H24 H 0.1940 1.0803 0.1889
C11 C 0.2990(3) 1.0637(4) 0.21396(18)
H25 H 0.3360 1.0801 0.2429
H26 H 0.3072 1.0979 0.1876
C12 C 0.3001(3) 0.9591(4) 0.20530(19)
H27 H 0.2645 0.9436 0.1755
H28 H 0.3452 0.9416 0.2021
C13 C 0.2876(2) 0.9039(4) 0.24386(17)
H29 H 0.3241 0.9163 0.2737
H30 H 0.2876 0.8364 0.2369
C14 C 0.18518(19) 0.7439(3) 0.44632(13)
H31 H 0.1917 0.8104 0.4567
C15 C 0.1470(2) 0.6959(3) 0.47509(14)
H32 H 0.1004 0.7212 0.4672
H33 H 0.1708 0.7064 0.5084
H34 H 0.1448 0.6289 0.4685
C16 C 0.25688(19) 0.7001(3) 0.45611(12)
C17 C 0.3172(2) 0.7531(3) 0.46622(12)
C18 C 0.3827(2) 0.7105(3) 0.47721(12)
C19 C 0.38622(19) 0.6134(3) 0.47548(12)
C20 C 0.3271(2) 0.5581(3) 0.46603(12)
C21 C 0.2635(2) 0.6035(3) 0.45567(12)
H35 H 0.2231 0.5667 0.4480
C22 C 0.4505(2) 0.7642(3) 0.49449(13)
H36 H 0.4427 0.8245 0.5081
H37 H 0.4838 0.7279 0.5193
C23 C 0.5428(2) 0.8408(3) 0.47026(15)
H38 H 0.5332 0.8985 0.4858
C24 C 0.6051(2) 0.7893(3) 0.50511(16)
H39 H 0.5941 0.7752 0.5342
H40 H 0.6126 0.7294 0.4911
C25 C 0.6716(2) 0.8472(4) 0.51728(19)
H41 H 0.6669 0.9033 0.5352
H42 H 0.7105 0.8098 0.5368
C26 C 0.6851(3) 0.8755(4) 0.4732(2)
H43 H 0.6955 0.8194 0.4574
H44 H 0.7258 0.9168 0.4808
C27 C 0.6228(3) 0.9271(4) 0.4395(2)
H45 H 0.6147 0.9856 0.4545
H46 H 0.6335 0.9440 0.4106
C28 C 0.5571(3) 0.8682(4) 0.42651(16)
H47 H 0.5182 0.9047 0.4063
H48 H 0.5630 0.8119 0.4091
C29 C 0.3314(2) 0.4521(3) 0.47005(12)
H49 H 0.3803 0.4350 0.4860
C30 C 0.2897(2) 0.4176(3) 0.49964(13)
H50 H 0.2421 0.4380 0.4861
H51 H 0.3083 0.4427 0.5314
H52 H 0.2914 0.3493 0.5008
C31 C 0.30914(19) 0.4051(3) 0.42231(12)
C32 C 0.35777(19) 0.3933(3) 0.40044(13)
C33 C 0.3393(2) 0.3457(3) 0.35799(13)
C34 C 0.2701(2) 0.3151(3) 0.33598(12)
C35 C 0.2196(2) 0.3282(3) 0.35609(12)
C36 C 0.2418(2) 0.3717(3) 0.39928(13)
H53 H 0.2087 0.3800 0.4152
C37 C 0.3921(2) 0.3198(3) 0.33627(13)
H54 H 0.3899 0.2520 0.3299
H55 H 0.4382 0.3343 0.3579
C38 C 0.4419(2) 0.3696(3) 0.27569(15)
H56 H 0.4826 0.3907 0.3018
C39 C 0.4547(3) 0.2723(4) 0.26197(18)
H57 H 0.4629 0.2300 0.2892
H58 H 0.4143 0.2493 0.2368
C40 C 0.5163(3) 0.2743(5) 0.2452(2)
H59 H 0.5250 0.2112 0.2349
H60 H 0.5571 0.2939 0.2710
C41 C 0.5039(3) 0.3418(5) 0.20490(19)
H61 H 0.5447 0.3431 0.1939
H62 H 0.4645 0.3198 0.1787
C42 C 0.4895(3) 0.4380(5) 0.21811(19)
H63 H 0.4805 0.4793 0.1905
H64 H 0.5302 0.4622 0.2426
C43 C 0.4285(3) 0.4392(4) 0.23609(18)
H65 H 0.3865 0.4220 0.2108
H66 H 0.4222 0.5023 0.2474
C44 C 0.1445(2) 0.2955(3) 0.33129(13)
H67 H 0.1475 0.2400 0.3119
C45 C 0.1096(2) 0.2641(3) 0.36477(14)
H68 H 0.1057 0.3165 0.3848
H69 H 0.1362 0.2140 0.3842
H70 H 0.0637 0.2412 0.3476
C46 C 0.10131(19) 0.3700(3) 0.29715(12)
C47 C 0.08499(19) 0.3614(3) 0.24891(13)
C48 C 0.0403(2) 0.4254(3) 0.21785(12)
C49 C 0.01647(19) 0.5017(3) 0.23559(12)
C50 C 0.03299(19) 0.5142(3) 0.28367(13)
C51 C 0.07517(19) 0.4462(3) 0.31299(13)
H71 H 0.0860 0.4541 0.3459
C52 C 0.0099(2) 0.4093(3) 0.16578(13)
H72 H 0.0161 0.3432 0.1586
H73 H -0.0399 0.4225 0.1562
C53 C -0.0018(2) 0.4866(3) 0.08846(13)
H74 H 0.0284 0.5170 0.0722
C54 C -0.0276(3) 0.3960(3) 0.06254(14)
H75 H -0.0544 0.3608 0.0792
H76 H 0.0119 0.3571 0.0617
C55 C -0.0738(3) 0.4173(4) 0.01113(16)
H77 H -0.0444 0.4435 -0.0065
H78 H -0.0928 0.3577 -0.0040
C56 C -0.1322(3) 0.4834(4) 0.00705(18)
H79 H -0.1656 0.4548 0.0207
H80 H -0.1559 0.4972 -0.0263
C57 C -0.1042(3) 0.5728(4) 0.03288(18)
H81 H -0.1427 0.6148 0.0323
H82 H -0.0749 0.6046 0.0168
C58 C -0.0618(2) 0.5529(4) 0.08415(15)
H83 H -0.0439 0.6125 0.0997
H84 H -0.0922 0.5256 0.1007
C59 C 0.00254(19) 0.5939(3) 0.30297(13)
H85 H -0.0333 0.6232 0.2762
C60 C -0.0322(2) 0.5577(3) 0.33612(15)
H86 H -0.0673 0.5124 0.3201
H87 H -0.0537 0.6094 0.3477
H88 H 0.0016 0.5273 0.3625
O9 O 0.3185(4) 0.5416(6) 0.2893(4)
O10 O 0.2572(4) 0.6936(5) 0.3172(3)
C61 C 0.3495(4) 0.6334(6) 0.2952(4)
H89 H 0.3340 0.6680 0.2653
H90 H 0.4000 0.6274 0.3044
C62 C 0.3294(5) 0.6857(7) 0.3323(3)
H91 H 0.3451 0.6517 0.3624
H92 H 0.3507 0.7483 0.3369
C63 C 0.2274(5) 0.6023(7) 0.3115(4)
H93 H 0.1769 0.6079 0.3032
H94 H 0.2439 0.5681 0.3415
C64 C 0.2455(4) 0.5473(7) 0.2735(3)
H95 H 0.2248 0.4844 0.2701
H96 H 0.2292 0.5800 0.2431
O11 O 0.15222(17) 0.3455(3) 0.16596(11)
O12 O 0.26781(19) 0.3351(3) 0.20288(12)
C65 C 0.2153(2) 0.3504(4) 0.17003(15)
C66 C 0.2235(4) 0.3747(6) 0.1266(3)
F1 F 0.2681(6) 0.4433(7) 0.1282(4)
F2 F 0.1681(5) 0.3865(9) 0.0879(3)
F3 F 0.2537(5) 0.2920(7) 0.1137(3)
F4 F 0.3460(2) 1.1172(2) 0.37505(14)
F5 F 0.4532(2) 1.0944(3) 0.41456(12)
F6 F 0.4111(2) 1.0547(3) 0.34341(12)
O13 O 0.39495(17) 0.9508(3) 0.43952(14)
O14 O 0.3493(3) 0.9080(3) 0.36504(18)
C67 C 0.3783(2) 0.9620(3) 0.39672(18)
C68 C 0.3988(3) 1.0570(3) 0.38288(16)
F7 F 0.6118(2) 0.6660(3) 0.37418(16)
F8 F 0.62872(17) 0.5217(3) 0.37791(12)
F9 F 0.55318(18) 0.5805(3) 0.31701(11)
O15 O 0.48965(18) 0.4967(2) 0.37222(12)
O16 O 0.5143(2) 0.6350(3) 0.40813(14)
C69 C 0.5214(2) 0.5713(3) 0.38377(15)
C70 C 0.5790(3) 0.5862(4) 0.36366(17)
F10 F 0.0831(13) 0.7383(12) 0.0809(5)
F11 F 0.1467(10) 0.8424(14) 0.1265(7)
O17 O 0.0932(8) 0.7883(11) 0.1908(5)
O18 O 0.0662(8) 0.6620(11) 0.1510(7)
C71 C 0.0951(15) 0.7340(13) 0.1599(6)
C72 C 0.0960(9) 0.7843(11) 0.1162(5)
F12 F 0.0398(12) 0.8401(16) 0.1017(8)
O19 O 0.2863(6) 0.7298(10) 0.0891(4)
O20 O 0.4274(6) 0.7470(8) 0.1395(4)
C73 C 0.3228(9) 0.8113(14) 0.0890(13)
H97 H 0.3143 0.8544 0.1123
H98 H 0.3043 0.8409 0.0579
C74 C 0.3972(9) 0.8008(16) 0.0992(10)
H99 H 0.4066 0.7710 0.0721
H100 H 0.4186 0.8633 0.1034
C75 C 0.3946(7) 0.6488(11) 0.1041(6)
H101 H 0.3860 0.6595 0.0702
H102 H 0.4210 0.5908 0.1146
C76 C 0.3274(9) 0.6589(13) 0.1210(6)
H103 H 0.3023 0.5991 0.1178
H104 H 0.3398 0.6799 0.1539
O21 O 0.0931(11) 0.4303(13) 0.4818(7)
O22 O 0.0441(10) 0.2941(12) 0.5243(7)
C77 C 0.0326(13) 0.3902(18) 0.4550(7)
H105 H 0.0389 0.3691 0.4252
H106 H -0.0033 0.4390 0.4472
C78 C 0.0064(12) 0.3089(18) 0.4764(8)
H107 H -0.0423 0.3200 0.4738
H108 H 0.0086 0.2518 0.4584
C79 C 0.0722(15) 0.3763(17) 0.5505(7)
H109 H 0.0911 0.3626 0.5844
H110 H 0.0374 0.4262 0.5458
C80 C 0.1299(11) 0.4036(19) 0.5293(8)
H111 H 0.1574 0.4562 0.5467
H112 H 0.1606 0.3501 0.5299
O23? O 0.3333(11) 0.5602(16) 0.2954(7)
O24? O 0.2295(7) 0.6817(8) 0.2945(4)
C81? C 0.3445(11) 0.6365(16) 0.3274(9)
H113? H 0.3606 0.6913 0.3138
H114? H 0.3806 0.6197 0.3568
C82? C 0.2792(11) 0.661(2) 0.3383(6)
H115? H 0.2638 0.6084 0.3537
H116? H 0.2866 0.7161 0.3593
C83? C 0.2110(11) 0.5933(13) 0.2740(9)
H117? H 0.1675 0.5955 0.2479
H118? H 0.2074 0.5462 0.2972
C84? C 0.2730(11) 0.575(2) 0.2566(8)
H119? H 0.2641 0.5201 0.2359
H120? H 0.2800 0.6297 0.2383
F13? F 0.1896(6) 0.3298(9) 0.0864(4)
F14? F 0.2850(5) 0.3939(10) 0.1256(4)
F15? F 0.1840(6) 0.4662(8) 0.1130(4)
F16? F 0.1291(11) 0.7126(14) 0.0969(6)
F17? F 0.1084(12) 0.8522(12) 0.1186(7)
O25? O 0.1158(8) 0.7722(12) 0.1997(5)
O26? O 0.0914(13) 0.6456(12) 0.1575(8)
C85? C 0.1067(15) 0.7231(14) 0.1659(7)
C86? C 0.1313(11) 0.7667(13) 0.1285(6)
C87? C 0.3903(9) 0.8102(11) 0.1011(11)
H121? H 0.4109 0.8556 0.1263
H122? H 0.3996 0.8335 0.0727
O27? O 0.4277(6) 0.7253(8) 0.1139(4)
C88? C 0.3901(8) 0.6539(11) 0.1337(6)
H123? H 0.3858 0.6743 0.1641
H124? H 0.4134 0.5926 0.1376
C89? C 0.3209(10) 0.8142(12) 0.0926(13)
H125? H 0.3027 0.8680 0.0719
H126? H 0.3114 0.8253 0.1225
O28? O 0.2831(7) 0.7275(10) 0.0702(4)
C90? C 0.3164(7) 0.6500(10) 0.0939(6)
H127? H 0.3212 0.6059 0.0697
H128? H 0.2844 0.6206 0.1086
O29? O 0.1194(11) 0.4554(13) 0.5079(7)
O30? O 0.0666(11) 0.3351(13) 0.5564(7)
C91? C 0.0895(14) 0.3702(17) 0.4860(8)
H129? H 0.1235 0.3190 0.4931
H130? H 0.0705 0.3777 0.4517
C92? C 0.0312(11) 0.352(2) 0.5085(8)
H131? H 0.0005 0.4061 0.5047
H132? H 0.0037 0.2965 0.4941
C93? C 0.1331(12) 0.3682(18) 0.5788(8)
H133? H 0.1664 0.3191 0.5776
H134? H 0.1379 0.3797 0.6122
C94? C 0.1513(13) 0.4573(16) 0.5577(8)
H135? H 0.1351 0.5122 0.5712
H136? H 0.2017 0.4622 0.5649
F18? F 0.2317(5) 0.7143(13) 0.1696(4)
F19? F 0.1688(10) 0.8072(11) 0.1310(6)
F20? F 0.1522(10) 0.6665(13) 0.1097(5)
O31? O 0.1380(7) 0.7521(10) 0.2111(4)
O32? O 0.1062(10) 0.6278(10) 0.1748(6)
C95? C 0.1218(8) 0.7064(11) 0.1751(5)
C96? C 0.1636(8) 0.7250(10) 0.1435(5)
F21? F 0.2010(10) 0.7719(17) 0.1485(8)
loop_
_geom_bond_atom_site_label_1
_geom_bond_atom_site_label_2
_geom_bond_site_symmetry_1
_geom_bond_site_symmetry_2
O1 H1 1_555 1_555
O2 H2 1_555 1_555
O3 H3 1_555 1_555
O4 H4 1_555 1_555
O5 H5 1_555 1_555
O6 H6 1_555 1_555
O7 H7 1_555 1_555
O8 H8 1_555 1_555
N1 H9 1_555 1_555
H10 N1 1_555 1_555
N2 H11 1_555 1_555
H12 N2 1_555 1_555
N3 H13 1_555 1_555
H14 N3 1_555 1_555
N4 H15 1_555 1_555
H16 N4 1_555 1_555
C1 C2 1_555 1_555
C2 O1 1_555 1_555
C3 C2 1_555 1_555
C4 O2 1_555 1_555
C5 C4 1_555 1_555
C6 C1 1_555 1_555
H17 C6 1_555 1_555
C7 N1 1_555 1_555
H18 C7 1_555 1_555
H19 C7 1_555 1_555
C8 N1 1_555 1_555
H20 C8 1_555 1_555
C9 C8 1_555 1_555
H21 C9 1_555 1_555
H22 C9 1_555 1_555
C10 C9 1_555 1_555
H23 C10 1_555 1_555
H24 C10 1_555 1_555
C11 C10 1_555 1_555
H25 C11 1_555 1_555
H26 C11 1_555 1_555
C12 C11 1_555 1_555
H27 C12 1_555 1_555
H28 C12 1_555 1_555
C13 C8 1_555 1_555
H29 C13 1_555 1_555
H30 C13 1_555 1_555
C14 C5 1_555 1_555
H31 C14 1_555 1_555
C15 C14 1_555 1_555
H32 C15 1_555 1_555
H33 C15 1_555 1_555
H34 C15 1_555 1_555
C16 C14 1_555 1_555
C17 O3 1_555 1_555
C18 C17 1_555 1_555
C19 O4 1_555 1_555
C20 C19 1_555 1_555
C21 C16 1_555 1_555
H35 C21 1_555 1_555
C22 N2 1_555 1_555
H36 C22 1_555 1_555
H37 C22 1_555 1_555
C23 N2 1_555 1_555
H38 C23 1_555 1_555
C24 C23 1_555 1_555
H39 C24 1_555 1_555
H40 C24 1_555 1_555
C25 C24 1_555 1_555
H41 C25 1_555 1_555
H42 C25 1_555 1_555
C26 C25 1_555 1_555
H43 C26 1_555 1_555
H44 C26 1_555 1_555
C27 C26 1_555 1_555
H45 C27 1_555 1_555
H46 C27 1_555 1_555
C28 C23 1_555 1_555
H47 C28 1_555 1_555
H48 C28 1_555 1_555
C29 C20 1_555 1_555
H49 C29 1_555 1_555
C30 C29 1_555 1_555
H50 C30 1_555 1_555
H51 C30 1_555 1_555
H52 C30 1_555 1_555
C31 C29 1_555 1_555
C32 O5 1_555 1_555
C33 C32 1_555 1_555
C34 O6 1_555 1_555
C35 C34 1_555 1_555
C36 C31 1_555 1_555
H53 C36 1_555 1_555
C37 N3 1_555 1_555
H54 C37 1_555 1_555
H55 C37 1_555 1_555
C38 N3 1_555 1_555
H56 C38 1_555 1_555
C39 C38 1_555 1_555
H57 C39 1_555 1_555
H58 C39 1_555 1_555
C40 C39 1_555 1_555
H59 C40 1_555 1_555
H60 C40 1_555 1_555
C41 C40 1_555 1_555
H61 C41 1_555 1_555
H62 C41 1_555 1_555
C42 C41 1_555 1_555
H63 C42 1_555 1_555
H64 C42 1_555 1_555
C43 C38 1_555 1_555
H65 C43 1_555 1_555
H66 C43 1_555 1_555
C44 C35 1_555 1_555
H67 C44 1_555 1_555
C45 C44 1_555 1_555
H68 C45 1_555 1_555
H69 C45 1_555 1_555
H70 C45 1_555 1_555
C46 C44 1_555 1_555
C47 O7 1_555 1_555
C48 C47 1_555 1_555
C49 O8 1_555 1_555
C50 C49 1_555 1_555
C51 C46 1_555 1_555
H71 C51 1_555 1_555
C52 N4 1_555 1_555
H72 C52 1_555 1_555
H73 C52 1_555 1_555
C53 N4 1_555 1_555
H74 C53 1_555 1_555
C54 C53 1_555 1_555
H75 C54 1_555 1_555
H76 C54 1_555 1_555
C55 C54 1_555 1_555
H77 C55 1_555 1_555
H78 C55 1_555 1_555
C56 C55 1_555 1_555
H79 C56 1_555 1_555
H80 C56 1_555 1_555
C57 C56 1_555 1_555
H81 C57 1_555 1_555
H82 C57 1_555 1_555
C58 C53 1_555 1_555
H83 C58 1_555 1_555
H84 C58 1_555 1_555
C59 C1 1_555 1_555
H85 C59 1_555 1_555
C60 C59 1_555 1_555
H86 C60 1_555 1_555
H87 C60 1_555 1_555
H88 C60 1_555 1_555
O9 C61 1_555 1_555
O10 C62 1_555 1_555
C61 H89 1_555 1_555
H90 C61 1_555 1_555
C62 C61 1_555 1_555
H91 C62 1_555 1_555
H92 C62 1_555 1_555
C63 O10 1_555 1_555
H93 C63 1_555 1_555
H94 C63 1_555 1_555
C64 O9 1_555 1_555
H95 C64 1_555 1_555
H96 C64 1_555 1_555
O11 C65 1_555 1_555
O12 C65 1_555 1_555
C65 C66 1_555 1_555
C66 F1 1_555 1_555
F2 C66 1_555 1_555
F3 C66 1_555 1_555
F4 C68 1_555 1_555
F5 C68 1_555 1_555
F6 C68 1_555 1_555
O13 C67 1_555 1_555
O14 C67 1_555 1_555
C67 C68 1_555 1_555
F7 C70 1_555 1_555
F8 C70 1_555 1_555
F9 C70 1_555 1_555
O15 C69 1_555 1_555
O16 C69 1_555 1_555
C69 C70 1_555 1_555
F10 C72 1_555 1_555
F11 C72 1_555 1_555
O17 C71 1_555 1_555
O18 C71 1_555 1_555
C71 C72 1_555 1_555
C72 F12 1_555 1_555
O19 C73 1_555 1_555
O20 C74 1_555 1_555
C73 H97 1_555 1_555
H98 C73 1_555 1_555
C74 C73 1_555 1_555
H99 C74 1_555 1_555
H100 C74 1_555 1_555
C75 O20 1_555 1_555
H101 C75 1_555 1_555
H102 C75 1_555 1_555
C76 O19 1_555 1_555
H103 C76 1_555 1_555
H104 C76 1_555 1_555
O21 C77 1_555 1_555
O22 C78 1_555 1_555
C77 H105 1_555 1_555
H106 C77 1_555 1_555
C78 C77 1_555 1_555
H107 C78 1_555 1_555
H108 C78 1_555 1_555
C79 O22 1_555 1_555
H109 C79 1_555 1_555
H110 C79 1_555 1_555
C80 O21 1_555 1_555
H111 C80 1_555 1_555
H112 C80 1_555 1_555
C3 C4 1_555 1_555
C3 C7 1_555 1_555
C5 C6 1_555 1_555
C12 C13 1_555 1_555
C16 C17 1_555 1_555
C18 C19 1_555 1_555
C18 C22 1_555 1_555
C20 C21 1_555 1_555
C27 C28 1_555 1_555
C31 C32 1_555 1_555
C33 C34 1_555 1_555
C33 C37 1_555 1_555
C35 C36 1_555 1_555
C42 C43 1_555 1_555
C46 C47 1_555 1_555
C48 C49 1_555 1_555
C48 C52 1_555 1_555
C50 C51 1_555 1_555
C50 C59 1_555 1_555
C57 C58 1_555 1_555
C63 C64 1_555 1_555
C75 C76 1_555 1_555
C79 C80 1_555 1_555

#END
