
#######################################################################
#
#                 Cambridge Crystallographic Data Centre
#                                CCDC 
#
#######################################################################
#
# If this CIF has been generated from an entry in the Cambridge 
# Structural Database, then it will include bibliographic, chemical, 
# crystal, experimental, refinement or atomic coordinate data resulting 
# from the CCDC's data processing and validation procedures.
#
#######################################################################

data_QAJKIW
_chemical_formula_moiety         'C34 H26 N4,C3 H8 O1'
_chemical_name_systematic        
'1,2,4,5-tetrakis(4-Pyridylvinyl)benzene isopropanol solvate'
_symmetry_cell_setting           triclinic
_symmetry_space_group_name_H-M   'P -1'
_symmetry_Int_Tables_number      2
_space_group_name_Hall           '-P 1'
loop_
_symmetry_equiv_pos_site_id
_symmetry_equiv_pos_as_xyz
1 x,y,z
2 -x,-y,-z
_cell_length_a                   9.555(2)
_cell_length_b                   12.604(3)
_cell_length_c                   14.076(3)
_cell_angle_alpha                78.851(13)
_cell_angle_beta                 70.786(14)
_cell_angle_gamma                77.657(19)
_cell_volume                     1549.79
_exptl_crystal_colour            yellow
_exptl_crystal_description       plate
_chemical_melting_point          '327-330 deg.C (dec.)'
_cell_formula_units_Z            2
_exptl_crystal_recrystallization_method chloroform/isopropanol
loop_
_atom_site_label
_atom_site_type_symbol
_atom_site_fract_x
_atom_site_fract_y
_atom_site_fract_z
C1 C 0.6269(11) -0.0218(8) 0.7411(7)
H1 H 0.6935 -0.0574 0.7771
C2 C 0.5969(9) 0.0896(6) 0.7317(6)
H2 H 0.6413 0.1267 0.7621
C3 C 0.5026(8) 0.1476(6) 0.6782(5)
C4 C 0.4436(8) 0.0843(6) 0.6355(6)
H3 H 0.3792 0.1186 0.5975
C5 C 0.4781(10) -0.0282(6) 0.6482(6)
H4 H 0.4369 -0.0672 0.6173
C6 C 0.4683(8) 0.2652(5) 0.6690(5)
H5 H 0.5154 0.2985 0.7008
C7 C 0.3797(8) 0.3315(5) 0.6219(5)
H6 H 0.3357 0.2995 0.5871
C8 C 0.3422(8) 0.4513(6) 0.6181(6)
C9 C 0.3563(8) 0.5021(6) 0.6913(6)
H7 H 0.3971 0.4604 0.7409
C10 C 0.3123(8) 0.6118(7) 0.6935(7)
C11 C 0.3340(8) 0.6625(6) 0.7735(9)
H8 H 0.3539 0.7340 0.7569
C12 C 0.3273(9) 0.6136(7) 0.8660(8)
H9 H 0.3054 0.5427 0.8808
C13 C 0.3503(9) 0.6571(8) 0.9505(9)
C14 C 0.3424(10) 0.5952(8) 1.0435(10)
H10 H 0.3220 0.5241 1.0558
C15 C 0.3654(11) 0.6406(12) 1.1196(9)
H11 H 0.3565 0.5976 1.1823
C16 C 0.4092(14) 0.7944(10) 1.0206(13)
H12 H 0.4363 0.8632 1.0105
C17 C 0.3837(11) 0.7617(8) 0.9380(8)
H13 H 0.3892 0.8085 0.8776
C18 C 0.2547(9) 0.6792(6) 0.6196(8)
C19 C 0.0270(10) 1.0294(7) 0.7161(8)
C20 C -0.0151(10) 1.1424(8) 0.7062(7)
H14 H -0.0664 1.1736 0.7654
C21 C 0.0848(12) 1.1630(10) 0.5363(8)
H15 H 0.1055 1.2086 0.4747
C22 C 0.1323(11) 1.0547(11) 0.5328(10)
C23 C 0.2450(9) 0.6280(7) 0.5451(7)
H16 H 0.2087 0.6708 0.4939
C24 C 0.2862(8) 0.5164(6) 0.5415(6)
C25 C 0.2676(9) 0.4670(6) 0.4600(6)
H17 H 0.3263 0.3993 0.4471
C26 C 0.1769(8) 0.5082(6) 0.4036(6)
H18 H 0.1187 0.5761 0.4164
C27 C 0.1575(8) 0.4597(6) 0.3235(6)
C28 C 0.2429(10) 0.3605(7) 0.2927(7)
H19 H 0.3177 0.3239 0.3214
C29 C 0.2149(12) 0.3189(7) 0.2210(9)
H20 H 0.2711 0.2518 0.2033
C30 C 0.0334(10) 0.4607(7) 0.2000(7)
H21 H -0.0382 0.4963 0.1681
C31 C 0.0519(8) 0.5082(6) 0.2728(7)
H22 H -0.0074 0.5748 0.2892
N1 N 0.5674(9) -0.0840(5) 0.7023(6)
N2 N 0.3981(12) 0.7371(10) 1.1095(9)
N3 N 0.0119(9) 1.2109(5) 0.6184(8)
N4 N 0.1126(9) 0.3663(6) 0.1728(5)
C32 C 0.222(2) 0.7970(18) 0.588(2)
C33 C 0.1381(19) 0.8560(15) 0.6718(17)
C34 C 0.0920(18) 0.9814(12) 0.648(2)
O1 O 0.1000(12) 0.1808(6) 0.0833(7)
H23 H 0.0564 0.2376 0.1073
C35 C 0.142(2) 0.2801(11) -0.0794(11)
H24 H 0.0780 0.3419 -0.0483
H25 H 0.1155 0.2733 -0.1379
H26 H 0.2446 0.2907 -0.0996
C36 C 0.126(3) 0.1986(14) -0.0199(11)
H27 H 0.0251 0.1929 -0.0200
C37 C 0.191(2) 0.0938(14) -0.0346(12)
H28 H 0.2203 0.0871 -0.1055
H29 H 0.1214 0.0450 0.0030
H30 H 0.2787 0.0752 -0.0115
C38? C 0.181(2) 0.8015(18) 0.650(3)
C39? C 0.1723(18) 0.8773(19) 0.5796(15)
C40? C 0.116(2) 0.9949(16) 0.592(3)
loop_
_geom_bond_atom_site_label_1
_geom_bond_atom_site_label_2
_geom_bond_site_symmetry_1
_geom_bond_site_symmetry_2
C1 H1 1_555 1_555
C2 C1 1_555 1_555
H2 C2 1_555 1_555
C3 C2 1_555 1_555
C4 C3 1_555 1_555
H3 C4 1_555 1_555
C5 C4 1_555 1_555
H4 C5 1_555 1_555
C6 C3 1_555 1_555
H5 C6 1_555 1_555
C7 C6 1_555 1_555
H6 C7 1_555 1_555
C8 C7 1_555 1_555
C9 C8 1_555 1_555
H7 C9 1_555 1_555
C10 C9 1_555 1_555
C11 C10 1_555 1_555
H8 C11 1_555 1_555
C12 C11 1_555 1_555
H9 C12 1_555 1_555
C13 C12 1_555 1_555
C14 C13 1_555 1_555
H10 C14 1_555 1_555
C15 C14 1_555 1_555
H11 C15 1_555 1_555
C16 H12 1_555 1_555
C17 C13 1_555 1_555
H13 C17 1_555 1_555
C18 C10 1_555 1_555
C19 C20 1_555 1_555
C20 H14 1_555 1_555
C21 H15 1_555 1_555
C22 C21 1_555 1_555
C23 C18 1_555 1_555
H16 C23 1_555 1_555
C24 C8 1_555 1_555
C25 C24 1_555 1_555
H17 C25 1_555 1_555
C26 C25 1_555 1_555
H18 C26 1_555 1_555
C27 C26 1_555 1_555
C28 C27 1_555 1_555
H19 C28 1_555 1_555
C29 C28 1_555 1_555
H20 C29 1_555 1_555
C30 H21 1_555 1_555
C31 C27 1_555 1_555
H22 C31 1_555 1_555
N1 C1 1_555 1_555
N2 C15 1_555 1_555
N3 C20 1_555 1_555
N4 C29 1_555 1_555
C32 C18 1_555 1_555
C33 C32 1_555 1_555
C34 C19 1_555 1_555
O1 H23 1_555 1_555
C35 H24 1_555 1_555
H25 C35 1_555 1_555
H26 C35 1_555 1_555
C36 O1 1_555 1_555
H27 C36 1_555 1_555
C37 C36 1_555 1_555
H28 C37 1_555 1_555
H29 C37 1_555 1_555
H30 C37 1_555 1_555
C5 N1 1_555 1_555
C16 C17 1_555 1_555
C16 N2 1_555 1_555
C21 N3 1_555 1_555
C22 C34 1_555 1_555
C23 C24 1_555 1_555
C30 C31 1_555 1_555
C30 N4 1_555 1_555
C33 C34 1_555 1_555
C35 C36 1_555 1_555

#END
