
#######################################################################
#
#                 Cambridge Crystallographic Data Centre
#                                CCDC 
#
#######################################################################
#
# If this CIF has been generated from an entry in the Cambridge 
# Structural Database, then it will include bibliographic, chemical, 
# crystal, experimental, refinement or atomic coordinate data resulting 
# from the CCDC's data processing and validation procedures.
#
#######################################################################

data_QAJLIY
_chemical_formula_moiety         'C12 H14 O4'
_chemical_name_systematic        '(E)-Isopropyl 3-(3,4-dihydroxyphenyl)acrylate'
_symmetry_cell_setting           triclinic
_symmetry_space_group_name_H-M   'P -1'
_symmetry_Int_Tables_number      2
_space_group_name_Hall           '-P 1'
loop_
_symmetry_equiv_pos_site_id
_symmetry_equiv_pos_as_xyz
1 x,y,z
2 -x,-y,-z
_cell_length_a                   5.8830(14)
_cell_length_b                   9.644(2)
_cell_length_c                   11.428(3)
_cell_angle_alpha                65.690(2)
_cell_angle_beta                 89.370(3)
_cell_angle_gamma                81.018(3)
_cell_volume                     582.616
_exptl_crystal_colour            colorless
_exptl_crystal_description       block
_chemical_melting_point          '415 K'
_cell_formula_units_Z            2
loop_
_atom_site_label
_atom_site_type_symbol
_atom_site_fract_x
_atom_site_fract_y
_atom_site_fract_z
O1 O 0.2370(2) -0.06896(13) 0.33802(11)
O2 O -0.0059(3) 0.11022(15) 0.18106(14)
O3 O 0.3441(2) 0.87422(13) -0.01294(13)
H1 H 0.2302 0.8794 -0.0562
O4 O 0.7644(2) 0.80457(15) 0.11324(14)
H2 H 0.6907 0.8884 0.0653
C1 C -0.0940(5) -0.1810(3) 0.4336(3)
H3 H -0.0341 -0.1952 0.5163
H4 H -0.1815 -0.2610 0.4439
H5 H -0.1918 -0.0823 0.3940
C2 C 0.1019(4) -0.1880(2) 0.34997(19)
H6 H 0.0411 -0.1707 0.2647
C3 C 0.2645(4) -0.3381(2) 0.4062(2)
H7 H 0.3904 -0.3349 0.3515
H8 H 0.1847 -0.4205 0.4132
H9 H 0.3228 -0.3552 0.4900
C4 C 0.1664(3) 0.0739(2) 0.25094(17)
C5 C 0.3170(3) 0.1807(2) 0.25085(17)
H10 H 0.4498 0.1430 0.3053
C6 C 0.2693(3) 0.3291(2) 0.17549(16)
H11 H 0.1344 0.3605 0.1232
C7 C 0.4000(3) 0.45108(19) 0.16300(15)
C8 C 0.6149(3) 0.4221(2) 0.22568(17)
H12 H 0.6797 0.3213 0.2795
C9 C 0.7324(3) 0.5406(2) 0.20894(17)
H13 H 0.8752 0.5194 0.2522
C10 C 0.6403(3) 0.69140(19) 0.12826(16)
C11 C 0.4264(3) 0.72247(19) 0.06532(15)
C12 C 0.3083(3) 0.60347(18) 0.08283(15)
H14 H 0.1645 0.6252 0.0403
loop_
_geom_bond_atom_site_label_1
_geom_bond_atom_site_label_2
_geom_bond_site_symmetry_1
_geom_bond_site_symmetry_2
O1 C2 1_555 1_555
O2 C4 1_555 1_555
O3 H1 1_555 1_555
O4 H2 1_555 1_555
C1 H3 1_555 1_555
H4 C1 1_555 1_555
H5 C1 1_555 1_555
C2 C1 1_555 1_555
H6 C2 1_555 1_555
C3 C2 1_555 1_555
H7 C3 1_555 1_555
H8 C3 1_555 1_555
H9 C3 1_555 1_555
C4 O1 1_555 1_555
C5 C4 1_555 1_555
H10 C5 1_555 1_555
C6 C5 1_555 1_555
H11 C6 1_555 1_555
C7 C6 1_555 1_555
C8 C7 1_555 1_555
H12 C8 1_555 1_555
C9 C8 1_555 1_555
H13 C9 1_555 1_555
C10 O4 1_555 1_555
C11 O3 1_555 1_555
C12 C7 1_555 1_555
H14 C12 1_555 1_555
C9 C10 1_555 1_555
C10 C11 1_555 1_555
C11 C12 1_555 1_555

#END
