
#######################################################################
#
#                 Cambridge Crystallographic Data Centre
#                                CCDC 
#
#######################################################################
#
# If this CIF has been generated from an entry in the Cambridge 
# Structural Database, then it will include bibliographic, chemical, 
# crystal, experimental, refinement or atomic coordinate data resulting 
# from the CCDC's data processing and validation procedures.
#
#######################################################################

data_QAJLEU
_chemical_formula_moiety         'C11 H11 N1 O4 S1,H2 O1'
_chemical_name_systematic        
'5-(4-Hydroxy-3-methoxybenzyl)-1,3-thiazolidine-2,4-dione monohydrate'
_symmetry_cell_setting           monoclinic
_symmetry_space_group_name_H-M   'P 21/n'
_symmetry_Int_Tables_number      14
_space_group_name_Hall           '-P 2yn'
loop_
_symmetry_equiv_pos_site_id
_symmetry_equiv_pos_as_xyz
1 x,y,z
2 1/2-x,1/2+y,1/2-z
3 -x,-y,-z
4 1/2+x,1/2-y,1/2+z
_cell_length_a                   10.684(4)
_cell_length_b                   8.151(3)
_cell_length_c                   14.747(5)
_cell_angle_alpha                90
_cell_angle_beta                 99.657(4)
_cell_angle_gamma                90
_cell_volume                     1266.05
_exptl_crystal_colour            yellow
_exptl_crystal_description       block
_chemical_melting_point          109-110deg.C
_cell_formula_units_Z            4
_exptl_crystal_recrystallization_method methanol/water
loop_
_atom_site_label
_atom_site_type_symbol
_atom_site_fract_x
_atom_site_fract_y
_atom_site_fract_z
S1 S 0.49420(5) 1.06186(7) 0.70922(3)
N1 N 0.51317(16) 1.07172(19) 0.88568(11)
H1 H 0.5303 1.1072 0.9413
C1 C 0.5427(2) 1.1623(3) 0.81421(15)
C2 C 0.45618(17) 0.9243(2) 0.86643(12)
C3 C 0.43481(18) 0.8857(2) 0.76418(12)
H2 H 0.4868 0.7902 0.7545
C4 C 0.29661(18) 0.8453(3) 0.72695(13)
H3 H 0.2706 0.7526 0.7606
H4 H 0.2440 0.9383 0.7370
C5 C 0.27553(18) 0.8048(2) 0.62553(13)
C6 C 0.31489(17) 0.6537(2) 0.59516(12)
H5 H 0.3523 0.5768 0.6378
C7 C 0.29866(16) 0.6178(2) 0.50237(12)
C8 C 0.24649(18) 0.7353(2) 0.43822(12)
C9 C 0.2075(2) 0.8830(2) 0.46857(14)
H6 H 0.1718 0.9613 0.4261
C10 C 0.2206(2) 0.9167(2) 0.56175(14)
H7 H 0.1918 1.0163 0.5812
C11 C 0.3765(2) 0.3430(3) 0.52648(16)
H8 H 0.3955 0.2494 0.4917
H9 H 0.3128 0.3141 0.5625
H10 H 0.4520 0.3781 0.5665
O1 O 0.5944(2) 1.2929(2) 0.82373(12)
O2 O 0.42480(14) 0.83322(17) 0.92352(9)
O3 O 0.33054(14) 0.47280(16) 0.46520(9)
O4 O 0.23570(15) 0.69314(17) 0.34819(9)
H11 H 0.2034 0.7691 0.3160
O5 O 0.36833(18) 0.4211(2) 0.27286(12)
H12 H 0.336(4) 0.444(5) 0.318(3)
H13 H 0.376(3) 0.518(4) 0.253(2)
loop_
_geom_bond_atom_site_label_1
_geom_bond_atom_site_label_2
_geom_bond_site_symmetry_1
_geom_bond_site_symmetry_2
S1 C1 1_555 1_555
N1 H1 1_555 1_555
C1 N1 1_555 1_555
C2 N1 1_555 1_555
C3 S1 1_555 1_555
H2 C3 1_555 1_555
C4 C3 1_555 1_555
H3 C4 1_555 1_555
H4 C4 1_555 1_555
C5 C4 1_555 1_555
C6 C5 1_555 1_555
H5 C6 1_555 1_555
C7 C6 1_555 1_555
C8 C7 1_555 1_555
C9 C8 1_555 1_555
H6 C9 1_555 1_555
C10 C5 1_555 1_555
H7 C10 1_555 1_555
C11 H8 1_555 1_555
H9 C11 1_555 1_555
H10 C11 1_555 1_555
O1 C1 1_555 1_555
O2 C2 1_555 1_555
O3 C7 1_555 1_555
O4 C8 1_555 1_555
H11 O4 1_555 1_555
O5 H12 1_555 1_555
H13 O5 1_555 1_555
C2 C3 1_555 1_555
C9 C10 1_555 1_555
C11 O3 1_555 1_555

#END
