
#######################################################################
#
#                 Cambridge Crystallographic Data Centre
#                                CCDC 
#
#######################################################################
#
# If this CIF has been generated from an entry in the Cambridge 
# Structural Database, then it will include bibliographic, chemical, 
# crystal, experimental, refinement or atomic coordinate data resulting 
# from the CCDC's data processing and validation procedures.
#
#######################################################################

data_QAJPUO
_chemical_formula_moiety         'C12 H16 Cl2 O2'
_chemical_name_systematic        1,4-bis(3-chloropropoxy)benzene
_symmetry_cell_setting           monoclinic
_symmetry_space_group_name_H-M   'P 21/c'
_symmetry_Int_Tables_number      14
_space_group_name_Hall           '-P 2ybc'
loop_
_symmetry_equiv_pos_site_id
_symmetry_equiv_pos_as_xyz
1 x,y,z
2 -x,1/2+y,1/2-z
3 -x,-y,-z
4 x,1/2-y,1/2+z
_cell_length_a                   4.9813(8)
_cell_length_b                   8.3200(14)
_cell_length_c                   15.273(2)
_cell_angle_alpha                90
_cell_angle_beta                 93.156(6)
_cell_angle_gamma                90
_cell_volume                     632.021
_exptl_crystal_colour            colorless
_exptl_crystal_description       prism
_chemical_melting_point          '339 K'
_cell_formula_units_Z            2
loop_
_atom_site_label
_atom_site_type_symbol
_atom_site_fract_x
_atom_site_fract_y
_atom_site_fract_z
Cl1 Cl 0.22691(7) 0.61216(4) 0.66618(2)
O1 O 0.16835(18) 0.17363(11) 0.60468(6)
C1 C 0.5063(2) -0.01858(15) 0.59005(8)
H1 H 0.5102 -0.0314 0.6519
C2 C 0.3281(3) 0.09041(14) 0.54960(8)
C3 C 0.3213(3) 0.10898(15) 0.45872(9)
H2 H 0.1997 0.1829 0.4304
C4 C -0.0045(3) 0.29417(15) 0.56500(9)
H3 H -0.1349 0.2444 0.5218
H4 H 0.1027 0.3745 0.5342
C5 C -0.1508(3) 0.37389(16) 0.63743(9)
H5 H -0.2664 0.2930 0.6644
H6 H -0.2697 0.4587 0.6114
C6 C 0.0331(3) 0.44827(16) 0.70864(9)
H7 H 0.1569 0.3651 0.7337
H8 H -0.0759 0.4887 0.7562
Cl1B Cl 0.77309(7) -0.61216(4) 0.33382(2)
O1B O 0.83165(18) -0.17363(11) 0.39532(6)
C1B C 0.4937(2) 0.01858(15) 0.40995(8)
H1B H 0.4898 0.0314 0.3481
C2B C 0.6719(3) -0.09041(14) 0.45040(8)
C3B C 0.6787(3) -0.10898(15) 0.54128(9)
H2B H 0.8003 -0.1829 0.5696
C4B C 1.0045(3) -0.29417(15) 0.43500(9)
H3B H 1.1349 -0.2444 0.4782
H4B H 0.8973 -0.3745 0.4658
C5B C 1.1508(3) -0.37389(16) 0.36257(9)
H5B H 1.2664 -0.2930 0.3356
H6B H 1.2697 -0.4587 0.3886
C6B C 0.9669(3) -0.44827(16) 0.29136(9)
H7B H 0.8431 -0.3651 0.2663
H8B H 1.0759 -0.4887 0.2438
loop_
_geom_bond_atom_site_label_1
_geom_bond_atom_site_label_2
_geom_bond_site_symmetry_1
_geom_bond_site_symmetry_2
Cl1 C6 1_555 1_555
O1 C2 1_555 1_555
C1 H1 1_555 1_555
C2 C1 1_555 1_555
C3 C2 1_555 1_555
H2 C3 1_555 1_555
C4 O1 1_555 1_555
H3 C4 1_555 1_555
H4 C4 1_555 1_555
C5 C4 1_555 1_555
H5 C5 1_555 1_555
H6 C5 1_555 1_555
C6 C5 1_555 1_555
H7 C6 1_555 1_555
H8 C6 1_555 1_555
Cl1B C6B 1_555 1_555
O1B C2B 1_555 1_555
C1B C3 1_555 1_555
H1B C1B 1_555 1_555
C2B C1B 1_555 1_555
C3B C1 1_555 1_555
H2B C3B 1_555 1_555
C4B O1B 1_555 1_555
H3B C4B 1_555 1_555
H4B C4B 1_555 1_555
C5B C4B 1_555 1_555
H5B C5B 1_555 1_555
H6B C5B 1_555 1_555
C6B C5B 1_555 1_555
H7B C6B 1_555 1_555
H8B C6B 1_555 1_555
C2B C3B 1_555 1_555

#END
