
#######################################################################
#
#                 Cambridge Crystallographic Data Centre
#                                CCDC 
#
#######################################################################
#
# If this CIF has been generated from an entry in the Cambridge 
# Structural Database, then it will include bibliographic, chemical, 
# crystal, experimental, refinement or atomic coordinate data resulting 
# from the CCDC's data processing and validation procedures.
#
#######################################################################

data_QAJQOJ
_chemical_formula_moiety         'C13 H15 N3 O1,H2 O1'
_chemical_name_systematic        
'3-(5-Methyl-3-phenyl-1H-pyrazol-1-yl)propanamide monohydrate'
_symmetry_cell_setting           orthorhombic
_symmetry_space_group_name_H-M   'P 21 21 21'
_symmetry_Int_Tables_number      19
_space_group_name_Hall           'P 2ac 2ab'
loop_
_symmetry_equiv_pos_site_id
_symmetry_equiv_pos_as_xyz
1 x,y,z
2 1/2-x,-y,1/2+z
3 -x,1/2+y,1/2-z
4 1/2+x,1/2-y,-z
_cell_length_a                   6.5482(13)
_cell_length_b                   12.609(3)
_cell_length_c                   16.606(3)
_cell_angle_alpha                90
_cell_angle_beta                 90
_cell_angle_gamma                90
_cell_volume                     1371.1
_exptl_crystal_colour            colorless
_cell_formula_units_Z            4
loop_
_atom_site_label
_atom_site_type_symbol
_atom_site_fract_x
_atom_site_fract_y
_atom_site_fract_z
O1 O 0.1503(3) 0.37278(16) 0.44426(14)
N1 N 0.6165(4) 0.63188(17) 0.33836(14)
N2 N 0.4723(4) 0.58241(16) 0.29243(14)
C1 C 0.7043(4) 0.7022(2) 0.28840(17)
C2 C 0.0612(4) 0.4538(2) 0.42065(18)
C3 C 0.3511(4) 0.4985(2) 0.32841(19)
H1 H 0.4382 0.4554 0.3625
H2 H 0.2976 0.4534 0.2861
N3 N -0.1361(4) 0.4692(2) 0.43135(16)
H3 H -0.2084 0.4220 0.4556
H4 H -0.1926 0.5264 0.4141
C4 C 0.6151(5) 0.6976(2) 0.21225(18)
H5 H 0.6495 0.7386 0.1677
C5 C 0.8697(5) 0.7707(2) 0.31861(18)
C6 C 0.1763(5) 0.5407(2) 0.3778(2)
H6 H 0.0830 0.5788 0.3428
H7 H 0.2287 0.5905 0.4172
C7 C 0.4663(5) 0.6208(2) 0.21594(18)
C8 C 0.8839(5) 0.7964(3) 0.4002(2)
H8 H 0.7863 0.7708 0.4360
C9 C 1.1724(6) 0.8742(3) 0.2958(3)
H9 H 1.2706 0.9003 0.2605
C10 C 1.0158(5) 0.8108(2) 0.2666(2)
H10 H 1.0090 0.7952 0.2119
C11 C 1.0405(6) 0.8592(3) 0.4285(2)
H11 H 1.0489 0.8748 0.4832
C12 C 0.3188(6) 0.5832(3) 0.1551(2)
H12 H 0.2362 0.5278 0.1778
H13 H 0.3913 0.5563 0.1092
H14 H 0.2328 0.6410 0.1387
C13 C 1.1840(7) 0.8988(4) 0.3764(3)
H15 H 1.2884 0.9421 0.3955
O2 O -0.4388(4) 0.32706(19) 0.4938(2)
H16 H -0.4329 0.2662 0.5146
H17 H -0.5655 0.3375 0.4857
loop_
_geom_bond_atom_site_label_1
_geom_bond_atom_site_label_2
_geom_bond_site_symmetry_1
_geom_bond_site_symmetry_2
O1 C2 1_555 1_555
N1 N2 1_555 1_555
N2 C3 1_555 1_555
C1 N1 1_555 1_555
C2 N3 1_555 1_555
C3 H1 1_555 1_555
H2 C3 1_555 1_555
N3 H3 1_555 1_555
H4 N3 1_555 1_555
C4 C1 1_555 1_555
H5 C4 1_555 1_555
C5 C1 1_555 1_555
C6 C2 1_555 1_555
H6 C6 1_555 1_555
H7 C6 1_555 1_555
C7 N2 1_555 1_555
C8 C5 1_555 1_555
H8 C8 1_555 1_555
C9 H9 1_555 1_555
C10 C5 1_555 1_555
H10 C10 1_555 1_555
C11 C8 1_555 1_555
H11 C11 1_555 1_555
C12 C7 1_555 1_555
H12 C12 1_555 1_555
H13 C12 1_555 1_555
H14 C12 1_555 1_555
C13 C9 1_555 1_555
H15 C13 1_555 1_555
O2 H16 1_555 1_555
H17 O2 1_555 1_555
C3 C6 1_555 1_555
C4 C7 1_555 1_555
C9 C10 1_555 1_555
C11 C13 1_555 1_555

#END
