
#######################################################################
#
#                 Cambridge Crystallographic Data Centre
#                                CCDC 
#
#######################################################################
#
# If this CIF has been generated from an entry in the Cambridge 
# Structural Database, then it will include bibliographic, chemical, 
# crystal, experimental, refinement or atomic coordinate data resulting 
# from the CCDC's data processing and validation procedures.
#
#######################################################################

data_QAJROJ
_chemical_formula_moiety         'C42 H54 Br6 S9 Si6,C1 H1 Cl3'
_chemical_name_systematic        
"3,4,10,11,17,18-Hexabromo-2,5,9,12,16,19-hexakis(trimethylsilyl)-hexakisthieno(2,3-b:2',3'-g:2'',3''-l:3''',2'''-d:3'''',2''''-i:3''''',2'''''-n)(1,6,11)trithiencine chloroform solvate"
_symmetry_cell_setting           monoclinic
_symmetry_space_group_name_H-M   'P 21/n'
_symmetry_Int_Tables_number      14
_space_group_name_Hall           '-P 2yn'
loop_
_symmetry_equiv_pos_site_id
_symmetry_equiv_pos_as_xyz
1 x,y,z
2 1/2+x,1/2-y,1/2+z
3 -x,-y,-z
4 1/2-x,1/2+y,1/2-z
_cell_length_a                   9.7758(2)
_cell_length_b                   26.2874(6)
_cell_length_c                   26.0709(6)
_cell_angle_alpha                90
_cell_angle_beta                 100.202(1)
_cell_angle_gamma                90
_cell_volume                     6593.78
_exptl_crystal_colour            colorless
_exptl_crystal_description       block
_cell_formula_units_Z            4
_exptl_crystal_recrystallization_method chloroform/methanol
loop_
_atom_site_label
_atom_site_type_symbol
_atom_site_fract_x
_atom_site_fract_y
_atom_site_fract_z
Br1 Br 0.43791(3) 0.438701(9) 0.796785(10)
Br2 Br 0.78195(3) 0.310819(12) 0.775966(10)
Br3 Br 0.63799(3) 0.300110(9) 1.133453(9)
Br4 Br 0.25997(3) 0.327254(10) 1.091606(9)
Br5 Br 0.46079(3) 0.047398(9) 0.836711(9)
Br6 Br 0.18431(2) 0.090069(9) 0.906174(9)
S1 S 0.32287(6) 0.29191(2) 0.72416(2)
S2 S 0.75760(6) 0.35259(2) 0.93588(2)
S3 S 0.60286(6) 0.41891(2) 1.01560(2)
S4 S 0.32242(6) 0.19284(2) 1.00046(2)
S5 S 0.67511(6) 0.12848(2) 0.97292(2)
S6 S 0.19014(6) 0.19863(2) 0.78032(2)
S7 S 0.44176(6) 0.36245(2) 0.92392(2)
S8 S 0.55448(6) 0.23324(2) 0.94790(2)
S9 S 0.50218(6) 0.22329(2) 0.80170(2)
Si1 Si 0.20156(7) 0.39478(3) 0.67876(3)
Si2 Si 1.03594(7) 0.33511(3) 0.89548(3)
Si3 Si 0.78329(7) 0.42717(3) 1.12679(3)
Si4 Si 0.09191(7) 0.20533(3) 1.06979(3)
Si5 Si 0.71900(7) 0.01266(2) 0.94739(2)
Si6 Si -0.07033(7) 0.13546(3) 0.79740(3)
C1 C 0.4392(2) 0.28401(8) 0.78149(8)
C2 C 0.4806(2) 0.32985(8) 0.80427(8)
C3 C 0.5988(2) 0.33556(8) 0.84811(8)
C4 C 0.5936(2) 0.34920(8) 0.89841(8)
C5 C 0.5129(2) 0.36542(9) 0.99057(8)
C6 C 0.5137(2) 0.32836(8) 1.02784(8)
C7 C 0.4282(2) 0.28161(9) 1.02265(8)
C8 C 0.4422(2) 0.23905(8) 0.99332(8)
C9 C 0.5544(2) 0.16761(8) 0.93605(8)
C10 C 0.4781(2) 0.14161(8) 0.89468(8)
C11 C 0.3554(2) 0.15957(8) 0.85782(8)
C12 C 0.3535(2) 0.19434(8) 0.81841(8)
C13 C 0.4092(2) 0.37042(9) 0.77458(9)
C14 C 0.3189(2) 0.35711(9) 0.73006(9)
C15 C 0.1385(4) 0.34959(12) 0.62409(12)
H1 H 0.0856 0.3684 0.5946
H2 H 0.0786 0.3238 0.6359
H3 H 0.2182 0.3329 0.6131
C16 C 0.3057(3) 0.44626(11) 0.65564(11)
H4 H 0.2477 0.4649 0.6273
H5 H 0.3854 0.4314 0.6430
H6 H 0.3388 0.4696 0.6845
C17 C 0.0535(3) 0.41896(11) 0.70716(11)
H7 H -0.0123 0.4364 0.6801
H8 H 0.0877 0.4428 0.7354
H9 H 0.0067 0.3904 0.7210
C18 C 0.7396(2) 0.32858(9) 0.84163(8)
C19 C 0.8400(2) 0.33631(9) 0.88466(9)
C20 C 1.0965(3) 0.36690(11) 0.83977(10)
H10 H 1.1912 0.3797 0.8511
H11 H 1.0345 0.3954 0.8275
H12 H 1.0956 0.3424 0.8114
C21 C 1.0963(3) 0.26831(11) 0.90136(11)
H13 H 1.1980 0.2675 0.9064
H14 H 1.0575 0.2497 0.8695
H15 H 1.0654 0.2524 0.9313
C22 C 1.0929(3) 0.37089(12) 0.95715(10)
H16 H 1.1946 0.3706 0.9659
H17 H 1.0542 0.3548 0.9853
H18 H 1.0598 0.4061 0.9527
C23 C 0.5983(2) 0.34433(9) 1.07567(8)
C24 C 0.6553(2) 0.39224(9) 1.07626(9)
C25 C 0.7861(3) 0.49393(10) 1.10292(11)
H19 H 0.8537 0.5138 1.1272
H20 H 0.6936 0.5090 1.1007
H21 H 0.8125 0.4941 1.0684
C26 C 0.7299(3) 0.42598(11) 1.19163(10)
H22 H 0.7881 0.4495 1.2152
H23 H 0.7409 0.3915 1.2060
H24 H 0.6323 0.4363 1.1880
C27 C 0.9552(3) 0.39559(13) 1.12969(15)
H25 H 1.0248 0.4128 1.1556
H26 H 0.9830 0.3975 1.0954
H27 H 0.9482 0.3598 1.1396
C28 C 0.3144(2) 0.27484(9) 1.04979(8)
C29 C 0.2454(2) 0.22952(9) 1.04285(9)
C30 C 0.1386(4) 0.20210(15) 1.14173(11)
H28 H 0.2202 0.1802 1.1515
H29 H 0.0604 0.1880 1.1560
H30 H 0.1599 0.2363 1.1557
C31 C -0.0620(3) 0.24734(12) 1.04852(12)
H31 H -0.0396 0.2821 1.0607
H32 H -0.1410 0.2348 1.0633
H33 H -0.0860 0.2471 1.0104
C32 C 0.0548(3) 0.14033(11) 1.04254(12)
H34 H 0.1370 0.1188 1.0526
H35 H 0.0314 0.1423 1.0045
H36 H -0.0236 0.1257 1.0563
C33 C 0.5269(2) 0.09058(9) 0.89372(8)
C34 C 0.6304(2) 0.07596(9) 0.93353(9)
C35 C 0.5876(3) -0.03856(9) 0.94991(11)
H37 H 0.6334 -0.0718 0.9519
H38 H 0.5160 -0.0370 0.9185
H39 H 0.5444 -0.0337 0.9807
C36 C 0.8224(3) -0.00056(10) 0.89559(10)
H40 H 0.8719 -0.0329 0.9030
H41 H 0.8896 0.0269 0.8947
H42 H 0.7601 -0.0027 0.8618
C37 C 0.8325(3) 0.01859(10) 1.01224(10)
H43 H 0.8841 -0.0132 1.0207
H44 H 0.7752 0.0254 1.0387
H45 H 0.8980 0.0467 1.0115
C38 C 0.2197(2) 0.13824(9) 0.85588(8)
C39 C 0.1177(2) 0.15451(9) 0.81671(9)
C40 C -0.0769(3) 0.06604(11) 0.78202(11)
H46 H -0.1740 0.0551 0.7728
H47 H -0.0310 0.0469 0.8125
H48 H -0.0291 0.0596 0.7526
C41 C -0.1424(3) 0.17144(12) 0.73728(11)
H49 H -0.2405 0.1626 0.7262
H50 H -0.0906 0.1627 0.7096
H51 H -0.1339 0.2080 0.7444
C42 C -0.1650(3) 0.15086(11) 0.85098(10)
H52 H -0.2594 0.1370 0.8429
H53 H -0.1696 0.1879 0.8549
H54 H -0.1161 0.1359 0.8835
C43 C 1.2611(3) 0.51162(12) 1.10619(13)
H55 H 1.3136 0.5430 1.1000
Cl1 Cl 1.13831(10) 0.49929(4) 1.05011(4)
Cl2 Cl 1.17959(10) 0.52240(4) 1.15971(4)
Cl3 Cl 1.37924(10) 0.46149(3) 1.11913(4)
loop_
_geom_bond_atom_site_label_1
_geom_bond_atom_site_label_2
_geom_bond_site_symmetry_1
_geom_bond_site_symmetry_2
Br1 C13 1_555 1_555
Br2 C18 1_555 1_555
Br3 C23 1_555 1_555
Br4 C28 1_555 1_555
Br5 C33 1_555 1_555
Br6 C38 1_555 1_555
S1 C1 1_555 1_555
S2 C4 1_555 1_555
S3 C5 1_555 1_555
S4 C8 1_555 1_555
S5 C9 1_555 1_555
S6 C12 1_555 1_555
S7 C4 1_555 1_555
S8 C8 1_555 1_555
S9 C1 1_555 1_555
Si1 C14 1_555 1_555
Si2 C19 1_555 1_555
Si3 C24 1_555 1_555
Si4 C29 1_555 1_555
Si5 C34 1_555 1_555
Si6 C39 1_555 1_555
C1 C2 1_555 1_555
C2 C3 1_555 1_555
C3 C4 1_555 1_555
C5 S7 1_555 1_555
C6 C5 1_555 1_555
C7 C6 1_555 1_555
C8 C7 1_555 1_555
C9 S8 1_555 1_555
C10 C9 1_555 1_555
C11 C10 1_555 1_555
C12 S9 1_555 1_555
C13 C2 1_555 1_555
C14 S1 1_555 1_555
C15 Si1 1_555 1_555
H1 C15 1_555 1_555
H2 C15 1_555 1_555
H3 C15 1_555 1_555
C16 Si1 1_555 1_555
H4 C16 1_555 1_555
H5 C16 1_555 1_555
H6 C16 1_555 1_555
C17 Si1 1_555 1_555
H7 C17 1_555 1_555
H8 C17 1_555 1_555
H9 C17 1_555 1_555
C18 C3 1_555 1_555
C19 S2 1_555 1_555
C20 Si2 1_555 1_555
H10 C20 1_555 1_555
H11 C20 1_555 1_555
H12 C20 1_555 1_555
C21 Si2 1_555 1_555
H13 C21 1_555 1_555
H14 C21 1_555 1_555
H15 C21 1_555 1_555
C22 Si2 1_555 1_555
H16 C22 1_555 1_555
H17 C22 1_555 1_555
H18 C22 1_555 1_555
C23 C6 1_555 1_555
C24 S3 1_555 1_555
C25 Si3 1_555 1_555
H19 C25 1_555 1_555
H20 C25 1_555 1_555
H21 C25 1_555 1_555
C26 Si3 1_555 1_555
H22 C26 1_555 1_555
H23 C26 1_555 1_555
H24 C26 1_555 1_555
C27 Si3 1_555 1_555
H25 C27 1_555 1_555
H26 C27 1_555 1_555
H27 C27 1_555 1_555
C28 C7 1_555 1_555
C29 S4 1_555 1_555
C30 Si4 1_555 1_555
H28 C30 1_555 1_555
H29 C30 1_555 1_555
H30 C30 1_555 1_555
C31 Si4 1_555 1_555
H31 C31 1_555 1_555
H32 C31 1_555 1_555
H33 C31 1_555 1_555
C32 Si4 1_555 1_555
H34 C32 1_555 1_555
H35 C32 1_555 1_555
H36 C32 1_555 1_555
C33 C10 1_555 1_555
C34 S5 1_555 1_555
C35 Si5 1_555 1_555
H37 C35 1_555 1_555
H38 C35 1_555 1_555
H39 C35 1_555 1_555
C36 Si5 1_555 1_555
H40 C36 1_555 1_555
H41 C36 1_555 1_555
H42 C36 1_555 1_555
C37 Si5 1_555 1_555
H43 C37 1_555 1_555
H44 C37 1_555 1_555
H45 C37 1_555 1_555
C38 C11 1_555 1_555
C39 S6 1_555 1_555
C40 Si6 1_555 1_555
H46 C40 1_555 1_555
H47 C40 1_555 1_555
H48 C40 1_555 1_555
C41 Si6 1_555 1_555
H49 C41 1_555 1_555
H50 C41 1_555 1_555
H51 C41 1_555 1_555
C42 Si6 1_555 1_555
H52 C42 1_555 1_555
H53 C42 1_555 1_555
H54 C42 1_555 1_555
C43 H55 1_555 1_555
Cl1 C43 1_555 1_555
Cl2 C43 1_555 1_555
Cl3 C43 1_555 1_555
C11 C12 1_555 1_555
C13 C14 1_555 1_555
C18 C19 1_555 1_555
C23 C24 1_555 1_555
C28 C29 1_555 1_555
C33 C34 1_555 1_555
C38 C39 1_555 1_555

#END
