
#######################################################################
#
#                 Cambridge Crystallographic Data Centre
#                                CCDC 
#
#######################################################################
#
# If this CIF has been generated from an entry in the Cambridge 
# Structural Database, then it will include bibliographic, chemical, 
# crystal, experimental, refinement or atomic coordinate data resulting 
# from the CCDC's data processing and validation procedures.
#
#######################################################################

data_QAJSIF
_chemical_formula_moiety         'C36 H58 O8'
_chemical_name_systematic        
(3R,6R,12R,20S,24S)-3,6,12-Triacetyl-20,24-epoxydammarane-3,6,12,25-tetraol
_symmetry_cell_setting           orthorhombic
_symmetry_space_group_name_H-M   'P 21 21 21'
_symmetry_Int_Tables_number      19
_space_group_name_Hall           'P 2ac 2ab'
loop_
_symmetry_equiv_pos_site_id
_symmetry_equiv_pos_as_xyz
1 x,y,z
2 1/2-x,-y,1/2+z
3 -x,1/2+y,1/2-z
4 1/2+x,1/2-y,-z
_cell_length_a                   7.6936(11)
_cell_length_b                   16.151(2)
_cell_length_c                   28.439(4)
_cell_angle_alpha                90
_cell_angle_beta                 90
_cell_angle_gamma                90
_cell_volume                     3533.81
_exptl_crystal_colour            colorless
_exptl_crystal_description       block
_cell_formula_units_Z            4
loop_
_atom_site_label
_atom_site_type_symbol
_atom_site_fract_x
_atom_site_fract_y
_atom_site_fract_z
C1 C 1.1476(7) 0.7885(3) 0.68525(15)
H1 H 1.2080 0.8385 0.6771
H2 H 1.1758 0.7460 0.6629
H3 H 1.1820 0.7711 0.7161
C2 C 0.8932(7) 0.8297(2) 0.63522(11)
H4 H 0.7714 0.8424 0.6358
H5 H 0.9138 0.7849 0.6137
H6 H 0.9573 0.8776 0.6253
C3 C 0.9526(7) 0.8043(2) 0.68452(12)
C4 C 0.8559(5) 0.7273(2) 0.69971(11)
H7 H 0.8821 0.6828 0.6774
C5 C 0.6602(6) 0.7335(3) 0.70503(13)
H8 H 0.6023 0.6920 0.6860
H9 H 0.6193 0.7878 0.6956
C6 C 0.6258(5) 0.7188(3) 0.75713(12)
H10 H 0.6216 0.7706 0.7743
H11 H 0.5175 0.6892 0.7619
C7 C 0.7806(5) 0.6667(2) 0.77218(11)
C8 C 0.8360(4) 0.6771(2) 0.82373(10)
H12 H 0.8490 0.7364 0.8304
C9 C 1.0135(4) 0.6336(2) 0.83290(12)
H13 H 1.0605 0.6114 0.8039
H14 H 1.0966 0.6723 0.8461
C10 C 0.9758(4) 0.5640(2) 0.86767(11)
H15 H 1.0781 0.5507 0.8861
H16 H 0.9368 0.5144 0.8515
C11 C 0.8317(4) 0.59958(17) 0.89865(10)
C12 C 0.9179(4) 0.66713(19) 0.92930(11)
H17 H 1.0206 0.6451 0.9438
H18 H 0.8379 0.6847 0.9532
H19 H 0.9485 0.7136 0.9099
C13 C 0.7242(4) 0.53600(17) 0.92850(9)
C14 C 0.6515(4) 0.46700(18) 0.89651(10)
H20 H 0.7338 0.4550 0.8721
H21 H 0.5441 0.4850 0.8827
H22 H 0.6315 0.4180 0.9148
C15 C 0.8380(4) 0.49472(18) 0.96601(9)
H23 H 0.9187 0.4574 0.9507
H24 H 0.9055 0.5370 0.9819
C16 C 0.5777(4) 0.58613(17) 0.95394(9)
H25 H 0.6401 0.6290 0.9716
C17 C 0.4668(4) 0.63455(19) 0.91841(10)
H26 H 0.4007 0.5956 0.8995
H27 H 0.3847 0.6689 0.9354
C18 C 0.5747(4) 0.68930(17) 0.88586(10)
H28 H 0.6304 0.7333 0.9042
C19 C 0.7118(4) 0.63893(18) 0.86098(9)
H29 H 0.6511 0.5931 0.8455
C20 C 0.3777(4) 0.7956(2) 0.86171(13)
C21 C 0.2781(5) 0.8289(2) 0.82093(13)
H30 H 0.1806 0.8603 0.8322
H31 H 0.2374 0.7839 0.8019
H32 H 0.3521 0.8641 0.8025
C22 C 0.4723(4) 0.53757(17) 0.99232(9)
C23 C 0.3525(4) 0.4714(2) 0.97065(10)
H33 H 0.2590 0.4596 0.9920
H34 H 0.4178 0.4218 0.9650
H35 H 0.3059 0.4916 0.9415
C24 C 0.3551(4) 0.5997(2) 1.01821(11)
H36 H 0.4240 0.6474 1.0273
H37 H 0.2652 0.6187 0.9969
C25 C 0.2702(4) 0.5633(2) 1.06176(11)
H38 H 0.1995 0.6051 1.0770
H39 H 0.1951 0.5177 1.0528
C26 C 0.4069(4) 0.53286(19) 1.09541(10)
H40 H 0.4727 0.5807 1.1069
C27 C 0.3014(5) 0.5363(3) 1.17474(12)
C28 C 0.2086(7) 0.4860(3) 1.21129(12)
H41 H 0.2609 0.4322 1.2133
H42 H 0.0885 0.4804 1.2027
H43 H 0.2171 0.5133 1.2412
C29 C 0.5362(4) 0.46892(18) 1.07605(9)
C30 C 0.4519(5) 0.38367(19) 1.07045(11)
H44 H 0.4195 0.3627 1.1008
H45 H 0.5330 0.3464 1.0560
H46 H 0.3502 0.3884 1.0511
C31 C 0.6807(5) 0.4635(2) 1.11355(10)
H47 H 0.6294 0.4641 1.1443
H48 H 0.7577 0.5099 1.1103
H49 H 0.7449 0.4130 1.1094
C32 C 0.6090(4) 0.50400(16) 1.02858(9)
H50 H 0.6786 0.5523 1.0375
C33 C 0.7351(4) 0.44676(16) 1.00231(9)
H51 H 0.6682 0.4034 0.9863
C34 C 0.9002(5) 0.3292(2) 1.02639(14)
C35 C 1.0098(5) 0.2951(2) 1.06456(14)
H52 H 0.9449 0.2543 1.0818
H53 H 1.0441 0.3389 1.0854
H54 H 1.1114 0.2698 1.0513
C36 C 0.7616(6) 0.5761(2) 0.75780(12)
H55 H 0.7418 0.5727 0.7245
H56 H 0.6650 0.5519 0.7742
H57 H 0.8660 0.5466 0.7656
O1 O 0.9096(7) 0.87108(16) 0.71447(9)
H58 H 0.9242 0.8572 0.7419
O2 O 0.9193(3) 0.70347(14) 0.74538(7)
O3 O 0.4598(3) 0.72584(12) 0.85100(7)
O4 O 0.3818(5) 0.82663(17) 0.90006(10)
O5 O 0.8577(3) 0.40815(12) 1.03405(6)
O6 O 0.8527(5) 0.29176(17) 0.99273(14)
O7 O 0.3183(3) 0.49444(14) 1.13542(7)
O8 O 0.3532(6) 0.60487(19) 1.18027(10)
loop_
_geom_bond_atom_site_label_1
_geom_bond_atom_site_label_2
_geom_bond_site_symmetry_1
_geom_bond_site_symmetry_2
C1 H1 1_555 1_555
H2 C1 1_555 1_555
H3 C1 1_555 1_555
C2 H4 1_555 1_555
H5 C2 1_555 1_555
H6 C2 1_555 1_555
C3 C1 1_555 1_555
C4 C3 1_555 1_555
H7 C4 1_555 1_555
C5 C4 1_555 1_555
H8 C5 1_555 1_555
H9 C5 1_555 1_555
C6 C5 1_555 1_555
H10 C6 1_555 1_555
H11 C6 1_555 1_555
C7 C6 1_555 1_555
C8 C7 1_555 1_555
H12 C8 1_555 1_555
C9 C8 1_555 1_555
H13 C9 1_555 1_555
H14 C9 1_555 1_555
C10 C9 1_555 1_555
H15 C10 1_555 1_555
H16 C10 1_555 1_555
C11 C10 1_555 1_555
C12 C11 1_555 1_555
H17 C12 1_555 1_555
H18 C12 1_555 1_555
H19 C12 1_555 1_555
C13 C11 1_555 1_555
C14 C13 1_555 1_555
H20 C14 1_555 1_555
H21 C14 1_555 1_555
H22 C14 1_555 1_555
C15 C13 1_555 1_555
H23 C15 1_555 1_555
H24 C15 1_555 1_555
C16 C13 1_555 1_555
H25 C16 1_555 1_555
C17 C16 1_555 1_555
H26 C17 1_555 1_555
H27 C17 1_555 1_555
C18 C17 1_555 1_555
H28 C18 1_555 1_555
C19 C8 1_555 1_555
H29 C19 1_555 1_555
C20 C21 1_555 1_555
C21 H30 1_555 1_555
H31 C21 1_555 1_555
H32 C21 1_555 1_555
C22 C16 1_555 1_555
C23 C22 1_555 1_555
H33 C23 1_555 1_555
H34 C23 1_555 1_555
H35 C23 1_555 1_555
C24 C22 1_555 1_555
H36 C24 1_555 1_555
H37 C24 1_555 1_555
C25 C24 1_555 1_555
H38 C25 1_555 1_555
H39 C25 1_555 1_555
C26 C25 1_555 1_555
H40 C26 1_555 1_555
C27 C28 1_555 1_555
C28 H41 1_555 1_555
H42 C28 1_555 1_555
H43 C28 1_555 1_555
C29 C26 1_555 1_555
C30 C29 1_555 1_555
H44 C30 1_555 1_555
H45 C30 1_555 1_555
H46 C30 1_555 1_555
C31 C29 1_555 1_555
H47 C31 1_555 1_555
H48 C31 1_555 1_555
H49 C31 1_555 1_555
C32 C22 1_555 1_555
H50 C32 1_555 1_555
C33 C15 1_555 1_555
H51 C33 1_555 1_555
C34 C35 1_555 1_555
C35 H52 1_555 1_555
H53 C35 1_555 1_555
H54 C35 1_555 1_555
C36 C7 1_555 1_555
H55 C36 1_555 1_555
H56 C36 1_555 1_555
H57 C36 1_555 1_555
O1 C3 1_555 1_555
H58 O1 1_555 1_555
O2 C4 1_555 1_555
O3 C18 1_555 1_555
O4 C20 1_555 1_555
O5 C33 1_555 1_555
O6 C34 1_555 1_555
O7 C26 1_555 1_555
O8 C27 1_555 1_555
C2 C3 1_555 1_555
C7 O2 1_555 1_555
C11 C19 1_555 1_555
C18 C19 1_555 1_555
C20 O3 1_555 1_555
C27 O7 1_555 1_555
C29 C32 1_555 1_555
C32 C33 1_555 1_555
C34 O5 1_555 1_555

#END
