
#######################################################################
#
#                 Cambridge Crystallographic Data Centre
#                                CCDC 
#
#######################################################################
#
# If this CIF has been generated from an entry in the Cambridge 
# Structural Database, then it will include bibliographic, chemical, 
# crystal, experimental, refinement or atomic coordinate data resulting 
# from the CCDC's data processing and validation procedures.
#
#######################################################################

data_QAJTAY
_chemical_formula_moiety         'C26 H19 Cl1 N2 O1'
_chemical_name_systematic        
2-[3-(2-Chlorophenyl)-5-oxo-1,5-diphenylpentylidene]malononitrile
_symmetry_cell_setting           orthorhombic
_symmetry_space_group_name_H-M   'P b c a'
_symmetry_Int_Tables_number      61
_space_group_name_Hall           '-P 2ac 2ab'
loop_
_symmetry_equiv_pos_site_id
_symmetry_equiv_pos_as_xyz
1 x,y,z
2 1/2-x,-y,1/2+z
3 -x,1/2+y,1/2-z
4 1/2+x,1/2-y,-z
5 -x,-y,-z
6 1/2+x,y,1/2-z
7 x,1/2-y,1/2+z
8 1/2-x,1/2+y,z
_cell_length_a                   12.4450(3)
_cell_length_b                   14.3866(3)
_cell_length_c                   24.1913(5)
_cell_angle_alpha                90
_cell_angle_beta                 90
_cell_angle_gamma                90
_cell_volume                     4331.24
_exptl_crystal_colour            orange
_exptl_crystal_description       block
_cell_formula_units_Z            8
loop_
_atom_site_label
_atom_site_type_symbol
_atom_site_fract_x
_atom_site_fract_y
_atom_site_fract_z
Cl1 Cl 0.39311(5) 0.00962(5) 0.68110(3)
C1 C 0.21419(13) 0.09876(11) 0.61061(7)
H1 H 0.2428 0.1139 0.6473
C2 C 0.10322(13) 0.05493(12) 0.61832(8)
H2 H 0.0692 0.0488 0.5824
H3 H 0.1121 -0.0071 0.6334
C3 C 0.29056(14) 0.03111(11) 0.58342(8)
C4 C 0.20485(14) 0.18975(11) 0.57755(8)
H4 H 0.1812 0.1751 0.5403
H5 H 0.1501 0.2284 0.5945
C5 C 0.30676(14) 0.24393(10) 0.57417(8)
C6 C -0.08495(15) 0.08221(13) 0.66065(8)
C7 C 0.37359(15) -0.01196(12) 0.61140(10)
C8 C 0.34607(16) 0.27063(12) 0.52452(8)
C9 C 0.35978(16) 0.27215(12) 0.62569(8)
O1 O 0.06454(13) 0.17514(13) 0.68188(7)
C10 C 0.03017(16) 0.10937(13) 0.65567(8)
N1 N 0.50586(17) 0.38254(14) 0.51232(9)
C11 C 0.43597(18) 0.33273(14) 0.51864(9)
C12 C 0.4281(2) -0.09442(16) 0.53127(15)
H6 H 0.4745 -0.1357 0.5137
C13 C -0.12962(17) 0.00934(14) 0.63200(10)
H7 H -0.0876 -0.0250 0.6076
C14 C 0.2988(2) 0.30836(13) 0.66865(8)
H8 H 0.2244 0.3114 0.6654
C15 C 0.4708(2) 0.26488(16) 0.63205(11)
H9 H 0.5128 0.2394 0.6041
C16 C 0.27768(18) 0.00750(12) 0.52708(10)
H10 H 0.2221 0.0341 0.5069
C17 C 0.2967(2) 0.24452(15) 0.47332(11)
C18 C -0.14936(19) 0.13109(16) 0.69652(9)
H11 H -0.1202 0.1799 0.7167
C19 C 0.44248(17) -0.07472(15) 0.58579(13)
H12 H 0.4976 -0.1028 0.6057
C20 C 0.3458(2) -0.05403(15) 0.50173(11)
H13 H 0.3365 -0.0685 0.4646
C21 C -0.2366(2) -0.01304(19) 0.63923(12)
H14 H -0.2663 -0.0624 0.6197
C22 C -0.2987(2) 0.0365(2) 0.67466(11)
H15 H -0.3705 0.0207 0.6795
C23 C -0.25626(19) 0.1091(2) 0.70305(10)
H16 H -0.2992 0.1438 0.7268
C24 C 0.4571(4) 0.3335(2) 0.72144(15)
H17 H 0.4900 0.3550 0.7535
N2 N 0.2593(3) 0.22584(17) 0.43153(10)
C25 C 0.5177(3) 0.2960(2) 0.68043(17)
H18 H 0.5917 0.2912 0.6849
C26 C 0.3479(3) 0.33966(17) 0.71595(11)
H19 H 0.3068 0.3651 0.7443
loop_
_geom_bond_atom_site_label_1
_geom_bond_atom_site_label_2
_geom_bond_site_symmetry_1
_geom_bond_site_symmetry_2
Cl1 C7 1_555 1_555
C1 H1 1_555 1_555
C2 C1 1_555 1_555
H2 C2 1_555 1_555
H3 C2 1_555 1_555
C3 C1 1_555 1_555
C4 C1 1_555 1_555
H4 C4 1_555 1_555
H5 C4 1_555 1_555
C5 C4 1_555 1_555
C6 C10 1_555 1_555
C7 C3 1_555 1_555
C8 C5 1_555 1_555
C9 C5 1_555 1_555
O1 C10 1_555 1_555
C10 C2 1_555 1_555
N1 C11 1_555 1_555
C11 C8 1_555 1_555
C12 H6 1_555 1_555
C13 C6 1_555 1_555
H7 C13 1_555 1_555
C14 C9 1_555 1_555
H8 C14 1_555 1_555
C15 C9 1_555 1_555
H9 C15 1_555 1_555
C16 C3 1_555 1_555
H10 C16 1_555 1_555
C17 C8 1_555 1_555
C18 C6 1_555 1_555
H11 C18 1_555 1_555
C19 C7 1_555 1_555
H12 C19 1_555 1_555
C20 C12 1_555 1_555
H13 C20 1_555 1_555
C21 C13 1_555 1_555
H14 C21 1_555 1_555
C22 C21 1_555 1_555
H15 C22 1_555 1_555
C23 C18 1_555 1_555
H16 C23 1_555 1_555
C24 H17 1_555 1_555
N2 C17 1_555 1_555
C25 C15 1_555 1_555
H18 C25 1_555 1_555
C26 C14 1_555 1_555
H19 C26 1_555 1_555
C12 C19 1_555 1_555
C16 C20 1_555 1_555
C22 C23 1_555 1_555
C24 C25 1_555 1_555
C24 C26 1_555 1_555

#END
