
#######################################################################
#
#                 Cambridge Crystallographic Data Centre
#                                CCDC 
#
#######################################################################
#
# If this CIF has been generated from an entry in the Cambridge 
# Structural Database, then it will include bibliographic, chemical, 
# crystal, experimental, refinement or atomic coordinate data resulting 
# from the CCDC's data processing and validation procedures.
#
#######################################################################

data_QAJVOO
_chemical_formula_moiety         'C15 H13 F1 N2 O2'
_chemical_name_systematic        
2-Fluoro-N'-(2-methoxybenzylidene)benzohydrazide
_symmetry_cell_setting           monoclinic
_symmetry_space_group_name_H-M   'P 21/c'
_symmetry_Int_Tables_number      14
_space_group_name_Hall           '-P 2ybc'
loop_
_symmetry_equiv_pos_site_id
_symmetry_equiv_pos_as_xyz
1 x,y,z
2 -x,1/2+y,1/2-z
3 -x,-y,-z
4 x,1/2-y,1/2+z
_cell_length_a                   13.612(2)
_cell_length_b                   12.278(2)
_cell_length_c                   7.9250(10)
_cell_angle_alpha                90
_cell_angle_beta                 92.802(3)
_cell_angle_gamma                90
_cell_volume                     1322.91
_exptl_crystal_colour            colorless
_exptl_crystal_description       block
_cell_formula_units_Z            4
loop_
_atom_site_label
_atom_site_type_symbol
_atom_site_fract_x
_atom_site_fract_y
_atom_site_fract_z
F1 F 0.89639(10) 0.58503(11) 0.9614(2)
N1 N 0.72769(12) 0.71726(15) 0.9490(2)
H1 H 0.7427 0.6742 0.8687
N2 N 0.63391(12) 0.71379(15) 1.0089(2)
O1 O 0.77942(11) 0.85629(12) 1.1218(2)
O2 O 0.43863(11) 0.55230(14) 0.7104(2)
C1 C 0.89489(15) 0.77601(18) 0.9435(3)
C2 C 0.94195(16) 0.67840(18) 0.9204(3)
C3 C 1.03448(17) 0.6706(2) 0.8625(3)
H2 H 1.0642 0.6030 0.8504
C4 C 1.08295(18) 0.7651(3) 0.8224(4)
H3 H 1.1458 0.7614 0.7817
C5 C 1.03917(19) 0.8636(2) 0.8423(4)
H4 H 1.0721 0.9269 0.8143
C6 C 0.94636(17) 0.8701(2) 0.9034(3)
H5 H 0.9177 0.9379 0.9182
C7 C 0.79557(15) 0.78675(18) 1.0143(3)
C8 C 0.57425(15) 0.65389(18) 0.9208(3)
H6 H 0.5954 0.6201 0.8240
C9 C 0.47321(15) 0.63784(17) 0.9704(3)
C10 C 0.40509(16) 0.58424(17) 0.8620(3)
C11 C 0.31043(16) 0.56584(19) 0.9121(4)
H7 H 0.2652 0.5297 0.8403
C12 C 0.28342(17) 0.6008(2) 1.0670(4)
H8 H 0.2197 0.5881 1.0996
C13 C 0.34873(18) 0.6544(2) 1.1753(4)
H9 H 0.3295 0.6781 1.2801
C14 C 0.44315(17) 0.6725(2) 1.1266(3)
H10 H 0.4876 0.7086 1.1998
C15 C 0.3743(2) 0.4906(3) 0.6007(4)
H11 H 0.3546 0.4257 0.6575
H12 H 0.4076 0.4711 0.5010
H13 H 0.3172 0.5333 0.5694
loop_
_geom_bond_atom_site_label_1
_geom_bond_atom_site_label_2
_geom_bond_site_symmetry_1
_geom_bond_site_symmetry_2
F1 C2 1_555 1_555
N1 H1 1_555 1_555
N2 N1 1_555 1_555
O1 C7 1_555 1_555
O2 C10 1_555 1_555
C1 C2 1_555 1_555
C2 C3 1_555 1_555
C3 H2 1_555 1_555
C4 C3 1_555 1_555
H3 C4 1_555 1_555
C5 C4 1_555 1_555
H4 C5 1_555 1_555
C6 C1 1_555 1_555
H5 C6 1_555 1_555
C7 N1 1_555 1_555
C8 N2 1_555 1_555
H6 C8 1_555 1_555
C9 C8 1_555 1_555
C10 C9 1_555 1_555
C11 C10 1_555 1_555
H7 C11 1_555 1_555
C12 C11 1_555 1_555
H8 C12 1_555 1_555
C13 C12 1_555 1_555
H9 C13 1_555 1_555
C14 C9 1_555 1_555
H10 C14 1_555 1_555
C15 O2 1_555 1_555
H11 C15 1_555 1_555
H12 C15 1_555 1_555
H13 C15 1_555 1_555
C1 C7 1_555 1_555
C5 C6 1_555 1_555
C13 C14 1_555 1_555

#END
