
#######################################################################
#
#                 Cambridge Crystallographic Data Centre
#                                CCDC 
#
#######################################################################
#
# If this CIF has been generated from an entry in the Cambridge 
# Structural Database, then it will include bibliographic, chemical, 
# crystal, experimental, refinement or atomic coordinate data resulting 
# from the CCDC's data processing and validation procedures.
#
#######################################################################

data_QAJVUU
_chemical_name_common            
2-Amino-4-(2,4-dichlorophenyl)-6-(naphthalen-1-yl)pyridine-3-carbonitrile
_chemical_formula_moiety         'C22 H13 Cl2 N3'
_chemical_name_systematic        
2-Amino-4-(2,4-dichlorophenyl)-6-(naphthalen-1-yl)nicotinonitrile
_symmetry_cell_setting           triclinic
_symmetry_space_group_name_H-M   'P -1'
_symmetry_Int_Tables_number      2
_space_group_name_Hall           '-P 1'
loop_
_symmetry_equiv_pos_site_id
_symmetry_equiv_pos_as_xyz
1 x,y,z
2 -x,-y,-z
_cell_length_a                   9.5020(19)
_cell_length_b                   10.054(2)
_cell_length_c                   10.735(2)
_cell_angle_alpha                72.78(3)
_cell_angle_beta                 89.17(3)
_cell_angle_gamma                74.81(3)
_cell_volume                     943.137
_exptl_crystal_colour            colorless
_exptl_crystal_description       block
_cell_formula_units_Z            2
_exptl_crystal_recrystallization_method methanol
loop_
_atom_site_label
_atom_site_type_symbol
_atom_site_fract_x
_atom_site_fract_y
_atom_site_fract_z
Cl1 Cl -0.37446(8) 0.08316(9) 0.92700(9)
N1 N 0.36411(19) 0.4640(2) 0.89712(17)
C1 C -0.0992(3) 0.2943(3) 0.9925(3)
H1 H -0.0942 0.3531 1.0439
Cl2 Cl 0.13996(8) 0.12749(9) 0.73801(8)
N2 N 0.4248(2) 0.3529(3) 1.1161(2)
H2 H 0.480(3) 0.408(3) 1.110(2)
H3 H 0.398(3) 0.313(3) 1.193(3)
C2 C -0.2176(3) 0.2375(3) 0.9987(3)
H4 H -0.2919 0.2580 1.0532
C3 C -0.2235(3) 0.1508(3) 0.9234(3)
N3 N 0.1702(3) 0.1711(3) 1.2494(2)
C4 C -0.1143(3) 0.1165(3) 0.8436(2)
H5 H -0.1192 0.0557 0.7942
C5 C 0.0034(3) 0.1752(3) 0.8384(2)
C6 C 0.0130(2) 0.2659(2) 0.9114(2)
C7 C 0.1356(2) 0.3340(2) 0.9053(2)
C8 C 0.1657(3) 0.4256(3) 0.7898(2)
H6 H 0.1114 0.4431 0.7125
C9 C 0.2771(2) 0.4911(2) 0.7898(2)
C10 C 0.3364(2) 0.3766(2) 1.0103(2)
C11 C 0.2194(2) 0.3119(2) 1.0184(2)
C12 C 0.1897(2) 0.2309(3) 1.1454(2)
C13 C 0.3005(2) 0.6054(3) 0.6730(2)
C14 C 0.1836(3) 0.7200(3) 0.6165(3)
H7 H 0.0907 0.7181 0.6441
C15 C 0.2017(4) 0.8417(3) 0.5168(3)
H8 H 0.1209 0.9184 0.4783
C16 C 0.3370(3) 0.8461(3) 0.4774(3)
H9 H 0.3486 0.9278 0.4140
C17 C 0.4602(3) 0.7293(3) 0.5308(2)
C18 C 0.6025(3) 0.7317(4) 0.4896(3)
H10 H 0.6156 0.8140 0.4280
C19 C 0.7199(3) 0.6162(4) 0.5385(3)
H11 H 0.8128 0.6208 0.5126
C20 C 0.7004(3) 0.4907(3) 0.6275(3)
H12 H 0.7801 0.4101 0.6576
C21 C 0.5663(3) 0.4846(3) 0.6708(2)
H13 H 0.5561 0.3999 0.7306
C22 C 0.4431(3) 0.6037(3) 0.6270(2)
loop_
_geom_bond_atom_site_label_1
_geom_bond_atom_site_label_2
_geom_bond_site_symmetry_1
_geom_bond_site_symmetry_2
Cl1 C3 1_555 1_555
N1 C9 1_555 1_555
C1 H1 1_555 1_555
Cl2 C5 1_555 1_555
N2 H2 1_555 1_555
H3 N2 1_555 1_555
C2 C1 1_555 1_555
H4 C2 1_555 1_555
C3 C2 1_555 1_555
N3 C12 1_555 1_555
C4 C3 1_555 1_555
H5 C4 1_555 1_555
C5 C4 1_555 1_555
C6 C1 1_555 1_555
C7 C6 1_555 1_555
C8 C7 1_555 1_555
H6 C8 1_555 1_555
C9 C8 1_555 1_555
C10 N1 1_555 1_555
C11 C7 1_555 1_555
C12 C11 1_555 1_555
C13 C9 1_555 1_555
C14 C13 1_555 1_555
H7 C14 1_555 1_555
C15 C14 1_555 1_555
H8 C15 1_555 1_555
C16 C15 1_555 1_555
H9 C16 1_555 1_555
C17 C16 1_555 1_555
C18 C17 1_555 1_555
H10 C18 1_555 1_555
C19 C18 1_555 1_555
H11 C19 1_555 1_555
C20 C19 1_555 1_555
H12 C20 1_555 1_555
C21 C20 1_555 1_555
H13 C21 1_555 1_555
C22 C13 1_555 1_555
N2 C10 1_555 1_555
C5 C6 1_555 1_555
C10 C11 1_555 1_555
C17 C22 1_555 1_555
C21 C22 1_555 1_555

#END
