
#######################################################################
#
#                 Cambridge Crystallographic Data Centre
#                                CCDC 
#
#######################################################################
#
# If this CIF has been generated from an entry in the Cambridge 
# Structural Database, then it will include bibliographic, chemical, 
# crystal, experimental, refinement or atomic coordinate data resulting 
# from the CCDC's data processing and validation procedures.
#
#######################################################################

data_QAKBEK
_chemical_formula_moiety         'C14 H25 F2 N1 O6'
_chemical_name_systematic        
'N-(1-(2,2-Dimethyl(1,3)dioxolan-4-yl)-2,2-difluoro-3,4-dihydroxybutyl)carbamic acid t-butyl ester'
_symmetry_cell_setting           monoclinic
_symmetry_space_group_name_H-M   'P 21/c'
_symmetry_Int_Tables_number      14
_space_group_name_Hall           '-P 2ybc'
loop_
_symmetry_equiv_pos_site_id
_symmetry_equiv_pos_as_xyz
1 x,y,z
2 x,1/2-y,1/2+z
3 -x,-y,-z
4 -x,1/2+y,1/2-z
_cell_length_a                   11.017(2)
_cell_length_b                   9.2673(19)
_cell_length_c                   17.859(4)
_cell_angle_alpha                90
_cell_angle_beta                 107.935(4)
_cell_angle_gamma                90
_cell_volume                     1734.76
_exptl_crystal_colour            colorless
_chemical_melting_point          '89-91 deg.C'
_cell_formula_units_Z            4
loop_
_atom_site_label
_atom_site_type_symbol
_atom_site_fract_x
_atom_site_fract_y
_atom_site_fract_z
O1 O 0.03427(19) 0.6910(3) 0.20042(11)
O2 O -0.00184(17) 0.6186(2) 0.07427(10)
O3 O 0.3818(2) 0.3343(3) 0.27206(13)
O4 O 0.4980(2) 0.0768(2) 0.24623(13)
H1 H 0.5257 0.1208 0.2879
O5 O 0.3431(2) 0.6740(2) 0.11123(12)
O6 O 0.27937(18) 0.6147(2) -0.01851(11)
N1 N 0.2113(2) 0.4833(3) 0.06286(14)
F1 F 0.16246(16) 0.21414(18) 0.09117(9)
F2 F 0.13435(15) 0.25705(19) 0.20368(10)
C1 C 0.0149(4) 0.5407(5) 0.1999(2)
C2 C -0.0215(3) 0.7375(4) 0.12217(17)
C3 C 0.0349(3) 0.4935(4) 0.12284(17)
C4 C 0.1770(3) 0.4554(3) 0.13367(16)
C5 C 0.2060(3) 0.3011(3) 0.15746(16)
C6 C 0.3441(3) 0.2633(3) 0.19833(18)
C7 C 0.3650(4) 0.1038(4) 0.2136(3)
C8 C -0.1636(3) 0.7620(4) 0.10326(18)
H2 H -0.2039 0.6741 0.1115
H3 H -0.1985 0.7915 0.0493
H4 H -0.1786 0.8360 0.1370
C9 C 0.0495(4) 0.8662(4) 0.1079(2)
H5 H 0.0368 0.9453 0.1394
H6 H 0.0185 0.8922 0.0533
H7 H 0.1388 0.8440 0.1219
C10 C 0.2829(3) 0.5993(3) 0.05661(18)
C11 C 0.3469(3) 0.7327(4) -0.04364(19)
C12 C 0.4882(3) 0.7224(5) -0.0032(2)
H8 H 0.5043 0.7208 0.0528
H9 H 0.5300 0.8044 -0.0171
H10 H 0.5205 0.6356 -0.0193
C13 C 0.3158(4) 0.7050(5) -0.1305(2)
H11 H 0.3594 0.6197 -0.1388
H12 H 0.3427 0.7859 -0.1551
H13 H 0.2254 0.6918 -0.1532
C14 C 0.2931(4) 0.8739(4) -0.0282(3)
H14 H 0.2016 0.8699 -0.0471
H15 H 0.3226 0.9497 -0.0549
H16 H 0.3206 0.8928 0.0274
H17 H -0.067(3) 0.525(4) 0.2035(18)
H18 H 0.080(3) 0.510(4) 0.2433(19)
H19 H -0.017(2) 0.401(3) 0.0983(13)
H20 H 0.227(2) 0.524(3) 0.1743(15)
H21 H 0.396(2) 0.308(3) 0.1687(14)
H22 H 0.339(3) 0.069(4) 0.1608(19)
H23 H 0.314(3) 0.092(4) 0.2545(19)
H24 H 0.168(4) 0.422(5) 0.022(2)
H25 H 0.427(3) 0.403(3) 0.2652(18)
loop_
_geom_bond_atom_site_label_1
_geom_bond_atom_site_label_2
_geom_bond_site_symmetry_1
_geom_bond_site_symmetry_2
O1 C1 1_555 1_555
O2 C2 1_555 1_555
O3 C6 1_555 1_555
O4 H1 1_555 1_555
O5 C10 1_555 1_555
O6 C10 1_555 1_555
N1 C4 1_555 1_555
F1 C5 1_555 1_555
F2 C5 1_555 1_555
C1 C3 1_555 1_555
C2 O1 1_555 1_555
C3 O2 1_555 1_555
C4 C3 1_555 1_555
C5 C4 1_555 1_555
C6 C5 1_555 1_555
C7 O4 1_555 1_555
C8 C2 1_555 1_555
H2 C8 1_555 1_555
H3 C8 1_555 1_555
H4 C8 1_555 1_555
C9 C2 1_555 1_555
H5 C9 1_555 1_555
H6 C9 1_555 1_555
H7 C9 1_555 1_555
C10 N1 1_555 1_555
C11 O6 1_555 1_555
C12 C11 1_555 1_555
H8 C12 1_555 1_555
H9 C12 1_555 1_555
H10 C12 1_555 1_555
C13 C11 1_555 1_555
H11 C13 1_555 1_555
H12 C13 1_555 1_555
H13 C13 1_555 1_555
C14 C11 1_555 1_555
H14 C14 1_555 1_555
H15 C14 1_555 1_555
H16 C14 1_555 1_555
H17 C1 1_555 1_555
H18 C1 1_555 1_555
H19 C3 1_555 1_555
H20 C4 1_555 1_555
H21 C6 1_555 1_555
H22 C7 1_555 1_555
H23 C7 1_555 1_555
H24 N1 1_555 1_555
H25 O3 1_555 1_555
C6 C7 1_555 1_555

#END
