
#######################################################################
#
#                 Cambridge Crystallographic Data Centre
#                                CCDC 
#
#######################################################################
#
# If this CIF has been generated from an entry in the Cambridge 
# Structural Database, then it will include bibliographic, chemical, 
# crystal, experimental, refinement or atomic coordinate data resulting 
# from the CCDC's data processing and validation procedures.
#
#######################################################################

data_QAKBOV
_chemical_name_common            
1-(2-Bromo-2-deoxy-beta-D-xylofuranosyl)uracil
_chemical_formula_moiety         'C9 H11 Br1 N2 O5'
_chemical_name_systematic        
1-(3-Bromo-4-hydroxy-5-(hydroxymethyl)tetrahydrofuran-2-yl)pyrimidine-2,4(1H,3H)-dione
_symmetry_cell_setting           orthorhombic
_symmetry_space_group_name_H-M   'P 21 21 21'
_symmetry_Int_Tables_number      19
_space_group_name_Hall           'P 2ac 2ab'
loop_
_symmetry_equiv_pos_site_id
_symmetry_equiv_pos_as_xyz
1 x,y,z
2 1/2-x,-y,1/2+z
3 -x,1/2+y,1/2-z
4 1/2+x,1/2-y,-z
_cell_length_a                   4.8444(3)
_cell_length_b                   12.7237(10)
_cell_length_c                   17.4388(13)
_cell_angle_alpha                90
_cell_angle_beta                 90
_cell_angle_gamma                90
_cell_volume                     1074.9
_exptl_crystal_colour            colorless
_exptl_crystal_description       block
_cell_formula_units_Z            4
_exptl_crystal_recrystallization_method water/dimethylsulfoxide
loop_
_atom_site_label
_atom_site_type_symbol
_atom_site_fract_x
_atom_site_fract_y
_atom_site_fract_z
Br1 Br 0.27277(5) -0.100786(17) 0.715735(13)
N1 N 0.5109(4) 0.10657(15) 0.81851(10)
N2 N 0.4796(4) 0.08084(15) 0.94956(10)
H1 H 0.5395 0.0505 0.9904
C1 C 0.3861(5) 0.04049(18) 0.68858(12)
H2 H 0.2276 0.0878 0.6937
C2 C 0.6127(5) 0.07596(18) 0.74317(13)
H3 H 0.7521 0.0206 0.7484
C3 C 0.6883(5) 0.15620(18) 0.62383(11)
H4 H 0.8688 0.1469 0.5994
C4 C 0.5166(5) 0.0564(2) 0.61047(12)
H5 H 0.3762 0.0675 0.5708
C5 C 0.5620(5) 0.2564(2) 0.59440(14)
H6 H 0.6704 0.3160 0.6115
H7 H 0.5616 0.2560 0.5388
C6 C 0.6060(5) 0.05312(19) 0.88240(13)
C7 C 0.2656(5) 0.15228(17) 0.95953(11)
C8 C 0.1829(5) 0.20597(17) 0.89049(12)
H8 H 0.0460 0.2571 0.8921
C9 C 0.3045(5) 0.18165(17) 0.82441(12)
H9 H 0.2486 0.2166 0.7802
O1 O 0.7292(4) 0.16509(12) 0.70608(7)
O2 O 0.2882(4) 0.26569(14) 0.62192(11)
H10 H 0.2448 0.3279 0.6236
O3 O 0.7002(4) -0.02551(13) 0.58996(8)
H11 H 0.6137 -0.0730 0.5692
O4 O 0.7873(4) -0.01293(12) 0.88008(8)
O5 O 0.1654(4) 0.16566(13) 1.02337(8)
loop_
_geom_bond_atom_site_label_1
_geom_bond_atom_site_label_2
_geom_bond_site_symmetry_1
_geom_bond_site_symmetry_2
Br1 C1 1_555 1_555
N1 C2 1_555 1_555
N2 H1 1_555 1_555
C1 H2 1_555 1_555
C2 C1 1_555 1_555
H3 C2 1_555 1_555
C3 H4 1_555 1_555
C4 C1 1_555 1_555
H5 C4 1_555 1_555
C5 C3 1_555 1_555
H6 C5 1_555 1_555
H7 C5 1_555 1_555
C6 N1 1_555 1_555
C7 N2 1_555 1_555
C8 C7 1_555 1_555
H8 C8 1_555 1_555
C9 N1 1_555 1_555
H9 C9 1_555 1_555
O1 C2 1_555 1_555
O2 C5 1_555 1_555
H10 O2 1_555 1_555
O3 C4 1_555 1_555
H11 O3 1_555 1_555
O4 C6 1_555 1_555
O5 C7 1_555 1_555
N2 C6 1_555 1_555
C3 C4 1_555 1_555
C3 O1 1_555 1_555
C8 C9 1_555 1_555

#END
