
#######################################################################
#
#                 Cambridge Crystallographic Data Centre
#                                CCDC 
#
#######################################################################
#
# If this CIF has been generated from an entry in the Cambridge 
# Structural Database, then it will include bibliographic, chemical, 
# crystal, experimental, refinement or atomic coordinate data resulting 
# from the CCDC's data processing and validation procedures.
#
#######################################################################

data_QAKCIQ
_chemical_name_common            
(3E,5E)-3,5-bis(4-hydroxybenzylidene)oxan-4-one
_chemical_formula_moiety         'C19 H16 O4'
_chemical_name_systematic        
(3E,5E)-3,5-bis(4-hydroxybenzylidene)-tetrahydropyran-4-one
_symmetry_cell_setting           orthorhombic
_symmetry_space_group_name_H-M   'P b c a'
_symmetry_Int_Tables_number      61
_space_group_name_Hall           '-P 2ac 2ab'
loop_
_symmetry_equiv_pos_site_id
_symmetry_equiv_pos_as_xyz
1 x,y,z
2 1/2-x,-y,1/2+z
3 -x,1/2+y,1/2-z
4 1/2+x,1/2-y,-z
5 -x,-y,-z
6 1/2+x,y,1/2-z
7 x,1/2-y,1/2+z
8 1/2-x,1/2+y,z
_cell_length_a                   11.812(3)
_cell_length_b                   7.4687(16)
_cell_length_c                   33.233(7)
_cell_angle_alpha                90
_cell_angle_beta                 90
_cell_angle_gamma                90
_cell_volume                     2931.82
_exptl_crystal_colour            colorless
_exptl_crystal_description       block
_cell_formula_units_Z            8
_exptl_crystal_recrystallization_method tetrahydrofuran
loop_
_atom_site_label
_atom_site_type_symbol
_atom_site_fract_x
_atom_site_fract_y
_atom_site_fract_z
C1 C 0.91919(16) 0.7445(3) 0.61879(5)
C2 C 0.88020(14) 0.8252(2) 0.58058(5)
C3 C 0.79877(16) 0.9793(3) 0.58346(5)
H1 H 0.8083 1.0564 0.5602
H2 H 0.7219 0.9337 0.5831
C4 C 0.79701(16) 0.9771(3) 0.65410(5)
H3 H 0.7206 0.9298 0.6536
H4 H 0.8042 1.0530 0.6776
C5 C 0.87964(15) 0.8251(2) 0.65713(5)
C6 C 0.92068(15) 0.7571(3) 0.54608(5)
H5 H 0.9721 0.6642 0.5496
C7 C 0.89904(14) 0.8015(2) 0.50413(5)
C8 C 0.97612(15) 0.7402(3) 0.47550(6)
H6 H 1.0364 0.6693 0.4839
C9 C 0.96621(15) 0.7811(3) 0.43528(6)
H7 H 1.0188 0.7372 0.4169
C10 C 0.87774(16) 0.8876(3) 0.42219(6)
C11 C 0.79695(16) 0.9439(3) 0.44952(6)
H8 H 0.7354 1.0111 0.4408
C12 C 0.80732(16) 0.9009(3) 0.48974(6)
H9 H 0.7519 0.9389 0.5077
C13 C 0.91900(14) 0.7598(3) 0.69197(5)
H10 H 0.9732 0.6703 0.6894
C14 C 0.89027(15) 0.8069(2) 0.73343(5)
C15 C 0.96953(15) 0.7720(3) 0.76362(5)
H11 H 1.0367 0.7144 0.7569
C16 C 0.95080(15) 0.8209(3) 0.80322(6)
H12 H 1.0048 0.7966 0.8228
C17 C 0.85055(15) 0.9063(3) 0.81330(6)
C18 C 0.76801(16) 0.9319(3) 0.78463(6)
H13 H 0.6989 0.9821 0.7919
C19 C 0.78746(15) 0.8832(2) 0.74526(6)
H14 H 0.7311 0.9014 0.7262
O1 O 0.98058(13) 0.6110(2) 0.61862(4)
O2 O 0.81578(11) 1.08088(17) 0.61899(4)
O3 O 0.87617(13) 0.9311(2) 0.38255(4)
H15 H 0.8139 0.9718 0.3766
O4 O 0.83014(11) 0.9651(2) 0.85156(4)
H16 H 0.8896 0.9992 0.8618
loop_
_geom_bond_atom_site_label_1
_geom_bond_atom_site_label_2
_geom_bond_site_symmetry_1
_geom_bond_site_symmetry_2
C1 C2 1_555 1_555
C2 C3 1_555 1_555
C3 H1 1_555 1_555
H2 C3 1_555 1_555
C4 H3 1_555 1_555
H4 C4 1_555 1_555
C5 C1 1_555 1_555
C6 C2 1_555 1_555
H5 C6 1_555 1_555
C7 C6 1_555 1_555
C8 C7 1_555 1_555
H6 C8 1_555 1_555
C9 C8 1_555 1_555
H7 C9 1_555 1_555
C10 C9 1_555 1_555
C11 C10 1_555 1_555
H8 C11 1_555 1_555
C12 C7 1_555 1_555
H9 C12 1_555 1_555
C13 C5 1_555 1_555
H10 C13 1_555 1_555
C14 C13 1_555 1_555
C15 C14 1_555 1_555
H11 C15 1_555 1_555
C16 C15 1_555 1_555
H12 C16 1_555 1_555
C17 C16 1_555 1_555
C18 C17 1_555 1_555
H13 C18 1_555 1_555
C19 C14 1_555 1_555
H14 C19 1_555 1_555
O1 C1 1_555 1_555
O2 C3 1_555 1_555
O3 C10 1_555 1_555
H15 O3 1_555 1_555
O4 C17 1_555 1_555
H16 O4 1_555 1_555
C4 C5 1_555 1_555
C4 O2 1_555 1_555
C11 C12 1_555 1_555
C18 C19 1_555 1_555

#END
