
#######################################################################
#
#                 Cambridge Crystallographic Data Centre
#                                CCDC 
#
#######################################################################
#
# If this CIF has been generated from an entry in the Cambridge 
# Structural Database, then it will include bibliographic, chemical, 
# crystal, experimental, refinement or atomic coordinate data resulting 
# from the CCDC's data processing and validation procedures.
#
#######################################################################

data_QAKDOX
_chemical_formula_moiety         'C14 H15 N1 O4'
_chemical_name_systematic        'Diethyl indolizine-1,3-dicarboxylate'
_symmetry_cell_setting           monoclinic
_symmetry_space_group_name_H-M   'P 21/c'
_symmetry_Int_Tables_number      14
_space_group_name_Hall           '-P 2ybc'
loop_
_symmetry_equiv_pos_site_id
_symmetry_equiv_pos_as_xyz
1 x,y,z
2 -x,1/2+y,1/2-z
3 -x,-y,-z
4 x,1/2-y,1/2+z
_cell_length_a                   7.941(2)
_cell_length_b                   19.700(4)
_cell_length_c                   8.622(2)
_cell_angle_alpha                90
_cell_angle_beta                 101.770(3)
_cell_angle_gamma                90
_cell_volume                     1320.45
_exptl_crystal_colour            colorless
_exptl_crystal_description       block
_cell_formula_units_Z            4
_exptl_crystal_recrystallization_method 'ethyl acetate'
loop_
_atom_site_label
_atom_site_type_symbol
_atom_site_fract_x
_atom_site_fract_y
_atom_site_fract_z
C1 C 0.3394(3) 0.57688(11) 0.8498(3)
H1 H 0.4111 0.5441 0.9062
C2 C 0.3039(3) 0.63422(12) 0.9219(3)
H2 H 0.3508 0.6409 1.0288
C3 C 0.1963(3) 0.68414(12) 0.8365(3)
H3 H 0.1732 0.7237 0.8871
C4 C 0.1266(3) 0.67502(11) 0.6820(3)
H4 H 0.0555 0.7082 0.6263
C5 C 0.1613(3) 0.61567(9) 0.6055(3)
C6 C 0.1093(3) 0.59243(10) 0.4502(3)
C7 C 0.1841(3) 0.52881(10) 0.4431(3)
H5 H 0.1701 0.5015 0.3534
C8 C 0.2815(3) 0.51264(10) 0.5885(3)
C9 C -0.0036(3) 0.62911(11) 0.3236(3)
C10 C -0.1463(3) 0.62404(12) 0.0531(3)
H6 H -0.0954 0.6662 0.0268
H7 H -0.2587 0.6339 0.0752
C11 C -0.1616(4) 0.57481(13) -0.0806(3)
H8 H -0.0491 0.5640 -0.0982
H9 H -0.2291 0.5946 -0.1748
H10 H -0.2166 0.5341 -0.0549
C12 C 0.3783(3) 0.45130(11) 0.6400(3)
C13 C 0.4462(3) 0.34094(11) 0.5611(3)
H11 H 0.4010 0.3188 0.6445
H12 H 0.5689 0.3476 0.5979
C14 C 0.4129(4) 0.29840(12) 0.4151(4)
H13 H 0.2911 0.2926 0.3791
H14 H 0.4662 0.2548 0.4382
H15 H 0.4598 0.3204 0.3340
N1 N 0.2678(2) 0.56704(9) 0.6903(2)
O1 O -0.0371(2) 0.59243(8) 0.1895(2)
O2 O -0.0599(2) 0.68564(8) 0.3343(2)
O3 O 0.3616(2) 0.40572(7) 0.52177(19)
O4 O 0.4634(2) 0.44071(8) 0.7710(2)
loop_
_geom_bond_atom_site_label_1
_geom_bond_atom_site_label_2
_geom_bond_site_symmetry_1
_geom_bond_site_symmetry_2
C1 H1 1_555 1_555
C2 C1 1_555 1_555
H2 C2 1_555 1_555
C3 C2 1_555 1_555
H3 C3 1_555 1_555
C4 C3 1_555 1_555
H4 C4 1_555 1_555
C5 C4 1_555 1_555
C6 C5 1_555 1_555
C7 C6 1_555 1_555
H5 C7 1_555 1_555
C8 C7 1_555 1_555
C9 C6 1_555 1_555
C10 H6 1_555 1_555
H7 C10 1_555 1_555
C11 C10 1_555 1_555
H8 C11 1_555 1_555
H9 C11 1_555 1_555
H10 C11 1_555 1_555
C12 C8 1_555 1_555
C13 H11 1_555 1_555
H12 C13 1_555 1_555
C14 C13 1_555 1_555
H13 C14 1_555 1_555
H14 C14 1_555 1_555
H15 C14 1_555 1_555
N1 C1 1_555 1_555
O1 C9 1_555 1_555
O2 C9 1_555 1_555
O3 C12 1_555 1_555
O4 C12 1_555 1_555
C5 N1 1_555 1_555
C8 N1 1_555 1_555
C10 O1 1_555 1_555
C13 O3 1_555 1_555

#END
