
#######################################################################
#
#                 Cambridge Crystallographic Data Centre
#                                CCDC 
#
#######################################################################
#
# If this CIF has been generated from an entry in the Cambridge 
# Structural Database, then it will include bibliographic, chemical, 
# crystal, experimental, refinement or atomic coordinate data resulting 
# from the CCDC's data processing and validation procedures.
#
#######################################################################

data_QAKDEN
_chemical_formula_moiety         'C9 H9 F1 O3'
_chemical_name_systematic        '3-(2-Fluorophenoxy)propanoic acid'
_symmetry_cell_setting           monoclinic
_symmetry_space_group_name_H-M   'P 21/c'
_symmetry_Int_Tables_number      14
_space_group_name_Hall           '-P 2ybc'
loop_
_symmetry_equiv_pos_site_id
_symmetry_equiv_pos_as_xyz
1 x,y,z
2 -x,1/2+y,1/2-z
3 -x,-y,-z
4 x,1/2-y,1/2+z
_cell_length_a                   13.934(16)
_cell_length_b                   4.974(5)
_cell_length_c                   13.098(14)
_cell_angle_alpha                90
_cell_angle_beta                 110.546(12)
_cell_angle_gamma                90
_cell_volume                     850.048
_exptl_crystal_colour            colorless
_exptl_crystal_description       block
_cell_formula_units_Z            4
_exptl_crystal_recrystallization_method dichloromethane/hexane
loop_
_atom_site_label
_atom_site_type_symbol
_atom_site_fract_x
_atom_site_fract_y
_atom_site_fract_z
F1 F 0.1148(2) 0.0797(6) 0.0408(2)
O1 O 0.2551(2) 0.4195(6) 0.1573(2)
O2 O 0.4656(2) 0.4357(6) 0.1091(3)
O3 O 0.4220(2) 0.7887(6) -0.0035(3)
C1 C 0.3591(3) 0.7823(8) 0.1414(4)
H1 H 0.2946 0.8508 0.0873
H2 H 0.3981 0.9392 0.1815
C2 C 0.2124(3) 0.2528(8) 0.2131(4)
C3 C 0.2368(3) 0.2465(8) 0.3253(3)
H3 H 0.2869 0.3663 0.3705
C4 C 0.1372(3) 0.0743(9) 0.1491(4)
C5 C 0.1149(3) -0.1099(9) 0.3076(4)
H4 H 0.0820 -0.2334 0.3399
C6 C 0.4201(3) 0.6507(8) 0.0816(4)
C7 C 0.3327(3) 0.6037(8) 0.2214(4)
H5 H 0.3941 0.5042 0.2677
H6 H 0.3064 0.7129 0.2691
C8 C 0.1878(3) 0.0641(9) 0.3721(4)
H7 H 0.2050 0.0603 0.4490
C9 C 0.0898(3) -0.1050(9) 0.1967(4)
H8 H 0.0395 -0.2255 0.1523
H9 H 0.462(5) 0.712(14) -0.037(5)
loop_
_geom_bond_atom_site_label_1
_geom_bond_atom_site_label_2
_geom_bond_site_symmetry_1
_geom_bond_site_symmetry_2
F1 C4 1_555 1_555
O1 C2 1_555 1_555
O2 C6 1_555 1_555
O3 C6 1_555 1_555
C1 H1 1_555 1_555
H2 C1 1_555 1_555
C2 C3 1_555 1_555
C3 H3 1_555 1_555
C4 C2 1_555 1_555
C5 H4 1_555 1_555
C6 C1 1_555 1_555
C7 O1 1_555 1_555
H5 C7 1_555 1_555
H6 C7 1_555 1_555
C8 C3 1_555 1_555
H7 C8 1_555 1_555
C9 C4 1_555 1_555
H8 C9 1_555 1_555
H9 O3 1_555 1_555
C1 C7 1_555 1_555
C5 C8 1_555 1_555
C5 C9 1_555 1_555

#END
