
#######################################################################
#
#                 Cambridge Crystallographic Data Centre
#                                CCDC 
#
#######################################################################
#
# If this CIF has been generated from an entry in the Cambridge 
# Structural Database, then it will include bibliographic, chemical, 
# crystal, experimental, refinement or atomic coordinate data resulting 
# from the CCDC's data processing and validation procedures.
#
#######################################################################

data_QAKDIQ
_chemical_formula_moiety         'C26 H32 Br2'
_chemical_name_systematic        2,7-Dibromo-9-(1'-hexylheptylidene)fluorene
_symmetry_cell_setting           monoclinic
_symmetry_space_group_name_H-M   'P 2/c'
_symmetry_Int_Tables_number      13
_space_group_name_Hall           '-P 2yc'
loop_
_symmetry_equiv_pos_site_id
_symmetry_equiv_pos_as_xyz
1 x,y,z
2 x,-y,1/2+z
3 -x,-y,-z
4 -x,y,1/2-z
_cell_length_a                   22.4112(3)
_cell_length_b                   4.590
_cell_length_c                   24.6403(3)
_cell_angle_alpha                90
_cell_angle_beta                 113.1900(10)
_cell_angle_gamma                90
_cell_volume                     2329.89
_exptl_crystal_colour            colorless
_exptl_crystal_description       rod
_chemical_melting_point          '31-32 deg.C'
_cell_formula_units_Z            4
_exptl_crystal_recrystallization_method isohexane
loop_
_atom_site_label
_atom_site_type_symbol
_atom_site_fract_x
_atom_site_fract_y
_atom_site_fract_z
C1 C 0.23945(8) 0.3191(4) 0.95257(7)
C2 C 0.30039(8) 0.1589(4) 0.96020(8)
C3 C 0.33994(9) -0.0299(4) 1.00387(8)
H1 H 0.3293 -0.0819 1.0363
C4 C 0.39525(9) -0.1402(4) 0.99895(8)
C5 C 0.41352(9) -0.0701(4) 0.95295(9)
H2 H 0.4517 -0.1502 0.9511
C6 C 0.37458(9) 0.1200(4) 0.90970(8)
H3 H 0.3861 0.1730 0.8778
C7 C 0.31863(8) 0.2326(4) 0.91321(8)
C8 C 0.27051(9) 0.4337(4) 0.87382(8)
C9 C 0.26730(10) 0.5637(4) 0.82181(9)
H4 H 0.3005 0.5301 0.8077
C10 C 0.21503(9) 0.7434(5) 0.79065(8)
H5 H 0.2124 0.8372 0.7554
C11 C 0.16710(9) 0.7829(4) 0.81191(8)
C12 C 0.16905(9) 0.6552(4) 0.86355(8)
H6 H 0.1347 0.6846 0.8764
C13 C 0.22227(9) 0.4831(4) 0.89616(8)
C14 C 0.20915(8) 0.3279(4) 0.99037(8)
C15 C 0.23175(8) 0.1551(4) 1.04699(8)
H7 H 0.2471 -0.0384 1.0403
H8 H 0.1947 0.1242 1.0586
C16 C 0.28685(8) 0.3104(4) 1.09749(8)
H9 H 0.3216 0.3621 1.0839
H10 H 0.2699 0.4937 1.1071
C17 C 0.31576(9) 0.1249(4) 1.15321(8)
H11 H 0.2803 0.0565 1.1645
H12 H 0.3367 -0.0489 1.1446
C18 C 0.36555(9) 0.2886(4) 1.20504(8)
H13 H 0.3433 0.4466 1.2171
H14 H 0.3977 0.3799 1.1920
C19 C 0.40119(11) 0.0950(5) 1.25829(9)
H15 H 0.4240 -0.0610 1.2464
H16 H 0.3689 0.0011 1.2709
C20 C 0.45029(11) 0.2593(5) 1.31065(9)
H17 H 0.4816 0.3586 1.2983
H18 H 0.4732 0.1214 1.3424
H19 H 0.4276 0.4034 1.3249
C21 C 0.14979(8) 0.5118(4) 0.97995(8)
H20 H 0.1519 0.6904 0.9582
H21 H 0.1496 0.5718 1.0185
C22 C 0.08661(8) 0.3479(4) 0.94463(8)
H22 H 0.0887 0.2727 0.9078
H23 H 0.0829 0.1785 0.9680
C23 C 0.02606(9) 0.5370(4) 0.92893(9)
H24 H 0.0258 0.6259 0.9655
H25 H 0.0278 0.6968 0.9026
C24 C -0.03664(9) 0.3662(4) 0.89847(9)
H26 H -0.0353 0.2689 0.8631
H27 H -0.0393 0.2125 0.9256
C25 C -0.09738(9) 0.5546(4) 0.87978(9)
H28 H -0.0954 0.7051 0.8518
H29 H -0.0984 0.6556 0.9149
C26 C -0.15965(9) 0.3791(5) 0.85074(9)
H30 H -0.1596 0.2831 0.8152
H31 H -0.1972 0.5097 0.8399
H32 H -0.1623 0.2315 0.8785
Br1 Br 0.449582(9) -0.38791(4) 1.060534(8)
Br2 Br 0.093012(10) 1.01170(5) 0.767568(9)
loop_
_geom_bond_atom_site_label_1
_geom_bond_atom_site_label_2
_geom_bond_site_symmetry_1
_geom_bond_site_symmetry_2
C1 C2 1_555 1_555
C2 C3 1_555 1_555
C3 H1 1_555 1_555
C4 C3 1_555 1_555
C5 C4 1_555 1_555
H2 C5 1_555 1_555
C6 C5 1_555 1_555
H3 C6 1_555 1_555
C7 C2 1_555 1_555
C8 C7 1_555 1_555
C9 C8 1_555 1_555
H4 C9 1_555 1_555
C10 C9 1_555 1_555
H5 C10 1_555 1_555
C11 C10 1_555 1_555
C12 C11 1_555 1_555
H6 C12 1_555 1_555
C13 C1 1_555 1_555
C14 C1 1_555 1_555
C15 C14 1_555 1_555
H7 C15 1_555 1_555
H8 C15 1_555 1_555
C16 C15 1_555 1_555
H9 C16 1_555 1_555
H10 C16 1_555 1_555
C17 C16 1_555 1_555
H11 C17 1_555 1_555
H12 C17 1_555 1_555
C18 C17 1_555 1_555
H13 C18 1_555 1_555
H14 C18 1_555 1_555
C19 C18 1_555 1_555
H15 C19 1_555 1_555
H16 C19 1_555 1_555
C20 C19 1_555 1_555
H17 C20 1_555 1_555
H18 C20 1_555 1_555
H19 C20 1_555 1_555
C21 C14 1_555 1_555
H20 C21 1_555 1_555
H21 C21 1_555 1_555
C22 C21 1_555 1_555
H22 C22 1_555 1_555
H23 C22 1_555 1_555
C23 C22 1_555 1_555
H24 C23 1_555 1_555
H25 C23 1_555 1_555
C24 C23 1_555 1_555
H26 C24 1_555 1_555
H27 C24 1_555 1_555
C25 C24 1_555 1_555
H28 C25 1_555 1_555
H29 C25 1_555 1_555
C26 C25 1_555 1_555
H30 C26 1_555 1_555
H31 C26 1_555 1_555
H32 C26 1_555 1_555
Br1 C4 1_555 1_555
Br2 C11 1_555 1_555
C6 C7 1_555 1_555
C8 C13 1_555 1_555
C12 C13 1_555 1_555

#END
