
#######################################################################
#
#                 Cambridge Crystallographic Data Centre
#                                CCDC 
#
#######################################################################
#
# If this CIF has been generated from an entry in the Cambridge 
# Structural Database, then it will include bibliographic, chemical, 
# crystal, experimental, refinement or atomic coordinate data resulting 
# from the CCDC's data processing and validation procedures.
#
#######################################################################

data_QAKDUD
_chemical_formula_moiety         'C23 H25 Cl2 N3'
_chemical_name_systematic        
2-[3-((Z)-2-(4-[bis(2-chloroethyl)amino]phenyl)ethenyl)-5,5-dimethylcyclohex-2-en-1-ylidene]propanedinitrile
_symmetry_cell_setting           triclinic
_symmetry_space_group_name_H-M   'P -1'
_symmetry_Int_Tables_number      2
_space_group_name_Hall           '-P 1'
loop_
_symmetry_equiv_pos_site_id
_symmetry_equiv_pos_as_xyz
1 x,y,z
2 -x,-y,-z
_cell_length_a                   9.106(7)
_cell_length_b                   10.819(9)
_cell_length_c                   13.325(4)
_cell_angle_alpha                70.052(6)
_cell_angle_beta                 70.020(10)
_cell_angle_gamma                65.110(10)
_cell_volume                     1088.74
_exptl_crystal_colour            red
_exptl_crystal_description       block
_chemical_melting_point          '462 K'
_cell_formula_units_Z            2
loop_
_atom_site_label
_atom_site_type_symbol
_atom_site_fract_x
_atom_site_fract_y
_atom_site_fract_z
Cl1 Cl 0.94296(7) 0.45978(6) 0.17603(5)
Cl2 Cl 1.69804(7) 0.19448(6) 0.30464(5)
N1 N 1.2573(2) 0.45672(17) 0.23659(13)
C1 C 0.8407(2) 0.95499(19) 0.75122(15)
H1 H 0.9244 0.8771 0.7786
C2 C 0.8134(2) 0.9638(2) 0.65538(15)
C3 C 1.1692(2) 0.55189(19) 0.30229(15)
C4 C 0.7456(2) 1.0609(2) 0.81253(15)
C5 C 0.9649(2) 0.7739(2) 0.33495(16)
H2 H 0.8866 0.8586 0.3097
C6 C 0.9014(2) 0.8540(2) 0.50045(16)
H3 H 0.8225 0.9330 0.4692
C7 C 1.1131(2) 0.6197(2) 0.47076(16)
H4 H 1.1352 0.5974 0.5392
C8 C 0.9938(2) 0.7485(2) 0.43735(15)
C9 C 0.9138(2) 0.8536(2) 0.59796(16)
H5 H 0.9928 0.7767 0.6308
C10 C 1.0470(2) 0.6794(2) 0.26958(15)
H6 H 1.0211 0.7003 0.2026
C11 C 0.7696(2) 1.0458(2) 0.91198(16)
C12 C 0.6733(3) 1.1514(2) 0.97320(16)
C13 C 1.1987(2) 0.5248(2) 0.40534(16)
H7 H 1.2781 0.4407 0.4302
C14 C 0.6212(2) 1.1924(2) 0.76371(16)
H8 H 0.6762 1.2596 0.7189
H9 H 0.5353 1.2329 0.8223
C15 C 1.3873(2) 0.3277(2) 0.27018(16)
H10 H 1.4040 0.2599 0.2312
H11 H 1.3531 0.2894 0.3481
N2 N 0.5935(3) 1.2370(2) 1.02102(15)
C16 C 0.6800(2) 1.0893(2) 0.60875(16)
H12 H 0.6307 1.0594 0.5713
H13 H 0.7312 1.1548 0.5544
C17 C 0.5410(2) 1.1659(2) 0.69367(16)
C18 C 1.2492(3) 0.4899(2) 0.12292(16)
H14 H 1.3614 0.4675 0.0772
H15 H 1.1921 0.5898 0.1000
C19 C 1.1606(3) 0.4119(2) 0.10506(18)
H16 H 1.2152 0.3121 0.1304
H17 H 1.1691 0.4308 0.0271
N3 N 0.9835(3) 0.8257(2) 0.99930(16)
C20 C 0.8897(3) 0.9239(2) 0.96049(16)
C21 C 1.5502(2) 0.3513(2) 0.24686(18)
H18 H 1.5316 0.4267 0.2785
H19 H 1.5926 0.3778 0.1682
C22 C 0.4348(3) 1.3060(2) 0.63482(18)
H20 H 0.5036 1.3608 0.5891
H21 H 0.3498 1.3553 0.6880
H22 H 0.3839 1.2901 0.5902
C23 C 0.4306(3) 1.0779(2) 0.76748(19)
H23 H 0.3449 1.1278 0.8200
H24 H 0.4975 0.9902 0.8053
H25 H 0.3807 1.0607 0.7231
loop_
_geom_bond_atom_site_label_1
_geom_bond_atom_site_label_2
_geom_bond_site_symmetry_1
_geom_bond_site_symmetry_2
Cl1 C19 1_555 1_555
Cl2 C21 1_555 1_555
N1 C3 1_555 1_555
C1 H1 1_555 1_555
C2 C1 1_555 1_555
C3 C10 1_555 1_555
C4 C1 1_555 1_555
C5 H2 1_555 1_555
C6 H3 1_555 1_555
C7 H4 1_555 1_555
C8 C5 1_555 1_555
C9 C2 1_555 1_555
H5 C9 1_555 1_555
C10 C5 1_555 1_555
H6 C10 1_555 1_555
C11 C4 1_555 1_555
C12 C11 1_555 1_555
C13 C3 1_555 1_555
H7 C13 1_555 1_555
C14 C4 1_555 1_555
H8 C14 1_555 1_555
H9 C14 1_555 1_555
C15 N1 1_555 1_555
H10 C15 1_555 1_555
H11 C15 1_555 1_555
N2 C12 1_555 1_555
C16 C2 1_555 1_555
H12 C16 1_555 1_555
H13 C16 1_555 1_555
C17 C14 1_555 1_555
C18 N1 1_555 1_555
H14 C18 1_555 1_555
H15 C18 1_555 1_555
C19 C18 1_555 1_555
H16 C19 1_555 1_555
H17 C19 1_555 1_555
N3 C20 1_555 1_555
C20 C11 1_555 1_555
C21 C15 1_555 1_555
H18 C21 1_555 1_555
H19 C21 1_555 1_555
C22 C17 1_555 1_555
H20 C22 1_555 1_555
H21 C22 1_555 1_555
H22 C22 1_555 1_555
C23 C17 1_555 1_555
H23 C23 1_555 1_555
H24 C23 1_555 1_555
H25 C23 1_555 1_555
C6 C8 1_555 1_555
C6 C9 1_555 1_555
C7 C8 1_555 1_555
C7 C13 1_555 1_555
C16 C17 1_555 1_555

#END
