
#######################################################################
#
#                 Cambridge Crystallographic Data Centre
#                                CCDC 
#
#######################################################################
#
# If this CIF has been generated from an entry in the Cambridge 
# Structural Database, then it will include bibliographic, chemical, 
# crystal, experimental, refinement or atomic coordinate data resulting 
# from the CCDC's data processing and validation procedures.
#
#######################################################################

data_QAKGOB
_chemical_formula_moiety         'C52 H54 N10 O8'
_chemical_name_systematic        
36,39-bis(2-ethylhexyl)-9,11,26,28-tetranitro-7,13,24,30,36,39-hexaazanonacyclo[29.3.1.1^2,6^.1^3,34^.1^8,12^.1^14,18^.1^17,20^.1^19,23^.1^25,29^]dotetraconta-1(35),2(42),3,5,8(41),9,11,14(40),15,17,19(38),20,22,25(37),26,28,31,33-octadecaene
_symmetry_cell_setting           rhombohedral
_symmetry_space_group_name_H-M   'R -3'
_symmetry_Int_Tables_number      148
_space_group_name_Hall           '-R 3'
loop_
_symmetry_equiv_pos_site_id
_symmetry_equiv_pos_as_xyz
1 x,y,z
2 -y,x-y,z
3 -x+y,-x,z
4 2/3+x,1/3+y,1/3+z
5 2/3-y,1/3+x-y,1/3+z
6 2/3-x+y,1/3-x,1/3+z
7 1/3+x,2/3+y,2/3+z
8 1/3-y,2/3+x-y,2/3+z
9 1/3-x+y,2/3-x,2/3+z
10 -x,-y,-z
11 y,-x+y,-z
12 x-y,x,-z
13 1/3-x,2/3-y,2/3-z
14 1/3+y,2/3-x+y,2/3-z
15 1/3+x-y,2/3+x,2/3-z
16 2/3-x,1/3-y,1/3-z
17 2/3+y,1/3-x+y,1/3-z
18 2/3+x-y,1/3+x,1/3-z
_cell_length_a                   32.871(2)
_cell_length_b                   32.871(2)
_cell_length_c                   24.1978(15)
_cell_angle_alpha                90
_cell_angle_beta                 90
_cell_angle_gamma                120
_cell_volume                     22642.9
_exptl_crystal_colour            yellow
_exptl_crystal_description       block
_cell_formula_units_Z            18
loop_
_atom_site_label
_atom_site_type_symbol
_atom_site_fract_x
_atom_site_fract_y
_atom_site_fract_z
O1 O 0.4322(4) -0.1385(3) 0.8592(3)
O2 O 0.4045(3) -0.0930(3) 0.8588(2)
O3 O 0.5609(3) -0.1139(3) 0.7564(3)
O4 O 0.5851(2) -0.0693(2) 0.6860(3)
O5 O 0.1834(3) -0.0244(4) 0.5749(4)
O6 O 0.1475(3) -0.0875(3) 0.5233(4)
O7 O 0.2215(3) -0.1452(2) 0.4165(3)
O8 O 0.2967(3) -0.1131(3) 0.4078(3)
N1 N 0.4321(3) -0.1043(3) 0.8422(2)
N2 N 0.5600(3) -0.0839(3) 0.7271(3)
N3 N 0.4408(2) -0.0179(2) 0.79395(19)
H1 H 0.4217 -0.0324 0.8206
N4 N 0.5576(2) -0.0077(2) 0.6696(2)
H2 H 0.5798 -0.0137 0.6625
N5 N 0.1825(3) -0.0553(4) 0.5429(4)
N6 N 0.2621(4) -0.1146(3) 0.4279(3)
N7 N 0.2750(2) 0.0185(2) 0.5841(2)
H3 H 0.2500 0.0194 0.5921
N8 N 0.3532(2) -0.0366(2) 0.4634(2)
H4 H 0.3522 -0.0566 0.4399
N9 N 0.4291(3) 0.1332(2) 0.7101(3)
N10 N 0.5266(2) 0.1079(2) 0.5307(3)
C1 C 0.4684(2) -0.0346(2) 0.7770(2)
C2 C 0.4674(3) -0.0747(3) 0.8002(2)
C3 C 0.4984(3) -0.0884(3) 0.7839(3)
H5 H 0.4985 -0.1133 0.8019
C4 C 0.5297(2) -0.0661(3) 0.7410(3)
C5 C 0.5295(2) -0.0288(2) 0.7137(2)
C6 C 0.4997(2) -0.0137(2) 0.7334(2)
H6 H 0.5007 0.0122 0.7163
C7 C 0.4407(3) 0.0229(3) 0.7706(2)
C8 C 0.4712(3) 0.0674(4) 0.7920(3)
H7 H 0.4923 0.0707 0.8196
C9 C 0.4707(3) 0.1066(3) 0.7731(3)
H8 H 0.4915 0.1362 0.7873
C10 C 0.4394(3) 0.1016(3) 0.7335(3)
C11 C 0.4086(2) 0.0564(3) 0.7113(2)
C12 C 0.4098(2) 0.0170(3) 0.7298(2)
H9 H 0.3902 -0.0124 0.7146
C13 C 0.3783(2) 0.0629(3) 0.6732(2)
C14 C 0.3917(3) 0.1106(3) 0.6740(3)
C15 C 0.3691(4) 0.1284(3) 0.6440(3)
H10 H 0.3786 0.1602 0.6445
C16 C 0.3320(3) 0.0971(4) 0.6132(3)
H11 H 0.3163 0.1084 0.5916
C17 C 0.3164(3) 0.0501(3) 0.6122(3)
C18 C 0.3400(2) 0.0316(3) 0.6437(2)
H12 H 0.3297 -0.0004 0.6442
C19 C 0.2714(2) -0.0130(3) 0.5458(3)
C20 C 0.2284(3) -0.0495(3) 0.5254(3)
C21 C 0.2267(3) -0.0806(3) 0.4878(3)
H13 H 0.1975 -0.1039 0.4752
C22 C 0.2668(3) -0.0791(2) 0.4672(3)
C23 C 0.3117(3) -0.0427(2) 0.4835(2)
C24 C 0.3122(2) -0.0117(3) 0.5233(2)
H14 H 0.3413 0.0116 0.5360
C25 C 0.3981(2) 0.0014(3) 0.4792(2)
C26 C 0.4132(3) 0.0456(3) 0.4579(3)
H15 H 0.3938 0.0497 0.4332
C27 C 0.4561(3) 0.0842(3) 0.4718(3)
H16 H 0.4659 0.1136 0.4567
C28 C 0.4841(3) 0.0769(3) 0.5096(3)
C29 C 0.4690(2) 0.0317(2) 0.53126(19)
C30 C 0.4260(2) -0.0052(2) 0.5172(2)
H17 H 0.4155 -0.0346 0.5330
C31 C 0.5054(2) 0.0373(2) 0.5682(2)
C32 C 0.5411(3) 0.0846(2) 0.5669(3)
C33 C 0.5808(3) 0.1017(3) 0.5979(4)
H18 H 0.6039 0.1332 0.5965
C34 C 0.5857(3) 0.0701(3) 0.6316(3)
H19 H 0.6126 0.0808 0.6530
C35 C 0.5521(2) 0.0242(3) 0.6339(2)
C36 C 0.5120(2) 0.0075(2) 0.6023(2)
H20 H 0.4891 -0.0241 0.6041
C37 C 0.4517(6) 0.1838(4) 0.7252(6)
H21 H 0.4703 0.1896 0.7585
H22 H 0.4278 0.1922 0.7325
C38 C 0.4840(6) 0.2145(5) 0.6768(7)
H23 H 0.4657 0.2029 0.6427
C39 C 0.4914(7) 0.2642(5) 0.6875(7)
H24 H 0.4608 0.2608 0.6940
H25 H 0.5090 0.2755 0.7217
C40 C 0.5128(7) 0.2977(6) 0.6501(7)
H26 H 0.5449 0.3052 0.6466
H27 H 0.5119 0.3252 0.6615
H28 H 0.4972 0.2870 0.6152
C41 C 0.5224(6) 0.2050(5) 0.6730(7)
H29 H 0.5398 0.2183 0.6391
H30 H 0.5102 0.1713 0.6723
C42 C 0.5567(7) 0.2278(6) 0.7254(7)
H31 H 0.5386 0.2197 0.7593
H32 H 0.5745 0.2617 0.7221
C43 C 0.5924(7) 0.2064(6) 0.7262(8)
H33 H 0.6125 0.2171 0.6939
H34 H 0.5744 0.1723 0.7253
C44 C 0.6256(8) 0.2248(7) 0.7848(9)
H35 H 0.6502 0.2568 0.7803
H36 H 0.6392 0.2053 0.7916
H37 H 0.6062 0.2227 0.8155
C45 C 0.5520(5) 0.1598(4) 0.5250(5)
H38 H 0.5298 0.1697 0.5144
H39 H 0.5651 0.1738 0.5606
C46 C 0.5899(6) 0.1772(5) 0.4840(6)
H40 H 0.6126 0.1687 0.4983
C47 C 0.5778(6) 0.1573(5) 0.4301(6)
H41 H 0.5525 0.1619 0.4174
H42 H 0.5646 0.1237 0.4347
C48 C 0.6115(6) 0.1713(6) 0.3844(6)
H43 H 0.6393 0.1707 0.3968
H44 H 0.6211 0.2033 0.3736
C49 C 0.5914(6) 0.1401(6) 0.3359(6)
H45 H 0.5624 0.1387 0.3250
H46 H 0.5842 0.1085 0.3456
C50 C 0.6248(7) 0.1573(7) 0.2890(8)
H47 H 0.6120 0.1670 0.2595
H48 H 0.6299 0.1326 0.2762
H49 H 0.6541 0.1835 0.3008
C51 C 0.6152(7) 0.2309(6) 0.4850(7)
H50 H 0.5930 0.2419 0.4904
H51 H 0.6322 0.2439 0.4508
C52 C 0.6507(8) 0.2454(6) 0.5363(8)
H52 H 0.6352 0.2466 0.5694
H53 H 0.6777 0.2757 0.5296
H54 H 0.6606 0.2226 0.5407
loop_
_geom_bond_atom_site_label_1
_geom_bond_atom_site_label_2
_geom_bond_site_symmetry_1
_geom_bond_site_symmetry_2
O1 N1 1_555 1_555
O2 N1 1_555 1_555
O3 N2 1_555 1_555
O4 N2 1_555 1_555
O5 N5 1_555 1_555
O6 N5 1_555 1_555
O7 N6 1_555 1_555
O8 N6 1_555 1_555
N1 C2 1_555 1_555
N2 C4 1_555 1_555
N3 H1 1_555 1_555
N4 H2 1_555 1_555
N5 C20 1_555 1_555
N6 C22 1_555 1_555
N7 H3 1_555 1_555
N8 H4 1_555 1_555
N9 C10 1_555 1_555
N10 C28 1_555 1_555
C1 N3 1_555 1_555
C2 C1 1_555 1_555
C3 C2 1_555 1_555
H5 C3 1_555 1_555
C4 C3 1_555 1_555
C5 N4 1_555 1_555
C6 C1 1_555 1_555
H6 C6 1_555 1_555
C7 N3 1_555 1_555
C8 C7 1_555 1_555
H7 C8 1_555 1_555
C9 C8 1_555 1_555
H8 C9 1_555 1_555
C10 C9 1_555 1_555
C11 C10 1_555 1_555
C12 C7 1_555 1_555
H9 C12 1_555 1_555
C13 C11 1_555 1_555
C14 N9 1_555 1_555
C15 C14 1_555 1_555
H10 C15 1_555 1_555
C16 C15 1_555 1_555
H11 C16 1_555 1_555
C17 N7 1_555 1_555
C18 C13 1_555 1_555
H12 C18 1_555 1_555
C19 N7 1_555 1_555
C20 C19 1_555 1_555
C21 C20 1_555 1_555
H13 C21 1_555 1_555
C22 C21 1_555 1_555
C23 N8 1_555 1_555
C24 C19 1_555 1_555
H14 C24 1_555 1_555
C25 N8 1_555 1_555
C26 C25 1_555 1_555
H15 C26 1_555 1_555
C27 C26 1_555 1_555
H16 C27 1_555 1_555
C28 C27 1_555 1_555
C29 C28 1_555 1_555
C30 C25 1_555 1_555
H17 C30 1_555 1_555
C31 C29 1_555 1_555
C32 N10 1_555 1_555
C33 C32 1_555 1_555
H18 C33 1_555 1_555
C34 C33 1_555 1_555
H19 C34 1_555 1_555
C35 N4 1_555 1_555
C36 C31 1_555 1_555
H20 C36 1_555 1_555
C37 N9 1_555 1_555
H21 C37 1_555 1_555
H22 C37 1_555 1_555
C38 C37 1_555 1_555
H23 C38 1_555 1_555
C39 C38 1_555 1_555
H24 C39 1_555 1_555
H25 C39 1_555 1_555
C40 C39 1_555 1_555
H26 C40 1_555 1_555
H27 C40 1_555 1_555
H28 C40 1_555 1_555
C41 C38 1_555 1_555
H29 C41 1_555 1_555
H30 C41 1_555 1_555
C42 C41 1_555 1_555
H31 C42 1_555 1_555
H32 C42 1_555 1_555
C43 C42 1_555 1_555
H33 C43 1_555 1_555
H34 C43 1_555 1_555
C44 C43 1_555 1_555
H35 C44 1_555 1_555
H36 C44 1_555 1_555
H37 C44 1_555 1_555
C45 N10 1_555 1_555
H38 C45 1_555 1_555
H39 C45 1_555 1_555
C46 C45 1_555 1_555
H40 C46 1_555 1_555
C47 C46 1_555 1_555
H41 C47 1_555 1_555
H42 C47 1_555 1_555
C48 C47 1_555 1_555
H43 C48 1_555 1_555
H44 C48 1_555 1_555
C49 C48 1_555 1_555
H45 C49 1_555 1_555
H46 C49 1_555 1_555
C50 C49 1_555 1_555
H47 C50 1_555 1_555
H48 C50 1_555 1_555
H49 C50 1_555 1_555
C51 C46 1_555 1_555
H50 C51 1_555 1_555
H51 C51 1_555 1_555
C52 C51 1_555 1_555
H52 C52 1_555 1_555
H53 C52 1_555 1_555
H54 C52 1_555 1_555
C4 C5 1_555 1_555
C5 C6 1_555 1_555
C11 C12 1_555 1_555
C13 C14 1_555 1_555
C16 C17 1_555 1_555
C17 C18 1_555 1_555
C22 C23 1_555 1_555
C23 C24 1_555 1_555
C29 C30 1_555 1_555
C31 C32 1_555 1_555
C34 C35 1_555 1_555
C35 C36 1_555 1_555

#END
