
#######################################################################
#
#                 Cambridge Crystallographic Data Centre
#                                CCDC 
#
#######################################################################
#
# If this CIF has been generated from an entry in the Cambridge 
# Structural Database, then it will include bibliographic, chemical, 
# crystal, experimental, refinement or atomic coordinate data resulting 
# from the CCDC's data processing and validation procedures.
#
#######################################################################

data_QAKHER
_chemical_formula_moiety         'C29 H29 N1 O3'
_chemical_name_systematic        
(E)-2-(2-t-Butyl-6-[2-(4-hydroxyphenyl)ethenyl]-1-propyl-1,4-dihydropyridin-4-ylidene)indane-1,3-dione
_symmetry_cell_setting           monoclinic
_symmetry_space_group_name_H-M   'P 21/c'
_symmetry_Int_Tables_number      14
_space_group_name_Hall           '-P 2ybc'
loop_
_symmetry_equiv_pos_site_id
_symmetry_equiv_pos_as_xyz
1 x,y,z
2 -x,1/2+y,1/2-z
3 -x,-y,-z
4 x,1/2-y,1/2+z
_cell_length_a                   9.1330(8)
_cell_length_b                   12.4857(12)
_cell_length_c                   20.440(2)
_cell_angle_alpha                90
_cell_angle_beta                 97.775(3)
_cell_angle_gamma                90
_cell_volume                     2309.38
_exptl_crystal_colour            orange
_exptl_crystal_description       block
_chemical_melting_point          '211 deg.C.(dec.)'
_cell_formula_units_Z            4
_exptl_crystal_recrystallization_method chloroform/ethanol
loop_
_atom_site_label
_atom_site_type_symbol
_atom_site_fract_x
_atom_site_fract_y
_atom_site_fract_z
O1 O -0.0695(2) 0.59992(15) -0.28744(9)
H1 H -0.1176 0.5587 -0.3149
O2 O 0.5781(2) 0.11427(16) -0.09052(9)
O3 O 0.78458(19) 0.03498(15) 0.12927(8)
N1 N 0.4052(2) 0.36029(17) 0.09620(10)
C1 C 0.3979(3) 0.3394(2) 0.02930(12)
C2 C 0.4809(3) 0.2590(2) 0.00776(12)
H2 H 0.4768 0.2474 -0.0384
C3 C 0.5722(3) 0.1927(2) 0.05153(12)
C4 C 0.5788(3) 0.2198(2) 0.11904(12)
H3 H 0.6430 0.1795 0.1502
C5 C 0.4981(3) 0.3010(2) 0.14242(12)
C6 C 0.3013(3) 0.4443(2) 0.11389(12)
H4 H 0.2879 0.4352 0.1608
H5 H 0.2039 0.4332 0.0870
C7 C 0.3518(3) 0.5595(2) 0.10358(13)
H6 H 0.4173 0.5838 0.1434
H7 H 0.4087 0.5618 0.0657
C8 C 0.2198(3) 0.6337(2) 0.09059(15)
H8 H 0.1540 0.6087 0.0517
H9 H 0.2537 0.7064 0.0826
H10 H 0.1662 0.6339 0.1290
C9 C 0.3034(3) 0.4045(2) -0.01866(12)
H11 H 0.2809 0.4756 -0.0068
C10 C 0.2472(3) 0.3688(2) -0.07848(13)
H12 H 0.2638 0.2954 -0.0874
C11 C 0.1628(3) 0.4304(2) -0.13161(12)
C12 C 0.1454(3) 0.5414(2) -0.12959(13)
H13 H 0.1889 0.5799 -0.0918
C13 C 0.0667(3) 0.5963(2) -0.18120(12)
H14 H 0.0554 0.6717 -0.1785
C14 C 0.0037(3) 0.5414(2) -0.23731(12)
C15 C 0.0185(3) 0.4315(2) -0.24032(13)
H15 H -0.0254 0.3933 -0.2782
C16 C 0.0974(3) 0.3770(2) -0.18809(12)
H16 H 0.1073 0.3015 -0.1907
C17 C 0.6529(3) 0.1067(2) 0.02824(12)
C18 C 0.6471(3) 0.0741(2) -0.04036(13)
C19 C 0.7476(3) -0.0205(2) -0.04171(13)
C20 C 0.7841(3) -0.0786(2) -0.09424(13)
H17 H 0.7412 -0.0628 -0.1381
C21 C 0.8859(3) -0.1616(2) -0.08116(14)
H18 H 0.9122 -0.2034 -0.1166
C22 C 0.9486(3) -0.1837(2) -0.01795(15)
H19 H 1.0183 -0.2403 -0.0103
C23 C 0.9122(3) -0.1248(2) 0.03534(14)
H20 H 0.9564 -0.1403 0.0791
C24 C 0.8103(3) -0.0435(2) 0.02303(13)
C25 C 0.7502(3) 0.0347(2) 0.06786(13)
C26 C 0.5070(3) 0.3201(2) 0.21726(12)
C27 C 0.6370(3) 0.2581(2) 0.25452(12)
H21 H 0.6237 0.1814 0.2456
H22 H 0.6413 0.2712 0.3020
H23 H 0.7293 0.2822 0.2398
C28 C 0.3691(3) 0.2742(2) 0.24283(13)
H24 H 0.2806 0.3096 0.2203
H25 H 0.3759 0.2867 0.2905
H26 H 0.3629 0.1970 0.2341
C29 C 0.5324(3) 0.4375(2) 0.23891(13)
H27 H 0.6095 0.4689 0.2159
H28 H 0.5635 0.4404 0.2867
H29 H 0.4404 0.4779 0.2279
loop_
_geom_bond_atom_site_label_1
_geom_bond_atom_site_label_2
_geom_bond_site_symmetry_1
_geom_bond_site_symmetry_2
O1 H1 1_555 1_555
O2 C18 1_555 1_555
O3 C25 1_555 1_555
N1 C1 1_555 1_555
C1 C2 1_555 1_555
C2 H2 1_555 1_555
C3 C2 1_555 1_555
C4 C3 1_555 1_555
H3 C4 1_555 1_555
C5 N1 1_555 1_555
C6 N1 1_555 1_555
H4 C6 1_555 1_555
H5 C6 1_555 1_555
C7 C6 1_555 1_555
H6 C7 1_555 1_555
H7 C7 1_555 1_555
C8 C7 1_555 1_555
H8 C8 1_555 1_555
H9 C8 1_555 1_555
H10 C8 1_555 1_555
C9 C1 1_555 1_555
H11 C9 1_555 1_555
C10 C9 1_555 1_555
H12 C10 1_555 1_555
C11 C10 1_555 1_555
C12 C11 1_555 1_555
H13 C12 1_555 1_555
C13 C12 1_555 1_555
H14 C13 1_555 1_555
C14 O1 1_555 1_555
C15 C14 1_555 1_555
H15 C15 1_555 1_555
C16 C11 1_555 1_555
H16 C16 1_555 1_555
C17 C3 1_555 1_555
C18 C17 1_555 1_555
C19 C18 1_555 1_555
C20 C19 1_555 1_555
H17 C20 1_555 1_555
C21 C20 1_555 1_555
H18 C21 1_555 1_555
C22 C21 1_555 1_555
H19 C22 1_555 1_555
C23 C22 1_555 1_555
H20 C23 1_555 1_555
C24 C19 1_555 1_555
C25 C17 1_555 1_555
C26 C5 1_555 1_555
C27 C26 1_555 1_555
H21 C27 1_555 1_555
H22 C27 1_555 1_555
H23 C27 1_555 1_555
C28 C26 1_555 1_555
H24 C28 1_555 1_555
H25 C28 1_555 1_555
H26 C28 1_555 1_555
C29 C26 1_555 1_555
H27 C29 1_555 1_555
H28 C29 1_555 1_555
H29 C29 1_555 1_555
C4 C5 1_555 1_555
C13 C14 1_555 1_555
C15 C16 1_555 1_555
C23 C24 1_555 1_555
C24 C25 1_555 1_555

#END
