
#######################################################################
#
#                 Cambridge Crystallographic Data Centre
#                                CCDC 
#
#######################################################################
#
# If this CIF has been generated from an entry in the Cambridge 
# Structural Database, then it will include bibliographic, chemical, 
# crystal, experimental, refinement or atomic coordinate data resulting 
# from the CCDC's data processing and validation procedures.
#
#######################################################################

data_QAKHES
_chemical_formula_moiety         'C11 H15 N4 O2'
_chemical_name_systematic        
4,4,5,5-tetramethyl-2-(pyrimidin-2-yl)-4,5-dihydro-1H-3-imidazole-1,3-dioxide
_symmetry_cell_setting           monoclinic
_symmetry_space_group_name_H-M   'P 21/c'
_symmetry_Int_Tables_number      14
_space_group_name_Hall           '-P 2ybc'
loop_
_symmetry_equiv_pos_site_id
_symmetry_equiv_pos_as_xyz
1 x,y,z
2 -x,1/2+y,1/2-z
3 -x,-y,-z
4 x,1/2-y,1/2+z
_cell_length_a                   6.211(3)
_cell_length_b                   40.769(17)
_cell_length_c                   9.646(4)
_cell_angle_alpha                90
_cell_angle_beta                 96.104(7)
_cell_angle_gamma                90
_cell_volume                     2428.68
_exptl_crystal_colour            purple
_exptl_crystal_description       block
_cell_formula_units_Z            8
loop_
_atom_site_label
_atom_site_type_symbol
_atom_site_fract_x
_atom_site_fract_y
_atom_site_fract_z
O1 O 0.7012(4) 0.23174(6) 0.2209(3)
O2 O 0.3143(4) 0.13534(6) 0.1730(2)
N1 N 0.1387(4) 0.20310(7) 0.0544(3)
N2 N 0.4538(5) 0.20711(7) -0.0645(3)
N3 N 0.6408(4) 0.20236(6) 0.2423(3)
N4 N 0.4524(4) 0.15682(7) 0.2217(3)
C1 C 0.0226(6) 0.21542(9) -0.0576(4)
H1 H -0.1257 0.2181 -0.0553
C2 C 0.1112(6) 0.22423(9) -0.1753(4)
H2 H 0.0275 0.2329 -0.2523
C3 C 0.3300(7) 0.21971(9) -0.1747(4)
H3 H 0.3954 0.2256 -0.2534
C4 C 0.3480(5) 0.19992(7) 0.0435(3)
C5 C 0.4788(5) 0.18652(8) 0.1677(3)
C6 C 0.7173(5) 0.18376(8) 0.3738(3)
C7 C 0.6282(5) 0.14899(8) 0.3362(3)
C8 C 0.9627(6) 0.18569(9) 0.4011(4)
H4 H 1.0260 0.1785 0.3197
H5 H 1.0117 0.1718 0.4785
H6 H 1.0052 0.2079 0.4222
C9 C 0.6113(6) 0.20028(9) 0.4905(4)
H7 H 0.6572 0.2228 0.4984
H8 H 0.6530 0.1891 0.5768
H9 H 0.4567 0.1994 0.4700
C10 C 0.7866(6) 0.12686(9) 0.2688(4)
H10 H 0.7125 0.1075 0.2328
H11 H 0.9033 0.1207 0.3372
H12 H 0.8433 0.1384 0.1940
C11 C 0.5311(7) 0.13089(9) 0.4526(4)
H13 H 0.4204 0.1442 0.4867
H14 H 0.6423 0.1265 0.5272
H15 H 0.4691 0.1106 0.4175
O3 O 1.0671(4) 0.10703(6) -0.4196(2)
O4 O 0.8633(4) 0.01934(6) -0.1616(2)
N5 N 0.5799(4) 0.05014(7) -0.4326(3)
N6 N 0.8909(4) 0.03780(7) -0.5481(3)
N7 N 1.0538(4) 0.08758(7) -0.3170(3)
N8 N 0.9531(4) 0.04625(7) -0.1931(3)
C12 C 0.4540(6) 0.04010(8) -0.5454(4)
H16 H 0.3044 0.0410 -0.5451
C13 C 0.5382(6) 0.02846(8) -0.6619(4)
H17 H 0.4485 0.0215 -0.7396
C14 C 0.7583(6) 0.02755(9) -0.6594(4)
H18 H 0.8187 0.0196 -0.7369
C15 C 0.7919(5) 0.04847(7) -0.4419(3)
C16 C 0.9323(5) 0.06032(8) -0.3189(3)
C17 C 1.1421(5) 0.09689(8) -0.1703(3)
C18 C 1.1214(5) 0.06337(8) -0.0940(3)
C19 C 1.3710(6) 0.10976(9) -0.1717(4)
H19 H 1.4566 0.0939 -0.2148
H20 H 1.4334 0.1136 -0.0777
H21 H 1.3679 0.1299 -0.2234
C20 C 0.9920(6) 0.12374(9) -0.1264(4)
H22 H 0.9910 0.1418 -0.1904
H23 H 1.0427 0.1312 -0.0342
H24 H 0.8480 0.1152 -0.1269
C21 C 1.0411(7) 0.06551(9) 0.0488(3)
H25 H 0.9000 0.0754 0.0405
H26 H 1.1394 0.0786 0.1092
H27 H 1.0331 0.0439 0.0873
C22 C 1.3234(6) 0.04209(9) -0.0858(4)
H28 H 1.2904 0.0206 -0.0530
H29 H 1.4351 0.0518 -0.0225
H30 H 1.3722 0.0404 -0.1767
loop_
_geom_bond_atom_site_label_1
_geom_bond_atom_site_label_2
_geom_bond_site_symmetry_1
_geom_bond_site_symmetry_2
O1 N3 1_555 1_555
O2 N4 1_555 1_555
N1 C1 1_555 1_555
N2 C3 1_555 1_555
N3 C5 1_555 1_555
N4 C5 1_555 1_555
C1 H1 1_555 1_555
C2 C1 1_555 1_555
H2 C2 1_555 1_555
C3 C2 1_555 1_555
H3 C3 1_555 1_555
C4 N1 1_555 1_555
C5 C4 1_555 1_555
C6 N3 1_555 1_555
C7 N4 1_555 1_555
C8 C6 1_555 1_555
H4 C8 1_555 1_555
H5 C8 1_555 1_555
H6 C8 1_555 1_555
C9 C6 1_555 1_555
H7 C9 1_555 1_555
H8 C9 1_555 1_555
H9 C9 1_555 1_555
C10 C7 1_555 1_555
H10 C10 1_555 1_555
H11 C10 1_555 1_555
H12 C10 1_555 1_555
C11 C7 1_555 1_555
H13 C11 1_555 1_555
H14 C11 1_555 1_555
H15 C11 1_555 1_555
O3 N7 1_555 1_555
O4 N8 1_555 1_555
N5 C12 1_555 1_555
N6 C14 1_555 1_555
N7 C16 1_555 1_555
N8 C16 1_555 1_555
C12 H16 1_555 1_555
C13 C12 1_555 1_555
H17 C13 1_555 1_555
C14 C13 1_555 1_555
H18 C14 1_555 1_555
C15 N5 1_555 1_555
C16 C15 1_555 1_555
C17 N7 1_555 1_555
C18 N8 1_555 1_555
C19 C17 1_555 1_555
H19 C19 1_555 1_555
H20 C19 1_555 1_555
H21 C19 1_555 1_555
C20 C17 1_555 1_555
H22 C20 1_555 1_555
H23 C20 1_555 1_555
H24 C20 1_555 1_555
C21 C18 1_555 1_555
H25 C21 1_555 1_555
H26 C21 1_555 1_555
H27 C21 1_555 1_555
C22 C18 1_555 1_555
H28 C22 1_555 1_555
H29 C22 1_555 1_555
H30 C22 1_555 1_555
N2 C4 1_555 1_555
C6 C7 1_555 1_555
N6 C15 1_555 1_555
C17 C18 1_555 1_555

#END
