
#######################################################################
#
#                 Cambridge Crystallographic Data Centre
#                                CCDC 
#
#######################################################################
#
# If this CIF has been generated from an entry in the Cambridge 
# Structural Database, then it will include bibliographic, chemical, 
# crystal, experimental, refinement or atomic coordinate data resulting 
# from the CCDC's data processing and validation procedures.
#
#######################################################################

data_QAKMAT
_chemical_formula_moiety         'C17 H18 N1 1+,H2 O1,Br1 1-'
_chemical_name_systematic        
'5-isobutylphenanthridinium bromide monohydrate'
_symmetry_cell_setting           orthorhombic
_symmetry_space_group_name_H-M   'P 21 21 21'
_symmetry_Int_Tables_number      19
_space_group_name_Hall           'P 2ac 2ab'
loop_
_symmetry_equiv_pos_site_id
_symmetry_equiv_pos_as_xyz
1 x,y,z
2 1/2+x,1/2-y,-z
3 -x,1/2+y,1/2-z
4 1/2-x,-y,1/2+z
_cell_length_a                   7.4548(3)
_cell_length_b                   10.8630(5)
_cell_length_c                   19.6508(9)
_cell_angle_alpha                90
_cell_angle_beta                 90
_cell_angle_gamma                90
_cell_volume                     1591.35
_exptl_crystal_colour            colorless
_cell_formula_units_Z            4
loop_
_atom_site_label
_atom_site_type_symbol
_atom_site_fract_x
_atom_site_fract_y
_atom_site_fract_z
Br1 Br 0.55615(6) 0.53038(4) 0.22121(3)
O1 O 0.9967(6) 0.2573(3) 0.84801(19)
H1 H 0.9721 0.3045 0.8118
H2 H 1.0272 0.1802 0.8357
N1 N 0.8210(4) 0.8138(3) 0.12555(16)
C1 C 0.8772(6) 0.6030(5) -0.0988(3)
H3 H 0.8890 0.5809 -0.1443
C2 C 0.8803(6) 0.7242(4) -0.0818(2)
H4 H 0.8946 0.7837 -0.1153
C3 C 0.8616(5) 0.7595(4) -0.0130(2)
C4 C 0.8607(5) 0.8868(4) 0.0099(2)
C5 C 0.8391(6) 0.9118(4) 0.0798(2)
C6 C 0.8001(5) 0.8360(4) 0.2000(2)
H5 H 0.7377 0.7668 0.2203
H6 H 0.7269 0.9088 0.2069
C7 C 0.9790(6) 0.8536(3) 0.2361(2)
H7 H 1.0455 0.9204 0.2141
C8 C 1.0905(6) 0.7360(4) 0.2335(3)
H8 H 1.1961 0.7460 0.2609
H9 H 1.1249 0.7195 0.1873
H10 H 1.0209 0.6685 0.2506
C9 C 0.9408(8) 0.8883(4) 0.3099(2)
H11 H 0.8798 0.8216 0.3320
H12 H 0.8668 0.9605 0.3111
H13 H 1.0518 0.9045 0.3329
C10 C 0.8422(5) 0.6661(4) 0.0353(2)
C11 C 0.8396(6) 0.5415(4) 0.0162(2)
H14 H 0.8260 0.4804 0.0489
C12 C 0.8570(7) 0.5112(4) -0.0503(3)
H15 H 0.8555 0.4290 -0.0634
C13 C 0.8220(5) 0.6989(3) 0.1044(2)
H16 H 0.8088 0.6365 0.1364
C14 C 0.8748(6) 0.9862(4) -0.0345(3)
H17 H 0.8885 0.9722 -0.0809
C15 C 0.8686(8) 1.1042(4) -0.0105(3)
H18 H 0.8794 1.1697 -0.0407
C16 C 0.8468(9) 1.1271(4) 0.0576(3)
H19 H 0.8410 1.2080 0.0730
C17 C 0.8336(6) 1.0335(4) 0.1027(2)
H20 H 0.8209 1.0501 0.1489
loop_
_geom_bond_atom_site_label_1
_geom_bond_atom_site_label_2
_geom_bond_site_symmetry_1
_geom_bond_site_symmetry_2
O1 H1 1_555 1_555
H2 O1 1_555 1_555
N1 C5 1_555 1_555
C1 H3 1_555 1_555
C2 C1 1_555 1_555
H4 C2 1_555 1_555
C3 C2 1_555 1_555
C4 C3 1_555 1_555
C5 C4 1_555 1_555
C6 N1 1_555 1_555
H5 C6 1_555 1_555
H6 C6 1_555 1_555
C7 C6 1_555 1_555
H7 C7 1_555 1_555
C8 C7 1_555 1_555
H8 C8 1_555 1_555
H9 C8 1_555 1_555
H10 C8 1_555 1_555
C9 C7 1_555 1_555
H11 C9 1_555 1_555
H12 C9 1_555 1_555
H13 C9 1_555 1_555
C10 C3 1_555 1_555
C11 C10 1_555 1_555
H14 C11 1_555 1_555
C12 C1 1_555 1_555
H15 C12 1_555 1_555
C13 N1 1_555 1_555
H16 C13 1_555 1_555
C14 C4 1_555 1_555
H17 C14 1_555 1_555
C15 C14 1_555 1_555
H18 C15 1_555 1_555
C16 C15 1_555 1_555
H19 C16 1_555 1_555
C17 C5 1_555 1_555
H20 C17 1_555 1_555
C10 C13 1_555 1_555
C11 C12 1_555 1_555
C16 C17 1_555 1_555

#END
