
#######################################################################
#
#                 Cambridge Crystallographic Data Centre
#                                CCDC 
#
#######################################################################
#
# If this CIF has been generated from an entry in the Cambridge 
# Structural Database, then it will include bibliographic, chemical, 
# crystal, experimental, refinement or atomic coordinate data resulting 
# from the CCDC's data processing and validation procedures.
#
#######################################################################

data_QAKQOK
_chemical_formula_moiety         'C10 H9 N3 O3'
_chemical_name_systematic        
'3-(3-(Pyridin-3-yl)-1,2,4-oxadiazol-5-yl)propanoic acid'
_symmetry_cell_setting           orthorhombic
_symmetry_space_group_name_H-M   'P n a 21'
_symmetry_Int_Tables_number      33
_space_group_name_Hall           'P 2c -2n'
loop_
_symmetry_equiv_pos_site_id
_symmetry_equiv_pos_as_xyz
1 x,y,z
2 -x,-y,1/2+z
3 1/2-x,1/2+y,1/2+z
4 1/2+x,1/2-y,z
_cell_length_a                   6.1298(12)
_cell_length_b                   6.8194(14)
_cell_length_c                   23.426(5)
_cell_angle_alpha                90
_cell_angle_beta                 90
_cell_angle_gamma                90
_cell_volume                     979.243
_exptl_crystal_colour            colorless
_exptl_crystal_description       block
_cell_formula_units_Z            4
loop_
_atom_site_label
_atom_site_type_symbol
_atom_site_fract_x
_atom_site_fract_y
_atom_site_fract_z
O1 O 0.8809(3) 0.4377(3) 0.16313(7)
O2 O 0.4239(4) 0.4072(4) 0.33554(8)
H1 H 0.3237 0.4277 0.3579
O3 O 0.2140(4) 0.5819(3) 0.27757(9)
N1 N 0.8817(4) 0.5436(3) -0.08242(9)
C1 C 0.8297(5) 0.5499(4) -0.02742(11)
H2 H 0.6895 0.5885 -0.0173
N2 N 0.6960(4) 0.5622(3) 0.09157(9)
N3 N 1.0181(4) 0.4195(3) 0.11489(9)
C2 C 0.9757(4) 0.5012(4) 0.01552(11)
C3 C 0.8992(4) 0.4978(3) 0.07499(10)
C4 C 0.3807(5) 0.4921(4) 0.28656(12)
C5 C 0.5595(4) 0.4565(4) 0.24436(11)
H3 H 0.5711 0.3167 0.2373
H4 H 0.6967 0.5002 0.2606
C6 C 0.5225(5) 0.5608(4) 0.18853(10)
H5 H 0.3826 0.5204 0.1731
H6 H 0.5153 0.7008 0.1956
C7 C 1.2425(5) 0.4437(4) -0.05639(12)
H7 H 1.3826 0.4088 -0.0677
C8 C 1.1881(4) 0.4503(4) 0.00047(12)
H8 H 1.2912 0.4214 0.0284
C9 C 0.6937(4) 0.5226(3) 0.14541(10)
C10 C 1.0850(5) 0.4898(4) -0.09637(13)
H9 H 1.1220 0.4832 -0.1348
loop_
_geom_bond_atom_site_label_1
_geom_bond_atom_site_label_2
_geom_bond_site_symmetry_1
_geom_bond_site_symmetry_2
O1 N3 1_555 1_555
O2 H1 1_555 1_555
O3 C4 1_555 1_555
N1 C1 1_555 1_555
C1 H2 1_555 1_555
N2 C3 1_555 1_555
N3 C3 1_555 1_555
C2 C1 1_555 1_555
C3 C2 1_555 1_555
C4 O2 1_555 1_555
C5 C4 1_555 1_555
H3 C5 1_555 1_555
H4 C5 1_555 1_555
C6 C5 1_555 1_555
H5 C6 1_555 1_555
H6 C6 1_555 1_555
C7 H7 1_555 1_555
C8 C2 1_555 1_555
H8 C8 1_555 1_555
C9 O1 1_555 1_555
C10 N1 1_555 1_555
H9 C10 1_555 1_555
N2 C9 1_555 1_555
C6 C9 1_555 1_555
C7 C8 1_555 1_555
C7 C10 1_555 1_555

#END
