
#######################################################################
#
#                 Cambridge Crystallographic Data Centre
#                                CCDC 
#
#######################################################################
#
# If this CIF has been generated from an entry in the Cambridge 
# Structural Database, then it will include bibliographic, chemical, 
# crystal, experimental, refinement or atomic coordinate data resulting 
# from the CCDC's data processing and validation procedures.
#
#######################################################################

data_QAKQUQ
_chemical_name_common            
N-((Diisopropoxyphosphoryl)(phenyl)methyl)isoleucinamide
_chemical_formula_moiety         'C19 H33 N2 O4 P1'
_chemical_name_systematic        
Diisopropyl([(2S,3S)-2-amino-3-methylpentanamido](phenyl)methyl)phosphonate
_symmetry_cell_setting           monoclinic
_symmetry_space_group_name_H-M   'P 21'
_symmetry_Int_Tables_number      4
_space_group_name_Hall           'P 2yb'
loop_
_symmetry_equiv_pos_site_id
_symmetry_equiv_pos_as_xyz
1 x,y,z
2 -x,1/2+y,-z
_cell_length_a                   9.3455(3)
_cell_length_b                   23.6079(6)
_cell_length_c                   10.0517(4)
_cell_angle_alpha                90
_cell_angle_beta                 103.819(4)
_cell_angle_gamma                90
_cell_volume                     2153.49
_exptl_crystal_colour            colorless
_exptl_crystal_description       block
_cell_formula_units_Z            4
loop_
_atom_site_label
_atom_site_type_symbol
_atom_site_fract_x
_atom_site_fract_y
_atom_site_fract_z
P1 P 0.54488(9) 0.12742(4) 0.41034(10)
O1 O 0.5955(2) 0.07253(9) 0.3476(3)
O2 O 0.5256(2) 0.12060(9) 0.5501(2)
N1 N 0.3215(3) 0.20195(10) 0.3342(3)
H1 H 0.2822 0.2011 0.4033
O3 O 0.6659(2) 0.17261(9) 0.4084(2)
O4 O 0.3933(3) 0.25766(9) 0.1783(3)
C1 C 0.3786(3) 0.14968(12) 0.2894(4)
H2 H 0.4048 0.1578 0.2026
C2 C 0.2625(4) 0.10308(13) 0.2619(4)
C3 C 0.2534(4) 0.30147(13) 0.3222(4)
H3 H 0.1866 0.2859 0.3748
C4 C 0.1619(3) 0.33578(13) 0.2048(4)
H4 H 0.2298 0.3545 0.1581
C5 C 0.3288(4) 0.25194(15) 0.2697(4)
C6 C 0.5785(4) 0.01592(14) 0.3957(5)
H5 H 0.5159 0.0171 0.4612
C7 C 0.2107(4) 0.08209(15) 0.1318(5)
H6 H 0.2456 0.0966 0.0595
N2 N 0.3607(3) 0.33692(12) 0.4136(4)
H7 H 0.3655 0.3725 0.3969
H8 H 0.4194 0.3223 0.4844
C8 C 0.0744(4) 0.38135(14) 0.2554(4)
H9 H 0.1355 0.3985 0.3372
H10 H -0.0098 0.3641 0.2804
C9 C 0.0196(4) 0.42788(15) 0.1484(5)
H11 H -0.0365 0.4553 0.1851
H12 H -0.0414 0.4113 0.0673
H13 H 0.1025 0.4462 0.1260
C10 C 0.7184(4) 0.19043(14) 0.2890(4)
H14 H 0.6411 0.1839 0.2055
C11 C 0.0620(4) 0.29675(15) 0.1011(4)
H15 H 0.1211 0.2692 0.0687
H16 H 0.0081 0.3188 0.0253
H17 H -0.0058 0.2778 0.1443
C12 C 0.2073(4) 0.08177(15) 0.3678(4)
H18 H 0.2390 0.0966 0.4557
C13 C 0.0566(4) 0.01705(18) 0.2126(6)
H19 H -0.0106 -0.0127 0.1958
C14 C 0.7231(5) -0.00693(16) 0.4637(6)
H20 H 0.7652 0.0155 0.5430
H21 H 0.7867 -0.0060 0.4015
H22 H 0.7123 -0.0453 0.4911
C15 C 0.5065(5) -0.02030(18) 0.2762(6)
H23 H 0.4094 -0.0061 0.2366
H24 H 0.4999 -0.0586 0.3065
H25 H 0.5641 -0.0194 0.2089
C16 C 0.7503(4) 0.25248(15) 0.3056(5)
H26 H 0.6606 0.2727 0.3031
H27 H 0.7920 0.2655 0.2325
H28 H 0.8189 0.2591 0.3918
C17 C 0.1044(4) 0.03818(17) 0.3426(5)
H29 H 0.0680 0.0234 0.4137
C18 C 0.1072(5) 0.03950(19) 0.1086(5)
H30 H 0.0715 0.0259 0.0200
C19 C 0.8524(4) 0.15616(16) 0.2835(5)
H31 H 0.8254 0.1170 0.2686
H32 H 0.9249 0.1600 0.3685
H33 H 0.8925 0.1696 0.2098
P2 P 0.76424(10) 0.71698(4) 0.26570(11)
O5 O 0.8151(2) 0.77426(9) 0.2128(3)
O6 O 0.7782(2) 0.71540(10) 0.4143(2)
O7 O 0.8531(2) 0.67185(9) 0.2055(3)
N3 N 0.5259(3) 0.64986(10) 0.1920(3)
H34 H 0.5203 0.6421 0.2742
C20 C 0.5793(3) 0.70512(12) 0.1630(4)
H35 H 0.5834 0.7056 0.0665
C21 C 0.4849(4) 0.61045(15) 0.0934(4)
O8 O 0.4953(3) 0.61820(11) -0.0246(3)
C22 C 0.4764(3) 0.75257(14) 0.1842(4)
C23 C 0.8065(4) 0.82932(15) 0.2768(4)
H36 H 0.7221 0.8299 0.3189
C24 C 0.5447(4) 0.50929(14) 0.1574(4)
H37 H 0.5721 0.5035 0.0702
C25 C 0.4235(4) 0.75559(14) 0.3020(4)
H38 H 0.4504 0.7280 0.3694
C26 C 0.4246(4) 0.55510(14) 0.1336(4)
H39 H 0.3939 0.5609 0.2193
C27 C 0.3435(4) 0.83763(18) 0.1064(5)
H40 H 0.3152 0.8653 0.0394
N4 N 0.2973(3) 0.53769(12) 0.0285(4)
H41 H 0.2672 0.5582 -0.0435
H42 H 0.2519 0.5068 0.0380
C28 C 0.4878(5) 0.45359(15) 0.1966(5)
H43 H 0.4002 0.4435 0.1272
H44 H 0.4588 0.4586 0.2822
C29 C 0.3322(4) 0.79868(15) 0.3199(4)
H45 H 0.2963 0.7999 0.3986
C30 C 0.4373(4) 0.79381(15) 0.0870(4)
H46 H 0.4729 0.7928 0.0081
C31 C 1.0836(4) 0.67632(19) 0.1413(5)
H47 H 1.0643 0.7143 0.1077
H48 H 1.0433 0.6500 0.0694
H49 H 1.1881 0.6706 0.1715
C32 C 0.2934(4) 0.83991(17) 0.2233(5)
H50 H 0.2329 0.8696 0.2368
C33 C 1.0145(4) 0.66720(16) 0.2576(4)
H51 H 1.0494 0.6959 0.3284
C34 C 0.5957(5) 0.40500(16) 0.2128(6)
H52 H 0.5496 0.3711 0.2348
H53 H 0.6805 0.4134 0.2851
H54 H 0.6256 0.3996 0.1287
C35 C 0.9436(4) 0.83977(18) 0.3822(4)
H55 H 0.9513 0.8130 0.4554
H56 H 0.9421 0.8775 0.4174
H57 H 1.0267 0.8356 0.3423
C36 C 1.0489(4) 0.60907(16) 0.3168(5)
H58 H 1.0076 0.6047 0.3950
H59 H 1.1538 0.6041 0.3442
H60 H 1.0072 0.5812 0.2490
C37 C 0.7826(5) 0.87172(15) 0.1608(5)
H61 H 0.6898 0.8644 0.0978
H62 H 0.8605 0.8684 0.1141
H63 H 0.7823 0.9093 0.1971
C38 C 0.6813(4) 0.52743(15) 0.2605(5)
H64 H 0.7552 0.4985 0.2690
H65 H 0.6585 0.5333 0.3476
H66 H 0.7177 0.5620 0.2306
loop_
_geom_bond_atom_site_label_1
_geom_bond_atom_site_label_2
_geom_bond_site_symmetry_1
_geom_bond_site_symmetry_2
P1 O1 1_555 1_555
O1 C6 1_555 1_555
O2 P1 1_555 1_555
N1 H1 1_555 1_555
O3 P1 1_555 1_555
O4 C5 1_555 1_555
C1 P1 1_555 1_555
H2 C1 1_555 1_555
C2 C1 1_555 1_555
C3 H3 1_555 1_555
C4 C3 1_555 1_555
H4 C4 1_555 1_555
C5 N1 1_555 1_555
C6 H5 1_555 1_555
C7 C2 1_555 1_555
H6 C7 1_555 1_555
N2 C3 1_555 1_555
H7 N2 1_555 1_555
H8 N2 1_555 1_555
C8 C4 1_555 1_555
H9 C8 1_555 1_555
H10 C8 1_555 1_555
C9 C8 1_555 1_555
H11 C9 1_555 1_555
H12 C9 1_555 1_555
H13 C9 1_555 1_555
C10 O3 1_555 1_555
H14 C10 1_555 1_555
C11 C4 1_555 1_555
H15 C11 1_555 1_555
H16 C11 1_555 1_555
H17 C11 1_555 1_555
C12 C2 1_555 1_555
H18 C12 1_555 1_555
C13 H19 1_555 1_555
C14 C6 1_555 1_555
H20 C14 1_555 1_555
H21 C14 1_555 1_555
H22 C14 1_555 1_555
C15 C6 1_555 1_555
H23 C15 1_555 1_555
H24 C15 1_555 1_555
H25 C15 1_555 1_555
C16 C10 1_555 1_555
H26 C16 1_555 1_555
H27 C16 1_555 1_555
H28 C16 1_555 1_555
C17 C12 1_555 1_555
H29 C17 1_555 1_555
C18 C7 1_555 1_555
H30 C18 1_555 1_555
C19 C10 1_555 1_555
H31 C19 1_555 1_555
H32 C19 1_555 1_555
H33 C19 1_555 1_555
P2 O5 1_555 1_555
O5 C23 1_555 1_555
O6 P2 1_555 1_555
O7 P2 1_555 1_555
N3 H34 1_555 1_555
C20 P2 1_555 1_555
H35 C20 1_555 1_555
C21 N3 1_555 1_555
O8 C21 1_555 1_555
C22 C20 1_555 1_555
C23 H36 1_555 1_555
C24 H37 1_555 1_555
C25 C22 1_555 1_555
H38 C25 1_555 1_555
C26 C21 1_555 1_555
H39 C26 1_555 1_555
C27 H40 1_555 1_555
N4 C26 1_555 1_555
H41 N4 1_555 1_555
H42 N4 1_555 1_555
C28 C24 1_555 1_555
H43 C28 1_555 1_555
H44 C28 1_555 1_555
C29 C25 1_555 1_555
H45 C29 1_555 1_555
C30 C22 1_555 1_555
H46 C30 1_555 1_555
C31 H47 1_555 1_555
H48 C31 1_555 1_555
H49 C31 1_555 1_555
C32 C27 1_555 1_555
H50 C32 1_555 1_555
C33 O7 1_555 1_555
H51 C33 1_555 1_555
C34 C28 1_555 1_555
H52 C34 1_555 1_555
H53 C34 1_555 1_555
H54 C34 1_555 1_555
C35 C23 1_555 1_555
H55 C35 1_555 1_555
H56 C35 1_555 1_555
H57 C35 1_555 1_555
C36 C33 1_555 1_555
H58 C36 1_555 1_555
H59 C36 1_555 1_555
H60 C36 1_555 1_555
C37 C23 1_555 1_555
H61 C37 1_555 1_555
H62 C37 1_555 1_555
H63 C37 1_555 1_555
C38 C24 1_555 1_555
H64 C38 1_555 1_555
H65 C38 1_555 1_555
H66 C38 1_555 1_555
N1 C1 1_555 1_555
C3 C5 1_555 1_555
C13 C17 1_555 1_555
C13 C18 1_555 1_555
N3 C20 1_555 1_555
C24 C26 1_555 1_555
C27 C30 1_555 1_555
C29 C32 1_555 1_555
C31 C33 1_555 1_555

#END
