
#######################################################################
#
#                 Cambridge Crystallographic Data Centre
#                                CCDC 
#
#######################################################################
#
# If this CIF has been generated from an entry in the Cambridge 
# Structural Database, then it will include bibliographic, chemical, 
# crystal, experimental, refinement or atomic coordinate data resulting 
# from the CCDC's data processing and validation procedures.
#
#######################################################################

data_QAKQIE
_chemical_name_common            
'N-(2-(2-Chlorophenyl)-2-hydroxyethyl)propan-2-aminium 4-hydroxybenzoate'
_chemical_formula_moiety         'C11 H17 Cl1 N1 O1 1+,C7 H5 O3 1-'
_chemical_name_systematic        
'[2-(2-Chlorophenyl)-2-hydroxyethyl](isopropyl)ammonium 4-hydroxybenzoate'
_symmetry_cell_setting           monoclinic
_symmetry_space_group_name_H-M   'P 21/n'
_symmetry_Int_Tables_number      14
_space_group_name_Hall           '-P 2yn'
loop_
_symmetry_equiv_pos_site_id
_symmetry_equiv_pos_as_xyz
1 x,y,z
2 1/2-x,1/2+y,1/2-z
3 -x,-y,-z
4 1/2+x,1/2-y,1/2+z
_cell_length_a                   9.4033(4)
_cell_length_b                   12.2591(4)
_cell_length_c                   15.9290(7)
_cell_angle_alpha                90
_cell_angle_beta                 96.1440(10)
_cell_angle_gamma                90
_cell_volume                     1825.68
_exptl_crystal_colour            colorless
_exptl_crystal_description       chunk
_cell_formula_units_Z            4
loop_
_atom_site_label
_atom_site_type_symbol
_atom_site_fract_x
_atom_site_fract_y
_atom_site_fract_z
Cl1 Cl 0.62065(7) 0.20187(5) 0.20512(3)
O1 O 0.64832(15) 0.37003(10) 0.44750(9)
H1 H 0.6332 0.4338 0.4338
N1 N 0.34605(15) 0.35386(10) 0.41842(9)
H2 H 0.3652 0.4102 0.3852
H3 H 0.3687 0.3748 0.4723
C1 C 0.68166(18) 0.20139(13) 0.37627(11)
C2 C 0.58728(18) 0.30067(13) 0.38234(11)
H4 H 0.5787 0.3401 0.3285
C3 C 0.44059(18) 0.26082(12) 0.40065(11)
H5 H 0.3967 0.2201 0.3525
H6 H 0.4511 0.2122 0.4489
C4 C 0.7039(2) 0.15117(15) 0.30082(12)
C5 C 0.7444(2) 0.15316(15) 0.45040(13)
H7 H 0.7312 0.1846 0.5021
C6 C 0.18745(19) 0.33141(15) 0.40517(12)
H8 H 0.1636 0.3057 0.3471
C7 C 0.8256(2) 0.05966(16) 0.44857(16)
H9 H 0.8649 0.0280 0.4988
C8 C 0.7882(2) 0.05865(17) 0.29803(16)
H10 H 0.8036 0.0276 0.2465
C9 C 0.8488(2) 0.01326(17) 0.37280(18)
H11 H 0.9053 -0.0489 0.3718
C10 C 0.1482(2) 0.2436(2) 0.46424(17)
H12 H 0.2010 0.1784 0.4549
H13 H 0.0476 0.2288 0.4540
H14 H 0.1709 0.2673 0.5215
C11 C 0.1090(3) 0.4372(2) 0.4154(2)
H15 H 0.1381 0.4901 0.3761
H16 H 0.1313 0.4639 0.4719
H17 H 0.0079 0.4251 0.4046
O2 O 0.41212(13) 0.41383(9) 0.58832(8)
O3 O 0.59219(14) 0.46948(9) 0.67954(8)
O4 O 0.72015(17) -0.03918(9) 0.68325(9)
H18 H 0.7879 -0.0416 0.7202
C12 C 0.7690(2) 0.15336(13) 0.68657(10)
H19 H 0.8653 0.1407 0.7036
C13 C 0.57588(18) 0.28014(12) 0.64942(10)
C14 C 0.52260(19) 0.39509(12) 0.63789(10)
C15 C 0.71869(19) 0.25922(13) 0.67590(10)
H20 H 0.7817 0.3172 0.6867
C16 C 0.6755(2) 0.06630(13) 0.67183(11)
C17 C 0.4843(2) 0.19169(14) 0.63267(12)
H21 H 0.3886 0.2039 0.6138
C18 C 0.5339(2) 0.08564(14) 0.64370(13)
H22 H 0.4715 0.0274 0.6321
loop_
_geom_bond_atom_site_label_1
_geom_bond_atom_site_label_2
_geom_bond_site_symmetry_1
_geom_bond_site_symmetry_2
Cl1 C4 1_555 1_555
O1 H1 1_555 1_555
N1 H2 1_555 1_555
H3 N1 1_555 1_555
C1 C2 1_555 1_555
C2 O1 1_555 1_555
H4 C2 1_555 1_555
C3 N1 1_555 1_555
H5 C3 1_555 1_555
H6 C3 1_555 1_555
C4 C1 1_555 1_555
C5 C1 1_555 1_555
H7 C5 1_555 1_555
C6 N1 1_555 1_555
H8 C6 1_555 1_555
C7 C5 1_555 1_555
H9 C7 1_555 1_555
C8 C4 1_555 1_555
H10 C8 1_555 1_555
C9 C7 1_555 1_555
H11 C9 1_555 1_555
C10 C6 1_555 1_555
H12 C10 1_555 1_555
H13 C10 1_555 1_555
H14 C10 1_555 1_555
C11 C6 1_555 1_555
H15 C11 1_555 1_555
H16 C11 1_555 1_555
H17 C11 1_555 1_555
O2 C14 1_555 1_555
O3 C14 1_555 1_555
O4 H18 1_555 1_555
C12 H19 1_555 1_555
C13 C14 1_555 1_555
C15 C12 1_555 1_555
H20 C15 1_555 1_555
C16 O4 1_555 1_555
C17 C13 1_555 1_555
H21 C17 1_555 1_555
C18 C16 1_555 1_555
H22 C18 1_555 1_555
C2 C3 1_555 1_555
C8 C9 1_555 1_555
C12 C16 1_555 1_555
C13 C15 1_555 1_555
C17 C18 1_555 1_555

#END
