
#######################################################################
#
#                 Cambridge Crystallographic Data Centre
#                                CCDC 
#
#######################################################################
#
# If this CIF has been generated from an entry in the Cambridge 
# Structural Database, then it will include bibliographic, chemical, 
# crystal, experimental, refinement or atomic coordinate data resulting 
# from the CCDC's data processing and validation procedures.
#
#######################################################################

data_QAKSEC
_chemical_name_common            
'bis(2-(2-[2-(benzylcarbamoyl)phenoxy]acetamido)ethyl)ammonium nitrate ethanol solvate'
_chemical_formula_moiety         'C36 H40 N5 O6 1+,2(C2 H6 O1),N1 O3 1-'
_chemical_name_systematic        
'2-(((2-(Benzylcarbamoyl)phenoxy)acetyl)amino)-N-(2-(((2-(benzylcarbamoyl)phenoxy)acetyl)amino)ethyl)ethanaminium nitrate ethanol solvate'
_symmetry_cell_setting           monoclinic
_symmetry_space_group_name_H-M   'C 2'
_symmetry_Int_Tables_number      5
_space_group_name_Hall           'C 2y'
loop_
_symmetry_equiv_pos_site_id
_symmetry_equiv_pos_as_xyz
1 x,y,z
2 -x,y,-z
3 1/2+x,1/2+y,z
4 1/2-x,1/2+y,-z
_cell_length_a                   16.978(3)
_cell_length_b                   11.405(2)
_cell_length_c                   11.164(2)
_cell_angle_alpha                90
_cell_angle_beta                 108.04(3)
_cell_angle_gamma                90
_cell_volume                     2055.46
_exptl_crystal_colour            colorless
_exptl_crystal_description       block
_cell_formula_units_Z            2
loop_
_atom_site_label
_atom_site_type_symbol
_atom_site_fract_x
_atom_site_fract_y
_atom_site_fract_z
N1 N 0.0000 0.1418(5) 0.5000
O2 O -0.0303(5) 0.2373(6) 0.4705(7)
O3 O 0.0685(4) 0.1426(7) 0.5858(8)
O4 O -0.0314(6) 0.0489(6) 0.4703(11)
O2A O 0.0303(5) 0.2373(6) 0.5295(7)
O3A O -0.0685(4) 0.1426(7) 0.4142(8)
O4A O 0.0314(6) 0.0489(6) 0.5297(11)
C3 C -0.1027(3) 0.7751(5) -1.3251(4)
H7 H -0.0513 0.8071 -1.2823
C4 C -0.1500(4) 0.8244(5) -1.4399(4)
H8 H -0.1299 0.8878 -1.4742
C5 C -0.2259(4) 0.7777(5) -1.5003(5)
H9 H -0.2585 0.8102 -1.5758
C6 C -0.2544(4) 0.6830(6) -1.4502(5)
H10 H -0.3060 0.6512 -1.4923
C7 C -0.2075(3) 0.6351(5) -1.3391(4)
H11 H -0.2275 0.5708 -1.3062
C8 C -0.1309(3) 0.6806(4) -1.2748(4)
C9 C -0.0779(3) 0.6306(4) -1.1506(4)
H12 H -0.0201 0.6396 -1.1453
H13 H -0.0872 0.6762 -1.0828
C10 C -0.0726(2) 0.4235(4) -1.1984(3)
C11 C -0.0862(2) 0.2966(4) -1.1713(3)
C12 C -0.0729(3) 0.2155(4) -1.2537(4)
H14 H -0.0561 0.2411 -1.3210
C13 C -0.0839(4) 0.0971(5) -1.2393(5)
H15 H -0.0741 0.0441 -1.2963
C14 C -0.1088(4) 0.0581(5) -1.1432(5)
H16 H -0.1161 -0.0218 -1.1338
C15 C -0.1236(3) 0.1374(4) -1.0576(4)
H17 H -0.1417 0.1108 -0.9919
C16 C -0.1113(2) 0.2551(4) -1.0710(3)
C17 C -0.1448(3) 0.3013(4) -0.8832(3)
H18 H -0.1031 0.2491 -0.8309
H19 H -0.1973 0.2602 -0.9100
C18 C -0.1516(3) 0.4089(4) -0.8120(4)
C19 C -0.1515(3) 0.4860(5) -0.6092(4)
H20 H -0.1635 0.4531 -0.5366
H21 H -0.1978 0.5355 -0.6536
C20 C -0.0744(3) 0.5599(4) -0.5648(4)
H22 H -0.0655 0.5993 -0.6365
H23 H -0.0820 0.6195 -0.5073
N2 N -0.0936(2) 0.5070(3) -1.1313(3)
H24 H -0.1169 0.4881 -1.0756
N3 N -0.1437(2) 0.3914(4) -0.6917(3)
H25 H -0.1336 0.3217 -0.6615
N4 N 0.0000 0.4879(5) -0.5000
H26 H 0.004(2) 0.437(4) -0.565(4)
O5 O -0.04311(19) 0.4475(3) -1.2828(3)
O6 O -0.1223(2) 0.3375(3) -0.9885(2)
O7 O -0.1642(2) 0.5043(4) -0.8625(3)
C3A C 0.1027(3) 0.7751(5) 0.3251(4)
H7A H 0.0513 0.8071 0.2823
C4A C 0.1500(4) 0.8244(5) 0.4399(4)
H8A H 0.1299 0.8878 0.4742
C5A C 0.2259(4) 0.7777(5) 0.5003(5)
H9A H 0.2585 0.8102 0.5758
C6A C 0.2544(4) 0.6830(6) 0.4502(5)
H10A H 0.3060 0.6512 0.4923
C7A C 0.2075(3) 0.6351(5) 0.3391(4)
H11A H 0.2275 0.5708 0.3062
C8A C 0.1309(3) 0.6806(4) 0.2748(4)
C9A C 0.0779(3) 0.6306(4) 0.1506(4)
H12A H 0.0201 0.6396 0.1453
H13A H 0.0872 0.6762 0.0828
C10A C 0.0726(2) 0.4235(4) 0.1984(3)
C11A C 0.0862(2) 0.2966(4) 0.1713(3)
C12A C 0.0729(3) 0.2155(4) 0.2537(4)
H14A H 0.0561 0.2411 0.3210
C13A C 0.0839(4) 0.0971(5) 0.2393(5)
H15A H 0.0741 0.0441 0.2963
C14A C 0.1088(4) 0.0581(5) 0.1432(5)
H16A H 0.1161 -0.0218 0.1338
C15A C 0.1236(3) 0.1374(4) 0.0576(4)
H17A H 0.1417 0.1108 -0.0081
C16A C 0.1113(2) 0.2551(4) 0.0710(3)
C17A C 0.1448(3) 0.3013(4) -0.1168(3)
H18A H 0.1031 0.2491 -0.1691
H19A H 0.1973 0.2602 -0.0900
C18A C 0.1516(3) 0.4089(4) -0.1880(4)
C19A C 0.1515(3) 0.4860(5) -0.3908(4)
H20A H 0.1635 0.4531 -0.4634
H21A H 0.1978 0.5355 -0.3464
C20A C 0.0744(3) 0.5599(4) -0.4352(4)
H22A H 0.0655 0.5993 -0.3635
H23A H 0.0820 0.6195 -0.4927
N2A N 0.0936(2) 0.5070(3) 0.1313(3)
H24A H 0.1169 0.4881 0.0756
N3A N 0.1437(2) 0.3914(4) -0.3083(3)
H25A H 0.1336 0.3217 -0.3385
H26A H -0.004(2) 0.437(4) -0.435(4)
O5A O 0.04311(19) 0.4475(3) 0.2828(3)
O6A O 0.1223(2) 0.3375(3) -0.0115(2)
O7A O 0.1642(2) 0.5043(4) -0.1375(3)
C1 C 0.1576(7) 0.8011(10) 0.8043(10)
H1 H 0.1167 0.7735 0.7280
H2 H 0.2120 0.7857 0.7965
C2 C 0.1476(8) 0.9286(12) 0.8154(13)
H3 H 0.0967 0.9441 0.8332
H4 H 0.1462 0.9660 0.7377
H5 H 0.1932 0.9589 0.8825
O1 O 0.1490(5) 0.7383(9) 0.9064(8)
H6 H 0.1549 0.6662 0.8924
loop_
_geom_bond_atom_site_label_1
_geom_bond_atom_site_label_2
_geom_bond_site_symmetry_1
_geom_bond_site_symmetry_2
C1 H1 1_555 1_555
H2 C1 1_555 1_555
C2 C1 1_555 1_555
H3 C2 1_555 1_555
H4 C2 1_555 1_555
H5 C2 1_555 1_555
O1 C1 1_555 1_555
H6 O1 1_555 1_555
N1 O2 1_555 1_555
O2 O2A 1_555 1_555
O3 N1 1_555 1_555
O4 N1 1_555 1_555
C3 H7 1_555 1_555
C4 C3 1_555 1_555
H8 C4 1_555 1_555
C5 C4 1_555 1_555
H9 C5 1_555 1_555
C6 C5 1_555 1_555
H10 C6 1_555 1_555
C7 C6 1_555 1_555
H11 C7 1_555 1_555
C8 C3 1_555 1_555
C9 C8 1_555 1_555
H12 C9 1_555 1_555
H13 C9 1_555 1_555
C10 C11 1_555 1_555
C11 C12 1_555 1_555
C12 H14 1_555 1_555
C13 C12 1_555 1_555
H15 C13 1_555 1_555
C14 C13 1_555 1_555
H16 C14 1_555 1_555
C15 C14 1_555 1_555
H17 C15 1_555 1_555
C16 C11 1_555 1_555
C17 H18 1_555 1_555
H19 C17 1_555 1_555
C18 C17 1_555 1_555
C19 H20 1_555 1_555
H21 C19 1_555 1_555
C20 C19 1_555 1_555
H22 C20 1_555 1_555
H23 C20 1_555 1_555
N2 C9 1_555 1_555
H24 N2 1_555 1_555
N3 C18 1_555 1_555
H25 N3 1_555 1_555
N4 C20 1_555 1_555
H26 N4 1_555 1_555
O5 C10 1_555 1_555
O6 C16 1_555 1_555
O7 C18 1_555 1_555
O2A N1 1_555 1_555
O3A N1 1_555 1_555
O4A N1 1_555 1_555
C3A H7A 1_555 1_555
C4A C3A 1_555 1_555
H8A C4A 1_555 1_555
C5A C4A 1_555 1_555
H9A C5A 1_555 1_555
C6A C5A 1_555 1_555
H10A C6A 1_555 1_555
C7A C6A 1_555 1_555
H11A C7A 1_555 1_555
C8A C3A 1_555 1_555
C9A C8A 1_555 1_555
H12A C9A 1_555 1_555
H13A C9A 1_555 1_555
C10A C11A 1_555 1_555
C11A C12A 1_555 1_555
C12A H14A 1_555 1_555
C13A C12A 1_555 1_555
H15A C13A 1_555 1_555
C14A C13A 1_555 1_555
H16A C14A 1_555 1_555
C15A C14A 1_555 1_555
H17A C15A 1_555 1_555
C16A C11A 1_555 1_555
C17A H18A 1_555 1_555
H19A C17A 1_555 1_555
C18A C17A 1_555 1_555
C19A H20A 1_555 1_555
H21A C19A 1_555 1_555
C20A N4 1_555 1_555
H22A C20A 1_555 1_555
H23A C20A 1_555 1_555
N2A C9A 1_555 1_555
H24A N2A 1_555 1_555
N3A C18A 1_555 1_555
H25A N3A 1_555 1_555
H26A N4 1_555 1_555
O5A C10A 1_555 1_555
O6A C16A 1_555 1_555
O7A C18A 1_555 1_555
O2 O3A 1_555 1_555
O3 O2A 1_555 1_555
O3 O4A 1_555 1_555
O4 O3A 1_555 1_555
O4 O4A 1_555 1_555
C7 C8 1_555 1_555
C10 N2 1_555 1_555
C15 C16 1_555 1_555
C17 O6 1_555 1_555
C19 N3 1_555 1_555
C7A C8A 1_555 1_555
C10A N2A 1_555 1_555
C15A C16A 1_555 1_555
C17A O6A 1_555 1_555
C19A C20A 1_555 1_555
C19A N3A 1_555 1_555

#END
