
#######################################################################
#
#                 Cambridge Crystallographic Data Centre
#                                CCDC 
#
#######################################################################
#
# If this CIF has been generated from an entry in the Cambridge 
# Structural Database, then it will include bibliographic, chemical, 
# crystal, experimental, refinement or atomic coordinate data resulting 
# from the CCDC's data processing and validation procedures.
#
#######################################################################

data_QAKVED01
_chemical_formula_moiety         'C52 H64 O12 S4'
_chemical_name_systematic        
'Tetramethyl (5,11,17,23-tetra-t-butyl-2,8,14,20-tetrathiacalix(4)arene-25,26,27,28-tetraoxy)tetra-acetate'
_symmetry_cell_setting           monoclinic
_symmetry_space_group_name_H-M   'C 2/c'
_symmetry_Int_Tables_number      15
_space_group_name_Hall           '-C 2yn'
loop_
_symmetry_equiv_pos_site_id
_symmetry_equiv_pos_as_xyz
1 x,y,z
2 1/2+x,1/2+y,z
3 -x,y,1/2-z
4 1/2-x,1/2+y,1/2-z
5 -x,-y,-z
6 1/2-x,1/2-y,-z
7 x,-y,1/2+z
8 1/2+x,1/2-y,1/2+z
_cell_length_a                   23.060(4)
_cell_length_b                   13.547(2)
_cell_length_c                   20.083(4)
_cell_angle_alpha                90
_cell_angle_beta                 122.890(2)
_cell_angle_gamma                90
_cell_volume                     5268.21
_exptl_crystal_colour            colorless
_exptl_crystal_description       block
_chemical_melting_point          '583 K'
_cell_formula_units_Z            4
_exptl_crystal_recrystallization_method methanol/chloroform
loop_
_atom_site_label
_atom_site_type_symbol
_atom_site_fract_x
_atom_site_fract_y
_atom_site_fract_z
S1 S 0.99878(4) 0.21639(7) 0.44360(5)
S2 S 0.79969(4) 0.23303(6) 0.12342(5)
O1 O 1.1161(8) -0.0627(7) 0.4389(6)
O2 O 1.19587(16) -0.0360(2) 0.56977(16)
O3 O 0.8866(2) 0.5131(2) 0.2833(3)
O4 O 0.82860(17) 0.49964(19) 0.3393(2)
O5 O 1.10215(10) 0.13481(15) 0.41260(12)
O6 O 0.90236(10) 0.31546(15) 0.28476(12)
C1 C 0.89228(15) 0.0062(2) 0.27746(18)
C2 C 0.85261(14) 0.0627(2) 0.20969(17)
H1 H 0.8226 0.0311 0.1618
C3 C 0.85638(14) 0.1646(2) 0.21130(17)
C4 C 0.90054(14) 0.2136(2) 0.28239(17)
C5 C 0.94319(15) 0.1580(2) 0.35053(17)
C6 C 0.93877(15) 0.0562(2) 0.34727(17)
H2 H 0.9677 0.0200 0.3930
C7 C 0.85576(19) 0.3539(2) 0.3036(2)
H3 H 0.8677 0.3294 0.3549
H4 H 0.8092 0.3324 0.2643
C8 C 0.85917(17) 0.4638(2) 0.30506(19)
C9 C 0.8274(2) 0.6050(3) 0.3460(3)
H5 H 0.8721 0.6314 0.3637
H6 H 0.8154 0.6214 0.3836
H7 H 0.7938 0.6326 0.2953
C10 C 1.10502(18) 0.5566(2) 0.4295(2)
C11 C 1.0585(2) 0.5975(3) 0.4553(3)
H8 H 1.0112 0.5831 0.4154
H9 H 1.0646 0.6677 0.4623
H10 H 1.0704 0.5674 0.5045
C12 C 1.1793(2) 0.5844(3) 0.4938(3)
H11 H 1.2098 0.5641 0.4776
H12 H 1.1922 0.5520 0.5425
H13 H 1.1825 0.6546 0.5016
C13 C 1.10045(15) 0.4442(2) 0.42054(17)
C14 C 1.05575(15) 0.3876(2) 0.43053(17)
H14 H 1.0256 0.4189 0.4409
C15 C 1.05459(15) 0.2856(2) 0.42544(17)
C16 C 1.09976(14) 0.2363(2) 0.41101(16)
C17 C 0.85829(14) 0.2926(2) 0.10449(16)
C18 C 1.14167(15) 0.3942(2) 0.40002(17)
H15 H 1.1698 0.4305 0.3891
C19 C 1.15612(18) 0.0996(3) 0.4874(2)
H16 H 1.1578 0.1386 0.5289
H17 H 1.1999 0.1076 0.4918
C20 C 1.1938(3) -0.1352(3) 0.5920(3)
H18 H 1.1636 -0.1734 0.5454
H19 H 1.1772 -0.1360 0.6266
H20 H 1.2394 -0.1629 0.6190
C21 C 1.14652(18) -0.0056(3) 0.4989(2)
C22 C 1.0665(11) 0.5985(12) 0.3425(9)
H21 H 1.0191 0.5778 0.3137
H22 H 1.0883 0.5741 0.3164
H23 H 1.0686 0.6693 0.3442
C25 C 0.88511(18) -0.1059(2) 0.2783(2)
C26 C 0.8307(3) -0.1480(4) 0.1996(3)
H27 H 0.8445 -0.1399 0.1626
H28 H 0.7878 -0.1141 0.1802
H29 H 0.8249 -0.2169 0.2055
C27 C 0.8590(4) -0.1265(4) 0.3352(4)
H30 H 0.8496 -0.1956 0.3344
H31 H 0.8176 -0.0894 0.3175
H32 H 0.8940 -0.1069 0.3882
C28 C 0.9535(5) -0.1568(9) 0.3112(7)
H34 H 0.9697 -0.1451 0.2768
H39 H 0.9446 -0.2249 0.3224
H41 H 0.9866 -0.1268 0.3401
S1B S 1.00122(4) 0.21639(7) 0.05640(5)
S2B S 1.20031(4) 0.23303(6) 0.37658(5)
O1B O 0.8839(8) -0.0627(7) 0.0611(6)
O2B O 0.80413(16) -0.0360(2) -0.06977(16)
O3B O 1.1134(2) 0.5131(2) 0.2167(3)
O4B O 1.17140(17) 0.49964(19) 0.1607(2)
O5B O 0.89785(10) 0.13481(15) 0.08740(12)
O6B O 1.09764(10) 0.31546(15) 0.21524(12)
C1B C 1.10772(15) 0.0062(2) 0.22254(18)
C2B C 1.14739(14) 0.0627(2) 0.29031(17)
H1B H 1.1774 0.0311 0.3382
C3B C 1.14362(14) 0.1646(2) 0.28870(17)
C4B C 1.09946(14) 0.2136(2) 0.21761(17)
C5B C 1.05681(15) 0.1580(2) 0.14947(17)
C6B C 1.06123(15) 0.0562(2) 0.15273(17)
H2B H 1.0323 0.0200 0.1070
C7B C 1.14424(19) 0.3539(2) 0.1964(2)
H3B H 1.1323 0.3294 0.1451
H4B H 1.1908 0.3324 0.2357
C8B C 1.14083(17) 0.4638(2) 0.19494(19)
C9B C 1.1726(2) 0.6050(3) 0.1540(3)
H5B H 1.1279 0.6314 0.1363
H6B H 1.1846 0.6214 0.1164
H7B H 1.2062 0.6326 0.2047
C10B C 0.89498(18) 0.5566(2) 0.0705(2)
C11B C 0.9415(2) 0.5975(3) 0.0447(3)
H8B H 0.9888 0.5831 0.0846
H9B H 0.9354 0.6677 0.0377
H10B H 0.9296 0.5674 -0.0045
C12B C 0.8207(2) 0.5844(3) 0.0062(3)
H11B H 0.7902 0.5641 0.0224
H12B H 0.8078 0.5520 -0.0425
H13B H 0.8175 0.6546 -0.0016
C13B C 0.89955(15) 0.4442(2) 0.07946(17)
C14B C 0.94425(15) 0.3876(2) 0.06947(17)
H14B H 0.9744 0.4189 0.0591
C15B C 0.94541(15) 0.2856(2) 0.07456(17)
C16B C 0.90024(14) 0.2363(2) 0.08899(16)
C17B C 1.14171(14) 0.2926(2) 0.39551(16)
C18B C 0.85833(15) 0.3942(2) 0.09998(17)
H15B H 0.8302 0.4305 0.1109
C19B C 0.84388(18) 0.0996(3) 0.0126(2)
H16B H 0.8422 0.1386 -0.0289
H17B H 0.8001 0.1076 0.0082
C20B C 0.8062(3) -0.1352(3) -0.0920(3)
H18B H 0.8364 -0.1734 -0.0454
H19B H 0.8228 -0.1360 -0.1266
H20B H 0.7606 -0.1629 -0.1190
C21B C 0.85348(18) -0.0056(3) 0.0011(2)
C22B C 0.9335(11) 0.5985(12) 0.1575(9)
H21B H 0.9809 0.5778 0.1863
H22B H 0.9117 0.5741 0.1836
H23B H 0.9314 0.6693 0.1558
C25B C 1.11489(18) -0.1059(2) 0.2217(2)
C26B C 1.1693(3) -0.1480(4) 0.3004(3)
H27B H 1.1555 -0.1399 0.3374
H28B H 1.2122 -0.1141 0.3198
H29B H 1.1751 -0.2169 0.2945
C27B C 1.1410(4) -0.1265(4) 0.1648(4)
H30B H 1.1504 -0.1956 0.1656
H31B H 1.1824 -0.0894 0.1825
H32B H 1.1060 -0.1069 0.1118
C28B C 1.0465(5) -0.1568(9) 0.1888(7)
H34B H 1.0303 -0.1451 0.2232
H39B H 1.0554 -0.2249 0.1776
H41B H 1.0134 -0.1268 0.1599
O7? O 1.0953(7) -0.0503(9) 0.4672(13)
C23? C 1.14652(18) -0.0056(3) 0.4989(2)
C24? C 1.0994(12) 0.6090(10) 0.3589(7)
H24? H 1.0537 0.6002 0.3128
H25? H 1.1325 0.5816 0.3492
H26? H 1.1084 0.6782 0.3704
H33? H 0.9864 -0.1313 0.3630
H35? H 0.9480 -0.2264 0.3146
C29? C 0.88511(18) -0.1059(2) 0.2783(2)
C30? C 0.8713(13) -0.1437(14) 0.1982(8)
H36? H 0.9090 -0.1249 0.1933
H37? H 0.8293 -0.1153 0.1555
H38? H 0.8673 -0.2143 0.1962
C31? C 0.9476(16) -0.157(2) 0.3371(16)
H40? H 0.9529 -0.1523 0.3879
C32? C 0.8198(11) -0.1328(15) 0.2701(15)
H42? H 0.8108 -0.2018 0.2576
H43? H 0.7828 -0.0946 0.2284
H44? H 0.8230 -0.1197 0.3190
loop_
_geom_bond_atom_site_label_1
_geom_bond_atom_site_label_2
_geom_bond_site_symmetry_1
_geom_bond_site_symmetry_2
S1 C5 1_555 1_555
S2 C3 1_555 1_555
O1 C21 1_555 1_555
O2 C20 1_555 1_555
O3 C8 1_555 1_555
O4 C8 1_555 1_555
O5 C16 1_555 1_555
O6 C4 1_555 1_555
C1 C2 1_555 1_555
C2 H1 1_555 1_555
C3 C2 1_555 1_555
C4 C3 1_555 1_555
C5 C4 1_555 1_555
C6 C1 1_555 1_555
H2 C6 1_555 1_555
C7 O6 1_555 1_555
H3 C7 1_555 1_555
H4 C7 1_555 1_555
C8 C7 1_555 1_555
C9 O4 1_555 1_555
H5 C9 1_555 1_555
H6 C9 1_555 1_555
H7 C9 1_555 1_555
C10 C11 1_555 1_555
C11 H8 1_555 1_555
H9 C11 1_555 1_555
H10 C11 1_555 1_555
C12 C10 1_555 1_555
H11 C12 1_555 1_555
H12 C12 1_555 1_555
H13 C12 1_555 1_555
C13 C10 1_555 1_555
C14 C13 1_555 1_555
H14 C14 1_555 1_555
C15 S1 1_555 1_555
C16 C15 1_555 1_555
C17 S2 1_555 1_555
C18 C13 1_555 1_555
H15 C18 1_555 1_555
C19 O5 1_555 1_555
H16 C19 1_555 1_555
H17 C19 1_555 1_555
C20 H18 1_555 1_555
H19 C20 1_555 1_555
H20 C20 1_555 1_555
C21 O2 1_555 1_555
C22 C10 1_555 1_555
H21 C22 1_555 1_555
H22 C22 1_555 1_555
H23 C22 1_555 1_555
C25 C1 1_555 1_555
C26 C25 1_555 1_555
H27 C26 1_555 1_555
H28 C26 1_555 1_555
H29 C26 1_555 1_555
C27 C25 1_555 1_555
H30 C27 1_555 1_555
H31 C27 1_555 1_555
H32 C27 1_555 1_555
C28 C25 1_555 1_555
H34 C28 1_555 1_555
H39 C28 1_555 1_555
H41 C28 1_555 1_555
S1B C5B 1_555 1_555
S2B C3B 1_555 1_555
O1B C21B 1_555 1_555
O2B C20B 1_555 1_555
O3B C8B 1_555 1_555
O4B C8B 1_555 1_555
O5B C16B 1_555 1_555
O6B C4B 1_555 1_555
C1B C2B 1_555 1_555
C2B H1B 1_555 1_555
C3B C2B 1_555 1_555
C4B C3B 1_555 1_555
C5B C4B 1_555 1_555
C6B C1B 1_555 1_555
H2B C6B 1_555 1_555
C7B O6B 1_555 1_555
H3B C7B 1_555 1_555
H4B C7B 1_555 1_555
C8B C7B 1_555 1_555
C9B O4B 1_555 1_555
H5B C9B 1_555 1_555
H6B C9B 1_555 1_555
H7B C9B 1_555 1_555
C10B C11B 1_555 1_555
C11B H8B 1_555 1_555
H9B C11B 1_555 1_555
H10B C11B 1_555 1_555
C12B C10B 1_555 1_555
H11B C12B 1_555 1_555
H12B C12B 1_555 1_555
H13B C12B 1_555 1_555
C13B C10B 1_555 1_555
C14B C13B 1_555 1_555
H14B C14B 1_555 1_555
C15B S1B 1_555 1_555
C16B C17 1_555 1_555
C17B C16 1_555 1_555
C18B C17 1_555 1_555
H15B C18B 1_555 1_555
C19B O5B 1_555 1_555
H16B C19B 1_555 1_555
H17B C19B 1_555 1_555
C20B H18B 1_555 1_555
H19B C20B 1_555 1_555
H20B C20B 1_555 1_555
C21B O2B 1_555 1_555
C22B C10B 1_555 1_555
H21B C22B 1_555 1_555
H22B C22B 1_555 1_555
H23B C22B 1_555 1_555
C25B C1B 1_555 1_555
C26B C25B 1_555 1_555
H27B C26B 1_555 1_555
H28B C26B 1_555 1_555
H29B C26B 1_555 1_555
C27B C25B 1_555 1_555
H30B C27B 1_555 1_555
H31B C27B 1_555 1_555
H32B C27B 1_555 1_555
C28B C25B 1_555 1_555
H34B C28B 1_555 1_555
H39B C28B 1_555 1_555
H41B C28B 1_555 1_555
C5 C6 1_555 1_555
C14 C15 1_555 1_555
C18 C17B 1_555 1_555
C19 C21 1_555 1_555
S2B C17B 1_555 1_555
C5B C6B 1_555 1_555
C13B C18B 1_555 1_555
C14B C15B 1_555 1_555
C15B C16B 1_555 1_555
C19B C21B 1_555 1_555

#END
