
#######################################################################
#
#                 Cambridge Crystallographic Data Centre
#                                CCDC 
#
#######################################################################
#
# If this CIF has been generated from an entry in the Cambridge 
# Structural Database, then it will include bibliographic, chemical, 
# crystal, experimental, refinement or atomic coordinate data resulting 
# from the CCDC's data processing and validation procedures.
#
#######################################################################

data_QAKWEG
_chemical_formula_moiety         'C18 H22 N4 O2'
_chemical_name_systematic        
2-(4-(2-Methoxyphenyl)piperazin-1-yl)-N-(pyridin-2-yl)acetamide
_symmetry_cell_setting           triclinic
_symmetry_space_group_name_H-M   'P -1'
_symmetry_Int_Tables_number      2
_space_group_name_Hall           '-P 1'
loop_
_symmetry_equiv_pos_site_id
_symmetry_equiv_pos_as_xyz
1 x,y,z
2 -x,-y,-z
_cell_length_a                   11.595(4)
_cell_length_b                   12.382(4)
_cell_length_c                   14.073(4)
_cell_angle_alpha                106.228(4)
_cell_angle_beta                 91.767(3)
_cell_angle_gamma                114.627(2)
_cell_volume                     1738.2
_exptl_crystal_colour            colorless
_exptl_crystal_description       prism
_cell_formula_units_Z            4
_exptl_crystal_recrystallization_method acetone/water
loop_
_atom_site_label
_atom_site_type_symbol
_atom_site_fract_x
_atom_site_fract_y
_atom_site_fract_z
O1 O -0.16031(14) 0.19320(13) 0.60110(10)
O2 O 0.26509(14) 0.03711(15) 0.17233(10)
N1 N 0.04151(16) 0.31688(15) 0.51774(11)
N2 N 0.15938(16) 0.22961(16) 0.35729(11)
N3 N 0.35747(16) 0.17050(17) 0.33185(12)
N4 N 0.54677(16) 0.24391(16) 0.43628(12)
C1 C -0.0797(2) 0.31511(19) 0.65726(14)
C2 C -0.0993(2) 0.3747(2) 0.75015(14)
H1 H -0.1719 0.3312 0.7774
C3 C -0.0128(2) 0.4982(2) 0.80355(16)
H2 H -0.0263 0.5386 0.8673
C4 C 0.0919(2) 0.5616(2) 0.76425(16)
H3 H 0.1507 0.6459 0.8005
C5 C 0.1115(2) 0.5019(2) 0.67106(15)
H4 H 0.1846 0.5461 0.6446
C6 C 0.02656(19) 0.37892(19) 0.61564(13)
C7 C 0.0808(2) 0.2177(2) 0.51565(14)
H5 H 0.0225 0.1601 0.5484
H6 H 0.1693 0.2557 0.5533
C8 C 0.0760(2) 0.14470(19) 0.40775(14)
H7 H 0.1047 0.0796 0.4070
H8 H -0.0136 0.1023 0.3713
C9 C 0.1161(2) 0.3261(2) 0.35931(14)
H9 H 0.0260 0.2858 0.3243
H10 H 0.1705 0.3827 0.3240
C10 C 0.1254(2) 0.4008(2) 0.46679(14)
H11 H 0.2155 0.4413 0.5018
H12 H 0.0987 0.4675 0.4684
C11 C 0.1642(2) 0.1621(2) 0.25557(13)
H13 H 0.1808 0.2184 0.2144
H14 H 0.0788 0.0898 0.2263
C12 C 0.26561(19) 0.11417(19) 0.24878(14)
C13 C 0.47825(19) 0.17094(19) 0.34499(14)
C14 C 0.5227(2) 0.1054(2) 0.27087(15)
H15 H 0.4697 0.0520 0.2078
C15 C 0.6471(2) 0.1202(2) 0.29197(16)
H16 H 0.6816 0.0783 0.2425
C16 C 0.7206(2) 0.1964(2) 0.38561(16)
H17 H 0.8062 0.2084 0.4015
C17 C 0.6659(2) 0.2542(2) 0.45484(16)
H18 H 0.7153 0.3045 0.5197
C18 C -0.2720(2) 0.1297(2) 0.64012(17)
H19 H -0.2460 0.1235 0.7045
H20 H -0.3236 0.0453 0.5926
H21 H -0.3234 0.1767 0.6500
H22 H 0.345(2) 0.224(2) 0.3780(15)
O3 O 0.31024(14) 0.19997(13) 0.69524(10)
O4 O -0.20714(14) 0.09195(14) 1.08091(10)
N5 N 0.27157(15) 0.34038(15) 0.86559(11)
N6 N 0.07490(15) 0.27036(16) 0.98664(11)
N7 N -0.17632(17) 0.22583(16) 0.99004(12)
N8 N -0.31000(17) 0.26615(17) 0.89803(12)
C19 C 0.37328(19) 0.3275(2) 0.71544(14)
C20 C 0.4550(2) 0.3846(2) 0.65566(15)
H23 H 0.4689 0.3348 0.5965
C21 C 0.5165(2) 0.5145(2) 0.68257(17)
H24 H 0.5720 0.5534 0.6414
C22 C 0.4978(2) 0.5871(2) 0.76827(18)
H25 H 0.5411 0.6760 0.7869
C23 C 0.4155(2) 0.5301(2) 0.82765(16)
H26 H 0.4025 0.5812 0.8865
C24 C 0.35148(19) 0.4006(2) 0.80341(14)
C25 C 0.13434(19) 0.26517(19) 0.82010(14)
H27 H 0.1261 0.2088 0.7520
H28 H 0.0960 0.3215 0.8139
C26 C 0.0632(2) 0.1882(2) 0.88466(14)
H29 H -0.0288 0.1382 0.8539
H30 H 0.0991 0.1293 0.8883
C27 C 0.21204(19) 0.3438(2) 1.03070(14)
H31 H 0.2496 0.2865 1.0353
H32 H 0.2215 0.3994 1.0994
C28 C 0.2834(2) 0.4222(2) 0.96688(14)
H33 H 0.2471 0.4808 0.9634
H34 H 0.3753 0.4723 0.9977
C29 C 0.0039(2) 0.1977(2) 1.04953(14)
H35 H 0.0444 0.2460 1.1206
H36 H 0.0133 0.1189 1.0326
C30 C -0.1381(2) 0.16446(19) 1.04003(14)
C31 C -0.30054(19) 0.21492(19) 0.96784(13)
C32 C -0.4019(2) 0.15893(19) 1.01496(15)
H37 H -0.3907 0.1248 1.0652
C33 C -0.5194(2) 0.1543(2) 0.98670(16)
H38 H -0.5907 0.1163 1.0174
C34 C -0.5328(2) 0.2049(2) 0.91386(16)
H39 H -0.6130 0.2019 0.8929
C35 C -0.4262(2) 0.2599(2) 0.87240(16)
H40 H -0.4350 0.2956 0.8227
C36 C 0.3320(2) 0.1232(2) 0.60821(16)
H41 H 0.3084 0.1408 0.5487
H42 H 0.2793 0.0346 0.6007
H43 H 0.4231 0.1414 0.6154
H44 H -0.118(2) 0.271(2) 0.9629(15)
loop_
_geom_bond_atom_site_label_1
_geom_bond_atom_site_label_2
_geom_bond_site_symmetry_1
_geom_bond_site_symmetry_2
O1 C1 1_555 1_555
O2 C12 1_555 1_555
N1 C6 1_555 1_555
N2 C8 1_555 1_555
N3 C12 1_555 1_555
N4 C13 1_555 1_555
C1 C2 1_555 1_555
C2 H1 1_555 1_555
C3 C2 1_555 1_555
H2 C3 1_555 1_555
C4 C3 1_555 1_555
H3 C4 1_555 1_555
C5 C4 1_555 1_555
H4 C5 1_555 1_555
C6 C1 1_555 1_555
C7 N1 1_555 1_555
H5 C7 1_555 1_555
H6 C7 1_555 1_555
C8 C7 1_555 1_555
H7 C8 1_555 1_555
H8 C8 1_555 1_555
C9 N2 1_555 1_555
H9 C9 1_555 1_555
H10 C9 1_555 1_555
C10 N1 1_555 1_555
H11 C10 1_555 1_555
H12 C10 1_555 1_555
C11 N2 1_555 1_555
H13 C11 1_555 1_555
H14 C11 1_555 1_555
C12 C11 1_555 1_555
C13 N3 1_555 1_555
C14 C13 1_555 1_555
H15 C14 1_555 1_555
C15 C14 1_555 1_555
H16 C15 1_555 1_555
C16 C15 1_555 1_555
H17 C16 1_555 1_555
C17 N4 1_555 1_555
H18 C17 1_555 1_555
C18 O1 1_555 1_555
H19 C18 1_555 1_555
H20 C18 1_555 1_555
H21 C18 1_555 1_555
H22 N3 1_555 1_555
O3 C19 1_555 1_555
O4 C30 1_555 1_555
N5 C24 1_555 1_555
N6 C26 1_555 1_555
N7 C30 1_555 1_555
N8 C31 1_555 1_555
C19 C20 1_555 1_555
C20 H23 1_555 1_555
C21 C20 1_555 1_555
H24 C21 1_555 1_555
C22 C21 1_555 1_555
H25 C22 1_555 1_555
C23 C22 1_555 1_555
H26 C23 1_555 1_555
C24 C19 1_555 1_555
C25 N5 1_555 1_555
H27 C25 1_555 1_555
H28 C25 1_555 1_555
C26 C25 1_555 1_555
H29 C26 1_555 1_555
H30 C26 1_555 1_555
C27 N6 1_555 1_555
H31 C27 1_555 1_555
H32 C27 1_555 1_555
C28 N5 1_555 1_555
H33 C28 1_555 1_555
H34 C28 1_555 1_555
C29 N6 1_555 1_555
H35 C29 1_555 1_555
H36 C29 1_555 1_555
C30 C29 1_555 1_555
C31 N7 1_555 1_555
C32 C31 1_555 1_555
H37 C32 1_555 1_555
C33 C32 1_555 1_555
H38 C33 1_555 1_555
C34 C33 1_555 1_555
H39 C34 1_555 1_555
C35 N8 1_555 1_555
H40 C35 1_555 1_555
C36 O3 1_555 1_555
H41 C36 1_555 1_555
H42 C36 1_555 1_555
H43 C36 1_555 1_555
H44 N7 1_555 1_555
C5 C6 1_555 1_555
C9 C10 1_555 1_555
C16 C17 1_555 1_555
C23 C24 1_555 1_555
C27 C28 1_555 1_555
C34 C35 1_555 1_555

#END
