
#######################################################################
#
#                 Cambridge Crystallographic Data Centre
#                                CCDC 
#
#######################################################################
#
# If this CIF has been generated from an entry in the Cambridge 
# Structural Database, then it will include bibliographic, chemical, 
# crystal, experimental, refinement or atomic coordinate data resulting 
# from the CCDC's data processing and validation procedures.
#
#######################################################################

data_QAKWOQ
_chemical_formula_moiety         'C11 H14 N2 O2'
_chemical_name_systematic        N-Phenylmorpholine-4-carboxamide
_symmetry_cell_setting           monoclinic
_symmetry_space_group_name_H-M   'P 21/c'
_symmetry_Int_Tables_number      14
_space_group_name_Hall           '-P 2ybc'
loop_
_symmetry_equiv_pos_site_id
_symmetry_equiv_pos_as_xyz
1 x,y,z
2 -x,1/2+y,1/2-z
3 -x,-y,-z
4 x,1/2-y,1/2+z
_cell_length_a                   8.0907(10)
_cell_length_b                   15.754(2)
_cell_length_c                   8.4529(11)
_cell_angle_alpha                90
_cell_angle_beta                 104.205(2)
_cell_angle_gamma                90
_cell_volume                     1044.47
_exptl_crystal_colour            colorless
_exptl_crystal_description       block
_cell_formula_units_Z            4
loop_
_atom_site_label
_atom_site_type_symbol
_atom_site_fract_x
_atom_site_fract_y
_atom_site_fract_z
C1 C 0.32831(18) 0.27851(9) 0.53510(15)
C2 C 0.21670(19) 0.23577(9) 0.60820(17)
H1 H 0.2379 0.1796 0.6410
C3 C 0.2934(2) 0.36162(9) 0.48415(18)
H2 H 0.3679 0.3909 0.4358
C4 C 0.56729(17) 0.17667(8) 0.59477(16)
C5 C 0.79490(19) 0.07168(10) 0.61799(19)
H3 H 0.7747 0.0651 0.7258
H4 H 0.9098 0.0932 0.6306
C6 C 0.0740(2) 0.27684(11) 0.6320(2)
H5 H 0.0011 0.2486 0.6838
C7 C 0.6653(2) 0.04917(11) 0.2800(2)
H6 H 0.5540 0.0256 0.2783
H7 H 0.6755 0.0528 0.1683
C8 C 0.6786(2) 0.13675(10) 0.35298(18)
H8 H 0.7849 0.1629 0.3450
H9 H 0.5854 0.1716 0.2929
C9 C 0.7776(2) -0.01294(10) 0.5331(2)
H10 H 0.8650 -0.0511 0.5929
H11 H 0.6674 -0.0373 0.5327
C10 C 0.0387(2) 0.35911(12) 0.5799(2)
H12 H -0.0584 0.3862 0.5951
C11 C 0.1479(2) 0.40080(11) 0.5054(2)
H13 H 0.1236 0.4561 0.4687
N1 N 0.67253(16) 0.13193(8) 0.52338(14)
O1 O 0.55772(13) 0.16176(6) 0.73527(11)
O2 O 0.79327(14) -0.00542(7) 0.36958(15)
N2 N 0.47270(16) 0.23906(8) 0.50123(15)
H14 H 0.505(2) 0.2590(11) 0.421(2)
loop_
_geom_bond_atom_site_label_1
_geom_bond_atom_site_label_2
_geom_bond_site_symmetry_1
_geom_bond_site_symmetry_2
C1 C2 1_555 1_555
C2 H1 1_555 1_555
C3 C1 1_555 1_555
H2 C3 1_555 1_555
C4 N1 1_555 1_555
C5 H3 1_555 1_555
H4 C5 1_555 1_555
C6 C2 1_555 1_555
H5 C6 1_555 1_555
C7 H6 1_555 1_555
H7 C7 1_555 1_555
C8 C7 1_555 1_555
H8 C8 1_555 1_555
H9 C8 1_555 1_555
C9 C5 1_555 1_555
H10 C9 1_555 1_555
H11 C9 1_555 1_555
C10 C6 1_555 1_555
H12 C10 1_555 1_555
C11 C3 1_555 1_555
H13 C11 1_555 1_555
N1 C5 1_555 1_555
O1 C4 1_555 1_555
O2 C7 1_555 1_555
N2 C1 1_555 1_555
H14 N2 1_555 1_555
C4 N2 1_555 1_555
C8 N1 1_555 1_555
C9 O2 1_555 1_555
C10 C11 1_555 1_555

#END
