
#######################################################################
#
#                 Cambridge Crystallographic Data Centre
#                                CCDC 
#
#######################################################################
#
# If this CIF has been generated from an entry in the Cambridge 
# Structural Database, then it will include bibliographic, chemical, 
# crystal, experimental, refinement or atomic coordinate data resulting 
# from the CCDC's data processing and validation procedures.
#
#######################################################################

data_QAKXIL
_chemical_formula_moiety         'C14 H10 F1 N3 O1'
_chemical_name_systematic        4-((7-Fluoroquinazolin-4-yl)oxy)aniline
_symmetry_cell_setting           orthorhombic
_symmetry_space_group_name_H-M   'P 21 21 21'
_symmetry_Int_Tables_number      19
_space_group_name_Hall           'P 2ac 2ab'
loop_
_symmetry_equiv_pos_site_id
_symmetry_equiv_pos_as_xyz
1 x,y,z
2 1/2-x,-y,1/2+z
3 -x,1/2+y,1/2-z
4 1/2+x,1/2-y,-z
_cell_length_a                   8.0210(16)
_cell_length_b                   8.3370(17)
_cell_length_c                   17.562(4)
_cell_angle_alpha                90
_cell_angle_beta                 90
_cell_angle_gamma                90
_cell_volume                     1174.39
_exptl_crystal_colour            colorless
_exptl_crystal_description       block
_cell_formula_units_Z            4
_exptl_crystal_recrystallization_method 'ethyl acetate'
loop_
_atom_site_label
_atom_site_type_symbol
_atom_site_fract_x
_atom_site_fract_y
_atom_site_fract_z
F1 F 0.3205(3) 0.8351(3) 0.76958(14)
O1 O 0.4564(4) 0.2636(3) 0.54742(14)
N1 N 0.5255(5) -0.3210(3) 0.39680(17)
H1 H 0.6191 -0.3749 0.4060
H2 H 0.5050 -0.3230 0.3470
N2 N 0.2795(4) 0.1426(3) 0.63318(17)
N3 N 0.1694(4) 0.2924(4) 0.73803(17)
C1 C 0.5944(5) 0.0096(4) 0.5327(2)
H3 H 0.6622 0.0345 0.5740
C2 C 0.6148(5) -0.1334(4) 0.49402(19)
H4 H 0.6978 -0.2042 0.5093
C3 C 0.5145(5) -0.1730(4) 0.43328(19)
C4 C 0.3965(5) -0.0629(4) 0.41001(19)
H5 H 0.3302 -0.0854 0.3679
C5 C 0.3757(5) 0.0809(4) 0.4487(2)
H6 H 0.2952 0.1540 0.4329
C6 C 0.4732(5) 0.1138(4) 0.50944(18)
C7 C 0.3580(5) 0.2687(4) 0.60919(19)
C8 C 0.1880(5) 0.1638(5) 0.6966(2)
H7 H 0.1297 0.0739 0.7132
C9 C 0.2538(4) 0.4244(4) 0.71251(19)
C10 C 0.2435(5) 0.5671(4) 0.7550(2)
H8 H 0.1805 0.5725 0.7994
C11 C 0.3285(6) 0.6964(4) 0.7291(2)
C12 C 0.4236(5) 0.6976(4) 0.6636(2)
H9 H 0.4787 0.7902 0.6481
C13 C 0.4348(5) 0.5598(4) 0.6223(2)
H10 H 0.4979 0.5577 0.5779
C14 C 0.3511(4) 0.4204(4) 0.64658(18)
loop_
_geom_bond_atom_site_label_1
_geom_bond_atom_site_label_2
_geom_bond_site_symmetry_1
_geom_bond_site_symmetry_2
F1 C11 1_555 1_555
O1 C6 1_555 1_555
N1 H1 1_555 1_555
H2 N1 1_555 1_555
N2 C7 1_555 1_555
N3 C8 1_555 1_555
C1 H3 1_555 1_555
C2 C1 1_555 1_555
H4 C2 1_555 1_555
C3 N1 1_555 1_555
C4 C3 1_555 1_555
H5 C4 1_555 1_555
C5 C4 1_555 1_555
H6 C5 1_555 1_555
C6 C1 1_555 1_555
C7 O1 1_555 1_555
C8 N2 1_555 1_555
H7 C8 1_555 1_555
C9 N3 1_555 1_555
C10 C9 1_555 1_555
H8 C10 1_555 1_555
C11 C10 1_555 1_555
C12 C11 1_555 1_555
H9 C12 1_555 1_555
C13 C12 1_555 1_555
H10 C13 1_555 1_555
C14 C7 1_555 1_555
C2 C3 1_555 1_555
C5 C6 1_555 1_555
C9 C14 1_555 1_555
C13 C14 1_555 1_555

#END
