
#######################################################################
#
#                 Cambridge Crystallographic Data Centre
#                                CCDC 
#
#######################################################################
#
# If this CIF has been generated from an entry in the Cambridge 
# Structural Database, then it will include bibliographic, chemical, 
# crystal, experimental, refinement or atomic coordinate data resulting 
# from the CCDC's data processing and validation procedures.
#
#######################################################################

data_QAKYEI
_chemical_formula_moiety         'C14 H10 Cl1 F1 N2 O1'
_chemical_name_systematic        
N'-(2-Chlorobenzylidene)-2-fluorobenzohydrazide
_symmetry_cell_setting           monoclinic
_symmetry_space_group_name_H-M   'P 21/n'
_symmetry_Int_Tables_number      14
_space_group_name_Hall           '-P 2yn'
loop_
_symmetry_equiv_pos_site_id
_symmetry_equiv_pos_as_xyz
1 x,y,z
2 1/2-x,1/2+y,1/2-z
3 -x,-y,-z
4 1/2+x,1/2-y,1/2+z
_cell_length_a                   7.1110(14)
_cell_length_b                   25.291(3)
_cell_length_c                   7.6560(15)
_cell_angle_alpha                90
_cell_angle_beta                 111.472(3)
_cell_angle_gamma                90
_cell_volume                     1281.33
_exptl_crystal_colour            colorless
_exptl_crystal_description       block
_cell_formula_units_Z            4
loop_
_atom_site_label
_atom_site_type_symbol
_atom_site_fract_x
_atom_site_fract_y
_atom_site_fract_z
Cl1 Cl 0.79975(13) 0.45321(3) 0.51687(11)
F1 F 0.6784(6) 0.24779(12) 0.8540(4)
O1 O 0.5332(3) 0.19241(6) 0.3381(2)
N1 N 0.6941(3) 0.29004(7) 0.3616(2)
N2 N 0.7342(3) 0.25676(8) 0.5135(3)
H1 H 0.826(3) 0.2667(9) 0.617(3)
C1 C 0.7557(4) 0.42979(10) 0.2922(3)
C2 C 0.7356(3) 0.37588(9) 0.2559(3)
C3 C 0.7001(4) 0.35952(10) 0.0726(3)
H2 H 0.6845 0.3237 0.0435
C4 C 0.6877(4) 0.39541(13) -0.0655(4)
H3 H 0.6663 0.3839 -0.1866
C5 C 0.7070(5) 0.44840(13) -0.0241(4)
H4 H 0.6971 0.4727 -0.1183
C6 C 0.7407(4) 0.46597(11) 0.1538(4)
H5 H 0.7532 0.5019 0.1808
C7 C 0.7584(3) 0.33724(9) 0.4035(3)
H6 H 0.8200 0.3470 0.5288
C8 C 0.6477(3) 0.20886(9) 0.4899(3)
C9 C 0.6963(3) 0.17703(9) 0.6648(3)
C10 C 0.7213(4) 0.12300(10) 0.6606(4)
H7 H 0.7113 0.1071 0.5481
C11 C 0.7599(4) 0.09235(12) 0.8154(5)
H8 H 0.7775 0.0561 0.8081
C12 C 0.7729(4) 0.11456(17) 0.9811(5)
H9 H 0.7987 0.0934 1.0867
C13 C 0.7482(4) 0.16775(16) 0.9932(4)
H10 H 0.7566 0.1833 1.1059
C14 C 0.7105(4) 0.19780(11) 0.8342(3)
F2? F 0.7132(5) 0.09899(12) 0.5057(4)
H11? H 0.6938 0.2341 0.8423
loop_
_geom_bond_atom_site_label_1
_geom_bond_atom_site_label_2
_geom_bond_site_symmetry_1
_geom_bond_site_symmetry_2
Cl1 C1 1_555 1_555
F1 C14 1_555 1_555
O1 C8 1_555 1_555
N1 N2 1_555 1_555
N2 H1 1_555 1_555
C1 C2 1_555 1_555
C2 C3 1_555 1_555
C3 H2 1_555 1_555
C4 C3 1_555 1_555
H3 C4 1_555 1_555
C5 C4 1_555 1_555
H4 C5 1_555 1_555
C6 C1 1_555 1_555
H5 C6 1_555 1_555
C7 N1 1_555 1_555
H6 C7 1_555 1_555
C8 N2 1_555 1_555
C9 C8 1_555 1_555
C10 C9 1_555 1_555
H7 C10 1_555 1_555
C11 C10 1_555 1_555
H8 C11 1_555 1_555
C12 C11 1_555 1_555
H9 C12 1_555 1_555
C13 C12 1_555 1_555
H10 C13 1_555 1_555
C14 C9 1_555 1_555
C2 C7 1_555 1_555
C5 C6 1_555 1_555
C13 C14 1_555 1_555

#END
