
#######################################################################
#
#                 Cambridge Crystallographic Data Centre
#                                CCDC 
#
#######################################################################
#
# If this CIF has been generated from an entry in the Cambridge 
# Structural Database, then it will include bibliographic, chemical, 
# crystal, experimental, refinement or atomic coordinate data resulting 
# from the CCDC's data processing and validation procedures.
#
#######################################################################

data_QAKZAE
_chemical_formula_moiety         'C21 H28 O5'
_chemical_name_systematic        
cis-1-(Methoxycarbonyloxy)-2-(phenoxycarbonyl)cyclododecene
_symmetry_cell_setting           monoclinic
_symmetry_space_group_name_H-M   'C 2/c'
_symmetry_Int_Tables_number      15
_space_group_name_Hall           '-C 2yn'
loop_
_symmetry_equiv_pos_site_id
_symmetry_equiv_pos_as_xyz
1 x,y,z
2 1/2+x,1/2+y,z
3 -x,y,1/2-z
4 1/2-x,1/2+y,1/2-z
5 -x,-y,-z
6 1/2-x,1/2-y,-z
7 x,-y,1/2+z
8 1/2+x,1/2-y,1/2+z
_cell_length_a                   28.4693(14)
_cell_length_b                   6.0089(2)
_cell_length_c                   22.8626(10)
_cell_angle_alpha                90
_cell_angle_beta                 103.698(2)
_cell_angle_gamma                90
_cell_volume                     3799.84
_exptl_crystal_colour            colorless
_chemical_melting_point          '72-73 deg.C'
_cell_formula_units_Z            8
loop_
_atom_site_label
_atom_site_type_symbol
_atom_site_fract_x
_atom_site_fract_y
_atom_site_fract_z
O1 O 0.16740(4) 0.77958(17) 0.29762(4)
O2 O 0.22228(3) 1.00141(17) 0.35640(4)
O3 O 0.08418(4) 0.77866(16) 0.32870(4)
O4 O 0.06117(4) 0.88746(17) 0.23072(4)
O5 O 0.06541(4) 0.52658(17) 0.26030(4)
C1 C 0.14051(5) 1.0754(2) 0.35314(6)
C2 C 0.09522(5) 1.0020(2) 0.34701(6)
C3 C 0.05126(5) 1.1145(3) 0.35789(6)
H1 H 0.0262 1.1125 0.3208
H2 H 0.0590 1.2689 0.3682
C4 C 0.03140(5) 1.0080(3) 0.40794(6)
H3 H -0.0021 1.0517 0.4031
H4 H 0.0324 0.8473 0.4043
C5 C 0.06012(6) 1.0761(2) 0.47071(6)
H5 H 0.0545 0.9679 0.4998
H6 H 0.0943 1.0736 0.4715
C6 C 0.04679(5) 1.3067(3) 0.48942(7)
H7 H 0.0142 1.3013 0.4955
H8 H 0.0467 1.4097 0.4567
C7 C 0.08077(6) 1.3973(3) 0.54690(6)
H9 H 0.0692 1.5425 0.5556
H10 H 0.0792 1.2995 0.5802
C8 C 0.13327(5) 1.4188(3) 0.54349(6)
H11 H 0.1453 1.2720 0.5371
H12 H 0.1520 1.4723 0.5820
C9 C 0.14203(5) 1.5739(3) 0.49411(6)
H13 H 0.1427 1.7264 0.5082
H14 H 0.1152 1.5602 0.4591
C10 C 0.18925(5) 1.5253(2) 0.47542(6)
H15 H 0.2156 1.5257 0.5111
H16 H 0.1951 1.6443 0.4494
C11 C 0.18957(5) 1.3025(2) 0.44260(6)
H17 H 0.1791 1.1856 0.4659
H18 H 0.2224 1.2690 0.4403
C12 C 0.15673(5) 1.3028(2) 0.37868(6)
H19 H 0.1283 1.3911 0.3789
H20 H 0.1738 1.3756 0.3520
C13 C 0.17609(5) 0.9328(2) 0.33228(6)
C14 C 0.25963(5) 0.8796(3) 0.33931(6)
C15 C 0.27386(6) 0.6771(3) 0.36620(6)
H21 H 0.2579 0.6158 0.3935
C16 C 0.31229(6) 0.5673(3) 0.35183(6)
H22 H 0.3221 0.4298 0.3692
C17 C 0.33616(5) 0.6602(2) 0.31193(6)
H23 H 0.3624 0.5873 0.3029
C18 C 0.32088(6) 0.8622(3) 0.28537(6)
H24 H 0.3368 0.9239 0.2581
C19 C 0.28220(5) 0.9742(3) 0.29868(6)
H25 H 0.2718 1.1098 0.2806
C20 C 0.06953(5) 0.7462(3) 0.26850(7)
C21 C 0.05082(6) 0.4602(3) 0.19774(6)
H26 H 0.0488 0.3009 0.1952
H27 H 0.0742 0.5122 0.1768
H28 H 0.0198 0.5236 0.1798
loop_
_geom_bond_atom_site_label_1
_geom_bond_atom_site_label_2
_geom_bond_site_symmetry_1
_geom_bond_site_symmetry_2
O1 C13 1_555 1_555
O2 C13 1_555 1_555
O3 C2 1_555 1_555
O4 C20 1_555 1_555
O5 C20 1_555 1_555
C1 C2 1_555 1_555
C2 C3 1_555 1_555
C3 H1 1_555 1_555
H2 C3 1_555 1_555
C4 C3 1_555 1_555
H3 C4 1_555 1_555
H4 C4 1_555 1_555
C5 C4 1_555 1_555
H5 C5 1_555 1_555
H6 C5 1_555 1_555
C6 C5 1_555 1_555
H7 C6 1_555 1_555
H8 C6 1_555 1_555
C7 C6 1_555 1_555
H9 C7 1_555 1_555
H10 C7 1_555 1_555
C8 C7 1_555 1_555
H11 C8 1_555 1_555
H12 C8 1_555 1_555
C9 C8 1_555 1_555
H13 C9 1_555 1_555
H14 C9 1_555 1_555
C10 C9 1_555 1_555
H15 C10 1_555 1_555
H16 C10 1_555 1_555
C11 C10 1_555 1_555
H17 C11 1_555 1_555
H18 C11 1_555 1_555
C12 C1 1_555 1_555
H19 C12 1_555 1_555
H20 C12 1_555 1_555
C13 C1 1_555 1_555
C14 O2 1_555 1_555
C15 C14 1_555 1_555
H21 C15 1_555 1_555
C16 C15 1_555 1_555
H22 C16 1_555 1_555
C17 C16 1_555 1_555
H23 C17 1_555 1_555
C18 C17 1_555 1_555
H24 C18 1_555 1_555
C19 C14 1_555 1_555
H25 C19 1_555 1_555
C20 O3 1_555 1_555
C21 O5 1_555 1_555
H26 C21 1_555 1_555
H27 C21 1_555 1_555
H28 C21 1_555 1_555
C11 C12 1_555 1_555
C18 C19 1_555 1_555

#END
