
#######################################################################
#
#                 Cambridge Crystallographic Data Centre
#                                CCDC 
#
#######################################################################
#
# If this CIF has been generated from an entry in the Cambridge 
# Structural Database, then it will include bibliographic, chemical, 
# crystal, experimental, refinement or atomic coordinate data resulting 
# from the CCDC's data processing and validation procedures.
#
#######################################################################

data_QALGES
_chemical_name_common            
5,13-bis((triisopropylsilyl)ethynyl)aceanthryleno[2,1-a]aceanthrylene
_chemical_formula_moiety         'C52 H56 Si2'
_chemical_name_systematic        
(aceanthryleno[2,1-a]aceanthrylene-5,13-diyldiethyne-2,1-diyl)bis(triisopropylsilane)
_symmetry_cell_setting           triclinic
_symmetry_space_group_name_H-M   'P -1'
_symmetry_Int_Tables_number      2
_space_group_name_Hall           '-P 1'
loop_
_symmetry_equiv_pos_site_id
_symmetry_equiv_pos_as_xyz
1 x,y,z
2 -x,-y,-z
_cell_length_a                   8.0423(3)
_cell_length_b                   16.3291(7)
_cell_length_c                   16.9633(7)
_cell_angle_alpha                90.551(3)
_cell_angle_beta                 96.422(3)
_cell_angle_gamma                102.865(3)
_cell_volume                     2156.76
_exptl_crystal_colour            black
_exptl_crystal_description       plate
_cell_formula_units_Z            2
_chemical_properties_physical    
'Air-sensitive, Moisture-sensitive, Oxygen-sensitive'
_exptl_crystal_recrystallization_method 
'methanol or acetonitrile into THF solution'
loop_
_atom_site_label
_atom_site_type_symbol
_atom_site_fract_x
_atom_site_fract_y
_atom_site_fract_z
Si1 Si 0.29502(9) 0.56357(4) 0.67720(5)
C1 C 0.9525(3) 0.98275(14) 0.46483(15)
C2 C 0.8289(3) 0.90600(14) 0.48158(15)
C3 C 0.7006(3) 0.84461(15) 0.43710(16)
C4 C 0.6628(3) 0.84520(16) 0.35396(17)
H1 H 0.7281 0.8882 0.3254
C5 C 0.5341(3) 0.78528(18) 0.31328(19)
H2 H 0.5096 0.7878 0.2574
C6 C 0.4381(3) 0.71987(17) 0.35448(19)
H3 H 0.3497 0.6781 0.3261
C7 C 0.4711(3) 0.71632(16) 0.43404(19)
H4 H 0.4047 0.6719 0.4607
C8 C 0.6028(3) 0.77743(15) 0.47928(17)
C9 C 0.6339(3) 0.77244(15) 0.56271(17)
C10 C 0.7648(3) 0.83374(14) 0.60684(16)
C11 C 0.8092(3) 0.83629(16) 0.69005(17)
H5 H 0.7498 0.7941 0.7214
C12 C 0.9383(4) 0.89989(18) 0.72547(18)
H6 H 0.9677 0.9003 0.7813
C13 C 1.0293(3) 0.96503(16) 0.68136(17)
H7 H 1.1168 1.0086 0.7078
C14 C 0.9905(3) 0.96483(14) 0.60093(15)
C15 C 0.8574(3) 0.89810(14) 0.56400(15)
C16 C 0.5303(3) 0.70652(16) 0.60323(18)
C17 C 0.4412(4) 0.65164(17) 0.63550(19)
C18 C 0.0857(19) 0.5800(9) 0.6485(13)
H8 H 0.0761 0.5698 0.5898
C19 C -0.0767(11) 0.5154(7) 0.6686(11)
H9 H -0.0589 0.4583 0.6628
H10 H -0.1765 0.5215 0.6322
H11 H -0.0967 0.5259 0.7233
C20 C 0.029(3) 0.6638(12) 0.6517(14)
H12 H 0.1181 0.7088 0.6342
H13 H 0.0108 0.6766 0.7062
H14 H -0.0785 0.6594 0.6167
C21 C 0.3635(4) 0.56044(19) 0.78620(19)
H15 H 0.2788 0.5142 0.8078
C22 C 0.3634(7) 0.6417(3) 0.8321(2)
H16 H 0.2499 0.6547 0.8221
H17 H 0.4500 0.6879 0.8145
H18 H 0.3904 0.6345 0.8890
C23 C 0.5414(5) 0.5389(3) 0.8021(3)
H19 H 0.5401 0.4865 0.7730
H20 H 0.5681 0.5318 0.8591
H21 H 0.6289 0.5845 0.7843
C24 C 0.3203(4) 0.46483(17) 0.62573(18)
H22 H 0.4451 0.4642 0.6342
C25 C 0.2695(6) 0.4631(2) 0.5365(2)
H23 H 0.3330 0.5143 0.5144
H24 H 0.1459 0.4601 0.5257
H25 H 0.2967 0.4138 0.5120
C26 C 0.2231(4) 0.38484(18) 0.6614(2)
H26 H 0.2574 0.3866 0.7188
H27 H 0.2506 0.3356 0.6371
H28 H 0.0993 0.3813 0.6513
Si1A Si 1.70498(9) 1.43643(4) 0.32280(5)
C1A C 1.0475(3) 1.01725(14) 0.53517(15)
C2A C 1.1711(3) 1.09400(14) 0.51842(15)
C3A C 1.2994(3) 1.15539(15) 0.56290(16)
C4A C 1.3372(3) 1.15480(16) 0.64604(17)
H1A H 1.2719 1.1118 0.6746
C5A C 1.4659(3) 1.21472(18) 0.68672(19)
H2A H 1.4904 1.2122 0.7426
C6A C 1.5619(3) 1.28013(17) 0.64552(19)
H3A H 1.6503 1.3219 0.6739
C7A C 1.5289(3) 1.28368(16) 0.56596(19)
H4A H 1.5953 1.3281 0.5393
C8A C 1.3972(3) 1.22257(15) 0.52072(17)
C9A C 1.3661(3) 1.22756(15) 0.43729(17)
C10A C 1.2352(3) 1.16626(14) 0.39316(16)
C11A C 1.1908(3) 1.16371(16) 0.30995(17)
H5A H 1.2502 1.2059 0.2786
C12A C 1.0617(4) 1.10011(18) 0.27453(18)
H6A H 1.0323 1.0997 0.2187
C13A C 0.9707(3) 1.03497(16) 0.31864(17)
H7A H 0.8832 0.9914 0.2922
C14A C 1.0095(3) 1.03517(14) 0.39907(15)
C15A C 1.1426(3) 1.10190(14) 0.43600(15)
C16A C 1.4697(3) 1.29348(16) 0.39677(18)
C17A C 1.5588(4) 1.34836(17) 0.36450(19)
C18A C 1.9143(19) 1.4200(9) 0.3515(13)
H8A H 1.9239 1.4302 0.4102
C19A C 2.0767(11) 1.4846(7) 0.3314(11)
H9A H 2.0589 1.5417 0.3372
H10A H 2.1765 1.4785 0.3678
H11A H 2.0967 1.4741 0.2767
C20A C 1.971(3) 1.3362(12) 0.3483(14)
H12A H 1.8819 1.2912 0.3658
H13A H 1.9892 1.3234 0.2938
H14A H 2.0785 1.3406 0.3833
C21A C 1.6365(4) 1.43956(19) 0.21380(19)
H15A H 1.7212 1.4858 0.1922
C22A C 1.6366(7) 1.3583(3) 0.1679(2)
H16A H 1.7501 1.3453 0.1779
H17A H 1.5500 1.3121 0.1855
H18A H 1.6096 1.3655 0.1110
C23A C 1.4586(5) 1.4611(3) 0.1979(3)
H19A H 1.4599 1.5135 0.2270
H20A H 1.4319 1.4682 0.1409
H21A H 1.3711 1.4155 0.2157
C24A C 1.6797(4) 1.53517(17) 0.37427(18)
H22A H 1.5549 1.5358 0.3658
C25A C 1.7305(6) 1.5369(2) 0.4635(2)
H23A H 1.6670 1.4857 0.4856
H24A H 1.8541 1.5399 0.4743
H25A H 1.7033 1.5862 0.4880
C26A C 1.7769(4) 1.61516(18) 0.3386(2)
H26A H 1.7426 1.6134 0.2812
H27A H 1.7494 1.6644 0.3629
H28A H 1.9007 1.6187 0.3487
Si2 Si 1.08537(13) 1.25316(7) 0.93903(5)
C30 C 0.4624(3) 0.97278(14) 0.52794(14)
C31 C 0.5491(3) 1.00241(14) 0.60703(14)
C32 C 0.5329(3) 0.97551(15) 0.68487(15)
C33 C 0.4156(4) 0.90217(17) 0.70404(17)
H36 H 0.3430 0.8682 0.6624
C34 C 0.4038(4) 0.8790(2) 0.78011(18)
H37 H 0.3224 0.8299 0.7911
C35 C 0.5117(5) 0.9274(2) 0.84287(18)
H38 H 0.5034 0.9106 0.8960
C36 C 0.6278(4) 0.9980(2) 0.82758(17)
H39 H 0.6995 1.0302 0.8705
C37 C 0.6440(3) 1.02471(16) 0.74918(16)
C38 C 0.7687(3) 1.09896(16) 0.73421(15)
C39 C 0.7859(3) 1.12326(15) 0.65583(15)
C40 C 0.9068(3) 1.19379(15) 0.63231(15)
H40 H 0.9865 1.2285 0.6712
C41 C 0.9081(3) 1.21160(15) 0.55371(16)
H41 H 0.9897 1.2589 0.5391
C42 C 0.7920(3) 1.16201(15) 0.49311(15)
H42 H 0.7958 1.1763 0.4391
C43 C 0.6743(3) 1.09332(14) 0.51328(14)
C44 C 0.6735(3) 1.07473(14) 0.59458(14)
C45 C 0.8729(4) 1.14761(18) 0.79937(16)
C46 C 0.9575(4) 1.1895(2) 0.85428(17)
C47 C 1.0702(17) 1.3717(6) 0.9112(5)
H43 H 1.1224 1.3838 0.8606
C48 C 1.1735(19) 1.4382(6) 0.9736(6)
H44 H 1.2930 1.4325 0.9818
H45 H 1.1234 1.4298 1.0238
H46 H 1.1700 1.4944 0.9550
C49 C 0.882(2) 1.3814(7) 0.8952(7)
H47 H 0.8188 1.3401 0.8540
H48 H 0.8807 1.4382 0.8773
H49 H 0.8271 1.3720 0.9441
C50 C 0.9646(10) 1.2303(5) 1.0305(5)
H50 H 0.8742 1.2637 1.0287
C51 C 1.0898(12) 1.2545(6) 1.1078(4)
H51 H 1.1476 1.3141 1.1075
H52 H 1.1756 1.2201 1.1110
H53 H 1.0252 1.2448 1.1538
C52 C 0.8799(11) 1.1362(5) 1.0356(4)
H54 H 0.7937 1.1185 0.9895
H55 H 0.8243 1.1274 1.0844
H56 H 0.9677 1.1031 1.0362
C53 C 1.3039(11) 1.2464(7) 0.9471(5)
H57 H 1.3595 1.2690 1.0010
C54 C 1.3159(18) 1.1528(9) 0.9396(9)
H58 H 1.2521 1.1203 0.9792
H59 H 1.4366 1.1493 0.9486
H60 H 1.2667 1.1300 0.8863
C55 C 1.4024(13) 1.2983(8) 0.8850(6)
H61 H 1.3995 1.3576 0.8922
H62 H 1.3487 1.2778 0.8316
H63 H 1.5219 1.2927 0.8916
Si2A Si -0.08537(13) 0.74684(7) 0.06097(5)
C30A C 0.5376(3) 1.02722(14) 0.47206(14)
C31A C 0.4509(3) 0.99759(14) 0.39297(14)
C32A C 0.4671(3) 1.02449(15) 0.31513(15)
C33A C 0.5844(4) 1.09783(17) 0.29596(17)
H36A H 0.6570 1.1318 0.3376
C34A C 0.5962(4) 1.1210(2) 0.21989(18)
H37A H 0.6776 1.1701 0.2089
C35A C 0.4883(5) 1.0726(2) 0.15713(18)
H38A H 0.4966 1.0894 0.1040
C36A C 0.3722(4) 1.0020(2) 0.17242(17)
H39A H 0.3005 0.9698 0.1295
C37A C 0.3560(3) 0.97529(16) 0.25082(16)
C38A C 0.2313(3) 0.90104(16) 0.26579(15)
C39A C 0.2141(3) 0.87674(15) 0.34417(15)
C40A C 0.0932(3) 0.80621(15) 0.36769(15)
H40A H 0.0135 0.7715 0.3288
C41A C 0.0919(3) 0.78840(15) 0.44629(16)
H41A H 0.0103 0.7411 0.4609
C42A C 0.2080(3) 0.83799(15) 0.50689(15)
H42A H 0.2042 0.8237 0.5609
C43A C 0.3257(3) 0.90668(14) 0.48672(14)
C44A C 0.3265(3) 0.92527(14) 0.40542(14)
C45A C 0.1271(4) 0.85239(18) 0.20063(16)
C46A C 0.0425(4) 0.8105(2) 0.14572(17)
C47A C -0.0702(17) 0.6283(6) 0.0888(5)
H43A H -0.1224 0.6162 0.1394
C48A C -0.1735(19) 0.5618(6) 0.0264(6)
H44A H -0.2930 0.5675 0.0182
H45A H -0.1234 0.5702 -0.0238
H46A H -0.1700 0.5056 0.0450
C49A C 0.118(2) 0.6186(7) 0.1048(7)
H47A H 0.1812 0.6599 0.1460
H48A H 0.1193 0.5618 0.1227
H49A H 0.1729 0.6280 0.0559
C50A C 0.0354(10) 0.7697(5) -0.0305(5)
H50A H 0.1258 0.7363 -0.0287
C51A C -0.0898(12) 0.7455(6) -0.1078(4)
H51A H -0.1476 0.6859 -0.1075
H52A H -0.1756 0.7799 -0.1110
H53A H -0.0252 0.7552 -0.1538
C52A C 0.1201(11) 0.8638(5) -0.0356(4)
H54A H 0.2063 0.8815 0.0105
H55A H 0.1757 0.8726 -0.0844
H56A H 0.0323 0.8969 -0.0362
C53A C -0.3039(11) 0.7536(7) 0.0529(5)
H57A H -0.3595 0.7310 -0.0010
C54A C -0.3159(18) 0.8472(9) 0.0604(9)
H58A H -0.2521 0.8797 0.0208
H59A H -0.4366 0.8507 0.0514
H60A H -0.2667 0.8700 0.1137
C55A C -0.4024(13) 0.7017(8) 0.1150(6)
H61A H -0.3995 0.6424 0.1078
H62A H -0.3487 0.7222 0.1684
H63A H -0.5219 0.7073 0.1084
C27? C 0.0587(17) 0.5778(8) 0.6545(10)
H29? H 0.0104 0.5592 0.5986
C28? C -0.0489(14) 0.5252(7) 0.7151(11)
H30? H -0.0451 0.4659 0.7088
H31? H -0.1682 0.5308 0.7055
H32? H -0.0010 0.5457 0.7692
C29? C 0.0611(19) 0.6711(9) 0.6697(11)
H33? H 0.1340 0.7055 0.6342
H34? H 0.1069 0.6874 0.7250
H35? H -0.0560 0.6798 0.6596
C56? C 1.149(2) 1.3535(9) 0.9133(7)
H64? H 1.2073 1.3525 0.8643
C57? C 1.275(3) 1.4152(9) 0.9740(8)
H65? H 1.3810 1.3952 0.9861
H66? H 1.2220 1.4186 1.0228
H67? H 1.3021 1.4711 0.9515
C58? C 0.984(3) 1.3855(9) 0.8896(9)
H68? H 0.9082 1.3465 0.8498
H69? H 1.0146 1.4413 0.8673
H70? H 0.9251 1.3891 0.9366
C59? C 1.004(2) 1.2155(17) 1.0272(16)
H71? H 1.0315 1.1601 1.0407
C60? C 1.051(3) 1.2784(16) 1.0997(15)
H72? H 1.1735 1.2868 1.1183
H73? H 0.9833 1.2558 1.1424
H74? H 1.0251 1.3323 1.0841
C61? C 0.808(2) 1.2111(14) 1.0214(10)
H75? H 0.7497 1.1755 0.9752
H76? H 0.7879 1.2678 1.0156
H77? H 0.7641 1.1872 1.0697
C62? C 1.2959(19) 1.1962(9) 0.9569(8)
H78? H 1.3728 1.2216 1.0055
C63? C 1.240(2) 1.0998(9) 0.9644(10)
H79? H 1.1861 1.0875 1.0133
H80? H 1.3407 1.0752 0.9660
H81? H 1.1574 1.0757 0.9187
C64? C 1.390(2) 1.2165(15) 0.8831(9)
H82? H 1.4311 1.2775 0.8806
H83? H 1.3118 1.1951 0.8353
H84? H 1.4886 1.1899 0.8864
loop_
_geom_bond_atom_site_label_1
_geom_bond_atom_site_label_2
_geom_bond_site_symmetry_1
_geom_bond_site_symmetry_2
Si1 C17 1_555 1_555
C1 C2 1_555 1_555
C2 C3 1_555 1_555
C3 C4 1_555 1_555
C4 H1 1_555 1_555
C5 C4 1_555 1_555
H2 C5 1_555 1_555
C6 C5 1_555 1_555
H3 C6 1_555 1_555
C7 C6 1_555 1_555
H4 C7 1_555 1_555
C8 C3 1_555 1_555
C9 C8 1_555 1_555
C10 C9 1_555 1_555
C11 C10 1_555 1_555
H5 C11 1_555 1_555
C12 C11 1_555 1_555
H6 C12 1_555 1_555
C13 C12 1_555 1_555
H7 C13 1_555 1_555
C14 C13 1_555 1_555
C15 C2 1_555 1_555
C16 C9 1_555 1_555
C17 C16 1_555 1_555
C18 Si1 1_555 1_555
H8 C18 1_555 1_555
C19 C18 1_555 1_555
H9 C19 1_555 1_555
H10 C19 1_555 1_555
H11 C19 1_555 1_555
C20 C18 1_555 1_555
H12 C20 1_555 1_555
H13 C20 1_555 1_555
H14 C20 1_555 1_555
C21 Si1 1_555 1_555
H15 C21 1_555 1_555
C22 C21 1_555 1_555
H16 C22 1_555 1_555
H17 C22 1_555 1_555
H18 C22 1_555 1_555
C23 C21 1_555 1_555
H19 C23 1_555 1_555
H20 C23 1_555 1_555
H21 C23 1_555 1_555
C24 Si1 1_555 1_555
H22 C24 1_555 1_555
C25 C24 1_555 1_555
H23 C25 1_555 1_555
H24 C25 1_555 1_555
H25 C25 1_555 1_555
C26 C24 1_555 1_555
H26 C26 1_555 1_555
H27 C26 1_555 1_555
H28 C26 1_555 1_555
Si2 C46 1_555 1_555
C30 C31 1_555 1_555
C31 C32 1_555 1_555
C32 C33 1_555 1_555
C33 H36 1_555 1_555
C34 C33 1_555 1_555
H37 C34 1_555 1_555
C35 C34 1_555 1_555
H38 C35 1_555 1_555
C36 C35 1_555 1_555
H39 C36 1_555 1_555
C37 C32 1_555 1_555
C38 C37 1_555 1_555
C39 C38 1_555 1_555
C40 C39 1_555 1_555
H40 C40 1_555 1_555
C41 C40 1_555 1_555
H41 C41 1_555 1_555
C42 C41 1_555 1_555
H42 C42 1_555 1_555
C43 C42 1_555 1_555
C44 C31 1_555 1_555
C45 C38 1_555 1_555
C46 C45 1_555 1_555
C47 Si2 1_555 1_555
H43 C47 1_555 1_555
C48 C47 1_555 1_555
H44 C48 1_555 1_555
H45 C48 1_555 1_555
H46 C48 1_555 1_555
C49 C47 1_555 1_555
H47 C49 1_555 1_555
H48 C49 1_555 1_555
H49 C49 1_555 1_555
C50 Si2 1_555 1_555
H50 C50 1_555 1_555
C51 C50 1_555 1_555
H51 C51 1_555 1_555
H52 C51 1_555 1_555
H53 C51 1_555 1_555
C52 C50 1_555 1_555
H54 C52 1_555 1_555
H55 C52 1_555 1_555
H56 C52 1_555 1_555
C53 Si2 1_555 1_555
H57 C53 1_555 1_555
C54 C53 1_555 1_555
H58 C54 1_555 1_555
H59 C54 1_555 1_555
H60 C54 1_555 1_555
C55 C53 1_555 1_555
H61 C55 1_555 1_555
H62 C55 1_555 1_555
H63 C55 1_555 1_555
Si1A C17A 1_555 1_555
C1A C1 1_555 1_555
C2A C1A 1_555 1_555
C3A C2A 1_555 1_555
C4A C3A 1_555 1_555
H1A C4A 1_555 1_555
C5A C4A 1_555 1_555
H2A C5A 1_555 1_555
C6A C5A 1_555 1_555
H3A C6A 1_555 1_555
C7A C6A 1_555 1_555
H4A C7A 1_555 1_555
C8A C3A 1_555 1_555
C9A C8A 1_555 1_555
C10A C9A 1_555 1_555
C11A C10A 1_555 1_555
H5A C11A 1_555 1_555
C12A C11A 1_555 1_555
H6A C12A 1_555 1_555
C13A C12A 1_555 1_555
H7A C13A 1_555 1_555
C14A C1 1_555 1_555
C15A C2A 1_555 1_555
C16A C9A 1_555 1_555
C17A C16A 1_555 1_555
C18A Si1A 1_555 1_555
H8A C18A 1_555 1_555
C19A C18A 1_555 1_555
H9A C19A 1_555 1_555
H10A C19A 1_555 1_555
H11A C19A 1_555 1_555
C20A C18A 1_555 1_555
H12A C20A 1_555 1_555
H13A C20A 1_555 1_555
H14A C20A 1_555 1_555
C21A Si1A 1_555 1_555
H15A C21A 1_555 1_555
C22A C21A 1_555 1_555
H16A C22A 1_555 1_555
H17A C22A 1_555 1_555
H18A C22A 1_555 1_555
C23A C21A 1_555 1_555
H19A C23A 1_555 1_555
H20A C23A 1_555 1_555
H21A C23A 1_555 1_555
C24A Si1A 1_555 1_555
H22A C24A 1_555 1_555
C25A C24A 1_555 1_555
H23A C25A 1_555 1_555
H24A C25A 1_555 1_555
H25A C25A 1_555 1_555
C26A C24A 1_555 1_555
H26A C26A 1_555 1_555
H27A C26A 1_555 1_555
H28A C26A 1_555 1_555
Si2A C46A 1_555 1_555
C30A C30 1_555 1_555
C31A C30A 1_555 1_555
C32A C31A 1_555 1_555
C33A C32A 1_555 1_555
H36A C33A 1_555 1_555
C34A C33A 1_555 1_555
H37A C34A 1_555 1_555
C35A C34A 1_555 1_555
H38A C35A 1_555 1_555
C36A C35A 1_555 1_555
H39A C36A 1_555 1_555
C37A C32A 1_555 1_555
C38A C37A 1_555 1_555
C39A C38A 1_555 1_555
C40A C39A 1_555 1_555
H40A C40A 1_555 1_555
C41A C40A 1_555 1_555
H41A C41A 1_555 1_555
C42A C41A 1_555 1_555
H42A C42A 1_555 1_555
C43A C30 1_555 1_555
C44A C31A 1_555 1_555
C45A C38A 1_555 1_555
C46A C45A 1_555 1_555
C47A Si2A 1_555 1_555
H43A C47A 1_555 1_555
C48A C47A 1_555 1_555
H44A C48A 1_555 1_555
H45A C48A 1_555 1_555
H46A C48A 1_555 1_555
C49A C47A 1_555 1_555
H47A C49A 1_555 1_555
H48A C49A 1_555 1_555
H49A C49A 1_555 1_555
C50A Si2A 1_555 1_555
H50A C50A 1_555 1_555
C51A C50A 1_555 1_555
H51A C51A 1_555 1_555
H52A C51A 1_555 1_555
H53A C51A 1_555 1_555
C52A C50A 1_555 1_555
H54A C52A 1_555 1_555
H55A C52A 1_555 1_555
H56A C52A 1_555 1_555
C53A Si2A 1_555 1_555
H57A C53A 1_555 1_555
C54A C53A 1_555 1_555
H58A C54A 1_555 1_555
H59A C54A 1_555 1_555
H60A C54A 1_555 1_555
C55A C53A 1_555 1_555
H61A C55A 1_555 1_555
H62A C55A 1_555 1_555
H63A C55A 1_555 1_555
C7 C8 1_555 1_555
C10 C15 1_555 1_555
C14 C15 1_555 1_555
C14 C1A 1_555 1_555
C36 C37 1_555 1_555
C39 C44 1_555 1_555
C43 C44 1_555 1_555
C43 C30A 1_555 1_555
C7A C8A 1_555 1_555
C10A C15A 1_555 1_555
C13A C14A 1_555 1_555
C14A C15A 1_555 1_555
C36A C37A 1_555 1_555
C39A C44A 1_555 1_555
C42A C43A 1_555 1_555
C43A C44A 1_555 1_555

#END
