
#######################################################################
#
#                 Cambridge Crystallographic Data Centre
#                                CCDC 
#
#######################################################################
#
# If this CIF has been generated from an entry in the Cambridge 
# Structural Database, then it will include bibliographic, chemical, 
# crystal, experimental, refinement or atomic coordinate data resulting 
# from the CCDC's data processing and validation procedures.
#
#######################################################################

data_QALKIA
_chemical_formula_moiety         'C18 H20 Cl1 F1 O5'
_chemical_name_systematic        
'(4-(4-chloro-3-fluorobenzylidene)-2-(hydroxymethyl)-5-oxotetrahydrofuran-2-yl)methyl pivalate'
_symmetry_cell_setting           monoclinic
_symmetry_space_group_name_H-M   'P 21/c'
_symmetry_Int_Tables_number      14
_space_group_name_Hall           '-P 2ybc'
loop_
_symmetry_equiv_pos_site_id
_symmetry_equiv_pos_as_xyz
1 x,y,z
2 -x,1/2+y,1/2-z
3 -x,-y,-z
4 x,1/2-y,1/2+z
_cell_length_a                   13.986(7)
_cell_length_b                   15.392(8)
_cell_length_c                   8.137(4)
_cell_angle_alpha                90
_cell_angle_beta                 103.172(10)
_cell_angle_gamma                90
_cell_volume                     1705.59
_exptl_crystal_colour            colorless
_exptl_crystal_description       plate
_cell_formula_units_Z            4
loop_
_atom_site_label
_atom_site_type_symbol
_atom_site_fract_x
_atom_site_fract_y
_atom_site_fract_z
O1 O 1.07790(8) 0.22878(7) 0.24995(13)
C1 C 1.06662(12) 0.13992(10) 0.30941(18)
C2 C 0.96125(12) 0.13512(10) 0.3331(2)
H1 H 0.9176 0.1054 0.2367
H2 H 0.9586 0.1042 0.4387
C3 C 0.93302(12) 0.22868(10) 0.34167(18)
C4 C 1.00678(12) 0.28108(10) 0.28183(18)
O2 O 1.00914(8) 0.35913(7) 0.25966(13)
C5 C 0.85755(12) 0.26787(11) 0.38569(19)
H3 H 0.8578 0.3295 0.3794
C6 C 0.77441(12) 0.23027(11) 0.44224(19)
C7 C 0.70964(6) 0.28845(10) 0.48996(17)
H4 H 0.7205 0.3492 0.4840
C8 C 0.61057(7) 0.16933(4) 0.55211(17)
C9 C 0.75680(6) 0.14136(10) 0.44817(17)
H5 H 0.8024 0.1010 0.4215
Cl1 Cl 0.51094(3) 0.13334(3) 0.62355(5)
C10 C 1.14341(12) 0.13177(11) 0.47576(19)
H6 H 1.2099 0.1323 0.4526
H7 H 1.1381 0.1823 0.5485
O3 O 1.13043(9) 0.05364(7) 0.56238(14)
H8 H 1.0950 0.0637 0.6308
C11 C 1.08514(12) 0.07853(11) 0.1749(2)
H9 H 1.0866 0.0176 0.2145
H10 H 1.0330 0.0843 0.0705
O4 O 1.17946(8) 0.10313(7) 0.14435(14)
C12 C 1.21865(12) 0.05048(11) 0.0456(2)
O5 O 1.17989(9) -0.01623(8) -0.01198(15)
C13 C 1.31639(12) 0.08593(11) 0.0222(2)
C14 C 1.30188(14) 0.17744(12) -0.0518(3)
H11 H 1.3649 0.2000 -0.0668
H12 H 1.2767 0.2154 0.0253
H13 H 1.2548 0.1756 -0.1612
C15 C 1.35642(15) 0.02732(14) -0.0967(3)
H14 H 1.3657 -0.0315 -0.0494
H15 H 1.4195 0.0501 -0.1106
H16 H 1.3099 0.0255 -0.2067
C16 C 1.38685(15) 0.08971(17) 0.1946(3)
H17 H 1.3964 0.0311 0.2426
H18 H 1.3595 0.1274 0.2695
H19 H 1.4501 0.1131 0.1828
C17 C 0.62886(10) 0.25814(7) 0.5465(3)
C18 C 0.67214(8) 0.11180(9) 0.4933(2)
H20 H 0.6562 0.0517 0.4840
F1 F 0.56780(12) 0.31120(12) 0.5927(2)
C19? C 0.68082(10) 0.11183(10) 0.5187(3)
F2? F 0.65895(19) 0.03043(17) 0.5163(3)
C20? C 0.62720(12) 0.25823(7) 0.5416(4)
H21? H 0.5820 0.2985 0.5698
loop_
_geom_bond_atom_site_label_1
_geom_bond_atom_site_label_2
_geom_bond_site_symmetry_1
_geom_bond_site_symmetry_2
O1 C1 1_555 1_555
C1 C2 1_555 1_555
C2 H1 1_555 1_555
H2 C2 1_555 1_555
C3 C2 1_555 1_555
C4 O1 1_555 1_555
O2 C4 1_555 1_555
C5 C3 1_555 1_555
H3 C5 1_555 1_555
C6 C5 1_555 1_555
C7 C6 1_555 1_555
H4 C7 1_555 1_555
C8 Cl1 1_555 1_555
C9 C6 1_555 1_555
H5 C9 1_555 1_555
C10 C1 1_555 1_555
H6 C10 1_555 1_555
H7 C10 1_555 1_555
O3 C10 1_555 1_555
H8 O3 1_555 1_555
C11 C1 1_555 1_555
H9 C11 1_555 1_555
H10 C11 1_555 1_555
O4 C11 1_555 1_555
C12 O4 1_555 1_555
O5 C12 1_555 1_555
C13 C12 1_555 1_555
C14 C13 1_555 1_555
H11 C14 1_555 1_555
H12 C14 1_555 1_555
H13 C14 1_555 1_555
C15 C13 1_555 1_555
H14 C15 1_555 1_555
H15 C15 1_555 1_555
H16 C15 1_555 1_555
C16 C13 1_555 1_555
H17 C16 1_555 1_555
H18 C16 1_555 1_555
H19 C16 1_555 1_555
C17 C7 1_555 1_555
C18 C8 1_555 1_555
H20 C18 1_555 1_555
F1 C17 1_555 1_555
C3 C4 1_555 1_555
C8 C17 1_555 1_555
C9 C18 1_555 1_555

#END
