
#######################################################################
#
#                 Cambridge Crystallographic Data Centre
#                                CCDC 
#
#######################################################################
#
# If this CIF has been generated from an entry in the Cambridge 
# Structural Database, then it will include bibliographic, chemical, 
# crystal, experimental, refinement or atomic coordinate data resulting 
# from the CCDC's data processing and validation procedures.
#
#######################################################################

data_QALPOK
_chemical_compound_source        
'twigs of Chisocheton paniculatus Hiern (Meliaceae)'
_chemical_name_common            'Chisonimbolinin A'
_chemical_formula_moiety         'C36 H48 O11'
_chemical_name_systematic        
"7,9-Diacetoxy-5-methoxy-1,6b,9a,12a-tetramethyl-2-(2-oxo-2,5-dihydrofuran-3-yl)-3,3a,6,6a,6b,7,8,9,9a,10,11a,11b,12,12a-tetradecahydro-2H,5H-cyclopenta[b]furo[2',3',4':4,5]naphtho[2,1-d]oxepin-12-yl 2-methylbut-2-enoate"
_chemical_properties_biological  
'Tested for cytotoxic activity against two cancer cell lines'
_symmetry_cell_setting           orthorhombic
_symmetry_space_group_name_H-M   'P 21 21 21'
_symmetry_Int_Tables_number      19
_space_group_name_Hall           'P 2ac 2ab'
loop_
_symmetry_equiv_pos_site_id
_symmetry_equiv_pos_as_xyz
1 x,y,z
2 1/2-x,-y,1/2+z
3 -x,1/2+y,1/2-z
4 1/2+x,1/2-y,-z
_cell_length_a                   10.1106(12)
_cell_length_b                   20.172(2)
_cell_length_c                   33.768(3)
_cell_angle_alpha                90
_cell_angle_beta                 90
_cell_angle_gamma                90
_cell_volume                     6887.02
_exptl_crystal_colour            colorless
_chemical_melting_point          '265-267 deg.C'
_cell_formula_units_Z            8
_exptl_crystal_recrystallization_method chloroform/methanol
loop_
_atom_site_label
_atom_site_type_symbol
_atom_site_fract_x
_atom_site_fract_y
_atom_site_fract_z
O1 O 1.0579(5) 1.22234(19) -0.01062(14)
O2 O 0.8848(6) 1.2039(3) -0.05086(19)
O3 O 0.8304(3) 1.05692(15) 0.09244(8)
O4 O 0.7074(3) 1.00990(18) 0.14349(9)
O5 O 0.7538(4) 0.74359(17) 0.01232(8)
O6 O 0.6667(3) 0.87820(15) 0.02206(8)
O7 O 0.6548(3) 0.9118(2) -0.04161(9)
O8 O 0.5337(3) 0.72412(19) 0.10976(10)
O9 O 0.4520(6) 0.6250(3) 0.1214(3)
O10 O 0.6274(3) 0.85013(15) 0.13915(8)
O11 O 0.5940(4) 0.8562(2) 0.20444(10)
C1 C 0.9504(7) 1.1870(3) -0.0226(2)
C2 C 0.9324(5) 1.1296(2) 0.00259(13)
C3 C 1.0304(6) 1.1310(3) 0.02832(14)
H1 H 1.0436 1.0995 0.0480
C4 C 1.1161(6) 1.1889(3) 0.02189(15)
H2 H 1.1178 1.2170 0.0452
H3 H 1.2057 1.1752 0.0157
C5 C 0.8188(5) 1.0820(2) -0.00213(12)
H4 H 0.7741 1.0897 -0.0274
C6 C 0.7197(5) 1.0856(2) 0.03160(13)
H5 H 0.6303 1.0798 0.0217
H6 H 0.7254 1.1280 0.0450
C7 C 0.7562(4) 1.0295(2) 0.05974(11)
H7 H 0.6765 1.0071 0.0694
C8 C 0.8392(4) 0.9826(2) 0.03467(11)
C9 C 0.8693(4) 1.0113(2) -0.00027(12)
C10 C 0.9396(5) 0.9861(3) -0.03610(12)
H8 H 0.9704 0.9418 -0.0313
H9 H 1.0136 1.0143 -0.0419
H10 H 0.8801 0.9859 -0.0582
C11 C 0.8779(4) 0.9126(2) 0.04835(11)
C12 C 0.8067(4) 0.8625(2) 0.02039(12)
H11 H 0.8395 0.8674 -0.0068
C13 C 0.8258(5) 0.7930(2) 0.03431(12)
H12 H 0.9203 0.7821 0.0340
C14 C 0.7733(4) 0.7857(2) 0.07569(11)
H13 H 0.6831 0.8032 0.0740
C15 C 0.8381(4) 0.8279(2) 0.10767(11)
C16 C 0.8298(4) 0.9013(2) 0.09254(10)
H14 H 0.7354 0.9123 0.0925
C17 C 0.8943(4) 0.9499(2) 0.12218(11)
H15 H 0.8950 0.9287 0.1480
H16 H 0.9858 0.9559 0.1143
C18 C 0.8340(5) 1.0171(2) 0.12698(12)
H17 H 0.8878 1.0409 0.1465
C19 C 0.6897(6) 0.6977(3) 0.03988(14)
H18 H 0.7048 0.6521 0.0319
H19 H 0.5951 0.7056 0.0408
C20 C 0.7536(5) 0.7114(2) 0.08075(13)
C21 C 0.6683(5) 0.7017(3) 0.11770(14)
H20 H 0.6667 0.6545 0.1247
C22 C 0.7240(5) 0.7414(2) 0.15256(13)
H21 H 0.8055 0.7204 0.1611
H22 H 0.6618 0.7384 0.1744
C23 C 0.7528(4) 0.8154(2) 0.14491(12)
H23 H 0.7979 0.8341 0.1680
C24 C 1.0286(4) 0.9045(3) 0.04417(13)
H24 H 1.0520 0.9046 0.0166
H25 H 1.0554 0.8634 0.0560
H26 H 1.0723 0.9406 0.0573
C25 C 0.6062(5) 0.9073(3) -0.00894(13)
C26 C 0.4765(4) 0.9352(2) 0.00376(12)
C27 C 0.4281(5) 0.9832(3) -0.01795(13)
H27 H 0.4756 0.9942 -0.0406
C28 C 0.3045(6) 1.0224(3) -0.01035(18)
H28 H 0.2448 1.0171 -0.0322
H29 H 0.3266 1.0684 -0.0074
H30 H 0.2630 1.0067 0.0134
C29 C 0.4149(5) 0.9083(3) 0.04089(16)
H31 H 0.3301 0.9287 0.0449
H32 H 0.4711 0.9178 0.0631
H33 H 0.4039 0.8612 0.0384
C30 C 0.9809(4) 0.8070(2) 0.11934(14)
H34 H 0.9771 0.7730 0.1392
H35 H 1.0277 0.8447 0.1296
H36 H 1.0262 0.7902 0.0964
C31 C 0.6555(6) 1.0705(3) 0.15799(16)
H37 H 0.6956 1.0807 0.1830
H38 H 0.5616 1.0664 0.1613
H39 H 0.6742 1.1053 0.1395
C32 C 0.8785(5) 0.6689(3) 0.08449(16)
H40 H 0.8559 0.6231 0.0811
H41 H 0.9168 0.6753 0.1102
H42 H 0.9410 0.6818 0.0645
C33 C 0.4354(7) 0.6825(4) 0.1102(2)
C34 C 0.3062(5) 0.7119(4) 0.0994(2)
H43 H 0.2418 0.6773 0.0963
H44 H 0.3149 0.7358 0.0749
H45 H 0.2782 0.7417 0.1199
C35 C 0.5577(5) 0.8663(3) 0.17144(15)
C36 C 0.4303(6) 0.8984(4) 0.16000(17)
H46 H 0.3765 0.8672 0.1458
H47 H 0.4480 0.9361 0.1434
H48 H 0.3844 0.9126 0.1834
O12 O -0.3672(4) 0.5775(2) 0.41444(11)
O13 O -0.2047(5) 0.5315(2) 0.37872(14)
O14 O -0.0725(3) 0.77672(14) 0.39687(7)
O15 O 0.0959(4) 0.85203(17) 0.40925(9)
O16 O -0.0214(3) 0.92498(17) 0.21599(8)
O17 O 0.0341(3) 0.82181(14) 0.26910(7)
O18 O -0.0162(4) 0.74887(19) 0.22099(10)
O19 O 0.2845(3) 1.01320(15) 0.27591(9)
O20 O 0.3587(4) 1.0597(2) 0.22035(12)
O21 O 0.1867(3) 0.95759(14) 0.34578(8)
O22 O 0.2737(4) 1.0110(2) 0.39787(10)
C37 C -0.2701(6) 0.5793(3) 0.38581(15)
C38 C -0.2646(5) 0.6456(2) 0.36929(12)
C39 C -0.3534(6) 0.6817(3) 0.38748(15)
H49 H -0.3696 0.7262 0.3823
C40 C -0.4247(6) 0.6415(3) 0.41768(16)
H50 H -0.4118 0.6596 0.4440
H51 H -0.5187 0.6399 0.4120
C41 C -0.1657(4) 0.6645(2) 0.33785(12)
H52 H -0.1559 0.6280 0.3190
C42 C -0.0308(4) 0.6830(2) 0.35448(12)
H53 H -0.0177 0.6634 0.3804
H54 H 0.0394 0.6682 0.3370
C43 C -0.0330(4) 0.7578(2) 0.35717(10)
H55 H 0.0539 0.7763 0.3506
C44 C -0.1355(4) 0.7793(2) 0.32723(10)
C45 C -0.2065(4) 0.7266(2) 0.31609(11)
C46 C -0.3187(5) 0.7212(3) 0.28689(15)
H56 H -0.4014 0.7261 0.3006
H57 H -0.3157 0.6787 0.2742
H58 H -0.3105 0.7556 0.2673
C47 C -0.1464(4) 0.8507(2) 0.31277(11)
C48 C -0.0964(4) 0.8504(2) 0.26903(11)
H59 H -0.1561 0.8248 0.2521
C49 C -0.0835(4) 0.9208(2) 0.25413(11)
H60 H -0.1710 0.9416 0.2531
C50 C 0.0047(4) 0.9599(2) 0.28058(11)
H61 H 0.0839 0.9322 0.2829
C51 C -0.0393(4) 0.9696(2) 0.32330(11)
C52 C -0.0593(4) 0.89723(19) 0.33925(10)
H62 H 0.0291 0.8773 0.3388
C53 C -0.1018(5) 0.8958(2) 0.38341(12)
H63 H -0.0791 0.9382 0.3952
H64 H -0.1973 0.8915 0.3845
C54 C -0.0423(5) 0.8418(2) 0.40845(12)
H65 H -0.0752 0.8477 0.4355
C55 C 0.0810(5) 0.9756(2) 0.21722(12)
H66 H 0.0781 1.0029 0.1936
H67 H 0.1679 0.9555 0.2193
C56 C 0.0497(4) 1.0172(2) 0.25447(12)
C57 C 0.1634(4) 1.0525(2) 0.27549(13)
H68 H 0.1806 1.0950 0.2624
C58 C 0.1293(5) 1.0648(2) 0.31909(13)
H69 H 0.0621 1.0990 0.3202
H70 H 0.2075 1.0822 0.3321
C59 C 0.0799(4) 1.0054(2) 0.34323(12)
H71 H 0.0550 1.0200 0.3699
C60 C -0.2944(4) 0.8715(2) 0.31344(14)
H72 H -0.3368 0.8567 0.2896
H73 H -0.3006 0.9189 0.3152
H74 H -0.3371 0.8518 0.3359
C61 C 0.0631(5) 0.7736(2) 0.24288(13)
C62 C 0.2058(4) 0.7552(3) 0.24582(14)
C63 C 0.2507(6) 0.7106(3) 0.22085(18)
H75 H 0.1903 0.6939 0.2026
C64 C 0.3894(6) 0.6836(4) 0.2186(2)
H76 H 0.4468 0.7165 0.2073
H77 H 0.3902 0.6446 0.2023
H78 H 0.4195 0.6726 0.2447
C65 C 0.2898(6) 0.7875(4) 0.2764(2)
H79 H 0.3797 0.7730 0.2734
H80 H 0.2584 0.7755 0.3023
H81 H 0.2855 0.8347 0.2734
C66 C -0.1601(5) 1.0157(2) 0.32951(14)
H82 H -0.1313 1.0610 0.3298
H83 H -0.2019 1.0052 0.3543
H84 H -0.2221 1.0093 0.3083
C67 C 0.1625(7) 0.8075(3) 0.43513(18)
H85 H 0.1220 0.8091 0.4608
H86 H 0.2537 0.8202 0.4373
H87 H 0.1566 0.7633 0.4248
C68 C -0.0569(5) 1.0686(3) 0.24455(16)
H88 H -0.1355 1.0464 0.2357
H89 H -0.0253 1.0974 0.2240
H90 H -0.0767 1.0943 0.2677
C69 C 0.3770(5) 1.0250(3) 0.24860(16)
C70 C 0.5009(6) 0.9882(3) 0.25687(19)
H91 H 0.4816 0.9419 0.2595
H92 H 0.5394 1.0043 0.2810
H93 H 0.5620 0.9948 0.2355
C71 C 0.2788(5) 0.9675(3) 0.37397(14)
C72 C 0.3858(6) 0.9168(3) 0.37059(16)
H94 H 0.4656 0.9338 0.3822
H95 H 0.4011 0.9068 0.3432
H96 H 0.3596 0.8772 0.3842
loop_
_geom_bond_atom_site_label_1
_geom_bond_atom_site_label_2
_geom_bond_site_symmetry_1
_geom_bond_site_symmetry_2
O1 C1 1_555 1_555
O2 C1 1_555 1_555
O3 C7 1_555 1_555
O4 C18 1_555 1_555
O5 C13 1_555 1_555
O6 C12 1_555 1_555
O7 C25 1_555 1_555
O8 C21 1_555 1_555
O9 C33 1_555 1_555
O10 C23 1_555 1_555
O11 C35 1_555 1_555
O12 C37 1_555 1_555
O13 C37 1_555 1_555
O14 C43 1_555 1_555
O15 C54 1_555 1_555
O16 C49 1_555 1_555
O17 C48 1_555 1_555
O18 C61 1_555 1_555
O19 C57 1_555 1_555
O20 C69 1_555 1_555
O21 C59 1_555 1_555
O22 C71 1_555 1_555
C1 C2 1_555 1_555
C2 C3 1_555 1_555
C3 H1 1_555 1_555
C4 O1 1_555 1_555
H2 C4 1_555 1_555
H3 C4 1_555 1_555
C5 C2 1_555 1_555
H4 C5 1_555 1_555
C6 C5 1_555 1_555
H5 C6 1_555 1_555
H6 C6 1_555 1_555
C7 C6 1_555 1_555
H7 C7 1_555 1_555
C8 C7 1_555 1_555
C9 C5 1_555 1_555
C10 C9 1_555 1_555
H8 C10 1_555 1_555
H9 C10 1_555 1_555
H10 C10 1_555 1_555
C11 C8 1_555 1_555
C12 C11 1_555 1_555
H11 C12 1_555 1_555
C13 C12 1_555 1_555
H12 C13 1_555 1_555
C14 C13 1_555 1_555
H13 C14 1_555 1_555
C15 C14 1_555 1_555
C16 C11 1_555 1_555
H14 C16 1_555 1_555
C17 C16 1_555 1_555
H15 C17 1_555 1_555
H16 C17 1_555 1_555
C18 O3 1_555 1_555
H17 C18 1_555 1_555
C19 O5 1_555 1_555
H18 C19 1_555 1_555
H19 C19 1_555 1_555
C20 C14 1_555 1_555
C21 C20 1_555 1_555
H20 C21 1_555 1_555
C22 C21 1_555 1_555
H21 C22 1_555 1_555
H22 C22 1_555 1_555
C23 C15 1_555 1_555
H23 C23 1_555 1_555
C24 C11 1_555 1_555
H24 C24 1_555 1_555
H25 C24 1_555 1_555
H26 C24 1_555 1_555
C25 O6 1_555 1_555
C26 C25 1_555 1_555
C27 C26 1_555 1_555
H27 C27 1_555 1_555
C28 C27 1_555 1_555
H28 C28 1_555 1_555
H29 C28 1_555 1_555
H30 C28 1_555 1_555
C29 C26 1_555 1_555
H31 C29 1_555 1_555
H32 C29 1_555 1_555
H33 C29 1_555 1_555
C30 C15 1_555 1_555
H34 C30 1_555 1_555
H35 C30 1_555 1_555
H36 C30 1_555 1_555
C31 O4 1_555 1_555
H37 C31 1_555 1_555
H38 C31 1_555 1_555
H39 C31 1_555 1_555
C32 C20 1_555 1_555
H40 C32 1_555 1_555
H41 C32 1_555 1_555
H42 C32 1_555 1_555
C33 O8 1_555 1_555
C34 C33 1_555 1_555
H43 C34 1_555 1_555
H44 C34 1_555 1_555
H45 C34 1_555 1_555
C35 O10 1_555 1_555
C36 C35 1_555 1_555
H46 C36 1_555 1_555
H47 C36 1_555 1_555
H48 C36 1_555 1_555
C37 C38 1_555 1_555
C38 C39 1_555 1_555
C39 H49 1_555 1_555
C40 O12 1_555 1_555
H50 C40 1_555 1_555
H51 C40 1_555 1_555
C41 C38 1_555 1_555
H52 C41 1_555 1_555
C42 C41 1_555 1_555
H53 C42 1_555 1_555
H54 C42 1_555 1_555
C43 C42 1_555 1_555
H55 C43 1_555 1_555
C44 C43 1_555 1_555
C45 C41 1_555 1_555
C46 C45 1_555 1_555
H56 C46 1_555 1_555
H57 C46 1_555 1_555
H58 C46 1_555 1_555
C47 C44 1_555 1_555
C48 C47 1_555 1_555
H59 C48 1_555 1_555
C49 C48 1_555 1_555
H60 C49 1_555 1_555
C50 C49 1_555 1_555
H61 C50 1_555 1_555
C51 C50 1_555 1_555
C52 C47 1_555 1_555
H62 C52 1_555 1_555
C53 C52 1_555 1_555
H63 C53 1_555 1_555
H64 C53 1_555 1_555
C54 O14 1_555 1_555
H65 C54 1_555 1_555
C55 O16 1_555 1_555
H66 C55 1_555 1_555
H67 C55 1_555 1_555
C56 C50 1_555 1_555
C57 C56 1_555 1_555
H68 C57 1_555 1_555
C58 C57 1_555 1_555
H69 C58 1_555 1_555
H70 C58 1_555 1_555
C59 C51 1_555 1_555
H71 C59 1_555 1_555
C60 C47 1_555 1_555
H72 C60 1_555 1_555
H73 C60 1_555 1_555
H74 C60 1_555 1_555
C61 O17 1_555 1_555
C62 C61 1_555 1_555
C63 C62 1_555 1_555
H75 C63 1_555 1_555
C64 C63 1_555 1_555
H76 C64 1_555 1_555
H77 C64 1_555 1_555
H78 C64 1_555 1_555
C65 C62 1_555 1_555
H79 C65 1_555 1_555
H80 C65 1_555 1_555
H81 C65 1_555 1_555
C66 C51 1_555 1_555
H82 C66 1_555 1_555
H83 C66 1_555 1_555
H84 C66 1_555 1_555
C67 O15 1_555 1_555
H85 C67 1_555 1_555
H86 C67 1_555 1_555
H87 C67 1_555 1_555
C68 C56 1_555 1_555
H88 C68 1_555 1_555
H89 C68 1_555 1_555
H90 C68 1_555 1_555
C69 O19 1_555 1_555
C70 C69 1_555 1_555
H91 C70 1_555 1_555
H92 C70 1_555 1_555
H93 C70 1_555 1_555
C71 O21 1_555 1_555
C72 C71 1_555 1_555
H94 C72 1_555 1_555
H95 C72 1_555 1_555
H96 C72 1_555 1_555
C3 C4 1_555 1_555
C8 C9 1_555 1_555
C15 C16 1_555 1_555
C17 C18 1_555 1_555
C19 C20 1_555 1_555
C22 C23 1_555 1_555
C39 C40 1_555 1_555
C44 C45 1_555 1_555
C51 C52 1_555 1_555
C53 C54 1_555 1_555
C55 C56 1_555 1_555
C58 C59 1_555 1_555

#END
