
#######################################################################
#
#                 Cambridge Crystallographic Data Centre
#                                CCDC 
#
#######################################################################
#
# If this CIF has been generated from an entry in the Cambridge 
# Structural Database, then it will include bibliographic, chemical, 
# crystal, experimental, refinement or atomic coordinate data resulting 
# from the CCDC's data processing and validation procedures.
#
#######################################################################

data_QALPEA01
_chemical_formula_moiety         'C18 H18 N2 O7 S2,H2 O1'
_chemical_name_systematic        
'5,6,15-Trihydroxy-21,22-dithia-3,13-diazaheptacyclo[14.4.1.1^7,11^.0^1,13^.0^3,11^.0^4,9^.0^14,19^]docosane-2,8,12,18-tetrone monohydrate'
_symmetry_cell_setting           orthorhombic
_symmetry_space_group_name_H-M   'P 21 21 21'
_symmetry_Int_Tables_number      19
_space_group_name_Hall           'P 2ac 2ab'
loop_
_symmetry_equiv_pos_site_id
_symmetry_equiv_pos_as_xyz
1 x,y,z
2 1/2-x,-y,1/2+z
3 -x,1/2+y,1/2-z
4 1/2+x,1/2-y,-z
_cell_length_a                   7.6764(15)
_cell_length_b                   11.059(2)
_cell_length_c                   21.829(4)
_cell_angle_alpha                90
_cell_angle_beta                 90
_cell_angle_gamma                90
_cell_volume                     1853.14
_exptl_crystal_colour            colorless
_exptl_crystal_description       block
_cell_formula_units_Z            4
loop_
_atom_site_label
_atom_site_type_symbol
_atom_site_fract_x
_atom_site_fract_y
_atom_site_fract_z
S1 S 1.01392(11) 0.78223(6) 0.02986(3)
S2 S 0.63841(8) 0.80063(6) 0.15185(3)
O1 O 1.2673(4) 0.9806(2) -0.06803(10)
O2 O 1.1987(2) 0.70242(18) 0.14955(8)
O3 O 0.8105(3) 0.51547(17) 0.25322(8)
H1 H 0.8038 0.4589 0.2276
O4 O 0.6334(3) 0.71237(19) 0.36446(8)
O5 O 0.7740(3) 1.08696(16) 0.15807(9)
O6 O 0.9773(3) 1.18416(17) -0.02601(8)
H2 H 0.9287 1.1982 -0.0598
O7 O 0.7694(4) 1.0196(2) -0.07607(11)
H3 H 0.7473 0.9583 -0.0974
N1 N 0.9707(3) 0.80173(19) 0.19227(8)
N2 N 0.9742(3) 0.97899(18) 0.10513(8)
C1 C 0.9997(5) 0.9033(3) -0.02730(12)
H4 H 0.9911 0.8649 -0.0687
C2 C 1.1663(5) 0.9750(3) -0.02500(13)
C3 C 1.1995(4) 1.0344(3) 0.03598(12)
H5 H 1.2869 1.1011 0.0325
C4 C 1.2600(4) 0.9354(2) 0.08127(12)
H6 H 1.3435 0.8789 0.0619
H7 H 1.3135 0.9709 0.1184
C5 C 1.0870(4) 0.8734(2) 0.09586(11)
C6 C 1.0903(3) 0.7844(2) 0.14885(11)
C7 C 0.9320(3) 0.7122(2) 0.24047(10)
H8 H 1.0414 0.6772 0.2580
C8 C 0.8191(3) 0.6142(2) 0.21092(11)
H9 H 0.8723 0.5870 0.1714
C9 C 0.6336(4) 0.6638(2) 0.19964(11)
H10 H 0.5672 0.6006 0.1767
C10 C 0.5431(4) 0.6819(3) 0.26144(11)
H11 H 0.4482 0.7417 0.2566
H12 H 0.4902 0.6044 0.2745
C11 C 0.6672(3) 0.7251(2) 0.31052(11)
C12 C 0.8308(3) 0.7874(2) 0.28931(10)
H13 H 0.9081 0.8043 0.3252
C13 C 0.7844(4) 0.9081(2) 0.25611(11)
H14 H 0.6606 0.9295 0.2626
H15 H 0.8585 0.9752 0.2710
C14 C 0.8204(3) 0.8815(2) 0.18818(11)
C15 C 0.8549(3) 0.9923(2) 0.14942(11)
C16 C 1.0263(4) 1.0794(2) 0.06412(11)
H16 H 1.0471 1.1544 0.0886
C17 C 0.8903(4) 1.1037(3) 0.01447(12)
H17 H 0.7848 1.1432 0.0324
C18 C 0.8402(5) 0.9855(3) -0.01863(13)
H18 H 0.7497 0.9419 0.0058
O8 O 0.7595(3) 0.34329(19) 0.16282(9)
H19 H 0.7390 0.3758 0.1288
H20 H 0.7502 0.2683 0.1577
loop_
_geom_bond_atom_site_label_1
_geom_bond_atom_site_label_2
_geom_bond_site_symmetry_1
_geom_bond_site_symmetry_2
S1 C1 1_555 1_555
S2 C9 1_555 1_555
O1 C2 1_555 1_555
O2 C6 1_555 1_555
O3 H1 1_555 1_555
O4 C11 1_555 1_555
O5 C15 1_555 1_555
O6 H2 1_555 1_555
O7 H3 1_555 1_555
N1 C6 1_555 1_555
N2 C5 1_555 1_555
C1 H4 1_555 1_555
C2 C1 1_555 1_555
C3 C2 1_555 1_555
H5 C3 1_555 1_555
C4 C3 1_555 1_555
H6 C4 1_555 1_555
H7 C4 1_555 1_555
C5 S1 1_555 1_555
C6 C5 1_555 1_555
C7 N1 1_555 1_555
H8 C7 1_555 1_555
C8 O3 1_555 1_555
H9 C8 1_555 1_555
C9 C8 1_555 1_555
H10 C9 1_555 1_555
C10 C9 1_555 1_555
H11 C10 1_555 1_555
H12 C10 1_555 1_555
C11 C10 1_555 1_555
C12 C7 1_555 1_555
H13 C12 1_555 1_555
C13 C12 1_555 1_555
H14 C13 1_555 1_555
H15 C13 1_555 1_555
C14 S2 1_555 1_555
C15 N2 1_555 1_555
C16 N2 1_555 1_555
H16 C16 1_555 1_555
C17 O6 1_555 1_555
H17 C17 1_555 1_555
C18 O7 1_555 1_555
H18 C18 1_555 1_555
O8 H19 1_555 1_555
H20 O8 1_555 1_555
N1 C14 1_555 1_555
C1 C18 1_555 1_555
C3 C16 1_555 1_555
C4 C5 1_555 1_555
C7 C8 1_555 1_555
C11 C12 1_555 1_555
C13 C14 1_555 1_555
C14 C15 1_555 1_555
C16 C17 1_555 1_555
C17 C18 1_555 1_555

#END
