
#######################################################################
#
#                 Cambridge Crystallographic Data Centre
#                                CCDC 
#
#######################################################################
#
# If this CIF has been generated from an entry in the Cambridge 
# Structural Database, then it will include bibliographic, chemical, 
# crystal, experimental, refinement or atomic coordinate data resulting 
# from the CCDC's data processing and validation procedures.
#
#######################################################################

data_QALRIH
_chemical_formula_moiety         'C25 H27 Br1 N2 O2'
_chemical_name_systematic        
't-butyl \b-anilino-4-bromo-N-phenylphenylalaninate'
_symmetry_cell_setting           orthorhombic
_symmetry_space_group_name_H-M   'P 21 21 21'
_symmetry_Int_Tables_number      19
_space_group_name_Hall           'P 2ac 2ab'
loop_
_symmetry_equiv_pos_site_id
_symmetry_equiv_pos_as_xyz
1 x,y,z
2 1/2-x,-y,1/2+z
3 -x,1/2+y,1/2-z
4 1/2+x,1/2-y,-z
_cell_length_a                   9.8286(4)
_cell_length_b                   13.9786(5)
_cell_length_c                   17.4744(6)
_cell_angle_alpha                90
_cell_angle_beta                 90
_cell_angle_gamma                90
_cell_volume                     2400.81
_exptl_crystal_colour            colorless
_exptl_crystal_description       block
_cell_formula_units_Z            4
loop_
_atom_site_label
_atom_site_type_symbol
_atom_site_fract_x
_atom_site_fract_y
_atom_site_fract_z
Br1 Br 0.90072(5) 0.06017(4) 0.06117(3)
O1 O 1.3533(2) 0.27041(14) 0.23661(11)
C1 C 1.0238(4) 0.0658(2) 0.14473(18)
C2 C 1.2013(3) 0.0679(2) 0.26650(15)
O2 O 1.2962(3) 0.28677(16) 0.36008(13)
C3 C 1.1630(3) 0.0138(2) 0.44237(19)
C4 C 1.4141(3) 0.1446(2) 0.31872(16)
H1 H 1.4622 0.1282 0.2714
C5 C 1.3488(3) 0.2438(2) 0.30888(16)
N1 N 1.5095(2) 0.14077(19) 0.38112(15)
H2 H 1.4900 0.1054 0.4199
C6 C 1.2886(3) 0.3600(2) 0.20951(18)
C7 C 1.3025(3) 0.0696(2) 0.33248(15)
H3 H 1.3476 0.0071 0.3329
C8 C 1.7099(3) 0.1892(2) 0.44806(18)
H4 H 1.6796 0.1564 0.4911
C9 C 1.0756(3) 0.0423(3) 0.5008(2)
H5 H 1.0700 0.1065 0.5144
C10 C 1.8804(4) 0.2844(3) 0.3872(2)
H6 H 1.9643 0.3153 0.3887
C11 C 0.9790(3) 0.0970(2) 0.2138(2)
H7 H 0.8899 0.1181 0.2198
C12 C 1.6787(3) 0.2411(2) 0.31933(18)
H8 H 1.6270 0.2438 0.2748
C13 C 1.6309(3) 0.1910(2) 0.38220(16)
N2 N 1.2443(2) 0.08273(18) 0.40739(13)
H9 H 1.2603 0.1352 0.4315
C14 C 1.0686(3) 0.0970(2) 0.27563(18)
H10 H 1.0383 0.1168 0.3235
C15 C 1.8328(3) 0.2359(2) 0.4496(2)
H11 H 1.8847 0.2344 0.4940
C16 C 1.1556(4) 0.0376(3) 0.1335(2)
H12 H 1.1854 0.0181 0.0854
C17 C 1.1688(4) -0.0814(3) 0.4227(2)
H13 H 1.2252 -0.1021 0.3833
C18 C 1.2426(4) 0.0388(3) 0.19499(18)
H14 H 1.3323 0.0193 0.1881
C19 C 1.3491(4) 0.4448(3) 0.2507(3)
H15 H 1.3258 0.4417 0.3040
H16 H 1.3137 0.5028 0.2291
H17 H 1.4463 0.4437 0.2452
C20 C 1.0872(7) -0.1469(4) 0.4637(3)
H18 H 1.0923 -0.2116 0.4516
C21 C 1.8028(4) 0.2868(3) 0.3227(2)
H19 H 1.8341 0.3199 0.2800
C22 C 1.0026(6) -0.1184(5) 0.5194(4)
H20 H 0.9478 -0.1625 0.5447
C23 C 1.1370(4) 0.3546(3) 0.2217(3)
H21 H 1.1177 0.3553 0.2755
H22 H 1.1027 0.2966 0.1996
H23 H 1.0941 0.4085 0.1977
C24 C 1.3237(6) 0.3607(4) 0.1257(2)
H24 H 1.4207 0.3644 0.1197
H25 H 1.2821 0.4151 0.1016
H26 H 1.2908 0.3031 0.1022
C25 C 0.9981(4) -0.0243(5) 0.5382(3)
H27 H 0.9408 -0.0045 0.5776
loop_
_geom_bond_atom_site_label_1
_geom_bond_atom_site_label_2
_geom_bond_site_symmetry_1
_geom_bond_site_symmetry_2
Br1 C1 1_555 1_555
O1 C5 1_555 1_555
C1 C11 1_555 1_555
C2 C7 1_555 1_555
O2 C5 1_555 1_555
C3 C9 1_555 1_555
C4 H1 1_555 1_555
C5 C4 1_555 1_555
N1 C4 1_555 1_555
H2 N1 1_555 1_555
C6 O1 1_555 1_555
C7 C4 1_555 1_555
H3 C7 1_555 1_555
C8 H4 1_555 1_555
C9 H5 1_555 1_555
C10 H6 1_555 1_555
C11 H7 1_555 1_555
C12 H8 1_555 1_555
C13 N1 1_555 1_555
N2 C3 1_555 1_555
H9 N2 1_555 1_555
C14 C2 1_555 1_555
H10 C14 1_555 1_555
C15 C8 1_555 1_555
H11 C15 1_555 1_555
C16 C1 1_555 1_555
H12 C16 1_555 1_555
C17 C3 1_555 1_555
H13 C17 1_555 1_555
C18 C2 1_555 1_555
H14 C18 1_555 1_555
C19 C6 1_555 1_555
H15 C19 1_555 1_555
H16 C19 1_555 1_555
H17 C19 1_555 1_555
C20 C17 1_555 1_555
H18 C20 1_555 1_555
C21 C10 1_555 1_555
H19 C21 1_555 1_555
C22 C20 1_555 1_555
H20 C22 1_555 1_555
C23 C6 1_555 1_555
H21 C23 1_555 1_555
H22 C23 1_555 1_555
H23 C23 1_555 1_555
C24 C6 1_555 1_555
H24 C24 1_555 1_555
H25 C24 1_555 1_555
H26 C24 1_555 1_555
C25 C9 1_555 1_555
H27 C25 1_555 1_555
C7 N2 1_555 1_555
C8 C13 1_555 1_555
C10 C15 1_555 1_555
C11 C14 1_555 1_555
C12 C13 1_555 1_555
C12 C21 1_555 1_555
C16 C18 1_555 1_555
C22 C25 1_555 1_555

#END
