
#######################################################################
#
#                 Cambridge Crystallographic Data Centre
#                                CCDC 
#
#######################################################################
#
# If this CIF has been generated from an entry in the Cambridge 
# Structural Database, then it will include bibliographic, chemical, 
# crystal, experimental, refinement or atomic coordinate data resulting 
# from the CCDC's data processing and validation procedures.
#
#######################################################################

data_QALRIG
_chemical_formula_moiety         'C37 H33 Br1 N6 O2,C1 H4 O1'
_chemical_name_systematic        
'N-Benzyl-2-((4S)-4-((5-bromo-1H-indol-3-yl)methyl)-5-oxo-1-phenyl-4,5-dihydro-6H-[1,2,4]triazolo[4,3-a][1,5]benzodiazepin-6-yl)-N-isopropylacetamide methanol solvate'
_symmetry_cell_setting           monoclinic
_symmetry_space_group_name_H-M   'P 21'
_symmetry_Int_Tables_number      4
_space_group_name_Hall           'P 2yb'
loop_
_symmetry_equiv_pos_site_id
_symmetry_equiv_pos_as_xyz
1 x,y,z
2 -x,1/2+y,-z
_cell_length_a                   10.0678(6)
_cell_length_b                   10.8157(7)
_cell_length_c                   15.8498(10)
_cell_angle_alpha                90
_cell_angle_beta                 102.256(2)
_cell_angle_gamma                90
_cell_volume                     1686.55
_exptl_crystal_colour            colorless
_exptl_crystal_description       needle
_cell_formula_units_Z            2
_exptl_crystal_recrystallization_method methanol/water
loop_
_atom_site_label
_atom_site_type_symbol
_atom_site_fract_x
_atom_site_fract_y
_atom_site_fract_z
N1 N 0.8055(5) -0.1324(4) 0.2071(3)
C1 C 0.8127(5) -0.2586(6) 0.2016(3)
N2 N 0.9143(5) -0.2904(4) 0.1662(3)
N3 N 0.9785(5) -0.1815(5) 0.1483(3)
C2 C 0.9105(6) -0.0899(6) 0.1724(4)
C3 C 0.9391(6) 0.0448(5) 0.1722(4)
H1 H 0.8544 0.0880 0.1471
O1 O 1.0996(4) 0.1104(4) 0.3006(3)
C4 C 0.9834(7) 0.0835(5) 0.2666(4)
N4 N 0.8829(5) 0.0823(4) 0.3146(3)
C5 C 0.7435(6) 0.0539(5) 0.2775(4)
C6 C 0.7045(6) -0.0527(6) 0.2297(4)
C7 C 0.7256(6) -0.3484(6) 0.2339(4)
C8 C 0.6990(6) -0.3324(5) 0.3153(5)
H2 H 0.7305 -0.2623 0.3473
C9 C 0.6263(6) -0.4200(6) 0.3486(5)
H3 H 0.6081 -0.4092 0.4033
C10 C 0.5803(7) -0.5232(7) 0.3018(6)
H4 H 0.5320 -0.5825 0.3253
C11 C 0.6046(6) -0.5406(6) 0.2202(5)
H5 H 0.5720 -0.6106 0.1883
C12 C 0.6786(6) -0.4519(6) 0.1863(4)
H6 H 0.6963 -0.4625 0.1315
C13 C 1.0460(6) 0.0798(5) 0.1206(4)
H7 H 1.1337 0.0483 0.1503
H8 H 1.0231 0.0406 0.0644
C14 C 1.0566(6) 0.2171(5) 0.1087(4)
C15 C 0.9698(6) 0.3085(6) 0.1169(4)
H9 H 0.8873 0.2968 0.1333
N5 N 1.0189(5) 0.4224(5) 0.0976(4)
H10 H 0.973(6) 0.493(5) 0.110(4)
C16 C 1.1429(6) 0.4027(6) 0.0745(4)
C17 C 1.1672(5) 0.2752(6) 0.0796(3)
C18 C 1.2872(6) 0.2296(5) 0.0591(4)
H11 H 1.3071 0.1456 0.0615
C19 C 1.3722(6) 0.3132(6) 0.0358(4)
Br1 Br 1.54243(6) 0.25898(8) 0.01151(5)
C20 C 1.3475(6) 0.4402(6) 0.0282(4)
H12 H 1.4086 0.4928 0.0097
C21 C 1.2310(7) 0.4856(5) 0.0486(4)
H13 H 1.2118 0.5698 0.0452
C22 C 0.9171(6) 0.1124(5) 0.4054(4)
H14 H 0.8602 0.1801 0.4167
H15 H 1.0110 0.1396 0.4206
C23 C 0.8981(6) 0.0027(6) 0.4614(4)
O2 O 0.8883(4) -0.1025(4) 0.4304(3)
N6 N 0.8920(4) 0.0277(4) 0.5433(3)
C24 C 0.8969(6) -0.0779(6) 0.6034(4)
H16 H 0.8798 -0.1537 0.5690
C25 C 1.0367(6) -0.0886(6) 0.6625(4)
H17 H 1.1042 -0.0975 0.6283
H18 H 1.0389 -0.1595 0.6992
H19 H 1.0553 -0.0155 0.6974
C26 C 0.7881(7) -0.0670(6) 0.6558(4)
H20 H 0.7006 -0.0609 0.6176
H21 H 0.8043 0.0055 0.6914
H22 H 0.7904 -0.1388 0.6917
C27 C 0.9078(6) 0.1531(5) 0.5784(4)
H23 H 0.9746 0.1961 0.5532
H24 H 0.9437 0.1479 0.6401
C28 C 0.7794(7) 0.2290(6) 0.5629(4)
C29 C 0.6561(7) 0.1864(6) 0.5167(5)
H25 H 0.6508 0.1084 0.4914
C30 C 0.5412(7) 0.2580(10) 0.5074(4)
H26 H 0.4581 0.2279 0.4772
C31 C 0.5495(8) 0.3743(8) 0.5429(6)
H27 H 0.4719 0.4228 0.5377
C32 C 0.6726(9) 0.4185(7) 0.5860(5)
H28 H 0.6792 0.4981 0.6087
C33 C 0.7863(8) 0.3455(6) 0.5958(5)
H29 H 0.8695 0.3762 0.6253
C34 C 0.6423(7) 0.1311(6) 0.2919(4)
H30 H 0.6659 0.2043 0.3222
C35 C 0.5068(7) 0.1030(6) 0.2628(5)
H31 H 0.4402 0.1561 0.2744
C36 C 0.4707(7) -0.0028(7) 0.2169(5)
H32 H 0.3791 -0.0216 0.1976
C37 C 0.5683(6) -0.0828(6) 0.1986(4)
H33 H 0.5437 -0.1543 0.1665
C38 C 0.7069(7) 0.2100(7) 0.7985(5)
H34 H 0.6446 0.2591 0.7577
H35 H 0.6618 0.1367 0.8118
H36 H 0.7830 0.1874 0.7741
O3 O 0.7532(4) 0.2793(5) 0.8749(4)
H37 H 0.843(6) 0.294(6) 0.883(4)
loop_
_geom_bond_atom_site_label_1
_geom_bond_atom_site_label_2
_geom_bond_site_symmetry_1
_geom_bond_site_symmetry_2
N1 C1 1_555 1_555
C1 N2 1_555 1_555
N2 N3 1_555 1_555
N3 C2 1_555 1_555
C2 N1 1_555 1_555
C3 C2 1_555 1_555
H1 C3 1_555 1_555
O1 C4 1_555 1_555
C4 C3 1_555 1_555
N4 C4 1_555 1_555
C5 N4 1_555 1_555
C6 N1 1_555 1_555
C7 C1 1_555 1_555
C8 C7 1_555 1_555
H2 C8 1_555 1_555
C9 C8 1_555 1_555
H3 C9 1_555 1_555
C10 C9 1_555 1_555
H4 C10 1_555 1_555
C11 C10 1_555 1_555
H5 C11 1_555 1_555
C12 C7 1_555 1_555
H6 C12 1_555 1_555
C13 C3 1_555 1_555
H7 C13 1_555 1_555
H8 C13 1_555 1_555
C14 C13 1_555 1_555
C15 C14 1_555 1_555
H9 C15 1_555 1_555
N5 C15 1_555 1_555
H10 N5 1_555 1_555
C16 N5 1_555 1_555
C17 C14 1_555 1_555
C18 C17 1_555 1_555
H11 C18 1_555 1_555
C19 C18 1_555 1_555
Br1 C19 1_555 1_555
C20 C19 1_555 1_555
H12 C20 1_555 1_555
C21 C16 1_555 1_555
H13 C21 1_555 1_555
C22 N4 1_555 1_555
H14 C22 1_555 1_555
H15 C22 1_555 1_555
C23 C22 1_555 1_555
O2 C23 1_555 1_555
N6 C23 1_555 1_555
C24 N6 1_555 1_555
H16 C24 1_555 1_555
C25 C24 1_555 1_555
H17 C25 1_555 1_555
H18 C25 1_555 1_555
H19 C25 1_555 1_555
C26 C24 1_555 1_555
H20 C26 1_555 1_555
H21 C26 1_555 1_555
H22 C26 1_555 1_555
C27 N6 1_555 1_555
H23 C27 1_555 1_555
H24 C27 1_555 1_555
C28 C27 1_555 1_555
C29 C28 1_555 1_555
H25 C29 1_555 1_555
C30 C29 1_555 1_555
H26 C30 1_555 1_555
C31 C30 1_555 1_555
H27 C31 1_555 1_555
C32 C31 1_555 1_555
H28 C32 1_555 1_555
C33 C28 1_555 1_555
H29 C33 1_555 1_555
C34 C5 1_555 1_555
H30 C34 1_555 1_555
C35 C34 1_555 1_555
H31 C35 1_555 1_555
C36 C35 1_555 1_555
H32 C36 1_555 1_555
C37 C6 1_555 1_555
H33 C37 1_555 1_555
C38 H34 1_555 1_555
H35 C38 1_555 1_555
H36 C38 1_555 1_555
O3 C38 1_555 1_555
H37 O3 1_555 1_555
C5 C6 1_555 1_555
C11 C12 1_555 1_555
C16 C17 1_555 1_555
C20 C21 1_555 1_555
C32 C33 1_555 1_555
C36 C37 1_555 1_555

#END
