
#######################################################################
#
#                 Cambridge Crystallographic Data Centre
#                                CCDC 
#
#######################################################################
#
# If this CIF has been generated from an entry in the Cambridge 
# Structural Database, then it will include bibliographic, chemical, 
# crystal, experimental, refinement or atomic coordinate data resulting 
# from the CCDC's data processing and validation procedures.
#
#######################################################################

data_QALSII
_chemical_formula_moiety         'C22 H22 F1 N1 O3'
_chemical_name_systematic        
4-cyclopropyl-9-(4-fluorophenyl)-6,6-dimethyl-5,6,7,9-tetrahydrofuro[3,4-b]quinoline-1,8(3H,4H)-dione
_symmetry_cell_setting           triclinic
_symmetry_space_group_name_H-M   'P -1'
_symmetry_Int_Tables_number      2
_space_group_name_Hall           '-P 1'
loop_
_symmetry_equiv_pos_site_id
_symmetry_equiv_pos_as_xyz
1 x,y,z
2 -x,-y,-z
_cell_length_a                   8.487(4)
_cell_length_b                   9.213(4)
_cell_length_c                   12.526(6)
_cell_angle_alpha                82.806(6)
_cell_angle_beta                 75.484(6)
_cell_angle_gamma                77.400(6)
_cell_volume                     922.734
_exptl_crystal_colour            yellow
_exptl_crystal_description       block
_cell_formula_units_Z            2
loop_
_atom_site_label
_atom_site_type_symbol
_atom_site_fract_x
_atom_site_fract_y
_atom_site_fract_z
F1 F 1.0591(2) -0.05743(19) 0.87938(15)
N1 N 0.3922(2) 0.5145(2) 0.72679(16)
O1 O 0.4277(3) 0.2287(2) 0.54232(16)
O2 O 0.7007(3) 0.1739(2) 0.46502(18)
O3 O 0.9410(2) 0.6029(2) 0.61900(16)
C1 C 0.4370(3) 0.4029(3) 0.6560(2)
C2 C 0.3207(3) 0.3266(3) 0.6222(2)
H1 H 0.2622 0.2709 0.6849
H2 H 0.2403 0.3980 0.5896
C3 C 0.5889(4) 0.2441(3) 0.5301(2)
C4 C 0.5926(3) 0.3528(3) 0.60309(19)
C5 C 0.7386(3) 0.4018(2) 0.62276(19)
H3 H 0.8152 0.4162 0.5512
C6 C 0.6736(3) 0.5518(2) 0.6719(2)
C7 C 0.7927(3) 0.6495(3) 0.6583(2)
C8 C 0.7291(3) 0.8059(3) 0.6896(2)
H4 H 0.6951 0.8669 0.6273
H5 H 0.8185 0.8438 0.7050
C9 C 0.5845(3) 0.8216(3) 0.7891(2)
C10 C 0.4514(3) 0.7504(3) 0.7671(2)
H6 H 0.3690 0.7409 0.8357
H7 H 0.3964 0.8168 0.7153
C11 C 0.5130(3) 0.6005(2) 0.7219(2)
C12 C 0.2191(3) 0.5628(3) 0.7777(2)
H8 H 0.1556 0.6379 0.7339
C13 C 0.1650(4) 0.5699(3) 0.8991(2)
H9 H 0.2495 0.5428 0.9416
H10 H 0.0732 0.6488 0.9276
C14 C 0.1287(4) 0.4501(3) 0.8462(2)
H11 H 0.0148 0.4558 0.8423
H12 H 0.1911 0.3498 0.8563
C15 C 0.8290(3) 0.2820(2) 0.6940(2)
C16 C 0.9557(3) 0.1730(3) 0.6437(2)
H13 H 0.9890 0.1774 0.5669
C17 C 1.0335(3) 0.0583(3) 0.7050(3)
H14 H 1.1178 -0.0156 0.6709
C18 C 0.9831(4) 0.0564(3) 0.8177(3)
C19 C 0.8593(3) 0.1609(3) 0.8707(2)
H15 H 0.8273 0.1558 0.9475
C20 C 0.7821(3) 0.2748(3) 0.8078(2)
H16 H 0.6974 0.3476 0.8427
C21 C 0.6403(4) 0.7470(3) 0.8928(2)
H17 H 0.7244 0.7935 0.9051
H18 H 0.6843 0.6431 0.8833
H19 H 0.5472 0.7576 0.9553
C22 C 0.5120(4) 0.9868(3) 0.8070(3)
H20 H 0.5946 1.0330 0.8217
H21 H 0.4177 0.9951 0.8687
H22 H 0.4782 1.0358 0.7418
loop_
_geom_bond_atom_site_label_1
_geom_bond_atom_site_label_2
_geom_bond_site_symmetry_1
_geom_bond_site_symmetry_2
F1 C18 1_555 1_555
N1 C1 1_555 1_555
O1 C2 1_555 1_555
O2 C3 1_555 1_555
O3 C7 1_555 1_555
C1 C2 1_555 1_555
C2 H1 1_555 1_555
H2 C2 1_555 1_555
C3 O1 1_555 1_555
C4 C1 1_555 1_555
C5 C4 1_555 1_555
H3 C5 1_555 1_555
C6 C5 1_555 1_555
C7 C6 1_555 1_555
C8 C7 1_555 1_555
H4 C8 1_555 1_555
H5 C8 1_555 1_555
C9 C8 1_555 1_555
C10 C9 1_555 1_555
H6 C10 1_555 1_555
H7 C10 1_555 1_555
C11 N1 1_555 1_555
C12 N1 1_555 1_555
H8 C12 1_555 1_555
C13 C12 1_555 1_555
H9 C13 1_555 1_555
H10 C13 1_555 1_555
C14 C12 1_555 1_555
H11 C14 1_555 1_555
H12 C14 1_555 1_555
C15 C5 1_555 1_555
C16 C15 1_555 1_555
H13 C16 1_555 1_555
C17 C16 1_555 1_555
H14 C17 1_555 1_555
C18 C17 1_555 1_555
C19 C18 1_555 1_555
H15 C19 1_555 1_555
C20 C15 1_555 1_555
H16 C20 1_555 1_555
C21 C9 1_555 1_555
H17 C21 1_555 1_555
H18 C21 1_555 1_555
H19 C21 1_555 1_555
C22 C9 1_555 1_555
H20 C22 1_555 1_555
H21 C22 1_555 1_555
H22 C22 1_555 1_555
C3 C4 1_555 1_555
C6 C11 1_555 1_555
C10 C11 1_555 1_555
C13 C14 1_555 1_555
C19 C20 1_555 1_555

#END
