
#######################################################################
#
#                 Cambridge Crystallographic Data Centre
#                                CCDC 
#
#######################################################################
#
# If this CIF has been generated from an entry in the Cambridge 
# Structural Database, then it will include bibliographic, chemical, 
# crystal, experimental, refinement or atomic coordinate data resulting 
# from the CCDC's data processing and validation procedures.
#
#######################################################################

data_QAMFAN
_chemical_formula_moiety         'C20 H17 N3 O2'
_chemical_name_systematic        
1,5-bis(pyridin-2-yl)-3-(pyridin-4-yl)pentane-1,5-dione
_symmetry_cell_setting           triclinic
_symmetry_space_group_name_H-M   'P -1'
_symmetry_Int_Tables_number      2
_space_group_name_Hall           '-P 1'
loop_
_symmetry_equiv_pos_site_id
_symmetry_equiv_pos_as_xyz
1 x,y,z
2 -x,-y,-z
_cell_length_a                   8.3408(12)
_cell_length_b                   10.4348(14)
_cell_length_c                   10.7614(15)
_cell_angle_alpha                94.561(2)
_cell_angle_beta                 111.600(2)
_cell_angle_gamma                100.246(2)
_cell_volume                     846.124
_exptl_crystal_colour            yellow
_exptl_crystal_description       block
_cell_formula_units_Z            2
_exptl_crystal_recrystallization_method ethanol
loop_
_atom_site_label
_atom_site_type_symbol
_atom_site_fract_x
_atom_site_fract_y
_atom_site_fract_z
C1 C 0.2898(3) 0.8092(2) -0.02288(19)
H1 H 0.2784 0.8479 -0.0998
C2 C 0.1958(3) 0.6855(2) -0.03321(18)
H2 H 0.1187 0.6377 -0.1172
C3 C 0.2174(2) 0.63276(18) 0.08326(17)
H3 H 0.1551 0.5482 0.0793
C4 C 0.3321(2) 0.70614(15) 0.20591(15)
C5 C 0.4013(3) 0.8757(2) 0.1024(2)
H4 H 0.4643 0.9604 0.1080
C6 C 0.3528(2) 0.65063(15) 0.33354(15)
C7 C 0.4981(2) 0.72199(17) 0.46479(15)
H5 H 0.5115 0.8163 0.4654
H6 H 0.6086 0.7000 0.4708
C8 C 0.46062(19) 0.68659(15) 0.58843(15)
H7 H 0.4294 0.5902 0.5786
C9 C 0.62256(19) 0.73705(16) 0.72101(15)
H8 H 0.7268 0.7198 0.7088
H9 H 0.6397 0.8317 0.7433
C10 C 0.6030(2) 0.67254(16) 0.83657(15)
C11 C 0.7319(2) 0.73027(16) 0.97768(15)
C12 C 0.7332(3) 0.6650(2) 1.08472(18)
H10 H 0.6531 0.5857 1.0710
C13 C 0.8560(3) 0.7204(2) 1.21227(19)
H11 H 0.8606 0.6786 1.2863
C14 C 0.9703(3) 0.8365(2) 1.22867(19)
H12 H 1.0548 0.8752 1.3139
C15 C 0.9592(3) 0.8958(2) 1.11791(19)
H13 H 1.0371 0.9761 1.1304
C16 C 0.30453(19) 0.73823(14) 0.59442(14)
C17 C 0.3048(2) 0.87161(16) 0.60265(16)
H14 H 0.4026 0.9323 0.6050
C18 C 0.1593(3) 0.9137(2) 0.60726(19)
H15 H 0.1629 1.0036 0.6120
C19 C 0.0166(2) 0.7083(2) 0.59917(18)
H16 H -0.0825 0.6502 0.5983
C20 C 0.1550(2) 0.65592(16) 0.59382(15)
H17 H 0.1476 0.5656 0.5898
N1 N 0.4259(2) 0.82710(15) 0.21744(15)
N2 N 0.84235(19) 0.84457(14) 0.99246(14)
N3 N 0.0145(2) 0.83516(19) 0.60547(16)
O1 O 0.25384(17) 0.54824(12) 0.32921(12)
O2 O 0.48862(16) 0.57406(12) 0.81716(12)
loop_
_geom_bond_atom_site_label_1
_geom_bond_atom_site_label_2
_geom_bond_site_symmetry_1
_geom_bond_site_symmetry_2
C1 H1 1_555 1_555
C2 C1 1_555 1_555
H2 C2 1_555 1_555
C3 C2 1_555 1_555
H3 C3 1_555 1_555
C4 C3 1_555 1_555
C5 C1 1_555 1_555
H4 C5 1_555 1_555
C6 C4 1_555 1_555
C7 C6 1_555 1_555
H5 C7 1_555 1_555
H6 C7 1_555 1_555
C8 C7 1_555 1_555
H7 C8 1_555 1_555
C9 C8 1_555 1_555
H8 C9 1_555 1_555
H9 C9 1_555 1_555
C10 C9 1_555 1_555
C11 C10 1_555 1_555
C12 C11 1_555 1_555
H10 C12 1_555 1_555
C13 C12 1_555 1_555
H11 C13 1_555 1_555
C14 C13 1_555 1_555
H12 C14 1_555 1_555
C15 C14 1_555 1_555
H13 C15 1_555 1_555
C16 C8 1_555 1_555
C17 C16 1_555 1_555
H14 C17 1_555 1_555
C18 C17 1_555 1_555
H15 C18 1_555 1_555
C19 H16 1_555 1_555
C20 C16 1_555 1_555
H17 C20 1_555 1_555
N1 C4 1_555 1_555
N2 C11 1_555 1_555
N3 C18 1_555 1_555
O1 C6 1_555 1_555
O2 C10 1_555 1_555
C5 N1 1_555 1_555
C15 N2 1_555 1_555
C19 C20 1_555 1_555
C19 N3 1_555 1_555

#END
