
#######################################################################
#
#                 Cambridge Crystallographic Data Centre
#                                CCDC 
#
#######################################################################
#
# If this CIF has been generated from an entry in the Cambridge 
# Structural Database, then it will include bibliographic, chemical, 
# crystal, experimental, refinement or atomic coordinate data resulting 
# from the CCDC's data processing and validation procedures.
#
#######################################################################

data_QAMHAN
_chemical_compound_source        'Taiwanese gorgonian Isis hippuris'
_chemical_formula_moiety         'C33 H52 O7'
_chemical_name_systematic        '(22R,23S,24S)-Hippuristerone A'
_symmetry_cell_setting           orthorhombic
_symmetry_space_group_name_H-M   'P 21 21 21'
_symmetry_Int_Tables_number      19
_space_group_name_Hall           'P 2ac 2ab'
loop_
_symmetry_equiv_pos_site_id
_symmetry_equiv_pos_as_xyz
1 x,y,z
2 1/2-x,-y,1/2+z
3 1/2+x,1/2-y,-z
4 -x,1/2+y,1/2-z
_cell_length_a                   7.594(4)
_cell_length_b                   17.382(3)
_cell_length_c                   26.569(4)
_cell_angle_alpha                90
_cell_angle_beta                 90
_cell_angle_gamma                90
_cell_volume                     3507.08
_exptl_crystal_colour            colorless
_exptl_crystal_description       prism
_chemical_melting_point          '153-154 deg.C'
_cell_formula_units_Z            4
loop_
_atom_site_label
_atom_site_type_symbol
_atom_site_fract_x
_atom_site_fract_y
_atom_site_fract_z
O1 O -0.590(1) -0.5268(3) -0.1118(3)
O2 O -1.0939(7) 0.0660(3) -0.1990(2)
O3 O -0.7458(7) 0.0899(3) -0.2052(2)
O4 O -0.7413(6) 0.2274(2) -0.1450(2)
O5 O -0.9923(8) 0.2329(3) -0.1919(2)
O6 O -0.7603(7) 0.1194(3) 0.0443(2)
O7 O -0.6117(9) 0.0737(4) 0.1124(2)
C1 C -0.472(1) -0.3355(4) -0.1479(3)
C2 C -0.441(1) -0.4225(5) -0.1542(3)
C3 C -0.600(1) -0.4704(5) -0.1403(4)
C4 C -0.778(1) -0.4416(4) -0.1594(4)
C5 C -0.797(1) -0.3527(4) -0.1516(3)
C6 C -0.976(1) -0.3250(4) -0.1692(4)
C7 C -1.001(1) -0.2413(4) -0.1569(4)
C8 C -0.8530(9) -0.1926(4) -0.1779(3)
C9 C -0.6728(9) -0.2214(4) -0.1581(3)
C10 C -0.6424(9) -0.3079(4) -0.1731(3)
C11 C -0.521(1) -0.1678(4) -0.1755(4)
C12 C -0.552(1) -0.0816(4) -0.1655(3)
C13 C -0.7263(9) -0.0547(4) -0.1876(3)
C14 C -0.8697(9) -0.1060(4) -0.1646(3)
C15 C -1.041(1) -0.0649(4) -0.1773(3)
C16 C -0.9964(9) 0.0175(4) -0.1672(3)
C17 C -0.7947(9) 0.0256(4) -0.1741(3)
C18 C -0.723(1) -0.0584(5) -0.2439(3)
C19 C -0.627(1) -0.3188(4) -0.2289(3)
C20 C -0.6957(9) 0.0918(4) -0.1525(3)
C21 C -0.499(1) 0.0913(4) -0.1452(3)
C22 C -0.7944(9) 0.1530(4) -0.1220(3)
C23 C -0.751(1) 0.1578(4) -0.0671(3)
C24 C -0.799(1) 0.0816(4) -0.0390(3)
C25 C -0.699(1) 0.0626(5) 0.0066(3)
C26 C -0.502(1) 0.0684(5) 0.0019(3)
C27 C -0.742(1) -0.0189(4) 0.0245(3)
C28 C -0.996(1) 0.0756(5) -0.0289(3)
C29 C -0.833(1) 0.2295(4) -0.0446(3)
C30 C -0.851(1) 0.2617(5) -0.1790(3)
C31 C -0.782(1) 0.3380(4) -0.1932(4)
C32 C -0.710(1) 0.1174(5) 0.0943(3)
C33 C -0.809(1) 0.1802(5) 0.1208(4)
H1 H -0.4789 -0.3241 -0.1129
H2 H -0.3759 -0.3087 -0.1623
H3 H -0.4126 -0.4324 -0.1884
H4 H -0.3458 -0.4373 -0.1333
H5 H -0.7877 -0.4529 -0.1943
H6 H -0.8692 -0.4670 -0.1416
H7 H -0.7939 -0.3446 -0.1163
H8 H -0.9849 -0.3320 -0.2046
H9 H -1.0650 -0.3542 -0.1529
H10 H -1.1096 -0.2244 -0.1711
H11 H -1.0050 -0.2353 -0.1214
H12 H -0.8535 -0.1975 -0.2135
H13 H -0.6770 -0.2191 -0.1224
H14 H -0.4170 -0.1828 -0.1583
H15 H -0.5057 -0.1746 -0.2107
H16 H -0.5525 -0.0730 -0.1302
H17 H -0.4585 -0.0531 -0.1803
H18 H -0.8562 -0.1024 -0.1291
H19 H -1.0722 -0.0724 -0.2116
H20 H -1.1344 -0.0819 -0.1563
H21 H -1.0253 0.0291 -0.1333
H22 H -0.8392 -0.0511 -0.2565
H23 H -0.6482 -0.0193 -0.2566
H24 H -0.6808 -0.1074 -0.2542
H25 H -0.6083 -0.3717 -0.2361
H26 H -0.7317 -0.3018 -0.2448
H27 H -0.5297 -0.2897 -0.2411
H28 H -0.4505 0.0462 -0.1598
H29 H -0.4490 0.1354 -0.1608
H30 H -0.4725 0.0922 -0.1102
H31 H -0.9177 0.1460 -0.1261
H32 H -0.6274 0.1637 -0.0646
H33 H -0.7739 0.0415 -0.0622
H34 H -0.4492 0.0583 0.0336
H35 H -0.4615 0.0318 -0.0220
H36 H -0.4710 0.1187 -0.0089
H37 H -0.8658 -0.0245 0.0276
H38 H -0.6984 -0.0550 0.0007
H39 H -0.6878 -0.0277 0.0562
H40 H -1.0276 0.1105 -0.0029
H41 H -1.0593 0.0879 -0.0586
H42 H -1.0239 0.0246 -0.0187
H43 H -0.8042 0.2324 -0.0099
H44 H -0.7882 0.2736 -0.0615
H45 H -0.9571 0.2275 -0.0485
H46 H -0.6690 0.3323 -0.2080
H47 H -0.8597 0.3613 -0.2168
H48 H -0.7737 0.3695 -0.1641
H49 H -0.7770 0.1805 0.1554
H50 H -0.7796 0.2284 0.1061
H51 H -0.9317 0.1714 0.1177
loop_
_geom_bond_atom_site_label_1
_geom_bond_atom_site_label_2
_geom_bond_site_symmetry_1
_geom_bond_site_symmetry_2
O1 C3 1_555 1_555
O2 C16 1_555 1_555
O3 C17 1_555 1_555
O4 C22 1_555 1_555
O5 C30 1_555 1_555
O6 C25 1_555 1_555
O7 C32 1_555 1_555
C1 C2 1_555 1_555
C2 C3 1_555 1_555
C3 C4 1_555 1_555
C4 C5 1_555 1_555
C5 C6 1_555 1_555
C6 C7 1_555 1_555
C7 C8 1_555 1_555
C8 C9 1_555 1_555
C9 C10 1_555 1_555
C10 C1 1_555 1_555
C11 C9 1_555 1_555
C12 C11 1_555 1_555
C13 C12 1_555 1_555
C14 C8 1_555 1_555
C15 C14 1_555 1_555
C16 C15 1_555 1_555
C17 C13 1_555 1_555
C18 C13 1_555 1_555
C19 C10 1_555 1_555
C20 O3 1_555 1_555
C21 C20 1_555 1_555
C22 C20 1_555 1_555
C23 C22 1_555 1_555
C24 C23 1_555 1_555
C25 C24 1_555 1_555
C26 C25 1_555 1_555
C27 C25 1_555 1_555
C28 C24 1_555 1_555
C29 C23 1_555 1_555
C30 O4 1_555 1_555
C31 C30 1_555 1_555
C32 O6 1_555 1_555
C33 C32 1_555 1_555
H1 C1 1_555 1_555
H2 C1 1_555 1_555
H3 C2 1_555 1_555
H4 C2 1_555 1_555
H5 C4 1_555 1_555
H6 C4 1_555 1_555
H7 C5 1_555 1_555
H8 C6 1_555 1_555
H9 C6 1_555 1_555
H10 C7 1_555 1_555
H11 C7 1_555 1_555
H12 C8 1_555 1_555
H13 C9 1_555 1_555
H14 C11 1_555 1_555
H15 C11 1_555 1_555
H16 C12 1_555 1_555
H17 C12 1_555 1_555
H18 C14 1_555 1_555
H19 C15 1_555 1_555
H20 C15 1_555 1_555
H21 C16 1_555 1_555
H22 C18 1_555 1_555
H23 C18 1_555 1_555
H24 C18 1_555 1_555
H25 C19 1_555 1_555
H26 C19 1_555 1_555
H27 C19 1_555 1_555
H28 C21 1_555 1_555
H29 C21 1_555 1_555
H30 C21 1_555 1_555
H31 C22 1_555 1_555
H32 C23 1_555 1_555
H33 C24 1_555 1_555
H34 C26 1_555 1_555
H35 C26 1_555 1_555
H36 C26 1_555 1_555
H37 C27 1_555 1_555
H38 C27 1_555 1_555
H39 C27 1_555 1_555
H40 C28 1_555 1_555
H41 C28 1_555 1_555
H42 C28 1_555 1_555
H43 C29 1_555 1_555
H44 C29 1_555 1_555
H45 C29 1_555 1_555
H46 C31 1_555 1_555
H47 C31 1_555 1_555
H48 C31 1_555 1_555
H49 C33 1_555 1_555
H50 C33 1_555 1_555
H51 C33 1_555 1_555
C5 C10 1_555 1_555
C13 C14 1_555 1_555
C16 C17 1_555 1_555
C17 C20 1_555 1_555

#END
