
#######################################################################
#
#                 Cambridge Crystallographic Data Centre
#                                CCDC 
#
#######################################################################
#
# If this CIF has been generated from an entry in the Cambridge 
# Structural Database, then it will include bibliographic, chemical, 
# crystal, experimental, refinement or atomic coordinate data resulting 
# from the CCDC's data processing and validation procedures.
#
#######################################################################

data_QAMKEX
_chemical_formula_moiety         'C27 H24 N2 O2 S1'
_chemical_name_systematic        
2-((4-methylphenyl)sulfonyl)-5,7-diphenyl-1,2,3,4-tetrahydropyrrolo[3,4-d]azepine
_symmetry_cell_setting           monoclinic
_symmetry_space_group_name_H-M   'P 21/c'
_symmetry_Int_Tables_number      14
_space_group_name_Hall           '-P 2ybc'
loop_
_symmetry_equiv_pos_site_id
_symmetry_equiv_pos_as_xyz
1 x,y,z
2 -x,1/2+y,1/2-z
3 -x,-y,-z
4 x,1/2-y,1/2+z
_cell_length_a                   24.487(18)
_cell_length_b                   10.566(8)
_cell_length_c                   8.884(7)
_cell_angle_alpha                90
_cell_angle_beta                 92.071(17)
_cell_angle_gamma                90
_cell_volume                     2297.05
_exptl_crystal_colour            yellow
_exptl_crystal_description       prismatic
_cell_formula_units_Z            4
loop_
_atom_site_label
_atom_site_type_symbol
_atom_site_fract_x
_atom_site_fract_y
_atom_site_fract_z
S1 S 0.13326(2) 0.05179(5) 0.23621(7)
N1 N 0.34516(7) 0.41011(15) 0.3986(2)
N2 N 0.18641(7) 0.14175(15) 0.2662(2)
O1 O 0.09376(6) 0.12688(16) 0.1540(2)
O2 O 0.15291(7) -0.06391(14) 0.1750(2)
C1 C 0.23508(8) 0.09060(19) 0.3485(3)
H1 H 0.2592 0.0475 0.2811
H2 H 0.2249 0.0327 0.4274
C2 C 0.17918(8) 0.27873(18) 0.2955(3)
H3 H 0.1479 0.2942 0.3567
H4 H 0.1749 0.3261 0.2023
C3 C 0.23154(8) 0.31172(18) 0.3787(2)
C4 C 0.26107(8) 0.20761(18) 0.4127(2)
C5 C 0.31237(8) 0.21439(19) 0.5074(3)
H5 H 0.3267 0.1304 0.5281
H6 H 0.3061 0.2566 0.6022
C6 C 0.35123(8) 0.28994(18) 0.4141(2)
C7 C 0.30003(8) 0.47790(17) 0.4457(2)
C8 C 0.24760(8) 0.43760(17) 0.4209(2)
H7 H 0.2199 0.4968 0.4322
C9 C 0.31330(9) 0.60822(18) 0.5010(2)
C10 C 0.36591(10) 0.6567(2) 0.4923(3)
H8 H 0.3929 0.6082 0.4492
C11 C 0.37860(12) 0.7760(2) 0.5466(3)
H9 H 0.4140 0.8069 0.5401
C12 C 0.33933(13) 0.8491(2) 0.6103(3)
H10 H 0.3479 0.9295 0.6468
C13 C 0.28748(12) 0.8027(2) 0.6195(3)
H11 H 0.2607 0.8520 0.6623
C14 C 0.27443(10) 0.68328(19) 0.5662(3)
H12 H 0.2390 0.6530 0.5742
C15 C 0.39549(8) 0.22656(19) 0.3325(3)
C16 C 0.39967(11) 0.0956(2) 0.3252(3)
H13 H 0.3744 0.0453 0.3731
C17 C 0.44122(14) 0.0396(3) 0.2470(4)
H14 H 0.4437 -0.0482 0.2426
C18 C 0.47855(12) 0.1120(3) 0.1764(4)
H15 H 0.5068 0.0739 0.1260
C19 C 0.47416(11) 0.2407(3) 0.1801(4)
H16 H 0.4993 0.2902 0.1307
C20 C 0.43278(9) 0.2979(2) 0.2565(3)
H17 H 0.4300 0.3857 0.2569
C21 C 0.10746(9) 0.0150(2) 0.4126(3)
C22 C 0.07189(9) 0.0966(2) 0.4804(3)
H18 H 0.0603 0.1703 0.4319
C23 C 0.05367(10) 0.0667(3) 0.6228(3)
H19 H 0.0298 0.1218 0.6689
C24 C 0.06996(11) -0.0423(3) 0.6976(3)
C25 C 0.10515(11) -0.1220(3) 0.6267(4)
H20 H 0.1162 -0.1966 0.6742
C26 C 0.12427(11) -0.0940(2) 0.4877(3)
H21 H 0.1488 -0.1485 0.4432
C27 C 0.04878(13) -0.0714(3) 0.8508(4)
H22 H 0.0133 -0.1099 0.8397
H23 H 0.0461 0.0055 0.9075
H24 H 0.0734 -0.1285 0.9028
loop_
_geom_bond_atom_site_label_1
_geom_bond_atom_site_label_2
_geom_bond_site_symmetry_1
_geom_bond_site_symmetry_2
S1 N2 1_555 1_555
N1 C6 1_555 1_555
N2 C1 1_555 1_555
O1 S1 1_555 1_555
O2 S1 1_555 1_555
C1 H1 1_555 1_555
H2 C1 1_555 1_555
C2 N2 1_555 1_555
H3 C2 1_555 1_555
H4 C2 1_555 1_555
C3 C2 1_555 1_555
C4 C1 1_555 1_555
C5 C4 1_555 1_555
H5 C5 1_555 1_555
H6 C5 1_555 1_555
C6 C5 1_555 1_555
C7 N1 1_555 1_555
C8 C3 1_555 1_555
H7 C8 1_555 1_555
C9 C7 1_555 1_555
C10 C9 1_555 1_555
H8 C10 1_555 1_555
C11 C10 1_555 1_555
H9 C11 1_555 1_555
C12 C11 1_555 1_555
H10 C12 1_555 1_555
C13 C12 1_555 1_555
H11 C13 1_555 1_555
C14 C9 1_555 1_555
H12 C14 1_555 1_555
C15 C6 1_555 1_555
C16 C15 1_555 1_555
H13 C16 1_555 1_555
C17 C16 1_555 1_555
H14 C17 1_555 1_555
C18 C17 1_555 1_555
H15 C18 1_555 1_555
C19 C18 1_555 1_555
H16 C19 1_555 1_555
C20 C15 1_555 1_555
H17 C20 1_555 1_555
C21 S1 1_555 1_555
C22 C21 1_555 1_555
H18 C22 1_555 1_555
C23 C22 1_555 1_555
H19 C23 1_555 1_555
C24 C23 1_555 1_555
C25 C24 1_555 1_555
H20 C25 1_555 1_555
C26 C21 1_555 1_555
H21 C26 1_555 1_555
C27 C24 1_555 1_555
H22 C27 1_555 1_555
H23 C27 1_555 1_555
H24 C27 1_555 1_555
C3 C4 1_555 1_555
C7 C8 1_555 1_555
C13 C14 1_555 1_555
C19 C20 1_555 1_555
C25 C26 1_555 1_555

#END
