
#######################################################################
#
#                 Cambridge Crystallographic Data Centre
#                                CCDC 
#
#######################################################################
#
# If this CIF has been generated from an entry in the Cambridge 
# Structural Database, then it will include bibliographic, chemical, 
# crystal, experimental, refinement or atomic coordinate data resulting 
# from the CCDC's data processing and validation procedures.
#
#######################################################################

data_QAMQEC
_chemical_formula_moiety         'C33 H38 N4 O3'
_chemical_name_systematic        
3',6'-bis(diethylamino)-2-((4-oxopent-2-en-2-yl)amino)spiro[isoindole-1,9'-xanthen]-3(2H)-one
_symmetry_cell_setting           triclinic
_symmetry_space_group_name_H-M   'P -1'
_symmetry_Int_Tables_number      2
_space_group_name_Hall           '-P 1'
loop_
_symmetry_equiv_pos_site_id
_symmetry_equiv_pos_as_xyz
1 x,y,z
2 -x,-y,-z
_cell_length_a                   11.265(11)
_cell_length_b                   12.342(12)
_cell_length_c                   13.246(13)
_cell_angle_alpha                93.291(12)
_cell_angle_beta                 114.672(12)
_cell_angle_gamma                112.399(12)
_cell_volume                     1495.01
_cell_formula_units_Z            2
loop_
_atom_site_label
_atom_site_type_symbol
_atom_site_fract_x
_atom_site_fract_y
_atom_site_fract_z
C1 C 0.2126(9) 0.4019(8) 0.5422(7)
H1 H 0.1978 0.3208 0.5467
H2 H 0.1735 0.4042 0.4630
H3 H 0.1638 0.4267 0.5764
O1 O 0.3361(3) 0.89420(18) 0.35519(17)
N1 N 0.5179(3) 0.7919(2) 0.20770(19)
O2 O 0.7787(3) 0.9171(2) 0.53826(18)
C2 C 0.3100(3) 1.0401(3) 0.2557(2)
H4 H 0.3043 1.0760 0.3161
N2 N 0.2853(3) 1.1994(2) 0.1613(2)
C3 C 0.3378(3) 0.8757(3) 0.1723(2)
N3 N 0.6329(3) 0.8671(2) 0.3129(2)
H5 H 0.6420 0.8421 0.3738
C4 C 0.3285(3) 0.9349(3) 0.2587(2)
C5 C 0.3624(3) 0.7634(3) 0.1805(2)
C6 C 0.3341(3) 0.7125(3) 0.2742(2)
C7 C 0.2998(3) 1.0927(3) 0.1636(2)
C8 C 0.3259(4) 0.9277(3) 0.0799(3)
H6 H 0.3302 0.8904 0.0193
O3 O 0.6420(3) 0.7053(3) 0.1584(2)
C9 C 0.3286(3) 0.7810(3) 0.3576(3)
C10 C 0.2828(3) 0.6685(3) 0.0660(2)
C11 C 0.8573(4) 1.0192(3) 0.5348(3)
C12 C 0.3159(4) 0.7408(3) 0.4499(3)
H7 H 0.3110 0.7897 0.5027
C13 C 0.3787(3) 0.6369(3) 0.0468(2)
C14 C 0.7316(4) 0.9785(3) 0.3238(3)
C15 C 0.5285(4) 0.7106(3) 0.1417(3)
C16 C 0.3258(4) 0.5999(3) 0.2898(3)
H8 H 0.3283 0.5504 0.2358
C17 C 0.3079(4) 1.0326(3) 0.0748(3)
H9 H 0.3009 1.0638 0.0114
C18 C 0.1365(4) 0.6157(3) -0.0139(3)
H10 H 0.0717 0.6377 -0.0027
C19 C 0.2608(4) 1.2519(3) 0.2474(3)
H11 H 0.2924 1.3377 0.2518
H12 H 0.3219 1.2445 0.3215
C20 C 0.8390(4) 1.0514(3) 0.4298(3)
H13 H 0.9049 1.1274 0.4339
C21 C 0.2680(5) 1.2508(3) 0.0627(3)
H14 H 0.3338 1.2436 0.0364
H15 H 0.2974 1.3366 0.0877
C22 C 0.3310(4) 0.5500(3) -0.0503(3)
H16 H 0.3959 0.5288 -0.0622
C23 C 0.3140(5) 0.5579(3) 0.3807(4)
H17 H 0.3085 0.4815 0.3864
C24 C 0.3103(5) 0.6286(3) 0.4648(3)
C25 C 0.1844(5) 0.4958(3) -0.1287(3)
H18 H 0.1496 0.4363 -0.1939
N4 N 0.3019(6) 0.5886(3) 0.5566(4)
C26 C 0.9759(4) 1.1119(4) 0.6462(3)
H19 H 0.9748 1.0781 0.7095
H20 H 0.9595 1.1824 0.6510
H21 H 1.0689 1.1342 0.6490
C27 C 0.7180(5) 1.0146(4) 0.2155(3)
H22 H 0.6358 0.9503 0.1508
H23 H 0.8053 1.0302 0.2105
H24 H 0.7040 1.0867 0.2156
C28 C 0.0887(4) 0.5286(3) -0.1117(3)
H25 H -0.0095 0.4919 -0.1665
C29 C 0.3207(7) 0.6727(5) 0.6616(5)
H26 H 0.3633 0.6512 0.7329
H27 H 0.3782 0.7579 0.6705
C30 C 0.1045(5) 1.1962(4) 0.2265(4)
H28 H 0.0992 1.2362 0.2877
H29 H 0.0723 1.1115 0.2238
H30 H 0.0430 1.2056 0.1547
C31 C 0.1776(8) 0.6440(5) 0.6244(5)
H31 H 0.1689 0.6900 0.6797
H32 H 0.1244 0.5590 0.6155
H33 H 0.1384 0.6627 0.5519
C32 C 0.1166(6) 1.1936(5) -0.0368(3)
H34 H 0.1153 1.2321 -0.0979
H35 H 0.0508 1.2031 -0.0129
H36 H 0.0865 1.1088 -0.0634
C33 C 0.3487(8) 0.4735(8) 0.5957(6)
H37 H 0.4043 0.4577 0.5622
H38 H 0.3942 0.4814 0.6779
loop_
_geom_bond_atom_site_label_1
_geom_bond_atom_site_label_2
_geom_bond_site_symmetry_1
_geom_bond_site_symmetry_2
C1 H1 1_555 1_555
H2 C1 1_555 1_555
H3 C1 1_555 1_555
O1 C4 1_555 1_555
N1 N3 1_555 1_555
O2 C11 1_555 1_555
C2 H4 1_555 1_555
N2 C7 1_555 1_555
C3 C4 1_555 1_555
N3 H5 1_555 1_555
C4 C2 1_555 1_555
C5 N1 1_555 1_555
C6 C5 1_555 1_555
C7 C2 1_555 1_555
C8 C3 1_555 1_555
H6 C8 1_555 1_555
O3 C15 1_555 1_555
C9 O1 1_555 1_555
C10 C5 1_555 1_555
C11 C20 1_555 1_555
C12 C9 1_555 1_555
H7 C12 1_555 1_555
C13 C10 1_555 1_555
C14 N3 1_555 1_555
C15 N1 1_555 1_555
C16 C6 1_555 1_555
H8 C16 1_555 1_555
C17 C7 1_555 1_555
H9 C17 1_555 1_555
C18 C10 1_555 1_555
H10 C18 1_555 1_555
C19 N2 1_555 1_555
H11 C19 1_555 1_555
H12 C19 1_555 1_555
C20 C14 1_555 1_555
H13 C20 1_555 1_555
C21 N2 1_555 1_555
H14 C21 1_555 1_555
H15 C21 1_555 1_555
C22 C13 1_555 1_555
H16 C22 1_555 1_555
C23 C16 1_555 1_555
H17 C23 1_555 1_555
C24 C12 1_555 1_555
C25 C22 1_555 1_555
H18 C25 1_555 1_555
N4 C24 1_555 1_555
C26 C11 1_555 1_555
H19 C26 1_555 1_555
H20 C26 1_555 1_555
H21 C26 1_555 1_555
C27 C14 1_555 1_555
H22 C27 1_555 1_555
H23 C27 1_555 1_555
H24 C27 1_555 1_555
C28 C18 1_555 1_555
H25 C28 1_555 1_555
C29 N4 1_555 1_555
H26 C29 1_555 1_555
H27 C29 1_555 1_555
C30 C19 1_555 1_555
H28 C30 1_555 1_555
H29 C30 1_555 1_555
H30 C30 1_555 1_555
C31 C29 1_555 1_555
H31 C31 1_555 1_555
H32 C31 1_555 1_555
H33 C31 1_555 1_555
C32 C21 1_555 1_555
H34 C32 1_555 1_555
H35 C32 1_555 1_555
H36 C32 1_555 1_555
C33 C1 1_555 1_555
H37 C33 1_555 1_555
H38 C33 1_555 1_555
C3 C5 1_555 1_555
C6 C9 1_555 1_555
C8 C17 1_555 1_555
C13 C15 1_555 1_555
C23 C24 1_555 1_555
C25 C28 1_555 1_555
N4 C33 1_555 1_555

#END
