
#######################################################################
#
#                 Cambridge Crystallographic Data Centre
#                                CCDC 
#
#######################################################################
#
# If this CIF has been generated from an entry in the Cambridge 
# Structural Database, then it will include bibliographic, chemical, 
# crystal, experimental, refinement or atomic coordinate data resulting 
# from the CCDC's data processing and validation procedures.
#
#######################################################################

data_QAMRIF
_chemical_formula_moiety         '2(C2 H8 N1 O1 1+),C2 O4 2-'
_chemical_name_systematic        'Bis(2-hydroxyethylammonium) oxalate'
_symmetry_cell_setting           monoclinic
_symmetry_space_group_name_H-M   'C 2/c'
_symmetry_Int_Tables_number      15
_space_group_name_Hall           '-C 2yn'
loop_
_symmetry_equiv_pos_site_id
_symmetry_equiv_pos_as_xyz
1 x,y,z
2 1/2+x,1/2+y,z
3 x,-y,1/2+z
4 1/2+x,1/2-y,1/2+z
5 -x,-y,-z
6 1/2-x,1/2-y,-z
7 -x,y,1/2-z
8 1/2-x,1/2+y,1/2-z
_cell_length_a                   17.473(5)
_cell_length_b                   5.916(2)
_cell_length_c                   10.346(3)
_cell_angle_alpha                90
_cell_angle_beta                 118.69(2)
_cell_angle_gamma                90
_cell_volume                     938.17
_exptl_crystal_colour            colorless
_exptl_crystal_description       block
_cell_formula_units_Z            4
loop_
_atom_site_label
_atom_site_type_symbol
_atom_site_fract_x
_atom_site_fract_y
_atom_site_fract_z
O1 O 0.15370(10) 0.6481(3) 0.0628(2)
N1 N 0.08880(10) 1.1050(4) -0.0510(2)
C1 C 0.1810(2) 1.0305(5) 0.0172(3)
C2 C 0.2000(2) 0.8480(5) 0.1294(3)
H1 H 0.1246 0.6102 0.1022
H2 H 0.0539 0.9873 -0.0933
H3 H 0.0792 1.2100 -0.1187
H4 H 0.0779 1.1625 0.0180
H5 H 0.2189 1.1587 0.0642
H6 H 0.1934 0.9747 -0.0589
H7 H 0.2621 0.8163 0.1800
H8 H 0.1839 0.9000 0.2019
O2 O 0.06600(10) 0.5873(3) 0.2176(2)
O3 O 0.04820(10) 0.2157(3) 0.1781(2)
C3 C 0.0330(2) 0.4006(4) 0.2193(3)
C3F C -0.0330(2) 0.4006(4) 0.2807(3)
O2F O -0.06600(10) 0.5873(3) 0.2824(2)
O3F O -0.04820(10) 0.2157(3) 0.3219(2)
loop_
_geom_bond_atom_site_label_1
_geom_bond_atom_site_label_2
_geom_bond_site_symmetry_1
_geom_bond_site_symmetry_2
O1 C2 1_555 1_555
O2 C3 1_555 1_555
O3 C3 1_555 1_555
N1 C1 1_555 1_555
C1 C2 1_555 1_555
C2 H7 1_555 1_555
C3 C3F 1_555 1_555
H1 O1 1_555 1_555
H2 N1 1_555 1_555
H3 N1 1_555 1_555
H4 N1 1_555 1_555
H5 C1 1_555 1_555
H6 C1 1_555 1_555
H8 C2 1_555 1_555
C3F O2F 1_555 1_555
O3F C3F 1_555 1_555

#END
