
#######################################################################
#
#                 Cambridge Crystallographic Data Centre
#                                CCDC 
#
#######################################################################
#
# If this CIF has been generated from an entry in the Cambridge 
# Structural Database, then it will include bibliographic, chemical, 
# crystal, experimental, refinement or atomic coordinate data resulting 
# from the CCDC's data processing and validation procedures.
#
#######################################################################

data_QAMRIH
_chemical_formula_moiety         'C15 H17 N1 O1'
_chemical_name_systematic        4-(4-Methyl-1-naphthyl)morpholine
_symmetry_cell_setting           monoclinic
_symmetry_space_group_name_H-M   'P 21/c'
_symmetry_Int_Tables_number      14
_space_group_name_Hall           '-P 2ybc'
loop_
_symmetry_equiv_pos_site_id
_symmetry_equiv_pos_as_xyz
1 x,y,z
2 -x,1/2+y,1/2-z
3 -x,-y,-z
4 x,1/2-y,1/2+z
_cell_length_a                   11.884(6)
_cell_length_b                   14.705(7)
_cell_length_c                   7.340(3)
_cell_angle_alpha                90
_cell_angle_beta                 102.67(3)
_cell_angle_gamma                90
_cell_volume                     1251.46
_exptl_crystal_colour            colorless
_exptl_crystal_description       block
_cell_formula_units_Z            4
loop_
_atom_site_label
_atom_site_type_symbol
_atom_site_fract_x
_atom_site_fract_y
_atom_site_fract_z
N1 N 0.25559(17) 0.53614(13) 0.1266(3)
C1 C 0.2874(2) 0.41867(15) 0.3677(3)
C2 C 0.2098(2) 0.47852(15) 0.2490(3)
C3 C 0.0957(2) 0.47899(18) 0.2592(4)
H1 H 0.0448 0.5191 0.1853
C4 C 0.4067(2) 0.41886(16) 0.3727(4)
H2 H 0.4356 0.4593 0.2970
C5 C 0.2453(2) 0.35795(15) 0.4889(3)
C6 C 0.1242(3) 0.35936(19) 0.4917(4)
C7 C 0.0549(2) 0.4191(2) 0.3809(4)
H3 H -0.0228 0.4210 0.3847
C8 C 0.4801(2) 0.36176(18) 0.4847(4)
H4 H 0.5585 0.3636 0.4862
C9 C 0.4382(3) 0.3001(2) 0.5979(4)
H5 H 0.4885 0.2594 0.6716
C10 C 0.3249(3) 0.29906(19) 0.6012(4)
H6 H 0.2989 0.2584 0.6798
C11 C 0.2699(2) 0.49116(19) -0.0447(4)
H7 H 0.1949 0.4767 -0.1220
H8 H 0.3121 0.4348 -0.0137
O1 O 0.2775(2) 0.63722(18) -0.1921(3)
C12 C 0.1955(3) 0.62230(19) 0.0799(4)
H9 H 0.1874 0.6533 0.1930
H10 H 0.1191 0.6115 0.0035
C13 C 0.0756(3) 0.2956(2) 0.6165(5)
H11 H -0.0058 0.3057 0.5994
H12 H 0.1126 0.3068 0.7445
H13 H 0.0893 0.2338 0.5850
C14 C 0.3345(3) 0.5522(2) -0.1509(5)
H14 H 0.4119 0.5624 -0.0772
H15 H 0.3409 0.5227 -0.2663
C15 C 0.2645(3) 0.6799(2) -0.0251(5)
H16 H 0.2262 0.7380 -0.0550
H17 H 0.3400 0.6914 0.0536
loop_
_geom_bond_atom_site_label_1
_geom_bond_atom_site_label_2
_geom_bond_site_symmetry_1
_geom_bond_site_symmetry_2
N1 C2 1_555 1_555
C1 C2 1_555 1_555
C2 C3 1_555 1_555
C3 H1 1_555 1_555
C4 C1 1_555 1_555
H2 C4 1_555 1_555
C5 C1 1_555 1_555
C6 C5 1_555 1_555
C7 C3 1_555 1_555
H3 C7 1_555 1_555
C8 C4 1_555 1_555
H4 C8 1_555 1_555
C9 C8 1_555 1_555
H5 C9 1_555 1_555
C10 C5 1_555 1_555
H6 C10 1_555 1_555
C11 N1 1_555 1_555
H7 C11 1_555 1_555
H8 C11 1_555 1_555
O1 C14 1_555 1_555
C12 N1 1_555 1_555
H9 C12 1_555 1_555
H10 C12 1_555 1_555
C13 C6 1_555 1_555
H11 C13 1_555 1_555
H12 C13 1_555 1_555
H13 C13 1_555 1_555
C14 C11 1_555 1_555
H14 C14 1_555 1_555
H15 C14 1_555 1_555
C15 O1 1_555 1_555
H16 C15 1_555 1_555
H17 C15 1_555 1_555
C6 C7 1_555 1_555
C9 C10 1_555 1_555
C12 C15 1_555 1_555

#END
