
#######################################################################
#
#                 Cambridge Crystallographic Data Centre
#                                CCDC 
#
#######################################################################
#
# If this CIF has been generated from an entry in the Cambridge 
# Structural Database, then it will include bibliographic, chemical, 
# crystal, experimental, refinement or atomic coordinate data resulting 
# from the CCDC's data processing and validation procedures.
#
#######################################################################

data_QAMVEF
_chemical_formula_moiety         'C32 H46 O19,0.7(H2 O1)'
_chemical_name_systematic        
"2,2',3,3',4,4'-hexaacetato-6,6'-bis(isobutanoyl)-\a,\a-trehalose hydrate"
_symmetry_cell_setting           orthorhombic
_symmetry_space_group_name_H-M   'P 21 21 21'
_symmetry_Int_Tables_number      19
_space_group_name_Hall           'P 2ac 2ab'
loop_
_symmetry_equiv_pos_site_id
_symmetry_equiv_pos_as_xyz
1 x,y,z
2 1/2-x,-y,1/2+z
3 1/2+x,1/2-y,-z
4 -x,1/2+y,1/2-z
_cell_length_a                   8.857(3)
_cell_length_b                   17.813(11)
_cell_length_c                   24.085(3)
_cell_angle_alpha                90
_cell_angle_beta                 90
_cell_angle_gamma                90
_cell_volume                     3799.88
_exptl_crystal_colour            colorless
_exptl_crystal_description       lozenge
_cell_formula_units_Z            4
_exptl_crystal_recrystallization_method ethanol
loop_
_atom_site_label
_atom_site_type_symbol
_atom_site_fract_x
_atom_site_fract_y
_atom_site_fract_z
O1 O 0.4189(8) 0.3059(3) 0.7560(3)
O2 O 0.5742(9) 0.4212(4) 0.7104(3)
O3 O 0.4644(10) 0.4986(4) 0.6507(3)
O4 O 0.6376(8) 0.5013(4) 0.8068(3)
O5 O 0.2354(8) 0.3861(3) 0.7954(3)
O6 O 0.8311(10) 0.4333(4) 0.8381(5)
O7 O 0.5029(8) 0.4290(4) 0.9058(3)
O8 O 0.5508(9) 0.5522(4) 0.9200(3)
O9 O 0.0997(9) 0.3177(4) 0.8882(3)
O10 O -0.0285(10) 0.3525(4) 0.9646(4)
O11 O 0.4598(9) 0.1780(4) 0.8145(3)
O12 O 0.2429(10) 0.1122(4) 0.8257(4)
O13 O 0.6793(9) 0.1174(3) 0.7449(3)
O14 O 0.3244(9) 0.2391(4) 0.6784(3)
O15 O 0.8955(9) 0.1835(4) 0.7547(4)
O16 O 0.7209(9) 0.2174(3) 0.6448(3)
O17 O 0.7985(9) 0.1018(3) 0.6215(3)
O18 O 0.3610(9) 0.3200(4) 0.5776(3)
O19 O 0.2358(10) 0.2692(4) 0.5055(3)
C1 C 0.3364(13) 0.3761(5) 0.7511(5)
H3 H 0.2809 0.3778 0.7150
C2 C 0.4566(13) 0.4354(6) 0.7523(5)
H4 H 0.4099 0.4856 0.7455
C3 C 0.5382(13) 0.4364(5) 0.8060(5)
H5 H 0.5990 0.3894 0.8100
C4 C 0.4271(13) 0.4428(6) 0.8537(5)
H6 H 0.3783 0.4934 0.8538
C5 C 0.3076(13) 0.3808(5) 0.8493(5)
H7 H 0.3570 0.3306 0.8532
C6 C 0.5636(17) 0.4535(6) 0.6620(6)
C7 C 0.6969(13) 0.4354(6) 0.6245(5)
H8 H 0.7625 0.3988 0.6429
H9 H 0.7540 0.4814 0.6170
H10 H 0.6599 0.4143 0.5895
C8 C 0.7821(14) 0.4909(6) 0.8247(6)
C9 C 0.8616(13) 0.5644(6) 0.8239(5)
H11 H 0.7927 0.6035 0.8105
H12 H 0.9493 0.5614 0.7992
H13 H 0.8953 0.5769 0.8616
C10 C 0.5614(15) 0.4869(6) 0.9346(5)
C11 C 0.6601(15) 0.4620(6) 0.9841(5)
H14 H 0.6513 0.4076 0.9891
H15 H 0.6260 0.4876 1.0179
H16 H 0.7657 0.4751 0.9768
C12 C 0.1790(13) 0.3868(5) 0.8896(5)
H17 H 0.2176 0.3966 0.9274
H18 H 0.1111 0.4285 0.8788
C13 C -0.0123(15) 0.3094(7) 0.9273(6)
C14 C -0.0968(15) 0.2346(6) 0.9176(5)
H19 H -0.0277 0.1981 0.8989
C15 C -0.2293(15) 0.2534(7) 0.8784(6)
H20 H -0.2862 0.2075 0.8702
H21 H -0.1899 0.2746 0.8438
H22 H -0.2961 0.2900 0.8964
C16 C -0.1536(17) 0.2010(7) 0.9712(6)
H23 H -0.2058 0.1537 0.9633
H24 H -0.2237 0.2361 0.9890
H25 H -0.0680 0.1915 0.9960
C17 C 0.3408(13) 0.2404(5) 0.7365(5)
H26 H 0.2392 0.2373 0.7545
C18 C 0.4374(13) 0.1753(5) 0.7556(5)
H27 H 0.3916 0.1264 0.7442
C19 C 0.5955(13) 0.1843(6) 0.7309(5)
H28 H 0.6463 0.2299 0.7463
C20 C 0.5822(13) 0.1895(5) 0.6679(5)
H29 H 0.5579 0.1392 0.6519
C21 C 0.4663(12) 0.2474(6) 0.6488(5)
H30 H 0.5074 0.2983 0.6577
C22 C 0.3475(17) 0.1429(7) 0.8456(6)
C23 C 0.3829(13) 0.1495(5) 0.9056(4)
H31 H 0.4749 0.1793 0.9104
H32 H 0.3982 0.0994 0.9213
H33 H 0.2988 0.1742 0.9247
C24 C 0.8263(15) 0.1254(6) 0.7613(5)
C25 C 0.8852(13) 0.0548(6) 0.7870(5)
H34 H 0.8046 0.0171 0.7881
H35 H 0.9199 0.0653 0.8248
H36 H 0.9696 0.0357 0.7648
C26 C 0.8236(16) 0.1684(6) 0.6204(5)
C27 C 0.9575(12) 0.2092(5) 0.5993(5)
H37 H 0.9444 0.2632 0.6055
H38 H 0.9689 0.1996 0.5594
H39 H 1.0479 0.1918 0.6189
C28 C 0.4292(12) 0.2462(5) 0.5882(4)
H40 H 0.5216 0.2392 0.5656
H41 H 0.3572 0.2053 0.5795
C29 C 0.2639(15) 0.3212(6) 0.5350(5)
C30 C 0.1955(17) 0.4013(6) 0.5286(6)
H42 H 0.1186 0.4000 0.4982
C31 C 0.3105(17) 0.4588(6) 0.5145(5)
H43 H 0.2617 0.5080 0.5110
H44 H 0.3588 0.4456 0.4792
H45 H 0.3869 0.4608 0.5439
C32 C 0.1135(17) 0.4223(6) 0.5842(6)
H46 H 0.0327 0.3860 0.5914
H47 H 0.0703 0.4728 0.5810
H48 H 0.1863 0.4212 0.6148
O20 O -0.0418(15) 0.3417(6) 0.7242(5)
H1 H 0.0253 0.3559 0.7490
H2 H 0.0100 0.3124 0.7022
loop_
_geom_bond_atom_site_label_1
_geom_bond_atom_site_label_2
_geom_bond_site_symmetry_1
_geom_bond_site_symmetry_2
O1 C1 1_555 1_555
O2 C2 1_555 1_555
O3 C6 1_555 1_555
O4 C3 1_555 1_555
O5 C1 1_555 1_555
O6 C8 1_555 1_555
O7 C4 1_555 1_555
O8 C10 1_555 1_555
O9 C12 1_555 1_555
O10 C13 1_555 1_555
O11 C18 1_555 1_555
O12 C22 1_555 1_555
O13 C19 1_555 1_555
O14 C17 1_555 1_555
O15 C24 1_555 1_555
O16 C20 1_555 1_555
O17 C26 1_555 1_555
O18 C28 1_555 1_555
O19 C29 1_555 1_555
O20 H1 1_555 1_555
H2 O20 1_555 1_555
C1 H3 1_555 1_555
C2 C1 1_555 1_555
H4 C2 1_555 1_555
C3 C2 1_555 1_555
H5 C3 1_555 1_555
C4 C3 1_555 1_555
H6 C4 1_555 1_555
C5 O5 1_555 1_555
H7 C5 1_555 1_555
C6 O2 1_555 1_555
C7 C6 1_555 1_555
H8 C7 1_555 1_555
H9 C7 1_555 1_555
H10 C7 1_555 1_555
C8 O4 1_555 1_555
C9 C8 1_555 1_555
H11 C9 1_555 1_555
H12 C9 1_555 1_555
H13 C9 1_555 1_555
C10 O7 1_555 1_555
C11 C10 1_555 1_555
H14 C11 1_555 1_555
H15 C11 1_555 1_555
H16 C11 1_555 1_555
C12 C5 1_555 1_555
H17 C12 1_555 1_555
H18 C12 1_555 1_555
C13 O9 1_555 1_555
C14 C13 1_555 1_555
H19 C14 1_555 1_555
C15 C14 1_555 1_555
H20 C15 1_555 1_555
H21 C15 1_555 1_555
H22 C15 1_555 1_555
C16 C14 1_555 1_555
H23 C16 1_555 1_555
H24 C16 1_555 1_555
H25 C16 1_555 1_555
C17 O1 1_555 1_555
H26 C17 1_555 1_555
C18 C17 1_555 1_555
H27 C18 1_555 1_555
C19 C18 1_555 1_555
H28 C19 1_555 1_555
C20 C19 1_555 1_555
H29 C20 1_555 1_555
C21 O14 1_555 1_555
H30 C21 1_555 1_555
C22 O11 1_555 1_555
C23 C22 1_555 1_555
H31 C23 1_555 1_555
H32 C23 1_555 1_555
H33 C23 1_555 1_555
C24 O13 1_555 1_555
C25 C24 1_555 1_555
H34 C25 1_555 1_555
H35 C25 1_555 1_555
H36 C25 1_555 1_555
C26 O16 1_555 1_555
C27 C26 1_555 1_555
H37 C27 1_555 1_555
H38 C27 1_555 1_555
H39 C27 1_555 1_555
C28 C21 1_555 1_555
H40 C28 1_555 1_555
H41 C28 1_555 1_555
C29 O18 1_555 1_555
C30 C29 1_555 1_555
H42 C30 1_555 1_555
C31 C30 1_555 1_555
H43 C31 1_555 1_555
H44 C31 1_555 1_555
H45 C31 1_555 1_555
C32 C30 1_555 1_555
H46 C32 1_555 1_555
H47 C32 1_555 1_555
H48 C32 1_555 1_555
C4 C5 1_555 1_555
C20 C21 1_555 1_555

#END
