
#######################################################################
#
#                 Cambridge Crystallographic Data Centre
#                                CCDC 
#
#######################################################################
#
# If this CIF has been generated from an entry in the Cambridge 
# Structural Database, then it will include bibliographic, chemical, 
# crystal, experimental, refinement or atomic coordinate data resulting 
# from the CCDC's data processing and validation procedures.
#
#######################################################################

data_QAMWUZ
_chemical_compound_source        
'fermentation broth of Penicillium sp. SCS-KFD09 isolated from a marine worm, Sipunculus nudus'
_chemical_name_common            'Chrodrimanin M'
_chemical_formula_moiety         'C25 H34 O7,0.8333(H2 O1)'
_chemical_name_systematic        
'5,8,11,13-tetrahydroxy-2,7a,10,10,13a-pentamethyl-1,7a,8,9,9a,10,11,12,13,13a,13b,14-dodecahydro-2H,4H-benzo[a]pyrano[3,4-j]xanthen-4-one unknown solvate hydrate'
_symmetry_cell_setting           monoclinic
_symmetry_space_group_name_H-M   'P 21'
_symmetry_Int_Tables_number      4
_space_group_name_Hall           'P 2yb'
loop_
_symmetry_equiv_pos_site_id
_symmetry_equiv_pos_as_xyz
1 x,y,z
2 -x,1/2+y,-z
_cell_length_a                   19.6602(15)
_cell_length_b                   14.7796(12)
_cell_length_c                   26.1250(19)
_cell_angle_alpha                90
_cell_angle_beta                 91.529(4)
_cell_angle_gamma                90
_cell_volume                     7588.44
_exptl_crystal_colour            colorless
_exptl_crystal_description       block
_cell_formula_units_Z            12
loop_
_atom_site_label
_atom_site_type_symbol
_atom_site_fract_x
_atom_site_fract_y
_atom_site_fract_z
O1 O 0.8624(2) 0.6199(3) 0.01673(19)
H1 H 0.8370 0.5922 -0.0031
O2 O 0.9261(3) 0.7424(4) 0.1767(2)
O3 O 0.8867(3) 0.3549(6) 0.2748(3)
O4 O 0.9647(4) 0.6909(4) -0.1181(2)
H2 H 0.9431 0.7293 -0.1343
O5 O 0.8844(3) 0.6145(6) 0.3350(2)
H3 H 0.8930 0.5673 0.3504
C1 C 0.9788(3) 0.6539(5) 0.0450(3)
O6 O 1.0214(4) 0.8425(6) 0.1464(3)
H4 H 1.0353 0.7940 0.1578
O7 O 0.8886(4) 0.4424(6) 0.3419(3)
C2 C 0.9031(4) 0.5035(6) 0.2092(3)
C3 C 0.9747(3) 0.7490(5) 0.0213(3)
H5 H 0.9263 0.7647 0.0215
C4 C 0.9610(3) 0.6551(5) 0.1032(3)
H6 H 1.0053 0.6544 0.1213
C5 C 0.9298(4) 0.5909(5) 0.0105(3)
H7 H 0.9344 0.5279 0.0217
C6 C 0.9134(3) 0.5778(5) 0.1775(3)
C7 C 0.9129(4) 0.6669(6) 0.2020(3)
C8 C 0.8927(4) 0.5150(7) 0.2627(3)
C9 C 0.9251(4) 0.5721(5) 0.1222(3)
H8 H 0.8818 0.5656 0.1039
H9 H 0.9523 0.5190 0.1152
C10 C 0.9945(4) 0.7567(5) -0.0361(3)
C11 C 0.9267(4) 0.7432(5) 0.1213(3)
C12 C 0.9472(4) 0.6952(5) -0.0651(3)
H10 H 0.9007 0.7184 -0.0627
C13 C 0.9693(4) 0.8263(5) 0.1083(3)
H11 H 0.9397 0.8795 0.1054
C14 C 1.0487(4) 0.6086(7) 0.0448(3)
H12 H 1.0612 0.5969 0.0102
H13 H 1.0469 0.5525 0.0633
H14 H 1.0818 0.6477 0.0609
C15 C 0.9489(5) 0.5984(5) -0.0467(3)
H15 H 0.9941 0.5739 -0.0509
H16 H 0.9173 0.5627 -0.0674
C16 C 0.8936(4) 0.6018(7) 0.2828(3)
C17 C 0.9778(5) 0.8533(6) -0.0542(4)
H17 H 0.9387 0.8751 -0.0367
H18 H 0.9683 0.8531 -0.0904
H19 H 1.0160 0.8921 -0.0467
C18 C 0.8523(4) 0.7569(6) 0.1038(3)
H20 H 0.8265 0.7038 0.1116
H21 H 0.8500 0.7677 0.0676
H22 H 0.8337 0.8080 0.1214
C19 C 0.8880(5) 0.4386(8) 0.2950(4)
C20 C 0.9030(4) 0.6744(6) 0.2537(3)
H23 H 0.9029 0.7314 0.2686
C21 C 1.0694(4) 0.7408(8) -0.0471(4)
H24 H 1.0969 0.7608 -0.0184
H25 H 1.0814 0.7740 -0.0770
H26 H 1.0770 0.6774 -0.0526
C22 C 1.0085(4) 0.8150(6) 0.0588(3)
H27 H 1.0125 0.8736 0.0423
H28 H 1.0541 0.7938 0.0673
C23 C 0.8688(5) 0.3447(7) 0.2183(4)
H29 H 0.8203 0.3594 0.2142
C24 C 0.9050(4) 0.4102(6) 0.1886(3)
H30 H 0.8859 0.4105 0.1540
H31 H 0.9521 0.3913 0.1867
C25 C 0.8762(7) 0.2486(9) 0.2032(6)
H32 H 0.8767 0.2112 0.2333
H33 H 0.9180 0.2409 0.1856
H34 H 0.8387 0.2315 0.1810
O8 O 0.7338(2) 0.0942(3) 1.05246(17)
O9 O 0.8074(2) -0.1088(3) 0.92560(18)
H35 H 0.8341 -0.1119 0.9021
O10 O 0.7106(3) -0.3622(3) 0.9015(2)
H36 H 0.7262 -0.4034 0.9192
O11 O 0.7706(3) 0.4054(4) 1.0534(2)
H37 H 0.7712 0.4497 1.0346
O12 O 0.7820(3) 0.4138(4) 0.8940(2)
O13 O 0.6571(3) -0.0118(4) 1.0976(2)
H38 H 0.6182 -0.0295 1.0915
O14 O 0.7713(3) 0.4890(4) 0.9659(3)
C26 C 0.7494(3) 0.1658(4) 0.9705(2)
C27 C 0.7679(3) 0.3296(5) 0.9717(3)
C28 C 0.7625(3) 0.3280(5) 1.0242(3)
C29 C 0.7462(3) 0.1695(4) 1.0220(3)
C30 C 0.7054(3) 0.0085(5) 0.9758(3)
H39 H 0.6603 0.0340 0.9816
C31 C 0.7249(4) -0.2055(5) 0.8838(3)
H40 H 0.7594 -0.2204 0.8594
H41 H 0.6812 -0.2054 0.8657
C32 C 0.6910(3) -0.0849(4) 0.9492(3)
C33 C 0.7401(3) 0.0046(4) 1.0297(3)
C34 C 0.7734(4) 0.4138(5) 0.9434(3)
C35 C 0.7602(3) 0.2461(5) 0.9448(3)
C36 C 0.7245(3) -0.2785(4) 0.9256(3)
H42 H 0.7707 -0.2820 0.9405
C37 C 0.7023(4) -0.0585(5) 1.0666(3)
H43 H 0.7359 -0.0901 1.0886
C38 C 0.6762(3) -0.2590(5) 0.9696(3)
C39 C 0.7401(4) 0.0775(5) 0.9421(3)
H44 H 0.7841 0.0546 0.9322
H45 H 0.7126 0.0874 0.9112
C40 C 0.7529(3) 0.2488(5) 1.0507(3)
H46 H 0.7511 0.2480 1.0863
C41 C 0.8158(3) -0.0187(5) 1.0305(3)
H47 H 0.8395 0.0234 1.0094
H48 H 0.8218 -0.0789 1.0176
H49 H 0.8337 -0.0152 1.0650
C42 C 0.6935(3) -0.1609(4) 0.9887(3)
H50 H 0.7416 -0.1643 0.9993
C43 C 0.7388(4) -0.1116(5) 0.9052(3)
H51 H 0.7340 -0.0672 0.8774
C44 C 0.6944(5) -0.3271(5) 1.0119(3)
H52 H 0.6846 -0.3873 1.0000
H53 H 0.6682 -0.3145 1.0415
H54 H 0.7420 -0.3223 1.0208
C45 C 0.6184(4) -0.0705(6) 0.9237(4)
H55 H 0.5842 -0.0885 0.9473
H56 H 0.6142 -0.1064 0.8932
H57 H 0.6124 -0.0078 0.9152
C46 C 0.7611(4) 0.2514(5) 0.8870(3)
H58 H 0.7147 0.2570 0.8738
H59 H 0.7795 0.1954 0.8738
C47 C 0.6579(4) -0.1301(6) 1.0370(3)
H60 H 0.6501 -0.1818 1.0589
H61 H 0.6140 -0.1039 1.0277
C48 C 0.8025(5) 0.3300(6) 0.8672(3)
H62 H 0.8506 0.3184 0.8757
C49 C 0.6008(4) -0.2732(6) 0.9517(4)
H63 H 0.5976 -0.2720 0.9150
H64 H 0.5733 -0.2257 0.9653
H65 H 0.5851 -0.3306 0.9639
C50 C 0.7965(7) 0.3481(8) 0.8132(3)
H66 H 0.7504 0.3645 0.8045
H67 H 0.8089 0.2950 0.7945
H68 H 0.8263 0.3970 0.8047
O15 O 0.5393(3) 1.0333(4) 0.64541(19)
H69 H 0.5161 1.0355 0.6189
O16 O 0.6069(3) 0.7299(4) 0.66044(19)
O17 O 0.6974(3) 0.7560(4) 0.7284(2)
H70 H 0.7105 0.7444 0.7577
O18 O 0.5494(3) 0.7029(5) 0.4217(2)
O19 O 0.5576(4) 0.5110(4) 0.5362(2)
H71 H 0.5432 0.5059 0.5066
O20 O 0.5492(3) 0.5604(5) 0.4434(2)
O21 O 0.6330(4) 1.2453(4) 0.7315(3)
H72 H 0.6732 1.2565 0.7266
C51 C 0.6174(4) 1.1574(5) 0.7133(3)
H73 H 0.5697 1.1458 0.7210
C52 C 0.5916(3) 0.7801(5) 0.5738(3)
C53 C 0.6070(5) 1.0567(6) 0.6350(3)
H74 H 0.6127 1.0571 0.5978
C54 C 0.6038(3) 0.8243(5) 0.6798(3)
C55 C 0.6538(3) 0.9849(6) 0.6589(3)
C56 C 0.5687(4) 0.6015(6) 0.5473(3)
C57 C 0.5651(4) 0.6661(6) 0.5102(3)
C58 C 0.6610(4) 1.0856(6) 0.7434(3)
C59 C 0.5529(4) 0.6406(8) 0.4568(4)
C60 C 0.5292(3) 0.8415(6) 0.6887(3)
H75 H 0.5059 0.8514 0.6564
H76 H 0.5245 0.8939 0.7100
H77 H 0.5099 0.7899 0.7053
C61 C 0.5781(4) 0.8280(6) 0.4795(3)
H78 H 0.5623 0.8857 0.4923
H79 H 0.6243 0.8359 0.4681
C62 C 0.5930(4) 0.7136(6) 0.6096(3)
C63 C 0.5775(3) 0.7563(6) 0.5235(3)
C64 C 0.6385(4) 0.8870(5) 0.6415(3)
H80 H 0.6836 0.8600 0.6375
C65 C 0.5827(4) 0.6251(6) 0.5982(3)
H81 H 0.5849 0.5812 0.6237
C66 C 0.6444(4) 0.8213(6) 0.7297(3)
H82 H 0.6135 0.8040 0.7569
C67 C 0.6453(4) 0.9937(5) 0.7180(3)
H83 H 0.5963 0.9856 0.7225
C68 C 0.6054(4) 0.8806(5) 0.5881(3)
H84 H 0.6352 0.9075 0.5633
H85 H 0.5630 0.9141 0.5872
C69 C 0.6372(5) 1.0839(7) 0.7978(3)
H86 H 0.6368 1.1444 0.8112
H87 H 0.6675 1.0472 0.8184
H88 H 0.5921 1.0591 0.7985
C70 C 0.5322(5) 0.7978(7) 0.4343(3)
H89 H 0.4846 0.8008 0.4443
C71 C 0.6233(5) 1.1508(6) 0.6563(3)
H90 H 0.6693 1.1670 0.6473
H91 H 0.5926 1.1944 0.6403
C72 C 0.7370(4) 1.1101(7) 0.7455(4)
H92 H 0.7441 1.1645 0.7262
H93 H 0.7628 1.0617 0.7311
H94 H 0.7516 1.1195 0.7804
C73 C 0.7270(5) 1.0033(8) 0.6413(4)
H95 H 0.7268 1.0089 0.6047
H96 H 0.7560 0.9540 0.6517
H97 H 0.7435 1.0584 0.6566
C74 C 0.6773(5) 0.9112(6) 0.7446(3)
H98 H 0.7251 0.9088 0.7365
H99 H 0.6743 0.9190 0.7813
C75 C 0.5409(5) 0.8535(8) 0.3887(3)
H100 H 0.5885 0.8591 0.3820
H101 H 0.5220 0.9124 0.3943
H102 H 0.5181 0.8255 0.3599
O22 O 0.4741(2) 1.0862(3) 0.84891(19)
H103 H 0.4761 1.0308 0.8488
O23 O 0.3979(3) 0.7870(4) 0.8638(3)
O24 O 0.4448(4) 0.8413(8) 1.1035(3)
C76 C 0.3691(4) 0.9469(5) 0.8665(3)
H104 H 0.3233 0.9243 0.8731
O25 O 0.2987(3) 0.8078(5) 0.7964(3)
H105 H 0.3050 0.7531 0.7946
O26 O 0.4480(3) 0.6111(5) 1.0081(4)
H106 H 0.4371 0.6069 1.0380
C77 C 0.3569(3) 1.0375(5) 0.8367(2)
O27 O 0.3918(5) 1.2728(5) 0.7416(2)
H107 H 0.3937 1.2643 0.7107
C78 C 0.4049(4) 1.1142(5) 0.8555(3)
H108 H 0.3977 1.1251 0.8919
C79 C 0.4023(4) 0.9551(5) 0.9183(3)
H109 H 0.4456 0.9856 0.9150
H110 H 0.3740 0.9923 0.9396
C80 C 0.4140(3) 0.8669(5) 0.9439(3)
C81 C 0.3693(4) 1.0255(5) 0.7791(3)
H111 H 0.4184 1.0146 0.7777
C82 C 0.4240(4) 0.8589(6) 0.9963(3)
C83 C 0.4229(4) 0.7021(7) 0.9369(5)
H112 H 0.4225 0.6500 0.9170
C84 C 0.4126(4) 0.7877(6) 0.9148(4)
C85 C 0.4026(4) 0.8710(6) 0.8359(3)
C86 C 0.4389(5) 0.7660(10) 1.0747(6)
C87 C 0.4246(4) 0.9408(7) 1.0315(3)
H113 H 0.4441 0.9919 1.0138
H114 H 0.3782 0.9562 1.0398
C88 C 0.4792(4) 0.8824(6) 0.8245(3)
H115 H 0.5050 0.8852 0.8562
H116 H 0.4857 0.9373 0.8056
H117 H 0.4943 0.8319 0.8047
C89 C 0.3577(4) 1.1114(6) 0.7444(3)
C90 C 0.3587(4) 0.8534(6) 0.7851(4)
H118 H 0.3852 0.8163 0.7618
O28 O 0.4358(4) 0.6928(7) 1.0984(4)
C91 C 0.2852(4) 1.0661(7) 0.8509(3)
H119 H 0.2525 1.0278 0.8337
H120 H 0.2776 1.1278 0.8408
H121 H 0.2804 1.0608 0.8873
C92 C 0.4005(5) 1.1885(6) 0.7679(3)
H122 H 0.4481 1.1712 0.7634
C93 C 0.4340(4) 0.7735(7) 1.0196(4)
C94 C 0.3927(5) 1.2025(6) 0.8259(3)
H123 H 0.4250 1.2479 0.8380
H124 H 0.3473 1.2246 0.8323
C95 C 0.4336(4) 0.6978(7) 0.9902(5)
C96 C 0.3383(5) 0.9397(7) 0.7584(4)
H125 H 0.3499 0.9344 0.7226
H126 H 0.2892 0.9453 0.7595
C97 C 0.4643(5) 0.9237(8) 1.0794(3)
H127 H 0.5127 0.9207 1.0717
C98 C 0.3834(6) 1.0942(8) 0.6915(3)
H128 H 0.4306 1.0778 0.6938
H129 H 0.3782 1.1481 0.6712
H130 H 0.3578 1.0459 0.6758
C99 C 0.2824(5) 1.1419(9) 0.7390(4)
H131 H 0.2585 1.1031 0.7152
H132 H 0.2804 1.2031 0.7269
H133 H 0.2615 1.1383 0.7718
C100 C 0.4537(8) 0.9955(11) 1.1196(4)
H134 H 0.4064 0.9980 1.1278
H135 H 0.4678 1.0532 1.1067
H136 H 0.4802 0.9809 1.1499
O29 O 0.8599(2) 0.0254(4) 0.5120(2)
H137 H 0.8439 0.0482 0.4857
O30 O 0.9469(3) 0.1598(4) 0.6619(2)
O31 O 1.0266(3) 0.2698(4) 0.6208(3)
H138 H 1.0539 0.2299 0.6287
O32 O 0.8865(4) -0.2126(6) 0.7756(3)
O33 O 0.9027(3) 0.0566(7) 0.8262(2)
H139 H 0.8659 0.0379 0.8357
C101 C 0.9268(4) 0.0003(5) 0.6705(3)
O34 O 0.9488(4) 0.0678(6) 0.3672(2)
H140 H 0.9881 0.0522 0.3624
C102 C 0.9744(3) 0.1437(5) 0.5026(3)
H141 H 0.9270 0.1632 0.5055
O35 O 0.8945(4) -0.1195(8) 0.8393(3)
C103 C 0.9234(4) -0.0087(5) 0.5029(3)
H142 H 0.9262 -0.0699 0.5171
C104 C 0.9876(4) 0.1440(6) 0.4452(3)
C105 C 0.9372(3) 0.1542(5) 0.6055(3)
C106 C 0.9316(4) 0.0863(6) 0.6916(3)
C107 C 0.9780(3) 0.0496(5) 0.5296(3)
C108 C 0.9134(4) -0.0699(6) 0.7055(3)
C109 C 0.8611(3) 0.1650(6) 0.5954(3)
H143 H 0.8380 0.1110 0.6058
H144 H 0.8524 0.1753 0.5595
H145 H 0.8447 0.2156 0.6146
C110 C 0.8942(4) -0.1309(10) 0.7923(3)
C111 C 0.9690(4) 0.0631(5) 0.5891(3)
H146 H 1.0155 0.0647 0.6035
C112 C 0.9782(4) 0.2355(5) 0.5852(3)
H147 H 0.9461 0.2841 0.5765
C113 C 0.9364(5) -0.0141(6) 0.4452(3)
H148 H 0.9794 -0.0446 0.4401
H149 H 0.9008 -0.0500 0.4287
C114 C 0.9384(5) 0.0761(6) 0.4208(3)
H150 H 0.8928 0.1019 0.4242
C115 C 0.9061(4) -0.0528(7) 0.7576(3)
C116 C 0.9360(4) -0.0171(5) 0.6154(3)
H151 H 0.8920 -0.0293 0.5990
H152 H 0.9642 -0.0704 0.6114
C117 C 0.9111(4) 0.0326(9) 0.7748(3)
C118 C 1.0614(4) 0.1230(8) 0.4315(4)
H153 H 1.0915 0.1430 0.4588
H154 H 1.0722 0.1539 0.4005
H155 H 1.0666 0.0590 0.4268
C119 C 1.0479(4) 0.0017(6) 0.5270(3)
H156 H 1.0533 -0.0229 0.4933
H157 H 1.0502 -0.0462 0.5518
H158 H 1.0835 0.0447 0.5342
C120 C 0.9240(4) 0.1044(7) 0.7415(3)
H159 H 0.9273 0.1634 0.7537
C121 C 0.8688(5) -0.2255(7) 0.7214(3)
H160 H 0.8212 -0.2080 0.7155
C122 C 1.0156(4) 0.2097(6) 0.5362(3)
H161 H 1.0247 0.2640 0.5167
H162 H 1.0590 0.1823 0.5456
C123 C 0.9128(5) -0.1679(6) 0.6880(3)
H163 H 0.8957 -0.1711 0.6528
H164 H 0.9589 -0.1913 0.6890
C124 C 0.9707(5) 0.2382(7) 0.4246(4)
H165 H 0.9285 0.2583 0.4384
H166 H 0.9665 0.2361 0.3880
H167 H 1.0063 0.2795 0.4346
C125 C 0.8756(7) -0.3278(8) 0.7114(5)
H168 H 0.9228 -0.3446 0.7134
H169 H 0.8572 -0.3418 0.6780
H170 H 0.8512 -0.3607 0.7367
O36 O 0.8042(3) 0.3248(4) 0.4017(2)
H171 H 0.8256 0.2833 0.3889
O37 O 0.7777(3) 0.8434(4) 0.4490(2)
O38 O 0.7269(3) 0.4582(4) 0.5510(2)
O39 O 0.6410(3) 0.3399(5) 0.5736(2)
H172 H 0.6570 0.3822 0.5903
O40 O 0.7750(3) 0.7544(4) 0.6003(2)
H173 H 0.7744 0.8062 0.5890
O41 O 0.7746(3) 0.8763(4) 0.5301(3)
O42 O 0.7106(4) 0.0865(4) 0.3378(3)
H174 H 0.7461 0.0632 0.3287
C126 C 0.7545(3) 0.6558(5) 0.4693(3)
C127 C 0.7384(4) 0.3279(6) 0.3797(3)
H175 H 0.7339 0.3837 0.3596
C128 C 0.7425(3) 0.5652(5) 0.4826(3)
C129 C 0.6916(3) 0.2373(5) 0.4525(3)
H176 H 0.7395 0.2313 0.4633
C130 C 0.7323(3) 0.3799(5) 0.5148(3)
C131 C 0.6871(3) 0.3308(5) 0.4227(3)
C132 C 0.7726(4) 0.8171(6) 0.4950(4)
C133 C 0.7647(4) 0.7214(5) 0.5091(3)
C134 C 0.6913(4) 0.3054(6) 0.5401(3)
H177 H 0.7228 0.2672 0.5601
C135 C 0.7636(4) 0.6939(6) 0.5606(3)
C136 C 0.6989(4) 0.4087(5) 0.4638(3)
H178 H 0.6532 0.4288 0.4725
C137 C 0.6761(4) 0.1527(5) 0.4192(3)
C138 C 0.7517(4) 0.6891(5) 0.4160(3)
H179 H 0.7048 0.7024 0.4062
H180 H 0.7677 0.6419 0.3935
C139 C 0.7518(4) 0.6051(6) 0.5735(3)
H181 H 0.7513 0.5870 0.6076
C140 C 0.7407(4) 0.5431(5) 0.5339(3)
C141 C 0.7946(4) 0.7736(5) 0.4091(3)
H182 H 0.8426 0.7568 0.4140
C142 C 0.7330(4) 0.4921(5) 0.4418(3)
H183 H 0.7054 0.5156 0.4136
H184 H 0.7770 0.4755 0.4287
C143 C 0.7256(4) 0.1585(6) 0.3722(3)
H185 H 0.7721 0.1489 0.3857
C144 C 0.8078(4) 0.3597(6) 0.5148(3)
H186 H 0.8300 0.4020 0.4929
H187 H 0.8148 0.2993 0.5025
H188 H 0.8264 0.3650 0.5490
C145 C 0.6031(4) 0.1389(6) 0.4000(4)
H189 H 0.5730 0.1436 0.4282
H190 H 0.5986 0.0800 0.3847
H191 H 0.5916 0.1843 0.3749
C146 C 0.7248(5) 0.2484(6) 0.3446(3)
H192 H 0.7589 0.2474 0.3184
H193 H 0.6807 0.2564 0.3276
C147 C 0.6544(5) 0.2455(7) 0.4997(4)
H194 H 0.6478 0.1856 0.5139
H195 H 0.6099 0.2710 0.4919
C148 C 0.6172(4) 0.3542(6) 0.3980(4)
H196 H 0.6141 0.4183 0.3928
H197 H 0.5818 0.3350 0.4202
H198 H 0.6121 0.3237 0.3657
C149 C 0.7868(5) 0.8214(7) 0.3587(3)
H199 H 0.7404 0.8401 0.3536
H200 H 0.7991 0.7812 0.3317
H201 H 0.8159 0.8735 0.3586
C150 C 0.6972(6) 0.0689(7) 0.4508(4)
H202 H 0.7382 0.0819 0.4702
H203 H 0.7050 0.0190 0.4282
H204 H 0.6616 0.0536 0.4737
O43 O 1.0312(6) -0.0801(8) 0.3324(4)
O44 O 0.7051(6) 1.3716(8) 0.6725(3)
O45 O 0.5276(5) 1.3469(8) 0.7643(5)
O46 O 0.8370(5) 0.0472(11) 0.2991(4)
O47 O 0.2915(7) 0.6230(8) 0.8279(5)
loop_
_geom_bond_atom_site_label_1
_geom_bond_atom_site_label_2
_geom_bond_site_symmetry_1
_geom_bond_site_symmetry_2
O1 H1 1_555 1_555
O2 C7 1_555 1_555
O3 C19 1_555 1_555
O4 H2 1_555 1_555
O5 H3 1_555 1_555
C1 C3 1_555 1_555
O6 H4 1_555 1_555
O7 C19 1_555 1_555
C2 C6 1_555 1_555
C3 H5 1_555 1_555
C4 C1 1_555 1_555
H6 C4 1_555 1_555
C5 O1 1_555 1_555
H7 C5 1_555 1_555
C6 C7 1_555 1_555
C7 C20 1_555 1_555
C8 C2 1_555 1_555
C9 C4 1_555 1_555
H8 C9 1_555 1_555
H9 C9 1_555 1_555
C10 C3 1_555 1_555
C11 O2 1_555 1_555
C12 O4 1_555 1_555
H10 C12 1_555 1_555
C13 O6 1_555 1_555
H11 C13 1_555 1_555
C14 C1 1_555 1_555
H12 C14 1_555 1_555
H13 C14 1_555 1_555
H14 C14 1_555 1_555
C15 C5 1_555 1_555
H15 C15 1_555 1_555
H16 C15 1_555 1_555
C16 O5 1_555 1_555
C17 C10 1_555 1_555
H17 C17 1_555 1_555
H18 C17 1_555 1_555
H19 C17 1_555 1_555
C18 C11 1_555 1_555
H20 C18 1_555 1_555
H21 C18 1_555 1_555
H22 C18 1_555 1_555
C19 C8 1_555 1_555
C20 C16 1_555 1_555
H23 C20 1_555 1_555
C21 C10 1_555 1_555
H24 C21 1_555 1_555
H25 C21 1_555 1_555
H26 C21 1_555 1_555
C22 C3 1_555 1_555
H27 C22 1_555 1_555
H28 C22 1_555 1_555
C23 O3 1_555 1_555
H29 C23 1_555 1_555
C24 C2 1_555 1_555
H30 C24 1_555 1_555
H31 C24 1_555 1_555
C25 C23 1_555 1_555
H32 C25 1_555 1_555
H33 C25 1_555 1_555
H34 C25 1_555 1_555
O8 C29 1_555 1_555
O9 H35 1_555 1_555
O10 H36 1_555 1_555
O11 H37 1_555 1_555
O12 C34 1_555 1_555
O13 H38 1_555 1_555
O14 C34 1_555 1_555
C26 C29 1_555 1_555
C27 C28 1_555 1_555
C28 O11 1_555 1_555
C29 C40 1_555 1_555
C30 H39 1_555 1_555
C31 H40 1_555 1_555
H41 C31 1_555 1_555
C32 C30 1_555 1_555
C33 O8 1_555 1_555
C34 C27 1_555 1_555
C35 C26 1_555 1_555
C36 O10 1_555 1_555
H42 C36 1_555 1_555
C37 O13 1_555 1_555
H43 C37 1_555 1_555
C38 C36 1_555 1_555
C39 C26 1_555 1_555
H44 C39 1_555 1_555
H45 C39 1_555 1_555
C40 C28 1_555 1_555
H46 C40 1_555 1_555
C41 C33 1_555 1_555
H47 C41 1_555 1_555
H48 C41 1_555 1_555
H49 C41 1_555 1_555
C42 C32 1_555 1_555
H50 C42 1_555 1_555
C43 O9 1_555 1_555
H51 C43 1_555 1_555
C44 C38 1_555 1_555
H52 C44 1_555 1_555
H53 C44 1_555 1_555
H54 C44 1_555 1_555
C45 C32 1_555 1_555
H55 C45 1_555 1_555
H56 C45 1_555 1_555
H57 C45 1_555 1_555
C46 C35 1_555 1_555
H58 C46 1_555 1_555
H59 C46 1_555 1_555
C47 C37 1_555 1_555
H60 C47 1_555 1_555
H61 C47 1_555 1_555
C48 O12 1_555 1_555
H62 C48 1_555 1_555
C49 C38 1_555 1_555
H63 C49 1_555 1_555
H64 C49 1_555 1_555
H65 C49 1_555 1_555
C50 C48 1_555 1_555
H66 C50 1_555 1_555
H67 C50 1_555 1_555
H68 C50 1_555 1_555
O15 H69 1_555 1_555
O16 C54 1_555 1_555
O17 H70 1_555 1_555
O18 C59 1_555 1_555
O19 H71 1_555 1_555
O20 C59 1_555 1_555
O21 H72 1_555 1_555
C51 O21 1_555 1_555
H73 C51 1_555 1_555
C52 C62 1_555 1_555
C53 O15 1_555 1_555
H74 C53 1_555 1_555
C54 C60 1_555 1_555
C55 C53 1_555 1_555
C56 O19 1_555 1_555
C57 C56 1_555 1_555
C58 C51 1_555 1_555
C59 C57 1_555 1_555
C60 H75 1_555 1_555
H76 C60 1_555 1_555
H77 C60 1_555 1_555
C61 H78 1_555 1_555
H79 C61 1_555 1_555
C62 O16 1_555 1_555
C63 C52 1_555 1_555
C64 C54 1_555 1_555
H80 C64 1_555 1_555
C65 C56 1_555 1_555
H81 C65 1_555 1_555
C66 O17 1_555 1_555
H82 C66 1_555 1_555
C67 C55 1_555 1_555
H83 C67 1_555 1_555
C68 C52 1_555 1_555
H84 C68 1_555 1_555
H85 C68 1_555 1_555
C69 C58 1_555 1_555
H86 C69 1_555 1_555
H87 C69 1_555 1_555
H88 C69 1_555 1_555
C70 O18 1_555 1_555
H89 C70 1_555 1_555
C71 C51 1_555 1_555
H90 C71 1_555 1_555
H91 C71 1_555 1_555
C72 C58 1_555 1_555
H92 C72 1_555 1_555
H93 C72 1_555 1_555
H94 C72 1_555 1_555
C73 C55 1_555 1_555
H95 C73 1_555 1_555
H96 C73 1_555 1_555
H97 C73 1_555 1_555
C74 C66 1_555 1_555
H98 C74 1_555 1_555
H99 C74 1_555 1_555
C75 C70 1_555 1_555
H100 C75 1_555 1_555
H101 C75 1_555 1_555
H102 C75 1_555 1_555
O22 H103 1_555 1_555
O23 C84 1_555 1_555
O24 C86 1_555 1_555
C76 H104 1_555 1_555
O25 H105 1_555 1_555
O26 H106 1_555 1_555
C77 C76 1_555 1_555
O27 H107 1_555 1_555
C78 O22 1_555 1_555
H108 C78 1_555 1_555
C79 C76 1_555 1_555
H109 C79 1_555 1_555
H110 C79 1_555 1_555
C80 C79 1_555 1_555
C81 C77 1_555 1_555
H111 C81 1_555 1_555
C82 C80 1_555 1_555
C83 H112 1_555 1_555
C84 C80 1_555 1_555
C85 O23 1_555 1_555
C86 O28 1_555 1_555
C87 C82 1_555 1_555
H113 C87 1_555 1_555
H114 C87 1_555 1_555
C88 C85 1_555 1_555
H115 C88 1_555 1_555
H116 C88 1_555 1_555
H117 C88 1_555 1_555
C89 C81 1_555 1_555
C90 O25 1_555 1_555
H118 C90 1_555 1_555
C91 C77 1_555 1_555
H119 C91 1_555 1_555
H120 C91 1_555 1_555
H121 C91 1_555 1_555
C92 O27 1_555 1_555
H122 C92 1_555 1_555
C93 C82 1_555 1_555
C94 C78 1_555 1_555
H123 C94 1_555 1_555
H124 C94 1_555 1_555
C95 O26 1_555 1_555
C96 C81 1_555 1_555
H125 C96 1_555 1_555
H126 C96 1_555 1_555
C97 O24 1_555 1_555
H127 C97 1_555 1_555
C98 C89 1_555 1_555
H128 C98 1_555 1_555
H129 C98 1_555 1_555
H130 C98 1_555 1_555
C99 C89 1_555 1_555
H131 C99 1_555 1_555
H132 C99 1_555 1_555
H133 C99 1_555 1_555
C100 C97 1_555 1_555
H134 C100 1_555 1_555
H135 C100 1_555 1_555
H136 C100 1_555 1_555
O29 H137 1_555 1_555
O30 C105 1_555 1_555
O31 H138 1_555 1_555
O32 C110 1_555 1_555
O33 H139 1_555 1_555
C101 C106 1_555 1_555
O34 H140 1_555 1_555
C102 H141 1_555 1_555
O35 C110 1_555 1_555
C103 O29 1_555 1_555
H142 C103 1_555 1_555
C104 C102 1_555 1_555
C105 C109 1_555 1_555
C106 O30 1_555 1_555
C107 C102 1_555 1_555
C108 C101 1_555 1_555
C109 H143 1_555 1_555
H144 C109 1_555 1_555
H145 C109 1_555 1_555
C110 C115 1_555 1_555
C111 C105 1_555 1_555
H146 C111 1_555 1_555
C112 O31 1_555 1_555
H147 C112 1_555 1_555
C113 C103 1_555 1_555
H148 C113 1_555 1_555
H149 C113 1_555 1_555
C114 O34 1_555 1_555
H150 C114 1_555 1_555
C115 C108 1_555 1_555
C116 C101 1_555 1_555
H151 C116 1_555 1_555
H152 C116 1_555 1_555
C117 O33 1_555 1_555
C118 C104 1_555 1_555
H153 C118 1_555 1_555
H154 C118 1_555 1_555
H155 C118 1_555 1_555
C119 C107 1_555 1_555
H156 C119 1_555 1_555
H157 C119 1_555 1_555
H158 C119 1_555 1_555
C120 C106 1_555 1_555
H159 C120 1_555 1_555
C121 O32 1_555 1_555
H160 C121 1_555 1_555
C122 C102 1_555 1_555
H161 C122 1_555 1_555
H162 C122 1_555 1_555
C123 C108 1_555 1_555
H163 C123 1_555 1_555
H164 C123 1_555 1_555
C124 C104 1_555 1_555
H165 C124 1_555 1_555
H166 C124 1_555 1_555
H167 C124 1_555 1_555
C125 C121 1_555 1_555
H168 C125 1_555 1_555
H169 C125 1_555 1_555
H170 C125 1_555 1_555
O36 H171 1_555 1_555
O37 C132 1_555 1_555
O38 C130 1_555 1_555
O39 H172 1_555 1_555
O40 H173 1_555 1_555
O41 C132 1_555 1_555
O42 H174 1_555 1_555
C126 C128 1_555 1_555
C127 O36 1_555 1_555
H175 C127 1_555 1_555
C128 C140 1_555 1_555
C129 H176 1_555 1_555
C130 C134 1_555 1_555
C131 C127 1_555 1_555
C132 C133 1_555 1_555
C133 C126 1_555 1_555
C134 O39 1_555 1_555
H177 C134 1_555 1_555
C135 O40 1_555 1_555
C136 C130 1_555 1_555
H178 C136 1_555 1_555
C137 C129 1_555 1_555
C138 C126 1_555 1_555
H179 C138 1_555 1_555
H180 C138 1_555 1_555
C139 C135 1_555 1_555
H181 C139 1_555 1_555
C140 O38 1_555 1_555
C141 O37 1_555 1_555
H182 C141 1_555 1_555
C142 C128 1_555 1_555
H183 C142 1_555 1_555
H184 C142 1_555 1_555
C143 O42 1_555 1_555
H185 C143 1_555 1_555
C144 C130 1_555 1_555
H186 C144 1_555 1_555
H187 C144 1_555 1_555
H188 C144 1_555 1_555
C145 C137 1_555 1_555
H189 C145 1_555 1_555
H190 C145 1_555 1_555
H191 C145 1_555 1_555
C146 C127 1_555 1_555
H192 C146 1_555 1_555
H193 C146 1_555 1_555
C147 C129 1_555 1_555
H194 C147 1_555 1_555
H195 C147 1_555 1_555
C148 C131 1_555 1_555
H196 C148 1_555 1_555
H197 C148 1_555 1_555
H198 C148 1_555 1_555
C149 C141 1_555 1_555
H199 C149 1_555 1_555
H200 C149 1_555 1_555
H201 C149 1_555 1_555
C150 C137 1_555 1_555
H202 C150 1_555 1_555
H203 C150 1_555 1_555
H204 C150 1_555 1_555
C1 C5 1_555 1_555
C4 C11 1_555 1_555
C6 C9 1_555 1_555
C8 C16 1_555 1_555
C10 C12 1_555 1_555
C11 C13 1_555 1_555
C12 C15 1_555 1_555
C13 C22 1_555 1_555
C23 C24 1_555 1_555
C27 C35 1_555 1_555
C30 C33 1_555 1_555
C30 C39 1_555 1_555
C31 C36 1_555 1_555
C31 C43 1_555 1_555
C32 C43 1_555 1_555
C33 C37 1_555 1_555
C38 C42 1_555 1_555
C42 C47 1_555 1_555
C46 C48 1_555 1_555
C53 C71 1_555 1_555
C54 C66 1_555 1_555
C55 C64 1_555 1_555
C57 C63 1_555 1_555
C58 C67 1_555 1_555
C61 C63 1_555 1_555
C61 C70 1_555 1_555
C62 C65 1_555 1_555
C64 C68 1_555 1_555
C67 C74 1_555 1_555
C76 C85 1_555 1_555
C77 C78 1_555 1_555
C83 C84 1_555 1_555
C83 C95 1_555 1_555
C85 C90 1_555 1_555
C86 C93 1_555 1_555
C87 C97 1_555 1_555
C89 C92 1_555 1_555
C90 C96 1_555 1_555
C92 C94 1_555 1_555
C93 C95 1_555 1_555
C103 C107 1_555 1_555
C104 C114 1_555 1_555
C105 C112 1_555 1_555
C107 C111 1_555 1_555
C111 C116 1_555 1_555
C112 C122 1_555 1_555
C113 C114 1_555 1_555
C115 C117 1_555 1_555
C117 C120 1_555 1_555
C121 C123 1_555 1_555
C129 C131 1_555 1_555
C131 C136 1_555 1_555
C133 C135 1_555 1_555
C134 C147 1_555 1_555
C136 C142 1_555 1_555
C137 C143 1_555 1_555
C138 C141 1_555 1_555
C139 C140 1_555 1_555
C143 C146 1_555 1_555

#END
