
#######################################################################
#
#                 Cambridge Crystallographic Data Centre
#                                CCDC 
#
#######################################################################
#
# If this CIF has been generated from an entry in the Cambridge 
# Structural Database, then it will include bibliographic, chemical, 
# crystal, experimental, refinement or atomic coordinate data resulting 
# from the CCDC's data processing and validation procedures.
#
#######################################################################

data_QAMYEL
_chemical_compound_source        
'Isolated from the fermentation broth of Penicillium sp. SCS-KFD09 isolated from a marine worm, Sipunculus nudus, from Haikou Bay, China.'
_chemical_name_common            'chrodrimanin K'
_chemical_formula_moiety         'C25 H31 Cl1 O6'
_chemical_name_systematic        
6-chloro-5,8-dihydroxy-2,7a,10,10,13a-pentamethyl-1,8,9,9a,10,12,13,13a,13b,14-decahydro-2H,4H-benzo[a]pyrano[3,4-j]xanthene-4,11(7aH)-dione
_chemical_properties_biological  'anti-H1N1 activity'
_symmetry_cell_setting           orthorhombic
_symmetry_space_group_name_H-M   'P 21 21 21'
_symmetry_Int_Tables_number      19
_space_group_name_Hall           'P 2ac 2ab'
loop_
_symmetry_equiv_pos_site_id
_symmetry_equiv_pos_as_xyz
1 x,y,z
2 1/2-x,-y,1/2+z
3 -x,1/2+y,1/2-z
4 1/2+x,1/2-y,-z
_cell_length_a                   15.2749(18)
_cell_length_b                   15.1875(17)
_cell_length_c                   10.1806(12)
_cell_angle_alpha                90
_cell_angle_beta                 90
_cell_angle_gamma                90
_cell_volume                     2361.77
_exptl_crystal_colour            colorless
_exptl_crystal_description       block
_cell_formula_units_Z            4
loop_
_atom_site_label
_atom_site_type_symbol
_atom_site_fract_x
_atom_site_fract_y
_atom_site_fract_z
Cl1 Cl -0.03233(14) 0.48567(15) 0.3568(3)
O1 O 0.6398(5) 0.3274(6) 0.3906(9)
O2 O 0.1860(4) 0.3321(6) 0.2252(7)
H1 H 0.1369 0.3510 0.2419
O3 O 0.1500(3) 0.4482(4) 0.3934(7)
O4 O -0.0577(4) 0.6709(5) 0.3595(8)
H2 H -0.0628 0.7246 0.3552
O5 O -0.0032(4) 0.8293(5) 0.3648(9)
O6 O 0.1333(4) 0.8631(4) 0.4104(8)
C1 C 0.4567(6) 0.4649(7) 0.4924(10)
H3 H 0.4201 0.4616 0.5701
H4 H 0.4718 0.5262 0.4786
C2 C 0.2056(5) 0.5965(6) 0.4047(8)
C3 C 0.5410(8) 0.4119(9) 0.5163(13)
H5 H 0.5895 0.4531 0.5190
H6 H 0.5368 0.3852 0.6026
C4 C 0.1843(5) 0.6841(6) 0.4037(8)
C5 C 0.5637(6) 0.3413(8) 0.4209(10)
C6 C 0.0950(5) 0.7110(6) 0.3923(8)
C7 C 0.4898(5) 0.2838(7) 0.3723(11)
C8 C 0.0287(6) 0.6495(6) 0.3762(9)
C9 C 0.3991(5) 0.3311(5) 0.3862(8)
H7 H 0.3810 0.3203 0.4771
C10 C 0.0499(5) 0.5605(6) 0.3770(9)
C11 C 0.3262(6) 0.2926(7) 0.3025(10)
H8 H 0.3290 0.2289 0.3074
H9 H 0.3358 0.3094 0.2117
C12 C 0.1375(5) 0.5360(5) 0.3935(8)
C13 C 0.2345(5) 0.3227(5) 0.3441(8)
H10 H 0.2074 0.2771 0.3987
C14 C 0.2524(6) 0.7554(6) 0.4106(10)
H11 H 0.3015 0.7349 0.4627
H12 H 0.2738 0.7677 0.3227
C15 C 0.2369(5) 0.4104(5) 0.4210(8)
C16 C 0.2174(7) 0.8385(7) 0.4696(11)
H13 H 0.2094 0.8299 0.5642
C17 C 0.3079(5) 0.4707(5) 0.3648(9)
H14 H 0.2953 0.4748 0.2706
C18 C 0.2759(8) 0.9148(8) 0.4477(19)
H15 H 0.2910 0.9183 0.3563
H16 H 0.3282 0.9078 0.4989
H17 H 0.2465 0.9679 0.4737
C19 C 0.4047(5) 0.4317(5) 0.3741(8)
C20 C 0.0723(6) 0.8043(6) 0.3882(9)
C21 C 0.2998(5) 0.5637(6) 0.4164(9)
H18 H 0.3383 0.6022 0.3669
H19 H 0.3179 0.5654 0.5077
C22 C 0.2401(7) 0.3963(8) 0.5686(9)
H20 H 0.2345 0.4520 0.6124
H21 H 0.2950 0.3698 0.5920
H22 H 0.1930 0.3583 0.5946
C23 C 0.5088(8) 0.2513(10) 0.2322(13)
H23 H 0.4634 0.2116 0.2050
H24 H 0.5641 0.2213 0.2306
H25 H 0.5107 0.3007 0.1735
C24 C 0.4900(9) 0.2031(8) 0.4643(15)
H26 H 0.4868 0.2225 0.5539
H27 H 0.5429 0.1701 0.4514
H28 H 0.4405 0.1665 0.4449
C25 C 0.4516(7) 0.4610(8) 0.2472(10)
H29 H 0.4246 0.4331 0.1729
H30 H 0.5121 0.4444 0.2515
H31 H 0.4471 0.5238 0.2382
loop_
_geom_bond_atom_site_label_1
_geom_bond_atom_site_label_2
_geom_bond_site_symmetry_1
_geom_bond_site_symmetry_2
Cl1 C10 1_555 1_555
O1 C5 1_555 1_555
O2 H1 1_555 1_555
O3 C12 1_555 1_555
O4 H2 1_555 1_555
O5 C20 1_555 1_555
O6 C16 1_555 1_555
C1 H3 1_555 1_555
H4 C1 1_555 1_555
C2 C4 1_555 1_555
C3 C1 1_555 1_555
H5 C3 1_555 1_555
H6 C3 1_555 1_555
C4 C6 1_555 1_555
C5 C3 1_555 1_555
C6 C8 1_555 1_555
C7 C5 1_555 1_555
C8 O4 1_555 1_555
C9 C7 1_555 1_555
H7 C9 1_555 1_555
C10 C8 1_555 1_555
C11 C9 1_555 1_555
H8 C11 1_555 1_555
H9 C11 1_555 1_555
C12 C2 1_555 1_555
C13 O2 1_555 1_555
H10 C13 1_555 1_555
C14 C4 1_555 1_555
H11 C14 1_555 1_555
H12 C14 1_555 1_555
C15 O3 1_555 1_555
C16 C14 1_555 1_555
H13 C16 1_555 1_555
C17 C15 1_555 1_555
H14 C17 1_555 1_555
C18 C16 1_555 1_555
H15 C18 1_555 1_555
H16 C18 1_555 1_555
H17 C18 1_555 1_555
C19 C1 1_555 1_555
C20 O6 1_555 1_555
C21 C2 1_555 1_555
H18 C21 1_555 1_555
H19 C21 1_555 1_555
C22 C15 1_555 1_555
H20 C22 1_555 1_555
H21 C22 1_555 1_555
H22 C22 1_555 1_555
C23 C7 1_555 1_555
H23 C23 1_555 1_555
H24 C23 1_555 1_555
H25 C23 1_555 1_555
C24 C7 1_555 1_555
H26 C24 1_555 1_555
H27 C24 1_555 1_555
H28 C24 1_555 1_555
C25 C19 1_555 1_555
H29 C25 1_555 1_555
H30 C25 1_555 1_555
H31 C25 1_555 1_555
C6 C20 1_555 1_555
C9 C19 1_555 1_555
C10 C12 1_555 1_555
C11 C13 1_555 1_555
C13 C15 1_555 1_555
C17 C19 1_555 1_555
C17 C21 1_555 1_555

#END
