
#######################################################################
#
#                 Cambridge Crystallographic Data Centre
#                                CCDC 
#
#######################################################################
#
# If this CIF has been generated from an entry in the Cambridge 
# Structural Database, then it will include bibliographic, chemical, 
# crystal, experimental, refinement or atomic coordinate data resulting 
# from the CCDC's data processing and validation procedures.
#
#######################################################################

data_QAMZIN
_chemical_name_common            
Spiro[(1,7-bis(hydroxy)-3a,4-dimethylperhydroindane)-2,3'-(4'-methylene-tetrahydrofuran-2'-one)]
_chemical_formula_moiety         'C15 H22 O4'
_chemical_name_systematic        '(+-)-Bakkenolide III'
_chemical_properties_biological  'antitumor activity'
_symmetry_cell_setting           monoclinic
_symmetry_space_group_name_H-M   'P 21/c'
_symmetry_Int_Tables_number      14
_space_group_name_Hall           '-P 2ybc'
loop_
_symmetry_equiv_pos_site_id
_symmetry_equiv_pos_as_xyz
1 x,y,z
2 -x,1/2+y,1/2-z
3 -x,-y,-z
4 x,1/2-y,1/2+z
_cell_length_a                   13.261(3)
_cell_length_b                   7.267(6)
_cell_length_c                   15.454(5)
_cell_angle_alpha                90
_cell_angle_beta                 110.36(2)
_cell_angle_gamma                90
_cell_volume                     1396.22
_exptl_crystal_colour            colorless
_exptl_crystal_description       prism
_chemical_melting_point          177-178deg.C
_cell_formula_units_Z            4
loop_
_atom_site_label
_atom_site_type_symbol
_atom_site_fract_x
_atom_site_fract_y
_atom_site_fract_z
O1 O 0.78774(7) -0.2246(1) 1.06069(5)
O2 O 0.73769(7) -0.1409(1) 0.72217(5)
O3 O 0.88967(6) -0.1401(1) 0.93340(6)
O4 O 0.89520(6) -0.0125(1) 0.74408(6)
C1 C 0.71064(8) -0.0800(1) 1.02660(6)
C2 C 0.73251(9) 0.0821(2) 1.09168(6)
C3 C 0.65490(9) 0.2374(2) 1.04945(7)
C4 C 0.66205(8) 0.3007(1) 0.95723(6)
C5 C 0.64207(7) 0.1403(1) 0.88723(5)
C6 C 0.68432(8) 0.1918(2) 0.80883(6)
C7 C 0.79902(7) 0.1131(1) 0.83304(5)
C8 C 0.80419(8) -0.0289(1) 0.76237(6)
C9 C 0.82275(7) 0.0154(1) 0.92799(6)
C10 C 0.71194(7) -0.0283(1) 0.93116(6)
C11 C 0.88877(8) 0.2409(2) 0.83450(7)
C12 C 0.9609(1) 0.1351(2) 0.7974(1)
C13 C 0.9040(1) 0.4123(2) 0.8624(1)
C14 C 0.5877(1) 0.4646(2) 0.91966(9)
C15 C 0.52282(8) 0.0888(2) 0.84764(8)
H1 H 0.785(1) -0.261(2) 1.109(1)
H2 H 0.6371(9) -0.129(2) 1.0194(8)
H3 H 0.7370(9) 0.339(2) 0.9732(8)
H4 H 0.8629(9) 0.102(2) 0.9755(8)
H5 H 0.884(1) -0.202(2) 0.974(1)
H6 H 0.686(1) -0.133(2) 0.8891(8)
H7 H 0.808(1) 0.123(2) 1.1052(8)
H8 H 0.726(1) 0.045(2) 1.1506(8)
H9 H 0.669(1) 0.342(2) 1.0927(9)
H10 H 0.577(1) 0.200(2) 1.0397(9)
H11 H 0.686(1) 0.328(2) 0.8026(9)
H12 H 0.639(1) 0.135(2) 0.7490(8)
H13 H 0.991(1) 0.203(2) 0.761(1)
H14 H 1.024(1) 0.080(2) 0.844(1)
H15 H 0.850(1) 0.476(2) 0.882(1)
H16 H 0.970(1) 0.480(2) 0.862(1)
H17 H 0.605(1) 0.560(2) 0.965(1)
H18 H 0.510(1) 0.429(2) 0.910(1)
H19 H 0.590(1) 0.506(2) 0.859(1)
H20 H 0.478(1) 0.187(2) 0.8060(9)
H21 H 0.516(1) -0.024(2) 0.8098(9)
H22 H 0.490(1) 0.061(2) 0.897(1)
loop_
_geom_bond_atom_site_label_1
_geom_bond_atom_site_label_2
_geom_bond_site_symmetry_1
_geom_bond_site_symmetry_2
O1 C1 1_555 1_555
O2 C8 1_555 1_555
O3 C9 1_555 1_555
O4 C8 1_555 1_555
C1 C2 1_555 1_555
C2 C3 1_555 1_555
C3 C4 1_555 1_555
C4 C5 1_555 1_555
C5 C6 1_555 1_555
C6 C7 1_555 1_555
C7 C8 1_555 1_555
C9 C7 1_555 1_555
C10 C1 1_555 1_555
C11 C7 1_555 1_555
C12 O4 1_555 1_555
C13 C11 1_555 1_555
C14 C4 1_555 1_555
C15 C5 1_555 1_555
H1 O1 1_555 1_555
H2 C1 1_555 1_555
H3 C4 1_555 1_555
H4 C9 1_555 1_555
H5 O3 1_555 1_555
H6 C10 1_555 1_555
H7 C2 1_555 1_555
H8 C2 1_555 1_555
H9 C3 1_555 1_555
H10 C3 1_555 1_555
H11 C6 1_555 1_555
H12 C6 1_555 1_555
H13 C12 1_555 1_555
H14 C12 1_555 1_555
H15 C13 1_555 1_555
H16 C13 1_555 1_555
H17 C14 1_555 1_555
H18 C14 1_555 1_555
H19 C14 1_555 1_555
H20 C15 1_555 1_555
H21 C15 1_555 1_555
H22 C15 1_555 1_555
C5 C10 1_555 1_555
C9 C10 1_555 1_555
C11 C12 1_555 1_555

#END
