
#######################################################################
#
#                 Cambridge Crystallographic Data Centre
#                                CCDC 
#
#######################################################################
#
# If this CIF has been generated from an entry in the Cambridge 
# Structural Database, then it will include bibliographic, chemical, 
# crystal, experimental, refinement or atomic coordinate data resulting 
# from the CCDC's data processing and validation procedures.
#
#######################################################################

data_QANCEP
_chemical_formula_moiety         'C21 H19 B1 Br1 F2 N3 O3'
_chemical_name_systematic        
(1-(5-Bromo-3-((3,5-dimethyl-1H-pyrrol-2-yl)(3,5-dimethyl-2H-pyrrol-2-ylidene)methyl)-2-furyl)pyrrolidine-2,5-dionato)(difluoro)boron
_symmetry_cell_setting           triclinic
_symmetry_space_group_name_H-M   'P 1'
_symmetry_Int_Tables_number      1
_space_group_name_Hall           'P 1'
loop_
_symmetry_equiv_pos_site_id
_symmetry_equiv_pos_as_xyz
1 x,y,z
_cell_length_a                   8.4612(8)
_cell_length_b                   10.4662(10)
_cell_length_c                   13.0633(13)
_cell_angle_alpha                70.535(6)
_cell_angle_beta                 75.066(6)
_cell_angle_gamma                70.753(6)
_cell_volume                     1015.45
_cell_formula_units_Z            2
loop_
_atom_site_label
_atom_site_type_symbol
_atom_site_fract_x
_atom_site_fract_y
_atom_site_fract_z
B1 B 0.9867(19) -0.0067(16) 0.3230(13)
Br1 Br -0.06534(11) 0.31964(11) 0.46946(9)
F1 F 1.0725(12) -0.0577(10) 0.2303(7)
F2 F 1.1114(10) -0.0066(10) 0.3753(7)
N1 N 0.8826(13) 0.1486(13) 0.2812(9)
N2 N 0.8663(15) -0.0837(12) 0.3955(9)
N3 N 0.4740(15) 0.2622(13) 0.6069(9)
O1 O 0.2163(11) 0.2924(10) 0.5522(8)
O2 O 0.5584(17) 0.0303(12) 0.7037(9)
O3 O 0.412(2) 0.5003(14) 0.5512(12)
C1 C 0.935(2) 0.2568(17) 0.1953(14)
C2 C 0.798(2) 0.3777(16) 0.1908(13)
H1 H 0.8022 0.4647 0.1412
C3 C 0.660(2) 0.3548(16) 0.2655(13)
C4 C 0.7182(19) 0.2063(16) 0.3227(11)
C5 C 0.6171(16) 0.1242(13) 0.4035(11)
C6 C 0.6933(18) -0.0252(17) 0.4396(12)
C7 C 0.6235(19) -0.1396(16) 0.5095(12)
C8 C 0.762(2) -0.2585(15) 0.5052(11)
H2 H 0.7553 -0.3500 0.5419
C9 C 0.902(2) -0.2265(16) 0.4432(14)
C10 C 0.3945(16) 0.2437(16) 0.5369(12)
C11 C 0.4457(18) 0.1785(16) 0.4486(11)
C12 C 0.3029(18) 0.1890(14) 0.4151(11)
H3 H 0.3011 0.1512 0.3604
C13 C 0.1558(19) 0.2642(16) 0.4730(11)
C14 C 0.472(2) 0.3905(19) 0.6121(10)
C15 C 0.560(2) 0.3676(19) 0.7114(12)
H4 H 0.6565 0.4076 0.6861
H5 H 0.4809 0.4118 0.7659
C16 C 0.6129(19) 0.2238(19) 0.7555(12)
H6 H 0.5632 0.1982 0.8327
H7 H 0.7355 0.1931 0.7496
C17 C 0.5519(19) 0.1504(17) 0.6870(12)
C18 C 0.490(2) 0.4543(17) 0.2825(14)
H8 H 0.4820 0.5379 0.2221
H9 H 0.4741 0.4784 0.3499
H10 H 0.4042 0.4107 0.2865
C19 C 1.1074(17) 0.2389(16) 0.1323(11)
H11 H 1.1810 0.2484 0.1727
H12 H 1.1064 0.3094 0.0628
H13 H 1.1477 0.1473 0.1199
C20 C 0.453(2) -0.139(2) 0.5710(14)
H14 H 0.3709 -0.0795 0.5244
H15 H 0.4353 -0.1049 0.6337
H16 H 0.4407 -0.2333 0.5952
C21 C 1.066(2) -0.3211(17) 0.4145(11)
H17 H 1.0614 -0.4168 0.4482
H18 H 1.1520 -0.3044 0.4406
H19 H 1.0938 -0.3046 0.3360
B2 B 0.609(2) 1.066(2) 1.0960(13)
Br2 Br 1.66321(11) 0.75446(12) 0.94137(9)
F3 F 0.4897(11) 1.0776(10) 1.0344(8)
F4 F 0.5274(10) 1.1294(10) 1.1813(7)
N4 N 0.7148(15) 0.9189(12) 1.1367(10)
N5 N 0.7327(14) 1.1626(13) 1.0135(9)
N6 N 1.1241(14) 0.8109(13) 0.8062(10)
O4 O 1.3777(12) 0.7771(11) 0.8628(7)
O5 O 1.1785(18) 0.5668(11) 0.8655(10)
O6 O 1.0367(16) 1.0403(13) 0.7115(11)
C22 C 0.6664(18) 0.8175(17) 1.2138(12)
C23 C 0.7966(19) 0.6951(17) 1.2265(12)
H20 H 0.7943 0.6098 1.2791
C24 C 0.9328(19) 0.7254(17) 1.1441(13)
C25 C 0.8878(16) 0.8676(17) 1.0842(13)
C26 C 0.9642(14) 0.9661(17) 1.0027(11)
C27 C 0.8979(18) 1.1055(15) 0.9725(10)
C28 C 0.9637(18) 1.2157(17) 0.8994(12)
C29 C 0.8418(19) 1.3424(18) 0.8955(14)
H21 H 0.8503 1.4320 0.8539
C30 C 0.6929(19) 1.3009(16) 0.9743(11)
C31 C 1.2098(19) 0.8293(15) 0.8797(11)
C32 C 1.1512(16) 0.8913(14) 0.9561(12)
C33 C 1.3076(17) 0.8762(16) 0.9999(12)
H22 H 1.3156 0.9047 1.0582
C34 C 1.4252(17) 0.8144(16) 0.9356(12)
C35 C 1.1213(18) 0.6745(13) 0.8033(12)
C36 C 1.050(2) 0.6967(17) 0.7103(15)
H23 H 0.9553 0.6554 0.7312
H24 H 1.1342 0.6548 0.6561
C37 C 0.9867(19) 0.8653(15) 0.6609(13)
H25 H 1.0316 0.8932 0.5830
H26 H 0.8637 0.8968 0.6707
C38 C 1.048(2) 0.9216(15) 0.7194(13)
C39 C 1.0997(18) 0.6114(18) 1.1340(12)
H27 H 1.1283 0.6000 1.0610
H28 H 1.0874 0.5242 1.1865
H29 H 1.1882 0.6384 1.1483
C40 C 0.492(2) 0.8333(18) 1.2834(14)
H30 H 0.4676 0.7436 1.3118
H31 H 0.4095 0.8985 1.2392
H32 H 0.4895 0.8680 1.3434
C41 C 1.1463(18) 1.2092(19) 0.8366(14)
H33 H 1.2196 1.1943 0.8870
H34 H 1.1477 1.2962 0.7807
H35 H 1.1852 1.1331 0.8030
C42 C 0.5197(18) 1.3965(15) 0.9956(14)
H36 H 0.4357 1.3486 1.0049
H37 H 0.5043 1.4790 0.9344
H38 H 0.5079 1.4234 1.0612
loop_
_geom_bond_atom_site_label_1
_geom_bond_atom_site_label_2
_geom_bond_site_symmetry_1
_geom_bond_site_symmetry_2
B1 F1 1_555 1_555
Br1 C13 1_555 1_555
F2 B1 1_555 1_555
N1 B1 1_555 1_555
N2 B1 1_555 1_555
N3 C10 1_555 1_555
O1 C10 1_555 1_555
O2 C17 1_555 1_555
O3 C14 1_555 1_555
C1 N1 1_555 1_555
C2 C1 1_555 1_555
H1 C2 1_555 1_555
C3 C2 1_555 1_555
C4 N1 1_555 1_555
C5 C4 1_555 1_555
C6 N2 1_555 1_555
C7 C6 1_555 1_555
C8 C7 1_555 1_555
H2 C8 1_555 1_555
C9 N2 1_555 1_555
C10 C11 1_555 1_555
C11 C5 1_555 1_555
C12 C11 1_555 1_555
H3 C12 1_555 1_555
C13 O1 1_555 1_555
C14 N3 1_555 1_555
C15 C14 1_555 1_555
H4 C15 1_555 1_555
H5 C15 1_555 1_555
C16 C15 1_555 1_555
H6 C16 1_555 1_555
H7 C16 1_555 1_555
C17 N3 1_555 1_555
C18 C3 1_555 1_555
H8 C18 1_555 1_555
H9 C18 1_555 1_555
H10 C18 1_555 1_555
C19 C1 1_555 1_555
H11 C19 1_555 1_555
H12 C19 1_555 1_555
H13 C19 1_555 1_555
C20 C7 1_555 1_555
H14 C20 1_555 1_555
H15 C20 1_555 1_555
H16 C20 1_555 1_555
C21 C9 1_555 1_555
H17 C21 1_555 1_555
H18 C21 1_555 1_555
H19 C21 1_555 1_555
B2 F3 1_555 1_555
Br2 C34 1_555 1_555
F4 B2 1_555 1_555
N4 B2 1_555 1_555
N5 B2 1_555 1_555
N6 C31 1_555 1_555
O4 C31 1_555 1_555
O5 C35 1_555 1_555
O6 C38 1_555 1_555
C22 N4 1_555 1_555
C23 C22 1_555 1_555
H20 C23 1_555 1_555
C24 C23 1_555 1_555
C25 N4 1_555 1_555
C26 C25 1_555 1_555
C27 N5 1_555 1_555
C28 C27 1_555 1_555
C29 C28 1_555 1_555
H21 C29 1_555 1_555
C30 N5 1_555 1_555
C31 C32 1_555 1_555
C32 C26 1_555 1_555
C33 C32 1_555 1_555
H22 C33 1_555 1_555
C34 O4 1_555 1_555
C35 N6 1_555 1_555
C36 C35 1_555 1_555
H23 C36 1_555 1_555
H24 C36 1_555 1_555
C37 C36 1_555 1_555
H25 C37 1_555 1_555
H26 C37 1_555 1_555
C38 N6 1_555 1_555
C39 C24 1_555 1_555
H27 C39 1_555 1_555
H28 C39 1_555 1_555
H29 C39 1_555 1_555
C40 C22 1_555 1_555
H30 C40 1_555 1_555
H31 C40 1_555 1_555
H32 C40 1_555 1_555
C41 C28 1_555 1_555
H33 C41 1_555 1_555
H34 C41 1_555 1_555
H35 C41 1_555 1_555
C42 C30 1_555 1_555
H36 C42 1_555 1_555
H37 C42 1_555 1_555
H38 C42 1_555 1_555
C3 C4 1_555 1_555
C5 C6 1_555 1_555
C8 C9 1_555 1_555
C12 C13 1_555 1_555
C16 C17 1_555 1_555
C24 C25 1_555 1_555
C26 C27 1_555 1_555
C29 C30 1_555 1_555
C33 C34 1_555 1_555
C37 C38 1_555 1_555

#END
