
#######################################################################
#
#                 Cambridge Crystallographic Data Centre
#                                CCDC 
#
#######################################################################
#
# If this CIF has been generated from an entry in the Cambridge 
# Structural Database, then it will include bibliographic, chemical, 
# crystal, experimental, refinement or atomic coordinate data resulting 
# from the CCDC's data processing and validation procedures.
#
#######################################################################

data_QANFET
_chemical_formula_moiety         'C32 H48 N16 O2,2(C1 H2 Cl2)'
_chemical_name_systematic        
'6,20-dibutoxy-2,3,9,10,16,17,23,24-octamethyl-2,3,5,7,9,10,16,17,19,21,23,24,29,30,31,32-hexadecaazapentacyclo[23.3.1.1^4,8^.1^11,15^.1^18,22^]dotriaconta-1(29),4(32),5,7,11(31),12,14,18(30),19,21,25,27-dodecaene dichloromethane solvate'
_symmetry_cell_setting           triclinic
_symmetry_space_group_name_H-M   'P -1'
_symmetry_Int_Tables_number      2
_space_group_name_Hall           '-P 1'
loop_
_symmetry_equiv_pos_site_id
_symmetry_equiv_pos_as_xyz
1 x,y,z
2 -x,-y,-z
_cell_length_a                   9.8942(18)
_cell_length_b                   11.644(2)
_cell_length_c                   20.487(4)
_cell_angle_alpha                87.078(8)
_cell_angle_beta                 78.302(9)
_cell_angle_gamma                68.651(6)
_cell_volume                     2151.97
_exptl_crystal_colour            colorless
_exptl_crystal_description       block
_cell_formula_units_Z            2
loop_
_atom_site_label
_atom_site_type_symbol
_atom_site_fract_x
_atom_site_fract_y
_atom_site_fract_z
O1 O 0.0145(3) 0.7201(2) 0.69215(11)
O2 O 0.9957(3) 0.3765(2) 0.06996(14)
N1 N 0.0710(3) 0.7532(3) 0.40379(14)
N2 N 0.0061(3) 0.7218(3) 0.58105(14)
N3 N 0.1742(3) 0.7875(3) 0.62386(13)
N4 N 0.1784(3) 0.7912(3) 0.50596(14)
N5 N 0.3404(3) 0.8503(3) 0.54922(15)
N6 N 0.4017(3) 0.8721(3) 0.48485(15)
N7 N 0.5649(3) 0.7989(2) 0.38566(14)
N8 N 0.7324(3) 0.7441(3) 0.28661(14)
N9 N 0.8462(3) 0.6557(3) 0.24472(14)
N10 N 0.9309(3) 0.5146(3) 0.15693(14)
N11 N 0.7559(3) 0.4553(3) 0.11623(15)
N12 N 0.6724(3) 0.6099(3) 0.20328(14)
N13 N 0.5081(3) 0.5513(3) 0.16160(16)
N14 N 0.3931(3) 0.6376(3) 0.20415(15)
N15 N 0.2462(3) 0.6899(3) 0.30789(14)
N16 N 0.0116(3) 0.7293(3) 0.46830(14)
C1 C -0.2918(6) 0.8827(6) 0.8161(3)
H1 H -0.2013 0.8223 0.8249
H2 H -0.3719 0.8542 0.8321
H3 H -0.3110 0.9591 0.8384
C2 C -0.2778(5) 0.9020(4) 0.7423(2)
H4 H -0.1949 0.9287 0.7264
H5 H -0.3666 0.9677 0.7343
C3 C -0.2549(4) 0.7881(4) 0.7022(2)
H6 H -0.3374 0.7612 0.7183
H7 H -0.2561 0.8104 0.6559
C4 C -0.1128(4) 0.6817(3) 0.70522(18)
H8 H -0.1206 0.6461 0.7490
H9 H -0.0983 0.6186 0.6726
C5 C 0.0647(3) 0.7440(3) 0.62923(16)
C6 C 0.2258(3) 0.8093(3) 0.56010(16)
C7 C 0.0678(3) 0.7482(3) 0.52026(16)
C8 C 0.3966(4) 0.8855(4) 0.6019(2)
H10 H 0.4995 0.8357 0.5983
H11 H 0.3421 0.8732 0.6444
H12 H 0.3854 0.9709 0.5980
C9 C 0.3169(4) 0.9866(3) 0.4559(2)
H13 H 0.2169 0.9909 0.4594
H14 H 0.3613 0.9882 0.4098
H15 H 0.3169 1.0558 0.4794
C10 C 0.5044(3) 0.7713(3) 0.44596(16)
C11 C 0.6688(3) 0.7072(3) 0.34670(16)
C12 C 0.7155(4) 0.5833(3) 0.36523(17)
H16 H 0.7860 0.5212 0.3365
C13 C 0.6521(4) 0.5579(3) 0.42783(18)
H17 H 0.6802 0.4768 0.4420
C14 C 0.5462(4) 0.6520(3) 0.47043(17)
H18 H 0.5053 0.6358 0.5133
C15 C 0.6732(5) 0.8645(3) 0.25934(19)
H19 H 0.7531 0.8891 0.2370
H20 H 0.6131 0.9228 0.2947
H21 H 0.6140 0.8618 0.2281
C16 C 0.9951(4) 0.6494(4) 0.2471(2)
H22 H 1.0030 0.7283 0.2364
H23 H 1.0661 0.5883 0.2153
H24 H 1.0143 0.6277 0.2910
C17 C 0.8141(4) 0.5913(3) 0.19999(16)
C18 C 0.8911(4) 0.4527(3) 0.11697(17)
C19 C 0.6510(4) 0.5381(3) 0.16039(16)
C20 C 1.1417(4) 0.3848(4) 0.0571(2)
H25 H 1.1902 0.3532 0.0943
H26 H 1.1336 0.4700 0.0510
C21 C 1.2299(5) 0.3089(4) -0.0055(2)
H27 H 1.3201 0.3262 -0.0197
H28 H 1.1729 0.3349 -0.0405
C22 C 1.2709(6) 0.1710(4) 0.0023(2)
H29 H 1.1818 0.1527 0.0180
H30 H 1.3330 0.1430 0.0353
C23 C 1.3534(8) 0.1022(5) -0.0641(3)
H31 H 1.2953 0.1345 -0.0976
H32 H 1.3700 0.0160 -0.0591
H33 H 1.4468 0.1130 -0.0771
C24 C 0.4661(5) 0.4827(4) 0.1166(2)
H34 H 0.4626 0.4074 0.1369
H35 H 0.5376 0.4638 0.0755
H36 H 0.3703 0.5317 0.1077
C25 C 0.3521(4) 0.7659(4) 0.18591(19)
H37 H 0.4154 0.8008 0.2006
H38 H 0.2511 0.8104 0.2067
H39 H 0.3626 0.7716 0.1384
C26 C 0.3565(4) 0.6029(3) 0.26924(17)
C27 C 0.4261(4) 0.4834(3) 0.2911(2)
H40 H 0.5033 0.4241 0.2633
C28 C 0.3743(5) 0.4586(3) 0.3559(2)
H41 H 0.4191 0.3812 0.3726
C29 C 0.2573(4) 0.5461(3) 0.39661(18)
H42 H 0.2214 0.5289 0.4401
C30 C 0.1954(4) 0.6613(3) 0.36965(16)
C31 C 0.0170(5) 0.8798(4) 0.3827(2)
H43 H -0.0866 0.9051 0.3821
H44 H 0.0703 0.8860 0.3388
H45 H 0.0314 0.9322 0.4132
C32 C -0.1066(4) 0.6800(4) 0.4745(2)
H46 H -0.1809 0.7313 0.4511
H47 H -0.1501 0.6785 0.5207
H48 H -0.0664 0.5977 0.4557
Cl1 Cl 1.0898(2) -0.2633(2) 0.07344(10)
Cl2 Cl 1.3462(4) -0.2075(3) -0.00188(10)
C33 C 1.1729(10) -0.2183(7) -0.0058(3)
H49 H 1.1876 -0.2785 -0.0400
H50 H 1.1067 -0.1392 -0.0177
Cl3 Cl 0.33932(14) 0.82797(11) 0.80024(7)
Cl4 Cl 0.0295(2) 0.9741(2) 0.82269(19)
C34 C 0.1636(6) 0.8327(5) 0.7941(3)
H51 H 0.1622 0.8191 0.7479
H52 H 0.1418 0.7674 0.8201
loop_
_geom_bond_atom_site_label_1
_geom_bond_atom_site_label_2
_geom_bond_site_symmetry_1
_geom_bond_site_symmetry_2
O1 C4 1_555 1_555
O2 C18 1_555 1_555
N1 N16 1_555 1_555
N2 C5 1_555 1_555
N3 C5 1_555 1_555
N4 C6 1_555 1_555
N5 N6 1_555 1_555
N6 C9 1_555 1_555
N7 C10 1_555 1_555
N8 N9 1_555 1_555
N9 C16 1_555 1_555
N10 C17 1_555 1_555
N11 C18 1_555 1_555
N12 C17 1_555 1_555
N13 N14 1_555 1_555
N14 C25 1_555 1_555
N15 C26 1_555 1_555
N16 C7 1_555 1_555
C1 H1 1_555 1_555
H2 C1 1_555 1_555
H3 C1 1_555 1_555
C2 C1 1_555 1_555
H4 C2 1_555 1_555
H5 C2 1_555 1_555
C3 C2 1_555 1_555
H6 C3 1_555 1_555
H7 C3 1_555 1_555
C4 C3 1_555 1_555
H8 C4 1_555 1_555
H9 C4 1_555 1_555
C5 O1 1_555 1_555
C6 N3 1_555 1_555
C7 N2 1_555 1_555
C8 N5 1_555 1_555
H10 C8 1_555 1_555
H11 C8 1_555 1_555
H12 C8 1_555 1_555
C9 H13 1_555 1_555
H14 C9 1_555 1_555
H15 C9 1_555 1_555
C10 N6 1_555 1_555
C11 N7 1_555 1_555
C12 C11 1_555 1_555
H16 C12 1_555 1_555
C13 C12 1_555 1_555
H17 C13 1_555 1_555
C14 C10 1_555 1_555
H18 C14 1_555 1_555
C15 N8 1_555 1_555
H19 C15 1_555 1_555
H20 C15 1_555 1_555
H21 C15 1_555 1_555
C16 H22 1_555 1_555
H23 C16 1_555 1_555
H24 C16 1_555 1_555
C17 N9 1_555 1_555
C18 N10 1_555 1_555
C19 N11 1_555 1_555
C20 O2 1_555 1_555
H25 C20 1_555 1_555
H26 C20 1_555 1_555
C21 C20 1_555 1_555
H27 C21 1_555 1_555
H28 C21 1_555 1_555
C22 C21 1_555 1_555
H29 C22 1_555 1_555
H30 C22 1_555 1_555
C23 C22 1_555 1_555
H31 C23 1_555 1_555
H32 C23 1_555 1_555
H33 C23 1_555 1_555
C24 N13 1_555 1_555
H34 C24 1_555 1_555
H35 C24 1_555 1_555
H36 C24 1_555 1_555
C25 H37 1_555 1_555
H38 C25 1_555 1_555
H39 C25 1_555 1_555
C26 N14 1_555 1_555
C27 C26 1_555 1_555
H40 C27 1_555 1_555
C28 C27 1_555 1_555
H41 C28 1_555 1_555
C29 C28 1_555 1_555
H42 C29 1_555 1_555
C30 N1 1_555 1_555
C31 N1 1_555 1_555
H43 C31 1_555 1_555
H44 C31 1_555 1_555
H45 C31 1_555 1_555
C32 N16 1_555 1_555
H46 C32 1_555 1_555
H47 C32 1_555 1_555
H48 C32 1_555 1_555
Cl1 C33 1_555 1_555
Cl2 C33 1_555 1_555
C33 H49 1_555 1_555
H50 C33 1_555 1_555
Cl3 C34 1_555 1_555
Cl4 C34 1_555 1_555
C34 H51 1_555 1_555
H52 C34 1_555 1_555
N4 C7 1_555 1_555
N5 C6 1_555 1_555
N8 C11 1_555 1_555
N12 C19 1_555 1_555
N13 C19 1_555 1_555
N15 C30 1_555 1_555
C13 C14 1_555 1_555
C29 C30 1_555 1_555

#END
