
#######################################################################
#
#                 Cambridge Crystallographic Data Centre
#                                CCDC 
#
#######################################################################
#
# If this CIF has been generated from an entry in the Cambridge 
# Structural Database, then it will include bibliographic, chemical, 
# crystal, experimental, refinement or atomic coordinate data resulting 
# from the CCDC's data processing and validation procedures.
#
#######################################################################

data_QANHUL
_chemical_formula_moiety         'C21 H16 F2 N4 O2'
_chemical_name_systematic        
'ethyl difluoro(3-(9-phenyl-9H-purin-6-yl)phenyl)acetate'
_symmetry_cell_setting           triclinic
_symmetry_space_group_name_H-M   'P -1'
_symmetry_Int_Tables_number      2
_space_group_name_Hall           '-P 1'
loop_
_symmetry_equiv_pos_site_id
_symmetry_equiv_pos_as_xyz
1 x,y,z
2 -x,-y,-z
_cell_length_a                   7.042(2)
_cell_length_b                   13.201(2)
_cell_length_c                   20.110(3)
_cell_angle_alpha                76.57(2)
_cell_angle_beta                 88.52(3)
_cell_angle_gamma                80.35(2)
_cell_volume                     1792.44
_exptl_crystal_colour            colorless
_exptl_crystal_description       needle
_cell_formula_units_Z            4
loop_
_atom_site_label
_atom_site_type_symbol
_atom_site_fract_x
_atom_site_fract_y
_atom_site_fract_z
C1 C 0.32096(14) 0.34493(8) 0.68013(5)
H1 H 0.335260 0.279987 0.666320
C2 C 0.31886(15) 0.34553(8) 0.74919(5)
H2 H 0.334614 0.280689 0.782666
C3 C 0.29384(14) 0.44043(9) 0.76944(5)
H3 H 0.290740 0.440587 0.816676
C4 C 0.27341(14) 0.53487(8) 0.72066(5)
H4 H 0.255301 0.599758 0.734648
C5 C 0.27916(13) 0.53566(8) 0.65110(5)
H5 H 0.267653 0.600526 0.617746
C6 C 0.30196(12) 0.44023(7) 0.63131(4)
N1 N 0.30468(11) 0.43888(6) 0.56035(4)
C7 C 0.38114(13) 0.35431(7) 0.53271(4)
H6 H 0.442149 0.288543 0.559798
N2 N 0.36252(11) 0.37238(6) 0.46620(4)
C8 C 0.26787(12) 0.47613(7) 0.44697(4)
C9 C 0.23254(12) 0.51910(7) 0.50485(4)
N3 N 0.14633(11) 0.61689(6) 0.50491(4)
C10 C 0.10025(13) 0.67430(7) 0.44136(5)
H7 H 0.042770 0.745835 0.437777
N4 N 0.12513(11) 0.64342(6) 0.38235(4)
C11 C 0.20566(12) 0.54273(6) 0.38364(4)
C12 C 0.21988(12) 0.51099(7) 0.31763(4)
C13 C 0.25894(13) 0.40483(7) 0.31419(5)
H8 H 0.280234 0.350904 0.355014
C14 C 0.26663(14) 0.37816(7) 0.25106(5)
H9 H 0.292499 0.305931 0.249129
C15 C 0.23688(13) 0.45600(7) 0.19086(5)
H10 H 0.244564 0.437501 0.147835
C16 C 0.19556(12) 0.56174(7) 0.19439(4)
C17 C 0.18673(12) 0.58933(7) 0.25712(4)
H11 H 0.158109 0.661574 0.258898
C18 C 0.16054(13) 0.64734(7) 0.12995(5)
F1 F 0.03668(9) 0.73196(5) 0.14161(3)
F2 F 0.07516(8) 0.61273(5) 0.08091(3)
C19 C 0.34380(13) 0.68834(7) 0.09933(4)
O1 O 0.38352(12) 0.77100(6) 0.10466(4)
O2 O 0.44687(9) 0.61939(5) 0.06886(3)
C20 C 0.61877(14) 0.65275(8) 0.03373(5)
H12 H 0.699338 0.675751 0.065203
H13 H 0.581208 0.712559 -0.006016
C21 C 0.72848(16) 0.56012(10) 0.01055(7)
H14 H 0.647291 0.538018 -0.020483
H15 H 0.765560 0.501631 0.050319
H16 H 0.844430 0.580059 -0.013376
C22 C 0.66613(14) 0.15549(8) 0.32605(5)
H17 H 0.653144 0.219967 0.340386
C23 C 0.65858(15) 0.15642(8) 0.25685(5)
H18 H 0.638130 0.221798 0.223891
C24 C 0.68079(14) 0.06229(8) 0.23579(5)
H19 H 0.674537 0.063167 0.188522
C25 C 0.71208(14) -0.03286(8) 0.28380(5)
H20 H 0.730603 -0.097204 0.269138
C26 C 0.71675(14) -0.03547(8) 0.35352(5)
H21 H 0.735933 -0.100986 0.386357
C27 C 0.69287(12) 0.05939(7) 0.37421(4)
N5 N 0.69630(11) 0.05941(6) 0.44534(4)
C28 C 0.62342(13) 0.14371(7) 0.47373(5)
H22 H 0.561617 0.209730 0.447192
N6 N 0.64657(11) 0.12511(6) 0.54008(4)
C29 C 0.74092(12) 0.02126(7) 0.55851(4)
C30 C 0.77102(12) -0.02130(7) 0.50029(4)
N7 N 0.85500(11) -0.11919(6) 0.49952(4)
C31 C 0.90524(13) -0.17695(7) 0.56261(5)
H23 H 0.961967 -0.248458 0.565644
N8 N 0.88556(11) -0.14656(6) 0.62193(4)
C32 C 0.80647(12) -0.04581(7) 0.62132(4)
C33 C 0.79555(12) -0.01468(7) 0.68766(4)
C34 C 0.74452(13) 0.09086(7) 0.69150(5)
H24 H 0.718606 0.144763 0.650829
C35 C 0.73167(14) 0.11700(7) 0.75484(5)
H25 H 0.697291 0.188869 0.757030
C36 C 0.76839(14) 0.03954(8) 0.81467(5)
H26 H 0.757417 0.057796 0.857769
C37 C 0.82180(13) -0.06589(7) 0.81096(5)
C38 C 0.83735(13) -0.09299(7) 0.74804(5)
H27 H 0.876336 -0.164640 0.745964
C39 C 0.86352(15) -0.14960(8) 0.87614(5)
F3 F 0.85364(12) -0.24666(5) 0.86603(3)
F4 F 0.72602(10) -0.13159(6) 0.92390(3)
C40 C 1.06176(15) -0.15597(7) 0.90984(5)
O3 O 1.18825(14) -0.23027(7) 0.91593(5)
O4 O 1.06679(10) -0.06624(6) 0.92789(4)
C41 C 1.24692(15) -0.05251(8) 0.95673(5)
H28 H 1.356546 -0.100886 0.943344
H29 H 1.241093 -0.068434 1.007264
C42 C 1.27239(16) 0.05996(8) 0.92939(5)
H30 H 1.278601 0.074691 0.879390
H31 H 1.392079 0.071705 0.947930
H32 H 1.163155 0.107063 0.942953
loop_
_geom_bond_atom_site_label_1
_geom_bond_atom_site_label_2
_geom_bond_site_symmetry_1
_geom_bond_site_symmetry_2
C1 H1 1_555 1_555
C2 C1 1_555 1_555
H2 C2 1_555 1_555
C3 C2 1_555 1_555
H3 C3 1_555 1_555
C4 C3 1_555 1_555
H4 C4 1_555 1_555
C5 C4 1_555 1_555
H5 C5 1_555 1_555
C6 C1 1_555 1_555
N1 C6 1_555 1_555
C7 N1 1_555 1_555
H6 C7 1_555 1_555
N2 C7 1_555 1_555
C8 N2 1_555 1_555
C9 N1 1_555 1_555
N3 C9 1_555 1_555
C10 N3 1_555 1_555
H7 C10 1_555 1_555
N4 C10 1_555 1_555
C11 C8 1_555 1_555
C12 C11 1_555 1_555
C13 C12 1_555 1_555
H8 C13 1_555 1_555
C14 C13 1_555 1_555
H9 C14 1_555 1_555
C15 C14 1_555 1_555
H10 C15 1_555 1_555
C16 C15 1_555 1_555
C17 C12 1_555 1_555
H11 C17 1_555 1_555
C18 C16 1_555 1_555
F1 C18 1_555 1_555
F2 C18 1_555 1_555
C19 C18 1_555 1_555
O1 C19 1_555 1_555
O2 C19 1_555 1_555
C20 O2 1_555 1_555
H12 C20 1_555 1_555
H13 C20 1_555 1_555
C21 C20 1_555 1_555
H14 C21 1_555 1_555
H15 C21 1_555 1_555
H16 C21 1_555 1_555
C22 H17 1_555 1_555
C23 C22 1_555 1_555
H18 C23 1_555 1_555
C24 C23 1_555 1_555
H19 C24 1_555 1_555
C25 C24 1_555 1_555
H20 C25 1_555 1_555
C26 C25 1_555 1_555
H21 C26 1_555 1_555
C27 C22 1_555 1_555
N5 C27 1_555 1_555
C28 N5 1_555 1_555
H22 C28 1_555 1_555
N6 C28 1_555 1_555
C29 N6 1_555 1_555
C30 N5 1_555 1_555
N7 C30 1_555 1_555
C31 N7 1_555 1_555
H23 C31 1_555 1_555
N8 C31 1_555 1_555
C32 C29 1_555 1_555
C33 C32 1_555 1_555
C34 C33 1_555 1_555
H24 C34 1_555 1_555
C35 C34 1_555 1_555
H25 C35 1_555 1_555
C36 C35 1_555 1_555
H26 C36 1_555 1_555
C37 C36 1_555 1_555
C38 C33 1_555 1_555
H27 C38 1_555 1_555
C39 C37 1_555 1_555
F3 C39 1_555 1_555
F4 C39 1_555 1_555
C40 C39 1_555 1_555
O3 C40 1_555 1_555
O4 C40 1_555 1_555
C41 O4 1_555 1_555
H28 C41 1_555 1_555
H29 C41 1_555 1_555
C42 C41 1_555 1_555
H30 C42 1_555 1_555
H31 C42 1_555 1_555
H32 C42 1_555 1_555
C5 C6 1_555 1_555
C8 C9 1_555 1_555
N4 C11 1_555 1_555
C16 C17 1_555 1_555
C26 C27 1_555 1_555
C29 C30 1_555 1_555
N8 C32 1_555 1_555
C37 C38 1_555 1_555

#END
