
#######################################################################
#
#                 Cambridge Crystallographic Data Centre
#                                CCDC 
#
#######################################################################
#
# If this CIF has been generated from an entry in the Cambridge 
# Structural Database, then it will include bibliographic, chemical, 
# crystal, experimental, refinement or atomic coordinate data resulting 
# from the CCDC's data processing and validation procedures.
#
#######################################################################

data_QANHET
_chemical_formula_moiety         'C27 H27 N7 O6'
_chemical_name_systematic        tris(4-(4-Nitrophenyl)-3-aza-3-butenyl)amine
_symmetry_cell_setting           triclinic
_symmetry_space_group_name_H-M   'P -1'
_symmetry_Int_Tables_number      2
_space_group_name_Hall           '-P 1'
loop_
_symmetry_equiv_pos_site_id
_symmetry_equiv_pos_as_xyz
1 x,y,z
2 -x,-y,-z
_cell_length_a                   7.8020(2)
_cell_length_b                   12.5233(5)
_cell_length_c                   13.8920(6)
_cell_angle_alpha                83.5872(18)
_cell_angle_beta                 89.022(2)
_cell_angle_gamma                72.611(2)
_cell_volume                     1287.01
_exptl_crystal_colour            orange
_exptl_crystal_description       plate
_cell_formula_units_Z            2
_exptl_crystal_recrystallization_method 1,2-dichloroethane
loop_
_atom_site_label
_atom_site_type_symbol
_atom_site_fract_x
_atom_site_fract_y
_atom_site_fract_z
O1 O 0.14641(17) -0.28778(11) -0.07882(10)
O2 O 0.0595(2) -0.16591(12) -0.20336(10)
O3 O 0.4627(2) 0.01656(13) 0.66805(11)
O4 O 0.4846(2) 0.16844(13) 0.71936(11)
O5 O 0.9532(3) 0.04366(12) 0.64009(12)
O6 O 0.94378(19) 0.19154(12) 0.70732(10)
N1 N 0.24909(16) 0.49233(11) 0.14451(9)
N2 N 0.12691(18) -0.19402(13) -0.12215(11)
N3 N 0.32739(17) 0.22701(12) 0.02761(11)
N4 N 0.4352(2) 0.11912(15) 0.65962(12)
N5 N 0.02316(17) 0.48288(12) 0.30892(10)
N6 N 0.9099(2) 0.14538(13) 0.64024(12)
N7 N 0.53931(17) 0.52233(12) 0.29041(10)
C1 C 0.27778(19) 0.04781(14) 0.01678(12)
C2 C 0.2630(2) -0.05033(14) 0.06968(13)
C3 C 0.2153(2) -0.13072(14) 0.02430(13)
C4 C 0.18322(19) -0.11124(13) -0.07416(12)
C5 C 0.1988(2) -0.01525(14) -0.12921(13)
C6 C 0.2472(2) 0.06392(14) -0.08307(12)
C7 C 0.32195(19) 0.13281(14) 0.06855(13)
C8 C 0.3686(2) 0.30337(14) 0.08880(13)
C9 C 0.2282(2) 0.41863(14) 0.07335(12)
C10 C 0.1542(2) 0.30965(15) 0.40992(12)
C11 C 0.2066(2) 0.19299(15) 0.41728(14)
C12 C 0.2970(2) 0.12981(16) 0.49947(14)
C13 C 0.3352(2) 0.18580(15) 0.57335(13)
C14 C 0.2852(2) 0.30187(15) 0.56829(13)
C15 C 0.1927(2) 0.36310(15) 0.48608(13)
C16 C 0.0610(2) 0.37721(16) 0.32134(13)
C17 C -0.0562(2) 0.53831(15) 0.21550(12)
C18 C 0.0810(2) 0.58175(14) 0.15663(12)
C19 C 0.6448(2) 0.34655(14) 0.39083(12)
C20 C 0.6897(2) 0.23063(15) 0.39648(13)
C21 C 0.7773(2) 0.16399(15) 0.47776(14)
C22 C 0.8142(2) 0.21619(14) 0.55403(12)
C23 C 0.7699(2) 0.33155(14) 0.55189(12)
C24 C 0.6846(2) 0.39620(14) 0.46897(12)
C25 C 0.5584(2) 0.41843(15) 0.30179(13)
C26 C 0.4579(2) 0.59222(14) 0.20125(12)
C27 C 0.3992(2) 0.53747(14) 0.12041(12)
H1 H 0.2858 -0.0623 0.1376
H2 H 0.2051 -0.1976 0.0603
H3 H 0.1767 -0.0042 -0.1972
H4 H 0.2597 0.1298 -0.1197
H5 H 0.3476 0.1160 0.1361
H6 H 0.4889 0.3110 0.0731
H7 H 0.3707 0.2722 0.1576
H8 H 0.2394 0.4544 0.0073
H9 H 0.1068 0.4092 0.0786
H10 H 0.1803 0.1562 0.3657
H11 H 0.3321 0.0499 0.5052
H12 H 0.3133 0.3384 0.6195
H13 H 0.1547 0.4430 0.4814
H14 H 0.0285 0.3396 0.2721
H15 H -0.1641 0.6019 0.2253
H16 H -0.0935 0.4844 0.1800
H17 H 0.0284 0.6160 0.0920
H18 H 0.1079 0.6413 0.1895
H19 H 0.6601 0.1963 0.3441
H20 H 0.8112 0.0842 0.4811
H21 H 0.7968 0.3655 0.6052
H22 H 0.6526 0.4760 0.4654
H23 H 0.5168 0.3851 0.2524
H24 H 0.5448 0.6304 0.1736
H25 H 0.3512 0.6516 0.2200
H26 H 0.3647 0.5939 0.0628
H27 H 0.5031 0.4755 0.1027
loop_
_geom_bond_atom_site_label_1
_geom_bond_atom_site_label_2
_geom_bond_site_symmetry_1
_geom_bond_site_symmetry_2
O1 N2 1_555 1_555
O2 N2 1_555 1_555
O3 N4 1_555 1_555
O4 N4 1_555 1_555
O5 N6 1_555 1_555
O6 N6 1_555 1_555
N1 C9 1_555 1_555
N2 C4 1_555 1_555
N3 C7 1_555 1_555
N4 C13 1_555 1_555
N5 C16 1_555 1_555
N6 C22 1_555 1_555
N7 C25 1_555 1_555
C1 C2 1_555 1_555
C2 C3 1_555 1_555
C3 C4 1_555 1_555
C4 C5 1_555 1_555
C5 C6 1_555 1_555
C6 C1 1_555 1_555
C7 C1 1_555 1_555
C8 N3 1_555 1_555
C9 C8 1_555 1_555
C10 C11 1_555 1_555
C11 C12 1_555 1_555
C12 C13 1_555 1_555
C13 C14 1_555 1_555
C14 C15 1_555 1_555
C15 C10 1_555 1_555
C16 C10 1_555 1_555
C17 N5 1_555 1_555
C18 N1 1_555 1_555
C19 C20 1_555 1_555
C20 C21 1_555 1_555
C21 C22 1_555 1_555
C22 C23 1_555 1_555
C23 C24 1_555 1_555
C24 C19 1_555 1_555
C25 C19 1_555 1_555
C26 N7 1_555 1_555
C27 N1 1_555 1_555
H1 C2 1_555 1_555
H2 C3 1_555 1_555
H3 C5 1_555 1_555
H4 C6 1_555 1_555
H5 C7 1_555 1_555
H6 C8 1_555 1_555
H7 C8 1_555 1_555
H8 C9 1_555 1_555
H9 C9 1_555 1_555
H10 C11 1_555 1_555
H11 C12 1_555 1_555
H12 C14 1_555 1_555
H13 C15 1_555 1_555
H14 C16 1_555 1_555
H15 C17 1_555 1_555
H16 C17 1_555 1_555
H17 C18 1_555 1_555
H18 C18 1_555 1_555
H19 C20 1_555 1_555
H20 C21 1_555 1_555
H21 C23 1_555 1_555
H22 C24 1_555 1_555
H23 C25 1_555 1_555
H24 C26 1_555 1_555
H25 C26 1_555 1_555
H26 C27 1_555 1_555
H27 C27 1_555 1_555
C17 C18 1_555 1_555
C26 C27 1_555 1_555

#END
