
#######################################################################
#
#                 Cambridge Crystallographic Data Centre
#                                CCDC 
#
#######################################################################
#
# If this CIF has been generated from an entry in the Cambridge 
# Structural Database, then it will include bibliographic, chemical, 
# crystal, experimental, refinement or atomic coordinate data resulting 
# from the CCDC's data processing and validation procedures.
#
#######################################################################

data_QANRED
_chemical_formula_moiety         'C10 H10 F9 N1 O2 S2'
_chemical_name_systematic        
anti-4,5-Dimethyl-2-(nonafluorobutanesulfinyl)-3,6-dihydro-2H-(1,2)thiazine-1-oxide
_symmetry_cell_setting           orthorhombic
_symmetry_space_group_name_H-M   'P b c a'
_symmetry_Int_Tables_number      61
_space_group_name_Hall           '-P 2ac 2ab'
loop_
_symmetry_equiv_pos_site_id
_symmetry_equiv_pos_as_xyz
1 x,y,z
2 1/2-x,-y,1/2+z
3 -x,1/2+y,1/2-z
4 1/2+x,1/2-y,-z
5 -x,-y,-z
6 1/2+x,y,1/2-z
7 x,1/2-y,1/2+z
8 1/2-x,1/2+y,z
_cell_length_a                   10.0198(12)
_cell_length_b                   12.1040(15)
_cell_length_c                   27.096(3)
_cell_angle_alpha                90
_cell_angle_beta                 90
_cell_angle_gamma                90
_cell_volume                     3286.19
_exptl_crystal_colour            colorless
_chemical_melting_point          69-70deg.C
_cell_formula_units_Z            8
loop_
_atom_site_label
_atom_site_type_symbol
_atom_site_fract_x
_atom_site_fract_y
_atom_site_fract_z
S1 S 0.37242(12) 1.07014(9) 0.25446(5)
S2 S 0.50212(13) 0.93028(10) 0.18556(5)
O1 O 0.2262(3) 1.0676(2) 0.26009(13)
O2 O 0.5912(3) 0.8345(3) 0.18807(14)
N1 N 0.4272(4) 0.9419(3) 0.23903(14)
F1 F 0.2594(4) 0.9443(3) 0.15062(16)
F2 F 0.3186(4) 0.7768(3) 0.16596(14)
F3 F 0.4839(5) 0.7717(5) 0.09149(18)
F4 F 0.4791(8) 0.9364(7) 0.0781(2)
F5 F 0.2323(10) 0.9317(8) 0.0453(4)
F6 F 0.1886(7) 0.7835(8) 0.0769(2)
F7 F 0.4439(10) 0.8523(10) -0.0118(4)
F8 F 0.2271(11) 0.8075(10) -0.0228(4)
F9 F 0.3685(10) 0.6912(8) 0.0127(4)
C1 C 0.4432(5) 1.0675(3) 0.3143(2)
H1 H 0.5389 1.0776 0.3111
H2 H 0.4088 1.1302 0.3326
C2 C 0.4186(5) 0.9634(4) 0.3448(2)
C3 C 0.4013(4) 0.8652(4) 0.32410(18)
C4 C 0.3959(5) 0.8449(4) 0.27046(19)
H3 H 0.3071 0.8189 0.2621
H4 H 0.4581 0.7861 0.2625
C5 C 0.3585(6) 0.8727(5) 0.1471(2)
C6 C 0.3983(9) 0.8587(7) 0.0929(3)
C7 C 0.2870(12) 0.8210(11) 0.0570(3)
C8 C 0.3401(16) 0.8037(12) 0.0026(5)
C9 C 0.4146(7) 0.9849(5) 0.3988(2)
H5 H 0.3380 1.0293 0.4065
H6 H 0.4942 1.0234 0.4085
H7 H 0.4091 0.9160 0.4162
C10 C 0.3799(5) 0.7604(4) 0.3538(2)
H8 H 0.4592 0.7439 0.3722
H9 H 0.3603 0.7003 0.3318
H10 H 0.3066 0.7708 0.3761
F10? F 0.365(3) 0.9788(18) 0.0824(8)
F11? F 0.309(2) 0.6978(17) 0.0696(8)
F12? F 0.3515(19) 0.9023(15) -0.0137(7)
F13? F 0.2313(15) 0.7366(13) -0.0162(5)
F14? F 0.4391(17) 0.7673(15) -0.0061(6)
loop_
_geom_bond_atom_site_label_1
_geom_bond_atom_site_label_2
_geom_bond_site_symmetry_1
_geom_bond_site_symmetry_2
S1 O1 1_555 1_555
S2 O2 1_555 1_555
N1 S1 1_555 1_555
F1 C5 1_555 1_555
F2 C5 1_555 1_555
F3 C6 1_555 1_555
F4 C6 1_555 1_555
F5 C7 1_555 1_555
F6 C7 1_555 1_555
F7 C8 1_555 1_555
F8 C8 1_555 1_555
F9 C8 1_555 1_555
C1 S1 1_555 1_555
H1 C1 1_555 1_555
H2 C1 1_555 1_555
C2 C1 1_555 1_555
C3 C2 1_555 1_555
C4 N1 1_555 1_555
H3 C4 1_555 1_555
H4 C4 1_555 1_555
C5 S2 1_555 1_555
C6 C5 1_555 1_555
C7 C6 1_555 1_555
C8 C7 1_555 1_555
C9 C2 1_555 1_555
H5 C9 1_555 1_555
H6 C9 1_555 1_555
H7 C9 1_555 1_555
C10 C3 1_555 1_555
H8 C10 1_555 1_555
H9 C10 1_555 1_555
H10 C10 1_555 1_555
S2 N1 1_555 1_555
C3 C4 1_555 1_555

#END
