
#######################################################################
#
#                 Cambridge Crystallographic Data Centre
#                                CCDC 
#
#######################################################################
#
# If this CIF has been generated from an entry in the Cambridge 
# Structural Database, then it will include bibliographic, chemical, 
# crystal, experimental, refinement or atomic coordinate data resulting 
# from the CCDC's data processing and validation procedures.
#
#######################################################################

data_QANSOO
_chemical_formula_moiety         'C16 H22 O10'
_chemical_name_systematic        
'gluco-(2R,3R,4R)-2,3,4-triacetoxy-4-((2S)-5-oxotetrahydrofuran-2-yl)butyl acetate'
_symmetry_cell_setting           orthorhombic
_symmetry_space_group_name_H-M   'P 21 21 21'
_symmetry_Int_Tables_number      19
_space_group_name_Hall           'P 2ac 2ab'
loop_
_symmetry_equiv_pos_site_id
_symmetry_equiv_pos_as_xyz
1 x,y,z
2 1/2-x,-y,1/2+z
3 1/2+x,1/2-y,-z
4 -x,1/2+y,1/2-z
_cell_length_a                   8.6223(4)
_cell_length_b                   11.8604(6)
_cell_length_c                   35.3885(19)
_cell_angle_alpha                90
_cell_angle_beta                 90
_cell_angle_gamma                90
_cell_volume                     3618.97
_exptl_crystal_colour            colorless
_exptl_crystal_description       prism
_chemical_melting_point          '132-133 deg.C'
_cell_formula_units_Z            8
loop_
_atom_site_label
_atom_site_type_symbol
_atom_site_fract_x
_atom_site_fract_y
_atom_site_fract_z
C1 C 0.4254(5) 0.1266(2) 0.98081(9)
C2 C 0.2744(5) 0.1242(4) 1.00080(11)
H1 H 0.2616 0.1918 1.0159
H2 H 0.2689 0.0592 1.0174
C3 C 0.1500(4) 0.1177(3) 0.97116(10)
H3 H 0.0942 0.1885 0.9693
H4 H 0.0770 0.0578 0.9768
C4 C 0.2390(4) 0.0931(2) 0.93494(8)
H5 H 0.2263 0.0129 0.9290
C5 C 0.1905(3) 0.16074(19) 0.90047(8)
H6 H 0.0809 0.1449 0.8954
C6 C 0.2819(3) 0.1350(2) 0.86502(8)
H7 H 0.2676 0.0555 0.8583
C7 C 0.2371(3) 0.2086(2) 0.83119(8)
H8 H 0.2521 0.2882 0.8376
C8 C 0.3275(4) 0.1808(2) 0.79598(9)
H9 H 0.2863 0.2226 0.7747
H10 H 0.4355 0.2016 0.7993
C9 C 0.0716(4) 0.3404(2) 0.91091(9)
C10 C 0.1036(4) 0.4618(2) 0.91768(11)
H11 H 0.2136 0.4739 0.9186
H12 H 0.0580 0.4843 0.9413
H13 H 0.0598 0.5057 0.8976
C11 C 0.5400(4) 0.0691(2) 0.87678(8)
C12 C 0.6978(4) 0.1095(2) 0.88719(10)
H14 H 0.7136 0.1837 0.8771
H15 H 0.7742 0.0591 0.8770
H16 H 0.7073 0.1117 0.9142
C13 C -0.0138(4) 0.2774(2) 0.81402(8)
C14 C -0.1684(4) 0.2433(2) 0.80032(10)
H17 H -0.1784 0.1628 0.8020
H18 H -0.1805 0.2664 0.7745
H19 H -0.2468 0.2784 0.8155
C15 C 0.4472(4) 0.0013(2) 0.78558(8)
C16 C 0.4180(4) -0.1210(2) 0.78304(10)
H20 H 0.3083 -0.1347 0.7839
H21 H 0.4672 -0.1585 0.8039
H22 H 0.4593 -0.1494 0.7597
O1 O 0.4023(3) 0.11298(19) 0.94369(6)
O2 O 0.5554(4) 0.1341(2) 0.99310(8)
O3 O 0.2056(2) 0.28012(13) 0.90884(6)
O4 O -0.0528(3) 0.29869(17) 0.90860(8)
O5 O 0.4449(2) 0.15718(13) 0.86999(5)
O6 O 0.4998(2) -0.02786(15) 0.87552(6)
O7 O 0.0745(2) 0.18758(13) 0.82399(5)
O8 O 0.0330(3) 0.37251(17) 0.81522(9)
O9 O 0.3150(2) 0.06090(15) 0.78895(6)
O10 O 0.5718(3) 0.04527(18) 0.78552(7)
C17 C 0.202(2) 0.2125(8) 0.5066(3)
C18 C 0.201(2) 0.3419(9) 0.5000(3)
C19 C 0.2373(5) 0.3859(2) 0.53991(9)
C20 C 0.2974(4) 0.2859(2) 0.56351(9)
H23 H 0.4092 0.2950 0.5675
C21 C 0.2189(3) 0.2724(2) 0.60141(8)
H24 H 0.2241 0.3453 0.6144
C22 C 0.2884(3) 0.18444(19) 0.62763(8)
H25 H 0.3946 0.2067 0.6340
C23 C 0.1963(4) 0.1695(2) 0.66393(8)
H26 H 0.0897 0.1477 0.6576
C24 C 0.2645(4) 0.0828(2) 0.69045(9)
H27 H 0.2098 0.0842 0.7144
H28 H 0.2541 0.0080 0.6797
C25 C -0.0492(4) 0.3240(2) 0.60698(8)
C26 C -0.2093(4) 0.2781(2) 0.60389(11)
H29 H -0.2050 0.2022 0.5945
H30 H -0.2687 0.3240 0.5869
H31 H -0.2574 0.2783 0.6284
C27 C 0.4288(4) 0.0341(2) 0.59829(9)
C28 C 0.4227(4) -0.0866(2) 0.58804(10)
H32 H 0.3197 -0.1148 0.5921
H33 H 0.4946 -0.1280 0.6034
H34 H 0.4499 -0.0954 0.5619
C29 C 0.0655(4) 0.3094(2) 0.70038(9)
C30 C 0.0718(4) 0.4273(2) 0.71430(10)
H35 H 0.1690 0.4607 0.7072
H36 H 0.0620 0.4278 0.7413
H37 H -0.0117 0.4698 0.7033
C31 C 0.5299(4) 0.0251(2) 0.69281(9)
C32 C 0.6891(4) 0.0684(3) 0.69666(10)
H38 H 0.6860 0.1480 0.7016
H39 H 0.7453 0.0548 0.6737
H40 H 0.7399 0.0307 0.7172
O11 O 0.2710(3) 0.18693(16) 0.54013(6)
O12 O 0.1824(14) 0.1457(5) 0.4828(2)
O13 O 0.0568(2) 0.24598(13) 0.59558(5)
O14 O -0.0153(3) 0.41653(16) 0.61752(7)
O15 O 0.2911(2) 0.07293(13) 0.61113(5)
O16 O 0.5409(3) 0.09277(18) 0.59611(9)
O17 O 0.1948(2) 0.28024(14) 0.68140(5)
O18 O -0.0396(3) 0.2469(2) 0.70493(9)
O19 O 0.4254(2) 0.10871(14) 0.69625(6)
O20 O 0.4938(3) -0.07095(16) 0.68674(8)
C33? C 0.272(2) 0.2211(11) 0.5058(4)
C34? C 0.163(2) 0.2131(16) 0.5089(6)
O21? O 0.2792(19) 0.1441(10) 0.4826(4)
C35? C 0.1232(14) 0.3314(8) 0.5108(3)
C36? C 0.2711(18) 0.3397(9) 0.4995(3)
O22? O 0.1264(12) 0.1375(7) 0.4874(3)
loop_
_geom_bond_atom_site_label_1
_geom_bond_atom_site_label_2
_geom_bond_site_symmetry_1
_geom_bond_site_symmetry_2
C1 C2 1_555 1_555
C2 H1 1_555 1_555
H2 C2 1_555 1_555
C3 C2 1_555 1_555
H3 C3 1_555 1_555
H4 C3 1_555 1_555
C4 C3 1_555 1_555
H5 C4 1_555 1_555
C5 C4 1_555 1_555
H6 C5 1_555 1_555
C6 C5 1_555 1_555
H7 C6 1_555 1_555
C7 C6 1_555 1_555
H8 C7 1_555 1_555
C8 C7 1_555 1_555
H9 C8 1_555 1_555
H10 C8 1_555 1_555
C9 C10 1_555 1_555
C10 H11 1_555 1_555
H12 C10 1_555 1_555
H13 C10 1_555 1_555
C11 C12 1_555 1_555
C12 H14 1_555 1_555
H15 C12 1_555 1_555
H16 C12 1_555 1_555
C13 C14 1_555 1_555
C14 H17 1_555 1_555
H18 C14 1_555 1_555
H19 C14 1_555 1_555
C15 C16 1_555 1_555
C16 H20 1_555 1_555
H21 C16 1_555 1_555
H22 C16 1_555 1_555
O1 C1 1_555 1_555
O2 C1 1_555 1_555
O3 C5 1_555 1_555
O4 C9 1_555 1_555
O5 C6 1_555 1_555
O6 C11 1_555 1_555
O7 C7 1_555 1_555
O8 C13 1_555 1_555
O9 C8 1_555 1_555
O10 C15 1_555 1_555
C17 C18 1_555 1_555
C18 C19 1_555 1_555
C19 C20 1_555 1_555
C20 H23 1_555 1_555
C21 C20 1_555 1_555
H24 C21 1_555 1_555
C22 C21 1_555 1_555
H25 C22 1_555 1_555
C23 C22 1_555 1_555
H26 C23 1_555 1_555
C24 C23 1_555 1_555
H27 C24 1_555 1_555
H28 C24 1_555 1_555
C25 C26 1_555 1_555
C26 H29 1_555 1_555
H30 C26 1_555 1_555
H31 C26 1_555 1_555
C27 C28 1_555 1_555
C28 H32 1_555 1_555
H33 C28 1_555 1_555
H34 C28 1_555 1_555
C29 C30 1_555 1_555
C30 H35 1_555 1_555
H36 C30 1_555 1_555
H37 C30 1_555 1_555
C31 C32 1_555 1_555
C32 H38 1_555 1_555
H39 C32 1_555 1_555
H40 C32 1_555 1_555
O11 C17 1_555 1_555
O12 C17 1_555 1_555
O13 C21 1_555 1_555
O14 C25 1_555 1_555
O15 C22 1_555 1_555
O16 C27 1_555 1_555
O17 C23 1_555 1_555
O18 C29 1_555 1_555
O19 C24 1_555 1_555
O20 C31 1_555 1_555
C4 O1 1_555 1_555
C9 O3 1_555 1_555
C11 O5 1_555 1_555
C13 O7 1_555 1_555
C15 O9 1_555 1_555
C20 O11 1_555 1_555
C25 O13 1_555 1_555
C27 O15 1_555 1_555
C29 O17 1_555 1_555
C31 O19 1_555 1_555

#END
