
#######################################################################
#
#                 Cambridge Crystallographic Data Centre
#                                CCDC 
#
#######################################################################
#
# If this CIF has been generated from an entry in the Cambridge 
# Structural Database, then it will include bibliographic, chemical, 
# crystal, experimental, refinement or atomic coordinate data resulting 
# from the CCDC's data processing and validation procedures.
#
#######################################################################

data_QANVUZ
_chemical_compound_source        
'Isolated from the fermentation broth of Penicillium sp. SCS-KFD09 isolated from a marine worm, Sipunculus nudus, from Haikou Bay, China.'
_chemical_name_common            'chrodrimanin N'
_chemical_formula_moiety         'C27 H36 O8'
_chemical_name_systematic        
'5,8,11-trihydroxy-2,7a,10,10,13a-pentamethyl-4-oxo-1,7a,8,9,9a,10,11,12,13,13a,13b,14-dodecahydro-2H,4H-benzo[a]pyrano[3,4-j]xanthen-1-yl acetate'
_chemical_properties_biological  'anti-H1N1 activity'
_symmetry_cell_setting           orthorhombic
_symmetry_space_group_name_H-M   'P 21 21 21'
_symmetry_Int_Tables_number      19
_space_group_name_Hall           'P 2ac 2ab'
loop_
_symmetry_equiv_pos_site_id
_symmetry_equiv_pos_as_xyz
1 x,y,z
2 1/2-x,-y,1/2+z
3 -x,1/2+y,1/2-z
4 1/2+x,1/2-y,-z
_cell_length_a                   10.6191(4)
_cell_length_b                   13.3554(5)
_cell_length_c                   17.1996(6)
_cell_angle_alpha                90
_cell_angle_beta                 90
_cell_angle_gamma                90
_cell_volume                     2439.29
_exptl_crystal_colour            colorless
_exptl_crystal_description       block
_cell_formula_units_Z            4
loop_
_atom_site_label
_atom_site_type_symbol
_atom_site_fract_x
_atom_site_fract_y
_atom_site_fract_z
O1 O 0.3178(7) 0.3431(5) 0.8751(3)
H1 H 0.2726 0.2992 0.8959
O2 O 0.3551(7) 0.1606(4) 0.4743(3)
H2 H 0.3705 0.1904 0.4337
O3 O 0.3384(4) 0.3367(3) 0.4236(2)
O4 O 0.4620(5) 0.4783(4) 0.1897(3)
H3 H 0.5015 0.5257 0.1718
O5 O 0.6181(5) 0.6252(4) 0.1928(3)
O6 O 0.6651(5) 0.7036(4) 0.3011(3)
O7 O 0.7501(5) 0.5859(3) 0.4321(3)
O8 O 0.7778(7) 0.6527(6) 0.5498(4)
C1 C 0.4142(9) 0.4530(5) 0.6847(4)
H4 H 0.4800 0.5016 0.6744
H5 H 0.3350 0.4810 0.6667
C2 C 0.4778(6) 0.4795(5) 0.4319(4)
C3 C 0.4064(10) 0.4334(7) 0.7721(5)
H6 H 0.4890 0.4140 0.7908
H7 H 0.3832 0.4951 0.7982
C4 C 0.5437(6) 0.5514(4) 0.3892(4)
C5 C 0.3158(9) 0.3555(6) 0.7930(4)
H8 H 0.2326 0.3828 0.7804
C6 C 0.5391(6) 0.5535(5) 0.3074(4)
C7 C 0.3250(7) 0.2569(5) 0.7504(4)
C8 C 0.4681(7) 0.4807(5) 0.2686(4)
C9 C 0.3349(6) 0.2831(5) 0.6626(4)
H9 H 0.2574 0.3200 0.6511
C10 C 0.4023(6) 0.4112(5) 0.3086(4)
H10 H 0.3547 0.3639 0.2820
C11 C 0.3333(11) 0.1946(5) 0.6063(4)
H11 H 0.4170 0.1659 0.6034
H12 H 0.2767 0.1436 0.6261
C12 C 0.4056(6) 0.4103(5) 0.3892(4)
C13 C 0.2914(7) 0.2251(5) 0.5256(4)
H13 H 0.2007 0.2131 0.5209
C14 C 0.6251(6) 0.6291(5) 0.4278(4)
H14 H 0.5935 0.6435 0.4802
C15 C 0.3184(6) 0.3384(5) 0.5081(4)
C16 C 0.6308(7) 0.7239(5) 0.3804(4)
H15 H 0.5470 0.7546 0.3806
C17 C 0.4407(6) 0.3703(5) 0.5472(4)
H16 H 0.5048 0.3242 0.5272
C18 C 0.7238(8) 0.8003(5) 0.4085(5)
H17 H 0.8064 0.7710 0.4102
H18 H 0.7005 0.8223 0.4597
H19 H 0.7242 0.8565 0.3737
C19 C 0.4423(6) 0.3556(5) 0.6394(4)
C20 C 0.6080(7) 0.6276(6) 0.2634(4)
C21 C 0.4819(7) 0.4731(5) 0.5203(4)
H20 H 0.5669 0.4862 0.5383
H21 H 0.4268 0.5235 0.5424
C22 C 0.8201(8) 0.6039(6) 0.4960(5)
C23 C 0.2065(6) 0.4059(5) 0.5207(4)
H22 H 0.2231 0.4703 0.4981
H23 H 0.1914 0.4133 0.5754
H24 H 0.1336 0.3770 0.4964
C24 C 0.9467(7) 0.5630(6) 0.4912(5)
H25 H 0.9429 0.4954 0.4725
H26 H 0.9848 0.5639 0.5419
H27 H 0.9961 0.6028 0.4562
C25 C 0.4291(12) 0.1898(8) 0.7822(5)
H28 H 0.3966 0.1502 0.8242
H29 H 0.4973 0.2305 0.8007
H30 H 0.4590 0.1465 0.7416
C26 C 0.1999(10) 0.2009(9) 0.7621(6)
H31 H 0.1370 0.2287 0.7284
H32 H 0.1732 0.2076 0.8152
H33 H 0.2113 0.1313 0.7501
C27 C 0.5752(7) 0.3236(10) 0.6582(5)
H34 H 0.5902 0.2580 0.6375
H35 H 0.5864 0.3225 0.7136
H36 H 0.6336 0.3702 0.6356
loop_
_geom_bond_atom_site_label_1
_geom_bond_atom_site_label_2
_geom_bond_site_symmetry_1
_geom_bond_site_symmetry_2
O1 H1 1_555 1_555
O2 H2 1_555 1_555
O3 C12 1_555 1_555
O4 H3 1_555 1_555
O5 C20 1_555 1_555
O6 C16 1_555 1_555
O7 C14 1_555 1_555
O8 C22 1_555 1_555
C1 H4 1_555 1_555
H5 C1 1_555 1_555
C2 C4 1_555 1_555
C3 C1 1_555 1_555
H6 C3 1_555 1_555
H7 C3 1_555 1_555
C4 C6 1_555 1_555
C5 O1 1_555 1_555
H8 C5 1_555 1_555
C6 C8 1_555 1_555
C7 C5 1_555 1_555
C8 O4 1_555 1_555
C9 C7 1_555 1_555
H9 C9 1_555 1_555
C10 C8 1_555 1_555
H10 C10 1_555 1_555
C11 C9 1_555 1_555
H11 C11 1_555 1_555
H12 C11 1_555 1_555
C12 C2 1_555 1_555
C13 O2 1_555 1_555
H13 C13 1_555 1_555
C14 C4 1_555 1_555
H14 C14 1_555 1_555
C15 O3 1_555 1_555
C16 C14 1_555 1_555
H15 C16 1_555 1_555
C17 C15 1_555 1_555
H16 C17 1_555 1_555
C18 C16 1_555 1_555
H17 C18 1_555 1_555
H18 C18 1_555 1_555
H19 C18 1_555 1_555
C19 C1 1_555 1_555
C20 O6 1_555 1_555
C21 C2 1_555 1_555
H20 C21 1_555 1_555
H21 C21 1_555 1_555
C22 O7 1_555 1_555
C23 C15 1_555 1_555
H22 C23 1_555 1_555
H23 C23 1_555 1_555
H24 C23 1_555 1_555
C24 C22 1_555 1_555
H25 C24 1_555 1_555
H26 C24 1_555 1_555
H27 C24 1_555 1_555
C25 C7 1_555 1_555
H28 C25 1_555 1_555
H29 C25 1_555 1_555
H30 C25 1_555 1_555
C26 C7 1_555 1_555
H31 C26 1_555 1_555
H32 C26 1_555 1_555
H33 C26 1_555 1_555
C27 C19 1_555 1_555
H34 C27 1_555 1_555
H35 C27 1_555 1_555
H36 C27 1_555 1_555
C3 C5 1_555 1_555
C6 C20 1_555 1_555
C9 C19 1_555 1_555
C10 C12 1_555 1_555
C11 C13 1_555 1_555
C13 C15 1_555 1_555
C17 C19 1_555 1_555
C17 C21 1_555 1_555

#END
