
#######################################################################
#
#                 Cambridge Crystallographic Data Centre
#                                CCDC 
#
#######################################################################
#
# If this CIF has been generated from an entry in the Cambridge 
# Structural Database, then it will include bibliographic, chemical, 
# crystal, experimental, refinement or atomic coordinate data resulting 
# from the CCDC's data processing and validation procedures.
#
#######################################################################

data_QANWIM
_chemical_formula_moiety         
'C10 H10 N2 2+,2(C9 H5 O6 1-),C9 H6 O6,6(H2 O1)'
_chemical_name_systematic        
"4,4'-Bipyridinium bis(3,5-dicarboxybenzoate) benzene-1,3,5-tricarboxylic acid hexahydrate"
_symmetry_cell_setting           monoclinic
_symmetry_space_group_name_H-M   'C 2/c'
_symmetry_Int_Tables_number      15
_space_group_name_Hall           '-C 2yn'
loop_
_symmetry_equiv_pos_site_id
_symmetry_equiv_pos_as_xyz
1 x,y,z
2 1/2+x,1/2+y,z
3 -x,y,1/2-z
4 1/2-x,1/2+y,1/2-z
5 -x,-y,-z
6 1/2-x,1/2-y,-z
7 x,-y,1/2+z
8 1/2+x,1/2-y,1/2+z
_cell_length_a                   10.9217(7)
_cell_length_b                   21.5274(17)
_cell_length_c                   16.4036(11)
_cell_angle_alpha                90
_cell_angle_beta                 91.0370(10)
_cell_angle_gamma                90
_cell_volume                     3856.11
_exptl_crystal_colour            yellow
_exptl_crystal_description       prism
_chemical_melting_point          '393 K'
_cell_formula_units_Z            4
_exptl_crystal_preparation       'begins to decompose at 393 K'
loop_
_atom_site_label
_atom_site_type_symbol
_atom_site_fract_x
_atom_site_fract_y
_atom_site_fract_z
C1 C 0.7011(2) 0.54548(12) 0.31196(15)
C2 C 0.6567(2) 0.52281(12) 0.23812(15)
H1 H 0.6511 0.4801 0.2301
C3 C 0.6203(2) 0.56282(12) 0.17611(15)
C4 C 0.6287(2) 0.62666(12) 0.18816(15)
H2 H 0.6048 0.6538 0.1467
C5 C 0.6727(2) 0.65003(12) 0.26218(15)
C6 C 0.7084(2) 0.60897(13) 0.32359(15)
H3 H 0.7375 0.6244 0.3732
C7 C 0.7411(3) 0.50168(13) 0.37913(16)
C8 C 0.5708(2) 0.53654(13) 0.09845(15)
C9 C 0.6822(3) 0.71804(13) 0.27893(17)
O1 O 0.5584(2) 0.47989(9) 0.09028(12)
O2 O 0.5413(2) 0.57603(9) 0.04248(12)
H4 H 0.5131 0.5576 0.0027
O3 O 0.6434(3) 0.75311(10) 0.21786(14)
H5 H 0.6487 0.7898 0.2309
O4 O 0.7216(3) 0.73839(10) 0.34260(14)
O5 O 0.7741(2) 0.52706(10) 0.44551(12)
O6 O 0.7398(3) 0.44521(10) 0.36727(13)
C10 C 0.5000 0.01441(17) 0.2500
H6 H 0.5000 -0.0288 0.2500
C11 C 0.4522(2) 0.04629(12) 0.18321(15)
C12 C 0.4528(2) 0.11068(12) 0.18330(15)
H7 H 0.4215 0.1322 0.1385
C13 C 0.5000 0.14322(17) 0.2500
C14 C 0.5000 0.21204(19) 0.2500
C15 C 0.3982(3) 0.00942(13) 0.11398(16)
O7 O 0.3905(2) -0.04722(10) 0.11805(12)
O8 O 0.3603(2) 0.04188(9) 0.05282(12)
H8 H 0.3393 0.0187 0.0155
O9 O 0.4470(3) 0.23946(11) 0.19157(16)
C11B C 0.5478(2) 0.04629(12) 0.31679(15)
C12B C 0.5472(2) 0.11068(12) 0.31670(15)
H7B H 0.5785 0.1322 0.3615
C15B C 0.6018(3) 0.00942(13) 0.38602(16)
O7B O 0.6095(2) -0.04722(10) 0.38195(12)
O8B O 0.6397(2) 0.04188(9) 0.44718(12)
H8B H 0.6607 0.0187 0.4845
O9B O 0.5530(3) 0.23946(11) 0.30843(16)
C16 C 0.4449(4) 0.15520(17) 0.9546(2)
H9 H 0.4558 0.1142 0.9383
C17 C 0.3303(4) 0.17690(15) 0.9684(2)
H10 H 0.2633 0.1506 0.9616
C18 C 0.3122(3) 0.23763(13) 0.99228(16)
C19 C 0.4161(4) 0.27441(16) 1.0008(2)
H11 H 0.4080 0.3157 1.0167
C20 C 0.5285(4) 0.25129(19) 0.9865(2)
H12 H 0.5972 0.2766 0.9921
N1 N 0.5410(3) 0.19191(14) 0.96419(17)
H13 H 0.6130 0.1773 0.9559
C16E C 0.0551(4) 0.34480(17) 1.0454(2)
H9E H 0.0442 0.3858 1.0617
C17E C 0.1697(4) 0.32310(15) 1.0316(2)
H10E H 0.2367 0.3494 1.0384
C18E C 0.1878(3) 0.26237(13) 1.00772(16)
C19E C 0.0839(4) 0.22559(16) 0.9992(2)
H11E H 0.0920 0.1843 0.9833
C20E C -0.0285(4) 0.24871(19) 1.0135(2)
H12E H -0.0972 0.2234 1.0079
N1E N -0.0410(3) 0.30809(14) 1.03581(17)
H13E H -0.1130 0.3227 1.0441
H14 H 0.737(5) 0.3924(13) 0.050(3)
O10 O 0.7287(3) 0.35565(14) 0.0483(2)
H15 H 0.701(5) 0.349(2) 0.093(2)
H16 H 0.688(5) 0.893(2) 0.213(2)
H17 H 0.653(5) 0.890(2) 0.291(2)
O11 O 0.6689(5) 0.87131(13) 0.2512(2)
O12 O 0.4832(7) 0.36164(18) 0.1670(4)
H18 H 0.457(4) 0.3964(15) 0.158(3)
H19 H 0.444(4) 0.3313(18) 0.179(3)
H20? H 0.4922 0.2664 0.1736
loop_
_geom_bond_atom_site_label_1
_geom_bond_atom_site_label_2
_geom_bond_site_symmetry_1
_geom_bond_site_symmetry_2
C1 C2 1_555 1_555
C2 H1 1_555 1_555
C3 C2 1_555 1_555
C4 C3 1_555 1_555
H2 C4 1_555 1_555
C5 C4 1_555 1_555
C6 C1 1_555 1_555
H3 C6 1_555 1_555
C7 C1 1_555 1_555
C8 C3 1_555 1_555
C9 C5 1_555 1_555
O1 C8 1_555 1_555
O2 C8 1_555 1_555
H4 O2 1_555 1_555
O3 C9 1_555 1_555
H5 O3 1_555 1_555
O4 C9 1_555 1_555
O5 C7 1_555 1_555
O6 C7 1_555 1_555
C10 H6 1_555 1_555
C11 C10 1_555 1_555
C12 C11 1_555 1_555
H7 C12 1_555 1_555
C13 C12 1_555 1_555
C14 C13 1_555 1_555
C15 C11 1_555 1_555
O7 C15 1_555 1_555
O8 C15 1_555 1_555
H8 O8 1_555 1_555
O9 C14 1_555 1_555
C16 H9 1_555 1_555
C17 C16 1_555 1_555
H10 C17 1_555 1_555
C18 C17 1_555 1_555
C19 C18 1_555 1_555
H11 C19 1_555 1_555
C20 C19 1_555 1_555
H12 C20 1_555 1_555
N1 C16 1_555 1_555
H13 N1 1_555 1_555
H14 O10 1_555 1_555
O10 H15 1_555 1_555
H16 O11 1_555 1_555
H17 O11 1_555 1_555
O12 H18 1_555 1_555
H19 O12 1_555 1_555
C11B C10 1_555 1_555
C12B C13 1_555 1_555
H7B C12B 1_555 1_555
C15B C11B 1_555 1_555
O7B C15B 1_555 1_555
O8B C15B 1_555 1_555
H8B O8B 1_555 1_555
O9B C14 1_555 1_555
C16E H9E 1_555 1_555
C17E C16E 1_555 1_555
H10E C17E 1_555 1_555
C18E C18 1_555 1_555
C19E C18E 1_555 1_555
H11E C19E 1_555 1_555
C20E C19E 1_555 1_555
H12E C20E 1_555 1_555
N1E C16E 1_555 1_555
H13E N1E 1_555 1_555
C5 C6 1_555 1_555
C20 N1 1_555 1_555
C11B C12B 1_555 1_555
C17E C18E 1_555 1_555
C20E N1E 1_555 1_555

#END
