
#######################################################################
#
#                 Cambridge Crystallographic Data Centre
#                                CCDC 
#
#######################################################################
#
# If this CIF has been generated from an entry in the Cambridge 
# Structural Database, then it will include bibliographic, chemical, 
# crystal, experimental, refinement or atomic coordinate data resulting 
# from the CCDC's data processing and validation procedures.
#
#######################################################################

data_QANXOT
_chemical_formula_moiety         'C18 H18 N8 O1 S2'
_chemical_name_systematic        
"2,2'-bis(1-Phenyl-1H-tetrazole-5-ylsulfanyl) diethyl ether"
_symmetry_cell_setting           orthorhombic
_symmetry_space_group_name_H-M   'P b c a'
_symmetry_Int_Tables_number      61
_space_group_name_Hall           '-P 2ac 2ab'
loop_
_symmetry_equiv_pos_site_id
_symmetry_equiv_pos_as_xyz
1 x,y,z
2 1/2-x,-y,1/2+z
3 -x,1/2+y,1/2-z
4 1/2+x,1/2-y,-z
5 -x,-y,-z
6 1/2+x,y,1/2-z
7 x,1/2-y,1/2+z
8 1/2-x,1/2+y,z
_cell_length_a                   7.2873(15)
_cell_length_b                   18.657(4)
_cell_length_c                   30.047(6)
_cell_angle_alpha                90
_cell_angle_beta                 90
_cell_angle_gamma                90
_cell_volume                     4085.16
_exptl_crystal_colour            colorless
_exptl_crystal_description       block
_chemical_melting_point          '417-418 K'
_cell_formula_units_Z            8
_exptl_crystal_recrystallization_method acetonitrile
loop_
_atom_site_label
_atom_site_type_symbol
_atom_site_fract_x
_atom_site_fract_y
_atom_site_fract_z
S1 S 0.90785(12) 0.22093(4) 0.30420(3)
S2 S 0.71485(13) 0.58871(5) 0.42315(3)
O1 O 0.8356(3) 0.42540(10) 0.34173(7)
N1 N 1.2443(3) 0.15819(12) 0.31221(8)
N2 N 1.4254(4) 0.17577(14) 0.31651(9)
N3 N 1.4319(4) 0.24523(15) 0.31596(10)
N4 N 1.2604(4) 0.27470(13) 0.31138(9)
N5 N 1.0712(4) 0.55214(15) 0.44383(10)
N6 N 1.1889(4) 0.56413(17) 0.47859(11)
N7 N 1.1104(5) 0.60153(17) 0.50930(10)
N8 N 0.9355(4) 0.61429(14) 0.49528(9)
C1 C 1.1084(4) 0.06214(16) 0.26898(11)
H1 H 1.0910 0.0942 0.2456
C2 C 1.0567(5) -0.00898(17) 0.26475(13)
H2 H 1.0016 -0.0249 0.2387
C3 C 1.0871(5) -0.05578(17) 0.29913(15)
H3 H 1.0534 -0.1036 0.2960
C4 C 1.1664(5) -0.03303(19) 0.33803(14)
H4 H 1.1874 -0.0656 0.3609
C5 C 1.2156(4) 0.03866(17) 0.34354(11)
H5 H 1.2666 0.0549 0.3701
C6 C 1.1861(4) 0.08459(15) 0.30837(10)
C7 C 1.1461(4) 0.21938(15) 0.30905(10)
C8 C 0.8728(5) 0.31732(15) 0.30187(10)
H6 H 0.9741 0.3392 0.2859
H7 H 0.7611 0.3273 0.2855
C9 C 0.8592(5) 0.35030(15) 0.34736(11)
H8 H 0.7556 0.3303 0.3634
H9 H 0.9699 0.3407 0.3642
C10 C 0.7970(5) 0.45995(16) 0.38267(10)
H10 H 0.8934 0.4500 0.4040
H11 H 0.6818 0.4426 0.3947
C11 C 0.7851(5) 0.53971(15) 0.37396(10)
H12 H 0.6977 0.5484 0.3502
H13 H 0.9040 0.5571 0.3642
C12 C 0.9142(5) 0.58380(17) 0.45478(11)
C13 C 0.8119(5) 0.65690(17) 0.52156(10)
C14 C 0.8792(6) 0.71881(19) 0.54124(11)
H14 H 1.0009 0.7324 0.5374
C15 C 0.7613(8) 0.7600(2) 0.56677(12)
H15 H 0.8045 0.8014 0.5804
C16 C 0.5808(7) 0.7402(2) 0.57209(12)
H16 H 0.5025 0.7683 0.5892
C17 C 0.5158(6) 0.6786(2) 0.55212(12)
H17 H 0.3933 0.6658 0.5555
C18 C 0.6314(6) 0.63600(19) 0.52706(12)
H18 H 0.5885 0.5939 0.5141
loop_
_geom_bond_atom_site_label_1
_geom_bond_atom_site_label_2
_geom_bond_site_symmetry_1
_geom_bond_site_symmetry_2
S1 C7 1_555 1_555
S2 C11 1_555 1_555
O1 C9 1_555 1_555
N1 N2 1_555 1_555
N2 N3 1_555 1_555
N3 N4 1_555 1_555
N4 C7 1_555 1_555
N5 N6 1_555 1_555
N6 N7 1_555 1_555
N7 N8 1_555 1_555
N8 C12 1_555 1_555
C1 H1 1_555 1_555
C2 C1 1_555 1_555
H2 C2 1_555 1_555
C3 C2 1_555 1_555
H3 C3 1_555 1_555
C4 C3 1_555 1_555
H4 C4 1_555 1_555
C5 C4 1_555 1_555
H5 C5 1_555 1_555
C6 N1 1_555 1_555
C7 N1 1_555 1_555
C8 S1 1_555 1_555
H6 C8 1_555 1_555
H7 C8 1_555 1_555
C9 C8 1_555 1_555
H8 C9 1_555 1_555
H9 C9 1_555 1_555
C10 O1 1_555 1_555
H10 C10 1_555 1_555
H11 C10 1_555 1_555
C11 C10 1_555 1_555
H12 C11 1_555 1_555
H13 C11 1_555 1_555
C12 S2 1_555 1_555
C13 N8 1_555 1_555
C14 C13 1_555 1_555
H14 C14 1_555 1_555
C15 C14 1_555 1_555
H15 C15 1_555 1_555
C16 C15 1_555 1_555
H16 C16 1_555 1_555
C17 C16 1_555 1_555
H17 C17 1_555 1_555
C18 C13 1_555 1_555
H18 C18 1_555 1_555
N5 C12 1_555 1_555
C1 C6 1_555 1_555
C5 C6 1_555 1_555
C17 C18 1_555 1_555

#END
