
#######################################################################
#
#                 Cambridge Crystallographic Data Centre
#                                CCDC 
#
#######################################################################
#
# If this CIF has been generated from an entry in the Cambridge 
# Structural Database, then it will include bibliographic, chemical, 
# crystal, experimental, refinement or atomic coordinate data resulting 
# from the CCDC's data processing and validation procedures.
#
#######################################################################

data_QANYIO
_chemical_formula_moiety         'C18 H13 F3 N4 O2 S1'
_chemical_name_systematic        
1-(4-Methylbenzoyl)-3-(5-(4-(trifluoromethyl)phenyl)-1,3,4-thiadiazol-2-yl)urea
_symmetry_cell_setting           monoclinic
_symmetry_space_group_name_H-M   'P 21/c'
_symmetry_Int_Tables_number      14
_space_group_name_Hall           '-P 2ybc'
loop_
_symmetry_equiv_pos_site_id
_symmetry_equiv_pos_as_xyz
1 x,y,z
2 -x,1/2+y,1/2-z
3 -x,-y,-z
4 x,1/2-y,1/2+z
_cell_length_a                   16.4728(16)
_cell_length_b                   13.8150(14)
_cell_length_c                   7.6914(8)
_cell_angle_alpha                90
_cell_angle_beta                 93.829(2)
_cell_angle_gamma                90
_cell_volume                     1746.44
_exptl_crystal_colour            colorless
_exptl_crystal_description       plate
_chemical_melting_point          'above 573 K'
_cell_formula_units_Z            4
_exptl_crystal_recrystallization_method methanol/DMF
loop_
_atom_site_label
_atom_site_type_symbol
_atom_site_fract_x
_atom_site_fract_y
_atom_site_fract_z
C1 C 0.8947(2) 0.8875(3) 1.0066(5)
H1 H 0.9344 0.8373 0.9971
H2 H 0.8669 0.8783 1.1111
H3 H 0.9213 0.9494 1.0107
C2 C 0.83415(18) 0.8839(2) 0.8510(4)
C3 C 0.85809(18) 0.8673(3) 0.6862(4)
H4 H 0.9130 0.8578 0.6705
C4 C 0.80321(17) 0.8643(2) 0.5436(4)
H5 H 0.8213 0.8515 0.4339
C5 C 0.72113(15) 0.88029(18) 0.5621(3)
C6 C 0.69644(17) 0.8960(2) 0.7280(4)
H6 H 0.6415 0.9054 0.7440
C7 C 0.75201(18) 0.8980(2) 0.8696(4)
H7 H 0.7340 0.9089 0.9800
C8 C 0.66517(15) 0.87593(19) 0.4036(4)
C9 C 0.52415(15) 0.91270(18) 0.2895(3)
C10 C 0.48151(15) 0.86197(18) -0.0022(3)
C11 C 0.37277(16) 0.86272(19) -0.2183(3)
C12 C 0.29694(16) 0.86948(18) -0.3291(3)
C13 C 0.29901(17) 0.8512(2) -0.5065(4)
H8 H 0.3485 0.8383 -0.5534
C14 C 0.22863(18) 0.8518(2) -0.6133(4)
H9 H 0.2308 0.8393 -0.7317
C15 C 0.15517(18) 0.8708(2) -0.5459(4)
C16 C 0.15223(19) 0.8921(2) -0.3715(4)
H10 H 0.1028 0.9071 -0.3264
C17 C 0.22270(18) 0.8911(2) -0.2635(4)
H11 H 0.2203 0.9052 -0.1457
C18 C 0.0782(2) 0.8664(3) -0.6595(5)
F1 F 0.02509(15) 0.9314(2) -0.6276(4)
F2 F 0.08993(15) 0.8758(2) -0.8264(3)
F3 F 0.04197(16) 0.7822(2) -0.6507(4)
N1 N 0.58757(13) 0.91228(15) 0.4161(3)
H12 H 0.5776 0.9376 0.5146
N2 N 0.53802(12) 0.86893(15) 0.1375(3)
H13 H 0.5852 0.8437 0.1272
N3 N 0.50191(14) 0.82219(18) -0.1460(3)
N4 N 0.43800(14) 0.82238(18) -0.2707(3)
O1 O 0.68659(11) 0.84315(16) 0.2662(3)
O2 O 0.45959(11) 0.95178(15) 0.3146(2)
S1 S 0.38335(4) 0.90445(5) -0.00461(9)
loop_
_geom_bond_atom_site_label_1
_geom_bond_atom_site_label_2
_geom_bond_site_symmetry_1
_geom_bond_site_symmetry_2
C1 H1 1_555 1_555
H2 C1 1_555 1_555
H3 C1 1_555 1_555
C2 C1 1_555 1_555
C3 C2 1_555 1_555
H4 C3 1_555 1_555
C4 C3 1_555 1_555
H5 C4 1_555 1_555
C5 C4 1_555 1_555
C6 C5 1_555 1_555
H6 C6 1_555 1_555
C7 C2 1_555 1_555
H7 C7 1_555 1_555
C8 C5 1_555 1_555
C9 N1 1_555 1_555
C10 N2 1_555 1_555
C11 C12 1_555 1_555
C12 C13 1_555 1_555
C13 H8 1_555 1_555
C14 C13 1_555 1_555
H9 C14 1_555 1_555
C15 C14 1_555 1_555
C16 C15 1_555 1_555
H10 C16 1_555 1_555
C17 C12 1_555 1_555
H11 C17 1_555 1_555
C18 C15 1_555 1_555
F1 C18 1_555 1_555
F2 C18 1_555 1_555
F3 C18 1_555 1_555
N1 C8 1_555 1_555
H12 N1 1_555 1_555
N2 C9 1_555 1_555
H13 N2 1_555 1_555
N3 C10 1_555 1_555
N4 C11 1_555 1_555
O1 C8 1_555 1_555
O2 C9 1_555 1_555
S1 C10 1_555 1_555
C6 C7 1_555 1_555
C11 S1 1_555 1_555
C16 C17 1_555 1_555
N3 N4 1_555 1_555

#END
