
#######################################################################
#
#                 Cambridge Crystallographic Data Centre
#                                CCDC 
#
#######################################################################
#
# If this CIF has been generated from an entry in the Cambridge 
# Structural Database, then it will include bibliographic, chemical, 
# crystal, experimental, refinement or atomic coordinate data resulting 
# from the CCDC's data processing and validation procedures.
#
#######################################################################

data_QANYUC
_chemical_compound_source        'Streptomyces sp. LC-6-2'
_chemical_name_common            'abyssomicin M monohydrate'
_chemical_formula_moiety         'C20 H26 O7,H2 O1'
_chemical_name_systematic        
'2,10,16-trihydroxy-1,7,9,16-tetramethyl-13,17-dioxapentacyclo[9.5.2.0^3,14^.0^5,18^.0^14,18^]octadec-10-ene-6,12-dione monohydrate'
_symmetry_cell_setting           orthorhombic
_symmetry_space_group_name_H-M   'P 21 21 21'
_symmetry_Int_Tables_number      19
_space_group_name_Hall           'P 2ac 2ab'
loop_
_symmetry_equiv_pos_site_id
_symmetry_equiv_pos_as_xyz
1 x,y,z
2 1/2-x,-y,1/2+z
3 -x,1/2+y,1/2-z
4 1/2+x,1/2-y,-z
_cell_length_a                   7.5754(1)
_cell_length_b                   13.7867(2)
_cell_length_c                   18.4610(3)
_cell_angle_alpha                90
_cell_angle_beta                 90
_cell_angle_gamma                90
_cell_volume                     1928.06
_exptl_crystal_colour            colorless
_exptl_crystal_description       plate
_cell_formula_units_Z            4
loop_
_atom_site_label
_atom_site_type_symbol
_atom_site_fract_x
_atom_site_fract_y
_atom_site_fract_z
O1 O 1.06013(18) 0.54366(13) 0.44286(8)
O2 O 0.9105(2) 0.46436(12) 0.32824(8)
H1 H 1.002(5) 0.484(3) 0.364(2)
O3 O 0.67642(18) 0.72005(10) 0.39461(7)
O4 O 0.87813(17) 0.57046(10) 0.53655(7)
O5 O 0.47740(16) 0.44126(9) 0.50047(6)
O6 O 0.54637(18) 0.36521(10) 0.68966(7)
H2 H 0.496(4) 0.423(2) 0.7061(17)
O7 O 0.37990(18) 0.52854(9) 0.68533(7)
H3 H 0.384(4) 0.589(2) 0.7057(16)
C1 C 0.9133(3) 0.53559(15) 0.46947(11)
C2 C 0.7562(3) 0.49374(14) 0.43644(10)
C3 C 0.7585(3) 0.46710(14) 0.36543(10)
C4 C 0.6008(3) 0.43898(14) 0.32114(10)
H4 H 0.6350 0.4455 0.2690
C5 C 0.4403(3) 0.50509(13) 0.33362(10)
H5 H 0.3504 0.4905 0.2962
H6 H 0.3881 0.4894 0.3814
C6 C 0.4814(2) 0.61418(13) 0.33137(10)
H7 H 0.5609 0.6267 0.2892
C7 C 0.5691(2) 0.65480(12) 0.39903(10)
C8 C 0.5127(2) 0.61435(12) 0.47185(9)
H8 H 0.3824 0.6028 0.4704
C9 C 0.5539(3) 0.67750(13) 0.53829(9)
H9 H 0.6596 0.7183 0.5301
H10 H 0.4527 0.7195 0.5511
C10 C 0.5876(3) 0.60072(12) 0.5966(1)
H11 H 0.6392 0.6283 0.6420
C11 C 0.4160(2) 0.54057(13) 0.61016(9)
H12 H 0.3144 0.5755 0.5874
C12 C 0.4269(2) 0.43636(12) 0.57698(9)
C13 C 0.5764(2) 0.37736(13) 0.61351(9)
C14 C 0.7466(2) 0.43550(14) 0.59913(10)
H13 H 0.8048 0.4503 0.6459
H14 H 0.8288 0.3955 0.5700
C15 C 0.7093(2) 0.53022(14) 0.55893(10)
C16 C 0.6070(2) 0.51437(12) 0.48761(9)
C17 C 0.5554(3) 0.33228(15) 0.33413(11)
H15 H 0.6583 0.2919 0.3229
H16 H 0.4566 0.3135 0.3028
H17 H 0.5220 0.3230 0.3850
C18 C 0.3113(3) 0.67336(15) 0.32064(11)
H18 H 0.2286 0.6591 0.3600
H19 H 0.2573 0.6560 0.2742
H20 H 0.3397 0.7427 0.3209
C19 C 0.2477(2) 0.38876(13) 0.5789(1)
H21 H 0.1620 0.4299 0.5537
H22 H 0.2108 0.3800 0.6294
H23 H 0.2540 0.3254 0.5549
C20 C 0.5905(3) 0.27497(14) 0.58321(11)
H24 H 0.6956 0.2432 0.6032
H25 H 0.6000 0.2779 0.5303
H26 H 0.4851 0.2379 0.5967
O8 O 0.3409(3) 0.70962(11) 0.72838(9)
H27 H 0.288(4) 0.736(2) 0.6931(18)
H28 H 0.391(4) 0.756(2) 0.7520(17)
loop_
_geom_bond_atom_site_label_1
_geom_bond_atom_site_label_2
_geom_bond_site_symmetry_1
_geom_bond_site_symmetry_2
O1 C1 1_555 1_555
O2 H1 1_555 1_555
O3 C7 1_555 1_555
O4 C1 1_555 1_555
O5 C12 1_555 1_555
O6 H2 1_555 1_555
O7 H3 1_555 1_555
C1 C2 1_555 1_555
C2 C3 1_555 1_555
C3 O2 1_555 1_555
C4 C3 1_555 1_555
H4 C4 1_555 1_555
C5 C4 1_555 1_555
H5 C5 1_555 1_555
H6 C5 1_555 1_555
C6 C5 1_555 1_555
H7 C6 1_555 1_555
C7 C6 1_555 1_555
C8 C7 1_555 1_555
H8 C8 1_555 1_555
C9 C8 1_555 1_555
H9 C9 1_555 1_555
H10 C9 1_555 1_555
C10 C9 1_555 1_555
H11 C10 1_555 1_555
C11 O7 1_555 1_555
H12 C11 1_555 1_555
C12 C11 1_555 1_555
C13 O6 1_555 1_555
C14 C13 1_555 1_555
H13 C14 1_555 1_555
H14 C14 1_555 1_555
C15 O4 1_555 1_555
C16 O5 1_555 1_555
C17 C4 1_555 1_555
H15 C17 1_555 1_555
H16 C17 1_555 1_555
H17 C17 1_555 1_555
C18 C6 1_555 1_555
H18 C18 1_555 1_555
H19 C18 1_555 1_555
H20 C18 1_555 1_555
C19 C12 1_555 1_555
H21 C19 1_555 1_555
H22 C19 1_555 1_555
H23 C19 1_555 1_555
C20 C13 1_555 1_555
H24 C20 1_555 1_555
H25 C20 1_555 1_555
H26 C20 1_555 1_555
O8 H27 1_555 1_555
H28 O8 1_555 1_555
C2 C16 1_555 1_555
C8 C16 1_555 1_555
C10 C11 1_555 1_555
C10 C15 1_555 1_555
C12 C13 1_555 1_555
C14 C15 1_555 1_555
C15 C16 1_555 1_555

#END
