
#######################################################################
#
#                 Cambridge Crystallographic Data Centre
#                                CCDC 
#
#######################################################################
#
# If this CIF has been generated from an entry in the Cambridge 
# Structural Database, then it will include bibliographic, chemical, 
# crystal, experimental, refinement or atomic coordinate data resulting 
# from the CCDC's data processing and validation procedures.
#
#######################################################################

data_QANZUB
_chemical_formula_moiety         'C16 H18 N4 S2'
_chemical_name_systematic        N,N'-bis(2-(2-Pyridyl)ethyl)dithiooxamide
_symmetry_cell_setting           monoclinic
_symmetry_space_group_name_H-M   'P 21/c'
_symmetry_Int_Tables_number      14
_space_group_name_Hall           '-P 2ybc'
loop_
_symmetry_equiv_pos_site_id
_symmetry_equiv_pos_as_xyz
1 x,y,z
2 -x,1/2+y,1/2-z
3 -x,-y,-z
4 x,1/2-y,1/2+z
_cell_length_a                   10.4499(18)
_cell_length_b                   6.0036(10)
_cell_length_c                   13.688(2)
_cell_angle_alpha                90
_cell_angle_beta                 103.995(2)
_cell_angle_gamma                90
_cell_volume                     833.254
_exptl_crystal_colour            orange
_exptl_crystal_description       prism
_chemical_melting_point          '431 K'
_cell_formula_units_Z            2
_exptl_crystal_recrystallization_method ethanol
loop_
_atom_site_label
_atom_site_type_symbol
_atom_site_fract_x
_atom_site_fract_y
_atom_site_fract_z
S1 S 0.30318(3) 0.09765(7) 0.42197(3)
N1 N 0.46642(11) 0.16109(19) 0.59916(9)
H1 H 0.5424(11) 0.141(3) 0.6385(11)
N2 N 0.30448(12) 0.7694(2) 0.72214(10)
C1 C 0.44296(12) 0.06969(19) 0.50958(10)
C2 C 0.37278(14) 0.2993(2) 0.63434(11)
H2 H 0.3924 0.2933 0.7073
H3 H 0.2846 0.2405 0.6085
C3 C 0.37657(14) 0.5402(2) 0.60114(12)
H4 H 0.4625 0.6033 0.6311
H5 H 0.3630 0.5462 0.5285
C4 C 0.27215(13) 0.6746(2) 0.63203(11)
C5 C 0.14701(16) 0.6912(3) 0.57051(14)
H6 H 0.1270 0.6231 0.5076
C6 C 0.05234(18) 0.8081(4) 0.60222(17)
H7 H -0.0326 0.8199 0.5614
C7 C 0.0841(2) 0.9072(3) 0.69443(18)
H8 H 0.0219 0.9883 0.7180
C8 C 0.2103(2) 0.8837(3) 0.75128(15)
H9 H 0.2320 0.9515 0.8142
S1B S 0.69682(3) -0.09765(7) 0.57803(3)
N1B N 0.53358(11) -0.16109(19) 0.40084(9)
H1B H 0.4576(11) -0.141(3) 0.3615(11)
N2B N 0.69552(12) -0.7694(2) 0.27786(10)
C1B C 0.55704(12) -0.06969(19) 0.49042(10)
C2B C 0.62722(14) -0.2993(2) 0.36566(11)
H2B H 0.6076 -0.2933 0.2927
H3B H 0.7154 -0.2405 0.3915
C3B C 0.62343(14) -0.5402(2) 0.39886(12)
H4B H 0.5375 -0.6033 0.3689
H5B H 0.6370 -0.5462 0.4715
C4B C 0.72785(13) -0.6746(2) 0.36797(11)
C5B C 0.85299(16) -0.6912(3) 0.42949(14)
H6B H 0.8730 -0.6231 0.4924
C6B C 0.94766(18) -0.8081(4) 0.39778(17)
H7B H 1.0326 -0.8199 0.4386
C7B C 0.9159(2) -0.9072(3) 0.30557(18)
H8B H 0.9781 -0.9883 0.2820
C8B C 0.7897(2) -0.8837(3) 0.24872(15)
H9B H 0.7680 -0.9515 0.1858
loop_
_geom_bond_atom_site_label_1
_geom_bond_atom_site_label_2
_geom_bond_site_symmetry_1
_geom_bond_site_symmetry_2
S1 C1 1_555 1_555
N1 H1 1_555 1_555
N2 C4 1_555 1_555
C1 N1 1_555 1_555
C2 N1 1_555 1_555
H2 C2 1_555 1_555
H3 C2 1_555 1_555
C3 C2 1_555 1_555
H4 C3 1_555 1_555
H5 C3 1_555 1_555
C4 C3 1_555 1_555
C5 C4 1_555 1_555
H6 C5 1_555 1_555
C6 C5 1_555 1_555
H7 C6 1_555 1_555
C7 C6 1_555 1_555
H8 C7 1_555 1_555
C8 N2 1_555 1_555
H9 C8 1_555 1_555
S1B C1B 1_555 1_555
N1B H1B 1_555 1_555
N2B C4B 1_555 1_555
C1B C1 1_555 1_555
C2B N1B 1_555 1_555
H2B C2B 1_555 1_555
H3B C2B 1_555 1_555
C3B C2B 1_555 1_555
H4B C3B 1_555 1_555
H5B C3B 1_555 1_555
C4B C3B 1_555 1_555
C5B C4B 1_555 1_555
H6B C5B 1_555 1_555
C6B C5B 1_555 1_555
H7B C6B 1_555 1_555
C7B C6B 1_555 1_555
H8B C7B 1_555 1_555
C8B N2B 1_555 1_555
H9B C8B 1_555 1_555
C7 C8 1_555 1_555
N1B C1B 1_555 1_555
C7B C8B 1_555 1_555

#END
