
#######################################################################
#
#                 Cambridge Crystallographic Data Centre
#                                CCDC 
#
#######################################################################
#
# If this CIF has been generated from an entry in the Cambridge 
# Structural Database, then it will include bibliographic, chemical, 
# crystal, experimental, refinement or atomic coordinate data resulting 
# from the CCDC's data processing and validation procedures.
#
#######################################################################

data_QAPCIW
_chemical_compound_source        'isolated from Uncaria rhynchophylla'
_chemical_name_common            'uncarilin A acetonitrile solvate hemihydrate'
_chemical_formula_moiety         'C38 H42 N6 O4,0.5(C2 H3 N1),0.5(H2 O1)'
_chemical_name_systematic        
'3,10-dimethyl-13,14-bis(2-(2-methylbut-3-en-2-yl)-1H-indol-3-yl)-1,4,8,11-tetraazadispiro[5.0.5^7^.2^6^]tetradecane-2,5,9,12-tetrone acetonitrile solvate hemihydrate'
_chemical_properties_biological  'activity on the MT1 and MT2 receptors'
_symmetry_cell_setting           triclinic
_symmetry_space_group_name_H-M   'P -1'
_symmetry_Int_Tables_number      2
_space_group_name_Hall           '-P 1'
loop_
_symmetry_equiv_pos_site_id
_symmetry_equiv_pos_as_xyz
1 x,y,z
2 -x,-y,-z
_cell_length_a                   10.7266(2)
_cell_length_b                   15.3359(3)
_cell_length_c                   22.6051(4)
_cell_angle_alpha                77.6050(10)
_cell_angle_beta                 80.4720(10)
_cell_angle_gamma                76.4160(10)
_cell_volume                     3504.26
_exptl_crystal_colour            colorless
_exptl_crystal_description       prism
_cell_formula_units_Z            4
loop_
_atom_site_label
_atom_site_type_symbol
_atom_site_fract_x
_atom_site_fract_y
_atom_site_fract_z
O1 O 0.6295(3) 0.70628(18) 0.89487(14)
H1 H 0.688(4) 0.733(3) 0.875(2)
H2 H 0.588(4) 0.745(3) 0.916(2)
O2 O 0.01993(16) 0.89465(11) 0.06660(8)
O3 O 0.35239(17) 1.07305(12) 0.11444(7)
O4 O 0.16185(17) 0.83917(11) -0.08480(7)
O5 O 0.51872(16) 0.82718(12) 0.05732(8)
N1 N 0.0841(2) 1.02603(13) 0.05965(10)
H3 H 0.0279 1.0535 0.0338
N2 N 0.30083(19) 0.94070(13) 0.11101(9)
H4 H 0.3737 0.9126 0.1258
N3 N 0.23378(19) 0.80043(13) 0.00756(9)
H5 H 0.1816 0.7617 0.0193
N4 N 0.4474(2) 0.86810(15) -0.03487(10)
H6 H 0.5252 0.8759 -0.0514
N5 N 0.3158(2) 0.49798(13) 0.09193(9)
H7 H 0.3557 0.4420 0.0881
N6 N 0.20706(19) 0.80649(13) 0.31284(9)
H8 H 0.1674 0.8107 0.3498
C1 C -0.0212(2) 0.97028(16) 0.20883(12)
H9 H 0.0539 0.9782 0.2225
H10 H -0.0676 1.0183 0.1816
C2 C -0.0607(2) 0.89294(15) 0.22752(11)
H11 H -0.1362 0.8881 0.2127
C3 C 0.0033(2) 0.81051(14) 0.27076(10)
C4 C 0.1481(2) 0.80423(14) 0.26382(10)
C5 C 0.2396(2) 0.79723(14) 0.21333(10)
C6 C 0.2121(2) 0.79622(14) 0.15067(10)
H12 H 0.1241 0.7829 0.1536
C7 C 0.3099(2) 0.73267(15) 0.11063(10)
H13 H 0.3970 0.7206 0.1247
C8 C 0.2825(2) 0.64353(15) 0.10432(10)
C9 C 0.1607(2) 0.62478(15) 0.09664(10)
C10 C 0.1864(2) 0.53256(15) 0.08857(10)
C11 C 0.0925(3) 0.48982(16) 0.07939(11)
H14 H 0.1135 0.4282 0.0737
C12 C -0.0319(3) 0.53988(17) 0.07875(12)
H15 H -0.0986 0.5124 0.0728
C13 C 0.1703(3) 1.16569(17) 0.02999(12)
H16 H 0.2294 1.1440 -0.0042
H17 H 0.2073 1.2074 0.0459
H18 H 0.0870 1.1978 0.0160
C14 C 0.1505(2) 1.08466(16) 0.08026(11)
H19 H 0.0936 1.1091 0.1153
C15 C 0.0985(2) 0.93558(15) 0.07538(10)
C16 C 0.2239(2) 0.88227(15) 0.09874(10)
C17 C 0.2758(2) 1.03195(16) 0.10290(10)
C18 C 0.3033(2) 0.81257(15) 0.05343(10)
C19 C 0.2399(2) 0.84185(15) -0.05144(10)
C20 C 0.3494(2) 0.89123(16) -0.07596(10)
H20 H 0.3913 0.8704 -0.1149
C21 C 0.4332(2) 0.83614(16) 0.02538(11)
C22 C 0.2980(3) 0.99412(18) -0.09165(14)
H21 H 0.2535 1.0167 -0.0547
H22 H 0.2373 1.0069 -0.1219
H23 H 0.3701 1.0247 -0.1084
C23 C 0.3739(2) 0.56333(15) 0.10221(10)
C24 C 0.0325(2) 0.67436(16) 0.09522(10)
H24 H 0.0108 0.7364 0.1000
C25 C -0.0616(2) 0.63123(16) 0.08676(11)
H25 H -0.1483 0.6643 0.0864
C26 C 0.5179(2) 0.53827(16) 0.10858(11)
C27 C 0.5405(3) 0.5529(2) 0.17106(13)
H26 H 0.5038 0.6165 0.1752
H27 H 0.6334 0.5394 0.1740
H28 H 0.4985 0.5122 0.2037
C28 C 0.5680(3) 0.43679(19) 0.10899(16)
H29 H 0.5320 0.3975 0.1425
C29 C 0.6515(4) 0.3964(2) 0.07096(18)
H30 H 0.6917 0.4312 0.0363
H31 H 0.6731 0.3316 0.0774
C30 C 0.5907(3) 0.59556(19) 0.05633(13)
H32 H 0.5683 0.5898 0.0172
H33 H 0.6840 0.5738 0.0575
H34 H 0.5665 0.6597 0.0609
C31 C 0.3367(2) 0.80115(15) 0.29565(10)
C32 C 0.3629(2) 0.79497(15) 0.23306(10)
C33 C 0.4909(2) 0.79028(16) 0.20508(11)
H35 H 0.5121 0.7864 0.1631
C34 C 0.5855(2) 0.79144(18) 0.23944(12)
H36 H 0.6720 0.7881 0.2206
C35 C 0.5568(3) 0.79747(18) 0.30147(12)
H37 H 0.6241 0.7979 0.3239
C36 C 0.4328(2) 0.80274(17) 0.33025(11)
H38 H 0.4129 0.8073 0.3722
C37 C -0.0600(2) 0.82245(17) 0.33584(11)
H39 H -0.0234 0.7697 0.3654
H40 H -0.1534 0.8270 0.3386
H41 H -0.0435 0.8782 0.3448
C38 C -0.0268(2) 0.72220(15) 0.25975(11)
H42 H 0.0064 0.7141 0.2178
H43 H -0.1205 0.7264 0.2662
H44 H 0.0146 0.6700 0.2883
O6 O 0.85935(17) 0.68607(12) 0.53866(10)
O7 O 0.41353(16) 0.91773(10) 0.50591(7)
O8 O 0.15346(16) 0.80972(10) 0.44310(7)
O9 O 0.55276(17) 0.57458(10) 0.52643(8)
C39 C 0.2262(2) 0.70566(14) 0.63737(10)
N7 N 0.62114(19) 0.89167(12) 0.52154(9)
H45 H 0.6217 0.9488 0.5044
N8 N 0.0338(2) 0.67567(13) 0.68160(9)
H46 H -0.0256 0.6452 0.7008
N9 N 0.31219(18) 0.77883(12) 0.50302(8)
H47 H 0.3127 0.8374 0.4969
N10 N 0.3553(2) 0.60168(12) 0.49640(9)
H48 H 0.3766 0.5499 0.4827
N11 N 0.63122(19) 0.73981(13) 0.75021(8)
H49 H 0.6538 0.7605 0.7794
C40 C -0.0947(3) 0.92463(17) 0.64839(12)
H50 H -0.1699 0.9710 0.6532
C41 C -0.1000(2) 0.83411(17) 0.67173(11)
H51 H -0.1778 0.8173 0.6925
C42 C 0.0123(2) 0.76912(16) 0.66356(11)
C43 C 0.1313(2) 0.79070(15) 0.63525(10)
C44 C 0.3657(2) 0.69573(14) 0.61242(9)
H52 H 0.4107 0.6320 0.6281
C45 C 0.4481(2) 0.76186(14) 0.62154(10)
H53 H 0.3903 0.8224 0.6253
C46 C 0.5141(2) 0.76482(14) 0.55242(10)
C47 C 0.5126(2) 0.86384(14) 0.52315(9)
C48 C 0.7404(2) 0.83760(15) 0.54516(10)
H54 H 0.7351 0.8428 0.5889
C49 C 0.8553(2) 0.87534(17) 0.50993(12)
H55 H 0.8632 0.8695 0.4671
H56 H 0.9342 0.8411 0.5274
H57 H 0.8428 0.9399 0.5126
C50 C 0.0210(2) 0.94818(16) 0.61775(11)
H58 H 0.0221 1.0105 0.6013
C51 C 0.1328(2) 0.88355(15) 0.61088(10)
H59 H 0.2101 0.9010 0.5900
C52 C 0.1605(2) 0.63657(15) 0.66563(10)
C53 C 0.1969(2) 0.53174(15) 0.67918(11)
C54 C 0.1418(3) 0.49788(17) 0.74562(12)
H60 H 0.1721 0.4317 0.7564
H61 H 0.0472 0.5125 0.7493
H62 H 0.1712 0.5280 0.7732
N12 N 0.64285(19) 0.71123(12) 0.54207(8)
H63 H 0.6494 0.6559 0.5351
C55 C 0.7544(2) 0.73771(15) 0.54201(11)
C56 C 0.4054(2) 0.71691(14) 0.54061(10)
C57 C 0.2253(2) 0.75431(14) 0.47684(10)
C58 C 0.2226(2) 0.65340(15) 0.49258(10)
H64 H 0.1717 0.6412 0.5336
C59 C 0.4462(2) 0.62614(14) 0.51871(10)
C60 C 0.1614(3) 0.62208(16) 0.44716(12)
H65 H 0.2069 0.6369 0.4062
H66 H 0.0704 0.6531 0.4477
H67 H 0.1674 0.5560 0.4583
C61 C 0.5332(2) 0.73465(14) 0.67107(10)
C62 C 0.5452(2) 0.78945(15) 0.71034(10)
C63 C 0.6767(2) 0.65347(15) 0.73790(10)
C64 C 0.6176(2) 0.64665(15) 0.68828(10)
C65 C 0.6492(2) 0.56231(15) 0.66823(10)
H68 H 0.6134 0.5552 0.6343
C66 C 0.7324(2) 0.49043(16) 0.69844(11)
H69 H 0.7509 0.4330 0.6859
C67 C 0.7907(2) 0.49972(15) 0.74729(11)
H70 H 0.8488 0.4490 0.7668
C68 C 0.7645(2) 0.58183(16) 0.76721(10)
H71 H 0.8047 0.5892 0.7997
C69 C 0.4750(2) 0.88542(15) 0.71862(10)
C70 C 0.3382(2) 0.88051(18) 0.75045(12)
H72 H 0.2900 0.8621 0.7236
H73 H 0.2937 0.9406 0.7595
H74 H 0.3435 0.8357 0.7885
C71 C 0.4737(3) 0.95126(16) 0.65816(11)
H75 H 0.5545 0.9519 0.6336
C72 C 0.3727(3) 1.00741(17) 0.63633(13)
H76 H 0.2896 1.0094 0.6591
H77 H 0.3825 1.0461 0.5977
C73 C 0.5447(2) 0.92323(16) 0.75891(11)
H78 H 0.5490 0.8828 0.7988
H79 H 0.4969 0.9844 0.7643
H80 H 0.6324 0.9265 0.7392
C74 C 0.1219(8) 0.4989(6) 0.6386(4)
H81 H 0.0308 0.5195 0.6411
C75 C 0.1835(5) 0.4395(3) 0.5980(2)
H82 H 0.2745 0.4183 0.5949
H83 H 0.1340 0.4208 0.5737
C76 C 0.3472(9) 0.4910(6) 0.6700(4)
H84 H 0.3801 0.5047 0.6266
H85 H 0.3632 0.4247 0.6839
H86 H 0.3915 0.5183 0.6937
N13 N -0.1349(4) 0.7404(2) 0.83095(14)
C80 C -0.0252(5) 0.7356(2) 0.82166(14)
C81 C 0.1137(5) 0.7294(4) 0.8111(2)
H93 H 0.1361 0.7736 0.8309
H94 H 0.1412 0.7428 0.7671
H95 H 0.1577 0.6676 0.8281
C77? C 0.3319(16) 0.4990(12) 0.6809(7)
H87? H 0.3711 0.5210 0.7079
C78? C 0.4108(9) 0.4386(5) 0.6473(4)
H88? H 0.3760 0.4147 0.6197
H89? H 0.5003 0.4206 0.6515
C79? C 0.1534(14) 0.4924(11) 0.6313(8)
H90? H 0.2071 0.5051 0.5923
H91? H 0.0628 0.5205 0.6265
H92? H 0.1624 0.4262 0.6445
loop_
_geom_bond_atom_site_label_1
_geom_bond_atom_site_label_2
_geom_bond_site_symmetry_1
_geom_bond_site_symmetry_2
O1 H1 1_555 1_555
H2 O1 1_555 1_555
O2 C15 1_555 1_555
O3 C17 1_555 1_555
O4 C19 1_555 1_555
O5 C21 1_555 1_555
N1 H3 1_555 1_555
N2 H4 1_555 1_555
N3 H5 1_555 1_555
N4 H6 1_555 1_555
N5 H7 1_555 1_555
N6 H8 1_555 1_555
C1 H9 1_555 1_555
H10 C1 1_555 1_555
C2 C1 1_555 1_555
H11 C2 1_555 1_555
C3 C2 1_555 1_555
C4 N6 1_555 1_555
C5 C4 1_555 1_555
C6 C5 1_555 1_555
H12 C6 1_555 1_555
C7 C6 1_555 1_555
H13 C7 1_555 1_555
C8 C7 1_555 1_555
C9 C8 1_555 1_555
C10 N5 1_555 1_555
C11 C10 1_555 1_555
H14 C11 1_555 1_555
C12 C11 1_555 1_555
H15 C12 1_555 1_555
C13 H16 1_555 1_555
H17 C13 1_555 1_555
H18 C13 1_555 1_555
C14 N1 1_555 1_555
H19 C14 1_555 1_555
C15 N1 1_555 1_555
C16 N2 1_555 1_555
C17 N2 1_555 1_555
C18 N3 1_555 1_555
C19 N3 1_555 1_555
C20 N4 1_555 1_555
H20 C20 1_555 1_555
C21 N4 1_555 1_555
C22 C20 1_555 1_555
H21 C22 1_555 1_555
H22 C22 1_555 1_555
H23 C22 1_555 1_555
C23 N5 1_555 1_555
C24 C9 1_555 1_555
H24 C24 1_555 1_555
C25 C12 1_555 1_555
H25 C25 1_555 1_555
C26 C23 1_555 1_555
C27 C26 1_555 1_555
H26 C27 1_555 1_555
H27 C27 1_555 1_555
H28 C27 1_555 1_555
C28 C26 1_555 1_555
H29 C28 1_555 1_555
C29 C28 1_555 1_555
H30 C29 1_555 1_555
H31 C29 1_555 1_555
C30 C26 1_555 1_555
H32 C30 1_555 1_555
H33 C30 1_555 1_555
H34 C30 1_555 1_555
C31 N6 1_555 1_555
C32 C5 1_555 1_555
C33 C32 1_555 1_555
H35 C33 1_555 1_555
C34 C33 1_555 1_555
H36 C34 1_555 1_555
C35 C34 1_555 1_555
H37 C35 1_555 1_555
C36 C31 1_555 1_555
H38 C36 1_555 1_555
C37 C3 1_555 1_555
H39 C37 1_555 1_555
H40 C37 1_555 1_555
H41 C37 1_555 1_555
C38 C3 1_555 1_555
H42 C38 1_555 1_555
H43 C38 1_555 1_555
H44 C38 1_555 1_555
O6 C55 1_555 1_555
O7 C47 1_555 1_555
O8 C57 1_555 1_555
O9 C59 1_555 1_555
C39 C43 1_555 1_555
N7 H45 1_555 1_555
N8 H46 1_555 1_555
N9 H47 1_555 1_555
N10 H48 1_555 1_555
N11 H49 1_555 1_555
C40 H50 1_555 1_555
C41 C40 1_555 1_555
H51 C41 1_555 1_555
C42 N8 1_555 1_555
C43 C42 1_555 1_555
C44 C39 1_555 1_555
H52 C44 1_555 1_555
C45 C44 1_555 1_555
H53 C45 1_555 1_555
C46 C45 1_555 1_555
C47 N7 1_555 1_555
C48 N7 1_555 1_555
H54 C48 1_555 1_555
C49 C48 1_555 1_555
H55 C49 1_555 1_555
H56 C49 1_555 1_555
H57 C49 1_555 1_555
C50 C40 1_555 1_555
H58 C50 1_555 1_555
C51 C43 1_555 1_555
H59 C51 1_555 1_555
C52 C39 1_555 1_555
C53 C52 1_555 1_555
C54 C53 1_555 1_555
H60 C54 1_555 1_555
H61 C54 1_555 1_555
H62 C54 1_555 1_555
N12 C46 1_555 1_555
H63 N12 1_555 1_555
C55 C48 1_555 1_555
C56 N9 1_555 1_555
C57 N9 1_555 1_555
C58 N10 1_555 1_555
H64 C58 1_555 1_555
C59 N10 1_555 1_555
C60 C58 1_555 1_555
H65 C60 1_555 1_555
H66 C60 1_555 1_555
H67 C60 1_555 1_555
C61 C45 1_555 1_555
C62 N11 1_555 1_555
C63 N11 1_555 1_555
C64 C61 1_555 1_555
C65 C64 1_555 1_555
H68 C65 1_555 1_555
C66 C65 1_555 1_555
H69 C66 1_555 1_555
C67 C66 1_555 1_555
H70 C67 1_555 1_555
C68 C63 1_555 1_555
H71 C68 1_555 1_555
C69 C62 1_555 1_555
C70 C69 1_555 1_555
H72 C70 1_555 1_555
H73 C70 1_555 1_555
H74 C70 1_555 1_555
C71 C69 1_555 1_555
H75 C71 1_555 1_555
C72 C71 1_555 1_555
H76 C72 1_555 1_555
H77 C72 1_555 1_555
C73 C69 1_555 1_555
H78 C73 1_555 1_555
H79 C73 1_555 1_555
H80 C73 1_555 1_555
C74 C53 1_555 1_555
H81 C74 1_555 1_555
C75 C74 1_555 1_555
H82 C75 1_555 1_555
H83 C75 1_555 1_555
C76 C53 1_555 1_555
H84 C76 1_555 1_555
H85 C76 1_555 1_555
H86 C76 1_555 1_555
N13 C80 1_555 1_555
C80 C81 1_555 1_555
C81 H93 1_555 1_555
H94 C81 1_555 1_555
H95 C81 1_555 1_555
C3 C4 1_555 1_555
C6 C16 1_555 1_555
C7 C18 1_555 1_555
C8 C23 1_555 1_555
C9 C10 1_555 1_555
C13 C14 1_555 1_555
C14 C17 1_555 1_555
C15 C16 1_555 1_555
C16 C18 1_555 1_555
C18 C21 1_555 1_555
C19 C20 1_555 1_555
C24 C25 1_555 1_555
C31 C32 1_555 1_555
C35 C36 1_555 1_555
N8 C52 1_555 1_555
C41 C42 1_555 1_555
C44 C56 1_555 1_555
C46 C47 1_555 1_555
C46 C56 1_555 1_555
C50 C51 1_555 1_555
N12 C55 1_555 1_555
C56 C59 1_555 1_555
C57 C58 1_555 1_555
C61 C62 1_555 1_555
C63 C64 1_555 1_555
C67 C68 1_555 1_555

#END
