
#######################################################################
#
#                 Cambridge Crystallographic Data Centre
#                                CCDC 
#
#######################################################################
#
# If this CIF has been generated from an entry in the Cambridge 
# Structural Database, then it will include bibliographic, chemical, 
# crystal, experimental, refinement or atomic coordinate data resulting 
# from the CCDC's data processing and validation procedures.
#
#######################################################################

data_QAPCES
_chemical_compound_source        
'Isolated from the leaves of Rhodomyrtus tomentosa.'
_chemical_name_common            'tomentodione J'
_chemical_formula_moiety         'C25 H38 O3'
_chemical_name_systematic        
4'-isobutyl-5-isopropyl-6',6',8',8'-tetramethyl-4',8'-dihydrospiro[bicyclo[3.1.0]hexane-2,2'-chromene]-5',7'(3'H,6'H)-dione
_symmetry_cell_setting           monoclinic
_symmetry_space_group_name_H-M   'P 21'
_symmetry_Int_Tables_number      4
_space_group_name_Hall           'P 2yb'
loop_
_symmetry_equiv_pos_site_id
_symmetry_equiv_pos_as_xyz
1 x,y,z
2 -x,1/2+y,-z
_cell_length_a                   6.0388(2)
_cell_length_b                   20.9417(8)
_cell_length_c                   9.9049(4)
_cell_angle_alpha                90
_cell_angle_beta                 105.867(4)
_cell_angle_gamma                90
_cell_volume                     1204.88
_exptl_crystal_colour            colorless
_exptl_crystal_description       block
_cell_formula_units_Z            2
loop_
_atom_site_label
_atom_site_type_symbol
_atom_site_fract_x
_atom_site_fract_y
_atom_site_fract_z
O1 O 0.7994(2) 0.70356(7) 0.97442(15)
O2 O 0.4793(3) 0.54687(10) 1.1961(2)
C1 C 0.7909(3) 0.66695(11) 1.0854(2)
O3 O 1.0030(5) 0.68579(13) 1.4651(2)
C2 C 0.6342(3) 0.68865(11) 0.8389(2)
C3 C 0.5890(4) 0.79173(11) 0.7165(2)
C4 C 0.6424(4) 0.58248(11) 1.2009(2)
C5 C 0.9241(3) 0.69919(12) 1.2201(2)
C6 C 0.9198(4) 0.66161(14) 1.3503(2)
C7 C 0.5623(4) 0.58066(11) 0.9331(2)
H1 H 0.3948 0.5838 0.9150
C8 C 0.3995(4) 0.71718(13) 0.8369(3)
H2 H 0.2774 0.6966 0.7658
H3 H 0.3689 0.7120 0.9275
C9 C 0.6759(4) 0.61140(10) 1.0740(2)
C10 C 0.5457(4) 0.74443(13) 0.5989(2)
H4 H 0.6062 0.7541 0.5200
H5 H 0.3997 0.7220 0.5749
C11 C 0.8209(4) 0.59446(12) 1.3412(2)
C12 C 0.7153(4) 0.72887(10) 0.7370(2)
H6 H 0.8797 0.7288 0.7422
C13 C 0.6356(4) 0.61713(11) 0.8181(2)
H7 H 0.7892 0.6037 0.8179
H8 H 0.5319 0.6065 0.7275
C14 C 0.7182(5) 0.58319(16) 1.4644(3)
H9 H 0.5913 0.6118 1.4571
H10 H 0.8337 0.5908 1.5510
H11 H 0.6651 0.5399 1.4622
C15 C 0.6294(5) 0.50998(12) 0.9322(3)
H12 H 0.7954 0.5075 0.9504
H13 H 0.5892 0.4889 1.0094
C16 C 1.1767(4) 0.70762(19) 1.2164(3)
H14 H 1.1820 0.7353 1.1401
H15 H 1.2400 0.6668 1.2034
H16 H 1.2649 0.7260 1.3033
C17 C 0.7058(6) 0.85433(13) 0.7024(3)
H17 H 0.8134 0.8461 0.6462
C18 C 0.5206(7) 0.47284(14) 0.7983(3)
H18 H 0.5640 0.4940 0.7211
C19 C 0.4163(5) 0.78808(14) 0.8029(3)
H19 H 0.2676 0.8043 0.7498
H20 H 0.4692 0.8128 0.8885
C20 C 1.0174(6) 0.54667(19) 1.3480(4)
H21 H 1.1343 0.5519 1.4351
H22 H 1.0823 0.5544 1.2712
H23 H 0.9581 0.5039 1.3419
C21 C 0.8460(8) 0.87987(19) 0.8445(4)
H24 H 0.9281 0.8453 0.9000
H25 H 0.7444 0.8991 0.8923
H26 H 0.9536 0.9112 0.8306
C22 C 0.8183(6) 0.76541(15) 1.2305(3)
H27 H 0.6605 0.7605 1.2311
H28 H 0.8258 0.7909 1.1514
H29 H 0.9027 0.7861 1.3155
C23 C 0.6190(9) 0.40509(18) 0.8113(4)
H30 H 0.5586 0.3827 0.7243
H31 H 0.5763 0.3829 0.8852
H32 H 0.7837 0.4071 0.8324
C24 C 0.5335(9) 0.90338(19) 0.6243(5)
H33 H 0.4443 0.9187 0.6843
H34 H 0.4331 0.8841 0.5423
H35 H 0.6140 0.9384 0.5968
C25 C 0.2610(9) 0.4723(2) 0.7629(5)
H36 H 0.2044 0.5153 0.7496
H37 H 0.2137 0.4529 0.8383
H38 H 0.2000 0.4483 0.6783
loop_
_geom_bond_atom_site_label_1
_geom_bond_atom_site_label_2
_geom_bond_site_symmetry_1
_geom_bond_site_symmetry_2
O1 C1 1_555 1_555
O2 C4 1_555 1_555
C1 C5 1_555 1_555
O3 C6 1_555 1_555
C2 O1 1_555 1_555
C3 C10 1_555 1_555
C4 C9 1_555 1_555
C5 C6 1_555 1_555
C6 C11 1_555 1_555
C7 H1 1_555 1_555
C8 C2 1_555 1_555
H2 C8 1_555 1_555
H3 C8 1_555 1_555
C9 C1 1_555 1_555
C10 H4 1_555 1_555
H5 C10 1_555 1_555
C11 C4 1_555 1_555
C12 C2 1_555 1_555
H6 C12 1_555 1_555
C13 C2 1_555 1_555
H7 C13 1_555 1_555
H8 C13 1_555 1_555
C14 C11 1_555 1_555
H9 C14 1_555 1_555
H10 C14 1_555 1_555
H11 C14 1_555 1_555
C15 C7 1_555 1_555
H12 C15 1_555 1_555
H13 C15 1_555 1_555
C16 C5 1_555 1_555
H14 C16 1_555 1_555
H15 C16 1_555 1_555
H16 C16 1_555 1_555
C17 C3 1_555 1_555
H17 C17 1_555 1_555
C18 C15 1_555 1_555
H18 C18 1_555 1_555
C19 C3 1_555 1_555
H19 C19 1_555 1_555
H20 C19 1_555 1_555
C20 C11 1_555 1_555
H21 C20 1_555 1_555
H22 C20 1_555 1_555
H23 C20 1_555 1_555
C21 C17 1_555 1_555
H24 C21 1_555 1_555
H25 C21 1_555 1_555
H26 C21 1_555 1_555
C22 C5 1_555 1_555
H27 C22 1_555 1_555
H28 C22 1_555 1_555
H29 C22 1_555 1_555
C23 C18 1_555 1_555
H30 C23 1_555 1_555
H31 C23 1_555 1_555
H32 C23 1_555 1_555
C24 C17 1_555 1_555
H33 C24 1_555 1_555
H34 C24 1_555 1_555
H35 C24 1_555 1_555
C25 C18 1_555 1_555
H36 C25 1_555 1_555
H37 C25 1_555 1_555
H38 C25 1_555 1_555
C3 C12 1_555 1_555
C7 C9 1_555 1_555
C7 C13 1_555 1_555
C8 C19 1_555 1_555
C10 C12 1_555 1_555

#END
