
#######################################################################
#
#                 Cambridge Crystallographic Data Centre
#                                CCDC 
#
#######################################################################
#
# If this CIF has been generated from an entry in the Cambridge 
# Structural Database, then it will include bibliographic, chemical, 
# crystal, experimental, refinement or atomic coordinate data resulting 
# from the CCDC's data processing and validation procedures.
#
#######################################################################

data_QAPCAO
_chemical_compound_source        
'Isolated from the leaves of Rhodomyrtus tomentosa.'
_chemical_name_common            'tomentodione E'
_chemical_formula_moiety         'C30 H42 O3'
_chemical_name_systematic        
4-isobutyl-4'-isopropyl-6,6,6',8,8-pentamethyl-3',4,4',8-tetrahydro-2'H-spiro[chromene-2,1'-naphthalene]-5,7(3H,6H)-dione
_symmetry_cell_setting           orthorhombic
_symmetry_space_group_name_H-M   'P 21 21 21'
_symmetry_Int_Tables_number      19
_space_group_name_Hall           'P 2ac 2ab'
loop_
_symmetry_equiv_pos_site_id
_symmetry_equiv_pos_as_xyz
1 x,y,z
2 1/2-x,-y,1/2+z
3 1/2+x,1/2-y,-z
4 -x,1/2+y,1/2-z
_cell_length_a                   6.12360(10)
_cell_length_b                   20.4801(2)
_cell_length_c                   21.9533(2)
_cell_angle_alpha                90
_cell_angle_beta                 90
_cell_angle_gamma                90
_cell_volume                     2753.21
_exptl_crystal_colour            colorless
_exptl_crystal_description       block
_cell_formula_units_Z            4
loop_
_atom_site_label
_atom_site_type_symbol
_atom_site_fract_x
_atom_site_fract_y
_atom_site_fract_z
O1 O 0.6376(3) 0.81556(7) 0.19502(6)
O2 O 0.5748(4) 0.89781(10) 0.39329(8)
O3 O 0.3234(4) 0.69718(12) 0.35485(10)
C1 C 0.4938(4) 0.74779(10) 0.27024(9)
C2 C 0.6060(3) 0.81169(9) 0.25578(9)
C3 C 0.6778(4) 0.88037(10) 0.16853(9)
C4 C 0.7733(4) 0.86724(10) 0.10621(9)
C5 C 0.6584(4) 0.85901(10) 0.29549(9)
C6 C 0.7121(4) 0.90405(11) 0.05573(9)
C7 C 0.4492(4) 0.73931(11) 0.33850(10)
C8 C 0.8403(4) 0.91517(10) 0.20954(9)
H1 H 0.8688 0.9582 0.1929
H2 H 0.9768 0.8911 0.2092
C9 C 0.7637(4) 0.92253(10) 0.27555(9)
H3 H 0.6529 0.9570 0.2770
C10 C 0.9250(4) 0.81723(12) 0.09905(10)
H4 H 0.9680 0.7932 0.1329
C11 C 0.5641(4) 0.78236(12) 0.38438(10)
C12 C 0.7995(5) 0.88639(13) -0.00078(11)
H5 H 0.7546 0.9094 -0.0351
C13 C 0.6327(5) 0.69000(11) 0.24877(13)
H6 H 0.6621 0.6944 0.2060
H7 H 0.5550 0.6500 0.2560
H8 H 0.7679 0.6894 0.2709
C14 C 0.4577(4) 0.91422(13) 0.16248(10)
H9 H 0.3539 0.8847 0.1436
H10 H 0.4031 0.9255 0.2026
C15 C 0.5941(4) 0.85138(12) 0.35959(10)
C16 C 0.5529(4) 0.96134(12) 0.05924(11)
H11 H 0.4224 0.9483 0.0364
C17 C 0.4408(6) 0.78276(17) 0.44463(12)
H12 H 0.3015 0.8034 0.4391
H13 H 0.5236 0.8064 0.4745
H14 H 0.4196 0.7387 0.4583
C18 C 0.2722(4) 0.74569(14) 0.23726(13)
H15 H 0.1835 0.7816 0.2506
H16 H 0.1996 0.7053 0.2465
H17 H 0.2952 0.7488 0.1941
C19 C 0.9546(5) 0.94270(11) 0.31670(11)
H18 H 0.9048 0.9417 0.3586
H19 H 1.0692 0.9103 0.3127
C20 C 1.0130(5) 0.80240(14) 0.04292(12)
H20 H 1.1159 0.7692 0.0394
C21 C 0.7963(5) 0.75432(15) 0.39452(14)
H21 H 0.7855 0.7103 0.4091
H22 H 0.8720 0.7805 0.4240
H23 H 0.8751 0.7548 0.3567
C22 C 0.4784(5) 0.97579(13) 0.12417(11)
H24 H 0.5824 1.0050 0.1433
H25 H 0.3382 0.9978 0.1229
C23 C 0.9480(6) 0.83694(14) -0.00828(12)
C24 C 1.0521(5) 1.00901(13) 0.30434(16)
H26 H 1.1252 1.0063 0.2647
C25 C 0.6459(6) 1.02298(15) 0.02680(14)
H27 H 0.6824 1.0103 -0.0150
C26 C 0.8547(7) 1.0480(2) 0.0563(2)
H28 H 0.9140 1.0828 0.0321
H29 H 0.9590 1.0131 0.0588
H30 H 0.8228 1.0638 0.0965
C27 C 0.8966(8) 1.06311(15) 0.3006(3)
H31 H 0.8044 1.0573 0.2657
H32 H 0.9748 1.1036 0.2970
H33 H 0.8086 1.0640 0.3368
C28 C 0.4765(8) 1.07676(18) 0.0229(2)
H34 H 0.4403 1.0914 0.0632
H35 H 0.3477 1.0603 0.0033
H36 H 0.5343 1.1126 -0.0002
C29 C 1.0365(9) 0.81962(19) -0.07035(14)
H37 H 1.1892 0.8301 -0.0721
H38 H 0.9596 0.8440 -0.1009
H39 H 1.0171 0.7737 -0.0775
C30 C 1.2285(7) 1.02362(19) 0.3516(2)
H40 H 1.2977 1.0644 0.3419
H41 H 1.3354 0.9893 0.3512
H42 H 1.1633 1.0263 0.3913
loop_
_geom_bond_atom_site_label_1
_geom_bond_atom_site_label_2
_geom_bond_site_symmetry_1
_geom_bond_site_symmetry_2
O1 C2 1_555 1_555
O2 C15 1_555 1_555
O3 C7 1_555 1_555
C1 C2 1_555 1_555
C2 C5 1_555 1_555
C3 O1 1_555 1_555
C4 C3 1_555 1_555
C5 C9 1_555 1_555
C6 C4 1_555 1_555
C7 C1 1_555 1_555
C8 C3 1_555 1_555
H1 C8 1_555 1_555
H2 C8 1_555 1_555
C9 C8 1_555 1_555
H3 C9 1_555 1_555
C10 C4 1_555 1_555
H4 C10 1_555 1_555
C11 C7 1_555 1_555
C12 C6 1_555 1_555
H5 C12 1_555 1_555
C13 C1 1_555 1_555
H6 C13 1_555 1_555
H7 C13 1_555 1_555
H8 C13 1_555 1_555
C14 C3 1_555 1_555
H9 C14 1_555 1_555
H10 C14 1_555 1_555
C15 C5 1_555 1_555
C16 C6 1_555 1_555
H11 C16 1_555 1_555
C17 C11 1_555 1_555
H12 C17 1_555 1_555
H13 C17 1_555 1_555
H14 C17 1_555 1_555
C18 C1 1_555 1_555
H15 C18 1_555 1_555
H16 C18 1_555 1_555
H17 C18 1_555 1_555
C19 C9 1_555 1_555
H18 C19 1_555 1_555
H19 C19 1_555 1_555
C20 C10 1_555 1_555
H20 C20 1_555 1_555
C21 C11 1_555 1_555
H21 C21 1_555 1_555
H22 C21 1_555 1_555
H23 C21 1_555 1_555
C22 C14 1_555 1_555
H24 C22 1_555 1_555
H25 C22 1_555 1_555
C23 C12 1_555 1_555
C24 C19 1_555 1_555
H26 C24 1_555 1_555
C25 C16 1_555 1_555
H27 C25 1_555 1_555
C26 C25 1_555 1_555
H28 C26 1_555 1_555
H29 C26 1_555 1_555
H30 C26 1_555 1_555
C27 C24 1_555 1_555
H31 C27 1_555 1_555
H32 C27 1_555 1_555
H33 C27 1_555 1_555
C28 C25 1_555 1_555
H34 C28 1_555 1_555
H35 C28 1_555 1_555
H36 C28 1_555 1_555
C29 C23 1_555 1_555
H37 C29 1_555 1_555
H38 C29 1_555 1_555
H39 C29 1_555 1_555
C30 C24 1_555 1_555
H40 C30 1_555 1_555
H41 C30 1_555 1_555
H42 C30 1_555 1_555
C11 C15 1_555 1_555
C16 C22 1_555 1_555
C20 C23 1_555 1_555

#END
