
#######################################################################
#
#                 Cambridge Crystallographic Data Centre
#                                CCDC 
#
#######################################################################
#
# If this CIF has been generated from an entry in the Cambridge 
# Structural Database, then it will include bibliographic, chemical, 
# crystal, experimental, refinement or atomic coordinate data resulting 
# from the CCDC's data processing and validation procedures.
#
#######################################################################

data_QAPGOE
_chemical_name_common            
'bis(mu!2$-(3-Methoxycarbonylbenzo)-(4-Methoxycarbonylbenzo)-24-crown-8)-di-potassium bis(hexafluorophosphate)'
_chemical_formula_moiety         'C56 H72 K2 O24 2+,2(F6 P1 1-)'
_chemical_name_systematic        
'bis(\m~2~-Dimethyl 6,7,9,10,12,13,20,21,23,24,26,27-dodecahydrodibenzo(b,n)(1,4,7,10,13,16,19,22)octaoxacyclotetracosine-2,17-dicarboxylate)-di-potassium bis(hexafluorophosphate)'
_symmetry_cell_setting           triclinic
_symmetry_space_group_name_H-M   'P -1'
_symmetry_Int_Tables_number      2
_space_group_name_Hall           '-P 1'
loop_
_symmetry_equiv_pos_site_id
_symmetry_equiv_pos_as_xyz
1 x,y,z
2 -x,-y,-z
_cell_length_a                   10.3429(7)
_cell_length_b                   12.6823(9)
_cell_length_c                   13.1381(9)
_cell_angle_alpha                83.7740(10)
_cell_angle_beta                 72.7110(10)
_cell_angle_gamma                77.9380(10)
_cell_volume                     1607.17
_exptl_crystal_colour            colorless
_exptl_crystal_description       plate
_cell_formula_units_Z            1
loop_
_atom_site_label
_atom_site_type_symbol
_atom_site_fract_x
_atom_site_fract_y
_atom_site_fract_z
K1 K 0.65205(4) 0.24404(3) 0.32469(3)
O1 O 0.50580(12) 0.39843(10) 0.19241(10)
O2 O 0.37346(13) 0.26613(10) 0.36303(10)
O3 O 0.47808(12) 0.38293(9) 0.48667(10)
O4 O 0.61307(13) 0.19968(9) 0.55752(10)
O5 O 0.65849(13) 0.03569(9) 0.44573(10)
O6 O 0.64791(13) 0.05892(10) 0.22687(10)
O7 O 0.81552(14) 0.20514(10) 0.12042(10)
O8 O 0.75635(13) 0.42369(10) 0.18521(10)
O9 O 0.80535(17) 0.79299(13) -0.00942(15)
O10 O 0.59627(15) 0.85273(11) -0.03239(11)
O11 O 0.91163(13) 0.16403(11) 0.33035(11)
O12 O 1.01633(13) 0.24987(10) 0.41445(11)
C1 C 0.53979(18) 0.49520(14) 0.15096(14)
C2 C 0.67459(18) 0.50689(14) 0.14324(14)
C3 C 0.71982(19) 0.60130(15) 0.09947(14)
C4 C 0.63199(19) 0.68553(14) 0.06105(14)
C5 C 0.4973(2) 0.67483(15) 0.07209(15)
C6 C 0.45097(19) 0.58061(15) 0.11692(15)
C7 C 0.36610(18) 0.38651(15) 0.20475(15)
C8 C 0.34914(19) 0.27797(15) 0.26103(15)
C9 C 0.28348(18) 0.34122(14) 0.43905(15)
C10 C 0.35726(18) 0.42807(13) 0.45382(15)
C11 C 0.44686(19) 0.35757(15) 0.59845(15)
C12 C 0.5736(2) 0.29155(14) 0.62269(15)
C13 C 0.71131(18) 0.11648(13) 0.57750(14)
C14 C 0.73313(17) 0.02482(13) 0.51821(14)
C15 C 0.82381(17) -0.06667(13) 0.53601(14)
C16 C 0.89857(17) -0.06578(13) 0.60901(14)
C17 C 0.88221(18) 0.02618(14) 0.66333(14)
C18 C 0.78648(19) 0.11733(14) 0.64883(14)
C19 C 0.6783(2) -0.05659(14) 0.38438(15)
C20 C 0.6000(2) -0.02375(15) 0.30230(16)
C21 C 0.7791(2) 0.02510(16) 0.15242(16)
C22 C 0.8060(2) 0.11533(16) 0.06933(16)
C23 C 0.8561(2) 0.29192(16) 0.04772(16)
C24 C 0.88186(19) 0.37419(16) 0.10909(16)
C25 C 0.6890(2) 0.78109(15) 0.00490(15)
C26 C 0.6482(3) 0.94263(17) -0.09760(19)
C27 C 0.99947(17) 0.16251(14) 0.37434(14)
C28 C 0.9181(2) 0.34764(16) 0.40902(19)
H1 H 0.810(2) 0.6078(16) 0.0954(17)
H2 H 0.437(2) 0.7308(18) 0.0474(18)
H3 H 0.362(2) 0.5750(18) 0.1204(18)
H4 H 0.349(2) 0.3891(17) 0.1347(18)
H5 H 0.303(2) 0.4449(18) 0.2436(17)
H6 H 0.415(2) 0.2246(17) 0.2181(17)
H7 H 0.255(2) 0.2689(16) 0.2666(16)
H8 H 0.256(2) 0.3001(16) 0.5049(17)
H9 H 0.202(2) 0.3769(15) 0.4208(15)
H10 H 0.292(2) 0.4782(16) 0.5054(16)
H11 H 0.389(2) 0.4682(15) 0.3845(16)
H12 H 0.417(2) 0.4233(17) 0.6376(17)
H13 H 0.376(2) 0.3171(16) 0.6209(16)
H14 H 0.5516(19) 0.2712(15) 0.6994(16)
H15 H 0.649(2) 0.3328(15) 0.6068(15)
H16 H 0.842(2) -0.1309(17) 0.4951(17)
H17 H 0.936(2) 0.0271(17) 0.7123(17)
H18 H 0.773(2) 0.1792(17) 0.6859(17)
H19 H 0.775(2) -0.0817(16) 0.3515(16)
H20 H 0.6421(19) -0.1166(15) 0.4331(15)
H21 H 0.606(2) -0.0855(18) 0.2639(18)
H22 H 0.503(2) 0.0046(17) 0.3356(18)
H23 H 0.779(3) -0.038(2) 0.118(2)
H24 H 0.851(2) 0.0107(17) 0.1872(18)
H25 H 0.894(3) 0.0932(19) 0.014(2)
H26 H 0.731(2) 0.1334(18) 0.0378(18)
H27 H 0.937(2) 0.2676(17) -0.0067(18)
H28 H 0.787(2) 0.3238(17) 0.0119(18)
H29 H 0.923(2) 0.4270(16) 0.0602(17)
H30 H 0.942(2) 0.3411(16) 0.1517(16)
H31 H 0.666(3) 0.993(2) -0.056(2)
H32 H 0.573(3) 0.982(2) -0.127(2)
H33 H 0.725(3) 0.914(2) -0.155(2)
H34 H 0.931(2) 0.3740(19) 0.337(2)
H35 H 0.937(3) 0.394(2) 0.454(2)
H36 H 0.828(3) 0.335(2) 0.441(2)
K1A K 1.34795(4) -0.24404(3) 0.67531(3)
O1A O 1.49420(12) -0.39843(10) 0.80759(10)
O2A O 1.62654(13) -0.26613(10) 0.63697(10)
O3A O 1.52192(12) -0.38293(9) 0.51333(10)
O4A O 1.38693(13) -0.19968(9) 0.44248(10)
O5A O 1.34151(13) -0.03569(9) 0.55427(10)
O6A O 1.35209(13) -0.05892(10) 0.77313(10)
O7A O 1.18448(14) -0.20514(10) 0.87958(10)
O8A O 1.24365(13) -0.42369(10) 0.81479(10)
O9A O 1.19465(17) -0.79299(13) 1.00942(15)
O10A O 1.40373(15) -0.85273(11) 1.03239(11)
O11A O 1.08837(13) -0.16403(11) 0.66965(11)
O12A O 0.98367(13) -0.24987(10) 0.58555(11)
C1A C 1.46021(18) -0.49520(14) 0.84904(14)
C2A C 1.32541(18) -0.50689(14) 0.85676(14)
C3A C 1.28018(19) -0.60130(15) 0.90053(14)
C4A C 1.36801(19) -0.68553(14) 0.93895(14)
C5A C 1.5027(2) -0.67483(15) 0.92791(15)
C6A C 1.54903(19) -0.58061(15) 0.88308(15)
C7A C 1.63390(18) -0.38651(15) 0.79525(15)
C8A C 1.65086(19) -0.27797(15) 0.73897(15)
C9A C 1.71652(18) -0.34122(14) 0.56095(15)
C10A C 1.64274(18) -0.42807(13) 0.54618(15)
C11A C 1.55314(19) -0.35757(15) 0.40155(15)
C12A C 1.4264(2) -0.29155(14) 0.37731(15)
C13A C 1.28869(18) -0.11648(13) 0.42250(14)
C14A C 1.26687(17) -0.02482(13) 0.48179(14)
C15A C 1.17619(17) 0.06667(13) 0.46399(14)
C16A C 1.10143(17) 0.06578(13) 0.39099(14)
C17A C 1.11779(18) -0.02618(14) 0.33667(14)
C18A C 1.21352(19) -0.11733(14) 0.35117(14)
C19A C 1.3217(2) 0.05659(14) 0.61562(15)
C20A C 1.4000(2) 0.02375(15) 0.69770(16)
C21A C 1.2209(2) -0.02510(16) 0.84758(16)
C22A C 1.1940(2) -0.11533(16) 0.93067(16)
C23A C 1.1439(2) -0.29192(16) 0.95228(16)
C24A C 1.11814(19) -0.37419(16) 0.89091(16)
C25A C 1.3110(2) -0.78109(15) 0.99510(15)
C26A C 1.3518(3) -0.94263(17) 1.09760(19)
C27A C 1.00053(17) -0.16251(14) 0.62566(14)
C28A C 1.0819(2) -0.34764(16) 0.59098(19)
H1A H 1.190(2) -0.6078(16) 0.9046(17)
H2A H 1.563(2) -0.7308(18) 0.9526(18)
H3A H 1.638(2) -0.5750(18) 0.8796(18)
H4A H 1.651(2) -0.3891(17) 0.8653(18)
H5A H 1.697(2) -0.4449(18) 0.7564(17)
H6A H 1.585(2) -0.2246(17) 0.7819(17)
H7A H 1.745(2) -0.2689(16) 0.7334(16)
H8A H 1.744(2) -0.3001(16) 0.4951(17)
H9A H 1.798(2) -0.3769(15) 0.5792(15)
H10A H 1.708(2) -0.4782(16) 0.4946(16)
H11A H 1.611(2) -0.4682(15) 0.6155(16)
H12A H 1.583(2) -0.4233(17) 0.3624(17)
H13A H 1.624(2) -0.3171(16) 0.3791(16)
H14A H 1.4484(19) -0.2712(15) 0.3006(16)
H15A H 1.351(2) -0.3328(15) 0.3932(15)
H16A H 1.158(2) 0.1309(17) 0.5049(17)
H17A H 1.064(2) -0.0271(17) 0.2877(17)
H18A H 1.227(2) -0.1792(17) 0.3141(17)
H19A H 1.225(2) 0.0817(16) 0.6485(16)
H20A H 1.3579(19) 0.1166(15) 0.5669(15)
H21A H 1.394(2) 0.0855(18) 0.7361(18)
H22A H 1.497(2) -0.0046(17) 0.6644(18)
H23A H 1.221(3) 0.038(2) 0.882(2)
H24A H 1.149(2) -0.0107(17) 0.8128(18)
H25A H 1.106(3) -0.0932(19) 0.986(2)
H26A H 1.269(2) -0.1334(18) 0.9622(18)
H27A H 1.063(2) -0.2676(17) 1.0067(18)
H28A H 1.213(2) -0.3238(17) 0.9881(18)
H29A H 1.077(2) -0.4270(16) 0.9398(17)
H30A H 1.058(2) -0.3411(16) 0.8483(16)
H31A H 1.334(3) -0.993(2) 1.056(2)
H32A H 1.427(3) -0.982(2) 1.127(2)
H33A H 1.275(3) -0.914(2) 1.155(2)
H34A H 1.069(2) -0.3740(19) 0.663(2)
H35A H 1.063(3) -0.394(2) 0.546(2)
H36A H 1.172(3) -0.335(2) 0.559(2)
P1 P 0.02122(5) 0.65970(4) 0.26683(4)
F1 F -0.08851(16) 0.58951(10) 0.33580(11)
F2 F -0.03380(12) 0.74773(9) 0.35565(9)
F3 F 0.13164(13) 0.72953(11) 0.19751(10)
F4 F 0.07801(14) 0.57093(10) 0.17796(10)
F5 F 0.13123(16) 0.59815(13) 0.32740(11)
F6 F -0.08699(13) 0.72179(11) 0.20659(11)
loop_
_geom_bond_atom_site_label_1
_geom_bond_atom_site_label_2
_geom_bond_site_symmetry_1
_geom_bond_site_symmetry_2
K1 O1 1_555 1_555
O1 C1 1_555 1_555
O2 K1 1_555 1_555
O3 K1 1_555 1_555
O4 K1 1_555 1_555
O5 K1 1_555 1_555
O6 K1 1_555 1_555
O7 K1 1_555 1_555
O8 K1 1_555 1_555
O9 C25 1_555 1_555
O10 C25 1_555 1_555
O11 K1 1_555 1_555
O12 C27 1_555 1_555
C1 C2 1_555 1_555
C2 O8 1_555 1_555
C3 C2 1_555 1_555
C4 C3 1_555 1_555
C5 C4 1_555 1_555
C6 C1 1_555 1_555
C7 O1 1_555 1_555
C8 O2 1_555 1_555
C9 O2 1_555 1_555
C10 O3 1_555 1_555
C11 O3 1_555 1_555
C12 O4 1_555 1_555
C13 O4 1_555 1_555
C14 O5 1_555 1_555
C15 C14 1_555 1_555
C16 C15 1_555 1_555
C17 C16 1_555 1_555
C18 C13 1_555 1_555
C19 O5 1_555 1_555
C20 O6 1_555 1_555
C21 O6 1_555 1_555
C22 O7 1_555 1_555
C23 O7 1_555 1_555
C24 O8 1_555 1_555
C25 C4 1_555 1_555
C26 O10 1_555 1_555
C27 O11 1_555 1_555
C28 O12 1_555 1_555
P1 F1 1_555 1_555
F2 P1 1_555 1_555
F3 P1 1_555 1_555
F4 P1 1_555 1_555
F5 P1 1_555 1_555
F6 P1 1_555 1_555
H1 C3 1_555 1_555
H2 C5 1_555 1_555
H3 C6 1_555 1_555
H4 C7 1_555 1_555
H5 C7 1_555 1_555
H6 C8 1_555 1_555
H7 C8 1_555 1_555
H8 C9 1_555 1_555
H9 C9 1_555 1_555
H10 C10 1_555 1_555
H11 C10 1_555 1_555
H12 C11 1_555 1_555
H13 C11 1_555 1_555
H14 C12 1_555 1_555
H15 C12 1_555 1_555
H16 C15 1_555 1_555
H17 C17 1_555 1_555
H18 C18 1_555 1_555
H19 C19 1_555 1_555
H20 C19 1_555 1_555
H21 C20 1_555 1_555
H22 C20 1_555 1_555
H23 C21 1_555 1_555
H24 C21 1_555 1_555
H25 C22 1_555 1_555
H26 C22 1_555 1_555
H27 C23 1_555 1_555
H28 C23 1_555 1_555
H29 C24 1_555 1_555
H30 C24 1_555 1_555
H31 C26 1_555 1_555
H32 C26 1_555 1_555
H33 C26 1_555 1_555
H34 C28 1_555 1_555
H35 C28 1_555 1_555
H36 C28 1_555 1_555
K1A O1A 1_555 1_555
O1A C1A 1_555 1_555
O2A K1A 1_555 1_555
O3A K1A 1_555 1_555
O4A K1A 1_555 1_555
O5A K1A 1_555 1_555
O6A K1A 1_555 1_555
O7A K1A 1_555 1_555
O8A K1A 1_555 1_555
O9A C25A 1_555 1_555
O10A C25A 1_555 1_555
O11A K1A 1_555 1_555
O12A C27A 1_555 1_555
C1A C2A 1_555 1_555
C2A O8A 1_555 1_555
C3A C2A 1_555 1_555
C4A C3A 1_555 1_555
C5A C4A 1_555 1_555
C6A C1A 1_555 1_555
C7A O1A 1_555 1_555
C8A O2A 1_555 1_555
C9A O2A 1_555 1_555
C10A O3A 1_555 1_555
C11A O3A 1_555 1_555
C12A O4A 1_555 1_555
C13A O4A 1_555 1_555
C14A O5A 1_555 1_555
C15A C14A 1_555 1_555
C16A C27 1_555 1_555
C17A C16A 1_555 1_555
C18A C13A 1_555 1_555
C19A O5A 1_555 1_555
C20A O6A 1_555 1_555
C21A O6A 1_555 1_555
C22A O7A 1_555 1_555
C23A O7A 1_555 1_555
C24A O8A 1_555 1_555
C25A C4A 1_555 1_555
C26A O10A 1_555 1_555
C27A C16 1_555 1_555
C28A O12A 1_555 1_555
H1A C3A 1_555 1_555
H2A C5A 1_555 1_555
H3A C6A 1_555 1_555
H4A C7A 1_555 1_555
H5A C7A 1_555 1_555
H6A C8A 1_555 1_555
H7A C8A 1_555 1_555
H8A C9A 1_555 1_555
H9A C9A 1_555 1_555
H10A C10A 1_555 1_555
H11A C10A 1_555 1_555
H12A C11A 1_555 1_555
H13A C11A 1_555 1_555
H14A C12A 1_555 1_555
H15A C12A 1_555 1_555
H16A C15A 1_555 1_555
H17A C17A 1_555 1_555
H18A C18A 1_555 1_555
H19A C19A 1_555 1_555
H20A C19A 1_555 1_555
H21A C20A 1_555 1_555
H22A C20A 1_555 1_555
H23A C21A 1_555 1_555
H24A C21A 1_555 1_555
H25A C22A 1_555 1_555
H26A C22A 1_555 1_555
H27A C23A 1_555 1_555
H28A C23A 1_555 1_555
H29A C24A 1_555 1_555
H30A C24A 1_555 1_555
H31A C26A 1_555 1_555
H32A C26A 1_555 1_555
H33A C26A 1_555 1_555
H34A C28A 1_555 1_555
H35A C28A 1_555 1_555
H36A C28A 1_555 1_555
C5 C6 1_555 1_555
C7 C8 1_555 1_555
C9 C10 1_555 1_555
C11 C12 1_555 1_555
C13 C14 1_555 1_555
C17 C18 1_555 1_555
C19 C20 1_555 1_555
C21 C22 1_555 1_555
C23 C24 1_555 1_555
O11A C27A 1_555 1_555
C5A C6A 1_555 1_555
C7A C8A 1_555 1_555
C9A C10A 1_555 1_555
C11A C12A 1_555 1_555
C13A C14A 1_555 1_555
C15A C16A 1_555 1_555
C17A C18A 1_555 1_555
C19A C20A 1_555 1_555
C21A C22A 1_555 1_555
C23A C24A 1_555 1_555

#END
