
#######################################################################
#
#                 Cambridge Crystallographic Data Centre
#                                CCDC 
#
#######################################################################
#
# If this CIF has been generated from an entry in the Cambridge 
# Structural Database, then it will include bibliographic, chemical, 
# crystal, experimental, refinement or atomic coordinate data resulting 
# from the CCDC's data processing and validation procedures.
#
#######################################################################

data_QAPGUM
_chemical_formula_moiety         'C37 H58 O10,H2 O1'
_chemical_name_systematic        
'2-[(20-{[4-(ethoxymethoxy)-5-hydroxy-6-methyloxan-2-yl]oxy}-17-hydroxypregn-5-en-3-yl)oxy]-4-methoxy-6-methyl-2H-pyran-3(6H)-one monohydrate'
_symmetry_cell_setting           monoclinic
_symmetry_space_group_name_H-M   'P 21'
_symmetry_Int_Tables_number      4
_space_group_name_Hall           'P 2yb'
loop_
_symmetry_equiv_pos_site_id
_symmetry_equiv_pos_as_xyz
1 x,y,z
2 -x,1/2+y,-z
_cell_length_a                   12.5069(16)
_cell_length_b                   23.641(3)
_cell_length_c                   25.417(3)
_cell_angle_alpha                90
_cell_angle_beta                 98.788(2)
_cell_angle_gamma                90
_cell_volume                     7426.96
_exptl_crystal_colour            colorless
_exptl_crystal_description       needle
_cell_formula_units_Z            8
loop_
_atom_site_label
_atom_site_type_symbol
_atom_site_fract_x
_atom_site_fract_y
_atom_site_fract_z
O1 O 0.4807(6) 0.6247(5) 0.9747(3)
O2 O 0.3043(5) 0.6485(3) 0.9504(3)
O3 O 0.0737(5) 0.7009(3) 0.7890(2)
O4 O -0.0004(4) 0.6509(3) 0.2950(2)
O5 O -0.0151(5) 0.6082(3) 0.1320(2)
O6 O 0.0575(5) 0.5544(4) 0.2230(3)
C1 C -0.0560(8) 0.6135(5) 0.6460(4)
H1 H -0.0744 0.5960 0.6117
H2 H -0.1210 0.6225 0.6600
H3 H -0.0128 0.5879 0.6698
O7 O 0.1006(5) 0.7430(3) 0.6941(2)
H4 H 0.1274 0.7538 0.7238
O8 O 0.0010(5) 0.6755(3) 0.8629(3)
O9 O 0.1122(5) 0.6099(4) 0.9878(2)
H5 H 0.1696 0.6133 1.0080
O10 O 0.1529(4) 0.6888(3) 0.2645(2)
C2 C 0.3989(9) 0.6252(7) 0.9311(5)
H6 H 0.3842 0.5872 0.9175
H7 H 0.4192 0.6486 0.9028
C3 C 0.2057(8) 0.6365(5) 0.9147(4)
H8 H 0.2057 0.5967 0.9040
C4 C 0.1950(8) 0.6743(5) 0.8644(4)
H9 H 0.2010 0.7139 0.8745
H10 H 0.2523 0.6655 0.8439
C5 C 0.0873(8) 0.6632(5) 0.8318(4)
H11 H 0.0825 0.6240 0.8192
C6 C -0.0013(8) 0.6834(5) 0.7434(4)
H12 H -0.0221 0.6442 0.7489
C7 C 0.0626(7) 0.6846(4) 0.6972(4)
C8 C 0.0081(7) 0.6677(4) 0.6404(4)
C9 C 0.1075(7) 0.6594(4) 0.6125(3)
H13 H 0.1413 0.6966 0.6108
C10 C 0.0830(7) 0.6378(4) 0.5565(3)
H14 H 0.0518 0.5999 0.5571
C11 C 0.0018(7) 0.6763(4) 0.5221(4)
H15 H 0.0408 0.7118 0.5188
C12 C -0.0295(7) 0.6544(4) 0.4639(4)
C13 C 0.0707(7) 0.6295(4) 0.4438(4)
C14 C 0.0578(8) 0.6159(5) 0.3861(4)
H16 H 0.0066 0.5850 0.3786
H17 H 0.1268 0.6031 0.3775
C15 C 0.0188(7) 0.6657(4) 0.3508(3)
H18 H 0.0746 0.6951 0.3560
C16 C 0.0949(7) 0.6391(5) 0.2735(4)
H19 H 0.1416 0.6147 0.2983
C17 C 0.0606(7) 0.6069(5) 0.2226(4)
C18 C 0.0308(7) 0.6402(5) 0.1739(4)
C19 C -0.0421(9) 0.6371(6) 0.0824(4)
H20 H 0.0212 0.6553 0.0734
H21 H -0.0965 0.6651 0.0855
H22 H -0.0693 0.6105 0.0552
C20 C -0.0683(7) 0.7037(4) 0.4259(3)
H23 H -0.1369 0.7174 0.4343
H24 H -0.0166 0.7344 0.4327
C21 C -0.0826(7) 0.6892(4) 0.3670(3)
H25 H -0.1404 0.6618 0.3590
H26 H -0.1036 0.7230 0.3464
C22 C -0.0633(7) 0.7117(5) 0.6073(4)
H27 H -0.1283 0.7180 0.6230
H28 H -0.0245 0.7473 0.6080
C23 C -0.0951(7) 0.6925(5) 0.5493(4)
H29 H -0.1431 0.6603 0.5484
H30 H -0.1346 0.7228 0.5292
C24 C 0.0066(8) 0.6384(5) 0.9076(4)
H31 H 0.0016 0.5991 0.8951
C25 C -0.0906(8) 0.6521(6) 0.9335(4)
H32 H -0.1552 0.6470 0.9082
H33 H -0.0862 0.6906 0.9456
H34 H -0.0924 0.6273 0.9633
C26 C 0.1117(8) 0.6468(5) 0.9435(4)
H35 H 0.1151 0.6859 0.9564
C27 C -0.1016(8) 0.7194(5) 0.7383(4)
H36 H -0.0831 0.7580 0.7323
H37 H -0.1329 0.7168 0.7704
H38 H -0.1528 0.7062 0.7088
C28 C 0.1618(7) 0.6444(5) 0.7072(3)
H39 H 0.2243 0.6644 0.7256
H40 H 0.1465 0.6126 0.7291
C29 C 0.1842(7) 0.6236(4) 0.6537(3)
H41 H 0.1680 0.5836 0.6493
H42 H 0.2593 0.6299 0.6498
C30 C 0.1870(7) 0.6342(5) 0.5327(3)
H43 H 0.2264 0.6695 0.5392
H44 H 0.2318 0.6042 0.5503
C31 C 0.1657(7) 0.6228(4) 0.4736(4)
H45 H 0.2231 0.6103 0.4572
C32 C -0.1188(8) 0.6096(5) 0.4611(4)
H46 H -0.1855 0.6274 0.4662
H47 H -0.0991 0.5819 0.4886
H48 H -0.1276 0.5915 0.4270
C33 C 0.1047(7) 0.7258(4) 0.2224(4)
H49 H 0.1641 0.7469 0.2105
C34 C 0.0473(7) 0.6959(5) 0.1749(4)
H50 H 0.0219 0.7169 0.1446
C35 C 0.0340(8) 0.7692(5) 0.2457(4)
H51 H 0.0753 0.7869 0.2762
H52 H -0.0276 0.7504 0.2562
H53 H 0.0098 0.7973 0.2194
C36 C 0.5571(13) 0.6678(7) 0.9744(7)
H54 H 0.5247 0.7034 0.9827
H55 H 0.5758 0.6710 0.9388
C37 C 0.6591(16) 0.6585(11) 1.0134(10)
O11 O 0.6193(6) 0.8607(4) 0.0640(3)
O12 O 0.8164(5) 0.8868(3) 0.2326(3)
O13 O 1.1508(5) 0.8778(3) 0.7213(2)
O14 O 1.0492(5) 0.8696(3) 0.8947(2)
O15 O 0.8608(6) 0.8646(4) 0.8963(3)
O16 O 1.1269(5) 0.8246(3) 0.6198(2)
H58 H 1.1235 0.8030 0.6447
O17 O 0.7789(5) 0.7977(3) 0.2023(2)
O18 O 0.6835(7) 0.9284(4) 0.1463(3)
O19 O 1.1973(5) 0.9472(3) 0.7820(2)
O20 O 1.0789(5) 0.9927(3) 0.8997(2)
H59 H 1.0261 1.0082 0.8825
C39 C 0.5817(11) 0.8250(6) 0.0203(4)
H60 H 0.5253 0.8010 0.0293
H61 H 0.6404 0.8022 0.0121
H62 H 0.5539 0.8477 -0.0101
C40 C 0.6527(8) 0.8352(6) 0.1119(4)
C41 C 0.6917(8) 0.8780(6) 0.1543(4)
C42 C 0.7337(8) 0.8517(5) 0.2073(4)
H63 H 0.6753 0.8491 0.2289
C43 C 0.8544(8) 0.8726(5) 0.2873(4)
H64 H 0.8655 0.8316 0.2908
C44 C 0.7739(7) 0.8922(5) 0.3234(4)
H65 H 0.7058 0.9072 0.3114
C45 C 0.8213(7) 0.8838(4) 0.3816(3)
C46 C 0.9307(7) 0.9097(4) 0.3995(3)
C47 C 0.9794(7) 0.8885(4) 0.4559(3)
H66 H 1.0016 0.8491 0.4522
C48 C 0.8943(7) 0.8887(4) 0.4936(3)
H67 H 0.8668 0.9273 0.4960
C49 C 0.9493(6) 0.8698(4) 0.5492(3)
H68 H 0.9773 0.8317 0.5450
C50 C 1.0464(7) 0.9060(4) 0.5743(3)
C51 C 1.0744(6) 0.8772(4) 0.6291(3)
C52 C 1.1466(7) 0.9100(5) 0.6722(3)
H69 H 1.1137 0.9469 0.6768
C53 C 1.1148(7) 0.9079(4) 0.7630(3)
H70 H 1.0487 0.9286 0.7489
C54 C 1.0919(7) 0.8694(4) 0.8067(4)
H71 H 1.1571 0.8491 0.8213
H72 H 1.0371 0.8420 0.7928
C55 C 1.0523(7) 0.9045(5) 0.8503(3)
H73 H 0.9792 0.9185 0.8373
C56 C 0.9640(9) 0.8825(6) 0.9230(4)
H74 H 0.9623 0.9231 0.9285
H75 H 0.9779 0.8646 0.9577
C57 C 0.8539(10) 0.8072(6) 0.8895(6)
H76 H 0.8810 0.7885 0.9228
H77 H 0.8984 0.7957 0.8633
C58 C 0.6970(8) 0.7596(5) 0.1777(4)
H78 H 0.6396 0.7564 0.1998
C59 C 0.7524(8) 0.7031(5) 0.1752(4)
H79 H 0.7877 0.6929 0.2101
H80 H 0.8050 0.7057 0.1515
H81 H 0.6996 0.6749 0.1624
C60 C 0.6504(7) 0.7808(5) 0.1237(4)
H82 H 0.6194 0.7553 0.0979
C61 C 0.9612(7) 0.9030(5) 0.3023(4)
H83 H 1.0119 0.8902 0.2796
H84 H 0.9504 0.9433 0.2968
C62 C 1.0075(7) 0.8921(5) 0.3596(3)
H85 H 1.0750 0.9127 0.3681
H86 H 1.0238 0.8521 0.3641
C63 C 0.7666(7) 0.8558(4) 0.4148(4)
H87 H 0.7020 0.8385 0.4003
C64 C 0.8015(7) 0.8502(4) 0.4732(3)
H88 H 0.8227 0.8114 0.4814
H89 H 0.7408 0.8589 0.4914
C65 C 0.9209(7) 0.9753(4) 0.3977(4)
H90 H 0.8842 0.9879 0.4260
H91 H 0.8806 0.9866 0.3641
H92 H 0.9919 0.9917 0.4017
C66 C 1.0827(7) 0.9224(5) 0.4802(4)
H93 H 1.1366 0.9191 0.4568
H94 H 1.0639 0.9621 0.4821
C67 C 1.1313(7) 0.9023(4) 0.5354(4)
H95 H 1.1935 0.9255 0.5488
H96 H 1.1557 0.8635 0.5335
C68 C 0.8800(7) 0.8662(5) 0.5934(3)
H97 H 0.8374 0.8318 0.5905
H98 H 0.8316 0.8984 0.5924
C69 C 0.9626(6) 0.8664(4) 0.6447(3)
H99 H 0.9450 0.8959 0.6685
H100 H 0.9617 0.8303 0.6627
C70 C 1.0146(8) 0.9685(5) 0.5810(4)
H101 H 0.9653 0.9709 0.6063
H102 H 0.9805 0.9832 0.5473
H103 H 1.0783 0.9903 0.5934
C71 C 1.2625(7) 0.9188(5) 0.6619(4)
H104 H 1.2923 0.8833 0.6531
H105 H 1.3053 0.9340 0.6933
H106 H 1.2627 0.9448 0.6329
C72 C 1.1567(7) 0.9867(4) 0.8180(4)
H107 H 1.0914 1.0048 0.7992
C73 C 1.2424(8) 1.0316(5) 0.8325(4)
H108 H 1.2618 1.0477 0.8006
H109 H 1.3052 1.0148 0.8531
H110 H 1.2147 1.0607 0.8530
C74 C 1.1274(7) 0.9546(5) 0.8652(3)
H111 H 1.1946 0.9400 0.8856
C75 C 0.7349(11) 0.7891(8) 0.8707(7)
H112 H 0.6963 0.7887 0.9005
H113 H 0.7336 0.7520 0.8553
H114 H 0.7011 0.8155 0.8445
O21 O 0.3884(5) 0.7778(3) 0.9073(3)
O22 O 0.5122(5) 0.7493(3) 0.7430(2)
O23 O 0.4765(5) 0.7477(3) 0.2479(2)
O24 O 0.2709(5) 0.7719(3) 0.0764(2)
O25 O 0.0818(5) 0.7781(3) 0.0757(3)
O26 O 0.5284(4) 0.7999(3) 0.3472(2)
H115 H 0.5603 0.8048 0.3217
O27 O 0.4939(5) 0.8391(3) 0.7740(2)
O28 O 0.4772(5) 0.6782(3) 0.1846(2)
O29 O 0.3017(5) 0.6498(3) 0.0591(3)
H116 H 0.3272 0.6497 0.0313
C76 C 0.3296(9) 0.8117(5) 0.9407(4)
H117 H 0.2629 0.8244 0.9204
H118 H 0.3726 0.8439 0.9537
H119 H 0.3145 0.7894 0.9703
C77 C 0.4066(7) 0.8022(5) 0.8609(4)
C78 C 0.4429(8) 0.7609(6) 0.8229(4)
C79 C 0.4478(7) 0.7852(5) 0.7690(3)
H120 H 0.3748 0.7874 0.7487
C80 C 0.5087(7) 0.7615(5) 0.6870(3)
H121 H 0.5153 0.8024 0.6819
C81 C 0.4038(7) 0.7404(4) 0.6550(4)
H122 H 0.3438 0.7624 0.6642
H123 H 0.3925 0.7012 0.6639
C82 C 0.4065(7) 0.7455(4) 0.5949(4)
C83 C 0.5041(7) 0.7186(4) 0.5739(4)
C84 C 0.5073(6) 0.7383(4) 0.5170(3)
H124 H 0.5305 0.7779 0.5193
C85 C 0.3956(7) 0.7371(4) 0.4806(4)
H125 H 0.3668 0.6985 0.4790
C86 C 0.4079(7) 0.7566(4) 0.4252(3)
H126 H 0.4397 0.7946 0.4287
C87 C 0.4850(6) 0.7194(4) 0.3988(3)
C88 C 0.4717(7) 0.7477(5) 0.3413(4)
C89 C 0.5055(7) 0.7127(4) 0.2955(3)
H127 H 0.4642 0.6773 0.2915
C90 C 0.4120(7) 0.7182(4) 0.2069(3)
H128 H 0.3530 0.6988 0.2208
C91 C 0.3664(7) 0.7608(4) 0.1645(3)
H129 H 0.3197 0.7873 0.1792
H130 H 0.4251 0.7819 0.1528
C92 C 0.3026(7) 0.7300(4) 0.1174(3)
H131 H 0.2373 0.7139 0.1284
C93 C 0.1660(8) 0.7646(5) 0.0467(4)
H132 H 0.1593 0.7883 0.0152
H133 H 0.1578 0.7256 0.0350
C94 C 0.0799(9) 0.8370(6) 0.0878(5)
H134 H 0.0947 0.8589 0.0575
H135 H 0.1353 0.8455 0.1178
C95 C -0.0301(10) 0.8523(6) 0.1011(5)
H136 H -0.0443 0.8304 0.1311
H137 H -0.0844 0.8444 0.0711
H138 H -0.0316 0.8918 0.1097
C96 C 0.4230(7) 0.8770(5) 0.7953(4)
H139 H 0.3563 0.8806 0.7697
C97 C 0.3943(7) 0.8560(5) 0.8471(4)
H140 H 0.3673 0.8813 0.8698
O30 O 0.4594(7) 0.7109(4) 0.8348(3)
C98 C 0.4792(8) 0.9340(5) 0.8006(4)
H141 H 0.5004 0.9443 0.7672
H142 H 0.5422 0.9318 0.8273
H143 H 0.4307 0.9621 0.8107
C99 C 0.6047(7) 0.7320(5) 0.6707(3)
H144 H 0.6019 0.6920 0.6789
H145 H 0.6707 0.7475 0.6905
C100 C 0.6051(7) 0.7398(4) 0.6105(3)
H146 H 0.6140 0.7798 0.6036
H147 H 0.6677 0.7203 0.6010
C101 C 0.3281(7) 0.7712(4) 0.5638(4)
H148 H 0.2735 0.7874 0.5799
C102 C 0.3192(7) 0.7765(4) 0.5051(3)
H149 H 0.3347 0.8153 0.4964
H150 H 0.2453 0.7684 0.4892
C103 C 0.4971(7) 0.6549(4) 0.5784(4)
H151 H 0.5668 0.6386 0.5770
H152 H 0.4458 0.6405 0.5495
H153 H 0.4741 0.6452 0.6116
C104 C 0.5916(7) 0.7058(4) 0.4897(3)
H154 H 0.6627 0.7118 0.5102
H155 H 0.5759 0.6657 0.4907
C105 C 0.5948(7) 0.7232(4) 0.4314(3)
H156 H 0.6214 0.7617 0.4305
H157 H 0.6444 0.6987 0.4163
C106 C 0.3048(7) 0.7606(5) 0.3838(4)
H158 H 0.2569 0.7289 0.3870
H159 H 0.2662 0.7955 0.3878
C107 C 0.3472(6) 0.7591(4) 0.3303(3)
H160 H 0.3330 0.7950 0.3119
H161 H 0.3110 0.7295 0.3079
C108 C 0.4443(7) 0.6586(4) 0.3919(4)
H162 H 0.4325 0.6438 0.4257
H163 H 0.4973 0.6358 0.3781
H164 H 0.3777 0.6578 0.3675
C109 C 0.6263(8) 0.6996(5) 0.3023(4)
H165 H 0.6666 0.7343 0.3061
H166 H 0.6423 0.6795 0.2717
H167 H 0.6460 0.6768 0.3336
C110 C 0.4140(7) 0.6450(4) 0.1437(3)
H168 H 0.3533 0.6283 0.1585
C111 C 0.3689(7) 0.6826(5) 0.0980(3)
H169 H 0.4286 0.6988 0.0820
C112 C 0.4846(8) 0.5975(5) 0.1287(5)
H170 H 0.5108 0.5755 0.1598
H171 H 0.5449 0.6130 0.1143
H172 H 0.4431 0.5737 0.1026
O31 O 0.5845(6) 0.9655(4) -0.0315(3)
O32 O 0.4256(5) 0.9435(3) -0.0021(3)
O33 O 0.3398(5) 0.9183(3) 0.1727(2)
O34 O 0.6152(4) 0.9790(3) 0.6640(2)
O35 O 0.7148(5) 1.0301(3) 0.8294(2)
O36 O 0.7981(5) 0.9553(3) 0.6942(2)
O37 O 0.4420(5) 0.8816(3) 0.2689(2)
H173 H 0.4520 0.8696 0.2398
O38 O 0.2138(5) 0.9569(3) 0.1078(2)
O39 O 0.2442(5) 1.0204(3) -0.0201(3)
H174 H 0.1878 1.0159 -0.0408
O40 O 0.6737(5) 1.0786(3) 0.7334(2)
C113 C 0.7627(9) 0.9644(6) 0.0175(5)
H175 H 0.8031 0.9909 -0.0002
H176 H 0.7628 0.9282 0.0005
H177 H 0.7953 0.9610 0.0541
C114 C 0.6504(9) 0.9845(6) 0.0148(5)
H178 H 0.6212 0.9712 0.0458
H179 H 0.6499 1.0256 0.0154
C115 C 0.4765(8) 0.9803(5) -0.0342(4)
H180 H 0.4407 0.9780 -0.0708
H181 H 0.4711 1.0189 -0.0221
C116 C 0.3735(8) 0.9702(5) 0.0390(4)
H182 H 0.4065 1.0073 0.0479
C117 C 0.3896(8) 0.9330(5) 0.0875(4)
H183 H 0.4659 0.9317 0.1021
H184 H 0.3662 0.8948 0.0775
C118 C 0.3262(7) 0.9549(5) 0.1291(4)
H185 H 0.3518 0.9928 0.1405
C119 C 0.3025(7) 0.9400(5) 0.2203(4)
H186 H 0.2778 0.9791 0.2142
C120 C 0.4015(7) 0.9388(4) 0.2631(3)
C121 C 0.3855(7) 0.9588(4) 0.3205(4)
C122 C 0.5042(7) 0.9696(4) 0.3457(3)
H187 H 0.5411 0.9329 0.3472
C123 C 0.5194(7) 0.9922(4) 0.4022(3)
H188 H 0.4850 1.0294 0.4025
C124 C 0.6412(7) 0.9979(4) 0.4220(3)
H189 H 0.6778 0.9642 0.4124
H190 H 0.6693 1.0299 0.4046
C125 C 0.6646(7) 1.0058(4) 0.4806(3)
H191 H 0.7335 1.0183 0.4947
C126 C 0.5943(7) 0.9963(4) 0.5151(3)
C127 C 0.6256(7) 1.0096(4) 0.5730(3)
H192 H 0.6548 1.0440 0.5857
C128 C 0.6047(7) 0.9609(4) 0.6084(3)
H193 H 0.6557 0.9301 0.6050
C129 C 0.7197(7) 0.9983(4) 0.6860(3)
H194 H 0.7429 1.0255 0.6609
C130 C 0.7053(7) 1.0304(5) 0.7363(3)
C131 C 0.7301(7) 0.9987(5) 0.7872(4)
C132 C 0.7552(8) 1.0068(5) 0.8804(3)
H195 H 0.8313 0.9998 0.8828
H196 H 0.7184 0.9720 0.8851
H197 H 0.7429 1.0330 0.9077
C133 C 0.7648(7) 0.9459(5) 0.7861(3)
H198 H 0.7747 0.9258 0.8179
C134 C 0.7891(7) 0.9163(4) 0.7373(4)
H199 H 0.8607 0.8991 0.7470
C135 C 0.4695(7) 0.9520(4) 0.4384(3)
H200 H 0.5113 0.9169 0.4396
C136 C 0.4804(7) 0.9742(4) 0.4978(3)
C137 C 0.3977(7) 1.0210(4) 0.5023(4)
H201 H 0.4048 1.0501 0.4767
H202 H 0.4104 1.0368 0.5375
H203 H 0.3260 1.0054 0.4956
C138 C 0.4657(7) 0.9249(4) 0.5352(3)
H204 H 0.3917 0.9116 0.5273
H205 H 0.5126 0.8941 0.5281
C139 C 0.4901(7) 0.9396(4) 0.5944(3)
H206 H 0.4401 0.9685 0.6027
H207 H 0.4804 0.9063 0.6155
C140 C 0.3522(7) 0.9365(4) 0.4152(3)
H208 H 0.3065 0.9695 0.4164
H209 H 0.3267 0.9073 0.4370
C141 C 0.3415(7) 0.9152(4) 0.3570(4)
H210 H 0.3810 0.8800 0.3561
H211 H 0.2659 0.9077 0.3436
C142 C 0.1909(8) 0.9950(5) 0.0643(4)
H212 H 0.2132 1.0332 0.0763
C143 C 0.2536(8) 0.9774(5) 0.0203(4)
H213 H 0.2238 0.9418 0.0045
C144 C 0.0713(8) 0.9944(5) 0.0460(4)
H214 H 0.0344 1.0049 0.0750
H215 H 0.0491 0.9572 0.0340
H216 H 0.0536 1.0209 0.0173
C145 C 0.2093(7) 0.9035(5) 0.2314(4)
H217 H 0.2333 0.8651 0.2369
H218 H 0.1520 0.9052 0.2017
H219 H 0.1833 0.9170 0.2628
C146 C 0.4922(7) 0.9792(5) 0.2494(4)
H220 H 0.5440 0.9583 0.2322
H221 H 0.4610 1.0088 0.2253
C147 C 0.5481(7) 1.0051(5) 0.3016(3)
H222 H 0.5293 1.0447 0.3040
H223 H 0.6261 1.0017 0.3047
C148 C 0.3174(7) 1.0127(4) 0.3160(4)
H224 H 0.3182 1.0287 0.3508
H225 H 0.2444 1.0038 0.3007
H226 H 0.3469 1.0394 0.2937
C149 C 0.7117(8) 0.8681(4) 0.7188(4)
H227 H 0.6396 0.8827 0.7100
H228 H 0.7138 0.8406 0.7468
H229 H 0.7330 0.8506 0.6879
O41 O 0.3385(12) 0.5507(7) 0.8218(5)
O42 O 0.8694(11) 0.0082(6) 0.2088(5)
O43 O 0.0800(11) 0.0256(7) 0.1858(6)
O44 O 0.4810(17) 0.1134(8) 0.2085(8)
O45 O 0.7561(17) 0.6070(9) 0.8047(7)
H56? H 0.5189 0.6992 0.9553
H57? H 0.5757 0.6801 1.0111
C38? C 0.653(3) 0.663(2) 0.9549(14)
loop_
_geom_bond_atom_site_label_1
_geom_bond_atom_site_label_2
_geom_bond_site_symmetry_1
_geom_bond_site_symmetry_2
O1 C2 1_555 1_555
O2 C2 1_555 1_555
O3 C5 1_555 1_555
O4 C15 1_555 1_555
O5 C18 1_555 1_555
O6 C17 1_555 1_555
C1 H1 1_555 1_555
H2 C1 1_555 1_555
H3 C1 1_555 1_555
O7 H4 1_555 1_555
O8 C5 1_555 1_555
O9 H5 1_555 1_555
O10 C16 1_555 1_555
C2 H6 1_555 1_555
H7 C2 1_555 1_555
C3 O2 1_555 1_555
H8 C3 1_555 1_555
C4 C3 1_555 1_555
H9 C4 1_555 1_555
H10 C4 1_555 1_555
C5 C4 1_555 1_555
H11 C5 1_555 1_555
C6 O3 1_555 1_555
H12 C6 1_555 1_555
C7 O7 1_555 1_555
C8 C1 1_555 1_555
C9 C8 1_555 1_555
H13 C9 1_555 1_555
C10 C9 1_555 1_555
H14 C10 1_555 1_555
C11 C10 1_555 1_555
H15 C11 1_555 1_555
C12 C11 1_555 1_555
C13 C12 1_555 1_555
C14 C13 1_555 1_555
H16 C14 1_555 1_555
H17 C14 1_555 1_555
C15 C14 1_555 1_555
H18 C15 1_555 1_555
C16 O4 1_555 1_555
H19 C16 1_555 1_555
C17 C16 1_555 1_555
C18 C17 1_555 1_555
C19 O5 1_555 1_555
H20 C19 1_555 1_555
H21 C19 1_555 1_555
H22 C19 1_555 1_555
C20 C12 1_555 1_555
H23 C20 1_555 1_555
H24 C20 1_555 1_555
C21 C15 1_555 1_555
H25 C21 1_555 1_555
H26 C21 1_555 1_555
C22 C8 1_555 1_555
H27 C22 1_555 1_555
H28 C22 1_555 1_555
C23 C11 1_555 1_555
H29 C23 1_555 1_555
H30 C23 1_555 1_555
C24 O8 1_555 1_555
H31 C24 1_555 1_555
C25 C24 1_555 1_555
H32 C25 1_555 1_555
H33 C25 1_555 1_555
H34 C25 1_555 1_555
C26 O9 1_555 1_555
H35 C26 1_555 1_555
C27 C6 1_555 1_555
H36 C27 1_555 1_555
H37 C27 1_555 1_555
H38 C27 1_555 1_555
C28 C7 1_555 1_555
H39 C28 1_555 1_555
H40 C28 1_555 1_555
C29 C9 1_555 1_555
H41 C29 1_555 1_555
H42 C29 1_555 1_555
C30 C10 1_555 1_555
H43 C30 1_555 1_555
H44 C30 1_555 1_555
C31 C13 1_555 1_555
H45 C31 1_555 1_555
C32 C12 1_555 1_555
H46 C32 1_555 1_555
H47 C32 1_555 1_555
H48 C32 1_555 1_555
C33 O10 1_555 1_555
H49 C33 1_555 1_555
C34 C18 1_555 1_555
H50 C34 1_555 1_555
C35 C33 1_555 1_555
H51 C35 1_555 1_555
H52 C35 1_555 1_555
H53 C35 1_555 1_555
C36 O1 1_555 1_555
H54 C36 1_555 1_555
H55 C36 1_555 1_555
C37 C36 1_555 1_555
O11 C39 1_555 1_555
O12 C42 1_555 1_555
O13 C52 1_555 1_555
O14 C55 1_555 1_555
O15 C56 1_555 1_555
O16 H58 1_555 1_555
O17 C42 1_555 1_555
O18 C41 1_555 1_555
O19 C53 1_555 1_555
O20 H59 1_555 1_555
C39 H60 1_555 1_555
H61 C39 1_555 1_555
H62 C39 1_555 1_555
C40 O11 1_555 1_555
C41 C40 1_555 1_555
C42 C41 1_555 1_555
H63 C42 1_555 1_555
C43 O12 1_555 1_555
H64 C43 1_555 1_555
C44 C43 1_555 1_555
H65 C44 1_555 1_555
C45 C44 1_555 1_555
C46 C45 1_555 1_555
C47 C46 1_555 1_555
H66 C47 1_555 1_555
C48 C47 1_555 1_555
H67 C48 1_555 1_555
C49 C48 1_555 1_555
H68 C49 1_555 1_555
C50 C49 1_555 1_555
C51 O16 1_555 1_555
C52 C51 1_555 1_555
H69 C52 1_555 1_555
C53 O13 1_555 1_555
H70 C53 1_555 1_555
C54 C53 1_555 1_555
H71 C54 1_555 1_555
H72 C54 1_555 1_555
C55 C54 1_555 1_555
H73 C55 1_555 1_555
C56 O14 1_555 1_555
H74 C56 1_555 1_555
H75 C56 1_555 1_555
C57 O15 1_555 1_555
H76 C57 1_555 1_555
H77 C57 1_555 1_555
C58 O17 1_555 1_555
H78 C58 1_555 1_555
C59 C58 1_555 1_555
H79 C59 1_555 1_555
H80 C59 1_555 1_555
H81 C59 1_555 1_555
C60 C40 1_555 1_555
H82 C60 1_555 1_555
C61 C43 1_555 1_555
H83 C61 1_555 1_555
H84 C61 1_555 1_555
C62 C46 1_555 1_555
H85 C62 1_555 1_555
H86 C62 1_555 1_555
C63 C45 1_555 1_555
H87 C63 1_555 1_555
C64 C48 1_555 1_555
H88 C64 1_555 1_555
H89 C64 1_555 1_555
C65 C46 1_555 1_555
H90 C65 1_555 1_555
H91 C65 1_555 1_555
H92 C65 1_555 1_555
C66 C47 1_555 1_555
H93 C66 1_555 1_555
H94 C66 1_555 1_555
C67 C50 1_555 1_555
H95 C67 1_555 1_555
H96 C67 1_555 1_555
C68 C49 1_555 1_555
H97 C68 1_555 1_555
H98 C68 1_555 1_555
C69 C51 1_555 1_555
H99 C69 1_555 1_555
H100 C69 1_555 1_555
C70 C50 1_555 1_555
H101 C70 1_555 1_555
H102 C70 1_555 1_555
H103 C70 1_555 1_555
C71 C52 1_555 1_555
H104 C71 1_555 1_555
H105 C71 1_555 1_555
H106 C71 1_555 1_555
C72 O19 1_555 1_555
H107 C72 1_555 1_555
C73 C72 1_555 1_555
H108 C73 1_555 1_555
H109 C73 1_555 1_555
H110 C73 1_555 1_555
C74 O20 1_555 1_555
H111 C74 1_555 1_555
C75 C57 1_555 1_555
H112 C75 1_555 1_555
H113 C75 1_555 1_555
H114 C75 1_555 1_555
O21 C76 1_555 1_555
O22 C79 1_555 1_555
O23 C89 1_555 1_555
O24 C92 1_555 1_555
O25 C93 1_555 1_555
O26 H115 1_555 1_555
O27 C79 1_555 1_555
O28 C90 1_555 1_555
O29 H116 1_555 1_555
C76 H117 1_555 1_555
H118 C76 1_555 1_555
H119 C76 1_555 1_555
C77 O21 1_555 1_555
C78 C77 1_555 1_555
C79 C78 1_555 1_555
H120 C79 1_555 1_555
C80 O22 1_555 1_555
H121 C80 1_555 1_555
C81 C80 1_555 1_555
H122 C81 1_555 1_555
H123 C81 1_555 1_555
C82 C81 1_555 1_555
C83 C82 1_555 1_555
C84 C83 1_555 1_555
H124 C84 1_555 1_555
C85 C84 1_555 1_555
H125 C85 1_555 1_555
C86 C85 1_555 1_555
H126 C86 1_555 1_555
C87 C86 1_555 1_555
C88 O26 1_555 1_555
C89 C88 1_555 1_555
H127 C89 1_555 1_555
C90 O23 1_555 1_555
H128 C90 1_555 1_555
C91 C90 1_555 1_555
H129 C91 1_555 1_555
H130 C91 1_555 1_555
C92 C91 1_555 1_555
H131 C92 1_555 1_555
C93 O24 1_555 1_555
H132 C93 1_555 1_555
H133 C93 1_555 1_555
C94 O25 1_555 1_555
H134 C94 1_555 1_555
H135 C94 1_555 1_555
C95 C94 1_555 1_555
H136 C95 1_555 1_555
H137 C95 1_555 1_555
H138 C95 1_555 1_555
C96 O27 1_555 1_555
H139 C96 1_555 1_555
C97 C77 1_555 1_555
H140 C97 1_555 1_555
O30 C78 1_555 1_555
C98 C96 1_555 1_555
H141 C98 1_555 1_555
H142 C98 1_555 1_555
H143 C98 1_555 1_555
C99 C80 1_555 1_555
H144 C99 1_555 1_555
H145 C99 1_555 1_555
C100 C83 1_555 1_555
H146 C100 1_555 1_555
H147 C100 1_555 1_555
C101 C82 1_555 1_555
H148 C101 1_555 1_555
C102 C85 1_555 1_555
H149 C102 1_555 1_555
H150 C102 1_555 1_555
C103 C83 1_555 1_555
H151 C103 1_555 1_555
H152 C103 1_555 1_555
H153 C103 1_555 1_555
C104 C84 1_555 1_555
H154 C104 1_555 1_555
H155 C104 1_555 1_555
C105 C87 1_555 1_555
H156 C105 1_555 1_555
H157 C105 1_555 1_555
C106 C86 1_555 1_555
H158 C106 1_555 1_555
H159 C106 1_555 1_555
C107 C88 1_555 1_555
H160 C107 1_555 1_555
H161 C107 1_555 1_555
C108 C87 1_555 1_555
H162 C108 1_555 1_555
H163 C108 1_555 1_555
H164 C108 1_555 1_555
C109 C89 1_555 1_555
H165 C109 1_555 1_555
H166 C109 1_555 1_555
H167 C109 1_555 1_555
C110 O28 1_555 1_555
H168 C110 1_555 1_555
C111 O29 1_555 1_555
H169 C111 1_555 1_555
C112 C110 1_555 1_555
H170 C112 1_555 1_555
H171 C112 1_555 1_555
H172 C112 1_555 1_555
O31 C114 1_555 1_555
O32 C115 1_555 1_555
O33 C118 1_555 1_555
O34 C128 1_555 1_555
O35 C131 1_555 1_555
O36 C129 1_555 1_555
O37 H173 1_555 1_555
O38 C118 1_555 1_555
O39 H174 1_555 1_555
O40 C130 1_555 1_555
C113 H175 1_555 1_555
H176 C113 1_555 1_555
H177 C113 1_555 1_555
C114 C113 1_555 1_555
H178 C114 1_555 1_555
H179 C114 1_555 1_555
C115 O31 1_555 1_555
H180 C115 1_555 1_555
H181 C115 1_555 1_555
C116 O32 1_555 1_555
H182 C116 1_555 1_555
C117 C116 1_555 1_555
H183 C117 1_555 1_555
H184 C117 1_555 1_555
C118 C117 1_555 1_555
H185 C118 1_555 1_555
C119 O33 1_555 1_555
H186 C119 1_555 1_555
C120 O37 1_555 1_555
C121 C120 1_555 1_555
C122 C121 1_555 1_555
H187 C122 1_555 1_555
C123 C122 1_555 1_555
H188 C123 1_555 1_555
C124 C123 1_555 1_555
H189 C124 1_555 1_555
H190 C124 1_555 1_555
C125 C124 1_555 1_555
H191 C125 1_555 1_555
C126 C125 1_555 1_555
C127 C126 1_555 1_555
H192 C127 1_555 1_555
C128 C127 1_555 1_555
H193 C128 1_555 1_555
C129 O34 1_555 1_555
H194 C129 1_555 1_555
C130 C129 1_555 1_555
C131 C130 1_555 1_555
C132 O35 1_555 1_555
H195 C132 1_555 1_555
H196 C132 1_555 1_555
H197 C132 1_555 1_555
C133 C131 1_555 1_555
H198 C133 1_555 1_555
C134 O36 1_555 1_555
H199 C134 1_555 1_555
C135 C123 1_555 1_555
H200 C135 1_555 1_555
C136 C126 1_555 1_555
C137 C136 1_555 1_555
H201 C137 1_555 1_555
H202 C137 1_555 1_555
H203 C137 1_555 1_555
C138 C136 1_555 1_555
H204 C138 1_555 1_555
H205 C138 1_555 1_555
C139 C128 1_555 1_555
H206 C139 1_555 1_555
H207 C139 1_555 1_555
C140 C135 1_555 1_555
H208 C140 1_555 1_555
H209 C140 1_555 1_555
C141 C121 1_555 1_555
H210 C141 1_555 1_555
H211 C141 1_555 1_555
C142 O38 1_555 1_555
H212 C142 1_555 1_555
C143 O39 1_555 1_555
H213 C143 1_555 1_555
C144 C142 1_555 1_555
H214 C144 1_555 1_555
H215 C144 1_555 1_555
H216 C144 1_555 1_555
C145 C119 1_555 1_555
H217 C145 1_555 1_555
H218 C145 1_555 1_555
H219 C145 1_555 1_555
C146 C120 1_555 1_555
H220 C146 1_555 1_555
H221 C146 1_555 1_555
C147 C122 1_555 1_555
H222 C147 1_555 1_555
H223 C147 1_555 1_555
C148 C121 1_555 1_555
H224 C148 1_555 1_555
H225 C148 1_555 1_555
H226 C148 1_555 1_555
C149 C134 1_555 1_555
H227 C149 1_555 1_555
H228 C149 1_555 1_555
H229 C149 1_555 1_555
C3 C26 1_555 1_555
C6 C7 1_555 1_555
C7 C8 1_555 1_555
C20 C21 1_555 1_555
C22 C23 1_555 1_555
C24 C26 1_555 1_555
C28 C29 1_555 1_555
C30 C31 1_555 1_555
C33 C34 1_555 1_555
C50 C51 1_555 1_555
C55 C74 1_555 1_555
C58 C60 1_555 1_555
C61 C62 1_555 1_555
C63 C64 1_555 1_555
C66 C67 1_555 1_555
C68 C69 1_555 1_555
C72 C74 1_555 1_555
C87 C88 1_555 1_555
C92 C111 1_555 1_555
C96 C97 1_555 1_555
C99 C100 1_555 1_555
C101 C102 1_555 1_555
C104 C105 1_555 1_555
C106 C107 1_555 1_555
C110 C111 1_555 1_555
C116 C143 1_555 1_555
C119 C120 1_555 1_555
C133 C134 1_555 1_555
C135 C136 1_555 1_555
C138 C139 1_555 1_555
C140 C141 1_555 1_555
C142 C143 1_555 1_555
C146 C147 1_555 1_555

#END
