
#######################################################################
#
#                 Cambridge Crystallographic Data Centre
#                                CCDC 
#
#######################################################################
#
# If this CIF has been generated from an entry in the Cambridge 
# Structural Database, then it will include bibliographic, chemical, 
# crystal, experimental, refinement or atomic coordinate data resulting 
# from the CCDC's data processing and validation procedures.
#
#######################################################################

data_QAPHUM
_chemical_formula_moiety         'C18 H15 Cl1 N2 O3'
_chemical_name_systematic        
'Methyl (7-chloro-2-oxo-5-phenyl-2,3-dihydro-1H-1,4-benzodiazepin-1-yl)acetate'
_chemical_properties_biological  'anticancer activity'
_symmetry_cell_setting           monoclinic
_symmetry_space_group_name_H-M   'C c'
_symmetry_Int_Tables_number      9
_space_group_name_Hall           'C -2yc'
loop_
_symmetry_equiv_pos_site_id
_symmetry_equiv_pos_as_xyz
1 x,y,z
2 x,-y,1/2+z
3 1/2+x,1/2+y,z
4 1/2+x,1/2-y,1/2+z
_cell_length_a                   14.4366(17)
_cell_length_b                   15.1465(18)
_cell_length_c                   9.0636(11)
_cell_angle_alpha                90
_cell_angle_beta                 124.146(2)
_cell_angle_gamma                90
_cell_volume                     1640.23
_exptl_crystal_colour            colorless
_exptl_crystal_description       prism
_chemical_melting_point          134-135deg.C
_cell_formula_units_Z            4
_exptl_crystal_recrystallization_method chloroform
loop_
_atom_site_label
_atom_site_type_symbol
_atom_site_fract_x
_atom_site_fract_y
_atom_site_fract_z
Cl1 Cl 0.92571(5) -0.05253(4) 0.93774(7)
O1 O 0.43928(14) 0.22094(10) 0.1002(2)
O2 O 0.69350(13) 0.38092(9) 0.2520(2)
O3 O 0.64480(15) 0.34257(10) 0.4371(2)
N1 N 0.60883(13) 0.16752(10) 0.3143(2)
C1 C 0.49530(16) 0.17324(13) 0.2288(3)
C2 C 0.44544(17) 0.11534(14) 0.3028(3)
H1 H 0.4876 0.1221 0.4313
H2 H 0.3688 0.1331 0.2531
N2 N 0.44809(14) 0.02399(11) 0.2587(2)
C3 C 0.54233(16) -0.01508(12) 0.3420(3)
C4 C 0.72863(17) -0.02170(13) 0.6304(3)
H3 H 0.7115 -0.0792 0.6428
C5 C 0.82948(18) 0.01328(14) 0.7596(3)
C6 C 0.85696(17) 0.09846(14) 0.7475(3)
H4 H 0.9261 0.1219 0.8357
C7 C 0.78098(17) 0.14836(14) 0.6035(3)
H5 H 0.7985 0.2066 0.5967
C8 C 0.67870(15) 0.11463(12) 0.4677(2)
C9 C 0.65028(16) 0.02706(12) 0.4794(2)
C10 C 0.54163(16) -0.11101(12) 0.3009(2)
C11 C 0.4467(2) -0.16060(14) 0.2437(3)
H6 H 0.3851 -0.1344 0.2334
C12 C 0.4428(2) -0.24863(16) 0.2019(4)
H7 H 0.3786 -0.2814 0.1633
C13 C 0.5328(2) -0.28780(16) 0.2171(4)
H8 H 0.5300 -0.3473 0.1898
C14 C 0.6275(2) -0.23965(15) 0.2724(3)
H9 H 0.6886 -0.2664 0.2818
C15 C 0.63184(18) -0.15203(13) 0.3138(3)
H10 H 0.6962 -0.1196 0.3511
C16 C 0.65895(18) 0.23237(13) 0.2602(3)
H11 H 0.6163 0.2339 0.1311
H12 H 0.7344 0.2137 0.3037
C17 C 0.66335(17) 0.32437(14) 0.3283(3)
C18 C 0.7084(2) 0.47180(15) 0.3107(4)
H13 H 0.7722 0.4761 0.4317
H14 H 0.6428 0.4915 0.3037
H15 H 0.7200 0.5081 0.2356
loop_
_geom_bond_atom_site_label_1
_geom_bond_atom_site_label_2
_geom_bond_site_symmetry_1
_geom_bond_site_symmetry_2
Cl1 C5 1_555 1_555
O1 C1 1_555 1_555
O2 C17 1_555 1_555
O3 C17 1_555 1_555
N1 C1 1_555 1_555
C1 C2 1_555 1_555
C2 H1 1_555 1_555
H2 C2 1_555 1_555
N2 C2 1_555 1_555
C3 N2 1_555 1_555
C4 H3 1_555 1_555
C5 C4 1_555 1_555
C6 C5 1_555 1_555
H4 C6 1_555 1_555
C7 C6 1_555 1_555
H5 C7 1_555 1_555
C8 N1 1_555 1_555
C9 C3 1_555 1_555
C10 C3 1_555 1_555
C11 C10 1_555 1_555
H6 C11 1_555 1_555
C12 C11 1_555 1_555
H7 C12 1_555 1_555
C13 C12 1_555 1_555
H8 C13 1_555 1_555
C14 C13 1_555 1_555
H9 C14 1_555 1_555
C15 C10 1_555 1_555
H10 C15 1_555 1_555
C16 N1 1_555 1_555
H11 C16 1_555 1_555
H12 C16 1_555 1_555
C17 C16 1_555 1_555
C18 O2 1_555 1_555
H13 C18 1_555 1_555
H14 C18 1_555 1_555
H15 C18 1_555 1_555
C4 C9 1_555 1_555
C7 C8 1_555 1_555
C8 C9 1_555 1_555
C14 C15 1_555 1_555

#END
