
#######################################################################
#
#                 Cambridge Crystallographic Data Centre
#                                CCDC 
#
#######################################################################
#
# If this CIF has been generated from an entry in the Cambridge 
# Structural Database, then it will include bibliographic, chemical, 
# crystal, experimental, refinement or atomic coordinate data resulting 
# from the CCDC's data processing and validation procedures.
#
#######################################################################

data_QAPHAR
_chemical_name_common            
'(2)-(bis(4-Methoxycarbonylbenzo)-24-crown-8 dibenzylammonium) pseudorotaxane hexafluorophosphate methanol solvate'
_chemical_formula_moiety         
'C28 H36 O12,C14 H16 N1 1+,F6 P1 1-,0.27(C1 H4 O1)'
_chemical_name_systematic        
'(2)-(Dimethyl 6,7,9,10,12,13,20,21,23,24,26,27-dodecahydrodibenzo(b,n)(1,4,7,10,13,16,19,22)octaoxacyclotetracosine-2,16-dicarboxylate dibenzylammonium) pseudorotaxane hexafluorophosphate methanol solvate'
_symmetry_cell_setting           monoclinic
_symmetry_space_group_name_H-M   'C 2/c'
_symmetry_Int_Tables_number      15
_space_group_name_Hall           '-C 2yn'
loop_
_symmetry_equiv_pos_site_id
_symmetry_equiv_pos_as_xyz
1 x,y,z
2 1/2+x,1/2+y,z
3 -x,y,1/2-z
4 1/2-x,1/2+y,1/2-z
5 -x,-y,-z
6 1/2-x,1/2-y,-z
7 x,-y,1/2+z
8 1/2+x,1/2-y,1/2+z
_cell_length_a                   14.324(6)
_cell_length_b                   22.806(6)
_cell_length_c                   26.470(8)
_cell_angle_alpha                90
_cell_angle_beta                 97.20(3)
_cell_angle_gamma                90
_cell_volume                     8578.85
_exptl_crystal_colour            colorless
_exptl_crystal_description       needle
_cell_formula_units_Z            8
loop_
_atom_site_label
_atom_site_type_symbol
_atom_site_fract_x
_atom_site_fract_y
_atom_site_fract_z
O1 O 0.32266(10) 0.39491(7) 0.18452(6)
O2 O 0.17459(10) 0.44178(7) 0.11222(5)
O3 O 0.00862(10) 0.39003(7) 0.04869(6)
O4 O -0.08564(11) 0.27231(7) 0.03652(6)
O5 O -0.08372(11) 0.18412(7) 0.09829(6)
O6 O 0.04930(11) 0.17128(7) 0.18887(6)
O7 O 0.23528(10) 0.17971(7) 0.16114(6)
O8 O 0.34184(10) 0.28396(6) 0.20436(5)
O9 O 0.48642(10) 0.42617(7) 0.40254(6)
O10 O 0.45502(15) 0.49967(8) 0.34854(7)
O11 O -0.23201(12) 0.04771(7) -0.08788(6)
O12 O -0.21308(11) 0.01091(7) -0.00910(6)
C1 C 0.35971(14) 0.38127(9) 0.23309(8)
C2 C 0.38779(15) 0.42139(10) 0.27054(8)
H1 H 0.3816 0.4621 0.2634
C3 C 0.42528(14) 0.40275(9) 0.31883(8)
C4 C 0.43417(15) 0.34384(9) 0.32953(8)
H2 H 0.4596 0.3312 0.3626
C5 C 0.40605(14) 0.30304(10) 0.29207(8)
H3 H 0.4121 0.2624 0.2996
C6 C 0.36934(14) 0.32095(9) 0.24402(8)
C7 C 0.30951(16) 0.45596(10) 0.17349(9)
H4 H 0.3704 0.4768 0.1799
H5 H 0.2660 0.4732 0.1957
C8 C 0.26970(15) 0.46218(10) 0.11909(8)
H6 H 0.2717 0.5038 0.1088
H7 H 0.3077 0.4391 0.0974
C9 C 0.12278(15) 0.46576(10) 0.06761(8)
H8 H 0.1485 0.4509 0.0370
H9 H 0.1286 0.5090 0.0681
C10 C 0.02174(15) 0.44878(9) 0.06540(9)
H10 H 0.0013 0.4530 0.0996
H11 H -0.0173 0.4752 0.0417
C11 C -0.08867(14) 0.37712(10) 0.03589(9)
H12 H -0.1201 0.4104 0.0166
H13 H -0.1182 0.3721 0.0675
C12 C -0.10239(15) 0.32252(9) 0.00455(9)
H14 H -0.1674 0.3213 -0.0132
H15 H -0.0585 0.3224 -0.0215
C13 C 0.45599(15) 0.44816(10) 0.35686(8)
C14 C 0.51339(17) 0.46856(11) 0.44165(9)
H16 H 0.5706 0.4888 0.4344
H17 H 0.5254 0.4487 0.4747
H18 H 0.4626 0.4972 0.4426
C15 C -0.11478(15) 0.17295(10) 0.04876(8)
C16 C -0.14649(14) 0.11901(10) 0.03033(8)
H19 H -0.1484 0.0870 0.0532
C17 C -0.17563(14) 0.11092(9) -0.02121(8)
C18 C -0.17393(15) 0.15750(10) -0.05433(8)
H20 H -0.1932 0.1521 -0.0897
C19 C -0.14421(14) 0.21216(10) -0.03609(8)
H21 H -0.1439 0.2442 -0.0590
C20 C -0.11495(14) 0.22052(9) 0.01517(8)
C21 C -0.08933(17) 0.13675(11) 0.13298(8)
H22 H -0.0540 0.1025 0.1224
H23 H -0.1558 0.1250 0.1334
C22 C -0.04801(17) 0.15695(11) 0.18470(9)
H24 H -0.0832 0.1919 0.1940
H25 H -0.0569 0.1257 0.2096
C23 C 0.10686(17) 0.12231(10) 0.18174(9)
H26 H 0.0974 0.1101 0.1456
H27 H 0.0897 0.0890 0.2028
C24 C 0.20742(17) 0.13857(10) 0.19681(9)
H28 H 0.2152 0.1560 0.2313
H29 H 0.2475 0.1031 0.1975
C25 C 0.33432(15) 0.18849(10) 0.16713(9)
H30 H 0.3517 0.2084 0.1364
H31 H 0.3659 0.1498 0.1696
C26 C 0.36959(16) 0.22373(10) 0.21263(9)
H32 H 0.3435 0.2082 0.2429
H33 H 0.4390 0.2210 0.2191
C27 C -0.20810(14) 0.05168(10) -0.03735(8)
C28 C -0.26432(19) -0.00908(11) -0.10618(10)
H34 H -0.2155 -0.0384 -0.0960
H35 H -0.2777 -0.0082 -0.1434
H36 H -0.3217 -0.0194 -0.0916
N1 N 0.16726(12) 0.32052(8) 0.13212(6)
H37 H 0.1700 0.3600 0.1251
H38 H 0.2225 0.3104 0.1518
C29 C 0.15975(15) 0.28723(9) 0.08338(8)
H39 H 0.0948 0.2905 0.0658
H40 H 0.1728 0.2453 0.0908
C30 C 0.22761(15) 0.30984(9) 0.04895(8)
C31 C 0.32392(16) 0.31204(11) 0.06419(9)
H41 H 0.3478 0.3008 0.0979
C32 C 0.38536(17) 0.33015(11) 0.03134(10)
H42 H 0.4511 0.3310 0.0423
C33 C 0.35159(17) 0.34683(11) -0.01710(9)
H43 H 0.3939 0.3589 -0.0400
C34 C 0.25617(18) 0.34608(10) -0.03270(9)
H44 H 0.2327 0.3582 -0.0662
C35 C 0.19447(16) 0.32769(10) 0.00023(8)
H45 H 0.1287 0.3274 -0.0108
C36 C 0.08648(15) 0.30946(10) 0.16198(8)
H46 H 0.0291 0.3288 0.1450
H47 H 0.0741 0.2668 0.1633
C37 C 0.10893(15) 0.33278(10) 0.21466(8)
C38 C 0.13582(17) 0.29494(12) 0.25463(9)
H48 H 0.1381 0.2540 0.2484
C39 C 0.15935(18) 0.31586(14) 0.30326(9)
H49 H 0.1769 0.2893 0.3305
C40 C 0.15754(18) 0.37501(14) 0.31258(9)
H50 H 0.1747 0.3894 0.3461
C41 C 0.13093(18) 0.41348(13) 0.27342(10)
H51 H 0.1295 0.4544 0.2799
C42 C 0.10619(16) 0.39243(11) 0.22435(9)
H52 H 0.0873 0.4190 0.1973
F1 F 0.67071(19) 0.07557(11) 0.17432(8)
P1 P 0.61254(5) 0.12710(3) 0.14655(3)
F2 F 0.53202(16) 0.08356(11) 0.12640(9)
F3 F 0.69477(14) 0.17045(10) 0.16920(8)
F4 F 0.56184(13) 0.13944(9) 0.19567(7)
F5 F 0.66423(12) 0.11560(8) 0.09768(6)
F6 F 0.55716(17) 0.18051(10) 0.12025(8)
O13? O 0.0873(9) 0.5511(6) 0.2845(5)
C43? C -0.0301(19) 0.5415(11) 0.2385(11)
H53? H -0.0157 0.5371 0.2034
H54? H -0.0699 0.5761 0.2407
H55? H -0.0633 0.5066 0.2483
loop_
_geom_bond_atom_site_label_1
_geom_bond_atom_site_label_2
_geom_bond_site_symmetry_1
_geom_bond_site_symmetry_2
F1 P1 1_555 1_555
P1 F2 1_555 1_555
F3 P1 1_555 1_555
F4 P1 1_555 1_555
F5 P1 1_555 1_555
F6 P1 1_555 1_555
O1 C1 1_555 1_555
O2 C8 1_555 1_555
O3 C10 1_555 1_555
O4 C12 1_555 1_555
O5 C15 1_555 1_555
O6 C22 1_555 1_555
O7 C24 1_555 1_555
O8 C6 1_555 1_555
O9 C13 1_555 1_555
O10 C13 1_555 1_555
O11 C27 1_555 1_555
O12 C27 1_555 1_555
C1 C2 1_555 1_555
C2 H1 1_555 1_555
C3 C2 1_555 1_555
C4 C3 1_555 1_555
H2 C4 1_555 1_555
C5 C4 1_555 1_555
H3 C5 1_555 1_555
C6 C1 1_555 1_555
C7 O1 1_555 1_555
H4 C7 1_555 1_555
H5 C7 1_555 1_555
C8 C7 1_555 1_555
H6 C8 1_555 1_555
H7 C8 1_555 1_555
C9 O2 1_555 1_555
H8 C9 1_555 1_555
H9 C9 1_555 1_555
C10 C9 1_555 1_555
H10 C10 1_555 1_555
H11 C10 1_555 1_555
C11 O3 1_555 1_555
H12 C11 1_555 1_555
H13 C11 1_555 1_555
C12 C11 1_555 1_555
H14 C12 1_555 1_555
H15 C12 1_555 1_555
C13 C3 1_555 1_555
C14 O9 1_555 1_555
H16 C14 1_555 1_555
H17 C14 1_555 1_555
H18 C14 1_555 1_555
C15 C16 1_555 1_555
C16 H19 1_555 1_555
C17 C16 1_555 1_555
C18 C17 1_555 1_555
H20 C18 1_555 1_555
C19 C18 1_555 1_555
H21 C19 1_555 1_555
C20 O4 1_555 1_555
C21 O5 1_555 1_555
H22 C21 1_555 1_555
H23 C21 1_555 1_555
C22 C21 1_555 1_555
H24 C22 1_555 1_555
H25 C22 1_555 1_555
C23 O6 1_555 1_555
H26 C23 1_555 1_555
H27 C23 1_555 1_555
C24 C23 1_555 1_555
H28 C24 1_555 1_555
H29 C24 1_555 1_555
C25 O7 1_555 1_555
H30 C25 1_555 1_555
H31 C25 1_555 1_555
C26 O8 1_555 1_555
H32 C26 1_555 1_555
H33 C26 1_555 1_555
C27 C17 1_555 1_555
C28 O11 1_555 1_555
H34 C28 1_555 1_555
H35 C28 1_555 1_555
H36 C28 1_555 1_555
N1 H37 1_555 1_555
H38 N1 1_555 1_555
C29 N1 1_555 1_555
H39 C29 1_555 1_555
H40 C29 1_555 1_555
C30 C29 1_555 1_555
C31 C30 1_555 1_555
H41 C31 1_555 1_555
C32 C31 1_555 1_555
H42 C32 1_555 1_555
C33 C32 1_555 1_555
H43 C33 1_555 1_555
C34 C33 1_555 1_555
H44 C34 1_555 1_555
C35 C30 1_555 1_555
H45 C35 1_555 1_555
C36 N1 1_555 1_555
H46 C36 1_555 1_555
H47 C36 1_555 1_555
C37 C36 1_555 1_555
C38 C37 1_555 1_555
H48 C38 1_555 1_555
C39 C38 1_555 1_555
H49 C39 1_555 1_555
C40 C39 1_555 1_555
H50 C40 1_555 1_555
C41 C40 1_555 1_555
H51 C41 1_555 1_555
C42 C37 1_555 1_555
H52 C42 1_555 1_555
C5 C6 1_555 1_555
C15 C20 1_555 1_555
C19 C20 1_555 1_555
C25 C26 1_555 1_555
C34 C35 1_555 1_555
C41 C42 1_555 1_555

#END
