
#######################################################################
#
#                 Cambridge Crystallographic Data Centre
#                                CCDC 
#
#######################################################################
#
# If this CIF has been generated from an entry in the Cambridge 
# Structural Database, then it will include bibliographic, chemical, 
# crystal, experimental, refinement or atomic coordinate data resulting 
# from the CCDC's data processing and validation procedures.
#
#######################################################################

data_QAPKEA
_chemical_name_common            'Bufospirostenin A'
_chemical_formula_moiety         'C24 H32 O3'
_chemical_name_systematic        3-hydroxybufa-8,20,22-trienolide
_symmetry_cell_setting           orthorhombic
_symmetry_space_group_name_H-M   'P 21 21 21'
_symmetry_Int_Tables_number      19
_space_group_name_Hall           'P 2ac 2ab'
loop_
_symmetry_equiv_pos_site_id
_symmetry_equiv_pos_as_xyz
1 x,y,z
2 1/2-x,-y,1/2+z
3 1/2+x,1/2-y,-z
4 -x,1/2+y,1/2-z
_cell_length_a                   8.42641(16)
_cell_length_b                   10.9379(2)
_cell_length_c                   21.7505(4)
_cell_angle_alpha                90
_cell_angle_beta                 90
_cell_angle_gamma                90
_cell_volume                     2004.68
_exptl_crystal_colour            colorless
_exptl_crystal_description       blocks
_cell_formula_units_Z            4
loop_
_atom_site_label
_atom_site_type_symbol
_atom_site_fract_x
_atom_site_fract_y
_atom_site_fract_z
O1 O 0.77495(17) 0.84097(16) 0.12460(7)
O2 O 0.3463(2) 1.03508(18) 0.49888(7)
H1 H 0.4293 1.0635 0.5124
C1 C 0.1147(2) 0.81912(17) 0.29758(9)
O3 O 0.8848(2) 0.83232(17) 0.03269(9)
C2 C 0.4978(2) 0.87729(17) 0.13958(9)
C3 C 0.6080(3) 0.8658(2) 0.03734(10)
H2 H 0.5937 0.8678 -0.0050
C4 C 0.2452(2) 0.78089(17) 0.39986(8)
C5 C 0.4821(3) 0.88192(19) 0.07430(9)
H3 H 0.3829 0.8963 0.0570
C6 C 0.6454(2) 0.8568(2) 0.16103(9)
H4 H 0.6596 0.8533 0.2034
C7 C 0.2397(2) 0.77773(16) 0.32933(8)
C8 C 0.1106(2) 0.82963(19) 0.22808(8)
H5 H 0.0156 0.7874 0.2131
C9 C 0.3790(3) 0.72043(19) 0.29729(9)
H6 H 0.4147 0.6504 0.3209
H7 H 0.4653 0.7790 0.2958
C10 C 0.4123(3) 0.81205(19) 0.42427(9)
H8 H 0.4130 0.8020 0.4686
H9 H 0.4878 0.7543 0.4072
C11 C 0.7633(3) 0.84576(18) 0.06142(10)
C12 C 0.3604(2) 0.89247(17) 0.18331(8)
H10 H 0.4053 0.9155 0.2232
C13 C 0.0999(3) 0.9662(2) 0.20848(10)
H11 H 0.0008 0.9816 0.1872
H12 H 0.1049 1.0188 0.2443
C14 C 0.3395(3) 0.67926(19) 0.23211(9)
H13 H 0.4369 0.6558 0.2115
H14 H 0.2720 0.6075 0.2342
C15 C -0.0371(2) 0.8567(2) 0.39814(9)
H15 H -0.0750 0.7768 0.4108
H16 H -0.1095 0.9177 0.4143
C16 C -0.0354(2) 0.8637(2) 0.32817(9)
H17 H -0.1238 0.8161 0.3126
H18 H -0.0528 0.9480 0.3162
C17 C 0.2026(3) 0.6532(2) 0.42451(10)
H19 H 0.1000 0.6298 0.4093
H20 H 0.2006 0.6551 0.4686
H21 H 0.2805 0.5952 0.4109
C18 C 0.1287(2) 0.87825(19) 0.42445(8)
H22 H 0.1226 0.8693 0.4692
C19 C 0.4664(3) 0.9406(2) 0.40891(10)
H23 H 0.5705 0.9546 0.4266
H24 H 0.4753 0.9492 0.3647
C20 C 0.3513(3) 1.0349(2) 0.43335(9)
H25 H 0.3838 1.1160 0.4189
C21 C 0.1851(3) 1.00809(19) 0.41029(10)
H26 H 0.1822 1.0207 0.3662
H27 H 0.1120 1.0658 0.4289
C22 C 0.2395(3) 0.99119(19) 0.16619(10)
H28 H 0.2825 1.0722 0.1733
H29 H 0.2084 0.9842 0.1234
C23 C 0.2566(2) 0.77654(17) 0.19412(8)
C24 C 0.2044(3) 0.7192(2) 0.13267(9)
H30 H 0.2964 0.6938 0.1100
H31 H 0.1462 0.7784 0.1091
H32 H 0.1380 0.6496 0.1406
loop_
_geom_bond_atom_site_label_1
_geom_bond_atom_site_label_2
_geom_bond_site_symmetry_1
_geom_bond_site_symmetry_2
O1 C6 1_555 1_555
O2 H1 1_555 1_555
C1 C7 1_555 1_555
O3 C11 1_555 1_555
C2 C5 1_555 1_555
C3 H2 1_555 1_555
C4 C7 1_555 1_555
C5 C3 1_555 1_555
H3 C5 1_555 1_555
C6 C2 1_555 1_555
H4 C6 1_555 1_555
C7 C9 1_555 1_555
C8 C1 1_555 1_555
H5 C8 1_555 1_555
C9 H6 1_555 1_555
H7 C9 1_555 1_555
C10 C4 1_555 1_555
H8 C10 1_555 1_555
H9 C10 1_555 1_555
C11 O1 1_555 1_555
C12 C2 1_555 1_555
H10 C12 1_555 1_555
C13 C8 1_555 1_555
H11 C13 1_555 1_555
H12 C13 1_555 1_555
C14 C9 1_555 1_555
H13 C14 1_555 1_555
H14 C14 1_555 1_555
C15 H15 1_555 1_555
H16 C15 1_555 1_555
C16 C1 1_555 1_555
H17 C16 1_555 1_555
H18 C16 1_555 1_555
C17 C4 1_555 1_555
H19 C17 1_555 1_555
H20 C17 1_555 1_555
H21 C17 1_555 1_555
C18 C4 1_555 1_555
H22 C18 1_555 1_555
C19 C10 1_555 1_555
H23 C19 1_555 1_555
H24 C19 1_555 1_555
C20 O2 1_555 1_555
H25 C20 1_555 1_555
C21 C18 1_555 1_555
H26 C21 1_555 1_555
H27 C21 1_555 1_555
C22 C12 1_555 1_555
H28 C22 1_555 1_555
H29 C22 1_555 1_555
C23 C8 1_555 1_555
C24 C23 1_555 1_555
H30 C24 1_555 1_555
H31 C24 1_555 1_555
H32 C24 1_555 1_555
C3 C11 1_555 1_555
C12 C23 1_555 1_555
C13 C22 1_555 1_555
C14 C23 1_555 1_555
C15 C16 1_555 1_555
C15 C18 1_555 1_555
C19 C20 1_555 1_555
C20 C21 1_555 1_555

#END
