
#######################################################################
#
#                 Cambridge Crystallographic Data Centre
#                                CCDC 
#
#######################################################################
#
# If this CIF has been generated from an entry in the Cambridge 
# Structural Database, then it will include bibliographic, chemical, 
# crystal, experimental, refinement or atomic coordinate data resulting 
# from the CCDC's data processing and validation procedures.
#
#######################################################################

data_QAPKOH05
_chemical_formula_moiety         'C22 H16 N2 O1'
_chemical_name_systematic        
1-Phenyl-2-(3-phenylquinoxalinium-2-yl)ethenolate
_symmetry_cell_setting           triclinic
_symmetry_space_group_name_H-M   'P -1'
_symmetry_Int_Tables_number      2
_space_group_name_Hall           '-P 1'
loop_
_symmetry_equiv_pos_site_id
_symmetry_equiv_pos_as_xyz
1 x,y,z
2 -x,-y,-z
_cell_length_a                   8.7646(14)
_cell_length_b                   8.8436(14)
_cell_length_c                   11.2010(18)
_cell_angle_alpha                90.126(3)
_cell_angle_beta                 91.397(3)
_cell_angle_gamma                107.028(3)
_cell_volume                     829.85
_exptl_crystal_description       block
_cell_formula_units_Z            2
loop_
_atom_site_label
_atom_site_type_symbol
_atom_site_fract_x
_atom_site_fract_y
_atom_site_fract_z
C1 C 0.8070(2) 0.8987(2) 0.27756(16)
C2 C 0.9439(2) 0.9374(2) 0.34859(18)
H1 H 0.9433 0.8893 0.4224
C3 C 1.0815(2) 1.0463(2) 0.3117(2)
H2 H 1.1733 1.0705 0.3602
C4 C 1.0833(3) 1.1191(2) 0.2036(2)
H3 H 1.1760 1.1929 0.1787
C5 C 0.9486(3) 1.0829(3) 0.1326(2)
H4 H 0.9492 1.1331 0.0597
C6 C 0.8110(3) 0.9718(3) 0.1687(2)
H5 H 0.7204 0.9461 0.1190
C7 C 0.6582(2) 0.7841(2) 0.32094(16)
C8 C 0.59183(18) 0.62907(19) 0.26416(14)
C9 C 0.3889(2) 0.5759(2) 0.40873(15)
C10 C 0.4580(2) 0.7257(2) 0.45881(16)
C11 C 0.3856(3) 0.7734(2) 0.55735(18)
H6 H 0.4296 0.8731 0.5914
C12 C 0.2497(3) 0.6718(3) 0.60290(18)
H7 H 0.2012 0.7035 0.6674
C13 C 0.1849(2) 0.5229(3) 0.55331(17)
H8 H 0.0942 0.4545 0.5860
C14 C 0.2520(2) 0.4743(2) 0.45700(16)
H9 H 0.2064 0.3742 0.4239
C15 C 0.6618(2) 0.5778(2) 0.16659(15)
H10 H 0.7534 0.6465 0.1355
C16 C 0.60028(19) 0.4286(2) 0.11413(15)
C17 C 0.6770(2) 0.3786(2) 0.00953(15)
C18 C 0.6218(2) 0.2236(2) -0.03123(18)
H11 H 0.5392 0.1521 0.0079
C19 C 0.6874(3) 0.1735(3) -0.1288(2)
H12 H 0.6484 0.0691 -0.1553
C20 C 0.8099(3) 0.2768(3) -0.18694(19)
H13 H 0.8539 0.2429 -0.2528
C21 C 0.8675(3) 0.4306(3) -0.14782(19)
H14 H 0.9516 0.5007 -0.1865
C22 C 0.8003(2) 0.4815(2) -0.05058(17)
H15 H 0.8388 0.5864 -0.0254
N1 N 0.59502(19) 0.82774(17) 0.41430(14)
N2 N 0.46003(16) 0.53218(17) 0.31241(13)
H16 H 0.432(2) 0.4379(19) 0.2773(16)
O1 O 0.47599(15) 0.32632(14) 0.15363(11)
loop_
_geom_bond_atom_site_label_1
_geom_bond_atom_site_label_2
_geom_bond_site_symmetry_1
_geom_bond_site_symmetry_2
C1 C2 1_555 1_555
C2 H1 1_555 1_555
C3 C2 1_555 1_555
H2 C3 1_555 1_555
C4 C3 1_555 1_555
H3 C4 1_555 1_555
C5 C4 1_555 1_555
H4 C5 1_555 1_555
C6 C1 1_555 1_555
H5 C6 1_555 1_555
C7 C1 1_555 1_555
C8 C7 1_555 1_555
C9 C10 1_555 1_555
C10 C11 1_555 1_555
C11 H6 1_555 1_555
C12 C11 1_555 1_555
H7 C12 1_555 1_555
C13 C12 1_555 1_555
H8 C13 1_555 1_555
C14 C9 1_555 1_555
H9 C14 1_555 1_555
C15 C8 1_555 1_555
H10 C15 1_555 1_555
C16 C15 1_555 1_555
C17 C16 1_555 1_555
C18 C17 1_555 1_555
H11 C18 1_555 1_555
C19 C18 1_555 1_555
H12 C19 1_555 1_555
C20 C19 1_555 1_555
H13 C20 1_555 1_555
C21 C20 1_555 1_555
H14 C21 1_555 1_555
C22 C17 1_555 1_555
H15 C22 1_555 1_555
N1 C7 1_555 1_555
N2 C8 1_555 1_555
H16 N2 1_555 1_555
O1 C16 1_555 1_555
C5 C6 1_555 1_555
C9 N2 1_555 1_555
C10 N1 1_555 1_555
C13 C14 1_555 1_555
C21 C22 1_555 1_555

#END
