
#######################################################################
#
#                 Cambridge Crystallographic Data Centre
#                                CCDC 
#
#######################################################################
#
# If this CIF has been generated from an entry in the Cambridge 
# Structural Database, then it will include bibliographic, chemical, 
# crystal, experimental, refinement or atomic coordinate data resulting 
# from the CCDC's data processing and validation procedures.
#
#######################################################################

data_QAPLOL
_chemical_formula_moiety         'C16 H17 N1 O2 S2'
_chemical_name_systematic        
1-((4-methylphenyl)sulfonyl)-3-(2-thienylmethyl)-2,3-dihydro-1H-pyrrole
_symmetry_cell_setting           monoclinic
_symmetry_space_group_name_H-M   'P 21/c'
_symmetry_Int_Tables_number      14
_space_group_name_Hall           '-P 2ybc'
loop_
_symmetry_equiv_pos_site_id
_symmetry_equiv_pos_as_xyz
1 x,y,z
2 -x,1/2+y,1/2-z
3 -x,-y,-z
4 x,1/2-y,1/2+z
_cell_length_a                   16.677(4)
_cell_length_b                   8.1292(16)
_cell_length_c                   11.693(2)
_cell_angle_alpha                90
_cell_angle_beta                 98.956(4)
_cell_angle_gamma                90
_cell_volume                     1565.9
_exptl_crystal_colour            colorless
_exptl_crystal_description       prismatic
_cell_formula_units_Z            4
loop_
_atom_site_label
_atom_site_type_symbol
_atom_site_fract_x
_atom_site_fract_y
_atom_site_fract_z
S1 S 0.19829(6) 0.28513(12) 0.65679(10)
N1 N 0.29372(19) 0.2869(3) 0.6410(3)
O1 O 0.1966(2) 0.3205(4) 0.7769(3)
O2 O 0.1666(2) 0.1347(3) 0.6065(4)
C1 C 0.6840(4) 0.2418(9) 0.5665(6)
H1 H 0.7199 0.2052 0.5186
C2 C 0.7036(3) 0.3463(8) 0.6499(7)
H2 H 0.7549 0.3935 0.6656
C3 C 0.5691(3) 0.2946(6) 0.6629(5)
C4 C 0.4899(3) 0.3084(5) 0.7100(4)
H3 H 0.5007 0.3608 0.7854
H4 H 0.4703 0.1982 0.7215
C5 C 0.4207(3) 0.4060(5) 0.6334(3)
H5 H 0.4402 0.5144 0.6135
C6 C 0.3917(3) 0.3116(5) 0.5279(4)
H6 H 0.4200 0.2984 0.4660
C7 C 0.3196(3) 0.2483(5) 0.5338(3)
H7 H 0.2895 0.1863 0.4754
C8 C 0.3463(2) 0.4231(5) 0.6903(3)
H8 H 0.3598 0.4124 0.7737
H9 H 0.3201 0.5285 0.6722
C9 C 0.1507(2) 0.4486(4) 0.5759(3)
C10 C 0.1154(2) 0.4254(5) 0.4623(3)
H10 H 0.1150 0.3219 0.4283
C11 C 0.0807(2) 0.5576(5) 0.4001(3)
H11 H 0.0563 0.5414 0.3239
C12 C 0.0809(2) 0.7136(5) 0.4466(3)
C13 C 0.1178(2) 0.7339(4) 0.5604(3)
H12 H 0.1195 0.8380 0.5937
C14 C 0.1518(2) 0.6034(4) 0.6249(3)
H13 H 0.1756 0.6191 0.7014
C15 C 0.0428(3) 0.8568(6) 0.3784(4)
H14 H 0.0008 0.9023 0.4163
H15 H 0.0200 0.8209 0.3020
H16 H 0.0833 0.9392 0.3730
S2 S 0.5856(2) 0.1788(5) 0.5539(3)
C16 C 0.6466(7) 0.3803(17) 0.7099(15)
H17 H 0.6531 0.4494 0.7741
S3? S 0.6240(8) 0.3964(17) 0.7232(13)
C17? C 0.6083(19) 0.217(3) 0.555(2)
H18? H 0.5786 0.1621 0.4924
loop_
_geom_bond_atom_site_label_1
_geom_bond_atom_site_label_2
_geom_bond_site_symmetry_1
_geom_bond_site_symmetry_2
S1 N1 1_555 1_555
N1 C7 1_555 1_555
O1 S1 1_555 1_555
O2 S1 1_555 1_555
C1 H1 1_555 1_555
C2 C1 1_555 1_555
H2 C2 1_555 1_555
C3 C4 1_555 1_555
C4 H3 1_555 1_555
H4 C4 1_555 1_555
C5 C4 1_555 1_555
H5 C5 1_555 1_555
C6 C5 1_555 1_555
H6 C6 1_555 1_555
C7 C6 1_555 1_555
H7 C7 1_555 1_555
C8 N1 1_555 1_555
H8 C8 1_555 1_555
H9 C8 1_555 1_555
C9 S1 1_555 1_555
C10 C9 1_555 1_555
H10 C10 1_555 1_555
C11 C10 1_555 1_555
H11 C11 1_555 1_555
C12 C11 1_555 1_555
C13 C12 1_555 1_555
H12 C13 1_555 1_555
C14 C9 1_555 1_555
H13 C14 1_555 1_555
C15 C12 1_555 1_555
H14 C15 1_555 1_555
H15 C15 1_555 1_555
H16 C15 1_555 1_555
S2 C1 1_555 1_555
C16 C2 1_555 1_555
H17 C16 1_555 1_555
C3 S2 1_555 1_555
C3 C16 1_555 1_555
C5 C8 1_555 1_555
C13 C14 1_555 1_555

#END
