
#######################################################################
#
#                 Cambridge Crystallographic Data Centre
#                                CCDC 
#
#######################################################################
#
# If this CIF has been generated from an entry in the Cambridge 
# Structural Database, then it will include bibliographic, chemical, 
# crystal, experimental, refinement or atomic coordinate data resulting 
# from the CCDC's data processing and validation procedures.
#
#######################################################################

data_QAPNAZ
_chemical_formula_moiety         'C6 H6 N12 O12,C4 H3 N5 O6'
_chemical_name_systematic        
'1-methyl-3,4,5-trinitro-1H-pyrazole 2,4,6,8,10,12-hexanitro-2,4,6,8,10,12-hexaazatetracyclo[5.5.0.0^3,11^.0^5,9^]dodecane'
_symmetry_cell_setting           monoclinic
_symmetry_space_group_name_H-M   'P 21'
_symmetry_Int_Tables_number      4
_space_group_name_Hall           'P 2yb'
loop_
_symmetry_equiv_pos_site_id
_symmetry_equiv_pos_as_xyz
1 x,y,z
2 -x,1/2+y,-z
_cell_length_a                   8.3515(3)
_cell_length_b                   11.4299(7)
_cell_length_c                   11.9398(6)
_cell_angle_alpha                90
_cell_angle_beta                 98.663(4)
_cell_angle_gamma                90
_cell_volume                     1126.73
_exptl_crystal_colour            colorless
_exptl_crystal_description       block
_cell_formula_units_Z            2
loop_
_atom_site_label
_atom_site_type_symbol
_atom_site_fract_x
_atom_site_fract_y
_atom_site_fract_z
N1 N 0.2164(4) 0.5387(4) 0.4808(3)
N2 N -0.0685(3) 0.5385(4) 0.6648(3)
O1 O 0.1410(4) 0.5467(4) 0.3859(2)
O2 O 0.3645(3) 0.5318(4) 0.5025(2)
N3 N -0.0297(3) 0.5412(4) 0.5605(3)
C1 C 0.1302(4) 0.5359(5) 0.5760(3)
C2 C 0.1959(4) 0.5300(5) 0.6882(3)
O3 O 0.4222(4) 0.4227(4) 0.7458(4)
O4 O -0.0617(4) 0.5214(5) 0.9013(3)
O5 O 0.1996(4) 0.5163(4) 0.9212(3)
N4 N 0.0663(4) 0.5241(4) 0.8654(3)
N5 N 0.3655(4) 0.5206(5) 0.7392(3)
O6 O 0.4374(4) 0.6096(4) 0.7672(4)
C3 C 0.0648(4) 0.5315(5) 0.7444(3)
C4 C -0.2399(4) 0.5433(6) 0.6783(4)
H1 H -0.2699 0.6229 0.6902
H2 H -0.2572 0.4967 0.7423
H3 H -0.3049 0.5135 0.6112
N6 N 0.4690(4) 0.4548(3) 0.2101(3)
O7 O 0.1966(3) 0.4389(3) 0.1693(3)
C5 C 0.6080(4) 0.6047(4) 0.3284(3)
H4 H 0.5823 0.6275 0.4028
N7 N 0.7917(4) 0.7144(4) 0.0291(3)
N8 N 0.8347(4) 0.7394(4) 0.3728(3)
O8 O 0.3784(4) 0.7603(3) 0.3620(3)
O9 O 0.9426(4) 0.2938(3) 0.3239(3)
O10 O 0.7696(4) 0.7725(4) 0.4520(3)
O11 O 0.9544(4) 0.7817(3) 0.3422(3)
N9 N 0.3167(4) 0.4072(4) 0.2315(4)
N10 N 0.3598(4) 0.7186(4) 0.2670(4)
O12 O 0.3265(4) 0.3350(4) 0.3064(3)
O13 O 0.7168(3) 0.7141(4) -0.0659(3)
C6 C 0.5927(4) 0.4688(4) 0.3111(3)
H5 H 0.5592 0.4307 0.3774
N11 N 0.7720(4) 0.6388(3) 0.3163(3)
O14 O 0.9187(4) 0.7623(4) 0.0619(3)
N12 N 0.7442(4) 0.4233(4) 0.2879(3)
N13 N 0.4912(3) 0.6541(4) 0.2375(3)
N14 N 0.8155(5) 0.3294(4) 0.3493(3)
O15 O 0.2447(4) 0.7303(4) 0.1933(3)
O16 O 0.7461(4) 0.2923(4) 0.4234(3)
C7 C 0.4589(4) 0.5661(4) 0.1491(3)
H6 H 0.3522 0.5771 0.1034
C8 C 0.8139(4) 0.4736(4) 0.1964(3)
H7 H 0.9196 0.4388 0.1907
N15 N 0.7047(4) 0.4663(3) 0.0885(3)
N16 N 0.7154(3) 0.6592(3) 0.1145(3)
O17 O 0.7312(5) 0.2739(4) 0.0815(4)
C9 C 0.8269(4) 0.6097(4) 0.2115(3)
H8 H 0.9382 0.6366 0.2111
N17 N 0.6509(5) 0.3580(4) 0.0466(4)
C10 C 0.5995(4) 0.5687(4) 0.0732(3)
H9 H 0.5560 0.5806 -0.0068
O18 O 0.5289(4) 0.3600(4) -0.0245(3)
loop_
_geom_bond_atom_site_label_1
_geom_bond_atom_site_label_2
_geom_bond_site_symmetry_1
_geom_bond_site_symmetry_2
N1 O1 1_555 1_555
N2 N3 1_555 1_555
O2 N1 1_555 1_555
N3 C1 1_555 1_555
C1 N1 1_555 1_555
C2 C1 1_555 1_555
O3 N5 1_555 1_555
O4 N4 1_555 1_555
O5 N4 1_555 1_555
N4 C3 1_555 1_555
N5 C2 1_555 1_555
O6 N5 1_555 1_555
C3 N2 1_555 1_555
C4 N2 1_555 1_555
H1 C4 1_555 1_555
H2 C4 1_555 1_555
H3 C4 1_555 1_555
N6 N9 1_555 1_555
O7 N9 1_555 1_555
C5 H4 1_555 1_555
N7 O13 1_555 1_555
N8 O10 1_555 1_555
O8 N10 1_555 1_555
O9 N14 1_555 1_555
O11 N8 1_555 1_555
N9 O12 1_555 1_555
N10 N13 1_555 1_555
C6 N6 1_555 1_555
H5 C6 1_555 1_555
N11 C5 1_555 1_555
O14 N7 1_555 1_555
N12 C6 1_555 1_555
N13 C5 1_555 1_555
N14 N12 1_555 1_555
O15 N10 1_555 1_555
O16 N14 1_555 1_555
C7 N6 1_555 1_555
H6 C7 1_555 1_555
C8 N12 1_555 1_555
H7 C8 1_555 1_555
N15 C8 1_555 1_555
N16 N7 1_555 1_555
O17 N17 1_555 1_555
C9 N11 1_555 1_555
H8 C9 1_555 1_555
N17 N15 1_555 1_555
C10 C7 1_555 1_555
H9 C10 1_555 1_555
O18 N17 1_555 1_555
C2 C3 1_555 1_555
C5 C6 1_555 1_555
N8 N11 1_555 1_555
N13 C7 1_555 1_555
C8 C9 1_555 1_555
N15 C10 1_555 1_555
N16 C9 1_555 1_555
N16 C10 1_555 1_555

#END
