
#######################################################################
#
#                 Cambridge Crystallographic Data Centre
#                                CCDC 
#
#######################################################################
#
# If this CIF has been generated from an entry in the Cambridge 
# Structural Database, then it will include bibliographic, chemical, 
# crystal, experimental, refinement or atomic coordinate data resulting 
# from the CCDC's data processing and validation procedures.
#
#######################################################################

data_QAPNUR
_chemical_formula_moiety         'C36 H26 N2 O2'
_chemical_name_systematic        
3-((4-(2-(Biphenyl-4-yl)-2-propyl)-2-(3-cyanobenzoyl)cyclopenta-2,4-dien-1-ylidene)(hydroxy)methyl)benzonitrile
_symmetry_cell_setting           monoclinic
_symmetry_space_group_name_H-M   'P 21/n'
_symmetry_Int_Tables_number      14
_space_group_name_Hall           '-P 2yn'
loop_
_symmetry_equiv_pos_site_id
_symmetry_equiv_pos_as_xyz
1 x,y,z
2 1/2-x,1/2+y,1/2-z
3 -x,-y,-z
4 1/2+x,1/2-y,1/2+z
_cell_length_a                   10.8814(17)
_cell_length_b                   20.232(3)
_cell_length_c                   12.708(2)
_cell_angle_alpha                90.00
_cell_angle_beta                 92.712(2)
_cell_angle_gamma                90.00
_cell_volume                     2794.56
_cell_formula_units_Z            4
_exptl_crystal_preparation       luminescent
loop_
_atom_site_label
_atom_site_type_symbol
_atom_site_fract_x
_atom_site_fract_y
_atom_site_fract_z
C1 C 0.50953(15) 0.14905(9) 0.56057(13)
C2 C 0.44624(14) 0.11892(8) 0.47702(12)
C3 C 0.31563(15) 0.11488(9) 0.46347(14)
C4 C 0.28224(14) 0.07688(9) 0.37719(13)
C5 C 0.39175(15) 0.05621(9) 0.33146(14)
C6 C 0.49362(14) 0.08081(9) 0.38974(12)
C7 C 0.61826(15) 0.06821(9) 0.36762(13)
C8 C 0.65219(14) 0.02934(9) 0.27383(14)
C9 C 0.62189(16) 0.04893(10) 0.17176(14)
C10 C 0.66522(17) 0.01257(10) 0.08855(15)
C11 C 0.7348(2) -0.04405(12) 0.1073(2)
C12 C 0.7633(2) -0.06327(13) 0.2082(2)
C13 C 0.72539(19) -0.02639(11) 0.29192(19)
C14 C 0.15301(15) 0.05663(9) 0.33915(14)
C15 C 0.1473(2) -0.01934(11) 0.3401(2)
C16 C 0.05866(19) 0.08372(14) 0.41392(19)
C17 C 0.12123(14) 0.08438(8) 0.22924(13)
C18 C 0.03600(18) 0.05422(10) 0.16082(16)
C19 C 0.16912(16) 0.14354(9) 0.19506(16)
C20 C 0.13299(15) 0.17123(9) 0.09957(16)
C21 C -0.00048(18) 0.08157(9) 0.06530(16)
C22 C 0.04632(13) 0.14141(8) 0.03175(13)
C23 C 0.00332(14) 0.17120(8) -0.06961(14)
C24 C -0.1099(2) 0.15612(12) -0.11639(18)
C25 C -0.1500(2) 0.18367(14) -0.2106(2)
C26 C -0.0795(2) 0.22766(12) -0.26124(19)
C27 C 0.0316(2) 0.24427(15) -0.2153(2)
C28 C 0.0732(2) 0.21657(12) -0.12136(19)
C29 C 0.45092(15) 0.18832(9) 0.64362(14)
C30 C 0.36704(18) 0.23815(10) 0.6192(2)
C31 C 0.3288(2) 0.27909(12) 0.6994(3)
C32 C 0.3702(2) 0.27024(13) 0.8007(2)
C33 C 0.4507(2) 0.21900(12) 0.82651(17)
C34 C 0.49189(18) 0.17880(11) 0.74704(15)
C35 C 0.4945(3) 0.20814(16) 0.9326(2)
C36 C 0.63998(19) 0.03382(12) -0.01856(18)
N1 N 0.6234(2) 0.04921(12) -0.10414(16)
N2 N 0.5307(4) 0.1988(2) 1.0167(2)
O1 O 0.62860(11) 0.14623(8) 0.57702(11)
O2 O 0.70848(11) 0.08720(8) 0.42622(11)
H1 H 0.664(2) 0.1199(13) 0.509(2)
H2 H 0.2652(17) 0.1352(9) 0.5120(14)
H3 H 0.3961(16) 0.0275(9) 0.2707(15)
H4 H 0.5686(18) 0.0875(11) 0.1570(14)
H5 H 0.759(2) -0.0658(11) 0.0479(17)
H6 H 0.813(3) -0.0985(16) 0.226(2)
H7 H 0.751(2) -0.0384(11) 0.3669(17)
H8 H 0.000(2) 0.0099(13) 0.1798(18)
H9 H 0.225(2) 0.1661(11) 0.2436(17)
H10 H 0.167(2) 0.2111(13) 0.0778(18)
H11 H -0.065(2) 0.0591(11) 0.0211(16)
H12 H 0.152(3) 0.2306(13) -0.084(2)
H13 H -0.162(2) 0.1286(14) -0.079(2)
H14 H -0.230(3) 0.1726(19) -0.234(3)
H15 H -0.108(2) 0.2477(14) -0.331(2)
H16 H 0.082(3) 0.2766(15) -0.249(2)
H17 H 0.3391(19) 0.2439(10) 0.5446(18)
H18 H 0.280(3) 0.3113(16) 0.672(2)
H19 H 0.348(2) 0.2977(13) 0.856(2)
H20 H 0.549(2) 0.1450(10) 0.7644(15)
H21 H 0.059(3) -0.0368(12) 0.3177(19)
H22 H -0.023(2) 0.0741(12) 0.3837(18)
H23 H 0.201(2) -0.0369(12) 0.2868(19)
H24 H 0.0664(19) 0.1341(12) 0.4206(16)
H25 H 0.168(2) -0.0343(12) 0.415(2)
H26 H 0.079(2) 0.0657(11) 0.4855(19)
loop_
_geom_bond_atom_site_label_1
_geom_bond_atom_site_label_2
_geom_bond_site_symmetry_1
_geom_bond_site_symmetry_2
C1 C2 1_555 1_555
C2 C3 1_555 1_555
C3 C4 1_555 1_555
C4 C5 1_555 1_555
C5 C6 1_555 1_555
C6 C2 1_555 1_555
C7 C6 1_555 1_555
C8 C7 1_555 1_555
C9 C8 1_555 1_555
C10 C9 1_555 1_555
C11 C10 1_555 1_555
C12 C11 1_555 1_555
C13 C8 1_555 1_555
C14 C4 1_555 1_555
C15 C14 1_555 1_555
C16 C14 1_555 1_555
C17 C14 1_555 1_555
C18 C17 1_555 1_555
C19 C17 1_555 1_555
C20 C19 1_555 1_555
C21 C18 1_555 1_555
C22 C20 1_555 1_555
C23 C22 1_555 1_555
C24 C23 1_555 1_555
C25 C24 1_555 1_555
C26 C25 1_555 1_555
C27 C26 1_555 1_555
C28 C23 1_555 1_555
C29 C1 1_555 1_555
C30 C29 1_555 1_555
C31 C30 1_555 1_555
C32 C31 1_555 1_555
C33 C32 1_555 1_555
C34 C29 1_555 1_555
C35 C33 1_555 1_555
C36 C10 1_555 1_555
N1 C36 1_555 1_555
N2 C35 1_555 1_555
O1 C1 1_555 1_555
O2 C7 1_555 1_555
H1 O1 1_555 1_555
H2 C3 1_555 1_555
H3 C5 1_555 1_555
H4 C9 1_555 1_555
H5 C11 1_555 1_555
H6 C12 1_555 1_555
H7 C13 1_555 1_555
H8 C18 1_555 1_555
H9 C19 1_555 1_555
H10 C20 1_555 1_555
H11 C21 1_555 1_555
H12 C28 1_555 1_555
H13 C24 1_555 1_555
H14 C25 1_555 1_555
H15 C26 1_555 1_555
H16 C27 1_555 1_555
H17 C30 1_555 1_555
H18 C31 1_555 1_555
H19 C32 1_555 1_555
H20 C34 1_555 1_555
H21 C15 1_555 1_555
H22 C16 1_555 1_555
H23 C15 1_555 1_555
H24 C16 1_555 1_555
H25 C15 1_555 1_555
H26 C16 1_555 1_555
C12 C13 1_555 1_555
C21 C22 1_555 1_555
C27 C28 1_555 1_555
C33 C34 1_555 1_555

#END
