
#######################################################################
#
#                 Cambridge Crystallographic Data Centre
#                                CCDC 
#
#######################################################################
#
# If this CIF has been generated from an entry in the Cambridge 
# Structural Database, then it will include bibliographic, chemical, 
# crystal, experimental, refinement or atomic coordinate data resulting 
# from the CCDC's data processing and validation procedures.
#
#######################################################################

data_QAPPIJ
_chemical_formula_moiety         'C18 H20 Br1 N1 O4'
_chemical_name_systematic        
't-butyl 2-(4-(4-bromophenyl)-2-methyl-1,3-oxazol-5-yl)-3-hydroxybut-2-enoate'
_symmetry_cell_setting           triclinic
_symmetry_space_group_name_H-M   'P -1'
_symmetry_Int_Tables_number      2
_space_group_name_Hall           '-P 1'
loop_
_symmetry_equiv_pos_site_id
_symmetry_equiv_pos_as_xyz
1 x,y,z
2 -x,-y,-z
_cell_length_a                   8.7575(12)
_cell_length_b                   10.7101(14)
_cell_length_c                   10.7153(14)
_cell_angle_alpha                77.067(2)
_cell_angle_beta                 72.812(2)
_cell_angle_gamma                87.327(2)
_cell_volume                     935.582
_exptl_crystal_colour            colorless
_exptl_crystal_description       block
_cell_formula_units_Z            2
loop_
_atom_site_label
_atom_site_type_symbol
_atom_site_fract_x
_atom_site_fract_y
_atom_site_fract_z
Br1 Br 0.67430(8) 0.65695(6) 0.89946(5)
N1 N 0.8506(4) 1.0435(3) 0.2556(3)
O1 O 0.3349(4) 0.7395(3) 0.2026(4)
H1 H 0.3876 0.6757 0.1905
O2 O 0.5469(3) 0.5823(3) 0.2469(3)
O3 O 0.7691(3) 0.6596(2) 0.2714(3)
C1 C 0.5748(5) 0.8049(4) 0.2297(4)
C2 C 0.7470(5) 0.9369(4) 0.3179(4)
C3 C 0.6783(5) 0.9080(4) 0.2311(4)
O4 O 0.7365(3) 0.9978(2) 0.1102(2)
C4 C 0.8400(6) 1.0744(4) 0.1338(4)
C5 C 0.9168(7) 1.1826(5) 0.0246(5)
H2 H 0.8432 1.2516 0.0206
H3 H 0.9474 1.1557 -0.0589
H4 H 1.0101 1.2112 0.0409
C6 C 0.7288(5) 0.8706(4) 0.4586(4)
C7 C 0.5856(6) 0.8106(5) 0.5391(4)
H5 H 0.4986 0.8137 0.5055
C8 C 0.5711(6) 0.7455(5) 0.6702(4)
H6 H 0.4752 0.7048 0.7242
C9 C 0.7000(6) 0.7423(4) 0.7190(4)
C10 C 0.8419(5) 0.8029(4) 0.6419(4)
H7 H 0.9276 0.8012 0.6767
C11 C 0.8560(5) 0.8664(4) 0.5115(4)
H8 H 0.9523 0.9071 0.4584
C12 C 0.4287(5) 0.8307(4) 0.2089(4)
C13 C 0.3575(6) 0.9600(5) 0.1940(6)
H9 H 0.3603 0.9924 0.1022
H10 H 0.4174 1.0169 0.2203
H11 H 0.2486 0.9543 0.2497
C14 C 0.6271(5) 0.6733(4) 0.2496(3)
C15 C 0.8385(5) 0.5320(4) 0.3058(4)
C16 C 0.9965(5) 0.5681(4) 0.3210(5)
H12 H 1.0656 0.6090 0.2350
H13 H 1.0458 0.4923 0.3570
H14 H 0.9779 0.6258 0.3805
C17 C 0.7320(6) 0.4560(4) 0.4359(4)
H15 H 0.7138 0.5050 0.5037
H16 H 0.7827 0.3773 0.4629
H17 H 0.6317 0.4371 0.4241
C18 C 0.8648(6) 0.4646(5) 0.1913(4)
H18 H 0.7633 0.4410 0.1851
H19 H 0.9258 0.3890 0.2072
H20 H 0.9219 0.5211 0.1091
loop_
_geom_bond_atom_site_label_1
_geom_bond_atom_site_label_2
_geom_bond_site_symmetry_1
_geom_bond_site_symmetry_2
Br1 C9 1_555 1_555
N1 C2 1_555 1_555
O1 H1 1_555 1_555
O2 C14 1_555 1_555
O3 C14 1_555 1_555
C1 C3 1_555 1_555
C2 C3 1_555 1_555
C3 O4 1_555 1_555
O4 C4 1_555 1_555
C4 N1 1_555 1_555
C5 C4 1_555 1_555
H2 C5 1_555 1_555
H3 C5 1_555 1_555
H4 C5 1_555 1_555
C6 C2 1_555 1_555
C7 C6 1_555 1_555
H5 C7 1_555 1_555
C8 C7 1_555 1_555
H6 C8 1_555 1_555
C9 C8 1_555 1_555
C10 C9 1_555 1_555
H7 C10 1_555 1_555
C11 C6 1_555 1_555
H8 C11 1_555 1_555
C12 O1 1_555 1_555
C13 C12 1_555 1_555
H9 C13 1_555 1_555
H10 C13 1_555 1_555
H11 C13 1_555 1_555
C14 C1 1_555 1_555
C15 O3 1_555 1_555
C16 C15 1_555 1_555
H12 C16 1_555 1_555
H13 C16 1_555 1_555
H14 C16 1_555 1_555
C17 C15 1_555 1_555
H15 C17 1_555 1_555
H16 C17 1_555 1_555
H17 C17 1_555 1_555
C18 C15 1_555 1_555
H18 C18 1_555 1_555
H19 C18 1_555 1_555
H20 C18 1_555 1_555
C1 C12 1_555 1_555
C10 C11 1_555 1_555

#END
