
#######################################################################
#
#                 Cambridge Crystallographic Data Centre
#                                CCDC 
#
#######################################################################
#
# If this CIF has been generated from an entry in the Cambridge 
# Structural Database, then it will include bibliographic, chemical, 
# crystal, experimental, refinement or atomic coordinate data resulting 
# from the CCDC's data processing and validation procedures.
#
#######################################################################

data_QAPPOP
_chemical_formula_moiety         'C14 H15 N1 O3'
_chemical_name_systematic        'vinyl 4-acetamido-4-phenylbut-3-enoate'
_symmetry_cell_setting           monoclinic
_symmetry_space_group_name_H-M   'P 21/c'
_symmetry_Int_Tables_number      14
_space_group_name_Hall           '-P 2ybc'
loop_
_symmetry_equiv_pos_site_id
_symmetry_equiv_pos_as_xyz
1 x,y,z
2 -x,1/2+y,1/2-z
3 -x,-y,-z
4 x,1/2-y,1/2+z
_cell_length_a                   13.7908(19)
_cell_length_b                   13.2366(18)
_cell_length_c                   7.7897(11)
_cell_angle_alpha                90
_cell_angle_beta                 100.818(2)
_cell_angle_gamma                90
_cell_volume                     1396.69
_exptl_crystal_colour            colorless
_exptl_crystal_description       block
_cell_formula_units_Z            4
loop_
_atom_site_label
_atom_site_type_symbol
_atom_site_fract_x
_atom_site_fract_y
_atom_site_fract_z
O1 O 0.04026(11) 0.86062(13) 0.1633(2)
O2 O 0.42229(15) 0.92115(18) 0.2371(4)
O3 O 0.33961(17) 1.05841(17) 0.1460(4)
C1 C 0.29844(17) 0.5805(2) 0.1154(4)
H1 H 0.3514 0.6224 0.1064
C2 C 0.3143(2) 0.4788(2) 0.1431(5)
H2 H 0.3776 0.4525 0.1527
C3 C 0.2369(2) 0.4160(2) 0.1564(4)
H3 H 0.2477 0.3473 0.1767
C4 C 0.1437(2) 0.4551(2) 0.1397(4)
H4 H 0.0909 0.4128 0.1482
C5 C 0.12786(17) 0.5564(2) 0.1106(3)
H5 H 0.0640 0.5818 0.0972
C6 C 0.20489(15) 0.62158(18) 0.1007(3)
C7 C 0.18911(15) 0.73169(18) 0.0791(3)
C8 C 0.03103(16) 0.82271(18) 0.0172(3)
C9 C -0.05885(17) 0.8444(2) -0.1206(3)
H6 H -0.1171 0.8373 -0.0709
H7 H -0.0615 0.7975 -0.2155
H8 H -0.0551 0.9120 -0.1632
C10 C 0.25357(16) 0.79958(19) 0.1537(3)
H9 H 0.3089 0.7748 0.2289
C11 C 0.24786(17) 0.91092(19) 0.1315(3)
H10 H 0.2052 0.9383 0.2058
H11 H 0.2184 0.9265 0.0113
C12 C 0.3466(2) 0.9607(2) 0.1756(4)
C13 C 0.4322(4) 1.1153(4) 0.1901(10)
H12 H 0.4858 1.0914 0.2704
C14 C 0.4343(4) 1.1913(5) 0.1194(11)
H13 H 0.3794 1.2131 0.0398
H14 H 0.4909 1.2310 0.1418
N1 N 0.09798(12) 0.76022(14) -0.0296(2)
H15 H 0.0850 0.7353 -0.1333
loop_
_geom_bond_atom_site_label_1
_geom_bond_atom_site_label_2
_geom_bond_site_symmetry_1
_geom_bond_site_symmetry_2
O1 C8 1_555 1_555
O2 C12 1_555 1_555
O3 C12 1_555 1_555
C1 H1 1_555 1_555
C2 C1 1_555 1_555
H2 C2 1_555 1_555
C3 C2 1_555 1_555
H3 C3 1_555 1_555
C4 C3 1_555 1_555
H4 C4 1_555 1_555
C5 C4 1_555 1_555
H5 C5 1_555 1_555
C6 C1 1_555 1_555
C7 C6 1_555 1_555
C8 C9 1_555 1_555
C9 H6 1_555 1_555
H7 C9 1_555 1_555
H8 C9 1_555 1_555
C10 C7 1_555 1_555
H9 C10 1_555 1_555
C11 C10 1_555 1_555
H10 C11 1_555 1_555
H11 C11 1_555 1_555
C12 C11 1_555 1_555
C13 O3 1_555 1_555
H12 C13 1_555 1_555
C14 C13 1_555 1_555
H13 C14 1_555 1_555
H14 C14 1_555 1_555
N1 C7 1_555 1_555
H15 N1 1_555 1_555
C5 C6 1_555 1_555
C8 N1 1_555 1_555

#END
