
#######################################################################
#
#                 Cambridge Crystallographic Data Centre
#                                CCDC 
#
#######################################################################
#
# If this CIF has been generated from an entry in the Cambridge 
# Structural Database, then it will include bibliographic, chemical, 
# crystal, experimental, refinement or atomic coordinate data resulting 
# from the CCDC's data processing and validation procedures.
#
#######################################################################

data_QAPQUW
_chemical_formula_moiety         'C14 H26 N2 O2'
_chemical_name_systematic        
N-(2-(4-acetamido-4-methylcyclohexyl)propan-2-yl)acetamide
_symmetry_cell_setting           triclinic
_symmetry_space_group_name_H-M   'P -1'
_symmetry_Int_Tables_number      2
_space_group_name_Hall           '-P 1'
loop_
_symmetry_equiv_pos_site_id
_symmetry_equiv_pos_as_xyz
1 x,y,z
2 -x,-y,-z
_cell_length_a                   6.9321(6)
_cell_length_b                   9.7969(9)
_cell_length_c                   11.0869(10)
_cell_angle_alpha                76.844(3)
_cell_angle_beta                 83.649(3)
_cell_angle_gamma                89.081(3)
_cell_volume                     728.652
_exptl_crystal_colour            colorless
_exptl_crystal_description       block
_cell_formula_units_Z            2
loop_
_atom_site_label
_atom_site_type_symbol
_atom_site_fract_x
_atom_site_fract_y
_atom_site_fract_z
C1 C 0.4354(3) 0.6998(2) 0.94045(18)
H1 H 0.4119 0.6335 1.0190
H2 H 0.3826 0.7889 0.9483
H3 H 0.5727 0.7095 0.9161
C2 C 0.3398(3) 0.64864(19) 0.84315(16)
C3 C 0.1193(2) 0.71688(19) 0.67408(16)
C4 C -0.0131(3) 0.8432(2) 0.64274(17)
H4 H -0.1064 0.8444 0.7132
H5 H -0.0795 0.8367 0.5727
H6 H 0.0634 0.9278 0.6226
C5 C -0.0091(3) 0.5843(2) 0.71638(17)
H7 H 0.0710 0.5027 0.7222
H8 H -0.0998 0.5842 0.6569
H9 H -0.0786 0.5833 0.7964
C6 C 0.2731(2) 0.70438(18) 0.56368(16)
H10 H 0.3499 0.6211 0.5932
C7 C 0.4152(3) 0.8287(2) 0.52566(17)
H11 H 0.3441 0.9141 0.4979
H12 H 0.4777 0.8381 0.5975
C8 C 0.5699(3) 0.8100(2) 0.42135(17)
H13 H 0.6464 0.7281 0.4513
H14 H 0.6562 0.8909 0.3994
C9 C 0.4818(2) 0.79286(19) 0.30471(16)
C10 C 0.3417(3) 0.66679(19) 0.34349(16)
H15 H 0.2795 0.6568 0.2717
H16 H 0.4150 0.5823 0.3706
C11 C 0.1848(3) 0.6815(2) 0.44881(16)
H17 H 0.1045 0.5974 0.4723
H18 H 0.1023 0.7600 0.4189
C12 C 0.3772(3) 0.9237(2) 0.24261(19)
H19 H 0.4616 1.0037 0.2291
H20 H 0.2625 0.9371 0.2955
H21 H 0.3415 0.9126 0.1641
C13 C 0.7845(3) 0.84560(19) 0.15597(16)
C14 C 0.9251(3) 0.7890(2) 0.06557(18)
H22 H 0.9417 0.8561 -0.0129
H23 H 0.8748 0.7028 0.0538
H24 H 1.0480 0.7722 0.0983
N1 N 0.2203(2) 0.73932(15) 0.77925(13)
H25 H 0.2089 0.8262 0.8024
N2 N 0.6376(2) 0.75806(16) 0.21417(13)
H26 H 0.6326 0.6663 0.1991
O1 O 0.3735(2) 0.53024(14) 0.82462(12)
O2 O 0.8070(2) 0.96417(14) 0.17338(13)
loop_
_geom_bond_atom_site_label_1
_geom_bond_atom_site_label_2
_geom_bond_site_symmetry_1
_geom_bond_site_symmetry_2
C1 H1 1_555 1_555
H2 C1 1_555 1_555
H3 C1 1_555 1_555
C2 C1 1_555 1_555
C3 C4 1_555 1_555
C4 H4 1_555 1_555
H5 C4 1_555 1_555
H6 C4 1_555 1_555
C5 C3 1_555 1_555
H7 C5 1_555 1_555
H8 C5 1_555 1_555
H9 C5 1_555 1_555
C6 C3 1_555 1_555
H10 C6 1_555 1_555
C7 C6 1_555 1_555
H11 C7 1_555 1_555
H12 C7 1_555 1_555
C8 C7 1_555 1_555
H13 C8 1_555 1_555
H14 C8 1_555 1_555
C9 C8 1_555 1_555
C10 C9 1_555 1_555
H15 C10 1_555 1_555
H16 C10 1_555 1_555
C11 C6 1_555 1_555
H17 C11 1_555 1_555
H18 C11 1_555 1_555
C12 C9 1_555 1_555
H19 C12 1_555 1_555
H20 C12 1_555 1_555
H21 C12 1_555 1_555
C13 C14 1_555 1_555
C14 H22 1_555 1_555
H23 C14 1_555 1_555
H24 C14 1_555 1_555
N1 C2 1_555 1_555
H25 N1 1_555 1_555
N2 C9 1_555 1_555
H26 N2 1_555 1_555
O1 C2 1_555 1_555
O2 C13 1_555 1_555
C3 N1 1_555 1_555
C10 C11 1_555 1_555
C13 N2 1_555 1_555

#END
