
#######################################################################
#
#                 Cambridge Crystallographic Data Centre
#                                CCDC 
#
#######################################################################
#
# If this CIF has been generated from an entry in the Cambridge 
# Structural Database, then it will include bibliographic, chemical, 
# crystal, experimental, refinement or atomic coordinate data resulting 
# from the CCDC's data processing and validation procedures.
#
#######################################################################

data_QAPQIK
_chemical_name_common            
2,6-bis(1-(pyridin-2-yl)-1H-benzo[d]imidazol-2-yl)pyridine
_chemical_formula_moiety         'C29 H19 N7'
_chemical_name_systematic        
1-(pyridin-2-yl)-2-(6-(1-(pyridin-2-yl)-1H-benzimidazol-2-yl)pyridin-2-yl)-1H-benzimidazole
_symmetry_cell_setting           monoclinic
_symmetry_space_group_name_H-M   'P 21/n'
_symmetry_Int_Tables_number      14
_space_group_name_Hall           '-P 2yn'
loop_
_symmetry_equiv_pos_site_id
_symmetry_equiv_pos_as_xyz
1 x,y,z
2 1/2-x,1/2+y,1/2-z
3 -x,-y,-z
4 1/2+x,1/2-y,1/2+z
_cell_length_a                   12.465(2)
_cell_length_b                   14.152(2)
_cell_length_c                   13.790(2)
_cell_angle_alpha                90
_cell_angle_beta                 109.383(2)
_cell_angle_gamma                90
_cell_volume                     2294.74
_exptl_crystal_colour            colorless
_exptl_crystal_description       block
_cell_formula_units_Z            4
loop_
_atom_site_label
_atom_site_type_symbol
_atom_site_fract_x
_atom_site_fract_y
_atom_site_fract_z
N1 N 0.68101(10) 0.08430(8) 0.91565(9)
N2 N 0.93719(10) 0.08051(9) 0.89759(9)
N3 N 0.77693(10) 0.09342(8) 0.75103(9)
N4 N 0.64116(10) -0.01196(9) 0.67174(9)
N5 N 0.65882(11) 0.16135(9) 1.15577(9)
N6 N 0.62063(10) 0.24470(9) 1.00872(9)
C1 C 0.86491(11) 0.13825(10) 0.83200(10)
N7 N 0.48023(11) 0.20851(10) 0.85346(10)
C2 C 0.67983(12) 0.00831(10) 0.85757(11)
C3 C 0.65546(11) 0.07150(10) 1.00172(11)
C4 C 0.61926(12) 0.30915(11) 1.08456(11)
C5 C 0.69960(12) 0.02682(10) 0.76010(11)
C6 C 0.82661(13) 0.14542(10) 0.59440(11)
H1 H 0.8870 0.1872 0.6285
C7 C 0.76732(12) 0.09578(10) 0.64751(11)
C8 C 0.68122(12) 0.03070(10) 0.59927(11)
C9 C 0.63514(12) -0.01685(11) 1.03614(12)
H2 H 0.6214 -0.0237 1.0995
C10 C 0.64458(12) 0.15755(10) 1.05725(11)
C11 C 0.87214(12) 0.23528(10) 0.83574(11)
H3 H 0.8166 0.2732 0.7877
C12 C 0.60142(13) 0.40603(11) 1.08159(12)
H4 H 0.5850 0.4410 1.0196
C13 C 0.64264(12) 0.25612(11) 1.17490(11)
C14 C 0.63554(13) -0.09418(11) 0.97576(13)
H5 H 0.6222 -0.1556 0.9972
C15 C 1.03967(13) 0.21791(11) 0.98010(12)
H6 H 1.1032 0.2438 1.0324
C16 C 0.56947(12) 0.26241(11) 0.90103(11)
C17 C 1.02295(13) 0.12175(11) 0.97157(12)
H7 H 1.0751 0.0823 1.0209
C18 C 0.79313(13) 0.13079(11) 0.48963(12)
H8 H 0.8311 0.1638 0.4505
C19 C 0.70476(14) 0.06867(12) 0.43948(12)
H9 H 0.6828 0.0616 0.3670
C20 C 0.96244(13) 0.27582(11) 0.91126(12)
H10 H 0.9711 0.3425 0.9157
C21 C 0.65548(13) -0.08209(11) 0.88389(13)
H11 H 0.6526 -0.1342 0.8397
C22 C 0.60976(15) 0.33421(12) 0.85491(13)
H12 H 0.6744 0.3704 0.8925
C23 C 0.64826(13) 0.30087(13) 1.26626(12)
H13 H 0.6635 0.2662 1.3284
C24 C 0.64887(13) 0.01749(12) 0.49324(12)
H14 H 0.5900 -0.0255 0.4590
C25 C 0.42924(14) 0.22473(15) 0.75330(13)
H15 H 0.3675 0.1852 0.7166
C26 C 0.63096(14) 0.39734(13) 1.26386(13)
H16 H 0.6343 0.4293 1.3254
C27 C 0.60876(14) 0.44871(13) 1.17328(13)
H17 H 0.5984 0.5151 1.1747
C28 C 0.46140(17) 0.29575(16) 0.70037(14)
H18 H 0.4212 0.3060 0.6295
C29 C 0.55298(18) 0.35163(14) 0.75233(15)
H19 H 0.5766 0.4015 0.7179
loop_
_geom_bond_atom_site_label_1
_geom_bond_atom_site_label_2
_geom_bond_site_symmetry_1
_geom_bond_site_symmetry_2
N1 C2 1_555 1_555
N2 C1 1_555 1_555
N3 C1 1_555 1_555
N4 C5 1_555 1_555
N5 C10 1_555 1_555
N6 C4 1_555 1_555
C1 C11 1_555 1_555
N7 C16 1_555 1_555
C2 C5 1_555 1_555
C3 N1 1_555 1_555
C4 C12 1_555 1_555
C5 N3 1_555 1_555
C6 H1 1_555 1_555
C7 N3 1_555 1_555
C8 N4 1_555 1_555
C9 C3 1_555 1_555
H2 C9 1_555 1_555
C10 N6 1_555 1_555
C11 H3 1_555 1_555
C12 H4 1_555 1_555
C13 N5 1_555 1_555
C14 C9 1_555 1_555
H5 C14 1_555 1_555
C15 H6 1_555 1_555
C16 N6 1_555 1_555
C17 N2 1_555 1_555
H7 C17 1_555 1_555
C18 C6 1_555 1_555
H8 C18 1_555 1_555
C19 C18 1_555 1_555
H9 C19 1_555 1_555
C20 C11 1_555 1_555
H10 C20 1_555 1_555
C21 C2 1_555 1_555
H11 C21 1_555 1_555
C22 C16 1_555 1_555
H12 C22 1_555 1_555
C23 C13 1_555 1_555
H13 C23 1_555 1_555
C24 C8 1_555 1_555
H14 C24 1_555 1_555
C25 N7 1_555 1_555
H15 C25 1_555 1_555
C26 C23 1_555 1_555
H16 C26 1_555 1_555
C27 C12 1_555 1_555
H17 C27 1_555 1_555
C28 C25 1_555 1_555
H18 C28 1_555 1_555
C29 C22 1_555 1_555
H19 C29 1_555 1_555
C3 C10 1_555 1_555
C4 C13 1_555 1_555
C6 C7 1_555 1_555
C7 C8 1_555 1_555
C14 C21 1_555 1_555
C15 C17 1_555 1_555
C15 C20 1_555 1_555
C19 C24 1_555 1_555
C26 C27 1_555 1_555
C28 C29 1_555 1_555

#END
