
#######################################################################
#
#                 Cambridge Crystallographic Data Centre
#                                CCDC 
#
#######################################################################
#
# If this CIF has been generated from an entry in the Cambridge 
# Structural Database, then it will include bibliographic, chemical, 
# crystal, experimental, refinement or atomic coordinate data resulting 
# from the CCDC's data processing and validation procedures.
#
#######################################################################

data_QAPVAG
_chemical_formula_moiety         'C19 H13 N5'
_chemical_name_systematic        
2-(6-Methylpyridin-2-yl)-1H-imidazo[4,5-f][1,10]phenanthroline
_symmetry_cell_setting           triclinic
_symmetry_space_group_name_H-M   'P -1'
_symmetry_Int_Tables_number      2
_space_group_name_Hall           '-P 1'
loop_
_symmetry_equiv_pos_site_id
_symmetry_equiv_pos_as_xyz
1 x,y,z
2 -x,-y,-z
_cell_length_a                   10.008(2)
_cell_length_b                   12.402(3)
_cell_length_c                   12.504(3)
_cell_angle_alpha                88.88(3)
_cell_angle_beta                 78.17(3)
_cell_angle_gamma                75.05(3)
_cell_volume                     1466.69
_exptl_crystal_colour            colorless
_exptl_crystal_description       block
_cell_formula_units_Z            4
loop_
_atom_site_label
_atom_site_type_symbol
_atom_site_fract_x
_atom_site_fract_y
_atom_site_fract_z
N1 N 0.1464(3) 0.2736(2) 1.0085(2)
N2 N 0.2537(3) 0.5320(2) 0.9773(2)
N3 N 0.0926(3) 0.7727(2) 0.6263(2)
N4 N 0.2414(3) 0.8590(2) 0.7465(2)
N5 N 0.1406(3) 0.4560(2) 0.8743(2)
H1 H 0.1093 0.4006 0.8311
C2 C 0.2814(4) 0.2495(3) 1.1840(3)
H6 H 0.3271 0.2410 1.2443
C4 C 0.2197(4) 0.1689(3) 1.1586(3)
H8 H 0.2225 0.1042 1.2009
C6 C 0.0187(4) 0.7313(3) 0.5694(3)
H10 H -0.0112 0.7728 0.5100
C7 C 0.3109(4) 0.9030(3) 0.8057(3)
H11 H 0.3295 0.9727 0.7853
C8 C 0.0846(5) 0.0990(3) 1.0378(3)
H12 H 0.1343 0.0226 1.0520
H13 H 0.0896 0.0918 0.9590
H14 H -0.0176 0.1082 1.0585
C12 C 0.1530(4) 0.1834(3) 1.0700(3)
C13 C -0.0184(4) 0.6308(3) 0.5903(3)
H17 H -0.0738 0.6060 0.5475
C14 C 0.2764(4) 0.3424(3) 1.1214(3)
H18 H 0.3192 0.3988 1.1368
C16 C 0.3587(4) 0.8522(3) 0.8968(3)
H20 H 0.4081 0.8871 0.9368
C17 C 0.2070(4) 0.3509(3) 1.0354(3)
C19 C 0.3333(4) 0.7520(3) 0.9273(3)
H22 H 0.3650 0.7160 0.9888
C20 C 0.2007(4) 0.4464(3) 0.9636(3)
C23 C 0.0266(4) 0.5690(3) 0.6737(3)
H24 H 0.0041 0.4997 0.6893
C27 C 0.1563(4) 0.5539(3) 0.8273(3)
C30 C 0.1370(4) 0.7131(3) 0.7099(3)
C31 C 0.1063(3) 0.6086(3) 0.7360(3)
C34 C 0.2258(4) 0.5987(3) 0.8918(3)
C35 C 0.2159(4) 0.7594(3) 0.7760(3)
C36 C 0.2599(4) 0.7029(3) 0.8668(3)
N6 N 0.3785(3) 0.0177(2) 0.3996(2)
N7 N 0.3011(3) -0.2487(2) 0.3715(2)
N8 N 0.2193(3) -0.0539(2) 0.5106(2)
H2 H 0.1546 -0.0923 0.5452
N9 N 0.2714(3) 0.3534(2) 0.6371(2)
N10 N 0.0558(3) 0.2820(2) 0.7595(2)
C1 C 0.2708(6) -0.4307(3) 0.3415(4)
H3 H 0.2596 -0.4453 0.4267
H4 H 0.3341 -0.5004 0.3135
H5 H 0.1890 -0.4307 0.3313
C3 C 0.4335(4) -0.3466(3) 0.2055(3)
H7 H 0.4586 -0.4119 0.1597
C5 C 0.4918(4) -0.2592(4) 0.1746(3)
H9 H 0.5562 -0.2626 0.1066
C9 C 0.4556(4) -0.1661(3) 0.2440(3)
H15 H 0.4955 -0.1048 0.2255
C10 C 0.3379(4) -0.3387(3) 0.3039(3)
C11 C 0.3731(4) 0.3898(3) 0.5760(3)
H16 H 0.3860 0.4590 0.5969
C15 C -0.0520(4) 0.2491(3) 0.8172(3)
H19 H -0.1123 0.2965 0.8761
C18 C 0.4631(4) 0.3335(3) 0.4825(3)
H21 H 0.5354 0.3637 0.4419
C21 C 0.4460(4) 0.2346(3) 0.4503(3)
H23 H 0.5055 0.1949 0.3865
C22 C 0.3598(4) -0.1647(3) 0.3408(3)
C24 C 0.3202(4) -0.0666(3) 0.4168(3)
C25 C -0.0824(4) 0.1487(3) 0.7966(3)
H25 H -0.1628 0.1300 0.8394
C26 C 0.0046(4) 0.0778(3) 0.7143(3)
H26 H -0.0128 0.0081 0.7006
C28 C 0.2136(4) 0.0475(3) 0.5572(3)
C29 C 0.3123(4) 0.0892(3) 0.4885(3)
C32 C 0.1198(4) 0.1092(3) 0.6504(3)
C33 C 0.3392(4) 0.1924(3) 0.5127(3)
C37 C 0.2538(4) 0.2546(3) 0.6070(3)
C38 C 0.1408(4) 0.2141(3) 0.6752(3)
H27? H 0.0630 0.0414 1.0917
H28? H -0.0146 0.1519 1.0139
H29? H 0.1401 0.0466 0.9859
loop_
_geom_bond_atom_site_label_1
_geom_bond_atom_site_label_2
_geom_bond_site_symmetry_1
_geom_bond_site_symmetry_2
N1 C12 1_555 1_555
N2 C20 1_555 1_555
N3 C6 1_555 1_555
N4 C7 1_555 1_555
N5 H1 1_555 1_555
N6 C24 1_555 1_555
N7 C10 1_555 1_555
N8 H2 1_555 1_555
N9 C11 1_555 1_555
N10 C15 1_555 1_555
C1 H3 1_555 1_555
H4 C1 1_555 1_555
H5 C1 1_555 1_555
C2 H6 1_555 1_555
C3 H7 1_555 1_555
C4 C2 1_555 1_555
H8 C4 1_555 1_555
C5 C3 1_555 1_555
H9 C5 1_555 1_555
C6 H10 1_555 1_555
C7 H11 1_555 1_555
C8 H12 1_555 1_555
H13 C8 1_555 1_555
H14 C8 1_555 1_555
C9 C5 1_555 1_555
H15 C9 1_555 1_555
C10 C1 1_555 1_555
C11 H16 1_555 1_555
C12 C4 1_555 1_555
C13 C6 1_555 1_555
H17 C13 1_555 1_555
C14 C2 1_555 1_555
H18 C14 1_555 1_555
C15 H19 1_555 1_555
C16 C7 1_555 1_555
H20 C16 1_555 1_555
C17 N1 1_555 1_555
C18 C11 1_555 1_555
H21 C18 1_555 1_555
C19 C16 1_555 1_555
H22 C19 1_555 1_555
C20 N5 1_555 1_555
C21 C18 1_555 1_555
H23 C21 1_555 1_555
C22 N7 1_555 1_555
C23 C13 1_555 1_555
H24 C23 1_555 1_555
C24 N8 1_555 1_555
C25 C15 1_555 1_555
H25 C25 1_555 1_555
C26 C25 1_555 1_555
H26 C26 1_555 1_555
C27 N5 1_555 1_555
C28 N8 1_555 1_555
C29 N6 1_555 1_555
C30 N3 1_555 1_555
C31 C23 1_555 1_555
C32 C26 1_555 1_555
C33 C21 1_555 1_555
C34 N2 1_555 1_555
C35 N4 1_555 1_555
C36 C19 1_555 1_555
C37 N9 1_555 1_555
C38 N10 1_555 1_555
C3 C10 1_555 1_555
C8 C12 1_555 1_555
C9 C22 1_555 1_555
C14 C17 1_555 1_555
C17 C20 1_555 1_555
C22 C24 1_555 1_555
C27 C31 1_555 1_555
C27 C34 1_555 1_555
C28 C29 1_555 1_555
C28 C32 1_555 1_555
C29 C33 1_555 1_555
C30 C31 1_555 1_555
C30 C35 1_555 1_555
C32 C38 1_555 1_555
C33 C37 1_555 1_555
C34 C36 1_555 1_555
C35 C36 1_555 1_555
C37 C38 1_555 1_555

#END
