
#######################################################################
#
#                 Cambridge Crystallographic Data Centre
#                                CCDC 
#
#######################################################################
#
# If this CIF has been generated from an entry in the Cambridge 
# Structural Database, then it will include bibliographic, chemical, 
# crystal, experimental, refinement or atomic coordinate data resulting 
# from the CCDC's data processing and validation procedures.
#
#######################################################################

data_QAPVEK
_chemical_formula_moiety         'C29 H30 N2 O1'
_chemical_name_systematic        
2,4-Di-t-butyl-6-(1H-phenanthro[9,10-d]imidazol-2-yl)phenol
_symmetry_cell_setting           triclinic
_symmetry_space_group_name_H-M   'P -1'
_symmetry_Int_Tables_number      2
_space_group_name_Hall           '-P 1'
loop_
_symmetry_equiv_pos_site_id
_symmetry_equiv_pos_as_xyz
1 x,y,z
2 -x,-y,-z
_cell_length_a                   10.109(2)
_cell_length_b                   13.670(3)
_cell_length_c                   17.355(4)
_cell_angle_alpha                101.33(3)
_cell_angle_beta                 101.23(3)
_cell_angle_gamma                96.15(3)
_cell_volume                     2280.02
_exptl_crystal_colour            colorless
_exptl_crystal_description       block
_cell_formula_units_Z            4
loop_
_atom_site_label
_atom_site_type_symbol
_atom_site_fract_x
_atom_site_fract_y
_atom_site_fract_z
O1 O 0.18410(14) -0.01197(12) 0.28221(9)
H1 H 0.1913 0.0165 0.3442
N1 N 0.28374(17) 0.06740(12) 0.43369(10)
N2 N 0.50768(16) 0.11330(12) 0.48119(9)
H2 H 0.5969 0.1247 0.4836
C6 C 0.5054(2) 0.19871(14) 0.62540(11)
C8 C 0.3094(2) 0.11645(14) 0.51399(12)
C10 C 0.4116(2) 0.22560(14) 0.67445(12)
C11 C 0.42627(19) 0.03445(14) 0.33400(11)
C13 C 0.2638(2) 0.19965(15) 0.64186(12)
C15 C 0.5799(2) 0.02134(15) 0.24212(12)
C16 C 0.3303(2) -0.02433(15) 0.18926(12)
C18 C 0.4470(2) 0.14467(14) 0.54432(11)
C19 C 0.40592(19) 0.06875(14) 0.41524(11)
C20 C 0.4631(2) -0.01141(16) 0.17880(12)
H15 H 0.4764 -0.0256 0.1252
C21 C 0.5580(2) 0.04365(14) 0.31907(12)
H16 H 0.6342 0.0659 0.3633
C22 C 0.3122(2) -0.00086(15) 0.26941(12)
C25 C 0.2127(2) 0.14433(15) 0.56131(12)
C26 C 0.4673(2) 0.27982(16) 0.75430(12)
H18 H 0.4076 0.2984 0.7889
C28 C 0.0709(2) 0.12169(18) 0.52900(14)
H20 H 0.0376 0.0863 0.4745
C30 C 0.6959(2) 0.28000(16) 0.73421(13)
H21 H 0.7915 0.2991 0.7545
C32 C 0.6058(2) 0.30646(16) 0.78339(12)
H23 H 0.6403 0.3432 0.8374
C33 C 0.6460(2) 0.22608(15) 0.65602(12)
H24 H 0.7075 0.2074 0.6227
C37 C 0.7225(2) 0.03436(16) 0.22399(13)
C38 C 0.2062(2) -0.06007(17) 0.11735(12)
C42 C 0.1677(2) 0.22903(17) 0.68734(14)
H28 H 0.1988 0.2670 0.7412
C44 C 0.0300(2) 0.20387(19) 0.65536(15)
H30 H -0.0326 0.2231 0.6879
C46 C 0.8358(2) 0.05394(18) 0.30014(14)
H32 H 0.8294 0.1173 0.3361
H33 H 0.9247 0.0587 0.2855
H34 H 0.8258 -0.0017 0.3276
C49 C 0.1129(2) 0.02138(18) 0.11531(13)
H35 H 0.0323 -0.0033 0.0712
H36 H 0.1626 0.0826 0.1069
H37 H 0.0841 0.0368 0.1666
C50 C 0.1248(2) -0.15874(18) 0.12336(14)
H38 H 0.0945 -0.1484 0.1743
H39 H 0.1829 -0.2118 0.1214
H40 H 0.0452 -0.1790 0.0782
C52 C 0.7414(2) -0.06153(19) 0.16651(15)
H42 H 0.8350 -0.0548 0.1584
H43 H 0.6771 -0.0708 0.1146
H44 H 0.7243 -0.1201 0.1899
C53 C -0.0194(2) 0.1505(2) 0.57568(16)
H45 H -0.1149 0.1341 0.5539
C54 C 0.2502(3) -0.0799(2) 0.03663(13)
H46 H 0.3082 -0.1330 0.0353
H47 H 0.3013 -0.0179 0.0305
H48 H 0.1691 -0.1016 -0.0075
C55 C 0.7371(3) 0.12390(19) 0.18343(15)
H49 H 0.7277 0.1857 0.2203
H50 H 0.6659 0.1118 0.1339
H51 H 0.8270 0.1314 0.1702
C1 C 0.0951(4) 0.6073(4) 0.9318(3)
H3 H 0.0022 0.6042 0.9410
H4 H 0.1365 0.6780 0.9414
H5 H 0.1496 0.5737 0.9689
C2 C 0.0316(5) 0.4432(3) 0.8334(3)
H6 H 0.0743 0.4199 0.8809
H7 H 0.0499 0.4016 0.7849
H8 H -0.0671 0.4374 0.8292
C3 C 0.0061(4) 0.6072(4) 0.7891(3)
H9 H 0.0274 0.6798 0.8128
H10 H -0.0909 0.5842 0.7846
H11 H 0.0266 0.5937 0.7354
N3 N 0.54620(17) 0.46697(12) 0.64797(10)
N4 N 0.32397(18) 0.42520(12) 0.59737(10)
H13 H 0.2352 0.4184 0.5933
C4 C 0.5047(2) 0.56501(16) 0.80468(13)
H14 H 0.5963 0.5675 0.7969
C5 C 0.2614(2) 0.51447(15) 0.75213(12)
O2 O 0.1547(3) 0.4701(2) 0.69263(15)
C7 C 0.3359(2) 0.34000(14) 0.45546(12)
C9 C 0.5285(2) 0.41715(14) 0.56874(12)
C12 C 0.4307(2) 0.31635(14) 0.40663(12)
C14 C 0.5775(2) 0.34161(14) 0.44092(12)
C17 C 0.3954(2) 0.51702(15) 0.74075(12)
C23 C 0.1951(2) 0.31416(16) 0.42312(14)
H17 H 0.1328 0.3292 0.4567
C24 C 0.3908(2) 0.39137(14) 0.53761(12)
C27 C 0.3485(2) 0.60372(17) 0.88828(13)
H19 H 0.3326 0.6332 0.9394
C29 C 0.6284(2) 0.39287(14) 0.52289(12)
C31 C 0.7692(2) 0.41736(17) 0.55553(14)
H22 H 0.8042 0.4538 0.6166
C34 C 0.4210(2) 0.47063(14) 0.66314(12)
C35 C 0.4827(2) 0.61015(17) 0.87966(13)
C36 C 0.6755(2) 0.31760(17) 0.39507(14)
H25 H 0.6453 0.2831 0.3402
C39 C 0.2386(3) 0.24605(17) 0.29423(14)
H26 H 0.2051 0.2151 0.2388
C40 C 0.2355(2) 0.55705(16) 0.82715(14)
C41 C 0.3768(2) 0.26910(16) 0.32482(13)
H27 H 0.4373 0.2530 0.2903
C43 C 0.1465(3) 0.26738(17) 0.34340(14)
H29 H 0.0511 0.2497 0.3219
C45 C 0.8607(3) 0.39301(19) 0.50873(16)
H31 H 0.9560 0.4100 0.5310
C47 C 0.0900(2) 0.55210(18) 0.84136(14)
C48 C 0.6007(2) 0.6664(2) 0.94873(13)
C51 C 0.8128(3) 0.34267(19) 0.42747(16)
H41 H 0.8760 0.3259 0.3948
C56 C 0.5503(8) 0.6910(7) 1.0267(3)
H52 H 0.5003 0.6297 1.0348
H53 H 0.4898 0.7421 1.0233
H54 H 0.6285 0.7169 1.0722
C57 C 0.6986(5) 0.5853(3) 0.9671(3)
H55 H 0.6466 0.5283 0.9801
H56 H 0.7743 0.6168 1.0129
H57 H 0.7348 0.5610 0.9196
C58 C 0.6771(5) 0.7507(4) 0.9290(3)
H58 H 0.7511 0.7839 0.9753
H59 H 0.6161 0.7991 0.9160
H60 H 0.7156 0.7260 0.8825
H12? H 0.6245 0.4917 0.6822
C59? C 0.0595(8) 0.6558(5) 0.8737(5)
C60? C 0.0625(8) 0.4779(7) 0.8925(5)
C61? C -0.0204(6) 0.5128(6) 0.7587(4)
C62? C 0.5896(9) 0.6623(8) 1.0333(4)
C63? C 0.7428(5) 0.6584(6) 0.9326(4)
C64? C 0.6002(7) 0.7846(4) 0.9467(4)
H61? H 0.1864 0.4832 0.7079
H62? H 0.1231 0.6859 0.9253
H63? H -0.0342 0.6507 0.8815
H64? H 0.0699 0.6984 0.8352
H65? H 0.1282 0.4974 0.9445
H66? H 0.0718 0.4101 0.8648
H67? H -0.0303 0.4781 0.9013
H68? H 0.0240 0.4819 0.7166
H69? H -0.0616 0.5697 0.7431
H70? H -0.0914 0.4626 0.7655
H71? H 0.6716 0.7011 1.0714
H72? H 0.5809 0.5919 1.0385
H73? H 0.5091 0.6911 1.0449
H74? H 0.7412 0.6599 0.8762
H75? H 0.7702 0.5948 0.9432
H76? H 0.8080 0.7152 0.9679
H77? H 0.6065 0.7942 0.8930
H78? H 0.6784 0.8256 0.9868
H79? H 0.5155 0.8053 0.9592
O3? O 0.6335(3) 0.5637(3) 0.7948(2)
loop_
_geom_bond_atom_site_label_1
_geom_bond_atom_site_label_2
_geom_bond_site_symmetry_1
_geom_bond_site_symmetry_2
O1 H1 1_555 1_555
N1 C8 1_555 1_555
N2 H2 1_555 1_555
C1 H3 1_555 1_555
H4 C1 1_555 1_555
H5 C1 1_555 1_555
C2 H6 1_555 1_555
H7 C2 1_555 1_555
H8 C2 1_555 1_555
C3 H9 1_555 1_555
H10 C3 1_555 1_555
H11 C3 1_555 1_555
N3 C9 1_555 1_555
N4 H13 1_555 1_555
C4 H14 1_555 1_555
C5 O2 1_555 1_555
C6 C10 1_555 1_555
C7 C12 1_555 1_555
C8 C18 1_555 1_555
C9 C24 1_555 1_555
C10 C13 1_555 1_555
C11 C19 1_555 1_555
C12 C14 1_555 1_555
C13 C25 1_555 1_555
C14 C29 1_555 1_555
C15 C20 1_555 1_555
C16 C20 1_555 1_555
C17 C4 1_555 1_555
C18 N2 1_555 1_555
C19 N1 1_555 1_555
C20 H15 1_555 1_555
C21 C11 1_555 1_555
H16 C21 1_555 1_555
C22 O1 1_555 1_555
C23 C7 1_555 1_555
H17 C23 1_555 1_555
C24 N4 1_555 1_555
C25 C8 1_555 1_555
C26 C10 1_555 1_555
H18 C26 1_555 1_555
C27 H19 1_555 1_555
C28 C25 1_555 1_555
H20 C28 1_555 1_555
C29 C9 1_555 1_555
C30 H21 1_555 1_555
C31 C29 1_555 1_555
H22 C31 1_555 1_555
C32 C26 1_555 1_555
H23 C32 1_555 1_555
C33 C6 1_555 1_555
H24 C33 1_555 1_555
C34 N3 1_555 1_555
C35 C4 1_555 1_555
C36 C14 1_555 1_555
H25 C36 1_555 1_555
C37 C15 1_555 1_555
C38 C16 1_555 1_555
C39 H26 1_555 1_555
C40 C5 1_555 1_555
C41 C12 1_555 1_555
H27 C41 1_555 1_555
C42 C13 1_555 1_555
H28 C42 1_555 1_555
C43 C23 1_555 1_555
H29 C43 1_555 1_555
C44 C42 1_555 1_555
H30 C44 1_555 1_555
C45 C31 1_555 1_555
H31 C45 1_555 1_555
C46 C37 1_555 1_555
H32 C46 1_555 1_555
H33 C46 1_555 1_555
H34 C46 1_555 1_555
C47 C1 1_555 1_555
C48 C35 1_555 1_555
C49 C38 1_555 1_555
H35 C49 1_555 1_555
H36 C49 1_555 1_555
H37 C49 1_555 1_555
C50 C38 1_555 1_555
H38 C50 1_555 1_555
H39 C50 1_555 1_555
H40 C50 1_555 1_555
C51 C36 1_555 1_555
H41 C51 1_555 1_555
C52 C37 1_555 1_555
H42 C52 1_555 1_555
H43 C52 1_555 1_555
H44 C52 1_555 1_555
C53 C28 1_555 1_555
H45 C53 1_555 1_555
C54 C38 1_555 1_555
H46 C54 1_555 1_555
H47 C54 1_555 1_555
H48 C54 1_555 1_555
C55 C37 1_555 1_555
H49 C55 1_555 1_555
H50 C55 1_555 1_555
H51 C55 1_555 1_555
C56 C48 1_555 1_555
H52 C56 1_555 1_555
H53 C56 1_555 1_555
H54 C56 1_555 1_555
C57 C48 1_555 1_555
H55 C57 1_555 1_555
H56 C57 1_555 1_555
H57 C57 1_555 1_555
C58 C48 1_555 1_555
H58 C58 1_555 1_555
H59 C58 1_555 1_555
H60 C58 1_555 1_555
N2 C19 1_555 1_555
C2 C47 1_555 1_555
C3 C47 1_555 1_555
N4 C34 1_555 1_555
C5 C17 1_555 1_555
C6 C18 1_555 1_555
C7 C24 1_555 1_555
C11 C22 1_555 1_555
C15 C21 1_555 1_555
C16 C22 1_555 1_555
C17 C34 1_555 1_555
C27 C35 1_555 1_555
C27 C40 1_555 1_555
C30 C32 1_555 1_555
C30 C33 1_555 1_555
C39 C41 1_555 1_555
C39 C43 1_555 1_555
C40 C47 1_555 1_555
C44 C53 1_555 1_555
C45 C51 1_555 1_555

#END
