
#######################################################################
#
#                 Cambridge Crystallographic Data Centre
#                                CCDC 
#
#######################################################################
#
# If this CIF has been generated from an entry in the Cambridge 
# Structural Database, then it will include bibliographic, chemical, 
# crystal, experimental, refinement or atomic coordinate data resulting 
# from the CCDC's data processing and validation procedures.
#
#######################################################################

data_QAPVIP
_chemical_formula_moiety         'C26 H33 F6 N2 O3 1+,C1 H1 Cl3,Br1 1-'
_chemical_name_systematic        
'2-((3,5-bis(trifluoromethyl)benzoyl)amino)-N-(3,5-dimethoxybenzyl)-N,N,3-trimethylpentan-1-aminium bromide chloroform solvate'
_symmetry_cell_setting           orthorhombic
_symmetry_space_group_name_H-M   'P 21 21 21'
_symmetry_Int_Tables_number      19
_space_group_name_Hall           'P 2ac 2ab'
loop_
_symmetry_equiv_pos_site_id
_symmetry_equiv_pos_as_xyz
1 x,y,z
2 1/2-x,-y,1/2+z
3 -x,1/2+y,1/2-z
4 1/2+x,1/2-y,-z
_cell_length_a                   8.9751(4)
_cell_length_b                   17.1860(7)
_cell_length_c                   21.3036(8)
_cell_angle_alpha                90
_cell_angle_beta                 90
_cell_angle_gamma                90
_cell_volume                     3286
_exptl_crystal_colour            colorless
_exptl_crystal_description       block
_cell_formula_units_Z            4
loop_
_atom_site_label
_atom_site_type_symbol
_atom_site_fract_x
_atom_site_fract_y
_atom_site_fract_z
Br1 Br 0.40677(6) 0.73896(4) 0.11012(3)
C1 C -0.1579(6) 0.6566(3) 0.0760(2)
N1 N -0.1561(5) 0.8047(3) 0.0930(2)
O1 O 0.1550(6) 0.5277(3) 0.0567(3)
F1 F 0.6577(6) 0.8235(5) 0.2961(4)
C2 C -0.2530(6) 0.6146(3) 0.1158(3)
H1 H -0.3451 0.6359 0.1295
N2 N 0.1473(5) 0.8470(3) 0.1771(2)
H2 H 0.2202 0.8135 0.1711
O2 O -0.2925(6) 0.4941(3) 0.1730(3)
F2 F 0.6228(6) 0.7094(4) 0.2824(4)
C3 C -0.2082(7) 0.5406(3) 0.1346(3)
O3 O -0.0016(5) 0.9023(2) 0.25040(18)
F3 F 0.6585(6) 0.7484(7) 0.3743(3)
F4 F 0.1153(16) 0.8022(5) 0.4880(3)
C4 C 0.0199(7) 0.5516(4) 0.0779(3)
F5 F 0.1846(9) 0.6921(5) 0.4805(3)
C5 C -0.0723(7) 0.5094(3) 0.1160(3)
H3 H -0.0436 0.4590 0.1298
F6 F -0.0148(7) 0.7249(7) 0.4405(3)
C6 C -0.0237(7) 0.6261(3) 0.0566(3)
H4 H 0.0391 0.6549 0.0292
C7 C -0.2085(6) 0.7350(3) 0.0529(2)
H5 H -0.3187 0.7353 0.0514
H6 H -0.1718 0.7422 0.0095
C8 C -0.4304(9) 0.5238(5) 0.1939(5)
H7 H -0.4967 0.5313 0.1578
H8 H -0.4144 0.5738 0.2150
H9 H -0.4759 0.4870 0.2233
C9 C 0.2057(10) 0.4534(4) 0.0790(4)
H10 H 0.1386 0.4126 0.0638
H11 H 0.2064 0.4534 0.1250
H12 H 0.3067 0.4436 0.0634
C10 C -0.1916(6) 0.7903(4) 0.1610(2)
H13 H -0.2972 0.7767 0.1653
H14 H -0.1706 0.8374 0.1854
H15 H -0.1302 0.7473 0.1767
C11 C -0.2454(7) 0.8735(4) 0.0708(3)
H16 H -0.2251 0.8827 0.0262
H17 H -0.2174 0.9197 0.0951
H18 H -0.3518 0.8629 0.0766
C12 C 0.0792(6) 0.8831(3) 0.1221(2)
H19 H -0.0008 0.9194 0.1366
C13 C 0.0078(6) 0.8190(3) 0.0817(2)
H20 H 0.0216 0.8329 0.0369
H21 H 0.0622 0.7698 0.0892
C14 C 0.2980(8) 0.9768(4) 0.1245(3)
H22 H 0.3522 0.9406 0.1526
H23 H 0.2377 1.0119 0.1512
C15 C 0.4118(10) 1.0255(5) 0.0880(4)
H24 H 0.4669 0.9919 0.0590
H25 H 0.4815 1.0499 0.1174
H26 H 0.3597 1.0660 0.0641
C16 C 0.1048(6) 0.8619(3) 0.2364(2)
C17 C 0.1950(6) 0.8221(3) 0.2869(2)
C18 C 0.1229(6) 0.8019(3) 0.3417(2)
H27 H 0.0192 0.8115 0.3463
C19 C 0.2025(7) 0.7674(3) 0.3902(3)
C20 C 0.3539(7) 0.7547(4) 0.3851(3)
H28 H 0.4078 0.7316 0.4186
C21 C 0.4256(7) 0.7763(4) 0.3306(3)
C22 C 0.3465(6) 0.8085(3) 0.2809(3)
H29 H 0.3962 0.8212 0.2429
C23 C 0.5900(7) 0.7628(5) 0.3235(3)
C24 C 0.1233(9) 0.7461(5) 0.4500(3)
C25 C 0.1101(8) 0.9814(4) 0.0349(3)
H30 H 0.1825 1.0080 0.0080
H31 H 0.0505 1.0201 0.0576
H32 H 0.0444 0.9491 0.0090
C26 C 0.1932(6) 0.9295(3) 0.0825(3)
H33 H 0.2547 0.8914 0.0583
Cl1 Cl 1.2056(2) 0.62758(10) 0.20692(9)
Cl2 Cl 0.9377(2) 0.62957(12) 0.28162(10)
Cl3 Cl 1.2039(3) 0.55907(13) 0.33051(11)
C27 C 1.0991(8) 0.5771(4) 0.2630(3)
H34 H 1.0686 0.5260 0.2446
loop_
_geom_bond_atom_site_label_1
_geom_bond_atom_site_label_2
_geom_bond_site_symmetry_1
_geom_bond_site_symmetry_2
C1 C2 1_555 1_555
N1 C7 1_555 1_555
O1 C4 1_555 1_555
F1 C23 1_555 1_555
C2 H1 1_555 1_555
N2 H2 1_555 1_555
O2 C3 1_555 1_555
F2 C23 1_555 1_555
C3 C2 1_555 1_555
O3 C16 1_555 1_555
F3 C23 1_555 1_555
F4 C24 1_555 1_555
C4 C5 1_555 1_555
F5 C24 1_555 1_555
C5 C3 1_555 1_555
H3 C5 1_555 1_555
F6 C24 1_555 1_555
C6 C1 1_555 1_555
H4 C6 1_555 1_555
C7 C1 1_555 1_555
H5 C7 1_555 1_555
H6 C7 1_555 1_555
C8 O2 1_555 1_555
H7 C8 1_555 1_555
H8 C8 1_555 1_555
H9 C8 1_555 1_555
C9 O1 1_555 1_555
H10 C9 1_555 1_555
H11 C9 1_555 1_555
H12 C9 1_555 1_555
C10 N1 1_555 1_555
H13 C10 1_555 1_555
H14 C10 1_555 1_555
H15 C10 1_555 1_555
C11 N1 1_555 1_555
H16 C11 1_555 1_555
H17 C11 1_555 1_555
H18 C11 1_555 1_555
C12 N2 1_555 1_555
H19 C12 1_555 1_555
C13 N1 1_555 1_555
H20 C13 1_555 1_555
H21 C13 1_555 1_555
C14 H22 1_555 1_555
H23 C14 1_555 1_555
C15 C14 1_555 1_555
H24 C15 1_555 1_555
H25 C15 1_555 1_555
H26 C15 1_555 1_555
C16 N2 1_555 1_555
C17 C16 1_555 1_555
C18 C17 1_555 1_555
H27 C18 1_555 1_555
C19 C18 1_555 1_555
C20 C19 1_555 1_555
H28 C20 1_555 1_555
C21 C20 1_555 1_555
C22 C17 1_555 1_555
H29 C22 1_555 1_555
C23 C21 1_555 1_555
C24 C19 1_555 1_555
C25 H30 1_555 1_555
H31 C25 1_555 1_555
H32 C25 1_555 1_555
C26 C12 1_555 1_555
H33 C26 1_555 1_555
Cl1 C27 1_555 1_555
Cl2 C27 1_555 1_555
Cl3 C27 1_555 1_555
C27 H34 1_555 1_555
C4 C6 1_555 1_555
C12 C13 1_555 1_555
C14 C26 1_555 1_555
C21 C22 1_555 1_555
C25 C26 1_555 1_555

#END
