
#######################################################################
#
#                 Cambridge Crystallographic Data Centre
#                                CCDC 
#
#######################################################################
#
# If this CIF has been generated from an entry in the Cambridge 
# Structural Database, then it will include bibliographic, chemical, 
# crystal, experimental, refinement or atomic coordinate data resulting 
# from the CCDC's data processing and validation procedures.
#
#######################################################################

data_QAPXIR
_chemical_formula_moiety         'C19 H13 N3 O3'
_chemical_name_systematic        
12-(cyclopropylmethylidene)-3-nitroisoindolo[1,2-b]quinazolin-10(12H)-one
_symmetry_cell_setting           monoclinic
_symmetry_space_group_name_H-M   'P 21/c'
_symmetry_Int_Tables_number      14
_space_group_name_Hall           '-P 2ybc'
loop_
_symmetry_equiv_pos_site_id
_symmetry_equiv_pos_as_xyz
1 x,y,z
2 -x,1/2+y,1/2-z
3 -x,-y,-z
4 x,1/2-y,1/2+z
_cell_length_a                   7.5350(3)
_cell_length_b                   13.0568(5)
_cell_length_c                   15.7680(7)
_cell_angle_alpha                90
_cell_angle_beta                 93.192(2)
_cell_angle_gamma                90
_cell_volume                     1548.9
_exptl_crystal_colour            'pale yellow'
_exptl_crystal_description       block
_cell_formula_units_Z            4
loop_
_atom_site_label
_atom_site_type_symbol
_atom_site_fract_x
_atom_site_fract_y
_atom_site_fract_z
N1 N 0.2866(2) 0.52504(11) 1.02903(10)
N2 N 0.2019(2) 0.69380(12) 0.98250(12)
N3 N -0.1256(3) 0.53524(18) 0.69469(14)
O1 O 0.4416(2) 0.49564(11) 1.15571(10)
O2 O -0.1587(3) 0.62616(16) 0.68774(13)
O3 O -0.1752(3) 0.47181(18) 0.64243(14)
C1 C 0.2194(4) 0.1598(2) 1.0814(2)
H1 H 0.2037 0.1876 1.1375
H2 H 0.1339 0.1076 1.0632
C2 C 0.2838(3) 0.23161(16) 1.01455(16)
C3 C 0.3956(4) 0.14954(18) 1.05515(17)
H3 H 0.4219 0.0904 1.0208
H4 H 0.4917 0.1703 1.0950
C4 C 0.3124(3) 0.33801(15) 1.04114(14)
H5 H 0.3720 0.3482 1.0937
C5 C 0.2618(2) 0.42211(14) 0.99775(13)
C6 C 0.1654(2) 0.43438(14) 0.91503(12)
C7 C 0.1024(3) 0.36329(16) 0.85448(14)
H6 H 0.1235 0.2937 0.8625
C8 C 0.0084(3) 0.39777(17) 0.78266(14)
H7 H -0.0348 0.3511 0.7420
C9 C -0.0221(3) 0.50140(17) 0.77056(13)
C10 C 0.0397(3) 0.57362(16) 0.82837(13)
H8 H 0.0191 0.6431 0.8196
C11 C 0.1342(2) 0.53813(15) 0.90039(13)
C12 C 0.2091(2) 0.59587(15) 0.97174(13)
C13 C 0.2762(3) 0.73111(16) 1.05864(14)
C14 C 0.2659(3) 0.83646(17) 1.07574(17)
H9 H 0.2113 0.8802 1.0357
C15 C 0.3352(4) 0.8748(2) 1.15051(19)
H10 H 0.3273 0.9447 1.1612
C16 C 0.4171(4) 0.8115(2) 1.21074(18)
H11 H 0.4634 0.8390 1.2617
C17 C 0.4308(3) 0.70805(19) 1.19600(16)
H12 H 0.4869 0.6658 1.2367
C18 C 0.3601(3) 0.66658(16) 1.11970(14)
C19 C 0.3699(3) 0.55652(16) 1.10566(14)
loop_
_geom_bond_atom_site_label_1
_geom_bond_atom_site_label_2
_geom_bond_site_symmetry_1
_geom_bond_site_symmetry_2
N1 C5 1_555 1_555
N2 C12 1_555 1_555
N3 O2 1_555 1_555
O1 C19 1_555 1_555
O3 N3 1_555 1_555
C1 H1 1_555 1_555
H2 C1 1_555 1_555
C2 C1 1_555 1_555
C3 C1 1_555 1_555
H3 C3 1_555 1_555
H4 C3 1_555 1_555
C4 C2 1_555 1_555
H5 C4 1_555 1_555
C5 C4 1_555 1_555
C6 C5 1_555 1_555
C7 C6 1_555 1_555
H6 C7 1_555 1_555
C8 C7 1_555 1_555
H7 C8 1_555 1_555
C9 N3 1_555 1_555
C10 C9 1_555 1_555
H8 C10 1_555 1_555
C11 C6 1_555 1_555
C12 N1 1_555 1_555
C13 N2 1_555 1_555
C14 C13 1_555 1_555
H9 C14 1_555 1_555
C15 C14 1_555 1_555
H10 C15 1_555 1_555
C16 C15 1_555 1_555
H11 C16 1_555 1_555
C17 C16 1_555 1_555
H12 C17 1_555 1_555
C18 C13 1_555 1_555
C19 N1 1_555 1_555
C2 C3 1_555 1_555
C8 C9 1_555 1_555
C10 C11 1_555 1_555
C11 C12 1_555 1_555
C17 C18 1_555 1_555
C18 C19 1_555 1_555

#END
