
#######################################################################
#
#                 Cambridge Crystallographic Data Centre
#                                CCDC 
#
#######################################################################
#
# If this CIF has been generated from an entry in the Cambridge 
# Structural Database, then it will include bibliographic, chemical, 
# crystal, experimental, refinement or atomic coordinate data resulting 
# from the CCDC's data processing and validation procedures.
#
#######################################################################

data_QAQGIB
_chemical_formula_moiety         'C19 H19 Br1 O4'
_chemical_name_systematic        '4-(4-bromobenzyl) 1-ethyl 2-phenylsuccinate'
_symmetry_cell_setting           orthorhombic
_symmetry_space_group_name_H-M   'P 21 21 21'
_symmetry_Int_Tables_number      19
_space_group_name_Hall           'P 2ac 2ab'
loop_
_symmetry_equiv_pos_site_id
_symmetry_equiv_pos_as_xyz
1 x,y,z
2 1/2-x,-y,1/2+z
3 1/2+x,1/2-y,-z
4 -x,1/2+y,1/2-z
_cell_length_a                   5.72290(10)
_cell_length_b                   9.5442(2)
_cell_length_c                   32.0798(7)
_cell_angle_alpha                90
_cell_angle_beta                 90
_cell_angle_gamma                90
_cell_volume                     1752.21
_exptl_crystal_colour            colorless
_exptl_crystal_description       needles
_cell_formula_units_Z            4
_exptl_crystal_recrystallization_method hexanes
loop_
_atom_site_label
_atom_site_type_symbol
_atom_site_fract_x
_atom_site_fract_y
_atom_site_fract_z
Br1 Br -0.46876(6) -0.49909(4) -0.06722(2)
O1 O 0.1725(5) 0.3875(4) -0.20358(9)
O2 O 0.5385(4) 0.3151(2) -0.19170(7)
O3 O 0.1503(4) 0.2126(3) -0.05523(7)
O4 O -0.2244(4) 0.1970(2) -0.07625(7)
C1 C 0.3100(6) 0.3233(4) -0.18298(11)
C2 C 0.2527(6) 0.2408(4) -0.14386(10)
H1 H 0.3903 0.2455 -0.1247
C3 C 0.0423(6) 0.3078(3) -0.12183(10)
H2 H 0.0727 0.4087 -0.1171
H3 H -0.0985 0.2991 -0.1396
C4 C 0.0017(6) 0.2352(3) -0.08064(10)
C5 C 0.6190(7) 0.3897(4) -0.22862(11)
H4 H 0.5049 0.3765 -0.2515
H5 H 0.7705 0.3502 -0.2378
C6 C 0.6472(8) 0.5429(4) -0.21997(14)
H6 H 0.7220 0.5883 -0.2439
H7 H 0.7447 0.5557 -0.1951
H8 H 0.4934 0.5851 -0.2152
C7 C 0.2087(6) 0.0875(4) -0.15489(10)
C8 C 0.3719(6) -0.0139(4) -0.14377(9)
H9 H 0.5113 0.0130 -0.1298
C9 C 0.3322(7) -0.1544(4) -0.15294(11)
H10 H 0.4444 -0.2229 -0.1451
C10 C 0.1313(7) -0.1950(4) -0.17335(11)
H11 H 0.1049 -0.2910 -0.1795
C11 C -0.0311(7) -0.0955(4) -0.18476(11)
H12 H -0.1694 -0.1232 -0.1989
C12 C 0.0060(7) 0.0452(4) -0.17569(11)
H13 H -0.1070 0.1130 -0.1837
C13 C -0.2901(6) 0.1305(3) -0.03713(10)
H14 H -0.4343 0.1742 -0.0261
H15 H -0.1643 0.1436 -0.0163
C14 C -0.3305(5) -0.0242(3) -0.04444(9)
C15 C -0.1669(6) -0.1053(4) -0.06561(11)
H16 H -0.0269 -0.0632 -0.0755
C16 C -0.2063(6) -0.2470(4) -0.07250(11)
H17 H -0.0949 -0.3026 -0.0869
C17 C -0.4119(6) -0.3051(3) -0.05778(10)
C18 C -0.5768(6) -0.2277(4) -0.03667(10)
H18 H -0.7161 -0.2701 -0.0267
C19 C -0.5343(6) -0.0860(3) -0.03038(10)
H19 H -0.6470 -0.0307 -0.0162
loop_
_geom_bond_atom_site_label_1
_geom_bond_atom_site_label_2
_geom_bond_site_symmetry_1
_geom_bond_site_symmetry_2
Br1 C17 1_555 1_555
O1 C1 1_555 1_555
O2 C1 1_555 1_555
O3 C4 1_555 1_555
O4 C4 1_555 1_555
C1 C2 1_555 1_555
C2 H1 1_555 1_555
C3 C2 1_555 1_555
H2 C3 1_555 1_555
H3 C3 1_555 1_555
C4 C3 1_555 1_555
C5 O2 1_555 1_555
H4 C5 1_555 1_555
H5 C5 1_555 1_555
C6 C5 1_555 1_555
H6 C6 1_555 1_555
H7 C6 1_555 1_555
H8 C6 1_555 1_555
C7 C2 1_555 1_555
C8 C7 1_555 1_555
H9 C8 1_555 1_555
C9 C8 1_555 1_555
H10 C9 1_555 1_555
C10 C9 1_555 1_555
H11 C10 1_555 1_555
C11 C10 1_555 1_555
H12 C11 1_555 1_555
C12 C7 1_555 1_555
H13 C12 1_555 1_555
C13 O4 1_555 1_555
H14 C13 1_555 1_555
H15 C13 1_555 1_555
C14 C13 1_555 1_555
C15 C14 1_555 1_555
H16 C15 1_555 1_555
C16 C15 1_555 1_555
H17 C16 1_555 1_555
C17 C16 1_555 1_555
C18 C17 1_555 1_555
H18 C18 1_555 1_555
C19 C14 1_555 1_555
H19 C19 1_555 1_555
C11 C12 1_555 1_555
C18 C19 1_555 1_555

#END
