
#######################################################################
#
#                 Cambridge Crystallographic Data Centre
#                                CCDC 
#
#######################################################################
#
# If this CIF has been generated from an entry in the Cambridge 
# Structural Database, then it will include bibliographic, chemical, 
# crystal, experimental, refinement or atomic coordinate data resulting 
# from the CCDC's data processing and validation procedures.
#
#######################################################################

data_QAQHUN
_chemical_compound_source        
'solid cultures of an endolichenic fungus, Preussia africana'
_chemical_name_common            'Preussochromone D'
_chemical_formula_moiety         'C16 H16 O7'
_chemical_name_systematic        
'Methyl 2,3,8-trihydroxy-3-methyl-9-oxo-2,3,4,9-tetrahydro-1H-xanthene-1-carboxylate'
_symmetry_cell_setting           orthorhombic
_symmetry_space_group_name_H-M   'P 21 21 21'
_symmetry_Int_Tables_number      19
_space_group_name_Hall           'P 2ac 2ab'
loop_
_symmetry_equiv_pos_site_id
_symmetry_equiv_pos_as_xyz
1 x,y,z
2 1/2-x,-y,1/2+z
3 -x,1/2+y,1/2-z
4 1/2+x,1/2-y,-z
_cell_length_a                   8.5972(17)
_cell_length_b                   10.312(2)
_cell_length_c                   16.512(3)
_cell_angle_alpha                90
_cell_angle_beta                 90
_cell_angle_gamma                90
_cell_volume                     1463.86
_cell_formula_units_Z            4
loop_
_atom_site_label
_atom_site_type_symbol
_atom_site_fract_x
_atom_site_fract_y
_atom_site_fract_z
C1 C 0.9231(3) 0.0886(2) 0.12358(15)
C2 C 0.8528(3) 0.1222(2) 0.19974(14)
C3 C 0.8364(3) 0.01778(19) 0.26382(13)
H1 H 0.9416 -0.0070 0.2807
C4 C 0.7493(3) 0.0639(2) 0.33993(15)
H2 H 0.7722 0.0052 0.3850
C5 C 0.7942(3) 0.2027(2) 0.36366(15)
C6 C 0.7536(3) 0.2943(2) 0.29451(14)
H3 H 0.6414 0.3021 0.2904
H4 H 0.7956 0.3797 0.3059
C7 C 0.8177(3) 0.2463(2) 0.21572(14)
C8 C 0.8983(3) 0.3187(2) 0.08683(14)
C9 C 0.9175(3) 0.4230(3) 0.03584(16)
H5 H 0.8933 0.5068 0.0522
C10 C 0.9749(3) 0.3975(3) -0.04146(16)
H6 H 0.9884 0.4660 -0.0774
C11 C 1.0124(3) 0.2735(3) -0.06628(17)
H7 H 1.0483 0.2591 -0.1186
C12 C 0.9965(3) 0.1719(3) -0.01373(16)
C13 C 0.9381(3) 0.1928(2) 0.06559(16)
C14 C 0.7582(3) -0.1027(2) 0.23094(15)
C15 C 0.7330(3) -0.3294(2) 0.25478(16)
H8 H 0.6219 -0.3224 0.2516
H9 H 0.7604 -0.3929 0.2948
H10 H 0.7735 -0.3554 0.2031
C16 C 0.7150(3) 0.2447(2) 0.44196(13)
H11 H 0.7481 0.1895 0.4855
H12 H 0.6042 0.2383 0.4358
H13 H 0.7427 0.3328 0.4540
O1 O 0.83835(19) 0.34524(14) 0.16224(9)
O2 O 1.0365(2) 0.05007(17) -0.03707(11)
H14 H 1.0267 0.0003 0.0013
O3 O 0.9735(2) -0.02409(15) 0.10817(9)
O4 O 0.6690(2) -0.10867(17) 0.17547(11)
O5 O 0.7988(2) -0.20415(15) 0.27732(11)
O6 O 0.58640(19) 0.0598(2) 0.32249(11)
H15 H 0.5402 0.0255 0.3603
O7 O 0.95982(19) 0.19782(16) 0.37457(12)
H16 H 0.9937 0.2717 0.3801
loop_
_geom_bond_atom_site_label_1
_geom_bond_atom_site_label_2
_geom_bond_site_symmetry_1
_geom_bond_site_symmetry_2
C1 C2 1_555 1_555
C2 C3 1_555 1_555
C3 H1 1_555 1_555
C4 C3 1_555 1_555
H2 C4 1_555 1_555
C5 C4 1_555 1_555
C6 C5 1_555 1_555
H3 C6 1_555 1_555
H4 C6 1_555 1_555
C7 C2 1_555 1_555
C8 C9 1_555 1_555
C9 H5 1_555 1_555
C10 C9 1_555 1_555
H6 C10 1_555 1_555
C11 C10 1_555 1_555
H7 C11 1_555 1_555
C12 C11 1_555 1_555
C13 C1 1_555 1_555
C14 C3 1_555 1_555
C15 H8 1_555 1_555
H9 C15 1_555 1_555
H10 C15 1_555 1_555
C16 C5 1_555 1_555
H11 C16 1_555 1_555
H12 C16 1_555 1_555
H13 C16 1_555 1_555
O1 C7 1_555 1_555
O2 C12 1_555 1_555
H14 O2 1_555 1_555
O3 C1 1_555 1_555
O4 C14 1_555 1_555
O5 C14 1_555 1_555
O6 C4 1_555 1_555
H15 O6 1_555 1_555
O7 C5 1_555 1_555
H16 O7 1_555 1_555
C6 C7 1_555 1_555
C8 C13 1_555 1_555
C8 O1 1_555 1_555
C12 C13 1_555 1_555
C15 O5 1_555 1_555

#END
