
#######################################################################
#
#                 Cambridge Crystallographic Data Centre
#                                CCDC 
#
#######################################################################
#
# If this CIF has been generated from an entry in the Cambridge 
# Structural Database, then it will include bibliographic, chemical, 
# crystal, experimental, refinement or atomic coordinate data resulting 
# from the CCDC's data processing and validation procedures.
#
#######################################################################

data_QAQJEZ
_chemical_compound_source        'stems of Kadsura polysperma'
_chemical_name_common            'Polysperlignan G'
_chemical_formula_moiety         'C32 H38 O10'
_chemical_name_systematic        
"8-Hydroxy-2,3,13-trimethoxy-6,7-dimethyl-5,6,7,8-tetrahydrobenzo[3',4']cycloocta[1',2':4,5]benzo[1,2-d][1,3]dioxole-1,5-diyl bis(2-methylbut-2-enoate)"
_symmetry_cell_setting           orthorhombic
_symmetry_space_group_name_H-M   'P 21 21 21'
_symmetry_Int_Tables_number      19
_space_group_name_Hall           'P 2ac 2ab'
loop_
_symmetry_equiv_pos_site_id
_symmetry_equiv_pos_as_xyz
1 x,y,z
2 1/2+x,1/2-y,-z
3 -x,1/2+y,1/2-z
4 1/2-x,-y,1/2+z
_cell_length_a                   10.1503(2)
_cell_length_b                   19.3759(3)
_cell_length_c                   30.2635(5)
_cell_angle_alpha                90
_cell_angle_beta                 90
_cell_angle_gamma                90
_cell_volume                     5951.96
_exptl_crystal_colour            colorless
_exptl_crystal_description       block
_cell_formula_units_Z            8
loop_
_atom_site_label
_atom_site_type_symbol
_atom_site_fract_x
_atom_site_fract_y
_atom_site_fract_z
O1 O 1.0037(4) 1.11076(19) 0.04933(11)
O2 O 0.8916(4) 0.8564(2) 0.00466(12)
O3 O 1.1716(4) 0.9952(2) 0.01930(13)
O4 O 1.2487(4) 0.9985(2) -0.07599(13)
O5 O 1.0958(4) 1.0005(2) -0.13256(13)
O6 O 0.8050(4) 1.0138(2) 0.17498(13)
O7 O 0.9248(4) 1.1211(2) 0.13315(12)
O8 O 1.0171(5) 0.8109(3) 0.05768(15)
O9 O 0.6553(4) 1.0358(2) 0.00080(14)
H1 H 0.7173 1.0559 0.0139
O10 O 0.8144(4) 1.1580(2) 0.02266(14)
C1 C 1.1742(6) 1.2114(3) 0.0839(2)
H2 H 1.1023 1.1933 0.1021
H3 H 1.2221 1.2470 0.1005
H4 H 1.2346 1.1738 0.0762
C2 C 1.1197(6) 1.2418(3) 0.0433(2)
H5 H 1.1662 1.2808 0.0324
C3 C 1.0139(6) 1.2229(3) 0.01896(18)
C4 C 0.9327(6) 1.1624(3) 0.03091(18)
C5 C 0.9330(5) 1.0558(3) 0.06775(17)
C6 C 0.9059(5) 0.9977(3) 0.04145(17)
C7 C 0.8417(5) 0.9425(3) 0.06216(17)
C8 C 0.7977(5) 0.8765(3) 0.03770(18)
H6 H 0.7927 0.8384 0.0600
C9 C 1.0009(6) 0.8257(3) 0.0200(2)
C10 C 1.1030(6) 0.8130(3) -0.0146(2)
C11 C 1.0870(9) 0.8039(4) -0.0576(3)
H7 H 1.1648 0.7962 -0.0743
C12 C 0.9646(8) 0.8043(4) -0.0820(2)
H8 H 0.8905 0.8079 -0.0613
H9 H 0.9568 0.7615 -0.0990
H10 H 0.9635 0.8438 -0.1022
C13 C 0.9485(5) 0.9973(3) -0.00606(18)
C14 C 1.0843(5) 0.9994(3) -0.01450(18)
C15 C 1.2782(6) 1.0453(3) 0.0176(2)
H11 H 1.3364 1.0346 -0.0073
H12 H 1.3286 1.0434 0.0452
H13 H 1.2415 1.0917 0.0138
C16 C 1.1222(6) 0.9983(3) -0.05876(19)
C17 C 1.2293(6) 0.9845(4) -0.1219(2)
H14 H 1.2899 1.0131 -0.1399
H15 H 1.2476 0.9353 -0.1282
C18 C 1.0304(6) 0.9996(3) -0.09228(18)
C19 C 0.8974(6) 0.9998(3) -0.08451(19)
H16 H 0.8358 1.0000 -0.1081
C20 C 0.8557(5) 0.9996(3) -0.0401(2)
C21 C 0.7067(5) 0.9945(3) -0.03349(18)
H17 H 0.6670 1.0131 -0.0613
C22 C 0.6569(6) 0.9188(3) -0.02999(18)
H18 H 0.7144 0.8911 -0.0501
C23 C 0.5183(6) 0.9146(4) -0.04935(19)
H19 H 0.4923 0.8661 -0.0523
H20 H 0.5171 0.9366 -0.0785
H21 H 0.4563 0.9384 -0.0297
C24 C 0.6614(5) 0.8823(3) 0.01545(19)
H22 H 0.6368 0.8334 0.0087
C25 C 0.8071(6) 0.9457(3) 0.10699(18)
H23 H 0.7658 0.9072 0.1207
C26 C 0.8331(5) 1.0052(3) 0.13165(17)
C27 C 0.7338(7) 0.9599(4) 0.1964(2)
H24 H 0.6559 0.9481 0.1788
H25 H 0.7063 0.9753 0.2258
H26 H 0.7904 0.9191 0.1992
C28 C 0.8946(5) 1.0615(3) 0.11069(18)
C29 C 0.8094(7) 1.1607(4) 0.1448(2)
H27 H 0.7566 1.1692 0.1182
H28 H 0.8366 1.2049 0.1577
H29 H 0.7568 1.1350 0.1664
C30 C 1.2408(8) 0.8061(4) 0.0068(3)
H30 H 1.3052 0.7929 -0.0158
H31 H 1.2381 0.7708 0.0299
H32 H 1.2665 0.8505 0.0198
C31 C 0.5580(6) 0.9057(4) 0.0487(2)
H33 H 0.5635 0.8769 0.0753
H34 H 0.4701 0.9011 0.0356
H35 H 0.5738 0.9540 0.0566
C32 C 0.9623(6) 1.2664(4) -0.0184(2)
H36 H 0.8749 1.2843 -0.0107
H37 H 0.9558 1.2383 -0.0452
H38 H 1.0225 1.3051 -0.0237
O11 O 0.9919(4) 0.8686(2) 0.30341(12)
O12 O 0.7869(4) 0.7097(2) 0.18068(12)
O13 O 1.1888(5) 0.8172(2) 0.30988(13)
O14 O 0.6813(4) 0.8015(3) 0.15135(15)
O15 O 0.6620(4) 0.6172(3) 0.34137(15)
O16 O 0.5761(5) 0.7270(3) 0.33428(15)
O17 O 0.7155(5) 0.8377(2) 0.27731(15)
O18 O 1.1566(4) 0.7051(2) 0.24208(13)
H39 H 1.1571 0.7329 0.2633
O19 O 1.1467(4) 0.9583(2) 0.16806(13)
O20 O 1.1219(4) 0.9669(2) 0.25784(13)
C33 C 1.3099(11) 0.8217(5) 0.3993(3)
H40 H 1.3202 0.7776 0.4147
H41 H 1.3707 0.8557 0.4119
H42 H 1.3296 0.8155 0.3678
C34 C 1.1704(12) 0.8469(4) 0.4044(2)
H43 H 1.1454 0.8571 0.4340
C35 C 1.0771(9) 0.8573(3) 0.37480(19)
C36 C 1.0965(7) 0.8441(3) 0.32660(18)
C37 C 1.0023(6) 0.8619(3) 0.25728(17)
C38 C 0.9451(5) 0.8046(3) 0.23721(17)
C39 C 0.9605(5) 0.7984(3) 0.19093(17)
C40 C 0.9108(6) 0.7365(3) 0.16465(17)
H44 H 0.8942 0.7535 0.1339
C41 C 0.6769(6) 0.7489(3) 0.17338(17)
C42 C 0.5621(6) 0.7181(4) 0.19477(18)
C43 C 0.4519(7) 0.7544(4) 0.2018(2)
H45 H 0.3817 0.7313 0.2163
C44 C 0.4283(8) 0.8285(4) 0.1888(3)
H46 H 0.5109 0.8545 0.1912
H47 H 0.3624 0.8489 0.2086
H48 H 0.3963 0.8304 0.1583
C45 C 0.9410(13) 0.8844(4) 0.3878(2)
H49 H 0.9364 0.8894 0.4200
H50 H 0.8733 0.8517 0.3779
H51 H 0.9261 0.9293 0.3738
C46 C 1.0710(6) 0.9113(3) 0.23478(18)
C47 C 1.0824(6) 0.9065(3) 0.18858(17)
C48 C 1.0264(5) 0.8498(3) 0.16761(16)
H52 H 1.0334 0.8460 0.1364
C49 C 0.5684(6) 0.6428(3) 0.2093(2)
H53 H 0.4916 0.6321 0.2277
H54 H 0.6491 0.6351 0.2264
H55 H 0.5684 0.6129 0.1832
C50 C 1.0069(6) 0.6745(3) 0.16040(16)
H56 H 0.9672 0.6450 0.1367
C51 C 1.1359(6) 0.6984(3) 0.14106(18)
H57 H 1.1189 0.7260 0.1145
H58 H 1.1897 0.6582 0.1332
H59 H 1.1829 0.7266 0.1628
C52 C 1.0183(6) 0.6252(3) 0.20130(19)
H60 H 0.9305 0.6022 0.2041
C53 C 1.0476(6) 0.6573(3) 0.24720(18)
H61 H 1.0814 0.6187 0.2660
C54 C 0.9268(5) 0.6837(3) 0.26985(16)
C55 C 0.8593(6) 0.6357(3) 0.29562(16)
H62 H 0.8930 0.5904 0.2998
C56 C 0.7429(6) 0.6555(4) 0.31472(17)
C57 C 0.5450(7) 0.6573(4) 0.3446(3)
H63 H 0.4778 0.6396 0.3238
H64 H 0.5088 0.6543 0.3749
C58 C 0.6924(6) 0.7232(4) 0.31009(18)
C59 C 0.7561(6) 0.7704(3) 0.28529(17)
C60 C 0.6075(10) 0.8626(6) 0.3027(3)
H65 H 0.6204 0.8503 0.3338
H66 H 0.5257 0.8417 0.2919
H67 H 0.6020 0.9129 0.2998
C61 C 0.8782(6) 0.7521(3) 0.26508(16)
C62 C 1.1175(7) 0.5669(3) 0.1909(2)
H68 H 1.2074 0.5851 0.1926
H69 H 1.1011 0.5492 0.1611
H70 H 1.1068 0.5295 0.2124
C63 C 1.1766(6) 0.9511(3) 0.12204(18)
H71 H 1.2296 0.9094 0.1175
H72 H 1.2261 0.9915 0.1120
H73 H 1.0945 0.9474 0.1052
C64 C 1.2632(6) 0.9715(3) 0.2572(2)
H74 H 1.3009 0.9306 0.2715
H75 H 1.2912 1.0130 0.2732
H76 H 1.2939 0.9741 0.2265
loop_
_geom_bond_atom_site_label_1
_geom_bond_atom_site_label_2
_geom_bond_site_symmetry_1
_geom_bond_site_symmetry_2
O1 C4 1_555 1_555
O2 C8 1_555 1_555
O3 C14 1_555 1_555
O4 C16 1_555 1_555
O5 C17 1_555 1_555
O6 C26 1_555 1_555
O7 C28 1_555 1_555
O8 C9 1_555 1_555
O9 H1 1_555 1_555
O10 C4 1_555 1_555
C1 H2 1_555 1_555
H3 C1 1_555 1_555
H4 C1 1_555 1_555
C2 C1 1_555 1_555
H5 C2 1_555 1_555
C3 C2 1_555 1_555
C4 C3 1_555 1_555
C5 O1 1_555 1_555
C6 C5 1_555 1_555
C7 C6 1_555 1_555
C8 C7 1_555 1_555
H6 C8 1_555 1_555
C9 O2 1_555 1_555
C10 C9 1_555 1_555
C11 C10 1_555 1_555
H7 C11 1_555 1_555
C12 C11 1_555 1_555
H8 C12 1_555 1_555
H9 C12 1_555 1_555
H10 C12 1_555 1_555
C13 C6 1_555 1_555
C14 C13 1_555 1_555
C15 O3 1_555 1_555
H11 C15 1_555 1_555
H12 C15 1_555 1_555
H13 C15 1_555 1_555
C16 C14 1_555 1_555
C17 O4 1_555 1_555
H14 C17 1_555 1_555
H15 C17 1_555 1_555
C18 O5 1_555 1_555
C19 C18 1_555 1_555
H16 C19 1_555 1_555
C20 C13 1_555 1_555
C21 O9 1_555 1_555
H17 C21 1_555 1_555
C22 C21 1_555 1_555
H18 C22 1_555 1_555
C23 C22 1_555 1_555
H19 C23 1_555 1_555
H20 C23 1_555 1_555
H21 C23 1_555 1_555
C24 C8 1_555 1_555
H22 C24 1_555 1_555
C25 C7 1_555 1_555
H23 C25 1_555 1_555
C26 C25 1_555 1_555
C27 O6 1_555 1_555
H24 C27 1_555 1_555
H25 C27 1_555 1_555
H26 C27 1_555 1_555
C28 C5 1_555 1_555
C29 O7 1_555 1_555
H27 C29 1_555 1_555
H28 C29 1_555 1_555
H29 C29 1_555 1_555
C30 C10 1_555 1_555
H30 C30 1_555 1_555
H31 C30 1_555 1_555
H32 C30 1_555 1_555
C31 C24 1_555 1_555
H33 C31 1_555 1_555
H34 C31 1_555 1_555
H35 C31 1_555 1_555
C32 C3 1_555 1_555
H36 C32 1_555 1_555
H37 C32 1_555 1_555
H38 C32 1_555 1_555
O11 C36 1_555 1_555
O12 C40 1_555 1_555
O13 C36 1_555 1_555
O14 C41 1_555 1_555
O15 C56 1_555 1_555
O16 C57 1_555 1_555
O17 C59 1_555 1_555
O18 H39 1_555 1_555
O19 C47 1_555 1_555
O20 C46 1_555 1_555
C33 H40 1_555 1_555
H41 C33 1_555 1_555
H42 C33 1_555 1_555
C34 C33 1_555 1_555
H43 C34 1_555 1_555
C35 C34 1_555 1_555
C36 C35 1_555 1_555
C37 O11 1_555 1_555
C38 C37 1_555 1_555
C39 C38 1_555 1_555
C40 C39 1_555 1_555
H44 C40 1_555 1_555
C41 O12 1_555 1_555
C42 C41 1_555 1_555
C43 C42 1_555 1_555
H45 C43 1_555 1_555
C44 C43 1_555 1_555
H46 C44 1_555 1_555
H47 C44 1_555 1_555
H48 C44 1_555 1_555
C45 C35 1_555 1_555
H49 C45 1_555 1_555
H50 C45 1_555 1_555
H51 C45 1_555 1_555
C46 C37 1_555 1_555
C47 C46 1_555 1_555
C48 C39 1_555 1_555
H52 C48 1_555 1_555
C49 C42 1_555 1_555
H53 C49 1_555 1_555
H54 C49 1_555 1_555
H55 C49 1_555 1_555
C50 C40 1_555 1_555
H56 C50 1_555 1_555
C51 C50 1_555 1_555
H57 C51 1_555 1_555
H58 C51 1_555 1_555
H59 C51 1_555 1_555
C52 C50 1_555 1_555
H60 C52 1_555 1_555
C53 O18 1_555 1_555
H61 C53 1_555 1_555
C54 C53 1_555 1_555
C55 C54 1_555 1_555
H62 C55 1_555 1_555
C56 C55 1_555 1_555
C57 O15 1_555 1_555
H63 C57 1_555 1_555
H64 C57 1_555 1_555
C58 O16 1_555 1_555
C59 C58 1_555 1_555
C60 O17 1_555 1_555
H65 C60 1_555 1_555
H66 C60 1_555 1_555
H67 C60 1_555 1_555
C61 C38 1_555 1_555
C62 C52 1_555 1_555
H68 C62 1_555 1_555
H69 C62 1_555 1_555
H70 C62 1_555 1_555
C63 O19 1_555 1_555
H71 C63 1_555 1_555
H72 C63 1_555 1_555
H73 C63 1_555 1_555
C64 O20 1_555 1_555
H74 C64 1_555 1_555
H75 C64 1_555 1_555
H76 C64 1_555 1_555
C16 C18 1_555 1_555
C19 C20 1_555 1_555
C20 C21 1_555 1_555
C22 C24 1_555 1_555
C26 C28 1_555 1_555
C47 C48 1_555 1_555
C52 C53 1_555 1_555
C54 C61 1_555 1_555
C56 C58 1_555 1_555
C59 C61 1_555 1_555

#END
