
#######################################################################
#
#                 Cambridge Crystallographic Data Centre
#                                CCDC 
#
#######################################################################
#
# If this CIF has been generated from an entry in the Cambridge 
# Structural Database, then it will include bibliographic, chemical, 
# crystal, experimental, refinement or atomic coordinate data resulting 
# from the CCDC's data processing and validation procedures.
#
#######################################################################

data_QAQLOJ
_chemical_formula_moiety         'C13 H28 N2 O3 Si1,H2 O1'
_chemical_name_systematic        
"(5R,1'R,2'S)-5-(1'-t-butyldimethylsiloxy-2'-hydroxy-1'-propyl)-2-methyl-pyrazolidin-3-one monohydrate"
_symmetry_cell_setting           monoclinic
_symmetry_space_group_name_H-M   'C 2'
_symmetry_Int_Tables_number      5
_space_group_name_Hall           'C 2y'
loop_
_symmetry_equiv_pos_site_id
_symmetry_equiv_pos_as_xyz
1 x,y,z
2 -x,y,-z
3 1/2+x,1/2+y,z
4 1/2-x,1/2+y,-z
_cell_length_a                   35.486(9)
_cell_length_b                   7.0960(10)
_cell_length_c                   7.2050(10)
_cell_angle_alpha                90
_cell_angle_beta                 91.25(2)
_cell_angle_gamma                90
_cell_volume                     1813.85
_exptl_crystal_colour            white
_chemical_melting_point          84-86deg.C
_cell_formula_units_Z            4
loop_
_atom_site_label
_atom_site_type_symbol
_atom_site_fract_x
_atom_site_fract_y
_atom_site_fract_z
N1 N 0.9419(2) 0.2677(14) 1.1887(11)
N2 N 0.9495(2) 0.2629(14) 1.3798(12)
C1 C 0.9532(3) 0.4247(16) 1.4644(16)
C2 C 0.9501(3) 0.5747(16) 1.3193(15)
C3 C 0.9451(3) 0.4737(13) 1.1368(14)
C4 C 0.9103(2) 0.5309(15) 1.0256(12)
C5 C 0.9156(3) 0.7308(17) 0.9404(14)
C6 C 0.8838(3) 0.7769(26) 0.8064(18)
O1 O 0.9582(2) 0.4425(14) 1.6335(11)
O2 O 0.8780(2) 0.5400(10) 1.1485(8)
C7 C 0.9489(5) 0.0789(17) 1.4760(23)
O4 O 0.9511(2) 0.7475(13) 0.8469(10)
Si1 Si 0.8421(1) 0.3966 1.1750(5)
C8 C 0.8249(8) 0.3082(78) 0.9628(75)
C9 C 0.8505(8) 0.2235(83) 1.3512(79)
C12 C 0.8032(3) 0.5451(26) 1.2623(22)
C13 C 0.7934(8) 0.7104(44) 1.1390(50)
C14 C 0.7693(9) 0.4148(78) 1.2915(44)
C15 C 0.8133(7) 0.6443(52) 1.4348(44)
H1 H 0.9367(2) 0.1743(14) 1.1166(11)
H2 H 0.9727(3) 0.6516(16) 1.3196(15)
H3 H 0.9286(3) 0.6555(16) 1.3419(15)
H4 H 0.9675(3) 0.4927(13) 1.0619(14)
H5 H 0.9053(2) 0.4391(15) 0.9265(12)
H6 H 0.9154(3) 0.8232(17) 1.0415(14)
H7 H 0.8877(3) 0.9001(26) 0.7552(18)
H8 H 0.8604(3) 0.7746(26) 0.8703(18)
H9 H 0.8831(8) 0.6855(26) 0.7081(18)
H10 H 0.9460(5) -0.0202(17) 1.3862(23)
H11 H 0.9282(5) 0.0759(17) 1.5596(23)
H12 H 0.9721(5) 0.0617(17) 1.5448(23)
H13 H 0.9499(19) 0.661(12) 0.751(11)
H14 H 0.8208(8) 0.4198(78) 0.8688(75)
H15 H 0.7991(8) 0.2393(78) 0.9831(75)
H16 H 0.8444(8) 0.2124(78) 0.9091(75)
H17 H 0.8604(8) 0.2900(83) 1.4731(79)
H18 H 0.8708(8) 0.1271(83) 1.3061(79)
H19 H 0.8254(8) 0.1518(83) 1.3780(79)
O3 O 0.0000 0.0082(17) 0.0000
H26 H -0.0099(23) -0.056(13) -0.067(11)
H26A H 0.0099(23) -0.056(13) 0.067(11)
C10? C 0.8421(9) 0.2403(56) 0.9798(77)
C11? C 0.8498(23) 0.220(12) 1.412(13)
C16? C 0.7870(14) 0.607(10) 1.006(10)
C17? C 0.7675(19) 0.4271(81) 1.3810(73)
C18? C 0.8077(53) 0.738(15) 1.338(26)
H20? H 0.8396(9) 0.3189(56) 0.8566(77)
H21? H 0.8193(9) 0.1467(56) 0.9881(77)
H22? H 0.8674(9) 0.1637(56) 0.9802(77)
H23? H 0.8497(23) 0.302(12) 1.533(13)
H24? H 0.8756(23) 0.149(12) 1.404(13)
H25? H 0.8278(23) 0.121(12) 1.416(13)
loop_
_geom_bond_atom_site_label_1
_geom_bond_atom_site_label_2
_geom_bond_site_symmetry_1
_geom_bond_site_symmetry_2
N1 N2 1_555 1_555
N2 C1 1_555 1_555
C1 C2 1_555 1_555
C2 C3 1_555 1_555
C3 N1 1_555 1_555
C4 C3 1_555 1_555
C5 C4 1_555 1_555
C6 C5 1_555 1_555
O1 C1 1_555 1_555
O2 C4 1_555 1_555
C7 N2 1_555 1_555
O3 H26 1_555 1_555
O4 C5 1_555 1_555
Si1 O2 1_555 1_555
C8 Si1 1_555 1_555
C9 Si1 1_555 1_555
C12 Si1 1_555 1_555
C13 C12 1_555 1_555
C14 C12 1_555 1_555
C15 C12 1_555 1_555
H1 N1 1_555 1_555
H2 C2 1_555 1_555
H3 C2 1_555 1_555
H4 C3 1_555 1_555
H5 C4 1_555 1_555
H6 C5 1_555 1_555
H7 C6 1_555 1_555
H8 C6 1_555 1_555
H9 C6 1_555 1_555
H10 C7 1_555 1_555
H11 C7 1_555 1_555
H12 C7 1_555 1_555
H13 O4 1_555 1_555
H14 C8 1_555 1_555
H15 C8 1_555 1_555
H16 C8 1_555 1_555
H17 C9 1_555 1_555
H18 C9 1_555 1_555
H19 C9 1_555 1_555
H26A O3 1_555 1_555

#END
