
#######################################################################
#
#                 Cambridge Crystallographic Data Centre
#                                CCDC 
#
#######################################################################
#
# If this CIF has been generated from an entry in the Cambridge 
# Structural Database, then it will include bibliographic, chemical, 
# crystal, experimental, refinement or atomic coordinate data resulting 
# from the CCDC's data processing and validation procedures.
#
#######################################################################

data_QAQLEA02
_chemical_compound_source        'Kadsura longipedunculata'
_chemical_name_common            'micrandilactone C trihydrate'
_chemical_formula_moiety         'C29 H42 O9,3(H2 O1)'
_chemical_name_systematic        
"7b,8,12a-trihydroxy-10-(1-hydroxy-1-(4-methyl-5-oxo-2,5-dihydrofuran-2-yl)propan-2-yl)-5,5,10a-trimethylhexadecahydro-2H-furo[3,2-b]indeno[4',5':5,6]cyclohepta[1,2-c]furan-2-one trihydrate"
_symmetry_cell_setting           triclinic
_symmetry_space_group_name_H-M   'P 1'
_symmetry_Int_Tables_number      1
_space_group_name_Hall           'P 1'
loop_
_symmetry_equiv_pos_site_id
_symmetry_equiv_pos_as_xyz
1 x,y,z
_cell_length_a                   7.7270(3)
_cell_length_b                   10.3566(4)
_cell_length_c                   18.3769(8)
_cell_angle_alpha                84.926(3)
_cell_angle_beta                 80.064(3)
_cell_angle_gamma                89.861(3)
_cell_volume                     1442.76
_exptl_crystal_colour            colorless
_exptl_crystal_description       plate
_cell_formula_units_Z            2
_exptl_crystal_recrystallization_method methanol/water
loop_
_atom_site_label
_atom_site_type_symbol
_atom_site_fract_x
_atom_site_fract_y
_atom_site_fract_z
C1 C 0.805(2) 0.5505(17) 0.3742(8)
H1 H 0.7687 0.6420 0.3637
C2 C 0.693(2) 0.4557(19) 0.3442(9)
H2 H 0.5705 0.4864 0.3469
H3 H 0.7418 0.4408 0.2923
C3 C 0.701(2) 0.3389(19) 0.3940(9)
C4 C 1.0798(19) 0.5284(15) 0.4106(7)
C5 C 0.9450(18) 0.5309(15) 0.4828(8)
H4 H 0.9688 0.4554 0.5174
C6 C 0.944(2) 0.6536(16) 0.5240(8)
H5 H 0.8837 0.7230 0.4979
H6 H 1.0668 0.6826 0.5218
C7 C 0.8513(19) 0.6361(16) 0.6079(8)
H7 H 0.8895 0.5530 0.6307
H8 H 0.8930 0.7064 0.6340
C8 C 0.6498(17) 0.6368(15) 0.6215(7)
H9 H 0.6185 0.7192 0.5943
C9 C 0.5640(17) 0.5319(14) 0.5893(7)
C10 C 0.7691(18) 0.5071(13) 0.4605(8)
C11 C 0.3642(19) 0.5358(16) 0.6125(8)
H10 H 0.3092 0.4654 0.5909
H11 H 0.3202 0.6195 0.5931
C12 C 0.3128(17) 0.5196(14) 0.6974(7)
H12 H 0.3601 0.4369 0.7164
H13 H 0.1831 0.5147 0.7108
C13 C 0.3823(18) 0.6328(15) 0.7355(8)
C14 C 0.5836(16) 0.6543(15) 0.7057(8)
C15 C 0.675(2) 0.5728(16) 0.7621(8)
H14 H 0.7973 0.6070 0.7600
C16 C 0.5648(17) 0.5941(14) 0.8355(7)
H15 H 0.5886 0.6809 0.8505
H16 H 0.5887 0.5275 0.8745
C17 C 0.3751(17) 0.5831(15) 0.8229(7)
H17 H 0.3451 0.4885 0.8282
C18 C 0.285(2) 0.7548(16) 0.7227(7)
H18 H 0.3185 0.7902 0.6710
H19 H 0.3129 0.8182 0.7556
H20 H 0.1579 0.7362 0.7332
C19 C 0.5998(18) 0.5569(15) 0.5027(7)
H21 H 0.5009 0.5181 0.4840
H22 H 0.5970 0.6517 0.4900
C20 C 0.2356(19) 0.6467(18) 0.8769(8)
H23 H 0.2435 0.7424 0.8632
C21 C 0.048(2) 0.6006(19) 0.8706(9)
H24 H 0.0256 0.5134 0.8959
H25 H 0.0388 0.5987 0.8181
H26 H -0.0387 0.6605 0.8936
C22 C 0.2585(19) 0.6218(17) 0.9602(8)
H27 H 0.3769 0.6607 0.9601
C23 C 0.2772(19) 0.4764(18) 0.9945(8)
H28 H 0.3660 0.4277 0.9616
C24 C 0.318(2) 0.4750(18) 1.0695(9)
H29 H 0.4203 0.5125 1.0819
C25 C 0.190(2) 0.4129(18) 1.1173(9)
C26 C 0.057(2) 0.3797(19) 1.0773(9)
C27 C 0.177(3) 0.387(2) 1.2004(10)
H30 H 0.2941 0.3928 1.2135
H31 H 0.1278 0.2996 1.2162
H32 H 0.1001 0.4509 1.2253
C28 C 1.177(2) 0.400(2) 0.4092(9)
H33 H 1.2379 0.3898 0.3587
H34 H 1.0920 0.3281 0.4251
H35 H 1.2623 0.3984 0.4428
C29 C 1.206(2) 0.6439(17) 0.3908(9)
H36 H 1.2801 0.6351 0.3427
H37 H 1.2796 0.6471 0.4289
H38 H 1.1383 0.7240 0.3881
O1 O 0.6662(19) 0.2268(14) 0.3856(7)
O2 O 0.7494(13) 0.3634(11) 0.4578(5)
O3 O 0.9836(14) 0.5356(11) 0.3518(5)
O4 O 0.6275(13) 0.4060(10) 0.6081(6)
H39 H 0.5765 0.3505 0.5883
O5 O 0.6320(13) 0.7874(10) 0.7184(5)
H40 H 0.5877 0.8409 0.6900
O6 O 0.6815(14) 0.4408(12) 0.7465(6)
H41 H 0.6193 0.3956 0.7815
O7 O 0.1454(14) 0.6983(12) 1.0072(6)
H42 H 0.1438 0.7740 0.9868
O8 O -0.0863(16) 0.3166(14) 1.0978(7)
O9 O 0.1054(14) 0.4182(11) 1.0039(5)
C30 C 0.4573(18) 0.9213(16) 1.2124(8)
H43 H 0.4898 1.0106 1.2224
C31 C 0.565(2) 0.8222(17) 1.2423(8)
H44 H 0.5131 0.7913 1.2940
H45 H 0.6855 0.8551 1.2412
C32 C 0.565(2) 0.7133(18) 1.1903(9)
C33 C 0.167(2) 0.9047(16) 1.1768(8)
C34 C 0.3104(17) 0.9339(15) 1.1034(7)
H46 H 0.2893 0.8708 1.0676
C35 C 0.3119(18) 1.0690(15) 1.0637(8)
H47 H 0.3743 1.1287 1.0898
H48 H 0.1893 1.0987 1.0668
C36 C 0.4020(19) 1.0782(15) 0.9794(7)
H49 H 0.3652 1.0017 0.9568
H50 H 0.3581 1.1562 0.9535
C37 C 0.6027(18) 1.0850(15) 0.9659(7)
H51 H 0.6316 1.1594 0.9931
C38 C 0.6954(18) 0.9691(15) 0.9988(8)
C39 C 0.4869(19) 0.9019(16) 1.1264(8)
C40 C 0.8943(17) 0.9798(15) 0.9763(8)
H52 H 0.9505 0.9038 0.9986
H53 H 0.9383 1.0590 0.9939
C41 C 0.9391(18) 0.9856(16) 0.8908(7)
H54 H 1.0680 0.9805 0.8755
H55 H 0.8850 0.9099 0.8737
C42 C 0.874(2) 1.1088(17) 0.8542(8)
C43 C 0.6700(17) 1.1297(14) 0.8813(7)
C44 C 0.5772(19) 1.0655(14) 0.8260(8)
H56 H 0.4549 1.0980 0.8273
C45 C 0.6904(17) 1.1062(14) 0.7546(7)
H57 H 0.6679 1.1977 0.7388
H58 H 0.6659 1.0517 0.7158
C46 C 0.8838(15) 1.0904(13) 0.7658(7)
H59 H 0.9145 0.9978 0.7592
C47 C 0.9718(17) 1.2302(14) 0.8691(7)
H60 H 0.9581 1.2362 0.9227
H61 H 0.9226 1.3075 0.8459
H62 H 1.0968 1.2245 0.8482
C48 C 0.651(2) 0.9632(16) 1.0849(8)
H63 H 0.7496 0.9182 1.1042
H64 H 0.6532 1.0535 1.0985
C49 C 1.0188(16) 1.1721(13) 0.7118(7)
H65 H 1.0071 1.2625 0.7270
C50 C 1.2049(18) 1.1301(17) 0.7188(8)
H66 H 1.2894 1.1938 0.6901
H67 H 1.2267 1.0451 0.6997
H68 H 1.2181 1.1245 0.7711
C51 C 0.9890(18) 1.1794(15) 0.6309(8)
H69 H 0.8721 1.2207 0.6304
C52 C 0.981(2) 1.0487(17) 0.5951(9)
H70 H 0.8842 0.9917 0.6241
C53 C 0.954(2) 1.0765(17) 0.5168(8)
H71 H 0.8559 1.1206 0.5019
C54 C 1.091(2) 1.0289(17) 0.4696(9)
C55 C 1.206(2) 0.9633(17) 0.5164(8)
C56 C 1.124(3) 1.036(2) 0.3874(9)
H72 H 1.0244 1.0784 0.3686
H73 H 1.1370 0.9487 0.3712
H74 H 1.2314 1.0869 0.3680
C57 C 0.071(2) 0.7806(16) 1.1788(9)
H75 H -0.0181 0.7698 1.2238
H76 H 0.1540 0.7088 1.1787
H77 H 0.0142 0.7811 1.1351
C58 C 0.0419(19) 1.0177(17) 1.1954(10)
H78 H -0.0435 0.9917 1.2402
H79 H -0.0202 1.0404 1.1539
H80 H 0.1099 1.0931 1.2039
O10 O 0.6109(16) 0.6023(12) 1.1991(7)
O11 O 0.5082(13) 0.7590(11) 1.1302(5)
O12 O 0.2790(14) 0.8921(12) 1.2366(6)
O13 O 0.6276(13) 0.8483(10) 0.9794(5)
H81 H 0.6765 0.7855 0.9995
O14 O 0.6226(13) 1.2609(11) 0.8706(5)
H82 H 0.6680 1.3047 0.8990
O15 O 0.5786(14) 0.9258(10) 0.8419(6)
H83 H 0.5779 0.8901 0.8026
O16 O 1.1157(13) 1.2643(11) 0.5836(5)
H84 H 1.1219 1.3343 0.6029
O17 O 1.3417(15) 0.9069(12) 0.4995(6)
O18 O 1.1501(13) 0.9797(11) 0.5873(5)
O19 O 0.4773(13) 0.2063(11) 0.5546(5)
O20 O 0.7804(13) 0.6284(11) 1.0353(6)
O21 O 0.6927(14) 1.3931(12) 0.9909(6)
O22 O 0.5688(15) 0.9593(12) 0.6000(6)
O23 O 0.676(3) 0.915(3) 1.3939(13)
O24 O 0.636(3) 1.214(2) 1.2192(11)
loop_
_geom_bond_atom_site_label_1
_geom_bond_atom_site_label_2
_geom_bond_site_symmetry_1
_geom_bond_site_symmetry_2
C1 H1 1_555 1_555
C2 C1 1_555 1_555
H2 C2 1_555 1_555
H3 C2 1_555 1_555
C3 C2 1_555 1_555
C4 C5 1_555 1_555
C5 H4 1_555 1_555
C6 C5 1_555 1_555
H5 C6 1_555 1_555
H6 C6 1_555 1_555
C7 C6 1_555 1_555
H7 C7 1_555 1_555
H8 C7 1_555 1_555
C8 C7 1_555 1_555
H9 C8 1_555 1_555
C9 C8 1_555 1_555
C10 C1 1_555 1_555
C11 C9 1_555 1_555
H10 C11 1_555 1_555
H11 C11 1_555 1_555
C12 C11 1_555 1_555
H12 C12 1_555 1_555
H13 C12 1_555 1_555
C13 C12 1_555 1_555
C14 C8 1_555 1_555
C15 C14 1_555 1_555
H14 C15 1_555 1_555
C16 C15 1_555 1_555
H15 C16 1_555 1_555
H16 C16 1_555 1_555
C17 C13 1_555 1_555
H17 C17 1_555 1_555
C18 C13 1_555 1_555
H18 C18 1_555 1_555
H19 C18 1_555 1_555
H20 C18 1_555 1_555
C19 C9 1_555 1_555
H21 C19 1_555 1_555
H22 C19 1_555 1_555
C20 C17 1_555 1_555
H23 C20 1_555 1_555
C21 C20 1_555 1_555
H24 C21 1_555 1_555
H25 C21 1_555 1_555
H26 C21 1_555 1_555
C22 C20 1_555 1_555
H27 C22 1_555 1_555
C23 C22 1_555 1_555
H28 C23 1_555 1_555
C24 C23 1_555 1_555
H29 C24 1_555 1_555
C25 C24 1_555 1_555
C26 C25 1_555 1_555
C27 C25 1_555 1_555
H30 C27 1_555 1_555
H31 C27 1_555 1_555
H32 C27 1_555 1_555
C28 C4 1_555 1_555
H33 C28 1_555 1_555
H34 C28 1_555 1_555
H35 C28 1_555 1_555
C29 C4 1_555 1_555
H36 C29 1_555 1_555
H37 C29 1_555 1_555
H38 C29 1_555 1_555
O1 C3 1_555 1_555
O2 C3 1_555 1_555
O3 C1 1_555 1_555
O4 C9 1_555 1_555
H39 O4 1_555 1_555
O5 C14 1_555 1_555
H40 O5 1_555 1_555
O6 C15 1_555 1_555
H41 O6 1_555 1_555
O7 C22 1_555 1_555
H42 O7 1_555 1_555
O8 C26 1_555 1_555
O9 C23 1_555 1_555
C30 H43 1_555 1_555
C31 C30 1_555 1_555
H44 C31 1_555 1_555
H45 C31 1_555 1_555
C32 C31 1_555 1_555
C33 C34 1_555 1_555
C34 H46 1_555 1_555
C35 C34 1_555 1_555
H47 C35 1_555 1_555
H48 C35 1_555 1_555
C36 C35 1_555 1_555
H49 C36 1_555 1_555
H50 C36 1_555 1_555
C37 C36 1_555 1_555
H51 C37 1_555 1_555
C38 C37 1_555 1_555
C39 C30 1_555 1_555
C40 C38 1_555 1_555
H52 C40 1_555 1_555
H53 C40 1_555 1_555
C41 C40 1_555 1_555
H54 C41 1_555 1_555
H55 C41 1_555 1_555
C42 C41 1_555 1_555
C43 C37 1_555 1_555
C44 C43 1_555 1_555
H56 C44 1_555 1_555
C45 C44 1_555 1_555
H57 C45 1_555 1_555
H58 C45 1_555 1_555
C46 C42 1_555 1_555
H59 C46 1_555 1_555
C47 C42 1_555 1_555
H60 C47 1_555 1_555
H61 C47 1_555 1_555
H62 C47 1_555 1_555
C48 C38 1_555 1_555
H63 C48 1_555 1_555
H64 C48 1_555 1_555
C49 C46 1_555 1_555
H65 C49 1_555 1_555
C50 C49 1_555 1_555
H66 C50 1_555 1_555
H67 C50 1_555 1_555
H68 C50 1_555 1_555
C51 C49 1_555 1_555
H69 C51 1_555 1_555
C52 C51 1_555 1_555
H70 C52 1_555 1_555
C53 C52 1_555 1_555
H71 C53 1_555 1_555
C54 C53 1_555 1_555
C55 C54 1_555 1_555
C56 C54 1_555 1_555
H72 C56 1_555 1_555
H73 C56 1_555 1_555
H74 C56 1_555 1_555
C57 C33 1_555 1_555
H75 C57 1_555 1_555
H76 C57 1_555 1_555
H77 C57 1_555 1_555
C58 C33 1_555 1_555
H78 C58 1_555 1_555
H79 C58 1_555 1_555
H80 C58 1_555 1_555
O10 C32 1_555 1_555
O11 C32 1_555 1_555
O12 C30 1_555 1_555
O13 C38 1_555 1_555
H81 O13 1_555 1_555
O14 C43 1_555 1_555
H82 O14 1_555 1_555
O15 C44 1_555 1_555
H83 O15 1_555 1_555
O16 C51 1_555 1_555
H84 O16 1_555 1_555
O17 C55 1_555 1_555
O18 C52 1_555 1_555
C4 O3 1_555 1_555
C5 C10 1_555 1_555
C10 C19 1_555 1_555
C10 O2 1_555 1_555
C13 C14 1_555 1_555
C16 C17 1_555 1_555
C26 O9 1_555 1_555
C33 O12 1_555 1_555
C34 C39 1_555 1_555
C39 C48 1_555 1_555
C39 O11 1_555 1_555
C42 C43 1_555 1_555
C45 C46 1_555 1_555
C55 O18 1_555 1_555

#END
