
#######################################################################
#
#                 Cambridge Crystallographic Data Centre
#                                CCDC 
#
#######################################################################
#
# If this CIF has been generated from an entry in the Cambridge 
# Structural Database, then it will include bibliographic, chemical, 
# crystal, experimental, refinement or atomic coordinate data resulting 
# from the CCDC's data processing and validation procedures.
#
#######################################################################

data_QARFOF
_chemical_formula_moiety         'C20 H38 O5 Si1'
_chemical_name_systematic        
'Methyl 2-((2R,3R,4R,6R)-4-(tri-isopropylsiloxy)-3-methyl-6-(2-oxoethyl)-2H-3,4,5,6-tetrahydropyran-2-yl)acetate'
_symmetry_cell_setting           monoclinic
_symmetry_space_group_name_H-M   'P 21'
_symmetry_Int_Tables_number      4
_space_group_name_Hall           'P 2yb'
loop_
_symmetry_equiv_pos_site_id
_symmetry_equiv_pos_as_xyz
1 x,y,z
2 -x,1/2+y,-z
_cell_length_a                   8.5188(7)
_cell_length_b                   8.1021(8)
_cell_length_c                   17.7649(13)
_cell_angle_alpha                90
_cell_angle_beta                 98.111(7)
_cell_angle_gamma                90
_cell_volume                     1213.87
_exptl_crystal_colour            colorless
_exptl_crystal_description       block
_chemical_melting_point          '85-90 deg.C(dec.)'
_cell_formula_units_Z            2
loop_
_atom_site_label
_atom_site_type_symbol
_atom_site_fract_x
_atom_site_fract_y
_atom_site_fract_z
O1 O -0.2497(7) 0.1264(6) -0.1063(3)
O2 O 0.1291(5) 0.1215(3) 0.04039(15)
O3 O 0.1855(5) 0.1903(4) 0.27296(15)
O4 O 0.3557(5) 0.2397(4) -0.07734(18)
O5 O 0.3304(6) -0.0311(5) -0.0907(2)
C1 C -0.1587(8) 0.1870(6) -0.0586(3)
H1 H -0.0882 0.2638 -0.0736
C2 C -0.1474(7) 0.1511(6) 0.0230(3)
H2 H -0.1563 0.0328 0.0298
H3 H -0.2361 0.2027 0.0426
C3 C 0.0015(7) 0.2088(5) 0.0682(2)
H4 H 0.0135 0.3269 0.0587
C4 C 0.0104(7) 0.1823(6) 0.1536(2)
H5 H -0.0708 0.2479 0.1726
H6 H -0.0098 0.0671 0.1636
C5 C 0.1707(7) 0.2304(6) 0.1944(2)
H7 H 0.1825 0.3501 0.1898
C6 C 0.3051(7) 0.1468(5) 0.1600(2)
H8 H 0.2990 0.0278 0.1689
C7 C 0.2819(7) 0.1760(5) 0.0741(2)
H9 H 0.2923 0.2942 0.0643
C8 C 0.3978(7) 0.0823(7) 0.0341(3)
H10 H 0.5028 0.1289 0.0481
H11 H 0.4011 -0.0316 0.0511
C9 C 0.3573(7) 0.0860(7) -0.0507(3)
C10 C 0.3204(10) 0.2515(9) -0.1588(3)
H12 H 0.4082 0.3014 -0.1786
H13 H 0.2273 0.3179 -0.1722
H14 H 0.3021 0.1431 -0.1800
C11 C 0.4712(8) 0.2079(8) 0.1968(3)
H15 H 0.4826 0.1912 0.2508
H16 H 0.4818 0.3232 0.1862
H17 H 0.5518 0.1470 0.1761
Si1 Si 0.1353(3) 0.2862(2) 0.34604(7)
C12 C 0.1714(16) 0.5162(11) 0.3414(5)
H18 H 0.1591 0.5582 0.3919
C13 C 0.342(2) 0.5590(15) 0.3305(7)
H19 H 0.3767 0.4852 0.2940
H20 H 0.4098 0.5482 0.3781
H21 H 0.3457 0.6705 0.3125
C14 C 0.036(2) 0.5957(19) 0.2869(6)
H22 H 0.0547 0.7122 0.2837
H23 H -0.0628 0.5775 0.3057
H24 H 0.0316 0.5471 0.2374
C15 C 0.2610(16) 0.1872(15) 0.4273(3)
H26 H 0.3555 0.2491 0.4184
C17 C 0.2526(13) 0.2758(16) 0.5057(3)
H30 H 0.3175 0.2173 0.5456
H31 H 0.1448 0.2770 0.5158
H32 H 0.2903 0.3871 0.5035
C18 C 0.331(7) 0.044(5) 0.4217(9)
H33 H 0.4171 0.0565 0.3929
H34 H 0.2555 -0.0336 0.3965
H35 H 0.3702 0.0036 0.4716
C19 C -0.0866(17) 0.2457(17) 0.3478(5)
H36 H -0.1424 0.2990 0.3022
C20 C -0.1292(14) 0.073(2) 0.3414(6)
H37 H -0.0369 0.0062 0.3568
H38 H -0.1710 0.0477 0.2896
H39 H -0.2080 0.0491 0.3736
C21 C -0.1537(19) 0.317(3) 0.4122(8)
H40 H -0.2648 0.3375 0.3975
H41 H -0.1007 0.4190 0.4270
H42 H -0.1394 0.2414 0.4542
H25? H 0.1936 0.0918 0.4339
C16? C 0.4087(16) 0.0981(15) 0.4169(3)
H27? H 0.4759 0.0896 0.4649
H28? H 0.4632 0.1574 0.3816
H29? H 0.3826 -0.0106 0.3974
loop_
_geom_bond_atom_site_label_1
_geom_bond_atom_site_label_2
_geom_bond_site_symmetry_1
_geom_bond_site_symmetry_2
O1 C1 1_555 1_555
O2 C3 1_555 1_555
O3 C5 1_555 1_555
O4 C9 1_555 1_555
O5 C9 1_555 1_555
C1 H1 1_555 1_555
C2 C1 1_555 1_555
H2 C2 1_555 1_555
H3 C2 1_555 1_555
C3 C2 1_555 1_555
H4 C3 1_555 1_555
C4 C3 1_555 1_555
H5 C4 1_555 1_555
H6 C4 1_555 1_555
C5 C4 1_555 1_555
H7 C5 1_555 1_555
C6 C5 1_555 1_555
H8 C6 1_555 1_555
C7 O2 1_555 1_555
H9 C7 1_555 1_555
C8 C7 1_555 1_555
H10 C8 1_555 1_555
H11 C8 1_555 1_555
C9 C8 1_555 1_555
C10 O4 1_555 1_555
H12 C10 1_555 1_555
H13 C10 1_555 1_555
H14 C10 1_555 1_555
C11 C6 1_555 1_555
H15 C11 1_555 1_555
H16 C11 1_555 1_555
H17 C11 1_555 1_555
Si1 O3 1_555 1_555
C12 Si1 1_555 1_555
H18 C12 1_555 1_555
C13 C12 1_555 1_555
H19 C13 1_555 1_555
H20 C13 1_555 1_555
H21 C13 1_555 1_555
C14 C12 1_555 1_555
H22 C14 1_555 1_555
H23 C14 1_555 1_555
H24 C14 1_555 1_555
C15 Si1 1_555 1_555
H26 C15 1_555 1_555
C17 C15 1_555 1_555
H30 C17 1_555 1_555
H31 C17 1_555 1_555
H32 C17 1_555 1_555
C18 C15 1_555 1_555
H33 C18 1_555 1_555
H34 C18 1_555 1_555
H35 C18 1_555 1_555
C19 Si1 1_555 1_555
H36 C19 1_555 1_555
C20 C19 1_555 1_555
H37 C20 1_555 1_555
H38 C20 1_555 1_555
H39 C20 1_555 1_555
C21 C19 1_555 1_555
H40 C21 1_555 1_555
H41 C21 1_555 1_555
H42 C21 1_555 1_555
C6 C7 1_555 1_555

#END
