
#######################################################################
#
#                 Cambridge Crystallographic Data Centre
#                                CCDC 
#
#######################################################################
#
# If this CIF has been generated from an entry in the Cambridge 
# Structural Database, then it will include bibliographic, chemical, 
# crystal, experimental, refinement or atomic coordinate data resulting 
# from the CCDC's data processing and validation procedures.
#
#######################################################################

data_QARGOI
_chemical_formula_moiety         'C36 H40 N4 O3'
_chemical_name_systematic        
3',6'-bis(diethylamino)-2-((2-hydroxy-2-phenylethyl)amino)spiro[isoindole-1,9'-xanthen]-3(2H)-one
_symmetry_cell_setting           triclinic
_symmetry_space_group_name_H-M   'P -1'
_symmetry_Int_Tables_number      2
_space_group_name_Hall           '-P 1'
loop_
_symmetry_equiv_pos_site_id
_symmetry_equiv_pos_as_xyz
1 x,y,z
2 -x,-y,-z
_cell_length_a                   9.2223(18)
_cell_length_b                   11.074(2)
_cell_length_c                   15.590(3)
_cell_angle_alpha                85.28(3)
_cell_angle_beta                 78.64(3)
_cell_angle_gamma                75.28(3)
_cell_volume                     1508.87
_cell_formula_units_Z            2
loop_
_atom_site_label
_atom_site_type_symbol
_atom_site_fract_x
_atom_site_fract_y
_atom_site_fract_z
O1 O 0.8236(2) 0.34517(17) 0.20372(12)
O2 O 0.8121(2) -0.05634(18) 0.53129(12)
H1 H 0.8635 -0.1003 0.4910
O3 O 0.9838(2) -0.18105(18) 0.38422(12)
N1 N 0.9331(3) 0.0886(2) 0.37980(14)
H2 H 1.0204 0.1035 0.3790
N2 N 0.9113(3) 0.0135(2) 0.31749(14)
N3 N 1.3469(3) 0.3288(2) 0.08882(15)
N4 N 0.2888(3) 0.4077(2) 0.31594(15)
C1 C 0.7034(3) 0.2890(3) 0.23516(17)
C2 C 1.2338(3) 0.2673(3) 0.12209(17)
C3 C 0.5624(3) 0.3714(3) 0.25789(18)
H3 H 0.5538 0.4569 0.2505
C4 C 1.0006(3) 0.1403(3) 0.19068(17)
C5 C 0.5940(3) 0.1167(3) 0.27645(17)
H4 H 0.6035 0.0309 0.2822
C6 C 1.0807(3) 0.3323(3) 0.14602(17)
H5 H 1.0538 0.4188 0.1389
C7 C 0.7244(3) 0.1605(3) 0.24391(17)
C8 C 1.1535(3) 0.0762(3) 0.16638(17)
H6 H 1.1790 -0.0104 0.1729
C9 C 0.4321(3) 0.3266(3) 0.29207(17)
C10 C 0.8808(3) 0.0719(2) 0.23086(17)
C11 C 0.9686(3) 0.2689(3) 0.18032(17)
C12 C 0.6011(3) 0.1166(3) 0.57212(18)
C13 C 0.4526(3) 0.1953(3) 0.30030(18)
H7 H 0.3692 0.1619 0.3221
C14 C 1.2677(3) 0.1360(3) 0.13320(18)
H8 H 1.3677 0.0895 0.1180
C15 C 0.9383(3) -0.1506(3) 0.23333(17)
C16 C 0.8936(3) -0.0440(3) 0.18230(18)
C17 C 1.5042(3) 0.2596(3) 0.06126(19)
H9 H 1.5272 0.1898 0.1023
H10 H 1.5708 0.3137 0.0641
C18 C 0.9481(3) -0.1135(3) 0.32103(18)
C19 C 0.0080(3) 0.4388(3) 0.3758(2)
H11 H 0.0033 0.5077 0.4107
H12 H -0.0654 0.3937 0.4043
H13 H -0.0144 0.4698 0.3193
C20 C 0.8730(3) -0.0533(3) 0.09787(18)
H14 H 0.8427 0.0179 0.0635
C21 C 1.3102(3) 0.4633(3) 0.0739(2)
H15 H 1.4018 0.4927 0.0705
H16 H 1.2366 0.5017 0.1235
C22 C 0.1659(3) 0.3529(3) 0.3651(2)
H17 H 0.1887 0.3258 0.4227
H18 H 0.1656 0.2793 0.3354
C23 C 0.8986(3) -0.1714(3) 0.06567(19)
H19 H 0.8851 -0.1796 0.0091
C24 C 0.7121(3) 0.0492(3) 0.49702(18)
H20 H 0.6563 0.0208 0.4584
C25 C 0.8003(3) 0.1403(3) 0.44616(18)
H21 H 0.7299 0.2036 0.4177
H22 H 0.8340 0.1821 0.4881
C26 C 0.9442(3) -0.2779(3) 0.11719(19)
H23 H 0.9607 -0.3563 0.0945
C27 C 0.2862(3) 0.5342(3) 0.3391(2)
H24 H 0.1824 0.5850 0.3449
H25 H 0.3482 0.5708 0.2916
C28 C 0.9655(3) -0.2691(3) 0.20156(19)
H26 H 0.9970 -0.3402 0.2358
C29 C 0.6385(4) 0.1125(3) 0.65444(19)
H27 H 0.7304 0.0611 0.6651
C30 C 0.4034(4) 0.2611(3) 0.7065(2)
H28 H 0.3386 0.3101 0.7509
C31 C 0.5408(4) 0.1840(3) 0.7210(2)
H29 H 0.5677 0.1801 0.7758
C32 C 0.4613(3) 0.1928(3) 0.5583(2)
H30 H 0.4335 0.1956 0.5038
C33 C 1.2453(4) 0.5056(3) -0.0098(2)
H31 H 1.3219 0.4760 -0.0598
H32 H 1.2147 0.5951 -0.0132
H33 H 1.1587 0.4720 -0.0088
C34 C 0.3635(4) 0.2644(3) 0.6246(2)
H34 H 0.2708 0.3149 0.6145
C35 C 0.3437(4) 0.5393(3) 0.4232(2)
H35 H 0.2815 0.5053 0.4710
H36 H 0.3386 0.6244 0.4341
H37 H 0.4474 0.4912 0.4177
C36 C 1.5399(4) 0.2095(3) -0.0310(2)
H38 H 1.4753 0.1552 -0.0346
H39 H 1.6447 0.1639 -0.0438
H40 H 1.5222 0.2781 -0.0727
loop_
_geom_bond_atom_site_label_1
_geom_bond_atom_site_label_2
_geom_bond_site_symmetry_1
_geom_bond_site_symmetry_2
O1 C1 1_555 1_555
O2 H1 1_555 1_555
O3 C18 1_555 1_555
N1 H2 1_555 1_555
N2 N1 1_555 1_555
N3 C2 1_555 1_555
N4 C9 1_555 1_555
C1 C3 1_555 1_555
C2 C6 1_555 1_555
C3 H3 1_555 1_555
C4 C8 1_555 1_555
C5 H4 1_555 1_555
C6 H5 1_555 1_555
C7 C1 1_555 1_555
C8 H6 1_555 1_555
C9 C3 1_555 1_555
C10 N2 1_555 1_555
C11 O1 1_555 1_555
C12 C24 1_555 1_555
C13 C5 1_555 1_555
H7 C13 1_555 1_555
C14 C2 1_555 1_555
H8 C14 1_555 1_555
C15 C16 1_555 1_555
C16 C10 1_555 1_555
C17 N3 1_555 1_555
H9 C17 1_555 1_555
H10 C17 1_555 1_555
C18 N2 1_555 1_555
C19 H11 1_555 1_555
H12 C19 1_555 1_555
H13 C19 1_555 1_555
C20 C16 1_555 1_555
H14 C20 1_555 1_555
C21 N3 1_555 1_555
H15 C21 1_555 1_555
H16 C21 1_555 1_555
C22 N4 1_555 1_555
H17 C22 1_555 1_555
H18 C22 1_555 1_555
C23 C20 1_555 1_555
H19 C23 1_555 1_555
C24 O2 1_555 1_555
H20 C24 1_555 1_555
C25 N1 1_555 1_555
H21 C25 1_555 1_555
H22 C25 1_555 1_555
C26 C23 1_555 1_555
H23 C26 1_555 1_555
C27 N4 1_555 1_555
H24 C27 1_555 1_555
H25 C27 1_555 1_555
C28 C15 1_555 1_555
H26 C28 1_555 1_555
C29 C12 1_555 1_555
H27 C29 1_555 1_555
C30 H28 1_555 1_555
C31 C29 1_555 1_555
H29 C31 1_555 1_555
C32 C12 1_555 1_555
H30 C32 1_555 1_555
C33 C21 1_555 1_555
H31 C33 1_555 1_555
H32 C33 1_555 1_555
H33 C33 1_555 1_555
C34 C30 1_555 1_555
H34 C34 1_555 1_555
C35 C27 1_555 1_555
H35 C35 1_555 1_555
H36 C35 1_555 1_555
H37 C35 1_555 1_555
C36 C17 1_555 1_555
H38 C36 1_555 1_555
H39 C36 1_555 1_555
H40 C36 1_555 1_555
C4 C10 1_555 1_555
C4 C11 1_555 1_555
C5 C7 1_555 1_555
C6 C11 1_555 1_555
C7 C10 1_555 1_555
C8 C14 1_555 1_555
C9 C13 1_555 1_555
C15 C18 1_555 1_555
C19 C22 1_555 1_555
C24 C25 1_555 1_555
C26 C28 1_555 1_555
C30 C31 1_555 1_555
C32 C34 1_555 1_555

#END
