
#######################################################################
#
#                 Cambridge Crystallographic Data Centre
#                                CCDC 
#
#######################################################################
#
# If this CIF has been generated from an entry in the Cambridge 
# Structural Database, then it will include bibliographic, chemical, 
# crystal, experimental, refinement or atomic coordinate data resulting 
# from the CCDC's data processing and validation procedures.
#
#######################################################################

data_QARHEX
_chemical_formula_moiety         'C19 H14 Cl1 O1 P1 S1 Se1'
_chemical_name_systematic        
'P,P-Diphenylphosphinoselenothioic acid S-(4-chlorobenzoyl) ester'
_symmetry_cell_setting           monoclinic
_symmetry_space_group_name_H-M   'P 21/n'
_symmetry_Int_Tables_number      14
_space_group_name_Hall           '-P 2yn'
loop_
_symmetry_equiv_pos_site_id
_symmetry_equiv_pos_as_xyz
1 x,y,z
2 1/2-x,1/2+y,1/2-z
3 -x,-y,-z
4 1/2+x,1/2-y,1/2+z
_cell_length_a                   8.347(3)
_cell_length_b                   11.710(2)
_cell_length_c                   19.072(2)
_cell_angle_alpha                90
_cell_angle_beta                 97.94(2)
_cell_angle_gamma                90
_cell_volume                     1846.29
_exptl_crystal_colour            colorless
_exptl_crystal_description       prismatic
_cell_formula_units_Z            4
loop_
_atom_site_label
_atom_site_type_symbol
_atom_site_fract_x
_atom_site_fract_y
_atom_site_fract_z
Se1 Se 1.03899(8) 0.14552(6) 0.30175(4)
Cl1 Cl 1.3369(3) 0.9229(2) 0.4495(1)
S1 S 0.9925(2) 0.4475(1) 0.26612(7)
P1 P 0.8858(2) 0.2804(1) 0.26625(8)
O1 O 1.0104(6) 0.4021(4) 0.4045(2)
C1 C 1.0404(7) 0.4727(5) 0.3614(3)
C2 C 1.1169(7) 0.5845(5) 0.3803(3)
C3 C 1.1460(7) 0.6651(5) 0.3303(3)
C4 C 1.2149(8) 0.7695(5) 0.3515(3)
C5 C 1.2555(8) 0.7907(5) 0.4228(3)
C6 C 1.2277(8) 0.7131(6) 0.4720(3)
C7 C 1.1603(8) 0.6090(5) 0.4520(3)
C8 C 0.7080(7) 0.2913(5) 0.3110(3)
C9 C 0.6496(7) 0.1934(5) 0.3385(3)
C10 C 0.5045(8) 0.1959(5) 0.3665(3)
C11 C 0.4195(8) 0.2966(6) 0.3678(3)
C12 C 0.4773(8) 0.3947(6) 0.3426(4)
C13 C 0.6226(8) 0.3929(5) 0.3138(3)
C14 C 0.8119(7) 0.2794(5) 0.1718(3)
C15 C 0.7018(7) 0.3613(5) 0.1429(3)
C16 C 0.6483(8) 0.3619(6) 0.0707(3)
C17 C 0.6995(9) 0.2804(7) 0.0289(3)
C18 C 0.8123(9) 0.1974(6) 0.0566(4)
C19 C 0.8676(8) 0.1987(5) 0.1282(3)
H1 H 1.1193 0.6473 0.2805
H2 H 1.2335 0.8268 0.3165
H3 H 1.2564 0.7313 0.5219
H4 H 1.1412 0.5527 0.4918
H5 H 0.7108 0.1233 0.3382
H6 H 0.4636 0.1276 0.3853
H7 H 0.3178 0.2973 0.3863
H8 H 0.4184 0.4657 0.3445
H9 H 0.6653 0.4619 0.2961
H10 H 0.6634 0.4184 0.1740
H11 H 0.5744 0.4202 0.0504
H12 H 0.6613 0.2778 -0.0215
H13 H 0.8526 0.1405 0.0263
H14 H 0.9441 0.1421 0.1490
loop_
_geom_bond_atom_site_label_1
_geom_bond_atom_site_label_2
_geom_bond_site_symmetry_1
_geom_bond_site_symmetry_2
Se1 P1 1_555 1_555
Cl1 C5 1_555 1_555
S1 P1 1_555 1_555
P1 C8 1_555 1_555
O1 C1 1_555 1_555
C1 S1 1_555 1_555
C2 C1 1_555 1_555
C3 C2 1_555 1_555
C4 C3 1_555 1_555
C5 C4 1_555 1_555
C6 C5 1_555 1_555
C7 C2 1_555 1_555
C8 C9 1_555 1_555
C9 C10 1_555 1_555
C10 C11 1_555 1_555
C11 C12 1_555 1_555
C12 C13 1_555 1_555
C13 C8 1_555 1_555
C14 P1 1_555 1_555
C15 C14 1_555 1_555
C16 C15 1_555 1_555
C17 C16 1_555 1_555
C18 C17 1_555 1_555
C19 C14 1_555 1_555
H1 C3 1_555 1_555
H2 C4 1_555 1_555
H3 C6 1_555 1_555
H4 C7 1_555 1_555
H5 C9 1_555 1_555
H6 C10 1_555 1_555
H7 C11 1_555 1_555
H8 C12 1_555 1_555
H9 C13 1_555 1_555
H10 C15 1_555 1_555
H11 C16 1_555 1_555
H12 C17 1_555 1_555
H13 C18 1_555 1_555
H14 C19 1_555 1_555
C6 C7 1_555 1_555
C18 C19 1_555 1_555

#END
