
#######################################################################
#
#                 Cambridge Crystallographic Data Centre
#                                CCDC 
#
#######################################################################
#
# If this CIF has been generated from an entry in the Cambridge 
# Structural Database, then it will include bibliographic, chemical, 
# crystal, experimental, refinement or atomic coordinate data resulting 
# from the CCDC's data processing and validation procedures.
#
#######################################################################

data_QARHAT
_chemical_formula_moiety         'C12 H20 P1 S1 Se1 1+,C1 F3 O3 S1 1-'
_chemical_name_systematic        
't-Butyl-(methylseleno)-(methylthio)-phenylphosphonium trifluoromethanesulfonate'
_symmetry_cell_setting           monoclinic
_symmetry_space_group_name_H-M   'P 21/a'
_symmetry_Int_Tables_number      14
_space_group_name_Hall           '-P 2yab'
loop_
_symmetry_equiv_pos_site_id
_symmetry_equiv_pos_as_xyz
1 x,y,z
2 1/2-x,1/2+y,-z
3 -x,-y,-z
4 1/2+x,1/2-y,z
_cell_length_a                   16.757(1)
_cell_length_b                   10.0442(7)
_cell_length_c                   22.950(2)
_cell_angle_alpha                90
_cell_angle_beta                 98.946(4)
_cell_angle_gamma                90
_cell_volume                     3815.74
_exptl_crystal_colour            colorless
_exptl_crystal_description       block
_chemical_melting_point          '145-147 deg.C(dec.)'
_cell_formula_units_Z            8
_exptl_crystal_recrystallization_method 'tetrahydrofuran/diethyl ether'
loop_
_atom_site_label
_atom_site_type_symbol
_atom_site_fract_x
_atom_site_fract_y
_atom_site_fract_z
Se1 Se -0.29690(3) -0.60415(5) -0.36679(3)
S3 S -0.2692 -0.9581 -0.3643
P1 P -0.21668(5) -0.77240(8) -0.37784(4)
C1 C -0.1893(2) -0.7809(3) -0.4529(2)
C2 C -0.2659(3) -0.7889(5) -0.4985(2)
C3 C -0.1359(3) -0.9033(5) -0.4576(2)
C4 C -0.1424(3) -0.6535(5) -0.4623(2)
C5 C -0.1279(2) -0.7400(4) -0.3251(2)
C6 C -0.1062(3) -0.6095(4) -0.3090(2)
C7 C -0.0355(3) -0.5851(5) -0.2712(2)
C8 C 0.0127(3) -0.6873(6) -0.2485(2)
C9 C -0.0068(3) -0.8155(5) -0.2652(2)
C10 C -0.0773(2) -0.8429(4) -0.3035(2)
C11 C -0.3982(3) -0.6750(6) -0.4020(2)
C12 C -0.2885(3) -0.9323(5) -0.2873(2)
H1 H -0.2991 -0.7139 -0.4941
H2 H -0.2519 -0.7889 -0.5370
H3 H -0.2944 -0.8681 -0.4925
H4 H -0.0883 -0.8969 -0.4299
H5 H -0.1650 -0.9816 -0.4502
H6 H -0.1227 -0.9083 -0.4965
H7 H -0.0950 -0.6491 -0.4341
H8 H -0.1757 -0.5782 -0.4581
H9 H -0.1287 -0.6538 -0.5010
H10 H -0.1397 -0.5376 -0.3236
H11 H -0.0196 -0.4966 -0.2607
H12 H 0.0597 -0.6691 -0.2211
H13 H 0.0281 -0.8859 -0.2497
H14 H -0.0903 -0.9322 -0.3145
H15 H -0.4359 -0.6756 -0.3758
H16 H -0.4192 -0.6283 -0.4371
H17 H -0.3909 -0.7682 -0.4139
H18 H -0.3326 -0.9863 -0.2797
H19 H -0.2992 -0.8424 -0.2803
H20 H -0.2412 -0.9595 -0.2598
Se2 Se -0.09240(4) -0.23845(6) -0.02768(3)
S4 S 0.0325 -0.0276 -0.1022
P2 P -0.03427(5) -0.21094(9) -0.10422(4)
C13 C 0.0411(2) -0.3473(4) -0.0994(2)
C14 C -0.0048(3) -0.4787(4) -0.1062(2)
C15 C 0.0917(2) -0.3309(5) -0.1489(2)
C16 C 0.0958(3) -0.3399(5) -0.0396(2)
C17 C -0.1044(2) -0.2237(3) -0.1718(1)
C18 C -0.1792(2) -0.2852(4) -0.1728(2)
C19 C -0.2292(2) -0.3039(4) -0.2256(2)
C20 C -0.2053(3) -0.2630(4) -0.2772(2)
C21 C -0.1315(2) -0.2033(4) -0.2770(2)
C22 C -0.0807(2) -0.1822(3) -0.2245(2)
C23 C -0.1708(3) -0.1058(5) -0.0381(2)
C24 C -0.0493(3) 0.0949(5) -0.1158(2)
H21 H -0.0367 -0.4873 -0.0756
H22 H -0.0397 -0.4798 -0.1435
H23 H 0.0320 -0.5503 -0.1046
H24 H 0.0569 -0.3329 -0.1861
H25 H 0.1290 -0.4027 -0.1474
H26 H 0.1196 -0.2493 -0.1445
H27 H 0.1350 -0.4087 -0.0369
H28 H 0.1228 -0.2556 -0.0362
H29 H 0.0645 -0.3486 -0.0089
H30 H -0.1949 -0.3153 -0.1368
H31 H -0.2805 -0.3445 -0.2265
H32 H -0.2399 -0.2763 -0.3135
H33 H -0.1149 -0.1773 -0.3130
H34 H -0.0298 -0.1394 -0.2242
H35 H -0.1587 -0.0408 -0.0650
H36 H -0.1732 -0.0623 -0.0005
H37 H -0.2227 -0.1430 -0.0514
H38 H -0.0375 0.1603 -0.1432
H39 H -0.0536 0.1411 -0.0790
H40 H -0.0989 0.0538 -0.1293
S5 S -0.93663(6) -0.2185(1) -0.36032(5)
F1 F -1.0747(2) -0.3397(4) -0.3921(1)
F2 F -1.0188(2) -0.2639(6) -0.4623(2)
F3 F -0.9732(2) -0.4366(4) -0.4186(2)
O1 O -0.9800(3) -0.1020(4) -0.3550(3)
O2 O -0.9264(2) -0.2963(5) -0.3080(2)
O3 O -0.8674(2) -0.2069(4) -0.3886(1)
C25 C -1.0045(3) -0.3194(7) -0.4103(2)
S6 S -0.70989(6) -0.21074(9) -0.89036(4)
F4 F -0.8206(2) -0.3425(4) -0.8466(2)
F5 F -0.7033(3) -0.3857(4) -0.8070(2)
F6 F -0.7461(2) -0.4614(3) -0.8926(2)
O4 O -0.7184(2) -0.1082(3) -0.8490(1)
O5 O -0.7618(2) -0.1965(4) -0.9452(1)
O6 O -0.6290(2) -0.2491(3) -0.8947(2)
C26 C -0.7487(3) -0.3560(5) -0.8589(3)
Se3? Se -0.26918(5) -0.95810(8) -0.36433(4)
Se4? Se 0.03245(4) -0.02759(7) -0.10224(3)
S1? S -0.2969 -0.6042 -0.3668
S2? S -0.0924 -0.2385 -0.0277
loop_
_geom_bond_atom_site_label_1
_geom_bond_atom_site_label_2
_geom_bond_site_symmetry_1
_geom_bond_site_symmetry_2
Se1 P1 1_555 1_555
Se2 P2 1_555 1_555
S3 P1 1_555 1_555
S4 P2 1_555 1_555
S5 O1 1_555 1_555
S6 O4 1_555 1_555
P1 C1 1_555 1_555
P2 C13 1_555 1_555
F1 C25 1_555 1_555
F2 C25 1_555 1_555
F3 C25 1_555 1_555
F4 C26 1_555 1_555
F5 C26 1_555 1_555
F6 C26 1_555 1_555
O2 S5 1_555 1_555
O3 S5 1_555 1_555
O5 S6 1_555 1_555
O6 S6 1_555 1_555
C1 C2 1_555 1_555
C2 H1 1_555 1_555
C3 C1 1_555 1_555
C4 C1 1_555 1_555
C5 P1 1_555 1_555
C6 C5 1_555 1_555
C7 C6 1_555 1_555
C8 C7 1_555 1_555
C9 C8 1_555 1_555
C10 C5 1_555 1_555
C11 Se1 1_555 1_555
C12 S3 1_555 1_555
C13 C14 1_555 1_555
C14 H21 1_555 1_555
C15 C13 1_555 1_555
C16 C13 1_555 1_555
C17 P2 1_555 1_555
C18 C17 1_555 1_555
C19 C18 1_555 1_555
C20 C19 1_555 1_555
C21 C20 1_555 1_555
C22 C17 1_555 1_555
C23 Se2 1_555 1_555
C24 S4 1_555 1_555
C25 S5 1_555 1_555
C26 S6 1_555 1_555
H2 C2 1_555 1_555
H3 C2 1_555 1_555
H4 C3 1_555 1_555
H5 C3 1_555 1_555
H6 C3 1_555 1_555
H7 C4 1_555 1_555
H8 C4 1_555 1_555
H9 C4 1_555 1_555
H10 C6 1_555 1_555
H11 C7 1_555 1_555
H12 C8 1_555 1_555
H13 C9 1_555 1_555
H14 C10 1_555 1_555
H15 C11 1_555 1_555
H16 C11 1_555 1_555
H17 C11 1_555 1_555
H18 C12 1_555 1_555
H19 C12 1_555 1_555
H20 C12 1_555 1_555
H22 C14 1_555 1_555
H23 C14 1_555 1_555
H24 C15 1_555 1_555
H25 C15 1_555 1_555
H26 C15 1_555 1_555
H27 C16 1_555 1_555
H28 C16 1_555 1_555
H29 C16 1_555 1_555
H30 C18 1_555 1_555
H31 C19 1_555 1_555
H32 C20 1_555 1_555
H33 C21 1_555 1_555
H34 C22 1_555 1_555
H35 C23 1_555 1_555
H36 C23 1_555 1_555
H37 C23 1_555 1_555
H38 C24 1_555 1_555
H39 C24 1_555 1_555
H40 C24 1_555 1_555
C9 C10 1_555 1_555
C21 C22 1_555 1_555

#END
