
#######################################################################
#
#                 Cambridge Crystallographic Data Centre
#                                CCDC 
#
#######################################################################
#
# If this CIF has been generated from an entry in the Cambridge 
# Structural Database, then it will include bibliographic, chemical, 
# crystal, experimental, refinement or atomic coordinate data resulting 
# from the CCDC's data processing and validation procedures.
#
#######################################################################

data_QARKIF
_chemical_formula_moiety         
'2(C21 H26 N2 O3 S1),C21 H27 N2 O3 S1 1+,F6 P1 1-,3(C2 H6 O1)'
_chemical_name_systematic        
'bis((S)-2-((1-(3,5-Dimethylphenyl)-4-isopropyl-4,5-dihydro-1H-imidazol-3-ium-3-yl)methyl)benzenesulfonate) (S)-1-(3,5-dimethylphenyl)-4-isopropyl-3-(2-sulfobenzyl)-4,5-dihydro-1H-imidazol-3-ium hexafluorophosphate ethanol solvate'
_symmetry_cell_setting           trigonal
_symmetry_space_group_name_H-M   'P 3'
_symmetry_Int_Tables_number      143
_space_group_name_Hall           'P 3'
loop_
_symmetry_equiv_pos_site_id
_symmetry_equiv_pos_as_xyz
1 x,y,z
2 -y,x-y,z
3 -x+y,-x,z
_cell_length_a                   13.4144(8)
_cell_length_b                   13.4144(8)
_cell_length_c                   12.1479(14)
_cell_angle_alpha                90
_cell_angle_beta                 90
_cell_angle_gamma                120
_cell_volume                     1893.1
_exptl_crystal_colour            colorless
_exptl_crystal_description       block
_cell_formula_units_Z            1
loop_
_atom_site_label
_atom_site_type_symbol
_atom_site_fract_x
_atom_site_fract_y
_atom_site_fract_z
P1 P 0.6667 0.3333 1.27513(19)
F1 F 0.5879(4) 0.3645(4) 1.3473(4)
F2 F 0.7405(7) 0.2995(7) 1.2088(5)
F1A F 0.6355(4) 0.2234(6) 1.3473(4)
F1B F 0.7766(6) 0.4121(4) 1.3473(4)
F2A F 0.7005(7) 0.4410(10) 1.2088(5)
F2B F 0.5590(10) 0.2595(7) 1.2088(5)
S1 S 0.35729(8) 0.40601(7) 0.84102(9)
O1 O 0.2645(2) 0.2914(2) 0.8167(3)
O2 O 0.3460(2) 0.4961(2) 0.7869(2)
O3 O 0.4703(3) 0.4194(3) 0.8273(3)
C1 C 0.3458(3) 0.4255(3) 0.9845(3)
C2 C 0.2659(3) 0.4532(3) 1.0284(3)
C3 C 0.2653(3) 0.4697(3) 1.1409(4)
H1 H 0.2129 0.4907 1.1707
C4 C 0.3389(4) 0.4563(4) 1.2108(4)
H2 H 0.3370 0.4678 1.2877
C5 C 0.4153(4) 0.4261(4) 1.1676(4)
H3 H 0.4660 0.4160 1.2149
C6 C 0.4181(3) 0.4107(3) 1.0565(4)
H4 H 0.4707 0.3895 1.0277
C7 C 0.1823(3) 0.4731(3) 0.9613(4)
H5 H 0.1352 0.4909 1.0115
H6 H 0.2261 0.5404 0.9125
N1 N 0.1058(2) 0.3722(2) 0.8939(3)
C8 C 0.0824(3) 0.3738(3) 0.7911(4)
H7 H 0.1125 0.4426 0.7491
N2 N 0.0121(3) 0.2701(3) 0.7496(3)
C9 C -0.0089(3) 0.1837(3) 0.8347(3)
H8 H 0.0298 0.1396 0.8158
H9 H -0.0924 0.1294 0.8436
C10 C 0.0418(3) 0.2539(3) 0.9386(3)
H10 H 0.0978 0.2336 0.9713
C11 C -0.0444(3) 0.2426(3) 1.0276(4)
H11 H -0.0004 0.3009 1.0859
C12 C -0.0961(4) 0.1231(4) 1.0810(4)
H12 H -0.0339 0.1107 1.1066
H13 H -0.1431 0.0639 1.0267
H14 H -0.1443 0.1184 1.1436
C13 C -0.1351(3) 0.2686(4) 0.9831(4)
H15 H -0.0992 0.3508 0.9660
H16 H -0.1953 0.2482 1.0386
H17 H -0.1693 0.2235 0.9162
C14 C -0.0301(4) 0.2461(4) 0.6409(5)
C15 C -0.1356(6) 0.1445(5) 0.6201(5)
H18 H -0.1761 0.0934 0.6789
C16 C -0.1797(9) 0.1193(6) 0.5162(6)
C17 C -0.1196(7) 0.2003(6) 0.4314(5)
H19 H -0.1512 0.1864 0.3593
C18 C -0.0183(5) 0.2968(5) 0.4514(5)
C19 C 0.0201(4) 0.3202(4) 0.5558(4)
H20 H 0.0862 0.3927 0.5707
C20 C -0.2951(10) 0.0102(9) 0.4933(8)
H21 H -0.3168 -0.0415 0.5569
H22 H -0.2878 -0.0288 0.4282
H23 H -0.3544 0.0310 0.4802
C21 C 0.0345(8) 0.3835(9) 0.3588(8)
H24 H 0.1052 0.4510 0.3849
H25 H -0.0202 0.4073 0.3346
H26 H 0.0527 0.3484 0.2970
loop_
_geom_bond_atom_site_label_1
_geom_bond_atom_site_label_2
_geom_bond_site_symmetry_1
_geom_bond_site_symmetry_2
S1 O1 1_555 1_555
O2 S1 1_555 1_555
O3 S1 1_555 1_555
C1 S1 1_555 1_555
C2 C1 1_555 1_555
C3 C2 1_555 1_555
H1 C3 1_555 1_555
C4 C3 1_555 1_555
H2 C4 1_555 1_555
C5 C4 1_555 1_555
H3 C5 1_555 1_555
C6 C1 1_555 1_555
H4 C6 1_555 1_555
C7 C2 1_555 1_555
H5 C7 1_555 1_555
H6 C7 1_555 1_555
N1 C7 1_555 1_555
C8 N1 1_555 1_555
H7 C8 1_555 1_555
N2 C8 1_555 1_555
C9 N2 1_555 1_555
H8 C9 1_555 1_555
H9 C9 1_555 1_555
C10 N1 1_555 1_555
H10 C10 1_555 1_555
C11 C10 1_555 1_555
H11 C11 1_555 1_555
C12 C11 1_555 1_555
H12 C12 1_555 1_555
H13 C12 1_555 1_555
H14 C12 1_555 1_555
C13 C11 1_555 1_555
H15 C13 1_555 1_555
H16 C13 1_555 1_555
H17 C13 1_555 1_555
C14 N2 1_555 1_555
C15 C14 1_555 1_555
H18 C15 1_555 1_555
C16 C15 1_555 1_555
C17 C16 1_555 1_555
H19 C17 1_555 1_555
C18 C17 1_555 1_555
C19 C14 1_555 1_555
H20 C19 1_555 1_555
C20 C16 1_555 1_555
H21 C20 1_555 1_555
H22 C20 1_555 1_555
H23 C20 1_555 1_555
C21 C18 1_555 1_555
H24 C21 1_555 1_555
H25 C21 1_555 1_555
H26 C21 1_555 1_555
P1 F1 1_555 1_555
F2 P1 1_555 1_555
F1A P1 1_555 1_555
F1B P1 1_555 1_555
F2A P1 1_555 1_555
F2B P1 1_555 1_555
C5 C6 1_555 1_555
C9 C10 1_555 1_555
C18 C19 1_555 1_555

#END
