
#######################################################################
#
#                 Cambridge Crystallographic Data Centre
#                                CCDC 
#
#######################################################################
#
# If this CIF has been generated from an entry in the Cambridge 
# Structural Database, then it will include bibliographic, chemical, 
# crystal, experimental, refinement or atomic coordinate data resulting 
# from the CCDC's data processing and validation procedures.
#
#######################################################################

data_QARMUT
_chemical_formula_moiety         'C31 H33 N2 O3 P1'
_chemical_name_systematic        
2-(Diphenylphosphoryl)-3-(4-isopropyl-4,5-dihydro-1,3-oxazol-2-yl)-1-(tetrahydro-2H-pyran-2-yl)-1H-indole
_symmetry_cell_setting           orthorhombic
_symmetry_space_group_name_H-M   'P 21 21 21'
_symmetry_Int_Tables_number      19
_space_group_name_Hall           'P 2ac 2ab'
loop_
_symmetry_equiv_pos_site_id
_symmetry_equiv_pos_as_xyz
1 x,y,z
2 1/2-x,-y,1/2+z
3 1/2+x,1/2-y,-z
4 -x,1/2+y,1/2-z
_cell_length_a                   11.1551(3)
_cell_length_b                   15.0790(4)
_cell_length_c                   15.7866(4)
_cell_angle_alpha                90
_cell_angle_beta                 90
_cell_angle_gamma                90
_cell_volume                     2655.43
_exptl_crystal_colour            colorless
_exptl_crystal_description       prism
_cell_formula_units_Z            4
loop_
_atom_site_label
_atom_site_type_symbol
_atom_site_fract_x
_atom_site_fract_y
_atom_site_fract_z
P1 P 0.18259(4) 0.76089(3) 0.28608(3)
O1 O 0.55680(15) 0.83767(10) 0.31391(10)
O2 O 0.07416(14) 0.94838(10) 0.09127(10)
O3 O 0.06556(13) 0.80601(10) 0.29927(9)
N1 N 0.22975(15) 0.86152(11) 0.13865(11)
N2 N 0.51007(16) 0.70212(11) 0.26267(12)
C1 C 0.10525(19) 0.85881(14) 0.10969(13)
H1 H 0.0531 0.8363 0.1565
C2 C 0.48833(18) 0.78437(13) 0.26408(13)
C3 C 0.27636(18) 0.81756(13) 0.20921(13)
C4 C 0.0894(2) 0.80056(17) 0.03266(16)
H2 H 0.1081 0.7383 0.0476
H3 H 0.1458 0.8195 -0.0123
C5 C 0.39906(18) 0.82796(13) 0.21005(13)
C6 C 0.43087(19) 0.88050(13) 0.13805(13)
C7 C 0.5411(2) 0.90925(15) 0.10578(16)
H4 H 0.6136 0.8976 0.1354
C8 C -0.0389(3) 0.8066(2) -0.00012(18)
H5 H -0.0455 0.7743 -0.0545
H6 H -0.094 0.7784 0.041
C9 C 0.61523(19) 0.68718(15) 0.31802(14)
H7 H 0.5932 0.6437 0.3632
C10 C 0.6371(2) 0.77789(15) 0.35855(14)
H8 H 0.6182 0.7765 0.4198
H9 H 0.7217 0.7964 0.3512
C11 C -0.0742(2) 0.9021(2) -0.01277(16)
H10 H -0.0281 0.9275 -0.0606
H11 H -0.1605 0.9056 -0.027
C12 C 0.5421(2) 0.95465(17) 0.03050(16)
H12 H 0.6162 0.9741 0.0074
C13 C 0.71965(19) 0.64981(15) 0.26618(14)
H13 H 0.7878 0.639 0.306
C14 C 0.4353(2) 0.97268(16) -0.01265(15)
H14 H 0.4386 1.0042 -0.0647
C15 C -0.0500(2) 0.9546(2) 0.06587(17)
H15 H -0.0707 1.0175 0.0557
H16 H -0.1017 0.9324 0.1123
C16 C 0.3256(2) 0.94617(15) 0.01793(13)
H17 H 0.2535 0.9594 -0.0115
C17 C 0.6862(2) 0.56153(16) 0.22639(18)
H18 H 0.6642 0.5193 0.271
H19 H 0.7548 0.5384 0.1945
H20 H 0.6181 0.5699 0.188
C18 C 0.3245(2) 0.89888(13) 0.09414(13)
C19 C 0.7632(2) 0.71429(18) 0.19828(16)
H21 H 0.6971 0.728 0.1595
H22 H 0.8292 0.6872 0.1665
H23 H 0.7912 0.769 0.2252
C20 C 0.27138(18) 0.75886(14) 0.38214(12)
C21 C 0.2836(2) 0.83900(15) 0.42485(14)
H24 H 0.2473 0.891 0.4025
C22 C 0.3480(2) 0.84385(16) 0.49958(15)
H25 H 0.3558 0.8989 0.5284
C23 C 0.4011(2) 0.76837(17) 0.53213(13)
H26 H 0.4466 0.7714 0.5829
C24 C 0.3875(2) 0.68884(16) 0.49068(14)
H27 H 0.4234 0.6369 0.5134
C25 C 0.3222(2) 0.68332(14) 0.41618(13)
H28 H 0.3125 0.6278 0.3886
C26 C 0.16528(18) 0.64854(13) 0.24918(12)
C27 C 0.25969(19) 0.59843(14) 0.21697(14)
H29 H 0.3371 0.6241 0.2118
C28 C 0.2411(2) 0.51148(15) 0.19249(15)
H30 H 0.3059 0.4775 0.1708
C29 C 0.1283(2) 0.47382(15) 0.19955(14)
H31 H 0.1156 0.4142 0.1823
C30 C 0.0352(2) 0.52273(16) 0.23142(14)
H32 H -0.0421 0.4968 0.2365
C31 C 0.0529(2) 0.60955(15) 0.25623(14)
H33 H -0.0122 0.6429 0.2783
loop_
_geom_bond_atom_site_label_1
_geom_bond_atom_site_label_2
_geom_bond_site_symmetry_1
_geom_bond_site_symmetry_2
P1 O3 1_555 1_555
O1 C2 1_555 1_555
O2 C1 1_555 1_555
N1 C1 1_555 1_555
N2 C2 1_555 1_555
C1 H1 1_555 1_555
C2 C5 1_555 1_555
C3 P1 1_555 1_555
C4 C1 1_555 1_555
H2 C4 1_555 1_555
H3 C4 1_555 1_555
C5 C3 1_555 1_555
C6 C5 1_555 1_555
C7 C6 1_555 1_555
H4 C7 1_555 1_555
C8 C4 1_555 1_555
H5 C8 1_555 1_555
H6 C8 1_555 1_555
C9 N2 1_555 1_555
H7 C9 1_555 1_555
C10 O1 1_555 1_555
H8 C10 1_555 1_555
H9 C10 1_555 1_555
C11 C8 1_555 1_555
H10 C11 1_555 1_555
H11 C11 1_555 1_555
C12 C7 1_555 1_555
H12 C12 1_555 1_555
C13 C9 1_555 1_555
H13 C13 1_555 1_555
C14 C12 1_555 1_555
H14 C14 1_555 1_555
C15 O2 1_555 1_555
H15 C15 1_555 1_555
H16 C15 1_555 1_555
C16 C14 1_555 1_555
H17 C16 1_555 1_555
C17 C13 1_555 1_555
H18 C17 1_555 1_555
H19 C17 1_555 1_555
H20 C17 1_555 1_555
C18 N1 1_555 1_555
C19 C13 1_555 1_555
H21 C19 1_555 1_555
H22 C19 1_555 1_555
H23 C19 1_555 1_555
C20 P1 1_555 1_555
C21 C20 1_555 1_555
H24 C21 1_555 1_555
C22 C21 1_555 1_555
H25 C22 1_555 1_555
C23 C22 1_555 1_555
H26 C23 1_555 1_555
C24 C23 1_555 1_555
H27 C24 1_555 1_555
C25 C20 1_555 1_555
H28 C25 1_555 1_555
C26 P1 1_555 1_555
C27 C26 1_555 1_555
H29 C27 1_555 1_555
C28 C27 1_555 1_555
H30 C28 1_555 1_555
C29 C28 1_555 1_555
H31 C29 1_555 1_555
C30 C29 1_555 1_555
H32 C30 1_555 1_555
C31 C26 1_555 1_555
H33 C31 1_555 1_555
N1 C3 1_555 1_555
C6 C18 1_555 1_555
C9 C10 1_555 1_555
C11 C15 1_555 1_555
C16 C18 1_555 1_555
C24 C25 1_555 1_555
C30 C31 1_555 1_555

#END
