
#######################################################################
#
#                 Cambridge Crystallographic Data Centre
#                                CCDC 
#
#######################################################################
#
# If this CIF has been generated from an entry in the Cambridge 
# Structural Database, then it will include bibliographic, chemical, 
# crystal, experimental, refinement or atomic coordinate data resulting 
# from the CCDC's data processing and validation procedures.
#
#######################################################################

data_QARWOY
_chemical_formula_moiety         'C16 H14 Br1 N3 O3'
_chemical_name_systematic        
'ethyl (5-bromo-1-(pyrimidin-2-yl)-2,3-dihydro-1H-indol-7-yl)(oxo)acetate'
_symmetry_cell_setting           triclinic
_symmetry_space_group_name_H-M   'P -1'
_symmetry_Int_Tables_number      2
_space_group_name_Hall           '-P 1'
loop_
_symmetry_equiv_pos_site_id
_symmetry_equiv_pos_as_xyz
1 x,y,z
2 -x,-y,-z
_cell_length_a                   11.1711(8)
_cell_length_b                   12.0408(8)
_cell_length_c                   14.2946(10)
_cell_angle_alpha                65.128(4)
_cell_angle_beta                 84.361(4)
_cell_angle_gamma                67.140(4)
_cell_volume                     1602.52
_exptl_crystal_colour            'pale pink'
_exptl_crystal_description       block
_cell_formula_units_Z            4
loop_
_atom_site_label
_atom_site_type_symbol
_atom_site_fract_x
_atom_site_fract_y
_atom_site_fract_z
Br1 Br -0.24613(5) 0.44176(5) 0.20884(4)
C1 C -0.0763(4) 0.3540(4) 0.1776(3)
C2 C 0.0109(5) 0.4158(4) 0.1457(3)
H1 H -0.0128 0.5021 0.1387
C3 C 0.1333(4) 0.3484(4) 0.1242(3)
C4 C 0.2456(4) 0.3917(4) 0.0914(3)
H2 H 0.2751 0.4070 0.1449
H3 H 0.2211 0.4725 0.0282
C5 C 0.3512(4) 0.2773(4) 0.0744(4)
H4 H 0.3672 0.3035 0.0018
H5 H 0.4319 0.2478 0.1140
C6 C 0.1689(4) 0.2190(4) 0.1329(3)
C7 C 0.0790(4) 0.1590(4) 0.1605(3)
C8 C -0.0432(4) 0.2275(4) 0.1854(3)
H6 H -0.1031 0.1872 0.2075
C9 C 0.0935(4) 0.0310(4) 0.1592(3)
C10 C 0.1440(4) 0.0129(4) 0.0611(3)
C11 C 0.2383(5) -0.1416(5) -0.0122(4)
H7 H 0.1756 -0.0919 -0.0720
H8 H 0.3133 -0.1171 -0.0303
C12 C 0.2778(7) -0.2836(5) 0.0192(5)
H9 H 0.3415 -0.3317 0.0773
H10 H 0.3148 -0.3056 -0.0372
H11 H 0.2032 -0.3069 0.0383
C13 C 0.3817(4) 0.0414(4) 0.1407(3)
C14 C 0.5830(4) -0.1078(5) 0.1479(4)
H12 H 0.6696 -0.1285 0.1322
C15 C 0.5429(4) -0.2096(4) 0.2034(4)
H13 H 0.5998 -0.2979 0.2261
C16 C 0.4152(4) -0.1744(4) 0.2235(3)
H14 H 0.3845 -0.2412 0.2604
N1 N 0.2994(3) 0.1719(3) 0.1106(2)
N2 N 0.5043(3) 0.0197(3) 0.1154(3)
N3 N 0.3326(3) -0.0497(3) 0.1930(3)
O1 O 0.0470(3) -0.0427(3) 0.2216(3)
O2 O 0.1466(3) 0.1024(3) -0.0178(2)
O3 O 0.1799(3) -0.1121(3) 0.0748(2)
Br2 Br 0.72439(5) -0.00081(6) 0.30277(4)
C17 C 0.5576(5) 0.0967(5) 0.3334(3)
C18 C 0.4658(5) 0.0417(4) 0.3653(3)
H15 H 0.4842 -0.0443 0.3736
C19 C 0.3460(4) 0.1171(4) 0.3846(3)
C20 C 0.2285(5) 0.0832(4) 0.4176(3)
H16 H 0.2481 0.0064 0.4835
H17 H 0.1985 0.0646 0.3665
C21 C 0.1261(4) 0.2053(4) 0.4270(4)
H18 H 0.0480 0.2390 0.3828
H19 H 0.1030 0.1847 0.4978
C22 C 0.3177(4) 0.2454(4) 0.3743(3)
C23 C 0.4136(4) 0.2983(4) 0.3473(3)
C24 C 0.5331(4) 0.2223(4) 0.3246(3)
H20 H 0.5974 0.2568 0.3031
C25 C 0.4088(4) 0.4247(4) 0.3457(3)
C26 C 0.3621(4) 0.4492(4) 0.4423(3)
C27 C 0.2863(5) 0.6064(4) 0.5135(4)
H21 H 0.3493 0.5524 0.5731
H22 H 0.2066 0.5906 0.5324
C28 C 0.2600(6) 0.7486(4) 0.4801(4)
H23 H 0.3380 0.7642 0.4568
H24 H 0.2324 0.7724 0.5372
H25 H 0.1927 0.8014 0.4245
C29 C 0.1125(4) 0.4354(4) 0.3593(3)
C30 C 0.0968(4) 0.6468(4) 0.2716(4)
H26 H 0.1346 0.7080 0.2358
C31 C -0.0331(4) 0.6921(4) 0.2837(4)
H27 H -0.0852 0.7821 0.2553
C32 C -0.0830(4) 0.5980(4) 0.3400(4)
H28 H -0.1710 0.6264 0.3514
N4 N 0.1877(3) 0.3027(3) 0.3935(3)
N5 N 0.1717(3) 0.5185(3) 0.3088(3)
N6 N -0.0125(3) 0.4684(3) 0.3792(3)
O4 O 0.4605(3) 0.4931(3) 0.2826(2)
O5 O 0.3551(3) 0.3628(3) 0.5222(2)
O6 O 0.3372(3) 0.5724(3) 0.4271(2)
loop_
_geom_bond_atom_site_label_1
_geom_bond_atom_site_label_2
_geom_bond_site_symmetry_1
_geom_bond_site_symmetry_2
Br1 C1 1_555 1_555
C1 C2 1_555 1_555
C2 H1 1_555 1_555
C3 C2 1_555 1_555
C4 C3 1_555 1_555
H2 C4 1_555 1_555
H3 C4 1_555 1_555
C5 C4 1_555 1_555
H4 C5 1_555 1_555
H5 C5 1_555 1_555
C6 C3 1_555 1_555
C7 C6 1_555 1_555
C8 C1 1_555 1_555
H6 C8 1_555 1_555
C9 C7 1_555 1_555
C10 C9 1_555 1_555
C11 H7 1_555 1_555
H8 C11 1_555 1_555
C12 C11 1_555 1_555
H9 C12 1_555 1_555
H10 C12 1_555 1_555
H11 C12 1_555 1_555
C13 N1 1_555 1_555
C14 H12 1_555 1_555
C15 C14 1_555 1_555
H13 C15 1_555 1_555
C16 C15 1_555 1_555
H14 C16 1_555 1_555
N1 C5 1_555 1_555
N2 C13 1_555 1_555
N3 C13 1_555 1_555
O1 C9 1_555 1_555
O2 C10 1_555 1_555
O3 C10 1_555 1_555
Br2 C17 1_555 1_555
C17 C18 1_555 1_555
C18 H15 1_555 1_555
C19 C18 1_555 1_555
C20 C19 1_555 1_555
H16 C20 1_555 1_555
H17 C20 1_555 1_555
C21 C20 1_555 1_555
H18 C21 1_555 1_555
H19 C21 1_555 1_555
C22 C19 1_555 1_555
C23 C22 1_555 1_555
C24 C17 1_555 1_555
H20 C24 1_555 1_555
C25 C23 1_555 1_555
C26 C25 1_555 1_555
C27 H21 1_555 1_555
H22 C27 1_555 1_555
C28 C27 1_555 1_555
H23 C28 1_555 1_555
H24 C28 1_555 1_555
H25 C28 1_555 1_555
C29 N4 1_555 1_555
C30 H26 1_555 1_555
C31 C30 1_555 1_555
H27 C31 1_555 1_555
C32 C31 1_555 1_555
H28 C32 1_555 1_555
N4 C21 1_555 1_555
N5 C29 1_555 1_555
N6 C29 1_555 1_555
O4 C25 1_555 1_555
O5 C26 1_555 1_555
O6 C26 1_555 1_555
C6 N1 1_555 1_555
C7 C8 1_555 1_555
C11 O3 1_555 1_555
C14 N2 1_555 1_555
C16 N3 1_555 1_555
C22 N4 1_555 1_555
C23 C24 1_555 1_555
C27 O6 1_555 1_555
C30 N5 1_555 1_555
C32 N6 1_555 1_555

#END
