
#######################################################################
#
#                 Cambridge Crystallographic Data Centre
#                                CCDC 
#
#######################################################################
#
# If this CIF has been generated from an entry in the Cambridge 
# Structural Database, then it will include bibliographic, chemical, 
# crystal, experimental, refinement or atomic coordinate data resulting 
# from the CCDC's data processing and validation procedures.
#
#######################################################################

data_QARXIT
_chemical_formula_moiety         'C32 H36 B10'
_chemical_name_systematic        
1,2-bis(9,9-dimethyl-9H-fluoren-2-yl)-1,2-dicarba-closo-dodecaborane
_symmetry_cell_setting           triclinic
_symmetry_space_group_name_H-M   'P -1'
_symmetry_Int_Tables_number      2
_space_group_name_Hall           '-P 1'
loop_
_symmetry_equiv_pos_site_id
_symmetry_equiv_pos_as_xyz
1 x,y,z
2 -x,-y,-z
_cell_length_a                   10.7377(4)
_cell_length_b                   15.4048(6)
_cell_length_c                   18.3711(7)
_cell_angle_alpha                90.481(2)
_cell_angle_beta                 97.830(2)
_cell_angle_gamma                91.483(2)
_cell_volume                     3009.24
_exptl_crystal_colour            colorless
_exptl_crystal_description       block
_cell_formula_units_Z            4
loop_
_atom_site_label
_atom_site_type_symbol
_atom_site_fract_x
_atom_site_fract_y
_atom_site_fract_z
C1 C 0.92670(15) 0.50561(10) 0.41819(8)
H1 H 0.9898 0.5307 0.3947
C2 C 0.84771(15) 0.55831(10) 0.45171(8)
H2 H 0.8580 0.6184 0.4499
C3 C 0.75361(14) 0.52242(10) 0.48781(8)
H3 H 0.7013 0.5577 0.5107
C4 C 0.73941(14) 0.43241(10) 0.48896(8)
C5 C 0.81775(14) 0.37923(9) 0.45428(8)
C6 C 0.91241(14) 0.41571(10) 0.41939(8)
H4 H 0.9657 0.3806 0.3971
C7 C 0.65017(14) 0.37640(9) 0.52210(8)
C8 C 0.67313(14) 0.28971(9) 0.50576(8)
C9 C 0.78277(14) 0.28385(9) 0.46130(8)
C10 C 0.74084(15) 0.24272(10) 0.38495(9)
H5 H 0.7191 0.1825 0.3903
H6 H 0.8083 0.2478 0.3558
H7 H 0.6690 0.2722 0.3612
C11 C 0.89204(15) 0.23388(10) 0.50273(10)
H8 H 0.8671 0.1739 0.5063
H9 H 0.9138 0.2583 0.5512
H10 H 0.9635 0.2382 0.4766
C12 C 0.59985(14) 0.22290(9) 0.52877(8)
H11 H 0.6149 0.1655 0.5174
C13 C 0.55485(15) 0.39635(10) 0.56280(8)
H12 H 0.5402 0.4538 0.5743
C14 C 0.50297(14) 0.24246(9) 0.56930(8)
C15 C 0.48176(15) 0.32934(10) 0.58605(8)
H13 H 0.4175 0.3422 0.6133
C16 C 0.41650(14) 0.17255(9) 0.59218(8)
C17 C 0.46700(14) 0.10924(9) 0.66742(8)
C18 C 0.59984(14) 0.12132(10) 0.70441(8)
C19 C 0.63959(14) 0.19634(10) 0.74507(8)
H14 H 0.5851 0.2419 0.7472
C20 C 0.76043(14) 0.20239(10) 0.78216(8)
C21 C 0.84296(14) 0.13402(10) 0.78002(8)
C22 C 0.80531(15) 0.06018(10) 0.73823(9)
H15 H 0.8605 0.0151 0.7356
C23 C 0.68474(15) 0.05442(10) 0.70049(8)
H16 H 0.6596 0.0053 0.6720
C24 C 0.95990(14) 0.15640(10) 0.82840(8)
C25 C 0.94830(14) 0.23907(10) 0.85851(8)
C26 C 1.04583(15) 0.27548(11) 0.90740(9)
H17 H 1.0387 0.3304 0.9275
C27 C 1.15441(15) 0.22878(12) 0.92592(9)
H18 H 1.2205 0.2530 0.9583
C28 C 1.16517(16) 0.14648(12) 0.89663(9)
H19 H 1.2380 0.1158 0.9101
C29 C 1.06835(15) 0.10933(11) 0.84729(9)
H20 H 1.0758 0.0543 0.8274
C30 C 0.82119(15) 0.27696(10) 0.83020(9)
C31 C 0.74511(15) 0.29711(11) 0.89303(9)
H21 H 0.7854 0.3443 0.9225
H22 H 0.7407 0.2467 0.9230
H23 H 0.6617 0.3129 0.8729
C32 C 0.83573(17) 0.35859(11) 0.78447(11)
H24 H 0.8742 0.4047 0.8159
H25 H 0.7544 0.3758 0.7617
H26 H 0.8876 0.3463 0.7472
H27 H 0.4512 -0.0468 0.6762
H28 H 0.3602 0.0816 0.7731
H29 H 0.1761 -0.0297 0.6729
H30 H 0.1360 0.1583 0.6945
H31 H 0.3886 0.2447 0.7051
H32 H 0.5294 0.0468 0.5569
H33 H 0.3184 0.1259 0.4724
H34 H 0.2794 -0.0519 0.5356
H35 H 0.0822 0.0824 0.5448
H36 H 0.2229 0.2519 0.5684
B1 B 0.39806(17) 0.00772(11) 0.65541(9)
B2 B 0.34278(17) 0.08583(11) 0.71445(9)
B3 B 0.44832(16) 0.06423(11) 0.58001(9)
B4 B 0.31495(17) 0.11254(11) 0.52977(9)
B5 B 0.30061(17) 0.00914(11) 0.56934(10)
B6 B 0.20970(17) 0.13537(11) 0.66485(10)
B7 B 0.23377(17) 0.02213(12) 0.65272(10)
B8 B 0.18199(17) 0.08715(12) 0.57489(10)
B9 B 0.25955(17) 0.19028(11) 0.58891(10)
B10 B 0.35868(16) 0.18888(11) 0.67465(9)
C33 C 1.15790(13) 0.34521(9) 0.22909(8)
C34 C 1.05318(13) 0.39011(9) 0.18203(8)
C35 C 0.96479(13) 0.43567(9) 0.21571(8)
H37 H 0.9704 0.4375 0.2667
C36 C 0.86917(14) 0.47786(9) 0.17308(8)
C37 C 0.85935(14) 0.47386(9) 0.09606(8)
C38 C 0.94600(14) 0.42815(10) 0.06247(8)
H38 H 0.9395 0.4254 0.0115
C39 C 1.04235(14) 0.38666(9) 0.10547(8)
H39 H 1.1006 0.3561 0.0830
C40 C 0.75047(14) 0.52366(9) 0.06489(8)
C41 C 0.69554(14) 0.55864(10) 0.12301(8)
C42 C 0.59195(15) 0.61051(11) 0.10869(9)
H40 H 0.5554 0.6343 0.1471
C43 C 0.54313(15) 0.62657(11) 0.03602(9)
H41 H 0.4739 0.6617 0.0260
C44 C 0.59662(15) 0.59070(10) -0.02154(9)
H42 H 0.5623 0.6014 -0.0698
C45 C 0.70090(14) 0.53904(10) -0.00775(8)
H43 H 0.7370 0.5151 -0.0463
C46 C 0.76522(14) 0.53280(10) 0.19717(8)
C47 C 0.67913(15) 0.47970(11) 0.24166(9)
H44 H 0.7255 0.4644 0.2880
H45 H 0.6495 0.4278 0.2147
H46 H 0.6087 0.5138 0.2500
C48 C 0.81907(15) 0.61328(10) 0.24183(8)
H47 H 0.8625 0.5955 0.2882
H48 H 0.7517 0.6504 0.2500
H49 H 0.8767 0.6443 0.2152
C49 C 1.15701(13) 0.23244(9) 0.22689(8)
C50 C 1.05799(14) 0.18830(9) 0.17229(8)
C51 C 1.09351(14) 0.14473(10) 0.11156(8)
H50 H 1.1785 0.1391 0.1080
C52 C 1.00482(14) 0.10981(10) 0.05673(8)
H51 H 1.0297 0.0801 0.0171
C53 C 0.87796(14) 0.11981(9) 0.06182(8)
C54 C 0.84163(14) 0.16242(9) 0.12277(8)
C55 C 0.93008(14) 0.19569(9) 0.17819(8)
H52 H 0.9050 0.2227 0.2190
C56 C 0.76446(14) 0.09693(9) 0.01051(8)
C57 C 0.66020(14) 0.12817(9) 0.03993(8)
C58 C 0.54137(14) 0.12005(11) 0.00005(8)
H53 H 0.4718 0.1408 0.0191
C59 C 0.52784(15) 0.08033(11) -0.06890(9)
H54 H 0.4484 0.0747 -0.0961
C60 C 0.63094(15) 0.04886(10) -0.09779(8)
H55 H 0.6198 0.0223 -0.1440
C61 C 0.75027(15) 0.05669(10) -0.05836(8)
H56 H 0.8195 0.0355 -0.0775
C62 C 0.69985(13) 0.17081(9) 0.11491(8)
C63 C 0.66555(15) 0.26686(10) 0.11461(9)
H57 H 0.5758 0.2713 0.1096
H58 H 0.6968 0.2952 0.0742
H59 H 0.7026 0.2941 0.1599
C64 C 0.64286(15) 0.12303(11) 0.17576(8)
H60 H 0.5534 0.1298 0.1690
H61 H 0.6783 0.1469 0.2227
H62 H 0.6612 0.0625 0.1738
B11 B 1.11383(16) 0.28646(10) 0.30170(9)
B12 B 1.20977(16) 0.19417(11) 0.31264(9)
B13 B 1.24672(16) 0.28767(11) 0.36972(9)
B14 B 1.21175(16) 0.38167(11) 0.31595(9)
B15 B 1.36995(16) 0.34815(11) 0.33505(9)
B16 B 1.30759(15) 0.19757(11) 0.24213(9)
B17 B 1.27107(15) 0.29186(11) 0.18875(9)
B18 B 1.31020(16) 0.38499(11) 0.24553(10)
B19 B 1.36896(16) 0.23239(11) 0.33280(9)
B20 B 1.40624(16) 0.29240(11) 0.25544(9)
H63 H 1.0159 0.2875 0.3109
H64 H 1.1668 0.1342 0.3273
H65 H 1.2339 0.2878 0.4268
H66 H 1.4399 0.1966 0.3671
H67 H 1.4407 0.3866 0.3703
H68 H 1.5003 0.2951 0.2391
H69 H 1.3301 0.4468 0.2196
H70 H 1.2747 0.2903 0.1318
H71 H 1.1743 0.4402 0.3337
H72 H 1.3252 0.1391 0.2139
loop_
_geom_bond_atom_site_label_1
_geom_bond_atom_site_label_2
_geom_bond_site_symmetry_1
_geom_bond_site_symmetry_2
C1 H1 1_555 1_555
C2 C1 1_555 1_555
H2 C2 1_555 1_555
C3 C2 1_555 1_555
H3 C3 1_555 1_555
C4 C3 1_555 1_555
C5 C4 1_555 1_555
C6 C1 1_555 1_555
H4 C6 1_555 1_555
C7 C4 1_555 1_555
C8 C7 1_555 1_555
C9 C5 1_555 1_555
C10 C9 1_555 1_555
H5 C10 1_555 1_555
H6 C10 1_555 1_555
H7 C10 1_555 1_555
C11 C9 1_555 1_555
H8 C11 1_555 1_555
H9 C11 1_555 1_555
H10 C11 1_555 1_555
C12 C8 1_555 1_555
H11 C12 1_555 1_555
C13 C7 1_555 1_555
H12 C13 1_555 1_555
C14 C12 1_555 1_555
C15 C13 1_555 1_555
H13 C15 1_555 1_555
C16 C14 1_555 1_555
C17 C16 1_555 1_555
C18 C17 1_555 1_555
C19 C18 1_555 1_555
H14 C19 1_555 1_555
C20 C19 1_555 1_555
C21 C20 1_555 1_555
C22 C21 1_555 1_555
H15 C22 1_555 1_555
C23 C18 1_555 1_555
H16 C23 1_555 1_555
C24 C21 1_555 1_555
C25 C24 1_555 1_555
C26 C25 1_555 1_555
H17 C26 1_555 1_555
C27 C26 1_555 1_555
H18 C27 1_555 1_555
C28 C27 1_555 1_555
H19 C28 1_555 1_555
C29 C24 1_555 1_555
H20 C29 1_555 1_555
C30 C20 1_555 1_555
C31 C30 1_555 1_555
H21 C31 1_555 1_555
H22 C31 1_555 1_555
H23 C31 1_555 1_555
C32 C30 1_555 1_555
H24 C32 1_555 1_555
H25 C32 1_555 1_555
H26 C32 1_555 1_555
H27 B1 1_555 1_555
H28 B2 1_555 1_555
H29 B7 1_555 1_555
H30 B6 1_555 1_555
H31 B10 1_555 1_555
H32 B3 1_555 1_555
H33 B4 1_555 1_555
H34 B5 1_555 1_555
H35 B8 1_555 1_555
H36 B9 1_555 1_555
B1 C17 1_555 1_555
B2 C17 1_555 1_555
B3 C16 1_555 1_555
B4 C16 1_555 1_555
B5 B1 1_555 1_555
B6 B2 1_555 1_555
B7 B1 1_555 1_555
B8 B4 1_555 1_555
B9 C16 1_555 1_555
B10 C16 1_555 1_555
C33 C34 1_555 1_555
C34 C35 1_555 1_555
C35 H37 1_555 1_555
C36 C35 1_555 1_555
C37 C36 1_555 1_555
C38 C37 1_555 1_555
H38 C38 1_555 1_555
C39 C34 1_555 1_555
H39 C39 1_555 1_555
C40 C37 1_555 1_555
C41 C40 1_555 1_555
C42 C41 1_555 1_555
H40 C42 1_555 1_555
C43 C42 1_555 1_555
H41 C43 1_555 1_555
C44 C43 1_555 1_555
H42 C44 1_555 1_555
C45 C40 1_555 1_555
H43 C45 1_555 1_555
C46 C36 1_555 1_555
C47 C46 1_555 1_555
H44 C47 1_555 1_555
H45 C47 1_555 1_555
H46 C47 1_555 1_555
C48 C46 1_555 1_555
H47 C48 1_555 1_555
H48 C48 1_555 1_555
H49 C48 1_555 1_555
C49 C33 1_555 1_555
C50 C49 1_555 1_555
C51 C50 1_555 1_555
H50 C51 1_555 1_555
C52 C51 1_555 1_555
H51 C52 1_555 1_555
C53 C52 1_555 1_555
C54 C53 1_555 1_555
C55 C50 1_555 1_555
H52 C55 1_555 1_555
C56 C53 1_555 1_555
C57 C56 1_555 1_555
C58 C57 1_555 1_555
H53 C58 1_555 1_555
C59 C58 1_555 1_555
H54 C59 1_555 1_555
C60 C59 1_555 1_555
H55 C60 1_555 1_555
C61 C56 1_555 1_555
H56 C61 1_555 1_555
C62 C54 1_555 1_555
C63 C62 1_555 1_555
H57 C63 1_555 1_555
H58 C63 1_555 1_555
H59 C63 1_555 1_555
C64 C62 1_555 1_555
H60 C64 1_555 1_555
H61 C64 1_555 1_555
H62 C64 1_555 1_555
B11 C33 1_555 1_555
B12 C49 1_555 1_555
B13 B11 1_555 1_555
B14 C33 1_555 1_555
B15 B13 1_555 1_555
B16 C49 1_555 1_555
B17 C33 1_555 1_555
B18 C33 1_555 1_555
B19 B12 1_555 1_555
B20 B15 1_555 1_555
H63 B11 1_555 1_555
H64 B12 1_555 1_555
H65 B13 1_555 1_555
H66 B19 1_555 1_555
H67 B15 1_555 1_555
H68 B20 1_555 1_555
H69 B18 1_555 1_555
H70 B17 1_555 1_555
H71 B14 1_555 1_555
H72 B16 1_555 1_555
C5 C6 1_555 1_555
C8 C9 1_555 1_555
C14 C15 1_555 1_555
C17 B3 1_555 1_555
C17 B10 1_555 1_555
C22 C23 1_555 1_555
C25 C30 1_555 1_555
C28 C29 1_555 1_555
B1 B2 1_555 1_555
B1 B3 1_555 1_555
B2 B7 1_555 1_555
B2 B10 1_555 1_555
B3 B4 1_555 1_555
B3 B5 1_555 1_555
B4 B5 1_555 1_555
B4 B9 1_555 1_555
B5 B7 1_555 1_555
B5 B8 1_555 1_555
B6 B7 1_555 1_555
B6 B8 1_555 1_555
B6 B9 1_555 1_555
B6 B10 1_555 1_555
B7 B8 1_555 1_555
B8 B9 1_555 1_555
B9 B10 1_555 1_555
C38 C39 1_555 1_555
C41 C46 1_555 1_555
C44 C45 1_555 1_555
C49 B11 1_555 1_555
C49 B17 1_555 1_555
C54 C55 1_555 1_555
C57 C62 1_555 1_555
C60 C61 1_555 1_555
B11 B12 1_555 1_555
B11 B14 1_555 1_555
B12 B13 1_555 1_555
B12 B16 1_555 1_555
B13 B14 1_555 1_555
B13 B19 1_555 1_555
B14 B15 1_555 1_555
B14 B18 1_555 1_555
B15 B18 1_555 1_555
B15 B19 1_555 1_555
B16 B17 1_555 1_555
B16 B19 1_555 1_555
B16 B20 1_555 1_555
B17 B18 1_555 1_555
B17 B20 1_555 1_555
B18 B20 1_555 1_555
B19 B20 1_555 1_555

#END
