
#######################################################################
#
#                 Cambridge Crystallographic Data Centre
#                                CCDC 
#
#######################################################################
#
# If this CIF has been generated from an entry in the Cambridge 
# Structural Database, then it will include bibliographic, chemical, 
# crystal, experimental, refinement or atomic coordinate data resulting 
# from the CCDC's data processing and validation procedures.
#
#######################################################################

data_QARXEP
_chemical_formula_moiety         'C23 H28 B10'
_chemical_name_systematic        
2-(2-phenyl-1,2-dicarba-closo-dodecaboranyl)-9,9-dimethyl-9H-fluorene
_symmetry_cell_setting           triclinic
_symmetry_space_group_name_H-M   'P -1'
_symmetry_Int_Tables_number      2
_space_group_name_Hall           '-P 1'
loop_
_symmetry_equiv_pos_site_id
_symmetry_equiv_pos_as_xyz
1 x,y,z
2 -x,-y,-z
_cell_length_a                   10.2378(4)
_cell_length_b                   10.7582(5)
_cell_length_c                   11.6502(6)
_cell_angle_alpha                90.007(2)
_cell_angle_beta                 102.099(2)
_cell_angle_gamma                110.257(2)
_cell_volume                     1173.35
_exptl_crystal_colour            colorless
_exptl_crystal_description       block
_cell_formula_units_Z            2
loop_
_atom_site_label
_atom_site_type_symbol
_atom_site_fract_x
_atom_site_fract_y
_atom_site_fract_z
C1 C 0.1978(3) 0.4578(2) 0.3338(2)
C2 C -0.0361(3) 0.1626(2) 0.5273(2)
C3 C 0.0487(3) 0.3972(2) 0.3055(2)
C4 C 0.2722(3) 0.5652(2) 0.2632(2)
C5 C 0.0627(3) 0.2667(2) 0.4735(2)
C6 C 0.2772(3) 0.3769(3) 0.1005(2)
C7 C 0.3172(3) 0.5214(2) 0.1370(2)
C8 C -0.0174(3) 0.3018(2) 0.3746(2)
C9 C 0.2764(3) 0.4219(3) 0.4326(2)
C10 C 0.2095(3) 0.3268(3) 0.5029(2)
C11 C -0.1756(3) 0.2208(3) 0.3573(2)
C12 C -0.2888(3) 0.0360(3) 0.4912(2)
C13 C -0.1742(3) 0.1342(3) 0.4608(2)
C14 C -0.1238(3) -0.0046(3) 0.6559(2)
C15 C -0.2614(3) -0.0331(3) 0.5892(2)
C16 C -0.0086(3) 0.0942(3) 0.6260(2)
C17 C 0.1600(3) 0.3159(3) 0.0088(3)
C18 C 0.3594(3) 0.3038(3) 0.1528(2)
C19 C -0.2318(3) 0.1357(3) 0.2390(2)
C20 C -0.2625(3) 0.3104(3) 0.3648(3)
C21 C 0.2083(4) 0.1126(3) 0.0222(3)
C22 C 0.1257(3) 0.1840(3) -0.0310(3)
C23 C 0.3238(4) 0.1719(3) 0.1133(3)
B1 B 0.1797(3) 0.5819(3) 0.1262(2)
B2 B 0.4730(3) 0.6392(3) 0.1185(3)
B3 B 0.3042(3) 0.6326(3) 0.0341(3)
B4 B 0.2512(3) 0.7507(3) 0.1005(3)
B5 B 0.2299(3) 0.7055(3) 0.2442(3)
B6 B 0.3993(3) 0.7125(3) 0.3289(3)
B7 B 0.4486(3) 0.5920(3) 0.2614(3)
B8 B 0.4343(3) 0.7882(3) 0.0965(3)
B9 B 0.5251(3) 0.7619(3) 0.2381(3)
B10 B 0.3900(3) 0.8332(3) 0.2267(2)
H1 H 0.1003 0.1052 0.6679
H2 H -0.1168 -0.0736 0.7171
H3 H -0.3496 -0.1148 0.6062
H4 H -0.3952 0.0046 0.4407
H5 H 0.2655 0.2914 0.5780
H6 H 0.3890 0.4726 0.4585
H7 H -0.0035 0.4268 0.2282
H8 H 0.4240 0.7292 0.4265
H9 H 0.4162 0.9409 0.2554
H10 H 0.1480 0.7145 0.2807
H11 H 0.6303 0.8164 0.2809
H12 H 0.4918 0.8684 0.0527
H13 H 0.1912 0.8063 0.0536
H14 H 0.0666 0.4988 0.0914
H15 H 0.5471 0.5979 0.0841
H16 H 0.2633 0.5826 -0.0619
H17 H 0.4887 0.5199 0.3045
H18 H 0.0933 0.3692 -0.0362
H19 H 0.0291 0.1396 -0.1015
H20 H 0.1752 0.0170 -0.0123
H21 H 0.3841 0.1186 0.1579
H22 H 0.4560 0.3556 0.2179
H23 H -0.1750 0.0780 0.2273
H24 H -0.2231 0.2009 0.1744
H25 H -0.3364 0.0914 0.2308
H26 H -0.3783 0.2451 0.3605
H27 H -0.2198 0.3739 0.4442
H28 H -0.2661 0.3676 0.2899
loop_
_geom_bond_atom_site_label_1
_geom_bond_atom_site_label_2
_geom_bond_site_symmetry_1
_geom_bond_site_symmetry_2
C1 C3 1_555 1_555
C2 C5 1_555 1_555
C3 C8 1_555 1_555
C4 C1 1_555 1_555
C5 C8 1_555 1_555
C6 C7 1_555 1_555
C7 C4 1_555 1_555
C8 C11 1_555 1_555
C9 C1 1_555 1_555
C10 C5 1_555 1_555
C11 C13 1_555 1_555
C12 C13 1_555 1_555
C13 C2 1_555 1_555
C14 C15 1_555 1_555
C15 C12 1_555 1_555
C16 C2 1_555 1_555
C17 C6 1_555 1_555
C18 C6 1_555 1_555
C19 C11 1_555 1_555
C20 C11 1_555 1_555
C21 C22 1_555 1_555
C22 C17 1_555 1_555
C23 C18 1_555 1_555
B1 C4 1_555 1_555
B2 C7 1_555 1_555
B3 C7 1_555 1_555
B4 B1 1_555 1_555
B5 C4 1_555 1_555
B6 C4 1_555 1_555
B7 C4 1_555 1_555
B8 B2 1_555 1_555
B9 B2 1_555 1_555
B10 B4 1_555 1_555
H1 C16 1_555 1_555
H2 C14 1_555 1_555
H3 C15 1_555 1_555
H4 C12 1_555 1_555
H5 C10 1_555 1_555
H6 C9 1_555 1_555
H7 C3 1_555 1_555
H8 B6 1_555 1_555
H9 B10 1_555 1_555
H10 B5 1_555 1_555
H11 B9 1_555 1_555
H12 B8 1_555 1_555
H13 B4 1_555 1_555
H14 B1 1_555 1_555
H15 B2 1_555 1_555
H16 B3 1_555 1_555
H17 B7 1_555 1_555
H18 C17 1_555 1_555
H19 C22 1_555 1_555
H20 C21 1_555 1_555
H21 C23 1_555 1_555
H22 C18 1_555 1_555
H23 C19 1_555 1_555
H24 C19 1_555 1_555
H25 C19 1_555 1_555
H26 C20 1_555 1_555
H27 C20 1_555 1_555
H28 C20 1_555 1_555
C7 B1 1_555 1_555
C7 B7 1_555 1_555
C9 C10 1_555 1_555
C14 C16 1_555 1_555
C21 C23 1_555 1_555
B1 B3 1_555 1_555
B1 B5 1_555 1_555
B2 B3 1_555 1_555
B2 B7 1_555 1_555
B3 B4 1_555 1_555
B3 B8 1_555 1_555
B4 B5 1_555 1_555
B4 B8 1_555 1_555
B5 B6 1_555 1_555
B5 B10 1_555 1_555
B6 B7 1_555 1_555
B6 B9 1_555 1_555
B6 B10 1_555 1_555
B7 B9 1_555 1_555
B8 B9 1_555 1_555
B8 B10 1_555 1_555
B9 B10 1_555 1_555

#END
