
#######################################################################
#
#                 Cambridge Crystallographic Data Centre
#                                CCDC 
#
#######################################################################
#
# If this CIF has been generated from an entry in the Cambridge 
# Structural Database, then it will include bibliographic, chemical, 
# crystal, experimental, refinement or atomic coordinate data resulting 
# from the CCDC's data processing and validation procedures.
#
#######################################################################

data_QASGUP
_chemical_compound_source        
'diethyl sulfate mutant of the marine-derived fungus Penicillium purpurogenum G59'
_chemical_name_common            'penicimutamide D methanol solvate'
_chemical_formula_moiety         'C21 H25 N3 O2,C1 H4 O1'
_chemical_name_systematic        
'6a-hydroxy-12,12-dimethyl-2,3,6a,12,12a,13-hexahydro-1H,5H,6H-5a,13a-(epiminomethano)indolizino[7,6-b]carbazol-14-one methanol solvate'
_symmetry_cell_setting           orthorhombic
_symmetry_space_group_name_H-M   'P 21 21 21'
_symmetry_Int_Tables_number      19
_space_group_name_Hall           'P 2ac 2ab'
loop_
_symmetry_equiv_pos_site_id
_symmetry_equiv_pos_as_xyz
1 x,y,z
2 1/2-x,-y,1/2+z
3 1/2+x,1/2-y,-z
4 -x,1/2+y,1/2-z
_cell_length_a                   11.841(6)
_cell_length_b                   12.064(3)
_cell_length_c                   13.693(5)
_cell_angle_alpha                90
_cell_angle_beta                 90
_cell_angle_gamma                90
_cell_volume                     1956.04
_cell_formula_units_Z            4
loop_
_atom_site_label
_atom_site_type_symbol
_atom_site_fract_x
_atom_site_fract_y
_atom_site_fract_z
O1 O 0.01848(11) 0.94889(12) 0.56966(10)
O2 O -0.33666(11) 1.06213(10) 0.48758(9)
H1 H -0.3723 1.0493 0.4357
C1 C -0.33689(15) 0.83341(14) 0.61345(13)
C2 C -0.16119(15) 0.82697(14) 0.72937(13)
H2 H -0.1699 0.7925 0.7945
H3 H -0.1457 0.7675 0.6814
N1 N -0.53604(13) 0.88746(13) 0.58952(11)
C3 C -0.43092(15) 0.91254(14) 0.58741(13)
N2 N -0.15255(13) 1.02196(12) 0.61178(11)
H4 H -0.1599 1.0638 0.5595
C4 C 0.01702(16) 1.06101(16) 0.81182(13)
H5 H 0.0210 1.1019 0.8744
H6 H 0.0228 1.1145 0.7572
C5 C -0.75675(16) 1.10691(17) 0.55829(13)
H7 H -0.8362 1.1177 0.5580
C6 C 0.05233(15) 0.86802(15) 0.76356(14)
H8 H 0.0955 0.8377 0.7077
H9 H 0.0449 0.8099 0.8142
N3 N -0.08804(13) 0.99617(13) 0.80519(11)
C7 C -0.34574(15) 1.08178(14) 0.65978(12)
H10 H -0.3225 1.1595 0.6481
H11 H -0.3988 1.0813 0.7157
C8 C -0.19188(15) 1.05836(14) 0.78101(13)
H12 H -0.1739 1.1381 0.7735
H13 H -0.2474 1.0505 0.8346
C9 C -0.52614(15) 1.07918(15) 0.56020(12)
C10 C -0.06283(15) 0.90929(14) 0.73099(13)
C11 C -0.24240(15) 1.01354(14) 0.68579(12)
C12 C -0.59759(16) 0.98854(15) 0.57274(12)
C13 C -0.27145(15) 0.88892(14) 0.70110(13)
H14 H -0.3225 0.8849 0.7591
C14 C -0.71351(15) 0.99989(16) 0.57199(13)
H15 H -0.7619 0.9378 0.5804
C15 C 0.11061(16) 0.97311(16) 0.80563(13)
H16 H 0.1425 0.9579 0.8711
H17 H 0.1722 0.9982 0.7620
C16 C -0.38480(17) 0.72222(15) 0.64954(15)
H18 H -0.4327 0.7350 0.7068
H19 H -0.3225 0.6727 0.6673
H20 H -0.4297 0.6881 0.5975
C17 C -0.56890(16) 1.18413(15) 0.54568(13)
H21 H -0.5201 1.2457 0.5363
C18 C -0.40649(15) 1.03771(14) 0.56896(13)
C19 C -0.68615(16) 1.19726(16) 0.54519(13)
H22 H -0.7178 1.2688 0.5358
C20 C -0.05878(15) 0.96220(14) 0.62853(13)
C21 C -0.26531(17) 0.80953(16) 0.52121(14)
H23 H -0.3131 0.7755 0.4711
H24 H -0.2036 0.7588 0.5380
H25 H -0.2339 0.8791 0.4962
O3 O -0.46484(13) 0.95925(13) 0.89019(11)
H26 H -0.4840 0.9937 0.9409
C22 C -0.56236(19) 0.92989(18) 0.83642(15)
H27 H -0.5837 0.9914 0.7935
H28 H -0.6245 0.9140 0.8816
H29 H -0.5465 0.8639 0.7970
loop_
_geom_bond_atom_site_label_1
_geom_bond_atom_site_label_2
_geom_bond_site_symmetry_1
_geom_bond_site_symmetry_2
O1 C20 1_555 1_555
O2 H1 1_555 1_555
C1 C3 1_555 1_555
C2 H2 1_555 1_555
H3 C2 1_555 1_555
N1 C3 1_555 1_555
C3 C18 1_555 1_555
N2 H4 1_555 1_555
C4 H5 1_555 1_555
H6 C4 1_555 1_555
C5 H7 1_555 1_555
C6 H8 1_555 1_555
H9 C6 1_555 1_555
N3 C4 1_555 1_555
C7 H10 1_555 1_555
H11 C7 1_555 1_555
C8 N3 1_555 1_555
H12 C8 1_555 1_555
H13 C8 1_555 1_555
C9 C12 1_555 1_555
C10 C2 1_555 1_555
C11 N2 1_555 1_555
C12 N1 1_555 1_555
C13 C1 1_555 1_555
H14 C13 1_555 1_555
C14 C5 1_555 1_555
H15 C14 1_555 1_555
C15 C4 1_555 1_555
H16 C15 1_555 1_555
H17 C15 1_555 1_555
C16 C1 1_555 1_555
H18 C16 1_555 1_555
H19 C16 1_555 1_555
H20 C16 1_555 1_555
C17 C9 1_555 1_555
H21 C17 1_555 1_555
C18 O2 1_555 1_555
C19 C5 1_555 1_555
H22 C19 1_555 1_555
C20 N2 1_555 1_555
C21 C1 1_555 1_555
H23 C21 1_555 1_555
H24 C21 1_555 1_555
H25 C21 1_555 1_555
O3 H26 1_555 1_555
C22 O3 1_555 1_555
H27 C22 1_555 1_555
H28 C22 1_555 1_555
H29 C22 1_555 1_555
C2 C13 1_555 1_555
C6 C10 1_555 1_555
C6 C15 1_555 1_555
N3 C10 1_555 1_555
C7 C11 1_555 1_555
C7 C18 1_555 1_555
C8 C11 1_555 1_555
C9 C18 1_555 1_555
C10 C20 1_555 1_555
C11 C13 1_555 1_555
C12 C14 1_555 1_555
C17 C19 1_555 1_555

#END
