
#######################################################################
#
#                 Cambridge Crystallographic Data Centre
#                                CCDC 
#
#######################################################################
#
# If this CIF has been generated from an entry in the Cambridge 
# Structural Database, then it will include bibliographic, chemical, 
# crystal, experimental, refinement or atomic coordinate data resulting 
# from the CCDC's data processing and validation procedures.
#
#######################################################################

data_QASPIK
_chemical_formula_moiety         'C19 H26 O3'
_chemical_name_systematic        4\b,5\b-Epoxyandrostane-3,17-dione
_symmetry_cell_setting           monoclinic
_symmetry_space_group_name_H-M   'P 21'
_symmetry_Int_Tables_number      4
_space_group_name_Hall           'P 2yb'
loop_
_symmetry_equiv_pos_site_id
_symmetry_equiv_pos_as_xyz
1 x,y,z
2 -x,1/2+y,-z
_cell_length_a                   6.9994(10)
_cell_length_b                   11.0001(15)
_cell_length_c                   10.6877(14)
_cell_angle_alpha                90
_cell_angle_beta                 100.150(4)
_cell_angle_gamma                90
_cell_volume                     810.011
_exptl_crystal_colour            colorless
_exptl_crystal_description       prism
_cell_formula_units_Z            2
_exptl_crystal_recrystallization_method 'ethyl acetate/hexane'
loop_
_atom_site_label
_atom_site_type_symbol
_atom_site_fract_x
_atom_site_fract_y
_atom_site_fract_z
O1 O 0.1082(6) 1.4677(3) 0.7454(3)
O2 O 0.2845(3) 1.30073(18) 1.00874(19)
O3 O 0.1784(4) 0.7419(2) 0.4053(2)
C1 C 0.5231(5) 1.2649(3) 0.8294(3)
H1 H 0.5841 1.3081 0.9050
H2 H 0.6253 1.2382 0.7850
C2 C 0.3927(8) 1.3522(3) 0.7446(4)
H3 H 0.4648 1.4261 0.7359
H4 H 0.3581 1.3162 0.6608
C3 C 0.2107(7) 1.3847(4) 0.7920(4)
C4 C 0.1472(5) 1.3073(3) 0.8881(3)
H5 H 0.0091 1.3108 0.8940
C5 C 0.2495(4) 1.1933(3) 0.9300(2)
C6 C 0.1355(5) 1.0939(3) 0.9778(3)
H6 H 0.0295 1.1283 1.0137
H7 H 0.2182 1.0483 1.0438
C7 C 0.0563(5) 1.0109(3) 0.8684(3)
H8 H -0.0384 1.0549 0.8079
H9 H -0.0094 0.9429 0.9001
C8 C 0.2155(4) 0.9627(3) 0.8008(3)
H10 H 0.3024 0.9107 0.8598
C9 C 0.3354(4) 1.0684(3) 0.7578(3)
H11 H 0.2430 1.1183 0.7000
C10 C 0.4203(5) 1.1523(3) 0.8702(3)
C11 C 0.4832(5) 1.0222(3) 0.6793(3)
H12 H 0.5446 1.0916 0.6467
H13 H 0.5832 0.9771 0.7346
C12 C 0.3964(5) 0.9409(3) 0.5678(3)
H14 H 0.3119 0.9888 0.5049
H15 H 0.4999 0.9082 0.5282
C13 C 0.2814(4) 0.8368(3) 0.6119(3)
C14 C 0.1303(4) 0.8883(3) 0.6844(3)
H16 H 0.0510 0.9447 0.6260
C15 C -0.0004(5) 0.7794(3) 0.6986(3)
H17 H -0.1268 0.8054 0.7137
H18 H 0.0583 0.7264 0.7673
C16 C -0.0152(5) 0.7165(3) 0.5693(3)
H19 H -0.0079 0.6290 0.5798
H20 H -0.1373 0.7367 0.5149
C17 C 0.1534(5) 0.7624(3) 0.5118(3)
C18 C 0.4200(5) 0.7433(3) 0.6886(3)
H21 H 0.3455 0.6791 0.7174
H22 H 0.4963 0.7827 0.7607
H23 H 0.5043 0.7100 0.6356
C19 C 0.5699(5) 1.0878(3) 0.9695(3)
H24 H 0.5124 1.0167 0.9995
H25 H 0.6122 1.1418 1.0395
H26 H 0.6792 1.0643 0.9319
loop_
_geom_bond_atom_site_label_1
_geom_bond_atom_site_label_2
_geom_bond_site_symmetry_1
_geom_bond_site_symmetry_2
O1 C3 1_555 1_555
O2 C4 1_555 1_555
O3 C17 1_555 1_555
C1 H1 1_555 1_555
H2 C1 1_555 1_555
C2 C1 1_555 1_555
H3 C2 1_555 1_555
H4 C2 1_555 1_555
C3 C2 1_555 1_555
C4 C3 1_555 1_555
H5 C4 1_555 1_555
C5 O2 1_555 1_555
C6 C5 1_555 1_555
H6 C6 1_555 1_555
H7 C6 1_555 1_555
C7 C6 1_555 1_555
H8 C7 1_555 1_555
H9 C7 1_555 1_555
C8 C7 1_555 1_555
H10 C8 1_555 1_555
C9 C8 1_555 1_555
H11 C9 1_555 1_555
C10 C1 1_555 1_555
C11 C9 1_555 1_555
H12 C11 1_555 1_555
H13 C11 1_555 1_555
C12 C11 1_555 1_555
H14 C12 1_555 1_555
H15 C12 1_555 1_555
C13 C12 1_555 1_555
C14 C8 1_555 1_555
H16 C14 1_555 1_555
C15 C14 1_555 1_555
H17 C15 1_555 1_555
H18 C15 1_555 1_555
C16 C15 1_555 1_555
H19 C16 1_555 1_555
H20 C16 1_555 1_555
C17 C13 1_555 1_555
C18 C13 1_555 1_555
H21 C18 1_555 1_555
H22 C18 1_555 1_555
H23 C18 1_555 1_555
C19 C10 1_555 1_555
H24 C19 1_555 1_555
H25 C19 1_555 1_555
H26 C19 1_555 1_555
C4 C5 1_555 1_555
C5 C10 1_555 1_555
C9 C10 1_555 1_555
C13 C14 1_555 1_555
C16 C17 1_555 1_555

#END
