
#######################################################################
#
#                 Cambridge Crystallographic Data Centre
#                                CCDC 
#
#######################################################################
#
# If this CIF has been generated from an entry in the Cambridge 
# Structural Database, then it will include bibliographic, chemical, 
# crystal, experimental, refinement or atomic coordinate data resulting 
# from the CCDC's data processing and validation procedures.
#
#######################################################################

data_QASTAI
_chemical_name_common            'myrtucommulone O'
_chemical_formula_moiety         'C29 H44 O3'
_chemical_name_systematic        
6,6,6',8,8,10',10'-heptamethyl-4-(propan-2-yl)-4,8-dihydrospiro[1-benzopyran-2,2'-bicyclo[7.2.0]undec[5]ene]-5,7(3H,6H)-dione
_symmetry_cell_setting           monoclinic
_symmetry_space_group_name_H-M   'P 21'
_symmetry_Int_Tables_number      4
_space_group_name_Hall           'P 2yb'
loop_
_symmetry_equiv_pos_site_id
_symmetry_equiv_pos_as_xyz
1 x,y,z
2 -x,1/2+y,-z
_cell_length_a                   12.0744(9)
_cell_length_b                   8.4194(5)
_cell_length_c                   12.9308(9)
_cell_angle_alpha                90
_cell_angle_beta                 93.376(6)
_cell_angle_gamma                90
_cell_volume                     1312.25
_exptl_crystal_colour            colorless
_exptl_crystal_description       block
_cell_formula_units_Z            2
loop_
_atom_site_label
_atom_site_type_symbol
_atom_site_fract_x
_atom_site_fract_y
_atom_site_fract_z
O1 O -0.7494(3) -0.4226(6) -0.9356(3)
O2 O -0.5070(3) -0.6780(4) -0.7179(3)
O3 O -0.4216(3) -0.1646(4) -0.8192(2)
C1 C -0.5920(4) -0.2724(6) -0.8766(4)
C2 C -0.6735(4) -0.4077(7) -0.8708(4)
C3 C -0.6624(4) -0.5249(6) -0.7814(4)
C4 C -0.5400(4) -0.5450(6) -0.7435(4)
C5 C -0.4688(4) -0.4074(6) -0.7362(3)
C6 C -0.4890(4) -0.2867(6) -0.8043(3)
C7 C -0.3144(4) -0.1477(6) -0.7581(3)
C8 C -0.3203(4) -0.2355(5) -0.6564(3)
H1 H -0.3672 -0.1753 -0.6123
H2 H -0.2465 -0.2383 -0.6226
C9 C -0.3646(4) -0.4060(6) -0.6644(3)
H3 H -0.3087 -0.4699 -0.6974
C10 C -0.3137(4) 0.0337(6) -0.7397(4)
H4 H -0.3013 0.0855 -0.8050
H5 H -0.3870 0.0647 -0.7201
C11 C -0.2298(5) 0.0978(7) -0.6589(4)
H6 H -0.2310 0.2130 -0.6599
H7 H -0.2483 0.0625 -0.5906
C12 C -0.1175(5) 0.0400(7) -0.6813(5)
H8 H -0.0909 0.0762 -0.7431
C13 C -0.0494(5) -0.0557(7) -0.6262(4)
C14 C 0.0391(5) -0.1451(9) -0.6798(4)
H9 H 0.0623 -0.2362 -0.6380
H10 H 0.1030 -0.0767 -0.6856
C15 C -0.0014(4) -0.2025(7) -0.7888(4)
H11 H -0.0074 -0.1112 -0.8344
H12 H 0.0544 -0.2726 -0.8146
C16 C -0.1127(4) -0.2899(6) -0.7950(4)
H13 H -0.1215 -0.3464 -0.7297
C17 C -0.2265(4) -0.2086(6) -0.8307(3)
H14 H -0.2108 -0.1229 -0.8790
C18 C -0.2549(4) -0.3604(6) -0.8953(4)
H15 H -0.3030 -0.4339 -0.8615
H16 H -0.2832 -0.3385 -0.9656
C19 C -0.1315(4) -0.4086(7) -0.8868(4)
C20 C -0.5591(4) -0.2566(7) -0.9913(4)
H17 H -0.5077 -0.1704 -0.9966
H18 H -0.6244 -0.2360 -1.0353
H19 H -0.5252 -0.3535 -1.0124
C21 C -0.6538(4) -0.1181(6) -0.8496(4)
H20 H -0.6735 -0.1224 -0.7788
H21 H -0.7198 -0.1078 -0.8942
H22 H -0.6064 -0.0283 -0.8589
C22 C -0.7220(4) -0.4527(9) -0.6894(4)
H23 H -0.7137 -0.5226 -0.6308
H24 H -0.7994 -0.4394 -0.7089
H25 H -0.6898 -0.3514 -0.6716
C23 C -0.7143(5) -0.6847(7) -0.8106(5)
H26 H -0.6796 -0.7269 -0.8696
H27 H -0.7922 -0.6710 -0.8273
H28 H -0.7037 -0.7568 -0.7534
C24 C -0.3810(4) -0.4803(7) -0.5574(3)
H29 H -0.4073 -0.5892 -0.5695
C25 C -0.4678(5) -0.3954(9) -0.4969(4)
H30 H -0.4440 -0.2885 -0.4823
H31 H -0.4770 -0.4506 -0.4330
H32 H -0.5372 -0.3936 -0.5371
C26 C -0.2710(5) -0.4909(8) -0.4923(4)
H33 H -0.2168 -0.5439 -0.5313
H34 H -0.2819 -0.5496 -0.4301
H35 H -0.2454 -0.3858 -0.4746
C27 C -0.0579(5) -0.0906(9) -0.5138(4)
H36 H -0.1189 -0.0324 -0.4882
H37 H 0.0096 -0.0596 -0.4763
H38 H -0.0698 -0.2023 -0.5045
C28 C -0.0720(5) -0.3635(8) -0.9840(4)
H39 H -0.0826 -0.2524 -0.9981
H40 H -0.1019 -0.4245 -1.0418
H41 H 0.0059 -0.3854 -0.9730
C29 C -0.1087(5) -0.5834(7) -0.8596(5)
H42 H -0.0305 -0.5985 -0.8448
H43 H -0.1334 -0.6493 -0.9170
H44 H -0.1479 -0.6118 -0.7998
loop_
_geom_bond_atom_site_label_1
_geom_bond_atom_site_label_2
_geom_bond_site_symmetry_1
_geom_bond_site_symmetry_2
O1 C2 1_555 1_555
O2 C4 1_555 1_555
O3 C6 1_555 1_555
C1 C2 1_555 1_555
C2 C3 1_555 1_555
C3 C4 1_555 1_555
C4 C5 1_555 1_555
C5 C6 1_555 1_555
C6 C1 1_555 1_555
C7 O3 1_555 1_555
C8 C7 1_555 1_555
H1 C8 1_555 1_555
H2 C8 1_555 1_555
C9 C5 1_555 1_555
H3 C9 1_555 1_555
C10 C7 1_555 1_555
H4 C10 1_555 1_555
H5 C10 1_555 1_555
C11 C10 1_555 1_555
H6 C11 1_555 1_555
H7 C11 1_555 1_555
C12 C11 1_555 1_555
H8 C12 1_555 1_555
C13 C12 1_555 1_555
C14 C13 1_555 1_555
H9 C14 1_555 1_555
H10 C14 1_555 1_555
C15 C14 1_555 1_555
H11 C15 1_555 1_555
H12 C15 1_555 1_555
C16 C15 1_555 1_555
H13 C16 1_555 1_555
C17 C7 1_555 1_555
H14 C17 1_555 1_555
C18 C17 1_555 1_555
H15 C18 1_555 1_555
H16 C18 1_555 1_555
C19 C16 1_555 1_555
C20 C1 1_555 1_555
H17 C20 1_555 1_555
H18 C20 1_555 1_555
H19 C20 1_555 1_555
C21 C1 1_555 1_555
H20 C21 1_555 1_555
H21 C21 1_555 1_555
H22 C21 1_555 1_555
C22 C3 1_555 1_555
H23 C22 1_555 1_555
H24 C22 1_555 1_555
H25 C22 1_555 1_555
C23 C3 1_555 1_555
H26 C23 1_555 1_555
H27 C23 1_555 1_555
H28 C23 1_555 1_555
C24 C9 1_555 1_555
H29 C24 1_555 1_555
C25 C24 1_555 1_555
H30 C25 1_555 1_555
H31 C25 1_555 1_555
H32 C25 1_555 1_555
C26 C24 1_555 1_555
H33 C26 1_555 1_555
H34 C26 1_555 1_555
H35 C26 1_555 1_555
C27 C13 1_555 1_555
H36 C27 1_555 1_555
H37 C27 1_555 1_555
H38 C27 1_555 1_555
C28 C19 1_555 1_555
H39 C28 1_555 1_555
H40 C28 1_555 1_555
H41 C28 1_555 1_555
C29 C19 1_555 1_555
H42 C29 1_555 1_555
H43 C29 1_555 1_555
H44 C29 1_555 1_555
C8 C9 1_555 1_555
C16 C17 1_555 1_555
C18 C19 1_555 1_555

#END
