
#######################################################################
#
#                 Cambridge Crystallographic Data Centre
#                                CCDC 
#
#######################################################################
#
# If this CIF has been generated from an entry in the Cambridge 
# Structural Database, then it will include bibliographic, chemical, 
# crystal, experimental, refinement or atomic coordinate data resulting 
# from the CCDC's data processing and validation procedures.
#
#######################################################################

data_QASVUC
_chemical_formula_moiety         'C34 H48 O12'
_chemical_name_systematic        3,4:3',4'-bis(18-Crown-6)stilbene
_symmetry_cell_setting           monoclinic
_symmetry_space_group_name_H-M   'C 2/c'
_symmetry_Int_Tables_number      15
_space_group_name_Hall           '-C 2yn'
loop_
_symmetry_equiv_pos_site_id
_symmetry_equiv_pos_as_xyz
1 x,y,z
2 1/2+x,1/2+y,z
3 -x,y,1/2-z
4 1/2-x,1/2+y,1/2-z
5 -x,-y,-z
6 1/2-x,1/2-y,-z
7 x,-y,1/2+z
8 1/2+x,1/2-y,1/2+z
_cell_length_a                   42.7776(15)
_cell_length_b                   9.0073(3)
_cell_length_c                   8.6096(3)
_cell_angle_alpha                90
_cell_angle_beta                 95.988(2)
_cell_angle_gamma                90
_cell_volume                     3299.27
_cell_formula_units_Z            4
_exptl_crystal_recrystallization_method dichloromethane/hexane
loop_
_atom_site_label
_atom_site_type_symbol
_atom_site_fract_x
_atom_site_fract_y
_atom_site_fract_z
O1 O 0.17466(3) 0.27084(12) 1.06377(13)
O2 O 0.15260(3) 0.09040(12) 0.84488(13)
O3 O 0.08469(3) 0.05560(12) 0.80211(14)
O4 O 0.04712(3) 0.20369(13) 1.01577(14)
O5 O 0.06622(3) 0.50069(13) 1.10629(15)
O6 O 0.13387(3) 0.46365(15) 1.21263(15)
C1 C 0.23768(5) 0.21300(19) 0.5209(2)
C2 C 0.22235(5) 0.23231(17) 0.6652(2)
C3 C 0.23406(5) 0.32701(18) 0.7859(2)
C4 C 0.21888(5) 0.34127(18) 0.9209(2)
C5 C 0.19170(5) 0.26233(17) 0.9377(2)
C6 C 0.17928(5) 0.16533(17) 0.8171(2)
C7 C 0.19477(5) 0.15117(18) 0.6835(2)
C8 C 0.18513(5) 0.37663(19) 1.1842(2)
C9 C 0.15979(5) 0.3889(2) 1.2921(2)
C10 C 0.11080(6) 0.5037(2) 1.3139(2)
C11 C 0.08511(6) 0.5881(2) 1.2209(3)
C12 C 0.04262(5) 0.4192(2) 1.1719(2)
C13 C 0.02630(5) 0.3193(2) 1.0492(2)
C14 C 0.03494(5) 0.1130(2) 0.8886(2)
C15 C 0.05809(5) -0.00779(19) 0.8633(2)
C16 C 0.10694(5) -0.05445(18) 0.7667(2)
C17 C 0.13530(5) 0.01912(19) 0.7126(2)
H1 H 0.2277(5) 0.136(2) 0.449(2)
H2 H 0.2520(5) 0.3813(19) 0.777(2)
H3 H 0.2285(5) 0.4090(19) 1.003(2)
H4 H 0.1861(5) 0.0849(18) 0.602(2)
H5 H 0.2055(5) 0.3420(19) 1.242(2)
H6 H 0.1888(4) 0.4738(18) 1.140(2)
H7 H 0.1682(5) 0.4457(19) 1.384(2)
H8 H 0.1542(5) 0.2898(19) 1.331(2)
H9 H 0.1026(5) 0.412(2) 1.363(2)
H10 H 0.1213(5) 0.566(2) 1.398(2)
H11 H 0.0949(5) 0.664(2) 1.159(2)
H12 H 0.0703(5) 0.6312(18) 1.291(2)
H13 H 0.0514(5) 0.362(2) 1.260(2)
H14 H 0.0261(5) 0.488(2) 1.209(2)
H15 H 0.0206(5) 0.379(2) 0.957(2)
H16 H 0.0065(5) 0.2740(19) 1.084(2)
H17 H 0.0146(5) 0.0706(18) 0.908(2)
H18 H 0.0308(5) 0.1767(18) 0.791(2)
H19 H 0.0475(5) -0.0831(19) 0.791(2)
H20 H 0.0645(5) -0.063(2) 0.966(3)
H21 H 0.0966(5) -0.1195(19) 0.688(2)
H22 H 0.1130(5) -0.121(2) 0.860(2)
H23 H 0.1285(5) 0.0940(18) 0.632(2)
H24 H 0.1481(4) -0.0570(18) 0.670(2)
O1E O 0.32534(3) 0.22916(12) -0.06377(13)
O2E O 0.34740(3) 0.40960(12) 0.15512(13)
O3E O 0.41531(3) 0.44440(12) 0.19789(14)
O4E O 0.45288(3) 0.29631(13) -0.01577(14)
O5E O 0.43378(3) -0.00069(13) -0.10629(15)
O6E O 0.36613(3) 0.03635(15) -0.21263(15)
C1E C 0.26232(5) 0.28700(19) 0.4791(2)
C2E C 0.27765(5) 0.26769(17) 0.3348(2)
C3E C 0.26594(5) 0.17299(18) 0.2141(2)
C4E C 0.28112(5) 0.15873(18) 0.0791(2)
C5E C 0.30830(5) 0.23767(17) 0.0623(2)
C6E C 0.32072(5) 0.33467(17) 0.1829(2)
C7E C 0.30523(5) 0.34883(18) 0.3165(2)
C8E C 0.31487(5) 0.12337(19) -0.1842(2)
C9E C 0.34021(5) 0.1111(2) -0.2921(2)
C10E C 0.38920(6) -0.0037(2) -0.3139(2)
C11E C 0.41489(6) -0.0881(2) -0.2209(3)
C12E C 0.45738(5) 0.0808(2) -0.1719(2)
C13E C 0.47370(5) 0.1807(2) -0.0492(2)
C14E C 0.46506(5) 0.3870(2) 0.1114(2)
C15E C 0.44191(5) 0.50779(19) 0.1367(2)
C16E C 0.39306(5) 0.55445(18) 0.2333(2)
C17E C 0.36470(5) 0.48088(19) 0.2874(2)
H1E H 0.2723(5) 0.364(2) 0.551(2)
H2E H 0.2480(5) 0.1187(19) 0.223(2)
H3E H 0.2715(5) 0.0910(19) -0.003(2)
H4E H 0.3139(5) 0.4151(18) 0.398(2)
H5E H 0.2945(5) 0.1580(19) -0.242(2)
H6E H 0.3112(4) 0.0262(18) -0.140(2)
H7E H 0.3318(5) 0.0543(19) -0.384(2)
H8E H 0.3458(5) 0.2102(19) -0.331(2)
H9E H 0.3974(5) 0.088(2) -0.363(2)
H10E H 0.3787(5) -0.066(2) -0.398(2)
H11E H 0.4051(5) -0.164(2) -0.159(2)
H12E H 0.4297(5) -0.1312(18) -0.291(2)
H13E H 0.4486(5) 0.138(2) -0.260(2)
H14E H 0.4739(5) 0.012(2) -0.209(2)
H15E H 0.4794(5) 0.121(2) 0.043(2)
H16E H 0.4935(5) 0.2260(19) -0.084(2)
H17E H 0.4854(5) 0.4294(18) 0.092(2)
H18E H 0.4692(5) 0.3233(18) 0.209(2)
H19E H 0.4525(5) 0.5831(19) 0.209(2)
H20E H 0.4355(5) 0.563(2) 0.034(3)
H21E H 0.4034(5) 0.6195(19) 0.312(2)
H22E H 0.3870(5) 0.621(2) 0.140(2)
H23E H 0.3715(5) 0.4060(18) 0.368(2)
H24E H 0.3519(4) 0.5570(18) 0.330(2)
loop_
_geom_bond_atom_site_label_1
_geom_bond_atom_site_label_2
_geom_bond_site_symmetry_1
_geom_bond_site_symmetry_2
O1 C5 1_555 1_555
O2 C6 1_555 1_555
O3 C15 1_555 1_555
O4 C13 1_555 1_555
O5 C11 1_555 1_555
O6 C9 1_555 1_555
C1 C2 1_555 1_555
C2 C3 1_555 1_555
C3 C4 1_555 1_555
C4 C5 1_555 1_555
C5 C6 1_555 1_555
C6 C7 1_555 1_555
C7 C2 1_555 1_555
C8 O1 1_555 1_555
C9 C8 1_555 1_555
C10 O6 1_555 1_555
C11 C10 1_555 1_555
C12 O5 1_555 1_555
C13 C12 1_555 1_555
C14 O4 1_555 1_555
C15 C14 1_555 1_555
C16 O3 1_555 1_555
C17 O2 1_555 1_555
H1 C1 1_555 1_555
H2 C3 1_555 1_555
H3 C4 1_555 1_555
H4 C7 1_555 1_555
H5 C8 1_555 1_555
H6 C8 1_555 1_555
H7 C9 1_555 1_555
H8 C9 1_555 1_555
H9 C10 1_555 1_555
H10 C10 1_555 1_555
H11 C11 1_555 1_555
H12 C11 1_555 1_555
H13 C12 1_555 1_555
H14 C12 1_555 1_555
H15 C13 1_555 1_555
H16 C13 1_555 1_555
H17 C14 1_555 1_555
H18 C14 1_555 1_555
H19 C15 1_555 1_555
H20 C15 1_555 1_555
H21 C16 1_555 1_555
H22 C16 1_555 1_555
H23 C17 1_555 1_555
H24 C17 1_555 1_555
O1E C5E 1_555 1_555
O2E C6E 1_555 1_555
O3E C15E 1_555 1_555
O4E C13E 1_555 1_555
O5E C11E 1_555 1_555
O6E C9E 1_555 1_555
C1E C1 1_555 1_555
C2E C1E 1_555 1_555
C3E C2E 1_555 1_555
C4E C3E 1_555 1_555
C5E C4E 1_555 1_555
C6E C5E 1_555 1_555
C7E C2E 1_555 1_555
C8E O1E 1_555 1_555
C9E C8E 1_555 1_555
C10E O6E 1_555 1_555
C11E C10E 1_555 1_555
C12E O5E 1_555 1_555
C13E C12E 1_555 1_555
C14E O4E 1_555 1_555
C15E C14E 1_555 1_555
C16E O3E 1_555 1_555
C17E O2E 1_555 1_555
H1E C1E 1_555 1_555
H2E C3E 1_555 1_555
H3E C4E 1_555 1_555
H4E C7E 1_555 1_555
H5E C8E 1_555 1_555
H6E C8E 1_555 1_555
H7E C9E 1_555 1_555
H8E C9E 1_555 1_555
H9E C10E 1_555 1_555
H10E C10E 1_555 1_555
H11E C11E 1_555 1_555
H12E C11E 1_555 1_555
H13E C12E 1_555 1_555
H14E C12E 1_555 1_555
H15E C13E 1_555 1_555
H16E C13E 1_555 1_555
H17E C14E 1_555 1_555
H18E C14E 1_555 1_555
H19E C15E 1_555 1_555
H20E C15E 1_555 1_555
H21E C16E 1_555 1_555
H22E C16E 1_555 1_555
H23E C17E 1_555 1_555
H24E C17E 1_555 1_555
C16 C17 1_555 1_555
C6E C7E 1_555 1_555
C16E C17E 1_555 1_555

#END
