
#######################################################################
#
#                 Cambridge Crystallographic Data Centre
#                                CCDC 
#
#######################################################################
#
# If this CIF has been generated from an entry in the Cambridge 
# Structural Database, then it will include bibliographic, chemical, 
# crystal, experimental, refinement or atomic coordinate data resulting 
# from the CCDC's data processing and validation procedures.
#
#######################################################################

data_QASXOY
_chemical_formula_moiety         'C12 H15 N1 O4'
_chemical_name_systematic        
3-Acetyl-3a-ethyl-7a-hydroxy-2-methyl-3a,7a-dihydrofuro(3,2-b)pyridin-7(4H)-one
_symmetry_cell_setting           triclinic
_symmetry_space_group_name_H-M   'P -1'
_symmetry_Int_Tables_number      2
_space_group_name_Hall           '-P 1'
loop_
_symmetry_equiv_pos_site_id
_symmetry_equiv_pos_as_xyz
1 x,y,z
2 -x,-y,-z
_cell_length_a                   7.499(3)
_cell_length_b                   7.742(4)
_cell_length_c                   10.042(5)
_cell_angle_alpha                87.105(9)
_cell_angle_beta                 86.757(8)
_cell_angle_gamma                89.397(8)
_cell_volume                     581.317
_exptl_crystal_colour            colorless
_exptl_crystal_description       block
_cell_formula_units_Z            2
loop_
_atom_site_label
_atom_site_type_symbol
_atom_site_fract_x
_atom_site_fract_y
_atom_site_fract_z
C1 C 0.27769(19) 0.36199(19) 0.92336(14)
C2 C 0.18039(17) 0.34007(16) 0.79373(13)
C3 C 0.24418(18) 0.19416(16) 0.70052(13)
C4 C 0.5182(2) 0.1914(2) 0.82780(16)
H1 H 0.6355 0.1524 0.8327
C5 C 0.4514(2) 0.2909(2) 0.92833(17)
H2 H 0.5205 0.3116 0.9998
C6 C 0.1258(2) 0.03215(19) 0.71826(17)
H3 H 0.0019 0.0673 0.7120
H4 H 0.1557 -0.0429 0.6457
C7 C 0.1454(4) -0.0697(3) 0.8501(2)
H5 H 0.2646 -0.1156 0.8531
H6 H 0.0615 -0.1630 0.8578
H7 H 0.1223 0.0051 0.9225
C8 C 0.24318(17) 0.28999(17) 0.56352(13)
C9 C 0.23629(18) 0.46196(18) 0.58216(14)
C10 C 0.2475(2) 0.6187(2) 0.48982(19)
H8 H 0.3188 0.5930 0.4107
H9 H 0.3014 0.7110 0.5332
H10 H 0.1297 0.6530 0.4660
C11 C 0.28175(18) 0.20306(19) 0.43964(14)
C12 C 0.2745(3) 0.2962(3) 0.30550(17)
H11 H 0.3747 0.3724 0.2913
H12 H 0.1657 0.3623 0.3020
H13 H 0.2786 0.2136 0.2372
N1 N 0.43090(16) 0.14566(16) 0.72446(12)
H14 H 0.4870 0.0832 0.6671
O1 O 0.19765(15) 0.44435(16) 1.01019(11)
O2 O -0.00175(13) 0.33353(14) 0.81857(11)
H15 H -0.0310 0.3960 0.8797
O3 O 0.22234(15) 0.50063(12) 0.71229(10)
O4 O 0.32381(16) 0.04874(15) 0.44489(11)
loop_
_geom_bond_atom_site_label_1
_geom_bond_atom_site_label_2
_geom_bond_site_symmetry_1
_geom_bond_site_symmetry_2
C1 C2 1_555 1_555
C2 C3 1_555 1_555
C3 C6 1_555 1_555
C4 H1 1_555 1_555
C5 C1 1_555 1_555
H2 C5 1_555 1_555
C6 H3 1_555 1_555
H4 C6 1_555 1_555
C7 C6 1_555 1_555
H5 C7 1_555 1_555
H6 C7 1_555 1_555
H7 C7 1_555 1_555
C8 C3 1_555 1_555
C9 C8 1_555 1_555
C10 C9 1_555 1_555
H8 C10 1_555 1_555
H9 C10 1_555 1_555
H10 C10 1_555 1_555
C11 C8 1_555 1_555
C12 C11 1_555 1_555
H11 C12 1_555 1_555
H12 C12 1_555 1_555
H13 C12 1_555 1_555
N1 C3 1_555 1_555
H14 N1 1_555 1_555
O1 C1 1_555 1_555
O2 C2 1_555 1_555
H15 O2 1_555 1_555
O3 C2 1_555 1_555
O4 C11 1_555 1_555
C4 C5 1_555 1_555
C4 N1 1_555 1_555
C9 O3 1_555 1_555

#END
