
#######################################################################
#
#                 Cambridge Crystallographic Data Centre
#                                CCDC 
#
#######################################################################
#
# If this CIF has been generated from an entry in the Cambridge 
# Structural Database, then it will include bibliographic, chemical, 
# crystal, experimental, refinement or atomic coordinate data resulting 
# from the CCDC's data processing and validation procedures.
#
#######################################################################

data_QASYUF
_chemical_formula_moiety         'C22 H24 F2 O2'
_chemical_name_systematic        
2,3,4,5-Tetramethyl-1,6-bis(4-fluorophenyl)hexa-2,4-diene-1,6-diol
_symmetry_cell_setting           triclinic
_symmetry_space_group_name_H-M   'P -1'
_symmetry_Int_Tables_number      2
_space_group_name_Hall           '-P 1'
loop_
_symmetry_equiv_pos_site_id
_symmetry_equiv_pos_as_xyz
1 x,y,z
2 -x,-y,-z
_cell_length_a                   12.061(1)
_cell_length_b                   13.239(2)
_cell_length_c                   6.963(1)
_cell_angle_alpha                102.289(9)
_cell_angle_beta                 105.978(5)
_cell_angle_gamma                65.394(3)
_cell_volume                     965.651
_exptl_crystal_colour            colorless
_exptl_crystal_description       Platelet
_cell_formula_units_Z            2
loop_
_atom_site_label
_atom_site_type_symbol
_atom_site_fract_x
_atom_site_fract_y
_atom_site_fract_z
F1 F 0.27317(19) -0.17856(13) 0.5219(3)
F2 F -0.57882(18) 0.98173(14) 0.1301(3)
O1 O 0.02397(17) 0.34434(15) 0.5085(3)
O2 O -0.18169(17) 0.54776(18) 0.5008(3)
C1 C 0.0390(3) 0.0591(2) 0.2817(4)
H1 H -0.0279 0.0749 0.1721
C2 C 0.1079(3) -0.0505(2) 0.3197(4)
H2 H 0.0885 -0.1087 0.2372
C3 C 0.2053(3) -0.0711(2) 0.4817(4)
C4 C 0.2364(3) 0.0121(2) 0.6062(4)
H3 H 0.3032 -0.0045 0.7157
C5 C 0.1665(2) 0.1219(2) 0.5663(4)
H4 H 0.1866 0.1794 0.6496
C6 C 0.0677(2) 0.14611(19) 0.4044(3)
C7 C -0.0163(2) 0.26566(18) 0.3605(3)
H5 H -0.1001 0.2780 0.3728
C8 C -0.0271(2) 0.28858(19) 0.1502(3)
C9 C -0.1397(2) 0.33993(18) 0.0373(3)
C10 C -0.2564(2) 0.3716(2) 0.1075(3)
C11 C -0.3019(2) 0.4649(2) 0.2277(3)
C12 C -0.2403(2) 0.54901(19) 0.2901(3)
H6 H -0.1753 0.5267 0.2131
C13 C -0.3297(2) 0.66627(19) 0.2515(4)
C14 C -0.3907(3) 0.7407(2) 0.3968(4)
H7 H -0.3743 0.7191 0.5236
C15 C -0.4763(3) 0.8473(2) 0.3556(5)
H8 H -0.5188 0.8969 0.4518
C16 C -0.4956(3) 0.8766(2) 0.1696(5)
C17 C -0.4353(3) 0.8069(2) 0.0243(5)
H9 H -0.4494 0.8302 -0.1003
C18 C -0.3532(3) 0.7014(2) 0.0666(4)
H10 H -0.3124 0.6524 -0.0320
C19 C 0.0952(3) 0.2539(2) 0.0880(4)
H11 H 0.1173 0.1793 0.0198
H12 H 0.1591 0.2559 0.2052
H13 H 0.0870 0.3043 -0.0005
C20 C -0.1572(3) 0.3681(2) -0.1716(4)
H14 H -0.1703 0.4453 -0.1650
H15 H -0.2283 0.3549 -0.2576
H16 H -0.0841 0.3219 -0.2246
C21 C -0.3169(3) 0.2872(2) 0.0325(4)
H17 H -0.2725 0.2243 0.1087
H18 H -0.3148 0.2625 -0.1070
H19 H -0.4020 0.3210 0.0479
C22 C -0.4142(2) 0.4923(2) 0.3140(4)
H20 H -0.4887 0.5308 0.2214
H21 H -0.4085 0.5391 0.4392
H22 H -0.4170 0.4244 0.3364
H23 H 0.070(3) 0.361(3) 0.487(5)
H24 H -0.135(3) 0.554(3) 0.524(6)
loop_
_geom_bond_atom_site_label_1
_geom_bond_atom_site_label_2
_geom_bond_site_symmetry_1
_geom_bond_site_symmetry_2
F1 C3 1_555 1_555
F2 C16 1_555 1_555
O1 C7 1_555 1_555
O2 C12 1_555 1_555
C1 H1 1_555 1_555
C2 C1 1_555 1_555
H2 C2 1_555 1_555
C3 C2 1_555 1_555
C4 C3 1_555 1_555
H3 C4 1_555 1_555
C5 C4 1_555 1_555
H4 C5 1_555 1_555
C6 C1 1_555 1_555
C7 C6 1_555 1_555
H5 C7 1_555 1_555
C8 C7 1_555 1_555
C9 C8 1_555 1_555
C10 C9 1_555 1_555
C11 C10 1_555 1_555
C12 C11 1_555 1_555
H6 C12 1_555 1_555
C13 C12 1_555 1_555
C14 C13 1_555 1_555
H7 C14 1_555 1_555
C15 C14 1_555 1_555
H8 C15 1_555 1_555
C16 C15 1_555 1_555
C17 C16 1_555 1_555
H9 C17 1_555 1_555
C18 C13 1_555 1_555
H10 C18 1_555 1_555
C19 C8 1_555 1_555
H11 C19 1_555 1_555
H12 C19 1_555 1_555
H13 C19 1_555 1_555
C20 C9 1_555 1_555
H14 C20 1_555 1_555
H15 C20 1_555 1_555
H16 C20 1_555 1_555
C21 C10 1_555 1_555
H17 C21 1_555 1_555
H18 C21 1_555 1_555
H19 C21 1_555 1_555
C22 C11 1_555 1_555
H20 C22 1_555 1_555
H21 C22 1_555 1_555
H22 C22 1_555 1_555
H23 O1 1_555 1_555
H24 O2 1_555 1_555
C5 C6 1_555 1_555
C17 C18 1_555 1_555

#END
