
#######################################################################
#
#                 Cambridge Crystallographic Data Centre
#                                CCDC 
#
#######################################################################
#
# If this CIF has been generated from an entry in the Cambridge 
# Structural Database, then it will include bibliographic, chemical, 
# crystal, experimental, refinement or atomic coordinate data resulting 
# from the CCDC's data processing and validation procedures.
#
#######################################################################

data_QATKED
_chemical_formula_moiety         'C15 H23 N6 3+,3(Br1 1-),H2 O1'
_chemical_name_systematic        
"1,1'-(Imidazolium-1,3-diyldiethane-2,1-diyl)bis(3-methylimidazolium) tribromide monohydrate"
_symmetry_cell_setting           triclinic
_symmetry_space_group_name_H-M   'P -1'
_symmetry_Int_Tables_number      2
_space_group_name_Hall           '-P 1'
loop_
_symmetry_equiv_pos_site_id
_symmetry_equiv_pos_as_xyz
1 x,y,z
2 -x,-y,-z
_cell_length_a                   7.2455(4)
_cell_length_b                   9.0825(5)
_cell_length_c                   16.1017(9)
_cell_angle_alpha                87.026(3)
_cell_angle_beta                 83.576(4)
_cell_angle_gamma                86.089(5)
_cell_volume                     1049.46
_exptl_crystal_colour            colorless
_exptl_crystal_description       plate
_cell_formula_units_Z            2
loop_
_atom_site_label
_atom_site_type_symbol
_atom_site_fract_x
_atom_site_fract_y
_atom_site_fract_z
Br1 Br 0.28409(16) 0.79073(12) 0.51810(6)
Br2 Br 0.14894(16) 0.11892(12) 0.79205(7)
Br3 Br 0.71368(15) 0.69257(11) 0.86277(6)
O1 O 0.2573(14) 0.0607(10) 0.9871(6)
H1 H 0.219(18) 0.129(11) 1.019(6)
H2 H 0.204(17) 0.081(14) 0.945(5)
N1 N 0.2262(13) 1.3227(9) 0.5102(5)
N2 N 0.2045(12) 1.1965(10) 0.4015(5)
N3 N 0.3609(11) 0.8966(9) 0.2573(5)
N4 N 0.3628(11) 0.7653(9) 0.1498(5)
N5 N 0.1881(11) 0.6628(9) -0.0463(5)
N6 N 0.2194(11) 0.6524(9) -0.1805(5)
C1 C 0.2477(16) 1.3595(14) 0.5960(7)
H3 H 0.2275 1.2723 0.6336
H4 H 0.1564 1.4397 0.6133
H5 H 0.3736 1.3910 0.5984
C2 C 0.2239(15) 1.4208(12) 0.4434(7)
H6 H 0.2300 1.5249 0.4444
C3 C 0.2112(16) 1.3418(12) 0.3749(7)
H7 H 0.2076 1.3803 0.3191
C4 C 0.2139(13) 1.1910(10) 0.4834(5)
H8 H 0.2120 1.1029 0.5179
C5 C 0.1900(18) 1.0717(12) 0.3498(7)
H9 H 0.1065 1.1008 0.3063
H10 H 0.1359 0.9892 0.3849
C6 C 0.3779(15) 1.0221(12) 0.3092(7)
H11 H 0.4323 1.1044 0.2741
H12 H 0.4615 0.9924 0.3526
C7 C 0.3340(15) 0.7540(12) 0.2869(6)
H13 H 0.3187 0.7198 0.3439
C8 C 0.3334(16) 0.6724(12) 0.2196(6)
H14 H 0.3160 0.5696 0.2201
C9 C 0.3788(14) 0.9006(11) 0.1762(7)
H15 H 0.4000 0.9863 0.1410
C10 C 0.3685(14) 0.7232(13) 0.0625(6)
H16 H 0.4329 0.6242 0.0561
H17 H 0.4395 0.7945 0.0252
C11 C 0.1769(13) 0.7211(12) 0.0378(6)
H18 H 0.1012 0.6580 0.0783
H19 H 0.1169 0.8224 0.0377
C12 C 0.2080(14) 0.5154(11) -0.0637(6)
H20 H 0.2086 0.4342 -0.0240
C13 C 0.2263(14) 0.5080(11) -0.1477(6)
H21 H 0.2412 0.4207 -0.1785
C14 C 0.1985(12) 0.7398(11) -0.1193(6)
H22 H 0.1914 0.8446 -0.1252
C15 C 0.2383(17) 0.6960(13) -0.2696(6)
H23 H 0.2231 0.8039 -0.2764
H24 H 0.1427 0.6516 -0.2968
H25 H 0.3618 0.6619 -0.2952
loop_
_geom_bond_atom_site_label_1
_geom_bond_atom_site_label_2
_geom_bond_site_symmetry_1
_geom_bond_site_symmetry_2
O1 H1 1_555 1_555
H2 O1 1_555 1_555
N1 C1 1_555 1_555
N2 C3 1_555 1_555
N3 C6 1_555 1_555
N4 C8 1_555 1_555
N5 C11 1_555 1_555
N6 C13 1_555 1_555
C1 H3 1_555 1_555
H4 C1 1_555 1_555
H5 C1 1_555 1_555
C2 N1 1_555 1_555
H6 C2 1_555 1_555
C3 C2 1_555 1_555
H7 C3 1_555 1_555
C4 N1 1_555 1_555
H8 C4 1_555 1_555
C5 N2 1_555 1_555
H9 C5 1_555 1_555
H10 C5 1_555 1_555
C6 C5 1_555 1_555
H11 C6 1_555 1_555
H12 C6 1_555 1_555
C7 N3 1_555 1_555
H13 C7 1_555 1_555
C8 C7 1_555 1_555
H14 C8 1_555 1_555
C9 N3 1_555 1_555
H15 C9 1_555 1_555
C10 N4 1_555 1_555
H16 C10 1_555 1_555
H17 C10 1_555 1_555
C11 C10 1_555 1_555
H18 C11 1_555 1_555
H19 C11 1_555 1_555
C12 N5 1_555 1_555
H20 C12 1_555 1_555
C13 C12 1_555 1_555
H21 C13 1_555 1_555
C14 N5 1_555 1_555
H22 C14 1_555 1_555
C15 N6 1_555 1_555
H23 C15 1_555 1_555
H24 C15 1_555 1_555
H25 C15 1_555 1_555
N2 C4 1_555 1_555
N4 C9 1_555 1_555
N6 C14 1_555 1_555

#END
