
#######################################################################
#
#                 Cambridge Crystallographic Data Centre
#                                CCDC 
#
#######################################################################
#
# If this CIF has been generated from an entry in the Cambridge 
# Structural Database, then it will include bibliographic, chemical, 
# crystal, experimental, refinement or atomic coordinate data resulting 
# from the CCDC's data processing and validation procedures.
#
#######################################################################

data_QATPEG
_chemical_formula_moiety         'C10 H8 S8 1+,C10 H8 S8,C1 F7 O3 S2 1-'
_chemical_name_systematic        
'bis(bis(Ethylenedithio)tetrathiafulvalenium) (pentafluorothio)difluoromethanesulfonate'
_symmetry_cell_setting           triclinic
_symmetry_space_group_name_H-M   'P -1'
_symmetry_Int_Tables_number      2
_space_group_name_Hall           '-P 1'
loop_
_symmetry_equiv_pos_site_id
_symmetry_equiv_pos_as_xyz
1 x,y,z
2 -x,-y,-z
_cell_length_a                   7.6994(2)
_cell_length_b                   13.1514(2)
_cell_length_c                   17.6425(4)
_cell_angle_alpha                81.3230(10)
_cell_angle_beta                 87.4160(10)
_cell_angle_gamma                74.9940(10)
_cell_volume                     1705.74
_exptl_crystal_colour            black
_exptl_crystal_description       rod
_cell_formula_units_Z            2
loop_
_atom_site_label
_atom_site_type_symbol
_atom_site_fract_x
_atom_site_fract_y
_atom_site_fract_z
S1 S 0.76128(12) 0.57166(6) 0.44676(5)
S2 S 0.77054(11) 0.34601(6) 0.49323(5)
S3 S 0.62706(11) 0.61840(6) 0.61893(4)
S4 S 0.65513(11) 0.39000(6) 0.66444(4)
S5 S 0.90061(12) 0.54440(7) 0.28863(5)
S6 S 0.89520(12) 0.27681(6) 0.34653(5)
S7 S 0.51251(11) 0.67608(6) 0.77366(5)
S8 S 0.57261(12) 0.40318(6) 0.82758(5)
C1 C 0.7287(4) 0.4726(2) 0.51930(18)
C2 C 0.6762(4) 0.4921(2) 0.59206(18)
C3 C 0.8390(4) 0.4858(2) 0.37814(18)
C4 C 0.8409(4) 0.3824(2) 0.39961(18)
C5 C 0.5748(4) 0.5773(2) 0.71432(18)
C6 C 0.5935(4) 0.4716(2) 0.73616(18)
C7 C 0.8777(4) 0.4468(2) 0.23003(18)
H1 H 0.7489 0.4481 0.2279
H2 H 0.9173 0.4679 0.1772
C8 C 0.9831(4) 0.3341(2) 0.25783(18)
H3 H 1.1099 0.3337 0.2656
H4 H 0.9813 0.2892 0.2178
C9 C 0.6200(4) 0.5978(3) 0.86021(18)
H5 H 0.7497 0.5696 0.8498
H6 H 0.6089 0.6442 0.9003
C10 C 0.5390(4) 0.5059(3) 0.88979(19)
H7 H 0.4083 0.5344 0.8974
H8 H 0.5916 0.4725 0.9405
S9 S 0.34587(11) 0.10873(6) 0.33384(4)
S10 S 0.37325(11) -0.11937(6) 0.37925(5)
S11 S 0.23144(11) 0.15237(6) 0.50548(5)
S12 S 0.24488(12) -0.07387(6) 0.55166(5)
S13 S 0.42740(12) 0.09642(6) 0.17083(5)
S14 S 0.48120(11) -0.17670(6) 0.22400(5)
S15 S 0.11125(12) 0.21884(6) 0.65372(5)
S16 S 0.11719(12) -0.05145(7) 0.71091(5)
C11 C 0.3255(4) 0.0066(2) 0.40649(18)
C12 C 0.2751(4) 0.0256(2) 0.47932(18)
C13 C 0.4038(4) 0.0279(2) 0.26193(18)
C14 C 0.4222(4) -0.0779(2) 0.28322(18)
C15 C 0.1662(4) 0.1142(2) 0.59971(17)
C16 C 0.1709(4) 0.0103(2) 0.62113(18)
C17 C 0.4660(5) -0.0066(3) 0.10871(19)
H9 H 0.4193 0.0268 0.0570
H10 H 0.5973 -0.0364 0.1037
C18 C 0.3798(4) -0.0973(3) 0.13631(19)
H11 H 0.3923 -0.1434 0.0959
H12 H 0.2498 -0.0678 0.1453
C19 C 0.0163(4) 0.1594(3) 0.73943(19)
H13 H 0.0066 0.2056 0.7797
H14 H -0.1067 0.1561 0.7281
C20 C 0.1260(4) 0.0482(2) 0.77022(18)
H15 H 0.0816 0.0271 0.8222
H16 H 0.2529 0.0497 0.7749
S17 S 0.11373(11) 0.31315(7) -0.02800(5)
F1 F 0.2162(3) 0.40413(17) -0.03860(13)
F2 F 0.2818(3) 0.23828(19) 0.01673(16)
F3 F 0.2044(3) 0.2789(2) -0.10604(14)
F4 F -0.0468(3) 0.39390(19) -0.07350(16)
F5 F 0.0345(4) 0.3520(2) 0.04863(14)
C21 C -0.0080(4) 0.2028(3) -0.01989(19)
F6 F 0.1185(3) 0.11133(16) -0.01205(16)
F7 F -0.0828(3) 0.2129(2) -0.08845(12)
S18 S -0.18268(13) 0.19845(7) 0.05505(5)
O1 O -0.2469(3) 0.1114(2) 0.03802(15)
O2 O -0.3044(4) 0.3019(2) 0.0391(2)
O3 O -0.0823(5) 0.1771(3) 0.12554(16)
loop_
_geom_bond_atom_site_label_1
_geom_bond_atom_site_label_2
_geom_bond_site_symmetry_1
_geom_bond_site_symmetry_2
S1 C1 1_555 1_555
S2 C1 1_555 1_555
S3 C2 1_555 1_555
S4 C2 1_555 1_555
S5 C3 1_555 1_555
S6 C4 1_555 1_555
S7 C5 1_555 1_555
S8 C6 1_555 1_555
C1 C2 1_555 1_555
C3 S1 1_555 1_555
C4 S2 1_555 1_555
C5 S3 1_555 1_555
C6 S4 1_555 1_555
C7 S5 1_555 1_555
H1 C7 1_555 1_555
H2 C7 1_555 1_555
C8 S6 1_555 1_555
H3 C8 1_555 1_555
H4 C8 1_555 1_555
C9 S7 1_555 1_555
H5 C9 1_555 1_555
H6 C9 1_555 1_555
C10 S8 1_555 1_555
H7 C10 1_555 1_555
H8 C10 1_555 1_555
S9 C11 1_555 1_555
S10 C11 1_555 1_555
S11 C12 1_555 1_555
S12 C12 1_555 1_555
S13 C13 1_555 1_555
S14 C14 1_555 1_555
S15 C15 1_555 1_555
S16 C16 1_555 1_555
C11 C12 1_555 1_555
C13 S9 1_555 1_555
C14 S10 1_555 1_555
C15 S11 1_555 1_555
C16 S12 1_555 1_555
C17 S13 1_555 1_555
H9 C17 1_555 1_555
H10 C17 1_555 1_555
C18 S14 1_555 1_555
H11 C18 1_555 1_555
H12 C18 1_555 1_555
C19 S15 1_555 1_555
H13 C19 1_555 1_555
H14 C19 1_555 1_555
C20 S16 1_555 1_555
H15 C20 1_555 1_555
H16 C20 1_555 1_555
S17 F1 1_555 1_555
F2 S17 1_555 1_555
F3 S17 1_555 1_555
F4 S17 1_555 1_555
F5 S17 1_555 1_555
C21 S17 1_555 1_555
F6 C21 1_555 1_555
F7 C21 1_555 1_555
S18 C21 1_555 1_555
O1 S18 1_555 1_555
O2 S18 1_555 1_555
O3 S18 1_555 1_555
C3 C4 1_555 1_555
C5 C6 1_555 1_555
C7 C8 1_555 1_555
C9 C10 1_555 1_555
C13 C14 1_555 1_555
C15 C16 1_555 1_555
C17 C18 1_555 1_555
C19 C20 1_555 1_555

#END
