
#######################################################################
#
#                 Cambridge Crystallographic Data Centre
#                                CCDC 
#
#######################################################################
#
# If this CIF has been generated from an entry in the Cambridge 
# Structural Database, then it will include bibliographic, chemical, 
# crystal, experimental, refinement or atomic coordinate data resulting 
# from the CCDC's data processing and validation procedures.
#
#######################################################################

data_QATXIT
_chemical_formula_moiety         'C11 H15 F2 N3 O1'
_chemical_name_systematic        
7-Ethoxy-5,8-difluoro-1,4,dimethyl-1,2,3,4-tetrahydropyrido(3,4-b)pyrazine
_symmetry_cell_setting           monoclinic
_symmetry_space_group_name_H-M   'P 21/c'
_symmetry_Int_Tables_number      14
_space_group_name_Hall           '-P 2ybc'
loop_
_symmetry_equiv_pos_site_id
_symmetry_equiv_pos_as_xyz
1 x,y,z
2 -x,1/2+y,1/2-z
3 -x,-y,-z
4 x,1/2-y,1/2+z
_cell_length_a                   8.7228(3)
_cell_length_b                   18.3386(7)
_cell_length_c                   7.2367(3)
_cell_angle_alpha                90
_cell_angle_beta                 99.587(2)
_cell_angle_gamma                90
_cell_volume                     1141.44
_exptl_crystal_colour            colorless
_exptl_crystal_description       prism
_chemical_melting_point          '71.3-72.2 deg.C'
_cell_formula_units_Z            4
_exptl_crystal_recrystallization_method n-hexane
loop_
_atom_site_label
_atom_site_type_symbol
_atom_site_fract_x
_atom_site_fract_y
_atom_site_fract_z
F1 F 1.01737(9) 0.58810(4) 0.28256(12)
F2 F 0.61455(8) 0.36627(4) 0.24754(12)
O1 O 0.72178(10) 0.61006(5) 0.28361(13)
N1 N 0.91350(12) 0.32611(6) 0.23116(15)
N2 N 1.13644(11) 0.44232(6) 0.24576(16)
N3 N 0.66490(12) 0.48629(6) 0.26243(15)
C1 C 1.08009(14) 0.31452(8) 0.2934(2)
C2 C 1.17653(15) 0.36778(8) 0.2010(2)
C3 C 0.92448(13) 0.52796(7) 0.26879(17)
C4 C 0.76803(14) 0.53997(7) 0.27170(17)
C5 C 0.72175(14) 0.42022(7) 0.25174(17)
C6 C 0.87262(13) 0.40017(7) 0.24252(16)
C7 C 0.98355(13) 0.45794(7) 0.25115(16)
C8 C 0.85435(17) 0.29089(8) 0.0516(2)
C9 C 1.25288(14) 0.49811(8) 0.2317(2)
C10 C 0.55974(15) 0.62073(8) 0.2969(2)
C11 C 0.53578(18) 0.70124(8) 0.3142(2)
H1 H 1.1045(16) 0.3199(8) 0.431(2)
H2 H 1.1053(17) 0.2648(9) 0.265(2)
H3 H 1.283(2) 0.3611(9) 0.247(2)
H4 H 1.1604(17) 0.3602(8) 0.066(2)
H5 H 0.8701(18) 0.2377(10) 0.066(2)
H6 H 0.744(2) 0.3009(8) 0.017(2)
H7 H 0.9044(18) 0.3102(8) -0.051(2)
H8 H 1.270(2) 0.5309(10) 0.339(3)
H9 H 1.229(2) 0.5249(10) 0.114(3)
H10 H 1.353(2) 0.4738(10) 0.231(2)
H11 H 0.4969(19) 0.5994(9) 0.186(2)
H12 H 0.537(2) 0.5940(9) 0.407(3)
H13 H 0.555(2) 0.7235(10) 0.205(3)
H14 H 0.428(2) 0.7097(9) 0.330(2)
H15 H 0.605(2) 0.7211(10) 0.425(3)
loop_
_geom_bond_atom_site_label_1
_geom_bond_atom_site_label_2
_geom_bond_site_symmetry_1
_geom_bond_site_symmetry_2
F1 C3 1_555 1_555
F2 C5 1_555 1_555
O1 C4 1_555 1_555
N1 C1 1_555 1_555
N2 C2 1_555 1_555
N3 C4 1_555 1_555
C1 C2 1_555 1_555
C2 H3 1_555 1_555
C3 C4 1_555 1_555
C5 N3 1_555 1_555
C6 N1 1_555 1_555
C7 N2 1_555 1_555
C8 N1 1_555 1_555
C9 N2 1_555 1_555
C10 O1 1_555 1_555
C11 C10 1_555 1_555
H1 C1 1_555 1_555
H2 C1 1_555 1_555
H4 C2 1_555 1_555
H5 C8 1_555 1_555
H6 C8 1_555 1_555
H7 C8 1_555 1_555
H8 C9 1_555 1_555
H9 C9 1_555 1_555
H10 C9 1_555 1_555
H11 C10 1_555 1_555
H12 C10 1_555 1_555
H13 C11 1_555 1_555
H14 C11 1_555 1_555
H15 C11 1_555 1_555
C3 C7 1_555 1_555
C5 C6 1_555 1_555
C6 C7 1_555 1_555

#END
