
#######################################################################
#
#                 Cambridge Crystallographic Data Centre
#                                CCDC 
#
#######################################################################
#
# If this CIF has been generated from an entry in the Cambridge 
# Structural Database, then it will include bibliographic, chemical, 
# crystal, experimental, refinement or atomic coordinate data resulting 
# from the CCDC's data processing and validation procedures.
#
#######################################################################

data_QATXAL
_chemical_formula_moiety         'C9 H10 F3 N3'
_chemical_name_systematic        
5,7,8-Trifluoro-1,4-dimethyl-1,2,3,4-tetrahydropyrido(3,4-b)pyrazine
_symmetry_cell_setting           monoclinic
_symmetry_space_group_name_H-M   'P 21/c'
_symmetry_Int_Tables_number      14
_space_group_name_Hall           '-P 2ybc'
loop_
_symmetry_equiv_pos_site_id
_symmetry_equiv_pos_as_xyz
1 x,y,z
2 -x,1/2+y,1/2-z
3 -x,-y,-z
4 x,1/2-y,1/2+z
_cell_length_a                   17.7013(7)
_cell_length_b                   6.9932(3)
_cell_length_c                   16.8375(6)
_cell_angle_alpha                90
_cell_angle_beta                 118.152(1)
_cell_angle_gamma                90
_cell_volume                     1837.72
_exptl_crystal_colour            colorless
_exptl_crystal_description       plate
_chemical_melting_point          '54.3-54.9 deg.C'
_cell_formula_units_Z            8
_exptl_crystal_recrystallization_method dichloromethane/hexane
loop_
_atom_site_label
_atom_site_type_symbol
_atom_site_fract_x
_atom_site_fract_y
_atom_site_fract_z
F1 F 0.49649(6) -0.20163(14) 1.09873(6)
F2 F 0.65820(6) -0.28250(14) 1.14276(6)
F3 F 0.60075(5) -0.35694(13) 0.85481(6)
N1 N 0.43095(8) -0.26517(18) 0.78338(8)
N2 N 0.36872(8) -0.19995(18) 0.91075(8)
N3 N 0.62843(7) -0.32520(17) 0.99834(8)
C1 C 0.35447(10) -0.1505(2) 0.76104(10)
C2 C 0.30990(10) -0.2122(3) 0.81421(10)
C3 C 0.51595(9) -0.2415(2) 1.03180(9)
C4 C 0.59913(9) -0.2839(2) 1.05453(10)
C5 C 0.57008(9) -0.3180(2) 0.91270(10)
C6 C 0.48398(9) -0.2774(2) 0.87743(9)
C7 C 0.45322(9) -0.23943(19) 0.94057(9)
C8 C 0.41366(11) -0.4464(2) 0.73429(11)
C9 C 0.32923(10) -0.1900(2) 0.96968(11)
H1 H 0.3706(10) -0.015(3) 0.7752(11)
H2 H 0.3151(10) -0.162(2) 0.6959(11)
H3 H 0.2626(12) -0.135(3) 0.8043(11)
H4 H 0.2878(11) -0.344(3) 0.7973(11)
H5 H 0.4632(11) -0.515(3) 0.7498(11)
H6 H 0.3721(11) -0.534(3) 0.7449(11)
H7 H 0.3883(11) -0.415(2) 0.6693(12)
H8 H 0.2689(14) -0.169(3) 0.9339(14)
H9 H 0.3500(12) -0.073(3) 1.0093(13)
H10 H 0.3418(11) -0.308(3) 1.0071(12)
F4 F 0.00197(6) 0.18265(13) 1.09936(6)
F5 F -0.15970(6) 0.25747(14) 0.98105(6)
F6 F -0.09671(5) 0.37620(13) 0.75667(5)
N4 N 0.07345(7) 0.28911(17) 0.85561(8)
N5 N 0.13294(7) 0.21041(18) 1.04325(8)
N6 N -0.12718(8) 0.32266(17) 0.86972(8)
C10 C 0.15070(10) 0.1769(2) 0.90913(11)
C11 C 0.19298(9) 0.2342(2) 1.00711(11)
C12 C -0.01575(9) 0.2340(2) 1.01482(9)
C13 C -0.09931(9) 0.2733(2) 0.95370(10)
C14 C -0.06753(9) 0.3284(2) 0.84376(10)
C15 C 0.01899(9) 0.29178(19) 0.89554(9)
C16 C 0.04840(9) 0.24540(19) 0.98804(9)
C17 C 0.08972(11) 0.4736(2) 0.82519(11)
C18 C 0.17182(11) 0.1967(3) 1.14156(11)
H11 H 0.1913(11) 0.199(2) 0.8843(11)
H12 H 0.1338(10) 0.040(2) 0.9050(11)
H13 H 0.2151(11) 0.371(3) 1.0140(11)
H14 H 0.2409(11) 0.155(2) 1.0422(11)
H15 H 0.1292(11) 0.555(3) 0.8751(12)
H16 H 0.0386(11) 0.544(3) 0.7929(11)
H17 H 0.1168(11) 0.449(2) 0.7878(12)
H18 H 0.2307(16) 0.185(4) 1.1657(17)
H19 H 0.1596(16) 0.076(4) 1.1596(16)
H20 H 0.1511(13) 0.294(3) 1.1643(13)
loop_
_geom_bond_atom_site_label_1
_geom_bond_atom_site_label_2
_geom_bond_site_symmetry_1
_geom_bond_site_symmetry_2
F1 C3 1_555 1_555
F2 C4 1_555 1_555
F3 C5 1_555 1_555
F4 C12 1_555 1_555
F5 C13 1_555 1_555
F6 C14 1_555 1_555
N1 C1 1_555 1_555
N2 C2 1_555 1_555
N3 C4 1_555 1_555
N4 C10 1_555 1_555
N5 C11 1_555 1_555
N6 C13 1_555 1_555
C1 C2 1_555 1_555
C2 H3 1_555 1_555
C3 C4 1_555 1_555
C5 N3 1_555 1_555
C6 N1 1_555 1_555
C7 N2 1_555 1_555
C8 N1 1_555 1_555
C9 N2 1_555 1_555
C10 C11 1_555 1_555
C11 H13 1_555 1_555
C12 C13 1_555 1_555
C14 N6 1_555 1_555
C15 N4 1_555 1_555
C16 N5 1_555 1_555
C17 N4 1_555 1_555
C18 N5 1_555 1_555
H1 C1 1_555 1_555
H2 C1 1_555 1_555
H4 C2 1_555 1_555
H5 C8 1_555 1_555
H6 C8 1_555 1_555
H7 C8 1_555 1_555
H8 C9 1_555 1_555
H9 C9 1_555 1_555
H10 C9 1_555 1_555
H11 C10 1_555 1_555
H12 C10 1_555 1_555
H14 C11 1_555 1_555
H15 C17 1_555 1_555
H16 C17 1_555 1_555
H17 C17 1_555 1_555
H18 C18 1_555 1_555
H19 C18 1_555 1_555
H20 C18 1_555 1_555
C3 C7 1_555 1_555
C5 C6 1_555 1_555
C6 C7 1_555 1_555
C12 C16 1_555 1_555
C14 C15 1_555 1_555
C15 C16 1_555 1_555

#END
