
#######################################################################
#
#                 Cambridge Crystallographic Data Centre
#                                CCDC 
#
#######################################################################
#
# If this CIF has been generated from an entry in the Cambridge 
# Structural Database, then it will include bibliographic, chemical, 
# crystal, experimental, refinement or atomic coordinate data resulting 
# from the CCDC's data processing and validation procedures.
#
#######################################################################

data_QATXEP
_chemical_formula_moiety         'C10 H13 F2 N3 O1'
_chemical_name_systematic        
7-Methoxy-5,8-difluoro-1,4-dimethyl-1,2,3,4-tetrahydropyrido(3,4-b)pyrazine
_symmetry_cell_setting           monoclinic
_symmetry_space_group_name_H-M   'P 21/c'
_symmetry_Int_Tables_number      14
_space_group_name_Hall           '-P 2ybc'
loop_
_symmetry_equiv_pos_site_id
_symmetry_equiv_pos_as_xyz
1 x,y,z
2 -x,1/2+y,1/2-z
3 -x,-y,-z
4 x,1/2-y,1/2+z
_cell_length_a                   5.3233(2)
_cell_length_b                   13.1981(5)
_cell_length_c                   14.7664(6)
_cell_angle_alpha                90
_cell_angle_beta                 96.62(2)
_cell_angle_gamma                90
_cell_volume                     1030.53
_exptl_crystal_colour            colorless
_exptl_crystal_description       prism
_chemical_melting_point          '46-46.5 deg.C'
_cell_formula_units_Z            4
_exptl_crystal_recrystallization_method dichloromethane/n-hexane
loop_
_atom_site_label
_atom_site_type_symbol
_atom_site_fract_x
_atom_site_fract_y
_atom_site_fract_z
F1 F 0.8471(2) 0.57533(7) 0.73726(7)
F2 F 0.22660(19) 0.73817(8) 0.46628(6)
O1 O 0.4617(3) 0.47374(8) 0.65562(9)
N1 N 0.6004(3) 0.86479(9) 0.54009(9)
N2 N 0.9484(3) 0.77958(10) 0.68414(9)
N3 N 0.3430(3) 0.60716(10) 0.55741(9)
C1 C 0.7504(4) 0.92679(12) 0.60868(13)
C2 C 0.9987(4) 0.87679(13) 0.64268(14)
C3 C 0.7013(3) 0.62237(11) 0.66784(10)
C4 C 0.4995(3) 0.56883(11) 0.62488(11)
C5 C 0.3919(3) 0.70069(12) 0.53495(10)
C6 C 0.5843(3) 0.76315(11) 0.57099(10)
C7 C 0.7544(3) 0.72202(11) 0.64304(10)
C8 C 0.6829(4) 0.87407(14) 0.44890(13)
C9 C 1.1421(4) 0.74207(17) 0.75335(13)
C10 C 0.2371(4) 0.42289(14) 0.61363(16)
H1 H 0.657(3) 0.9390(12) 0.6623(11)
H2 H 0.782(4) 0.9937(15) 0.5807(13)
H3 H 1.100(4) 0.9180(14) 0.6907(13)
H4 H 1.108(3) 0.8672(13) 0.5911(12)
H5 H 0.673(4) 0.9447(16) 0.4294(14)
H6 H 0.572(4) 0.8327(15) 0.4056(13)
H7 H 0.858(4) 0.8530(15) 0.4479(13)
H8 H 1.252(5) 0.6892(17) 0.7301(15)
H9 H 1.066(4) 0.7151(16) 0.8039(15)
H10 H 1.244(4) 0.7996(17) 0.7765(15)
H11 H 0.242(4) 0.4156(15) 0.5485(15)
H12 H 0.248(4) 0.3548(17) 0.6446(14)
H13 H 0.085(4) 0.4610(16) 0.6216(14)
loop_
_geom_bond_atom_site_label_1
_geom_bond_atom_site_label_2
_geom_bond_site_symmetry_1
_geom_bond_site_symmetry_2
F1 C3 1_555 1_555
F2 C5 1_555 1_555
O1 C4 1_555 1_555
N1 C1 1_555 1_555
N2 C2 1_555 1_555
N3 C4 1_555 1_555
C1 C2 1_555 1_555
C2 H3 1_555 1_555
C3 C4 1_555 1_555
C5 N3 1_555 1_555
C6 N1 1_555 1_555
C7 N2 1_555 1_555
C8 N1 1_555 1_555
C9 N2 1_555 1_555
C10 O1 1_555 1_555
H1 C1 1_555 1_555
H2 C1 1_555 1_555
H4 C2 1_555 1_555
H5 C8 1_555 1_555
H6 C8 1_555 1_555
H7 C8 1_555 1_555
H8 C9 1_555 1_555
H9 C9 1_555 1_555
H10 C9 1_555 1_555
H11 C10 1_555 1_555
H12 C10 1_555 1_555
H13 C10 1_555 1_555
C3 C7 1_555 1_555
C5 C6 1_555 1_555
C6 C7 1_555 1_555

#END
