
#######################################################################
#
#                 Cambridge Crystallographic Data Centre
#                                CCDC 
#
#######################################################################
#
# If this CIF has been generated from an entry in the Cambridge 
# Structural Database, then it will include bibliographic, chemical, 
# crystal, experimental, refinement or atomic coordinate data resulting 
# from the CCDC's data processing and validation procedures.
#
#######################################################################

data_QATXOZ
_chemical_formula_moiety         'C21 H18 F3 N3'
_chemical_name_systematic        
1,4-Dibenzyl-5,7,8-trifluoro-1,2,3,4-tetrahydropyrido(3,4-b)pyrazine
_symmetry_cell_setting           orthorhombic
_symmetry_space_group_name_H-M   'P 21 21 21'
_symmetry_Int_Tables_number      19
_space_group_name_Hall           'P 2ac 2ab'
loop_
_symmetry_equiv_pos_site_id
_symmetry_equiv_pos_as_xyz
1 x,y,z
2 1/2-x,-y,1/2+z
3 -x,1/2+y,1/2-z
4 1/2+x,1/2-y,-z
_cell_length_a                   7.4427(1)
_cell_length_b                   14.1667(2)
_cell_length_c                   16.6939(3)
_cell_angle_alpha                90
_cell_angle_beta                 90
_cell_angle_gamma                90
_cell_volume                     1760.18
_exptl_crystal_colour            colorless
_exptl_crystal_description       plate
_chemical_melting_point          '97.5-98.5 deg.C'
_cell_formula_units_Z            4
_exptl_crystal_recrystallization_method dichloromethane/n-hexane
loop_
_atom_site_label
_atom_site_type_symbol
_atom_site_fract_x
_atom_site_fract_y
_atom_site_fract_z
F1 F 0.33283(12) 0.07328(6) 0.15834(5)
F2 F 0.20772(12) 0.13330(6) 0.29753(6)
F3 F 0.66997(13) 0.00958(6) 0.43613(4)
N1 N 0.84144(14) -0.06064(7) 0.30351(6)
N2 N 0.65562(15) -0.03952(7) 0.15402(6)
N3 N 0.43747(17) 0.06933(8) 0.36727(7)
C1 C 0.93710(18) -0.05787(10) 0.22699(8)
C2 C 0.82225(18) -0.09434(10) 0.15907(8)
C3 C 0.42610(17) 0.05134(9) 0.22546(8)
C4 C 0.36214(18) 0.08275(9) 0.29773(8)
C5 C 0.58998(18) 0.02289(9) 0.36433(8)
C6 C 0.67339(16) -0.01492(8) 0.29766(7)
C7 C 0.58542(16) -0.00214(8) 0.22289(7)
C8 C 0.83512(19) -0.15475(9) 0.34105(9)
C9 C 1.01642(18) -0.18444(9) 0.37283(8)
C10 C 1.1342(2) -0.11987(10) 0.40687(8)
C11 C 1.2956(2) -0.14951(11) 0.44008(9)
C12 C 1.3421(2) -0.24475(12) 0.43869(8)
C13 C 1.2255(2) -0.30937(11) 0.40502(9)
C14 C 1.0631(2) -0.27955(9) 0.37215(9)
C15 C 0.54576(18) -0.05794(9) 0.08305(7)
C16 C 0.39764(17) -0.13025(8) 0.09442(7)
C17 C 0.38720(18) -0.18941(9) 0.16106(8)
C18 C 0.2542(2) -0.25849(9) 0.16523(9)
C19 C 0.13263(19) -0.26947(10) 0.10281(9)
C20 C 0.14026(19) -0.20977(10) 0.03706(9)
C21 C 0.27171(18) -0.14031(9) 0.03322(8)
H1 H 1.045(2) -0.0939(12) 0.2325(10)
H2 H 0.978(2) 0.0070(12) 0.2139(9)
H3 H 0.797(3) -0.1644(14) 0.1661(11)
H4 H 0.878(3) -0.0892(14) 0.1058(10)
H5 H 0.790(2) -0.2047(12) 0.3029(10)
H6 H 0.749(2) -0.1523(12) 0.3876(9)
H7 H 1.104(2) -0.0556(12) 0.4062(10)
H8 H 1.381(3) -0.1026(15) 0.4620(12)
H9 H 1.453(2) -0.2683(12) 0.4619(10)
H10 H 1.256(3) -0.3769(13) 0.4056(10)
H11 H 0.988(3) -0.3262(14) 0.3477(12)
H12 H 0.490(2) 0.0033(12) 0.0657(9)
H13 H 0.628(2) -0.0829(12) 0.0420(10)
H14 H 0.472(2) -0.1826(10) 0.2060(9)
H15 H 0.251(2) -0.2948(12) 0.2119(10)
H16 H 0.038(3) -0.3184(15) 0.1085(11)
H17 H 0.054(3) -0.2145(12) -0.0049(11)
H18 H 0.276(2) -0.0990(11) -0.0132(10)
loop_
_geom_bond_atom_site_label_1
_geom_bond_atom_site_label_2
_geom_bond_site_symmetry_1
_geom_bond_site_symmetry_2
F1 C3 1_555 1_555
F2 C4 1_555 1_555
F3 C5 1_555 1_555
N1 C1 1_555 1_555
N2 C2 1_555 1_555
N3 C4 1_555 1_555
C1 C2 1_555 1_555
C2 H3 1_555 1_555
C3 C4 1_555 1_555
C5 N3 1_555 1_555
C6 N1 1_555 1_555
C7 N2 1_555 1_555
C8 N1 1_555 1_555
C9 C8 1_555 1_555
C10 C9 1_555 1_555
C11 C10 1_555 1_555
C12 C11 1_555 1_555
C13 C12 1_555 1_555
C14 C9 1_555 1_555
C15 N2 1_555 1_555
C16 C15 1_555 1_555
C17 C16 1_555 1_555
C18 C17 1_555 1_555
C19 C18 1_555 1_555
C20 C19 1_555 1_555
C21 C16 1_555 1_555
H1 C1 1_555 1_555
H2 C1 1_555 1_555
H4 C2 1_555 1_555
H5 C8 1_555 1_555
H6 C8 1_555 1_555
H7 C10 1_555 1_555
H8 C11 1_555 1_555
H9 C12 1_555 1_555
H10 C13 1_555 1_555
H11 C14 1_555 1_555
H12 C15 1_555 1_555
H13 C15 1_555 1_555
H14 C17 1_555 1_555
H15 C18 1_555 1_555
H16 C19 1_555 1_555
H17 C20 1_555 1_555
H18 C21 1_555 1_555
C3 C7 1_555 1_555
C5 C6 1_555 1_555
C6 C7 1_555 1_555
C13 C14 1_555 1_555
C20 C21 1_555 1_555

#END
