
#######################################################################
#
#                 Cambridge Crystallographic Data Centre
#                                CCDC 
#
#######################################################################
#
# If this CIF has been generated from an entry in the Cambridge 
# Structural Database, then it will include bibliographic, chemical, 
# crystal, experimental, refinement or atomic coordinate data resulting 
# from the CCDC's data processing and validation procedures.
#
#######################################################################

data_QAVBAT
_chemical_formula_moiety         'C29 H22 N2 O1'
_chemical_name_systematic        
1-(5-(9-anthryl)-3-(2-naphthyl)-4,5-dihydro-1H-pyrazol-1-yl)ethanone
_symmetry_cell_setting           orthorhombic
_symmetry_space_group_name_H-M   'P c a 21'
_symmetry_Int_Tables_number      29
_space_group_name_Hall           'P 2c -2ac'
loop_
_symmetry_equiv_pos_site_id
_symmetry_equiv_pos_as_xyz
1 x,y,z
2 -x,-y,1/2+z
3 1/2+x,-y,z
4 1/2-x,y,1/2+z
_cell_length_a                   22.595(5)
_cell_length_b                   10.396(2)
_cell_length_c                   9.1680(18)
_cell_angle_alpha                90
_cell_angle_beta                 90
_cell_angle_gamma                90
_cell_volume                     2153.54
_exptl_crystal_colour            colorless
_exptl_crystal_description       block
_cell_formula_units_Z            4
loop_
_atom_site_label
_atom_site_type_symbol
_atom_site_fract_x
_atom_site_fract_y
_atom_site_fract_z
O1 O 0.44086(17) 1.1090(4) 0.1653(5)
N1 N 0.40566(16) 0.9353(4) 0.2794(4)
C1 C 0.46329(17) 0.8967(4) 0.3455(5)
H1 H 0.4777 0.9684 0.4051
N2 N 0.35813(16) 0.8684(4) 0.3401(5)
C2 C 0.44392(17) 0.7884(5) 0.4479(6)
H2 H 0.4610 0.7068 0.4183
H3 H 0.4556 0.8065 0.5476
C3 C 0.37856(18) 0.7863(5) 0.4333(6)
C4 C 0.3982(2) 1.0451(5) 0.2016(6)
C5 C 0.3356(2) 1.0794(6) 0.1611(8)
H4 H 0.3090 1.0164 0.2006
H5 H 0.3260 1.1626 0.2000
H6 H 0.3318 1.0812 0.0568
C6 C 0.51062(18) 0.8644(4) 0.2327(5)
C7 C 0.56511(18) 0.9306(4) 0.2361(5)
C8 C 0.5782(2) 1.0353(5) 0.3319(6)
H7 H 0.5487 1.0656 0.3936
C9 C 0.6324(2) 1.0919(5) 0.3358(7)
H8 H 0.6393 1.1592 0.4004
C10 C 0.6780(2) 1.0502(6) 0.2436(7)
H9 H 0.7153 1.0879 0.2496
C11 C 0.6681(2) 0.9561(6) 0.1473(7)
H10 H 0.6984 0.9299 0.0856
C12 C 0.61105(19) 0.8948(5) 0.1375(6)
C13 C 0.6000(2) 0.8006(6) 0.0341(7)
H11 H 0.6299 0.7796 -0.0314
C14 C 0.5474(2) 0.7374(5) 0.0239(6)
C15 C 0.5379(2) 0.6414(6) -0.0826(8)
H12 H 0.5677 0.6230 -0.1494
C16 C 0.4864(3) 0.5760(6) -0.0890(8)
H13 H 0.4808 0.5142 -0.1610
C17 C 0.4408(2) 0.6007(5) 0.0131(8)
H14 H 0.4059 0.5533 0.0098
C18 C 0.4478(2) 0.6932(5) 0.1156(6)
H15 H 0.4169 0.7097 0.1798
C19 C 0.50112(19) 0.7663(4) 0.1285(5)
C20 C 0.33808(19) 0.7022(5) 0.5128(6)
C21 C 0.3588(2) 0.6058(5) 0.5979(6)
H16 H 0.3995 0.5926 0.6031
C22 C 0.3211(3) 0.5247(5) 0.6791(6)
C23 C 0.3427(3) 0.4232(6) 0.7643(7)
H17 H 0.3830 0.4057 0.7662
C24 C 0.3041(4) 0.3492(6) 0.8456(8)
H18 H 0.3187 0.2830 0.9035
C25 C 0.2437(5) 0.3729(8) 0.8414(11)
H19 H 0.2181 0.3234 0.8974
C26 C 0.2219(4) 0.4690(8) 0.7551(10)
H20 H 0.1812 0.4823 0.7509
C27 C 0.2590(3) 0.5471(6) 0.6736(8)
C28 C 0.2386(3) 0.6487(6) 0.5862(8)
H21 H 0.1982 0.6653 0.5827
C29 C 0.2758(2) 0.7235(5) 0.5065(7)
H22 H 0.2606 0.7886 0.4478
loop_
_geom_bond_atom_site_label_1
_geom_bond_atom_site_label_2
_geom_bond_site_symmetry_1
_geom_bond_site_symmetry_2
O1 C4 1_555 1_555
N1 C1 1_555 1_555
C1 H1 1_555 1_555
N2 N1 1_555 1_555
C2 C1 1_555 1_555
H2 C2 1_555 1_555
H3 C2 1_555 1_555
C3 N2 1_555 1_555
C4 N1 1_555 1_555
C5 C4 1_555 1_555
H4 C5 1_555 1_555
H5 C5 1_555 1_555
H6 C5 1_555 1_555
C6 C1 1_555 1_555
C7 C6 1_555 1_555
C8 C7 1_555 1_555
H7 C8 1_555 1_555
C9 C8 1_555 1_555
H8 C9 1_555 1_555
C10 C9 1_555 1_555
H9 C10 1_555 1_555
C11 C10 1_555 1_555
H10 C11 1_555 1_555
C12 C7 1_555 1_555
C13 C12 1_555 1_555
H11 C13 1_555 1_555
C14 C13 1_555 1_555
C15 C14 1_555 1_555
H12 C15 1_555 1_555
C16 C15 1_555 1_555
H13 C16 1_555 1_555
C17 C16 1_555 1_555
H14 C17 1_555 1_555
C18 C17 1_555 1_555
H15 C18 1_555 1_555
C19 C6 1_555 1_555
C20 C3 1_555 1_555
C21 C20 1_555 1_555
H16 C21 1_555 1_555
C22 C21 1_555 1_555
C23 C22 1_555 1_555
H17 C23 1_555 1_555
C24 C23 1_555 1_555
H18 C24 1_555 1_555
C25 C24 1_555 1_555
H19 C25 1_555 1_555
C26 C25 1_555 1_555
H20 C26 1_555 1_555
C27 C22 1_555 1_555
C28 C27 1_555 1_555
H21 C28 1_555 1_555
C29 C20 1_555 1_555
H22 C29 1_555 1_555
C2 C3 1_555 1_555
C11 C12 1_555 1_555
C14 C19 1_555 1_555
C18 C19 1_555 1_555
C26 C27 1_555 1_555
C28 C29 1_555 1_555

#END
