
#######################################################################
#
#                 Cambridge Crystallographic Data Centre
#                                CCDC 
#
#######################################################################
#
# If this CIF has been generated from an entry in the Cambridge 
# Structural Database, then it will include bibliographic, chemical, 
# crystal, experimental, refinement or atomic coordinate data resulting 
# from the CCDC's data processing and validation procedures.
#
#######################################################################

data_QAVCOI
_chemical_name_common            
'[1]-(4-(2-({4-[(methylcarbamothioyl)amino]butyl}amino)-2-oxoethoxy)-34-butoxy-9,14,19,24,26,28,30,32-octamethoxypillar[5]arene)-pseudorotaxane ethanol solvate'
_chemical_formula_moiety         'C55 H69 N3 O11 S1,C2 H6 O1'
_chemical_name_systematic        
'2-((34-butoxy-9,14,19,24,26,28,30,32-octamethoxyhexacyclo[21.2.2.2^3,6^.2^8,11^.2^13,16^.2^18,21^]pentatriaconta-1(25),3,5,8,10,13,15,18,20,23,26,28,30,32,34-pentadecaen-4-yl)oxy)-N-(4-((methylcarbamothioyl)amino)butyl)acetamide ethanol solvate'
_symmetry_cell_setting           orthorhombic
_symmetry_space_group_name_H-M   'P 21 21 21'
_symmetry_Int_Tables_number      19
_space_group_name_Hall           'P 2ac 2ab'
loop_
_symmetry_equiv_pos_site_id
_symmetry_equiv_pos_as_xyz
1 x,y,z
2 1/2-x,-y,1/2+z
3 -x,1/2+y,1/2-z
4 1/2+x,1/2-y,-z
_cell_length_a                   12.0843(16)
_cell_length_b                   21.447(3)
_cell_length_c                   21.732(3)
_cell_angle_alpha                90
_cell_angle_beta                 90
_cell_angle_gamma                90
_cell_volume                     5632.33
_exptl_crystal_colour            colorless
_exptl_crystal_description       block
_cell_formula_units_Z            4
loop_
_atom_site_label
_atom_site_type_symbol
_atom_site_fract_x
_atom_site_fract_y
_atom_site_fract_z
C1 C 0.6166(3) 1.02030(15) 0.68706(15)
C2 C 0.7084(3) 1.04728(15) 0.71536(16)
C3 C 0.8138(3) 1.02865(16) 0.70150(16)
H1 H 0.8729 1.0478 0.7214
C4 C 0.8352(3) 0.98278(17) 0.65934(16)
C5 C 0.7446(3) 0.95466(18) 0.63026(16)
C6 C 0.6372(3) 0.97474(17) 0.64403(17)
H2 H 0.5778 0.9567 0.6234
C7 C 0.9514(3) 0.96237(19) 0.64405(17)
H3 H 1.0000 0.9983 0.6466
H4 H 0.9530 0.9476 0.6019
C8 C 1.0468(3) 0.92713(16) 0.74132(17)
C9 C 0.9961(3) 0.91154(18) 0.68564(17)
C10 C 0.9849(3) 0.85004(19) 0.67113(17)
H5 H 0.9510 0.8391 0.6343
C11 C 1.0230(3) 0.80308(17) 0.71032(18)
C12 C 1.0729(2) 0.81776(16) 0.76626(16)
C13 C 1.0845(3) 0.88154(16) 0.78001(17)
H6 H 1.1189 0.8931 0.8166
C14 C 0.4980(3) 1.03834(17) 0.70333(17)
H7 H 0.4953 1.0822 0.7140
H8 H 0.4507 1.0318 0.6678
C15 C 0.4560(3) 1.00048(14) 0.75619(16)
C16 C 0.4626(3) 1.02316(15) 0.81576(16)
H9 H 0.4879 1.0636 0.8221
C17 C 0.4325(3) 0.98717(14) 0.86642(16)
C18 C 0.3934(2) 0.92694(13) 0.85814(14)
C19 C 0.3826(2) 0.90563(15) 0.79778(15)
H10 H 0.3536 0.8660 0.7911
C20 C 0.4128(3) 0.94058(16) 0.74835(15)
C21 C 0.3640(2) 0.88540(14) 0.91190(15)
H11 H 0.2998 0.8604 0.9014
H12 H 0.3451 0.9110 0.9472
C22 C 0.5365(2) 0.86021(14) 0.97270(13)
H13 H 0.5279 0.8981 0.9929
C23 C 0.4597(2) 0.84291(13) 0.92844(13)
C24 C 0.4749(2) 0.78503(13) 0.90015(13)
C25 C 0.5636(2) 0.74752(13) 0.91568(14)
H14 H 0.5724 0.7094 0.8959
C26 C 0.6397(2) 0.76539(14) 0.95991(13)
C27 C 0.6253(3) 0.82280(15) 0.98752(14)
C28 C 1.1079(3) 0.76925(16) 0.81108(17)
H15 H 1.1720 0.7840 0.8337
H16 H 1.1291 0.7318 0.7890
C29 C 0.9975(3) 0.79172(15) 0.90711(15)
C30 C 0.9080(3) 0.78028(15) 0.94572(15)
H17 H 0.8973 0.8057 0.9798
C31 C 0.8345(3) 0.73215(14) 0.93484(15)
C32 C 0.8528(3) 0.69436(14) 0.88444(17)
C33 C 0.9428(3) 0.70579(15) 0.84554(17)
H18 H 0.9536 0.6801 0.8116
C34 C 1.0158(2) 0.75390(14) 0.85590(16)
C35 C 0.7361(3) 0.72303(15) 0.97646(16)
H19 H 0.7582 0.7312 1.0186
H20 H 0.7121 0.6799 0.9740
C36 C 0.4032(4) 0.70971(18) 0.8286(2)
H21 H 0.3973 0.6775 0.8591
H22 H 0.4733 0.7064 0.8081
H23 H 0.3446 0.7052 0.7992
C37 C 0.6867(4) 0.8921(2) 1.06681(19)
H24 H 0.6174 0.8880 1.0880
H25 H 0.6850 0.9286 1.0412
H26 H 0.7455 0.8959 1.0963
C38 C 1.0447(3) 0.88484(17) 0.9601(2)
H27 H 1.0395 0.8663 1.0002
H28 H 0.9749 0.9032 0.9494
H29 H 1.1009 0.9164 0.9604
C39 C 0.8161(6) 0.5888(3) 0.8641(6)
H30 H 0.7763 0.5609 0.8906
H31 H 0.8934 0.5876 0.8742
H32 H 0.8060 0.5763 0.8221
C40 C 1.1100(4) 1.00664(19) 0.8102(2)
H33 H 1.1854 0.9926 0.8098
H34 H 1.0716 0.9875 0.8440
H35 H 1.1082 1.0511 0.8149
C41 C 0.9835(8) 0.7220(3) 0.6374(3)
H36 H 1.0349 0.7395 0.6086
H37 H 0.9102 0.7365 0.6281
H38 H 0.9855 0.6773 0.6347
C42 C 0.3419(4) 0.8676(2) 0.67691(19)
H39 H 0.2715 0.8714 0.6970
H40 H 0.3799 0.8315 0.6923
H41 H 0.3308 0.8633 0.6334
C43 C 0.4754(5) 1.07046(19) 0.9377(2)
H42 H 0.4253 1.0989 0.9180
H43 H 0.5485 1.0764 0.9214
H44 H 0.4759 1.0782 0.9812
C44 C 0.7677(4) 1.11695(16) 0.7951(2)
H45 H 0.7433 1.1550 0.8150
H46 H 0.8310 1.1271 0.7695
C45 C 0.8035(3) 1.06990(16) 0.84458(19)
C46 C 0.7531(3) 0.97163(17) 0.89568(17)
H47 H 0.6872 0.9625 0.9195
H48 H 0.8118 0.9824 0.9243
C47 C 0.7863(3) 0.91466(16) 0.86003(18)
H49 H 0.8019 0.8814 0.8890
H50 H 0.8544 0.9237 0.8381
C48 C 0.7022(3) 0.89157(16) 0.81444(17)
H51 H 0.6315 0.8866 0.8351
H52 H 0.6929 0.9226 0.7823
C49 C 0.7336(3) 0.83232(17) 0.7864(2)
H53 H 0.8040 0.8374 0.7655
H54 H 0.7436 0.8015 0.8186
C50 C 0.6502(4) 0.75442(19) 0.7143(2)
C51 C 0.7374(7) 0.6531(3) 0.7069(5)
H55 H 0.7659 0.6525 0.6657
H56 H 0.6649 0.6348 0.7074
H57 H 0.7856 0.6296 0.7333
C52 C 0.6808(5) 0.8760(3) 0.5585(3)
H58 H 0.6370 0.9038 0.5331
H59 H 0.6329 0.8553 0.5879
C53 C 0.7474(7) 0.8275(3) 0.5181(4)
H60 H 0.7983 0.8499 0.4916
H61 H 0.7908 0.8010 0.5451
N1 N 0.7316(3) 1.02429(13) 0.85581(13)
H62 H 0.6679 1.0263 0.8382
N2 N 0.6521(3) 0.80932(16) 0.74258(17)
H63 H 0.5986 0.8343 0.7340
N3 N 0.7308(4) 0.71786(19) 0.7289(3)
H64 H 0.7826 0.7318 0.7523
O1 O 1.0124(3) 0.74048(13) 0.69726(14)
O2 O 1.0578(2) 0.98983(12) 0.75402(13)
O3 O 1.07220(19) 0.83866(11) 0.91665(11)
O4 O 0.7777(2) 0.64722(11) 0.87170(14)
O5 O 0.7047(2) 0.83932(12) 1.03026(11)
O6 O 0.39504(19) 0.76882(10) 0.85752(11)
O7 O 0.4401(2) 1.00741(11) 0.92624(11)
O8 O 0.4051(2) 0.92081(13) 0.68851(11)
O9 O 0.6817(2) 1.09434(11) 0.75741(13)
O10 O 0.7703(3) 0.90901(15) 0.58902(14)
O11 O 0.8924(3) 1.07711(14) 0.87152(16)
S1 S 0.54999(17) 0.73269(9) 0.66662(10)
C54 C 0.7732(10) 0.7490(5) 0.4511(5)
H65 H 0.8431 0.7648 0.4653
H66 H 0.7698 0.7521 0.4071
H67 H 0.7656 0.7062 0.4632
C55 C 0.6762(8) 0.7887(5) 0.4805(5)
H68 H 0.6353 0.8125 0.4500
H69 H 0.6258 0.7636 0.5048
C56 C 0.1823(11) 0.0432(6) 0.0241(5)
H70 H 0.2265 0.0123 0.0036
H71 H 0.1343 0.0231 0.0532
H72 H 0.2298 0.0719 0.0452
C57 C 0.1158(10) 0.0769(5) -0.0213(5)
H73 H 0.0931 0.1170 -0.0050
H74 H 0.1584 0.0838 -0.0585
O12 O 0.0236(7) 0.0401(3) -0.0340(4)
H75 H 0.0225 0.0102 -0.0105
loop_
_geom_bond_atom_site_label_1
_geom_bond_atom_site_label_2
_geom_bond_site_symmetry_1
_geom_bond_site_symmetry_2
C1 C2 1_555 1_555
C2 C3 1_555 1_555
C3 H1 1_555 1_555
C4 C3 1_555 1_555
C5 C4 1_555 1_555
C6 C1 1_555 1_555
H2 C6 1_555 1_555
C7 C4 1_555 1_555
H3 C7 1_555 1_555
H4 C7 1_555 1_555
C8 C9 1_555 1_555
C9 C7 1_555 1_555
C10 C9 1_555 1_555
H5 C10 1_555 1_555
C11 C10 1_555 1_555
C12 C11 1_555 1_555
C13 C8 1_555 1_555
H6 C13 1_555 1_555
C14 C1 1_555 1_555
H7 C14 1_555 1_555
H8 C14 1_555 1_555
C15 C14 1_555 1_555
C16 C15 1_555 1_555
H9 C16 1_555 1_555
C17 C16 1_555 1_555
C18 C17 1_555 1_555
C19 C18 1_555 1_555
H10 C19 1_555 1_555
C20 C15 1_555 1_555
C21 C18 1_555 1_555
H11 C21 1_555 1_555
H12 C21 1_555 1_555
C22 H13 1_555 1_555
C23 C21 1_555 1_555
C24 C23 1_555 1_555
C25 C24 1_555 1_555
H14 C25 1_555 1_555
C26 C25 1_555 1_555
C27 C22 1_555 1_555
C28 C12 1_555 1_555
H15 C28 1_555 1_555
H16 C28 1_555 1_555
C29 C30 1_555 1_555
C30 H17 1_555 1_555
C31 C30 1_555 1_555
C32 C31 1_555 1_555
C33 C32 1_555 1_555
H18 C33 1_555 1_555
C34 C28 1_555 1_555
C35 C26 1_555 1_555
H19 C35 1_555 1_555
H20 C35 1_555 1_555
C36 H21 1_555 1_555
H22 C36 1_555 1_555
H23 C36 1_555 1_555
C37 H24 1_555 1_555
H25 C37 1_555 1_555
H26 C37 1_555 1_555
C38 H27 1_555 1_555
H28 C38 1_555 1_555
H29 C38 1_555 1_555
C39 H30 1_555 1_555
H31 C39 1_555 1_555
H32 C39 1_555 1_555
C40 H33 1_555 1_555
H34 C40 1_555 1_555
H35 C40 1_555 1_555
C41 H36 1_555 1_555
H37 C41 1_555 1_555
H38 C41 1_555 1_555
C42 H39 1_555 1_555
H40 C42 1_555 1_555
H41 C42 1_555 1_555
C43 H42 1_555 1_555
H43 C43 1_555 1_555
H44 C43 1_555 1_555
C44 H45 1_555 1_555
H46 C44 1_555 1_555
C45 C44 1_555 1_555
C46 H47 1_555 1_555
H48 C46 1_555 1_555
C47 C46 1_555 1_555
H49 C47 1_555 1_555
H50 C47 1_555 1_555
C48 C47 1_555 1_555
H51 C48 1_555 1_555
H52 C48 1_555 1_555
C49 C48 1_555 1_555
H53 C49 1_555 1_555
H54 C49 1_555 1_555
C50 N2 1_555 1_555
C51 H55 1_555 1_555
H56 C51 1_555 1_555
H57 C51 1_555 1_555
C52 H58 1_555 1_555
H59 C52 1_555 1_555
C53 C52 1_555 1_555
H60 C53 1_555 1_555
H61 C53 1_555 1_555
N1 C45 1_555 1_555
H62 N1 1_555 1_555
N2 C49 1_555 1_555
H63 N2 1_555 1_555
N3 C50 1_555 1_555
H64 N3 1_555 1_555
O1 C11 1_555 1_555
O2 C8 1_555 1_555
O3 C29 1_555 1_555
O4 C32 1_555 1_555
O5 C27 1_555 1_555
O6 C24 1_555 1_555
O7 C17 1_555 1_555
O8 C20 1_555 1_555
O9 C2 1_555 1_555
O10 C5 1_555 1_555
O11 C45 1_555 1_555
S1 C50 1_555 1_555
C54 H65 1_555 1_555
H66 C54 1_555 1_555
H67 C54 1_555 1_555
C55 C53 1_555 1_555
H68 C55 1_555 1_555
H69 C55 1_555 1_555
C56 H70 1_555 1_555
H71 C56 1_555 1_555
H72 C56 1_555 1_555
C57 C56 1_555 1_555
H73 C57 1_555 1_555
H74 C57 1_555 1_555
O12 C57 1_555 1_555
H75 O12 1_555 1_555
C5 C6 1_555 1_555
C12 C13 1_555 1_555
C19 C20 1_555 1_555
C22 C23 1_555 1_555
C26 C27 1_555 1_555
C29 C34 1_555 1_555
C31 C35 1_555 1_555
C33 C34 1_555 1_555
C36 O6 1_555 1_555
C37 O5 1_555 1_555
C38 O3 1_555 1_555
C39 O4 1_555 1_555
C40 O2 1_555 1_555
C41 O1 1_555 1_555
C42 O8 1_555 1_555
C43 O7 1_555 1_555
C44 O9 1_555 1_555
C46 N1 1_555 1_555
C51 N3 1_555 1_555
C52 O10 1_555 1_555
C54 C55 1_555 1_555

#END
