
#######################################################################
#
#                 Cambridge Crystallographic Data Centre
#                                CCDC 
#
#######################################################################
#
# If this CIF has been generated from an entry in the Cambridge 
# Structural Database, then it will include bibliographic, chemical, 
# crystal, experimental, refinement or atomic coordinate data resulting 
# from the CCDC's data processing and validation procedures.
#
#######################################################################

data_QAVJAA
_chemical_formula_moiety         'C17 H19 Cl2 N1 O1 S1'
_chemical_name_systematic        
(R)-N-((S)-(2,4-Dichlorophenyl)(phenyl)methyl)-2-methylpropane-2-sulfinamide
_symmetry_cell_setting           orthorhombic
_symmetry_space_group_name_H-M   'P 21 21 21'
_symmetry_Int_Tables_number      19
_space_group_name_Hall           'P 2ac 2ab'
loop_
_symmetry_equiv_pos_site_id
_symmetry_equiv_pos_as_xyz
1 x,y,z
2 1/2-x,-y,1/2+z
3 -x,1/2+y,1/2-z
4 1/2+x,1/2-y,-z
_cell_length_a                   5.5410(6)
_cell_length_b                   10.1812(11)
_cell_length_c                   31.205(3)
_cell_angle_alpha                90
_cell_angle_beta                 90
_cell_angle_gamma                90
_cell_volume                     1760.4
_exptl_crystal_colour            colorless
_exptl_crystal_description       prismatic
_chemical_melting_point          '104-106 deg.C'
_cell_formula_units_Z            4
loop_
_atom_site_label
_atom_site_type_symbol
_atom_site_fract_x
_atom_site_fract_y
_atom_site_fract_z
S1 S 0.22521(10) 0.42952(7) 0.88938(2)
Cl1 Cl 0.9985(2) 0.74714(15) 0.71119(3)
Cl2 Cl 0.28873(18) 0.89773(10) 0.81630(3)
O1 O 0.0511(3) 0.4636(3) 0.92299(9)
N1 N 0.4599(4) 0.5287(3) 0.88915(9)
C1 C 0.4239(5) 0.6623(3) 0.87261(10)
H1 H 0.2524 0.6712 0.8655
C2 C 0.5652(5) 0.6825(3) 0.83165(9)
C3 C 0.7498(6) 0.5981(3) 0.81997(10)
H2 H 0.7854 0.5266 0.8374
C4 C 0.8837(7) 0.6177(4) 0.78272(12)
H3 H 1.0082 0.5607 0.7754
C5 C 0.8289(7) 0.7215(4) 0.75736(11)
C6 C 0.6469(7) 0.8067(4) 0.76676(11)
H4 H 0.6115 0.8767 0.7487
C7 C 0.5152(6) 0.7864(3) 0.80413(11)
C8 C 0.4798(5) 0.7623(3) 0.90748(9)
C9 C 0.3204(5) 0.7707(3) 0.94167(10)
H5 H 0.1810 0.7198 0.9419
C10 C 0.3694(6) 0.8550(4) 0.97546(11)
H6 H 0.2616 0.8613 0.9982
C11 C 0.5721(6) 0.9278(4) 0.97547(11)
H7 H 0.6039 0.9843 0.9982
C12 C 0.7319(6) 0.9187(4) 0.94208(13)
H8 H 0.8727 0.9685 0.9424
C13 C 0.6849(5) 0.8362(3) 0.90801(10)
H9 H 0.7935 0.8310 0.8853
C14 C 0.3861(4) 0.2816(3) 0.90720(10)
C15 C 0.5622(5) 0.2425(4) 0.87249(12)
H10 H 0.6917 0.3051 0.8714
H11 H 0.4806 0.2408 0.8454
H12 H 0.6261 0.1570 0.8787
C16 C 0.1891(5) 0.1765(4) 0.91190(14)
H13 H 0.1068 0.1659 0.8851
H14 H 0.0759 0.2034 0.9335
H15 H 0.2615 0.0946 0.9201
C17 C 0.5066(6) 0.3046(4) 0.95007(11)
H16 H 0.5437 0.2216 0.9631
H17 H 0.3997 0.3532 0.9684
H18 H 0.6528 0.3535 0.9459
H19 H 0.529(6) 0.536(5) 0.9132(8)
loop_
_geom_bond_atom_site_label_1
_geom_bond_atom_site_label_2
_geom_bond_site_symmetry_1
_geom_bond_site_symmetry_2
S1 O1 1_555 1_555
Cl1 C5 1_555 1_555
Cl2 C7 1_555 1_555
N1 S1 1_555 1_555
C1 N1 1_555 1_555
H1 C1 1_555 1_555
C2 C1 1_555 1_555
C3 C2 1_555 1_555
H2 C3 1_555 1_555
C4 C3 1_555 1_555
H3 C4 1_555 1_555
C5 C4 1_555 1_555
C6 C5 1_555 1_555
H4 C6 1_555 1_555
C7 C2 1_555 1_555
C8 C1 1_555 1_555
C9 C8 1_555 1_555
H5 C9 1_555 1_555
C10 C9 1_555 1_555
H6 C10 1_555 1_555
C11 C10 1_555 1_555
H7 C11 1_555 1_555
C12 C11 1_555 1_555
H8 C12 1_555 1_555
C13 C8 1_555 1_555
H9 C13 1_555 1_555
C14 S1 1_555 1_555
C15 C14 1_555 1_555
H10 C15 1_555 1_555
H11 C15 1_555 1_555
H12 C15 1_555 1_555
C16 C14 1_555 1_555
H13 C16 1_555 1_555
H14 C16 1_555 1_555
H15 C16 1_555 1_555
C17 C14 1_555 1_555
H16 C17 1_555 1_555
H17 C17 1_555 1_555
H18 C17 1_555 1_555
H19 N1 1_555 1_555
C6 C7 1_555 1_555
C12 C13 1_555 1_555

#END
