
#######################################################################
#
#                 Cambridge Crystallographic Data Centre
#                                CCDC 
#
#######################################################################
#
# If this CIF has been generated from an entry in the Cambridge 
# Structural Database, then it will include bibliographic, chemical, 
# crystal, experimental, refinement or atomic coordinate data resulting 
# from the CCDC's data processing and validation procedures.
#
#######################################################################

data_QAVKAC
_chemical_formula_moiety         'C24 H26 N2 O1 S1'
_chemical_name_systematic        
N-((2,6-diisopropylphenyl)carbamothioyl)-1-naphthamide
_symmetry_cell_setting           triclinic
_symmetry_space_group_name_H-M   'P -1'
_symmetry_Int_Tables_number      2
_space_group_name_Hall           '-P 1'
loop_
_symmetry_equiv_pos_site_id
_symmetry_equiv_pos_as_xyz
1 x,y,z
2 -x,-y,-z
_cell_length_a                   8.7305(3)
_cell_length_b                   11.1137(4)
_cell_length_c                   13.0590(5)
_cell_angle_alpha                100.762(2)
_cell_angle_beta                 109.353(2)
_cell_angle_gamma                104.041(2)
_cell_volume                     1109.28
_exptl_crystal_colour            colorless
_exptl_crystal_description       block
_cell_formula_units_Z            2
loop_
_atom_site_label
_atom_site_type_symbol
_atom_site_fract_x
_atom_site_fract_y
_atom_site_fract_z
N1 N 0.38691(19) 0.60939(13) 0.38821(13)
H1 H 0.4663 0.6131 0.4502
N2 N 0.12528(19) 0.49013(14) 0.24265(13)
H2 H 0.1328 0.5607 0.2236
S1 S 0.26197(7) 0.36459(5) 0.38189(5)
O1 O 0.30545(19) 0.72539(13) 0.26553(13)
C1 C 0.2533(2) 0.49192(17) 0.33340(16)
C2 C 0.4064(3) 0.72070(18) 0.35427(18)
C3 C 0.5561(3) 0.83492(18) 0.4343(2)
C4 C 0.5851(3) 0.8655(2) 0.5469(2)
H3 H 0.5178 0.8111 0.5730
C5 C 0.7174(4) 0.9800(2) 0.6240(2)
H4 H 0.7370 1.0016 0.7006
C6 C 0.8152(3) 1.0577(2) 0.5848(3)
H5 H 0.9019 1.1325 0.6361
C7 C 0.7916(3) 1.0304(2) 0.4712(3)
C8 C 0.8951(3) 1.1134(2) 0.4314(3)
H6 H 0.9820 1.1884 0.4826
C9 C 0.8695(4) 1.0855(3) 0.3210(4)
H7 H 0.9379 1.1413 0.2964
C10 C 0.7420(4) 0.9740(3) 0.2440(3)
H8 H 0.7262 0.9550 0.1680
C11 C 0.6384(3) 0.8911(2) 0.2780(2)
H9 H 0.5535 0.8165 0.2248
C12 C 0.6585(3) 0.91723(18) 0.3923(2)
C13 C -0.0251(2) 0.37967(18) 0.17355(17)
C14 C -0.1730(3) 0.3694(3) 0.1947(2)
C15 C -0.3188(3) 0.2661(4) 0.1211(3)
H10 H -0.4199 0.2550 0.1332
C16 C -0.3180(4) 0.1815(3) 0.0327(3)
H11 H -0.4188 0.1149 -0.0162
C17 C -0.1702(4) 0.1924(2) 0.0140(2)
H12 H -0.1713 0.1324 -0.0466
C18 C 0.1438(4) 0.3056(3) 0.0648(2)
H13 H 0.235(6) 0.370(5) 0.126(4)
C19 C -0.0184(3) 0.2927(2) 0.08509(19)
C20 C 0.1704(15) 0.1667(11) 0.0580(15)
H14 H 0.0794 0.1027 -0.0079
H15 H 0.1689 0.1430 0.1248
H16 H 0.2788 0.1712 0.0530
C21 C 0.1365(17) 0.342(3) -0.0348(13)
H17 H 0.2452 0.3539 -0.0412
H18 H 0.1114 0.4220 -0.0304
H19 H 0.0480 0.2756 -0.1000
C22 C -0.1766(4) 0.4629(4) 0.2940(3)
H20 H -0.0584 0.5231 0.3261
C23 C -0.184(4) 0.426(2) 0.3884(11)
H21 H -0.2926 0.3610 0.3676
H22 H -0.1706 0.4999 0.4460
H23 H -0.0929 0.3913 0.4170
C24 C -0.2729(6) 0.5514(4) 0.2617(4)
H24 H -0.2163 0.6078 0.2283
H25 H -0.2776 0.6023 0.3279
H26 H -0.3875 0.5018 0.2078
H27? H 0.2377 0.3397 0.1402
C25? C 0.181(2) 0.202(2) 0.003(3)
H28? H 0.2011 0.1429 0.0471
H29? H 0.2815 0.2377 -0.0106
H30? H 0.0852 0.1568 -0.0679
C26? C 0.170(2) 0.425(3) 0.000(2)
H31? H 0.2849 0.4506 0.0033
H32? H 0.1502 0.4985 0.0390
H33? H 0.0894 0.3933 -0.0773
H34? H -0.0613 0.5096 0.3531
C27? C -0.302(2) 0.3705(13) 0.3404(17)
H35? H -0.4168 0.3346 0.2832
H36? H -0.3023 0.4218 0.4081
H37? H -0.2591 0.3015 0.3569
loop_
_geom_bond_atom_site_label_1
_geom_bond_atom_site_label_2
_geom_bond_site_symmetry_1
_geom_bond_site_symmetry_2
N1 H1 1_555 1_555
N2 H2 1_555 1_555
S1 C1 1_555 1_555
O1 C2 1_555 1_555
C1 N1 1_555 1_555
C2 N1 1_555 1_555
C3 C2 1_555 1_555
C4 C3 1_555 1_555
H3 C4 1_555 1_555
C5 C4 1_555 1_555
H4 C5 1_555 1_555
C6 C5 1_555 1_555
H5 C6 1_555 1_555
C7 C6 1_555 1_555
C8 C7 1_555 1_555
H6 C8 1_555 1_555
C9 C8 1_555 1_555
H7 C9 1_555 1_555
C10 C9 1_555 1_555
H8 C10 1_555 1_555
C11 C10 1_555 1_555
H9 C11 1_555 1_555
C12 C3 1_555 1_555
C13 N2 1_555 1_555
C14 C13 1_555 1_555
C15 C14 1_555 1_555
H10 C15 1_555 1_555
C16 C15 1_555 1_555
H11 C16 1_555 1_555
C17 C16 1_555 1_555
H12 C17 1_555 1_555
C18 H13 1_555 1_555
C19 C13 1_555 1_555
C20 C18 1_555 1_555
H14 C20 1_555 1_555
H15 C20 1_555 1_555
H16 C20 1_555 1_555
C21 C18 1_555 1_555
H17 C21 1_555 1_555
H18 C21 1_555 1_555
H19 C21 1_555 1_555
C22 C14 1_555 1_555
H20 C22 1_555 1_555
C23 C22 1_555 1_555
H21 C23 1_555 1_555
H22 C23 1_555 1_555
H23 C23 1_555 1_555
C24 C22 1_555 1_555
H24 C24 1_555 1_555
H25 C24 1_555 1_555
H26 C24 1_555 1_555
N2 C1 1_555 1_555
C7 C12 1_555 1_555
C11 C12 1_555 1_555
C17 C19 1_555 1_555
C18 C19 1_555 1_555

#END
