
#######################################################################
#
#                 Cambridge Crystallographic Data Centre
#                                CCDC 
#
#######################################################################
#
# If this CIF has been generated from an entry in the Cambridge 
# Structural Database, then it will include bibliographic, chemical, 
# crystal, experimental, refinement or atomic coordinate data resulting 
# from the CCDC's data processing and validation procedures.
#
#######################################################################

data_QAVMUY
_chemical_formula_moiety         'C20 H22 O2 S2'
_chemical_name_systematic        dimesityldithioperoxyanhydride
_symmetry_cell_setting           monoclinic
_symmetry_space_group_name_H-M   'P 21/c'
_symmetry_Int_Tables_number      14
_space_group_name_Hall           '-P 2ybc'
loop_
_symmetry_equiv_pos_site_id
_symmetry_equiv_pos_as_xyz
1 x,y,z
2 -x,1/2+y,1/2-z
3 -x,-y,-z
4 x,1/2-y,1/2+z
_cell_length_a                   12.4958(5)
_cell_length_b                   15.9744(7)
_cell_length_c                   9.7908(4)
_cell_angle_alpha                90
_cell_angle_beta                 91.149(2)
_cell_angle_gamma                90
_cell_volume                     1953.98
_exptl_crystal_colour            colorless
_exptl_crystal_description       block
_cell_formula_units_Z            4
loop_
_atom_site_label
_atom_site_type_symbol
_atom_site_fract_x
_atom_site_fract_y
_atom_site_fract_z
S1 S 0.37815(4) 0.94891(3) 0.90587(6)
S2 S 0.33747(4) 1.06958(3) 0.86782(6)
O1 O 0.23136(15) 0.92858(11) 0.71039(18)
O2 O 0.18202(14) 1.02935(10) 1.03566(17)
C1 C 0.29300(15) 0.89368(13) 0.78569(19)
C2 C 0.30938(14) 0.80170(12) 0.79636(17)
C3 C 0.38981(14) 0.76306(12) 0.72166(18)
C4 C 0.40028(17) 0.67770(14) 0.7314(2)
H1 H 0.4536 0.6515 0.6821
C5 C 0.33502(19) 0.62937(14) 0.8112(2)
C6 C 0.25616(18) 0.66954(15) 0.8852(2)
H2 H 0.2113 0.6377 0.9393
C7 C 0.24266(15) 0.75517(13) 0.8805(2)
C8 C 0.15992(17) 0.79756(17) 0.9676(2)
H3 H 0.1192 0.7559 1.0144
H4 H 0.1128 0.8304 0.9104
H5 H 0.1952 0.8333 1.0331
C9 C 0.46391(17) 0.81290(16) 0.6324(2)
H6 H 0.4884 0.7781 0.5594
H7 H 0.5242 0.8320 0.6861
H8 H 0.4262 0.8602 0.5950
C10 C 0.3507(3) 0.53579(17) 0.8227(3)
H9 H 0.3047 0.5080 0.7574
H10 H 0.3334 0.5178 0.9132
H11 H 0.4239 0.5222 0.8048
C11 C 0.21981(15) 1.08359(11) 0.96883(18)
C12 C 0.17890(13) 1.17070(11) 0.94880(17)
C13 C 0.09432(14) 1.18273(12) 0.85527(18)
C14 C 0.06106(16) 1.26400(13) 0.8314(2)
H12 H 0.0056 1.2734 0.7686
C15 C 0.10721(17) 1.33182(13) 0.8977(2)
C16 C 0.18937(17) 1.31737(12) 0.9903(2)
H13 H 0.2204 1.3626 1.0359
C17 C 0.22746(15) 1.23729(11) 1.01782(18)
C18 C 0.31486(18) 1.22359(15) 1.1237(2)
H14 H 0.3387 1.2767 1.1588
H15 H 0.3738 1.1951 1.0828
H16 H 0.2878 1.1903 1.1970
C19 C 0.03964(18) 1.11029(15) 0.7848(2)
H17 H -0.0043 1.0812 0.8486
H18 H 0.0926 1.0726 0.7503
H19 H -0.0042 1.1307 0.7104
C20 C 0.0668(2) 1.41941(15) 0.8679(3)
H20 H 0.1058 1.4589 0.9235
H21 H -0.0080 1.4227 0.8880
H22 H 0.0768 1.4322 0.7732
loop_
_geom_bond_atom_site_label_1
_geom_bond_atom_site_label_2
_geom_bond_site_symmetry_1
_geom_bond_site_symmetry_2
S1 S2 1_555 1_555
S2 C11 1_555 1_555
O1 C1 1_555 1_555
O2 C11 1_555 1_555
C1 S1 1_555 1_555
C2 C1 1_555 1_555
C3 C2 1_555 1_555
C4 C3 1_555 1_555
H1 C4 1_555 1_555
C5 C4 1_555 1_555
C6 C5 1_555 1_555
H2 C6 1_555 1_555
C7 C2 1_555 1_555
C8 C7 1_555 1_555
H3 C8 1_555 1_555
H4 C8 1_555 1_555
H5 C8 1_555 1_555
C9 C3 1_555 1_555
H6 C9 1_555 1_555
H7 C9 1_555 1_555
H8 C9 1_555 1_555
C10 C5 1_555 1_555
H9 C10 1_555 1_555
H10 C10 1_555 1_555
H11 C10 1_555 1_555
C11 C12 1_555 1_555
C12 C13 1_555 1_555
C13 C14 1_555 1_555
C14 H12 1_555 1_555
C15 C14 1_555 1_555
C16 C15 1_555 1_555
H13 C16 1_555 1_555
C17 C12 1_555 1_555
C18 C17 1_555 1_555
H14 C18 1_555 1_555
H15 C18 1_555 1_555
H16 C18 1_555 1_555
C19 C13 1_555 1_555
H17 C19 1_555 1_555
H18 C19 1_555 1_555
H19 C19 1_555 1_555
C20 C15 1_555 1_555
H20 C20 1_555 1_555
H21 C20 1_555 1_555
H22 C20 1_555 1_555
C6 C7 1_555 1_555
C16 C17 1_555 1_555

#END
