
#######################################################################
#
#                 Cambridge Crystallographic Data Centre
#                                CCDC 
#
#######################################################################
#
# If this CIF has been generated from an entry in the Cambridge 
# Structural Database, then it will include bibliographic, chemical, 
# crystal, experimental, refinement or atomic coordinate data resulting 
# from the CCDC's data processing and validation procedures.
#
#######################################################################

data_QAVPEK
_chemical_formula_moiety         'C24 H30 Br1 N1 O4 Si1'
_chemical_name_systematic        
'Methyl 3-(4-bromophenyl)-5-((t-butyl(dimethyl)silyl)oxy)-2-phenyl-3,6-dihydro-2H-1,2-oxazine-4-carboxylate'
_symmetry_cell_setting           triclinic
_symmetry_space_group_name_H-M   'P -1'
_symmetry_Int_Tables_number      2
_space_group_name_Hall           '-P 1'
loop_
_symmetry_equiv_pos_site_id
_symmetry_equiv_pos_as_xyz
1 x,y,z
2 -x,-y,-z
_cell_length_a                   9.6050(3)
_cell_length_b                   11.1894(3)
_cell_length_c                   12.5244(4)
_cell_angle_alpha                74.5335(14)
_cell_angle_beta                 68.7246(13)
_cell_angle_gamma                81.2477(13)
_cell_volume                     1206.59
_exptl_crystal_colour            colorless
_exptl_crystal_description       prism
_cell_formula_units_Z            2
loop_
_atom_site_label
_atom_site_type_symbol
_atom_site_fract_x
_atom_site_fract_y
_atom_site_fract_z
N1 N 0.88773(12) 1.00536(9) 0.31223(8)
C1 C 0.96437(13) 0.88604(10) 0.28501(10)
H1 H 0.9421(17) 0.8791(14) 0.2180(14)
C2 C 0.89141(13) 0.78184(10) 0.38750(10)
C3 C 0.81575(13) 0.80651(11) 0.49358(10)
O1 O 0.74670(10) 0.72184(8) 0.59109(7)
C4 C 0.80721(14) 0.93527(11) 0.51231(10)
H2 H 0.7059(18) 0.9718(15) 0.5250(14)
H3 H 0.8344(18) 0.9300(15) 0.5801(14)
O2 O 0.91101(10) 1.01344(8) 0.41792(7)
C5 C 0.93933(13) 1.11377(11) 0.22217(10)
C6 C 0.91692(16) 1.12543(12) 0.11579(11)
H4 H 0.8674(19) 1.0595(16) 0.1080(15)
C7 C 0.96096(17) 1.22966(13) 0.02515(12)
H5 H 0.945(2) 1.2369(16) -0.0451(16)
C8 C 1.02583(16) 1.32397(12) 0.03964(12)
H6 H 1.056(2) 1.3925(17) -0.0206(16)
C9 C 1.04421(17) 1.31401(13) 0.14601(14)
H7 H 1.088(2) 1.3801(17) 0.1573(16)
C10 C 1.00152(16) 1.20920(12) 0.23794(12)
H8 H 1.0147(19) 1.2023(16) 0.3116(15)
C11 C 1.13346(13) 0.87833(10) 0.25369(10)
C12 C 1.19972(14) 0.84878(11) 0.34047(11)
H9 H 1.1377(18) 0.8326(15) 0.4216(15)
C13 C 1.35440(15) 0.83912(12) 0.31093(13)
H10 H 1.3966(19) 0.8185(16) 0.3703(15)
C14 C 1.44332(14) 0.85779(12) 0.19353(13)
Br1 Br 1.654592(17) 0.837465(16) 0.152581(18)
C15 C 1.38087(15) 0.88761(13) 0.10557(12)
H11 H 1.441(2) 0.8997(16) 0.0268(16)
C16 C 1.22611(15) 0.89881(12) 0.13630(11)
H12 H 1.1832(19) 0.9220(16) 0.0766(15)
C17 C 0.91366(13) 0.66061(11) 0.35546(10)
O3 O 0.97208(13) 0.64975(9) 0.25516(8)
O4 O 0.86598(12) 0.56441(8) 0.44623(8)
C18 C 0.88983(17) 0.44545(12) 0.41554(13)
H13 H 0.9974 0.4226 0.3875
H14 H 0.8486 0.4508 0.3533
H15 H 0.8397 0.3823 0.4850
Si1 Si 0.57106(4) 0.72405(3) 0.68718(3)
C19 C 0.44920(19) 0.81462(19) 0.60409(17)
H16 H 0.4429 0.9024 0.6058
H17 H 0.3488 0.7831 0.6402
H18 H 0.4915 0.8062 0.5223
C20 C 0.5640(2) 0.79730(17) 0.80568(14)
H19 H 0.4606 0.8024 0.8593
H20 H 0.6002 0.8810 0.7709
H21 H 0.6274 0.7472 0.8494
C21 C 0.52664(15) 0.55679(13) 0.74583(13)
C22 C 0.3801(2) 0.54583(18) 0.85161(17)
H22 H 0.3539 0.4589 0.8803
H23 H 0.2997 0.5971 0.8274
H24 H 0.3933 0.5745 0.9146
C23 C 0.6544(2) 0.47972(15) 0.78260(18)
H25 H 0.6288 0.3928 0.8148
H26 H 0.6700 0.5118 0.8427
H27 H 0.7463 0.4851 0.7139
C24 C 0.5059(2) 0.50682(18) 0.65004(17)
H28 H 0.4868 0.4184 0.6798
H29 H 0.5968 0.5174 0.5805
H30 H 0.4209 0.5527 0.6287
loop_
_geom_bond_atom_site_label_1
_geom_bond_atom_site_label_2
_geom_bond_site_symmetry_1
_geom_bond_site_symmetry_2
N1 C1 1_555 1_555
C1 H1 1_555 1_555
C2 C1 1_555 1_555
C3 C2 1_555 1_555
O1 C3 1_555 1_555
C4 C3 1_555 1_555
H2 C4 1_555 1_555
H3 C4 1_555 1_555
O2 N1 1_555 1_555
C5 N1 1_555 1_555
C6 C5 1_555 1_555
H4 C6 1_555 1_555
C7 C6 1_555 1_555
H5 C7 1_555 1_555
C8 C7 1_555 1_555
H6 C8 1_555 1_555
C9 C8 1_555 1_555
H7 C9 1_555 1_555
C10 C5 1_555 1_555
H8 C10 1_555 1_555
C11 C1 1_555 1_555
C12 C11 1_555 1_555
H9 C12 1_555 1_555
C13 C12 1_555 1_555
H10 C13 1_555 1_555
C14 C13 1_555 1_555
Br1 C14 1_555 1_555
C15 C14 1_555 1_555
H11 C15 1_555 1_555
C16 C11 1_555 1_555
H12 C16 1_555 1_555
C17 C2 1_555 1_555
O3 C17 1_555 1_555
O4 C17 1_555 1_555
C18 O4 1_555 1_555
H13 C18 1_555 1_555
H14 C18 1_555 1_555
H15 C18 1_555 1_555
Si1 O1 1_555 1_555
C19 Si1 1_555 1_555
H16 C19 1_555 1_555
H17 C19 1_555 1_555
H18 C19 1_555 1_555
C20 Si1 1_555 1_555
H19 C20 1_555 1_555
H20 C20 1_555 1_555
H21 C20 1_555 1_555
C21 Si1 1_555 1_555
C22 C21 1_555 1_555
H22 C22 1_555 1_555
H23 C22 1_555 1_555
H24 C22 1_555 1_555
C23 C21 1_555 1_555
H25 C23 1_555 1_555
H26 C23 1_555 1_555
H27 C23 1_555 1_555
C24 C21 1_555 1_555
H28 C24 1_555 1_555
H29 C24 1_555 1_555
H30 C24 1_555 1_555
C4 O2 1_555 1_555
C9 C10 1_555 1_555
C15 C16 1_555 1_555

#END
