
#######################################################################
#
#                 Cambridge Crystallographic Data Centre
#                                CCDC 
#
#######################################################################
#
# If this CIF has been generated from an entry in the Cambridge 
# Structural Database, then it will include bibliographic, chemical, 
# crystal, experimental, refinement or atomic coordinate data resulting 
# from the CCDC's data processing and validation procedures.
#
#######################################################################

data_QAVWER
_chemical_name_common            '(1S,4S)-Sertraline (R)-mandelic acid'
_chemical_formula_moiety         'C17 H18 Cl2 N1 1+,C8 H7 O3 1-'
_chemical_name_systematic        
'(1S,4S)-4-(3,4-Dichlorophenyl)-1-methylammonio-1,2,3,4-tetrahydronaphthalene (R)-hydroxy(phenyl)acetate'
_chemical_properties_biological  
'Sertraline is a selective serotonin reuptake inhibitor used as an antidepressant'
_symmetry_cell_setting           monoclinic
_symmetry_space_group_name_H-M   'P 21'
_symmetry_Int_Tables_number      4
_space_group_name_Hall           'P 2yb'
loop_
_symmetry_equiv_pos_site_id
_symmetry_equiv_pos_as_xyz
1 x,y,z
2 -x,1/2+y,-z
_cell_length_a                   7.8029(3)
_cell_length_b                   9.0423(4)
_cell_length_c                   16.3615(8)
_cell_angle_alpha                90
_cell_angle_beta                 95.594(3)
_cell_angle_gamma                90
_cell_volume                     1148.91
_cell_formula_units_Z            2
_exptl_crystal_recrystallization_method ethanol
loop_
_atom_site_label
_atom_site_type_symbol
_atom_site_fract_x
_atom_site_fract_y
_atom_site_fract_z
Cl1 Cl -0.2002(2) 0.00442(16) 0.41612(11)
C1 C -0.0089(6) 0.0454(5) 0.3755(2)
C2 C 0.1125(6) -0.0603(4) 0.3647(2)
Cl2 Cl 0.0849(2) -0.24111(13) 0.39434(10)
C3 C 0.2624(5) -0.0219(5) 0.3318(2)
H1 H 0.3453 -0.0933 0.3245
C4 C 0.2884(5) 0.1229(4) 0.3097(2)
H2 H 0.3905 0.1480 0.2881
C5 C 0.1668(4) 0.2327(4) 0.3187(2)
C6 C 0.0172(5) 0.1936(5) 0.3522(2)
H3 H -0.0661 0.2647 0.3593
C7 C 0.1967(4) 0.3891(4) 0.2909(2)
H4 H 0.1054 0.4495 0.3111
C8 C 0.1745(5) 0.4016(4) 0.1971(2)
H5 H 0.2474 0.3294 0.1737
H6 H 0.0559 0.3802 0.1772
C9 C 0.2213(5) 0.5552(4) 0.1699(2)
H7 H 0.1491 0.6273 0.1940
H8 H 0.1993 0.5623 0.1107
C10 C 0.4092(4) 0.5907(4) 0.1952(2)
H9 H 0.4253 0.6972 0.1880
N1 N 0.5181(3) 0.5109(3) 0.13751(16)
H10 H 0.4990 0.4132 0.1418
H11 H 0.4815 0.5377 0.0858
C11 C 0.7055(5) 0.5367(5) 0.1506(2)
H12 H 0.7620 0.4811 0.1110
H13 H 0.7477 0.5056 0.2049
H14 H 0.7288 0.6401 0.1443
C12 C 0.4605(5) 0.5539(4) 0.2848(2)
C13 C 0.6013(6) 0.6268(5) 0.3263(2)
H15 H 0.6603 0.6976 0.2988
C14 C 0.6535(7) 0.5954(6) 0.4066(3)
H16 H 0.7484 0.6437 0.4332
C15 C 0.5653(7) 0.4919(6) 0.4482(3)
H17 H 0.6020 0.4685 0.5024
C16 C 0.4224(6) 0.4234(5) 0.4089(2)
H18 H 0.3628 0.3547 0.4376
C17 C 0.3654(5) 0.4540(4) 0.32813(19)
O1 O 0.4508(3) 0.6499(3) -0.01205(14)
O2 O 0.4508(3) 0.7047(3) -0.14469(15)
C18 C 0.4288(4) 0.6205(3) -0.0857(2)
C19 C 0.3696(4) 0.4617(4) -0.1107(2)
H19 H 0.4461 0.3911 -0.0799
O3 O 0.3834(3) 0.4407(3) -0.19566(15)
H20 H 0.3526 0.3566 -0.2088
C20 C 0.1860(4) 0.4340(3) -0.08985(18)
C21 C 0.1553(4) 0.3428(4) -0.0261(2)
H21 H 0.2473 0.2982 0.0049
C22 C -0.0129(5) 0.3158(4) -0.0073(2)
H22 H -0.0329 0.2523 0.0355
C23 C -0.1483(4) 0.3837(4) -0.0523(2)
H23 H -0.2602 0.3670 -0.0394
C24 C -0.1200(4) 0.4755(4) -0.1156(2)
H24 H -0.2123 0.5216 -0.1457
C25 C 0.0473(4) 0.5000(4) -0.1353(2)
H25 H 0.0661 0.5611 -0.1792
loop_
_geom_bond_atom_site_label_1
_geom_bond_atom_site_label_2
_geom_bond_site_symmetry_1
_geom_bond_site_symmetry_2
Cl1 C1 1_555 1_555
C1 C2 1_555 1_555
C2 Cl2 1_555 1_555
C3 C2 1_555 1_555
H1 C3 1_555 1_555
C4 C3 1_555 1_555
H2 C4 1_555 1_555
C5 C4 1_555 1_555
C6 C1 1_555 1_555
H3 C6 1_555 1_555
C7 C5 1_555 1_555
H4 C7 1_555 1_555
C8 C7 1_555 1_555
H5 C8 1_555 1_555
H6 C8 1_555 1_555
C9 C8 1_555 1_555
H7 C9 1_555 1_555
H8 C9 1_555 1_555
C10 C9 1_555 1_555
H9 C10 1_555 1_555
N1 C10 1_555 1_555
H10 N1 1_555 1_555
H11 N1 1_555 1_555
C11 N1 1_555 1_555
H12 C11 1_555 1_555
H13 C11 1_555 1_555
H14 C11 1_555 1_555
C12 C10 1_555 1_555
C13 C12 1_555 1_555
H15 C13 1_555 1_555
C14 C13 1_555 1_555
H16 C14 1_555 1_555
C15 C14 1_555 1_555
H17 C15 1_555 1_555
C16 C15 1_555 1_555
H18 C16 1_555 1_555
C17 C7 1_555 1_555
O1 C18 1_555 1_555
O2 C18 1_555 1_555
C18 C19 1_555 1_555
C19 H19 1_555 1_555
O3 C19 1_555 1_555
H20 O3 1_555 1_555
C20 C19 1_555 1_555
C21 C20 1_555 1_555
H21 C21 1_555 1_555
C22 C21 1_555 1_555
H22 C22 1_555 1_555
C23 C22 1_555 1_555
H23 C23 1_555 1_555
C24 C23 1_555 1_555
H24 C24 1_555 1_555
C25 C20 1_555 1_555
H25 C25 1_555 1_555
C5 C6 1_555 1_555
C12 C17 1_555 1_555
C16 C17 1_555 1_555
C24 C25 1_555 1_555

#END
