
#######################################################################
#
#                 Cambridge Crystallographic Data Centre
#                                CCDC 
#
#######################################################################
#
# If this CIF has been generated from an entry in the Cambridge 
# Structural Database, then it will include bibliographic, chemical, 
# crystal, experimental, refinement or atomic coordinate data resulting 
# from the CCDC's data processing and validation procedures.
#
#######################################################################

data_QAVXOD
_chemical_formula_moiety         'C23 H18 O2 S1'
_chemical_name_systematic        
'ethyl 3-(biphenyl-4-yl)-1-benzothiophene-2-carboxylate'
_symmetry_cell_setting           monoclinic
_symmetry_space_group_name_H-M   'P 21/n'
_symmetry_Int_Tables_number      14
_space_group_name_Hall           '-P 2yn'
loop_
_symmetry_equiv_pos_site_id
_symmetry_equiv_pos_as_xyz
1 x,y,z
2 1/2-x,1/2+y,1/2-z
3 -x,-y,-z
4 1/2+x,1/2-y,1/2+z
_cell_length_a                   13.149(3)
_cell_length_b                   6.3527(13)
_cell_length_c                   21.671(5)
_cell_angle_alpha                90
_cell_angle_beta                 102.274(4)
_cell_angle_gamma                90
_cell_volume                     1768.84
_exptl_crystal_colour            colorless
_exptl_crystal_description       prism
_cell_formula_units_Z            4
loop_
_atom_site_label
_atom_site_type_symbol
_atom_site_fract_x
_atom_site_fract_y
_atom_site_fract_z
C1 C 0.24389(10) 0.4599(2) 0.08501(6)
C2 C 0.31876(10) 0.5980(2) 0.07504(6)
C3 C 0.27343(11) 0.7679(2) 0.03363(6)
C4 C 0.32389(12) 0.9362(2) 0.01009(7)
H1 H 0.3974 0.9503 0.0220
C5 C 0.26602(13) 1.0797(3) -0.03026(7)
H2 H 0.3000 1.1936 -0.0459
C6 C 0.15712(13) 1.0602(2) -0.04876(7)
H3 H 0.1187 1.1612 -0.0766
C7 C 0.10548(12) 0.8961(2) -0.02694(7)
H4 H 0.0321 0.8824 -0.0396
C8 C 0.16448(11) 0.7506(2) 0.01439(6)
C9 C 0.25566(11) 0.2684(2) 0.12438(6)
C10 C 0.15915(13) -0.0009(2) 0.16345(7)
H5 H 0.2198 -0.0921 0.1623
H6 H 0.0951 -0.0832 0.1471
C11 C 0.16162(14) 0.0646(3) 0.23047(8)
H7 H 0.2298 0.1255 0.2489
H8 H 0.1495 -0.0586 0.2552
H9 H 0.1072 0.1696 0.2310
C12 C 0.43267(10) 0.5874(2) 0.10128(6)
C13 C 0.48322(11) 0.7532(3) 0.13746(7)
H10 H 0.4439 0.8695 0.1471
C14 C 0.59025(11) 0.7499(2) 0.15956(7)
H11 H 0.6231 0.8647 0.1841
C15 C 0.65083(10) 0.5819(2) 0.14665(6)
C16 C 0.59921(11) 0.4155(3) 0.11111(8)
H12 H 0.6382 0.2977 0.1022
C17 C 0.49222(12) 0.4185(2) 0.08858(7)
H13 H 0.4593 0.3036 0.0642
C18 C 0.76609(11) 0.5818(2) 0.16881(6)
C19 C 0.81646(12) 0.7178(3) 0.21608(8)
H14 H 0.7763 0.8121 0.2352
C20 C 0.92411(12) 0.7181(3) 0.23584(8)
H15 H 0.9567 0.8126 0.2680
C21 C 0.98383(11) 0.5817(3) 0.20890(7)
H16 H 1.0574 0.5810 0.2226
C22 C 0.93588(12) 0.4465(3) 0.16193(8)
H17 H 0.9767 0.3528 0.1431
C23 C 0.82806(12) 0.4466(3) 0.14195(8)
H18 H 0.7961 0.3528 0.1094
O1 O 0.33670(8) 0.19751(17) 0.15404(5)
O2 O 0.16157(8) 0.18227(17) 0.12340(5)
S1 S 0.11838(3) 0.53057(6) 0.04659(2)
loop_
_geom_bond_atom_site_label_1
_geom_bond_atom_site_label_2
_geom_bond_site_symmetry_1
_geom_bond_site_symmetry_2
C1 C2 1_555 1_555
C2 C3 1_555 1_555
C3 C4 1_555 1_555
C4 H1 1_555 1_555
C5 C4 1_555 1_555
H2 C5 1_555 1_555
C6 C5 1_555 1_555
H3 C6 1_555 1_555
C7 C6 1_555 1_555
H4 C7 1_555 1_555
C8 C3 1_555 1_555
C9 C1 1_555 1_555
C10 H5 1_555 1_555
H6 C10 1_555 1_555
C11 C10 1_555 1_555
H7 C11 1_555 1_555
H8 C11 1_555 1_555
H9 C11 1_555 1_555
C12 C2 1_555 1_555
C13 C12 1_555 1_555
H10 C13 1_555 1_555
C14 C13 1_555 1_555
H11 C14 1_555 1_555
C15 C14 1_555 1_555
C16 C15 1_555 1_555
H12 C16 1_555 1_555
C17 C12 1_555 1_555
H13 C17 1_555 1_555
C18 C15 1_555 1_555
C19 C18 1_555 1_555
H14 C19 1_555 1_555
C20 C19 1_555 1_555
H15 C20 1_555 1_555
C21 C20 1_555 1_555
H16 C21 1_555 1_555
C22 C21 1_555 1_555
H17 C22 1_555 1_555
C23 C18 1_555 1_555
H18 C23 1_555 1_555
O1 C9 1_555 1_555
O2 C9 1_555 1_555
S1 C1 1_555 1_555
C7 C8 1_555 1_555
C8 S1 1_555 1_555
C10 O2 1_555 1_555
C16 C17 1_555 1_555
C22 C23 1_555 1_555

#END
