
#######################################################################
#
#                 Cambridge Crystallographic Data Centre
#                                CCDC 
#
#######################################################################
#
# If this CIF has been generated from an entry in the Cambridge 
# Structural Database, then it will include bibliographic, chemical, 
# crystal, experimental, refinement or atomic coordinate data resulting 
# from the CCDC's data processing and validation procedures.
#
#######################################################################

data_QAVXIX
_chemical_formula_moiety         'C19 H15 F1 O2 S1'
_chemical_name_systematic        
'ethyl 5-(2-fluorophenyl)-3-phenylthiophene-2-carboxylate'
_symmetry_cell_setting           triclinic
_symmetry_space_group_name_H-M   'P -1'
_symmetry_Int_Tables_number      2
_space_group_name_Hall           '-P 1'
loop_
_symmetry_equiv_pos_site_id
_symmetry_equiv_pos_as_xyz
1 x,y,z
2 -x,-y,-z
_cell_length_a                   7.8441(3)
_cell_length_b                   9.3555(3)
_cell_length_c                   11.8989(4)
_cell_angle_alpha                102.3144(9)
_cell_angle_beta                 104.6894(8)
_cell_angle_gamma                103.6688(9)
_cell_volume                     785.308
_exptl_crystal_colour            colorless
_exptl_crystal_description       prism
_cell_formula_units_Z            2
loop_
_atom_site_label
_atom_site_type_symbol
_atom_site_fract_x
_atom_site_fract_y
_atom_site_fract_z
C1 C 1.02122(19) 0.23130(15) 0.55977(11)
C2 C 0.87610(18) 0.22556(15) 0.60569(11)
C3 C 0.73308(19) 0.26462(16) 0.53178(12)
H1 H 0.6218 0.2665 0.5493
C4 C 0.77015(19) 0.29995(15) 0.43157(11)
C5 C 1.19828(19) 0.20177(15) 0.60453(12)
C6 C 1.3812(2) 0.11860(19) 0.75280(14)
H2 H 1.4923 0.2099 0.7803
H3 H 1.3952 0.0380 0.6900
C7 C 1.3562(2) 0.0604(2) 0.85805(15)
H4 H 1.3410 0.1412 0.9187
H5 H 1.4654 0.0322 0.8948
H6 H 1.2460 -0.0300 0.8291
C8 C 0.86935(18) 0.19076(16) 0.72142(11)
C9 C 0.8155(2) 0.04124(18) 0.72735(14)
H7 H 0.7785 -0.0425 0.6560
C10 C 0.8155(3) 0.01335(19) 0.83763(15)
H8 H 0.7793 -0.0895 0.8413
C11 C 0.8675(2) 0.13366(19) 0.94146(13)
H9 H 0.8689 0.1141 1.0168
C12 C 0.9176(2) 0.28236(19) 0.93555(13)
H10 H 0.9514 0.3658 1.0067
C13 C 0.9188(2) 0.31105(17) 0.82550(12)
H11 H 0.9540 0.4140 0.8221
C14 C 0.64872(19) 0.34850(15) 0.34087(12)
C15 C 0.6886(2) 0.37655(17) 0.23849(13)
C16 C 0.5764(2) 0.4231(2) 0.15343(14)
H12 H 0.6101 0.4411 0.0853
C17 C 0.4143(2) 0.4429(2) 0.16920(15)
H13 H 0.3349 0.4746 0.1116
C18 C 0.3677(2) 0.41635(19) 0.26982(14)
H14 H 0.2562 0.4299 0.2810
C19 C 0.4834(2) 0.37014(17) 0.35369(13)
H15 H 0.4496 0.3526 0.4219
F1 F 0.84696(14) 0.35686(12) 0.22007(8)
O1 O 1.21472(14) 0.15848(12) 0.70510(9)
O2 O 1.31470(15) 0.21471(14) 0.55401(10)
S1 S 0.98278(5) 0.28421(4) 0.42799(3)
loop_
_geom_bond_atom_site_label_1
_geom_bond_atom_site_label_2
_geom_bond_site_symmetry_1
_geom_bond_site_symmetry_2
C1 C2 1_555 1_555
C2 C3 1_555 1_555
C3 H1 1_555 1_555
C4 C3 1_555 1_555
C5 C1 1_555 1_555
C6 H2 1_555 1_555
H3 C6 1_555 1_555
C7 C6 1_555 1_555
H4 C7 1_555 1_555
H5 C7 1_555 1_555
H6 C7 1_555 1_555
C8 C2 1_555 1_555
C9 C8 1_555 1_555
H7 C9 1_555 1_555
C10 C9 1_555 1_555
H8 C10 1_555 1_555
C11 C10 1_555 1_555
H9 C11 1_555 1_555
C12 C11 1_555 1_555
H10 C12 1_555 1_555
C13 C8 1_555 1_555
H11 C13 1_555 1_555
C14 C4 1_555 1_555
C15 C14 1_555 1_555
C16 C15 1_555 1_555
H12 C16 1_555 1_555
C17 C16 1_555 1_555
H13 C17 1_555 1_555
C18 C17 1_555 1_555
H14 C18 1_555 1_555
C19 C14 1_555 1_555
H15 C19 1_555 1_555
F1 C15 1_555 1_555
O1 C5 1_555 1_555
O2 C5 1_555 1_555
S1 C1 1_555 1_555
C4 S1 1_555 1_555
C6 O1 1_555 1_555
C12 C13 1_555 1_555
C18 C19 1_555 1_555

#END
