
#######################################################################
#
#                 Cambridge Crystallographic Data Centre
#                                CCDC 
#
#######################################################################
#
# If this CIF has been generated from an entry in the Cambridge 
# Structural Database, then it will include bibliographic, chemical, 
# crystal, experimental, refinement or atomic coordinate data resulting 
# from the CCDC's data processing and validation procedures.
#
#######################################################################

data_QAWKOQ
_chemical_formula_moiety         'C44 H46 Li1 N2 O2 P3'
_chemical_name_systematic        
(N,N'-bis(Diphenylphosphino)-P,P-diphenyliminophosphinamidato-N,N')-bis(tetrahydrofuran)-lithium
_symmetry_cell_setting           monoclinic
_symmetry_space_group_name_H-M   'P 21/c'
_symmetry_Int_Tables_number      14
_space_group_name_Hall           '-P 2ybc'
loop_
_symmetry_equiv_pos_site_id
_symmetry_equiv_pos_as_xyz
1 x,y,z
2 -x,1/2+y,1/2-z
3 -x,-y,-z
4 x,1/2-y,1/2+z
_cell_length_a                   10.0645(3)
_cell_length_b                   25.9844(9)
_cell_length_c                   15.3793(5)
_cell_angle_alpha                90
_cell_angle_beta                 101.985(1)
_cell_angle_gamma                90
_cell_volume                     3934.32
_exptl_crystal_colour            colorless
_exptl_crystal_description       prism
_cell_formula_units_Z            4
loop_
_atom_site_label
_atom_site_type_symbol
_atom_site_fract_x
_atom_site_fract_y
_atom_site_fract_z
Li1 Li 0.0073(3) 0.36356(12) 0.2887(2)
P1 P 0.08906(4) 0.267896(16) 0.14253(3)
P2 P 0.04662(4) 0.378590(15) 0.12774(3)
P3 P 0.03382(4) 0.483653(16) 0.18518(3)
N1 N 0.04851(14) 0.32510(5) 0.17964(9)
N2 N 0.00807(13) 0.42024(5) 0.19511(9)
O1 O -0.15236(15) 0.35032(6) 0.33927(11)
O2 O 0.14687(14) 0.36191(6) 0.39458(9)
C1 C -0.2103(3) 0.38923(10) 0.38756(17)
H1 H -0.1647 0.3893 0.4511
H2 H -0.2010 0.4238 0.3625
C2 C -0.3513(3) 0.37535(14) 0.3772(3)
H3 H -0.4069 0.3931 0.3251
H4 H -0.3857 0.3849 0.4308
C3 C -0.3569(3) 0.32006(12) 0.3642(3)
H5 H -0.4224 0.3111 0.3089
H6 H -0.3853 0.3028 0.4148
C4 C -0.2097(3) 0.30294(11) 0.3580(2)
H7 H -0.1601 0.2881 0.4148
H8 H -0.2113 0.2777 0.3096
C5 C 0.1343(3) 0.35488(14) 0.48427(15)
H9 H 0.1022 0.3196 0.4927
H10 H 0.0677 0.3796 0.4992
C6 C 0.2643(4) 0.3631(2) 0.54043(19)
H11 H 0.2653 0.3963 0.5722
H12 H 0.2849 0.3352 0.5850
C7 C 0.3606(3) 0.36367(18) 0.48746(19)
H13 H 0.4162 0.3320 0.4972
H14 H 0.4215 0.3937 0.5026
C8 C 0.2865(2) 0.36686(10) 0.39189(14)
H15 H 0.3042 0.4003 0.3655
H16 H 0.3154 0.3387 0.3565
C9 C -0.06371(18) 0.22949(7) 0.14423(12)
C10 C -0.1910(2) 0.25321(8) 0.13084(15)
H17 H -0.1978 0.2896 0.1255
C11 C -0.3085(2) 0.22348(10) 0.12521(18)
H18 H -0.3946 0.2398 0.1173
C12 C -0.2995(2) 0.17067(9) 0.13107(15)
H19 H -0.3796 0.1506 0.1266
C13 C -0.1747(2) 0.14685(8) 0.14346(13)
H20 H -0.1688 0.1104 0.1478
C14 C -0.0576(2) 0.17593(7) 0.14967(12)
H21 H 0.0280 0.1592 0.1577
C15 C 0.20577(18) 0.24092(6) 0.24116(13)
C16 C 0.1711(2) 0.23283(8) 0.32234(14)
H22 H 0.0811 0.2399 0.3289
C17 C 0.2665(2) 0.21437(9) 0.39502(16)
H23 H 0.2414 0.2091 0.4506
C18 C 0.3975(2) 0.20380(8) 0.38567(17)
H24 H 0.4624 0.1911 0.4348
C19 C 0.4337(2) 0.21160(8) 0.30588(17)
H25 H 0.5238 0.2042 0.2997
C20 C 0.33844(19) 0.23042(7) 0.23307(15)
H26 H 0.3645 0.2360 0.1779
C21 C -0.07402(16) 0.37923(6) 0.02135(11)
C22 C -0.17686(19) 0.41571(8) 0.00380(12)
H27 H -0.1849 0.4406 0.0477
C23 C -0.2684(2) 0.41606(9) -0.07774(13)
H28 H -0.3382 0.4413 -0.0895
C24 C -0.25769(19) 0.37988(8) -0.14120(13)
H29 H -0.3206 0.3800 -0.1966
C25 C -0.1566(2) 0.34376(8) -0.12467(13)
H30 H -0.1496 0.3188 -0.1687
C26 C -0.0643(2) 0.34338(7) -0.04391(13)
H31 H 0.0061 0.3184 -0.0332
C27 C 0.20766(16) 0.39199(6) 0.09623(11)
C28 C 0.21656(19) 0.42735(7) 0.02923(12)
H32 H 0.1365 0.4434 -0.0030
C29 C 0.3403(2) 0.43919(9) 0.00938(13)
H33 H 0.3450 0.4634 -0.0362
C30 C 0.4576(2) 0.41608(9) 0.05547(14)
H34 H 0.5429 0.4244 0.0418
C31 C 0.4504(2) 0.38095(9) 0.12139(15)
H35 H 0.5309 0.3648 0.1528
C32 C 0.32602(18) 0.36881(7) 0.14243(13)
H36 H 0.3220 0.3447 0.1883
C33 C -0.12393(17) 0.51165(6) 0.20658(11)
C34 C -0.23861(18) 0.48257(7) 0.21109(12)
H37 H -0.2361 0.4462 0.2048
C35 C -0.35687(19) 0.50617(8) 0.22477(14)
H38 H -0.4344 0.4860 0.2278
C36 C -0.3612(2) 0.55900(8) 0.23391(14)
H39 H -0.4415 0.5751 0.2438
C37 C -0.2490(2) 0.58828(7) 0.22860(13)
H40 H -0.2521 0.6246 0.2349
C38 C -0.13121(19) 0.56499(7) 0.21410(12)
H41 H -0.0551 0.5856 0.2093
C39 C 0.14421(17) 0.49896(6) 0.29386(12)
C40 C 0.1007(2) 0.49786(8) 0.37384(13)
H42 H 0.0084 0.4902 0.3737
C41 C 0.1899(2) 0.50777(8) 0.45404(14)
H43 H 0.1590 0.5067 0.5083
C42 C 0.3246(2) 0.51919(8) 0.45389(15)
H44 H 0.3860 0.5261 0.5084
C43 C 0.3693(2) 0.52050(8) 0.37603(15)
H45 H 0.4616 0.5285 0.3766
C44 C 0.28010(18) 0.51019(7) 0.29573(14)
H46 H 0.3122 0.5108 0.2419
loop_
_geom_bond_atom_site_label_1
_geom_bond_atom_site_label_2
_geom_bond_site_symmetry_1
_geom_bond_site_symmetry_2
Li1 N1 1_555 1_555
P1 N1 1_555 1_555
P2 N1 1_555 1_555
P3 N2 1_555 1_555
N2 Li1 1_555 1_555
O1 Li1 1_555 1_555
O2 Li1 1_555 1_555
C1 O1 1_555 1_555
H1 C1 1_555 1_555
H2 C1 1_555 1_555
C2 C1 1_555 1_555
H3 C2 1_555 1_555
H4 C2 1_555 1_555
C3 C2 1_555 1_555
H5 C3 1_555 1_555
H6 C3 1_555 1_555
C4 O1 1_555 1_555
H7 C4 1_555 1_555
H8 C4 1_555 1_555
C5 O2 1_555 1_555
H9 C5 1_555 1_555
H10 C5 1_555 1_555
C6 C5 1_555 1_555
H11 C6 1_555 1_555
H12 C6 1_555 1_555
C7 C6 1_555 1_555
H13 C7 1_555 1_555
H14 C7 1_555 1_555
C8 O2 1_555 1_555
H15 C8 1_555 1_555
H16 C8 1_555 1_555
C9 P1 1_555 1_555
C10 C9 1_555 1_555
H17 C10 1_555 1_555
C11 C10 1_555 1_555
H18 C11 1_555 1_555
C12 C11 1_555 1_555
H19 C12 1_555 1_555
C13 C12 1_555 1_555
H20 C13 1_555 1_555
C14 C9 1_555 1_555
H21 C14 1_555 1_555
C15 P1 1_555 1_555
C16 C15 1_555 1_555
H22 C16 1_555 1_555
C17 C16 1_555 1_555
H23 C17 1_555 1_555
C18 C17 1_555 1_555
H24 C18 1_555 1_555
C19 C18 1_555 1_555
H25 C19 1_555 1_555
C20 C15 1_555 1_555
H26 C20 1_555 1_555
C21 P2 1_555 1_555
C22 C21 1_555 1_555
H27 C22 1_555 1_555
C23 C22 1_555 1_555
H28 C23 1_555 1_555
C24 C23 1_555 1_555
H29 C24 1_555 1_555
C25 C24 1_555 1_555
H30 C25 1_555 1_555
C26 C21 1_555 1_555
H31 C26 1_555 1_555
C27 P2 1_555 1_555
C28 C27 1_555 1_555
H32 C28 1_555 1_555
C29 C28 1_555 1_555
H33 C29 1_555 1_555
C30 C29 1_555 1_555
H34 C30 1_555 1_555
C31 C30 1_555 1_555
H35 C31 1_555 1_555
C32 C27 1_555 1_555
H36 C32 1_555 1_555
C33 P3 1_555 1_555
C34 C33 1_555 1_555
H37 C34 1_555 1_555
C35 C34 1_555 1_555
H38 C35 1_555 1_555
C36 C35 1_555 1_555
H39 C36 1_555 1_555
C37 C36 1_555 1_555
H40 C37 1_555 1_555
C38 C33 1_555 1_555
H41 C38 1_555 1_555
C39 P3 1_555 1_555
C40 C39 1_555 1_555
H42 C40 1_555 1_555
C41 C40 1_555 1_555
H43 C41 1_555 1_555
C42 C41 1_555 1_555
H44 C42 1_555 1_555
C43 C42 1_555 1_555
H45 C43 1_555 1_555
C44 C39 1_555 1_555
H46 C44 1_555 1_555
P2 N2 1_555 1_555
C3 C4 1_555 1_555
C7 C8 1_555 1_555
C13 C14 1_555 1_555
C19 C20 1_555 1_555
C25 C26 1_555 1_555
C31 C32 1_555 1_555
C37 C38 1_555 1_555
C43 C44 1_555 1_555

#END
