
#######################################################################
#
#                 Cambridge Crystallographic Data Centre
#                                CCDC 
#
#######################################################################
#
# If this CIF has been generated from an entry in the Cambridge 
# Structural Database, then it will include bibliographic, chemical, 
# crystal, experimental, refinement or atomic coordinate data resulting 
# from the CCDC's data processing and validation procedures.
#
#######################################################################

data_QAWLUW
_chemical_formula_moiety         'C84 H80 N6'
_chemical_name_systematic        
meso-5,10,15,20,25,30-hexakis(2,4,6-trimethylphenyl)[26]hexaphyrin(1.1.1.1.1.1)
_symmetry_cell_setting           monoclinic
_symmetry_space_group_name_H-M   'P 21/c'
_symmetry_Int_Tables_number      14
_space_group_name_Hall           '-P 2ybc'
loop_
_symmetry_equiv_pos_site_id
_symmetry_equiv_pos_as_xyz
1 x,y,z
2 -x,1/2+y,1/2-z
3 -x,-y,-z
4 x,1/2-y,1/2+z
_cell_length_a                   14.55(2)
_cell_length_b                   11.59(2)
_cell_length_c                   20.13(2)
_cell_angle_alpha                90
_cell_angle_beta                 90.92(5)
_cell_angle_gamma                90
_cell_volume                     3394.17
_exptl_crystal_colour            green
_exptl_crystal_description       prism
_cell_formula_units_Z            2
loop_
_atom_site_label
_atom_site_type_symbol
_atom_site_fract_x
_atom_site_fract_y
_atom_site_fract_z
N1 N 0.5471(1) -0.1593(2) 0.67741(9)
N2 N 0.7386(1) -0.1269(2) 0.50899(8)
N3 N 0.6345(1) 0.0426(2) 0.32728(8)
C1 C 0.5175(1) -0.1809(2) 0.7404(1)
C2 C 0.5877(2) -0.2454(2) 0.7739(1)
C3 C 0.6577(2) -0.2600(2) 0.7310(1)
C4 C 0.6347(2) -0.2034(2) 0.6697(1)
C5 C 0.6937(1) -0.1941(2) 0.6161(1)
C6 C 0.6712(1) -0.1474(2) 0.5535(1)
C7 C 0.5819(1) -0.1208(2) 0.5238(1)
C8 C 0.5980(1) -0.0838(2) 0.4610(1)
C9 C 0.6970(1) -0.0871(2) 0.4530(1)
C10 C 0.7503(1) -0.0634(2) 0.3967(1)
C11 C 0.7190(1) -0.0063(2) 0.33871(9)
C12 C 0.7764(1) 0.0073(2) 0.2809(1)
C13 C 0.7256(1) 0.0641(2) 0.2348(1)
C14 C 0.6373(1) 0.0862(2) 0.2645(1)
C15 C 0.4349(1) -0.1468(2) 0.7681(1)
C16 C 0.7901(2) -0.2389(3) 0.6278(1)
C17 C 0.8512(2) -0.1777(3) 0.6692(2)
C18 C 0.9381(2) -0.2247(4) 0.6826(2)
C19 C 0.9650(3) -0.3286(5) 0.6556(3)
C20 C 0.9045(3) -0.3847(4) 0.6152(2)
C21 C 0.8168(2) -0.3436(3) 0.6000(2)
C22 C 0.8486(1) -0.1011(2) 0.3996(1)
C23 C 0.9183(2) -0.0210(2) 0.4121(1)
C24 C 1.0091(2) -0.0576(3) 0.4130(1)
C25 C 1.0322(2) -0.1721(3) 0.4019(1)
C26 C 0.9624(2) -0.2502(3) 0.3905(1)
C27 C 0.8704(2) -0.2180(2) 0.3899(1)
C28 C 0.4202(1) -0.1780(2) 0.8398(1)
C29 C 0.3865(1) -0.2865(2) 0.8567(1)
C30 C 0.3670(1) -0.3089(2) 0.9232(1)
C31 C 0.3785(2) -0.2266(2) 0.9721(1)
C32 C 0.4162(2) -0.1202(3) 0.9544(1)
C33 C 0.4374(2) -0.0942(2) 0.8890(1)
C34 C 0.8270(2) -0.0631(4) 0.6969(2)
C35 C 1.0603(3) -0.3762(6) 0.6709(4)
C36 C 0.7537(3) -0.4120(3) 0.5559(2)
C37 C 0.8962(2) 0.1038(2) 0.4246(1)
C38 C 1.1321(2) -0.2104(4) 0.4025(2)
C39 C 0.7981(2) -0.3083(2) 0.3781(1)
C40 C 0.3721(2) -0.3777(3) 0.8049(1)
C41 C 0.3490(2) -0.2485(3) 1.0425(1)
C42 C 0.4797(2) 0.0205(3) 0.8716(1)
H1 H 0.5858 -0.2726 0.8173
H2 H 0.7118 -0.3003 0.7399
H3 H 0.5251 -0.1278 0.5438
H4 H 0.5543 -0.0609 0.4294
H5 H 0.8366 -0.0182 0.2766
H6 H 0.7436 0.0849 0.1923
H7 H 0.9787 -0.1849 0.7104
H8 H 0.9226 -0.4544 0.5965
H9 H 1.0556 -0.0042 0.4214
H10 H 0.9773 -0.3271 0.3830
H11 H 0.3455 -0.3816 0.9349
H12 H 0.4274 -0.0654 0.9872
H13 H 0.8773 -0.0348 0.7238
H14 H 0.7733 -0.0703 0.7238
H15 H 0.8147 -0.0101 0.6612
H16 H 1.0926 -0.3241 0.7001
H17 H 1.0935 -0.3842 0.6304
H18 H 1.0549 -0.4502 0.6919
H19 H 0.6966 -0.3715 0.5503
H20 H 0.7426 -0.4860 0.5757
H21 H 0.7815 -0.4225 0.5134
H22 H 0.8308 0.1147 0.4222
H23 H 0.9250 0.1508 0.3917
H24 H 0.9186 0.1254 0.4679
H25 H 1.1352 -0.2918 0.3941
H26 H 1.1595 -0.1938 0.4451
H27 H 1.1646 -0.1697 0.3686
H28 H 0.7384 -0.2732 0.3792
H29 H 0.8028 -0.3662 0.4122
H30 H 0.8070 -0.3435 0.3355
H31 H 0.3891 -0.3479 0.7623
H32 H 0.4095 -0.4436 0.8156
H33 H 0.3086 -0.4001 0.8036
H34 H 0.3621 -0.1817 1.0692
H35 H 0.2842 -0.2639 1.0428
H36 H 0.3818 -0.3138 1.0602
H37 H 0.4898 0.0237 0.8246
H38 H 0.4389 0.0816 0.8841
H39 H 0.5372 0.0291 0.8950
H40 H 0.5160 -0.1237 0.6471
N1B N 0.4529(1) 0.1593(2) 0.32259(9)
N2B N 0.2614(1) 0.1269(2) 0.49101(8)
N3B N 0.3655(1) -0.0426(2) 0.67272(8)
C1B C 0.4825(1) 0.1809(2) 0.2596(1)
C2B C 0.4123(2) 0.2454(2) 0.2261(1)
C3B C 0.3423(2) 0.2600(2) 0.2690(1)
C4B C 0.3653(2) 0.2034(2) 0.3303(1)
C5B C 0.3063(1) 0.1941(2) 0.3839(1)
C6B C 0.3288(1) 0.1474(2) 0.4465(1)
C7B C 0.4181(1) 0.1208(2) 0.4762(1)
C8B C 0.4020(1) 0.0838(2) 0.5390(1)
C9B C 0.3030(1) 0.0871(2) 0.5470(1)
C10B C 0.2497(1) 0.0634(2) 0.6033(1)
C11B C 0.2810(1) 0.0063(2) 0.66129(9)
C12B C 0.2236(1) -0.0073(2) 0.7191(1)
C13B C 0.2744(1) -0.0641(2) 0.7652(1)
C14B C 0.3627(1) -0.0862(2) 0.7355(1)
C15B C 0.5651(1) 0.1468(2) 0.2319(1)
C16B C 0.2099(2) 0.2389(3) 0.3722(1)
C17B C 0.1488(2) 0.1777(3) 0.3308(2)
C18B C 0.0619(2) 0.2247(4) 0.3174(2)
C19B C 0.0350(3) 0.3286(5) 0.3444(3)
C20B C 0.0955(3) 0.3847(4) 0.3848(2)
C21B C 0.1832(2) 0.3436(3) 0.4000(2)
C22B C 0.1514(1) 0.1011(2) 0.6004(1)
C23B C 0.0817(2) 0.0210(2) 0.5879(1)
C24B C -0.0091(2) 0.0576(3) 0.5870(1)
C25B C -0.0322(2) 0.1721(3) 0.5981(1)
C26B C 0.0376(2) 0.2502(3) 0.6095(1)
C27B C 0.1296(2) 0.2180(2) 0.6101(1)
C28B C 0.5798(1) 0.1780(2) 0.1602(1)
C29B C 0.6135(1) 0.2865(2) 0.1433(1)
C30B C 0.6330(1) 0.3089(2) 0.0768(1)
C31B C 0.6215(2) 0.2266(2) 0.0279(1)
C32B C 0.5838(2) 0.1202(3) 0.0456(1)
C33B C 0.5626(2) 0.0942(2) 0.1110(1)
C34B C 0.1730(2) 0.0631(4) 0.3031(2)
C35B C -0.0603(3) 0.3762(6) 0.3291(4)
C36B C 0.2463(3) 0.4120(3) 0.4441(2)
C37B C 0.1038(2) -0.1038(2) 0.5754(1)
C38B C -0.1321(2) 0.2104(4) 0.5975(2)
C39B C 0.2019(2) 0.3083(2) 0.6219(1)
C40B C 0.6279(2) 0.3777(3) 0.1951(1)
C41B C 0.6510(2) 0.2485(3) -0.0425(1)
C42B C 0.5203(2) -0.0205(3) 0.1284(1)
H1B H 0.4142 0.2726 0.1827
H2B H 0.2882 0.3003 0.2601
H3B H 0.4749 0.1278 0.4562
H4B H 0.4457 0.0609 0.5706
H5B H 0.1634 0.0182 0.7234
H6B H 0.2564 -0.0849 0.8077
H7B H 0.0213 0.1849 0.2896
H8B H 0.0774 0.4544 0.4035
H9B H -0.0556 0.0042 0.5786
H10B H 0.0227 0.3271 0.6170
H11B H 0.6545 0.3816 0.0651
H12B H 0.5726 0.0654 0.0128
H13B H 0.1227 0.0348 0.2762
H14B H 0.2267 0.0703 0.2762
H15B H 0.1853 0.0101 0.3388
H16B H -0.0926 0.3241 0.2999
H17B H -0.0935 0.3842 0.3696
H18B H -0.0549 0.4502 0.3081
H19B H 0.3034 0.3715 0.4497
H20B H 0.2574 0.4860 0.4243
H21B H 0.2185 0.4225 0.4866
H22B H 0.1692 -0.1147 0.5778
H23B H 0.0750 -0.1508 0.6083
H24B H 0.0814 -0.1254 0.5321
H25B H -0.1352 0.2918 0.6059
H26B H -0.1595 0.1938 0.5549
H27B H -0.1646 0.1697 0.6314
H28B H 0.2616 0.2732 0.6208
H29B H 0.1972 0.3662 0.5878
H30B H 0.1930 0.3435 0.6645
H31B H 0.6109 0.3479 0.2377
H32B H 0.5905 0.4436 0.1844
H33B H 0.6914 0.4001 0.1964
H34B H 0.6379 0.1817 -0.0692
H35B H 0.7158 0.2639 -0.0428
H36B H 0.6182 0.3138 -0.0602
H37B H 0.5102 -0.0237 0.1754
H38B H 0.5611 -0.0816 0.1159
H39B H 0.4628 -0.0291 0.1050
H40B H 0.4840 0.1237 0.3529
loop_
_geom_bond_atom_site_label_1
_geom_bond_atom_site_label_2
_geom_bond_site_symmetry_1
_geom_bond_site_symmetry_2
N1 C1 1_555 1_555
N2 C6 1_555 1_555
N3 C11 1_555 1_555
C1 C2 1_555 1_555
C2 C3 1_555 1_555
C3 C4 1_555 1_555
C4 N1 1_555 1_555
C5 C4 1_555 1_555
C6 C5 1_555 1_555
C7 C6 1_555 1_555
C8 C7 1_555 1_555
C9 N2 1_555 1_555
C10 C9 1_555 1_555
C11 C10 1_555 1_555
C12 C11 1_555 1_555
C13 C12 1_555 1_555
C14 N3 1_555 1_555
C15 C1 1_555 1_555
C16 C5 1_555 1_555
C17 C16 1_555 1_555
C18 C17 1_555 1_555
C19 C18 1_555 1_555
C20 C19 1_555 1_555
C21 C16 1_555 1_555
C22 C10 1_555 1_555
C23 C22 1_555 1_555
C24 C23 1_555 1_555
C25 C24 1_555 1_555
C26 C25 1_555 1_555
C27 C22 1_555 1_555
C28 C15 1_555 1_555
C29 C28 1_555 1_555
C30 C29 1_555 1_555
C31 C30 1_555 1_555
C32 C31 1_555 1_555
C33 C28 1_555 1_555
C34 C17 1_555 1_555
C35 C19 1_555 1_555
C36 C21 1_555 1_555
C37 C23 1_555 1_555
C38 C25 1_555 1_555
C39 C27 1_555 1_555
C40 C29 1_555 1_555
C41 C31 1_555 1_555
C42 C33 1_555 1_555
H1 C2 1_555 1_555
H2 C3 1_555 1_555
H3 C7 1_555 1_555
H4 C8 1_555 1_555
H5 C12 1_555 1_555
H6 C13 1_555 1_555
H7 C18 1_555 1_555
H8 C20 1_555 1_555
H9 C24 1_555 1_555
H10 C26 1_555 1_555
H11 C30 1_555 1_555
H12 C32 1_555 1_555
H13 C34 1_555 1_555
H14 C34 1_555 1_555
H15 C34 1_555 1_555
H16 C35 1_555 1_555
H17 C35 1_555 1_555
H18 C35 1_555 1_555
H19 C36 1_555 1_555
H20 C36 1_555 1_555
H21 C36 1_555 1_555
H22 C37 1_555 1_555
H23 C37 1_555 1_555
H24 C37 1_555 1_555
H25 C38 1_555 1_555
H26 C38 1_555 1_555
H27 C38 1_555 1_555
H28 C39 1_555 1_555
H29 C39 1_555 1_555
H30 C39 1_555 1_555
H31 C40 1_555 1_555
H32 C40 1_555 1_555
H33 C40 1_555 1_555
H34 C41 1_555 1_555
H35 C41 1_555 1_555
H36 C41 1_555 1_555
H37 C42 1_555 1_555
H38 C42 1_555 1_555
H39 C42 1_555 1_555
H40 N1 1_555 1_555
N1B C1B 1_555 1_555
N2B C6B 1_555 1_555
N3B C11B 1_555 1_555
C1B C2B 1_555 1_555
C2B C3B 1_555 1_555
C3B C4B 1_555 1_555
C4B N1B 1_555 1_555
C5B C4B 1_555 1_555
C6B C5B 1_555 1_555
C7B C6B 1_555 1_555
C8B C7B 1_555 1_555
C9B N2B 1_555 1_555
C10B C9B 1_555 1_555
C11B C10B 1_555 1_555
C12B C11B 1_555 1_555
C13B C12B 1_555 1_555
C14B C15 1_555 1_555
C15B C14 1_555 1_555
C16B C5B 1_555 1_555
C17B C16B 1_555 1_555
C18B C17B 1_555 1_555
C19B C18B 1_555 1_555
C20B C19B 1_555 1_555
C21B C16B 1_555 1_555
C22B C10B 1_555 1_555
C23B C22B 1_555 1_555
C24B C23B 1_555 1_555
C25B C24B 1_555 1_555
C26B C25B 1_555 1_555
C27B C22B 1_555 1_555
C28B C15B 1_555 1_555
C29B C28B 1_555 1_555
C30B C29B 1_555 1_555
C31B C30B 1_555 1_555
C32B C31B 1_555 1_555
C33B C28B 1_555 1_555
C34B C17B 1_555 1_555
C35B C19B 1_555 1_555
C36B C21B 1_555 1_555
C37B C23B 1_555 1_555
C38B C25B 1_555 1_555
C39B C27B 1_555 1_555
C40B C29B 1_555 1_555
C41B C31B 1_555 1_555
C42B C33B 1_555 1_555
H1B C2B 1_555 1_555
H2B C3B 1_555 1_555
H3B C7B 1_555 1_555
H4B C8B 1_555 1_555
H5B C12B 1_555 1_555
H6B C13B 1_555 1_555
H7B C18B 1_555 1_555
H8B C20B 1_555 1_555
H9B C24B 1_555 1_555
H10B C26B 1_555 1_555
H11B C30B 1_555 1_555
H12B C32B 1_555 1_555
H13B C34B 1_555 1_555
H14B C34B 1_555 1_555
H15B C34B 1_555 1_555
H16B C35B 1_555 1_555
H17B C35B 1_555 1_555
H18B C35B 1_555 1_555
H19B C36B 1_555 1_555
H20B C36B 1_555 1_555
H21B C36B 1_555 1_555
H22B C37B 1_555 1_555
H23B C37B 1_555 1_555
H24B C37B 1_555 1_555
H25B C38B 1_555 1_555
H26B C38B 1_555 1_555
H27B C38B 1_555 1_555
H28B C39B 1_555 1_555
H29B C39B 1_555 1_555
H30B C39B 1_555 1_555
H31B C40B 1_555 1_555
H32B C40B 1_555 1_555
H33B C40B 1_555 1_555
H34B C41B 1_555 1_555
H35B C41B 1_555 1_555
H36B C41B 1_555 1_555
H37B C42B 1_555 1_555
H38B C42B 1_555 1_555
H39B C42B 1_555 1_555
H40B N1B 1_555 1_555
C8 C9 1_555 1_555
C13 C14 1_555 1_555
C20 C21 1_555 1_555
C26 C27 1_555 1_555
C32 C33 1_555 1_555
N3B C14B 1_555 1_555
C1B C15B 1_555 1_555
C8B C9B 1_555 1_555
C13B C14B 1_555 1_555
C20B C21B 1_555 1_555
C26B C27B 1_555 1_555
C32B C33B 1_555 1_555

#END
