
#######################################################################
#
#                 Cambridge Crystallographic Data Centre
#                                CCDC 
#
#######################################################################
#
# If this CIF has been generated from an entry in the Cambridge 
# Structural Database, then it will include bibliographic, chemical, 
# crystal, experimental, refinement or atomic coordinate data resulting 
# from the CCDC's data processing and validation procedures.
#
#######################################################################

data_QAWNIO
_chemical_formula_moiety         'C30 H24 N1 O2 P1'
_chemical_name_systematic        
2-(diphenylphosphoryl)-9-methyl-1-phenyl-1,2-dihydro-3H-pyrrolo[1,2-a]indol-3-one
_symmetry_cell_setting           triclinic
_symmetry_space_group_name_H-M   'P -1'
_symmetry_Int_Tables_number      2
_space_group_name_Hall           '-P 1'
loop_
_symmetry_equiv_pos_site_id
_symmetry_equiv_pos_as_xyz
1 x,y,z
2 -x,-y,-z
_cell_length_a                   9.769(2)
_cell_length_b                   11.195(2)
_cell_length_c                   11.439(2)
_cell_angle_alpha                108.62(3)
_cell_angle_beta                 93.45(3)
_cell_angle_gamma                93.72(3)
_cell_volume                     1178.7
_exptl_crystal_colour            yellow
_exptl_crystal_description       block
_cell_formula_units_Z            2
loop_
_atom_site_label
_atom_site_type_symbol
_atom_site_fract_x
_atom_site_fract_y
_atom_site_fract_z
P1 P 0.02140(3) 0.22885(3) 0.76180(3)
O1 O 0.18362(11) 0.50809(11) 0.92230(10)
O2 O 0.10596(10) 0.20071(10) 0.65437(9)
N1 N 0.07904(12) 0.56243(11) 0.76432(11)
C1 C 0.14526(15) 0.67422(13) 0.75737(13)
C2 C 0.26576(18) 0.74331(16) 0.81819(16)
H1 H 0.3202 0.7172 0.8734
C3 C 0.3012(2) 0.85395(18) 0.7925(2)
H2 H 0.3813 0.9035 0.8317
C4 C 0.2199(2) 0.89225(17) 0.7098(2)
H3 H 0.2465 0.9671 0.6951
C5 C 0.10072(19) 0.82180(16) 0.64878(17)
H4 H 0.0479 0.8478 0.5925
C6 C 0.06069(15) 0.71090(14) 0.67294(14)
C7 C -0.05873(15) 0.61912(14) 0.62953(13)
C8 C -0.17705(18) 0.62613(19) 0.54353(17)
H5 H -0.2423 0.5540 0.5292
H6 H -0.1441 0.6268 0.4663
H7 H -0.2207 0.7021 0.5798
C9 C -0.04340(13) 0.53199(13) 0.68661(12)
C10 C -0.11292(13) 0.41077(12) 0.69180(12)
H8 H -0.0951 0.3430 0.6169
C11 C -0.02971(13) 0.39063(12) 0.80444(12)
H9 H -0.0877 0.4050 0.8738
C12 C 0.09278(13) 0.49062(13) 0.84038(12)
C13 C -0.26770(13) 0.41022(13) 0.69773(13)
C14 C -0.35279(17) 0.34172(17) 0.59305(16)
H10 H -0.3147 0.2966 0.5212
C15 C -0.49448(18) 0.3405(2) 0.5956(2)
H11 H -0.5510 0.2956 0.5247
C16 C -0.55206(18) 0.4044(2) 0.7006(2)
H12 H -0.6473 0.4017 0.7019
C17 C -0.46865(18) 0.4726(2) 0.80431(19)
H13 H -0.5075 0.5165 0.8762
C18 C -0.32639(16) 0.47648(16) 0.80262(15)
H14 H -0.2705 0.5242 0.8729
C19 C -0.14284(14) 0.13663(13) 0.72678(13)
C20 C -0.25250(16) 0.16340(16) 0.80134(16)
H15 H -0.2412 0.2285 0.8768
C21 C -0.37819(18) 0.09247(18) 0.76214(19)
H16 H -0.4510 0.1096 0.8120
C22 C -0.39630(19) -0.00353(19) 0.6495(2)
H17 H -0.4812 -0.0503 0.6238
C23 C -0.28954(19) -0.02996(17) 0.57574(17)
H18 H -0.3019 -0.0946 0.5000
C24 C -0.16324(16) 0.03971(14) 0.61419(14)
H19 H -0.0910 0.0213 0.5638
C25 C 0.11104(15) 0.20700(13) 0.89453(13)
C26 C 0.0469(2) 0.17089(18) 0.98389(16)
H20 H -0.0488 0.1606 0.9796
C27 C 0.1247(3) 0.1498(2) 1.08042(18)
H21 H 0.0807 0.1248 1.1398
C28 C 0.2643(3) 0.1657(2) 1.08840(18)
H22 H 0.3156 0.1515 1.1531
C29 C 0.3302(2) 0.2027(2) 1.00048(19)
H23 H 0.4258 0.2141 1.0065
C30 C 0.25448(17) 0.22293(16) 0.90360(16)
H24 H 0.2993 0.2472 0.8443
loop_
_geom_bond_atom_site_label_1
_geom_bond_atom_site_label_2
_geom_bond_site_symmetry_1
_geom_bond_site_symmetry_2
P1 O2 1_555 1_555
O1 C12 1_555 1_555
N1 C1 1_555 1_555
C1 C2 1_555 1_555
C2 H1 1_555 1_555
C3 C2 1_555 1_555
H2 C3 1_555 1_555
C4 C3 1_555 1_555
H3 C4 1_555 1_555
C5 C4 1_555 1_555
H4 C5 1_555 1_555
C6 C1 1_555 1_555
C7 C6 1_555 1_555
C8 C7 1_555 1_555
H5 C8 1_555 1_555
H6 C8 1_555 1_555
H7 C8 1_555 1_555
C9 N1 1_555 1_555
C10 C9 1_555 1_555
H8 C10 1_555 1_555
C11 P1 1_555 1_555
H9 C11 1_555 1_555
C12 N1 1_555 1_555
C13 C10 1_555 1_555
C14 C13 1_555 1_555
H10 C14 1_555 1_555
C15 C14 1_555 1_555
H11 C15 1_555 1_555
C16 C15 1_555 1_555
H12 C16 1_555 1_555
C17 C16 1_555 1_555
H13 C17 1_555 1_555
C18 C13 1_555 1_555
H14 C18 1_555 1_555
C19 P1 1_555 1_555
C20 C19 1_555 1_555
H15 C20 1_555 1_555
C21 C20 1_555 1_555
H16 C21 1_555 1_555
C22 C21 1_555 1_555
H17 C22 1_555 1_555
C23 C22 1_555 1_555
H18 C23 1_555 1_555
C24 C19 1_555 1_555
H19 C24 1_555 1_555
C25 P1 1_555 1_555
C26 C25 1_555 1_555
H20 C26 1_555 1_555
C27 C26 1_555 1_555
H21 C27 1_555 1_555
C28 C27 1_555 1_555
H22 C28 1_555 1_555
C29 C28 1_555 1_555
H23 C29 1_555 1_555
C30 C25 1_555 1_555
H24 C30 1_555 1_555
C5 C6 1_555 1_555
C7 C9 1_555 1_555
C10 C11 1_555 1_555
C11 C12 1_555 1_555
C17 C18 1_555 1_555
C23 C24 1_555 1_555
C29 C30 1_555 1_555

#END
