
#######################################################################
#
#                 Cambridge Crystallographic Data Centre
#                                CCDC 
#
#######################################################################
#
# If this CIF has been generated from an entry in the Cambridge 
# Structural Database, then it will include bibliographic, chemical, 
# crystal, experimental, refinement or atomic coordinate data resulting 
# from the CCDC's data processing and validation procedures.
#
#######################################################################

data_QAWNIL
_chemical_name_common            
2-ethoxy-6,13-dimethoxy-12-methyl-11-phenyl-9,11,13,15-tetraazatetracyclo[7.6.0.0$1,12!0$3,8!]pentadeca-3,4,6-triene-10,14-dione
_chemical_formula_moiety         'C22 H24 N4 O5'
_chemical_name_systematic        
11-ethoxy-3,8-dimethoxy-3a-methyl-4-phenyl-3a,4-dihydro-11H-imidazo[4',5':4,5]imidazo[1,5-a]indole-2,5(1H,3H)-dione
_symmetry_cell_setting           monoclinic
_symmetry_space_group_name_H-M   'P 21/c'
_symmetry_Int_Tables_number      14
_space_group_name_Hall           '-P 2ybc'
loop_
_symmetry_equiv_pos_site_id
_symmetry_equiv_pos_as_xyz
1 x,y,z
2 -x,1/2+y,1/2-z
3 -x,-y,-z
4 x,1/2-y,1/2+z
_cell_length_a                   7.775(3)
_cell_length_b                   31.778(3)
_cell_length_c                   8.806(3)
_cell_angle_alpha                90
_cell_angle_beta                 103.78(2)
_cell_angle_gamma                90
_cell_volume                     2113.11
_exptl_crystal_colour            colorless
_cell_formula_units_Z            4
_exptl_crystal_recrystallization_method ethanol
loop_
_atom_site_label
_atom_site_type_symbol
_atom_site_fract_x
_atom_site_fract_y
_atom_site_fract_z
O1 O 1.0246(3) 0.07619(6) 0.8291(2)
O2 O 0.4632(3) 0.18826(7) 0.4274(3)
O3 O 0.8040(3) 0.21845(6) 0.4985(3)
O4 O 0.6613(2) 0.07933(6) 0.1862(2)
O5 O 0.7286(2) -0.07132(5) 0.6775(2)
N1 N 1.0080(3) 0.13147(6) 0.6558(2)
N2 N 0.8068(3) 0.07992(6) 0.6008(2)
N3 N 0.7636(3) 0.17675(6) 0.5314(3)
N4 N 0.5938(3) 0.12358(7) 0.4239(3)
C1 C 0.8926(3) 0.14497(7) 0.5060(3)
C2 C 0.9541(3) 0.09417(7) 0.7087(3)
C3 C 0.7685(3) 0.10553(7) 0.4581(3)
C4 C 0.5911(3) 0.16509(8) 0.4548(3)
C5 C 0.9928(4) 0.15898(8) 0.3876(3)
C6 C 1.1168(3) 0.15997(7) 0.7619(3)
C7 C 1.2598(4) 0.1795(1) 0.7255(4)
C8 C 1.3601(5) 0.2079(1) 0.8313(5)
C9 C 1.3206(6) 0.2157(1) 0.9719(5)
C10 C 1.1837(6) 0.1951(1) 1.0107(4)
C11 C 1.0803(4) 0.16828(10) 0.9049(3)
C12 C 0.7812(3) 0.03679(7) 0.5597(3)
C13 C 0.7717(3) 0.00387(7) 0.6597(3)
C14 C 0.7407(3) -0.03572(7) 0.5926(3)
C15 C 0.7214(4) -0.04163(8) 0.4332(3)
C16 C 0.7336(4) -0.00785(8) 0.3375(3)
C17 C 0.7640(3) 0.03185(8) 0.4014(3)
C18 C 0.7886(3) 0.07382(7) 0.3274(3)
C19 C 0.7670(4) -0.06731(9) 0.8434(3)
C20 C 0.7022(6) 0.1022(2) 0.0697(4)
C21 C 0.5801(5) 0.0975(1) -0.0812(4)
C22 C 0.8124(5) 0.24431(10) 0.6326(5)
loop_
_geom_bond_atom_site_label_1
_geom_bond_atom_site_label_2
_geom_bond_site_symmetry_1
_geom_bond_site_symmetry_2
O1 C2 1_555 1_555
O2 C4 1_555 1_555
O3 N3 1_555 1_555
O4 C18 1_555 1_555
O5 C14 1_555 1_555
N1 C1 1_555 1_555
N2 C2 1_555 1_555
N3 C1 1_555 1_555
N4 C3 1_555 1_555
C1 C3 1_555 1_555
C2 N1 1_555 1_555
C3 N2 1_555 1_555
C4 N3 1_555 1_555
C5 C1 1_555 1_555
C6 N1 1_555 1_555
C7 C6 1_555 1_555
C8 C7 1_555 1_555
C9 C8 1_555 1_555
C10 C9 1_555 1_555
C11 C6 1_555 1_555
C12 N2 1_555 1_555
C13 C12 1_555 1_555
C14 C13 1_555 1_555
C15 C14 1_555 1_555
C16 C15 1_555 1_555
C17 C12 1_555 1_555
C18 C3 1_555 1_555
C19 O5 1_555 1_555
C20 O4 1_555 1_555
C21 C20 1_555 1_555
C22 O3 1_555 1_555
N4 C4 1_555 1_555
C10 C11 1_555 1_555
C16 C17 1_555 1_555
C17 C18 1_555 1_555

#END
