
#######################################################################
#
#                 Cambridge Crystallographic Data Centre
#                                CCDC 
#
#######################################################################
#
# If this CIF has been generated from an entry in the Cambridge 
# Structural Database, then it will include bibliographic, chemical, 
# crystal, experimental, refinement or atomic coordinate data resulting 
# from the CCDC's data processing and validation procedures.
#
#######################################################################

data_QAWNOR
_chemical_formula_moiety         'C12 H10 F1 N5'
_chemical_name_systematic        9-benzyl-2-fluoroadenine
_symmetry_cell_setting           triclinic
_symmetry_space_group_name_H-M   'P -1'
_symmetry_Int_Tables_number      2
_space_group_name_Hall           '-P 1'
loop_
_symmetry_equiv_pos_site_id
_symmetry_equiv_pos_as_xyz
1 x,y,z
2 -x,-y,-z
_cell_length_a                   11.892(3)
_cell_length_b                   12.454(3)
_cell_length_c                   8.602(2)
_cell_angle_alpha                107.35(2)
_cell_angle_beta                 100.14(2)
_cell_angle_gamma                68.30(2)
_cell_volume                     1126.73
_exptl_crystal_colour            colorless
_chemical_melting_point          272deg.C(dec.)
_cell_formula_units_Z            4
_exptl_crystal_recrystallization_method acetone
loop_
_atom_site_label
_atom_site_type_symbol
_atom_site_fract_x
_atom_site_fract_y
_atom_site_fract_z
F1 F 0.5795(2) 0.8596(2) -0.0134(2)
N1 N 0.5322(3) 0.8198(3) 0.1986(3)
N2 N 0.6761(3) 0.9198(3) 0.2223(3)
N3 N 0.5073(3) 0.7987(2) 0.4594(3)
N4 N 0.6380(3) 0.8836(2) 0.6217(3)
N5 N 0.7821(3) 0.9823(3) 0.4637(3)
C1 C 0.5975(4) 0.8663(3) 0.1485(4)
C2 C 0.7000(3) 0.9312(3) 0.3858(4)
C3 C 0.6374(3) 0.8855(3) 0.4606(4)
C4 C 0.5575(3) 0.8337(3) 0.3604(4)
C5 C 0.5596(4) 0.8306(3) 0.6154(4)
C6 C 0.4143(4) 0.7399(4) 0.4082(5)
C7 C 0.4670(4) 0.6076(3) 0.3261(4)
C8 C 0.5769(4) 0.5355(4) 0.3746(6)
C9 C 0.6180(5) 0.4121(4) 0.2989(7)
C10 C 0.5497(6) 0.3650(5) 0.1710(7)
C11 C 0.4397(6) 0.4364(5) 0.1238(7)
C12 C 0.3978(5) 0.5597(4) 0.1948(5)
F2 F 0.9188(2) 0.1486(2) -0.3074(2)
N6 N 0.9603(3) 0.1944(3) -0.0375(3)
N7 N 0.8326(3) 0.0763(3) -0.1728(3)
N8 N 0.9797(3) 0.2221(3) 0.2566(3)
N9 N 0.8658(3) 0.1182(3) 0.2776(3)
N10 N 0.7412(3) -0.0015(3) -0.0391(3)
C13 C 0.9029(4) 0.1403(3) -0.1604(4)
C14 C 0.8116(3) 0.0625(3) -0.0320(4)
C15 C 0.8663(3) 0.1159(3) 0.1152(4)
C16 C 0.9372(3) 0.1793(3) 0.1005(4)
C17 C 0.9342(4) 0.1818(3) 0.3547(5)
C18 C 1.0655(4) 0.2894(4) 0.3055(5)
C19 C 1.0158(4) 0.4101(3) 0.2700(4)
C20 C 1.0946(5) 0.4592(4) 0.2407(6)
C21 C 1.0565(5) 0.5691(5) 0.2126(6)
C22 C 0.9351(6) 0.6348(5) 0.2070(6)
C23 C 0.8559(5) 0.5882(4) 0.2363(6)
C24 C 0.8955(4) 0.4773(4) 0.2665(5)
loop_
_geom_bond_atom_site_label_1
_geom_bond_atom_site_label_2
_geom_bond_site_symmetry_1
_geom_bond_site_symmetry_2
F1 C1 1_555 1_555
F2 C13 1_555 1_555
N1 C1 1_555 1_555
N2 C1 1_555 1_555
N3 C4 1_555 1_555
N4 C3 1_555 1_555
N5 C2 1_555 1_555
N6 C13 1_555 1_555
N7 C13 1_555 1_555
N8 C16 1_555 1_555
N9 C15 1_555 1_555
N10 C14 1_555 1_555
C2 N2 1_555 1_555
C3 C2 1_555 1_555
C4 N1 1_555 1_555
C5 N3 1_555 1_555
C6 N3 1_555 1_555
C7 C6 1_555 1_555
C8 C7 1_555 1_555
C9 C8 1_555 1_555
C10 C9 1_555 1_555
C11 C10 1_555 1_555
C12 C7 1_555 1_555
C14 N7 1_555 1_555
C15 C14 1_555 1_555
C16 N6 1_555 1_555
C17 N8 1_555 1_555
C18 N8 1_555 1_555
C19 C18 1_555 1_555
C20 C19 1_555 1_555
C21 C20 1_555 1_555
C22 C21 1_555 1_555
C23 C22 1_555 1_555
C24 C19 1_555 1_555
N4 C5 1_555 1_555
N9 C17 1_555 1_555
C3 C4 1_555 1_555
C11 C12 1_555 1_555
C15 C16 1_555 1_555
C23 C24 1_555 1_555

#END
