
#######################################################################
#
#                 Cambridge Crystallographic Data Centre
#                                CCDC 
#
#######################################################################
#
# If this CIF has been generated from an entry in the Cambridge 
# Structural Database, then it will include bibliographic, chemical, 
# crystal, experimental, refinement or atomic coordinate data resulting 
# from the CCDC's data processing and validation procedures.
#
#######################################################################

data_QAWTIU
_chemical_formula_moiety         'C6 H1 N3 O8 2-,2(C4 H7 N2 1+)'
_chemical_name_systematic        
'bis(1-methyl-1H-imidazol-3-ium) 2,4,6-trinitrobenzene-1,3-diolate'
_symmetry_cell_setting           monoclinic
_symmetry_space_group_name_H-M   'P 21/c'
_symmetry_Int_Tables_number      14
_space_group_name_Hall           '-P 2ybc'
loop_
_symmetry_equiv_pos_site_id
_symmetry_equiv_pos_as_xyz
1 x,y,z
2 -x,1/2+y,1/2-z
3 -x,-y,-z
4 x,1/2-y,1/2+z
_cell_length_a                   19.9171(4)
_cell_length_b                   7.28263(17)
_cell_length_c                   12.4229(3)
_cell_angle_alpha                90
_cell_angle_beta                 102.706(2)
_cell_angle_gamma                90
_cell_volume                     1757.8
_exptl_crystal_colour            yellow
_exptl_crystal_description       block
_cell_formula_units_Z            4
loop_
_atom_site_label
_atom_site_type_symbol
_atom_site_fract_x
_atom_site_fract_y
_atom_site_fract_z
O1 O 0.36863(8) 0.4422(3) 0.85408(13)
O2 O 0.13353(9) 0.5674(3) 0.74342(14)
O3 O 0.35157(12) 0.4643(4) 1.18079(16)
N1 N 0.35801(10) 0.4301(3) 1.08774(16)
C1 C 0.18383(11) 0.5418(3) 0.82302(19)
N2 N 0.11995(10) 0.5847(3) 0.97479(17)
C2 C 0.18195(11) 0.5439(3) 0.93922(19)
C3 C 0.31215(10) 0.4663(3) 0.88331(18)
O4 O 0.11702(10) 0.5530(4) 1.07116(16)
C4 C 0.23951(12) 0.5056(3) 1.01982(18)
H1 H 0.2359 0.5065 1.0932
N3 N 0.25565(10) 0.5066(3) 0.69057(16)
C5 C 0.30251(11) 0.4659(3) 0.99586(18)
O5 O 0.41156(10) 0.3633(4) 1.07197(16)
O6 O 0.07090(10) 0.6517(4) 0.90956(17)
C6 C 0.25051(11) 0.5047(3) 0.80595(17)
O7 O 0.24452(18) 0.3697(4) 0.6373(2)
O8 O 0.2718(2) 0.6486(4) 0.6539(2)
N4 N 0.58379(9) 0.3689(3) 0.47862(16)
C7 C 0.48512(10) 0.2463(3) 0.41200(18)
H2 H 0.4442 0.1818 0.4070
C8 C 0.53357(12) 0.2701(4) 0.5026(2)
H3 H 0.5324 0.2245 0.5721
C9 C 0.56686(13) 0.4096(4) 0.3674(2)
H4 H 0.5930 0.4772 0.3280
C10 C 0.64623(13) 0.4281(4) 0.5573(2)
H5 H 0.6473 0.5597 0.5614
H6 H 0.6860 0.3850 0.5332
H7 H 0.6463 0.3782 0.6288
N5 N 0.50540(13) 0.3324(5) 0.3274(2)
H8 H 0.4827 0.3366 0.2600
N6 N 0.11029(10) 0.4202(3) 0.34980(18)
N7 N 0.00071(10) 0.3846(3) 0.31688(18)
H9 H -0.0418 0.3820 0.2828
C11 C 0.05261(12) 0.4350(4) 0.2733(2)
H10 H 0.0492 0.4743 0.2011
C12 C 0.02508(14) 0.3379(4) 0.4233(2)
H11 H -0.0009 0.2981 0.4725
C13 C 0.09366(14) 0.3593(4) 0.4452(2)
H12 H 0.1241 0.3371 0.5122
C14 C 0.17958(13) 0.4627(5) 0.3365(3)
H13 H 0.2034 0.3507 0.3283
H14 H 0.2041 0.5277 0.4003
H15 H 0.1768 0.5376 0.2721
loop_
_geom_bond_atom_site_label_1
_geom_bond_atom_site_label_2
_geom_bond_site_symmetry_1
_geom_bond_site_symmetry_2
O1 C3 1_555 1_555
O2 C1 1_555 1_555
O3 N1 1_555 1_555
N1 C5 1_555 1_555
C1 C2 1_555 1_555
N2 C2 1_555 1_555
C2 C4 1_555 1_555
C3 C5 1_555 1_555
O4 N2 1_555 1_555
C4 H1 1_555 1_555
N3 C6 1_555 1_555
C5 C4 1_555 1_555
O5 N1 1_555 1_555
O6 N2 1_555 1_555
C6 C1 1_555 1_555
O7 N3 1_555 1_555
O8 N3 1_555 1_555
N4 C8 1_555 1_555
C7 H2 1_555 1_555
C8 C7 1_555 1_555
H3 C8 1_555 1_555
C9 N4 1_555 1_555
H4 C9 1_555 1_555
C10 N4 1_555 1_555
H5 C10 1_555 1_555
H6 C10 1_555 1_555
H7 C10 1_555 1_555
N5 C7 1_555 1_555
H8 N5 1_555 1_555
N6 C11 1_555 1_555
N7 H9 1_555 1_555
C11 N7 1_555 1_555
H10 C11 1_555 1_555
C12 N7 1_555 1_555
H11 C12 1_555 1_555
C13 N6 1_555 1_555
H12 C13 1_555 1_555
C14 N6 1_555 1_555
H13 C14 1_555 1_555
H14 C14 1_555 1_555
H15 C14 1_555 1_555
C3 C6 1_555 1_555
C9 N5 1_555 1_555
C12 C13 1_555 1_555

#END
