
#######################################################################
#
#                 Cambridge Crystallographic Data Centre
#                                CCDC 
#
#######################################################################
#
# If this CIF has been generated from an entry in the Cambridge 
# Structural Database, then it will include bibliographic, chemical, 
# crystal, experimental, refinement or atomic coordinate data resulting 
# from the CCDC's data processing and validation procedures.
#
#######################################################################

data_QAWZIA
_chemical_formula_moiety         'C13 H13 F2 N1 O5'
_chemical_name_systematic        
'ethyl 2,2-difluoro-3-(5-nitro-2,3-dihydro-1-benzofuran-2-yl)propanoate'
_symmetry_cell_setting           triclinic
_symmetry_space_group_name_H-M   'P -1'
_symmetry_Int_Tables_number      2
_space_group_name_Hall           '-P 1'
loop_
_symmetry_equiv_pos_site_id
_symmetry_equiv_pos_as_xyz
1 x,y,z
2 -x,-y,-z
_cell_length_a                   5.5051(3)
_cell_length_b                   9.6610(4)
_cell_length_c                   12.4968(6)
_cell_angle_alpha                81.350(4)
_cell_angle_beta                 80.175(4)
_cell_angle_gamma                82.598(4)
_cell_volume                     643.801
_exptl_crystal_colour            colorless
_exptl_crystal_description       block
_cell_formula_units_Z            2
loop_
_atom_site_label
_atom_site_type_symbol
_atom_site_fract_x
_atom_site_fract_y
_atom_site_fract_z
F1 F 0.0718(3) 0.58215(18) 0.72603(13)
F2 F 0.2487(3) 0.53801(18) 0.56405(13)
O1 O 0.7817(4) -0.0850(2) 1.16169(17)
O2 O 0.3173(3) 0.4516(2) 0.90211(14)
O3 O 0.6071(4) 0.7065(2) 0.57180(18)
O4 O 0.4169(4) -0.0696(2) 1.25812(17)
O5 O 0.2957(4) 0.8105(2) 0.6831(2)
N1 N 0.5702(4) -0.0257(2) 1.18123(18)
C1 C 0.6719(4) 0.1482(3) 1.0208(2)
H1 H 0.8307 0.1016 1.0082
C2 C 0.5996(4) 0.2666(3) 0.9533(2)
C3 C 0.4982(4) 0.1005(3) 1.1091(2)
C4 C 0.4635(5) 0.4449(3) 0.7081(2)
H2 H 0.3795 0.3605 0.7182
H3 H 0.6130 0.4310 0.6555
C5 C 0.2589(4) 0.1677(3) 1.1305(2)
H4 H 0.1479 0.1323 1.1899
C6 C 0.3605(4) 0.3347(3) 0.9748(2)
C7 C 0.1873(4) 0.2879(3) 1.0626(2)
H5 H 0.0292 0.3352 1.0754
C8 C 0.3966(5) 0.7116(3) 0.6404(2)
C9 C 0.2964(5) 0.5681(3) 0.6610(2)
C10 C 0.7365(5) 0.3466(3) 0.8534(2)
H6 H 0.7985 0.2863 0.7971
H7 H 0.8743 0.3872 0.8715
C11 C 0.7369(7) 0.8319(4) 0.5484(3)
H8 H 0.8352 0.8348 0.6053
H9 H 0.6193 0.9158 0.5451
C12 C 0.9022(7) 0.8249(4) 0.4394(3)
H10 H 0.8021 0.8269 0.3832
H11 H 1.0121 0.7392 0.4427
H12 H 0.9975 0.9040 0.4229
C13 C 0.5356(5) 0.4633(3) 0.8157(2)
H13 H 0.5945 0.5560 0.8102
loop_
_geom_bond_atom_site_label_1
_geom_bond_atom_site_label_2
_geom_bond_site_symmetry_1
_geom_bond_site_symmetry_2
F1 C9 1_555 1_555
F2 C9 1_555 1_555
O1 N1 1_555 1_555
O2 C6 1_555 1_555
O3 C8 1_555 1_555
O4 N1 1_555 1_555
O5 C8 1_555 1_555
N1 C3 1_555 1_555
C1 H1 1_555 1_555
C2 C1 1_555 1_555
C3 C1 1_555 1_555
C4 H2 1_555 1_555
H3 C4 1_555 1_555
C5 C3 1_555 1_555
H4 C5 1_555 1_555
C6 C2 1_555 1_555
C7 C5 1_555 1_555
H5 C7 1_555 1_555
C8 C9 1_555 1_555
C9 C4 1_555 1_555
C10 C2 1_555 1_555
H6 C10 1_555 1_555
H7 C10 1_555 1_555
C11 O3 1_555 1_555
H8 C11 1_555 1_555
H9 C11 1_555 1_555
C12 C11 1_555 1_555
H10 C12 1_555 1_555
H11 C12 1_555 1_555
H12 C12 1_555 1_555
C13 O2 1_555 1_555
H13 C13 1_555 1_555
C4 C13 1_555 1_555
C6 C7 1_555 1_555
C10 C13 1_555 1_555

#END
