
#######################################################################
#
#                 Cambridge Crystallographic Data Centre
#                                CCDC 
#
#######################################################################
#
# If this CIF has been generated from an entry in the Cambridge 
# Structural Database, then it will include bibliographic, chemical, 
# crystal, experimental, refinement or atomic coordinate data resulting 
# from the CCDC's data processing and validation procedures.
#
#######################################################################

data_QAXDUR
_chemical_formula_moiety         'C16 H9 F13 O2'
_chemical_name_systematic        
2-(2,2,3,3,4,4,5,5,6,6,7,7,7-tridecafluoroheptyl)-2,3-dihydro-1-benzofuran-7-carbaldehyde
_symmetry_cell_setting           triclinic
_symmetry_space_group_name_H-M   'P -1'
_symmetry_Int_Tables_number      2
_space_group_name_Hall           '-P 1'
loop_
_symmetry_equiv_pos_site_id
_symmetry_equiv_pos_as_xyz
1 x,y,z
2 -x,-y,-z
_cell_length_a                   5.5613(11)
_cell_length_b                   12.363(3)
_cell_length_c                   13.729(3)
_cell_angle_alpha                97.92(3)
_cell_angle_beta                 99.81(3)
_cell_angle_gamma                99.47(3)
_cell_volume                     904
_exptl_crystal_colour            colorless
_exptl_crystal_description       block
_cell_formula_units_Z            2
loop_
_atom_site_label
_atom_site_type_symbol
_atom_site_fract_x
_atom_site_fract_y
_atom_site_fract_z
O1 O 0.2870(8) 0.6606(3) -0.0070(4)
C1 C 0.0227(11) 0.5117(5) -0.1325(5)
O2 O 0.1306(9) 0.3365(4) -0.1595(4)
F1 F 0.3320(10) 0.9957(4) 0.1333(4)
C2 C 0.4078(13) 0.8145(5) 0.1295(6)
H1 H 0.2798 0.7918 0.1666
H2 H 0.5430 0.7759 0.1474
C3 C 0.5010(13) 0.9364(5) 0.1584(6)
C4 C 0.0826(11) 0.6215(5) -0.0787(5)
C5 C 0.3011(13) 0.7813(5) 0.0170(6)
H3 H 0.4181 0.8184 -0.0194
F2 F 0.6859(11) 0.9699(4) 0.1100(4)
C6 C 0.6160(14) 0.9759(6) 0.2719(6)
C7 C 0.7076(16) 1.0977(7) 0.3081(7)
C8 C 0.1776(12) 0.4308(6) -0.1160(6)
H4 H 0.3243 0.4532 -0.0682
F3 F 0.8053(14) 0.9259(5) 0.2915(6)
C9 C -0.0743(13) 0.6956(5) -0.0956(6)
F4 F 0.827(2) 1.1440(6) 0.2502(6)
C10 C 0.821(2) 1.1375(7) 0.4128(8)
C11 C -0.2863(13) 0.6670(7) -0.1638(6)
H5 H -0.3888 0.7183 -0.1740
C12 C -0.1991(14) 0.4861(6) -0.2038(6)
H6 H -0.2449 0.4154 -0.2425
C13 C 0.0492(14) 0.8037(6) -0.0201(6)
H7 H 0.0591 0.8684 -0.0530
H8 H -0.0406 0.8146 0.0340
F5 F 0.4538(15) 0.9405(5) 0.3215(5)
F6 F 0.505(2) 1.1426(6) 0.3000(8)
C14 C 0.913(3) 1.2641(9) 0.4497(11)
C15 C -0.3517(14) 0.5612(7) -0.2186(6)
H9 H -0.4995 0.5406 -0.2659
F7 F 0.701(2) 1.0974(7) 0.4699(6)
F8 F 1.030(2) 1.0977(8) 0.4350(9)
F9 F 0.753(3) 1.3173(9) 0.4163(14)
F10 F 1.069(3) 1.2998(8) 0.4007(8)
C16 C 1.045(6) 1.3137(17) 0.5502(17)
F11 F 1.0855(19) 1.4116(8) 0.5808(8)
F12 F 1.204(3) 1.2701(12) 0.5920(11)
F13 F 0.874(4) 1.2769(17) 0.6071(13)
loop_
_geom_bond_atom_site_label_1
_geom_bond_atom_site_label_2
_geom_bond_site_symmetry_1
_geom_bond_site_symmetry_2
O1 C4 1_555 1_555
C1 C4 1_555 1_555
O2 C8 1_555 1_555
F1 C3 1_555 1_555
C2 H1 1_555 1_555
H2 C2 1_555 1_555
C3 C2 1_555 1_555
C4 C9 1_555 1_555
C5 O1 1_555 1_555
H3 C5 1_555 1_555
F2 C3 1_555 1_555
C6 C3 1_555 1_555
C7 C6 1_555 1_555
C8 C1 1_555 1_555
H4 C8 1_555 1_555
F3 C6 1_555 1_555
C9 C11 1_555 1_555
F4 C7 1_555 1_555
C10 C7 1_555 1_555
C11 H5 1_555 1_555
C12 C1 1_555 1_555
H6 C12 1_555 1_555
C13 C5 1_555 1_555
H7 C13 1_555 1_555
H8 C13 1_555 1_555
F5 C6 1_555 1_555
F6 C7 1_555 1_555
C14 C10 1_555 1_555
C15 C11 1_555 1_555
H9 C15 1_555 1_555
F7 C10 1_555 1_555
F8 C10 1_555 1_555
F9 C14 1_555 1_555
F10 C14 1_555 1_555
C16 C14 1_555 1_555
F11 C16 1_555 1_555
F12 C16 1_555 1_555
F13 C16 1_555 1_555
C2 C5 1_555 1_555
C9 C13 1_555 1_555
C12 C15 1_555 1_555

#END
