
#######################################################################
#
#                 Cambridge Crystallographic Data Centre
#                                CCDC 
#
#######################################################################
#
# If this CIF has been generated from an entry in the Cambridge 
# Structural Database, then it will include bibliographic, chemical, 
# crystal, experimental, refinement or atomic coordinate data resulting 
# from the CCDC's data processing and validation procedures.
#
#######################################################################

data_QAXFED
_chemical_formula_moiety         'C19 H20 Br1 N1 O1'
_chemical_name_systematic        
1-benzyl-5-(4-bromophenyl)-3,3-dimethylpyrrolidin-2-one
_symmetry_cell_setting           orthorhombic
_symmetry_space_group_name_H-M   'P 21 21 21'
_symmetry_Int_Tables_number      19
_space_group_name_Hall           'P 2ac 2ab'
loop_
_symmetry_equiv_pos_site_id
_symmetry_equiv_pos_as_xyz
1 x,y,z
2 1/2-x,-y,1/2+z
3 1/2+x,1/2-y,-z
4 -x,1/2+y,1/2-z
_cell_length_a                   6.0241(5)
_cell_length_b                   10.6352(8)
_cell_length_c                   26.263(2)
_cell_angle_alpha                90
_cell_angle_beta                 90
_cell_angle_gamma                90
_cell_volume                     1682.6
_exptl_crystal_colour            colorless
_exptl_crystal_description       block
_cell_formula_units_Z            4
loop_
_atom_site_label
_atom_site_type_symbol
_atom_site_fract_x
_atom_site_fract_y
_atom_site_fract_z
Br1 Br 0.75310(8) 1.13473(4) 0.128650(14)
O1 O -0.0628(4) 0.4242(2) 0.13003(9)
N1 N 0.2406(4) 0.5516(2) 0.12488(7)
C1 C 0.3731(5) 0.8210(3) 0.16008(12)
H1 H 0.2321 0.8053 0.1730
C2 C 0.4403(5) 0.9441(4) 0.15403(12)
H2 H 0.3469 1.0103 0.1628
C3 C 0.6485(5) 0.9665(4) 0.13479(11)
C4 C 0.7854(5) 0.8694(4) 0.12109(11)
H3 H 0.9251 0.8858 0.1075
C5 C 0.7149(5) 0.7471(3) 0.12754(11)
H4 H 0.8083 0.6814 0.1182
C6 C 0.5079(5) 0.7200(3) 0.14764(10)
C7 C 0.4367(5) 0.5861(3) 0.15520(10)
H5 H 0.5600 0.5302 0.1461
C8 C 0.3574(5) 0.5542(4) 0.20913(11)
H6 H 0.4804 0.5254 0.2299
H7 H 0.2918 0.6275 0.2252
C9 C 0.1854(5) 0.4505(3) 0.20284(11)
C10 C 0.1033(5) 0.4719(3) 0.14873(11)
C11 C -0.0060(6) 0.4590(5) 0.24013(14)
H8 H -0.0719 0.5410 0.2381
H9 H 0.0479 0.4449 0.2741
H10 H -0.1151 0.3965 0.2319
C12 C 0.2920(8) 0.3203(4) 0.20478(17)
H11 H 0.1872 0.2586 0.1933
H12 H 0.3354 0.3017 0.2391
H13 H 0.4204 0.3189 0.1832
C13 C 0.2275(6) 0.5786(3) 0.07060(10)
H14 H 0.2213 0.6690 0.0659
H15 H 0.0905 0.5436 0.0574
C14 C 0.4181(5) 0.5276(3) 0.04008(10)
C15 C 0.4791(6) 0.4033(4) 0.04344(12)
H16 H 0.4008 0.3500 0.0650
C16 C 0.6534(6) 0.3563(4) 0.01555(13)
H17 H 0.6929 0.2721 0.0188
C17 C 0.7693(7) 0.4323(3) -0.01694(11)
H18 H 0.8849 0.4000 -0.0364
C18 C 0.7126(6) 0.5561(4) -0.02028(11)
H19 H 0.7918 0.6087 -0.0419
C19 C 0.5386(6) 0.6046(4) 0.00814(11)
H20 H 0.5029 0.6895 0.0056
loop_
_geom_bond_atom_site_label_1
_geom_bond_atom_site_label_2
_geom_bond_site_symmetry_1
_geom_bond_site_symmetry_2
Br1 C3 1_555 1_555
O1 C10 1_555 1_555
N1 C7 1_555 1_555
C1 H1 1_555 1_555
C2 C1 1_555 1_555
H2 C2 1_555 1_555
C3 C2 1_555 1_555
C4 C3 1_555 1_555
H3 C4 1_555 1_555
C5 C4 1_555 1_555
H4 C5 1_555 1_555
C6 C1 1_555 1_555
C7 C6 1_555 1_555
H5 C7 1_555 1_555
C8 C7 1_555 1_555
H6 C8 1_555 1_555
H7 C8 1_555 1_555
C9 C8 1_555 1_555
C10 N1 1_555 1_555
C11 C9 1_555 1_555
H8 C11 1_555 1_555
H9 C11 1_555 1_555
H10 C11 1_555 1_555
C12 C9 1_555 1_555
H11 C12 1_555 1_555
H12 C12 1_555 1_555
H13 C12 1_555 1_555
C13 N1 1_555 1_555
H14 C13 1_555 1_555
H15 C13 1_555 1_555
C14 C13 1_555 1_555
C15 C14 1_555 1_555
H16 C15 1_555 1_555
C16 C15 1_555 1_555
H17 C16 1_555 1_555
C17 C16 1_555 1_555
H18 C17 1_555 1_555
C18 C17 1_555 1_555
H19 C18 1_555 1_555
C19 C14 1_555 1_555
H20 C19 1_555 1_555
C5 C6 1_555 1_555
C9 C10 1_555 1_555
C18 C19 1_555 1_555

#END
