
#######################################################################
#
#                 Cambridge Crystallographic Data Centre
#                                CCDC 
#
#######################################################################
#
# If this CIF has been generated from an entry in the Cambridge 
# Structural Database, then it will include bibliographic, chemical, 
# crystal, experimental, refinement or atomic coordinate data resulting 
# from the CCDC's data processing and validation procedures.
#
#######################################################################

data_QAXGOO
_chemical_formula_moiety         'C12 H14 O3'
_chemical_name_systematic        
5a-methyl-4,5,5a,6,7,8a-hexahydro-2H-indeno[5,4-b]furan-2,8(3aH)-dione
_symmetry_cell_setting           monoclinic
_symmetry_space_group_name_H-M   'P 21/c'
_symmetry_Int_Tables_number      14
_space_group_name_Hall           '-P 2ybc'
loop_
_symmetry_equiv_pos_site_id
_symmetry_equiv_pos_as_xyz
1 x,y,z
2 -x,1/2+y,1/2-z
3 -x,-y,-z
4 x,1/2-y,1/2+z
_cell_length_a                   6.441(3)
_cell_length_b                   6.505(3)
_cell_length_c                   25.382(14)
_cell_angle_alpha                90
_cell_angle_beta                 93.324(14)
_cell_angle_gamma                90
_cell_volume                     1061.68
_exptl_crystal_colour            colorless
_exptl_crystal_description       block
_chemical_melting_point          '103-104 deg.C'
_cell_formula_units_Z            4
loop_
_atom_site_label
_atom_site_type_symbol
_atom_site_fract_x
_atom_site_fract_y
_atom_site_fract_z
O1 O 0.5580(5) -0.7579(5) -0.01208(13)
O2 O 0.6449(5) -0.1738(4) -0.17078(13)
O3 O 0.4831(5) -0.4483(5) -0.20813(12)
C1 C 0.4648(5) -0.6451(5) -0.13266(12)
C2 C 0.3977(5) -0.8213(5) -0.09956(15)
H1 H 0.4867 -0.9412 -0.1044
C3 C 0.1652(5) -0.8763(5) -0.11396(16)
C4 C 0.5565(5) -0.4681(5) -0.11856(17)
H2 H 0.6018 -0.4306 -0.0845
C5 C 0.0551(6) -0.7182(7) -0.07864(18)
H3 H 0.0433 -0.5856 -0.0960
H4 H -0.0831 -0.7658 -0.0714
C6 C 0.5733(6) -0.3432(6) -0.16603(18)
C7 C 0.4022(5) -0.7608(5) -0.04145(14)
C8 C 0.4097(8) -0.6421(7) -0.18961(16)
H5 H 0.4816 -0.7543 -0.2068
C9 C 0.1909(7) -0.7021(8) -0.0278(2)
H6 H 0.1899 -0.5627 -0.0143
H7 H 0.1411 -0.7940 -0.0012
C10 C 0.1070(7) -0.8621(7) -0.17254(19)
H8 H -0.0431 -0.8722 -0.1777
H9 H 0.1660 -0.9795 -0.1899
C11 C 0.1776(8) -0.6663(9) -0.19982(19)
H10 H 0.1436 -0.6752 -0.2375
H11 H 0.1064 -0.5479 -0.1862
C12 C 0.1203(6) -1.0955(7) -0.0949(2)
H12 H -0.0179 -1.1348 -0.1071
H13 H 0.1321 -1.0993 -0.0571
H14 H 0.2188 -1.1891 -0.1087
loop_
_geom_bond_atom_site_label_1
_geom_bond_atom_site_label_2
_geom_bond_site_symmetry_1
_geom_bond_site_symmetry_2
O1 C7 1_555 1_555
O2 C6 1_555 1_555
O3 C6 1_555 1_555
C1 C2 1_555 1_555
C2 H1 1_555 1_555
C3 C2 1_555 1_555
C4 C1 1_555 1_555
H2 C4 1_555 1_555
C5 C3 1_555 1_555
H3 C5 1_555 1_555
H4 C5 1_555 1_555
C6 C4 1_555 1_555
C7 C2 1_555 1_555
C8 O3 1_555 1_555
H5 C8 1_555 1_555
C9 C5 1_555 1_555
H6 C9 1_555 1_555
H7 C9 1_555 1_555
C10 C3 1_555 1_555
H8 C10 1_555 1_555
H9 C10 1_555 1_555
C11 C8 1_555 1_555
H10 C11 1_555 1_555
H11 C11 1_555 1_555
C12 C3 1_555 1_555
H12 C12 1_555 1_555
H13 C12 1_555 1_555
H14 C12 1_555 1_555
C1 C8 1_555 1_555
C7 C9 1_555 1_555
C10 C11 1_555 1_555

#END
