
#######################################################################
#
#                 Cambridge Crystallographic Data Centre
#                                CCDC 
#
#######################################################################
#
# If this CIF has been generated from an entry in the Cambridge 
# Structural Database, then it will include bibliographic, chemical, 
# crystal, experimental, refinement or atomic coordinate data resulting 
# from the CCDC's data processing and validation procedures.
#
#######################################################################

data_QAXGAA
_chemical_formula_moiety         'C25 H20 Br1 N1 O2'
_chemical_name_systematic        
4-(5-bromo-1-methyl-1H-indol-3-yl)-2-hydroxy-1,4-diphenylbut-3-en-1-one
_symmetry_cell_setting           triclinic
_symmetry_space_group_name_H-M   'P -1'
_symmetry_Int_Tables_number      2
_space_group_name_Hall           '-P 1'
loop_
_symmetry_equiv_pos_site_id
_symmetry_equiv_pos_as_xyz
1 x,y,z
2 -x,-y,-z
_cell_length_a                   8.803(4)
_cell_length_b                   9.880(4)
_cell_length_c                   13.538(6)
_cell_angle_alpha                73.731(9)
_cell_angle_beta                 73.897(11)
_cell_angle_gamma                69.965(9)
_cell_volume                     1040.2
_exptl_crystal_description       Block
_cell_formula_units_Z            2
loop_
_atom_site_label
_atom_site_type_symbol
_atom_site_fract_x
_atom_site_fract_y
_atom_site_fract_z
Br1 Br 0.15413(5) 0.02905(4) -0.15742(3)
O1 O 0.4154(4) 0.1859(4) 0.5056(3)
O2 O 0.2601(4) 0.0149(3) 0.4705(2)
H1 H 0.3589 -0.0281 0.4655
N1 N 0.5778(4) 0.2772(3) -0.0202(3)
C1 C 0.3569(4) 0.1927(3) 0.0115(2)
C2 C 0.2524(4) 0.1345(3) -0.0156(2)
H2 H 0.1637 0.1095 0.0335
C3 C 0.2861(5) 0.1158(4) -0.1179(3)
C4 C 0.4157(5) 0.1551(4) -0.1945(3)
H3 H 0.4308 0.1446 -0.2630
C5 C 0.5211(5) 0.2095(4) -0.1690(3)
H4 H 0.6093 0.2340 -0.2190
C6 C 0.4919(4) 0.2268(3) -0.0656(3)
C7 C 0.5002(4) 0.2768(4) 0.0820(3)
H5 H 0.5343 0.3075 0.1291
C8 C 0.3656(4) 0.2254(3) 0.1065(2)
C9 C 0.2562(4) 0.2105(3) 0.2115(2)
C10 C 0.3247(4) 0.1629(4) 0.2975(3)
H6 H 0.4393 0.1273 0.2853
C11 C 0.2386(4) 0.1604(3) 0.4106(2)
H7 H 0.1204 0.2082 0.4132
C12 C 0.3060(4) 0.2498(4) 0.4546(3)
C13 C 0.2435(4) 0.4138(4) 0.4305(3)
C14 C 0.1194(5) 0.4887(4) 0.3721(3)
H8 H 0.0756 0.4370 0.3449
C15 C 0.0626(7) 0.6421(5) 0.3553(3)
H9 H -0.0193 0.6933 0.3164
C16 C 0.1278(10) 0.7178(5) 0.3965(5)
H10 H 0.0893 0.8199 0.3849
C17 C 0.2488(9) 0.6441(7) 0.4543(5)
H11 H 0.2914 0.6965 0.4818
C18 C 0.3071(6) 0.4925(6) 0.4716(4)
H12 H 0.3889 0.4428 0.5108
C19 C 0.0742(4) 0.2626(3) 0.2168(2)
C20 C -0.0316(5) 0.1854(4) 0.2870(3)
H13 H 0.0118 0.0938 0.3273
C21 C -0.2017(5) 0.2446(5) 0.2971(3)
H14 H -0.2708 0.1919 0.3443
C22 C -0.2706(5) 0.3813(5) 0.2379(3)
H15 H -0.3844 0.4221 0.2465
C23 C -0.1640(5) 0.4546(4) 0.1656(3)
H16 H -0.2072 0.5453 0.1243
C24 C 0.0035(4) 0.3959(4) 0.1539(3)
H17 H 0.0719 0.4458 0.1029
C25 C 0.7272(6) 0.3245(5) -0.0713(4)
H18 H 0.7654 0.3487 -0.0204
H19 H 0.7021 0.4095 -0.1263
H20 H 0.8116 0.2462 -0.1005
loop_
_geom_bond_atom_site_label_1
_geom_bond_atom_site_label_2
_geom_bond_site_symmetry_1
_geom_bond_site_symmetry_2
Br1 C3 1_555 1_555
O1 C12 1_555 1_555
O2 H1 1_555 1_555
N1 C6 1_555 1_555
C1 C2 1_555 1_555
C2 H2 1_555 1_555
C3 C2 1_555 1_555
C4 C3 1_555 1_555
H3 C4 1_555 1_555
C5 C4 1_555 1_555
H4 C5 1_555 1_555
C6 C1 1_555 1_555
C7 N1 1_555 1_555
H5 C7 1_555 1_555
C8 C1 1_555 1_555
C9 C8 1_555 1_555
C10 C9 1_555 1_555
H6 C10 1_555 1_555
C11 O2 1_555 1_555
H7 C11 1_555 1_555
C12 C11 1_555 1_555
C13 C12 1_555 1_555
C14 C13 1_555 1_555
H8 C14 1_555 1_555
C15 C14 1_555 1_555
H9 C15 1_555 1_555
C16 C15 1_555 1_555
H10 C16 1_555 1_555
C17 C16 1_555 1_555
H11 C17 1_555 1_555
C18 C13 1_555 1_555
H12 C18 1_555 1_555
C19 C9 1_555 1_555
C20 C19 1_555 1_555
H13 C20 1_555 1_555
C21 C20 1_555 1_555
H14 C21 1_555 1_555
C22 C21 1_555 1_555
H15 C22 1_555 1_555
C23 C22 1_555 1_555
H16 C23 1_555 1_555
C24 C19 1_555 1_555
H17 C24 1_555 1_555
C25 N1 1_555 1_555
H18 C25 1_555 1_555
H19 C25 1_555 1_555
H20 C25 1_555 1_555
C5 C6 1_555 1_555
C7 C8 1_555 1_555
C10 C11 1_555 1_555
C17 C18 1_555 1_555
C23 C24 1_555 1_555

#END
