
#######################################################################
#
#                 Cambridge Crystallographic Data Centre
#                                CCDC 
#
#######################################################################
#
# If this CIF has been generated from an entry in the Cambridge 
# Structural Database, then it will include bibliographic, chemical, 
# crystal, experimental, refinement or atomic coordinate data resulting 
# from the CCDC's data processing and validation procedures.
#
#######################################################################

data_QAXKOS
_chemical_formula_moiety         'C12 H8 Cl1 N5 O2'
_chemical_name_systematic        
5-chloro-N-(4-nitrophenyl)[1,2,4]triazolo[4,3-a]pyridin-3-amine
_symmetry_cell_setting           orthorhombic
_symmetry_space_group_name_H-M   'P 21 21 21'
_symmetry_Int_Tables_number      19
_space_group_name_Hall           'P 2ac 2ab'
loop_
_symmetry_equiv_pos_site_id
_symmetry_equiv_pos_as_xyz
1 x,y,z
2 1/2-x,-y,1/2+z
3 -x,1/2+y,1/2-z
4 1/2+x,1/2-y,-z
_cell_length_a                   7.6030(5)
_cell_length_b                   12.0456(8)
_cell_length_c                   13.3510(9)
_cell_angle_alpha                90
_cell_angle_beta                 90
_cell_angle_gamma                90
_cell_volume                     1222.72
_exptl_crystal_colour            colorless
_exptl_crystal_description       block
_cell_formula_units_Z            4
loop_
_atom_site_label
_atom_site_type_symbol
_atom_site_fract_x
_atom_site_fract_y
_atom_site_fract_z
Cl1 Cl 1.19711(6) 0.19489(4) 0.32869(4)
N1 N 0.9122(2) 0.08624(13) 0.39175(12)
O1 O 0.2540(2) 0.61955(15) 0.30308(13)
N2 N 0.6585(2) 0.13398(14) 0.45905(14)
N3 N 0.8566(2) 0.28396(13) 0.42407(13)
H1 H 0.9673 0.3016 0.4349
O2 O 0.4357(2) 0.73077(14) 0.37774(14)
N4 N 0.6559(2) 0.02023(15) 0.44604(14)
N5 N 0.3922(3) 0.63727(15) 0.34882(14)
C1 C 0.5750(3) 0.35056(17) 0.35738(15)
H2 H 0.5431 0.2776 0.3373
C2 C 0.7827(3) 0.47728(16) 0.43431(15)
H3 H 0.8921 0.4905 0.4665
C3 C 0.8088(3) 0.17292(15) 0.42587(15)
C4 C 0.4616(3) 0.43870(17) 0.33847(16)
H4 H 0.3522 0.4265 0.3059
C5 C 0.7357(3) 0.36874(16) 0.40576(14)
C6 C 1.0780(3) 0.07566(17) 0.34838(15)
C7 C 0.6702(3) 0.56420(17) 0.41566(16)
H5 H 0.7014 0.6374 0.4353
C8 C 0.5105(3) 0.54451(18) 0.36788(16)
C9 C 0.8076(3) -0.00780(16) 0.40683(15)
C10 C 0.8723(3) -0.11392(18) 0.37974(16)
H6 H 0.8021 -0.1783 0.3893
C11 C 1.1403(3) -0.02539(18) 0.32440(16)
H7 H 1.2550 -0.0322 0.2968
C12 C 1.0365(3) -0.12215(18) 0.33980(17)
H8 H 1.0821 -0.1929 0.3221
loop_
_geom_bond_atom_site_label_1
_geom_bond_atom_site_label_2
_geom_bond_site_symmetry_1
_geom_bond_site_symmetry_2
Cl1 C6 1_555 1_555
N1 C3 1_555 1_555
O1 N5 1_555 1_555
N2 N4 1_555 1_555
N3 H1 1_555 1_555
O2 N5 1_555 1_555
N4 C9 1_555 1_555
N5 C8 1_555 1_555
C1 H2 1_555 1_555
C2 H3 1_555 1_555
C3 N2 1_555 1_555
C4 C1 1_555 1_555
H4 C4 1_555 1_555
C5 N3 1_555 1_555
C6 N1 1_555 1_555
C7 C2 1_555 1_555
H5 C7 1_555 1_555
C8 C4 1_555 1_555
C9 N1 1_555 1_555
C10 C9 1_555 1_555
H6 C10 1_555 1_555
C11 C6 1_555 1_555
H7 C11 1_555 1_555
C12 C10 1_555 1_555
H8 C12 1_555 1_555
N3 C3 1_555 1_555
C1 C5 1_555 1_555
C2 C5 1_555 1_555
C7 C8 1_555 1_555
C11 C12 1_555 1_555

#END
