
#######################################################################
#
#                 Cambridge Crystallographic Data Centre
#                                CCDC 
#
#######################################################################
#
# If this CIF has been generated from an entry in the Cambridge 
# Structural Database, then it will include bibliographic, chemical, 
# crystal, experimental, refinement or atomic coordinate data resulting 
# from the CCDC's data processing and validation procedures.
#
#######################################################################

data_QAXKUY
_chemical_formula_moiety         'C16 H36 N1 1+,C12 H9 Cl1 N5 O2 S1 1-'
_chemical_name_systematic        
"tetra-n-butylammonium N'-(6-chloropyridin-2-yl)-N-(4-nitrophenyl)carbamohydrazonothioate"
_symmetry_cell_setting           monoclinic
_symmetry_space_group_name_H-M   'P 21/c'
_symmetry_Int_Tables_number      14
_space_group_name_Hall           '-P 2ybc'
loop_
_symmetry_equiv_pos_site_id
_symmetry_equiv_pos_as_xyz
1 x,y,z
2 -x,1/2+y,1/2-z
3 -x,-y,-z
4 x,1/2-y,1/2+z
_cell_length_a                   26.6292(10)
_cell_length_b                   16.3411(6)
_cell_length_c                   36.3087(12)
_cell_angle_alpha                90
_cell_angle_beta                 129.032(2)
_cell_angle_gamma                90
_cell_volume                     12273.2
_exptl_crystal_colour            red
_exptl_crystal_description       plate
_cell_formula_units_Z            16
loop_
_atom_site_label
_atom_site_type_symbol
_atom_site_fract_x
_atom_site_fract_y
_atom_site_fract_z
Cl1 Cl 0.08089(5) 0.09030(7) 0.19749(4)
S1 S 0.17935(5) 0.02168(7) 0.42840(4)
O1 O 0.59287(12) 0.08854(15) 0.56572(9)
O2 O 0.60653(12) 0.10475(17) 0.63094(11)
N1 N 0.30717(14) 0.03999(17) 0.48945(11)
H1 H 0.2979 0.0378 0.5088
N2 N 0.20856(14) 0.01933(17) 0.36438(11)
H2 H 0.1717 0.0065 0.3579
N3 N 0.26473(14) 0.02654(17) 0.41125(11)
N4 N 0.15455(15) 0.05170(18) 0.28651(12)
N5 N 0.57146(16) 0.09180(18) 0.58767(13)
C1 C 0.39746(18) 0.0591(2) 0.48819(14)
H3 H 0.3700 0.0534 0.4547
C2 C 0.2113(2) 0.0323(2) 0.32868(15)
C3 C 0.25384(17) 0.0290(2) 0.44157(14)
C4 C 0.46250(19) 0.0725(2) 0.51314(15)
H4 H 0.4796 0.0769 0.4968
C5 C 0.37139(19) 0.0536(2) 0.51162(14)
C6 C 0.26893(18) 0.0249(2) 0.33519(14)
H5 H 0.3081 0.0088 0.3649
C7 C 0.47879(19) 0.0753(2) 0.58642(14)
H6 H 0.5068 0.0812 0.6199
C8 C 0.41402(19) 0.0625(2) 0.56146(14)
H7 H 0.3973 0.0594 0.5781
C9 C 0.50288(18) 0.0797(2) 0.56178(14)
C10 C 0.2669(2) 0.0416(2) 0.29741(17)
H8 H 0.3053 0.0380 0.3009
C11 C 0.1557(2) 0.0662(2) 0.25136(14)
C12 C 0.2094(2) 0.0635(2) 0.25410(16)
H9 H 0.2072 0.0761 0.2276
Cl2 Cl 0.41878(5) 0.12505(6) 0.31160(3)
S2 S 0.28508(4) 0.02980(6) 0.07506(3)
O3 O 0.65720(14) -0.03732(16) 0.13168(11)
O4 O 0.59813(12) -0.06381(16) 0.05623(10)
N6 N 0.41324(14) 0.07705(17) 0.24084(12)
N7 N 0.37773(14) -0.01158(17) 0.07087(10)
H10 H 0.3429 -0.0215 0.0416
N8 N 0.39473(14) 0.03524(18) 0.17345(11)
H11 H 0.3537 0.0455 0.1588
N9 N 0.41331(14) 0.01193(17) 0.14694(12)
N10 N 0.60378(17) -0.04702(19) 0.09193(15)
C13 C 0.54594(18) -0.0378(2) 0.08734(14)
C14 C 0.43768(19) 0.0428(2) 0.22119(15)
C15 C 0.55110(18) -0.0159(2) 0.12618(14)
H12 H 0.5926 -0.0071 0.1559
C16 C 0.43164(18) -0.0405(2) 0.03928(13)
H13 H 0.3905 -0.0485 0.0092
C17 C 0.36537(18) 0.0092(2) 0.10185(15)
C18 C 0.43526(18) -0.0192(2) 0.07839(14)
C19 C 0.50199(19) 0.0170(2) 0.24813(15)
H14 H 0.5183 -0.0051 0.2334
C20 C 0.51669(19) 0.0582(2) 0.31792(14)
H15 H 0.5427 0.0643 0.3513
C21 C 0.49646(19) -0.0066(2) 0.12233(14)
H16 H 0.5003 0.0083 0.1493
C22 C 0.4863(2) -0.0499(2) 0.04373(14)
H17 H 0.4832 -0.0647 0.0171
C23 C 0.54055(18) 0.0245(2) 0.29626(15)
H18 H 0.5842 0.0066 0.3153
C24 C 0.4533(2) 0.0817(2) 0.28759(16)
Cl3 Cl 0.40146(5) 0.66972(6) 0.30426(4)
S3 S 0.30567(4) 0.52386(6) 0.07726(3)
O5 O -0.09185(12) 0.64085(17) -0.04481(10)
O6 O -0.11974(13) 0.59808(15) -0.11211(11)
N11 N 0.17753(14) 0.51688(17) 0.02183(11)
H19 H 0.1832 0.4968 0.0022
N12 N 0.33579(14) 0.60379(18) 0.22015(12)
N13 N 0.22803(14) 0.53374(17) 0.10146(11)
N14 N 0.28593(14) 0.54894(17) 0.14622(11)
H20 H 0.3225 0.5508 0.1508
N15 N -0.07912(16) 0.6088(2) -0.06881(14)
C25 C 0.11415(18) 0.5353(2) 0.00133(14)
C26 C 0.09403(18) 0.5624(2) 0.02703(14)
H21 H 0.1239 0.5637 0.0607
C27 C -0.01310(18) 0.5820(2) -0.04521(15)
C28 C 0.23412(17) 0.5250(2) 0.06871(14)
C29 C 0.28523(19) 0.5610(2) 0.18313(14)
C30 C 0.23988(19) 0.5410(2) 0.22151(15)
H22 H 0.2070 0.5198 0.2219
C31 C 0.2917(2) 0.5831(2) 0.26065(14)
H23 H 0.2959 0.5907 0.2884
C32 C 0.00467(19) 0.5512(2) -0.07109(14)
H24 H -0.0265 0.5462 -0.1046
C33 C 0.03121(19) 0.5869(2) 0.00336(15)
H25 H 0.0183 0.6074 0.0207
C34 C 0.23597(18) 0.5297(2) 0.18245(14)
H26 H 0.2005 0.5013 0.1555
C35 C 0.06732(19) 0.5281(2) -0.04820(14)
H27 H 0.0794 0.5068 -0.0660
C36 C 0.33642(18) 0.6132(2) 0.25682(14)
Cl4 Cl 0.09135(5) 0.57983(7) 0.19802(4)
S4 S 0.25370(5) 0.54090(6) 0.44839(4)
O7 O -0.10390(14) 0.45488(15) 0.40634(11)
O8 O -0.04186(12) 0.40951(17) 0.47885(11)
N16 N 0.16901(14) 0.47832(17) 0.45664(10)
H28 H 0.2048 0.4720 0.4860
N17 N 0.14406(15) 0.50956(18) 0.34948(12)
H29 H 0.1839 0.5216 0.3612
N18 N 0.11337(15) 0.54123(18) 0.27674(12)
N19 N 0.13098(15) 0.48750(18) 0.37974(12)
N20 N -0.05020(18) 0.43576(19) 0.44330(15)
C37 C 0.17877(18) 0.5006(2) 0.42419(15)
C38 C 0.09609(19) 0.5126(2) 0.30243(15)
C39 C 0.0325(2) 0.4883(2) 0.28104(15)
H30 H 0.0212 0.4692 0.2997
C40 C 0.0667(2) 0.4317(2) 0.48817(14)
H31 H 0.0718 0.4162 0.5156
C41 C 0.11293(18) 0.4647(2) 0.45028(14)
C42 C 0.00586(19) 0.4436(2) 0.44553(15)
C43 C 0.11956(19) 0.4424(2) 0.49055(14)
H32 H 0.1616 0.4347 0.5200
C44 C -0.0128(2) 0.4929(2) 0.23267(16)
H33 H -0.0561 0.4769 0.2176
C45 C 0.0670(2) 0.5435(2) 0.23008(17)
C46 C -0.00226(18) 0.4645(2) 0.40537(15)
H34 H -0.0446 0.4724 0.3763
C47 C 0.05070(19) 0.4742(2) 0.40711(14)
H35 H 0.0449 0.4873 0.3792
C48 C 0.0037(2) 0.5208(2) 0.20529(15)
H36 H -0.0268 0.5238 0.1717
N21 N 0.29694(13) 0.27328(17) 0.14541(10)
C49 C 0.25406(17) 0.3152(2) 0.09723(13)
H37 H 0.2201 0.3461 0.0948
H38 H 0.2807 0.3555 0.0959
C50 C 0.35800(16) 0.2411(2) 0.15549(13)
H39 H 0.3452 0.2017 0.1302
H40 H 0.3830 0.2105 0.1857
C51 C 0.31238(17) 0.3359(2) 0.18198(12)
H41 H 0.2726 0.3470 0.1779
H42 H 0.3252 0.3876 0.1757
C52 C 0.19823(17) 0.2181(2) 0.13446(14)
H43 H 0.2060 0.2443 0.1622
H44 H 0.1738 0.2573 0.1077
C53 C 0.22157(17) 0.2600(2) 0.05460(13)
H45 H 0.1880 0.2270 0.0516
H46 H 0.2539 0.2219 0.0590
C54 C 0.40247(17) 0.3043(2) 0.15878(14)
H47 H 0.4079 0.3511 0.1784
H48 H 0.3830 0.3251 0.1267
C55 C 0.15812(18) 0.1416(2) 0.12144(14)
H49 H 0.1789 0.1066 0.1499
H50 H 0.1565 0.1104 0.0973
C56 C 0.51039(18) 0.2567(2) 0.23466(13)
H51 H 0.5198 0.3108 0.2494
H52 H 0.5510 0.2296 0.2467
H53 H 0.4874 0.2236 0.2424
C57 C 0.19075(19) 0.3093(2) 0.00961(13)
H54 H 0.1605 0.3495 0.0065
H55 H 0.2249 0.3400 0.0122
C58 C 0.46817(17) 0.2664(3) 0.18085(13)
H56 H 0.4911 0.3012 0.1734
H57 H 0.4616 0.2119 0.1664
C59 C 0.36553(18) 0.3111(2) 0.23311(13)
H58 H 0.4078 0.3150 0.2400
H59 H 0.3590 0.2534 0.2375
C60 C 0.36655(18) 0.3652(2) 0.26801(13)
H60 H 0.4089 0.3591 0.3000
H61 H 0.3621 0.4232 0.2584
C61 C 0.31356(19) 0.3448(2) 0.27062(14)
H62 H 0.2714 0.3536 0.2395
H63 H 0.3175 0.3801 0.2941
H64 H 0.3174 0.2874 0.2799
C62 C 0.15440(19) 0.2567(2) -0.03457(14)
H65 H 0.1834 0.2147 -0.0310
H66 H 0.1385 0.2910 -0.0621
H67 H 0.1178 0.2303 -0.0392
C63 C 0.08930(18) 0.1624(2) 0.10189(15)
H68 H 0.0909 0.1939 0.1255
H69 H 0.0650 0.1117 0.0947
H70 H 0.0680 0.1949 0.0729
C64 C 0.26290(17) 0.1996(2) 0.14607(13)
H71 H 0.2918 0.1742 0.1779
H72 H 0.2557 0.1589 0.1230
N22 N 0.23919(13) 0.27655(17) 0.37376(10)
C65 C 0.18229(16) 0.2276(2) 0.36190(13)
H73 H 0.1674 0.1907 0.3351
H74 H 0.1978 0.1927 0.3895
C66 C 0.28675(16) 0.2161(2) 0.37913(13)
H75 H 0.2962 0.1734 0.4021
H76 H 0.2657 0.1889 0.3482
C67 C 0.27019(17) 0.3253(2) 0.41891(13)
H77 H 0.2366 0.3601 0.4148
H78 H 0.3030 0.3621 0.4231
C68 C 0.30240(18) 0.2755(2) 0.46397(13)
H79 H 0.2699 0.2404 0.4613
H80 H 0.3359 0.2396 0.4686
C69 C 0.21729(17) 0.3366(2) 0.33451(12)
H81 H 0.1858 0.3747 0.3312
H82 H 0.2551 0.3694 0.3441
C70 C 0.06878(17) 0.2192(2) 0.33293(13)
H83 H 0.0551 0.1889 0.3043
H84 H 0.0837 0.1787 0.3582
C71 C 0.35009(17) 0.2526(2) 0.39552(14)
H85 H 0.3740 0.2744 0.4280
H86 H 0.3413 0.2986 0.3744
C72 C 0.18673(17) 0.2992(2) 0.28653(13)
H87 H 0.1557 0.2563 0.2798
H88 H 0.2207 0.2730 0.2871
C73 C 0.12477(16) 0.2761(2) 0.34892(13)
H89 H 0.1107 0.3148 0.3231
H90 H 0.1374 0.3083 0.3767
C74 C 0.33303(18) 0.3326(2) 0.50610(13)
H91 H 0.2987 0.3657 0.5021
H92 H 0.3627 0.3706 0.5069
C75 C 0.39148(17) 0.1890(2) 0.39509(14)
H93 H 0.3966 0.1407 0.4137
H94 H 0.3690 0.1709 0.3621
C76 C 0.37055(19) 0.2866(2) 0.55305(14)
H95 H 0.3417 0.2481 0.5522
H96 H 0.3878 0.3258 0.5790
H97 H 0.4063 0.2566 0.5582
C77 C 0.01121(18) 0.2660(2) 0.32181(14)
H98 H 0.0242 0.2944 0.3504
H99 H -0.0238 0.2276 0.3112
H100 H -0.0037 0.3060 0.2967
C78 C 0.45783(17) 0.2216(3) 0.41559(14)
H101 H 0.4531 0.2690 0.3971
H102 H 0.4825 0.1788 0.4143
H103 H 0.4808 0.2381 0.4486
C79 C 0.15178(19) 0.3626(2) 0.24748(13)
H104 H 0.1153 0.3850 0.2451
H105 H 0.1818 0.4082 0.2559
C80 C 0.1261(2) 0.3286(3) 0.19976(14)
H106 H 0.1618 0.3053 0.2020
H107 H 0.1057 0.3727 0.1762
H108 H 0.0941 0.2859 0.1902
N23 N 0.22911(13) 0.79292(18) 0.10442(11)
C81 C 0.28718(17) 0.7485(2) 0.11523(13)
H109 H 0.2711 0.7023 0.0927
H110 H 0.3123 0.7249 0.1475
C82 C 0.18631(17) 0.8274(2) 0.05445(13)
H111 H 0.1509 0.8586 0.0499
H112 H 0.2122 0.8667 0.0519
C83 C 0.25053(17) 0.8653(2) 0.13759(13)
H113 H 0.2665 0.9089 0.1283
H114 H 0.2123 0.8872 0.1331
C84 C 0.39151(17) 0.7471(2) 0.13013(14)
H115 H 0.3771 0.6986 0.1093
H116 H 0.4119 0.7274 0.1626
C85 C 0.19354(17) 0.7301(2) 0.11140(14)
H117 H 0.1868 0.6803 0.0932
H118 H 0.2218 0.7147 0.1453
C86 C 0.30279(18) 0.8468(2) 0.18981(13)
H119 H 0.3438 0.8340 0.1959
H120 H 0.2902 0.7984 0.1987
C87 C 0.33296(16) 0.7991(2) 0.11274(14)
H121 H 0.3107 0.8168 0.0797
H122 H 0.3468 0.8485 0.1328
C88 C 0.12845(17) 0.7566(2) 0.09675(14)
H123 H 0.0969 0.7613 0.0618
H124 H 0.1329 0.8113 0.1103
C89 C 0.10325(18) 0.6961(2) 0.11357(14)
H125 H 0.1326 0.6957 0.1487
H126 H 0.1031 0.6404 0.1027
C90 C 0.15647(18) 0.7666(2) 0.01432(13)
H127 H 0.1289 0.7277 0.0154
H128 H 0.1910 0.7351 0.0178
C91 C 0.31269(17) 0.9201(2) 0.21975(13)
H129 H 0.3200 0.9698 0.2081
H130 H 0.2732 0.9287 0.2164
C92 C 0.44163(18) 0.7937(2) 0.13073(15)
H131 H 0.4224 0.8108 0.0984
H132 H 0.4788 0.7582 0.1431
H133 H 0.4558 0.8421 0.1510
C93 C 0.36992(19) 0.9071(2) 0.27158(13)
H134 H 0.3637 0.8565 0.2828
H135 H 0.3735 0.9535 0.2902
H136 H 0.4096 0.9028 0.2752
C94 C 0.03513(18) 0.7179(2) 0.09477(14)
H137 H 0.0355 0.7721 0.1065
H138 H 0.0201 0.6771 0.1057
H139 H 0.0060 0.7185 0.0600
C95 C 0.1160(2) 0.8113(3) -0.03289(14)
H140 H 0.0849 0.8474 -0.0343
H141 H 0.1447 0.8466 -0.0346
C96 C 0.0789(2) 0.7553(3) -0.07546(15)
H142 H 0.1094 0.7208 -0.0751
H143 H 0.0535 0.7881 -0.1045
H144 H 0.0499 0.7205 -0.0744
N24 N 0.24384(13) 0.75829(18) 0.37022(10)
C97 C 0.29363(17) 0.6912(2) 0.38649(13)
H145 H 0.2951 0.6553 0.4091
H146 H 0.2791 0.6575 0.3587
C98 C 0.18054(16) 0.7155(2) 0.34911(13)
H147 H 0.1870 0.6793 0.3737
H148 H 0.1697 0.6801 0.3229
C99 C 0.36132(17) 0.7217(2) 0.40990(14)
H149 H 0.3791 0.7477 0.4406
H150 H 0.3596 0.7637 0.3895
C100 C 0.29808(18) 0.8224(2) 0.49404(14)
H151 H 0.2930 0.7951 0.5158
H152 H 0.2743 0.8749 0.4841
C101 C 0.12291(17) 0.7706(2) 0.33026(14)
H153 H 0.1324 0.8058 0.3562
H154 H 0.1150 0.8066 0.3051
C102 C 0.26835(19) 0.7688(2) 0.45065(14)
H155 H 0.2245 0.7519 0.4383
H156 H 0.2948 0.7187 0.4600
C103 C 0.26373(18) 0.8120(2) 0.41155(14)
H157 H 0.2322 0.8573 0.3992
H158 H 0.3063 0.8366 0.4255
C104 C 0.23820(19) 0.8127(2) 0.33348(14)
H159 H 0.2780 0.8459 0.3496
H160 H 0.2015 0.8508 0.3200
C105 C 0.47389(18) 0.6825(2) 0.44162(15)
H161 H 0.4724 0.7236 0.4213
H162 H 0.5005 0.6361 0.4460
H163 H 0.4927 0.7068 0.4725
C106 C 0.40577(17) 0.6529(2) 0.41842(14)
H164 H 0.3877 0.6267 0.3877
H165 H 0.4076 0.6111 0.4390
C107 C 0.00477(18) 0.7718(2) 0.29322(14)
H166 H 0.0139 0.8028 0.3200
H167 H -0.0328 0.7363 0.2800
H168 H -0.0045 0.8098 0.2688
C108 C 0.36960(18) 0.8401(2) 0.52062(14)
H169 H 0.3933 0.7883 0.5297
H170 H 0.3867 0.8721 0.5492
H171 H 0.3747 0.8711 0.5001
C109 C 0.06312(17) 0.7197(2) 0.31028(14)
H172 H 0.0723 0.6815 0.3350
H173 H 0.0528 0.6866 0.2835
C110 C 0.2280(3) 0.7650(3) 0.29267(15)
C111 C 0.2209(4) 0.8193(5) 0.2556(3)
H174 H 0.2304 0.7875 0.2373
H175 H 0.2517 0.8656 0.2711
C112 C 0.1512(4) 0.8516(5) 0.2222(3)
H176 H 0.1209 0.8055 0.2094
H177 H 0.1443 0.8819 0.1960
H178 H 0.1438 0.8881 0.2398
C113? C 0.1971(9) 0.8483(12) 0.2560(7)
H179? H 0.1631 0.8745 0.2555
H180? H 0.2317 0.8890 0.2674
C114? C 0.1700(7) 0.8197(10) 0.2087(6)
H181? H 0.1300 0.7893 0.1951
H182? H 0.2012 0.7838 0.2108
H183? H 0.1605 0.8667 0.1885
loop_
_geom_bond_atom_site_label_1
_geom_bond_atom_site_label_2
_geom_bond_site_symmetry_1
_geom_bond_site_symmetry_2
Cl1 C11 1_555 1_555
S1 C3 1_555 1_555
O1 N5 1_555 1_555
O2 N5 1_555 1_555
N1 H1 1_555 1_555
N2 H2 1_555 1_555
N3 N2 1_555 1_555
N4 C2 1_555 1_555
N5 C9 1_555 1_555
C1 H3 1_555 1_555
C2 N2 1_555 1_555
C3 N1 1_555 1_555
C4 C1 1_555 1_555
H4 C4 1_555 1_555
C5 N1 1_555 1_555
C6 C2 1_555 1_555
H5 C6 1_555 1_555
C7 H6 1_555 1_555
C8 C5 1_555 1_555
H7 C8 1_555 1_555
C9 C4 1_555 1_555
C10 C6 1_555 1_555
H8 C10 1_555 1_555
C11 N4 1_555 1_555
C12 C10 1_555 1_555
H9 C12 1_555 1_555
Cl2 C24 1_555 1_555
S2 C17 1_555 1_555
O3 N10 1_555 1_555
O4 N10 1_555 1_555
N6 C14 1_555 1_555
N7 H10 1_555 1_555
N8 H11 1_555 1_555
N9 N8 1_555 1_555
N10 C13 1_555 1_555
C13 C15 1_555 1_555
C14 N8 1_555 1_555
C15 H12 1_555 1_555
C16 H13 1_555 1_555
C17 N7 1_555 1_555
C18 N7 1_555 1_555
C19 C14 1_555 1_555
H14 C19 1_555 1_555
C20 H15 1_555 1_555
C21 C15 1_555 1_555
H16 C21 1_555 1_555
C22 C13 1_555 1_555
H17 C22 1_555 1_555
C23 C19 1_555 1_555
H18 C23 1_555 1_555
C24 N6 1_555 1_555
Cl3 C36 1_555 1_555
S3 C28 1_555 1_555
O5 N15 1_555 1_555
O6 N15 1_555 1_555
N11 H19 1_555 1_555
N12 C29 1_555 1_555
N13 N14 1_555 1_555
N14 H20 1_555 1_555
N15 C27 1_555 1_555
C25 N11 1_555 1_555
C26 C25 1_555 1_555
H21 C26 1_555 1_555
C27 C32 1_555 1_555
C28 N11 1_555 1_555
C29 N14 1_555 1_555
C30 H22 1_555 1_555
C31 C30 1_555 1_555
H23 C31 1_555 1_555
C32 H24 1_555 1_555
C33 C26 1_555 1_555
H25 C33 1_555 1_555
C34 C29 1_555 1_555
H26 C34 1_555 1_555
C35 C25 1_555 1_555
H27 C35 1_555 1_555
C36 N12 1_555 1_555
Cl4 C45 1_555 1_555
S4 C37 1_555 1_555
O7 N20 1_555 1_555
O8 N20 1_555 1_555
N16 H28 1_555 1_555
N17 H29 1_555 1_555
N18 C38 1_555 1_555
N19 N17 1_555 1_555
N20 C42 1_555 1_555
C37 N16 1_555 1_555
C38 N17 1_555 1_555
C39 C38 1_555 1_555
H30 C39 1_555 1_555
C40 H31 1_555 1_555
C41 N16 1_555 1_555
C42 C40 1_555 1_555
C43 C40 1_555 1_555
H32 C43 1_555 1_555
C44 C39 1_555 1_555
H33 C44 1_555 1_555
C45 N18 1_555 1_555
C46 C42 1_555 1_555
H34 C46 1_555 1_555
C47 C41 1_555 1_555
H35 C47 1_555 1_555
C48 C44 1_555 1_555
H36 C48 1_555 1_555
N21 C49 1_555 1_555
C49 H37 1_555 1_555
H38 C49 1_555 1_555
C50 N21 1_555 1_555
H39 C50 1_555 1_555
H40 C50 1_555 1_555
C51 N21 1_555 1_555
H41 C51 1_555 1_555
H42 C51 1_555 1_555
C52 H43 1_555 1_555
H44 C52 1_555 1_555
C53 C49 1_555 1_555
H45 C53 1_555 1_555
H46 C53 1_555 1_555
C54 C50 1_555 1_555
H47 C54 1_555 1_555
H48 C54 1_555 1_555
C55 C52 1_555 1_555
H49 C55 1_555 1_555
H50 C55 1_555 1_555
C56 H51 1_555 1_555
H52 C56 1_555 1_555
H53 C56 1_555 1_555
C57 C53 1_555 1_555
H54 C57 1_555 1_555
H55 C57 1_555 1_555
C58 C54 1_555 1_555
H56 C58 1_555 1_555
H57 C58 1_555 1_555
C59 C51 1_555 1_555
H58 C59 1_555 1_555
H59 C59 1_555 1_555
C60 C59 1_555 1_555
H60 C60 1_555 1_555
H61 C60 1_555 1_555
C61 C60 1_555 1_555
H62 C61 1_555 1_555
H63 C61 1_555 1_555
H64 C61 1_555 1_555
C62 C57 1_555 1_555
H65 C62 1_555 1_555
H66 C62 1_555 1_555
H67 C62 1_555 1_555
C63 C55 1_555 1_555
H68 C63 1_555 1_555
H69 C63 1_555 1_555
H70 C63 1_555 1_555
C64 N21 1_555 1_555
H71 C64 1_555 1_555
H72 C64 1_555 1_555
N22 C65 1_555 1_555
C65 H73 1_555 1_555
H74 C65 1_555 1_555
C66 N22 1_555 1_555
H75 C66 1_555 1_555
H76 C66 1_555 1_555
C67 N22 1_555 1_555
H77 C67 1_555 1_555
H78 C67 1_555 1_555
C68 C67 1_555 1_555
H79 C68 1_555 1_555
H80 C68 1_555 1_555
C69 N22 1_555 1_555
H81 C69 1_555 1_555
H82 C69 1_555 1_555
C70 H83 1_555 1_555
H84 C70 1_555 1_555
C71 C66 1_555 1_555
H85 C71 1_555 1_555
H86 C71 1_555 1_555
C72 C69 1_555 1_555
H87 C72 1_555 1_555
H88 C72 1_555 1_555
C73 C65 1_555 1_555
H89 C73 1_555 1_555
H90 C73 1_555 1_555
C74 C68 1_555 1_555
H91 C74 1_555 1_555
H92 C74 1_555 1_555
C75 C71 1_555 1_555
H93 C75 1_555 1_555
H94 C75 1_555 1_555
C76 C74 1_555 1_555
H95 C76 1_555 1_555
H96 C76 1_555 1_555
H97 C76 1_555 1_555
C77 C70 1_555 1_555
H98 C77 1_555 1_555
H99 C77 1_555 1_555
H100 C77 1_555 1_555
C78 C75 1_555 1_555
H101 C78 1_555 1_555
H102 C78 1_555 1_555
H103 C78 1_555 1_555
C79 C72 1_555 1_555
H104 C79 1_555 1_555
H105 C79 1_555 1_555
C80 C79 1_555 1_555
H106 C80 1_555 1_555
H107 C80 1_555 1_555
H108 C80 1_555 1_555
N23 C81 1_555 1_555
C81 H109 1_555 1_555
H110 C81 1_555 1_555
C82 N23 1_555 1_555
H111 C82 1_555 1_555
H112 C82 1_555 1_555
C83 N23 1_555 1_555
H113 C83 1_555 1_555
H114 C83 1_555 1_555
C84 H115 1_555 1_555
H116 C84 1_555 1_555
C85 N23 1_555 1_555
H117 C85 1_555 1_555
H118 C85 1_555 1_555
C86 C83 1_555 1_555
H119 C86 1_555 1_555
H120 C86 1_555 1_555
C87 C81 1_555 1_555
H121 C87 1_555 1_555
H122 C87 1_555 1_555
C88 C85 1_555 1_555
H123 C88 1_555 1_555
H124 C88 1_555 1_555
C89 C88 1_555 1_555
H125 C89 1_555 1_555
H126 C89 1_555 1_555
C90 C82 1_555 1_555
H127 C90 1_555 1_555
H128 C90 1_555 1_555
C91 C86 1_555 1_555
H129 C91 1_555 1_555
H130 C91 1_555 1_555
C92 C84 1_555 1_555
H131 C92 1_555 1_555
H132 C92 1_555 1_555
H133 C92 1_555 1_555
C93 C91 1_555 1_555
H134 C93 1_555 1_555
H135 C93 1_555 1_555
H136 C93 1_555 1_555
C94 C89 1_555 1_555
H137 C94 1_555 1_555
H138 C94 1_555 1_555
H139 C94 1_555 1_555
C95 C90 1_555 1_555
H140 C95 1_555 1_555
H141 C95 1_555 1_555
C96 C95 1_555 1_555
H142 C96 1_555 1_555
H143 C96 1_555 1_555
H144 C96 1_555 1_555
N24 C97 1_555 1_555
C97 H145 1_555 1_555
H146 C97 1_555 1_555
C98 N24 1_555 1_555
H147 C98 1_555 1_555
H148 C98 1_555 1_555
C99 C97 1_555 1_555
H149 C99 1_555 1_555
H150 C99 1_555 1_555
C100 H151 1_555 1_555
H152 C100 1_555 1_555
C101 C98 1_555 1_555
H153 C101 1_555 1_555
H154 C101 1_555 1_555
C102 C100 1_555 1_555
H155 C102 1_555 1_555
H156 C102 1_555 1_555
C103 N24 1_555 1_555
H157 C103 1_555 1_555
H158 C103 1_555 1_555
C104 N24 1_555 1_555
H159 C104 1_555 1_555
H160 C104 1_555 1_555
C105 H161 1_555 1_555
H162 C105 1_555 1_555
H163 C105 1_555 1_555
C106 C99 1_555 1_555
H164 C106 1_555 1_555
H165 C106 1_555 1_555
C107 H166 1_555 1_555
H167 C107 1_555 1_555
H168 C107 1_555 1_555
C108 C100 1_555 1_555
H169 C108 1_555 1_555
H170 C108 1_555 1_555
H171 C108 1_555 1_555
C109 C101 1_555 1_555
H172 C109 1_555 1_555
H173 C109 1_555 1_555
C110 C104 1_555 1_555
C111 C110 1_555 1_555
H174 C111 1_555 1_555
H175 C111 1_555 1_555
C112 C111 1_555 1_555
H176 C112 1_555 1_555
H177 C112 1_555 1_555
H178 C112 1_555 1_555
N3 C3 1_555 1_555
C1 C5 1_555 1_555
C7 C8 1_555 1_555
C7 C9 1_555 1_555
C11 C12 1_555 1_555
N9 C17 1_555 1_555
C16 C18 1_555 1_555
C16 C22 1_555 1_555
C18 C21 1_555 1_555
C20 C23 1_555 1_555
C20 C24 1_555 1_555
N13 C28 1_555 1_555
C27 C33 1_555 1_555
C30 C34 1_555 1_555
C31 C36 1_555 1_555
C32 C35 1_555 1_555
N19 C37 1_555 1_555
C41 C43 1_555 1_555
C45 C48 1_555 1_555
C46 C47 1_555 1_555
C52 C64 1_555 1_555
C56 C58 1_555 1_555
C70 C73 1_555 1_555
C84 C87 1_555 1_555
C102 C103 1_555 1_555
C105 C106 1_555 1_555
C107 C109 1_555 1_555

#END
