
#######################################################################
#
#                 Cambridge Crystallographic Data Centre
#                                CCDC 
#
#######################################################################
#
# If this CIF has been generated from an entry in the Cambridge 
# Structural Database, then it will include bibliographic, chemical, 
# crystal, experimental, refinement or atomic coordinate data resulting 
# from the CCDC's data processing and validation procedures.
#
#######################################################################

data_QAXKAE
_chemical_formula_moiety         'C26 H22 N2 O4 S1,0.5(C4 H8 O2)'
_chemical_name_systematic        
'4-methyl-10-((4-methylphenyl)sulfonyl)-2-phenyl-3a,4,9,9a-tetrahydro-1H-4,9-epiminobenzo[f]isoindole-1,3(2H)-dione 1,4-dioxane solvate'
_symmetry_cell_setting           triclinic
_symmetry_space_group_name_H-M   'P -1'
_symmetry_Int_Tables_number      2
_space_group_name_Hall           '-P 1'
loop_
_symmetry_equiv_pos_site_id
_symmetry_equiv_pos_as_xyz
1 x,y,z
2 -x,-y,-z
_cell_length_a                   10.430(5)
_cell_length_b                   11.137(5)
_cell_length_c                   12.934(5)
_cell_angle_alpha                68.18(3)
_cell_angle_beta                 67.74(3)
_cell_angle_gamma                70.59(3)
_cell_volume                     1258.34
_cell_formula_units_Z            2
loop_
_atom_site_label
_atom_site_type_symbol
_atom_site_fract_x
_atom_site_fract_y
_atom_site_fract_z
S1 S 0.15945(13) 0.19212(10) 0.50112(9)
N1 N 0.0559(4) 0.6835(3) 0.1512(3)
O1 O 0.0323(3) 0.1453(3) 0.5656(2)
N2 N 0.1102(3) 0.3429(3) 0.4207(3)
O2 O 0.2421(4) 0.2053(3) 0.5613(3)
O3 O 0.2564(4) 0.7096(3) 0.1705(3)
O4 O -0.1503(3) 0.6237(3) 0.1850(3)
C1 C 0.1381(4) 0.3629(3) 0.2273(3)
C2 C 0.0225(4) 0.3797(4) 0.3389(3)
C3 C 0.2175(4) 0.4244(4) 0.3419(3)
H1 H 0.2957 0.4148 0.3708
C4 C 0.2585(4) 0.3878(4) 0.2302(3)
C5 C 0.1544(5) 0.6597(4) 0.2098(4)
C6 C 0.1388(5) 0.3362(4) 0.1316(4)
H2 H 0.0575 0.3226 0.1280
C7 C -0.0516(5) 0.6155(4) 0.2166(4)
C8 C 0.3821(5) 0.3828(4) 0.1400(4)
H3 H 0.4623 0.3997 0.1426
C9 C 0.1120(4) 0.5627(4) 0.3260(3)
H4 H 0.0928 0.6004 0.3892
C10 C -0.0217(4) 0.5318(4) 0.3287(3)
H5 H -0.1019 0.5512 0.3953
C11 C 0.0703(6) 0.7597(5) 0.0323(5)
C12 C 0.2701(5) 0.0903(4) 0.4106(4)
C13 C 0.2628(6) 0.3299(5) 0.0409(4)
H6 H 0.2652 0.3107 -0.0240
C14 C 0.4405(6) -0.0503(5) 0.2491(4)
C15 C 0.3837(6) 0.3518(5) 0.0451(4)
H7 H 0.4667 0.3456 -0.0163
C16 C -0.1007(5) 0.3153(5) 0.3769(4)
H8 H -0.0653 0.2224 0.3825
H9 H -0.1531 0.3562 0.3209
H10 H -0.1618 0.3263 0.4515
C17 C 0.2129(5) 0.0237(4) 0.3749(4)
H11 H 0.1162 0.0252 0.4047
C18 C 0.2984(6) -0.0453(5) 0.2947(5)
H12 H 0.2580 -0.0898 0.2711
C19 C 0.4162(5) 0.0820(5) 0.3696(5)
H13 H 0.4573 0.1238 0.3952
C20 C -0.0370(7) 0.8648(5) 0.0032(5)
H14 H -0.1195 0.8893 0.0597
C21 C 0.4989(6) 0.0105(5) 0.2903(5)
H15 H 0.5967 0.0031 0.2641
C22 C 0.1916(7) 0.7232(6) -0.0516(5)
H16 H 0.2627 0.6514 -0.0298
C23 C 0.5322(6) -0.1208(6) 0.1580(5)
H17 H 0.6021 -0.1930 0.1880
H18 H 0.5789 -0.0599 0.0901
H19 H 0.4742 -0.1546 0.1377
C24 C -0.0169(8) 0.9350(6) -0.1178(6)
H20 H -0.0868 1.0063 -0.1424
C25 C 0.1056(8) 0.8955(6) -0.1951(6)
H21 H 0.1190 0.9438 -0.2730
C26 C 0.2091(8) 0.7919(7) -0.1680(5)
H22 H 0.2902 0.7668 -0.2253
O5 O 0.3976(5) 0.4756(5) 0.4704(4)
C27 C 0.4857(8) 0.5655(7) 0.3900(6)
H23 H 0.4346 0.6348 0.3382
H24 H 0.5701 0.5185 0.3432
C28 C 0.4732(8) 0.3752(7) 0.5464(6)
H25 H 0.5576 0.3259 0.5015
H26 H 0.4140 0.3138 0.6012
O5A O 0.6024(5) 0.5244(5) 0.5296(4)
C27A C 0.5143(8) 0.4345(7) 0.6100(6)
H23A H 0.5654 0.3652 0.6618
H24A H 0.4299 0.4815 0.6568
C28A C 0.5268(8) 0.6248(7) 0.4536(6)
H25A H 0.4424 0.6741 0.4985
H26A H 0.5860 0.6862 0.3988
H27? H 0.0504 0.3920 0.4779
loop_
_geom_bond_atom_site_label_1
_geom_bond_atom_site_label_2
_geom_bond_site_symmetry_1
_geom_bond_site_symmetry_2
S1 O1 1_555 1_555
N1 C5 1_555 1_555
N2 S1 1_555 1_555
O2 S1 1_555 1_555
O3 C5 1_555 1_555
O4 C7 1_555 1_555
C1 C2 1_555 1_555
C2 N2 1_555 1_555
C3 N2 1_555 1_555
H1 C3 1_555 1_555
C4 C1 1_555 1_555
C5 C9 1_555 1_555
C6 C1 1_555 1_555
H2 C6 1_555 1_555
C7 N1 1_555 1_555
C8 C4 1_555 1_555
H3 C8 1_555 1_555
C9 C3 1_555 1_555
H4 C9 1_555 1_555
C10 C2 1_555 1_555
H5 C10 1_555 1_555
C11 N1 1_555 1_555
C12 S1 1_555 1_555
C13 C6 1_555 1_555
H6 C13 1_555 1_555
C14 C18 1_555 1_555
C15 C8 1_555 1_555
H7 C15 1_555 1_555
C16 C2 1_555 1_555
H8 C16 1_555 1_555
H9 C16 1_555 1_555
H10 C16 1_555 1_555
C17 C12 1_555 1_555
H11 C17 1_555 1_555
C18 C17 1_555 1_555
H12 C18 1_555 1_555
C19 C12 1_555 1_555
H13 C19 1_555 1_555
C20 C11 1_555 1_555
H14 C20 1_555 1_555
C21 C14 1_555 1_555
H15 C21 1_555 1_555
C22 C11 1_555 1_555
H16 C22 1_555 1_555
C23 C14 1_555 1_555
H17 C23 1_555 1_555
H18 C23 1_555 1_555
H19 C23 1_555 1_555
C24 C20 1_555 1_555
H20 C24 1_555 1_555
C25 C24 1_555 1_555
H21 C25 1_555 1_555
C26 C22 1_555 1_555
H22 C26 1_555 1_555
O5 C27 1_555 1_555
C27 H23 1_555 1_555
H24 C27 1_555 1_555
C28 O5 1_555 1_555
H25 C28 1_555 1_555
H26 C28 1_555 1_555
O5A C27A 1_555 1_555
C27A C28 1_555 1_555
H23A C27A 1_555 1_555
H24A C27A 1_555 1_555
C28A C27 1_555 1_555
H25A C28A 1_555 1_555
H26A C28A 1_555 1_555
C3 C4 1_555 1_555
C7 C10 1_555 1_555
C9 C10 1_555 1_555
C13 C15 1_555 1_555
C19 C21 1_555 1_555
C25 C26 1_555 1_555
O5A C28A 1_555 1_555

#END
