
#######################################################################
#
#                 Cambridge Crystallographic Data Centre
#                                CCDC 
#
#######################################################################
#
# If this CIF has been generated from an entry in the Cambridge 
# Structural Database, then it will include bibliographic, chemical, 
# crystal, experimental, refinement or atomic coordinate data resulting 
# from the CCDC's data processing and validation procedures.
#
#######################################################################

data_QAXKEI
_chemical_formula_moiety         'C12 H9 F1 N4'
_chemical_name_systematic        
N-(4-fluorophenyl)[1,2,4]triazolo[4,3-a]pyridin-3-amine
_symmetry_cell_setting           monoclinic
_symmetry_space_group_name_H-M   'P 21'
_symmetry_Int_Tables_number      4
_space_group_name_Hall           'P 2yb'
loop_
_symmetry_equiv_pos_site_id
_symmetry_equiv_pos_as_xyz
1 x,y,z
2 -x,1/2+y,-z
_cell_length_a                   8.5773(6)
_cell_length_b                   5.9282(4)
_cell_length_c                   10.3099(8)
_cell_angle_alpha                90
_cell_angle_beta                 110.193(2)
_cell_angle_gamma                90
_cell_volume                     492.015
_exptl_crystal_colour            colorless
_exptl_crystal_description       Plate
_cell_formula_units_Z            2
loop_
_atom_site_label
_atom_site_type_symbol
_atom_site_fract_x
_atom_site_fract_y
_atom_site_fract_z
F1 F 0.41042(8) 0.43170(13) 0.44632(7)
N1 N -0.18186(11) 0.74547(15) 0.82964(9)
N2 N -0.03946(11) 1.06512(16) 0.88205(10)
N3 N 0.05373(11) 0.90659(17) 0.84010(10)
N4 N 0.00906(11) 0.51782(16) 0.76365(10)
H1 H -0.0013(18) 0.395(3) 0.8084(16)
C1 C -0.31459(13) 0.60180(19) 0.80765(11)
H2 H -0.3135 0.4545 0.7718
C2 C -0.44680(13) 0.6764(2) 0.83861(11)
H3 H -0.5406 0.5812 0.8231
C3 C -0.44647(14) 0.8972(2) 0.89444(12)
H4 H -0.5391 0.9457 0.9176
C4 C -0.31539(14) 1.0389(2) 0.91486(11)
H5 H -0.3151 1.1850 0.9528
C5 C -0.17866(13) 0.96322(18) 0.87804(11)
C6 C -0.03238(13) 0.71906(19) 0.80978(11)
C7 C 0.11638(12) 0.50398(18) 0.68627(10)
C8 C 0.20359(14) 0.30360(18) 0.69062(11)
H6 H 0.1959 0.1845 0.7498
C9 C 0.30183(14) 0.27743(19) 0.60854(12)
H7 H 0.3607 0.1410 0.6103
C10 C 0.31165(13) 0.4538(2) 0.52485(11)
C11 C 0.22744(13) 0.65350(19) 0.51838(11)
H8 H 0.2365 0.7717 0.4592
C12 C 0.12870(13) 0.67954(19) 0.59998(11)
H9 H 0.0699 0.8164 0.5969
loop_
_geom_bond_atom_site_label_1
_geom_bond_atom_site_label_2
_geom_bond_site_symmetry_1
_geom_bond_site_symmetry_2
F1 C10 1_555 1_555
N1 C1 1_555 1_555
N2 N3 1_555 1_555
N3 C6 1_555 1_555
N4 H1 1_555 1_555
C1 H2 1_555 1_555
C2 C1 1_555 1_555
H3 C2 1_555 1_555
C3 C2 1_555 1_555
H4 C3 1_555 1_555
C4 C3 1_555 1_555
H5 C4 1_555 1_555
C5 N1 1_555 1_555
C6 N1 1_555 1_555
C7 N4 1_555 1_555
C8 C7 1_555 1_555
H6 C8 1_555 1_555
C9 C8 1_555 1_555
H7 C9 1_555 1_555
C10 C9 1_555 1_555
C11 C10 1_555 1_555
H8 C11 1_555 1_555
C12 C7 1_555 1_555
H9 C12 1_555 1_555
N2 C5 1_555 1_555
N4 C6 1_555 1_555
C4 C5 1_555 1_555
C11 C12 1_555 1_555

#END
