
#######################################################################
#
#                 Cambridge Crystallographic Data Centre
#                                CCDC 
#
#######################################################################
#
# If this CIF has been generated from an entry in the Cambridge 
# Structural Database, then it will include bibliographic, chemical, 
# crystal, experimental, refinement or atomic coordinate data resulting 
# from the CCDC's data processing and validation procedures.
#
#######################################################################

data_QAXKUV
_chemical_formula_moiety         'C14 H9 F4 1+,As1 F6 1-'
_chemical_name_systematic        
'Fluoro(phenyl)(3-trifluoromethylphenyl)carbenium hexafluoroarsenate'
_symmetry_cell_setting           triclinic
_symmetry_space_group_name_H-M   'P -1'
_symmetry_Int_Tables_number      2
_space_group_name_Hall           '-P 1'
loop_
_symmetry_equiv_pos_site_id
_symmetry_equiv_pos_as_xyz
1 x,y,z
2 -x,-y,-z
_cell_length_a                   7.8612(14)
_cell_length_b                   8.2778(15)
_cell_length_c                   13.1942(20)
_cell_angle_alpha                83.157(9)
_cell_angle_beta                 85.342(10)
_cell_angle_gamma                62.915(10)
_cell_volume                     758.633
_exptl_crystal_colour            white
_cell_formula_units_Z            2
loop_
_atom_site_label
_atom_site_type_symbol
_atom_site_fract_x
_atom_site_fract_y
_atom_site_fract_z
As1 As 0.0167(1) 0.4363(1) 0.2282(1)
F1 F 0.2448(4) 0.2645(1) 0.2530(2)
F2 F -0.2115(5) 0.6037(4) 0.2050(3)
F3 F 0.0781(6) 0.4458(5) 0.1011(2)
F4 F 0.0888(5) 0.5975(4) 0.2440(3)
F5 F -0.0440(6) 0.4255(5) 0.3560(3)
F6 F -0.0539(5) 0.2722(5) 0.2121(3)
F7 F -0.4735(4) 1.4004(4) 0.2239(2)
F8 F -0.2553(6) 1.3786(5) 0.5584(3)
F9 F -0.1408(6) 1.1246(5) 0.6532(3)
F10 F -0.4427(5) 1.2868(5) 0.6434(3)
C1 C -0.3830(7) 1.2218(6) 0.2246(4)
C2 C -0.2769(8) 1.2295(7) 0.5883(4)
C3 C -0.3466(7) 1.1537(7) 0.1273(4)
C4 C -0.1979(7) 0.9793(7) 0.1117(4)
C5 C -0.1677(8) 0.9160(7) 0.0176(4)
C6 C -0.2810(9) 1.0257(8) -0.0632(4)
C7 C -0.4267(8) 1.2002(8) -0.0488(4)
C8 C -0.4591(8) 1.2647(7) 0.0453(4)
C9 C -0.3348(7) 1.1277(6) 0.3243(4)
C10 C -0.3275(7) 1.2211(6) 0.4045(4)
C11 C -0.2814(7) 1.1315(7) 0.5006(4)
C12 C -0.2430(8) 0.9484(7) 0.5187(4)
C13 C -0.2546(8) 0.8562(7) 0.4401(4)
C14 C -0.3022(7) 0.9450(6) 0.3437(4)
H1 H -0.1233 0.9103 0.1634
H2 H -0.0838 0.8140 0.0087
H3 H -0.2592 0.9821 -0.1283
H4 H -0.5006 1.2716 -0.1025
H5 H -0.5400 1.3630 0.0535
H6 H -0.3507 1.3288 0.3943
H7 H -0.2081 0.8853 0.5865
H8 H -0.2330 0.7482 0.4512
H9 H -0.3104 0.8971 0.3025
loop_
_geom_bond_atom_site_label_1
_geom_bond_atom_site_label_2
_geom_bond_site_symmetry_1
_geom_bond_site_symmetry_2
As1 F1 1_555 1_555
F2 As1 1_555 1_555
F3 As1 1_555 1_555
F4 As1 1_555 1_555
F5 As1 1_555 1_555
F6 As1 1_555 1_555
F7 C1 1_555 1_555
F8 C2 1_555 1_555
F9 C2 1_555 1_555
F10 C2 1_555 1_555
C1 C3 1_555 1_555
C2 C11 1_555 1_555
C3 C4 1_555 1_555
C4 C5 1_555 1_555
C5 C6 1_555 1_555
C6 C7 1_555 1_555
C7 C8 1_555 1_555
C8 C3 1_555 1_555
C9 C1 1_555 1_555
C10 C9 1_555 1_555
C11 C10 1_555 1_555
C12 C11 1_555 1_555
C13 C12 1_555 1_555
C14 C9 1_555 1_555
H1 C4 1_555 1_555
H2 C5 1_555 1_555
H3 C6 1_555 1_555
H4 C7 1_555 1_555
H5 C8 1_555 1_555
H6 C10 1_555 1_555
H7 C12 1_555 1_555
H8 C13 1_555 1_555
H9 C14 1_555 1_555
C13 C14 1_555 1_555

#END
