
#######################################################################
#
#                 Cambridge Crystallographic Data Centre
#                                CCDC 
#
#######################################################################
#
# If this CIF has been generated from an entry in the Cambridge 
# Structural Database, then it will include bibliographic, chemical, 
# crystal, experimental, refinement or atomic coordinate data resulting 
# from the CCDC's data processing and validation procedures.
#
#######################################################################

data_QAXLOS
_chemical_formula_moiety         'C46 H46 N8 O8 Si1'
_chemical_name_systematic        
bis(3,6,9-Trioxadecan-1-olato)-(phthalocyaninato)-silicon(iv)
_symmetry_cell_setting           triclinic
_symmetry_space_group_name_H-M   'P -1'
_symmetry_Int_Tables_number      2
_space_group_name_Hall           '-P 1'
loop_
_symmetry_equiv_pos_site_id
_symmetry_equiv_pos_as_xyz
1 x,y,z
2 -x,-y,-z
_cell_length_a                   7.9377(8)
_cell_length_b                   10.2103(11)
_cell_length_c                   13.2164(14)
_cell_angle_alpha                94.452(2)
_cell_angle_beta                 94.984(2)
_cell_angle_gamma                105.604(2)
_cell_volume                     1022.05
_exptl_crystal_colour            'dark red'
_exptl_crystal_description       block
_cell_formula_units_Z            1
loop_
_atom_site_label
_atom_site_type_symbol
_atom_site_fract_x
_atom_site_fract_y
_atom_site_fract_z
C1 C 0.22238(15) 0.60119(11) 0.58665(9)
C2 C 0.14049(15) 0.60899(11) 0.67996(9)
C3 C 0.22947(15) 0.55139(11) 0.75199(9)
C4 C 0.36179(15) 0.50654(11) 0.70052(9)
C5 C -0.00014(16) 0.65918(12) 0.70211(9)
H1 H -0.0600 0.6960 0.6532
C6 C -0.04678(17) 0.65171(13) 0.80078(10)
H2 H -0.1401 0.6843 0.8185
C7 C 0.04385(17) 0.59610(13) 0.87449(9)
H3 H 0.0102 0.5937 0.9401
C8 C 0.18248(17) 0.54473(12) 0.85137(9)
H4 H 0.2419 0.5073 0.9001
C9 C 0.24609(15) 0.64272(11) 0.41844(9)
C10 C 0.19502(15) 0.69979(11) 0.32714(9)
C11 C 0.30349(15) 0.67541(11) 0.25440(9)
C12 C 0.41737(15) 0.60194(11) 0.30264(9)
C13 C 0.06838(16) 0.76912(12) 0.30653(9)
H5 H -0.0054 0.7836 0.3546
C14 C 0.05802(18) 0.81536(13) 0.21075(10)
H6 H -0.0235 0.8632 0.1946
C15 C 0.16765(18) 0.79168(13) 0.13769(9)
H7 H 0.1576 0.8247 0.0745
C16 C 0.29068(17) 0.72008(12) 0.15771(9)
H8 H 0.3615 0.7027 0.1088
C17 C 0.35281(16) 0.22139(11) 0.43120(9)
H9 H 0.4660 0.2113 0.4576
H10 H 0.3445 0.2116 0.3572
C18 C 0.20646(17) 0.11203(12) 0.46649(10)
H11 H 0.0948 0.1300 0.4469
H12 H 0.2036 0.0241 0.4318
C19 C 0.34046(19) 0.02683(14) 0.60490(10)
H13 H 0.4605 0.0739 0.5950
H14 H 0.3072 -0.0617 0.5648
C20 C 0.32637(18) 0.00951(13) 0.71622(10)
H15 H 0.3550 0.0981 0.7560
H16 H 0.2076 -0.0409 0.7259
C21 C 0.44126(19) -0.08972(14) 0.85096(10)
H17 H 0.3250 -0.1451 0.8610
H18 H 0.4677 -0.0046 0.8950
C22 C 0.57681(18) -0.16480(14) 0.87566(10)
H19 H 0.5553 -0.2465 0.8282
H20 H 0.6939 -0.1068 0.8703
C23 C 0.6753(2) -0.2804(2) 1.00529(13)
H21 H 0.6615 -0.3018 1.0741
H22 H 0.7953 -0.2305 1.0011
H23 H 0.6456 -0.3636 0.9602
N1 N 0.35628(13) 0.54012(9) 0.60113(7)
N2 N 0.17004(13) 0.64984(10) 0.50313(7)
N3 N 0.38126(13) 0.58572(9) 0.40206(7)
N4 N 0.46565(13) 0.44131(10) 0.74611(7)
O1 O 0.33918(11) 0.35156(8) 0.46638(6)
O2 O 0.22519(13) 0.10467(9) 0.57410(7)
O3 O 0.44712(14) -0.06342(10) 0.74746(7)
O4 O 0.56326(15) -0.20036(11) 0.97663(7)
Si1 Si 0.5000 0.5000 0.5000
C1A C 0.77762(15) 0.39881(11) 0.41335(9)
C2A C 0.85951(15) 0.39101(11) 0.32004(9)
C3A C 0.77053(15) 0.44861(11) 0.24801(9)
C4A C 0.63821(15) 0.49346(11) 0.29948(9)
C5A C 1.00014(16) 0.34082(12) 0.29789(9)
H1A H 1.0600 0.3040 0.3468
C6A C 1.04678(17) 0.34829(13) 0.19922(10)
H2A H 1.1401 0.3157 0.1815
C7A C 0.95615(17) 0.40390(13) 0.12551(9)
H3A H 0.9898 0.4063 0.0599
C8A C 0.81752(17) 0.45527(12) 0.14863(9)
H4A H 0.7581 0.4927 0.0999
C9A C 0.75391(15) 0.35728(11) 0.58156(9)
C10A C 0.80498(15) 0.30021(11) 0.67286(9)
C11A C 0.69651(15) 0.32459(11) 0.74560(9)
C12A C 0.58263(15) 0.39806(11) 0.69736(9)
C13A C 0.93162(16) 0.23088(12) 0.69347(9)
H5A H 1.0054 0.2164 0.6454
C14A C 0.94198(18) 0.18464(13) 0.78925(10)
H6A H 1.0235 0.1368 0.8054
C15A C 0.83235(18) 0.20832(13) 0.86231(9)
H7A H 0.8424 0.1753 0.9255
C16A C 0.70932(17) 0.27992(12) 0.84229(9)
H8A H 0.6385 0.2973 0.8912
C17A C 0.64719(16) 0.77861(11) 0.56880(9)
H9A H 0.5340 0.7887 0.5424
H10A H 0.6555 0.7884 0.6428
C18A C 0.79354(17) 0.88797(12) 0.53351(10)
H11A H 0.9052 0.8700 0.5531
H12A H 0.7964 0.9759 0.5682
C19A C 0.65954(19) 0.97317(14) 0.39510(10)
H13A H 0.5395 0.9261 0.4050
H14A H 0.6928 1.0617 0.4352
C20A C 0.67363(18) 0.99049(13) 0.28378(10)
H15A H 0.6450 0.9019 0.2440
H16A H 0.7924 1.0409 0.2741
C21A C 0.55874(19) 1.08972(14) 0.14904(10)
H17A H 0.6750 1.1451 0.1390
H18A H 0.5323 1.0046 0.1050
C22A C 0.42319(18) 1.16480(14) 0.12434(10)
H19A H 0.4447 1.2465 0.1718
H20A H 0.3061 1.1068 0.1297
C23A C 0.3247(2) 1.2804(2) -0.00529(13)
H21A H 0.3385 1.3018 -0.0741
H22A H 0.2047 1.2305 -0.0011
H23A H 0.3544 1.3636 0.0398
N1A N 0.64372(13) 0.45988(9) 0.39887(7)
N2A N 0.82996(13) 0.35016(10) 0.49687(7)
N3A N 0.61874(13) 0.41428(9) 0.59794(7)
N4A N 0.53435(13) 0.55869(10) 0.25389(7)
O1A O 0.66082(11) 0.64844(8) 0.53362(6)
O2A O 0.77481(13) 0.89533(9) 0.42590(7)
O3A O 0.55288(14) 1.06342(10) 0.25254(7)
O4A O 0.43674(15) 1.20036(11) 0.02337(7)
loop_
_geom_bond_atom_site_label_1
_geom_bond_atom_site_label_2
_geom_bond_site_symmetry_1
_geom_bond_site_symmetry_2
C1 C2 1_555 1_555
C2 C3 1_555 1_555
C3 C4 1_555 1_555
C4 N1 1_555 1_555
C5 C2 1_555 1_555
H1 C5 1_555 1_555
C6 C5 1_555 1_555
H2 C6 1_555 1_555
C7 C6 1_555 1_555
H3 C7 1_555 1_555
C8 C3 1_555 1_555
H4 C8 1_555 1_555
C9 C10 1_555 1_555
C10 C11 1_555 1_555
C11 C12 1_555 1_555
C12 N3 1_555 1_555
C13 C10 1_555 1_555
H5 C13 1_555 1_555
C14 C13 1_555 1_555
H6 C14 1_555 1_555
C15 C14 1_555 1_555
H7 C15 1_555 1_555
C16 C11 1_555 1_555
H8 C16 1_555 1_555
C17 H9 1_555 1_555
H10 C17 1_555 1_555
C18 C17 1_555 1_555
H11 C18 1_555 1_555
H12 C18 1_555 1_555
C19 H13 1_555 1_555
H14 C19 1_555 1_555
C20 C19 1_555 1_555
H15 C20 1_555 1_555
H16 C20 1_555 1_555
C21 H17 1_555 1_555
H18 C21 1_555 1_555
C22 C21 1_555 1_555
H19 C22 1_555 1_555
H20 C22 1_555 1_555
C23 H21 1_555 1_555
H22 C23 1_555 1_555
H23 C23 1_555 1_555
N1 C1 1_555 1_555
N2 C1 1_555 1_555
N3 C9 1_555 1_555
N4 C4 1_555 1_555
O1 C17 1_555 1_555
O2 C18 1_555 1_555
O3 C20 1_555 1_555
O4 C22 1_555 1_555
Si1 N1 1_555 1_555
C1A C2A 1_555 1_555
C2A C3A 1_555 1_555
C3A C4A 1_555 1_555
C4A N1A 1_555 1_555
C5A C2A 1_555 1_555
H1A C5A 1_555 1_555
C6A C5A 1_555 1_555
H2A C6A 1_555 1_555
C7A C6A 1_555 1_555
H3A C7A 1_555 1_555
C8A C3A 1_555 1_555
H4A C8A 1_555 1_555
C9A C10A 1_555 1_555
C10A C11A 1_555 1_555
C11A C12A 1_555 1_555
C12A N4 1_555 1_555
C13A C10A 1_555 1_555
H5A C13A 1_555 1_555
C14A C13A 1_555 1_555
H6A C14A 1_555 1_555
C15A C14A 1_555 1_555
H7A C15A 1_555 1_555
C16A C11A 1_555 1_555
H8A C16A 1_555 1_555
C17A H9A 1_555 1_555
H10A C17A 1_555 1_555
C18A C17A 1_555 1_555
H11A C18A 1_555 1_555
H12A C18A 1_555 1_555
C19A H13A 1_555 1_555
H14A C19A 1_555 1_555
C20A C19A 1_555 1_555
H15A C20A 1_555 1_555
H16A C20A 1_555 1_555
C21A H17A 1_555 1_555
H18A C21A 1_555 1_555
C22A C21A 1_555 1_555
H19A C22A 1_555 1_555
H20A C22A 1_555 1_555
C23A H21A 1_555 1_555
H22A C23A 1_555 1_555
H23A C23A 1_555 1_555
N1A Si1 1_555 1_555
N2A C1A 1_555 1_555
N3A Si1 1_555 1_555
N4A C12 1_555 1_555
O1A Si1 1_555 1_555
O2A C18A 1_555 1_555
O3A C20A 1_555 1_555
O4A C22A 1_555 1_555
C7 C8 1_555 1_555
C9 N2 1_555 1_555
C15 C16 1_555 1_555
C19 O2 1_555 1_555
C21 O3 1_555 1_555
C23 O4 1_555 1_555
N3 Si1 1_555 1_555
O1 Si1 1_555 1_555
C1A N1A 1_555 1_555
C4A N4A 1_555 1_555
C7A C8A 1_555 1_555
C9A N2A 1_555 1_555
C9A N3A 1_555 1_555
C12A N3A 1_555 1_555
C15A C16A 1_555 1_555
C17A O1A 1_555 1_555
C19A O2A 1_555 1_555
C21A O3A 1_555 1_555
C23A O4A 1_555 1_555

#END
