
#######################################################################
#
#                 Cambridge Crystallographic Data Centre
#                                CCDC 
#
#######################################################################
#
# If this CIF has been generated from an entry in the Cambridge 
# Structural Database, then it will include bibliographic, chemical, 
# crystal, experimental, refinement or atomic coordinate data resulting 
# from the CCDC's data processing and validation procedures.
#
#######################################################################

data_QAXNOS
_chemical_formula_moiety         'C17 H18 F3 N1 O5'
_chemical_name_systematic        
'Ethyl 4,4,4-trifluoro-2-hydroxy-2-(ethoxycarbonyl)-3-(indol-3-yl)butyrate'
_chemical_properties_biological  'potential biological activity'
_symmetry_cell_setting           monoclinic
_symmetry_space_group_name_H-M   'P 21/c'
_symmetry_Int_Tables_number      14
_space_group_name_Hall           '-P 2ybc'
loop_
_symmetry_equiv_pos_site_id
_symmetry_equiv_pos_as_xyz
1 x,y,z
2 -x,1/2+y,1/2-z
3 -x,-y,-z
4 x,1/2-y,1/2+z
_cell_length_a                   14.892(2)
_cell_length_b                   7.620(2)
_cell_length_c                   16.588(2)
_cell_angle_alpha                90
_cell_angle_beta                 104.071(10)
_cell_angle_gamma                90
_cell_volume                     1825.88
_exptl_crystal_colour            colorless
_exptl_crystal_description       plates
_chemical_melting_point          116-117deg.C
_cell_formula_units_Z            4
_exptl_crystal_recrystallization_method hexane/dichloromethane
loop_
_atom_site_label
_atom_site_type_symbol
_atom_site_fract_x
_atom_site_fract_y
_atom_site_fract_z
F1 F 0.1584(2) 0.2591(4) 0.3872(2)
F2 F 0.2335(3) 0.2166(4) 0.5116(2)
F3 F 0.1087(2) 0.0781(6) 0.4642(2)
O1 O 0.3054(2) -0.1289(4) 0.5490(1)
O2 O 0.1536(2) -0.3137(6) 0.5427(2)
O3 O 0.1020(2) -0.2782(4) 0.4055(2)
O4 O 0.3795(2) -0.3695(4) 0.4700(2)
O5 O 0.2654(2) -0.3436(3) 0.3545(1)
N1 N 0.4660(2) 0.1798(4) 0.4114(2)
C1 C 0.4005(3) 0.1306(5) 0.4509(2)
C2 C 0.3265(2) 0.0593(4) 0.3957(2)
C3 C 0.3485(2) 0.0629(4) 0.3163(2)
C4 C 0.4367(2) 0.1412(4) 0.3284(2)
C5 C 0.4781(2) 0.1720(5) 0.2638(3)
C6 C 0.4308(3) 0.1214(6) 0.1854(2)
C7 C 0.3441(3) 0.0420(5) 0.1719(2)
C8 C 0.3027(2) 0.0124(4) 0.2355(2)
C9 C 0.2373(2) -0.0076(4) 0.4130(2)
C10 C 0.1856(3) 0.1357(6) 0.4441(3)
C11 C 0.2527(2) -0.1734(5) 0.4692(2)
C12 C 0.1631(3) -0.2620(5) 0.4779(3)
C13 C 0.0156(3) -0.3689(9) 0.4053(5)
C14 C -0.0325(5) -0.403(2) 0.3228(7)
C15 C 0.3079(2) -0.3069(4) 0.4318(2)
C16 C 0.3096(3) -0.4722(5) 0.3113(3)
C17 C 0.2477(5) -0.5069(7) 0.2303(3)
loop_
_geom_bond_atom_site_label_1
_geom_bond_atom_site_label_2
_geom_bond_site_symmetry_1
_geom_bond_site_symmetry_2
F1 C10 1_555 1_555
F2 C10 1_555 1_555
F3 C10 1_555 1_555
O1 C11 1_555 1_555
O2 C12 1_555 1_555
O3 C12 1_555 1_555
O4 C15 1_555 1_555
O5 C15 1_555 1_555
N1 C1 1_555 1_555
C1 C2 1_555 1_555
C2 C3 1_555 1_555
C3 C4 1_555 1_555
C4 N1 1_555 1_555
C5 C4 1_555 1_555
C6 C5 1_555 1_555
C7 C6 1_555 1_555
C8 C3 1_555 1_555
C9 C2 1_555 1_555
C10 C9 1_555 1_555
C11 C9 1_555 1_555
C12 C11 1_555 1_555
C13 O3 1_555 1_555
C14 C13 1_555 1_555
C15 C11 1_555 1_555
C16 O5 1_555 1_555
C17 C16 1_555 1_555
C7 C8 1_555 1_555

#END
