
#######################################################################
#
#                 Cambridge Crystallographic Data Centre
#                                CCDC 
#
#######################################################################
#
# If this CIF has been generated from an entry in the Cambridge 
# Structural Database, then it will include bibliographic, chemical, 
# crystal, experimental, refinement or atomic coordinate data resulting 
# from the CCDC's data processing and validation procedures.
#
#######################################################################

data_QAXRIR
_chemical_formula_moiety         'C13 H13 N2 O1 P1 S1'
_chemical_name_systematic        
2-(4-Methoxyphenyl)-2-thio-2,3-dihydrobenzo[2,1,3]phosphadiazole
_chemical_properties_biological  'activity against Staphylococcus aureus'
_symmetry_cell_setting           orthorhombic
_symmetry_space_group_name_H-M   'P 21 21 21'
_symmetry_Int_Tables_number      19
_space_group_name_Hall           'P 2ac 2ab'
loop_
_symmetry_equiv_pos_site_id
_symmetry_equiv_pos_as_xyz
1 x,y,z
2 1/2-x,-y,1/2+z
3 -x,1/2+y,1/2-z
4 1/2+x,1/2-y,-z
_cell_length_a                   5.5274(11)
_cell_length_b                   8.1603(16)
_cell_length_c                   28.830(6)
_cell_angle_alpha                90
_cell_angle_beta                 90
_cell_angle_gamma                90
_cell_volume                     1300.38
_exptl_crystal_colour            colorless
_exptl_crystal_description       prismatic
_chemical_melting_point          192-195deg.C
_cell_formula_units_Z            4
_exptl_crystal_recrystallization_method ethanol
loop_
_atom_site_label
_atom_site_type_symbol
_atom_site_fract_x
_atom_site_fract_y
_atom_site_fract_z
P1 P 0.09535(11) 0.58170(7) 0.127999(19)
S1 S -0.10799(14) 0.39936(7) 0.10987(2)
O1 O 0.3531(3) 0.5301(2) 0.32840(5)
N1 N -0.0063(4) 0.7697(3) 0.11655(7)
N2 N 0.3482(4) 0.6183(3) 0.09806(6)
C1 C 0.1273(4) 0.8504(2) 0.08215(7)
C2 C 0.0785(5) 0.9965(3) 0.06004(7)
H1 H -0.0606 1.0558 0.0669
C3 C 0.2423(5) 1.0525(3) 0.02729(8)
H2 H 0.2107 1.1501 0.0117
C4 C 0.4518(5) 0.9667(3) 0.01717(8)
H3 H 0.5607 1.0085 -0.0044
C5 C 0.5001(4) 0.8187(3) 0.03896(7)
H4 H 0.6383 0.7588 0.0318
C6 C 0.3365(4) 0.7629(3) 0.07163(6)
C7 C 0.1773(4) 0.5678(3) 0.18823(7)
C8 C 0.0433(4) 0.4718(3) 0.21922(8)
H5 H -0.0890 0.4124 0.2085
C9 C 0.1054(5) 0.4643(3) 0.26557(8)
H6 H 0.0132 0.4013 0.2858
C10 C 0.3039(4) 0.5499(3) 0.28217(7)
C11 C 0.4384(4) 0.6453(3) 0.25237(8)
H7 H 0.5715 0.7035 0.2633
C12 C 0.3733(4) 0.6536(3) 0.20582(7)
H8 H 0.4640 0.7188 0.1859
C13 C 0.5486(5) 0.6220(4) 0.34760(9)
H9 H 0.5638 0.5972 0.3800
H10 H 0.5174 0.7369 0.3438
H11 H 0.6959 0.5937 0.3319
H12 H -0.129(5) 0.788(3) 0.1249(7)
H13 H 0.445(5) 0.554(3) 0.0954(8)
loop_
_geom_bond_atom_site_label_1
_geom_bond_atom_site_label_2
_geom_bond_site_symmetry_1
_geom_bond_site_symmetry_2
P1 S1 1_555 1_555
O1 C10 1_555 1_555
N1 P1 1_555 1_555
N2 P1 1_555 1_555
C1 N1 1_555 1_555
C2 C1 1_555 1_555
H1 C2 1_555 1_555
C3 C2 1_555 1_555
H2 C3 1_555 1_555
C4 C3 1_555 1_555
H3 C4 1_555 1_555
C5 C4 1_555 1_555
H4 C5 1_555 1_555
C6 N2 1_555 1_555
C7 P1 1_555 1_555
C8 C7 1_555 1_555
H5 C8 1_555 1_555
C9 C8 1_555 1_555
H6 C9 1_555 1_555
C10 C9 1_555 1_555
C11 C10 1_555 1_555
H7 C11 1_555 1_555
C12 C7 1_555 1_555
H8 C12 1_555 1_555
C13 O1 1_555 1_555
H9 C13 1_555 1_555
H10 C13 1_555 1_555
H11 C13 1_555 1_555
H12 N1 1_555 1_555
H13 N2 1_555 1_555
C1 C6 1_555 1_555
C5 C6 1_555 1_555
C11 C12 1_555 1_555

#END
