
#######################################################################
#
#                 Cambridge Crystallographic Data Centre
#                                CCDC 
#
#######################################################################
#
# If this CIF has been generated from an entry in the Cambridge 
# Structural Database, then it will include bibliographic, chemical, 
# crystal, experimental, refinement or atomic coordinate data resulting 
# from the CCDC's data processing and validation procedures.
#
#######################################################################

data_QAXSUG
_chemical_formula_moiety         'C35 H42 Br1 N1 O7 S1'
_chemical_name_systematic        
'bis(2,2-dimethylpropyl) 2-(4-bromophenyl)-5-(4-methylphenyl)-3-((4-methylphenyl)sulfonyl)-1,3-oxazolidine-4,4-dicarboxylate'
_symmetry_cell_setting           orthorhombic
_symmetry_space_group_name_H-M   'P 21 21 21'
_symmetry_Int_Tables_number      19
_space_group_name_Hall           'P 2ac 2ab'
loop_
_symmetry_equiv_pos_site_id
_symmetry_equiv_pos_as_xyz
1 x,y,z
2 1/2-x,-y,1/2+z
3 -x,1/2+y,1/2-z
4 1/2+x,1/2-y,-z
_cell_length_a                   9.1322(5)
_cell_length_b                   13.2783(8)
_cell_length_c                   29.9295(17)
_cell_angle_alpha                90
_cell_angle_beta                 90
_cell_angle_gamma                90
_cell_volume                     3629.25
_exptl_crystal_colour            colorless
_exptl_crystal_description       block
_cell_formula_units_Z            4
loop_
_atom_site_label
_atom_site_type_symbol
_atom_site_fract_x
_atom_site_fract_y
_atom_site_fract_z
Br1 Br 0.77026(7) 0.17783(4) 0.83370(3)
S1 S 0.19146(11) 0.51529(7) 0.81530(3)
O1 O 0.0376(3) 0.5283(2) 0.81009(9)
O2 O 0.2916(3) 0.58237(18) 0.79461(8)
O3 O 0.0495(4) 0.3717(2) 0.90306(11)
O4 O -0.0541(3) 0.47031(18) 0.95405(8)
O5 O 0.0683(3) 0.70321(17) 0.86926(8)
O6 O -0.1294(3) 0.6146(2) 0.88974(9)
O7 O 0.3496(3) 0.53851(19) 0.93306(8)
N1 N 0.2221(3) 0.5176(2) 0.86925(9)
C1 C 0.2206(4) 0.5971(3) 0.93771(12)
H1 H 0.2434 0.6645 0.9264
C2 C 0.1141(4) 0.5473(2) 0.90329(11)
C3 C 0.3738(4) 0.5301(3) 0.88662(12)
H2 H 0.4162 0.5927 0.8751
C4 C 0.4725(4) 0.4437(3) 0.87610(11)
C5 C 0.4303(4) 0.3451(3) 0.88430(12)
H3 H 0.3411 0.3321 0.8982
C6 C 0.5191(5) 0.2672(3) 0.87205(15)
H4 H 0.4907 0.2010 0.8773
C7 C 0.6518(5) 0.2877(3) 0.85175(13)
C8 C 0.6979(4) 0.3836(3) 0.84482(13)
H5 H 0.7889 0.3962 0.8320
C9 C 0.6080(4) 0.4615(3) 0.85701(12)
H6 H 0.6385 0.5275 0.8524
C10 C 0.2379(4) 0.3939(3) 0.79670(12)
C11 C 0.1461(4) 0.3149(3) 0.80544(14)
H7 H 0.0614 0.3247 0.8221
C12 C 0.1807(6) 0.2205(3) 0.78917(17)
H8 H 0.1180 0.1669 0.7948
C13 C 0.3052(5) 0.2044(3) 0.76494(15)
C14 C 0.3955(5) 0.2842(3) 0.75676(14)
H9 H 0.4808 0.2740 0.7404
C15 C 0.3633(4) 0.3793(3) 0.77205(12)
H10 H 0.4254 0.4330 0.7658
C16 C 0.1797(4) 0.6089(3) 0.98590(13)
C17 C 0.2291(5) 0.5436(4) 1.01804(14)
H11 H 0.2849 0.4879 1.0100
C18 C 0.1954(5) 0.5607(4) 1.06278(15)
H12 H 0.2296 0.5162 1.0844
C19 C 0.1125(5) 0.6423(5) 1.07570(17)
C20 C 0.0629(6) 0.7049(5) 1.0432(2)
H13 H 0.0046 0.7596 1.0510
C21 C 0.0967(6) 0.6893(4) 0.99906(16)
H14 H 0.0625 0.7344 0.9777
C22 C 0.0341(4) 0.4525(3) 0.92030(13)
C23 C -0.1551(5) 0.3887(4) 0.96505(15)
H15 H -0.1005 0.3277 0.9713
H16 H -0.2195 0.3758 0.9399
C24 C -0.2436(5) 0.4179(3) 1.00504(13)
C25 C -0.3574(9) 0.3338(6) 1.0110(2)
H17 H -0.3082 0.2707 1.0154
H18 H -0.4176 0.3297 0.9848
H19 H -0.4177 0.3483 1.0365
C26 C -0.1481(7) 0.4210(5) 1.04496(16)
H20 H -0.0778 0.4743 1.0417
H21 H -0.0979 0.3579 1.0480
H22 H -0.2067 0.4329 1.0711
C27 C -0.3188(6) 0.5177(5) 0.99778(19)
H23 H -0.2466 0.5698 0.9948
H24 H -0.3809 0.5322 1.0228
H25 H -0.3769 0.5145 0.9711
C28 C 0.0007(4) 0.6238(3) 0.88646(12)
C29 C -0.0278(4) 0.7772(3) 0.84851(14)
H26 H -0.0978 0.8019 0.8703
H27 H -0.0816 0.7462 0.8242
C30 C 0.0629(4) 0.8636(3) 0.83092(13)
C31 C 0.1439(7) 0.9149(4) 0.86891(19)
H28 H 0.0748 0.9374 0.8909
H29 H 0.1973 0.9717 0.8575
H30 H 0.2109 0.8681 0.8823
C32 C 0.1726(7) 0.8266(4) 0.79625(18)
H31 H 0.1212 0.7951 0.7720
H32 H 0.2378 0.7788 0.8098
H33 H 0.2281 0.8827 0.7851
C33 C -0.0430(6) 0.9384(3) 0.81013(17)
H34 H -0.1115 0.9608 0.8324
H35 H -0.0950 0.9066 0.7861
H36 H 0.0105 0.9952 0.7988
C34 C 0.3408(7) 0.0995(4) 0.7478(2)
H37 H 0.2647 0.0537 0.7566
H38 H 0.4323 0.0776 0.7602
H39 H 0.3478 0.1009 0.7158
C35 C 0.0762(6) 0.6601(6) 1.12522(17)
H40 H 0.0198 0.7207 1.1282
H41 H 0.1654 0.6665 1.1420
H42 H 0.0207 0.6041 1.1365
loop_
_geom_bond_atom_site_label_1
_geom_bond_atom_site_label_2
_geom_bond_site_symmetry_1
_geom_bond_site_symmetry_2
Br1 C7 1_555 1_555
S1 O1 1_555 1_555
O2 S1 1_555 1_555
O3 C22 1_555 1_555
O4 C22 1_555 1_555
O5 C28 1_555 1_555
O6 C28 1_555 1_555
O7 C1 1_555 1_555
N1 S1 1_555 1_555
C1 H1 1_555 1_555
C2 N1 1_555 1_555
C3 O7 1_555 1_555
H2 C3 1_555 1_555
C4 C3 1_555 1_555
C5 C4 1_555 1_555
H3 C5 1_555 1_555
C6 C5 1_555 1_555
H4 C6 1_555 1_555
C7 C6 1_555 1_555
C8 C7 1_555 1_555
H5 C8 1_555 1_555
C9 C4 1_555 1_555
H6 C9 1_555 1_555
C10 S1 1_555 1_555
C11 C10 1_555 1_555
H7 C11 1_555 1_555
C12 C11 1_555 1_555
H8 C12 1_555 1_555
C13 C12 1_555 1_555
C14 C13 1_555 1_555
H9 C14 1_555 1_555
C15 C10 1_555 1_555
H10 C15 1_555 1_555
C16 C1 1_555 1_555
C17 C16 1_555 1_555
H11 C17 1_555 1_555
C18 C17 1_555 1_555
H12 C18 1_555 1_555
C19 C18 1_555 1_555
C20 C19 1_555 1_555
H13 C20 1_555 1_555
C21 C16 1_555 1_555
H14 C21 1_555 1_555
C22 C2 1_555 1_555
C23 O4 1_555 1_555
H15 C23 1_555 1_555
H16 C23 1_555 1_555
C24 C23 1_555 1_555
C25 C24 1_555 1_555
H17 C25 1_555 1_555
H18 C25 1_555 1_555
H19 C25 1_555 1_555
C26 C24 1_555 1_555
H20 C26 1_555 1_555
H21 C26 1_555 1_555
H22 C26 1_555 1_555
C27 C24 1_555 1_555
H23 C27 1_555 1_555
H24 C27 1_555 1_555
H25 C27 1_555 1_555
C28 C2 1_555 1_555
C29 O5 1_555 1_555
H26 C29 1_555 1_555
H27 C29 1_555 1_555
C30 C29 1_555 1_555
C31 C30 1_555 1_555
H28 C31 1_555 1_555
H29 C31 1_555 1_555
H30 C31 1_555 1_555
C32 C30 1_555 1_555
H31 C32 1_555 1_555
H32 C32 1_555 1_555
H33 C32 1_555 1_555
C33 C30 1_555 1_555
H34 C33 1_555 1_555
H35 C33 1_555 1_555
H36 C33 1_555 1_555
C34 C13 1_555 1_555
H37 C34 1_555 1_555
H38 C34 1_555 1_555
H39 C34 1_555 1_555
C35 C19 1_555 1_555
H40 C35 1_555 1_555
H41 C35 1_555 1_555
H42 C35 1_555 1_555
N1 C3 1_555 1_555
C1 C2 1_555 1_555
C8 C9 1_555 1_555
C14 C15 1_555 1_555
C20 C21 1_555 1_555

#END
