
#######################################################################
#
#                 Cambridge Crystallographic Data Centre
#                                CCDC 
#
#######################################################################
#
# If this CIF has been generated from an entry in the Cambridge 
# Structural Database, then it will include bibliographic, chemical, 
# crystal, experimental, refinement or atomic coordinate data resulting 
# from the CCDC's data processing and validation procedures.
#
#######################################################################

data_QAXTOB
_chemical_formula_moiety         'C16 H25 N1 O2'
_chemical_name_systematic        
12-hydroxy-7,7,11-trimethyl-4-azatetracyclo[6.6.0.0^1,5^.0^5,11^]tetradecan-3-one
_symmetry_cell_setting           monoclinic
_symmetry_space_group_name_H-M   'P 21'
_symmetry_Int_Tables_number      4
_space_group_name_Hall           'P 2yb'
loop_
_symmetry_equiv_pos_site_id
_symmetry_equiv_pos_as_xyz
1 x,y,z
2 -x,1/2+y,-z
_cell_length_a                   12.2467(8)
_cell_length_b                   8.0536(4)
_cell_length_c                   29.237(2)
_cell_angle_alpha                90
_cell_angle_beta                 96.2990(10)
_cell_angle_gamma                90
_cell_volume                     2866.24
_exptl_crystal_colour            colorless
_exptl_crystal_description       block
_chemical_melting_point          '212-212.2 deg.C'
_cell_formula_units_Z            8
loop_
_atom_site_label
_atom_site_type_symbol
_atom_site_fract_x
_atom_site_fract_y
_atom_site_fract_z
N1 N 0.8587(4) 0.0875(6) 0.91881(16)
H1 H 0.9200 0.1197 0.9333
O1 O 0.8177(3) -0.1248(5) 0.96688(13)
O2 O 0.8421(5) 0.6107(5) 0.90092(17)
H2 H 0.8351 0.6619 0.9247
C1 C 0.7930(5) -0.0320(8) 0.9340(2)
C2 C 0.6865(5) -0.0318(8) 0.9036(2)
H3 H 0.6249 -0.0351 0.9219
H4 H 0.6819 -0.1267 0.8831
C3 C 0.6866(5) 0.1333(8) 0.8760(2)
C4 C 0.8111(4) 0.1540(7) 0.87432(19)
C5 C 0.8387(5) 0.3401(7) 0.8664(2)
C6 C 0.8047(6) 0.4410(7) 0.9054(2)
H5 H 0.8399 0.3950 0.9343
C7 C 0.6796(5) 0.4387(8) 0.9066(2)
H6 H 0.6617 0.4940 0.9343
H7 H 0.6445 0.4993 0.8804
C8 C 0.6358(5) 0.2635(8) 0.9058(2)
H8 H 0.5577 0.2686 0.8957
H9 H 0.6435 0.2228 0.9372
C9 C 0.7763(5) 0.3904(7) 0.8198(2)
H10 H 0.8199 0.3563 0.7957
H11 H 0.7716 0.5106 0.8188
C10 C 0.6584(5) 0.3191(8) 0.8083(2)
H12 H 0.6381 0.3265 0.7754
H13 H 0.6074 0.3872 0.8232
C11 C 0.6464(5) 0.1350(8) 0.8237(2)
H14 H 0.5704 0.0962 0.8176
C12 C 0.7277(6) 0.0197(8) 0.8005(2)
C13 C 0.8351(5) 0.0399(7) 0.8334(2)
H15 H 0.8919 0.0891 0.8171
H16 H 0.8607 -0.0679 0.8450
C14 C 0.9625(5) 0.3684(8) 0.8642(2)
H17 H 1.0022 0.3410 0.8934
H18 H 0.9751 0.4828 0.8572
H19 H 0.9872 0.2991 0.8407
C15 C 0.6823(6) -0.1592(8) 0.7966(2)
H20 H 0.6131 -0.1596 0.7776
H21 H 0.6721 -0.2000 0.8267
H22 H 0.7333 -0.2293 0.7830
C16 C 0.7425(7) 0.0703(8) 0.7506(2)
H23 H 0.7801 0.1748 0.7508
H24 H 0.6717 0.0803 0.7331
H25 H 0.7847 -0.0129 0.7369
N2 N 0.9335(3) 0.4558(5) 0.54620(16)
H26 H 0.9465 0.3667 0.5315
O3 O 1.0158(4) 0.6404(5) 0.50129(15)
O4 O 0.6275(4) 0.2021(6) 0.54264(18)
H27 H 0.6468 0.1308 0.5252
C17 C 0.9614(5) 0.6075(7) 0.5329(2)
C18 C 0.9150(5) 0.7318(7) 0.5654(2)
H28 H 0.8830 0.8270 0.5485
H29 H 0.9717 0.7699 0.5888
C19 C 0.8267(5) 0.6311(7) 0.58670(19)
C20 C 0.8788(5) 0.4566(7) 0.5881(2)
C21 C 0.7892(5) 0.3216(7) 0.5894(2)
C22 C 0.7079(5) 0.3380(7) 0.5464(2)
H30 H 0.7485 0.3360 0.5193
C23 C 0.6432(5) 0.4973(8) 0.5461(2)
H31 H 0.5964 0.4954 0.5708
H32 H 0.5966 0.5074 0.5172
C24 C 0.7217(5) 0.6482(7) 0.5523(2)
H33 H 0.6802 0.7420 0.5620
H34 H 0.7443 0.6755 0.5225
C25 C 0.9621(5) 0.4620(8) 0.6323(2)
H35 H 1.0345 0.4919 0.6246
H36 H 0.9667 0.3540 0.6471
C26 C 0.9201(5) 0.5955(8) 0.6656(2)
C27 C 0.8113(5) 0.6496(7) 0.6379(2)
H37 H 0.7946 0.7652 0.6449
C28 C 0.7156(5) 0.5358(7) 0.6478(2)
H38 H 0.6482 0.5768 0.6312
H39 H 0.7073 0.5403 0.6804
C29 C 0.7334(5) 0.3519(7) 0.6338(2)
H40 H 0.7774 0.2976 0.6591
H41 H 0.6624 0.2974 0.6301
C30 C 0.8393(5) 0.1462(7) 0.5920(2)
H42 H 0.8729 0.1242 0.5645
H43 H 0.7825 0.0660 0.5950
H44 H 0.8936 0.1390 0.6182
C31 C 0.9097(6) 0.5224(9) 0.7129(2)
H45 H 0.8618 0.4278 0.7098
H46 H 0.8799 0.6045 0.7319
H47 H 0.9809 0.4888 0.7269
C32 C 1.0009(6) 0.7443(8) 0.6744(2)
H48 H 1.0726 0.7035 0.6856
H49 H 0.9752 0.8172 0.6969
H50 H 1.0048 0.8040 0.6462
N3 N 0.5907(4) 0.7373(6) 0.42645(16)
H51 H 0.5353 0.7065 0.4401
O5 O 0.6536(4) 0.9506(5) 0.47461(14)
O6 O 0.5957(5) 0.2113(5) 0.40811(18)
H52 H 0.6154 0.1555 0.4310
C33 C 0.6637(5) 0.8556(8) 0.4430(2)
C34 C 0.7582(5) 0.8513(8) 0.4144(2)
H53 H 0.8278 0.8509 0.4338
H54 H 0.7562 0.9465 0.3940
C35 C 0.7426(5) 0.6877(8) 0.3864(2)
C36 C 0.6171(4) 0.6686(7) 0.3829(2)
C37 C 0.5859(5) 0.4845(7) 0.3747(2)
C38 C 0.6371(6) 0.3781(8) 0.4147(2)
H55 H 0.6157 0.4223 0.4437
C39 C 0.7614(5) 0.3771(8) 0.4166(2)
H56 H 0.7828 0.3170 0.3903
H57 H 0.7923 0.3197 0.4442
C40 C 0.8080(5) 0.5546(8) 0.4167(2)
H58 H 0.8811 0.5482 0.4070
H59 H 0.8160 0.5942 0.4482
C41 C 0.5760(5) 0.7832(7) 0.3415(2)
H60 H 0.5111 0.7356 0.3244
H61 H 0.5569 0.8918 0.3526
C42 C 0.6693(6) 0.7994(8) 0.3101(2)
C43 C 0.7596(5) 0.6850(8) 0.3343(2)
H62 H 0.8332 0.7238 0.3293
C44 C 0.7409(5) 0.5030(8) 0.3183(2)
H63 H 0.7455 0.4969 0.2854
H64 H 0.7990 0.4343 0.3335
C45 C 0.6298(5) 0.4333(7) 0.3285(2)
H65 H 0.6345 0.3131 0.3279
H66 H 0.5753 0.4659 0.3035
C46 C 0.4604(5) 0.4557(8) 0.3702(2)
H67 H 0.4341 0.4705 0.3997
H68 H 0.4443 0.3449 0.3594
H69 H 0.4248 0.5339 0.3487
C47 C 0.6325(6) 0.7521(8) 0.2596(2)
H70 H 0.6960 0.7348 0.2437
H71 H 0.5888 0.8402 0.2450
H72 H 0.5898 0.6520 0.2588
C48 C 0.7079(6) 0.9821(8) 0.3061(2)
H73 H 0.7309 1.0251 0.3363
H74 H 0.6483 1.0480 0.2918
H75 H 0.7683 0.9862 0.2878
N4 N 0.6014(3) 0.4012(5) 0.03962(15)
H76 H 0.5810 0.4924 0.0260
O7 O 0.4877(3) 0.2229(5) -0.00478(15)
O8 O 0.9112(3) 0.6442(5) 0.03739(16)
H77 H 0.8893 0.7108 0.0172
C49 C 0.5632(5) 0.2509(7) 0.0261(2)
C50 C 0.6270(5) 0.1186(7) 0.0552(2)
H78 H 0.6470 0.0269 0.0363
H79 H 0.5847 0.0764 0.0788
C51 C 0.7312(4) 0.2142(7) 0.07686(19)
C52 C 0.6819(4) 0.3910(7) 0.08047(19)
C53 C 0.7741(5) 0.5223(6) 0.0824(2)
C54 C 0.8309(5) 0.5106(7) 0.0388(2)
H80 H 0.7756 0.5209 0.0120
C55 C 0.8910(5) 0.3493(8) 0.0356(2)
H81 H 0.9523 0.3447 0.0596
H82 H 0.9201 0.3424 0.0061
C56 C 0.8147(5) 0.2034(7) 0.0408(2)
H83 H 0.8601 0.1062 0.0480
H84 H 0.7735 0.1838 0.0110
C57 C 0.6253(5) 0.3805(7) 0.12573(19)
H85 H 0.6315 0.4861 0.1418
H86 H 0.5479 0.3546 0.1186
C58 C 0.6833(5) 0.2415(8) 0.1566(2)
C59 C 0.7752(5) 0.1862(7) 0.12697(19)
H87 H 0.7941 0.0691 0.1325
C60 C 0.8772(5) 0.2978(7) 0.1377(2)
H88 H 0.9353 0.2579 0.1205
H89 H 0.9030 0.2886 0.1702
C61 C 0.8551(4) 0.4828(7) 0.1259(2)
H90 H 0.9250 0.5349 0.1221
H91 H 0.8271 0.5349 0.1522
C62 C 0.7275(5) 0.6988(7) 0.0871(2)
H92 H 0.6934 0.7063 0.1151
H93 H 0.6742 0.7217 0.0614
H94 H 0.7862 0.7783 0.0879
C63 C 0.6034(5) 0.0941(8) 0.1642(2)
H95 H 0.5553 0.1259 0.1865
H96 H 0.6453 -0.0014 0.1752
H97 H 0.5606 0.0676 0.1357
C64 C 0.7244(6) 0.3000(8) 0.2049(2)
H98 H 0.6628 0.3250 0.2214
H99 H 0.7685 0.3979 0.2031
H100 H 0.7678 0.2141 0.2207
loop_
_geom_bond_atom_site_label_1
_geom_bond_atom_site_label_2
_geom_bond_site_symmetry_1
_geom_bond_site_symmetry_2
N1 H1 1_555 1_555
O1 C1 1_555 1_555
O2 H2 1_555 1_555
C1 N1 1_555 1_555
C2 C1 1_555 1_555
H3 C2 1_555 1_555
H4 C2 1_555 1_555
C3 C2 1_555 1_555
C4 N1 1_555 1_555
C5 C4 1_555 1_555
C6 O2 1_555 1_555
H5 C6 1_555 1_555
C7 C6 1_555 1_555
H6 C7 1_555 1_555
H7 C7 1_555 1_555
C8 C3 1_555 1_555
H8 C8 1_555 1_555
H9 C8 1_555 1_555
C9 C5 1_555 1_555
H10 C9 1_555 1_555
H11 C9 1_555 1_555
C10 C9 1_555 1_555
H12 C10 1_555 1_555
H13 C10 1_555 1_555
C11 C3 1_555 1_555
H14 C11 1_555 1_555
C12 C11 1_555 1_555
C13 C4 1_555 1_555
H15 C13 1_555 1_555
H16 C13 1_555 1_555
C14 C5 1_555 1_555
H17 C14 1_555 1_555
H18 C14 1_555 1_555
H19 C14 1_555 1_555
C15 C12 1_555 1_555
H20 C15 1_555 1_555
H21 C15 1_555 1_555
H22 C15 1_555 1_555
C16 C12 1_555 1_555
H23 C16 1_555 1_555
H24 C16 1_555 1_555
H25 C16 1_555 1_555
N2 H26 1_555 1_555
O3 C17 1_555 1_555
O4 H27 1_555 1_555
C17 N2 1_555 1_555
C18 C17 1_555 1_555
H28 C18 1_555 1_555
H29 C18 1_555 1_555
C19 C18 1_555 1_555
C20 N2 1_555 1_555
C21 C20 1_555 1_555
C22 O4 1_555 1_555
H30 C22 1_555 1_555
C23 C22 1_555 1_555
H31 C23 1_555 1_555
H32 C23 1_555 1_555
C24 C19 1_555 1_555
H33 C24 1_555 1_555
H34 C24 1_555 1_555
C25 C20 1_555 1_555
H35 C25 1_555 1_555
H36 C25 1_555 1_555
C26 C25 1_555 1_555
C27 C19 1_555 1_555
H37 C27 1_555 1_555
C28 C27 1_555 1_555
H38 C28 1_555 1_555
H39 C28 1_555 1_555
C29 C21 1_555 1_555
H40 C29 1_555 1_555
H41 C29 1_555 1_555
C30 C21 1_555 1_555
H42 C30 1_555 1_555
H43 C30 1_555 1_555
H44 C30 1_555 1_555
C31 C26 1_555 1_555
H45 C31 1_555 1_555
H46 C31 1_555 1_555
H47 C31 1_555 1_555
C32 C26 1_555 1_555
H48 C32 1_555 1_555
H49 C32 1_555 1_555
H50 C32 1_555 1_555
N3 H51 1_555 1_555
O5 C33 1_555 1_555
O6 H52 1_555 1_555
C33 N3 1_555 1_555
C34 C33 1_555 1_555
H53 C34 1_555 1_555
H54 C34 1_555 1_555
C35 C34 1_555 1_555
C36 N3 1_555 1_555
C37 C36 1_555 1_555
C38 O6 1_555 1_555
H55 C38 1_555 1_555
C39 C38 1_555 1_555
H56 C39 1_555 1_555
H57 C39 1_555 1_555
C40 C35 1_555 1_555
H58 C40 1_555 1_555
H59 C40 1_555 1_555
C41 C36 1_555 1_555
H60 C41 1_555 1_555
H61 C41 1_555 1_555
C42 C41 1_555 1_555
C43 C35 1_555 1_555
H62 C43 1_555 1_555
C44 C43 1_555 1_555
H63 C44 1_555 1_555
H64 C44 1_555 1_555
C45 C37 1_555 1_555
H65 C45 1_555 1_555
H66 C45 1_555 1_555
C46 C37 1_555 1_555
H67 C46 1_555 1_555
H68 C46 1_555 1_555
H69 C46 1_555 1_555
C47 C42 1_555 1_555
H70 C47 1_555 1_555
H71 C47 1_555 1_555
H72 C47 1_555 1_555
C48 C42 1_555 1_555
H73 C48 1_555 1_555
H74 C48 1_555 1_555
H75 C48 1_555 1_555
N4 H76 1_555 1_555
O7 C49 1_555 1_555
O8 H77 1_555 1_555
C49 N4 1_555 1_555
C50 C49 1_555 1_555
H78 C50 1_555 1_555
H79 C50 1_555 1_555
C51 C50 1_555 1_555
C52 N4 1_555 1_555
C53 C52 1_555 1_555
C54 O8 1_555 1_555
H80 C54 1_555 1_555
C55 C54 1_555 1_555
H81 C55 1_555 1_555
H82 C55 1_555 1_555
C56 C51 1_555 1_555
H83 C56 1_555 1_555
H84 C56 1_555 1_555
C57 C52 1_555 1_555
H85 C57 1_555 1_555
H86 C57 1_555 1_555
C58 C57 1_555 1_555
C59 C51 1_555 1_555
H87 C59 1_555 1_555
C60 C59 1_555 1_555
H88 C60 1_555 1_555
H89 C60 1_555 1_555
C61 C53 1_555 1_555
H90 C61 1_555 1_555
H91 C61 1_555 1_555
C62 C53 1_555 1_555
H92 C62 1_555 1_555
H93 C62 1_555 1_555
H94 C62 1_555 1_555
C63 C58 1_555 1_555
H95 C63 1_555 1_555
H96 C63 1_555 1_555
H97 C63 1_555 1_555
C64 C58 1_555 1_555
H98 C64 1_555 1_555
H99 C64 1_555 1_555
H100 C64 1_555 1_555
C3 C4 1_555 1_555
C5 C6 1_555 1_555
C7 C8 1_555 1_555
C10 C11 1_555 1_555
C12 C13 1_555 1_555
C19 C20 1_555 1_555
C21 C22 1_555 1_555
C23 C24 1_555 1_555
C26 C27 1_555 1_555
C28 C29 1_555 1_555
C35 C36 1_555 1_555
C37 C38 1_555 1_555
C39 C40 1_555 1_555
C42 C43 1_555 1_555
C44 C45 1_555 1_555
C51 C52 1_555 1_555
C53 C54 1_555 1_555
C55 C56 1_555 1_555
C58 C59 1_555 1_555
C60 C61 1_555 1_555

#END
