
#######################################################################
#
#                 Cambridge Crystallographic Data Centre
#                                CCDC 
#
#######################################################################
#
# If this CIF has been generated from an entry in the Cambridge 
# Structural Database, then it will include bibliographic, chemical, 
# crystal, experimental, refinement or atomic coordinate data resulting 
# from the CCDC's data processing and validation procedures.
#
#######################################################################

data_QAXTUH
_chemical_formula_moiety         'C16 H25 N1 O2'
_chemical_name_systematic        
13-hydroxy-7,7,11-trimethyl-4-azatetracyclo[6.6.0.0^1,5^.0^5,11^]tetradecan-3-one
_symmetry_cell_setting           orthorhombic
_symmetry_space_group_name_H-M   'P 21 21 21'
_symmetry_Int_Tables_number      19
_space_group_name_Hall           'P 2ac 2ab'
loop_
_symmetry_equiv_pos_site_id
_symmetry_equiv_pos_as_xyz
1 x,y,z
2 1/2+x,1/2-y,-z
3 -x,1/2+y,1/2-z
4 1/2-x,-y,1/2+z
_cell_length_a                   6.9318(2)
_cell_length_b                   11.9510(3)
_cell_length_c                   16.7072(5)
_cell_angle_alpha                90
_cell_angle_beta                 90
_cell_angle_gamma                90
_cell_volume                     1384.06
_exptl_crystal_colour            colorless
_exptl_crystal_description       prism
_cell_formula_units_Z            4
loop_
_atom_site_label
_atom_site_type_symbol
_atom_site_fract_x
_atom_site_fract_y
_atom_site_fract_z
O1 O 0.8927(2) 1.20890(11) 0.27792(8)
O2 O 0.1665(2) 0.91288(12) 0.29796(9)
H1 H 0.1553 0.8498 0.2763
N1 N 0.8186(3) 1.03736(13) 0.33121(9)
H2 H 0.9025 0.9973 0.3040
C1 C 0.7962(3) 1.14822(17) 0.32232(11)
C2 C 0.6384(3) 1.18628(16) 0.37979(11)
H3 H 0.5574 1.2455 0.3555
H4 H 0.6939 1.2144 0.4306
C3 C 0.5217(3) 1.07782(16) 0.39336(11)
C4 C 0.4341(3) 1.05080(16) 0.47629(11)
H5 H 0.3440 1.1114 0.4938
C5 C 0.6075(3) 1.04103(17) 0.53434(12)
C6 C 0.6560(4) 1.15485(18) 0.57373(12)
H6 H 0.7893 1.1536 0.5933
H7 H 0.5682 1.1682 0.6187
H8 H 0.6414 1.2148 0.5342
C7 C 0.6872(3) 0.99051(16) 0.39144(11)
C8 C 0.7715(3) 0.99739(17) 0.47780(12)
H9 H 0.8829 1.0492 0.4791
H10 H 0.8157 0.9226 0.4955
C9 C 0.3259(3) 0.93818(16) 0.46676(11)
H11 H 0.2165 0.9487 0.4294
H12 H 0.2721 0.9159 0.5193
C10 C 0.4567(3) 0.84273(16) 0.43497(11)
H13 H 0.5282 0.8107 0.4809
H14 H 0.3727 0.7829 0.4133
C11 C 0.6045(3) 0.87494(16) 0.36967(11)
C12 C 0.5138(3) 0.88011(16) 0.28580(11)
H15 H 0.6161 0.9003 0.2471
H16 H 0.4677 0.8043 0.2717
C13 C 0.3469(3) 0.96167(16) 0.27531(12)
H17 H 0.3386 0.9803 0.2171
C14 C 0.3799(3) 1.07236(17) 0.32084(12)
H18 H 0.2524 1.0980 0.3403
H19 H 0.4245 1.1282 0.2812
C15 C 0.7602(3) 0.78397(16) 0.36633(12)
H20 H 0.8340 0.7843 0.4164
H21 H 0.8472 0.7987 0.3213
H22 H 0.6991 0.7107 0.3592
C16 C 0.5767(4) 0.96165(19) 0.60596(12)
H23 H 0.4606 0.9841 0.6353
H24 H 0.6887 0.9655 0.6416
H25 H 0.5612 0.8848 0.5865
loop_
_geom_bond_atom_site_label_1
_geom_bond_atom_site_label_2
_geom_bond_site_symmetry_1
_geom_bond_site_symmetry_2
O1 C1 1_555 1_555
O2 H1 1_555 1_555
N1 H2 1_555 1_555
C1 N1 1_555 1_555
C2 C1 1_555 1_555
H3 C2 1_555 1_555
H4 C2 1_555 1_555
C3 C2 1_555 1_555
C4 C3 1_555 1_555
H5 C4 1_555 1_555
C5 C4 1_555 1_555
C6 C5 1_555 1_555
H6 C6 1_555 1_555
H7 C6 1_555 1_555
H8 C6 1_555 1_555
C7 N1 1_555 1_555
C8 C5 1_555 1_555
H9 C8 1_555 1_555
H10 C8 1_555 1_555
C9 C4 1_555 1_555
H11 C9 1_555 1_555
H12 C9 1_555 1_555
C10 C9 1_555 1_555
H13 C10 1_555 1_555
H14 C10 1_555 1_555
C11 C7 1_555 1_555
C12 C11 1_555 1_555
H15 C12 1_555 1_555
H16 C12 1_555 1_555
C13 O2 1_555 1_555
H17 C13 1_555 1_555
C14 C3 1_555 1_555
H18 C14 1_555 1_555
H19 C14 1_555 1_555
C15 C11 1_555 1_555
H20 C15 1_555 1_555
H21 C15 1_555 1_555
H22 C15 1_555 1_555
C16 C5 1_555 1_555
H23 C16 1_555 1_555
H24 C16 1_555 1_555
H25 C16 1_555 1_555
C3 C7 1_555 1_555
C7 C8 1_555 1_555
C10 C11 1_555 1_555
C12 C13 1_555 1_555
C13 C14 1_555 1_555

#END
