
#######################################################################
#
#                 Cambridge Crystallographic Data Centre
#                                CCDC 
#
#######################################################################
#
# If this CIF has been generated from an entry in the Cambridge 
# Structural Database, then it will include bibliographic, chemical, 
# crystal, experimental, refinement or atomic coordinate data resulting 
# from the CCDC's data processing and validation procedures.
#
#######################################################################

data_QAXTIV
_chemical_formula_moiety         'C16 H25 N1 O2'
_chemical_name_systematic        
6-(hydroxymethyl)-4a,6,7b-trimethyldodecahydro-2H-cyclobuta[1,2]indeno[4,5-b]azet-2-one
_symmetry_cell_setting           orthorhombic
_symmetry_space_group_name_H-M   'P 21 21 21'
_symmetry_Int_Tables_number      19
_space_group_name_Hall           'P 2ac 2ab'
loop_
_symmetry_equiv_pos_site_id
_symmetry_equiv_pos_as_xyz
1 x,y,z
2 1/2+x,1/2-y,-z
3 -x,1/2+y,1/2-z
4 1/2-x,-y,1/2+z
_cell_length_a                   9.9671(11)
_cell_length_b                   11.2980(12)
_cell_length_c                   12.8986(14)
_cell_angle_alpha                90
_cell_angle_beta                 90
_cell_angle_gamma                90
_cell_volume                     1452.49
_exptl_crystal_colour            colorless
_exptl_crystal_description       block
_cell_formula_units_Z            4
loop_
_atom_site_label
_atom_site_type_symbol
_atom_site_fract_x
_atom_site_fract_y
_atom_site_fract_z
O1 O -0.11933(7) -0.19892(7) 0.57915(5)
H1 H -0.1031 -0.2030 0.5153
O2 O 0.57081(7) 0.22315(7) 0.87184(5)
N1 N 0.36370(8) 0.28066(7) 0.79817(6)
H2 H 0.3056 0.2998 0.8468
C1 C 0.00215(9) -0.17709(8) 0.63415(7)
H3 H 0.0734 -0.2286 0.6056
H4 H -0.0109 -0.1991 0.7078
C2 C 0.04904(8) -0.04847(8) 0.62869(6)
C3 C 0.19226(9) -0.03938(7) 0.67784(6)
H5 H 0.2206 -0.1122 0.7161
C4 C 0.22853(9) 0.07627(7) 0.73340(6)
H6 H 0.3028 0.0633 0.7831
H7 H 0.1501 0.1078 0.7716
C5 C 0.27180(8) 0.16286(7) 0.64667(6)
H8 H 0.1882 0.1927 0.6127
C6 C 0.35288(8) 0.27237(7) 0.68306(6)
C7 C 0.49400(9) 0.24849(7) 0.80149(7)
C8 C -0.05937(9) 0.03430(9) 0.66899(7)
H9 H -0.0741 0.0193 0.7430
H10 H -0.1429 0.0204 0.6309
H11 H -0.0309 0.1166 0.6591
C9 C 0.25390(9) -0.02895(7) 0.56657(6)
H12 H 0.3013 -0.1023 0.5434
C10 C 0.11004(9) -0.01672(8) 0.52101(6)
H13 H 0.0895 -0.0754 0.4663
H14 H 0.0882 0.0644 0.4975
C11 C 0.34425(8) 0.08136(7) 0.56711(6)
C12 C 0.48281(9) 0.04673(8) 0.61080(7)
H15 H 0.4704 0.0066 0.6784
H16 H 0.5260 -0.0102 0.5629
C13 C 0.57557(9) 0.15353(8) 0.62553(7)
H17 H 0.6564 0.1280 0.6641
H18 H 0.6051 0.1821 0.5566
C14 C 0.50955(9) 0.25531(7) 0.68361(6)
H19 H 0.5542 0.3315 0.6644
C15 C 0.30389(9) 0.38640(8) 0.63279(7)
H20 H 0.3552 0.4535 0.6602
H21 H 0.2085 0.3975 0.6483
H22 H 0.3165 0.3816 0.5576
C16 C 0.35999(9) 0.13598(8) 0.45903(6)
H23 H 0.2712 0.1527 0.4299
H24 H 0.4077 0.0804 0.4138
H25 H 0.4112 0.2098 0.4643
loop_
_geom_bond_atom_site_label_1
_geom_bond_atom_site_label_2
_geom_bond_site_symmetry_1
_geom_bond_site_symmetry_2
O1 H1 1_555 1_555
O2 C7 1_555 1_555
N1 H2 1_555 1_555
C1 O1 1_555 1_555
H3 C1 1_555 1_555
H4 C1 1_555 1_555
C2 C1 1_555 1_555
C3 C2 1_555 1_555
H5 C3 1_555 1_555
C4 C3 1_555 1_555
H6 C4 1_555 1_555
H7 C4 1_555 1_555
C5 C4 1_555 1_555
H8 C5 1_555 1_555
C6 N1 1_555 1_555
C7 N1 1_555 1_555
C8 C2 1_555 1_555
H9 C8 1_555 1_555
H10 C8 1_555 1_555
H11 C8 1_555 1_555
C9 C3 1_555 1_555
H12 C9 1_555 1_555
C10 C2 1_555 1_555
H13 C10 1_555 1_555
H14 C10 1_555 1_555
C11 C5 1_555 1_555
C12 C11 1_555 1_555
H15 C12 1_555 1_555
H16 C12 1_555 1_555
C13 C12 1_555 1_555
H17 C13 1_555 1_555
H18 C13 1_555 1_555
C14 C6 1_555 1_555
H19 C14 1_555 1_555
C15 C6 1_555 1_555
H20 C15 1_555 1_555
H21 C15 1_555 1_555
H22 C15 1_555 1_555
C16 C11 1_555 1_555
H23 C16 1_555 1_555
H24 C16 1_555 1_555
H25 C16 1_555 1_555
C5 C6 1_555 1_555
C7 C14 1_555 1_555
C9 C10 1_555 1_555
C9 C11 1_555 1_555
C13 C14 1_555 1_555

#END
