
#######################################################################
#
#                 Cambridge Crystallographic Data Centre
#                                CCDC 
#
#######################################################################
#
# If this CIF has been generated from an entry in the Cambridge 
# Structural Database, then it will include bibliographic, chemical, 
# crystal, experimental, refinement or atomic coordinate data resulting 
# from the CCDC's data processing and validation procedures.
#
#######################################################################

data_QAYFIH
_chemical_formula_moiety         'C12 H20 Br1 N1 O2'
_chemical_name_systematic        
7-Bromo-8-ethyl-N,N-dimethyl-3,6,7,8-tetrahydro-2H-oxocine-2-carboxamide
_symmetry_cell_setting           orthorhombic
_symmetry_space_group_name_H-M   'P 21 21 21'
_symmetry_Int_Tables_number      19
_space_group_name_Hall           'P 2ac 2ab'
loop_
_symmetry_equiv_pos_site_id
_symmetry_equiv_pos_as_xyz
1 x,y,z
2 1/2+x,1/2-y,-z
3 -x,1/2+y,1/2-z
4 1/2-x,-y,1/2+z
_cell_length_a                   8.4863(9)
_cell_length_b                   10.2943(8)
_cell_length_c                   15.4841(14)
_cell_angle_alpha                90
_cell_angle_beta                 90
_cell_angle_gamma                90
_cell_volume                     1352.7
_exptl_crystal_colour            colorless
_exptl_crystal_description       block
_cell_formula_units_Z            4
loop_
_atom_site_label
_atom_site_type_symbol
_atom_site_fract_x
_atom_site_fract_y
_atom_site_fract_z
Br1 Br 0.36738(6) 0.30209(4) 0.69488(3)
O1 O 0.3098(3) 0.5607(2) 0.49321(14)
O2 O 0.4098(4) 0.4080(3) 0.3072(2)
N1 N 0.5195(5) 0.6016(4) 0.3392(2)
C1 C 0.2623(5) 0.4169(4) 0.6094(3)
C2 C 0.2645(5) 0.5430(4) 0.4054(3)
C3 C 0.3785(5) 0.4510(3) 0.53729(19)
C4 C 0.5434(5) 0.4902(4) 0.5643(3)
C5 C 0.4049(5) 0.5114(4) 0.3463(3)
C6 C 0.1331(6) 0.4427(5) 0.3954(3)
C7 C 0.1144(6) 0.3456(4) 0.5801(3)
C8 C -0.0054(6) 0.4321(6) 0.5366(4)
C9 C 0.5184(7) 0.7296(4) 0.3786(3)
C10 C -0.0001(6) 0.4704(6) 0.4563(4)
C11 C 0.6543(6) 0.5734(6) 0.2840(3)
C12 C 0.5503(6) 0.6046(5) 0.6252(3)
H1 H 0.2307 0.4973 0.6385
H2 H 0.2215 0.6262 0.3856
H3 H 0.3854 0.3778 0.4970
H4 H 0.5937 0.4164 0.5918
H5 H 0.6036 0.5111 0.5129
H6 H 0.0944 0.4442 0.3365
H7 H 0.1747 0.3567 0.4069
H8 H 0.1445 0.2772 0.5403
H9 H 0.0658 0.3049 0.6299
H10 H 0.4268 0.7383 0.4145
H11 H 0.5162 0.7947 0.3342
H12 H 0.6115 0.7404 0.4131
H13 H 0.6490 0.6264 0.2330
H14 H 0.6526 0.4834 0.2678
H15 H 0.7499 0.5920 0.3147
H16 H 0.5083 0.5797 0.6804
H17 H 0.4892 0.6749 0.6021
H18 H 0.6577 0.6319 0.6320
H19 H -0.083(7) 0.453(6) 0.572(4)
H20 H -0.076(7) 0.524(5) 0.436(4)
loop_
_geom_bond_atom_site_label_1
_geom_bond_atom_site_label_2
_geom_bond_site_symmetry_1
_geom_bond_site_symmetry_2
Br1 C1 1_555 1_555
O1 C2 1_555 1_555
O2 C5 1_555 1_555
N1 C5 1_555 1_555
C1 C3 1_555 1_555
C2 C5 1_555 1_555
C3 O1 1_555 1_555
C4 C3 1_555 1_555
C6 C2 1_555 1_555
C7 C1 1_555 1_555
C8 C7 1_555 1_555
C9 N1 1_555 1_555
C10 C6 1_555 1_555
C11 N1 1_555 1_555
C12 C4 1_555 1_555
H1 C1 1_555 1_555
H2 C2 1_555 1_555
H3 C3 1_555 1_555
H4 C4 1_555 1_555
H5 C4 1_555 1_555
H6 C6 1_555 1_555
H7 C6 1_555 1_555
H8 C7 1_555 1_555
H9 C7 1_555 1_555
H10 C9 1_555 1_555
H11 C9 1_555 1_555
H12 C9 1_555 1_555
H13 C11 1_555 1_555
H14 C11 1_555 1_555
H15 C11 1_555 1_555
H16 C12 1_555 1_555
H17 C12 1_555 1_555
H18 C12 1_555 1_555
H19 C8 1_555 1_555
H20 C10 1_555 1_555
C8 C10 1_555 1_555

#END
