
#######################################################################
#
#                 Cambridge Crystallographic Data Centre
#                                CCDC 
#
#######################################################################
#
# If this CIF has been generated from an entry in the Cambridge 
# Structural Database, then it will include bibliographic, chemical, 
# crystal, experimental, refinement or atomic coordinate data resulting 
# from the CCDC's data processing and validation procedures.
#
#######################################################################

data_QAYKEH
_chemical_formula_moiety         'C27 H30 O7 S1'
_chemical_name_systematic        
(2S,3S,4R,\aS)-2-(3,4-dimethoxyphenyl)-3-phenylsulfonyl-4-(\a-methoxymethoxybenzyl)tetrahydrofuran
_symmetry_cell_setting           orthorhombic
_symmetry_space_group_name_H-M   'P 21 21 21'
_symmetry_Int_Tables_number      19
_space_group_name_Hall           'P 2ac 2ab'
loop_
_symmetry_equiv_pos_site_id
_symmetry_equiv_pos_as_xyz
1 x,y,z
2 1/2-x,-y,1/2+z
3 1/2+x,1/2-y,-z
4 -x,1/2+y,1/2-z
_cell_length_a                   8.702(1)
_cell_length_b                   15.771(5)
_cell_length_c                   18.6383
_cell_angle_alpha                90
_cell_angle_beta                 90
_cell_angle_gamma                90
_cell_volume                     2557.91
_chemical_melting_point          '124-125 deg.C'
_cell_formula_units_Z            4
loop_
_atom_site_label
_atom_site_type_symbol
_atom_site_fract_x
_atom_site_fract_y
_atom_site_fract_z
S1 S 0.0257(2) 0.5439(1) -0.0001(1)
O1 O -0.0924(5) 0.6065(3) -0.0095(3)
O2 O -0.0166(6) 0.4629(3) 0.0298(2)
C1 C 0.5648(10) 0.4560(5) -0.0420(5)
O3 O 0.5881(6) 0.5039(3) -0.1052(3)
C2 C 0.5636(7) 0.5881(4) -0.0921(4)
O4 O 0.4061(5) 0.6083(3) -0.0826(2)
C3 C 0.3200(8) 0.6099(4) -0.1486(4)
C4 C 0.3538(6) 0.7695(3) -0.1533(2)
C5 C 0.3797(6) 0.8447(3) -0.1908(2)
C6 C 0.4046(6) 0.8427(3) -0.2647(2)
C7 C 0.4037(6) 0.7654(3) -0.3012(2)
C8 C 0.3779(6) 0.6902(3) -0.2637(2)
C9 C 0.3529(6) 0.6922(3) -0.1898(2)
C10 C 0.1499(6) 0.6073(3) -0.1264(3)
C11 C 0.0426(8) 0.6013(4) -0.1913(4)
O5 O 0.0238(6) 0.5129(2) -0.2031(2)
C12 C 0.0009(7) 0.4749(3) -0.1351(3)
C13 C 0.1122(7) 0.5253(3) -0.0852(3)
C14 C 0.0326(7) 0.3814(3) -0.1396(3)
C15 C 0.1492(8) 0.3485(4) -0.1785(3)
C16 C 0.1759(9) 0.2602(4) -0.1807(4)
C17 C 0.0869(9) 0.2083(4) -0.1420(4)
O6 O 0.1020(6) 0.1210(3) -0.1382(3)
C18 C 0.2390(10) 0.0871(5) -0.1682(5)
C19 C -0.0355(9) 0.2396(4) -0.1003(4)
O7 O -0.1211(7) 0.1828(3) -0.0632(3)
C20 C -0.2250(11) 0.2132(5) -0.0111(6)
C21 C -0.0619(7) 0.3267(4) -0.1008(3)
C22 C 0.2667(6) 0.5330(2) 0.0920(3)
C23 C 0.3876(6) 0.5667(2) 0.1320(3)
C24 C 0.4120(6) 0.6541(2) 0.1332(3)
C25 C 0.3156(6) 0.7078(2) 0.0943(3)
C26 C 0.1948(6) 0.6741(2) 0.0542(3)
C27 C 0.1703(6) 0.5866(2) 0.0531(3)
H1 H 0.5771(10) 0.4080(5) -0.0731(5)
H2 H 0.4697(10) 0.4510(5) -0.0163(5)
H3 H 0.6486(10) 0.4580(5) -0.0086(5)
H4 H 0.6183(7) 0.6035(4) -0.0493(4)
H5 H 0.6024(7) 0.6202(4) -0.1319(4)
H6 H 0.3471(8) 0.5635(4) -0.1795(4)
H7 H 0.3367(6) 0.7709(3) -0.1025(2)
H8 H 0.3803(6) 0.8979(3) -0.1657(2)
H9 H 0.4224(6) 0.8944(3) -0.2905(2)
H10 H 0.4209(6) 0.7640(3) -0.3520(2)
H11 H 0.3773(6) 0.6370(3) -0.2888(2)
H12 H 0.1351(6) 0.6580(3) -0.0987(3)
H13 H 0.0883(8) 0.6279(4) -0.2324(4)
H14 H -0.0545(8) 0.6276(4) -0.1811(4)
H15 H -0.1023(7) 0.4779(3) -0.1171(3)
H16 H 0.2048(7) 0.4946(3) -0.0745(3)
H17 H 0.2150(8) 0.3858(4) -0.2051(3)
H18 H 0.2574(9) 0.2377(4) -0.2097(4)
H19 H 0.2221(10) 0.0275(5) -0.1615(5)
H20 H 0.3304(10) 0.1039(5) -0.1430(5)
H21 H 0.2510(10) 0.0989(5) -0.2184(5)
H22 H -0.2739(11) 0.1692(5) 0.0162(6)
H23 H -0.3018(11) 0.2496(5) -0.0315(6)
H24 H -0.1591(11) 0.2457(5) 0.0197(6)
H25 H -0.1466(7) 0.3495(4) -0.0740(3)
H26 H 0.2499(6) 0.4728(2) 0.0912(3)
H27 H 0.4539(6) 0.5297(2) 0.1588(3)
H28 H 0.4952(6) 0.6773(2) 0.1607(3)
H29 H 0.3325(6) 0.7679(2) 0.0951(3)
H30 H 0.1285(6) 0.7110(2) 0.0275(3)
loop_
_geom_bond_atom_site_label_1
_geom_bond_atom_site_label_2
_geom_bond_site_symmetry_1
_geom_bond_site_symmetry_2
S1 O1 1_555 1_555
O2 S1 1_555 1_555
C1 O3 1_555 1_555
O3 C2 1_555 1_555
C2 O4 1_555 1_555
O4 C3 1_555 1_555
C3 C9 1_555 1_555
C4 C5 1_555 1_555
C5 C6 1_555 1_555
C6 C7 1_555 1_555
C7 C8 1_555 1_555
C8 C9 1_555 1_555
C9 C4 1_555 1_555
C10 C3 1_555 1_555
C11 C10 1_555 1_555
O5 C11 1_555 1_555
C12 O5 1_555 1_555
C13 S1 1_555 1_555
C14 C12 1_555 1_555
C15 C14 1_555 1_555
C16 C15 1_555 1_555
C17 C16 1_555 1_555
O6 C17 1_555 1_555
C18 O6 1_555 1_555
C19 C17 1_555 1_555
O7 C19 1_555 1_555
C20 O7 1_555 1_555
C21 C14 1_555 1_555
C22 C23 1_555 1_555
C23 C24 1_555 1_555
C24 C25 1_555 1_555
C25 C26 1_555 1_555
C26 C27 1_555 1_555
C27 S1 1_555 1_555
H1 C1 1_555 1_555
H2 C1 1_555 1_555
H3 C1 1_555 1_555
H4 C2 1_555 1_555
H5 C2 1_555 1_555
H6 C3 1_555 1_555
H7 C4 1_555 1_555
H8 C5 1_555 1_555
H9 C6 1_555 1_555
H10 C7 1_555 1_555
H11 C8 1_555 1_555
H12 C10 1_555 1_555
H13 C11 1_555 1_555
H14 C11 1_555 1_555
H15 C12 1_555 1_555
H16 C13 1_555 1_555
H17 C15 1_555 1_555
H18 C16 1_555 1_555
H19 C18 1_555 1_555
H20 C18 1_555 1_555
H21 C18 1_555 1_555
H22 C20 1_555 1_555
H23 C20 1_555 1_555
H24 C20 1_555 1_555
H25 C21 1_555 1_555
H26 C22 1_555 1_555
H27 C23 1_555 1_555
H28 C24 1_555 1_555
H29 C25 1_555 1_555
H30 C26 1_555 1_555
C10 C13 1_555 1_555
C12 C13 1_555 1_555
C19 C21 1_555 1_555
C22 C27 1_555 1_555

#END
