
#######################################################################
#
#                 Cambridge Crystallographic Data Centre
#                                CCDC 
#
#######################################################################
#
# If this CIF has been generated from an entry in the Cambridge 
# Structural Database, then it will include bibliographic, chemical, 
# crystal, experimental, refinement or atomic coordinate data resulting 
# from the CCDC's data processing and validation procedures.
#
#######################################################################

data_QAYNUA
_chemical_formula_moiety         'C14 H22 N4 O3 S1'
_chemical_name_systematic        
'4-(2-azidobutanoyl)-10,10-dimethyl-3-thia-4-azatricylo[5.2.1.0^1,5^]decane 3,3-dioxide'
_symmetry_cell_setting           orthorhombic
_symmetry_space_group_name_H-M   'P 21 21 2'
_symmetry_Int_Tables_number      18
_space_group_name_Hall           'P 2 2ab'
loop_
_symmetry_equiv_pos_site_id
_symmetry_equiv_pos_as_xyz
1 x,y,z
2 -x,-y,z
3 1/2+x,1/2-y,-z
4 1/2-x,1/2+y,-z
_cell_length_a                   13.928(2)
_cell_length_b                   14.696(2)
_cell_length_c                   7.9006(4)
_cell_angle_alpha                90
_cell_angle_beta                 90
_cell_angle_gamma                90
_cell_volume                     1617.14
_cell_formula_units_Z            4
loop_
_atom_site_label
_atom_site_type_symbol
_atom_site_fract_x
_atom_site_fract_y
_atom_site_fract_z
S1 S 0.0623(1) 0.1484(1) 0.5835(1)
O1 O -0.0278(1) 0.1096(1) 0.6305(2)
O2 O 0.0612(2) 0.2406(1) 0.5293(2)
C1 C 0.3728(2) 0.0643(2) 0.6228(3)
C2 C 0.3650(2) -0.0360(2) 0.5706(4)
N1 N 0.1402(2) 0.1368(2) 0.7471(3)
C3 C 0.2611(2) -0.0438(2) 0.4999(4)
C4 C 0.1145(2) 0.1593(2) 0.9133(4)
C5 C 0.2083(2) 0.0610(2) 0.7195(3)
N2 N 0.0127(2) 0.2528(2) 1.1049(3)
N3 N -0.0316(2) 0.1834(3) 1.1530(8)
N4 N -0.0726(2) 0.1263(3) 1.2152(4)
C6 C 0.2216(2) 0.0517(2) 0.5268(3)
O3 O 0.1474(2) 0.1180(2) 1.0314(2)
C7 C 0.3499(2) 0.1006(1) 0.3076(4)
C8 C 0.3114(2) 0.0778(2) 0.7846(3)
C9 C 0.0537(2) 0.2451(2) 0.9319(3)
C10 C 0.2986(2) 0.2148(2) 0.5143(4)
C11 C 0.2054(3) 0.3336(3) 1.0060(4)
C12 C 0.3111(2) 0.1128(2) 0.4877(3)
C13 C 0.1264(2) 0.0753(2) 0.4430(3)
C14 C 0.1132(3) 0.3304(2) 0.9036(4)
H1 H 0.4387(2) 0.0871(2) 0.6317(3)
H2 H 0.3741(2) -0.0758(2) 0.6672(4)
H3 H 0.4121(2) -0.0510(2) 0.4845(4)
H4 H 0.2614(2) -0.0599(2) 0.3808(4)
H5 H 0.2240(2) -0.0885(2) 0.5621(4)
H6 H 0.1825(2) 0.0044(2) 0.7669(3)
H7 H 0.3559(13) 0.0369(2) 0.2829(10)
H8 H 0.4116(7) 0.1292(12) 0.2986(8)
H9 H 0.3063(7) 0.1281(12) 0.2285(4)
H10 H 0.3288(2) 0.0342(2) 0.8716(3)
H11 H 0.3184(2) 0.1389(2) 0.8293(3)
H12 H 0.0013(2) 0.2435(2) 0.8493(3)
H13 H 0.2775(13) 0.2261(2) 0.6280(8)
H14 H 0.2517(10) 0.2377(3) 0.4361(17)
H15 H 0.3588(4) 0.2450(2) 0.4954(23)
H16 H 0.2381(10) 0.3900(8) 0.9844(25)
H17 H 0.2460(8) 0.2837(10) 0.9741(24)
H18 H 0.1905(3) 0.3293(18) 1.1244(4)
H19 H 0.0897(2) 0.0204(2) 0.4216(3)
H20 H 0.1376(2) 0.1058(2) 0.3359(3)
H21 H 0.1293(3) 0.3346(2) 0.7844(4)
H22 H 0.0745(3) 0.3831(2) 0.9322(4)
loop_
_geom_bond_atom_site_label_1
_geom_bond_atom_site_label_2
_geom_bond_site_symmetry_1
_geom_bond_site_symmetry_2
S1 O1 1_555 1_555
O2 S1 1_555 1_555
C1 C2 1_555 1_555
C2 C3 1_555 1_555
N1 S1 1_555 1_555
C3 C6 1_555 1_555
C4 N1 1_555 1_555
C5 N1 1_555 1_555
N2 N3 1_555 1_555
N3 N4 1_555 1_555
C6 C5 1_555 1_555
O3 C4 1_555 1_555
C7 C12 1_555 1_555
C8 C1 1_555 1_555
C9 C4 1_555 1_555
C10 C12 1_555 1_555
C11 C14 1_555 1_555
C12 C1 1_555 1_555
C13 S1 1_555 1_555
C14 C9 1_555 1_555
H1 C1 1_555 1_555
H2 C2 1_555 1_555
H3 C2 1_555 1_555
H4 C3 1_555 1_555
H5 C3 1_555 1_555
H6 C5 1_555 1_555
H7 C7 1_555 1_555
H8 C7 1_555 1_555
H9 C7 1_555 1_555
H10 C8 1_555 1_555
H11 C8 1_555 1_555
H12 C9 1_555 1_555
H13 C10 1_555 1_555
H14 C10 1_555 1_555
H15 C10 1_555 1_555
H16 C11 1_555 1_555
H17 C11 1_555 1_555
H18 C11 1_555 1_555
H19 C13 1_555 1_555
H20 C13 1_555 1_555
H21 C14 1_555 1_555
H22 C14 1_555 1_555
C5 C8 1_555 1_555
N2 C9 1_555 1_555
C6 C12 1_555 1_555
C6 C13 1_555 1_555

#END
