
#######################################################################
#
#                 Cambridge Crystallographic Data Centre
#                                CCDC 
#
#######################################################################
#
# If this CIF has been generated from an entry in the Cambridge 
# Structural Database, then it will include bibliographic, chemical, 
# crystal, experimental, refinement or atomic coordinate data resulting 
# from the CCDC's data processing and validation procedures.
#
#######################################################################

data_QAYQEN
_chemical_formula_moiety         'C22 H19 N1 O2'
_chemical_name_systematic        1,5-Diphenyl-3-(2-pyridyl)pentane-1,5-dione
_symmetry_cell_setting           monoclinic
_symmetry_space_group_name_H-M   'P 21/c'
_symmetry_Int_Tables_number      14
_space_group_name_Hall           '-P 2ybc'
loop_
_symmetry_equiv_pos_site_id
_symmetry_equiv_pos_as_xyz
1 x,y,z
2 -x,1/2+y,1/2-z
3 -x,-y,-z
4 x,1/2-y,1/2+z
_cell_length_a                   11.519(2)
_cell_length_b                   18.162(3)
_cell_length_c                   8.640(3)
_cell_angle_alpha                90
_cell_angle_beta                 90.213(2)
_cell_angle_gamma                90
_cell_volume                     1807.55
_exptl_crystal_colour            colorless
_exptl_crystal_description       block
_chemical_melting_point          '424 K'
_cell_formula_units_Z            4
_exptl_crystal_recrystallization_method ethanol
loop_
_atom_site_label
_atom_site_type_symbol
_atom_site_fract_x
_atom_site_fract_y
_atom_site_fract_z
N1 N 0.64986(16) 0.06597(10) 1.0878(2)
O1 O 0.71688(14) 0.13498(9) 0.73392(19)
O2 O 0.34654(13) 0.21340(9) 0.76615(19)
C1 C 0.7208(2) 0.05815(14) 1.2104(3)
H1 H 0.7534 0.0121 1.2282
C2 C 0.7478(2) 0.11372(16) 1.3105(3)
H2 H 0.7969 0.1054 1.3944
C3 C 0.7014(2) 0.18165(16) 1.2847(3)
H3 H 0.7189 0.2208 1.3501
C4 C 0.6288(2) 0.19114(13) 1.1615(3)
H4 H 0.5961 0.2371 1.1420
C5 C 0.60384(17) 0.13239(11) 1.0655(2)
C6 C 0.52172(17) 0.14184(11) 0.9310(2)
H5 H 0.5382 0.1895 0.8827
C7 C 0.53681(18) 0.08244(11) 0.8084(2)
H6 H 0.5207 0.0349 0.8547
H7 H 0.4801 0.0904 0.7268
C8 C 0.65629(19) 0.08037(12) 0.7376(2)
C9 C 0.6982(2) 0.01021(13) 0.6683(2)
C10 C 0.6231(3) -0.04686(14) 0.6304(3)
H8 H 0.5443 -0.0423 0.6509
C11 C 0.6650(4) -0.11063(16) 0.5621(3)
H9 H 0.6142 -0.1486 0.5366
C12 C 0.7808(5) -0.1177(2) 0.5325(4)
H10 H 0.8085 -0.1604 0.4861
C13 C 0.8569(4) -0.0623(2) 0.5706(4)
H11 H 0.9357 -0.0678 0.5510
C14 C 0.8160(3) 0.00239(15) 0.6386(3)
H12 H 0.8674 0.0401 0.6638
C15 C 0.39591(17) 0.14319(12) 0.9882(2)
H13 H 0.3713 0.0931 1.0089
H14 H 0.3930 0.1702 1.0850
C16 C 0.31204(18) 0.17754(11) 0.8762(2)
C17 C 0.18484(18) 0.16906(12) 0.9047(2)
C18 C 0.1408(2) 0.12207(15) 1.0154(3)
H15 H 0.1913 0.0944 1.0760
C19 C 0.0221(2) 0.1156(2) 1.0373(4)
H16 H -0.0064 0.0839 1.1127
C20 C -0.0520(2) 0.1552(2) 0.9497(4)
H17 H -0.1316 0.1505 0.9640
C21 C -0.0103(2) 0.20237(19) 0.8394(4)
H18 H -0.0617 0.2298 0.7794
C22 C 0.1079(2) 0.20944(14) 0.8170(3)
H19 H 0.1356 0.2417 0.7421
loop_
_geom_bond_atom_site_label_1
_geom_bond_atom_site_label_2
_geom_bond_site_symmetry_1
_geom_bond_site_symmetry_2
N1 C1 1_555 1_555
O1 C8 1_555 1_555
O2 C16 1_555 1_555
C1 H1 1_555 1_555
C2 C1 1_555 1_555
H2 C2 1_555 1_555
C3 C2 1_555 1_555
H3 C3 1_555 1_555
C4 C3 1_555 1_555
H4 C4 1_555 1_555
C5 N1 1_555 1_555
C6 C5 1_555 1_555
H5 C6 1_555 1_555
C7 C6 1_555 1_555
H6 C7 1_555 1_555
H7 C7 1_555 1_555
C8 C7 1_555 1_555
C9 C8 1_555 1_555
C10 C9 1_555 1_555
H8 C10 1_555 1_555
C11 C10 1_555 1_555
H9 C11 1_555 1_555
C12 C11 1_555 1_555
H10 C12 1_555 1_555
C13 C12 1_555 1_555
H11 C13 1_555 1_555
C14 C9 1_555 1_555
H12 C14 1_555 1_555
C15 C6 1_555 1_555
H13 C15 1_555 1_555
H14 C15 1_555 1_555
C16 C15 1_555 1_555
C17 C16 1_555 1_555
C18 C17 1_555 1_555
H15 C18 1_555 1_555
C19 C18 1_555 1_555
H16 C19 1_555 1_555
C20 C19 1_555 1_555
H17 C20 1_555 1_555
C21 C20 1_555 1_555
H18 C21 1_555 1_555
C22 C17 1_555 1_555
H19 C22 1_555 1_555
C4 C5 1_555 1_555
C13 C14 1_555 1_555
C21 C22 1_555 1_555

#END
