
#######################################################################
#
#                 Cambridge Crystallographic Data Centre
#                                CCDC 
#
#######################################################################
#
# If this CIF has been generated from an entry in the Cambridge 
# Structural Database, then it will include bibliographic, chemical, 
# crystal, experimental, refinement or atomic coordinate data resulting 
# from the CCDC's data processing and validation procedures.
#
#######################################################################

data_QAYSUF
_chemical_formula_moiety         'C21 H19 N1'
_chemical_name_systematic        9-(4-Ethylbenzyl)-9H-carbazole
_symmetry_cell_setting           orthorhombic
_symmetry_space_group_name_H-M   'P 21 21 21'
_symmetry_Int_Tables_number      19
_space_group_name_Hall           'P 2ac 2ab'
loop_
_symmetry_equiv_pos_site_id
_symmetry_equiv_pos_as_xyz
1 x,y,z
2 1/2-x,-y,1/2+z
3 -x,1/2+y,1/2-z
4 1/2+x,1/2-y,-z
_cell_length_a                   5.6074(14)
_cell_length_b                   13.943(3)
_cell_length_c                   20.124(5)
_cell_angle_alpha                90
_cell_angle_beta                 90
_cell_angle_gamma                90
_cell_volume                     1573.37
_exptl_crystal_colour            colorless
_exptl_crystal_description       block
_chemical_melting_point          '392.5-393.8 K'
_cell_formula_units_Z            4
_exptl_crystal_recrystallization_method ethanol
loop_
_atom_site_label
_atom_site_type_symbol
_atom_site_fract_x
_atom_site_fract_y
_atom_site_fract_z
N1 N 0.0961(5) 0.6253(2) 0.25449(14)
C1 C 0.1157(6) 0.6745(3) 0.19486(17)
C2 C -0.0311(7) 0.7448(3) 0.1685(2)
H1 H -0.1626 0.7677 0.1918
C3 C 0.0256(8) 0.7793(3) 0.1066(2)
H2 H -0.0700 0.8265 0.0878
C4 C 0.2202(9) 0.7461(3) 0.07156(19)
H3 H 0.2538 0.7714 0.0299
C5 C 0.3653(8) 0.6758(3) 0.09757(18)
H4 H 0.4960 0.6536 0.0736
C6 C 0.3142(6) 0.6384(3) 0.16013(17)
C7 C 0.4180(6) 0.5647(2) 0.20019(18)
C8 C 0.6108(7) 0.5028(3) 0.1927(2)
H5 H 0.7065 0.5066 0.1551
C9 C 0.6591(8) 0.4363(3) 0.2407(2)
H6 H 0.7877 0.3949 0.2354
C10 C 0.5195(9) 0.4300(3) 0.2970(2)
H7 H 0.5554 0.3842 0.3290
C11 C 0.3259(8) 0.4909(3) 0.3066(2)
H8 H 0.2324 0.4867 0.3446
C12 C 0.2770(6) 0.5576(3) 0.25812(19)
C13 C -0.0853(7) 0.6440(3) 0.30498(18)
H9 H -0.1036 0.5869 0.3320
H10 H -0.2363 0.6555 0.2829
C14 C -0.032(2) 0.7281(9) 0.3503(8)
C15 C -0.2072(18) 0.7976(9) 0.3591(7)
H11 H -0.3484 0.7944 0.3349
C16 C -0.1710(19) 0.8719(8) 0.4040(8)
H12 H -0.2879 0.9185 0.4099
C17 C 0.040(2) 0.8767(9) 0.4401(7)
C18 C 0.2148(19) 0.8072(10) 0.4313(7)
H13 H 0.3560 0.8104 0.4554
C19 C 0.1786(19) 0.7328(8) 0.3864(7)
H14 H 0.2955 0.6863 0.3805
C20 C 0.081(2) 0.9641(9) 0.4832(6)
H15 H 0.0809 1.0195 0.4540
H16 H -0.0566 0.9704 0.5120
C21 C 0.287(2) 0.9713(9) 0.5240(6)
H17 H 0.2644 1.0215 0.5560
H18 H 0.4232 0.9857 0.4969
H19 H 0.3122 0.9116 0.5466
C22? C -0.019(3) 0.7228(8) 0.3537(8)
C23? C -0.150(2) 0.8074(9) 0.3562(7)
H20? H -0.2789 0.8163 0.3277
C24? C -0.089(2) 0.8786(8) 0.4015(7)
H21? H -0.1768 0.9352 0.4032
C25? C 0.103(3) 0.8652(9) 0.4441(8)
C26? C 0.234(3) 0.7807(10) 0.4416(8)
H22? H 0.3624 0.7717 0.4701
C27? C 0.173(3) 0.7095(8) 0.3963(8)
H23? H 0.2603 0.6529 0.3946
C28? C 0.152(3) 0.9315(9) 0.5030(7)
H24? H 0.1338 0.8947 0.5436
H25? H 0.3167 0.9523 0.5006
C29? C 0.001(3) 1.0165(9) 0.5077(8)
H26? H 0.0603 1.0581 0.5419
H27? H -0.1595 0.9975 0.5183
H28? H 0.0015 1.0499 0.4660
loop_
_geom_bond_atom_site_label_1
_geom_bond_atom_site_label_2
_geom_bond_site_symmetry_1
_geom_bond_site_symmetry_2
N1 C1 1_555 1_555
C1 C2 1_555 1_555
C2 H1 1_555 1_555
C3 C2 1_555 1_555
H2 C3 1_555 1_555
C4 C3 1_555 1_555
H3 C4 1_555 1_555
C5 C4 1_555 1_555
H4 C5 1_555 1_555
C6 C1 1_555 1_555
C7 C6 1_555 1_555
C8 C7 1_555 1_555
H5 C8 1_555 1_555
C9 C8 1_555 1_555
H6 C9 1_555 1_555
C10 C9 1_555 1_555
H7 C10 1_555 1_555
C11 C10 1_555 1_555
H8 C11 1_555 1_555
C12 N1 1_555 1_555
C13 N1 1_555 1_555
H9 C13 1_555 1_555
H10 C13 1_555 1_555
C14 C13 1_555 1_555
C15 C14 1_555 1_555
H11 C15 1_555 1_555
C16 C15 1_555 1_555
H12 C16 1_555 1_555
C17 C16 1_555 1_555
C18 C17 1_555 1_555
H13 C18 1_555 1_555
C19 C14 1_555 1_555
H14 C19 1_555 1_555
C20 C17 1_555 1_555
H15 C20 1_555 1_555
H16 C20 1_555 1_555
C21 C20 1_555 1_555
H17 C21 1_555 1_555
H18 C21 1_555 1_555
H19 C21 1_555 1_555
C5 C6 1_555 1_555
C7 C12 1_555 1_555
C11 C12 1_555 1_555
C18 C19 1_555 1_555

#END
