
#######################################################################
#
#                 Cambridge Crystallographic Data Centre
#                                CCDC 
#
#######################################################################
#
# If this CIF has been generated from an entry in the Cambridge 
# Structural Database, then it will include bibliographic, chemical, 
# crystal, experimental, refinement or atomic coordinate data resulting 
# from the CCDC's data processing and validation procedures.
#
#######################################################################

data_QAYSIT
_chemical_formula_moiety         'C19 H19 N1 O6'
_chemical_name_systematic        
4a-Hydroxy-9-(3-nitrophenyl)-3,4,4a,5,6,7,9,9a-octahydro-2H-xanthene-1,8-dione
_symmetry_cell_setting           monoclinic
_symmetry_space_group_name_H-M   'P 21/n'
_symmetry_Int_Tables_number      14
_space_group_name_Hall           '-P 2yn'
loop_
_symmetry_equiv_pos_site_id
_symmetry_equiv_pos_as_xyz
1 x,y,z
2 1/2-x,1/2+y,1/2-z
3 -x,-y,-z
4 1/2+x,1/2-y,1/2+z
_cell_length_a                   6.2983(11)
_cell_length_b                   12.869(2)
_cell_length_c                   21.619(4)
_cell_angle_alpha                90
_cell_angle_beta                 90.960(4)
_cell_angle_gamma                90
_cell_volume                     1752.04
_exptl_crystal_colour            colorless
_exptl_crystal_description       prism
_chemical_melting_point          '492 K'
_cell_formula_units_Z            4
_exptl_crystal_recrystallization_method ethanol
loop_
_atom_site_label
_atom_site_type_symbol
_atom_site_fract_x
_atom_site_fract_y
_atom_site_fract_z
O1 O 0.8223(4) 0.37217(15) 0.18106(11)
H1 H 0.848(6) 0.439(3) 0.204(2)
O2 O 0.4539(3) 0.38226(13) 0.18857(10)
O3 O 0.6032(4) 0.04412(15) 0.25377(11)
O4 O 0.9200(4) 0.20673(16) 0.05762(11)
O5 O 0.8997(5) -0.18122(17) 0.09561(14)
O6 O 0.6440(4) -0.25602(17) 0.04763(15)
N1 N 0.7198(6) -0.18198(19) 0.07495(15)
C1 C 0.6319(5) 0.37591(19) 0.14704(16)
C2 C 0.6153(6) 0.4710(2) 0.10583(17)
H2 H 0.4777 0.4719 0.0850
H3 H 0.6272 0.5333 0.1310
C3 C 0.7886(6) 0.4707(2) 0.05814(18)
H4 H 0.9251 0.4796 0.0789
H5 H 0.7676 0.5291 0.0303
C4 C 0.7917(6) 0.3703(2) 0.02044(17)
H6 H 0.6677 0.3678 -0.0067
H7 H 0.9169 0.3692 -0.0051
C5 C 0.7930(5) 0.2760(2) 0.06244(16)
C6 C 0.6219(5) 0.27558(18) 0.11060(14)
H8 H 0.4846 0.2741 0.0886
C7 C 0.6300(5) 0.18076(17) 0.15356(14)
H9 H 0.7780 0.1686 0.1663
C8 C 0.5018(5) 0.20157(18) 0.21027(14)
C9 C 0.4888(6) 0.1214(2) 0.25756(16)
C10 C 0.3445(6) 0.1366(3) 0.31102(18)
H10 H 0.4281 0.1583 0.3468
H11 H 0.2782 0.0708 0.3209
C11 C 0.1724(6) 0.2168(3) 0.2982(2)
H12 H 0.0957 0.2305 0.3359
H13 H 0.0724 0.1899 0.2676
C12 C 0.2699(6) 0.3176(2) 0.27459(17)
H14 H 0.1579 0.3641 0.2605
H15 H 0.3476 0.3517 0.3080
C13 C 0.4160(5) 0.2959(2) 0.22272(16)
C14 C 0.5469(4) 0.08390(19) 0.12010(14)
C15 C 0.6707(5) -0.00347(19) 0.11298(14)
H16 H 0.8092 -0.0051 0.1286
C16 C 0.5865(5) -0.08853(19) 0.08243(15)
C17 C 0.3828(6) -0.0902(2) 0.05858(16)
H17 H 0.3299 -0.1484 0.0380
C18 C 0.2601(5) -0.0031(2) 0.06608(16)
H18 H 0.1215 -0.0020 0.0505
C19 C 0.3407(5) 0.0830(2) 0.09648(15)
H19 H 0.2554 0.1413 0.1012
loop_
_geom_bond_atom_site_label_1
_geom_bond_atom_site_label_2
_geom_bond_site_symmetry_1
_geom_bond_site_symmetry_2
O1 H1 1_555 1_555
O2 C1 1_555 1_555
O3 C9 1_555 1_555
O4 C5 1_555 1_555
O5 N1 1_555 1_555
O6 N1 1_555 1_555
N1 C16 1_555 1_555
C1 O1 1_555 1_555
C2 C1 1_555 1_555
H2 C2 1_555 1_555
H3 C2 1_555 1_555
C3 C2 1_555 1_555
H4 C3 1_555 1_555
H5 C3 1_555 1_555
C4 C3 1_555 1_555
H6 C4 1_555 1_555
H7 C4 1_555 1_555
C5 C4 1_555 1_555
C6 C1 1_555 1_555
H8 C6 1_555 1_555
C7 C6 1_555 1_555
H9 C7 1_555 1_555
C8 C7 1_555 1_555
C9 C8 1_555 1_555
C10 C9 1_555 1_555
H10 C10 1_555 1_555
H11 C10 1_555 1_555
C11 C10 1_555 1_555
H12 C11 1_555 1_555
H13 C11 1_555 1_555
C12 C11 1_555 1_555
H14 C12 1_555 1_555
H15 C12 1_555 1_555
C13 O2 1_555 1_555
C14 C7 1_555 1_555
C15 C14 1_555 1_555
H16 C15 1_555 1_555
C16 C15 1_555 1_555
C17 C16 1_555 1_555
H17 C17 1_555 1_555
C18 C17 1_555 1_555
H18 C18 1_555 1_555
C19 C14 1_555 1_555
H19 C19 1_555 1_555
C5 C6 1_555 1_555
C8 C13 1_555 1_555
C12 C13 1_555 1_555
C18 C19 1_555 1_555

#END
