
#######################################################################
#
#                 Cambridge Crystallographic Data Centre
#                                CCDC 
#
#######################################################################
#
# If this CIF has been generated from an entry in the Cambridge 
# Structural Database, then it will include bibliographic, chemical, 
# crystal, experimental, refinement or atomic coordinate data resulting 
# from the CCDC's data processing and validation procedures.
#
#######################################################################

data_QAYVOB
_chemical_formula_moiety         'C19 H15 N5'
_chemical_name_systematic        
4-(p-Methylphenyl)-3,5-bis(pyridin-2-yl)-1,2,4-triazole
_symmetry_cell_setting           monoclinic
_symmetry_space_group_name_H-M   'P 21/c'
_symmetry_Int_Tables_number      14
_space_group_name_Hall           '-P 2ybc'
loop_
_symmetry_equiv_pos_site_id
_symmetry_equiv_pos_as_xyz
1 x,y,z
2 x,1/2-y,1/2+z
3 -x,-y,-z
4 -x,1/2+y,1/2-z
_cell_length_a                   11.0280(5)
_cell_length_b                   18.5234(8)
_cell_length_c                   8.5052(4)
_cell_angle_alpha                90
_cell_angle_beta                 106.4420(10)
_cell_angle_gamma                90
_cell_volume                     1666.36
_exptl_crystal_colour            colorless
_exptl_crystal_description       plate
_chemical_melting_point          196-198deg.C
_cell_formula_units_Z            4
_exptl_crystal_recrystallization_method acetone
loop_
_atom_site_label
_atom_site_type_symbol
_atom_site_fract_x
_atom_site_fract_y
_atom_site_fract_z
N1 N 0.76442(14) 0.15586(9) 0.7882(2)
N2 N 0.96805(16) 0.17406(11) 0.8264(3)
N3 N 0.94658(16) 0.10062(11) 0.8216(3)
N4 N 0.75585(17) 0.31118(10) 0.8716(2)
N5 N 0.66216(17) 0.00863(10) 0.6575(2)
C1 C 0.85875(18) 0.20617(12) 0.8059(3)
C2 C 0.82506(18) 0.09077(11) 0.7989(3)
C3 C 0.84489(18) 0.28508(12) 0.8086(3)
C4 C 0.9268(2) 0.32864(14) 0.7535(3)
H1 H 0.9876 0.3085 0.7100
C5 C 0.9160(3) 0.40213(16) 0.7645(4)
H2 H 0.9700 0.4327 0.7294
C6 C 0.8245(3) 0.43001(15) 0.8281(4)
H3 H 0.8152 0.4796 0.8369
C7 C 0.7471(3) 0.38272(14) 0.8785(3)
H4 H 0.6845 0.4019 0.9201
C8 C 0.76490(19) 0.01900(11) 0.7844(3)
C9 C 0.81649(19) -0.03439(12) 0.8970(3)
H5 H 0.8882 -0.0253 0.9834
C10 C 0.7600(2) -0.10113(13) 0.8790(3)
H6 H 0.7934 -0.1381 0.9525
C11 C 0.6540(2) -0.11237(13) 0.7516(3)
H7 H 0.6131 -0.1568 0.7379
C12 C 0.6088(2) -0.05659(13) 0.6437(3)
H8 H 0.5372 -0.0648 0.5566
C13 C 0.62988(17) 0.16560(10) 0.7606(3)
C14 C 0.57050(19) 0.13113(12) 0.8619(3)
H9 H 0.6174 0.1053 0.9525
C15 C 0.4400(2) 0.13542(13) 0.8272(3)
H10 H 0.3996 0.1110 0.8936
C16 C 0.36874(19) 0.17524(12) 0.6957(3)
C17 C 0.43184(18) 0.21134(12) 0.6012(3)
H11 H 0.3858 0.2401 0.5152
C18 C 0.56198(17) 0.20631(11) 0.6299(3)
H12 H 0.6023 0.2299 0.5623
C19 C 0.2260(2) 0.17898(16) 0.6570(4)
H13 H 0.1988 0.1507 0.7354
H14 H 0.1883 0.1603 0.5488
H15 H 0.2005 0.2283 0.6622
loop_
_geom_bond_atom_site_label_1
_geom_bond_atom_site_label_2
_geom_bond_site_symmetry_1
_geom_bond_site_symmetry_2
N1 C1 1_555 1_555
N2 N3 1_555 1_555
N3 C2 1_555 1_555
N4 C3 1_555 1_555
N5 C8 1_555 1_555
C1 N2 1_555 1_555
C2 N1 1_555 1_555
C3 C1 1_555 1_555
C4 C3 1_555 1_555
H1 C4 1_555 1_555
C5 C4 1_555 1_555
H2 C5 1_555 1_555
C6 C5 1_555 1_555
H3 C6 1_555 1_555
C7 N4 1_555 1_555
H4 C7 1_555 1_555
C8 C2 1_555 1_555
C9 C8 1_555 1_555
H5 C9 1_555 1_555
C10 C9 1_555 1_555
H6 C10 1_555 1_555
C11 C10 1_555 1_555
H7 C11 1_555 1_555
C12 N5 1_555 1_555
H8 C12 1_555 1_555
C13 N1 1_555 1_555
C14 C13 1_555 1_555
H9 C14 1_555 1_555
C15 C14 1_555 1_555
H10 C15 1_555 1_555
C16 C15 1_555 1_555
C17 C16 1_555 1_555
H11 C17 1_555 1_555
C18 C13 1_555 1_555
H12 C18 1_555 1_555
C19 C16 1_555 1_555
H13 C19 1_555 1_555
H14 C19 1_555 1_555
H15 C19 1_555 1_555
C6 C7 1_555 1_555
C11 C12 1_555 1_555
C17 C18 1_555 1_555

#END
