
#######################################################################
#
#                 Cambridge Crystallographic Data Centre
#                                CCDC 
#
#######################################################################
#
# If this CIF has been generated from an entry in the Cambridge 
# Structural Database, then it will include bibliographic, chemical, 
# crystal, experimental, refinement or atomic coordinate data resulting 
# from the CCDC's data processing and validation procedures.
#
#######################################################################

data_QAZDUQ
_chemical_formula_moiety         'C52 H62 N2 O6'
_chemical_name_systematic        
'1,4-bis(2-(4-((N-Oxyl-2,2,5,5-tetramethylpyrrolin-3-yl)carbonyloxy)phenyl)ethynyl)-2,5-dihexylbenzene diradical'
_symmetry_cell_setting           triclinic
_symmetry_space_group_name_H-M   'P -1'
_symmetry_Int_Tables_number      2
_space_group_name_Hall           '-P 1'
loop_
_symmetry_equiv_pos_site_id
_symmetry_equiv_pos_as_xyz
1 x,y,z
2 -x,-y,-z
_cell_length_a                   9.283(2)
_cell_length_b                   9.933(2)
_cell_length_c                   12.351(1)
_cell_angle_alpha                80.921(11)
_cell_angle_beta                 82.399(11)
_cell_angle_gamma                87.260(8)
_cell_volume                     1114.29
_exptl_crystal_colour            yellow
_exptl_crystal_description       plate
_chemical_melting_point          '176.7-178.0 deg.C'
_cell_formula_units_Z            1
_exptl_crystal_recrystallization_method 'ethanol/ethyl acetate'
loop_
_atom_site_label
_atom_site_type_symbol
_atom_site_fract_x
_atom_site_fract_y
_atom_site_fract_z
O1 O 1.2302(5) 0.2101(6) 0.6907(4)
O2 O 0.7590(4) 0.2547(5) 0.4827(4)
O3 O 0.8941(4) 0.3073(4) 0.3168(3)
C1 C 0.0353(4) 0.3607(4) 0.0352(4)
N1 N 1.1763(5) 0.2343(5) 0.6006(4)
C2 C 1.0165(6) 0.2310(6) 0.5983(5)
C3 C 1.0155(6) 0.2593(6) 0.4750(5)
C4 C 1.2675(6) 0.2530(6) 0.4918(5)
C5 C 0.8748(6) 0.2722(6) 0.4282(5)
C6 C 0.7640(5) 0.3307(6) 0.2666(4)
C7 C 0.5134(6) 0.3787(6) 0.1688(5)
C8 C 0.3792(6) 0.4066(6) 0.1238(5)
C9 C 0.2640(6) 0.4327(6) 0.0899(5)
C10 C 0.1288(5) 0.4645(6) 0.0449(4)
C11 C 1.1475(6) 0.2728(6) 0.4174(5)
C12 C 0.6907(6) 0.2209(6) 0.2476(5)
C13 C 0.5647(6) 0.2463(6) 0.1980(5)
C14 C 0.5950(6) 0.4871(6) 0.1858(5)
C15 C 0.7200(6) 0.4626(6) 0.2362(5)
C16 C 0.0910(5) 0.6007(4) 0.0111(4)
H1 H 1.1643(6) 0.2936(6) 0.3391(5)
H2 H 0.7258(6) 0.1304(6) 0.2683(5)
H3 H 0.5117(6) 0.1724(6) 0.1845(5)
H4 H 0.5637(6) 0.5782(6) 0.1621(5)
H5 H 0.7736(6) 0.5358(6) 0.2503(5)
H6 H 0.1535(5) 0.6698(4) 0.0206(4)
C17 C 0.9635(7) 0.0911(6) 0.6508(5)
H7 H 0.8617(7) 0.0877(6) 0.6492(5)
H8 H 0.9837(7) 0.0731(6) 0.7252(5)
H9 H 1.0122(7) 0.0246(6) 0.6106(5)
C18 C 0.9438(6) 0.3416(6) 0.6582(5)
H10 H 0.8418(6) 0.3410(6) 0.6566(5)
H11 H 0.9638(6) 0.3252(6) 0.7327(5)
H12 H 0.9797(6) 0.4279(6) 0.6236(5)
C19 C 1.3601(7) 0.3778(7) 0.4796(6)
H13 H 1.4185(7) 0.3883(7) 0.4098(6)
H14 H 1.4209(7) 0.3670(7) 0.5367(6)
H15 H 1.2986(7) 0.4564(7) 0.4847(6)
C20 C 1.3580(7) 0.1254(7) 0.4790(6)
H16 H 1.4169(7) 0.1373(7) 0.4094(6)
H17 H 1.4183(7) 0.1070(7) 0.5364(6)
H18 H 1.2955(7) 0.0513(7) 0.4833(6)
C21 C 0.0749(6) 0.2139(5) 0.0685(5)
H19 H 0.1221(6) 0.2039(5) 0.1331(5)
H20 H -0.0123(6) 0.1643(5) 0.0838(5)
C22 C 0.1727(6) 0.1544(6) -0.0213(5)
H21 H 0.2572(6) 0.2077(6) -0.0392(5)
H22 H 0.1231(6) 0.1606(6) -0.0846(5)
C23 C 0.2207(6) 0.0073(6) 0.0132(5)
H23 H 0.2684(6) -0.0270(6) -0.0501(5)
H24 H 0.1367(6) -0.0443(6) 0.0418(5)
C24 C 0.3240(6) -0.0100(6) 0.1006(5)
H25 H 0.4104(6) 0.0369(6) 0.0701(5)
H26 H 0.2783(6) 0.0300(6) 0.1618(5)
C25 C 0.3649(6) -0.1552(6) 0.1416(5)
H27 H 0.4210(6) -0.1930(6) 0.0831(5)
H28 H 0.2786(6) -0.2053(6) 0.1649(5)
C26 C 0.4547(7) -0.1667(7) 0.2376(6)
H29 H 0.4793(7) -0.2593(7) 0.2623(6)
H30 H 0.5411(7) -0.1168(7) 0.2144(6)
H31 H 0.3987(7) -0.1291(7) 0.2963(6)
C16A C -0.0910(5) 0.3993(4) -0.0111(4)
C10A C -0.1288(5) 0.5355(6) -0.0449(4)
C1A C -0.0353(4) 0.6393(4) -0.0352(4)
C21A C -0.0749(6) 0.7861(5) -0.0685(5)
H19A H -0.1221(6) 0.7961(5) -0.1331(5)
H20A H 0.0123(6) 0.8357(5) -0.0838(5)
C22A C -0.1727(6) 0.8456(6) 0.0213(5)
H21A H -0.2572(6) 0.7923(6) 0.0392(5)
H22A H -0.1231(6) 0.8394(6) 0.0846(5)
C23A C -0.2207(6) 0.9927(6) -0.0132(5)
H23A H -0.2684(6) 1.0270(6) 0.0501(5)
H24A H -0.1367(6) 1.0443(6) -0.0418(5)
C24A C -0.3240(6) 1.0100(6) -0.1006(5)
H25A H -0.4104(6) 0.9631(6) -0.0701(5)
H26A H -0.2783(6) 0.9700(6) -0.1618(5)
C25A C -0.3649(6) 1.1552(6) -0.1416(5)
H27A H -0.4210(6) 1.1930(6) -0.0831(5)
H28A H -0.2786(6) 1.2053(6) -0.1649(5)
C26A C -0.4547(7) 1.1667(7) -0.2376(6)
H29A H -0.4793(7) 1.2593(7) -0.2623(6)
H30A H -0.5411(7) 1.1168(7) -0.2144(6)
H31A H -0.3987(7) 1.1291(7) -0.2963(6)
C9A C -0.2640(6) 0.5673(6) -0.0899(5)
C8A C -0.3792(6) 0.5934(6) -0.1238(5)
C7A C -0.5134(6) 0.6213(6) -0.1688(5)
C13A C -0.5647(6) 0.7537(6) -0.1980(5)
C12A C -0.6907(6) 0.7791(6) -0.2476(5)
C6A C -0.7640(5) 0.6693(6) -0.2666(4)
O3A O -0.8941(4) 0.6927(4) -0.3168(3)
C5A C -0.8748(6) 0.7278(6) -0.4282(5)
O2A O -0.7590(4) 0.7453(5) -0.4827(4)
C3A C -1.0155(6) 0.7407(6) -0.4750(5)
C2A C -1.0165(6) 0.7690(6) -0.5983(5)
N1A N -1.1763(5) 0.7657(5) -0.6006(4)
O1A O -1.2302(5) 0.7899(6) -0.6907(4)
C4A C -1.2675(6) 0.7470(6) -0.4918(5)
C11A C -1.1475(6) 0.7272(6) -0.4174(5)
H1A H -1.1643(6) 0.7064(6) -0.3391(5)
C19A C -1.3601(7) 0.6222(7) -0.4796(6)
H13A H -1.4185(7) 0.6117(7) -0.4098(6)
H14A H -1.4209(7) 0.6330(7) -0.5367(6)
H15A H -1.2986(7) 0.5436(7) -0.4847(6)
C20A C -1.3580(7) 0.8746(7) -0.4790(6)
H16A H -1.4169(7) 0.8627(7) -0.4094(6)
H17A H -1.4183(7) 0.8930(7) -0.5364(6)
H18A H -1.2955(7) 0.9487(7) -0.4833(6)
C17A C -0.9635(7) 0.9089(6) -0.6508(5)
H7A H -0.8617(7) 0.9123(6) -0.6492(5)
H8A H -0.9837(7) 0.9269(6) -0.7252(5)
H9A H -1.0122(7) 0.9754(6) -0.6106(5)
C18A C -0.9438(6) 0.6584(6) -0.6582(5)
H10A H -0.8418(6) 0.6590(6) -0.6566(5)
H11A H -0.9638(6) 0.6748(6) -0.7327(5)
H12A H -0.9797(6) 0.5721(6) -0.6236(5)
C15A C -0.7200(6) 0.5374(6) -0.2362(5)
C14A C -0.5950(6) 0.5129(6) -0.1858(5)
H4A H -0.5637(6) 0.4218(6) -0.1621(5)
H5A H -0.7736(6) 0.4642(6) -0.2503(5)
H2A H -0.7258(6) 0.8696(6) -0.2683(5)
H3A H -0.5117(6) 0.8276(6) -0.1845(5)
H6A H -0.1535(5) 0.3302(4) -0.0206(4)
loop_
_geom_bond_atom_site_label_1
_geom_bond_atom_site_label_2
_geom_bond_site_symmetry_1
_geom_bond_site_symmetry_2
O1 N1 1_555 1_555
O2 C5 1_555 1_555
O3 C5 1_555 1_555
C1 C10 1_555 1_555
N1 C2 1_555 1_555
C2 C3 1_555 1_555
C3 C5 1_555 1_555
C4 N1 1_555 1_555
C6 O3 1_555 1_555
C7 C8 1_555 1_555
C8 C9 1_555 1_555
C9 C10 1_555 1_555
C10 C16 1_555 1_555
C11 C3 1_555 1_555
C12 C6 1_555 1_555
C13 C7 1_555 1_555
C14 C7 1_555 1_555
C15 C6 1_555 1_555
C16 H6 1_555 1_555
H1 C11 1_555 1_555
H2 C12 1_555 1_555
H3 C13 1_555 1_555
H4 C14 1_555 1_555
H5 C15 1_555 1_555
C17 C2 1_555 1_555
H7 C17 1_555 1_555
H8 C17 1_555 1_555
H9 C17 1_555 1_555
C18 C2 1_555 1_555
H10 C18 1_555 1_555
H11 C18 1_555 1_555
H12 C18 1_555 1_555
C19 C4 1_555 1_555
H13 C19 1_555 1_555
H14 C19 1_555 1_555
H15 C19 1_555 1_555
C20 C4 1_555 1_555
H16 C20 1_555 1_555
H17 C20 1_555 1_555
H18 C20 1_555 1_555
C21 C1 1_555 1_555
H19 C21 1_555 1_555
H20 C21 1_555 1_555
C22 C21 1_555 1_555
H21 C22 1_555 1_555
H22 C22 1_555 1_555
C23 C22 1_555 1_555
H23 C23 1_555 1_555
H24 C23 1_555 1_555
C24 C23 1_555 1_555
H25 C24 1_555 1_555
H26 C24 1_555 1_555
C25 C24 1_555 1_555
H27 C25 1_555 1_555
H28 C25 1_555 1_555
C26 C25 1_555 1_555
H29 C26 1_555 1_555
H30 C26 1_555 1_555
H31 C26 1_555 1_555
C16A C1 1_555 1_555
C10A C16A 1_555 1_555
C1A C16 1_555 1_555
C21A C1A 1_555 1_555
H19A C21A 1_555 1_555
H20A C21A 1_555 1_555
C22A C21A 1_555 1_555
H21A C22A 1_555 1_555
H22A C22A 1_555 1_555
C23A C22A 1_555 1_555
H23A C23A 1_555 1_555
H24A C23A 1_555 1_555
C24A C23A 1_555 1_555
H25A C24A 1_555 1_555
H26A C24A 1_555 1_555
C25A C24A 1_555 1_555
H27A C25A 1_555 1_555
H28A C25A 1_555 1_555
C26A C25A 1_555 1_555
H29A C26A 1_555 1_555
H30A C26A 1_555 1_555
H31A C26A 1_555 1_555
C9A C10A 1_555 1_555
C8A C9A 1_555 1_555
C7A C8A 1_555 1_555
C13A C7A 1_555 1_555
C12A C13A 1_555 1_555
C6A C12A 1_555 1_555
O3A C6A 1_555 1_555
C5A O3A 1_555 1_555
O2A C5A 1_555 1_555
C3A C5A 1_555 1_555
C2A C3A 1_555 1_555
N1A C2A 1_555 1_555
O1A N1A 1_555 1_555
C4A N1A 1_555 1_555
C11A C3A 1_555 1_555
H1A C11A 1_555 1_555
C19A C4A 1_555 1_555
H13A C19A 1_555 1_555
H14A C19A 1_555 1_555
H15A C19A 1_555 1_555
C20A C4A 1_555 1_555
H16A C20A 1_555 1_555
H17A C20A 1_555 1_555
H18A C20A 1_555 1_555
C17A C2A 1_555 1_555
H7A C17A 1_555 1_555
H8A C17A 1_555 1_555
H9A C17A 1_555 1_555
C18A C2A 1_555 1_555
H10A C18A 1_555 1_555
H11A C18A 1_555 1_555
H12A C18A 1_555 1_555
C15A C6A 1_555 1_555
C14A C7A 1_555 1_555
H4A C14A 1_555 1_555
H5A C15A 1_555 1_555
H2A C12A 1_555 1_555
H3A C13A 1_555 1_555
H6A C16A 1_555 1_555
C4 C11 1_555 1_555
C12 C13 1_555 1_555
C14 C15 1_555 1_555
C10A C1A 1_555 1_555
C4A C11A 1_555 1_555
C15A C14A 1_555 1_555

#END
