
#######################################################################
#
#                 Cambridge Crystallographic Data Centre
#                                CCDC 
#
#######################################################################
#
# If this CIF has been generated from an entry in the Cambridge 
# Structural Database, then it will include bibliographic, chemical, 
# crystal, experimental, refinement or atomic coordinate data resulting 
# from the CCDC's data processing and validation procedures.
#
#######################################################################

data_QAZNOX
_chemical_formula_moiety         'C32 H25 Br1 N2 O4 S1'
_chemical_name_systematic        
"[2-bromo-6-(4-methylphenyl)-6a-nitro-6a,6b,13,13a-tetrahydro-6H-[1]benzopyrano[3',4':3,4]pyrrolo[2,1-b][1,3]benzothiazol-13-yl](4-methylphenyl)methanone"
_symmetry_cell_setting           monoclinic
_symmetry_space_group_name_H-M   'P 21/c'
_symmetry_Int_Tables_number      14
_space_group_name_Hall           '-P 2ybc'
loop_
_symmetry_equiv_pos_site_id
_symmetry_equiv_pos_as_xyz
1 x,y,z
2 -x,1/2+y,1/2-z
3 -x,-y,-z
4 x,1/2-y,1/2+z
_cell_length_a                   11.643(2)
_cell_length_b                   13.163(3)
_cell_length_c                   20.446(4)
_cell_angle_alpha                90
_cell_angle_beta                 118.101(10)
_cell_angle_gamma                90
_cell_volume                     2764.11
_exptl_crystal_colour            colorless
_exptl_crystal_description       block
_cell_formula_units_Z            4
loop_
_atom_site_label
_atom_site_type_symbol
_atom_site_fract_x
_atom_site_fract_y
_atom_site_fract_z
Br1 Br 0.76879(3) 1.13722(2) 1.13969(2)
C1 C 0.34804(19) 0.73675(15) 0.75472(11)
C2 C 0.2151(2) 0.72300(18) 0.71045(12)
H1 H 0.1744 0.6639 0.7138
C3 C 0.1446(2) 0.7994(2) 0.66119(13)
H2 H 0.0553 0.7915 0.6315
C4 C 0.2041(2) 0.88675(18) 0.65538(13)
H3 H 0.1549 0.9368 0.6217
C5 C 0.3362(2) 0.90054(17) 0.69913(11)
H4 H 0.3766 0.9594 0.6952
C6 C 0.40741(19) 0.82544(14) 0.74889(10)
C7 C 0.59399(18) 0.73462(14) 0.83063(11)
H5 H 0.6315 0.7045 0.8011
C8 C 0.56158(18) 0.90426(13) 0.86339(10)
H6 H 0.4771 0.9193 0.8608
C9 C 0.62544(18) 1.00396(14) 0.85903(10)
C10 C 0.5841(2) 1.09975(14) 0.88043(11)
C11 C 0.4568(2) 1.11904(16) 0.86520(13)
H7 H 0.3926 1.0703 0.8412
C12 C 0.4254(2) 1.21102(17) 0.88577(15)
H8 H 0.3393 1.2240 0.8739
C13 C 0.5186(3) 1.28359(16) 0.92331(15)
C14 C 0.4861(4) 1.3846(2) 0.9462(2)
H9 H 0.3945 1.3873 0.9308
H10 H 0.5089 1.4388 0.9231
H11 H 0.5341 1.3915 0.9991
C15 C 0.6454(2) 1.26268(16) 0.93948(14)
H12 H 0.7100 1.3103 0.9655
C16 C 0.6786(2) 1.17302(16) 0.91798(12)
H13 H 0.7645 1.1614 0.9286
C17 C 0.64726(18) 0.84381(13) 0.93634(10)
H14 H 0.5901 0.8151 0.9546
C18 C 0.75157(19) 0.90556(14) 0.99762(10)
C19 C 0.7194(2) 0.97744(15) 1.03650(11)
H15 H 0.6331 0.9856 1.0260
C20 C 0.8144(2) 1.03606(16) 1.09000(11)
C21 C 0.9439(2) 1.02388(16) 1.10810(11)
H16 H 1.0076 1.0639 1.1447
C22 C 0.9773(2) 0.95204(16) 1.07149(11)
H17 H 1.0643 0.9422 1.0838
C23 C 0.88151(19) 0.89410(14) 1.01615(10)
C24 C 0.9907(2) 0.64658(15) 0.93701(12)
H18 H 1.0086 0.6483 0.9864
C25 C 1.0558(2) 0.57885(16) 0.91487(12)
H19 H 1.1177 0.5359 0.9498
C26 C 1.0311(2) 0.57316(17) 0.84194(13)
C27 C 1.1031(3) 0.4981(2) 0.81871(17)
H20 H 1.0482 0.4405 0.7955
H21 H 1.1806 0.4761 0.8616
H22 H 1.1261 0.5299 0.7843
C28 C 0.9388(3) 0.63839(19) 0.79162(13)
H23 H 0.9199 0.6357 0.7421
C29 C 0.8740(2) 0.70757(18) 0.81341(12)
H24 H 0.8132 0.7514 0.7786
C30 C 0.89885(19) 0.71202(14) 0.88639(11)
C31 C 0.83027(18) 0.78998(14) 0.90993(10)
H25 H 0.8100 0.8484 0.8766
C32 C 0.70163(19) 0.75630(14) 0.90922(10)
N1 N 0.54174(15) 0.83469(11) 0.80189(8)
N2 N 0.73194(16) 0.66416(12) 0.95821(10)
O1 O 0.71230(14) 1.00344(10) 0.84180(8)
O2 O 0.92328(13) 0.82295(10) 0.98270(8)
O3 O 0.77587(18) 0.67813(12) 1.02451(9)
O4 O 0.71710(16) 0.58069(11) 0.92950(9)
S1 S 0.45717(5) 0.65442(4) 0.82411(3)
loop_
_geom_bond_atom_site_label_1
_geom_bond_atom_site_label_2
_geom_bond_site_symmetry_1
_geom_bond_site_symmetry_2
Br1 C20 1_555 1_555
C1 C2 1_555 1_555
C2 H1 1_555 1_555
C3 C2 1_555 1_555
H2 C3 1_555 1_555
C4 C3 1_555 1_555
H3 C4 1_555 1_555
C5 C4 1_555 1_555
H4 C5 1_555 1_555
C6 C1 1_555 1_555
C7 H5 1_555 1_555
C8 H6 1_555 1_555
C9 C8 1_555 1_555
C10 C9 1_555 1_555
C11 C10 1_555 1_555
H7 C11 1_555 1_555
C12 C11 1_555 1_555
H8 C12 1_555 1_555
C13 C12 1_555 1_555
C14 C13 1_555 1_555
H9 C14 1_555 1_555
H10 C14 1_555 1_555
H11 C14 1_555 1_555
C15 C13 1_555 1_555
H12 C15 1_555 1_555
C16 C10 1_555 1_555
H13 C16 1_555 1_555
C17 C8 1_555 1_555
H14 C17 1_555 1_555
C18 C17 1_555 1_555
C19 C18 1_555 1_555
H15 C19 1_555 1_555
C20 C19 1_555 1_555
C21 C20 1_555 1_555
H16 C21 1_555 1_555
C22 C21 1_555 1_555
H17 C22 1_555 1_555
C23 C18 1_555 1_555
C24 H18 1_555 1_555
C25 C24 1_555 1_555
H19 C25 1_555 1_555
C26 C25 1_555 1_555
C27 C26 1_555 1_555
H20 C27 1_555 1_555
H21 C27 1_555 1_555
H22 C27 1_555 1_555
C28 C26 1_555 1_555
H23 C28 1_555 1_555
C29 C28 1_555 1_555
H24 C29 1_555 1_555
C30 C24 1_555 1_555
C31 C30 1_555 1_555
H25 C31 1_555 1_555
C32 C7 1_555 1_555
N1 C6 1_555 1_555
N2 C32 1_555 1_555
O1 C9 1_555 1_555
O2 C23 1_555 1_555
O3 N2 1_555 1_555
O4 N2 1_555 1_555
S1 C1 1_555 1_555
C5 C6 1_555 1_555
C7 N1 1_555 1_555
C7 S1 1_555 1_555
C8 N1 1_555 1_555
C15 C16 1_555 1_555
C17 C32 1_555 1_555
C22 C23 1_555 1_555
C29 C30 1_555 1_555
C31 C32 1_555 1_555
C31 O2 1_555 1_555

#END
