
#######################################################################
#
#                 Cambridge Crystallographic Data Centre
#                                CCDC 
#
#######################################################################
#
# If this CIF has been generated from an entry in the Cambridge 
# Structural Database, then it will include bibliographic, chemical, 
# crystal, experimental, refinement or atomic coordinate data resulting 
# from the CCDC's data processing and validation procedures.
#
#######################################################################

data_QAZPEP
_chemical_formula_moiety         'C26 H20 Cl2 N2 O5 S1'
_chemical_name_systematic        
"ethyl 2-chloro-6-(4-chlorophenyl)-6a-nitro-6a,6b,13,13a-tetrahydro-6H-[1]benzopyrano[3',4':3,4]pyrrolo[2,1-b][1,3]benzothiazole-13-carboxylate"
_symmetry_cell_setting           monoclinic
_symmetry_space_group_name_H-M   'P 21/c'
_symmetry_Int_Tables_number      14
_space_group_name_Hall           '-P 2ybc'
loop_
_symmetry_equiv_pos_site_id
_symmetry_equiv_pos_as_xyz
1 x,y,z
2 -x,1/2+y,1/2-z
3 -x,-y,-z
4 x,1/2-y,1/2+z
_cell_length_a                   14.6578(7)
_cell_length_b                   10.9282(5)
_cell_length_c                   16.4917(8)
_cell_angle_alpha                90
_cell_angle_beta                 111.7536(15)
_cell_angle_gamma                90
_cell_volume                     2453.57
_exptl_crystal_colour            colorless
_exptl_crystal_description       block
_cell_formula_units_Z            4
loop_
_atom_site_label
_atom_site_type_symbol
_atom_site_fract_x
_atom_site_fract_y
_atom_site_fract_z
C1 C 0.33869(15) 0.16410(18) 0.75555(12)
C2 C 0.38004(17) 0.1231(2) 0.69683(13)
H1 H 0.3516 0.0591 0.6587
C3 C 0.46397(17) 0.1794(2) 0.69628(14)
H2 H 0.4927 0.1519 0.6579
C4 C 0.50583(16) 0.2750(2) 0.75121(15)
H3 H 0.5611 0.3133 0.7480
C5 C 0.46710(14) 0.3155(2) 0.81148(13)
H4 H 0.4959 0.3800 0.8490
C6 C 0.38460(14) 0.25738(17) 0.81436(12)
C7 C 0.26834(14) 0.19117(16) 0.87202(12)
H5 H 0.3024 0.1311 0.9173
C8 C 0.28974(13) 0.40928(15) 0.85918(11)
H6 H 0.2857 0.4425 0.8028
C9 C 0.34769(13) 0.49723(16) 0.93195(12)
C10 C 0.38215(19) 0.70669(19) 0.96541(15)
H7 H 0.4529 0.6981 0.9926
H8 H 0.3547 0.7016 1.0105
C11 C 0.3566(3) 0.8263(2) 0.91935(19)
H9 H 0.3817 0.8290 0.8732
H10 H 0.3852 0.8915 0.9599
H11 H 0.2865 0.8357 0.8952
C12 C 0.18402(13) 0.38556(15) 0.85736(11)
H12 H 0.1389 0.3816 0.7963
C13 C 0.14673(13) 0.48109(15) 0.90300(11)
C14 C 0.11655(14) 0.59450(16) 0.86473(13)
H13 H 0.1165 0.6108 0.8094
C15 C 0.08674(14) 0.68277(17) 0.90907(14)
C16 C 0.08546(14) 0.66099(18) 0.99086(14)
H14 H 0.0658 0.7220 1.0202
C17 C 0.11356(14) 0.54840(17) 1.02871(13)
H15 H 0.1122 0.5323 1.0836
C18 C 0.14387(13) 0.45889(16) 0.98489(12)
C19 C 0.14387(15) 0.10412(18) 1.05813(14)
H16 H 0.0864 0.1500 1.0372
C20 C 0.14503(15) -0.00415(18) 1.10181(14)
H17 H 0.0890 -0.0312 1.1101
C21 C 0.23023(14) -0.07102(16) 1.13273(12)
C22 C 0.31421(14) -0.03170(18) 1.12163(13)
H18 H 0.3717 -0.0775 1.1432
C23 C 0.31164(14) 0.07681(18) 1.07794(12)
H19 H 0.3682 0.1042 1.0706
C24 C 0.22644(13) 0.14571(16) 1.04490(12)
C25 C 0.22544(14) 0.26489(16) 0.99850(12)
H20 H 0.2926 0.2971 1.0207
C26 C 0.19092(13) 0.25742(16) 0.89733(11)
Cl1 Cl 0.05398(5) 0.82652(5) 0.86189(5)
Cl2 Cl 0.23250(4) -0.20568(5) 1.18973(4)
N1 N 0.33677(11) 0.28802(13) 0.87229(10)
N2 N 0.09238(13) 0.19507(15) 0.86341(11)
O1 O 0.39024(10) 0.46976(12) 1.00685(9)
O2 O 0.34148(10) 0.61006(11) 0.90081(9)
O3 O 0.16607(10) 0.34695(11) 1.02520(8)
O4 O 0.02162(11) 0.25490(15) 0.86030(11)
O5 O 0.08935(13) 0.08742(14) 0.84498(12)
S1 S 0.22796(4) 0.11615(5) 0.76370(4)
loop_
_geom_bond_atom_site_label_1
_geom_bond_atom_site_label_2
_geom_bond_site_symmetry_1
_geom_bond_site_symmetry_2
C1 C2 1_555 1_555
C2 H1 1_555 1_555
C3 C2 1_555 1_555
H2 C3 1_555 1_555
C4 C3 1_555 1_555
H3 C4 1_555 1_555
C5 C4 1_555 1_555
H4 C5 1_555 1_555
C6 C1 1_555 1_555
C7 H5 1_555 1_555
C8 H6 1_555 1_555
C9 C8 1_555 1_555
C10 H7 1_555 1_555
H8 C10 1_555 1_555
C11 C10 1_555 1_555
H9 C11 1_555 1_555
H10 C11 1_555 1_555
H11 C11 1_555 1_555
C12 C8 1_555 1_555
H12 C12 1_555 1_555
C13 C12 1_555 1_555
C14 C13 1_555 1_555
H13 C14 1_555 1_555
C15 C14 1_555 1_555
C16 C15 1_555 1_555
H14 C16 1_555 1_555
C17 C16 1_555 1_555
H15 C17 1_555 1_555
C18 C13 1_555 1_555
C19 H16 1_555 1_555
C20 C19 1_555 1_555
H17 C20 1_555 1_555
C21 C20 1_555 1_555
C22 C21 1_555 1_555
H18 C22 1_555 1_555
C23 C22 1_555 1_555
H19 C23 1_555 1_555
C24 C19 1_555 1_555
C25 C24 1_555 1_555
H20 C25 1_555 1_555
C26 C7 1_555 1_555
Cl1 C15 1_555 1_555
Cl2 C21 1_555 1_555
N1 C6 1_555 1_555
N2 C26 1_555 1_555
O1 C9 1_555 1_555
O2 C9 1_555 1_555
O3 C18 1_555 1_555
O4 N2 1_555 1_555
O5 N2 1_555 1_555
S1 C1 1_555 1_555
C5 C6 1_555 1_555
C7 N1 1_555 1_555
C7 S1 1_555 1_555
C8 N1 1_555 1_555
C10 O2 1_555 1_555
C12 C26 1_555 1_555
C17 C18 1_555 1_555
C23 C24 1_555 1_555
C25 C26 1_555 1_555
C25 O3 1_555 1_555

#END
