
#######################################################################
#
#                 Cambridge Crystallographic Data Centre
#                                CCDC 
#
#######################################################################
#
# If this CIF has been generated from an entry in the Cambridge 
# Structural Database, then it will include bibliographic, chemical, 
# crystal, experimental, refinement or atomic coordinate data resulting 
# from the CCDC's data processing and validation procedures.
#
#######################################################################

data_QAZPOZ
_chemical_formula_moiety         'C31 H19 Cl2 N1 O3 S1'
_chemical_name_systematic        
"[2-chloro-6-(4-chlorophenyl)-6H-[1]benzopyrano[3',4':3,4]pyrrolo[2,1-b][1,3]benzothiazol-13-yl](4-methoxyphenyl)methanone"
_symmetry_cell_setting           triclinic
_symmetry_space_group_name_H-M   'P -1'
_symmetry_Int_Tables_number      2
_space_group_name_Hall           '-P 1'
loop_
_symmetry_equiv_pos_site_id
_symmetry_equiv_pos_as_xyz
1 x,y,z
2 -x,-y,-z
_cell_length_a                   8.7443(10)
_cell_length_b                   11.9610(14)
_cell_length_c                   13.2912(13)
_cell_angle_alpha                79.913(3)
_cell_angle_beta                 70.808(3)
_cell_angle_gamma                75.349(4)
_cell_volume                     1263.73
_exptl_crystal_colour            yellow
_exptl_crystal_description       block
_cell_formula_units_Z            2
loop_
_atom_site_label
_atom_site_type_symbol
_atom_site_fract_x
_atom_site_fract_y
_atom_site_fract_z
C1 C 0.7770(3) 1.05754(18) 1.01474(16)
C2 C 0.8118(3) 1.16116(19) 0.96013(19)
H1 H 0.8065 1.1817 0.8904
C3 C 0.8551(3) 1.2348(2) 1.0117(2)
H2 H 0.8774 1.3056 0.9758
C4 C 0.8657(3) 1.2056(2) 1.1137(2)
H3 H 0.8953 1.2565 1.1458
C5 C 0.8331(3) 1.1023(2) 1.16891(19)
H4 H 0.8411 1.0820 1.2381
C6 C 0.7878(3) 1.02822(18) 1.11888(17)
C7 C 0.7128(3) 0.87378(18) 1.05813(15)
C8 C 0.7141(2) 0.93958(18) 0.88762(15)
C9 C 0.7182(3) 1.02342(19) 0.79279(16)
C10 C 0.7705(3) 0.97981(18) 0.68639(16)
C11 C 0.8926(3) 0.88192(19) 0.65888(16)
H5 H 0.9467 0.8417 0.7083
C12 C 0.9365(3) 0.8421(2) 0.55888(17)
H6 H 1.0212 0.7773 0.5407
C13 C 0.8525(3) 0.9000(2) 0.48697(17)
C14 C 0.9898(4) 0.7594(2) 0.3626(2)
H7 H 1.0994 0.7630 0.3602
H8 H 0.9912 0.7429 0.2941
H9 H 0.9526 0.6990 0.4163
C15 C 0.7309(3) 0.9992(2) 0.51356(18)
H10 H 0.6750 1.0384 0.4648
C16 C 0.6925(3) 1.0396(2) 0.61032(17)
H11 H 0.6135 1.1078 0.6260
C17 C 0.6696(3) 0.6305(2) 0.89397(18)
C18 C 0.6483(4) 0.5472(2) 0.8430(2)
H12 H 0.6715 0.4693 0.8687
C19 C 0.5933(4) 0.5786(2) 0.7547(2)
H13 H 0.5811 0.5225 0.7192
C20 C 0.5567(3) 0.6940(2) 0.71958(18)
C21 C 0.5796(3) 0.7788(2) 0.76799(17)
H14 H 0.5529 0.8565 0.7426
C22 C 0.6425(3) 0.74826(18) 0.85460(16)
C23 C 0.6803(3) 0.82781(17) 0.91168(15)
C24 C 0.6809(3) 0.78755(18) 1.01755(16)
C25 C 0.6411(3) 0.67219(19) 1.06592(17)
H15 H 0.5210 0.6799 1.0846
C26 C 0.6935(3) 0.62109(18) 1.16392(17)
C27 C 0.5883(3) 0.6498(2) 1.26273(18)
H16 H 0.4878 0.7016 1.2668
C28 C 0.6275(3) 0.6042(2) 1.35504(19)
H17 H 0.5547 0.6255 1.4208
C29 C 0.7727(4) 0.5279(2) 1.3502(2)
C30 C 0.8818(4) 0.4971(2) 1.2540(2)
H18 H 0.9818 0.4451 1.2513
C31 C 0.8424(3) 0.5438(2) 1.1608(2)
H19 H 0.9167 0.5232 1.0951
Cl1 Cl 0.47416(11) 0.73555(6) 0.61284(6)
Cl2 Cl 0.82084(12) 0.46896(7) 1.46787(6)
N1 N 0.7302(2) 0.96784(14) 0.98177(12)
O1 O 0.6747(2) 1.12825(13) 0.80015(12)
O2 O 0.8809(2) 0.86720(15) 0.38814(12)
O3 O 0.7202(2) 0.59311(12) 0.98424(12)
S1 S 0.74028(8) 0.89349(5) 1.17632(4)
loop_
_geom_bond_atom_site_label_1
_geom_bond_atom_site_label_2
_geom_bond_site_symmetry_1
_geom_bond_site_symmetry_2
C1 C2 1_555 1_555
C2 H1 1_555 1_555
C3 C2 1_555 1_555
H2 C3 1_555 1_555
C4 C3 1_555 1_555
H3 C4 1_555 1_555
C5 C4 1_555 1_555
H4 C5 1_555 1_555
C6 C1 1_555 1_555
C7 C24 1_555 1_555
C8 C9 1_555 1_555
C9 C10 1_555 1_555
C10 C11 1_555 1_555
C11 H5 1_555 1_555
C12 C11 1_555 1_555
H6 C12 1_555 1_555
C13 C12 1_555 1_555
C14 H7 1_555 1_555
H8 C14 1_555 1_555
H9 C14 1_555 1_555
C15 C13 1_555 1_555
H10 C15 1_555 1_555
C16 C10 1_555 1_555
H11 C16 1_555 1_555
C17 C18 1_555 1_555
C18 H12 1_555 1_555
C19 C18 1_555 1_555
H13 C19 1_555 1_555
C20 C19 1_555 1_555
C21 C20 1_555 1_555
H14 C21 1_555 1_555
C22 C17 1_555 1_555
C23 C8 1_555 1_555
C24 C23 1_555 1_555
C25 C24 1_555 1_555
H15 C25 1_555 1_555
C26 C25 1_555 1_555
C27 C26 1_555 1_555
H16 C27 1_555 1_555
C28 C27 1_555 1_555
H17 C28 1_555 1_555
C29 C28 1_555 1_555
C30 C29 1_555 1_555
H18 C30 1_555 1_555
C31 C26 1_555 1_555
H19 C31 1_555 1_555
Cl1 C20 1_555 1_555
Cl2 C29 1_555 1_555
N1 C1 1_555 1_555
O1 C9 1_555 1_555
O2 C13 1_555 1_555
O3 C17 1_555 1_555
S1 C6 1_555 1_555
C5 C6 1_555 1_555
C7 N1 1_555 1_555
C7 S1 1_555 1_555
C8 N1 1_555 1_555
C14 O2 1_555 1_555
C15 C16 1_555 1_555
C21 C22 1_555 1_555
C22 C23 1_555 1_555
C25 O3 1_555 1_555
C30 C31 1_555 1_555

#END
