
#######################################################################
#
#                 Cambridge Crystallographic Data Centre
#                                CCDC 
#
#######################################################################
#
# If this CIF has been generated from an entry in the Cambridge 
# Structural Database, then it will include bibliographic, chemical, 
# crystal, experimental, refinement or atomic coordinate data resulting 
# from the CCDC's data processing and validation procedures.
#
#######################################################################

data_QAZPIT
_chemical_formula_moiety         'C32 H22 Cl1 N1 O3 S1'
_chemical_name_systematic        
"[2-chloro-6-(4-methylphenyl)-6H-[1]benzopyrano[3',4':3,4]pyrrolo[2,1-b][1,3]benzothiazol-13-yl](4-methoxyphenyl)methanone"
_symmetry_cell_setting           monoclinic
_symmetry_space_group_name_H-M   'P 21/c'
_symmetry_Int_Tables_number      14
_space_group_name_Hall           '-P 2ybc'
loop_
_symmetry_equiv_pos_site_id
_symmetry_equiv_pos_as_xyz
1 x,y,z
2 -x,1/2+y,1/2-z
3 -x,-y,-z
4 x,1/2-y,1/2+z
_cell_length_a                   12.9531(11)
_cell_length_b                   13.3809(11)
_cell_length_c                   15.6390(14)
_cell_angle_alpha                90
_cell_angle_beta                 106.449(3)
_cell_angle_gamma                90
_cell_volume                     2599.68
_exptl_crystal_colour            yellow
_exptl_crystal_description       block
_cell_formula_units_Z            4
loop_
_atom_site_label
_atom_site_type_symbol
_atom_site_fract_x
_atom_site_fract_y
_atom_site_fract_z
C1 C 0.7238(4) 0.1728(4) 0.0804(3)
H1 H 0.7519 0.2233 0.1211
C2 C 0.7902(5) 0.0979(4) 0.0672(4)
H2 H 0.8624 0.0970 0.0997
C3 C 0.7483(6) 0.0226(4) 0.0045(4)
C4 C 0.7647(7) -0.1123(5) -0.0858(5)
H3 H 0.6976 -0.1360 -0.0789
H4 H 0.8105 -0.1681 -0.0876
H5 H 0.7516 -0.0750 -0.1402
C5 C 0.6423(6) 0.0224(5) -0.0399(4)
H6 H 0.6146 -0.0280 -0.0809
C6 C 0.5756(5) 0.0950(4) -0.0252(4)
H7 H 0.5024 0.0923 -0.0548
C7 C 0.6159(4) 0.1740(4) 0.0339(3)
C8 C 0.5421(4) 0.2572(4) 0.0403(3)
C9 C 0.5888(3) 0.3559(3) 0.0559(3)
C10 C 0.6133(3) 0.5144(3) 0.1094(3)
C11 C 0.4904(4) 0.5265(4) 0.2016(3)
C12 C 0.4262(4) 0.5475(5) 0.2574(4)
H8 H 0.4286 0.6103 0.2834
C13 C 0.3595(5) 0.4745(6) 0.2738(4)
H9 H 0.3149 0.4887 0.3095
C14 C 0.3582(4) 0.3807(5) 0.2376(4)
H10 H 0.3145 0.3315 0.2510
C15 C 0.4206(4) 0.3581(4) 0.1818(4)
H11 H 0.4184 0.2947 0.1570
C16 C 0.4862(3) 0.4314(4) 0.1635(3)
C17 C 0.8225(3) 0.4286(3) -0.0314(3)
C18 C 0.8919(4) 0.4029(4) -0.0811(4)
H12 H 0.9530 0.4413 -0.0769
C19 C 0.8709(4) 0.3211(4) -0.1367(3)
H13 H 0.9186 0.3020 -0.1683
C20 C 0.7786(4) 0.2686(3) -0.1443(3)
C21 C 0.7075(4) 0.2940(4) -0.0963(3)
H14 H 0.6437 0.2585 -0.1046
C22 C 0.7312(3) 0.3718(3) -0.0362(3)
C23 C 0.6674(3) 0.4029(3) 0.0242(3)
C24 C 0.6843(3) 0.5005(3) 0.0599(3)
C25 C 0.7663(3) 0.5691(3) 0.0413(3)
H15 H 0.7332 0.6093 -0.0118
C26 C 0.8174(4) 0.6365(4) 0.1185(4)
C27 C 0.8165(4) 0.7390(4) 0.1091(4)
H16 H 0.7827 0.7682 0.0543
C28 C 0.8665(4) 0.7989(5) 0.1822(4)
H17 H 0.8659 0.8678 0.1746
C29 C 0.9143(4) 0.7620(4) 0.2610(4)
C30 C 0.9663(7) 0.8250(7) 0.3423(7)
H18 H 1.0403 0.8369 0.3454
H19 H 0.9623 0.7904 0.3951
H20 H 0.9291 0.8877 0.3381
C31 C 0.9161(4) 0.6596(4) 0.2708(4)
H21 H 0.9500 0.6320 0.3262
C32 C 0.8690(4) 0.5972(4) 0.2008(4)
H22 H 0.8720 0.5283 0.2092
Cl1 Cl 0.74915(12) 0.16523(11) -0.21572(9)
N1 N 0.5547(3) 0.4284(3) 0.1068(2)
O1 O 0.8170(4) -0.0479(4) -0.0106(3)
O2 O 0.4465(3) 0.2414(3) 0.0315(3)
O3 O 0.8521(2) 0.5084(2) 0.0259(2)
S1 S 0.58190(10) 0.60662(10) 0.17451(9)
loop_
_geom_bond_atom_site_label_1
_geom_bond_atom_site_label_2
_geom_bond_site_symmetry_1
_geom_bond_site_symmetry_2
C1 H1 1_555 1_555
C2 C1 1_555 1_555
H2 C2 1_555 1_555
C3 C2 1_555 1_555
C4 H3 1_555 1_555
H4 C4 1_555 1_555
H5 C4 1_555 1_555
C5 C3 1_555 1_555
H6 C5 1_555 1_555
C6 C5 1_555 1_555
H7 C6 1_555 1_555
C7 C1 1_555 1_555
C8 C7 1_555 1_555
C9 C8 1_555 1_555
C10 C24 1_555 1_555
C11 C12 1_555 1_555
C12 H8 1_555 1_555
C13 C12 1_555 1_555
H9 C13 1_555 1_555
C14 C13 1_555 1_555
H10 C14 1_555 1_555
C15 C14 1_555 1_555
H11 C15 1_555 1_555
C16 C11 1_555 1_555
C17 C18 1_555 1_555
C18 H12 1_555 1_555
C19 C18 1_555 1_555
H13 C19 1_555 1_555
C20 C19 1_555 1_555
C21 C20 1_555 1_555
H14 C21 1_555 1_555
C22 C17 1_555 1_555
C23 C9 1_555 1_555
C24 C23 1_555 1_555
C25 C24 1_555 1_555
H15 C25 1_555 1_555
C26 C25 1_555 1_555
C27 C26 1_555 1_555
H16 C27 1_555 1_555
C28 C27 1_555 1_555
H17 C28 1_555 1_555
C29 C28 1_555 1_555
C30 C29 1_555 1_555
H18 C30 1_555 1_555
H19 C30 1_555 1_555
H20 C30 1_555 1_555
C31 C29 1_555 1_555
H21 C31 1_555 1_555
C32 C26 1_555 1_555
H22 C32 1_555 1_555
Cl1 C20 1_555 1_555
N1 C9 1_555 1_555
O1 C3 1_555 1_555
O2 C8 1_555 1_555
O3 C17 1_555 1_555
S1 C10 1_555 1_555
C4 O1 1_555 1_555
C6 C7 1_555 1_555
C10 N1 1_555 1_555
C11 S1 1_555 1_555
C15 C16 1_555 1_555
C16 N1 1_555 1_555
C21 C22 1_555 1_555
C22 C23 1_555 1_555
C25 O3 1_555 1_555
C31 C32 1_555 1_555

#END
