
#######################################################################
#
#                 Cambridge Crystallographic Data Centre
#                                CCDC 
#
#######################################################################
#
# If this CIF has been generated from an entry in the Cambridge 
# Structural Database, then it will include bibliographic, chemical, 
# crystal, experimental, refinement or atomic coordinate data resulting 
# from the CCDC's data processing and validation procedures.
#
#######################################################################

data_QAZQAM
_chemical_formula_moiety         'C32 H22 Br1 N1 O4 S1'
_chemical_name_systematic        
"[2-bromo-6-(4-methoxyphenyl)-6H-[1]benzopyrano[3',4':3,4]pyrrolo[2,1-b][1,3]benzothiazol-13-yl](4-methoxyphenyl)methanone"
_symmetry_cell_setting           monoclinic
_symmetry_space_group_name_H-M   'P 21/c'
_symmetry_Int_Tables_number      14
_space_group_name_Hall           '-P 2ybc'
loop_
_symmetry_equiv_pos_site_id
_symmetry_equiv_pos_as_xyz
1 x,y,z
2 -x,1/2+y,1/2-z
3 -x,-y,-z
4 x,1/2-y,1/2+z
_cell_length_a                   12.3329(12)
_cell_length_b                   13.8610(12)
_cell_length_c                   16.0666(15)
_cell_angle_alpha                90
_cell_angle_beta                 106.912(3)
_cell_angle_gamma                90
_cell_volume                     2627.75
_exptl_crystal_colour            yellow
_exptl_crystal_description       block
_cell_formula_units_Z            4
loop_
_atom_site_label
_atom_site_type_symbol
_atom_site_fract_x
_atom_site_fract_y
_atom_site_fract_z
Br1 Br 0.74189(4) 0.82901(3) 0.17518(3)
C1 C 1.0043(3) 0.4548(3) 0.7000(2)
C2 C 1.0696(3) 0.4296(3) 0.7823(3)
H1 H 1.0651 0.3678 0.8036
C3 C 1.1413(4) 0.4968(4) 0.8323(3)
H2 H 1.1875 0.4798 0.8872
C4 C 1.1453(3) 0.5901(4) 0.8014(3)
H3 H 1.1921 0.6357 0.8368
C5 C 1.0806(3) 0.6158(3) 0.7187(2)
H4 H 1.0843 0.6780 0.6981
C6 C 1.0105(3) 0.5479(3) 0.6669(2)
C7 C 0.8729(3) 0.4744(2) 0.5527(2)
C8 C 0.9035(2) 0.6284(2) 0.5173(2)
C9 C 0.9619(3) 0.7215(2) 0.5264(2)
C10 C 0.8977(3) 0.8074(2) 0.4871(2)
C11 C 0.9494(3) 0.8768(3) 0.4494(2)
H5 H 1.0261 0.8706 0.4543
C12 C 0.8913(3) 0.9537(3) 0.4054(3)
H6 H 0.9274 0.9979 0.3789
C13 C 0.7776(3) 0.9654(3) 0.4003(2)
C14 C 0.7546(4) 1.0937(3) 0.2977(3)
H7 H 0.8203 1.1290 0.3302
H8 H 0.6976 1.1381 0.2663
H9 H 0.7749 1.0513 0.2575
C15 C 0.7262(3) 0.9012(3) 0.4425(2)
H10 H 0.6520 0.9120 0.4430
C16 C 0.7835(3) 0.8216(2) 0.4838(2)
H11 H 0.7468 0.7771 0.5095
C17 C 0.6532(3) 0.5663(2) 0.3226(2)
C18 C 0.5835(3) 0.5907(3) 0.2409(3)
H12 H 0.5191 0.5541 0.2158
C19 C 0.6085(3) 0.6687(3) 0.1966(3)
H13 H 0.5612 0.6858 0.1421
C20 C 0.7056(3) 0.7210(3) 0.2353(2)
C21 C 0.7765(3) 0.6970(3) 0.3155(2)
H14 H 0.8426 0.7323 0.3389
C22 C 0.7504(3) 0.6203(2) 0.3625(2)
C23 C 0.8170(2) 0.5878(2) 0.4501(2)
C24 C 0.7983(3) 0.4920(2) 0.4728(2)
C25 C 0.7110(3) 0.4289(2) 0.4147(2)
H15 H 0.7450 0.3940 0.3754
C26 C 0.6615(3) 0.3572(3) 0.4640(2)
C27 C 0.6043(3) 0.3865(3) 0.5220(3)
H16 H 0.5919 0.4520 0.5278
C28 C 0.5651(3) 0.3215(3) 0.5713(3)
H17 H 0.5252 0.3429 0.6089
C29 C 0.5855(3) 0.2240(3) 0.5645(3)
C30 C 0.5246(4) 0.1839(3) 0.6893(3)
H18 H 0.5844 0.2228 0.7253
H19 H 0.5137 0.1280 0.7213
H20 H 0.4558 0.2208 0.6722
C31 C 0.6400(3) 0.1938(3) 0.5061(3)
H21 H 0.6511 0.1281 0.4997
C32 C 0.6782(3) 0.2586(3) 0.4573(3)
H22 H 0.7161 0.2364 0.4187
N1 N 0.9384(2) 0.5556(2) 0.58078(18)
O1 O 0.7114(2) 1.03826(19) 0.35625(19)
O2 O 1.06428(19) 0.72719(19) 0.56396(17)
O3 O 0.61966(18) 0.48902(18) 0.36361(17)
O4 O 0.5544(2) 0.15393(18) 0.6132(2)
S1 S 0.90572(8) 0.38081(7) 0.62718(7)
loop_
_geom_bond_atom_site_label_1
_geom_bond_atom_site_label_2
_geom_bond_site_symmetry_1
_geom_bond_site_symmetry_2
Br1 C20 1_555 1_555
C1 C2 1_555 1_555
C2 H1 1_555 1_555
C3 C2 1_555 1_555
H2 C3 1_555 1_555
C4 C3 1_555 1_555
H3 C4 1_555 1_555
C5 C4 1_555 1_555
H4 C5 1_555 1_555
C6 C1 1_555 1_555
C7 C24 1_555 1_555
C8 C9 1_555 1_555
C9 C10 1_555 1_555
C10 C11 1_555 1_555
C11 H5 1_555 1_555
C12 C11 1_555 1_555
H6 C12 1_555 1_555
C13 C12 1_555 1_555
C14 H7 1_555 1_555
H8 C14 1_555 1_555
H9 C14 1_555 1_555
C15 C13 1_555 1_555
H10 C15 1_555 1_555
C16 C10 1_555 1_555
H11 C16 1_555 1_555
C17 C18 1_555 1_555
C18 H12 1_555 1_555
C19 C18 1_555 1_555
H13 C19 1_555 1_555
C20 C19 1_555 1_555
C21 C20 1_555 1_555
H14 C21 1_555 1_555
C22 C17 1_555 1_555
C23 C8 1_555 1_555
C24 C23 1_555 1_555
C25 C24 1_555 1_555
H15 C25 1_555 1_555
C26 C25 1_555 1_555
C27 C26 1_555 1_555
H16 C27 1_555 1_555
C28 C27 1_555 1_555
H17 C28 1_555 1_555
C29 C28 1_555 1_555
C30 H18 1_555 1_555
H19 C30 1_555 1_555
H20 C30 1_555 1_555
C31 C29 1_555 1_555
H21 C31 1_555 1_555
C32 C26 1_555 1_555
H22 C32 1_555 1_555
N1 C6 1_555 1_555
O1 C13 1_555 1_555
O2 C9 1_555 1_555
O3 C17 1_555 1_555
O4 C29 1_555 1_555
S1 C1 1_555 1_555
C5 C6 1_555 1_555
C7 N1 1_555 1_555
C7 S1 1_555 1_555
C8 N1 1_555 1_555
C14 O1 1_555 1_555
C15 C16 1_555 1_555
C21 C22 1_555 1_555
C22 C23 1_555 1_555
C25 O3 1_555 1_555
C30 O4 1_555 1_555
C31 C32 1_555 1_555

#END
