
#######################################################################
#
#                 Cambridge Crystallographic Data Centre
#                                CCDC 
#
#######################################################################
#
# If this CIF has been generated from an entry in the Cambridge 
# Structural Database, then it will include bibliographic, chemical, 
# crystal, experimental, refinement or atomic coordinate data resulting 
# from the CCDC's data processing and validation procedures.
#
#######################################################################

data_QAZRUH
_chemical_formula_moiety         'C29 H25 N1 O7 S1'
_chemical_name_systematic        
'methyl 3-{3-[(3,4-dimethoxyphenyl)methyl]-2-oxo-2,3-dihydro-1-benzothiophen-3-yl}-2-(1,3-dioxo-1,3-dihydro-2H-isoindol-2-yl)propanoate'
_symmetry_cell_setting           orthorhombic
_symmetry_space_group_name_H-M   'P 21 21 21'
_symmetry_Int_Tables_number      19
_space_group_name_Hall           'P 2ac 2ab'
loop_
_symmetry_equiv_pos_site_id
_symmetry_equiv_pos_as_xyz
1 x,y,z
2 1/2-x,-y,1/2+z
3 -x,1/2+y,1/2-z
4 1/2+x,1/2-y,-z
_cell_length_a                   8.0159(11)
_cell_length_b                   15.545(3)
_cell_length_c                   21.174(3)
_cell_angle_alpha                90
_cell_angle_beta                 90
_cell_angle_gamma                90
_cell_volume                     2638.43
_exptl_crystal_colour            colorless
_exptl_crystal_description       Prism
_cell_formula_units_Z            4
loop_
_atom_site_label
_atom_site_type_symbol
_atom_site_fract_x
_atom_site_fract_y
_atom_site_fract_z
S1 S 0.27108(4) 0.58700(2) 0.920404(15)
O1 O 0.56313(13) 0.60242(7) 0.78276(5)
O2 O 0.11399(13) 0.77579(7) 0.74798(6)
O3 O 0.30858(17) 0.67962(8) 0.63569(5)
O4 O 0.15821(13) 0.55964(6) 0.62652(4)
O5 O 0.02301(13) 0.67626(6) 0.87161(5)
O6 O -0.32720(14) 0.58790(7) 1.04536(5)
O7 O -0.26750(14) 0.43895(7) 1.09355(5)
N1 N 0.31108(13) 0.66904(7) 0.76423(5)
C1 C 0.47359(16) 0.66447(9) 0.78812(6)
C2 C 0.50713(17) 0.74891(9) 0.81771(6)
C3 C 0.64777(19) 0.77768(10) 0.84868(7)
H1 H 0.7412 0.7413 0.8555
C4 C 0.6463(2) 0.86257(10) 0.86948(7)
H2 H 0.7409 0.8848 0.8911
C5 C 0.5098(2) 0.91523(11) 0.85930(8)
H3 H 0.5121 0.9728 0.8744
C6 C 0.36908(19) 0.88575(10) 0.82740(7)
H4 H 0.2758 0.9221 0.8202
C7 C 0.37057(17) 0.80174(9) 0.80667(6)
C8 C 0.24518(17) 0.75250(8) 0.76965(6)
C9 C 0.23739(16) 0.59872(8) 0.72930(6)
H5 H 0.3128 0.5481 0.7351
C10 C 0.23851(17) 0.61991(9) 0.65887(6)
C11 C 0.1608(2) 0.56915(11) 0.55848(6)
H6 H 0.1100 0.6242 0.5468
H7 H 0.0977 0.5220 0.5391
H8 H 0.2764 0.5676 0.5435
C12 C 0.06577(16) 0.57171(9) 0.75424(6)
H9 H 0.0196 0.5268 0.7260
H10 H -0.0100 0.6220 0.7524
C13 C 0.06753(15) 0.53676(8) 0.82257(6)
C14 C 0.19830(15) 0.46967(8) 0.83431(6)
C15 C 0.21378(18) 0.39267(9) 0.80176(6)
H11 H 0.1391 0.3792 0.7684
C16 C 0.33919(19) 0.33559(9) 0.81839(6)
H12 H 0.3497 0.2827 0.7962
C17 C 0.44896(18) 0.35444(10) 0.86666(7)
H13 H 0.5349 0.3148 0.8771
C18 C 0.43470(17) 0.43055(9) 0.89993(6)
H14 H 0.5094 0.4437 0.9334
C19 C 0.30871(16) 0.48712(8) 0.88323(6)
C20 C 0.10129(16) 0.61066(8) 0.86877(6)
C21 C -0.11073(16) 0.50118(9) 0.83658(6)
H15 H -0.1938 0.5437 0.8217
H16 H -0.1273 0.4478 0.8118
C22 C -0.14449(16) 0.48175(9) 0.90517(6)
C23 C -0.21376(17) 0.54553(9) 0.94365(6)
H17 H -0.2340 0.6010 0.9265
C24 C -0.25318(16) 0.52986(9) 1.00572(6)
C25 C -0.22284(17) 0.44826(9) 1.03157(6)
C26 C -0.15438(19) 0.38479(10) 0.99403(7)
H18 H -0.1337 0.3294 1.0112
C27 C -0.11541(17) 0.40157(9) 0.93098(7)
H19 H -0.0684 0.3574 0.9056
C28 C -0.3360(3) 0.67422(10) 1.02395(8)
H20 H -0.2240 0.6942 1.0125
H21 H -0.3809 0.7107 1.0576
H22 H -0.4091 0.6774 0.9869
C29 C -0.2453(2) 0.35601(11) 1.12074(8)
H23 H -0.3156 0.3143 1.0985
H24 H -0.2770 0.3577 1.1654
H25 H -0.1280 0.3389 1.1170
loop_
_geom_bond_atom_site_label_1
_geom_bond_atom_site_label_2
_geom_bond_site_symmetry_1
_geom_bond_site_symmetry_2
S1 C19 1_555 1_555
O1 C1 1_555 1_555
O2 C8 1_555 1_555
O3 C10 1_555 1_555
O4 C10 1_555 1_555
O5 C20 1_555 1_555
O6 C24 1_555 1_555
O7 C25 1_555 1_555
N1 C1 1_555 1_555
C1 C2 1_555 1_555
C2 C3 1_555 1_555
C3 H1 1_555 1_555
C4 C3 1_555 1_555
H2 C4 1_555 1_555
C5 C4 1_555 1_555
H3 C5 1_555 1_555
C6 C5 1_555 1_555
H4 C6 1_555 1_555
C7 C2 1_555 1_555
C8 N1 1_555 1_555
C9 N1 1_555 1_555
H5 C9 1_555 1_555
C10 C9 1_555 1_555
C11 O4 1_555 1_555
H6 C11 1_555 1_555
H7 C11 1_555 1_555
H8 C11 1_555 1_555
C12 C9 1_555 1_555
H9 C12 1_555 1_555
H10 C12 1_555 1_555
C13 C12 1_555 1_555
C14 C13 1_555 1_555
C15 C14 1_555 1_555
H11 C15 1_555 1_555
C16 C15 1_555 1_555
H12 C16 1_555 1_555
C17 C16 1_555 1_555
H13 C17 1_555 1_555
C18 C17 1_555 1_555
H14 C18 1_555 1_555
C19 C14 1_555 1_555
C20 S1 1_555 1_555
C21 C13 1_555 1_555
H15 C21 1_555 1_555
H16 C21 1_555 1_555
C22 C21 1_555 1_555
C23 C22 1_555 1_555
H17 C23 1_555 1_555
C24 C23 1_555 1_555
C25 C24 1_555 1_555
C26 C25 1_555 1_555
H18 C26 1_555 1_555
C27 C22 1_555 1_555
H19 C27 1_555 1_555
C28 O6 1_555 1_555
H20 C28 1_555 1_555
H21 C28 1_555 1_555
H22 C28 1_555 1_555
C29 O7 1_555 1_555
H23 C29 1_555 1_555
H24 C29 1_555 1_555
H25 C29 1_555 1_555
C6 C7 1_555 1_555
C7 C8 1_555 1_555
C13 C20 1_555 1_555
C18 C19 1_555 1_555
C26 C27 1_555 1_555

#END
