
#######################################################################
#
#                 Cambridge Crystallographic Data Centre
#                                CCDC 
#
#######################################################################
#
# If this CIF has been generated from an entry in the Cambridge 
# Structural Database, then it will include bibliographic, chemical, 
# crystal, experimental, refinement or atomic coordinate data resulting 
# from the CCDC's data processing and validation procedures.
#
#######################################################################

data_QEBDOT
_chemical_name_common            
N-[5-(benzylthio)-1,3,4-thiadiazol-2-yl]-4-chlorobenzamide
_chemical_formula_moiety         'C16 H12 Cl1 N3 O1 S2'
_chemical_name_systematic        
N-[5-(benzylsulfanyl)-1,3,4-thiadiazol-2-yl]-4-chlorobenzamide
_symmetry_cell_setting           triclinic
_symmetry_space_group_name_H-M   'P -1'
_symmetry_Int_Tables_number      2
_space_group_name_Hall           '-P 1'
loop_
_symmetry_equiv_pos_site_id
_symmetry_equiv_pos_as_xyz
1 x,y,z
2 -x,-y,-z
_cell_length_a                   5.7417(10)
_cell_length_b                   9.8057(17)
_cell_length_c                   14.330(3)
_cell_angle_alpha                91.987(3)
_cell_angle_beta                 97.154(3)
_cell_angle_gamma                93.402(3)
_cell_volume                     798.386
_exptl_crystal_colour            colorless
_exptl_crystal_description       BLOCK
_cell_formula_units_Z            2
loop_
_atom_site_label
_atom_site_type_symbol
_atom_site_fract_x
_atom_site_fract_y
_atom_site_fract_z
C1 C 1.4282(6) 0.4614(4) 0.7952(2)
C2 C 1.5168(6) 0.5812(4) 0.7627(3)
H1 H 1.6670 0.6176 0.7858
C3 C 1.3780(6) 0.6464(3) 0.6949(3)
H2 H 1.4374 0.7267 0.6714
C4 C 1.1534(6) 0.5956(3) 0.6610(2)
C5 C 1.0696(6) 0.4716(4) 0.6939(3)
H3 H 0.9209 0.4336 0.6702
C6 C 1.2074(7) 0.4063(4) 0.7611(3)
H4 H 1.1513 0.3246 0.7837
C7 C 1.0147(6) 0.6787(3) 0.5928(2)
C8 C 0.6673(6) 0.7010(3) 0.4832(2)
C9 C 0.4943(7) 0.8560(3) 0.3795(2)
C10 C 0.1646(7) 0.9402(4) 0.2369(3)
H5 H 0.1781 0.8511 0.2071
H6 H 0.0343 0.9342 0.2740
C11 C 0.1257(6) 1.0473(4) 0.1629(3)
C12 C -0.0482(7) 1.1373(4) 0.1665(3)
H7 H -0.1459 1.1316 0.2136
C13 C -0.0774(7) 1.2346(4) 0.1013(3)
H8 H -0.1990 1.2928 0.1035
C14 C 0.0666(8) 1.2495(4) 0.0327(3)
H9 H 0.0494 1.3187 -0.0100
C15 C 0.2398(8) 1.1567(5) 0.0293(3)
H10 H 0.3365 1.1617 -0.0181
C16 C 0.2706(7) 1.0591(4) 0.0935(3)
H11 H 0.3902 0.9997 0.0908
Cl1 Cl 1.5994(2) 0.37851(13) 0.88176(8)
N1 N 0.8023(5) 0.6257(3) 0.5472(2)
N2 N 0.4651(5) 0.6519(3) 0.4401(2)
N3 N 0.3625(5) 0.7429(3) 0.3786(2)
O1 O 1.0868(5) 0.7958(3) 0.5773(2)
S1 S 0.4340(2) 0.99529(10) 0.31040(8)
S2 S 0.75436(17) 0.86353(9) 0.45434(7)
H12 H 0.745(7) 0.5450(18) 0.555(3)
loop_
_geom_bond_atom_site_label_1
_geom_bond_atom_site_label_2
_geom_bond_site_symmetry_1
_geom_bond_site_symmetry_2
C1 C2 1_555 1_555
C2 H1 1_555 1_555
C3 C2 1_555 1_555
H2 C3 1_555 1_555
C4 C3 1_555 1_555
C5 C4 1_555 1_555
H3 C5 1_555 1_555
C6 C1 1_555 1_555
H4 C6 1_555 1_555
C7 C4 1_555 1_555
C8 N1 1_555 1_555
C9 N3 1_555 1_555
C10 H5 1_555 1_555
H6 C10 1_555 1_555
C11 C10 1_555 1_555
C12 C11 1_555 1_555
H7 C12 1_555 1_555
C13 C12 1_555 1_555
H8 C13 1_555 1_555
C14 C13 1_555 1_555
H9 C14 1_555 1_555
C15 C14 1_555 1_555
H10 C15 1_555 1_555
C16 C11 1_555 1_555
H11 C16 1_555 1_555
Cl1 C1 1_555 1_555
N1 C7 1_555 1_555
N2 C8 1_555 1_555
N3 N2 1_555 1_555
O1 C7 1_555 1_555
S1 C9 1_555 1_555
S2 C8 1_555 1_555
H12 N1 1_555 1_555
C5 C6 1_555 1_555
C9 S2 1_555 1_555
C10 S1 1_555 1_555
C15 C16 1_555 1_555

#END
