
#######################################################################
#
#                 Cambridge Crystallographic Data Centre
#                                CCDC 
#
#######################################################################
#
# If this CIF has been generated from an entry in the Cambridge 
# Structural Database, then it will include bibliographic, chemical, 
# crystal, experimental, refinement or atomic coordinate data resulting 
# from the CCDC's data processing and validation procedures.
#
#######################################################################

data_QEBKIU
_chemical_formula_moiety         'C27 H30 F1 N1 O3'
_chemical_name_systematic        
(3aS,5aS,6R,7R,9aR,9bR)-6-((E)-2-(5-(3-fluorophenyl)pyridin-2-yl)vinyl)-7-hydroxy-6,9a-dimethyldecahydronaphtho[1,2-c]furan-1(3H)-one
_symmetry_cell_setting           orthorhombic
_symmetry_space_group_name_H-M   'P 21 21 21'
_symmetry_Int_Tables_number      19
_space_group_name_Hall           'P 2ac 2ab'
loop_
_symmetry_equiv_pos_site_id
_symmetry_equiv_pos_as_xyz
1 x,y,z
2 1/2-x,-y,1/2+z
3 -x,1/2+y,1/2-z
4 1/2+x,1/2-y,-z
_cell_length_a                   7.3594(5)
_cell_length_b                   10.9545(8)
_cell_length_c                   27.5542(19)
_cell_angle_alpha                90
_cell_angle_beta                 90
_cell_angle_gamma                90
_cell_volume                     2221.38
_exptl_crystal_colour            colorless
_exptl_crystal_description       'needle-like crystal'
_cell_formula_units_Z            4
loop_
_atom_site_label
_atom_site_type_symbol
_atom_site_fract_x
_atom_site_fract_y
_atom_site_fract_z
F1 F -0.2110(3) 0.9813(2) 0.48122(8)
O1 O 0.9969(4) 0.7114(3) 0.94489(8)
O2 O 1.0526(4) 0.5151(2) 0.66734(8)
H1 H 1.136(7) 0.542(4) 0.6529(12)
N1 N 0.3266(4) 0.6712(2) 0.62231(8)
O3 O 1.2276(4) 0.6132(3) 0.91090(9)
C1 C 0.3285(4) 0.8318(3) 0.56240(10)
C2 C 0.2485(4) 0.7354(3) 0.58689(10)
H2 H 0.1310 0.7138 0.5779
C3 C 0.2379(4) 0.8955(3) 0.52190(10)
C4 C 0.9726(4) 0.5823(3) 0.82038(10)
C5 C 0.7332(5) 0.6502(3) 0.69666(10)
H3 H 0.7788 0.7286 0.6921
C6 C 0.9296(5) 0.4533(3) 0.83928(12)
H4 H 0.9764 0.3937 0.8170
H5 H 0.8004 0.4436 0.8422
H6 H 0.9851 0.4420 0.8705
C7 C 0.4962(4) 0.7033(3) 0.63615(10)
C8 C 0.0488(4) 0.9065(3) 0.51951(11)
H7 H -0.0240 0.8709 0.5432
C9 C 0.8355(4) 0.6330(3) 0.78240(10)
H8 H 0.8766 0.7167 0.7763
C10 C 1.0392(4) 0.5733(3) 0.71374(10)
H9 H 1.0731 0.6591 0.7094
C11 C 1.0811(5) 0.6595(3) 0.90671(12)
C12 C 0.5840(5) 0.6237(3) 0.67198(11)
H10 H 0.5303 0.5483 0.6778
C13 C -0.0279(4) 0.9700(3) 0.48209(12)
C14 C 0.9614(4) 0.6735(3) 0.86263(11)
H11 H 0.9891 0.7539 0.8489
C15 C 1.1639(4) 0.5835(3) 0.79841(10)
H12 H 1.2030 0.6674 0.7942
H13 H 1.2474 0.5444 0.8207
C16 C 0.7648(5) 0.4398(3) 0.73045(12)
H14 H 0.7617 0.4105 0.6976
H15 H 0.6442 0.4391 0.7437
H16 H 0.8419 0.3879 0.7496
C17 C 0.8394(4) 0.5704(3) 0.73118(10)
C18 C 1.1714(5) 0.5179(3) 0.74951(11)
H17 H 1.2936 0.5232 0.7365
H18 H 1.1425 0.4323 0.7541
C19 C 0.5836(5) 0.8030(4) 0.61485(12)
H19 H 0.6984 0.8260 0.6255
C20 C 0.6388(5) 0.7307(4) 0.84846(12)
H20 H 0.6696 0.8137 0.8394
H21 H 0.5178 0.7310 0.8624
C21 C 0.6428(5) 0.6480(3) 0.80339(11)
H22 H 0.5642 0.6824 0.7787
H23 H 0.5954 0.5682 0.8120
C22 C 0.5009(5) 0.8671(3) 0.57831(11)
H24 H 0.5592 0.9335 0.5642
C23 C 0.3392(5) 0.9479(4) 0.48442(12)
H25 H 0.4652 0.9415 0.4849
C24 C 0.0703(5) 1.0215(4) 0.44545(12)
H26 H 0.0135 1.0638 0.4204
C25 C 0.7735(5) 0.6837(3) 0.88514(11)
H27 H 0.7349 0.6019 0.8952
C26 C 0.2563(6) 1.0087(4) 0.44674(13)
H28 H 0.3266 1.0415 0.4219
C27 C 0.8184(6) 0.7567(4) 0.93031(13)
H29 H 0.8229 0.8433 0.9232
H30 H 0.7292 0.7425 0.9556
loop_
_geom_bond_atom_site_label_1
_geom_bond_atom_site_label_2
_geom_bond_site_symmetry_1
_geom_bond_site_symmetry_2
F1 C13 1_555 1_555
O1 C11 1_555 1_555
O2 H1 1_555 1_555
N1 C2 1_555 1_555
O3 C11 1_555 1_555
C1 C2 1_555 1_555
C2 H2 1_555 1_555
C3 C1 1_555 1_555
C4 C6 1_555 1_555
C5 H3 1_555 1_555
C6 H4 1_555 1_555
H5 C6 1_555 1_555
H6 C6 1_555 1_555
C7 N1 1_555 1_555
C8 C3 1_555 1_555
H7 C8 1_555 1_555
C9 C4 1_555 1_555
H8 C9 1_555 1_555
C10 O2 1_555 1_555
H9 C10 1_555 1_555
C11 C14 1_555 1_555
C12 C5 1_555 1_555
H10 C12 1_555 1_555
C13 C8 1_555 1_555
C14 C4 1_555 1_555
H11 C14 1_555 1_555
C15 C4 1_555 1_555
H12 C15 1_555 1_555
H13 C15 1_555 1_555
C16 H14 1_555 1_555
H15 C16 1_555 1_555
H16 C16 1_555 1_555
C17 C5 1_555 1_555
C18 C10 1_555 1_555
H17 C18 1_555 1_555
H18 C18 1_555 1_555
C19 C7 1_555 1_555
H19 C19 1_555 1_555
C20 H20 1_555 1_555
H21 C20 1_555 1_555
C21 C9 1_555 1_555
H22 C21 1_555 1_555
H23 C21 1_555 1_555
C22 C1 1_555 1_555
H24 C22 1_555 1_555
C23 C3 1_555 1_555
H25 C23 1_555 1_555
C24 C13 1_555 1_555
H26 C24 1_555 1_555
C25 C14 1_555 1_555
H27 C25 1_555 1_555
C26 C23 1_555 1_555
H28 C26 1_555 1_555
C27 O1 1_555 1_555
H29 C27 1_555 1_555
H30 C27 1_555 1_555
C7 C12 1_555 1_555
C9 C17 1_555 1_555
C10 C17 1_555 1_555
C15 C18 1_555 1_555
C16 C17 1_555 1_555
C19 C22 1_555 1_555
C20 C21 1_555 1_555
C20 C25 1_555 1_555
C24 C26 1_555 1_555
C25 C27 1_555 1_555

#END
