
#######################################################################
#
#                 Cambridge Crystallographic Data Centre
#                                CCDC 
#
#######################################################################
#
# If this CIF has been generated from an entry in the Cambridge 
# Structural Database, then it will include bibliographic, chemical, 
# crystal, experimental, refinement or atomic coordinate data resulting 
# from the CCDC's data processing and validation procedures.
#
#######################################################################

data_QEBKEQ
_chemical_formula_moiety         'C27 H30 F1 N1 O4,0.5(H2 O1)'
_chemical_name_systematic        
"5-(3-fluorophenyl)-2-((E)-2-((1S,2S,4aS,5S,6R,8aR)-5-formyl-6-hydroxy-5,8a-dimethyloctahydro-1H-spiro[naphthalene-2,2'-oxiran]-1-yl)vinyl)pyridine hemihydrate"
_symmetry_cell_setting           monoclinic
_symmetry_space_group_name_H-M   'P 21'
_symmetry_Int_Tables_number      4
_space_group_name_Hall           'P 2yb'
loop_
_symmetry_equiv_pos_site_id
_symmetry_equiv_pos_as_xyz
1 x,y,z
2 -x,1/2+y,-z
_cell_length_a                   7.8897(9)
_cell_length_b                   25.221(4)
_cell_length_c                   13.3868(16)
_cell_angle_alpha                90
_cell_angle_beta                 104.995(8)
_cell_angle_gamma                90
_cell_volume                     2573.08
_exptl_crystal_colour            colorless
_exptl_crystal_description       'rectangular plate'
_cell_formula_units_Z            4
loop_
_atom_site_label
_atom_site_type_symbol
_atom_site_fract_x
_atom_site_fract_y
_atom_site_fract_z
O1 O -0.4714(17) 0.3247(6) 0.7745(10)
N1 N -0.183(2) 0.5187(6) 0.9856(13)
O2 O 0.2472(19) 0.3971(7) 0.4714(13)
H1 H 0.3428 0.3993 0.5137
O3 O -0.288(2) 0.5467(6) 0.9104(11)
O4 O 0.130(2) 0.2589(8) 0.5222(15)
C1 C -0.128(3) 0.3493(9) 0.5802(16)
H2 H -0.2156 0.3760 0.5482
C2 C -0.331(2) 0.3257(9) 0.7220(16)
C3 C -0.016(3) 0.5179(9) 1.1627(17)
C4 C -0.223(3) 0.3772(9) 0.7333(16)
H3 H -0.2944 0.4041 0.6892
C5 C 0.054(3) 0.5479(10) 1.2645(18)
C6 C 0.146(3) 0.3029(10) 0.5469(18)
H4 H 0.2531 0.3125 0.5917
C7 C -0.207(2) 0.4452(8) 0.8697(15)
H5 H -0.2756 0.4664 0.8179
C8 C -0.145(3) 0.4683(8) 0.9707(16)
C9 C 0.006(3) 0.3485(9) 0.5122(18)
C10 C -0.386(3) 0.3039(9) 0.6176(16)
H6 H -0.5008 0.2952 0.5834
C11 C 0.203(4) 0.5956(11) 1.449(2)
H7 H 0.2614 0.6115 1.5105
C12 C 0.038(3) 0.4203(9) 0.6928(16)
H8 H -0.0451 0.4473 0.6598
H9 H 0.0882 0.4311 0.7639
C13 C -0.174(2) 0.3982(9) 0.8453(16)
H10 H -0.1182 0.3753 0.8980
C14 C 0.108(3) 0.4013(10) 0.5243(18)
H11 H 0.0269 0.4290 0.4897
C15 C -0.061(2) 0.3666(9) 0.6920(16)
C16 C 0.173(3) 0.5476(11) 1.4441(19)
H12 H 0.1977 0.5289 1.5060
C17 C 0.063(2) 0.3269(8) 0.7621(15)
H13 H 0.0720 0.3354 0.8332
H14 H 0.1767 0.3288 0.7492
H15 H 0.0168 0.2917 0.7477
C18 C 0.106(3) 0.5194(10) 1.3523(18)
H16 H 0.0979 0.4826 1.3520
C19 C -0.040(3) 0.4394(9) 1.0571(16)
H17 H -0.0133 0.4039 1.0503
C20 C -0.122(3) 0.5436(9) 1.0804(15)
H18 H -0.1546 0.5785 1.0881
C21 C 0.180(3) 0.4176(10) 0.6397(16)
H19 H 0.2669 0.3921 0.6745
H20 H 0.2362 0.4520 0.6433
C22 C -0.326(3) 0.2908(10) 0.8078(17)
H21 H -0.3436 0.2532 0.7932
H22 H -0.2424 0.2989 0.8732
C23 C 0.072(3) 0.5981(11) 1.266(2)
H23 H 0.0367 0.6173 1.2043
C24 C -0.231(3) 0.2974(9) 0.5729(17)
H24 H -0.2708 0.2867 0.5010
H25 H -0.1543 0.2698 0.6102
C25 C -0.076(3) 0.3405(11) 0.3976(17)
H26 H -0.1563 0.3690 0.3718
H27 H -0.1386 0.3074 0.3870
H28 H 0.0141 0.3400 0.3615
C26 C 0.021(3) 0.4656(9) 1.1519(17)
H29 H 0.0881 0.4471 1.2085
F1 F 0.203(3) 0.6729(8) 1.3611(15)
C27 C 0.147(4) 0.6249(11) 1.360(2)
C28 C 0.974(2) 0.6340(9) 0.7384(15)
O5 O 1.4672(17) 0.6072(7) 0.9584(12)
H30 H 1.5273 0.5849 0.9391
N2 N 0.562(2) 0.4804(7) 0.4450(13)
O6 O 0.5350(19) 0.4558(6) 0.5281(10)
F2 F 0.356(2) 0.4684(7) -0.1044(11)
O7 O 0.4869(16) 0.6724(7) 0.6487(11)
C29 C 0.617(3) 0.5313(9) 0.4552(16)
C30 C 0.777(2) 0.6253(9) 0.6938(16)
H31 H 0.7429 0.5986 0.7382
C31 C 0.513(3) 0.4493(10) 0.1685(17)
C32 C 0.732(2) 0.6020(9) 0.5884(16)
H32 H 0.7597 0.6220 0.5363
C33 C 1.265(2) 0.5860(9) 0.7918(15)
H33 H 1.3185 0.5515 0.7894
H34 H 1.3247 0.6111 0.7574
C34 C 1.294(2) 0.6022(10) 0.9017(16)
H35 H 1.2456 0.5734 0.9349
C35 C 0.629(3) 0.5566(10) 0.3684(15)
H36 H 0.6618 0.5921 0.3722
C36 C 0.423(3) 0.4454(11) -0.0188(19)
C37 C 1.076(2) 0.5833(9) 0.7334(16)
H37 H 1.0208 0.5543 0.7610
H38 H 1.0685 0.5753 0.6616
C38 C 1.001(2) 0.6507(9) 0.8490(16)
H39 H 0.9437 0.6227 0.8794
C39 C 0.523(3) 0.4551(10) 0.3539(15)
H40 H 0.4813 0.4205 0.3503
C40 C 1.199(3) 0.6519(9) 0.9206(17)
O8 O 1.310(2) 0.7390(8) 0.9401(15)
C41 C 0.674(2) 0.6728(10) 0.7023(17)
C42 C 0.520(4) 0.3693(12) 0.0729(18)
H41 H 0.5494 0.3336 0.0732
C43 C 0.593(3) 0.5310(10) 0.2741(17)
H42 H 0.6023 0.5493 0.2154
C44 C 0.656(2) 0.5546(9) 0.5614(15)
H43 H 0.6241 0.5349 0.6126
C45 C 0.442(3) 0.4725(11) 0.0753(17)
H44 H 0.4050 0.5076 0.0737
C46 C 0.543(3) 0.4789(10) 0.2667(16)
C47 C 1.295(3) 0.6974(10) 0.891(2)
H45 H 1.3428 0.6944 0.8348
C48 C 0.458(4) 0.3927(12) -0.017(2)
H46 H 0.4376 0.3734 -0.0777
C49 C 0.900(2) 0.7015(10) 0.8624(17)
H47 H 0.9436 0.7309 0.8294
H48 H 0.9220 0.7096 0.9355
C50 C 0.700(2) 0.6959(10) 0.8152(16)
H49 H 0.6430 0.7302 0.8124
H50 H 0.6496 0.6721 0.8568
C51 C 1.037(2) 0.6764(9) 0.6685(16)
H51 H 1.1619 0.6800 0.6911
H52 H 0.9825 0.7099 0.6741
H53 H 1.0039 0.6648 0.5977
C52 C 0.544(4) 0.3951(11) 0.1674(19)
H54 H 0.5806 0.3763 0.2290
C53 C 1.200(3) 0.6566(10) 1.0363(17)
H55 H 1.1076 0.6799 1.0432
H56 H 1.3111 0.6707 1.0746
H57 H 1.1830 0.6222 1.0627
C54 C 0.608(2) 0.7065(11) 0.6171(18)
H58 H 0.6376 0.6981 0.5529
H59 H 0.6020 0.7441 0.6308
O9 O 1.701(5) 0.6517(15) 1.126(5)
H60 H 1.6692 0.6195 1.1155
H61 H 1.7330 0.6632 1.0737
loop_
_geom_bond_atom_site_label_1
_geom_bond_atom_site_label_2
_geom_bond_site_symmetry_1
_geom_bond_site_symmetry_2
O1 C2 1_555 1_555
N1 O3 1_555 1_555
O2 H1 1_555 1_555
O4 C6 1_555 1_555
C1 H2 1_555 1_555
C2 C4 1_555 1_555
C3 C5 1_555 1_555
C4 H3 1_555 1_555
C5 C18 1_555 1_555
C6 H4 1_555 1_555
C7 H5 1_555 1_555
C8 N1 1_555 1_555
C9 C1 1_555 1_555
C10 C2 1_555 1_555
H6 C10 1_555 1_555
C11 H7 1_555 1_555
C12 H8 1_555 1_555
H9 C12 1_555 1_555
C13 C4 1_555 1_555
H10 C13 1_555 1_555
C14 O2 1_555 1_555
H11 C14 1_555 1_555
C15 C1 1_555 1_555
C16 C11 1_555 1_555
H12 C16 1_555 1_555
C17 C15 1_555 1_555
H13 C17 1_555 1_555
H14 C17 1_555 1_555
H15 C17 1_555 1_555
C18 C16 1_555 1_555
H16 C18 1_555 1_555
C19 C8 1_555 1_555
H17 C19 1_555 1_555
C20 N1 1_555 1_555
H18 C20 1_555 1_555
C21 C12 1_555 1_555
H19 C21 1_555 1_555
H20 C21 1_555 1_555
C22 O1 1_555 1_555
H21 C22 1_555 1_555
H22 C22 1_555 1_555
C23 C5 1_555 1_555
H23 C23 1_555 1_555
C24 C1 1_555 1_555
H24 C24 1_555 1_555
H25 C24 1_555 1_555
C25 C9 1_555 1_555
H26 C25 1_555 1_555
H27 C25 1_555 1_555
H28 C25 1_555 1_555
C26 C3 1_555 1_555
H29 C26 1_555 1_555
F1 C27 1_555 1_555
C27 C11 1_555 1_555
C28 C30 1_555 1_555
O5 H30 1_555 1_555
N2 O6 1_555 1_555
F2 C36 1_555 1_555
O7 C41 1_555 1_555
C29 N2 1_555 1_555
C30 H31 1_555 1_555
C31 C45 1_555 1_555
C32 C30 1_555 1_555
H32 C32 1_555 1_555
C33 H33 1_555 1_555
H34 C33 1_555 1_555
C34 O5 1_555 1_555
H35 C34 1_555 1_555
C35 C29 1_555 1_555
H36 C35 1_555 1_555
C36 C45 1_555 1_555
C37 C28 1_555 1_555
H37 C37 1_555 1_555
H38 C37 1_555 1_555
C38 C28 1_555 1_555
H39 C38 1_555 1_555
C39 N2 1_555 1_555
H40 C39 1_555 1_555
C40 C34 1_555 1_555
O8 C47 1_555 1_555
C41 C30 1_555 1_555
C42 H41 1_555 1_555
C43 C35 1_555 1_555
H42 C43 1_555 1_555
C44 C29 1_555 1_555
H43 C44 1_555 1_555
C45 H44 1_555 1_555
C46 C31 1_555 1_555
C47 C40 1_555 1_555
H45 C47 1_555 1_555
C48 C36 1_555 1_555
H46 C48 1_555 1_555
C49 C38 1_555 1_555
H47 C49 1_555 1_555
H48 C49 1_555 1_555
C50 C41 1_555 1_555
H49 C50 1_555 1_555
H50 C50 1_555 1_555
C51 C28 1_555 1_555
H51 C51 1_555 1_555
H52 C51 1_555 1_555
H53 C51 1_555 1_555
C52 C31 1_555 1_555
H54 C52 1_555 1_555
C53 C40 1_555 1_555
H55 C53 1_555 1_555
H56 C53 1_555 1_555
H57 C53 1_555 1_555
C54 O7 1_555 1_555
H58 C54 1_555 1_555
H59 C54 1_555 1_555
O9 H60 1_555 1_555
H61 O9 1_555 1_555
C2 C22 1_555 1_555
C3 C20 1_555 1_555
C4 C15 1_555 1_555
C6 C9 1_555 1_555
C7 C8 1_555 1_555
C7 C13 1_555 1_555
C9 C14 1_555 1_555
C10 C24 1_555 1_555
C12 C15 1_555 1_555
C14 C21 1_555 1_555
C19 C26 1_555 1_555
C23 C27 1_555 1_555
C32 C44 1_555 1_555
C33 C34 1_555 1_555
C33 C37 1_555 1_555
C38 C40 1_555 1_555
C39 C46 1_555 1_555
C41 C54 1_555 1_555
C42 C48 1_555 1_555
C42 C52 1_555 1_555
C43 C46 1_555 1_555
C49 C50 1_555 1_555

#END
