
#######################################################################
#
#                 Cambridge Crystallographic Data Centre
#                                CCDC 
#
#######################################################################
#
# If this CIF has been generated from an entry in the Cambridge 
# Structural Database, then it will include bibliographic, chemical, 
# crystal, experimental, refinement or atomic coordinate data resulting 
# from the CCDC's data processing and validation procedures.
#
#######################################################################

data_QEBQAP
_chemical_formula_moiety         'C16 H13 Br1 O2'
_chemical_name_systematic        'Methyl (Z)-4-(2-bromo-2-phenylvinyl)benzoate'
_symmetry_cell_setting           monoclinic
_symmetry_space_group_name_H-M   'P 21/c'
_symmetry_Int_Tables_number      14
_space_group_name_Hall           '-P 2ybc'
loop_
_symmetry_equiv_pos_site_id
_symmetry_equiv_pos_as_xyz
1 x,y,z
2 -x,1/2+y,1/2-z
3 -x,-y,-z
4 x,1/2-y,1/2+z
_cell_length_a                   12.3593(5)
_cell_length_b                   20.4171(8)
_cell_length_c                   11.6027(2)
_cell_angle_alpha                90
_cell_angle_beta                 106.816(1)
_cell_angle_gamma                90
_cell_volume                     2802.64
_exptl_crystal_description       rod
_cell_formula_units_Z            8
loop_
_atom_site_label
_atom_site_type_symbol
_atom_site_fract_x
_atom_site_fract_y
_atom_site_fract_z
Br1 Br 0.0279(1) 0.14384(8) -0.2019(1)
O3 O 0.5113(6) -0.0907(4) 0.1171(7)
O4 O 0.4410(6) -0.1033(4) -0.0815(7)
C1 C -0.288(1) 0.2271(6) -0.002(2)
C5 C -0.1049(9) 0.1614(5) -0.0371(10)
C8 C -0.194(1) 0.1788(7) -0.133(1)
C10 C 0.3387(9) -0.0369(5) 0.0185(10)
C12 C 0.4335(10) -0.0799(6) 0.010(1)
C13 C -0.287(1) 0.2119(7) -0.115(1)
C14 C 0.3384(9) -0.0034(5) 0.1199(10)
C15 C 0.244(1) -0.0308(6) -0.084(1)
C17 C 0.2468(10) 0.0371(6) 0.1220(10)
C19 C 0.1564(9) 0.0095(6) -0.0832(10)
C20 C 0.1550(8) 0.0443(5) 0.0188(9)
C21 C 0.0596(9) 0.0842(6) 0.0255(10)
C23 C -0.1101(10) 0.1763(6) 0.076(1)
C24 C -0.202(1) 0.2106(6) 0.093(1)
C28 C 0.605(1) -0.1323(7) 0.117(1)
C29 C -0.0033(9) 0.1242(6) -0.052(1)
H1 H -0.3528 0.2479 0.0106
H5 H -0.1957 0.1677 -0.2165
H6 H -0.3505 0.2234 -0.1793
H7 H 0.3975 -0.0083 0.1904
H8 H 0.2443 -0.0549 -0.1538
H9 H 0.2475 0.0595 0.1929
H11 H 0.0968 0.0145 -0.1503
H12 H 0.0406 0.0816 0.0986
H14 H -0.0465 0.1644 0.1474
H15 H -0.1985 0.2229 0.1737
H19 H 0.5775 -0.1734 0.0825
H20 H 0.6473 -0.1122 0.0683
H21 H 0.6523 -0.1375 0.1956
Br2 Br 0.5052(1) 0.12927(8) 0.5928(1)
O1 O 0.9740(6) -0.1154(4) 0.5010(7)
O2 O 1.0039(7) -0.0740(5) 0.6848(8)
C2 C 0.297(1) 0.1726(7) 0.375(1)
C3 C 0.4916(9) 0.1263(6) 0.4250(10)
C4 C 0.8509(8) -0.0316(6) 0.5289(9)
C6 C 0.209(1) 0.2055(8) 0.302(1)
C7 C 0.7884(9) -0.0370(6) 0.4095(10)
C9 C 0.3981(9) 0.1618(5) 0.3467(10)
C11 C 0.6621(9) 0.0483(6) 0.4412(9)
C16 C 0.9511(10) -0.0762(6) 0.580(1)
C18 C 0.5589(9) 0.0892(7) 0.380(1)
C22 C 0.4030(10) 0.1876(6) 0.239(1)
C25 C 0.725(1) 0.0521(7) 0.557(1)
C26 C 0.6956(9) 0.0038(6) 0.364(1)
C27 C 0.822(1) 0.0116(6) 0.6046(9)
C30 C 0.314(1) 0.2196(7) 0.162(1)
C31 C 1.071(1) -0.1592(8) 0.546(1)
C32 C 0.214(1) 0.2282(7) 0.194(2)
H2 H 0.2878 0.1556 0.4488
H3 H 0.1388 0.2122 0.3198
H4 H 0.8057 -0.0693 0.3586
H10 H 0.5385 0.0874 0.2964
H13 H 0.4726 0.1835 0.2168
H16 H 0.7060 0.0825 0.6104
H17 H 0.6516 0.0017 0.2817
H18 H 0.8671 0.0162 0.6871
H22 H 0.3217 0.2366 0.0880
H23 H 1.0618 -0.1841 0.6152
H24 H 1.0828 -0.1865 0.4900
H25 H 1.1390 -0.1321 0.5812
H26 H 0.1513 0.2511 0.1376
loop_
_geom_bond_atom_site_label_1
_geom_bond_atom_site_label_2
_geom_bond_site_symmetry_1
_geom_bond_site_symmetry_2
Br1 C29 1_555 1_555
Br2 C3 1_555 1_555
O1 C16 1_555 1_555
O2 C16 1_555 1_555
O3 C12 1_555 1_555
O4 C12 1_555 1_555
C1 C13 1_555 1_555
C2 C6 1_555 1_555
C3 C9 1_555 1_555
C4 C7 1_555 1_555
C5 C8 1_555 1_555
C6 C32 1_555 1_555
C7 C26 1_555 1_555
C8 C13 1_555 1_555
C9 C2 1_555 1_555
C10 C12 1_555 1_555
C11 C18 1_555 1_555
C13 H6 1_555 1_555
C14 C10 1_555 1_555
C15 C10 1_555 1_555
C16 C4 1_555 1_555
C17 C14 1_555 1_555
C18 C3 1_555 1_555
C19 C15 1_555 1_555
C20 C17 1_555 1_555
C21 C20 1_555 1_555
C22 C9 1_555 1_555
C23 C5 1_555 1_555
C24 C1 1_555 1_555
C25 C11 1_555 1_555
C26 C11 1_555 1_555
C27 C4 1_555 1_555
C28 O3 1_555 1_555
C29 C5 1_555 1_555
C30 C22 1_555 1_555
C31 O1 1_555 1_555
C32 C30 1_555 1_555
H1 C1 1_555 1_555
H2 C2 1_555 1_555
H3 C6 1_555 1_555
H4 C7 1_555 1_555
H5 C8 1_555 1_555
H7 C14 1_555 1_555
H8 C15 1_555 1_555
H9 C17 1_555 1_555
H10 C18 1_555 1_555
H11 C19 1_555 1_555
H12 C21 1_555 1_555
H13 C22 1_555 1_555
H14 C23 1_555 1_555
H15 C24 1_555 1_555
H16 C25 1_555 1_555
H17 C26 1_555 1_555
H18 C27 1_555 1_555
H19 C28 1_555 1_555
H20 C28 1_555 1_555
H21 C28 1_555 1_555
H22 C30 1_555 1_555
H23 C31 1_555 1_555
H24 C31 1_555 1_555
H25 C31 1_555 1_555
H26 C32 1_555 1_555
C19 C20 1_555 1_555
C21 C29 1_555 1_555
C23 C24 1_555 1_555
C25 C27 1_555 1_555

#END
