
#######################################################################
#
#                 Cambridge Crystallographic Data Centre
#                                CCDC 
#
#######################################################################
#
# If this CIF has been generated from an entry in the Cambridge 
# Structural Database, then it will include bibliographic, chemical, 
# crystal, experimental, refinement or atomic coordinate data resulting 
# from the CCDC's data processing and validation procedures.
#
#######################################################################

data_QEBQET
_chemical_formula_moiety         'C20 H16 O3'
_chemical_name_systematic        
'Methyl (Z)-4-(2-(2-furyl)-2-phenylvinyl)benzoate'
_symmetry_cell_setting           monoclinic
_symmetry_space_group_name_H-M   'P 21/n'
_symmetry_Int_Tables_number      14
_space_group_name_Hall           '-P 2yn'
loop_
_symmetry_equiv_pos_site_id
_symmetry_equiv_pos_as_xyz
1 x,y,z
2 1/2-x,1/2+y,1/2-z
3 -x,-y,-z
4 1/2+x,1/2-y,1/2+z
_cell_length_a                   8.8886(1)
_cell_length_b                   10.2937(2)
_cell_length_c                   17.4205(4)
_cell_angle_alpha                90
_cell_angle_beta                 91.842(1)
_cell_angle_gamma                90
_cell_volume                     1593.09
_exptl_crystal_colour            yellow
_exptl_crystal_description       rod
_cell_formula_units_Z            4
loop_
_atom_site_label
_atom_site_type_symbol
_atom_site_fract_x
_atom_site_fract_y
_atom_site_fract_z
O1 O 0.2676(3) 0.6784(2) 0.9724(1)
O2 O 0.1751(2) 0.7956(2) 0.8738(1)
O3 O 0.8454(2) 0.9227(2) 0.7483(1)
C1 C 0.0359(4) 0.7243(4) 0.8763(2)
C2 C 0.2841(4) 0.7607(3) 0.9248(2)
C3 C 0.4240(3) 0.8379(3) 0.9159(2)
C4 C 0.5383(4) 0.8254(3) 0.9723(2)
C5 C 0.6713(4) 0.8946(3) 0.9663(2)
C6 C 0.6963(3) 0.9748(3) 0.9034(2)
C7 C 0.5783(3) 0.9877(3) 0.8475(2)
C8 C 0.4472(4) 0.9196(3) 0.8544(2)
C9 C 0.8347(3) 1.0499(3) 0.9004(2)
C10 C 0.9107(3) 1.0926(3) 0.8396(2)
C11 C 0.8740(3) 1.0522(3) 0.7610(2)
C12 C 0.8621(4) 1.1150(3) 0.6932(2)
C13 C 0.8243(4) 1.0238(4) 0.6356(2)
C14 C 0.8162(4) 0.9082(4) 0.6716(2)
C15 C 1.0365(3) 1.1870(3) 0.8506(2)
C16 C 1.0290(3) 1.2853(3) 0.9043(2)
C17 C 1.1457(4) 1.3750(3) 0.9162(2)
C18 C 1.2710(4) 1.3639(4) 0.8730(2)
C19 C 1.2820(4) 1.2701(4) 0.8189(2)
C20 C 1.1640(4) 1.1823(3) 0.8057(2)
H1 H -0.0015 0.7335 0.9281
H2 H -0.0311 0.7607 0.8413
H3 H 0.0571 0.6375 0.8673
H4 H 0.5179 0.7726 1.0158
H5 H 0.7448 0.8837 1.0040
H6 H 0.5953 1.0437 0.8058
H7 H 0.3669 0.9319 0.8175
H8 H 0.8814 1.0686 0.9502
H9 H 0.8717 1.2038 0.6903
H10 H 0.8149 1.0458 0.5818
H11 H 0.7889 0.8273 0.6490
H12 H 0.9405 1.2926 0.9313
H13 H 1.1311 1.4439 0.9546
H14 H 1.3489 1.4243 0.8809
H15 H 1.3750 1.2670 0.7896
H16 H 1.1716 1.1191 0.7660
loop_
_geom_bond_atom_site_label_1
_geom_bond_atom_site_label_2
_geom_bond_site_symmetry_1
_geom_bond_site_symmetry_2
O1 C2 1_555 1_555
O2 C1 1_555 1_555
O3 C11 1_555 1_555
C1 H1 1_555 1_555
C2 O2 1_555 1_555
C3 C2 1_555 1_555
C4 C3 1_555 1_555
C5 C4 1_555 1_555
C6 C5 1_555 1_555
C7 C6 1_555 1_555
C8 C3 1_555 1_555
C9 C6 1_555 1_555
C10 C9 1_555 1_555
C11 C10 1_555 1_555
C12 C11 1_555 1_555
C13 C12 1_555 1_555
C14 O3 1_555 1_555
C15 C10 1_555 1_555
C16 C15 1_555 1_555
C17 C16 1_555 1_555
C18 C17 1_555 1_555
C19 C18 1_555 1_555
C20 C15 1_555 1_555
H2 C1 1_555 1_555
H3 C1 1_555 1_555
H4 C4 1_555 1_555
H5 C5 1_555 1_555
H6 C7 1_555 1_555
H7 C8 1_555 1_555
H8 C9 1_555 1_555
H9 C12 1_555 1_555
H10 C13 1_555 1_555
H11 C14 1_555 1_555
H12 C16 1_555 1_555
H13 C17 1_555 1_555
H14 C18 1_555 1_555
H15 C19 1_555 1_555
H16 C20 1_555 1_555
C7 C8 1_555 1_555
C13 C14 1_555 1_555
C19 C20 1_555 1_555

#END
