
#######################################################################
#
#                 Cambridge Crystallographic Data Centre
#                                CCDC 
#
#######################################################################
#
# If this CIF has been generated from an entry in the Cambridge 
# Structural Database, then it will include bibliographic, chemical, 
# crystal, experimental, refinement or atomic coordinate data resulting 
# from the CCDC's data processing and validation procedures.
#
#######################################################################

data_QEBVEY
_chemical_formula_moiety         'C48 H30 N2 S2 Se1,C1 H2 Cl2'
_chemical_name_systematic        
'5,10,15,20-tetraphenyl-25,29-dithia-27-selenasapphyrin dichloromethane solvate'
_symmetry_cell_setting           monoclinic
_symmetry_space_group_name_H-M   'P 21/n'
_symmetry_Int_Tables_number      14
_space_group_name_Hall           '-P 2yn'
loop_
_symmetry_equiv_pos_site_id
_symmetry_equiv_pos_as_xyz
1 x,y,z
2 1/2-x,1/2+y,1/2-z
3 -x,-y,-z
4 1/2+x,1/2-y,1/2+z
_cell_length_a                   17.752(2)
_cell_length_b                   11.020(1)
_cell_length_c                   21.341(2)
_cell_angle_alpha                90
_cell_angle_beta                 106.958(3)
_cell_angle_gamma                90
_cell_volume                     3993.35
_exptl_crystal_colour            gold
_exptl_crystal_description       plate
_cell_formula_units_Z            4
loop_
_atom_site_label
_atom_site_type_symbol
_atom_site_fract_x
_atom_site_fract_y
_atom_site_fract_z
Se1 Se 0.55161(3) -0.21947(5) 0.38820(3)
S1 S 0.30509(8) 0.0709(1) 0.21058(7)
S2 S 0.26502(8) 0.0722(1) 0.34194(7)
N1 N 0.3437(2) -0.0359(4) 0.4559(2)
N2 N 0.4372(2) -0.0139(4) 0.1859(2)
C1 C 0.2944(3) 0.1210(5) 0.1313(3)
C2 C 0.2335(3) 0.2060(5) 0.1129(3)
C3 C 0.1979(3) 0.2302(5) 0.1617(3)
C4 C 0.2295(3) 0.1640(5) 0.2179(3)
C5 C 0.2103(3) 0.1638(5) 0.2790(3)
C6 C 0.1544(3) 0.2295(5) 0.2986(3)
C7 C 0.1564(3) 0.2068(5) 0.3623(3)
C8 C 0.2133(3) 0.1228(5) 0.3949(3)
C9 C 0.2306(3) 0.0816(5) 0.4608(3)
C10 C 0.2912(3) 0.0018(5) 0.4893(3)
C11 C 0.3151(3) -0.0517(5) 0.5542(3)
C12 C 0.3783(3) -0.1209(5) 0.5595(3)
C13 C 0.3970(3) -0.1090(5) 0.4971(3)
C14 C 0.4618(3) -0.1647(5) 0.4801(3)
C15 C 0.4840(3) -0.1275(5) 0.4251(3)
C16 C 0.4560(3) -0.0279(5) 0.3837(3)
C17 C 0.4744(3) -0.0230(5) 0.3273(3)
C18 C 0.6830(3) -0.2111(6) 0.2913(3)
C19 C 0.3189(3) 0.1150(5) 0.0227(3)
C20 C 0.3610(4) 0.1981(6) -0.0035(3)
C21 C 0.3360(4) 0.2258(6) -0.0697(3)
C22 C 0.2702(4) 0.1728(7) -0.1106(3)
C23 C 0.2270(4) 0.0903(7) -0.0857(3)
C24 C 0.2511(3) 0.0633(5) -0.0185(3)
H1 H 0.218(3) 0.244(5) 0.071(3)
H2 H 0.156(3) 0.287(4) 0.157(2)
H3 H 0.119(4) 0.284(5) 0.271(3)
H4 H 0.122(3) 0.245(5) 0.383(3)
H5 H 0.290(3) -0.039(5) 0.587(3)
H6 H 0.406(2) -0.168(4) 0.596(2)
H7 H 0.425(4) 0.034(6) 0.395(4)
H8 H 0.455(3) 0.041(5) 0.297(3)
H9 H 0.573(3) -0.121(5) 0.130(3)
H10 H 0.471(3) -0.008(5) 0.046(3)
H11 H 0.123(3) -0.030(6) 0.506(3)
H12 H 0.044(4) 0.049(7) 0.568(4)
H13 H 0.050(4) 0.253(6) 0.595(4)
H14 H 0.140(3) 0.378(5) 0.566(3)
H15 H 0.219(3) 0.302(5) 0.505(3)
H16 H 0.616(3) -0.202(5) 0.533(3)
C26 C 0.5228(3) -0.1146(5) 0.3144(3)
C27 C 0.5437(3) -0.1338(5) 0.2563(3)
C28 C 0.5042(3) -0.0774(5) 0.1963(3)
C29 C 0.5272(3) -0.0821(5) 0.1359(3)
C30 C 0.4722(3) -0.0210(5) 0.0899(3)
C31 C 0.4147(3) 0.0203(5) 0.1217(3)
C32 C 0.3443(3) 0.0824(5) 0.0932(3)
C33 C 0.1792(3) 0.1282(5) 0.5001(3)
C34 C 0.1268(4) 0.0531(6) 0.5181(3)
C35 C 0.0789(4) 0.1009(7) 0.5546(4)
C36 C 0.0830(4) 0.2211(7) 0.5711(3)
C37 C 0.1358(4) 0.2953(6) 0.5533(3)
C38 C 0.1831(4) 0.2495(5) 0.5175(3)
C39 C 0.5051(3) -0.2642(5) 0.5233(3)
C40 C 0.5871(3) -0.2641(5) 0.5462(3)
C41 C 0.6261(4) -0.3571(6) 0.5883(3)
C42 C 0.5836(4) -0.4474(5) 0.6065(4)
C43 C 0.5031(4) -0.4469(6) 0.5833(4)
C44 C 0.4633(4) -0.3583(5) 0.5420(3)
C45 C 0.6043(3) -0.2293(5) 0.2555(3)
C46 C 0.5831(4) -0.3341(5) 0.2198(3)
C47 C 0.6407(5) -0.4193(7) 0.2191(4)
C48 C 0.7185(4) -0.3991(7) 0.2536(3)
C49 C 0.7397(4) -0.2959(7) 0.2895(4)
H17 H 0.682(3) -0.357(5) 0.604(3)
H18 H 0.610(3) -0.510(5) 0.635(3)
H19 H 0.474(4) -0.510(6) 0.596(3)
H20 H 0.407(3) -0.361(5) 0.526(3)
H21 H 0.530(3) -0.348(5) 0.196(3)
H22 H 0.626(3) -0.492(5) 0.195(3)
H23 H 0.757(5) -0.458(7) 0.252(4)
H24 H 0.793(3) -0.282(5) 0.313(3)
H25 H 0.698(4) -0.140(7) 0.317(4)
H26 H 0.407(3) 0.236(5) 0.024(3)
H27 H 0.365(4) 0.283(5) -0.087(3)
H28 H 0.254(4) 0.192(6) -0.156(4)
H29 H 0.182(3) 0.053(4) -0.114(3)
H30 H 0.221(3) 0.009(5) -0.001(3)
Cl1 Cl 0.4337(1) 0.3982(2) 0.1684(2)
Cl2 Cl 0.5631(2) 0.2664(3) 0.2587(2)
C25 C 0.4680(6) 0.304(1) 0.2409(6)
H31 H 0.4604 0.3478 0.2771
H32 H 0.4376 0.2322 0.2343
loop_
_geom_bond_atom_site_label_1
_geom_bond_atom_site_label_2
_geom_bond_site_symmetry_1
_geom_bond_site_symmetry_2
Se1 C15 1_555 1_555
Cl1 C25 1_555 1_555
Cl2 C25 1_555 1_555
S1 C1 1_555 1_555
S2 C5 1_555 1_555
N1 C10 1_555 1_555
N2 C28 1_555 1_555
C1 C2 1_555 1_555
C2 C3 1_555 1_555
C3 C4 1_555 1_555
C4 S1 1_555 1_555
C5 C4 1_555 1_555
C6 C5 1_555 1_555
C7 C6 1_555 1_555
C8 S2 1_555 1_555
C9 C8 1_555 1_555
C10 C9 1_555 1_555
C11 C10 1_555 1_555
C12 C11 1_555 1_555
C13 N1 1_555 1_555
C14 C13 1_555 1_555
C15 C14 1_555 1_555
C16 C15 1_555 1_555
C17 C16 1_555 1_555
C18 C45 1_555 1_555
C19 C20 1_555 1_555
C20 C21 1_555 1_555
C21 C22 1_555 1_555
C22 C23 1_555 1_555
C23 C24 1_555 1_555
C24 C19 1_555 1_555
C25 H31 1_555 1_555
H1 C2 1_555 1_555
H2 C3 1_555 1_555
H3 C6 1_555 1_555
H4 C7 1_555 1_555
H5 C11 1_555 1_555
H6 C12 1_555 1_555
H7 C16 1_555 1_555
H8 C17 1_555 1_555
H9 C29 1_555 1_555
H10 C30 1_555 1_555
H11 C34 1_555 1_555
H12 C35 1_555 1_555
H13 C36 1_555 1_555
H14 C37 1_555 1_555
H15 C38 1_555 1_555
H16 C40 1_555 1_555
C26 Se1 1_555 1_555
C27 C26 1_555 1_555
C28 C27 1_555 1_555
C29 C28 1_555 1_555
C30 C29 1_555 1_555
C31 N2 1_555 1_555
C32 C1 1_555 1_555
C33 C9 1_555 1_555
C34 C33 1_555 1_555
C35 C34 1_555 1_555
C36 C35 1_555 1_555
C37 C36 1_555 1_555
C38 C33 1_555 1_555
C39 C14 1_555 1_555
C40 C39 1_555 1_555
C41 C40 1_555 1_555
C42 C41 1_555 1_555
C43 C42 1_555 1_555
C44 C39 1_555 1_555
C45 C27 1_555 1_555
C46 C45 1_555 1_555
C47 C46 1_555 1_555
C48 C47 1_555 1_555
C49 C18 1_555 1_555
H17 C41 1_555 1_555
H18 C42 1_555 1_555
H19 C43 1_555 1_555
H20 C44 1_555 1_555
H21 C46 1_555 1_555
H22 C47 1_555 1_555
H23 C48 1_555 1_555
H24 C49 1_555 1_555
H25 C18 1_555 1_555
H26 C20 1_555 1_555
H27 C21 1_555 1_555
H28 C22 1_555 1_555
H29 C23 1_555 1_555
H30 C24 1_555 1_555
H32 C25 1_555 1_555
C7 C8 1_555 1_555
C12 C13 1_555 1_555
C17 C26 1_555 1_555
C19 C32 1_555 1_555
C30 C31 1_555 1_555
C31 C32 1_555 1_555
C37 C38 1_555 1_555
C43 C44 1_555 1_555
C48 C49 1_555 1_555

#END
