
#######################################################################
#
#                 Cambridge Crystallographic Data Centre
#                                CCDC 
#
#######################################################################
#
# If this CIF has been generated from an entry in the Cambridge 
# Structural Database, then it will include bibliographic, chemical, 
# crystal, experimental, refinement or atomic coordinate data resulting 
# from the CCDC's data processing and validation procedures.
#
#######################################################################

data_QECBEF
_chemical_formula_moiety         'C56 H62 O2'
_chemical_name_systematic        
6,13-bis(10-Undecenyloxy)-5,7,12,14-tetrahydro-5,14-(1',2'):7,12-(1'',2'')-dibenzenopentacene
_symmetry_cell_setting           triclinic
_symmetry_space_group_name_H-M   'P -1'
_symmetry_Int_Tables_number      2
_space_group_name_Hall           '-P 1'
loop_
_symmetry_equiv_pos_site_id
_symmetry_equiv_pos_as_xyz
1 x,y,z
2 -x,-y,-z
_cell_length_a                   12.2691(2)
_cell_length_b                   13.6644(2)
_cell_length_c                   15.8290(2)
_cell_angle_alpha                65.349(1)
_cell_angle_beta                 67.588(1)
_cell_angle_gamma                82.818(1)
_cell_volume                     2227.88
_exptl_crystal_description       needle
_chemical_melting_point          '177-179 deg.C'
_cell_formula_units_Z            2
_exptl_crystal_recrystallization_method chloroform/methanol
loop_
_atom_site_label
_atom_site_type_symbol
_atom_site_fract_x
_atom_site_fract_y
_atom_site_fract_z
O1 O 0.3393(3) 0.4652(3) 0.1926(2)
C1 C 0.5103(4) 0.5597(4) 0.0491(3)
C2 C 0.5333(4) 0.6349(4) 0.0903(3)
C3 C 0.6595(4) 0.6149(4) 0.0881(13)
C4 C 0.6949(4) 0.5824(4) 0.1690(4)
C5 C 0.8139(5) 0.5661(5) 0.1540(4)
C6 C 0.8953(6) 0.5823(5) 0.0601(4)
C7 C 0.8603(4) 0.6140(4) -0.0209(4)
C8 C 0.7419(4) 0.6295(4) -0.0067(3)
C9 C 0.5354(4) 0.7489(4) 0.0113(4)
C10 C 0.4640(5) 0.8317(4) 0.0246(4)
C11 C 0.4750(6) 0.9299(5) -0.0564(5)
C12 C 0.5577(6) 0.9447(5) -0.1497(5)
C13 C 0.6306(5) 0.8613(4) -0.1640(4)
C14 C 0.6196(4) 0.7642(4) -0.0839(3)
C15 C 0.6867(4) 0.6632(4) -0.0861(3)
C16 C 0.4080(4) 0.4233(4) 0.0469(3)
C17 C 0.4191(4) 0.4823(4) 0.0969(3)
C18 C 0.3772(4) 0.3829(4) 0.2687(3)
C19 C 0.2948(4) 0.3757(4) 0.3706(3)
C20 C 0.3290(4) 0.2865(4) 0.4536(3)
C21 C 0.2555(4) 0.2823(4) 0.5571(3)
C22 C 0.2830(4) 0.1904(4) 0.6425(3)
C23 C 0.2180(5) 0.1977(5) 0.7427(4)
C24 C 0.2363(6) 0.1101(6) 0.8333(4)
C25 C 0.1642(7) 0.1274(6) 0.9332(5)
C26 C 0.1784(8) 0.0519(10) 1.0248(6)
C27 C 0.1078(9) 0.0773(9) 1.1093(7)
C28 C 0.0292(10) -0.0009(9) 1.2009(7)
C16A C 0.5920(4) 0.5767(4) -0.0469(3)
C17A C 0.5809(4) 0.5177(4) -0.0969(3)
O1A O 0.6607(3) 0.5348(3) -0.1926(2)
C18A C 0.6228(4) 0.6171(4) -0.2687(3)
C19A C 0.7052(4) 0.6243(4) -0.3706(3)
C20A C 0.6710(4) 0.7135(4) -0.4536(3)
C21A C 0.7445(4) 0.7177(4) -0.5571(3)
C22A C 0.7170(4) 0.8096(4) -0.6425(3)
C23A C 0.7820(5) 0.8023(5) -0.7427(4)
C24A C 0.7637(6) 0.8899(6) -0.8333(4)
C25A C 0.8358(7) 0.8726(6) -0.9332(5)
C26A C 0.8216(8) 0.9481(10) -1.0248(6)
C27A C 0.8922(9) 0.9227(9) -1.1093(7)
C28A C 0.9708(10) 1.0009(9) -1.2009(7)
C1A C 0.4897(4) 0.4403(4) -0.0491(3)
C2A C 0.4667(4) 0.3651(4) -0.0903(3)
C3A C 0.3405(4) 0.3851(4) -0.0881(13)
C4A C 0.3051(4) 0.4176(4) -0.1690(4)
C5A C 0.1861(5) 0.4339(5) -0.1540(4)
C6A C 0.1047(6) 0.4177(5) -0.0601(4)
C7A C 0.1397(4) 0.3860(4) 0.0209(4)
C8A C 0.2581(4) 0.3705(4) 0.0067(3)
C15A C 0.3133(4) 0.3368(4) 0.0861(3)
C14A C 0.3804(4) 0.2358(4) 0.0839(3)
C9A C 0.4646(4) 0.2511(4) -0.0113(4)
C10A C 0.5360(5) 0.1683(4) -0.0246(4)
C11A C 0.5250(6) 0.0701(5) 0.0564(5)
C12A C 0.4423(6) 0.0553(5) 0.1497(5)
C13A C 0.3694(5) 0.1387(4) 0.1640(4)
O2 O -0.0009(3) 0.3645(2) 0.6900(2)
C29 C 0.0524(4) 0.5347(3) 0.5465(3)
C30 C 0.1155(4) 0.5848(4) 0.5859(3)
C31 C 0.2378(4) 0.6237(4) 0.5038(4)
C32 C 0.3453(4) 0.5949(4) 0.5143(4)
C33 C 0.4493(5) 0.6379(5) 0.4309(5)
C34 C 0.4441(5) 0.7080(5) 0.3404(5)
C35 C 0.3352(4) 0.7370(4) 0.3296(4)
C36 C 0.2320(4) 0.6943(4) 0.4115(3)
C37 C 0.0488(4) 0.6861(4) 0.5885(3)
C38 C -0.0051(4) 0.7105(4) 0.6714(4)
C39 C -0.0663(4) 0.8051(4) 0.6614(4)
C40 C -0.0730(5) 0.8741(4) 0.5705(4)
C41 C -0.0186(4) 0.8496(4) 0.4866(4)
C42 C 0.0431(4) 0.7561(4) 0.4957(3)
C43 C 0.1063(4) 0.7150(3) 0.4136(3)
C44 C -0.0503(4) 0.3969(3) 0.5472(3)
C45 C 0.0007(4) 0.4316(3) 0.5952(3)
C46 C -0.1021(4) 0.3839(4) 0.7659(3)
C47 C -0.1057(4) 0.3041(4) 0.8667(3)
C48 C -0.2026(4) 0.3294(5) 0.9493(4)
C49 C -0.2148(6) 0.2530(7) 1.0539(4)
C50 C -0.3084(7) 0.2855(9) 1.1364(5)
C51 C -0.3275(7) 0.2138(8) 1.2383(5)
C52 C -0.2228(7) 0.2101(9) 1.2727(7)
C53 C -0.2443(7) 0.1273(7) 1.3770(6)
C54 C -0.3437(8) 0.1447(7) 1.4592(6)
C55 C -0.3582(7) 0.0607(6) 1.5582(5)
C56 C -0.4497(8) -0.0220(9) 1.6178(7)
C44A C 0.0503(4) 0.6031(3) 0.4528(3)
C45A C -0.0007(4) 0.5684(3) 0.4048(3)
O2A O 0.0009(3) 0.6355(2) 0.3100(2)
C46A C 0.1021(4) 0.6161(4) 0.2341(3)
C47A C 0.1057(4) 0.6959(4) 0.1333(3)
C48A C 0.2026(4) 0.6706(5) 0.0507(4)
C49A C 0.2148(6) 0.7470(7) -0.0539(4)
C50A C 0.3084(7) 0.7145(9) -0.1364(5)
C51A C 0.3275(7) 0.7862(8) -0.2383(5)
C52A C 0.2228(7) 0.7899(9) -0.2727(7)
C53A C 0.2443(7) 0.8727(7) -0.3770(6)
C54A C 0.3437(8) 0.8553(7) -0.4592(6)
C55A C 0.3582(7) 0.9393(6) -0.5582(5)
C56A C 0.4497(8) 1.0220(9) -0.6178(7)
C29A C -0.0524(4) 0.4653(3) 0.4535(3)
C30A C -0.1155(4) 0.4152(4) 0.4141(3)
C31A C -0.2378(4) 0.3763(4) 0.4962(4)
C32A C -0.3453(4) 0.4051(4) 0.4857(4)
C33A C -0.4493(5) 0.3621(5) 0.5691(5)
C34A C -0.4441(5) 0.2920(5) 0.6596(5)
C35A C -0.3352(4) 0.2630(4) 0.6704(4)
C36A C -0.2320(4) 0.3057(4) 0.5885(3)
C43A C -0.1063(4) 0.2850(3) 0.5864(3)
C42A C -0.0431(4) 0.2439(4) 0.5043(3)
C37A C -0.0488(4) 0.3139(4) 0.4115(3)
C38A C 0.0051(4) 0.2895(4) 0.3286(4)
C39A C 0.0663(4) 0.1949(4) 0.3386(4)
C40A C 0.0730(5) 0.1259(4) 0.4295(4)
C41A C 0.0186(4) 0.1504(4) 0.5134(4)
loop_
_geom_bond_atom_site_label_1
_geom_bond_atom_site_label_2
_geom_bond_site_symmetry_1
_geom_bond_site_symmetry_2
O1 C17 1_555 1_555
O2 C45 1_555 1_555
C1 C2 1_555 1_555
C2 C3 1_555 1_555
C3 C4 1_555 1_555
C4 C5 1_555 1_555
C5 C6 1_555 1_555
C6 C7 1_555 1_555
C7 C8 1_555 1_555
C8 C3 1_555 1_555
C9 C2 1_555 1_555
C10 C9 1_555 1_555
C11 C10 1_555 1_555
C12 C11 1_555 1_555
C13 C12 1_555 1_555
C14 C9 1_555 1_555
C15 C8 1_555 1_555
C16 C17 1_555 1_555
C17 C1 1_555 1_555
C18 O1 1_555 1_555
C19 C18 1_555 1_555
C20 C19 1_555 1_555
C21 C20 1_555 1_555
C22 C21 1_555 1_555
C23 C22 1_555 1_555
C24 C23 1_555 1_555
C25 C24 1_555 1_555
C26 C25 1_555 1_555
C27 C26 1_555 1_555
C28 C27 1_555 1_555
C29 C30 1_555 1_555
C30 C31 1_555 1_555
C31 C32 1_555 1_555
C32 C33 1_555 1_555
C33 C34 1_555 1_555
C34 C35 1_555 1_555
C35 C36 1_555 1_555
C36 C31 1_555 1_555
C37 C30 1_555 1_555
C38 C37 1_555 1_555
C39 C38 1_555 1_555
C40 C39 1_555 1_555
C41 C40 1_555 1_555
C42 C37 1_555 1_555
C43 C36 1_555 1_555
C44 C45 1_555 1_555
C45 C29 1_555 1_555
C46 O2 1_555 1_555
C47 C46 1_555 1_555
C48 C47 1_555 1_555
C49 C48 1_555 1_555
C50 C49 1_555 1_555
C51 C50 1_555 1_555
C52 C51 1_555 1_555
C53 C52 1_555 1_555
C54 C53 1_555 1_555
C55 C54 1_555 1_555
C56 C55 1_555 1_555
C16A C1 1_555 1_555
C17A C16A 1_555 1_555
O1A C17A 1_555 1_555
C18A O1A 1_555 1_555
C19A C18A 1_555 1_555
C20A C19A 1_555 1_555
C21A C20A 1_555 1_555
C22A C21A 1_555 1_555
C23A C22A 1_555 1_555
C24A C23A 1_555 1_555
C25A C24A 1_555 1_555
C26A C25A 1_555 1_555
C27A C26A 1_555 1_555
C28A C27A 1_555 1_555
C1A C16 1_555 1_555
C2A C1A 1_555 1_555
C3A C2A 1_555 1_555
C4A C3A 1_555 1_555
C5A C4A 1_555 1_555
C6A C5A 1_555 1_555
C7A C6A 1_555 1_555
C8A C3A 1_555 1_555
C15A C16 1_555 1_555
C14A C15A 1_555 1_555
C9A C2A 1_555 1_555
C10A C9A 1_555 1_555
C11A C10A 1_555 1_555
C12A C11A 1_555 1_555
C13A C14A 1_555 1_555
C44A C29 1_555 1_555
C45A C44A 1_555 1_555
O2A C45A 1_555 1_555
C46A O2A 1_555 1_555
C47A C46A 1_555 1_555
C48A C47A 1_555 1_555
C49A C48A 1_555 1_555
C50A C49A 1_555 1_555
C51A C50A 1_555 1_555
C52A C51A 1_555 1_555
C53A C52A 1_555 1_555
C54A C53A 1_555 1_555
C55A C54A 1_555 1_555
C56A C55A 1_555 1_555
C29A C44 1_555 1_555
C30A C29A 1_555 1_555
C31A C30A 1_555 1_555
C32A C31A 1_555 1_555
C33A C32A 1_555 1_555
C34A C33A 1_555 1_555
C35A C34A 1_555 1_555
C36A C31A 1_555 1_555
C43A C44 1_555 1_555
C42A C43A 1_555 1_555
C37A C30A 1_555 1_555
C38A C37A 1_555 1_555
C39A C38A 1_555 1_555
C40A C39A 1_555 1_555
C41A C42A 1_555 1_555
C13 C14 1_555 1_555
C14 C15 1_555 1_555
C15 C16A 1_555 1_555
C41 C42 1_555 1_555
C42 C43 1_555 1_555
C43 C44A 1_555 1_555
C17A C1A 1_555 1_555
C7A C8A 1_555 1_555
C8A C15A 1_555 1_555
C14A C9A 1_555 1_555
C12A C13A 1_555 1_555
C45A C29A 1_555 1_555
C35A C36A 1_555 1_555
C36A C43A 1_555 1_555
C42A C37A 1_555 1_555
C40A C41A 1_555 1_555

#END
