
#######################################################################
#
#                 Cambridge Crystallographic Data Centre
#                                CCDC 
#
#######################################################################
#
# If this CIF has been generated from an entry in the Cambridge 
# Structural Database, then it will include bibliographic, chemical, 
# crystal, experimental, refinement or atomic coordinate data resulting 
# from the CCDC's data processing and validation procedures.
#
#######################################################################

data_QECHIR
_chemical_formula_moiety         'C29 H30 N2'
_chemical_name_systematic        3,6-Di-t-butyl-9-(quinolin-6-yl)-9H-carbazole
_symmetry_cell_setting           triclinic
_symmetry_space_group_name_H-M   'P -1'
_symmetry_Int_Tables_number      2
_space_group_name_Hall           '-P 1'
loop_
_symmetry_equiv_pos_site_id
_symmetry_equiv_pos_as_xyz
1 x,y,z
2 -x,-y,-z
_cell_length_a                   5.9140(12)
_cell_length_b                   13.133(3)
_cell_length_c                   16.285(3)
_cell_angle_alpha                69.30(3)
_cell_angle_beta                 83.28(3)
_cell_angle_gamma                79.11(3)
_cell_volume                     1160.13
_exptl_crystal_colour            colorless
_exptl_crystal_description       acicular
_cell_formula_units_Z            2
loop_
_atom_site_label
_atom_site_type_symbol
_atom_site_fract_x
_atom_site_fract_y
_atom_site_fract_z
N1 N 0.6826(3) 0.28889(14) 0.32604(12)
C1 C 0.6135(4) 0.20305(17) 0.30806(14)
N2 N 1.2433(3) 0.27066(16) 0.58530(13)
C2 C 0.6628(4) 0.08984(18) 0.34991(15)
H1 H 0.7574 0.0598 0.3972
C3 C 0.5675(4) 0.02372(18) 0.31929(15)
H2 H 0.6011 -0.0523 0.3466
C4 C 0.4209(4) 0.06508(17) 0.24845(14)
C5 C 0.3708(4) 0.17821(17) 0.20890(14)
H3 H 0.2732 0.2081 0.1625
C6 C 0.4661(4) 0.24780(16) 0.23841(13)
C7 C 0.4423(4) 0.36640(16) 0.21274(14)
C8 C 0.3217(4) 0.45393(17) 0.14801(14)
H4 H 0.2291 0.4396 0.1123
C9 C 0.3386(4) 0.56156(17) 0.13664(14)
C10 C 0.4805(4) 0.57927(18) 0.19202(15)
H5 H 0.4941 0.6515 0.1844
C11 C 0.6006(4) 0.49529(18) 0.25698(15)
H6 H 0.6935 0.5100 0.2924
C12 C 0.5782(4) 0.38803(17) 0.26771(14)
C13 C 0.3314(4) -0.01504(18) 0.21547(16)
C14 C 0.5381(5) -0.0732(2) 0.1730(2)
H7 H 0.6057 -0.0193 0.1245
H8 H 0.4863 -0.1243 0.1522
H9 H 0.6511 -0.1122 0.2158
C15 C 0.2244(5) -0.1018(2) 0.29260(19)
H10 H 0.0963 -0.0660 0.3196
H11 H 0.3380 -0.1413 0.3350
H12 H 0.1719 -0.1524 0.2714
C16 C 0.1486(5) 0.0432(2) 0.1483(2)
H13 H 0.2121 0.0976 0.0990
H14 H 0.0186 0.0784 0.1749
H15 H 0.1000 -0.0098 0.1287
C17 C 0.2100(4) 0.66163(17) 0.06702(14)
C18 C 0.0785(5) 0.6271(2) 0.00882(18)
H16 H 0.1842 0.5838 -0.0201
H17 H 0.0028 0.6915 -0.0344
H18 H -0.0346 0.5840 0.0443
C19 C 0.0372(5) 0.7300(2) 0.11289(18)
H19 H -0.0719 0.6854 0.1496
H20 H -0.0428 0.7927 0.0695
H21 H 0.1182 0.7546 0.1483
C20 C 0.3835(5) 0.7328(2) 0.00850(17)
H22 H 0.4914 0.6903 -0.0204
H23 H 0.4649 0.7573 0.0439
H24 H 0.3033 0.7957 -0.0348
C21 C 0.8180(4) 0.27973(17) 0.39558(14)
C22 C 0.7372(4) 0.33765(17) 0.45071(14)
H25 H 0.5888 0.3776 0.4455
C23 C 0.8755(4) 0.33782(16) 0.51539(14)
C24 C 0.8046(4) 0.39882(19) 0.57257(15)
H26 H 0.6586 0.4410 0.5694
C25 C 0.9498(5) 0.3956(2) 0.63199(16)
H27 H 0.9061 0.4359 0.6697
C26 C 1.1674(5) 0.3302(2) 0.63553(16)
H28 H 1.2655 0.3290 0.6766
C27 C 1.0984(4) 0.27437(17) 0.52467(14)
C28 C 1.1730(4) 0.2113(2) 0.46923(15)
H29 H 1.3166 0.1667 0.4763
C29 C 1.0385(4) 0.21466(19) 0.40572(15)
H30 H 1.0922 0.1739 0.3689
loop_
_geom_bond_atom_site_label_1
_geom_bond_atom_site_label_2
_geom_bond_site_symmetry_1
_geom_bond_site_symmetry_2
N1 C1 1_555 1_555
C1 C2 1_555 1_555
N2 C26 1_555 1_555
C2 H1 1_555 1_555
C3 C2 1_555 1_555
H2 C3 1_555 1_555
C4 C3 1_555 1_555
C5 C4 1_555 1_555
H3 C5 1_555 1_555
C6 C1 1_555 1_555
C7 C6 1_555 1_555
C8 C7 1_555 1_555
H4 C8 1_555 1_555
C9 C8 1_555 1_555
C10 C9 1_555 1_555
H5 C10 1_555 1_555
C11 C10 1_555 1_555
H6 C11 1_555 1_555
C12 N1 1_555 1_555
C13 C4 1_555 1_555
C14 C13 1_555 1_555
H7 C14 1_555 1_555
H8 C14 1_555 1_555
H9 C14 1_555 1_555
C15 C13 1_555 1_555
H10 C15 1_555 1_555
H11 C15 1_555 1_555
H12 C15 1_555 1_555
C16 C13 1_555 1_555
H13 C16 1_555 1_555
H14 C16 1_555 1_555
H15 C16 1_555 1_555
C17 C9 1_555 1_555
C18 C17 1_555 1_555
H16 C18 1_555 1_555
H17 C18 1_555 1_555
H18 C18 1_555 1_555
C19 C17 1_555 1_555
H19 C19 1_555 1_555
H20 C19 1_555 1_555
H21 C19 1_555 1_555
C20 C17 1_555 1_555
H22 C20 1_555 1_555
H23 C20 1_555 1_555
H24 C20 1_555 1_555
C21 N1 1_555 1_555
C22 C21 1_555 1_555
H25 C22 1_555 1_555
C23 C22 1_555 1_555
C24 C23 1_555 1_555
H26 C24 1_555 1_555
C25 C24 1_555 1_555
H27 C25 1_555 1_555
C26 C25 1_555 1_555
H28 C26 1_555 1_555
C27 N2 1_555 1_555
C28 C27 1_555 1_555
H29 C28 1_555 1_555
C29 C21 1_555 1_555
H30 C29 1_555 1_555
C5 C6 1_555 1_555
C7 C12 1_555 1_555
C11 C12 1_555 1_555
C23 C27 1_555 1_555
C28 C29 1_555 1_555

#END
