
#######################################################################
#
#                 Cambridge Crystallographic Data Centre
#                                CCDC 
#
#######################################################################
#
# If this CIF has been generated from an entry in the Cambridge 
# Structural Database, then it will include bibliographic, chemical, 
# crystal, experimental, refinement or atomic coordinate data resulting 
# from the CCDC's data processing and validation procedures.
#
#######################################################################

data_QECNUK
_chemical_formula_moiety         'C4 H2 N8'
_chemical_name_systematic        5-amino-3-azido-1,2,4-triazine-6-carbonitrile
_symmetry_cell_setting           monoclinic
_symmetry_space_group_name_H-M   'P 21/c'
_symmetry_Int_Tables_number      14
_space_group_name_Hall           '-P 2ybc'
loop_
_symmetry_equiv_pos_site_id
_symmetry_equiv_pos_as_xyz
1 x,y,z
2 -x,1/2+y,1/2-z
3 -x,-y,-z
4 x,1/2-y,1/2+z
_cell_length_a                   7.814(2)
_cell_length_b                   11.758(3)
_cell_length_c                   15.119(4)
_cell_angle_alpha                90
_cell_angle_beta                 102.668(6)
_cell_angle_gamma                90
_cell_volume                     1355.27
_exptl_crystal_colour            colorless
_exptl_crystal_description       needle
_cell_formula_units_Z            8
loop_
_atom_site_label
_atom_site_type_symbol
_atom_site_fract_x
_atom_site_fract_y
_atom_site_fract_z
N1 N 0.00949(16) 0.61343(9) 0.74059(9)
N2 N -0.09254(17) 0.40625(10) 0.79869(9)
N3 N -0.06855(17) 0.70436(10) 0.85927(9)
H1 H -0.0360 0.7692 0.8390
H2 H -0.1105 0.7031 0.9087
N4 N -0.02684(18) 0.41155(10) 0.72431(9)
N5 N 0.13085(18) 0.60586(12) 0.59703(10)
N6 N -0.23664(18) 0.48675(11) 0.98559(10)
N7 N 0.0831(2) 0.51030(11) 0.62083(10)
C1 C -0.05461(18) 0.60924(11) 0.81560(10)
C2 C -0.10762(19) 0.50050(11) 0.84365(10)
N8 N 0.1774(2) 0.68413(14) 0.56865(11)
C3 C 0.01921(19) 0.51496(12) 0.69973(10)
C4 C -0.1802(2) 0.49008(12) 0.92213(11)
N9 N 0.51284(16) 0.63735(9) 0.26259(9)
N10 N 0.62481(16) 0.54270(10) 0.15606(9)
H3 H 0.6027 0.4779 0.1804
H4 H 0.6730 0.5428 0.1086
N11 N 0.57246(17) 0.84461(10) 0.18891(10)
N12 N 0.49609(18) 0.84099(10) 0.25924(10)
N13 N 0.39454(19) 0.74396(11) 0.36629(10)
N14 N 0.37786(18) 0.64806(12) 0.40102(9)
N15 N 0.7668(2) 0.76054(12) 0.01958(11)
C5 C 0.58581(17) 0.63965(11) 0.19060(10)
N16 N 0.3548(2) 0.56992(14) 0.43836(11)
C6 C 0.61733(19) 0.74856(12) 0.15476(10)
C7 C 0.47203(19) 0.73735(12) 0.29215(11)
C8 C 0.7013(2) 0.75800(12) 0.07997(11)
loop_
_geom_bond_atom_site_label_1
_geom_bond_atom_site_label_2
_geom_bond_site_symmetry_1
_geom_bond_site_symmetry_2
N1 C1 1_555 1_555
N2 N4 1_555 1_555
N3 H1 1_555 1_555
H2 N3 1_555 1_555
N4 C3 1_555 1_555
N5 N7 1_555 1_555
N6 C4 1_555 1_555
N7 C3 1_555 1_555
C1 N3 1_555 1_555
C2 N2 1_555 1_555
N8 N5 1_555 1_555
C3 N1 1_555 1_555
C4 C2 1_555 1_555
N9 C5 1_555 1_555
N10 H3 1_555 1_555
H4 N10 1_555 1_555
N11 N12 1_555 1_555
N12 C7 1_555 1_555
N13 N14 1_555 1_555
N14 N16 1_555 1_555
N15 C8 1_555 1_555
C5 N10 1_555 1_555
C6 N11 1_555 1_555
C7 N9 1_555 1_555
C8 C6 1_555 1_555
C1 C2 1_555 1_555
N13 C7 1_555 1_555
C5 C6 1_555 1_555

#END
