
#######################################################################
#
#                 Cambridge Crystallographic Data Centre
#                                CCDC 
#
#######################################################################
#
# If this CIF has been generated from an entry in the Cambridge 
# Structural Database, then it will include bibliographic, chemical, 
# crystal, experimental, refinement or atomic coordinate data resulting 
# from the CCDC's data processing and validation procedures.
#
#######################################################################

data_QECPOF
_chemical_name_common            
"N,N-Dimethyl-N',N''-bis(2-methylphenyl)phosphoric triamide hydrate"
_chemical_formula_moiety         'C16 H22 N3 O1 P1,H2 O1'
_chemical_name_systematic        
"N,N-Dimethyl-N',N''-bis(2-methylphenyl)phosphorictriamide monohydrate"
_symmetry_cell_setting           monoclinic
_symmetry_space_group_name_H-M   'P 21/n'
_symmetry_Int_Tables_number      14
_space_group_name_Hall           '-P 2yn'
loop_
_symmetry_equiv_pos_site_id
_symmetry_equiv_pos_as_xyz
1 x,y,z
2 1/2-x,1/2+y,1/2-z
3 -x,-y,-z
4 1/2+x,1/2-y,1/2+z
_cell_length_a                   10.7058(16)
_cell_length_b                   7.2541(11)
_cell_length_c                   22.091(3)
_cell_angle_alpha                90
_cell_angle_beta                 90.971(2)
_cell_angle_gamma                90
_cell_volume                     1715.36
_exptl_crystal_colour            colorless
_exptl_crystal_description       block
_cell_formula_units_Z            4
loop_
_atom_site_label
_atom_site_type_symbol
_atom_site_fract_x
_atom_site_fract_y
_atom_site_fract_z
P1 P 0.30253(4) 0.63760(6) 0.045212(19)
N1 N 0.31522(13) 0.49375(19) -0.01239(6)
H3 H 0.3457(17) 0.385(2) -0.0046(8)
O2 O 0.35590(11) 0.82247(16) 0.03322(5)
N2 N 0.15544(13) 0.6646(2) 0.06265(7)
C1 C 0.39835(17) 0.6608(3) 0.28289(8)
H4 H 0.4026 0.6910 0.3247
C2 C 0.35064(16) 0.7858(3) 0.24143(8)
H5 H 0.3230 0.9034 0.2545
C3 C 0.34322(16) 0.7391(2) 0.18036(8)
H6 H 0.3109 0.8255 0.1518
C4 C 0.38270(15) 0.5666(2) 0.16075(7)
N3 N 0.37225(13) 0.5161(2) 0.09875(6)
H7 H 0.4025(17) 0.411(2) 0.0871(8)
C5 C 0.26974(15) 0.5277(2) -0.07211(7)
C6 C 0.27217(15) 0.3843(2) -0.11509(8)
C7 C 0.22525(16) 0.4208(3) -0.17281(8)
H8 H 0.2260 0.3251 -0.2022
C8 C 0.17722(16) 0.5919(3) -0.18920(8)
H9 H 0.1445 0.6125 -0.2289
C9 C 0.08215(18) 0.5071(3) 0.08193(10)
H10 H 0.0604 0.5220 0.1246
H11 H 0.1311 0.3941 0.0771
H12 H 0.0055 0.4992 0.0572
C10 C 0.09013(19) 0.8401(3) 0.06091(9)
H13 H 0.0206 0.8333 0.0316
H14 H 0.1480 0.9376 0.0488
H15 H 0.0578 0.8679 0.1011
C11 C 0.22373(16) 0.7000(2) -0.08851(8)
H16 H 0.2236 0.7970 -0.0596
C12 C 0.17799(16) 0.7313(3) -0.14671(8)
H17 H 0.1469 0.8498 -0.1574
C13 C 0.32410(18) 0.1973(3) -0.09952(8)
H18 H 0.3166 0.1163 -0.1349
H19 H 0.2773 0.1445 -0.0660
H20 H 0.4123 0.2091 -0.0876
C14 C 0.43306(15) 0.4396(2) 0.20245(8)
C15 C 0.47558(18) 0.2518(3) 0.18325(8)
H21 H 0.5079 0.1843 0.2186
H22 H 0.5417 0.2642 0.1534
H23 H 0.4049 0.1843 0.1652
C16 C 0.43986(16) 0.4911(3) 0.26294(8)
H24 H 0.4742 0.4069 0.2916
O1 O 0.43897(12) 0.18044(16) 0.04084(6)
H1 H 0.5043(15) 0.175(3) 0.0196(8)
H2 H 0.4105(16) 0.072(2) 0.0412(8)
loop_
_geom_bond_atom_site_label_1
_geom_bond_atom_site_label_2
_geom_bond_site_symmetry_1
_geom_bond_site_symmetry_2
P1 N1 1_555 1_555
O1 H1 1_555 1_555
H2 O1 1_555 1_555
N1 H3 1_555 1_555
O2 P1 1_555 1_555
N2 P1 1_555 1_555
C1 H4 1_555 1_555
C2 C1 1_555 1_555
H5 C2 1_555 1_555
C3 C2 1_555 1_555
H6 C3 1_555 1_555
C4 C3 1_555 1_555
N3 P1 1_555 1_555
H7 N3 1_555 1_555
C5 N1 1_555 1_555
C6 C5 1_555 1_555
C7 C6 1_555 1_555
H8 C7 1_555 1_555
C8 C7 1_555 1_555
H9 C8 1_555 1_555
C9 N2 1_555 1_555
H10 C9 1_555 1_555
H11 C9 1_555 1_555
H12 C9 1_555 1_555
C10 N2 1_555 1_555
H13 C10 1_555 1_555
H14 C10 1_555 1_555
H15 C10 1_555 1_555
C11 C5 1_555 1_555
H16 C11 1_555 1_555
C12 C8 1_555 1_555
H17 C12 1_555 1_555
C13 C6 1_555 1_555
H18 C13 1_555 1_555
H19 C13 1_555 1_555
H20 C13 1_555 1_555
C14 C4 1_555 1_555
C15 C14 1_555 1_555
H21 C15 1_555 1_555
H22 C15 1_555 1_555
H23 C15 1_555 1_555
C16 C1 1_555 1_555
H24 C16 1_555 1_555
C4 N3 1_555 1_555
C11 C12 1_555 1_555
C14 C16 1_555 1_555

#END
