
#######################################################################
#
#                 Cambridge Crystallographic Data Centre
#                                CCDC 
#
#######################################################################
#
# If this CIF has been generated from an entry in the Cambridge 
# Structural Database, then it will include bibliographic, chemical, 
# crystal, experimental, refinement or atomic coordinate data resulting 
# from the CCDC's data processing and validation procedures.
#
#######################################################################

data_QECPEW
_chemical_formula_moiety         'C4 H3 Cl1 N8 O1,C1 H4 O1'
_chemical_name_systematic        
'7-amino-N-hydroxytetrazolo[1,5-b][1,2,4]triazine-6-carboximidoyl chloride methanol solvate'
_symmetry_cell_setting           monoclinic
_symmetry_space_group_name_H-M   'P 21/n'
_symmetry_Int_Tables_number      14
_space_group_name_Hall           '-P 2yn'
loop_
_symmetry_equiv_pos_site_id
_symmetry_equiv_pos_as_xyz
1 x,y,z
2 1/2-x,1/2+y,1/2-z
3 -x,-y,-z
4 1/2+x,1/2-y,1/2+z
_cell_length_a                   5.3551(7)
_cell_length_b                   13.6470(15)
_cell_length_c                   12.9077(18)
_cell_angle_alpha                90
_cell_angle_beta                 94.254(5)
_cell_angle_gamma                90
_cell_volume                     940.709
_exptl_crystal_description       block
_cell_formula_units_Z            4
loop_
_atom_site_label
_atom_site_type_symbol
_atom_site_fract_x
_atom_site_fract_y
_atom_site_fract_z
C1 C 0.4884(7) 0.2173(3) 0.1770(3)
C2 C 0.3534(7) 0.0655(3) 0.2154(3)
C3 C 0.5514(7) 0.0255(3) 0.1519(3)
C4 C 0.5895(7) -0.0801(3) 0.1367(3)
Cl1 Cl 0.82490(18) -0.11503(7) 0.05985(8)
N1 N 0.5101(6) 0.3140(2) 0.1730(2)
N2 N 0.7057(6) 0.3295(2) 0.1126(3)
N3 N 0.8059(6) 0.2502(2) 0.0806(2)
N4 N 0.6665(6) 0.1779(2) 0.1217(2)
N5 N 0.3254(6) 0.1620(2) 0.2264(2)
N6 N 0.7049(6) 0.0818(2) 0.1064(2)
N7 N 0.2021(6) 0.0074(2) 0.2622(3)
H1 H 0.211(7) -0.059(3) 0.258(3)
H2 H 0.098(7) 0.034(3) 0.303(3)
N8 N 0.4515(6) -0.1414(2) 0.1802(2)
O1 O 0.5057(5) -0.23736(18) 0.1613(2)
H3 H 0.401(7) -0.269(3) 0.194(3)
C5 C 0.6623(8) 0.0995(3) 0.4513(3)
H4 H 0.7203 0.0778 0.5214
H5 H 0.4798 0.0928 0.4418
H6 H 0.7086 0.1683 0.4423
O2 O 0.7758(5) 0.04078(18) 0.3766(2)
H7 H 0.758(8) -0.0164(16) 0.392(3)
loop_
_geom_bond_atom_site_label_1
_geom_bond_atom_site_label_2
_geom_bond_site_symmetry_1
_geom_bond_site_symmetry_2
C1 N1 1_555 1_555
C2 C3 1_555 1_555
C3 C4 1_555 1_555
C4 Cl1 1_555 1_555
N1 N2 1_555 1_555
N2 N3 1_555 1_555
N3 N4 1_555 1_555
N4 C1 1_555 1_555
N5 C1 1_555 1_555
N6 C3 1_555 1_555
N7 C2 1_555 1_555
H1 N7 1_555 1_555
H2 N7 1_555 1_555
N8 C4 1_555 1_555
O1 N8 1_555 1_555
H3 O1 1_555 1_555
C5 H4 1_555 1_555
H5 C5 1_555 1_555
H6 C5 1_555 1_555
O2 C5 1_555 1_555
H7 O2 1_555 1_555
C2 N5 1_555 1_555
N4 N6 1_555 1_555

#END
