
#######################################################################
#
#                 Cambridge Crystallographic Data Centre
#                                CCDC 
#
#######################################################################
#
# If this CIF has been generated from an entry in the Cambridge 
# Structural Database, then it will include bibliographic, chemical, 
# crystal, experimental, refinement or atomic coordinate data resulting 
# from the CCDC's data processing and validation procedures.
#
#######################################################################

data_QECPAS
_chemical_formula_moiety         'C4 H5 N9 O1'
_chemical_name_systematic        
7-amino-N'-hydroxytetrazolo[1,5-b][1,2,4]triazine-6-carboximidamide
_symmetry_cell_setting           monoclinic
_symmetry_space_group_name_H-M   'P 21/n'
_symmetry_Int_Tables_number      14
_space_group_name_Hall           '-P 2yn'
loop_
_symmetry_equiv_pos_site_id
_symmetry_equiv_pos_as_xyz
1 x,y,z
2 1/2-x,1/2+y,1/2-z
3 -x,-y,-z
4 1/2+x,1/2-y,1/2+z
_cell_length_a                   10.653(2)
_cell_length_b                   5.9702(12)
_cell_length_c                   12.223(3)
_cell_angle_alpha                90
_cell_angle_beta                 105.589(4)
_cell_angle_gamma                90
_cell_volume                     748.792
_exptl_crystal_colour            colorless
_exptl_crystal_description       block
_cell_formula_units_Z            4
loop_
_atom_site_label
_atom_site_type_symbol
_atom_site_fract_x
_atom_site_fract_y
_atom_site_fract_z
O1 O 0.09739(16) 0.5488(2) 0.68621(13)
H1 H 0.0671 0.6591 0.7117
N1 N 0.43843(14) 0.7477(2) 0.42131(12)
N2 N 0.34827(14) 0.4146(2) 0.33074(12)
N3 N 0.27315(14) 0.3641(2) 0.39941(13)
N4 N 0.48481(15) 0.5831(3) 0.25661(13)
N5 N 0.36705(16) 0.8628(3) 0.57117(13)
H2 H 0.4192 0.9774 0.5786
H3 H 0.3182 0.8458 0.6173
N6 N 0.35557(16) 0.2880(3) 0.24012(13)
N7 N 0.43723(16) 0.3938(3) 0.19716(13)
N8 N 0.17936(16) 0.6215(3) 0.62103(14)
N9 N 0.13967(17) 0.2577(3) 0.54842(15)
H4 H 0.0906 0.2238 0.5925
H5 H 0.1539 0.1591 0.5007
C1 C 0.36209(17) 0.7155(3) 0.49016(15)
C2 C 0.27717(16) 0.5144(3) 0.47785(14)
C3 C 0.42647(17) 0.5947(3) 0.33950(15)
C4 C 0.19378(18) 0.4633(3) 0.55397(15)
loop_
_geom_bond_atom_site_label_1
_geom_bond_atom_site_label_2
_geom_bond_site_symmetry_1
_geom_bond_site_symmetry_2
O1 H1 1_555 1_555
N1 C1 1_555 1_555
N2 N3 1_555 1_555
N3 C2 1_555 1_555
N4 N7 1_555 1_555
N5 H2 1_555 1_555
H3 N5 1_555 1_555
N6 N2 1_555 1_555
N7 N6 1_555 1_555
N8 O1 1_555 1_555
N9 H4 1_555 1_555
H5 N9 1_555 1_555
C1 N5 1_555 1_555
C2 C1 1_555 1_555
C3 N1 1_555 1_555
C4 N8 1_555 1_555
N2 C3 1_555 1_555
N4 C3 1_555 1_555
N9 C4 1_555 1_555
C2 C4 1_555 1_555

#END
