
#######################################################################
#
#                 Cambridge Crystallographic Data Centre
#                                CCDC 
#
#######################################################################
#
# If this CIF has been generated from an entry in the Cambridge 
# Structural Database, then it will include bibliographic, chemical, 
# crystal, experimental, refinement or atomic coordinate data resulting 
# from the CCDC's data processing and validation procedures.
#
#######################################################################

data_QECQAT
_chemical_formula_moiety         'C4 H2 N9 O4 1-,H4 N1 1+,H2 O1'
_chemical_name_systematic        
'ammonium (7-aminotetrazolo[1,5-b][1,2,4]triazin-6-yl)(dinitro)methanide monohydrate'
_symmetry_cell_setting           monoclinic
_symmetry_space_group_name_H-M   'P 21/n'
_symmetry_Int_Tables_number      14
_space_group_name_Hall           '-P 2yn'
loop_
_symmetry_equiv_pos_site_id
_symmetry_equiv_pos_as_xyz
1 x,y,z
2 1/2-x,1/2+y,1/2-z
3 -x,-y,-z
4 1/2+x,1/2-y,1/2+z
_cell_length_a                   9.5372(10)
_cell_length_b                   6.6806(7)
_cell_length_c                   17.0341(18)
_cell_angle_alpha                90
_cell_angle_beta                 104.325(4)
_cell_angle_gamma                90
_cell_volume                     1051.57
_exptl_crystal_description       block
_cell_formula_units_Z            4
loop_
_atom_site_label
_atom_site_type_symbol
_atom_site_fract_x
_atom_site_fract_y
_atom_site_fract_z
C1 C 0.5613(3) -0.1044(4) 0.67651(17)
C2 C 0.6894(3) -0.1216(4) 0.58226(16)
C3 C 0.7954(3) 0.0171(4) 0.63194(16)
C4 C 0.9200(3) 0.0877(4) 0.60311(16)
N1 N 0.4613(2) -0.1323(3) 0.71721(14)
N2 N 0.5088(2) -0.0294(3) 0.78791(14)
N3 N 0.6313(2) 0.0612(4) 0.79305(14)
N4 N 0.6655(2) 0.0141(3) 0.72245(13)
N5 N 0.5708(2) -0.1773(3) 0.60455(14)
N6 N 0.7839(2) 0.0839(3) 0.70170(13)
N7 N 0.7113(3) -0.1916(4) 0.51397(15)
H1 H 0.791(3) -0.172(4) 0.5001(18)
H2 H 0.639(3) -0.264(4) 0.4821(17)
N8 N 0.8930(2) 0.2147(3) 0.53822(14)
N9 N 1.0599(2) 0.0341(3) 0.64426(14)
O1 O 0.9847(2) 0.2652(3) 0.50127(12)
O2 O 0.76295(19) 0.2751(3) 0.51376(11)
O3 O 1.1677(2) 0.1098(3) 0.62718(13)
O4 O 1.0713(2) -0.0913(3) 0.69953(12)
N10 N 0.2433(2) 0.5635(3) 0.64736(14)
H3 H 0.226(2) 0.588(3) 0.5945(10)
H4 H 0.1589(19) 0.552(3) 0.6615(13)
H5 H 0.292(2) 0.666(3) 0.6749(12)
H6 H 0.294(2) 0.451(3) 0.6600(13)
O5 O 0.0275(2) 0.1114(3) 0.09273(14)
H7 H 0.032(3) -0.011(3) 0.094(2)
H8 H 0.097(3) 0.144(5) 0.0766(19)
loop_
_geom_bond_atom_site_label_1
_geom_bond_atom_site_label_2
_geom_bond_site_symmetry_1
_geom_bond_site_symmetry_2
C1 N1 1_555 1_555
C2 C3 1_555 1_555
C3 C4 1_555 1_555
C4 N8 1_555 1_555
N1 N2 1_555 1_555
N2 N3 1_555 1_555
N3 N4 1_555 1_555
N4 C1 1_555 1_555
N5 C1 1_555 1_555
N6 C3 1_555 1_555
N7 C2 1_555 1_555
H1 N7 1_555 1_555
H2 N7 1_555 1_555
N8 O1 1_555 1_555
N9 C4 1_555 1_555
O2 N8 1_555 1_555
O3 N9 1_555 1_555
O4 N9 1_555 1_555
N10 H3 1_555 1_555
H4 N10 1_555 1_555
H5 N10 1_555 1_555
H6 N10 1_555 1_555
O5 H7 1_555 1_555
H8 O5 1_555 1_555
C2 N5 1_555 1_555
N4 N6 1_555 1_555

#END
