
#######################################################################
#
#                 Cambridge Crystallographic Data Centre
#                                CCDC 
#
#######################################################################
#
# If this CIF has been generated from an entry in the Cambridge 
# Structural Database, then it will include bibliographic, chemical, 
# crystal, experimental, refinement or atomic coordinate data resulting 
# from the CCDC's data processing and validation procedures.
#
#######################################################################

data_QECTEZ
_chemical_name_common            
'2-((15-Methoxy-15-oxopodocarpa-8(14),9(11),12-trien-12-yl)amino)-3,5-dinitrobenzoic acid ethyl acetate solvate'
_chemical_formula_moiety         'C25 H27 N3 O8,C4 H8 O2'
_chemical_name_systematic        
'2-[(8-Methoxycarbonyl-4b,8-dimethyl-4b,5,6,7,8,8a,9,10-octahydrophenanthren-3-yl)amino]-3,5-dinitrobenzoic acid ethyl acetate solvate'
_symmetry_cell_setting           monoclinic
_symmetry_space_group_name_H-M   'P 21'
_symmetry_Int_Tables_number      4
_space_group_name_Hall           'P 2yb'
loop_
_symmetry_equiv_pos_site_id
_symmetry_equiv_pos_as_xyz
1 x,y,z
2 -x,1/2+y,-z
_cell_length_a                   7.649(4)
_cell_length_b                   13.591(8)
_cell_length_c                   14.399(8)
_cell_angle_alpha                90
_cell_angle_beta                 101.371(7)
_cell_angle_gamma                90
_cell_volume                     1467.5
_exptl_crystal_colour            orange
_exptl_crystal_description       block
_cell_formula_units_Z            2
loop_
_atom_site_label
_atom_site_type_symbol
_atom_site_fract_x
_atom_site_fract_y
_atom_site_fract_z
N1 N 0.4541(2) 0.20663(15) 1.11523(11)
H1 H 0.4165 0.2369 1.1599
N2 N 1.1161(3) 0.01668(16) 1.21945(16)
N3 N 0.6957(2) 0.1904(2) 0.98090(13)
O1 O 0.1533(2) -0.19460(12) 0.64103(12)
O2 O 0.2245(2) -0.05029(12) 0.58598(11)
O3 O 1.1580(3) -0.01462(18) 1.30023(15)
O4 O 1.2085(3) 0.00787(19) 1.16010(15)
O5 O 0.6401(2) 0.10646(14) 1.39061(11)
H2 H 0.5829 0.1229 1.4306
O6 O 0.4375(2) 0.19827(14) 1.29741(10)
O7 O 0.6592(3) 0.27809(18) 0.97449(14)
O8 O 0.7103(3) 0.13644(19) 0.91429(12)
C1 C 0.8417(3) 0.08358(16) 1.25915(15)
H3 H 0.8824 0.0633 1.3214
C2 C 0.9446(3) 0.06669(17) 1.19241(16)
C3 C 0.8917(3) 0.09838(17) 1.10043(16)
H4 H 0.9632 0.0879 1.0561
C4 C 0.7316(3) 0.14554(17) 1.07577(13)
C5 C 0.6150(3) 0.16232(16) 1.13960(13)
C6 C 0.6781(3) 0.13053(16) 1.23462(13)
C7 C 0.5720(3) 0.14879(17) 1.30933(14)
C8 C 0.3398(3) 0.20904(16) 1.02443(13)
C9 C 0.2480(3) 0.29477(18) 0.99475(16)
H5 H 0.2679 0.3517 1.0311
C10 C 0.1267(3) 0.29411(17) 0.91050(16)
H6 H 0.0614 0.3509 0.8917
C11 C 0.0978(2) 0.21138(16) 0.85216(14)
C12 C 0.1923(2) 0.12511(15) 0.88017(13)
C13 C 0.3113(3) 0.12563(16) 0.96844(13)
H7 H 0.3724 0.0682 0.9896
C14 C -0.0350(3) 0.21756(17) 0.76050(15)
H8 H 0.0206 0.2489 0.7132
H9 H -0.1345 0.2583 0.7695
C15 C -0.1040(3) 0.11764(17) 0.72472(15)
H10 H -0.1768 0.1243 0.6618
H11 H -0.1785 0.0911 0.7660
C16 C 0.0500(2) 0.04646(15) 0.72138(13)
H12 H 0.1279 0.0787 0.6842
C17 C 0.1646(3) 0.02907(14) 0.82312(13)
C18 C 0.0684(3) -0.04380(18) 0.87898(15)
H13 H 0.1465 -0.0589 0.9389
H14 H -0.0375 -0.0124 0.8927
C19 C 0.0150(4) -0.13884(19) 0.82600(18)
H15 H -0.0472 -0.1808 0.8633
H16 H 0.1209 -0.1733 0.8162
C20 C -0.1057(3) -0.11764(19) 0.73048(18)
H17 H -0.2146 -0.0869 0.7409
H18 H -0.1377 -0.1793 0.6976
C21 C -0.0177(3) -0.05074(16) 0.66828(14)
C22 C -0.1505(3) -0.0292(2) 0.57444(17)
H19 H -0.1035 0.0220 0.5405
H20 H -0.2626 -0.0086 0.5883
H21 H -0.1677 -0.0878 0.5364
C23 C 0.1299(3) -0.10728(17) 0.63367(14)
C24 C 0.3485(3) -0.01273(18) 0.81485(15)
H22 H 0.4068 0.0322 0.7794
H23 H 0.3330 -0.0751 0.7829
H24 H 0.4200 -0.0213 0.8770
C25 C 0.3532(4) -0.1005(2) 0.5418(2)
H25 H 0.4443 -0.1289 0.5897
H26 H 0.4062 -0.0545 0.5050
H27 H 0.2946 -0.1517 0.5012
O9 O 0.3165(2) 0.24418(17) 0.61251(13)
O10 O 0.4987(2) 0.16498(16) 0.53723(12)
C26 C 0.4227(5) 0.3569(3) 0.7347(3)
H28 H 0.4138 0.4133 0.6939
H29 H 0.5131 0.3683 0.7901
H30 H 0.3103 0.3460 0.7531
C27 C 0.4685(4) 0.2728(3) 0.6858(2)
H31 H 0.5012 0.2190 0.7300
H32 H 0.5701 0.2878 0.6572
C28 C 0.3494(3) 0.19013(19) 0.54227(16)
C29 C 0.1866(4) 0.1646(2) 0.47246(19)
H33 H 0.1995 0.1859 0.4106
H34 H 0.0855 0.1966 0.4894
H35 H 0.1693 0.0946 0.4721
loop_
_geom_bond_atom_site_label_1
_geom_bond_atom_site_label_2
_geom_bond_site_symmetry_1
_geom_bond_site_symmetry_2
N1 H1 1_555 1_555
N2 O3 1_555 1_555
N3 O7 1_555 1_555
O1 C23 1_555 1_555
O2 C23 1_555 1_555
O4 N2 1_555 1_555
O5 H2 1_555 1_555
O6 C7 1_555 1_555
O8 N3 1_555 1_555
O9 C27 1_555 1_555
O10 C28 1_555 1_555
C1 H3 1_555 1_555
C2 N2 1_555 1_555
C3 C2 1_555 1_555
H4 C3 1_555 1_555
C4 N3 1_555 1_555
C5 N1 1_555 1_555
C6 C1 1_555 1_555
C7 O5 1_555 1_555
C8 N1 1_555 1_555
C9 C8 1_555 1_555
H5 C9 1_555 1_555
C10 C9 1_555 1_555
H6 C10 1_555 1_555
C11 C10 1_555 1_555
C12 C11 1_555 1_555
C13 C8 1_555 1_555
H7 C13 1_555 1_555
C14 C11 1_555 1_555
H8 C14 1_555 1_555
H9 C14 1_555 1_555
C15 C14 1_555 1_555
H10 C15 1_555 1_555
H11 C15 1_555 1_555
C16 C15 1_555 1_555
H12 C16 1_555 1_555
C17 C12 1_555 1_555
C18 C17 1_555 1_555
H13 C18 1_555 1_555
H14 C18 1_555 1_555
C19 C18 1_555 1_555
H15 C19 1_555 1_555
H16 C19 1_555 1_555
C20 C19 1_555 1_555
H17 C20 1_555 1_555
H18 C20 1_555 1_555
C21 C16 1_555 1_555
C22 C21 1_555 1_555
H19 C22 1_555 1_555
H20 C22 1_555 1_555
H21 C22 1_555 1_555
C23 C21 1_555 1_555
C24 C17 1_555 1_555
H22 C24 1_555 1_555
H23 C24 1_555 1_555
H24 C24 1_555 1_555
C25 O2 1_555 1_555
H25 C25 1_555 1_555
H26 C25 1_555 1_555
H27 C25 1_555 1_555
C26 H28 1_555 1_555
H29 C26 1_555 1_555
H30 C26 1_555 1_555
C27 C26 1_555 1_555
H31 C27 1_555 1_555
H32 C27 1_555 1_555
C28 O9 1_555 1_555
C29 C28 1_555 1_555
H33 C29 1_555 1_555
H34 C29 1_555 1_555
H35 C29 1_555 1_555
C1 C2 1_555 1_555
C3 C4 1_555 1_555
C4 C5 1_555 1_555
C5 C6 1_555 1_555
C6 C7 1_555 1_555
C12 C13 1_555 1_555
C16 C17 1_555 1_555
C20 C21 1_555 1_555

#END
