
#######################################################################
#
#                 Cambridge Crystallographic Data Centre
#                                CCDC 
#
#######################################################################
#
# If this CIF has been generated from an entry in the Cambridge 
# Structural Database, then it will include bibliographic, chemical, 
# crystal, experimental, refinement or atomic coordinate data resulting 
# from the CCDC's data processing and validation procedures.
#
#######################################################################

data_QECTAW
_chemical_formula_moiety         'C29 H35 N2 P1'
_chemical_name_systematic        
5-[(2,4,6-tri-t-butylphenyl)phosphanylidene]-5H-cyclopenta[1,2-b:5,4-b']dipyridine
_symmetry_cell_setting           orthorhombic
_symmetry_space_group_name_H-M   'P c a 21'
_symmetry_Int_Tables_number      29
_space_group_name_Hall           'P 2c -2ac'
loop_
_symmetry_equiv_pos_site_id
_symmetry_equiv_pos_as_xyz
1 x,y,z
2 -x,-y,1/2+z
3 1/2+x,-y,z
4 1/2-x,y,1/2+z
_cell_length_a                   18.0600(7)
_cell_length_b                   17.8258(8)
_cell_length_c                   15.9133(7)
_cell_angle_alpha                90
_cell_angle_beta                 90
_cell_angle_gamma                90
_cell_volume                     5123.03
_exptl_crystal_colour            yellow
_exptl_crystal_description       block
_cell_formula_units_Z            8
loop_
_atom_site_label
_atom_site_type_symbol
_atom_site_fract_x
_atom_site_fract_y
_atom_site_fract_z
P1 P 0.16912(4) 0.64413(4) 0.69198(5)
N1 N 0.45616(13) 0.60628(14) 0.64713(18)
N2 N 0.43001(14) 0.75164(14) 0.74456(17)
C1 C 0.26251(13) 0.64891(14) 0.68829(18)
C2 C 0.32161(14) 0.59986(15) 0.65371(17)
C3 C 0.39085(15) 0.63389(15) 0.66972(18)
C4 C 0.37847(15) 0.70418(15) 0.71558(19)
C5 C 0.30130(15) 0.71332(15) 0.72547(18)
C6 C 0.27621(16) 0.77670(15) 0.76683(19)
H1 H 0.2248 0.7855 0.7748
C7 C 0.32869(17) 0.82669(16) 0.7962(2)
H2 H 0.3138 0.8713 0.8242
C8 C 0.40309(19) 0.81143(17) 0.7845(2)
H3 H 0.4377 0.8463 0.8067
C9 C 0.32076(15) 0.53304(15) 0.61015(19)
H4 H 0.2755 0.5080 0.5981
C10 C 0.38841(17) 0.50348(16) 0.5843(2)
H5 H 0.3904 0.4580 0.5532
C11 C 0.45299(16) 0.54169(17) 0.6049(2)
H6 H 0.4986 0.5201 0.5875
C12 C 0.14683(14) 0.55380(15) 0.6416(2)
C13 C 0.14174(14) 0.48770(15) 0.6909(2)
C14 C 0.14121(14) 0.41894(16) 0.6505(2)
H7 H 0.1393 0.3745 0.6834
C15 C 0.14339(14) 0.41259(15) 0.5627(2)
C16 C 0.14087(14) 0.47828(15) 0.5171(2)
H8 H 0.1398 0.4746 0.4576
C17 C 0.13975(14) 0.54925(15) 0.5525(2)
C18 C 0.12817(15) 0.61705(15) 0.49344(19)
C19 C 0.06867(19) 0.67019(19) 0.5291(2)
H9 H 0.0226 0.6423 0.5379
H10 H 0.0599 0.7112 0.4893
H11 H 0.0857 0.6909 0.5828
C20 C 0.09986(18) 0.59346(18) 0.4063(2)
H12 H 0.1384 0.5647 0.3772
H13 H 0.0877 0.6383 0.3734
H14 H 0.0555 0.5623 0.4127
C21 C 0.20032(17) 0.66141(17) 0.4787(2)
H15 H 0.2183 0.6814 0.5324
H16 H 0.1907 0.7030 0.4399
H17 H 0.2379 0.6281 0.4546
C22 C 0.14480(16) 0.33675(15) 0.5187(2)
C23 C 0.13817(18) 0.27029(16) 0.5793(2)
H18 H 0.1379 0.2233 0.5473
H19 H 0.0920 0.2746 0.6113
H20 H 0.1803 0.2704 0.6181
C24 C 0.07920(17) 0.33201(18) 0.4568(2)
H21 H 0.0796 0.2830 0.4288
H22 H 0.0838 0.3718 0.4146
H23 H 0.0326 0.3382 0.4875
C25 C 0.21789(17) 0.32952(18) 0.4699(3)
H24 H 0.2596 0.3326 0.5091
H25 H 0.2215 0.3702 0.4287
H26 H 0.2191 0.2811 0.4406
C26 C 0.13394(16) 0.48778(16) 0.7888(2)
C27 C 0.07146(18) 0.54106(18) 0.8167(2)
H27 H 0.0652 0.5378 0.8778
H28 H 0.0252 0.5267 0.7889
H29 H 0.0843 0.5927 0.8012
C28 C 0.11159(17) 0.40888(17) 0.8216(2)
H30 H 0.1520 0.3734 0.8110
H31 H 0.0669 0.3920 0.7923
H32 H 0.1018 0.4115 0.8821
C29 C 0.20795(19) 0.50721(18) 0.8313(3)
H33 H 0.2195 0.5602 0.8217
H34 H 0.2474 0.4759 0.8076
H35 H 0.2041 0.4979 0.8919
P2 P 0.42630(4) 0.85195(4) 0.29781(6)
N3 N 0.71011(13) 0.89894(15) 0.35547(19)
N4 N 0.69166(14) 0.74983(15) 0.26160(18)
C30 C 0.51916(14) 0.85049(15) 0.30432(19)
C31 C 0.56187(15) 0.78641(15) 0.26980(19)
C32 C 0.63735(16) 0.79765(15) 0.2838(2)
C33 C 0.64620(14) 0.86896(16) 0.3284(2)
C34 C 0.57514(14) 0.90125(15) 0.34094(17)
C35 C 0.57122(15) 0.96891(16) 0.38376(18)
H36 H 0.5251 0.9930 0.3936
C36 C 0.63663(17) 0.99994(16) 0.4115(3)
H37 H 0.6360 1.0464 0.4407
C37 C 0.70392(16) 0.96357(18) 0.3970(2)
H38 H 0.7478 0.9862 0.4179
C38 C 0.66746(19) 0.68645(17) 0.2249(2)
H39 H 0.7035 0.6505 0.2084
C39 C 0.59428(19) 0.66988(18) 0.2094(2)
H40 H 0.5813 0.6238 0.1833
C40 C 0.53936(18) 0.72062(17) 0.2322(2)
H41 H 0.4885 0.7104 0.2223
C41 C 0.39922(14) 0.93846(16) 0.3526(2)
C42 C 0.39139(15) 1.00681(16) 0.3067(2)
C43 C 0.38996(15) 1.07367(16) 0.3521(2)
H42 H 0.3867 1.1196 0.3219
C44 C 0.39307(15) 1.07645(16) 0.4386(2)
C45 C 0.39239(15) 1.00885(15) 0.4817(2)
H43 H 0.3913 1.0100 0.5414
C46 C 0.39330(14) 0.93906(16) 0.4418(2)
C47 C 0.38635(15) 0.86806(16) 0.4975(2)
C48 C 0.3394(2) 0.8079(2) 0.4578(3)
H44 H 0.3630 0.7906 0.4058
H45 H 0.2903 0.8282 0.4449
H46 H 0.3344 0.7656 0.4967
C49 C 0.46293(17) 0.83554(18) 0.5188(3)
H47 H 0.4575 0.7959 0.5609
H48 H 0.4947 0.8754 0.5410
H49 H 0.4853 0.8146 0.4678
C50 C 0.34996(19) 0.88778(19) 0.5820(2)
H50 H 0.3047 0.9167 0.5719
H51 H 0.3844 0.9177 0.6158
H52 H 0.3376 0.8415 0.6122
C51 C 0.39463(17) 1.15074(16) 0.4875(2)
C52 C 0.39168(19) 1.21920(16) 0.4301(2)
H53 H 0.4358 1.2201 0.3942
H54 H 0.3900 1.2649 0.4642
H55 H 0.3473 1.2166 0.3948
C53 C 0.3286(2) 1.15424(19) 0.5469(3)
H56 H 0.2826 1.1497 0.5146
H57 H 0.3289 1.2023 0.5769
H58 H 0.3317 1.1131 0.5876
C54 C 0.4669(2) 1.15362(19) 0.5390(3)
H59 H 0.4688 1.1106 0.5773
H60 H 0.4684 1.2002 0.5716
H61 H 0.5094 1.1519 0.5008
C55 C 0.38434(19) 1.01217(19) 0.2100(2)
C56 C 0.3327(3) 0.9539(3) 0.1755(3)
H62 H 0.3228 0.9644 0.1161
H63 H 0.2861 0.9550 0.2070
H64 H 0.3554 0.9042 0.1808
C57 C 0.4602(2) 1.0070(2) 0.1694(3)
H65 H 0.4840 0.9598 0.1860
H66 H 0.4907 1.0493 0.1878
H67 H 0.4548 1.0083 0.1081
C58 C 0.3542(2) 1.0895(2) 0.1826(2)
H68 H 0.3914 1.1282 0.1940
H69 H 0.3089 1.1008 0.2141
H70 H 0.3431 1.0886 0.1223
loop_
_geom_bond_atom_site_label_1
_geom_bond_atom_site_label_2
_geom_bond_site_symmetry_1
_geom_bond_site_symmetry_2
P1 C1 1_555 1_555
N1 C3 1_555 1_555
N2 C4 1_555 1_555
C1 C2 1_555 1_555
C2 C3 1_555 1_555
C3 C4 1_555 1_555
C4 C5 1_555 1_555
C5 C1 1_555 1_555
C6 C5 1_555 1_555
H1 C6 1_555 1_555
C7 C6 1_555 1_555
H2 C7 1_555 1_555
C8 N2 1_555 1_555
H3 C8 1_555 1_555
C9 C2 1_555 1_555
H4 C9 1_555 1_555
C10 C9 1_555 1_555
H5 C10 1_555 1_555
C11 N1 1_555 1_555
H6 C11 1_555 1_555
C12 P1 1_555 1_555
C13 C12 1_555 1_555
C14 C13 1_555 1_555
H7 C14 1_555 1_555
C15 C14 1_555 1_555
C16 C15 1_555 1_555
H8 C16 1_555 1_555
C17 C12 1_555 1_555
C18 C17 1_555 1_555
C19 C18 1_555 1_555
H9 C19 1_555 1_555
H10 C19 1_555 1_555
H11 C19 1_555 1_555
C20 C18 1_555 1_555
H12 C20 1_555 1_555
H13 C20 1_555 1_555
H14 C20 1_555 1_555
C21 C18 1_555 1_555
H15 C21 1_555 1_555
H16 C21 1_555 1_555
H17 C21 1_555 1_555
C22 C15 1_555 1_555
C23 C22 1_555 1_555
H18 C23 1_555 1_555
H19 C23 1_555 1_555
H20 C23 1_555 1_555
C24 C22 1_555 1_555
H21 C24 1_555 1_555
H22 C24 1_555 1_555
H23 C24 1_555 1_555
C25 C22 1_555 1_555
H24 C25 1_555 1_555
H25 C25 1_555 1_555
H26 C25 1_555 1_555
C26 C13 1_555 1_555
C27 C26 1_555 1_555
H27 C27 1_555 1_555
H28 C27 1_555 1_555
H29 C27 1_555 1_555
C28 C26 1_555 1_555
H30 C28 1_555 1_555
H31 C28 1_555 1_555
H32 C28 1_555 1_555
C29 C26 1_555 1_555
H33 C29 1_555 1_555
H34 C29 1_555 1_555
H35 C29 1_555 1_555
P2 C30 1_555 1_555
N3 C33 1_555 1_555
N4 C32 1_555 1_555
C30 C31 1_555 1_555
C31 C32 1_555 1_555
C32 C33 1_555 1_555
C33 C34 1_555 1_555
C34 C30 1_555 1_555
C35 C34 1_555 1_555
H36 C35 1_555 1_555
C36 C35 1_555 1_555
H37 C36 1_555 1_555
C37 N3 1_555 1_555
H38 C37 1_555 1_555
C38 N4 1_555 1_555
H39 C38 1_555 1_555
C39 C38 1_555 1_555
H40 C39 1_555 1_555
C40 C31 1_555 1_555
H41 C40 1_555 1_555
C41 P2 1_555 1_555
C42 C41 1_555 1_555
C43 C42 1_555 1_555
H42 C43 1_555 1_555
C44 C43 1_555 1_555
C45 C44 1_555 1_555
H43 C45 1_555 1_555
C46 C41 1_555 1_555
C47 C46 1_555 1_555
C48 C47 1_555 1_555
H44 C48 1_555 1_555
H45 C48 1_555 1_555
H46 C48 1_555 1_555
C49 C47 1_555 1_555
H47 C49 1_555 1_555
H48 C49 1_555 1_555
H49 C49 1_555 1_555
C50 C47 1_555 1_555
H50 C50 1_555 1_555
H51 C50 1_555 1_555
H52 C50 1_555 1_555
C51 C44 1_555 1_555
C52 C51 1_555 1_555
H53 C52 1_555 1_555
H54 C52 1_555 1_555
H55 C52 1_555 1_555
C53 C51 1_555 1_555
H56 C53 1_555 1_555
H57 C53 1_555 1_555
H58 C53 1_555 1_555
C54 C51 1_555 1_555
H59 C54 1_555 1_555
H60 C54 1_555 1_555
H61 C54 1_555 1_555
C55 C42 1_555 1_555
C56 C55 1_555 1_555
H62 C56 1_555 1_555
H63 C56 1_555 1_555
H64 C56 1_555 1_555
C57 C55 1_555 1_555
H65 C57 1_555 1_555
H66 C57 1_555 1_555
H67 C57 1_555 1_555
C58 C55 1_555 1_555
H68 C58 1_555 1_555
H69 C58 1_555 1_555
H70 C58 1_555 1_555
C7 C8 1_555 1_555
C10 C11 1_555 1_555
C16 C17 1_555 1_555
C36 C37 1_555 1_555
C39 C40 1_555 1_555
C45 C46 1_555 1_555

#END
