
#######################################################################
#
#                 Cambridge Crystallographic Data Centre
#                                CCDC 
#
#######################################################################
#
# If this CIF has been generated from an entry in the Cambridge 
# Structural Database, then it will include bibliographic, chemical, 
# crystal, experimental, refinement or atomic coordinate data resulting 
# from the CCDC's data processing and validation procedures.
#
#######################################################################

data_QECVUP
_chemical_formula_moiety         'C32 H26 S2,0.5(C1 H1 Cl3)'
_chemical_name_systematic        
'1,4-bis(5-Phenylcyclopenta(c)thiophen-2-yl)phenylene chloroform solvate'
_symmetry_cell_setting           triclinic
_symmetry_space_group_name_H-M   'P -1'
_symmetry_Int_Tables_number      2
_space_group_name_Hall           '-P 1'
loop_
_symmetry_equiv_pos_site_id
_symmetry_equiv_pos_as_xyz
1 x,y,z
2 -x,-y,-z
_cell_length_a                   9.5109(5)
_cell_length_b                   12.1521(7)
_cell_length_c                   12.4045(1)
_cell_angle_alpha                72.683(3)
_cell_angle_beta                 86.704(3)
_cell_angle_gamma                70.886(3)
_cell_volume                     1291.97
_cell_formula_units_Z            2
loop_
_atom_site_label
_atom_site_type_symbol
_atom_site_fract_x
_atom_site_fract_y
_atom_site_fract_z
S1 S 0.4425(2) 0.2322(2) 0.5714(2)
S2 S -0.2280(2) 0.6979(2) 0.1188(2)
C1 C 0.6838(8) 0.0371(6) 0.7544(6)
C2 C 0.8053(8) -0.0550(6) 0.8167(6)
C3 C 0.9202(8) -0.0275(7) 0.8571(6)
C4 C 0.9094(8) 0.0937(7) 0.8358(6)
C5 C 0.7862(8) 0.1859(6) 0.7735(6)
C6 C 0.6720(8) 0.1595(6) 0.7319(6)
C7 C 0.5446(7) 0.2588(6) 0.6668(5)
C8 C 0.4876(7) 0.3775(6) 0.6674(5)
C9 C 0.5231(7) 0.4516(6) 0.7322(5)
C10 C 0.4051(8) 0.5779(6) 0.6897(6)
C11 C 0.3085(7) 0.5758(6) 0.5955(5)
C12 C 0.3637(7) 0.4471(6) 0.5900(5)
C13 C 0.3251(7) 0.3839(6) 0.5297(6)
C14 C 0.2110(7) 0.4237(6) 0.4389(6)
C15 C 0.1996(7) 0.3470(6) 0.3786(6)
C16 C 0.0958(7) 0.3863(6) 0.2908(6)
C17 C -0.0051(7) 0.5064(6) 0.2570(6)
C18 C 0.0076(7) 0.5818(6) 0.3174(5)
C19 C 0.1111(7) 0.5433(6) 0.4054(6)
C20 C -0.1124(7) 0.5454(6) 0.1635(6)
C21 C -0.1459(7) 0.4835(6) 0.0990(5)
C22 C -0.0926(7) 0.3526(6) 0.0975(6)
C23 C -0.2159(7) 0.3500(6) 0.0215(5)
C24 C -0.2925(7) 0.4823(6) -0.0514(6)
C25 C -0.2582(7) 0.5562(6) 0.0155(5)
C26 C -0.3184(8) 0.6754(6) 0.0129(6)
C27 C -0.4391(7) 0.7730(6) -0.0601(6)
C28 C -0.4659(7) 0.7744(6) -0.1684(6)
C29 C -0.5815(8) 0.8661(6) -0.2391(6)
C30 C -0.6735(8) 0.9565(6) -0.1961(6)
C31 C -0.6503(8) 0.9582(6) -0.0889(6)
C32 C -0.5338(8) 0.8667(6) -0.0196(6)
H1 H 0.6075 0.0166 0.7269
H2 H 0.8107 -0.1377 0.8319
H3 H 1.0042 -0.0908 0.8984
H4 H 0.9856 0.1141 0.8635
H5 H 0.7803 0.2687 0.7591
H6 H 0.5164 0.4171 0.8111
H7 H 0.6202 0.4567 0.7172
H8 H 0.3446 0.5960 0.7499
H9 H 0.4521 0.6380 0.6607
H10 H 0.2065 0.5978 0.6134
H11 H 0.3202 0.6304 0.5254
H12 H 0.2653 0.2653 0.3984
H13 H 0.0919 0.3309 0.2517
H14 H -0.0578 0.6636 0.2974
H15 H 0.1149 0.5989 0.4442
H16 H 0.0021 0.3327 0.0652
H17 H -0.0872 0.2982 0.1714
H18 H -0.1724 0.2998 -0.0255
H19 H -0.2863 0.3195 0.0673
H20 H -0.2518 0.4976 -0.1240
H21 H -0.3968 0.4994 -0.0595
H22 H -0.4033 0.7108 -0.1961
H23 H -0.5970 0.8664 -0.3142
H24 H -0.7542 1.0189 -0.2422
H25 H -0.7139 1.0218 -0.0617
H26 H -0.5182 0.8676 0.0550
Cl1? Cl -0.0766(6) -0.1264(4) 0.4764(5)
Cl2? Cl -0.100(1) 0.1189(7) 0.4310(9)
Cl3? Cl 0.155(1) -0.064(1) 0.5433(9)
C33? C 0.023(2) -0.022(1) 0.442(1)
loop_
_geom_bond_atom_site_label_1
_geom_bond_atom_site_label_2
_geom_bond_site_symmetry_1
_geom_bond_site_symmetry_2
S1 C7 1_555 1_555
S2 C20 1_555 1_555
C1 C2 1_555 1_555
C2 C3 1_555 1_555
C3 C4 1_555 1_555
C4 C5 1_555 1_555
C5 C6 1_555 1_555
C6 C1 1_555 1_555
C7 C6 1_555 1_555
C8 C7 1_555 1_555
C9 C8 1_555 1_555
C10 C9 1_555 1_555
C11 C10 1_555 1_555
C12 C8 1_555 1_555
C13 S1 1_555 1_555
C14 C13 1_555 1_555
C15 C14 1_555 1_555
C16 C15 1_555 1_555
C17 C16 1_555 1_555
C18 C17 1_555 1_555
C19 C14 1_555 1_555
C20 C17 1_555 1_555
C21 C20 1_555 1_555
C22 C21 1_555 1_555
C23 C22 1_555 1_555
C24 C23 1_555 1_555
C25 C21 1_555 1_555
C26 S2 1_555 1_555
C27 C26 1_555 1_555
C28 C27 1_555 1_555
C29 C28 1_555 1_555
C30 C29 1_555 1_555
C31 C30 1_555 1_555
C32 C27 1_555 1_555
H1 C1 1_555 1_555
H2 C2 1_555 1_555
H3 C3 1_555 1_555
H4 C4 1_555 1_555
H5 C5 1_555 1_555
H6 C9 1_555 1_555
H7 C9 1_555 1_555
H8 C10 1_555 1_555
H9 C10 1_555 1_555
H10 C11 1_555 1_555
H11 C11 1_555 1_555
H12 C15 1_555 1_555
H13 C16 1_555 1_555
H14 C18 1_555 1_555
H15 C19 1_555 1_555
H16 C22 1_555 1_555
H17 C22 1_555 1_555
H18 C23 1_555 1_555
H19 C23 1_555 1_555
H20 C24 1_555 1_555
H21 C24 1_555 1_555
H22 C28 1_555 1_555
H23 C29 1_555 1_555
H24 C30 1_555 1_555
H25 C31 1_555 1_555
H26 C32 1_555 1_555
C11 C12 1_555 1_555
C12 C13 1_555 1_555
C18 C19 1_555 1_555
C24 C25 1_555 1_555
C25 C26 1_555 1_555
C31 C32 1_555 1_555

#END
