
#######################################################################
#
#                 Cambridge Crystallographic Data Centre
#                                CCDC 
#
#######################################################################
#
# If this CIF has been generated from an entry in the Cambridge 
# Structural Database, then it will include bibliographic, chemical, 
# crystal, experimental, refinement or atomic coordinate data resulting 
# from the CCDC's data processing and validation procedures.
#
#######################################################################

data_QECWIG
_chemical_name_common            
N-(bis(pyrrolidin-1-yl)phosphoryl)-2,4-difluorobenzamide
_chemical_formula_moiety         'C15 H20 F2 N3 O2 P1'
_chemical_name_systematic        
'bis(pyrrolidin-1-yl)phosphinic (2,4-difluorobenzoyl)amide'
_symmetry_cell_setting           monoclinic
_symmetry_space_group_name_H-M   'P 21/n'
_symmetry_Int_Tables_number      14
_space_group_name_Hall           '-P 2yn'
loop_
_symmetry_equiv_pos_site_id
_symmetry_equiv_pos_as_xyz
1 x,y,z
2 1/2-x,1/2+y,1/2-z
3 -x,-y,-z
4 1/2+x,1/2-y,1/2+z
_cell_length_a                   9.1028(3)
_cell_length_b                   9.9477(2)
_cell_length_c                   18.5465(5)
_cell_angle_alpha                90
_cell_angle_beta                 92.268(3)
_cell_angle_gamma                90
_cell_volume                     1678.11
_exptl_crystal_colour            colorless
_exptl_crystal_description       block
_cell_formula_units_Z            4
loop_
_atom_site_label
_atom_site_type_symbol
_atom_site_fract_x
_atom_site_fract_y
_atom_site_fract_z
P1 P 0.59836(4) 0.47159(3) 0.114620(16)
F1 F 0.59877(19) 1.01499(17) 0.13543(9)
F2 F 0.17516(14) 1.14989(11) 0.00596(7)
O1 O 0.53714(12) 0.37387(9) 0.06124(5)
O2 O 0.57983(14) 0.75048(11) 0.18642(6)
N1 N 0.53996(13) 0.62346(11) 0.08554(6)
H1 H 0.5064(18) 0.6275(17) 0.0427(7)
N2 N 0.54212(13) 0.44054(13) 0.19479(6)
N3 N 0.77636(14) 0.47924(12) 0.12213(7)
C1 C 0.47337(16) 0.98082(14) 0.09944(7)
C2 C 0.38927(18) 1.08460(14) 0.07115(8)
H2 H 0.4184 1.1758 0.0770
C3 C 0.26117(18) 1.05011(15) 0.03401(9)
C4 C 0.21545(16) 0.91998(16) 0.02352(8)
H3 H 0.1260 0.9000 -0.0024
C5 C 0.30424(15) 0.81899(14) 0.05208(7)
H4 H 0.278(4) 0.7283(15) 0.0411(18)
C6 C 0.43458(14) 0.84645(12) 0.09091(6)
C7 C 0.52591(15) 0.73730(13) 0.12577(7)
C8 C 0.6225(6) 0.4742(8) 0.2636(3)
H5 H 0.6806 0.5577 0.2591
H6 H 0.6888 0.4002 0.2796
C9 C 0.4996(10) 0.4928(11) 0.3144(4)
H7 H 0.4666 0.5877 0.3146
H8 H 0.5314 0.4667 0.3641
C10 C 0.3769(6) 0.4013(8) 0.2855(2)
H9 H 0.2804 0.4304 0.3028
H10 H 0.3948 0.3069 0.3003
C11 C 0.3829(8) 0.4168(11) 0.2035(4)
H11 H 0.3491 0.3341 0.1781
H12 H 0.3231 0.4940 0.1858
C12 C 0.8722(3) 0.5949(3) 0.1329(3)
H13 H 0.8306 0.6592 0.1673
H14 H 0.8873 0.6417 0.0866
C13 C 1.0112(5) 0.5376(5) 0.1622(6)
H15 H 1.0949 0.5834 0.1402
H16 H 1.0191 0.5532 0.2150
C14 C 1.0185(4) 0.3994(5) 0.1484(3)
H17 H 1.0650 0.3506 0.1898
H18 H 1.0740 0.3810 0.1047
C15 C 0.8656(9) 0.3626(9) 0.1378(6)
H19 H 0.8549 0.2979 0.0973
H20 H 0.8314 0.3181 0.1818
C16? C 0.3614(6) 0.4907(8) 0.2760(3)
C17? C 0.3941(13) 0.4072(19) 0.2095(7)
C18? C 0.8614(5) 0.5743(6) 0.0805(4)
C19? C 1.0174(6) 0.5242(7) 0.0916(6)
C20? C 0.9971(6) 0.3782(7) 0.1029(6)
C21? C 0.8561(9) 0.3470(9) 0.1381(4)
C22? C 0.6167(14) 0.4736(16) 0.2641(6)
C23? C 0.5017(15) 0.4612(18) 0.3196(8)
F3? F 0.2448(4) 0.6940(3) 0.0502(2)
H21? H 0.3506 0.5875 0.2646
H22? H 0.2731 0.4583 0.3003
H23? H 0.3842 0.3099 0.2196
H24? H 0.3267 0.4313 0.1683
H25? H 0.8512 0.6670 0.0991
H26? H 0.8299 0.5725 0.0288
H27? H 1.0757 0.5418 0.0487
H28? H 1.0668 0.5667 0.1343
H29? H 1.0803 0.3433 0.1335
H30? H 0.9982 0.3316 0.0558
H31? H 0.8710 0.3310 0.1906
H32? H 0.8046 0.2694 0.1153
H33? H 0.571(4) 1.003(9) 0.117(4)
H34? H 0.6565 0.5662 0.2632
H35? H 0.6987 0.4103 0.2747
H36? H 0.5180 0.5274 0.3589
H37? H 0.5003 0.3696 0.3404
loop_
_geom_bond_atom_site_label_1
_geom_bond_atom_site_label_2
_geom_bond_site_symmetry_1
_geom_bond_site_symmetry_2
P1 O1 1_555 1_555
F1 C1 1_555 1_555
F2 C3 1_555 1_555
O2 C7 1_555 1_555
N1 P1 1_555 1_555
H1 N1 1_555 1_555
N2 P1 1_555 1_555
N3 P1 1_555 1_555
C1 C2 1_555 1_555
C2 H2 1_555 1_555
C3 C2 1_555 1_555
C4 C3 1_555 1_555
H3 C4 1_555 1_555
C5 C4 1_555 1_555
H4 C5 1_555 1_555
C6 C1 1_555 1_555
C7 N1 1_555 1_555
C8 N2 1_555 1_555
H5 C8 1_555 1_555
H6 C8 1_555 1_555
C9 C8 1_555 1_555
H7 C9 1_555 1_555
H8 C9 1_555 1_555
C10 C9 1_555 1_555
H9 C10 1_555 1_555
H10 C10 1_555 1_555
C11 N2 1_555 1_555
H11 C11 1_555 1_555
H12 C11 1_555 1_555
C12 N3 1_555 1_555
H13 C12 1_555 1_555
H14 C12 1_555 1_555
C13 C12 1_555 1_555
H15 C13 1_555 1_555
H16 C13 1_555 1_555
C14 C13 1_555 1_555
H17 C14 1_555 1_555
H18 C14 1_555 1_555
C15 N3 1_555 1_555
H19 C15 1_555 1_555
H20 C15 1_555 1_555
C5 C6 1_555 1_555
C6 C7 1_555 1_555
C10 C11 1_555 1_555
C14 C15 1_555 1_555

#END
