
#######################################################################
#
#                 Cambridge Crystallographic Data Centre
#                                CCDC 
#
#######################################################################
#
# If this CIF has been generated from an entry in the Cambridge 
# Structural Database, then it will include bibliographic, chemical, 
# crystal, experimental, refinement or atomic coordinate data resulting 
# from the CCDC's data processing and validation procedures.
#
#######################################################################

data_QEDBAE
_chemical_compound_source        'bark of Aglaia exima (Meliaceae)'
_chemical_name_common            '(20S)-Dammar-24-ene-3beta,20-diol monohydrate'
_chemical_formula_moiety         'C30 H52 O2,H2 O1'
_chemical_name_systematic        
'(1R,2R,5R,7R,10R,11R,14S,15R)-14-[(2S)-2-hydroxy-6-methylhept-5-en-2-yl]-2,6,6,10,11-pentamethyltetracyclo[8.7.0.0^2,7^.0^11,15^]heptadecan-5-ol monohydrate'
_symmetry_cell_setting           tetragonal
_symmetry_space_group_name_H-M   'P 42'
_symmetry_Int_Tables_number      77
_space_group_name_Hall           'P 4c'
loop_
_symmetry_equiv_pos_site_id
_symmetry_equiv_pos_as_xyz
1 x,y,z
2 -x,-y,z
3 -y,x,1/2+z
4 y,-x,1/2+z
_cell_length_a                   19.92290(10)
_cell_length_b                   19.92290(10)
_cell_length_c                   7.33020(10)
_cell_angle_alpha                90
_cell_angle_beta                 90
_cell_angle_gamma                90
_cell_volume                     2909.52
_exptl_crystal_colour            colorless
_exptl_crystal_description       prism
_cell_formula_units_Z            4
_exptl_crystal_recrystallization_method 'ethyl acetate'
loop_
_atom_site_label
_atom_site_type_symbol
_atom_site_fract_x
_atom_site_fract_y
_atom_site_fract_z
O1 O 0.40677(8) 0.95002(8) 0.4154(3)
H1 H 0.4242 0.9693 0.3251
O2 O 0.08964(8) 0.54803(8) 0.4294(3)
H2 H 0.0743 0.5323 0.3316
C1 C 0.23302(12) 1.02383(11) 0.3489(4)
H5 H 0.2503 1.0699 0.3528
H6 H 0.2121 1.0129 0.4662
H7 H 0.1996 1.0200 0.2513
C2 C 0.32326(12) 0.99569(11) 0.1298(4)
H8 H 0.3368 1.0429 0.1364
H9 H 0.2905 0.9899 0.0314
H10 H 0.3627 0.9677 0.1056
C3 C 0.29148(12) 0.97463(11) 0.3120(3)
C4 C 0.34506(11) 0.98337(11) 0.4633(4)
H11 H 0.3543 1.0323 0.4797
C5 C 0.32263(12) 0.95406(11) 0.6451(3)
H12 H 0.2830 0.9792 0.6899
H13 H 0.3591 0.9594 0.7356
C6 C 0.30465(11) 0.87956(11) 0.6280(3)
H14 H 0.2899 0.8627 0.7486
H15 H 0.3454 0.8542 0.5925
C7 C 0.18212(12) 0.89138(12) 0.5695(4)
H16 H 0.1854 0.9397 0.5926
H17 H 0.1732 0.8679 0.6844
H18 H 0.1455 0.8827 0.4835
C8 C 0.24895(10) 0.86580(11) 0.4874(3)
C9 C 0.26992(11) 0.89986(11) 0.3032(3)
H19 H 0.3115 0.8755 0.2656
C10 C 0.21932(11) 0.88426(11) 0.1525(3)
H20 H 0.2318 0.9088 0.0401
H21 H 0.1741 0.8994 0.1904
C11 C 0.21803(11) 0.80866(11) 0.1139(3)
H22 H 0.2623 0.7950 0.0649
H23 H 0.1839 0.7995 0.0188
C12 C 0.12674(11) 0.77502(12) 0.3267(4)
H24 H 0.0998 0.7600 0.2224
H25 H 0.1176 0.8225 0.3508
H26 H 0.1150 0.7484 0.4345
C13 C 0.20209(11) 0.76580(11) 0.2830(3)
C14 C 0.24821(11) 0.78826(10) 0.4463(3)
H27 H 0.2948 0.7782 0.4037
C15 C 0.23867(12) 0.74306(11) 0.6142(4)
H28 H 0.2701 0.7574 0.7112
H29 H 0.1924 0.7487 0.6612
C16 C 0.25069(11) 0.66882(11) 0.5715(3)
H30 H 0.2981 0.6619 0.5357
H31 H 0.2416 0.6414 0.6814
C17 C 0.20446(11) 0.64684(10) 0.4162(3)
H32 H 0.1575 0.6572 0.4555
C18 C 0.29079(11) 0.67911(11) 0.1759(4)
H33 H 0.2984 0.6313 0.1526
H34 H 0.3224 0.6949 0.2690
H35 H 0.2976 0.7045 0.0630
C19 C 0.21845(11) 0.68953(11) 0.2437(3)
C20 C 0.17282(12) 0.65349(11) 0.1054(4)
H36 H 0.1850 0.6657 -0.0213
H37 H 0.1251 0.6648 0.1265
C21 C 0.18623(12) 0.57823(11) 0.1420(4)
H38 H 0.2237 0.5618 0.0653
H39 H 0.1457 0.5512 0.1151
C22 C 0.20476(11) 0.57331(11) 0.3489(3)
H40 H 0.2517 0.5559 0.3585
C23 C 0.15811(11) 0.52502(11) 0.4544(4)
C24 C 0.17163(13) 0.52639(12) 0.6588(4)
H41 H 0.1409 0.4955 0.7207
H42 H 0.1646 0.5720 0.7053
H43 H 0.2181 0.5126 0.6821
C25 C 0.16250(12) 0.45282(11) 0.3808(4)
H46 H 0.1358 0.4504 0.2671
H47 H 0.1408 0.4227 0.4707
C26 C 0.2328(3) 0.4192(5) 0.3806(13)
H50 H 0.2592 0.4366 0.4850
H51 H 0.2274 0.3702 0.3973
C27 C 0.2701(7) 0.4317(7) 0.2113(18)
H52 H 0.2415 0.4194 0.1131
C28 C 0.3265(4) 0.4528(5) 0.1393(15)
C29 C 0.3498(5) 0.4646(7) -0.0560(17)
H53 H 0.3927 0.4417 -0.0759
H54 H 0.3554 0.5128 -0.0769
H55 H 0.3162 0.4468 -0.1409
C30 C 0.3800(6) 0.4710(7) 0.277(2)
H56 H 0.3631 0.4623 0.4003
H57 H 0.3913 0.5186 0.2646
H58 H 0.4201 0.4437 0.2550
O3 O 0.5000 1.0000 0.1754(4)
H3 H 0.4837 1.0303 0.1093
H3A H 0.5163 0.9697 0.1093
O4 O 0.0000 0.5000 0.1640(4)
H4 H 0.0164 0.4694 0.0987
H4A H -0.0164 0.5306 0.0987
H44? H 0.1454 0.4528 0.2540
H45? H 0.1319 0.4244 0.4540
H48? H 0.1559 0.4542 0.2470
H49? H 0.1249 0.4266 0.4332
C31? C 0.2338(6) 0.4245(11) 0.340(2)
H59? H 0.2632 0.4408 0.4395
H60? H 0.2305 0.3752 0.3550
C32? C 0.2706(9) 0.4359(15) 0.170(2)
H61? H 0.2516 0.4353 0.0509
C33? C 0.3390(7) 0.4479(8) 0.211(3)
C34? C 0.3714(9) 0.4563(11) 0.024(3)
H62? H 0.3364 0.4576 -0.0696
H63? H 0.4016 0.4185 0.0007
H64? H 0.3970 0.4983 0.0215
C35? C 0.3828(10) 0.4522(13) 0.380(4)
H65? H 0.3546 0.4492 0.4889
H66? H 0.4068 0.4951 0.3799
H67? H 0.4152 0.4152 0.3792
C36? C 0.2285(6) 0.4150(10) 0.423(2)
H68? H 0.2461 0.4296 0.5426
H69? H 0.2194 0.3662 0.4293
C37? C 0.2785(6) 0.4279(7) 0.2825(19)
H70? H 0.2648 0.4187 0.1609
C38? C 0.3442(5) 0.4520(5) 0.3021(19)
C39? C 0.3880(6) 0.4653(7) 0.136(2)
H71? H 0.3598 0.4674 0.0270
H72? H 0.4208 0.4290 0.1234
H73? H 0.4116 0.5081 0.1522
C40? C 0.3691(7) 0.4694(9) 0.493(2)
H74? H 0.3606 0.5170 0.5174
H75? H 0.4174 0.4606 0.5005
H76? H 0.3454 0.4418 0.5827
loop_
_geom_bond_atom_site_label_1
_geom_bond_atom_site_label_2
_geom_bond_site_symmetry_1
_geom_bond_site_symmetry_2
O1 H1 1_555 1_555
O2 H2 1_555 1_555
O3 H3 1_555 1_555
O4 H4 1_555 1_555
C1 H5 1_555 1_555
H6 C1 1_555 1_555
H7 C1 1_555 1_555
C2 H8 1_555 1_555
H9 C2 1_555 1_555
H10 C2 1_555 1_555
C3 C1 1_555 1_555
C4 O1 1_555 1_555
H11 C4 1_555 1_555
C5 C4 1_555 1_555
H12 C5 1_555 1_555
H13 C5 1_555 1_555
C6 C5 1_555 1_555
H14 C6 1_555 1_555
H15 C6 1_555 1_555
C7 H16 1_555 1_555
H17 C7 1_555 1_555
H18 C7 1_555 1_555
C8 C6 1_555 1_555
C9 C3 1_555 1_555
H19 C9 1_555 1_555
C10 C9 1_555 1_555
H20 C10 1_555 1_555
H21 C10 1_555 1_555
C11 C10 1_555 1_555
H22 C11 1_555 1_555
H23 C11 1_555 1_555
C12 H24 1_555 1_555
H25 C12 1_555 1_555
H26 C12 1_555 1_555
C13 C11 1_555 1_555
C14 C8 1_555 1_555
H27 C14 1_555 1_555
C15 C14 1_555 1_555
H28 C15 1_555 1_555
H29 C15 1_555 1_555
C16 C15 1_555 1_555
H30 C16 1_555 1_555
H31 C16 1_555 1_555
C17 C16 1_555 1_555
H32 C17 1_555 1_555
C18 H33 1_555 1_555
H34 C18 1_555 1_555
H35 C18 1_555 1_555
C19 C13 1_555 1_555
C20 C19 1_555 1_555
H36 C20 1_555 1_555
H37 C20 1_555 1_555
C21 C20 1_555 1_555
H38 C21 1_555 1_555
H39 C21 1_555 1_555
C22 C17 1_555 1_555
H40 C22 1_555 1_555
C23 O2 1_555 1_555
C24 C23 1_555 1_555
H41 C24 1_555 1_555
H42 C24 1_555 1_555
H43 C24 1_555 1_555
C25 C23 1_555 1_555
H46 C25 1_555 1_555
H47 C25 1_555 1_555
C26 C25 1_555 1_555
H50 C26 1_555 1_555
H51 C26 1_555 1_555
C27 C26 1_555 1_555
H52 C27 1_555 1_555
C28 C27 1_555 1_555
C29 C28 1_555 1_555
H53 C29 1_555 1_555
H54 C29 1_555 1_555
H55 C29 1_555 1_555
C30 C28 1_555 1_555
H56 C30 1_555 1_555
H57 C30 1_555 1_555
H58 C30 1_555 1_555
H3A O3 1_555 1_555
H4A O4 1_555 1_555
C2 C3 1_555 1_555
C3 C4 1_555 1_555
C7 C8 1_555 1_555
C8 C9 1_555 1_555
C12 C13 1_555 1_555
C13 C14 1_555 1_555
C17 C19 1_555 1_555
C18 C19 1_555 1_555
C21 C22 1_555 1_555
C22 C23 1_555 1_555

#END
