
#######################################################################
#
#                 Cambridge Crystallographic Data Centre
#                                CCDC 
#
#######################################################################
#
# If this CIF has been generated from an entry in the Cambridge 
# Structural Database, then it will include bibliographic, chemical, 
# crystal, experimental, refinement or atomic coordinate data resulting 
# from the CCDC's data processing and validation procedures.
#
#######################################################################

data_QEDDOV
_chemical_formula_moiety         'C56 H80 O4'
_chemical_name_systematic        
21,22,23,24-tetrakis(octyloxy)pentacyclo[15.3.1.1^4,8^.1^7,11^.1^14,18^]tetracosa-1(21),2,4(24),5,7,9,11(23),12,14(22),15,17,19-dodecaene
_symmetry_cell_setting           orthorhombic
_symmetry_space_group_name_H-M   'P b c a'
_symmetry_Int_Tables_number      61
_space_group_name_Hall           '-P 2ac 2ab'
loop_
_symmetry_equiv_pos_site_id
_symmetry_equiv_pos_as_xyz
1 x,y,z
2 1/2-x,-y,1/2+z
3 -x,1/2+y,1/2-z
4 1/2+x,1/2-y,-z
5 -x,-y,-z
6 1/2+x,y,1/2-z
7 x,1/2-y,1/2+z
8 1/2-x,1/2+y,z
_cell_length_a                   10.8796(8)
_cell_length_b                   14.9119(12)
_cell_length_c                   30.549(2)
_cell_angle_alpha                90
_cell_angle_beta                 90
_cell_angle_gamma                90
_cell_volume                     4956.13
_exptl_crystal_colour            colorless
_exptl_crystal_description       prism
_cell_formula_units_Z            4
loop_
_atom_site_label
_atom_site_type_symbol
_atom_site_fract_x
_atom_site_fract_y
_atom_site_fract_z
C1 C 1.0012(3) 0.83671(18) 1.01621(9)
C2 C 1.0466(3) 0.81971(19) 0.97512(10)
C3 C 1.1751(3) 0.7876(2) 0.96644(9)
H1 H 1.1909 0.7252 0.9634
C4 C 0.7330(3) 1.1539(2) 1.03706(9)
H2 H 0.6520 1.1746 1.0428
C5 C 0.9784(3) 0.85177(19) 0.93884(10)
H3 H 1.0023 0.8338 0.9102
C6 C 0.8792(2) 0.9077(2) 0.94339(9)
H4 H 0.8338 0.9261 0.9184
C7 C 0.8448(2) 0.93797(19) 0.98562(9)
C8 C 0.9018(2) 0.89911(19) 1.02256(9)
C9 C 0.8695(2) 0.9308(2) 1.06496(10)
H5 H 0.8946 0.8988 1.0903
C10 C 0.8022(2) 1.0077(2) 1.06886(10)
H6 H 0.7848 1.0301 1.0973
C11 C 0.7573(2) 1.0555(2) 1.03202(9)
C12 C 0.7661(2) 1.0142(2) 0.99170(10)
C13 C 1.1147(3) 0.72235(19) 1.05518(9)
H7 H 1.2027 0.7311 1.0481
H8 H 1.0786 0.6812 1.0332
C14 C 1.1010(3) 0.6838(2) 1.10036(9)
H9 H 1.1320 0.6214 1.1002
H10 H 1.0125 0.6817 1.1079
C15 C 1.1683(3) 0.7361(2) 1.13563(10)
H11 H 1.2574 0.7351 1.1292
H12 H 1.1408 0.7993 1.1347
C16 C 1.1477(3) 0.6996(2) 1.18137(10)
H13 H 1.0589 0.7036 1.1883
H14 H 1.1706 0.6354 1.1817
C17 C 1.2191(3) 0.7475(2) 1.21680(10)
H15 H 1.1997 0.8123 1.2155
H16 H 1.3081 0.7405 1.2108
C18 C 1.1925(3) 0.7137(2) 1.26283(10)
H17 H 1.1036 0.7207 1.2688
H18 H 1.2118 0.6489 1.2642
C19 C 1.2637(3) 0.7612(3) 1.29807(11)
H19 H 1.2449 0.8261 1.2966
H20 H 1.3526 0.7538 1.2922
C20 C 1.2364(4) 0.7279(3) 1.34398(12)
H21 H 1.2856 0.7618 1.3651
H22 H 1.2569 0.6641 1.3461
H23 H 1.1488 0.7363 1.3504
C21 C 0.6009(3) 1.0960(2) 0.95624(10)
H24 H 0.6175 1.1610 0.9535
H25 H 0.5612 1.0852 0.9849
C22 C 0.5172(3) 1.0660(2) 0.92002(10)
H26 H 0.4381 1.0983 0.9230
H27 H 0.5000 1.0013 0.9240
C23 C 0.5650(3) 1.0803(2) 0.87409(10)
H28 H 0.6479 1.0532 0.8718
H29 H 0.5736 1.1455 0.8688
C24 C 0.4832(3) 1.0404(2) 0.83858(10)
H30 H 0.4758 0.9750 0.8436
H31 H 0.4000 1.0668 0.8412
C25 C 0.5303(3) 1.0560(2) 0.79250(10)
H32 H 0.6165 1.0350 0.7909
H33 H 0.5303 1.1213 0.7867
C26 C 0.4566(3) 1.0096(2) 0.75669(10)
H34 H 0.4557 0.9443 0.7626
H35 H 0.3707 1.0312 0.7579
C27 C 0.5061(3) 1.0251(2) 0.71095(11)
H36 H 0.5926 1.0048 0.7099
H37 H 0.5053 1.0903 0.7048
C28 C 0.4342(4) 0.9772(3) 0.67513(12)
H38 H 0.4713 0.9904 0.6466
H39 H 0.3488 0.9979 0.6754
H40 H 0.4364 0.9123 0.6804
O1 O 1.05117(19) 0.80705(13) 1.05469(6)
O2 O 0.71494(17) 1.04627(14) 0.95364(6)
C1D C 0.9988(3) 1.16329(18) 0.98379(9)
C2D C 0.9534(3) 1.18029(19) 1.02488(10)
C3D C 0.8249(3) 1.2124(2) 1.03356(9)
H1D H 0.8091 1.2748 1.0366
C4D C 1.2670(3) 0.8461(2) 0.96294(9)
H2D H 1.3480 0.8254 0.9572
C5D C 1.0216(3) 1.14823(19) 1.06116(10)
H3D H 0.9977 1.1662 1.0898
C6D C 1.1208(2) 1.0923(2) 1.05661(9)
H4D H 1.1662 1.0739 1.0816
C7D C 1.1552(2) 1.06203(19) 1.01438(9)
C8D C 1.0982(2) 1.10089(19) 0.97744(9)
C9D C 1.1305(2) 1.0692(2) 0.93504(10)
H5D H 1.1054 1.1012 0.9097
C10D C 1.1978(2) 0.9923(2) 0.93114(10)
H6D H 1.2152 0.9699 0.9027
C11D C 1.2427(2) 0.9445(2) 0.96798(9)
C12D C 1.2339(2) 0.9858(2) 1.00830(10)
C13D C 0.8853(3) 1.27765(19) 0.94482(9)
H7D H 0.7973 1.2689 0.9519
H8D H 0.9214 1.3188 0.9668
C14D C 0.8990(3) 1.3162(2) 0.89964(9)
H9D H 0.8680 1.3786 0.8998
H10D H 0.9875 1.3183 0.8921
C15D C 0.8317(3) 1.2639(2) 0.86437(10)
H11D H 0.7426 1.2649 0.8708
H12D H 0.8592 1.2007 0.8653
C16D C 0.8523(3) 1.3004(2) 0.81863(10)
H13D H 0.9411 1.2964 0.8117
H14D H 0.8294 1.3646 0.8183
C17D C 0.7809(3) 1.2525(2) 0.78320(10)
H15D H 0.8003 1.1877 0.7845
H16D H 0.6919 1.2595 0.7892
C18D C 0.8075(3) 1.2863(2) 0.73717(10)
H17D H 0.8964 1.2793 0.7312
H18D H 0.7882 1.3511 0.7358
C19D C 0.7363(3) 1.2388(3) 0.70193(11)
H19D H 0.7551 1.1739 0.7034
H20D H 0.6474 1.2462 0.7078
C20D C 0.7636(4) 1.2721(3) 0.65602(12)
H21D H 0.7144 1.2382 0.6349
H22D H 0.7431 1.3359 0.6539
H23D H 0.8512 1.2637 0.6496
C21D C 1.3991(3) 0.9040(2) 1.04376(10)
H24D H 1.3825 0.8390 1.0465
H25D H 1.4388 0.9148 1.0151
C22D C 1.4828(3) 0.9340(2) 1.07998(10)
H26D H 1.5619 0.9017 1.0770
H27D H 1.5000 0.9987 1.0760
C23D C 1.4350(3) 0.9197(2) 1.12591(10)
H28D H 1.3521 0.9468 1.1282
H29D H 1.4264 0.8545 1.1312
C24D C 1.5168(3) 0.9596(2) 1.16142(10)
H30D H 1.5242 1.0250 1.1564
H31D H 1.6000 0.9332 1.1588
C25D C 1.4697(3) 0.9440(2) 1.20750(10)
H32D H 1.3835 0.9650 1.2091
H33D H 1.4697 0.8787 1.2133
C26D C 1.5434(3) 0.9904(2) 1.24331(10)
H34D H 1.5443 1.0557 1.2374
H35D H 1.6293 0.9688 1.2421
C27D C 1.4939(3) 0.9749(2) 1.28905(11)
H36D H 1.4074 0.9952 1.2901
H37D H 1.4947 0.9097 1.2952
C28D C 1.5658(4) 1.0228(3) 1.32487(12)
H38D H 1.5287 1.0096 1.3534
H39D H 1.6512 1.0021 1.3246
H40D H 1.5636 1.0877 1.3196
O1D O 0.94883(19) 1.19295(13) 0.94531(6)
O2D O 1.28506(17) 0.95373(14) 1.04636(6)
loop_
_geom_bond_atom_site_label_1
_geom_bond_atom_site_label_2
_geom_bond_site_symmetry_1
_geom_bond_site_symmetry_2
C1 C2 1_555 1_555
C2 C3 1_555 1_555
C3 H1 1_555 1_555
C4 H2 1_555 1_555
C5 C2 1_555 1_555
H3 C5 1_555 1_555
C6 C5 1_555 1_555
H4 C6 1_555 1_555
C7 C6 1_555 1_555
C8 C1 1_555 1_555
C9 C8 1_555 1_555
H5 C9 1_555 1_555
C10 C9 1_555 1_555
H6 C10 1_555 1_555
C11 C4 1_555 1_555
C12 C7 1_555 1_555
C13 H7 1_555 1_555
H8 C13 1_555 1_555
C14 C13 1_555 1_555
H9 C14 1_555 1_555
H10 C14 1_555 1_555
C15 C14 1_555 1_555
H11 C15 1_555 1_555
H12 C15 1_555 1_555
C16 C15 1_555 1_555
H13 C16 1_555 1_555
H14 C16 1_555 1_555
C17 C16 1_555 1_555
H15 C17 1_555 1_555
H16 C17 1_555 1_555
C18 C17 1_555 1_555
H17 C18 1_555 1_555
H18 C18 1_555 1_555
C19 C18 1_555 1_555
H19 C19 1_555 1_555
H20 C19 1_555 1_555
C20 C19 1_555 1_555
H21 C20 1_555 1_555
H22 C20 1_555 1_555
H23 C20 1_555 1_555
C21 H24 1_555 1_555
H25 C21 1_555 1_555
C22 C21 1_555 1_555
H26 C22 1_555 1_555
H27 C22 1_555 1_555
C23 C22 1_555 1_555
H28 C23 1_555 1_555
H29 C23 1_555 1_555
C24 C23 1_555 1_555
H30 C24 1_555 1_555
H31 C24 1_555 1_555
C25 C24 1_555 1_555
H32 C25 1_555 1_555
H33 C25 1_555 1_555
C26 C25 1_555 1_555
H34 C26 1_555 1_555
H35 C26 1_555 1_555
C27 C26 1_555 1_555
H36 C27 1_555 1_555
H37 C27 1_555 1_555
C28 C27 1_555 1_555
H38 C28 1_555 1_555
H39 C28 1_555 1_555
H40 C28 1_555 1_555
O1 C1 1_555 1_555
O2 C12 1_555 1_555
C1D C2D 1_555 1_555
C2D C3D 1_555 1_555
C3D C4 1_555 1_555
H1D C3D 1_555 1_555
C4D C3 1_555 1_555
H2D C4D 1_555 1_555
C5D C2D 1_555 1_555
H3D C5D 1_555 1_555
C6D C5D 1_555 1_555
H4D C6D 1_555 1_555
C7D C6D 1_555 1_555
C8D C1D 1_555 1_555
C9D C8D 1_555 1_555
H5D C9D 1_555 1_555
C10D C9D 1_555 1_555
H6D C10D 1_555 1_555
C11D C4D 1_555 1_555
C12D C7D 1_555 1_555
C13D H7D 1_555 1_555
H8D C13D 1_555 1_555
C14D C13D 1_555 1_555
H9D C14D 1_555 1_555
H10D C14D 1_555 1_555
C15D C14D 1_555 1_555
H11D C15D 1_555 1_555
H12D C15D 1_555 1_555
C16D C15D 1_555 1_555
H13D C16D 1_555 1_555
H14D C16D 1_555 1_555
C17D C16D 1_555 1_555
H15D C17D 1_555 1_555
H16D C17D 1_555 1_555
C18D C17D 1_555 1_555
H17D C18D 1_555 1_555
H18D C18D 1_555 1_555
C19D C18D 1_555 1_555
H19D C19D 1_555 1_555
H20D C19D 1_555 1_555
C20D C19D 1_555 1_555
H21D C20D 1_555 1_555
H22D C20D 1_555 1_555
H23D C20D 1_555 1_555
C21D H24D 1_555 1_555
H25D C21D 1_555 1_555
C22D C21D 1_555 1_555
H26D C22D 1_555 1_555
H27D C22D 1_555 1_555
C23D C22D 1_555 1_555
H28D C23D 1_555 1_555
H29D C23D 1_555 1_555
C24D C23D 1_555 1_555
H30D C24D 1_555 1_555
H31D C24D 1_555 1_555
C25D C24D 1_555 1_555
H32D C25D 1_555 1_555
H33D C25D 1_555 1_555
C26D C25D 1_555 1_555
H34D C26D 1_555 1_555
H35D C26D 1_555 1_555
C27D C26D 1_555 1_555
H36D C27D 1_555 1_555
H37D C27D 1_555 1_555
C28D C27D 1_555 1_555
H38D C28D 1_555 1_555
H39D C28D 1_555 1_555
H40D C28D 1_555 1_555
O1D C1D 1_555 1_555
O2D C12D 1_555 1_555
C7 C8 1_555 1_555
C10 C11 1_555 1_555
C11 C12 1_555 1_555
C13 O1 1_555 1_555
C21 O2 1_555 1_555
C7D C8D 1_555 1_555
C10D C11D 1_555 1_555
C11D C12D 1_555 1_555
C13D O1D 1_555 1_555
C21D O2D 1_555 1_555

#END
