
#######################################################################
#
#                 Cambridge Crystallographic Data Centre
#                                CCDC 
#
#######################################################################
#
# If this CIF has been generated from an entry in the Cambridge 
# Structural Database, then it will include bibliographic, chemical, 
# crystal, experimental, refinement or atomic coordinate data resulting 
# from the CCDC's data processing and validation procedures.
#
#######################################################################

data_QEDFUD
_chemical_formula_moiety         'C10 H9 N3 O2'
_chemical_name_systematic        1-benzyl-3-nitro-1H-pyrazole
_symmetry_cell_setting           orthorhombic
_symmetry_space_group_name_H-M   'P n a 21'
_symmetry_Int_Tables_number      33
_space_group_name_Hall           'P 2c -2n'
loop_
_symmetry_equiv_pos_site_id
_symmetry_equiv_pos_as_xyz
1 x,y,z
2 -x,-y,1/2+z
3 1/2+x,1/2-y,z
4 1/2-x,1/2+y,1/2+z
_cell_length_a                   21.142(2)
_cell_length_b                   4.2420(4)
_cell_length_c                   10.6198(10)
_cell_angle_alpha                90
_cell_angle_beta                 90
_cell_angle_gamma                90
_cell_volume                     952.43
_exptl_crystal_colour            colorless
_exptl_crystal_description       plate
_cell_formula_units_Z            4
loop_
_atom_site_label
_atom_site_type_symbol
_atom_site_fract_x
_atom_site_fract_y
_atom_site_fract_z
C1 C 0.54918(9) 0.8230(5) 0.61356(19)
C2 C 0.53813(10) 0.8420(5) 0.7418(2)
H1 H 0.5606 0.9598 0.8034
C3 C 0.48652(10) 0.6477(5) 0.7579(2)
H2 H 0.4661 0.6012 0.8354
C4 C 0.41493(10) 0.3421(5) 0.6127(2)
H3 H 0.4029 0.2148 0.6871
H4 H 0.4259 0.1953 0.5436
C5 C 0.35940(10) 0.5439(5) 0.57310(19)
C6 C 0.31589(11) 0.6466(5) 0.6626(2)
H5 H 0.3210 0.5896 0.7486
C7 C 0.26487(10) 0.8328(5) 0.6262(2)
H6 H 0.2350 0.9010 0.6873
C8 C 0.25738(10) 0.9187(5) 0.5020(3)
H7 H 0.2227 1.0472 0.4776
C9 C 0.30048(10) 0.8176(5) 0.4129(2)
H8 H 0.2954 0.8766 0.3272
C10 C 0.35132(10) 0.6291(5) 0.4487(2)
H9 H 0.3806 0.5586 0.3871
N1 N 0.50853(8) 0.6412(4) 0.55129(16)
N2 N 0.47044(8) 0.5361(4) 0.64370(16)
N3 N 0.59907(8) 0.9795(5) 0.54547(18)
O1 O 0.63191(7) 1.1659(4) 0.60542(17)
O2 O 0.60588(8) 0.9230(5) 0.43304(14)
loop_
_geom_bond_atom_site_label_1
_geom_bond_atom_site_label_2
_geom_bond_site_symmetry_1
_geom_bond_site_symmetry_2
C1 C2 1_555 1_555
C2 H1 1_555 1_555
C3 C2 1_555 1_555
H2 C3 1_555 1_555
C4 H3 1_555 1_555
H4 C4 1_555 1_555
C5 C4 1_555 1_555
C6 C5 1_555 1_555
H5 C6 1_555 1_555
C7 C6 1_555 1_555
H6 C7 1_555 1_555
C8 C7 1_555 1_555
H7 C8 1_555 1_555
C9 C8 1_555 1_555
H8 C9 1_555 1_555
C10 C5 1_555 1_555
H9 C10 1_555 1_555
N1 C1 1_555 1_555
N2 C3 1_555 1_555
N3 C1 1_555 1_555
O1 N3 1_555 1_555
O2 N3 1_555 1_555
C4 N2 1_555 1_555
C9 C10 1_555 1_555
N1 N2 1_555 1_555

#END
