
#######################################################################
#
#                 Cambridge Crystallographic Data Centre
#                                CCDC 
#
#######################################################################
#
# If this CIF has been generated from an entry in the Cambridge 
# Structural Database, then it will include bibliographic, chemical, 
# crystal, experimental, refinement or atomic coordinate data resulting 
# from the CCDC's data processing and validation procedures.
#
#######################################################################

data_QEDGUE
_chemical_formula_moiety         'C6 H9 N3 O2'
_chemical_name_systematic        3-nitro-1-(propan-2-yl)-1H-pyrazole
_symmetry_cell_setting           monoclinic
_symmetry_space_group_name_H-M   'C m'
_symmetry_Int_Tables_number      8
_space_group_name_Hall           'C -2y'
loop_
_symmetry_equiv_pos_site_id
_symmetry_equiv_pos_as_xyz
1 x,y,z
2 x,-y,z
3 1/2+x,1/2+y,z
4 1/2+x,1/2-y,z
_cell_length_a                   7.6930(2)
_cell_length_b                   6.6662(2)
_cell_length_c                   7.3655(2)
_cell_angle_alpha                90
_cell_angle_beta                 101.9002(12)
_cell_angle_gamma                90
_cell_volume                     369.608
_exptl_crystal_colour            colorless
_exptl_crystal_description       block
_cell_formula_units_Z            2
loop_
_atom_site_label
_atom_site_type_symbol
_atom_site_fract_x
_atom_site_fract_y
_atom_site_fract_z
C1 C -0.5505(4) -0.5000 -0.6232(4)
C2 C -0.4293(4) -0.5000 -0.7403(4)
H1 H -0.4523 -0.5000 -0.8721
C3 C -0.2681(4) -0.5000 -0.6173(4)
H2 H -0.1541 -0.5000 -0.6481
C4 C -0.1729(4) -0.5000 -0.2646(4)
H3 H -0.0505 -0.5000 -0.2910
C5 C -0.1952(3) -0.3106(3) -0.1573(3)
H4 H -0.1079 -0.3100 -0.0397
H5 H -0.3153 -0.3067 -0.1321
H6 H -0.1766 -0.1930 -0.2307
N1 N -0.4766(3) -0.5000 -0.4441(3)
N2 N -0.3024(3) -0.5000 -0.4441(3)
N3 N -0.7417(3) -0.5000 -0.6787(3)
O1 O -0.8062(3) -0.5000 -0.8458(3)
O2 O -0.8300(3) -0.5000 -0.5571(3)
C5A C -0.1952(3) -0.6894(3) -0.1573(3)
H4A H -0.1079 -0.6900 -0.0397
H5A H -0.3153 -0.6933 -0.1321
H6A H -0.1766 -0.8070 -0.2307
loop_
_geom_bond_atom_site_label_1
_geom_bond_atom_site_label_2
_geom_bond_site_symmetry_1
_geom_bond_site_symmetry_2
C1 C2 1_555 1_555
C2 H1 1_555 1_555
C3 C2 1_555 1_555
H2 C3 1_555 1_555
C4 H3 1_555 1_555
C5 C4 1_555 1_555
H4 C5 1_555 1_555
H5 C5 1_555 1_555
H6 C5 1_555 1_555
N1 C1 1_555 1_555
N2 C3 1_555 1_555
N3 C1 1_555 1_555
O1 N3 1_555 1_555
O2 N3 1_555 1_555
C5A C4 1_555 1_555
H4A C5A 1_555 1_555
H5A C5A 1_555 1_555
H6A C5A 1_555 1_555
C4 N2 1_555 1_555
N1 N2 1_555 1_555

#END
