
#######################################################################
#
#                 Cambridge Crystallographic Data Centre
#                                CCDC 
#
#######################################################################
#
# If this CIF has been generated from an entry in the Cambridge 
# Structural Database, then it will include bibliographic, chemical, 
# crystal, experimental, refinement or atomic coordinate data resulting 
# from the CCDC's data processing and validation procedures.
#
#######################################################################

data_QEDGAK
_chemical_formula_moiety         'C11 H9 N3 O3'
_chemical_name_systematic        
2-(3-nitro-1H-pyrazol-1-yl)-1-phenylethan-1-one
_symmetry_cell_setting           monoclinic
_symmetry_space_group_name_H-M   'P 21/c'
_symmetry_Int_Tables_number      14
_space_group_name_Hall           '-P 2ybc'
loop_
_symmetry_equiv_pos_site_id
_symmetry_equiv_pos_as_xyz
1 x,y,z
2 -x,1/2+y,1/2-z
3 -x,-y,-z
4 x,1/2-y,1/2+z
_cell_length_a                   9.1992(8)
_cell_length_b                   4.6213(3)
_cell_length_c                   25.2188(18)
_cell_angle_alpha                90
_cell_angle_beta                 93.384(4)
_cell_angle_gamma                90
_cell_volume                     1070.24
_exptl_crystal_colour            colorless
_exptl_crystal_description       plate
_cell_formula_units_Z            4
loop_
_atom_site_label
_atom_site_type_symbol
_atom_site_fract_x
_atom_site_fract_y
_atom_site_fract_z
C1 C 0.7387(3) 0.6775(6) 0.17112(10)
C2 C 0.8654(3) 0.5167(6) 0.16693(10)
H1 H 0.9349 0.5294 0.1406
C3 C 0.8654(3) 0.3359(6) 0.20982(11)
H2 H 0.9372 0.1949 0.2196
C4 C 0.7003(3) 0.2610(6) 0.28445(10)
H3 H 0.7228 0.0516 0.2836
H4 H 0.5939 0.2828 0.2869
C5 C 0.7791(3) 0.3979(6) 0.33313(11)
C6 C 0.7576(3) 0.2635(6) 0.38564(10)
C7 C 0.6505(3) 0.0571(6) 0.39289(11)
H5 H 0.5896 -0.0065 0.3634
C8 C 0.6322(3) -0.0559(7) 0.44293(12)
H6 H 0.5580 -0.1945 0.4479
C9 C 0.7228(3) 0.0340(7) 0.48588(12)
H7 H 0.7105 -0.0435 0.5202
C10 C 0.8302(3) 0.2347(8) 0.47878(12)
H8 H 0.8925 0.2930 0.5082
C11 C 0.8485(3) 0.3531(7) 0.42907(11)
H9 H 0.9221 0.4936 0.4245
N1 N 0.6641(2) 0.6089(5) 0.21312(9)
N2 N 0.7437(2) 0.3950(5) 0.23589(9)
N3 N 0.6834(3) 0.9017(5) 0.13559(9)
O1 O 0.5766(2) 1.0412(5) 0.14765(8)
O2 O 0.7475(2) 0.9394(5) 0.09461(8)
O3 O 0.8567(2) 0.6062(5) 0.32777(8)
loop_
_geom_bond_atom_site_label_1
_geom_bond_atom_site_label_2
_geom_bond_site_symmetry_1
_geom_bond_site_symmetry_2
C1 C2 1_555 1_555
C2 H1 1_555 1_555
C3 C2 1_555 1_555
H2 C3 1_555 1_555
C4 H3 1_555 1_555
H4 C4 1_555 1_555
C5 C4 1_555 1_555
C6 C5 1_555 1_555
C7 C6 1_555 1_555
H5 C7 1_555 1_555
C8 C7 1_555 1_555
H6 C8 1_555 1_555
C9 C8 1_555 1_555
H7 C9 1_555 1_555
C10 C9 1_555 1_555
H8 C10 1_555 1_555
C11 C6 1_555 1_555
H9 C11 1_555 1_555
N1 C1 1_555 1_555
N2 C3 1_555 1_555
N3 C1 1_555 1_555
O1 N3 1_555 1_555
O2 N3 1_555 1_555
O3 C5 1_555 1_555
C4 N2 1_555 1_555
C10 C11 1_555 1_555
N1 N2 1_555 1_555

#END
