
#######################################################################
#
#                 Cambridge Crystallographic Data Centre
#                                CCDC 
#
#######################################################################
#
# If this CIF has been generated from an entry in the Cambridge 
# Structural Database, then it will include bibliographic, chemical, 
# crystal, experimental, refinement or atomic coordinate data resulting 
# from the CCDC's data processing and validation procedures.
#
#######################################################################

data_QEDJUH
_chemical_formula_moiety         'C9 H5 N5 O2'
_chemical_name_systematic        
6-(3-nitro-1H-pyrazol-1-yl)pyridine-3-carbonitrile
_symmetry_cell_setting           monoclinic
_symmetry_space_group_name_H-M   'P 21/n'
_symmetry_Int_Tables_number      14
_space_group_name_Hall           '-P 2yn'
loop_
_symmetry_equiv_pos_site_id
_symmetry_equiv_pos_as_xyz
1 x,y,z
2 1/2-x,1/2+y,1/2-z
3 -x,-y,-z
4 1/2+x,1/2-y,1/2+z
_cell_length_a                   3.8200(3)
_cell_length_b                   13.4306(11)
_cell_length_c                   17.8756(14)
_cell_angle_alpha                90
_cell_angle_beta                 91.917(3)
_cell_angle_gamma                90
_cell_volume                     916.592
_exptl_crystal_colour            colorless
_exptl_crystal_description       needle
_cell_formula_units_Z            4
loop_
_atom_site_label
_atom_site_type_symbol
_atom_site_fract_x
_atom_site_fract_y
_atom_site_fract_z
C1 C 1.0518(5) 0.50001(16) 0.30086(12)
C2 C 1.0824(6) 0.42566(16) 0.24675(13)
H1 H 1.1890 0.4297 0.1996
C3 C 0.9223(6) 0.34606(17) 0.27816(12)
H2 H 0.8924 0.2819 0.2565
C4 C 0.6442(5) 0.31618(17) 0.39977(12)
C5 C 0.5715(6) 0.35310(17) 0.46975(13)
H3 H 0.6283 0.4196 0.4836
C6 C 0.4125(6) 0.28885(18) 0.51871(13)
H4 H 0.3552 0.3105 0.5674
C7 C 0.3380(5) 0.19200(17) 0.49542(12)
C8 C 0.4198(6) 0.16286(18) 0.42345(13)
H5 H 0.3651 0.0970 0.4077
C9 C 0.1793(6) 0.12224(18) 0.54499(13)
N1 N 0.8896(5) 0.47261(13) 0.36180(10)
N2 N 0.8129(5) 0.37580(13) 0.34654(10)
N3 N 0.5726(5) 0.22423(14) 0.37573(11)
N4 N 1.1863(5) 0.60012(14) 0.29531(10)
N5 N 0.0516(6) 0.06600(16) 0.58386(12)
O1 O 1.0949(5) 0.66330(13) 0.34024(10)
O2 O 1.3899(4) 0.61481(12) 0.24497(9)
loop_
_geom_bond_atom_site_label_1
_geom_bond_atom_site_label_2
_geom_bond_site_symmetry_1
_geom_bond_site_symmetry_2
C1 C2 1_555 1_555
C2 H1 1_555 1_555
C3 C2 1_555 1_555
H2 C3 1_555 1_555
C4 C5 1_555 1_555
C5 H3 1_555 1_555
C6 C5 1_555 1_555
H4 C6 1_555 1_555
C7 C6 1_555 1_555
C8 C7 1_555 1_555
H5 C8 1_555 1_555
C9 C7 1_555 1_555
N1 C1 1_555 1_555
N2 C3 1_555 1_555
N3 C4 1_555 1_555
N4 C1 1_555 1_555
N5 C9 1_555 1_555
O1 N4 1_555 1_555
O2 N4 1_555 1_555
C4 N2 1_555 1_555
C8 N3 1_555 1_555
N1 N2 1_555 1_555

#END
