
#######################################################################
#
#                 Cambridge Crystallographic Data Centre
#                                CCDC 
#
#######################################################################
#
# If this CIF has been generated from an entry in the Cambridge 
# Structural Database, then it will include bibliographic, chemical, 
# crystal, experimental, refinement or atomic coordinate data resulting 
# from the CCDC's data processing and validation procedures.
#
#######################################################################

data_QEDJER
_chemical_formula_moiety         'C10 H9 N3 O4 S1'
_chemical_name_systematic        
1-[4-(methylsulfonyl)phenyl]-3-nitro-1H-pyrazole
_symmetry_cell_setting           monoclinic
_symmetry_space_group_name_H-M   'P 2/c'
_symmetry_Int_Tables_number      13
_space_group_name_Hall           '-P 2yc'
loop_
_symmetry_equiv_pos_site_id
_symmetry_equiv_pos_as_xyz
1 x,y,z
2 -x,y,1/2-z
3 -x,-y,-z
4 x,-y,1/2+z
_cell_length_a                   13.7446(9)
_cell_length_b                   10.6979(7)
_cell_length_c                   16.3339(11)
_cell_angle_alpha                90
_cell_angle_beta                 110.4182(10)
_cell_angle_gamma                90
_cell_volume                     2250.81
_exptl_crystal_colour            colorless
_exptl_crystal_description       block
_cell_formula_units_Z            8
loop_
_atom_site_label
_atom_site_type_symbol
_atom_site_fract_x
_atom_site_fract_y
_atom_site_fract_z
C1 C 0.44448(19) 0.5658(2) 0.59207(16)
H1 H 0.4383 0.5115 0.5422
H2 H 0.5161 0.5638 0.6333
H3 H 0.4260 0.6516 0.5715
C2 C 0.23692(18) 0.51348(18) 0.56085(15)
C3 C 0.19187(17) 0.4023(2) 0.52186(14)
H4 H 0.2246 0.3246 0.5427
C4 C 0.09869(17) 0.4057(2) 0.45225(14)
H5 H 0.0666 0.3304 0.4253
C5 C 0.05233(18) 0.5208(2) 0.42204(15)
C6 C 0.09506(18) 0.6318(2) 0.46334(15)
H6 H 0.0610 0.7093 0.4440
C7 C 0.18811(17) 0.62768(19) 0.53315(14)
H7 H 0.2185 0.7026 0.5620
C8 C -0.16187(18) 0.4589(2) 0.23925(14)
C9 C -0.17541(19) 0.5873(2) 0.23595(15)
H8 H -0.2278 0.6354 0.1944
C10 C -0.09522(18) 0.6277(2) 0.30693(15)
H9 H -0.0801 0.7121 0.3250
N1 N -0.04049(15) 0.52500(17) 0.34734(13)
N2 N -0.08106(15) 0.41817(17) 0.30572(12)
N3 N -0.22445(15) 0.36872(19) 0.17737(12)
O1 O 0.38638(13) 0.38505(14) 0.67133(11)
O2 O 0.35985(12) 0.60305(15) 0.70974(10)
O3 O -0.19565(14) 0.25919(16) 0.18454(11)
O4 O -0.30217(13) 0.40847(18) 0.11929(11)
S1 S 0.36010(4) 0.51260(5) 0.64454(4)
C11 C 0.05426(19) 1.0475(2) 0.15413(16)
H10 H 0.0733 1.1329 0.1753
H11 H 0.0588 0.9928 0.2035
H12 H -0.0169 1.0468 0.1120
C12 C 0.26177(18) 0.98715(19) 0.18819(15)
C13 C 0.31207(18) 1.0974(2) 0.22501(14)
H13 H 0.2834 1.1759 0.2016
C14 C 0.40406(18) 1.0922(2) 0.29583(14)
H14 H 0.4382 1.1669 0.3221
C15 C 0.44577(17) 0.9757(2) 0.32795(14)
C16 C 0.39885(17) 0.86533(19) 0.28883(14)
H15 H 0.4302 0.7869 0.3094
C17 C 0.30534(17) 0.87150(19) 0.21907(14)
H16 H 0.2713 0.7969 0.1926
C18 C 0.66075(18) 1.0337(2) 0.51167(14)
C19 C 0.67435(19) 0.9049(2) 0.51253(15)
H17 H 0.7270 0.8559 0.5531
C20 C 0.59388(18) 0.8659(2) 0.44116(15)
H18 H 0.5789 0.7820 0.4218
N4 N 0.53855(15) 0.96960(17) 0.40241(12)
N5 N 0.57949(14) 1.07578(17) 0.44639(12)
N6 N 0.72389(15) 1.12241(19) 0.57463(12)
O5 O 0.14427(12) 1.08669(14) 0.04029(10)
O6 O 0.11077(13) 0.86835(14) 0.07204(11)
O7 O 0.69599(13) 1.23217(15) 0.56824(11)
O8 O 0.80165(13) 1.08159(17) 0.63207(11)
S2 S 0.13976(5) 0.99369(5) 0.10312(4)
loop_
_geom_bond_atom_site_label_1
_geom_bond_atom_site_label_2
_geom_bond_site_symmetry_1
_geom_bond_site_symmetry_2
C1 H1 1_555 1_555
H2 C1 1_555 1_555
H3 C1 1_555 1_555
C2 C3 1_555 1_555
C3 H4 1_555 1_555
C4 C3 1_555 1_555
H5 C4 1_555 1_555
C5 C4 1_555 1_555
C6 C5 1_555 1_555
H6 C6 1_555 1_555
C7 C2 1_555 1_555
H7 C7 1_555 1_555
C8 C9 1_555 1_555
C9 H8 1_555 1_555
C10 C9 1_555 1_555
H9 C10 1_555 1_555
N1 C5 1_555 1_555
N2 C8 1_555 1_555
N3 C8 1_555 1_555
O1 S1 1_555 1_555
O2 S1 1_555 1_555
O3 N3 1_555 1_555
O4 N3 1_555 1_555
S1 C1 1_555 1_555
C11 H10 1_555 1_555
H11 C11 1_555 1_555
H12 C11 1_555 1_555
C12 C13 1_555 1_555
C13 H13 1_555 1_555
C14 C13 1_555 1_555
H14 C14 1_555 1_555
C15 C14 1_555 1_555
C16 C15 1_555 1_555
H15 C16 1_555 1_555
C17 C12 1_555 1_555
H16 C17 1_555 1_555
C18 C19 1_555 1_555
C19 H17 1_555 1_555
C20 C19 1_555 1_555
H18 C20 1_555 1_555
N4 C15 1_555 1_555
N5 C18 1_555 1_555
N6 C18 1_555 1_555
O5 S2 1_555 1_555
O6 S2 1_555 1_555
O7 N6 1_555 1_555
O8 N6 1_555 1_555
S2 C11 1_555 1_555
C2 S1 1_555 1_555
C6 C7 1_555 1_555
C10 N1 1_555 1_555
N1 N2 1_555 1_555
C12 S2 1_555 1_555
C16 C17 1_555 1_555
C20 N4 1_555 1_555
N4 N5 1_555 1_555

#END
