
#######################################################################
#
#                 Cambridge Crystallographic Data Centre
#                                CCDC 
#
#######################################################################
#
# If this CIF has been generated from an entry in the Cambridge 
# Structural Database, then it will include bibliographic, chemical, 
# crystal, experimental, refinement or atomic coordinate data resulting 
# from the CCDC's data processing and validation procedures.
#
#######################################################################

data_QEDKAO
_chemical_formula_moiety         'C9 H5 N5 O2'
_chemical_name_systematic        
5-(3-nitro-1H-pyrazol-1-yl)pyridine-2-carbonitrile
_symmetry_cell_setting           orthorhombic
_symmetry_space_group_name_H-M   'P b c a'
_symmetry_Int_Tables_number      61
_space_group_name_Hall           '-P 2ac 2ab'
loop_
_symmetry_equiv_pos_site_id
_symmetry_equiv_pos_as_xyz
1 x,y,z
2 1/2-x,-y,1/2+z
3 1/2+x,1/2-y,-z
4 -x,1/2+y,1/2-z
5 -x,-y,-z
6 1/2+x,y,1/2-z
7 1/2-x,1/2+y,z
8 x,1/2-y,1/2+z
_cell_length_a                   6.9695(2)
_cell_length_b                   11.9143(3)
_cell_length_c                   22.1069(6)
_cell_angle_alpha                90
_cell_angle_beta                 90
_cell_angle_gamma                90
_cell_volume                     1835.68
_exptl_crystal_colour            colorless
_exptl_crystal_description       needle
_cell_formula_units_Z            8
loop_
_atom_site_label
_atom_site_type_symbol
_atom_site_fract_x
_atom_site_fract_y
_atom_site_fract_z
C1 C 0.0008(2) 0.67264(13) 0.32039(6)
C2 C 0.0009(2) 0.57294(14) 0.28736(7)
H1 H -0.0409 0.5610 0.2470
C3 C 0.0754(2) 0.49675(13) 0.32690(7)
H2 H 0.0965 0.4192 0.3193
C4 C 0.2248(2) 0.39450(13) 0.43995(6)
H3 H 0.2064 0.3476 0.4057
C5 C 0.1850(2) 0.50883(12) 0.43484(6)
C6 C 0.2117(2) 0.57880(12) 0.48415(6)
H4 H 0.1854 0.6569 0.4815
C7 C 0.2779(2) 0.53166(12) 0.53747(6)
H5 H 0.2986 0.5766 0.5724
C8 C 0.3132(2) 0.41727(12) 0.53868(6)
C9 C 0.3868(2) 0.36181(13) 0.59244(7)
N1 N 0.06817(17) 0.66291(10) 0.37601(5)
N2 N 0.11413(17) 0.55275(10) 0.37943(5)
N3 N 0.28742(18) 0.34890(11) 0.49109(5)
N4 N -0.06978(18) 0.78027(11) 0.30048(5)
N5 N 0.4472(2) 0.31551(13) 0.63378(6)
O1 O -0.16584(17) 0.78070(10) 0.25389(5)
O2 O -0.03126(17) 0.86408(9) 0.33055(5)
loop_
_geom_bond_atom_site_label_1
_geom_bond_atom_site_label_2
_geom_bond_site_symmetry_1
_geom_bond_site_symmetry_2
C1 C2 1_555 1_555
C2 H1 1_555 1_555
C3 C2 1_555 1_555
H2 C3 1_555 1_555
C4 H3 1_555 1_555
C5 C4 1_555 1_555
C6 C5 1_555 1_555
H4 C6 1_555 1_555
C7 C6 1_555 1_555
H5 C7 1_555 1_555
C8 C7 1_555 1_555
C9 C8 1_555 1_555
N1 C1 1_555 1_555
N2 C3 1_555 1_555
N3 C4 1_555 1_555
N4 C1 1_555 1_555
N5 C9 1_555 1_555
O1 N4 1_555 1_555
O2 N4 1_555 1_555
C5 N2 1_555 1_555
C8 N3 1_555 1_555
N1 N2 1_555 1_555

#END
