
#######################################################################
#
#                 Cambridge Crystallographic Data Centre
#                                CCDC 
#
#######################################################################
#
# If this CIF has been generated from an entry in the Cambridge 
# Structural Database, then it will include bibliographic, chemical, 
# crystal, experimental, refinement or atomic coordinate data resulting 
# from the CCDC's data processing and validation procedures.
#
#######################################################################

data_QEDKOC
_chemical_formula_moiety         'C7 H4 Br1 N5 O2'
_chemical_name_systematic        5-bromo-2-(3-nitro-1H-pyrazol-1-yl)pyrimidine
_symmetry_cell_setting           monoclinic
_symmetry_space_group_name_H-M   'P 21/n'
_symmetry_Int_Tables_number      14
_space_group_name_Hall           '-P 2yn'
loop_
_symmetry_equiv_pos_site_id
_symmetry_equiv_pos_as_xyz
1 x,y,z
2 1/2-x,1/2+y,1/2-z
3 -x,-y,-z
4 1/2+x,1/2-y,1/2+z
_cell_length_a                   5.9065(2)
_cell_length_b                   23.8475(7)
_cell_length_c                   6.5610(2)
_cell_angle_alpha                90
_cell_angle_beta                 106.4764(9)
_cell_angle_gamma                90
_cell_volume                     886.203
_exptl_crystal_colour            colorless
_exptl_crystal_description       needle
_cell_formula_units_Z            4
loop_
_atom_site_label
_atom_site_type_symbol
_atom_site_fract_x
_atom_site_fract_y
_atom_site_fract_z
C1 C 0.6088(3) 0.80299(8) 0.6504(3)
C2 C 0.8326(3) 0.78881(8) 0.6318(3)
H1 H 0.9560 0.8131 0.6208
C3 C 0.8297(3) 0.73161(8) 0.6336(3)
H2 H 0.9541 0.7073 0.6249
C4 C 0.5322(3) 0.66044(8) 0.6663(3)
C5 C 0.6284(4) 0.56946(8) 0.7304(3)
H3 H 0.7411 0.5400 0.7611
C6 C 0.3940(3) 0.55741(8) 0.7076(3)
C7 C 0.2347(3) 0.60117(8) 0.6599(3)
H4 H 0.0723 0.5937 0.6422
N1 N 0.4715(3) 0.76013(7) 0.6611(3)
N2 N 0.6116(3) 0.71597(7) 0.6503(2)
N3 N 0.7003(3) 0.62180(7) 0.7102(3)
N4 N 0.3021(3) 0.65379(7) 0.6379(3)
N5 N 0.5225(3) 0.85928(7) 0.6645(3)
O1 O 0.6483(3) 0.89806(6) 0.6393(2)
O2 O 0.3317(2) 0.86519(6) 0.7030(2)
Br1 Br 0.29135(3) 0.48418(2) 0.74015(3)
loop_
_geom_bond_atom_site_label_1
_geom_bond_atom_site_label_2
_geom_bond_site_symmetry_1
_geom_bond_site_symmetry_2
C1 C2 1_555 1_555
C2 H1 1_555 1_555
C3 C2 1_555 1_555
H2 C3 1_555 1_555
C4 N2 1_555 1_555
C5 H3 1_555 1_555
C6 C5 1_555 1_555
C7 C6 1_555 1_555
H4 C7 1_555 1_555
N1 C1 1_555 1_555
N2 C3 1_555 1_555
N3 C4 1_555 1_555
N4 C4 1_555 1_555
N5 C1 1_555 1_555
O1 N5 1_555 1_555
O2 N5 1_555 1_555
Br1 C6 1_555 1_555
C5 N3 1_555 1_555
C7 N4 1_555 1_555
N1 N2 1_555 1_555

#END
