
#######################################################################
#
#                 Cambridge Crystallographic Data Centre
#                                CCDC 
#
#######################################################################
#
# If this CIF has been generated from an entry in the Cambridge 
# Structural Database, then it will include bibliographic, chemical, 
# crystal, experimental, refinement or atomic coordinate data resulting 
# from the CCDC's data processing and validation procedures.
#
#######################################################################

data_QEDKIW
_chemical_formula_moiety         'C8 H5 I1 N4 O2'
_chemical_name_systematic        4-iodo-2-(3-nitro-1H-pyrazol-1-yl)pyridine
_symmetry_cell_setting           monoclinic
_symmetry_space_group_name_H-M   'P 21/n'
_symmetry_Int_Tables_number      14
_space_group_name_Hall           '-P 2yn'
loop_
_symmetry_equiv_pos_site_id
_symmetry_equiv_pos_as_xyz
1 x,y,z
2 1/2-x,1/2+y,1/2-z
3 -x,-y,-z
4 1/2+x,1/2-y,1/2+z
_cell_length_a                   16.8784(2)
_cell_length_b                   6.79041(10)
_cell_length_c                   17.2448(3)
_cell_angle_alpha                90
_cell_angle_beta                 105.8345(8)
_cell_angle_gamma                90
_cell_volume                     1901.45
_exptl_crystal_colour            colorless
_exptl_crystal_description       block
_cell_formula_units_Z            8
loop_
_atom_site_label
_atom_site_type_symbol
_atom_site_fract_x
_atom_site_fract_y
_atom_site_fract_z
C1 C 0.5989(2) 0.1701(6) 0.3762(2)
H1 H 0.6172 0.1404 0.4321
C2 C 0.6559(2) 0.1632(6) 0.3319(2)
H2 H 0.7120 0.1333 0.3571
C3 C 0.6289(2) 0.2012(5) 0.2495(2)
C4 C 0.5467(2) 0.2484(5) 0.2147(2)
H3 H 0.5262 0.2757 0.1587
C5 C 0.4962(2) 0.2534(5) 0.2661(2)
C6 C 0.3015(2) 0.3814(6) 0.1523(2)
C7 C 0.2794(2) 0.3446(6) 0.2233(2)
H4 H 0.2266 0.3544 0.2327
C8 C 0.3522(2) 0.2914(6) 0.2758(2)
H5 H 0.3604 0.2555 0.3307
N1 N 0.5192(2) 0.2163(5) 0.34481(19)
N2 N 0.41096(19) 0.2990(5) 0.23556(19)
N3 N 0.38059(19) 0.3547(5) 0.15782(19)
N4 N 0.24783(19) 0.4499(5) 0.0772(2)
O1 O 0.27459(17) 0.4668(5) 0.01856(17)
O2 O 0.17653(17) 0.4891(4) 0.07680(17)
I1 I 0.70936(2) 0.18069(4) 0.17745(2)
C9 C 0.6177(2) 0.1505(6) 0.8531(2)
H6 H 0.6731 0.1070 0.8722
C10 C 0.5741(2) 0.1782(6) 0.9087(2)
H7 H 0.5984 0.1549 0.9645
C11 C 0.4922(2) 0.2423(6) 0.8801(2)
C12 C 0.4581(2) 0.2698(5) 0.7986(2)
H8 H 0.4022 0.3080 0.7772
C13 C 0.5097(2) 0.2387(5) 0.7494(2)
C14 C 0.3984(2) 0.3531(6) 0.5557(2)
C15 C 0.4690(2) 0.2917(6) 0.5351(2)
H9 H 0.4785 0.2868 0.4833
C16 C 0.5210(2) 0.2403(6) 0.6078(2)
H10 H 0.5756 0.1916 0.6171
N5 N 0.5876(2) 0.1804(5) 0.7736(2)
N6 N 0.47993(19) 0.2720(5) 0.66473(19)
N7 N 0.40295(19) 0.3416(5) 0.63337(19)
N8 N 0.32460(19) 0.4340(5) 0.50158(19)
O3 O 0.32777(18) 0.4738(5) 0.43237(17)
O4 O 0.26410(17) 0.4631(5) 0.52617(17)
I2 I 0.41946(2) 0.28611(4) 0.95911(2)
loop_
_geom_bond_atom_site_label_1
_geom_bond_atom_site_label_2
_geom_bond_site_symmetry_1
_geom_bond_site_symmetry_2
C1 H1 1_555 1_555
C2 C1 1_555 1_555
H2 C2 1_555 1_555
C3 C2 1_555 1_555
C4 C3 1_555 1_555
H3 C4 1_555 1_555
C5 C4 1_555 1_555
C6 C7 1_555 1_555
C7 H4 1_555 1_555
C8 C7 1_555 1_555
H5 C8 1_555 1_555
N1 C1 1_555 1_555
N2 C5 1_555 1_555
N3 C6 1_555 1_555
N4 C6 1_555 1_555
O1 N4 1_555 1_555
O2 N4 1_555 1_555
I1 C3 1_555 1_555
C9 H6 1_555 1_555
C10 C9 1_555 1_555
H7 C10 1_555 1_555
C11 C10 1_555 1_555
C12 C11 1_555 1_555
H8 C12 1_555 1_555
C13 C12 1_555 1_555
C14 C15 1_555 1_555
C15 H9 1_555 1_555
C16 C15 1_555 1_555
H10 C16 1_555 1_555
N5 C9 1_555 1_555
N6 C13 1_555 1_555
N7 C14 1_555 1_555
N8 C14 1_555 1_555
O3 N8 1_555 1_555
O4 N8 1_555 1_555
I2 C11 1_555 1_555
C5 N1 1_555 1_555
C8 N2 1_555 1_555
N2 N3 1_555 1_555
C13 N5 1_555 1_555
C16 N6 1_555 1_555
N6 N7 1_555 1_555

#END
