
#######################################################################
#
#                 Cambridge Crystallographic Data Centre
#                                CCDC 
#
#######################################################################
#
# If this CIF has been generated from an entry in the Cambridge 
# Structural Database, then it will include bibliographic, chemical, 
# crystal, experimental, refinement or atomic coordinate data resulting 
# from the CCDC's data processing and validation procedures.
#
#######################################################################

data_QEDLEQ
_chemical_compound_source        'Briareum excavatum'
_chemical_formula_moiety         'C33 H46 O13'
_chemical_name_systematic        'Excavatolide U'
_chemical_properties_biological  
'negative cytotoxic activity against P-388 KB A549 and HT-29 cancer cells'
_symmetry_cell_setting           orthorhombic
_symmetry_space_group_name_H-M   'P 21 21 21'
_symmetry_Int_Tables_number      19
_space_group_name_Hall           'P 2ac 2ab'
loop_
_symmetry_equiv_pos_site_id
_symmetry_equiv_pos_as_xyz
1 x,y,z
2 1/2-x,-y,1/2+z
3 1/2+x,1/2-y,-z
4 -x,1/2+y,1/2-z
_cell_length_a                   11.169(1)
_cell_length_b                   15.072(2)
_cell_length_c                   20.123(2)
_cell_angle_alpha                90
_cell_angle_beta                 90
_cell_angle_gamma                90
_cell_volume                     3387.49
_exptl_crystal_colour            colorless
_exptl_crystal_description       prism
_chemical_melting_point          169-170deg.C
_cell_formula_units_Z            4
_exptl_crystal_recrystallization_method 'ethyl acetate'
loop_
_atom_site_label
_atom_site_type_symbol
_atom_site_fract_x
_atom_site_fract_y
_atom_site_fract_z
O1 O 1.0133(5) 0.5321(4) 0.9060(3)
O2 O 1.1579(7) 0.5417(5) 0.8261(3)
O3 O 1.0661(5) 0.3550(4) 0.8805(3)
O4 O 1.0361(6) 0.3180(6) 0.7721(3)
O5 O 0.6220(5) 0.4085(4) 1.1029(3)
O6 O 0.4733(5) 0.4722(5) 1.1609(3)
O7 O 0.5087(5) 0.4775(4) 0.9945(3)
O8 O 0.8152(5) 0.5714(3) 0.9874(2)
O9 O 0.7682(6) 0.7136(4) 1.0074(4)
O10 O 0.4580(5) 0.5167(5) 0.7554(3)
O11 O 0.4606(8) 0.3858(7) 0.7018(4)
O12 O 0.7837(5) 0.3982(4) 0.7714(3)
O13 O 0.8025(8) 0.3939(5) 0.6596(3)
C1 C 0.8178(7) 0.5290(5) 0.8408(4)
C2 C 0.9402(7) 0.4805(6) 0.8604(4)
C3 C 0.9401(7) 0.3838(6) 0.8865(4)
C4 C 0.9096(7) 0.3688(5) 0.9612(4)
C5 C 0.7991(9) 0.3138(6) 0.9717(4)
C6 C 0.7076(8) 0.3374(6) 1.0080(4)
C7 C 0.6951(8) 0.4244(6) 1.0452(4)
C8 C 0.6309(8) 0.4983(6) 1.0092(4)
C9 C 0.6961(8) 0.5542(5) 0.9586(4)
C10 C 0.7029(7) 0.5129(5) 0.8875(4)
C11 C 0.5782(7) 0.5385(6) 0.8552(4)
C12 C 0.5737(8) 0.4964(6) 0.7843(4)
C13 C 0.6715(8) 0.5277(6) 0.7411(4)
C14 C 0.7895(8) 0.4953(7) 0.7691(4)
C15 C 0.8501(8) 0.6288(6) 0.8345(4)
C16 C 0.8042(9) 0.2213(5) 0.9398(4)
C17 C 0.5383(8) 0.5312(6) 1.0528(4)
C18 C 0.4825(8) 0.6219(7) 1.0575(5)
C19 C 0.5363(8) 0.4722(7) 1.1125(5)
C20 C 0.5464(8) 0.6379(7) 0.8513(4)
C21 C 1.127(1) 0.5508(7) 0.8814(6)
C22 C 1.2025(9) 0.5871(7) 0.9368(5)
C23 C 1.0989(9) 0.3230(7) 0.8195(5)
C24 C 1.228(1) 0.2856(7) 0.8218(5)
C25 C 1.3077(9) 0.3320(7) 0.8659(5)
C26 C 1.4358(8) 0.2801(7) 0.8665(5)
C27 C 0.8344(9) 0.6533(6) 1.0145(5)
C28 C 0.9506(9) 0.6545(6) 1.0522(5)
C29 C 0.412(1) 0.453(1) 0.7142(6)
C30 C 0.300(1) 0.494(1) 0.6825(5)
C31 C 0.311(1) 0.514(1) 0.6185(7)
C32 C 0.792(1) 0.3574(8) 0.7115(5)
C33 C 0.7751(9) 0.2607(7) 0.7234(5)
H1 H 0.9851 0.4784 0.8203
H2 H 0.8903 0.3478 0.8594
H3 H 0.9753 0.3396 0.9817
H4 H 0.8978 0.4250 0.9816
H5 H 0.6432 0.2965 1.0115
H6 H 0.7719 0.4444 1.0588
H7 H 0.6554 0.6093 0.9552
H8 H 0.6995 0.4505 0.8941
H9 H 0.5176 0.5105 0.8809
H10 H 0.5803 0.4338 0.7887
H11 H 0.6608 0.5049 0.6975
H12 H 0.6713 0.5907 0.7397
H13 H 0.8524 0.5126 0.7401
H14 H 0.8677 0.6522 0.8772
H15 H 0.9180 0.6352 0.8065
H16 H 0.7843 0.6600 0.8159
H17 H 0.8010 0.1774 0.9736
H18 H 0.7380 0.2141 0.9106
H19 H 0.8766 0.2153 0.9155
H20 H 0.5081 0.6500 1.0974
H21 H 0.5066 0.6566 1.0205
H22 H 0.3978 0.6165 1.0578
H23 H 0.5498 0.6632 0.8945
H24 H 0.6020 0.6673 0.8231
H25 H 0.4679 0.6446 0.8338
H26 H 1.2082 0.5443 0.9713
H27 H 1.2803 0.6004 0.9205
H28 H 1.1666 0.6396 0.9537
H29 H 1.2244 0.2254 0.8357
H30 H 1.2609 0.2885 0.7783
H31 H 1.3187 0.3911 0.8508
H32 H 1.2749 0.3328 0.9095
H33 H 1.4244 0.2211 0.8818
H34 H 1.4678 0.2789 0.8227
H35 H 1.4899 0.3101 0.8952
H36 H 0.9478 0.6117 1.0868
H37 H 1.0146 0.6407 1.0228
H38 H 0.9629 0.7117 1.0707
H39 H 0.2359 0.4523 0.6866
H40 H 0.2803 0.5462 0.7062
H41 H 0.3746 0.5560 0.6134
H42 H 0.3293 0.4623 0.5938
H43 H 0.2389 0.5396 0.6027
H44 H 0.6984 0.2509 0.7424
H45 H 0.7809 0.2297 0.6825
H46 H 0.8351 0.2399 0.7530
loop_
_geom_bond_atom_site_label_1
_geom_bond_atom_site_label_2
_geom_bond_site_symmetry_1
_geom_bond_site_symmetry_2
O1 C2 1_555 1_555
O2 C21 1_555 1_555
O3 C3 1_555 1_555
O4 C23 1_555 1_555
O5 C7 1_555 1_555
O6 C19 1_555 1_555
O7 C8 1_555 1_555
O8 C9 1_555 1_555
O9 C27 1_555 1_555
O10 C12 1_555 1_555
O11 C29 1_555 1_555
O12 C14 1_555 1_555
O13 C32 1_555 1_555
C1 C2 1_555 1_555
C2 C3 1_555 1_555
C3 C4 1_555 1_555
C4 C5 1_555 1_555
C5 C6 1_555 1_555
C6 C7 1_555 1_555
C7 C8 1_555 1_555
C8 C9 1_555 1_555
C9 C10 1_555 1_555
C10 C1 1_555 1_555
C11 C10 1_555 1_555
C12 C11 1_555 1_555
C13 C12 1_555 1_555
C14 C1 1_555 1_555
C15 C1 1_555 1_555
C16 C5 1_555 1_555
C17 O7 1_555 1_555
C18 C17 1_555 1_555
C19 O5 1_555 1_555
C20 C11 1_555 1_555
C21 O1 1_555 1_555
C22 C21 1_555 1_555
C23 O3 1_555 1_555
C24 C23 1_555 1_555
C25 C24 1_555 1_555
C26 C25 1_555 1_555
C27 O8 1_555 1_555
C28 C27 1_555 1_555
C29 O10 1_555 1_555
C30 C29 1_555 1_555
C31 C30 1_555 1_555
C32 O12 1_555 1_555
C33 C32 1_555 1_555
H1 C2 1_555 1_555
H2 C3 1_555 1_555
H3 C4 1_555 1_555
H4 C4 1_555 1_555
H5 C6 1_555 1_555
H6 C7 1_555 1_555
H7 C9 1_555 1_555
H8 C10 1_555 1_555
H9 C11 1_555 1_555
H10 C12 1_555 1_555
H11 C13 1_555 1_555
H12 C13 1_555 1_555
H13 C14 1_555 1_555
H14 C15 1_555 1_555
H15 C15 1_555 1_555
H16 C15 1_555 1_555
H17 C16 1_555 1_555
H18 C16 1_555 1_555
H19 C16 1_555 1_555
H20 C18 1_555 1_555
H21 C18 1_555 1_555
H22 C18 1_555 1_555
H23 C20 1_555 1_555
H24 C20 1_555 1_555
H25 C20 1_555 1_555
H26 C22 1_555 1_555
H27 C22 1_555 1_555
H28 C22 1_555 1_555
H29 C24 1_555 1_555
H30 C24 1_555 1_555
H31 C25 1_555 1_555
H32 C25 1_555 1_555
H33 C26 1_555 1_555
H34 C26 1_555 1_555
H35 C26 1_555 1_555
H36 C28 1_555 1_555
H37 C28 1_555 1_555
H38 C28 1_555 1_555
H39 C30 1_555 1_555
H40 C30 1_555 1_555
H41 C31 1_555 1_555
H42 C31 1_555 1_555
H43 C31 1_555 1_555
H44 C33 1_555 1_555
H45 C33 1_555 1_555
H46 C33 1_555 1_555
C8 C17 1_555 1_555
C13 C14 1_555 1_555
C17 C19 1_555 1_555

#END
