
#######################################################################
#
#                 Cambridge Crystallographic Data Centre
#                                CCDC 
#
#######################################################################
#
# If this CIF has been generated from an entry in the Cambridge 
# Structural Database, then it will include bibliographic, chemical, 
# crystal, experimental, refinement or atomic coordinate data resulting 
# from the CCDC's data processing and validation procedures.
#
#######################################################################

data_QEDRID
_chemical_formula_moiety         'C27 H23 N1 O2'
_chemical_name_systematic        
N-(2-hydroxyphenyl)-1^4^,3^4^-dimethyl[1^1^,2^1^:2^3^,3^1^-terphenyl]-2^2^-carboxamide
_symmetry_cell_setting           monoclinic
_symmetry_space_group_name_H-M   'P 21/n'
_symmetry_Int_Tables_number      14
_space_group_name_Hall           '-P 2yn'
loop_
_symmetry_equiv_pos_site_id
_symmetry_equiv_pos_as_xyz
1 x,y,z
2 1/2-x,1/2+y,1/2-z
3 -x,-y,-z
4 1/2+x,1/2-y,1/2+z
_cell_length_a                   10.181(2)
_cell_length_b                   11.283(2)
_cell_length_c                   18.953(4)
_cell_angle_alpha                90
_cell_angle_beta                 99.67(3)
_cell_angle_gamma                90
_cell_volume                     2146.24
_exptl_crystal_colour            colorless
_exptl_crystal_description       block
_cell_formula_units_Z            4
loop_
_atom_site_label
_atom_site_type_symbol
_atom_site_fract_x
_atom_site_fract_y
_atom_site_fract_z
O1 O 0.00781(10) 0.38134(8) 0.22169(6)
O2 O 0.34923(13) 0.67905(11) 0.25553(8)
H1 H 0.4075 0.7275 0.2515
N1 N 0.14431(11) 0.54270(10) 0.23319(6)
H2 H 0.1474 0.6152 0.2473
C1 C 0.13741(16) 0.40666(17) 0.39149(9)
H3 H 0.1837 0.4642 0.3705
C2 C 0.20615(17) 0.31139(17) 0.42582(9)
H4 H 0.2975 0.3055 0.4265
C3 C 0.14284(18) 0.22514(16) 0.45898(8)
C4 C 0.00717(18) 0.23793(16) 0.45731(9)
H5 H -0.0380 0.1819 0.4801
C5 C -0.06280(17) 0.33208(15) 0.42257(9)
H6 H -0.1539 0.3381 0.4225
C6 C 0.00069(15) 0.41784(14) 0.38784(8)
C7 C 0.2176(2) 0.11966(18) 0.49318(11)
H7 H 0.1727 0.0887 0.5299
H8 H 0.3064 0.1430 0.5139
H9 H 0.2215 0.0597 0.4576
C8 C -0.07644(14) 0.51765(13) 0.34936(8)
C9 C -0.16729(17) 0.57990(15) 0.38249(9)
H10 H -0.1801 0.5577 0.4281
C10 C -0.23841(17) 0.67373(16) 0.34899(10)
H11 H -0.3003 0.7127 0.3716
C11 C -0.21866(15) 0.71036(14) 0.28216(9)
H12 H -0.2657 0.7751 0.2606
C12 C -0.12878(14) 0.65110(12) 0.24673(8)
C13 C -0.05954(13) 0.55332(12) 0.28016(8)
C14 C -0.07825(16) 0.81135(13) 0.16482(9)
H13 H -0.0655 0.8624 0.2039
C15 C -0.06476(17) 0.85365(15) 0.09807(10)
H14 H -0.0425 0.9328 0.0931
C16 C -0.08350(17) 0.78126(16) 0.03854(9)
C17 C -0.11482(18) 0.66406(15) 0.04824(9)
H15 H -0.1274 0.6132 0.0091
C18 C -0.12788(17) 0.62055(14) 0.11483(9)
H16 H -0.1485 0.5410 0.1197
C19 C -0.11070(14) 0.69350(13) 0.17426(8)
C20 C -0.0705(3) 0.8285(2) -0.03450(11)
H17 H -0.1526 0.8655 -0.0557
H18 H -0.0508 0.7644 -0.0644
H19 H 0.0002 0.8857 -0.0299
C21 C 0.26473(17) 0.40091(14) 0.16699(9)
H20 H 0.1925 0.3493 0.1588
C22 C 0.3814(2) 0.37381(17) 0.14152(10)
H21 H 0.3875 0.3034 0.1167
C23 C 0.48732(18) 0.44998(18) 0.15267(10)
H22 H 0.5647 0.4316 0.1350
C24 C 0.47997(16) 0.55374(18) 0.19002(9)
H23 H 0.5521 0.6054 0.1974
C25 C 0.36599(15) 0.58077(14) 0.21642(8)
C26 C 0.25647(13) 0.50471(12) 0.20451(7)
C27 C 0.03332(13) 0.48376(12) 0.24198(7)
loop_
_geom_bond_atom_site_label_1
_geom_bond_atom_site_label_2
_geom_bond_site_symmetry_1
_geom_bond_site_symmetry_2
O1 C27 1_555 1_555
O2 H1 1_555 1_555
N1 H2 1_555 1_555
C1 H3 1_555 1_555
C2 C1 1_555 1_555
H4 C2 1_555 1_555
C3 C2 1_555 1_555
C4 C3 1_555 1_555
H5 C4 1_555 1_555
C5 C4 1_555 1_555
H6 C5 1_555 1_555
C6 C1 1_555 1_555
C7 C3 1_555 1_555
H7 C7 1_555 1_555
H8 C7 1_555 1_555
H9 C7 1_555 1_555
C8 C6 1_555 1_555
C9 C8 1_555 1_555
H10 C9 1_555 1_555
C10 C9 1_555 1_555
H11 C10 1_555 1_555
C11 C10 1_555 1_555
H12 C11 1_555 1_555
C12 C11 1_555 1_555
C13 C8 1_555 1_555
C14 H13 1_555 1_555
C15 C14 1_555 1_555
H14 C15 1_555 1_555
C16 C15 1_555 1_555
C17 C16 1_555 1_555
H15 C17 1_555 1_555
C18 C17 1_555 1_555
H16 C18 1_555 1_555
C19 C12 1_555 1_555
C20 C16 1_555 1_555
H17 C20 1_555 1_555
H18 C20 1_555 1_555
H19 C20 1_555 1_555
C21 H20 1_555 1_555
C22 C21 1_555 1_555
H21 C22 1_555 1_555
C23 C22 1_555 1_555
H22 C23 1_555 1_555
C24 C23 1_555 1_555
H23 C24 1_555 1_555
C25 O2 1_555 1_555
C26 N1 1_555 1_555
C27 N1 1_555 1_555
C5 C6 1_555 1_555
C12 C13 1_555 1_555
C13 C27 1_555 1_555
C14 C19 1_555 1_555
C18 C19 1_555 1_555
C21 C26 1_555 1_555
C24 C25 1_555 1_555
C25 C26 1_555 1_555

#END
