
#######################################################################
#
#                 Cambridge Crystallographic Data Centre
#                                CCDC 
#
#######################################################################
#
# If this CIF has been generated from an entry in the Cambridge 
# Structural Database, then it will include bibliographic, chemical, 
# crystal, experimental, refinement or atomic coordinate data resulting 
# from the CCDC's data processing and validation procedures.
#
#######################################################################

data_QEDRAV
_chemical_formula_moiety         'C31 H19 N1'
_chemical_name_systematic        8,9-diphenylphenaleno[1,9-gh]quinoline
_symmetry_cell_setting           triclinic
_symmetry_space_group_name_H-M   'P -1'
_symmetry_Int_Tables_number      2
_space_group_name_Hall           '-P 1'
loop_
_symmetry_equiv_pos_site_id
_symmetry_equiv_pos_as_xyz
1 x,y,z
2 -x,-y,-z
_cell_length_a                   7.260(3)
_cell_length_b                   9.935(4)
_cell_length_c                   14.865(6)
_cell_angle_alpha                94.186(12)
_cell_angle_beta                 102.936(11)
_cell_angle_gamma                99.694(12)
_cell_volume                     1023.19
_exptl_crystal_colour            yellow
_exptl_crystal_description       Block
_cell_formula_units_Z            2
loop_
_atom_site_label
_atom_site_type_symbol
_atom_site_fract_x
_atom_site_fract_y
_atom_site_fract_z
C1 C 0.7887(5) 0.9204(4) 0.2988(2)
C2 C 0.7840(5) 1.0267(4) 0.2434(3)
H1 H 0.7981 1.0123 0.1830
C3 C 0.7586(5) 1.1547(4) 0.2774(3)
H2 H 0.7542 1.2248 0.2393
C4 C 0.7400(5) 1.1781(4) 0.3664(3)
H3 H 0.7231 1.2643 0.3879
C5 C 0.7460(4) 1.0755(3) 0.4257(2)
C6 C 0.7678(4) 0.9435(3) 0.3907(2)
C7 C 0.7703(4) 0.8354(3) 0.4495(2)
C8 C 0.7510(4) 0.8595(3) 0.5410(2)
C9 C 0.7341(4) 0.9943(3) 0.5755(2)
H4 H 0.7245 1.0120 0.6364
C10 C 0.7322(5) 1.0962(3) 0.5194(2)
H5 H 0.7215 1.1829 0.5432
C11 C 0.8133(5) 0.7855(4) 0.2658(3)
H6 H 0.8284 0.7692 0.2057
C12 C 0.8147(5) 0.6843(4) 0.3196(2)
H7 H 0.8306 0.5990 0.2957
C13 C 0.7926(5) 0.7013(4) 0.4133(2)
C14 C 0.7939(5) 0.5986(4) 0.4696(2)
H8 H 0.8089 0.5126 0.4464
C15 C 0.7734(5) 0.6181(3) 0.5611(2)
C16 C 0.7505(4) 0.7495(3) 0.5974(2)
C17 C 0.7258(4) 0.6711(3) 0.7396(2)
C18 C 0.7634(5) 0.5390(3) 0.7110(2)
C19 C 0.7798(5) 0.5154(3) 0.6218(2)
H9 H 0.7956 0.4288 0.6003
C20 C 0.7957(5) 0.4318(3) 0.7755(2)
C21 C 0.6910(5) 0.2997(3) 0.7523(3)
H10 H 0.5949 0.2782 0.6976
C22 C 0.7275(5) 0.1980(4) 0.8103(3)
H11 H 0.6571 0.1089 0.7941
C23 C 0.8683(6) 0.2308(4) 0.8914(3)
H12 H 0.8910 0.1639 0.9310
C24 C 0.9763(5) 0.3617(4) 0.9147(3)
H13 H 1.0746 0.3826 0.9686
C25 C 0.9367(5) 0.4634(4) 0.8565(3)
H14 H 1.0065 0.5528 0.8729
C26 C 0.6758(5) 0.7051(3) 0.8293(2)
C27 C 0.5472(5) 0.6134(4) 0.8625(3)
H15 H 0.5005 0.5253 0.8316
C28 C 0.4877(5) 0.6522(4) 0.9415(3)
H16 H 0.4002 0.5906 0.9627
C29 C 0.5579(6) 0.7808(5) 0.9879(3)
H17 H 0.5184 0.8065 1.0409
C30 C 0.6864(6) 0.8723(4) 0.9567(3)
H18 H 0.7351 0.9595 0.9890
C31 C 0.7438(6) 0.8349(4) 0.8770(2)
H19 H 0.8291 0.8979 0.8555
N1 N 0.7250(4) 0.7715(3) 0.68505(19)
loop_
_geom_bond_atom_site_label_1
_geom_bond_atom_site_label_2
_geom_bond_site_symmetry_1
_geom_bond_site_symmetry_2
C1 C2 1_555 1_555
C2 H1 1_555 1_555
C3 C2 1_555 1_555
H2 C3 1_555 1_555
C4 C3 1_555 1_555
H3 C4 1_555 1_555
C5 C4 1_555 1_555
C6 C1 1_555 1_555
C7 C6 1_555 1_555
C8 C7 1_555 1_555
C9 C8 1_555 1_555
H4 C9 1_555 1_555
C10 C5 1_555 1_555
H5 C10 1_555 1_555
C11 C1 1_555 1_555
H6 C11 1_555 1_555
C12 C11 1_555 1_555
H7 C12 1_555 1_555
C13 C7 1_555 1_555
C14 C13 1_555 1_555
H8 C14 1_555 1_555
C15 C14 1_555 1_555
C16 C8 1_555 1_555
C17 C18 1_555 1_555
C18 C19 1_555 1_555
C19 C15 1_555 1_555
H9 C19 1_555 1_555
C20 C18 1_555 1_555
C21 C20 1_555 1_555
H10 C21 1_555 1_555
C22 C21 1_555 1_555
H11 C22 1_555 1_555
C23 C22 1_555 1_555
H12 C23 1_555 1_555
C24 C23 1_555 1_555
H13 C24 1_555 1_555
C25 C20 1_555 1_555
H14 C25 1_555 1_555
C26 C17 1_555 1_555
C27 C26 1_555 1_555
H15 C27 1_555 1_555
C28 C27 1_555 1_555
H16 C28 1_555 1_555
C29 C28 1_555 1_555
H17 C29 1_555 1_555
C30 C29 1_555 1_555
H18 C30 1_555 1_555
C31 C26 1_555 1_555
H19 C31 1_555 1_555
N1 C16 1_555 1_555
C5 C6 1_555 1_555
C9 C10 1_555 1_555
C12 C13 1_555 1_555
C15 C16 1_555 1_555
C17 N1 1_555 1_555
C24 C25 1_555 1_555
C30 C31 1_555 1_555

#END
