
#######################################################################
#
#                 Cambridge Crystallographic Data Centre
#                                CCDC 
#
#######################################################################
#
# If this CIF has been generated from an entry in the Cambridge 
# Structural Database, then it will include bibliographic, chemical, 
# crystal, experimental, refinement or atomic coordinate data resulting 
# from the CCDC's data processing and validation procedures.
#
#######################################################################

data_QEDWOO
_chemical_formula_moiety         'C15 H11 N3 O2'
_chemical_name_systematic        1-(4-nitrophenyl)-3-phenyl-1H-pyrazole
_symmetry_cell_setting           monoclinic
_symmetry_space_group_name_H-M   'P 21/n'
_symmetry_Int_Tables_number      14
_space_group_name_Hall           '-P 2yn'
loop_
_symmetry_equiv_pos_site_id
_symmetry_equiv_pos_as_xyz
1 x,y,z
2 1/2-x,1/2+y,1/2-z
3 -x,-y,-z
4 1/2+x,1/2-y,1/2+z
_cell_length_a                   7.2479(8)
_cell_length_b                   16.0198(18)
_cell_length_c                   10.5934(12)
_cell_angle_alpha                90
_cell_angle_beta                 99.1343(18)
_cell_angle_gamma                90
_cell_volume                     1214.4
_exptl_crystal_colour            colorless
_exptl_crystal_description       block
_cell_formula_units_Z            4
loop_
_atom_site_label
_atom_site_type_symbol
_atom_site_fract_x
_atom_site_fract_y
_atom_site_fract_z
C1 C 0.86082(18) 0.59448(8) 0.65543(12)
H1 H 0.8478 0.6535 0.6553
C2 C 0.95758(18) 0.54740(8) 0.75035(12)
H2 H 1.0252 0.5663 0.8294
C3 C 0.93583(16) 0.46393(8) 0.70592(11)
C4 C 0.67460(16) 0.56135(7) 0.44270(11)
C5 C 0.62548(17) 0.49948(8) 0.35163(11)
H3 H 0.6622 0.4433 0.3699
C6 C 0.52302(17) 0.51999(8) 0.23433(12)
H4 H 0.4886 0.4783 0.1712
C7 C 0.47150(16) 0.60227(8) 0.21047(11)
C8 C 0.51585(17) 0.66405(8) 0.30122(12)
H5 H 0.4769 0.7200 0.2831
C9 C 0.61729(17) 0.64344(8) 0.41830(12)
H6 H 0.6479 0.6851 0.4820
C10 C 1.01162(16) 0.38739(8) 0.77088(12)
C11 C 1.09892(17) 0.39019(8) 0.89842(12)
H7 H 1.1081 0.4417 0.9434
C12 C 1.17195(18) 0.31831(8) 0.95951(13)
H8 H 1.2300 0.3208 1.0464
C13 C 1.16120(18) 0.24287(8) 0.89532(12)
H9 H 1.2121 0.1938 0.9375
C14 C 1.07528(19) 0.23959(8) 0.76851(13)
H10 H 1.0675 0.1880 0.7237
C15 C 1.00105(18) 0.31108(8) 0.70714(12)
H11 H 0.9422 0.3081 0.6205
N1 N 0.78599(14) 0.54129(6) 0.56043(10)
N2 N 0.83205(13) 0.46060(6) 0.59015(9)
N3 N 0.37100(14) 0.62511(7) 0.08516(10)
O1 O 0.32275(13) 0.56918(6) 0.00736(9)
O2 O 0.34031(14) 0.69931(6) 0.06134(9)
loop_
_geom_bond_atom_site_label_1
_geom_bond_atom_site_label_2
_geom_bond_site_symmetry_1
_geom_bond_site_symmetry_2
C1 H1 1_555 1_555
C2 C1 1_555 1_555
H2 C2 1_555 1_555
C3 C2 1_555 1_555
C4 C5 1_555 1_555
C5 H3 1_555 1_555
C6 C5 1_555 1_555
H4 C6 1_555 1_555
C7 C6 1_555 1_555
C8 C7 1_555 1_555
H5 C8 1_555 1_555
C9 C4 1_555 1_555
H6 C9 1_555 1_555
C10 C3 1_555 1_555
C11 C10 1_555 1_555
H7 C11 1_555 1_555
C12 C11 1_555 1_555
H8 C12 1_555 1_555
C13 C12 1_555 1_555
H9 C13 1_555 1_555
C14 C13 1_555 1_555
H10 C14 1_555 1_555
C15 C10 1_555 1_555
H11 C15 1_555 1_555
N1 C1 1_555 1_555
N2 C3 1_555 1_555
N3 C7 1_555 1_555
O1 N3 1_555 1_555
O2 N3 1_555 1_555
C4 N1 1_555 1_555
C8 C9 1_555 1_555
C14 C15 1_555 1_555
N1 N2 1_555 1_555

#END
