
#######################################################################
#
#                 Cambridge Crystallographic Data Centre
#                                CCDC 
#
#######################################################################
#
# If this CIF has been generated from an entry in the Cambridge 
# Structural Database, then it will include bibliographic, chemical, 
# crystal, experimental, refinement or atomic coordinate data resulting 
# from the CCDC's data processing and validation procedures.
#
#######################################################################

data_QEFGIT
_chemical_formula_moiety         'C7 H4 F1 N2 S2'
_chemical_name_systematic        '4-fluorophenyl dithiadiazolyl radical'
_symmetry_cell_setting           monoclinic
_symmetry_space_group_name_H-M   'P 21/n'
_symmetry_Int_Tables_number      14
_space_group_name_Hall           '-P 2yn'
loop_
_symmetry_equiv_pos_site_id
_symmetry_equiv_pos_as_xyz
1 x,y,z
2 1/2-x,1/2+y,1/2-z
3 -x,-y,-z
4 1/2+x,1/2-y,1/2+z
_cell_length_a                   5.7941(12)
_cell_length_b                   29.810(6)
_cell_length_c                   9.2007(18)
_cell_angle_alpha                90
_cell_angle_beta                 103.01(3)
_cell_angle_gamma                90
_cell_volume                     1548.37
_exptl_crystal_colour            purple
_exptl_crystal_description       prism
_cell_formula_units_Z            8
loop_
_atom_site_label
_atom_site_type_symbol
_atom_site_fract_x
_atom_site_fract_y
_atom_site_fract_z
S1 S 0.7498(4) 0.17995(7) 1.1946(2)
S2 S 1.0424(4) 0.17697(8) 1.0968(2)
N2 N 0.9349(11) 0.1361(2) 0.9845(7)
N4 N 0.6112(11) 0.1386(2) 1.0963(7)
C4 C 0.4103(13) 0.0617(3) 0.9298(9)
H3 H 0.3365 0.0729 1.0021
F2 F 0.3327(8) -0.02674(16) 0.6564(6)
C5 C 0.7253(14) 0.1209(2) 1.0000(8)
C7 C 0.3152(15) 0.0255(3) 0.8475(10)
H4 H 0.1783 0.012 0.8635
C8 C 0.6160(14) 0.0821(3) 0.9081(9)
C11 C 0.7272(15) 0.0648(3) 0.8022(9)
H6 H 0.8668 0.0778 0.7885
C13 C 0.4238(15) 0.0093(3) 0.7406(9)
C14 C 0.6314(15) 0.0283(3) 0.7165(10)
H8 H 0.7043 0.0167 0.6443
S3 S 0.8250(4) 0.25013(7) 0.8763(2)
S4 S 0.5208(4) 0.25040(8) 0.9661(2)
F1 F 0.1096(8) 0.07007(15) 0.3224(5)
N1 N 0.3807(11) 0.2125(2) 0.8502(7)
C1 C 0.3947(13) 0.1639(2) 0.6392(8)
C2 C 0.1823(14) 0.1429(3) 0.6418(8)
H1 H 0.1033 0.1502 0.7161
N3 N 0.7214(12) 0.2131(2) 0.7497(7)
C3 C 0.5096(13) 0.1521(2) 0.5276(8)
H2 H 0.6527 0.1658 0.5252
C6 C 0.5049(14) 0.1976(2) 0.7516(9)
C9 C 0.2072(15) 0.1010(3) 0.4285(9)
C10 C 0.0869(13) 0.1114(3) 0.5359(9)
H5 H -0.0563 0.0975 0.5374
C12 C 0.4185(14) 0.1206(3) 0.4205(8)
H7 H 0.4966 0.1129 0.3462
loop_
_geom_bond_atom_site_label_1
_geom_bond_atom_site_label_2
_geom_bond_site_symmetry_1
_geom_bond_site_symmetry_2
S1 S2 1_555 1_555
S2 N2 1_555 1_555
S3 S4 1_555 1_555
S4 N1 1_555 1_555
F1 C9 1_555 1_555
N1 C6 1_555 1_555
N2 C5 1_555 1_555
C1 C2 1_555 1_555
C2 H1 1_555 1_555
N3 S3 1_555 1_555
C3 C1 1_555 1_555
H2 C3 1_555 1_555
N4 S1 1_555 1_555
C4 H3 1_555 1_555
F2 C13 1_555 1_555
C5 N4 1_555 1_555
C6 C1 1_555 1_555
C7 C4 1_555 1_555
H4 C7 1_555 1_555
C8 C4 1_555 1_555
C9 C10 1_555 1_555
C10 C2 1_555 1_555
H5 C10 1_555 1_555
C11 C8 1_555 1_555
H6 C11 1_555 1_555
C12 C3 1_555 1_555
H7 C12 1_555 1_555
C13 C7 1_555 1_555
C14 C11 1_555 1_555
H8 C14 1_555 1_555
N3 C6 1_555 1_555
C5 C8 1_555 1_555
C9 C12 1_555 1_555
C13 C14 1_555 1_555

#END
