
#######################################################################
#
#                 Cambridge Crystallographic Data Centre
#                                CCDC 
#
#######################################################################
#
# If this CIF has been generated from an entry in the Cambridge 
# Structural Database, then it will include bibliographic, chemical, 
# crystal, experimental, refinement or atomic coordinate data resulting 
# from the CCDC's data processing and validation procedures.
#
#######################################################################

data_QEFROL
_chemical_formula_moiety         'C25 H23 N3 O3'
_chemical_name_systematic        
3-[(1,3-dioxo-1,3-dihydro-2H-isoindol-2-yl)methyl]-5-methyl-N-(quinolin-8-yl)hex-4-enamide
_symmetry_cell_setting           monoclinic
_symmetry_space_group_name_H-M   'P 21/c'
_symmetry_Int_Tables_number      14
_space_group_name_Hall           '-P 2ybc'
loop_
_symmetry_equiv_pos_site_id
_symmetry_equiv_pos_as_xyz
1 x,y,z
2 -x,1/2+y,1/2-z
3 -x,-y,-z
4 x,1/2-y,1/2+z
_cell_length_a                   21.3828(12)
_cell_length_b                   4.8830(3)
_cell_length_c                   22.4473(13)
_cell_angle_alpha                90
_cell_angle_beta                 115.924(2)
_cell_angle_gamma                90
_cell_volume                     2107.93
_exptl_crystal_colour            colorless
_exptl_crystal_description       needle
_cell_formula_units_Z            4
loop_
_atom_site_label
_atom_site_type_symbol
_atom_site_fract_x
_atom_site_fract_y
_atom_site_fract_z
O1 O 0.72887(4) 0.79830(17) 0.52679(4)
O2 O 0.75893(4) -0.02934(18) 0.71899(4)
O3 O 0.90606(4) 0.70427(17) 0.79787(4)
N1 N 0.51601(5) 0.2775(2) 0.44732(5)
N2 N 0.64655(5) 0.4640(2) 0.49231(5)
H1 H 0.6333(8) 0.315(3) 0.5043(7)
N3 N 0.83611(5) 0.3340(2) 0.74476(4)
C1 C 0.45217(7) 0.1807(3) 0.42585(7)
H2 H 0.4438 0.0421 0.4512
C2 C 0.39575(7) 0.2719(4) 0.36739(8)
H3 H 0.3508 0.1952 0.3539
C3 C 0.40666(7) 0.4710(3) 0.33066(7)
H4 H 0.3691 0.5348 0.2913
C4 C 0.47392(7) 0.5834(3) 0.35107(6)
C5 C 0.49043(8) 0.7904(3) 0.31621(6)
H5 H 0.4551 0.8644 0.2767
C6 C 0.55689(8) 0.8839(3) 0.33911(6)
H6 H 0.5674 1.0219 0.3150
C7 C 0.61059(7) 0.7797(3) 0.39796(6)
H7 H 0.6567 0.8468 0.4129
C8 C 0.59625(6) 0.5815(3) 0.43366(5)
C9 C 0.52721(6) 0.4768(3) 0.41063(6)
C10 C 0.70775(5) 0.5771(2) 0.53614(5)
C11 C 0.74681(5) 0.4055(2) 0.59760(5)
H8 H 0.7405 0.2094 0.5851
H9 H 0.7265 0.4372 0.6291
C12 C 0.82473(5) 0.4697(2) 0.63219(5)
H10 H 0.8311 0.6667 0.6457
C13 C 0.85980(6) 0.4170(3) 0.58757(5)
H11 H 0.8366 0.2982 0.5509
C14 C 0.92020(6) 0.5221(3) 0.59498(6)
C15 C 0.95220(7) 0.4460(4) 0.54945(7)
H12 H 0.9963 0.3502 0.5747
H13 H 0.9608 0.6122 0.5297
H14 H 0.9204 0.3259 0.5143
C16 C 0.96320(6) 0.7174(3) 0.64925(7)
H15 H 0.9671 0.8925 0.6298
H16 H 1.0097 0.6401 0.6747
H17 H 0.9409 0.7469 0.6786
C17 C 0.86098(6) 0.2910(2) 0.69422(5)
H18 H 0.8542 0.0961 0.6807
H19 H 0.9115 0.3288 0.7140
C18 C 0.86336(6) 0.5340(2) 0.79406(5)
C19 C 0.82943(6) 0.4868(2) 0.83889(5)
C20 C 0.83855(7) 0.6217(3) 0.89644(6)
H20 H 0.8700 0.7706 0.9133
C21 C 0.79949(8) 0.5290(3) 0.92846(6)
H21 H 0.8046 0.6158 0.9682
C22 C 0.75330(7) 0.3120(3) 0.90332(7)
H22 H 0.7273 0.2538 0.9262
C23 C 0.74408(7) 0.1771(3) 0.84511(7)
H23 H 0.7123 0.0295 0.8277
C24 C 0.78363(6) 0.2692(3) 0.81399(6)
C25 C 0.78852(5) 0.1643(2) 0.75375(5)
loop_
_geom_bond_atom_site_label_1
_geom_bond_atom_site_label_2
_geom_bond_site_symmetry_1
_geom_bond_site_symmetry_2
O1 C10 1_555 1_555
O2 C25 1_555 1_555
O3 C18 1_555 1_555
N1 C1 1_555 1_555
N2 H1 1_555 1_555
N3 C17 1_555 1_555
C1 H2 1_555 1_555
C2 C1 1_555 1_555
H3 C2 1_555 1_555
C3 C2 1_555 1_555
H4 C3 1_555 1_555
C4 C3 1_555 1_555
C5 C4 1_555 1_555
H5 C5 1_555 1_555
C6 C5 1_555 1_555
H6 C6 1_555 1_555
C7 C6 1_555 1_555
H7 C7 1_555 1_555
C8 N2 1_555 1_555
C9 N1 1_555 1_555
C10 N2 1_555 1_555
C11 C10 1_555 1_555
H8 C11 1_555 1_555
H9 C11 1_555 1_555
C12 C11 1_555 1_555
H10 C12 1_555 1_555
C13 C12 1_555 1_555
H11 C13 1_555 1_555
C14 C13 1_555 1_555
C15 C14 1_555 1_555
H12 C15 1_555 1_555
H13 C15 1_555 1_555
H14 C15 1_555 1_555
C16 C14 1_555 1_555
H15 C16 1_555 1_555
H16 C16 1_555 1_555
H17 C16 1_555 1_555
C17 C12 1_555 1_555
H18 C17 1_555 1_555
H19 C17 1_555 1_555
C18 N3 1_555 1_555
C19 C18 1_555 1_555
C20 C19 1_555 1_555
H20 C20 1_555 1_555
C21 C20 1_555 1_555
H21 C21 1_555 1_555
C22 C21 1_555 1_555
H22 C22 1_555 1_555
C23 C22 1_555 1_555
H23 C23 1_555 1_555
C24 C19 1_555 1_555
C25 N3 1_555 1_555
C4 C9 1_555 1_555
C7 C8 1_555 1_555
C8 C9 1_555 1_555
C23 C24 1_555 1_555
C24 C25 1_555 1_555

#END
