
#######################################################################
#
#                 Cambridge Crystallographic Data Centre
#                                CCDC 
#
#######################################################################
#
# If this CIF has been generated from an entry in the Cambridge 
# Structural Database, then it will include bibliographic, chemical, 
# crystal, experimental, refinement or atomic coordinate data resulting 
# from the CCDC's data processing and validation procedures.
#
#######################################################################

data_QEFTED
_chemical_formula_moiety         'C33 H36 B1 N1'
_chemical_name_systematic        
10-[bis(2,4,6-trimethylphenyl)boranyl]-9,9-dimethyl-9,10-dihydroacridine
_symmetry_cell_setting           orthorhombic
_symmetry_space_group_name_H-M   'P 21 21 21'
_symmetry_Int_Tables_number      19
_space_group_name_Hall           'P 2ac 2ab'
loop_
_symmetry_equiv_pos_site_id
_symmetry_equiv_pos_as_xyz
1 x,y,z
2 1/2-x,-y,1/2+z
3 -x,1/2+y,1/2-z
4 1/2+x,1/2-y,-z
_cell_length_a                   9.3564(2)
_cell_length_b                   14.0428(3)
_cell_length_c                   19.8797(4)
_cell_angle_alpha                90
_cell_angle_beta                 90
_cell_angle_gamma                90
_cell_volume                     2611.99
_exptl_crystal_colour            colorless
_exptl_crystal_description       rod
_cell_formula_units_Z            4
loop_
_atom_site_label
_atom_site_type_symbol
_atom_site_fract_x
_atom_site_fract_y
_atom_site_fract_z
B1 B 0.8866(2) 0.52718(12) 0.07098(9)
N1 N 0.92059(14) 0.50058(10) 0.00270(7)
C1 C 1.06503(19) 0.47467(11) -0.01451(8)
C2 C 1.17881(19) 0.52391(12) 0.01465(9)
H1 H 1.1596 0.5754 0.0443
C3 C 1.31910(19) 0.49911(14) 0.00127(10)
H2 H 1.3954 0.5322 0.0224
C4 C 1.3471(2) 0.42552(14) -0.04322(10)
H3 H 1.4429 0.4065 -0.0518
C5 C 1.2351(2) 0.38005(13) -0.07508(10)
H4 H 1.2556 0.3311 -0.1066
C6 C 1.09289(19) 0.40383(12) -0.06237(8)
C7 C 0.9684(2) 0.35962(12) -0.10090(9)
C8 C 0.85612(19) 0.43772(12) -0.10926(9)
C9 C 0.7754(2) 0.44592(16) -0.16823(10)
H5 H 0.7989 0.4069 -0.2057
C10 C 0.6630(2) 0.50888(17) -0.17373(10)
H6 H 0.6114 0.5143 -0.2147
C11 C 0.6266(2) 0.56378(14) -0.11904(9)
H7 H 0.5456 0.6045 -0.1213
C12 C 0.70764(19) 0.55997(13) -0.06057(9)
H8 H 0.6822 0.5990 -0.0234
C13 C 0.82576(17) 0.49982(12) -0.05539(8)
C14 C 0.8982(3) 0.27667(14) -0.06215(10)
H9 H 0.9717 0.2306 -0.0489
H10 H 0.8276 0.2453 -0.0911
H11 H 0.8506 0.3014 -0.0219
C15 C 1.0187(3) 0.31950(15) -0.16889(10)
H12 H 1.0613 0.3707 -0.1957
H13 H 0.9369 0.2926 -0.1931
H14 H 1.0900 0.2696 -0.1612
C16 C 0.99251(18) 0.49984(12) 0.13187(8)
C17 C 1.04658(18) 0.56923(12) 0.17733(9)
C18 C 1.14135(19) 0.54346(13) 0.22806(9)
H15 H 1.1785 0.5918 0.2565
C19 C 1.1838(2) 0.45002(14) 0.23881(9)
C20 C 1.1260(2) 0.38169(13) 0.19663(9)
H16 H 1.1502 0.3168 0.2039
C21 C 1.03383(19) 0.40427(12) 0.14406(9)
C22 C 1.0075(2) 0.67362(13) 0.17327(11)
H17 H 1.0579 0.7088 0.2086
H18 H 0.9041 0.6809 0.1794
H19 H 1.0351 0.6988 0.1292
C23 C 1.2850(3) 0.42332(17) 0.29449(11)
H20 H 1.2944 0.3539 0.2964
H21 H 1.2476 0.4468 0.3375
H22 H 1.3788 0.4519 0.2859
C24 C 0.9820(2) 0.32227(12) 0.10186(10)
H23 H 1.0437 0.3153 0.0623
H24 H 0.8836 0.3345 0.0873
H25 H 0.9849 0.2636 0.1285
C25 C 0.74713(17) 0.58581(12) 0.09034(8)
C26 C 0.63775(19) 0.54499(12) 0.12978(8)
C27 C 0.52340(19) 0.60020(14) 0.15175(9)
H26 H 0.4502 0.5712 0.1778
C28 C 0.5135(2) 0.69659(14) 0.13666(8)
C29 C 0.6196(2) 0.73638(12) 0.09730(8)
H27 H 0.6135 0.8019 0.0858
C30 C 0.73506(19) 0.68339(12) 0.07399(8)
C31 C 0.6402(2) 0.44028(14) 0.14716(11)
H28 H 0.5519 0.4233 0.1708
H29 H 0.7225 0.4269 0.1762
H30 H 0.6478 0.4027 0.1058
C32 C 0.3907(2) 0.75633(18) 0.16205(11)
H31 H 0.3001 0.7271 0.1485
H32 H 0.3973 0.8205 0.1429
H33 H 0.3951 0.7603 0.2112
C33 C 0.8426(2) 0.73423(13) 0.02980(9)
H34 H 0.7956 0.7559 -0.0115
H35 H 0.9205 0.6904 0.0183
H36 H 0.8815 0.7892 0.0540
loop_
_geom_bond_atom_site_label_1
_geom_bond_atom_site_label_2
_geom_bond_site_symmetry_1
_geom_bond_site_symmetry_2
B1 N1 1_555 1_555
N1 C1 1_555 1_555
C1 C2 1_555 1_555
C2 H1 1_555 1_555
C3 C2 1_555 1_555
H2 C3 1_555 1_555
C4 C3 1_555 1_555
H3 C4 1_555 1_555
C5 C4 1_555 1_555
H4 C5 1_555 1_555
C6 C1 1_555 1_555
C7 C6 1_555 1_555
C8 C7 1_555 1_555
C9 C8 1_555 1_555
H5 C9 1_555 1_555
C10 C9 1_555 1_555
H6 C10 1_555 1_555
C11 C10 1_555 1_555
H7 C11 1_555 1_555
C12 C11 1_555 1_555
H8 C12 1_555 1_555
C13 N1 1_555 1_555
C14 C7 1_555 1_555
H9 C14 1_555 1_555
H10 C14 1_555 1_555
H11 C14 1_555 1_555
C15 C7 1_555 1_555
H12 C15 1_555 1_555
H13 C15 1_555 1_555
H14 C15 1_555 1_555
C16 B1 1_555 1_555
C17 C16 1_555 1_555
C18 C17 1_555 1_555
H15 C18 1_555 1_555
C19 C18 1_555 1_555
C20 C19 1_555 1_555
H16 C20 1_555 1_555
C21 C16 1_555 1_555
C22 C17 1_555 1_555
H17 C22 1_555 1_555
H18 C22 1_555 1_555
H19 C22 1_555 1_555
C23 C19 1_555 1_555
H20 C23 1_555 1_555
H21 C23 1_555 1_555
H22 C23 1_555 1_555
C24 C21 1_555 1_555
H23 C24 1_555 1_555
H24 C24 1_555 1_555
H25 C24 1_555 1_555
C25 B1 1_555 1_555
C26 C25 1_555 1_555
C27 C26 1_555 1_555
H26 C27 1_555 1_555
C28 C27 1_555 1_555
C29 C28 1_555 1_555
H27 C29 1_555 1_555
C30 C25 1_555 1_555
C31 C26 1_555 1_555
H28 C31 1_555 1_555
H29 C31 1_555 1_555
H30 C31 1_555 1_555
C32 C28 1_555 1_555
H31 C32 1_555 1_555
H32 C32 1_555 1_555
H33 C32 1_555 1_555
C33 C30 1_555 1_555
H34 C33 1_555 1_555
H35 C33 1_555 1_555
H36 C33 1_555 1_555
C5 C6 1_555 1_555
C8 C13 1_555 1_555
C12 C13 1_555 1_555
C20 C21 1_555 1_555
C29 C30 1_555 1_555

#END
