
#######################################################################
#
#                 Cambridge Crystallographic Data Centre
#                                CCDC 
#
#######################################################################
#
# If this CIF has been generated from an entry in the Cambridge 
# Structural Database, then it will include bibliographic, chemical, 
# crystal, experimental, refinement or atomic coordinate data resulting 
# from the CCDC's data processing and validation procedures.
#
#######################################################################

data_QEFTON01
_chemical_formula_moiety         'C43 H38 B1 N1'
_chemical_name_systematic        
10-[bis(2,4,6-trimethylphenyl)boranyl]-10H-spiro[acridine-9,9'-fluorene]
_symmetry_cell_setting           monoclinic
_symmetry_space_group_name_H-M   'P 21/n'
_symmetry_Int_Tables_number      14
_space_group_name_Hall           '-P 2yn'
loop_
_symmetry_equiv_pos_site_id
_symmetry_equiv_pos_as_xyz
1 x,y,z
2 1/2-x,1/2+y,1/2-z
3 -x,-y,-z
4 1/2+x,1/2-y,1/2+z
_cell_length_a                   7.5530(2)
_cell_length_b                   15.3830(3)
_cell_length_c                   28.0519(6)
_cell_angle_alpha                90
_cell_angle_beta                 94.1191(8)
_cell_angle_gamma                90
_cell_volume                     3250.87
_exptl_crystal_colour            yellow
_exptl_crystal_description       needle
_cell_formula_units_Z            4
loop_
_atom_site_label
_atom_site_type_symbol
_atom_site_fract_x
_atom_site_fract_y
_atom_site_fract_z
N1 N 0.4937(2) 0.58438(12) 0.20199(6)
B1 B 0.4780(3) 0.58393(16) 0.14960(9)
C1 C 0.5294(3) 0.58613(14) 0.30852(8)
C2 C 0.6049(3) 0.51554(14) 0.27778(8)
C3 C 0.7037(3) 0.44941(16) 0.30120(9)
H1 H 0.7165 0.4495 0.3351
C4 C 0.7831(3) 0.38411(16) 0.27672(9)
H2 H 0.8500 0.3399 0.2934
C5 C 0.7629(3) 0.38459(15) 0.22741(9)
H3 H 0.8155 0.3399 0.2098
C6 C 0.6672(3) 0.44934(15) 0.20366(8)
H4 H 0.6577 0.4493 0.1697
C7 C 0.5830(3) 0.51554(14) 0.22812(8)
C8 C 0.4339(3) 0.65546(14) 0.27803(8)
C9 C 0.3494(3) 0.72210(16) 0.30168(9)
H5 H 0.3612 0.7238 0.3356
C10 C 0.2497(3) 0.78531(15) 0.27753(9)
H6 H 0.1938 0.8299 0.2944
C11 C 0.2331(3) 0.78222(15) 0.22808(9)
H7 H 0.1650 0.8251 0.2107
C12 C 0.3150(3) 0.71717(15) 0.20400(8)
H8 H 0.3004 0.7156 0.1701
C13 C 0.4198(3) 0.65292(14) 0.22823(8)
C14 C 0.6738(3) 0.62622(15) 0.34305(8)
C15 C 0.8236(3) 0.67238(17) 0.33251(9)
H9 H 0.8506 0.6812 0.3003
C16 C 0.9335(4) 0.7054(2) 0.37000(10)
H10 H 1.0353 0.7383 0.3633
C17 C 0.8969(4) 0.6911(2) 0.41699(10)
H11 H 0.9745 0.7137 0.4421
C18 C 0.7486(4) 0.64429(18) 0.42782(9)
H12 H 0.7238 0.6345 0.4601
C19 C 0.6366(3) 0.61192(15) 0.39058(8)
C20 C 0.4721(3) 0.56166(15) 0.39106(8)
C21 C 0.3817(4) 0.53029(18) 0.42895(9)
H13 H 0.4250 0.5410 0.4610
C22 C 0.2281(4) 0.4833(2) 0.41899(10)
H14 H 0.1659 0.4612 0.4446
C23 C 0.1625(4) 0.46764(19) 0.37241(11)
H15 H 0.0567 0.4347 0.3664
C24 C 0.2512(3) 0.50005(16) 0.33416(9)
H16 H 0.2058 0.4906 0.3021
C25 C 0.4065(3) 0.54616(14) 0.34394(8)
C26 C 0.4075(3) 0.50092(14) 0.12135(8)
C27 C 0.2443(3) 0.46436(15) 0.13297(9)
C28 C 0.1652(4) 0.39923(16) 0.10437(11)
H17 H 0.0546 0.3760 0.1123
C29 C 0.2425(4) 0.36720(17) 0.06471(10)
C30 C 0.4056(4) 0.40127(18) 0.05404(9)
H18 H 0.4619 0.3790 0.0274
C31 C 0.4885(3) 0.46709(16) 0.08134(8)
C32 C 0.1480(4) 0.49535(18) 0.17504(11)
H19 H 0.0285 0.4702 0.1734
H20 H 0.1393 0.5589 0.1743
H21 H 0.2135 0.4771 0.2048
C33 C 0.1522(5) 0.2962(2) 0.03433(15)
H22 H 0.1977 0.2393 0.0452
H23 H 0.1767 0.3047 0.0008
H24 H 0.0238 0.2985 0.0373
C34 C 0.6690(4) 0.4979(2) 0.06844(10)
H25 H 0.7119 0.4600 0.0437
H26 H 0.7523 0.4960 0.0969
H27 H 0.6598 0.5577 0.0564
C35 C 0.5288(3) 0.66818(14) 0.12143(8)
C36 C 0.4219(3) 0.70230(15) 0.08228(8)
C37 C 0.4798(4) 0.77367(16) 0.05733(9)
H28 H 0.4051 0.7965 0.0316
C38 C 0.6428(4) 0.81277(16) 0.06858(9)
C39 C 0.7486(4) 0.77838(16) 0.10634(10)
H29 H 0.8615 0.8037 0.1143
C40 C 0.6954(3) 0.70804(15) 0.13305(9)
C41 C 0.2392(4) 0.66611(19) 0.06766(10)
H30 H 0.1743 0.7073 0.0463
H31 H 0.1739 0.6570 0.0962
H32 H 0.2515 0.6106 0.0511
C42 C 0.7028(5) 0.8904(2) 0.04117(12)
H33 H 0.6319 0.8947 0.0106
H34 H 0.8284 0.8837 0.0353
H35 H 0.6872 0.9434 0.0599
C43 C 0.8202(3) 0.67626(19) 0.17369(11)
H36 H 0.9404 0.6974 0.1694
H37 H 0.8203 0.6126 0.1741
H38 H 0.7810 0.6982 0.2040
loop_
_geom_bond_atom_site_label_1
_geom_bond_atom_site_label_2
_geom_bond_site_symmetry_1
_geom_bond_site_symmetry_2
N1 B1 1_555 1_555
B1 C26 1_555 1_555
C1 C2 1_555 1_555
C2 C3 1_555 1_555
C3 H1 1_555 1_555
C4 C3 1_555 1_555
H2 C4 1_555 1_555
C5 C4 1_555 1_555
H3 C5 1_555 1_555
C6 C5 1_555 1_555
H4 C6 1_555 1_555
C7 N1 1_555 1_555
C8 C1 1_555 1_555
C9 C8 1_555 1_555
H5 C9 1_555 1_555
C10 C9 1_555 1_555
H6 C10 1_555 1_555
C11 C10 1_555 1_555
H7 C11 1_555 1_555
C12 C11 1_555 1_555
H8 C12 1_555 1_555
C13 N1 1_555 1_555
C14 C1 1_555 1_555
C15 C14 1_555 1_555
H9 C15 1_555 1_555
C16 C15 1_555 1_555
H10 C16 1_555 1_555
C17 C16 1_555 1_555
H11 C17 1_555 1_555
C18 C17 1_555 1_555
H12 C18 1_555 1_555
C19 C14 1_555 1_555
C20 C19 1_555 1_555
C21 C20 1_555 1_555
H13 C21 1_555 1_555
C22 C21 1_555 1_555
H14 C22 1_555 1_555
C23 C22 1_555 1_555
H15 C23 1_555 1_555
C24 C23 1_555 1_555
H16 C24 1_555 1_555
C25 C1 1_555 1_555
C26 C27 1_555 1_555
C27 C28 1_555 1_555
C28 H17 1_555 1_555
C29 C28 1_555 1_555
C30 C29 1_555 1_555
H18 C30 1_555 1_555
C31 C26 1_555 1_555
C32 C27 1_555 1_555
H19 C32 1_555 1_555
H20 C32 1_555 1_555
H21 C32 1_555 1_555
C33 C29 1_555 1_555
H22 C33 1_555 1_555
H23 C33 1_555 1_555
H24 C33 1_555 1_555
C34 C31 1_555 1_555
H25 C34 1_555 1_555
H26 C34 1_555 1_555
H27 C34 1_555 1_555
C35 B1 1_555 1_555
C36 C35 1_555 1_555
C37 C36 1_555 1_555
H28 C37 1_555 1_555
C38 C37 1_555 1_555
C39 C38 1_555 1_555
H29 C39 1_555 1_555
C40 C35 1_555 1_555
C41 C36 1_555 1_555
H30 C41 1_555 1_555
H31 C41 1_555 1_555
H32 C41 1_555 1_555
C42 C38 1_555 1_555
H33 C42 1_555 1_555
H34 C42 1_555 1_555
H35 C42 1_555 1_555
C43 C40 1_555 1_555
H36 C43 1_555 1_555
H37 C43 1_555 1_555
H38 C43 1_555 1_555
C2 C7 1_555 1_555
C6 C7 1_555 1_555
C8 C13 1_555 1_555
C12 C13 1_555 1_555
C18 C19 1_555 1_555
C20 C25 1_555 1_555
C24 C25 1_555 1_555
C30 C31 1_555 1_555
C39 C40 1_555 1_555

#END
