
#######################################################################
#
#                 Cambridge Crystallographic Data Centre
#                                CCDC 
#
#######################################################################
#
# If this CIF has been generated from an entry in the Cambridge 
# Structural Database, then it will include bibliographic, chemical, 
# crystal, experimental, refinement or atomic coordinate data resulting 
# from the CCDC's data processing and validation procedures.
#
#######################################################################

data_QEGCOX
_chemical_formula_moiety         'C18 H30 Si3'
_chemical_name_systematic        
2,2,5,5,8,8-hexamethyl-2,3,4,5,6,7,8,9-octahydro-1H-benzo[1,2-c:3,4-c':5,6-c'']trissilole
_symmetry_cell_setting           monoclinic
_symmetry_space_group_name_H-M   'P 21/c'
_symmetry_Int_Tables_number      14
_space_group_name_Hall           '-P 2ybc'
loop_
_symmetry_equiv_pos_site_id
_symmetry_equiv_pos_as_xyz
1 x,y,z
2 -x,1/2+y,1/2-z
3 -x,-y,-z
4 x,1/2-y,1/2+z
_cell_length_a                   14.783(3)
_cell_length_b                   11.788(2)
_cell_length_c                   11.937(2)
_cell_angle_alpha                90
_cell_angle_beta                 103.039(4)
_cell_angle_gamma                90
_cell_volume                     2026.53
_exptl_crystal_colour            colorless
_exptl_crystal_description       block
_cell_formula_units_Z            4
loop_
_atom_site_label
_atom_site_type_symbol
_atom_site_fract_x
_atom_site_fract_y
_atom_site_fract_z
Si1 Si 0.34360(4) 0.17139(4) 0.60465(4)
Si2 Si -0.01939(3) 0.23420(5) 0.17379(4)
Si3 Si 0.31444(3) -0.12567(4) 0.12837(4)
C1 C 0.29499(11) 0.08500(13) 0.39163(12)
C2 C 0.22659(11) 0.16620(13) 0.39763(12)
C3 C 0.14601(11) 0.17399(13) 0.30976(12)
C4 C 0.13352(10) 0.10030(12) 0.21487(12)
C5 C 0.20267(11) 0.02085(12) 0.20755(12)
C6 C 0.28317(11) 0.01293(12) 0.29584(12)
C7 C 0.37955(12) 0.08219(15) 0.49128(13)
H1 H 0.4334 0.1143 0.4692
H2 H 0.3938 0.0052 0.5183
C8 C 0.24561(13) 0.24394(16) 0.50240(14)
H3 H 0.1914 0.2502 0.5351
H4 H 0.2637 0.3191 0.4826
C9 C 0.2979(3) 0.0845(2) 0.7091(2)
H5 H 0.3459 0.0350 0.7494
H6 H 0.2463 0.0402 0.6688
H7 H 0.2779 0.1335 0.7631
C10 C 0.43515(18) 0.2672(2) 0.6851(3)
H8 H 0.4079 0.3208 0.7284
H9 H 0.4636 0.3071 0.6320
H10 H 0.4813 0.2234 0.7367
C11 C 0.06983(12) 0.26068(16) 0.31039(15)
H11 H 0.0941 0.3373 0.3118
H12 H 0.0432 0.2500 0.3769
C12 C 0.04343(11) 0.11200(14) 0.12421(13)
H13 H 0.0069 0.0431 0.1192
H14 H 0.0560 0.1277 0.0494
C13 C -0.0358(2) 0.3593(2) 0.0772(2)
H15 H -0.0756 0.3393 0.0047
H16 H 0.0233 0.3837 0.0654
H17 H -0.0636 0.4198 0.1116
C14 C -0.13397(16) 0.1912(3) 0.1995(2)
H18 H -0.1737 0.1669 0.1284
H19 H -0.1618 0.2545 0.2295
H20 H -0.1256 0.1299 0.2539
C15 C 0.19562(12) -0.05884(14) 0.10551(13)
H21 H 0.1808 -0.0172 0.0336
H22 H 0.1483 -0.1161 0.1047
C16 C 0.35508(13) -0.07513(15) 0.28118(14)
H23 H 0.3570 -0.1373 0.3349
H24 H 0.4164 -0.0414 0.2932
C17 C 0.31407(16) -0.28321(16) 0.1126(2)
H25 H 0.2773 -0.3038 0.0383
H26 H 0.2881 -0.3172 0.1714
H27 H 0.3765 -0.3097 0.1198
C18 C 0.38371(16) -0.0654(2) 0.03041(19)
H28 H 0.4462 -0.0935 0.0519
H29 H 0.3842 0.0158 0.0360
H30 H 0.3565 -0.0876 -0.0473
loop_
_geom_bond_atom_site_label_1
_geom_bond_atom_site_label_2
_geom_bond_site_symmetry_1
_geom_bond_site_symmetry_2
Si1 C7 1_555 1_555
Si2 C11 1_555 1_555
Si3 C15 1_555 1_555
C1 C2 1_555 1_555
C2 C3 1_555 1_555
C3 C4 1_555 1_555
C4 C5 1_555 1_555
C5 C6 1_555 1_555
C6 C1 1_555 1_555
C7 C1 1_555 1_555
H1 C7 1_555 1_555
H2 C7 1_555 1_555
C8 Si1 1_555 1_555
H3 C8 1_555 1_555
H4 C8 1_555 1_555
C9 Si1 1_555 1_555
H5 C9 1_555 1_555
H6 C9 1_555 1_555
H7 C9 1_555 1_555
C10 Si1 1_555 1_555
H8 C10 1_555 1_555
H9 C10 1_555 1_555
H10 C10 1_555 1_555
C11 C3 1_555 1_555
H11 C11 1_555 1_555
H12 C11 1_555 1_555
C12 Si2 1_555 1_555
H13 C12 1_555 1_555
H14 C12 1_555 1_555
C13 Si2 1_555 1_555
H15 C13 1_555 1_555
H16 C13 1_555 1_555
H17 C13 1_555 1_555
C14 Si2 1_555 1_555
H18 C14 1_555 1_555
H19 C14 1_555 1_555
H20 C14 1_555 1_555
C15 C5 1_555 1_555
H21 C15 1_555 1_555
H22 C15 1_555 1_555
C16 Si3 1_555 1_555
H23 C16 1_555 1_555
H24 C16 1_555 1_555
C17 Si3 1_555 1_555
H25 C17 1_555 1_555
H26 C17 1_555 1_555
H27 C17 1_555 1_555
C18 Si3 1_555 1_555
H28 C18 1_555 1_555
H29 C18 1_555 1_555
H30 C18 1_555 1_555
C2 C8 1_555 1_555
C4 C12 1_555 1_555
C6 C16 1_555 1_555

#END
