
#######################################################################
#
#                 Cambridge Crystallographic Data Centre
#                                CCDC 
#
#######################################################################
#
# If this CIF has been generated from an entry in the Cambridge 
# Structural Database, then it will include bibliographic, chemical, 
# crystal, experimental, refinement or atomic coordinate data resulting 
# from the CCDC's data processing and validation procedures.
#
#######################################################################

data_QEGNUO
_chemical_formula_moiety         'C27 H23 N1 O1'
_chemical_name_systematic        
'(1R,2S)-N-(diphenylmethylene)-2-methyl-2-(naphthalen-2-yl)cyclopropanamine oxide'
_symmetry_cell_setting           orthorhombic
_symmetry_space_group_name_H-M   'P 21 21 21'
_symmetry_Int_Tables_number      19
_space_group_name_Hall           'P 2ac 2ab'
loop_
_symmetry_equiv_pos_site_id
_symmetry_equiv_pos_as_xyz
1 x,y,z
2 1/2-x,-y,1/2+z
3 -x,1/2+y,1/2-z
4 1/2+x,1/2-y,-z
_cell_length_a                   8.7558(3)
_cell_length_b                   11.1462(4)
_cell_length_c                   21.2016(7)
_cell_angle_alpha                90
_cell_angle_beta                 90
_cell_angle_gamma                90
_cell_volume                     2069.15
_cell_formula_units_Z            4
_exptl_crystal_recrystallization_method EtOAc/hexanes
loop_
_atom_site_label
_atom_site_type_symbol
_atom_site_fract_x
_atom_site_fract_y
_atom_site_fract_z
O1 O 0.4805(3) 0.84976(15) 0.59286(10)
N1 N 0.5178(2) 0.73868(16) 0.60257(9)
C1 C 0.6423(3) 0.57502(19) 0.65649(11)
C2 C 0.4338(3) 0.6493(2) 0.56510(10)
H1 H 0.4940 0.5804 0.5507
C3 C 0.2762(3) 0.4036(2) 0.60040(11)
H2 H 0.3521 0.4191 0.6300
C4 C 0.2276(3) 0.2838(2) 0.59099(10)
C5 C 0.5699(3) 0.5276(2) 0.70920(12)
H3 H 0.5081 0.5766 0.7338
C6 C 0.2152(3) 0.4970(2) 0.56739(10)
C7 C 0.2663(3) 0.6242(2) 0.57741(11)
C8 C 0.6259(3) 0.7054(2) 0.64219(11)
C9 C 0.0986(3) 0.4722(2) 0.52346(13)
H4 H 0.0552 0.5349 0.5008
C10 C 0.7323(3) 0.5001(3) 0.62023(13)
H5 H 0.7840 0.5305 0.5854
C11 C 0.7283(3) 0.7911(2) 0.67382(11)
C12 C 0.3168(4) 0.6929(3) 0.52035(13)
H6 H 0.3096 0.6531 0.4798
H7 H 0.2964 0.7784 0.5194
C13 C 0.1115(3) 0.2605(2) 0.54685(11)
C14 C 0.2914(3) 0.1857(2) 0.62428(12)
H8 H 0.3687 0.1995 0.6535
C15 C 0.0484(4) 0.3581(3) 0.51359(14)
H9 H -0.0289 0.3444 0.4844
C16 C 0.1869(4) 0.6899(3) 0.63039(17)
H10 H 0.2041 0.6481 0.6694
H11 H 0.0793 0.6934 0.6220
H12 H 0.2269 0.7698 0.6335
C17 C 0.8234(3) 0.7479(3) 0.72165(14)
H13 H 0.8172 0.6675 0.7330
C18 C 0.2420(4) 0.0720(2) 0.61435(13)
H14 H 0.2856 0.0087 0.6365
C19 C 0.6745(4) 0.3357(3) 0.68841(18)
H15 H 0.6851 0.2552 0.6989
C20 C 0.5886(4) 0.4090(3) 0.72545(14)
H16 H 0.5425 0.3789 0.7617
C21 C 0.7417(4) 0.9122(3) 0.65768(16)
H17 H 0.6802 0.9451 0.6264
C22 C 0.8493(5) 0.9836(3) 0.6893(2)
H18 H 0.8598 1.0639 0.6781
C23 C 0.9387(5) 0.9378(4) 0.7361(2)
H19 H 1.0084 0.9869 0.7569
C24 C 0.7456(4) 0.3798(3) 0.63569(17)
H20 H 0.8029 0.3289 0.6103
C25 C 0.0617(4) 0.1407(3) 0.53796(15)
H21 H -0.0158 0.1243 0.5092
C26 C 0.1259(4) 0.0501(3) 0.57096(14)
H22 H 0.0921 -0.0281 0.5646
C27 C 0.9259(4) 0.8208(3) 0.75240(17)
H23 H 0.9866 0.7896 0.7845
loop_
_geom_bond_atom_site_label_1
_geom_bond_atom_site_label_2
_geom_bond_site_symmetry_1
_geom_bond_site_symmetry_2
O1 N1 1_555 1_555
N1 C2 1_555 1_555
C1 C5 1_555 1_555
C2 H1 1_555 1_555
C3 H2 1_555 1_555
C4 C3 1_555 1_555
C5 H3 1_555 1_555
C6 C3 1_555 1_555
C7 C2 1_555 1_555
C8 N1 1_555 1_555
C9 C6 1_555 1_555
H4 C9 1_555 1_555
C10 C1 1_555 1_555
H5 C10 1_555 1_555
C11 C8 1_555 1_555
C12 C2 1_555 1_555
H6 C12 1_555 1_555
H7 C12 1_555 1_555
C13 C4 1_555 1_555
C14 C4 1_555 1_555
H8 C14 1_555 1_555
C15 C9 1_555 1_555
H9 C15 1_555 1_555
C16 C7 1_555 1_555
H10 C16 1_555 1_555
H11 C16 1_555 1_555
H12 C16 1_555 1_555
C17 C11 1_555 1_555
H13 C17 1_555 1_555
C18 C14 1_555 1_555
H14 C18 1_555 1_555
C19 H15 1_555 1_555
C20 C5 1_555 1_555
H16 C20 1_555 1_555
C21 C11 1_555 1_555
H17 C21 1_555 1_555
C22 C21 1_555 1_555
H18 C22 1_555 1_555
C23 C22 1_555 1_555
H19 C23 1_555 1_555
C24 C10 1_555 1_555
H20 C24 1_555 1_555
C25 C13 1_555 1_555
H21 C25 1_555 1_555
C26 C18 1_555 1_555
H22 C26 1_555 1_555
C27 C17 1_555 1_555
H23 C27 1_555 1_555
C1 C8 1_555 1_555
C6 C7 1_555 1_555
C7 C12 1_555 1_555
C13 C15 1_555 1_555
C19 C20 1_555 1_555
C19 C24 1_555 1_555
C23 C27 1_555 1_555
C25 C26 1_555 1_555

#END
