
#######################################################################
#
#                 Cambridge Crystallographic Data Centre
#                                CCDC 
#
#######################################################################
#
# If this CIF has been generated from an entry in the Cambridge 
# Structural Database, then it will include bibliographic, chemical, 
# crystal, experimental, refinement or atomic coordinate data resulting 
# from the CCDC's data processing and validation procedures.
#
#######################################################################

data_QEGSUR
_chemical_formula_moiety         'C32 H20 N6 O6,1.5(C4 H8 O2)'
_chemical_name_systematic        
'(+)-(1R,3R,5R,6R,8R,10R)-4,7,11-tris(N-Phthalimidyl)-4,7,11-triazapentacyclo(6.3.0.0^2,6^.0^3,10^.0^5,9^)undecane dioxane solvate'
_symmetry_cell_setting           orthorhombic
_symmetry_space_group_name_H-M   'P 21 21 21'
_symmetry_Int_Tables_number      19
_space_group_name_Hall           'P 2ac 2ab'
loop_
_symmetry_equiv_pos_site_id
_symmetry_equiv_pos_as_xyz
1 x,y,z
2 1/2-x,-y,1/2+z
3 -x,1/2+y,1/2-z
4 1/2+x,1/2-y,-z
_cell_length_a                   5.515(2)
_cell_length_b                   23.769(2)
_cell_length_c                   24.449(2)
_cell_angle_alpha                90
_cell_angle_beta                 90
_cell_angle_gamma                90
_cell_volume                     3204.92
_exptl_crystal_colour            yellowish
_exptl_crystal_description       needle
_cell_formula_units_Z            4
_exptl_crystal_recrystallization_method dioxane/water
loop_
_atom_site_label
_atom_site_type_symbol
_atom_site_fract_x
_atom_site_fract_y
_atom_site_fract_z
C1 C 0.3223(5) 0.50433(11) 0.89378(10)
H1 H 0.3108 0.4657 0.9099
C2 C 0.0773(5) 0.53672(10) 0.88740(9)
H2 H -0.0720 0.5129 0.8880
C3 C 0.1183(5) 0.57141(10) 0.83403(10)
H3 H 0.0299 0.5577 0.8009
N1 N 0.0606(4) 0.62962(8) 0.85162(8)
C4 C 0.2178(5) 0.62957(11) 0.90068(10)
H4 H 0.2362 0.6666 0.9197
C5 C 0.0933(5) 0.58311(10) 0.93372(10)
H5 H -0.0627 0.5935 0.9520
N2 N 0.2979(4) 0.56879(9) 0.97026(8)
C6 C 0.4627(5) 0.54805(10) 0.92800(10)
H6 H 0.6265 0.5360 0.9410
C7 C 0.4600(5) 0.59818(10) 0.88644(10)
H7 H 0.6090 0.6221 0.8862
C8 C 0.3987(5) 0.56839(10) 0.83116(10)
H8 H 0.4742 0.5852 0.7978
N3 N 0.4634(4) 0.50906(8) 0.84258(8)
N4 N 0.1226(4) 0.66902(8) 0.80996(8)
C9 C 0.3144(6) 0.70851(11) 0.80838(11)
O1 O 0.4699(4) 0.71534(8) 0.84261(8)
C10 C 0.2768(5) 0.74069(11) 0.75687(10)
C11 C 0.4134(6) 0.78342(11) 0.73470(11)
H9 H 0.5559 0.7968 0.7523
C12 C 0.3339(6) 0.80621(12) 0.68543(12)
H10 H 0.4227 0.8362 0.6694
C13 C 0.1285(6) 0.78627(12) 0.65907(11)
H11 H 0.0818 0.8021 0.6250
C14 C -0.0105(6) 0.74318(11) 0.68202(11)
H12 H -0.1531 0.7297 0.6646
C15 C 0.0684(5) 0.72093(10) 0.73120(10)
C16 C -0.0375(5) 0.67575(11) 0.76560(10)
O2 O -0.2176(4) 0.64788(8) 0.75809(7)
N5 N 0.2562(4) 0.53021(9) 1.01309(8)
C17 C 0.0664(5) 0.49127(10) 1.02002(10)
O3 O -0.0857(4) 0.47946(7) 0.98629(7)
C18 C 0.1015(5) 0.46807(11) 1.07606(10)
C19 C -0.0413(6) 0.43001(11) 1.10386(10)
H13 H -0.1864 0.4155 1.0884
C20 C 0.0384(6) 0.41379(11) 1.15617(10)
H14 H -0.0548 0.3880 1.1771
C21 C 0.2524(6) 0.43534(12) 1.17738(11)
H15 H 0.3046 0.4232 1.2125
C22 C 0.3929(6) 0.47405(11) 1.14904(10)
H16 H 0.5392 0.4885 1.1640
C23 C 0.3109(5) 0.49065(11) 1.09815(10)
C24 C 0.4136(6) 0.53172(11) 1.05865(10)
O4 O 0.5932(4) 0.56080(8) 1.06204(7)
N6 N 0.3965(4) 0.47329(9) 0.79872(8)
C25 C 0.5555(5) 0.46956(11) 0.75393(10)
O5 O 0.7406(4) 0.49711(8) 0.74872(7)
C26 C 0.4478(6) 0.42739(11) 0.71629(10)
C27 C 0.5240(6) 0.40912(11) 0.66517(10)
H17 H 0.6684 0.4230 0.6489
C28 C 0.3794(6) 0.36957(11) 0.63896(11)
H18 H 0.4281 0.3555 0.6043
C29 C 0.1659(6) 0.35008(12) 0.66210(11)
H19 H 0.0696 0.3237 0.6426
C30 C 0.0896(6) 0.36868(11) 0.71371(11)
H20 H -0.0559 0.3552 0.7299
C31 C 0.2347(5) 0.40741(11) 0.73997(10)
C32 C 0.2027(5) 0.43472(11) 0.79471(11)
O6 O 0.0512(4) 0.42526(7) 0.82902(7)
O7 O 0.1901(4) 0.30208(8) 0.96722(8)
O8 O 0.4942(4) 0.37616(8) 1.02711(8)
C33 C 0.2921(6) 0.35217(13) 0.94324(12)
H21 H 0.1773 0.3839 0.9477
H22 H 0.3181 0.3461 0.9036
C34 C 0.5296(6) 0.36655(13) 0.97019(11)
H23 H 0.6458 0.3353 0.9649
H24 H 0.5988 0.4007 0.9530
C35 C 0.3910(7) 0.32727(13) 1.05160(11)
H25 H 0.3618 0.3344 1.0909
H26 H 0.5061 0.2955 1.0484
C36 C 0.1551(6) 0.31203(13) 1.02405(11)
H27 H 0.0871 0.2778 1.0414
H28 H 0.0372 0.3430 1.0290
O9? O 1.0995(16) 0.7095(3) 1.0194(3)
O10? O 0.7999(14) 0.7889(3) 0.9671(3)
C37? C 1.154(3) 0.7686(6) 1.0214(7)
H29? H 1.3321 0.7740 1.0233
H30? H 1.0815 0.7854 1.0546
C38? C 1.055(3) 0.7980(6) 0.9711(7)
H31? H 1.0890 0.8389 0.9735
H32? H 1.1367 0.7832 0.9380
C39? C 0.750(3) 0.7301(6) 0.9651(7)
H33? H 0.8263 0.7136 0.9321
H34? H 0.5724 0.7242 0.9622
C40? C 0.844(3) 0.7004(7) 1.0153(6)
H35? H 0.7619 0.7152 1.0483
H36? H 0.8100 0.6596 1.0127
O11? O 0.8767(19) 0.7395(4) 1.0483(3)
O12? O 1.0604(19) 0.7601(4) 0.9405(4)
C41? C 1.115(3) 0.7628(10) 1.0390(7)
H37? H 1.2351 0.7320 1.0370
H38? H 1.1595 0.7876 1.0699
C42? C 1.120(4) 0.7963(9) 0.9861(7)
H39? H 1.0021 0.8276 0.9882
H40? H 1.2837 0.8126 0.9807
C43? C 0.822(3) 0.7385(10) 0.9496(7)
H41? H 0.7758 0.7137 0.9188
H42? H 0.7053 0.7701 0.9509
C44? C 0.809(5) 0.7058(9) 1.0025(7)
H43? H 0.6421 0.6917 1.0078
H44? H 0.9189 0.6729 1.0002
loop_
_geom_bond_atom_site_label_1
_geom_bond_atom_site_label_2
_geom_bond_site_symmetry_1
_geom_bond_site_symmetry_2
C1 H1 1_555 1_555
C2 C1 1_555 1_555
H2 C2 1_555 1_555
C3 C2 1_555 1_555
H3 C3 1_555 1_555
N1 C3 1_555 1_555
C4 N1 1_555 1_555
H4 C4 1_555 1_555
C5 C2 1_555 1_555
H5 C5 1_555 1_555
N2 C5 1_555 1_555
C6 C1 1_555 1_555
H6 C6 1_555 1_555
C7 C4 1_555 1_555
H7 C7 1_555 1_555
C8 C3 1_555 1_555
H8 C8 1_555 1_555
N3 C1 1_555 1_555
N4 N1 1_555 1_555
C9 N4 1_555 1_555
O1 C9 1_555 1_555
C10 C9 1_555 1_555
C11 C10 1_555 1_555
H9 C11 1_555 1_555
C12 C11 1_555 1_555
H10 C12 1_555 1_555
C13 C12 1_555 1_555
H11 C13 1_555 1_555
C14 C13 1_555 1_555
H12 C14 1_555 1_555
C15 C10 1_555 1_555
C16 N4 1_555 1_555
O2 C16 1_555 1_555
N5 N2 1_555 1_555
C17 N5 1_555 1_555
O3 C17 1_555 1_555
C18 C17 1_555 1_555
C19 C18 1_555 1_555
H13 C19 1_555 1_555
C20 C19 1_555 1_555
H14 C20 1_555 1_555
C21 C20 1_555 1_555
H15 C21 1_555 1_555
C22 C21 1_555 1_555
H16 C22 1_555 1_555
C23 C18 1_555 1_555
C24 N5 1_555 1_555
O4 C24 1_555 1_555
N6 N3 1_555 1_555
C25 N6 1_555 1_555
O5 C25 1_555 1_555
C26 C25 1_555 1_555
C27 C26 1_555 1_555
H17 C27 1_555 1_555
C28 C27 1_555 1_555
H18 C28 1_555 1_555
C29 C28 1_555 1_555
H19 C29 1_555 1_555
C30 C29 1_555 1_555
H20 C30 1_555 1_555
C31 C26 1_555 1_555
C32 N6 1_555 1_555
O6 C32 1_555 1_555
O7 C33 1_555 1_555
O8 C34 1_555 1_555
C33 H21 1_555 1_555
H22 C33 1_555 1_555
C34 C33 1_555 1_555
H23 C34 1_555 1_555
H24 C34 1_555 1_555
C35 O8 1_555 1_555
H25 C35 1_555 1_555
H26 C35 1_555 1_555
C36 O7 1_555 1_555
H27 C36 1_555 1_555
H28 C36 1_555 1_555
C4 C5 1_555 1_555
N2 C6 1_555 1_555
C6 C7 1_555 1_555
C7 C8 1_555 1_555
C8 N3 1_555 1_555
C14 C15 1_555 1_555
C15 C16 1_555 1_555
C22 C23 1_555 1_555
C23 C24 1_555 1_555
C30 C31 1_555 1_555
C31 C32 1_555 1_555
C35 C36 1_555 1_555

#END
