
#######################################################################
#
#                 Cambridge Crystallographic Data Centre
#                                CCDC 
#
#######################################################################
#
# If this CIF has been generated from an entry in the Cambridge 
# Structural Database, then it will include bibliographic, chemical, 
# crystal, experimental, refinement or atomic coordinate data resulting 
# from the CCDC's data processing and validation procedures.
#
#######################################################################

data_QEGTUT
_chemical_name_common            Sildenafil
_chemical_formula_moiety         'C22 H30 N6 O4 S1'
_chemical_name_systematic        
5-(2-Ethoxy-5-((4-methylpiperazin-1-yl)sulfonyl)phenyl)-1-methyl-3-propyl-1,6-dihydro-7H-pyrazolo[4,3-d]pyrimidin-7-one
_chemical_properties_biological  
'A vasoactive agent used to treat erectile dysfunction and reduce symptoms in patients with pulmonary arterial hypertension (PAH).'
_symmetry_cell_setting           monoclinic
_symmetry_space_group_name_H-M   'P 21/c'
_symmetry_Int_Tables_number      14
_space_group_name_Hall           '-P 2ybc'
loop_
_symmetry_equiv_pos_site_id
_symmetry_equiv_pos_as_xyz
1 x,y,z
2 -x,1/2+y,1/2-z
3 -x,-y,-z
4 x,1/2-y,1/2+z
_cell_length_a                   17.273(2)
_cell_length_b                   17.0710(8)
_cell_length_c                   8.3171(4)
_cell_angle_alpha                90
_cell_angle_beta                 99.326(2)
_cell_angle_gamma                90
_cell_volume                     2420.03
_exptl_crystal_colour            colorless
_exptl_crystal_description       rhomb
_chemical_melting_point          '461-462 K'
_cell_formula_units_Z            4
_exptl_crystal_recrystallization_method acetone
loop_
_atom_site_label
_atom_site_type_symbol
_atom_site_fract_x
_atom_site_fract_y
_atom_site_fract_z
S1 S -0.23085(6) 0.11786(5) -0.05133(12)
O1 O -0.01360(13) -0.11927(11) -0.2361(3)
N1 N -0.21134(15) -0.18169(13) -0.0312(3)
O2 O -0.07619(14) -0.35814(12) -0.1837(3)
N2 N -0.10420(15) -0.22966(13) -0.1427(3)
H1 H -0.0622 -0.2166 -0.1794
N3 N -0.29572(17) 0.12448(13) -0.2167(4)
N4 N -0.23142(17) -0.38682(14) -0.0512(3)
C1 C -0.06058(19) -0.06272(17) -0.1895(4)
N5 N -0.37074(19) 0.09891(17) -0.5418(4)
N6 N -0.29680(17) -0.37055(14) 0.0133(3)
C2 C -0.14899(19) -0.16956(16) -0.0947(4)
O3 O -0.19262(16) 0.19212(12) -0.0279(3)
C3 C -0.23206(19) -0.25931(16) -0.0199(4)
C4 C -0.29829(19) -0.29289(18) 0.0331(4)
O4 O -0.26990(17) 0.08591(13) 0.0719(3)
C5 C -0.19168(19) -0.32092(17) -0.0727(4)
C6 C -0.12538(19) -0.08738(16) -0.1186(4)
C7 C -0.1206(2) -0.30927(17) -0.1372(4)
C8 C -0.0457(2) 0.01719(17) -0.2061(4)
H2 H -0.0019 0.0330 -0.2493
C9 C -0.1607(2) 0.04936(16) -0.0929(4)
C10 C -0.2669(2) 0.16118(19) -0.3556(5)
H3 H -0.2272 0.1281 -0.3909
H4 H -0.2431 0.2113 -0.3225
C11 C -0.1743(2) -0.02985(16) -0.0726(4)
H5 H -0.2176 -0.0449 -0.0267
C12 C -0.0955(2) 0.07267(19) -0.1589(4)
H6 H -0.0854 0.1257 -0.1713
C13 C 0.0497(2) -0.09739(19) -0.3212(5)
H7 H 0.0882 -0.0659 -0.2516
H8 H 0.0299 -0.0674 -0.4183
C14 C -0.3411(2) 0.0518(2) -0.2643(5)
H9 H -0.3645 0.0331 -0.1730
H10 H -0.3061 0.0114 -0.2922
C15 C -0.3332(3) 0.1729(2) -0.4938(5)
H11 H -0.3713 0.2087 -0.4607
H12 H -0.3134 0.1959 -0.5857
C16 C -0.4042(2) 0.0668(2) -0.4069(6)
H13 H -0.4312 0.0182 -0.4404
H14 H -0.4421 0.1033 -0.3758
C17 C 0.0860(2) -0.1729(2) -0.3661(5)
H15 H 0.1287 -0.1615 -0.4232
H16 H 0.0472 -0.2034 -0.4348
H17 H 0.1051 -0.2019 -0.2689
C18 C -0.3623(2) -0.2541(2) 0.1025(5)
H18 H -0.4038 -0.2924 0.1032
H19 H -0.3421 -0.2417 0.2153
C19 C -0.4296(3) 0.1064(3) -0.6888(6)
H20 H -0.4532 0.0563 -0.7164
H21 H -0.4049 0.1248 -0.7771
H22 H -0.4692 0.1430 -0.6692
C20 C -0.2146(2) -0.46744(17) -0.0940(5)
H23 H -0.2541 -0.5017 -0.0644
H24 H -0.1641 -0.4826 -0.0366
H25 H -0.2146 -0.4709 -0.2092
C21 C -0.4569(3) -0.1437(3) 0.1127(6)
H26 H -0.4781 -0.0994 0.0493
H27 H -0.4319 -0.1263 0.2182
H28 H -0.4984 -0.1795 0.1248
C22 C -0.3975(4) -0.1844(3) 0.0274(7)
H29 H -0.4228 -0.1975 -0.0820
H30 H -0.3559 -0.1474 0.0173
loop_
_geom_bond_atom_site_label_1
_geom_bond_atom_site_label_2
_geom_bond_site_symmetry_1
_geom_bond_site_symmetry_2
S1 N3 1_555 1_555
O1 C1 1_555 1_555
N1 C2 1_555 1_555
O2 C7 1_555 1_555
N2 H1 1_555 1_555
N3 C10 1_555 1_555
N4 N6 1_555 1_555
C1 C6 1_555 1_555
N5 C15 1_555 1_555
N6 C4 1_555 1_555
C2 N2 1_555 1_555
O3 S1 1_555 1_555
C3 N1 1_555 1_555
C4 C3 1_555 1_555
O4 S1 1_555 1_555
C5 N4 1_555 1_555
C6 C2 1_555 1_555
C7 N2 1_555 1_555
C8 C1 1_555 1_555
H2 C8 1_555 1_555
C9 S1 1_555 1_555
C10 H3 1_555 1_555
H4 C10 1_555 1_555
C11 C6 1_555 1_555
H5 C11 1_555 1_555
C12 C8 1_555 1_555
H6 C12 1_555 1_555
C13 O1 1_555 1_555
H7 C13 1_555 1_555
H8 C13 1_555 1_555
C14 N3 1_555 1_555
H9 C14 1_555 1_555
H10 C14 1_555 1_555
C15 C10 1_555 1_555
H11 C15 1_555 1_555
H12 C15 1_555 1_555
C16 N5 1_555 1_555
H13 C16 1_555 1_555
H14 C16 1_555 1_555
C17 C13 1_555 1_555
H15 C17 1_555 1_555
H16 C17 1_555 1_555
H17 C17 1_555 1_555
C18 C4 1_555 1_555
H18 C18 1_555 1_555
H19 C18 1_555 1_555
C19 N5 1_555 1_555
H20 C19 1_555 1_555
H21 C19 1_555 1_555
H22 C19 1_555 1_555
C20 N4 1_555 1_555
H23 C20 1_555 1_555
H24 C20 1_555 1_555
H25 C20 1_555 1_555
C21 H26 1_555 1_555
H27 C21 1_555 1_555
H28 C21 1_555 1_555
C22 C18 1_555 1_555
H29 C22 1_555 1_555
H30 C22 1_555 1_555
C3 C5 1_555 1_555
C5 C7 1_555 1_555
C9 C11 1_555 1_555
C9 C12 1_555 1_555
C14 C16 1_555 1_555
C21 C22 1_555 1_555

#END
