
#######################################################################
#
#                 Cambridge Crystallographic Data Centre
#                                CCDC 
#
#######################################################################
#
# If this CIF has been generated from an entry in the Cambridge 
# Structural Database, then it will include bibliographic, chemical, 
# crystal, experimental, refinement or atomic coordinate data resulting 
# from the CCDC's data processing and validation procedures.
#
#######################################################################

data_QEGZIO
_chemical_formula_moiety         'C14 H10 Cl1 N1 O2'
_chemical_name_systematic        4-chloro-N-(2-formylphenyl)benzamide
_symmetry_cell_setting           monoclinic
_symmetry_space_group_name_H-M   'P 21/c'
_symmetry_Int_Tables_number      14
_space_group_name_Hall           '-P 2ybc'
loop_
_symmetry_equiv_pos_site_id
_symmetry_equiv_pos_as_xyz
1 x,y,z
2 -x,1/2+y,1/2-z
3 -x,-y,-z
4 x,1/2-y,1/2+z
_cell_length_a                   11.807(2)
_cell_length_b                   5.0218(10)
_cell_length_c                   21.194(4)
_cell_angle_alpha                90
_cell_angle_beta                 104.70(3)
_cell_angle_gamma                90
_cell_volume                     1215.51
_exptl_crystal_colour            colorless
_exptl_crystal_description       block
_cell_formula_units_Z            4
loop_
_atom_site_label
_atom_site_type_symbol
_atom_site_fract_x
_atom_site_fract_y
_atom_site_fract_z
Cl1 Cl 0.29813(5) 0.95309(16) 0.28356(3)
N1 N 0.80246(14) 0.9943(3) 0.52062(8)
H1 H 0.7588 0.8573 0.5208
O1 O 0.81497(13) 1.3711(3) 0.46320(8)
O2 O 0.73543(14) 0.5878(3) 0.58737(8)
C1 C 0.43269(17) 1.0099(5) 0.33879(10)
C2 C 0.5052(2) 1.2012(6) 0.32505(12)
H2 H 0.4834 1.2991 0.2866
C3 C 0.6114(2) 1.2465(5) 0.36926(11)
H3 H 0.6606 1.3780 0.3604
C4 C 0.64622(16) 1.1027(4) 0.42599(9)
C5 C 0.5711(2) 0.9094(5) 0.43780(12)
H4 H 0.5929 0.8082 0.4757
C6 C 0.4641(2) 0.8634(5) 0.39422(12)
H5 H 0.4140 0.7333 0.4029
C7 C 0.90453(16) 1.0062(4) 0.57109(9)
C8 C 0.99466(16) 1.1871(4) 0.57223(10)
H6 H 0.9885 1.3077 0.5382
C9 C 1.09288(17) 1.1868(4) 0.62387(10)
H7 H 1.1523 1.3086 0.6241
C10 C 1.10560(19) 1.0115(5) 0.67506(11)
H8 H 1.1722 1.0155 0.7097
C11 C 1.01788(19) 0.8301(4) 0.67398(10)
H9 H 1.0261 0.7096 0.7082
C12 C 0.91696(17) 0.8230(4) 0.62278(9)
C13 C 0.76261(17) 1.1700(4) 0.47117(9)
C14 C 0.8290(2) 0.6225(4) 0.62633(11)
H10 H 0.8468 0.5097 0.6623
loop_
_geom_bond_atom_site_label_1
_geom_bond_atom_site_label_2
_geom_bond_site_symmetry_1
_geom_bond_site_symmetry_2
Cl1 C1 1_555 1_555
N1 H1 1_555 1_555
O1 C13 1_555 1_555
O2 C14 1_555 1_555
C1 C2 1_555 1_555
C2 H2 1_555 1_555
C3 C2 1_555 1_555
H3 C3 1_555 1_555
C4 C3 1_555 1_555
C5 C4 1_555 1_555
H4 C5 1_555 1_555
C6 C1 1_555 1_555
H5 C6 1_555 1_555
C7 N1 1_555 1_555
C8 C7 1_555 1_555
H6 C8 1_555 1_555
C9 C8 1_555 1_555
H7 C9 1_555 1_555
C10 C9 1_555 1_555
H8 C10 1_555 1_555
C11 C10 1_555 1_555
H9 C11 1_555 1_555
C12 C7 1_555 1_555
C13 N1 1_555 1_555
C14 C12 1_555 1_555
H10 C14 1_555 1_555
C4 C13 1_555 1_555
C5 C6 1_555 1_555
C11 C12 1_555 1_555

#END
