
#######################################################################
#
#                 Cambridge Crystallographic Data Centre
#                                CCDC 
#
#######################################################################
#
# If this CIF has been generated from an entry in the Cambridge 
# Structural Database, then it will include bibliographic, chemical, 
# crystal, experimental, refinement or atomic coordinate data resulting 
# from the CCDC's data processing and validation procedures.
#
#######################################################################

data_QEHBEL
_chemical_name_common            
'rac-3-Acetyl-1,4,7,8,10-pentanitrooctahydro-1H-5,2,6-(epiminomethanetriylimino)imidazo(4,5-b)pyrazine 1,4-dioxane solvate'
_chemical_formula_moiety         'C8 H9 N11 O11,1.5(C4 H8 O2)'
_chemical_name_systematic        
'rac-Monoacetyl-pentanitro-hexaaza-isowurtzitane 1,4-dioxane solvate'
_symmetry_cell_setting           triclinic
_symmetry_space_group_name_H-M   'P -1'
_symmetry_Int_Tables_number      2
_space_group_name_Hall           '-P 1'
loop_
_symmetry_equiv_pos_site_id
_symmetry_equiv_pos_as_xyz
1 x,y,z
2 -x,-y,-z
_cell_length_a                   8.1677(16)
_cell_length_b                   10.139(2)
_cell_length_c                   15.046(3)
_cell_angle_alpha                82.30(3)
_cell_angle_beta                 89.09(3)
_cell_angle_gamma                71.72(3)
_cell_volume                     1171.99
_exptl_crystal_colour            colorless
_exptl_crystal_description       block
_cell_formula_units_Z            2
loop_
_atom_site_label
_atom_site_type_symbol
_atom_site_fract_x
_atom_site_fract_y
_atom_site_fract_z
O1 O -0.3236(4) 0.3001(3) 0.9299(2)
O2 O 0.2570(4) 0.3436(4) 0.93928(18)
O3 O 0.1266(3) 0.5640(3) 0.96310(16)
O4 O -0.1117(5) 0.1907(3) 0.6730(2)
O5 O -0.3682(4) 0.3425(3) 0.64052(19)
O6 O 0.2293(4) 0.4164(3) 0.56310(17)
O7 O 0.1108(3) 0.6411(3) 0.53762(16)
O8 O -0.5915(3) 0.5606(3) 0.8102(2)
O9 O -0.6002(3) 0.6246(3) 0.66707(19)
O10 O -0.0136(4) 0.8225(3) 0.82487(19)
O11 O -0.0102(4) 0.8506(3) 0.6800(2)
N1 N -0.1504(3) 0.3747(3) 0.83319(16)
N2 N 0.0472(3) 0.4906(3) 0.84031(15)
N3 N -0.1447(3) 0.4173(3) 0.65736(15)
N4 N 0.0524(3) 0.5254(2) 0.66623(15)
N5 N -0.3518(3) 0.5740(3) 0.74423(16)
N6 N -0.1321(3) 0.6971(2) 0.75027(16)
N7 N 0.1466(4) 0.4667(4) 0.92005(19)
N8 N -0.2151(5) 0.3100(4) 0.6569(2)
N9 N 0.1347(4) 0.5277(4) 0.58064(18)
N10 N -0.5270(4) 0.5848(3) 0.7407(2)
N11 N -0.0432(4) 0.7971(3) 0.7516(2)
C1 C 0.0210(4) 0.3709(3) 0.80525(18)
H1 H 0.1071 0.2829 0.8306
C2 C 0.0249(4) 0.3926(3) 0.69923(18)
H2 H 0.1122 0.3141 0.6771
C3 C -0.2551(4) 0.5222(3) 0.82820(19)
H3 H -0.3320 0.5368 0.8791
C4 C -0.1193(4) 0.6015(3) 0.8320(2)
H4 H -0.1374 0.6522 0.8842
C5 C -0.2542(4) 0.5600(3) 0.66341(19)
H5 H -0.3296 0.5988 0.6099
C6 C -0.1154(4) 0.6355(3) 0.66776(19)
H6 H -0.1291 0.7079 0.6158
C7 C -0.1773(6) 0.2736(4) 0.8990(2)
C8 C -0.0557(5) 0.1619(4) 0.9195(2)
H7 H -0.0752 0.1171 0.9772
H8 H 0.0510 0.1826 0.9216
H9 H -0.0498 0.1005 0.8753
O12 O 0.3372(4) 0.1029(3) 0.76520(19)
O13 O 0.5518(6) -0.1249(4) 0.8787(2)
C9 C 0.3172(8) -0.0294(5) 0.7737(4)
H10 H 0.3846 -0.0822 0.7290
H11 H 0.1970 -0.0203 0.7634
C10 C 0.3747(10) -0.1059(6) 0.8647(4)
H12 H 0.3080 -0.0530 0.9095
H13 H 0.3556 -0.1963 0.8708
C11 C 0.5746(7) 0.0091(8) 0.8704(4)
H14 H 0.6956 -0.0013 0.8795
H15 H 0.5098 0.0616 0.9159
C12 C 0.5148(7) 0.0856(5) 0.7807(4)
H16 H 0.5314 0.1769 0.7754
H17 H 0.5829 0.0344 0.7356
O14 O 0.3962(5) 0.1237(3) 0.4494(2)
C13 C 0.5399(9) 0.1196(5) 0.4990(4)
H18 H 0.5052 0.1418 0.5586
H19 H 0.5884 0.1900 0.4705
C14 C 0.3269(8) 0.0199(7) 0.4935(4)
H20 H 0.2273 0.0190 0.4596
H21 H 0.2901 0.0421 0.5528
O14A O 0.6038(5) -0.1237(3) 0.5506(2)
C13A C 0.4601(9) -0.1196(5) 0.5010(4)
H18A H 0.4948 -0.1418 0.4414
H19A H 0.4116 -0.1900 0.5295
C14A C 0.6731(8) -0.0199(7) 0.5065(4)
H20A H 0.7727 -0.0190 0.5404
H21A H 0.7099 -0.0421 0.4472
loop_
_geom_bond_atom_site_label_1
_geom_bond_atom_site_label_2
_geom_bond_site_symmetry_1
_geom_bond_site_symmetry_2
O1 C7 1_555 1_555
O2 N7 1_555 1_555
O3 N7 1_555 1_555
O4 N8 1_555 1_555
O5 N8 1_555 1_555
O6 N9 1_555 1_555
O7 N9 1_555 1_555
O8 N10 1_555 1_555
O9 N10 1_555 1_555
O10 N11 1_555 1_555
O11 N11 1_555 1_555
O12 C9 1_555 1_555
O13 C10 1_555 1_555
O14 C13 1_555 1_555
N1 C1 1_555 1_555
N2 N7 1_555 1_555
N3 N8 1_555 1_555
N4 N9 1_555 1_555
N5 N10 1_555 1_555
N6 N11 1_555 1_555
C1 N2 1_555 1_555
H1 C1 1_555 1_555
C2 N3 1_555 1_555
H2 C2 1_555 1_555
C3 N1 1_555 1_555
H3 C3 1_555 1_555
C4 N2 1_555 1_555
H4 C4 1_555 1_555
C5 N3 1_555 1_555
H5 C5 1_555 1_555
C6 N4 1_555 1_555
H6 C6 1_555 1_555
C7 N1 1_555 1_555
C8 C7 1_555 1_555
H7 C8 1_555 1_555
H8 C8 1_555 1_555
H9 C8 1_555 1_555
C9 H10 1_555 1_555
H11 C9 1_555 1_555
C10 C9 1_555 1_555
H12 C10 1_555 1_555
H13 C10 1_555 1_555
C11 O13 1_555 1_555
H14 C11 1_555 1_555
H15 C11 1_555 1_555
C12 O12 1_555 1_555
H16 C12 1_555 1_555
H17 C12 1_555 1_555
C13 H18 1_555 1_555
H19 C13 1_555 1_555
C14 O14 1_555 1_555
H20 C14 1_555 1_555
H21 C14 1_555 1_555
O14A C13A 1_555 1_555
C13A C14 1_555 1_555
H18A C13A 1_555 1_555
H19A C13A 1_555 1_555
C14A C13 1_555 1_555
H20A C14A 1_555 1_555
H21A C14A 1_555 1_555
N4 C2 1_555 1_555
N5 C3 1_555 1_555
N5 C5 1_555 1_555
N6 C4 1_555 1_555
N6 C6 1_555 1_555
C1 C2 1_555 1_555
C3 C4 1_555 1_555
C5 C6 1_555 1_555
C11 C12 1_555 1_555
O14A C14A 1_555 1_555

#END
