
#######################################################################
#
#                 Cambridge Crystallographic Data Centre
#                                CCDC 
#
#######################################################################
#
# If this CIF has been generated from an entry in the Cambridge 
# Structural Database, then it will include bibliographic, chemical, 
# crystal, experimental, refinement or atomic coordinate data resulting 
# from the CCDC's data processing and validation procedures.
#
#######################################################################

data_QEHWEH
_chemical_formula_moiety         'C39 H59 Cs1 N2 O4 P2 Si2'
_chemical_name_systematic        
bis(1,2-bis(dimethoxyethane))-(bis(N-(trimethylsilyl)-diphenylphosphinimino)methanide-N,N')-cesium
_symmetry_cell_setting           monoclinic
_symmetry_space_group_name_H-M   'P 21/c'
_symmetry_Int_Tables_number      14
_space_group_name_Hall           '-P 2ybc'
loop_
_symmetry_equiv_pos_site_id
_symmetry_equiv_pos_as_xyz
1 x,y,z
2 -x,1/2+y,1/2-z
3 -x,-y,-z
4 x,1/2-y,1/2+z
_cell_length_a                   13.8885(2)
_cell_length_b                   16.7771(4)
_cell_length_c                   38.3042(5)
_cell_angle_alpha                90
_cell_angle_beta                 96.1663(13)
_cell_angle_gamma                90
_cell_volume                     8873.58
_exptl_crystal_colour            colorless
_exptl_crystal_description       block
_cell_formula_units_Z            8
loop_
_atom_site_label
_atom_site_type_symbol
_atom_site_fract_x
_atom_site_fract_y
_atom_site_fract_z
Cs1 Cs 0.777088(19) 0.677281(15) 0.805343(6)
C1 C 0.7359(3) 0.6466(3) 0.68684(11)
H1 H 0.7237 0.6415 0.6626
P1 P 0.68691(7) 0.57774(6) 0.71298(2)
C2 C 0.6379(3) 0.4993(3) 0.68279(10)
C3 C 0.6099(4) 0.4272(3) 0.69712(12)
H2 H 0.6149 0.4211 0.7214
C4 C 0.5749(4) 0.3652(3) 0.67574(13)
H3 H 0.5575 0.3174 0.6857
C5 C 0.5655(3) 0.3735(3) 0.63950(12)
H4 H 0.5415 0.3318 0.6251
C6 C 0.5926(3) 0.4453(3) 0.62504(12)
H5 H 0.5861 0.4517 0.6008
C7 C 0.6290(3) 0.5070(3) 0.64645(11)
H6 H 0.6479 0.5542 0.6364
C8 C 0.5747(3) 0.6170(3) 0.72793(11)
C9 C 0.5165(4) 0.6697(3) 0.70747(13)
H7 H 0.5349 0.6863 0.6860
C10 C 0.4312(4) 0.6981(4) 0.71860(17)
H8 H 0.3922 0.7327 0.7043
C11 C 0.4037(4) 0.6754(4) 0.75060(17)
H9 H 0.3473 0.6957 0.7582
C12 C 0.4605(4) 0.6222(4) 0.77132(15)
H10 H 0.4418 0.6062 0.7928
C13 C 0.5457(3) 0.5927(3) 0.76003(12)
H11 H 0.5833 0.5565 0.7739
P2 P 0.80715(7) 0.72530(6) 0.70379(2)
C14 C 0.8317(3) 0.7832(3) 0.66485(10)
C15 C 0.8112(3) 0.7547(3) 0.63051(11)
H12 H 0.7844 0.7043 0.6266
C16 C 0.8309(3) 0.8019(3) 0.60234(11)
H13 H 0.8165 0.7829 0.5796
C17 C 0.8715(3) 0.8765(3) 0.60753(11)
H14 H 0.8837 0.9076 0.5884
C18 C 0.8941(4) 0.9048(3) 0.64161(12)
H15 H 0.9229 0.9545 0.6455
C19 C 0.8730(4) 0.8580(3) 0.66973(12)
H16 H 0.8870 0.8774 0.6924
C20 C 0.9294(3) 0.6901(3) 0.71855(10)
C21 C 0.9889(3) 0.7322(3) 0.74366(12)
H17 H 0.9651 0.7769 0.7542
C22 C 1.0834(3) 0.7077(3) 0.75298(14)
H18 H 1.1230 0.7361 0.7697
C23 C 1.1192(4) 0.6407(3) 0.73734(14)
H19 H 1.1827 0.6245 0.7436
C24 C 1.0605(4) 0.5983(3) 0.71261(13)
H20 H 1.0842 0.5533 0.7022
C25 C 0.9663(3) 0.6230(3) 0.70329(11)
H21 H 0.9270 0.5943 0.6866
N1 N 0.7482(3) 0.5446(2) 0.74660(9)
Si1 Si 0.82909(9) 0.47099(7) 0.75625(3)
C26 C 0.9360(4) 0.5106(3) 0.78514(12)
H22 H 0.9659 0.5526 0.7732
H23 H 0.9820 0.4684 0.7906
H24 H 0.9149 0.5309 0.8065
C27 C 0.8754(4) 0.4214(3) 0.71718(13)
H25 H 0.8222 0.3978 0.7027
H26 H 0.9213 0.3807 0.7251
H27 H 0.9063 0.4604 0.7038
C28 C 0.7760(5) 0.3898(4) 0.78220(15)
H28 H 0.8271 0.3560 0.7926
H29 H 0.7314 0.3587 0.7669
H30 H 0.7426 0.4132 0.8003
N2 N 0.7772(3) 0.7793(2) 0.73446(9)
Si2 Si 0.69727(8) 0.85347(7) 0.73770(3)
C29 C 0.6138(3) 0.8313(3) 0.77158(12)
H31 H 0.5784 0.7834 0.7653
H32 H 0.5694 0.8748 0.7728
H33 H 0.6509 0.8244 0.7940
C30 C 0.6180(3) 0.8768(3) 0.69595(12)
H34 H 0.6579 0.8892 0.6777
H35 H 0.5775 0.9216 0.6997
H36 H 0.5782 0.8314 0.6891
C31 C 0.7615(4) 0.9475(3) 0.75309(15)
H37 H 0.8024 0.9371 0.7744
H38 H 0.7147 0.9875 0.7573
H39 H 0.8003 0.9659 0.7354
C32 C 0.7042(7) 0.8581(6) 0.8707(2)
H40 H 0.6463 0.8299 0.8622
H41 H 0.6950 0.9142 0.8665
H42 H 0.7184 0.8490 0.8955
O1 O 0.7829(4) 0.8304(3) 0.85294(11)
C33 C 0.8705(7) 0.8659(4) 0.8655(2)
H43 H 0.8804 0.8617 0.8909
H44 H 0.8695 0.9220 0.8593
C34 C 0.9493(6) 0.8256(6) 0.85006(18)
H45 H 0.9385 0.8288 0.8247
H46 H 1.0103 0.8516 0.8577
O2 O 0.9533(3) 0.7424(4) 0.86101(10)
C35 C 1.0226(12) 0.6836(16) 0.8516(5)
H47 H 1.0833 0.6915 0.8657
H48 H 1.0318 0.6893 0.8273
H49 H 0.9987 0.6311 0.8557
C36 C 0.5511(4) 0.6570(4) 0.87198(15)
H50 H 0.5211 0.6866 0.8523
H51 H 0.5394 0.6835 0.8933
H52 H 0.5243 0.6043 0.8717
O3 O 0.6516(3) 0.6523(3) 0.86992(9)
C37 C 0.7010(4) 0.6109(3) 0.90020(13)
H53 H 0.6775 0.5565 0.9009
H54 H 0.6880 0.6375 0.9217
C38 C 0.8057(4) 0.6108(4) 0.89733(13)
H55 H 0.8272 0.6649 0.8939
H56 H 0.8397 0.5911 0.9191
O4 O 0.8293(3) 0.5625(2) 0.86902(9)
C39 C 0.8387(5) 0.4814(3) 0.87776(14)
H57 H 0.7790 0.4623 0.8853
H58 H 0.8900 0.4747 0.8964
H59 H 0.8534 0.4517 0.8576
Cs2 Cs 0.705883(19) 0.247009(16) 0.451129(6)
C40 C 0.7996(3) 0.2754(2) 0.56484(10)
H60 H 0.8206 0.2784 0.5887
P3 P 0.84185(7) 0.34780(6) 0.53887(2)
C41 C 0.9541(3) 0.3155(2) 0.52151(10)
C42 C 1.0252(3) 0.2738(3) 0.54271(10)
H61 H 1.0154 0.2614 0.5657
C43 C 1.1100(3) 0.2507(3) 0.52970(11)
H62 H 1.1571 0.2231 0.5440
C44 C 1.1253(3) 0.2687(3) 0.49531(11)
H63 H 1.1821 0.2525 0.4866
C45 C 1.0565(3) 0.3103(3) 0.47420(11)
H64 H 1.0670 0.3227 0.4512
C46 C 0.9708(3) 0.3340(3) 0.48723(10)
H65 H 0.9245 0.3623 0.4729
C47 C 0.8895(3) 0.4256(2) 0.56983(10)
C48 C 0.8423(3) 0.4424(3) 0.59938(10)
H66 H 0.7901 0.4111 0.6044
C49 C 0.8725(3) 0.5053(3) 0.62139(11)
H67 H 0.8404 0.5161 0.6410
C50 C 0.9500(3) 0.5520(3) 0.61435(11)
H68 H 0.9695 0.5945 0.6290
C51 C 0.9990(3) 0.5354(3) 0.58520(11)
H69 H 1.0524 0.5657 0.5807
C52 C 0.9673(3) 0.4729(3) 0.56292(10)
H70 H 0.9987 0.4628 0.5431
P4 P 0.72244(7) 0.19759(6) 0.55184(2)
C53 C 0.7095(3) 0.1482(3) 0.59406(10)
C54 C 0.7001(3) 0.0661(3) 0.59535(11)
H71 H 0.6970 0.0366 0.5747
C55 C 0.6952(3) 0.0273(3) 0.62709(12)
H72 H 0.6886 -0.0279 0.6275
C56 C 0.7001(3) 0.0700(3) 0.65805(12)
H73 H 0.6990 0.0438 0.6794
C57 C 0.7067(3) 0.1523(3) 0.65705(11)
H74 H 0.7080 0.1815 0.6777
C58 C 0.7114(3) 0.1918(3) 0.62535(11)
H75 H 0.7159 0.2471 0.6249
C59 C 0.5981(3) 0.2331(2) 0.54043(10)
C60 C 0.5301(3) 0.1827(3) 0.52266(11)
H76 H 0.5499 0.1341 0.5142
C61 C 0.4330(3) 0.2040(3) 0.51738(12)
H77 H 0.3882 0.1697 0.5055
C62 C 0.4029(3) 0.2764(3) 0.52983(12)
H78 H 0.3379 0.2907 0.5265
C63 C 0.4705(3) 0.3272(3) 0.54722(12)
H79 H 0.4506 0.3760 0.5555
C64 C 0.5674(3) 0.3062(2) 0.55240(10)
H80 H 0.6122 0.3410 0.5639
N3 N 0.7705(2) 0.3782(2) 0.50713(9)
Si3 Si 0.71235(8) 0.46420(7) 0.49539(3)
C65 C 0.5882(3) 0.4385(3) 0.47382(11)
H81 H 0.5940 0.4063 0.4534
H82 H 0.5538 0.4866 0.4670
H83 H 0.5534 0.4095 0.4901
C66 C 0.6973(3) 0.5369(3) 0.53177(11)
H84 H 0.6637 0.5115 0.5494
H85 H 0.6606 0.5821 0.5224
H86 H 0.7598 0.5544 0.5420
C67 C 0.7743(4) 0.5209(3) 0.46202(13)
H87 H 0.8358 0.5400 0.4726
H88 H 0.7347 0.5654 0.4537
H89 H 0.7840 0.4865 0.4427
N4 N 0.7405(3) 0.1361(2) 0.52191(9)
Si4 Si 0.83519(8) 0.07494(7) 0.51769(3)
C68 C 0.9012(3) 0.1052(3) 0.47937(12)
H90 H 0.8576 0.1027 0.4582
H91 H 0.9546 0.0697 0.4776
H92 H 0.9249 0.1587 0.4828
C69 C 0.9282(3) 0.0708(3) 0.55735(12)
H93 H 0.9543 0.1231 0.5622
H94 H 0.9795 0.0352 0.5528
H95 H 0.8983 0.0520 0.5772
C70 C 0.7912(4) -0.0297(3) 0.50783(14)
H96 H 0.7576 -0.0488 0.5268
H97 H 0.8456 -0.0637 0.5052
H98 H 0.7482 -0.0299 0.4865
C71 C 0.5895(4) 0.4111(4) 0.37472(14)
H99 H 0.5325 0.3918 0.3841
H100 H 0.5729 0.4281 0.3509
H101 H 0.6158 0.4552 0.3886
O5 O 0.6597(3) 0.3488(2) 0.37558(9)
C72 C 0.7415(4) 0.3738(4) 0.35939(14)
H102 H 0.7735 0.4174 0.3726
H103 H 0.7214 0.3925 0.3358
C73 C 0.8096(4) 0.3057(3) 0.35817(12)
H104 H 0.7758 0.2604 0.3469
H105 H 0.8619 0.3203 0.3446
O6 O 0.8476(3) 0.2848(2) 0.39262(9)
C74 C 0.9222(4) 0.2279(3) 0.39230(14)
H106 H 0.9459 0.2140 0.4160
H107 H 0.9741 0.2499 0.3807
H108 H 0.8975 0.1811 0.3800
C75 C 0.4138(4) 0.2871(4) 0.42880(15)
H109 H 0.3691 0.2611 0.4425
H110 H 0.3803 0.3036 0.4068
H111 H 0.4409 0.3329 0.4413
O7 O 0.4886(3) 0.2338(3) 0.42272(12)
C76 C 0.4500(5) 0.1688(6) 0.4026(3)
H112 H 0.4104 0.1877 0.3819
H113 H 0.4099 0.1366 0.4163
C77 C 0.5335(6) 0.1196(6) 0.3920(2)
H114 H 0.5082 0.0743 0.3782
H115 H 0.5713 0.1517 0.3774
O8 O 0.5924(5) 0.0928(3) 0.42085(17)
C78 C 0.5413(6) 0.0394(6) 0.4428(3)
H116 H 0.5859 0.0193 0.4616
H117 H 0.5141 -0.0042 0.4288
H118 H 0.4904 0.0682 0.4523
C79? C 1.0397(11) 0.720(2) 0.8463(5)
H119? H 1.0952 0.7372 0.8615
H120? H 1.0405 0.7448 0.8237
H121? H 1.0415 0.6632 0.8437
loop_
_geom_bond_atom_site_label_1
_geom_bond_atom_site_label_2
_geom_bond_site_symmetry_1
_geom_bond_site_symmetry_2
Cs1 N1 1_555 1_555
C1 H1 1_555 1_555
P1 C1 1_555 1_555
C2 P1 1_555 1_555
C3 C2 1_555 1_555
H2 C3 1_555 1_555
C4 C3 1_555 1_555
H3 C4 1_555 1_555
C5 C4 1_555 1_555
H4 C5 1_555 1_555
C6 C5 1_555 1_555
H5 C6 1_555 1_555
C7 C2 1_555 1_555
H6 C7 1_555 1_555
C8 P1 1_555 1_555
C9 C8 1_555 1_555
H7 C9 1_555 1_555
C10 C9 1_555 1_555
H8 C10 1_555 1_555
C11 C10 1_555 1_555
H9 C11 1_555 1_555
C12 C11 1_555 1_555
H10 C12 1_555 1_555
C13 C8 1_555 1_555
H11 C13 1_555 1_555
P2 C1 1_555 1_555
C14 P2 1_555 1_555
C15 C14 1_555 1_555
H12 C15 1_555 1_555
C16 C15 1_555 1_555
H13 C16 1_555 1_555
C17 C16 1_555 1_555
H14 C17 1_555 1_555
C18 C17 1_555 1_555
H15 C18 1_555 1_555
C19 C14 1_555 1_555
H16 C19 1_555 1_555
C20 P2 1_555 1_555
C21 C20 1_555 1_555
H17 C21 1_555 1_555
C22 C21 1_555 1_555
H18 C22 1_555 1_555
C23 C22 1_555 1_555
H19 C23 1_555 1_555
C24 C23 1_555 1_555
H20 C24 1_555 1_555
C25 C20 1_555 1_555
H21 C25 1_555 1_555
N1 P1 1_555 1_555
Si1 N1 1_555 1_555
C26 Si1 1_555 1_555
H22 C26 1_555 1_555
H23 C26 1_555 1_555
H24 C26 1_555 1_555
C27 Si1 1_555 1_555
H25 C27 1_555 1_555
H26 C27 1_555 1_555
H27 C27 1_555 1_555
C28 Si1 1_555 1_555
H28 C28 1_555 1_555
H29 C28 1_555 1_555
H30 C28 1_555 1_555
N2 Cs1 1_555 1_555
Si2 N2 1_555 1_555
C29 Si2 1_555 1_555
H31 C29 1_555 1_555
H32 C29 1_555 1_555
H33 C29 1_555 1_555
C30 Si2 1_555 1_555
H34 C30 1_555 1_555
H35 C30 1_555 1_555
H36 C30 1_555 1_555
C31 Si2 1_555 1_555
H37 C31 1_555 1_555
H38 C31 1_555 1_555
H39 C31 1_555 1_555
C32 H40 1_555 1_555
H41 C32 1_555 1_555
H42 C32 1_555 1_555
O1 Cs1 1_555 1_555
C33 O1 1_555 1_555
H43 C33 1_555 1_555
H44 C33 1_555 1_555
C34 C33 1_555 1_555
H45 C34 1_555 1_555
H46 C34 1_555 1_555
O2 Cs1 1_555 1_555
C35 O2 1_555 1_555
H47 C35 1_555 1_555
H48 C35 1_555 1_555
H49 C35 1_555 1_555
C36 H50 1_555 1_555
H51 C36 1_555 1_555
H52 C36 1_555 1_555
O3 Cs1 1_555 1_555
C37 O3 1_555 1_555
H53 C37 1_555 1_555
H54 C37 1_555 1_555
C38 C37 1_555 1_555
H55 C38 1_555 1_555
H56 C38 1_555 1_555
O4 Cs1 1_555 1_555
C39 O4 1_555 1_555
H57 C39 1_555 1_555
H58 C39 1_555 1_555
H59 C39 1_555 1_555
Cs2 N3 1_555 1_555
C40 H60 1_555 1_555
P3 C40 1_555 1_555
C41 P3 1_555 1_555
C42 C41 1_555 1_555
H61 C42 1_555 1_555
C43 C42 1_555 1_555
H62 C43 1_555 1_555
C44 C43 1_555 1_555
H63 C44 1_555 1_555
C45 C44 1_555 1_555
H64 C45 1_555 1_555
C46 C41 1_555 1_555
H65 C46 1_555 1_555
C47 P3 1_555 1_555
C48 C47 1_555 1_555
H66 C48 1_555 1_555
C49 C48 1_555 1_555
H67 C49 1_555 1_555
C50 C49 1_555 1_555
H68 C50 1_555 1_555
C51 C50 1_555 1_555
H69 C51 1_555 1_555
C52 C47 1_555 1_555
H70 C52 1_555 1_555
P4 C40 1_555 1_555
C53 P4 1_555 1_555
C54 C53 1_555 1_555
H71 C54 1_555 1_555
C55 C54 1_555 1_555
H72 C55 1_555 1_555
C56 C55 1_555 1_555
H73 C56 1_555 1_555
C57 C56 1_555 1_555
H74 C57 1_555 1_555
C58 C53 1_555 1_555
H75 C58 1_555 1_555
C59 P4 1_555 1_555
C60 C59 1_555 1_555
H76 C60 1_555 1_555
C61 C60 1_555 1_555
H77 C61 1_555 1_555
C62 C61 1_555 1_555
H78 C62 1_555 1_555
C63 C62 1_555 1_555
H79 C63 1_555 1_555
C64 C59 1_555 1_555
H80 C64 1_555 1_555
N3 P3 1_555 1_555
Si3 N3 1_555 1_555
C65 Si3 1_555 1_555
H81 C65 1_555 1_555
H82 C65 1_555 1_555
H83 C65 1_555 1_555
C66 Si3 1_555 1_555
H84 C66 1_555 1_555
H85 C66 1_555 1_555
H86 C66 1_555 1_555
C67 Si3 1_555 1_555
H87 C67 1_555 1_555
H88 C67 1_555 1_555
H89 C67 1_555 1_555
N4 Cs2 1_555 1_555
Si4 N4 1_555 1_555
C68 Si4 1_555 1_555
H90 C68 1_555 1_555
H91 C68 1_555 1_555
H92 C68 1_555 1_555
C69 Si4 1_555 1_555
H93 C69 1_555 1_555
H94 C69 1_555 1_555
H95 C69 1_555 1_555
C70 Si4 1_555 1_555
H96 C70 1_555 1_555
H97 C70 1_555 1_555
H98 C70 1_555 1_555
C71 H99 1_555 1_555
H100 C71 1_555 1_555
H101 C71 1_555 1_555
O5 Cs2 1_555 1_555
C72 O5 1_555 1_555
H102 C72 1_555 1_555
H103 C72 1_555 1_555
C73 C72 1_555 1_555
H104 C73 1_555 1_555
H105 C73 1_555 1_555
O6 Cs2 1_555 1_555
C74 O6 1_555 1_555
H106 C74 1_555 1_555
H107 C74 1_555 1_555
H108 C74 1_555 1_555
C75 H109 1_555 1_555
H110 C75 1_555 1_555
H111 C75 1_555 1_555
O7 Cs2 1_555 1_555
C76 O7 1_555 1_555
H112 C76 1_555 1_555
H113 C76 1_555 1_555
C77 C76 1_555 1_555
H114 C77 1_555 1_555
H115 C77 1_555 1_555
O8 Cs2 1_555 1_555
C78 O8 1_555 1_555
H116 C78 1_555 1_555
H117 C78 1_555 1_555
H118 C78 1_555 1_555
C6 C7 1_555 1_555
C12 C13 1_555 1_555
P2 N2 1_555 1_555
C18 C19 1_555 1_555
C24 C25 1_555 1_555
C32 O1 1_555 1_555
C34 O2 1_555 1_555
C36 O3 1_555 1_555
C38 O4 1_555 1_555
C45 C46 1_555 1_555
C51 C52 1_555 1_555
P4 N4 1_555 1_555
C57 C58 1_555 1_555
C63 C64 1_555 1_555
C71 O5 1_555 1_555
C73 O6 1_555 1_555
C75 O7 1_555 1_555
C77 O8 1_555 1_555

#END
