
#######################################################################
#
#                 Cambridge Crystallographic Data Centre
#                                CCDC 
#
#######################################################################
#
# If this CIF has been generated from an entry in the Cambridge 
# Structural Database, then it will include bibliographic, chemical, 
# crystal, experimental, refinement or atomic coordinate data resulting 
# from the CCDC's data processing and validation procedures.
#
#######################################################################

data_QEHWOR
_chemical_formula_moiety         'C90 H102 Li2 N4 P4'
_chemical_name_systematic        
bis(\m~2~-(N-(Adamantan-1-yl)-P,P-diphenylphosphorimidoyl)-(N-(adamantan-1-yl)-P,P-diphenylphosphorimidoyl)methyl)-di-lithium
_symmetry_cell_setting           orthorhombic
_symmetry_space_group_name_H-M   'P n a 21'
_symmetry_Int_Tables_number      33
_space_group_name_Hall           'P 2c -2n'
loop_
_symmetry_equiv_pos_site_id
_symmetry_equiv_pos_as_xyz
1 x,y,z
2 -x,-y,1/2+z
3 1/2-x,1/2+y,1/2+z
4 1/2+x,1/2-y,z
_cell_length_a                   27.3090(7)
_cell_length_b                   12.5276(3)
_cell_length_c                   22.2817(6)
_cell_angle_alpha                90
_cell_angle_beta                 90
_cell_angle_gamma                90
_cell_volume                     7622.93
_exptl_crystal_colour            colorless
_exptl_crystal_description       block
_cell_formula_units_Z            4
loop_
_atom_site_label
_atom_site_type_symbol
_atom_site_fract_x
_atom_site_fract_y
_atom_site_fract_z
Li1 Li 0.3143(3) 0.2851(6) 0.2827(3)
Li2 Li 0.4267(3) 0.2756(5) 0.2552(3)
P1 P 0.36847(4) 0.19968(7) 0.38635(4)
P2 P 0.44827(4) 0.38141(7) 0.35577(5)
P3 P 0.37311(4) 0.22227(8) 0.14456(5)
P4 P 0.29479(3) 0.39820(7) 0.18376(5)
N1 N 0.31731(12) 0.1870(2) 0.35260(16)
N2 N 0.46697(12) 0.3949(3) 0.28849(16)
N3 N 0.42238(12) 0.1931(2) 0.17951(15)
N4 N 0.27649(12) 0.4111(3) 0.25162(16)
C1 C 0.39470(15) 0.3086(3) 0.34983(18)
H1 H 0.3678 0.3618 0.3441
C2 C 0.40926(15) 0.0830(3) 0.38000(19)
C3 C 0.39971(16) 0.0107(3) 0.33363(19)
H2 H 0.3725 0.0223 0.3078
C4 C 0.42921(17) -0.0770(3) 0.3250(2)
H3 H 0.4223 -0.1255 0.2933
C5 C 0.46895(17) -0.0951(3) 0.3622(2)
H4 H 0.4896 -0.1551 0.3558
C6 C 0.47834(17) -0.0255(3) 0.4086(2)
H5 H 0.5054 -0.0381 0.4345
C7 C 0.44851(15) 0.0632(3) 0.4178(2)
H6 H 0.4551 0.1104 0.4502
C8 C 0.36285(15) 0.2189(3) 0.46807(18)
C9 C 0.35773(15) 0.3219(3) 0.4904(2)
H7 H 0.3593 0.3809 0.4637
C10 C 0.35038(16) 0.3394(4) 0.5506(2)
H8 H 0.3465 0.4102 0.5652
C11 C 0.34860(16) 0.2535(4) 0.5904(2)
H9 H 0.3439 0.2655 0.6321
C12 C 0.35374(15) 0.1512(4) 0.5688(2)
H10 H 0.3519 0.0925 0.5957
C13 C 0.36148(15) 0.1327(3) 0.50841(19)
H11 H 0.3659 0.0618 0.4942
C14 C 0.49141(15) 0.3146(3) 0.40613(19)
C15 C 0.48770(16) 0.3193(3) 0.46838(19)
H12 H 0.4622 0.3597 0.4864
C16 C 0.52100(18) 0.2652(4) 0.5043(2)
H13 H 0.5185 0.2696 0.5468
C17 C 0.55793(18) 0.2048(4) 0.4785(2)
H14 H 0.5808 0.1683 0.5031
C18 C 0.56138(16) 0.1977(3) 0.4170(2)
H15 H 0.5862 0.1550 0.3993
C19 C 0.52843(15) 0.2532(3) 0.3805(2)
H16 H 0.5313 0.2490 0.3381
C20 C 0.43457(15) 0.5098(3) 0.39356(19)
C21 C 0.46637(16) 0.5605(3) 0.4329(2)
H17 H 0.4963 0.5268 0.4437
C22 C 0.45493(17) 0.6592(3) 0.4566(2)
H18 H 0.4770 0.6926 0.4837
C23 C 0.41190(17) 0.7100(3) 0.4413(2)
H19 H 0.4044 0.7782 0.4576
C24 C 0.37959(17) 0.6603(3) 0.4018(2)
H20 H 0.3498 0.6944 0.3911
C25 C 0.39087(16) 0.5616(3) 0.3784(2)
H21 H 0.3686 0.5282 0.3515
C26 C 0.27262(15) 0.1303(3) 0.37145(18)
C27 C 0.23829(15) 0.1321(3) 0.31676(19)
H22 H 0.2321 0.2070 0.3048
H23 H 0.2543 0.0954 0.2827
C28 C 0.24632(15) 0.1879(3) 0.42364(19)
H24 H 0.2674 0.1867 0.4598
H25 H 0.2404 0.2634 0.4126
C29 C 0.28162(16) 0.0129(3) 0.3884(2)
H26 H 0.2974 -0.0248 0.3545
H27 H 0.3039 0.0092 0.4234
C30 C 0.18928(16) 0.0772(4) 0.3305(2)
H28 H 0.1678 0.0789 0.2942
C31 C 0.16420(16) 0.1347(4) 0.3823(2)
H29 H 0.1327 0.0993 0.3916
H30 H 0.1573 0.2096 0.3708
C32 C 0.19721(16) 0.1328(4) 0.4375(2)
H31 H 0.1806 0.1705 0.4714
C33 C 0.20800(18) 0.0179(4) 0.4555(2)
H32 H 0.1771 -0.0187 0.4661
H33 H 0.2295 0.0172 0.4913
C34 C 0.23308(17) -0.0414(4) 0.4038(2)
H34 H 0.2393 -0.1171 0.4157
C35 C 0.19936(18) -0.0385(4) 0.3487(2)
H35 H 0.2151 -0.0769 0.3149
H36 H 0.1681 -0.0749 0.3581
C36 C 0.50007(15) 0.4743(3) 0.26264(19)
C37 C 0.51336(19) 0.4354(4) 0.1997(2)
H37 H 0.4830 0.4256 0.1760
H38 H 0.5299 0.3652 0.2027
C38 C 0.47508(15) 0.5840(3) 0.2563(2)
H39 H 0.4439 0.5755 0.2341
H40 H 0.4673 0.6123 0.2967
C39 C 0.54796(15) 0.4911(3) 0.29797(19)
H41 H 0.5403 0.5180 0.3387
H42 H 0.5652 0.4220 0.3023
C40 C 0.5472(2) 0.5142(4) 0.1668(2)
H43 H 0.5553 0.4862 0.1259
C41 C 0.5206(2) 0.6217(4) 0.1614(2)
H44 H 0.5419 0.6737 0.1405
H45 H 0.4903 0.6126 0.1375
C42 C 0.50771(17) 0.6636(3) 0.2232(2)
H46 H 0.4903 0.7335 0.2194
C43 C 0.55508(16) 0.6787(3) 0.2593(2)
H47 H 0.5767 0.7304 0.2386
H48 H 0.5473 0.7073 0.2996
C44 C 0.58128(15) 0.5712(3) 0.2654(2)
H49 H 0.6121 0.5811 0.2890
C45 C 0.59391(18) 0.5290(4) 0.2030(2)
H50 H 0.6158 0.5801 0.1823
H51 H 0.6113 0.4600 0.2066
C46 C 0.34774(14) 0.3226(3) 0.18843(19)
H52 H 0.3748 0.3747 0.1959
C47 C 0.38520(15) 0.2632(4) 0.0663(2)
C48 C 0.38910(17) 0.1892(4) 0.0192(2)
H53 H 0.3820 0.1159 0.0259
C49 C 0.40351(18) 0.2247(6) -0.0375(2)
H54 H 0.4061 0.1752 -0.0697
C50 C 0.41386(18) 0.3304(6) -0.0471(2)
H55 H 0.4233 0.3537 -0.0860
C51 C 0.41070(17) 0.4030(5) -0.0011(2)
H56 H 0.4185 0.4759 -0.0078
C52 C 0.39594(15) 0.3687(4) 0.0555(2)
H57 H 0.3933 0.4191 0.0872
C53 C 0.32809(15) 0.1142(3) 0.1379(2)
C54 C 0.32398(16) 0.0485(3) 0.1878(2)
H58 H 0.3446 0.0600 0.2216
C55 C 0.29007(18) -0.0339(4) 0.1889(3)
H59 H 0.2876 -0.0786 0.2232
C56 C 0.25980(17) -0.0509(4) 0.1400(3)
H60 H 0.2362 -0.1067 0.1410
C57 C 0.26381(19) 0.0126(4) 0.0902(3)
H61 H 0.2434 -0.0001 0.0564
C58 C 0.29778(17) 0.0960(4) 0.0889(2)
H62 H 0.3001 0.1403 0.0545
C59 C 0.25073(15) 0.3320(3) 0.13435(19)
C60 C 0.25226(17) 0.3403(3) 0.0722(2)
H63 H 0.2775 0.3808 0.0537
C61 C 0.21722(18) 0.2900(4) 0.0367(2)
H64 H 0.2178 0.2981 -0.0056
C62 C 0.18125(18) 0.2279(4) 0.0639(2)
H65 H 0.1574 0.1931 0.0399
C63 C 0.18007(17) 0.2164(3) 0.1253(2)
H66 H 0.1559 0.1727 0.1436
C64 C 0.21467(15) 0.2694(3) 0.1607(2)
H67 H 0.2135 0.2626 0.2031
C65 C 0.30804(15) 0.5281(3) 0.14764(19)
C66 C 0.35251(17) 0.5760(4) 0.1619(2)
H68 H 0.3756 0.5382 0.1858
C67 C 0.36375(16) 0.6778(3) 0.1418(2)
H69 H 0.3941 0.7098 0.1523
C68 C 0.33051(17) 0.7328(3) 0.1065(2)
H70 H 0.3380 0.8024 0.0923
C69 C 0.28617(17) 0.6856(3) 0.0921(2)
H71 H 0.2632 0.7233 0.0681
C70 C 0.27509(16) 0.5843(3) 0.11221(19)
H72 H 0.2446 0.5527 0.1017
C71 C 0.46325(15) 0.1244(3) 0.16199(18)
C72 C 0.49768(15) 0.1209(3) 0.21681(19)
H73 H 0.5080 0.1944 0.2272
H74 H 0.4798 0.0910 0.2516
C73 C 0.44782(15) 0.0101(3) 0.1470(2)
H75 H 0.4263 0.0105 0.1113
H76 H 0.4291 -0.0202 0.1811
C74 C 0.49306(15) 0.1695(3) 0.10850(19)
H77 H 0.4721 0.1714 0.0722
H78 H 0.5033 0.2436 0.1176
C75 C 0.54311(16) 0.0528(3) 0.2044(2)
H79 H 0.5646 0.0517 0.2407
C76 C 0.52667(16) -0.0603(3) 0.1895(2)
H80 H 0.5090 -0.0911 0.2243
H81 H 0.5557 -0.1055 0.1814
C77 C 0.49304(16) -0.0598(3) 0.1346(2)
H82 H 0.4825 -0.1343 0.1250
C78 C 0.52126(16) -0.0125(4) 0.0810(2)
H83 H 0.5499 -0.0579 0.0717
H84 H 0.4998 -0.0107 0.0452
C79 C 0.53844(16) 0.1010(3) 0.0960(2)
H85 H 0.5569 0.1313 0.0612
C80 C 0.57126(15) 0.0992(3) 0.1515(2)
H86 H 0.6007 0.0554 0.1434
H87 H 0.5821 0.1727 0.1611
C81 C 0.24225(15) 0.4912(3) 0.27486(19)
C82 C 0.22491(17) 0.4530(3) 0.3367(2)
H88 H 0.2537 0.4420 0.3630
H89 H 0.2079 0.3836 0.3323
C83 C 0.19634(16) 0.5080(3) 0.2359(2)
H90 H 0.2062 0.5334 0.1956
H91 H 0.1790 0.4391 0.2309
C84 C 0.26762(15) 0.6010(3) 0.2834(2)
H92 H 0.2972 0.5920 0.3087
H93 H 0.2781 0.6290 0.2439
C85 C 0.19011(18) 0.5336(4) 0.3661(2)
H94 H 0.1794 0.5057 0.4061
C86 C 0.14506(17) 0.5488(4) 0.3257(2)
H95 H 0.1277 0.4800 0.3209
H96 H 0.1222 0.6005 0.3442
C87 C 0.16165(16) 0.5897(3) 0.2647(2)
H97 H 0.1324 0.5999 0.2383
C88 C 0.18793(17) 0.6968(4) 0.2728(2)
H98 H 0.1984 0.7246 0.2333
H99 H 0.1653 0.7493 0.2911
C89 C 0.23266(16) 0.6813(3) 0.3134(2)
H100 H 0.2499 0.7512 0.3185
C90 C 0.21632(17) 0.6403(4) 0.3747(2)
H101 H 0.1939 0.6925 0.3937
H102 H 0.2451 0.6309 0.4011
loop_
_geom_bond_atom_site_label_1
_geom_bond_atom_site_label_2
_geom_bond_site_symmetry_1
_geom_bond_site_symmetry_2
Li1 N1 1_555 1_555
Li2 N2 1_555 1_555
P1 N1 1_555 1_555
P2 N2 1_555 1_555
P3 N3 1_555 1_555
P4 N4 1_555 1_555
N1 C26 1_555 1_555
N2 C36 1_555 1_555
N3 Li2 1_555 1_555
N4 Li1 1_555 1_555
C1 Li2 1_555 1_555
H1 C1 1_555 1_555
C2 P1 1_555 1_555
C3 C2 1_555 1_555
H2 C3 1_555 1_555
C4 C3 1_555 1_555
H3 C4 1_555 1_555
C5 C4 1_555 1_555
H4 C5 1_555 1_555
C6 C5 1_555 1_555
H5 C6 1_555 1_555
C7 C2 1_555 1_555
H6 C7 1_555 1_555
C8 P1 1_555 1_555
C9 C8 1_555 1_555
H7 C9 1_555 1_555
C10 C9 1_555 1_555
H8 C10 1_555 1_555
C11 C10 1_555 1_555
H9 C11 1_555 1_555
C12 C11 1_555 1_555
H10 C12 1_555 1_555
C13 C8 1_555 1_555
H11 C13 1_555 1_555
C14 P2 1_555 1_555
C15 C14 1_555 1_555
H12 C15 1_555 1_555
C16 C15 1_555 1_555
H13 C16 1_555 1_555
C17 C16 1_555 1_555
H14 C17 1_555 1_555
C18 C17 1_555 1_555
H15 C18 1_555 1_555
C19 C14 1_555 1_555
H16 C19 1_555 1_555
C20 P2 1_555 1_555
C21 C20 1_555 1_555
H17 C21 1_555 1_555
C22 C21 1_555 1_555
H18 C22 1_555 1_555
C23 C22 1_555 1_555
H19 C23 1_555 1_555
C24 C23 1_555 1_555
H20 C24 1_555 1_555
C25 C20 1_555 1_555
H21 C25 1_555 1_555
C26 C27 1_555 1_555
C27 H22 1_555 1_555
H23 C27 1_555 1_555
C28 C26 1_555 1_555
H24 C28 1_555 1_555
H25 C28 1_555 1_555
C29 C26 1_555 1_555
H26 C29 1_555 1_555
H27 C29 1_555 1_555
C30 C27 1_555 1_555
H28 C30 1_555 1_555
C31 C30 1_555 1_555
H29 C31 1_555 1_555
H30 C31 1_555 1_555
C32 C28 1_555 1_555
H31 C32 1_555 1_555
C33 C32 1_555 1_555
H32 C33 1_555 1_555
H33 C33 1_555 1_555
C34 C29 1_555 1_555
H34 C34 1_555 1_555
C35 C30 1_555 1_555
H35 C35 1_555 1_555
H36 C35 1_555 1_555
C36 C37 1_555 1_555
C37 H37 1_555 1_555
H38 C37 1_555 1_555
C38 C36 1_555 1_555
H39 C38 1_555 1_555
H40 C38 1_555 1_555
C39 C36 1_555 1_555
H41 C39 1_555 1_555
H42 C39 1_555 1_555
C40 C37 1_555 1_555
H43 C40 1_555 1_555
C41 C40 1_555 1_555
H44 C41 1_555 1_555
H45 C41 1_555 1_555
C42 C38 1_555 1_555
H46 C42 1_555 1_555
C43 C42 1_555 1_555
H47 C43 1_555 1_555
H48 C43 1_555 1_555
C44 C39 1_555 1_555
H49 C44 1_555 1_555
C45 C40 1_555 1_555
H50 C45 1_555 1_555
H51 C45 1_555 1_555
C46 Li1 1_555 1_555
H52 C46 1_555 1_555
C47 P3 1_555 1_555
C48 C47 1_555 1_555
H53 C48 1_555 1_555
C49 C48 1_555 1_555
H54 C49 1_555 1_555
C50 C49 1_555 1_555
H55 C50 1_555 1_555
C51 C50 1_555 1_555
H56 C51 1_555 1_555
C52 C47 1_555 1_555
H57 C52 1_555 1_555
C53 P3 1_555 1_555
C54 C53 1_555 1_555
H58 C54 1_555 1_555
C55 C54 1_555 1_555
H59 C55 1_555 1_555
C56 C55 1_555 1_555
H60 C56 1_555 1_555
C57 C56 1_555 1_555
H61 C57 1_555 1_555
C58 C53 1_555 1_555
H62 C58 1_555 1_555
C59 P4 1_555 1_555
C60 C59 1_555 1_555
H63 C60 1_555 1_555
C61 C60 1_555 1_555
H64 C61 1_555 1_555
C62 C61 1_555 1_555
H65 C62 1_555 1_555
C63 C62 1_555 1_555
H66 C63 1_555 1_555
C64 C59 1_555 1_555
H67 C64 1_555 1_555
C65 P4 1_555 1_555
C66 C65 1_555 1_555
H68 C66 1_555 1_555
C67 C66 1_555 1_555
H69 C67 1_555 1_555
C68 C67 1_555 1_555
H70 C68 1_555 1_555
C69 C68 1_555 1_555
H71 C69 1_555 1_555
C70 C65 1_555 1_555
H72 C70 1_555 1_555
C71 N3 1_555 1_555
C72 C71 1_555 1_555
H73 C72 1_555 1_555
H74 C72 1_555 1_555
C73 C71 1_555 1_555
H75 C73 1_555 1_555
H76 C73 1_555 1_555
C74 C71 1_555 1_555
H77 C74 1_555 1_555
H78 C74 1_555 1_555
C75 C72 1_555 1_555
H79 C75 1_555 1_555
C76 C75 1_555 1_555
H80 C76 1_555 1_555
H81 C76 1_555 1_555
C77 C73 1_555 1_555
H82 C77 1_555 1_555
C78 C77 1_555 1_555
H83 C78 1_555 1_555
H84 C78 1_555 1_555
C79 C74 1_555 1_555
H85 C79 1_555 1_555
C80 C75 1_555 1_555
H86 C80 1_555 1_555
H87 C80 1_555 1_555
C81 N4 1_555 1_555
C82 C81 1_555 1_555
H88 C82 1_555 1_555
H89 C82 1_555 1_555
C83 C81 1_555 1_555
H90 C83 1_555 1_555
H91 C83 1_555 1_555
C84 C81 1_555 1_555
H92 C84 1_555 1_555
H93 C84 1_555 1_555
C85 C82 1_555 1_555
H94 C85 1_555 1_555
C86 C85 1_555 1_555
H95 C86 1_555 1_555
H96 C86 1_555 1_555
C87 C83 1_555 1_555
H97 C87 1_555 1_555
C88 C87 1_555 1_555
H98 C88 1_555 1_555
H99 C88 1_555 1_555
C89 C84 1_555 1_555
H100 C89 1_555 1_555
C90 C85 1_555 1_555
H101 C90 1_555 1_555
H102 C90 1_555 1_555
P1 C1 1_555 1_555
P2 C1 1_555 1_555
P3 C46 1_555 1_555
P4 C46 1_555 1_555
C6 C7 1_555 1_555
C12 C13 1_555 1_555
C18 C19 1_555 1_555
C24 C25 1_555 1_555
C31 C32 1_555 1_555
C33 C34 1_555 1_555
C34 C35 1_555 1_555
C41 C42 1_555 1_555
C43 C44 1_555 1_555
C44 C45 1_555 1_555
C51 C52 1_555 1_555
C57 C58 1_555 1_555
C63 C64 1_555 1_555
C69 C70 1_555 1_555
C76 C77 1_555 1_555
C78 C79 1_555 1_555
C79 C80 1_555 1_555
C86 C87 1_555 1_555
C88 C89 1_555 1_555
C89 C90 1_555 1_555

#END
