
#######################################################################
#
#                 Cambridge Crystallographic Data Centre
#                                CCDC 
#
#######################################################################
#
# If this CIF has been generated from an entry in the Cambridge 
# Structural Database, then it will include bibliographic, chemical, 
# crystal, experimental, refinement or atomic coordinate data resulting 
# from the CCDC's data processing and validation procedures.
#
#######################################################################

data_QEHXIM
_chemical_formula_moiety         'C53 H71 Cs1 N2 O4 P2,0.5(C4 H10 O2)'
_chemical_name_systematic        
'(N-(((N-(Adamantan-1-yl)-P-phenyl-P-(phenyl)phosphorimidoyl)methylene)(phenyl)(phenyl)phosphoranyl)adamantan-1-aminato)-(bis(1,2-bis(methoxy)ethane))-cesium dimethoxyethane solvate'
_symmetry_cell_setting           monoclinic
_symmetry_space_group_name_H-M   'P 21/c'
_symmetry_Int_Tables_number      14
_space_group_name_Hall           '-P 2ybc'
loop_
_symmetry_equiv_pos_site_id
_symmetry_equiv_pos_as_xyz
1 x,y,z
2 -x,1/2+y,1/2-z
3 -x,-y,-z
4 x,1/2-y,1/2+z
_cell_length_a                   20.2678(17)
_cell_length_b                   13.4245(14)
_cell_length_c                   19.3640(11)
_cell_angle_alpha                90
_cell_angle_beta                 103.809(7)
_cell_angle_gamma                90
_cell_volume                     5116.37
_exptl_crystal_colour            colorless
_exptl_crystal_description       block
_cell_formula_units_Z            4
loop_
_atom_site_label
_atom_site_type_symbol
_atom_site_fract_x
_atom_site_fract_y
_atom_site_fract_z
Cs1 Cs 0.224489(12) 0.51455(2) 0.249491(12)
P1 P 0.34219(5) 0.55944(8) 0.11638(5)
P2 P 0.19444(5) 0.53075(8) 0.03773(5)
O1 O 0.1423(2) 0.6561(3) 0.3329(2)
O2 O 0.08262(17) 0.4654(3) 0.28852(17)
O3 O 0.3134(2) 0.5413(3) 0.40710(17)
O4 O 0.25776(18) 0.3466(3) 0.36721(17)
N1 N 0.3373(2) 0.6176(3) 0.18603(19)
N2 N 0.1740(2) 0.4508(3) 0.08843(19)
C1 C 0.2784(2) 0.5555(3) 0.0399(2)
H1 H 0.2899 0.5674 -0.0031
C2 C 0.4185(5) 0.5941(12) 0.0833(7)
C3 C 0.4174(4) 0.6275(11) 0.0150(6)
H2 H 0.3766 0.6302 -0.0192
C4 C 0.4774(5) 0.6569(13) -0.0020(4)
H3 H 0.4766 0.6793 -0.0476
C5 C 0.5384(4) 0.6530(11) 0.0492(6)
H4 H 0.5785 0.6727 0.0379
C6 C 0.5396(5) 0.6196(12) 0.1175(5)
H5 H 0.5804 0.6169 0.1517
C7 C 0.4796(7) 0.5901(14) 0.1345(5)
H6 H 0.4803 0.5677 0.1801
C8 C 0.3621(2) 0.4325(3) 0.1489(2)
C9 C 0.3811(2) 0.4105(4) 0.2217(2)
H7 H 0.3808 0.4606 0.2548
C10 C 0.4004(2) 0.3145(4) 0.2450(2)
H8 H 0.4128 0.3009 0.2934
C11 C 0.4013(2) 0.2391(4) 0.1964(3)
H9 H 0.4137 0.1748 0.2122
C12 C 0.3833(2) 0.2603(4) 0.1235(3)
H10 H 0.3851 0.2105 0.0905
C13 C 0.3631(2) 0.3553(4) 0.1009(2)
H11 H 0.3497 0.3683 0.0523
C14 C 0.3431(2) 0.7240(3) 0.2004(2)
C15 C 0.4052(3) 0.7442(4) 0.2619(3)
H12 H 0.4018 0.7042 0.3026
H13 H 0.4460 0.7241 0.2477
C16 C 0.2802(3) 0.7595(4) 0.2256(3)
H14 H 0.2397 0.7492 0.1878
H15 H 0.2757 0.7200 0.2662
C17 C 0.3492(3) 0.7915(4) 0.1377(2)
H16 H 0.3888 0.7720 0.1211
H17 H 0.3095 0.7826 0.0988
C18 C 0.3554(3) 0.9015(4) 0.1595(3)
H18 H 0.3594 0.9421 0.1186
C19 C 0.4179(3) 0.9167(4) 0.2200(3)
H19 H 0.4223 0.9866 0.2331
H20 H 0.4583 0.8970 0.2048
C20 C 0.4114(3) 0.8545(4) 0.2838(3)
H21 H 0.4517 0.8641 0.3229
C21 C 0.3479(5) 0.8850(5) 0.3076(3)
H22 H 0.3436 0.8448 0.3479
H23 H 0.3514 0.9543 0.3222
C22 C 0.2856(4) 0.8705(5) 0.2465(4)
H24 H 0.2449 0.8907 0.2618
C23 C 0.2923(3) 0.9331(4) 0.1836(4)
H25 H 0.2958 1.0029 0.1969
H26 H 0.2523 0.9246 0.1450
C24 C 0.1525(2) 0.6443(3) 0.0590(2)
C25 C 0.1057(2) 0.6422(4) 0.1014(2)
H27 H 0.0946 0.5817 0.1191
C26 C 0.0755(3) 0.7287(4) 0.1175(3)
H28 H 0.0450 0.7259 0.1464
C27 C 0.0903(3) 0.8188(4) 0.0910(3)
H29 H 0.0703 0.8769 0.1025
C28 C 0.1354(3) 0.8226(4) 0.0467(3)
H30 H 0.1443 0.8829 0.0271
C29 C 0.1671(2) 0.7353(4) 0.0318(3)
H31 H 0.1982 0.7383 0.0035
C30 C 0.1530(2) 0.5182(3) -0.0571(2)
C31 C 0.0820(2) 0.5221(3) -0.0778(2)
H32 H 0.0575 0.5366 -0.0441
C32 C 0.0472(2) 0.5048(4) -0.1483(3)
H33 H 0.0000 0.5070 -0.1613
C33 C 0.0842(3) 0.4842(3) -0.1987(2)
H34 H 0.0614 0.4729 -0.2457
C34 C 0.1543(3) 0.4802(3) -0.1797(2)
H35 H 0.1785 0.4665 -0.2139
C35 C 0.1891(2) 0.4970(3) -0.1091(2)
H36 H 0.2363 0.4941 -0.0965
C36 C 0.1597(2) 0.3453(3) 0.0778(2)
C37 C 0.1818(2) 0.2966(3) 0.0139(2)
H37 H 0.1591 0.3301 -0.0297
H38 H 0.2304 0.3051 0.0200
C38 C 0.0827(2) 0.3266(4) 0.0665(2)
H39 H 0.0674 0.3551 0.1060
H40 H 0.0589 0.3602 0.0234
C39 C 0.1953(2) 0.2870(4) 0.1451(2)
H41 H 0.2441 0.2952 0.1528
H42 H 0.1818 0.3148 0.1859
C40 C 0.1783(2) 0.1754(4) 0.1398(2)
H43 H 0.2018 0.1418 0.1838
C41 C 0.1013(3) 0.1612(4) 0.1281(2)
H44 H 0.0904 0.0907 0.1240
H45 H 0.0864 0.1874 0.1685
C42 C 0.0645(2) 0.2152(4) 0.0605(2)
H46 H 0.0152 0.2068 0.0533
C43 C 0.0879(2) 0.1711(4) -0.0032(2)
H47 H 0.0770 0.1007 -0.0076
H48 H 0.0643 0.2041 -0.0467
C44 C 0.1645(2) 0.1853(3) 0.0076(2)
H49 H 0.1789 0.1574 -0.0332
C45 C 0.2018(3) 0.1307(4) 0.0759(2)
H50 H 0.2505 0.1386 0.0830
H51 H 0.1913 0.0601 0.0719
C46 C 0.1456(3) 0.7607(4) 0.3239(3)
H52 H 0.1917 0.7800 0.3263
H53 H 0.1298 0.7938 0.3609
H54 H 0.1174 0.7792 0.2785
C47 C 0.0779(2) 0.6260(4) 0.3394(3)
H55 H 0.0441 0.6425 0.2964
H56 H 0.0664 0.6604 0.3789
C48 C 0.0787(3) 0.5158(4) 0.3517(3)
H57 H 0.1174 0.4981 0.3898
H58 H 0.0377 0.4960 0.3657
C49 C 0.0739(3) 0.3612(4) 0.2943(3)
H59 H 0.0733 0.3300 0.2496
H60 H 0.0317 0.3483 0.3070
H61 H 0.1107 0.3347 0.3303
C50 C 0.3068(4) 0.6384(5) 0.4348(3)
H62 H 0.3159 0.6876 0.4023
H63 H 0.3387 0.6458 0.4799
H64 H 0.2615 0.6471 0.4407
C51 C 0.3075(3) 0.4665(5) 0.4548(3)
H65 H 0.2638 0.4722 0.4669
H66 H 0.3427 0.4748 0.4982
C52 C 0.3135(3) 0.3660(4) 0.4249(3)
H67 H 0.3553 0.3620 0.4090
H68 H 0.3153 0.3161 0.4615
C53 C 0.2580(3) 0.2459(4) 0.3444(3)
H69 H 0.2193 0.2345 0.3055
H70 H 0.2559 0.2023 0.3830
H71 H 0.2989 0.2331 0.3291
C54? C 0.4226(5) 0.5813(11) 0.0875(7)
C55? C 0.4255(3) 0.5876(10) 0.0166(6)
C56? C 0.4874(4) 0.6039(13) -0.0007(4)
C57? C 0.5463(3) 0.6139(11) 0.0529(5)
C58? C 0.5434(5) 0.6077(12) 0.1238(5)
C59? C 0.4816(6) 0.5914(15) 0.1411(5)
H72? H 0.3860 0.5808 -0.0193
H73? H 0.4893 0.6081 -0.0481
H74? H 0.5877 0.6248 0.0414
H75? H 0.5829 0.6144 0.1597
H76? H 0.4796 0.5872 0.1885
loop_
_geom_bond_atom_site_label_1
_geom_bond_atom_site_label_2
_geom_bond_site_symmetry_1
_geom_bond_site_symmetry_2
Cs1 O1 1_555 1_555
P1 N1 1_555 1_555
P2 N2 1_555 1_555
O1 C46 1_555 1_555
O2 Cs1 1_555 1_555
O3 Cs1 1_555 1_555
O4 Cs1 1_555 1_555
N1 Cs1 1_555 1_555
N2 Cs1 1_555 1_555
C1 P1 1_555 1_555
H1 C1 1_555 1_555
C2 P1 1_555 1_555
C3 C2 1_555 1_555
H2 C3 1_555 1_555
C4 C3 1_555 1_555
H3 C4 1_555 1_555
C5 C4 1_555 1_555
H4 C5 1_555 1_555
C6 C5 1_555 1_555
H5 C6 1_555 1_555
C7 C2 1_555 1_555
H6 C7 1_555 1_555
C8 P1 1_555 1_555
C9 C8 1_555 1_555
H7 C9 1_555 1_555
C10 C9 1_555 1_555
H8 C10 1_555 1_555
C11 C10 1_555 1_555
H9 C11 1_555 1_555
C12 C11 1_555 1_555
H10 C12 1_555 1_555
C13 C8 1_555 1_555
H11 C13 1_555 1_555
C14 N1 1_555 1_555
C15 C14 1_555 1_555
H12 C15 1_555 1_555
H13 C15 1_555 1_555
C16 C14 1_555 1_555
H14 C16 1_555 1_555
H15 C16 1_555 1_555
C17 C14 1_555 1_555
H16 C17 1_555 1_555
H17 C17 1_555 1_555
C18 C17 1_555 1_555
H18 C18 1_555 1_555
C19 C18 1_555 1_555
H19 C19 1_555 1_555
H20 C19 1_555 1_555
C20 C15 1_555 1_555
H21 C20 1_555 1_555
C21 C20 1_555 1_555
H22 C21 1_555 1_555
H23 C21 1_555 1_555
C22 C16 1_555 1_555
H24 C22 1_555 1_555
C23 C18 1_555 1_555
H25 C23 1_555 1_555
H26 C23 1_555 1_555
C24 P2 1_555 1_555
C25 C24 1_555 1_555
H27 C25 1_555 1_555
C26 C25 1_555 1_555
H28 C26 1_555 1_555
C27 C26 1_555 1_555
H29 C27 1_555 1_555
C28 C27 1_555 1_555
H30 C28 1_555 1_555
C29 C24 1_555 1_555
H31 C29 1_555 1_555
C30 P2 1_555 1_555
C31 C30 1_555 1_555
H32 C31 1_555 1_555
C32 C31 1_555 1_555
H33 C32 1_555 1_555
C33 C32 1_555 1_555
H34 C33 1_555 1_555
C34 C33 1_555 1_555
H35 C34 1_555 1_555
C35 C30 1_555 1_555
H36 C35 1_555 1_555
C36 N2 1_555 1_555
C37 C36 1_555 1_555
H37 C37 1_555 1_555
H38 C37 1_555 1_555
C38 C36 1_555 1_555
H39 C38 1_555 1_555
H40 C38 1_555 1_555
C39 C36 1_555 1_555
H41 C39 1_555 1_555
H42 C39 1_555 1_555
C40 C39 1_555 1_555
H43 C40 1_555 1_555
C41 C40 1_555 1_555
H44 C41 1_555 1_555
H45 C41 1_555 1_555
C42 C38 1_555 1_555
H46 C42 1_555 1_555
C43 C42 1_555 1_555
H47 C43 1_555 1_555
H48 C43 1_555 1_555
C44 C37 1_555 1_555
H49 C44 1_555 1_555
C45 C40 1_555 1_555
H50 C45 1_555 1_555
H51 C45 1_555 1_555
C46 H52 1_555 1_555
H53 C46 1_555 1_555
H54 C46 1_555 1_555
C47 O1 1_555 1_555
H55 C47 1_555 1_555
H56 C47 1_555 1_555
C48 O2 1_555 1_555
H57 C48 1_555 1_555
H58 C48 1_555 1_555
C49 O2 1_555 1_555
H59 C49 1_555 1_555
H60 C49 1_555 1_555
H61 C49 1_555 1_555
C50 O3 1_555 1_555
H62 C50 1_555 1_555
H63 C50 1_555 1_555
H64 C50 1_555 1_555
C51 O3 1_555 1_555
H65 C51 1_555 1_555
H66 C51 1_555 1_555
C52 O4 1_555 1_555
H67 C52 1_555 1_555
H68 C52 1_555 1_555
C53 O4 1_555 1_555
H69 C53 1_555 1_555
H70 C53 1_555 1_555
H71 C53 1_555 1_555
P2 C1 1_555 1_555
C6 C7 1_555 1_555
C12 C13 1_555 1_555
C19 C20 1_555 1_555
C21 C22 1_555 1_555
C22 C23 1_555 1_555
C28 C29 1_555 1_555
C34 C35 1_555 1_555
C41 C42 1_555 1_555
C43 C44 1_555 1_555
C44 C45 1_555 1_555
C47 C48 1_555 1_555
C51 C52 1_555 1_555

#END
