
#######################################################################
#
#                 Cambridge Crystallographic Data Centre
#                                CCDC 
#
#######################################################################
#
# If this CIF has been generated from an entry in the Cambridge 
# Structural Database, then it will include bibliographic, chemical, 
# crystal, experimental, refinement or atomic coordinate data resulting 
# from the CCDC's data processing and validation procedures.
#
#######################################################################

data_QEHYIN
_chemical_formula_moiety         'C258 H264 Cs6 N12 P12,3(C4 H8 O1)'
_chemical_name_systematic        
"hexakis(\m~2~-\h^10^,\h^6^-bis((N-mesityl)diphenylphosphinimino)-methanide-N,N')-hexa-cesium tetrahydrofuran solvate"
_symmetry_cell_setting           rhombohedral
_symmetry_space_group_name_H-M   'R -3'
_symmetry_Int_Tables_number      148
_space_group_name_Hall           '-R 3'
loop_
_symmetry_equiv_pos_site_id
_symmetry_equiv_pos_as_xyz
1 x,y,z
2 -y,x-y,z
3 -x+y,-x,z
4 2/3+x,1/3+y,1/3+z
5 2/3-y,1/3+x-y,1/3+z
6 2/3-x+y,1/3-x,1/3+z
7 1/3+x,2/3+y,2/3+z
8 1/3-y,2/3+x-y,2/3+z
9 1/3-x+y,2/3-x,2/3+z
10 -x,-y,-z
11 y,-x+y,-z
12 x-y,x,-z
13 1/3-x,2/3-y,2/3-z
14 1/3+y,2/3-x+y,2/3-z
15 1/3+x-y,2/3+x,2/3-z
16 2/3-x,1/3-y,1/3-z
17 2/3+y,1/3-x+y,1/3-z
18 2/3+x-y,1/3+x,1/3-z
_cell_length_a                   27.4890(16)
_cell_length_b                   27.4890(16)
_cell_length_c                   28.0813(14)
_cell_angle_alpha                90
_cell_angle_beta                 90
_cell_angle_gamma                120
_cell_volume                     18376.6
_exptl_crystal_colour            colorless
_exptl_crystal_description       block
_cell_formula_units_Z            3
loop_
_atom_site_label
_atom_site_type_symbol
_atom_site_fract_x
_atom_site_fract_y
_atom_site_fract_z
Cs1 Cs 0.235786(13) 0.980992(13) 0.041356(12)
P1 P 0.14421(5) 0.81312(5) 0.06237(5)
P2 P 0.18654(6) 0.86178(5) 0.16154(5)
N1 N 0.14571(18) 0.85779(19) 0.02625(17)
N2 N 0.22530(19) 0.91873(18) 0.13535(17)
C1 C 0.1377(2) 0.8140(2) 0.1235(2)
H1 H 0.1046 0.7858 0.1369
C2 C 0.1469(2) 0.8665(2) 0.2131(2)
C3 C 0.1634(3) 0.8679(3) 0.2595(2)
H2 H 0.1940 0.8634 0.2660
C4 C 0.1351(3) 0.8760(3) 0.2966(2)
H3 H 0.1471 0.8772 0.3277
C5 C 0.0888(3) 0.8825(3) 0.2878(3)
H4 H 0.0694 0.8874 0.3127
C6 C 0.0724(3) 0.8813(3) 0.2414(3)
H5 H 0.0419 0.8861 0.2349
C7 C 0.1004(3) 0.8731(3) 0.2042(2)
H6 H 0.0883 0.8719 0.1731
C8 C 0.2263(2) 0.8335(2) 0.1915(2)
C9 C 0.2769(2) 0.8687(2) 0.2144(2)
H7 H 0.2919 0.9075 0.2130
C10 C 0.3053(3) 0.8468(3) 0.2395(3)
H8 H 0.3392 0.8707 0.2546
C11 C 0.2829(3) 0.7896(3) 0.2418(3)
H9 H 0.3015 0.7747 0.2587
C12 C 0.2333(3) 0.7544(3) 0.2195(3)
H10 H 0.2188 0.7157 0.2207
C13 C 0.2046(3) 0.7762(2) 0.1951(2)
H11 H 0.1703 0.7518 0.1809
C14 C 0.2740(2) 0.9691(2) 0.1455(2)
C15 C 0.3270(2) 0.9788(2) 0.1295(2)
C16 C 0.3733(3) 1.0325(3) 0.1326(2)
H12 H 0.4080 1.0382 0.1224
C17 C 0.3701(3) 1.0784(2) 0.1503(2)
C18 C 0.3183(3) 1.0684(2) 0.1661(2)
H13 H 0.3152 1.0983 0.1778
C19 C 0.2705(2) 1.0151(2) 0.1653(2)
C20 C 0.2151(2) 1.0071(2) 0.1818(2)
H14 H 0.1870 0.9869 0.1580
H15 H 0.2183 1.0431 0.1870
H16 H 0.2045 0.9862 0.2111
C21 C 0.4209(3) 1.1371(3) 0.1494(3)
H17 H 0.4374 1.1466 0.1806
H18 H 0.4094 1.1635 0.1401
H19 H 0.4479 1.1383 0.1271
C22 C 0.3321(3) 0.9333(3) 0.1058(3)
H20 H 0.3244 0.9042 0.1285
H21 H 0.3695 0.9482 0.0936
H22 H 0.3056 0.9181 0.0801
C23 C 0.0883(2) 0.7427(2) 0.0442(2)
C24 C 0.3229(2) 1.0371(2) -0.0688(2)
H23 H 0.3009 1.0311 -0.0957
C25 C 0.3336(2) 0.9952(2) -0.0528(2)
H24 H 0.3185 0.9612 -0.0690
C26 C 0.3666(3) 1.0040(2) -0.0130(2)
H25 H 0.3740 0.9762 -0.0027
C27 C 0.3887(3) 1.0542(3) 0.0115(2)
H26 H 0.4108 1.0602 0.0383
C28 C 0.0957(2) 0.7181(3) 0.0041(2)
H27 H 0.1291 0.7371 -0.0129
C29 C 0.2094(2) 0.8134(2) 0.0478(2)
C30 C 0.2260(2) 0.7817(3) 0.0753(2)
H28 H 0.2048 0.7621 0.1016
C31 C 0.2735(3) 0.7794(3) 0.0638(3)
H29 H 0.2838 0.7579 0.0823
C32 C 0.3061(3) 0.8087(3) 0.0249(3)
H30 H 0.3383 0.8071 0.0173
C33 C 0.2903(3) 0.8401(3) -0.0024(3)
H31 H 0.3118 0.8595 -0.0287
C34 C 0.2425(2) 0.8430(3) 0.0088(2)
H32 H 0.2327 0.8647 -0.0097
C35 C 0.1055(2) 0.8649(2) 0.0018(2)
C36 C 0.1925(2) 1.0602(2) -0.0229(2)
C37 C 0.1454(2) 1.0266(2) 0.0042(2)
H33 H 0.1143 0.9972 -0.0106
C38 C 0.1429(2) 1.0352(2) 0.0528(2)
C39 C 0.1906(2) 1.0778(2) 0.0741(2)
H34 H 0.1903 1.0834 0.1067
C40 C 0.2393(2) 1.1127(2) 0.0480(2)
C41 C 0.2902(3) 1.1569(3) 0.0737(2)
H35 H 0.2941 1.1931 0.0680
H36 H 0.2860 1.1492 0.1073
H37 H 0.3230 1.1566 0.0624
C42 C 0.0896(3) 1.0018(3) 0.0814(3)
H38 H 0.0773 1.0265 0.0934
H39 H 0.0609 0.9739 0.0614
H40 H 0.0967 0.9837 0.1075
C43 C 0.1917(2) 1.0496(2) -0.0754(2)
H41 H 0.2167 1.0356 -0.0823
H42 H 0.1543 1.0225 -0.0850
H43 H 0.2038 1.0841 -0.0924
Cs1K Cs 0.254794(18) 1.235786(13) -0.041356(12)
Cs1A Cs 0.019008(13) 1.254794(18) 0.041356(12)
Cs1I Cs -0.235786(13) 1.019008(13) -0.041356(12)
Cs1B Cs -0.254794(18) 0.764214(13) 0.041356(12)
Cs1J Cs -0.019008(13) 0.745206(18) -0.041356(12)
P1K P 0.33109(7) 1.14421(5) -0.06237(5)
P1A P 0.18688(5) 1.33109(7) 0.06237(5)
P1I P -0.14421(5) 1.18688(5) -0.06237(5)
P1B P -0.33109(7) 0.85579(5) 0.06237(5)
P1J P -0.18688(5) 0.66891(7) -0.06237(5)
P2K P 0.32476(8) 1.18654(6) -0.16154(5)
P2A P 0.13822(5) 1.32476(8) 0.16154(5)
P2I P -0.18654(6) 1.13822(5) -0.16154(5)
P2B P -0.32476(8) 0.81346(6) 0.16154(5)
P2J P -0.13822(5) 0.67524(8) -0.16154(5)
N1K N 0.28792(26) 1.14571(18) -0.02625(17)
N1A N 0.14221(19) 1.28792(26) 0.02625(17)
N1I N -0.14571(18) 1.14221(19) -0.02625(17)
N1B N -0.28792(26) 0.85429(18) 0.02625(17)
N1J N -0.14221(19) 0.71208(26) -0.02625(17)
N2K N 0.30657(26) 1.22530(19) -0.13535(17)
N2A N 0.08127(18) 1.30657(26) 0.13535(17)
N2I N -0.22530(19) 1.08127(18) -0.13535(17)
N2B N -0.30657(26) 0.77470(19) 0.13535(17)
N2J N -0.08127(18) 0.69343(26) -0.13535(17)
C1K C 0.3237(3) 1.1377(2) -0.1235(2)
C1A C 0.1860(2) 1.3237(3) 0.1235(2)
C1I C -0.1377(2) 1.1860(2) -0.1235(2)
C1B C -0.3237(3) 0.8623(2) 0.1235(2)
C1J C -0.1860(2) 0.6763(3) -0.1235(2)
H1K H 0.3188 1.1046 -0.1369
H1A H 0.2142 1.3188 0.1369
H1I H -0.1046 1.2142 -0.1369
H1B H -0.3188 0.8954 0.1369
H1J H -0.2142 0.6812 -0.1369
C2K C 0.2804(3) 1.1469(2) -0.2131(2)
C2A C 0.1335(2) 1.2804(3) 0.2131(2)
C2I C -0.1469(2) 1.1335(2) -0.2131(2)
C2B C -0.2804(3) 0.8531(2) 0.2131(2)
C2J C -0.1335(2) 0.7196(3) -0.2131(2)
C3K C 0.2955(4) 1.1634(3) -0.2595(2)
C3A C 0.1321(3) 1.2955(4) 0.2595(2)
C3I C -0.1634(3) 1.1321(3) -0.2595(2)
C3B C -0.2955(4) 0.8366(3) 0.2595(2)
C3J C -0.1321(3) 0.7045(4) -0.2595(2)
H2K H 0.3306 1.1940 -0.2660
H2A H 0.1366 1.3306 0.2660
H2I H -0.1940 1.1366 -0.2660
H2B H -0.3306 0.8060 0.2660
H2J H -0.1366 0.6694 -0.2660
C4K C 0.2591(4) 1.1351(3) -0.2966(2)
C4A C 0.1240(3) 1.2591(4) 0.2966(2)
C4I C -0.1351(3) 1.1240(3) -0.2966(2)
C4B C -0.2591(4) 0.8649(3) 0.2966(2)
C4J C -0.1240(3) 0.7409(4) -0.2966(2)
H3K H 0.2699 1.1471 -0.3277
H3A H 0.1228 1.2699 0.3277
H3I H -0.1471 1.1228 -0.3277
H3B H -0.2699 0.8529 0.3277
H3J H -0.1228 0.7301 -0.3277
C5K C 0.2063(4) 1.0888(3) -0.2878(3)
C5A C 0.1175(3) 1.2063(4) 0.2878(3)
C5I C -0.0888(3) 1.1175(3) -0.2878(3)
C5B C -0.2063(4) 0.9112(3) 0.2878(3)
C5J C -0.1175(3) 0.7937(4) -0.2878(3)
H4K H 0.1820 1.0694 -0.3127
H4A H 0.1126 1.1820 0.3127
H4I H -0.0694 1.1126 -0.3127
H4B H -0.1820 0.9306 0.3127
H4J H -0.1126 0.8180 -0.3127
C6K C 0.1911(4) 1.0724(3) -0.2414(3)
C6A C 0.1187(3) 1.1911(4) 0.2414(3)
C6I C -0.0724(3) 1.1187(3) -0.2414(3)
C6B C -0.1911(4) 0.9276(3) 0.2414(3)
C6J C -0.1187(3) 0.8089(4) -0.2414(3)
H5K H 0.1558 1.0419 -0.2349
H5A H 0.1139 1.1558 0.2349
H5I H -0.0419 1.1139 -0.2349
H5B H -0.1558 0.9581 0.2349
H5J H -0.1139 0.8442 -0.2349
C7K C 0.2273(4) 1.1004(3) -0.2042(2)
C7A C 0.1269(3) 1.2273(4) 0.2042(2)
C7I C -0.1004(3) 1.1269(3) -0.2042(2)
C7B C -0.2273(4) 0.8996(3) 0.2042(2)
C7J C -0.1269(3) 0.7727(4) -0.2042(2)
H6K H 0.2164 1.0883 -0.1731
H6A H 0.1281 1.2164 0.1731
H6I H -0.0883 1.1281 -0.1731
H6B H -0.2164 0.9117 0.1731
H6J H -0.1281 0.7836 -0.1731
C8K C 0.3928(3) 1.2263(2) -0.1915(2)
C8A C 0.1665(2) 1.3928(3) 0.1915(2)
C8I C -0.2263(2) 1.1665(2) -0.1915(2)
C8B C -0.3928(3) 0.7737(2) 0.1915(2)
C8J C -0.1665(2) 0.6072(3) -0.1915(2)
C9K C 0.4082(3) 1.2769(2) -0.2144(2)
C9A C 0.1313(2) 1.4082(3) 0.2144(2)
C9I C -0.2769(2) 1.1313(2) -0.2144(2)
C9B C -0.4082(3) 0.7231(2) 0.2144(2)
C9J C -0.1313(2) 0.5918(3) -0.2144(2)
H7K H 0.3844 1.2919 -0.2130
H7A H 0.0925 1.3844 0.2130
H7I H -0.2919 1.0925 -0.2130
H7B H -0.3844 0.7081 0.2130
H7J H -0.0925 0.6156 -0.2130
C10K C 0.4585(4) 1.3053(3) -0.2395(3)
C10A C 0.1532(3) 1.4585(4) 0.2395(3)
C10I C -0.3053(3) 1.1532(3) -0.2395(3)
C10B C -0.4585(4) 0.6947(3) 0.2395(3)
C10J C -0.1532(3) 0.5415(4) -0.2395(3)
H8K H 0.4685 1.3392 -0.2546
H8A H 0.1293 1.4685 0.2546
H8I H -0.3392 1.1293 -0.2546
H8B H -0.4685 0.6608 0.2546
H8J H -0.1293 0.5315 -0.2546
C11K C 0.4933(4) 1.2829(3) -0.2418(3)
C11A C 0.2104(3) 1.4933(4) 0.2418(3)
C11I C -0.2829(3) 1.2104(3) -0.2418(3)
C11B C -0.4933(4) 0.7171(3) 0.2418(3)
C11J C -0.2104(3) 0.5067(4) -0.2418(3)
H9K H 0.5268 1.3015 -0.2587
H9A H 0.2253 1.5268 0.2587
H9I H -0.3015 1.2253 -0.2587
H9B H -0.5268 0.6985 0.2587
H9J H -0.2253 0.4732 -0.2587
C12K C 0.4789(4) 1.2333(3) -0.2195(3)
C12A C 0.2456(3) 1.4789(4) 0.2195(3)
C12I C -0.2333(3) 1.2456(3) -0.2195(3)
C12B C -0.4789(4) 0.7667(3) 0.2195(3)
C12J C -0.2456(3) 0.5211(4) -0.2195(3)
H10K H 0.5031 1.2188 -0.2207
H10A H 0.2843 1.5031 0.2207
H10I H -0.2188 1.2843 -0.2207
H10B H -0.5031 0.7812 0.2207
H10J H -0.2843 0.4969 -0.2207
C13K C 0.4284(4) 1.2046(3) -0.1951(2)
C13A C 0.2238(2) 1.4284(4) 0.1951(2)
C13I C -0.2046(3) 1.2238(2) -0.1951(2)
C13B C -0.4284(4) 0.7954(3) 0.1951(2)
C13J C -0.2238(2) 0.5716(4) -0.1951(2)
H11K H 0.4185 1.1703 -0.1809
H11A H 0.2482 1.4185 0.1809
H11I H -0.1703 1.2482 -0.1809
H11B H -0.4185 0.8297 0.1809
H11J H -0.2482 0.5815 -0.1809
C14K C 0.3049(3) 1.2740(2) -0.1455(2)
C14A C 0.0309(2) 1.3049(3) 0.1455(2)
C14I C -0.2740(2) 1.0309(2) -0.1455(2)
C14B C -0.3049(3) 0.7260(2) 0.1455(2)
C14J C -0.0309(2) 0.6951(3) -0.1455(2)
C15K C 0.3482(3) 1.3270(2) -0.1295(2)
C15A C 0.0212(2) 1.3482(3) 0.1295(2)
C15I C -0.3270(2) 1.0212(2) -0.1295(2)
C15B C -0.3482(3) 0.6730(2) 0.1295(2)
C15J C -0.0212(2) 0.6518(3) -0.1295(2)
C16J C 0.0325(3) 0.6592(4) -0.1326(2)
C16B C -0.3408(4) 0.6267(3) 0.1326(2)
C16I C -0.3733(3) 0.9675(3) -0.1326(2)
C16A C -0.0325(3) 1.3408(4) 0.1326(2)
C16K C 0.3408(4) 1.3733(3) -0.1326(2)
H12J H 0.0382 0.6302 -0.1224
H12B H -0.3698 0.5920 0.1224
H12I H -0.4080 0.9618 -0.1224
H12A H -0.0382 1.3698 0.1224
H12K H 0.3698 1.4080 -0.1224
C17J C 0.0784(2) 0.7083(4) -0.1503(2)
C17B C -0.2917(4) 0.6299(3) 0.1503(2)
C17I C -0.3701(3) 0.9216(2) -0.1503(2)
C17A C -0.0784(2) 1.2917(4) 0.1503(2)
C17K C 0.2917(4) 1.3701(3) -0.1503(2)
C18J C 0.0684(2) 0.7501(4) -0.1661(2)
C18B C -0.2499(4) 0.6817(3) 0.1661(2)
C18I C -0.3183(3) 0.9316(2) -0.1661(2)
C18A C -0.0684(2) 1.2499(4) 0.1661(2)
C18K C 0.2499(4) 1.3183(3) -0.1661(2)
H13J H 0.0983 0.7831 -0.1778
H13B H -0.2169 0.6848 0.1778
H13I H -0.3152 0.9017 -0.1778
H13A H -0.0983 1.2169 0.1778
H13K H 0.2169 1.3152 -0.1778
C19K C 0.2554(3) 1.2705(2) -0.1653(2)
C19A C -0.0151(2) 1.2554(3) 0.1653(2)
C19I C -0.2705(2) 0.9849(2) -0.1653(2)
C19B C -0.2554(3) 0.7295(2) 0.1653(2)
C19J C 0.0151(2) 0.7446(3) -0.1653(2)
C20J C 0.0071(2) 0.7920(3) -0.1818(2)
C20B C -0.2080(3) 0.7849(2) 0.1818(2)
C20I C -0.2151(2) 0.9929(2) -0.1818(2)
C20A C -0.0071(2) 1.2080(3) 0.1818(2)
C20K C 0.2080(3) 1.2151(2) -0.1818(2)
H14J H -0.0131 0.7999 -0.1580
H14B H -0.2001 0.8130 0.1580
H14I H -0.1870 1.0131 -0.1580
H14A H 0.0131 1.2001 0.1580
H14K H 0.2001 1.1870 -0.1580
H15J H 0.0431 0.8248 -0.1870
H15B H -0.1752 0.7817 0.1870
H15I H -0.2183 0.9569 -0.1870
H15A H -0.0431 1.1752 0.1870
H15K H 0.1752 1.2183 -0.1870
H16J H -0.0138 0.7817 -0.2111
H16B H -0.2183 0.7955 0.2111
H16I H -0.2045 1.0138 -0.2111
H16A H 0.0138 1.2183 0.2111
H16K H 0.2183 1.2045 -0.2111
C21J C 0.1371(3) 0.7162(4) -0.1494(3)
C21B C -0.2838(4) 0.5791(3) 0.1494(3)
C21I C -0.4209(3) 0.8629(3) -0.1494(3)
C21A C -0.1371(3) 1.2838(4) 0.1494(3)
C21K C 0.2838(4) 1.4209(3) -0.1494(3)
H17J H 0.1466 0.7092 -0.1806
H17B H -0.2908 0.5626 0.1806
H17I H -0.4374 0.8534 -0.1806
H17A H -0.1466 1.2908 0.1806
H17K H 0.2908 1.4374 -0.1806
H18J H 0.1635 0.7541 -0.1401
H18B H -0.2459 0.5906 0.1401
H18I H -0.4094 0.8365 -0.1401
H18A H -0.1635 1.2459 0.1401
H18K H 0.2459 1.4094 -0.1401
H19J H 0.1383 0.6904 -0.1271
H19B H -0.3096 0.5521 0.1271
H19I H -0.4479 0.8617 -0.1271
H19A H -0.1383 1.3096 0.1271
H19K H 0.3096 1.4479 -0.1271
C22J C -0.0667(3) 0.6012(4) -0.1058(3)
C22B C -0.3988(4) 0.6679(3) 0.1058(3)
C22I C -0.3321(3) 1.0667(3) -0.1058(3)
C22A C 0.0667(3) 1.3988(4) 0.1058(3)
C22K C 0.3988(4) 1.3321(3) -0.1058(3)
H20J H -0.0958 0.5798 -0.1285
H20B H -0.4202 0.6756 0.1285
H20I H -0.3244 1.0958 -0.1285
H20A H 0.0958 1.4202 0.1285
H20K H 0.4202 1.3244 -0.1285
H21J H -0.0518 0.5787 -0.0936
H21B H -0.4213 0.6305 0.0936
H21I H -0.3695 1.0518 -0.0936
H21A H 0.0518 1.4213 0.0936
H21K H 0.4213 1.3695 -0.0936
H22J H -0.0819 0.6125 -0.0801
H22B H -0.3875 0.6944 0.0801
H22I H -0.3056 1.0819 -0.0801
H22A H 0.0819 1.3875 0.0801
H22K H 0.3875 1.3056 -0.0801
C23K C 0.3456(3) 1.0883(2) -0.0442(2)
C23A C 0.2573(2) 1.3456(3) 0.0442(2)
C23I C -0.0883(2) 1.2573(2) -0.0442(2)
C23B C -0.3456(3) 0.9117(2) 0.0442(2)
C23J C -0.2573(2) 0.6544(3) -0.0442(2)
C24K C 0.2858(3) 1.3229(2) 0.0688(2)
C24A C -0.0371(2) 1.2858(3) -0.0688(2)
C24I C -0.3229(2) 0.9629(2) 0.0688(2)
C24B C -0.2858(3) 0.6771(2) -0.0688(2)
C24J C 0.0371(2) 0.7142(3) 0.0688(2)
H23J H 0.0311 0.7302 0.0957
H23B H -0.2698 0.6991 -0.0957
H23I H -0.3009 0.9689 0.0957
H23A H -0.0311 1.2698 -0.0957
H23K H 0.2698 1.3009 0.0957
C25J C -0.0048(2) 0.6616(3) 0.0528(2)
C25B C -0.3384(3) 0.6664(2) -0.0528(2)
C25I C -0.3336(2) 1.0048(2) 0.0528(2)
C25A C 0.0048(2) 1.3384(3) -0.0528(2)
C25K C 0.3384(3) 1.3336(2) 0.0528(2)
H24J H -0.0388 0.6427 0.0690
H24B H -0.3573 0.6815 -0.0690
H24I H -0.3185 1.0388 0.0690
H24A H 0.0388 1.3573 -0.0690
H24K H 0.3573 1.3185 0.0690
C26J C 0.0040(2) 0.6374(4) 0.0130(2)
C26B C -0.3626(4) 0.6334(3) -0.0130(2)
C26I C -0.3666(3) 0.9960(2) 0.0130(2)
C26A C -0.0040(2) 1.3626(4) -0.0130(2)
C26K C 0.3626(4) 1.3666(3) 0.0130(2)
H25B H -0.3978 0.6260 -0.0027
H25I H -0.3740 1.0238 0.0027
H25A H 0.0238 1.3978 -0.0027
H25K H 0.3978 1.3740 0.0027
H25J H -0.0238 0.6022 0.0027
C27J C 0.0542(3) 0.6655(4) -0.0115(2)
C27B C -0.3345(4) 0.6113(3) 0.0115(2)
C27I C -0.3887(3) 0.9458(3) -0.0115(2)
C27A C -0.0542(3) 1.3345(4) 0.0115(2)
C27K C 0.3345(4) 1.3887(3) -0.0115(2)
H26B H -0.3506 0.5892 0.0383
H26I H -0.4108 0.9398 -0.0383
H26A H -0.0602 1.3506 0.0383
H26K H 0.3506 1.4108 -0.0383
H26J H 0.0602 0.6494 -0.0383
C28J C -0.2819(3) 0.6224(4) -0.0041(2)
C28B C -0.3776(4) 0.9043(2) 0.0041(2)
C28I C -0.0957(2) 1.2819(3) -0.0041(2)
C28A C 0.2819(3) 1.3776(4) 0.0041(2)
C28K C 0.3776(4) 1.0957(2) -0.0041(2)
H27J H -0.2629 0.6080 0.0129
H27B H -0.3920 0.8709 -0.0129
H27I H -0.1291 1.2629 0.0129
H27A H 0.2629 1.3920 -0.0129
H27K H 0.3920 1.1291 0.0129
C29K C 0.3960(3) 1.2094(2) -0.0478(2)
C29A C 0.1866(2) 1.3960(3) 0.0478(2)
C29I C -0.2094(2) 1.1866(2) -0.0478(2)
C29B C -0.3960(3) 0.7906(2) 0.0478(2)
C29J C -0.1866(2) 0.6040(3) -0.0478(2)
C30K C 0.4443(4) 1.2260(2) -0.0753(2)
C30A C 0.2183(3) 1.4443(4) 0.0753(2)
C30I C -0.2260(2) 1.2183(3) -0.0753(2)
C30B C -0.4443(4) 0.7740(2) 0.0753(2)
C30J C -0.2183(3) 0.5557(4) -0.0753(2)
H28K H 0.4427 1.2048 -0.1016
H28A H 0.2379 1.4427 0.1016
H28I H -0.2048 1.2379 -0.1016
H28B H -0.4427 0.7952 0.1016
H28J H -0.2379 0.5573 -0.1016
C31K C 0.4941(4) 1.2735(3) -0.0638(3)
C31A C 0.2206(3) 1.4941(4) 0.0638(3)
C31I C -0.2735(3) 1.2206(3) -0.0638(3)
C31B C -0.4941(4) 0.7265(3) 0.0638(3)
C31J C -0.2206(3) 0.5059(4) -0.0638(3)
H29K H 0.5259 1.2838 -0.0823
H29A H 0.2421 1.5259 0.0823
H29I H -0.2838 1.2421 -0.0823
H29B H -0.5259 0.7162 0.0823
H29J H -0.2421 0.4741 -0.0823
C32K C 0.4974(4) 1.3061(3) -0.0249(3)
C32A C 0.1913(3) 1.4974(4) 0.0249(3)
C32I C -0.3061(3) 1.1913(3) -0.0249(3)
C32B C -0.4974(4) 0.6939(3) 0.0249(3)
C32J C -0.1913(3) 0.5026(4) -0.0249(3)
H30K H 0.5312 1.3383 -0.0173
H30A H 0.1929 1.5312 0.0173
H30I H -0.3383 1.1929 -0.0173
H30B H -0.5312 0.6617 0.0173
H30J H -0.1929 0.4688 -0.0173
C33K C 0.4502(4) 1.2903(3) 0.0024(3)
C33A C 0.1599(3) 1.4502(4) -0.0024(3)
C33I C -0.2903(3) 1.1599(3) 0.0024(3)
C33B C -0.4502(4) 0.7097(3) -0.0024(3)
C33J C -0.1599(3) 0.5498(4) 0.0024(3)
H31K H 0.4523 1.3118 0.0287
H31A H 0.1405 1.4523 -0.0287
H31I H -0.3118 1.1405 0.0287
H31B H -0.4523 0.6882 -0.0287
H31J H -0.1405 0.5477 0.0287
C34K C 0.3995(4) 1.2425(2) -0.0088(2)
C34A C 0.1570(3) 1.3995(4) 0.0088(2)
C34I C -0.2425(2) 1.1570(3) -0.0088(2)
C34B C -0.3995(4) 0.7575(2) 0.0088(2)
C34J C -0.1570(3) 0.6005(4) -0.0088(2)
H32K H 0.3680 1.2327 0.0097
H32A H 0.1353 1.3680 -0.0097
H32I H -0.2327 1.1353 0.0097
H32B H -0.3680 0.7673 -0.0097
H32J H -0.1353 0.6320 0.0097
C35J C -0.1351(2) 0.7594(3) -0.0018(2)
C35B C -0.2406(3) 0.8945(2) 0.0018(2)
C35I C -0.1055(2) 1.1351(2) -0.0018(2)
C35A C 0.1351(2) 1.2406(3) 0.0018(2)
C35K C 0.2406(3) 1.1055(2) -0.0018(2)
C36J C 0.0602(2) 0.8677(3) 0.0229(2)
C36K C 0.1323(3) 1.1925(2) 0.0229(2)
C36A C -0.0602(2) 1.1323(3) -0.0229(2)
C36I C -0.1925(2) 0.9398(2) 0.0229(2)
C36B C -0.1323(3) 0.8075(2) -0.0229(2)
C37J C 0.0266(2) 0.8812(3) -0.0042(2)
C37K C 0.1188(3) 1.1454(2) -0.0042(2)
C37A C -0.0266(2) 1.1188(3) 0.0042(2)
C37I C -0.1454(2) 0.9734(2) -0.0042(2)
C37B C -0.1188(3) 0.8546(2) 0.0042(2)
H33J H -0.0028 0.8829 0.0106
H33K H 0.1171 1.1143 0.0106
H33A H 0.0028 1.1171 -0.0106
H33I H -0.1143 1.0028 0.0106
H33B H -0.1171 0.8857 -0.0106
C38J C 0.0352(2) 0.8923(3) -0.0528(2)
C38K C 0.1077(3) 1.1429(2) -0.0528(2)
C38A C -0.0352(2) 1.1077(3) 0.0528(2)
C38I C -0.1429(2) 0.9648(2) -0.0528(2)
C38B C -0.1077(3) 0.8571(2) 0.0528(2)
C39J C 0.0778(2) 0.8872(3) -0.0741(2)
C39K C 0.1128(3) 1.1906(2) -0.0741(2)
C39A C -0.0778(2) 1.1128(3) 0.0741(2)
C39I C -0.1906(2) 0.9222(2) -0.0741(2)
C39B C -0.1128(3) 0.8094(2) 0.0741(2)
H34J H 0.0834 0.8931 -0.1067
H34K H 0.1069 1.1903 -0.1067
H34A H -0.0834 1.1069 0.1067
H34I H -0.1903 0.9166 -0.1067
H34B H -0.1069 0.8097 0.1067
C40J C 0.1127(2) 0.8734(3) -0.0480(2)
C40K C 0.1266(3) 1.2393(2) -0.0480(2)
C40A C -0.1127(2) 1.1266(3) 0.0480(2)
C40I C -0.2393(2) 0.8873(2) -0.0480(2)
C40B C -0.1266(3) 0.7607(2) 0.0480(2)
C41J C 0.1569(3) 0.8667(4) -0.0737(2)
C41K C 0.1333(4) 1.2902(3) -0.0737(2)
C41A C -0.1569(3) 1.1333(4) 0.0737(2)
C41I C -0.2902(3) 0.8431(3) -0.0737(2)
C41B C -0.1333(4) 0.7098(3) 0.0737(2)
H35J H 0.1931 0.8990 -0.0680
H35K H 0.1010 1.2941 -0.0680
H35A H -0.1931 1.1010 0.0680
H35I H -0.2941 0.8069 -0.0680
H35B H -0.1010 0.7059 0.0680
H36J H 0.1492 0.8632 -0.1073
H36K H 0.1368 1.2860 -0.1073
H36A H -0.1492 1.1368 0.1073
H36I H -0.2860 0.8508 -0.1073
H36B H -0.1368 0.7140 0.1073
H37J H 0.1566 0.8336 -0.0624
H37K H 0.1664 1.3230 -0.0624
H37A H -0.1566 1.1664 0.0624
H37I H -0.3230 0.8434 -0.0624
H37B H -0.1664 0.6770 0.0624
C42J C 0.0018(3) 0.9122(4) -0.0814(3)
C42K C 0.0878(4) 1.0896(3) -0.0814(3)
C42A C -0.0018(3) 1.0878(4) 0.0814(3)
C42I C -0.0896(3) 0.9982(3) -0.0814(3)
C42B C -0.0878(4) 0.9104(3) 0.0814(3)
H38J H 0.0265 0.9492 -0.0934
H38K H 0.0508 1.0773 -0.0934
H38A H -0.0265 1.0508 0.0934
H38I H -0.0773 0.9735 -0.0934
H38B H -0.0508 0.9227 0.0934
H39J H -0.0261 0.9130 -0.0614
H39K H 0.0870 1.0609 -0.0614
H39A H 0.0261 1.0870 0.0614
H39I H -0.0609 1.0261 -0.0614
H39B H -0.0870 0.9391 0.0614
H40J H -0.0163 0.8870 -0.1075
H40K H 0.1130 1.0967 -0.1075
H40A H 0.0163 1.1130 0.1075
H40I H -0.0967 1.0163 -0.1075
H40B H -0.1130 0.9033 0.1075
C43J C 0.0496(2) 0.8579(3) 0.0754(2)
C43K C 0.1421(3) 1.1917(2) 0.0754(2)
C43A C -0.0496(2) 1.1421(3) -0.0754(2)
C43I C -0.1917(2) 0.9504(2) 0.0754(2)
C43B C -0.1421(3) 0.8083(2) -0.0754(2)
H41J H 0.0356 0.8189 0.0823
H41K H 0.1811 1.2167 0.0823
H41A H -0.0356 1.1811 -0.0823
H41I H -0.2167 0.9644 0.0823
H41B H -0.1811 0.7833 -0.0823
H42J H 0.0225 0.8682 0.0850
H42K H 0.1318 1.1543 0.0850
H42A H -0.0225 1.1318 -0.0850
H42I H -0.1543 0.9775 0.0850
H42B H -0.1318 0.8457 -0.0850
H43J H 0.0841 0.8803 0.0924
H43K H 0.1197 1.2038 0.0924
H43A H -0.0841 1.1197 -0.0924
H43I H -0.2038 0.9159 0.0924
H43B H -0.1197 0.7962 -0.0924
loop_
_geom_bond_atom_site_label_1
_geom_bond_atom_site_label_2
_geom_bond_site_symmetry_1
_geom_bond_site_symmetry_2
Cs1 N1 1_555 1_555
P1 N1 1_555 1_555
P2 N2 1_555 1_555
N1 C35 1_555 1_555
N2 Cs1 1_555 1_555
C1 P1 1_555 1_555
H1 C1 1_555 1_555
C2 P2 1_555 1_555
C3 C2 1_555 1_555
H2 C3 1_555 1_555
C4 C3 1_555 1_555
H3 C4 1_555 1_555
C5 C4 1_555 1_555
H4 C5 1_555 1_555
C6 C5 1_555 1_555
H5 C6 1_555 1_555
C7 C2 1_555 1_555
H6 C7 1_555 1_555
C8 P2 1_555 1_555
C9 C8 1_555 1_555
H7 C9 1_555 1_555
C10 C9 1_555 1_555
H8 C10 1_555 1_555
C11 C10 1_555 1_555
H9 C11 1_555 1_555
C12 C11 1_555 1_555
H10 C12 1_555 1_555
C13 C8 1_555 1_555
H11 C13 1_555 1_555
C14 Cs1 1_555 1_555
C15 Cs1 1_555 1_555
C16 C15 1_555 1_555
H12 C16 1_555 1_555
C17 C16 1_555 1_555
C18 C17 1_555 1_555
H13 C18 1_555 1_555
C19 Cs1 1_555 1_555
C20 C19 1_555 1_555
H14 C20 1_555 1_555
H15 C20 1_555 1_555
H16 C20 1_555 1_555
C21 C17 1_555 1_555
H17 C21 1_555 1_555
H18 C21 1_555 1_555
H19 C21 1_555 1_555
C22 C15 1_555 1_555
H20 C22 1_555 1_555
H21 C22 1_555 1_555
H22 C22 1_555 1_555
C23 P1 1_555 1_555
C24 Cs1 1_555 1_555
H23 C24 1_555 1_555
C25 Cs1 1_555 1_555
H24 C25 1_555 1_555
C26 Cs1 1_555 1_555
H25 C26 1_555 1_555
C27 Cs1 1_555 1_555
H26 C27 1_555 1_555
C28 C23 1_555 1_555
H27 C28 1_555 1_555
C29 P1 1_555 1_555
C30 C29 1_555 1_555
H28 C30 1_555 1_555
C31 C30 1_555 1_555
H29 C31 1_555 1_555
C32 C31 1_555 1_555
H30 C32 1_555 1_555
C33 C32 1_555 1_555
H31 C33 1_555 1_555
C34 C29 1_555 1_555
H32 C34 1_555 1_555
C35 Cs1 1_555 1_555
C36 Cs1 1_555 1_555
C37 Cs1 1_555 1_555
H33 C37 1_555 1_555
C38 Cs1 1_555 1_555
C39 Cs1 1_555 1_555
H34 C39 1_555 1_555
C40 Cs1 1_555 1_555
C41 C40 1_555 1_555
H35 C41 1_555 1_555
H36 C41 1_555 1_555
H37 C41 1_555 1_555
C42 C38 1_555 1_555
H38 C42 1_555 1_555
H39 C42 1_555 1_555
H40 C42 1_555 1_555
C43 C36 1_555 1_555
H41 C43 1_555 1_555
H42 C43 1_555 1_555
H43 C43 1_555 1_555
Cs1K N1K 1_555 1_555
Cs1A N1A 1_555 1_555
Cs1I N1I 1_555 1_555
Cs1B N1B 1_555 1_555
Cs1J C35 1_555 1_555
P1K N1K 1_555 1_555
P1A N1A 1_555 1_555
P1I N1I 1_555 1_555
P1B N1B 1_555 1_555
P1J N1J 1_555 1_555
P2K N2K 1_555 1_555
P2A N2A 1_555 1_555
P2I N2I 1_555 1_555
P2B N2B 1_555 1_555
P2J N2J 1_555 1_555
N1K C35K 1_555 1_555
N1A C35A 1_555 1_555
N1I C35I 1_555 1_555
N1B C35B 1_555 1_555
N1J Cs1J 1_555 1_555
N2K Cs1K 1_555 1_555
N2A Cs1A 1_555 1_555
N2I Cs1I 1_555 1_555
N2B Cs1B 1_555 1_555
N2J Cs1J 1_555 1_555
C1K P1K 1_555 1_555
C1A P1A 1_555 1_555
C1I P1I 1_555 1_555
C1B P1B 1_555 1_555
C1J P1J 1_555 1_555
H1K C1K 1_555 1_555
H1A C1A 1_555 1_555
H1I C1I 1_555 1_555
H1B C1B 1_555 1_555
H1J C1J 1_555 1_555
C2K P2K 1_555 1_555
C2A P2A 1_555 1_555
C2I P2I 1_555 1_555
C2B P2B 1_555 1_555
C2J P2J 1_555 1_555
C3K C2K 1_555 1_555
C3A C2A 1_555 1_555
C3I C2I 1_555 1_555
C3B C2B 1_555 1_555
C3J C2J 1_555 1_555
H2K C3K 1_555 1_555
H2A C3A 1_555 1_555
H2I C3I 1_555 1_555
H2B C3B 1_555 1_555
H2J C3J 1_555 1_555
C4K C3K 1_555 1_555
C4A C3A 1_555 1_555
C4I C3I 1_555 1_555
C4B C3B 1_555 1_555
C4J C3J 1_555 1_555
H3K C4K 1_555 1_555
H3A C4A 1_555 1_555
H3I C4I 1_555 1_555
H3B C4B 1_555 1_555
H3J C4J 1_555 1_555
C5K C4K 1_555 1_555
C5A C4A 1_555 1_555
C5I C4I 1_555 1_555
C5B C4B 1_555 1_555
C5J C4J 1_555 1_555
H4K C5K 1_555 1_555
H4A C5A 1_555 1_555
H4I C5I 1_555 1_555
H4B C5B 1_555 1_555
H4J C5J 1_555 1_555
C6K C5K 1_555 1_555
C6A C5A 1_555 1_555
C6I C5I 1_555 1_555
C6B C5B 1_555 1_555
C6J C5J 1_555 1_555
H5K C6K 1_555 1_555
H5A C6A 1_555 1_555
H5I C6I 1_555 1_555
H5B C6B 1_555 1_555
H5J C6J 1_555 1_555
C7K C2K 1_555 1_555
C7A C2A 1_555 1_555
C7I C2I 1_555 1_555
C7B C2B 1_555 1_555
C7J C2J 1_555 1_555
H6K C7K 1_555 1_555
H6A C7A 1_555 1_555
H6I C7I 1_555 1_555
H6B C7B 1_555 1_555
H6J C7J 1_555 1_555
C8K P2K 1_555 1_555
C8A P2A 1_555 1_555
C8I P2I 1_555 1_555
C8B P2B 1_555 1_555
C8J P2J 1_555 1_555
C9K C8K 1_555 1_555
C9A C8A 1_555 1_555
C9I C8I 1_555 1_555
C9B C8B 1_555 1_555
C9J C8J 1_555 1_555
H7K C9K 1_555 1_555
H7A C9A 1_555 1_555
H7I C9I 1_555 1_555
H7B C9B 1_555 1_555
H7J C9J 1_555 1_555
C10K C9K 1_555 1_555
C10A C9A 1_555 1_555
C10I C9I 1_555 1_555
C10B C9B 1_555 1_555
C10J C9J 1_555 1_555
H8K C10K 1_555 1_555
H8A C10A 1_555 1_555
H8I C10I 1_555 1_555
H8B C10B 1_555 1_555
H8J C10J 1_555 1_555
C11K C10K 1_555 1_555
C11A C10A 1_555 1_555
C11I C10I 1_555 1_555
C11B C10B 1_555 1_555
C11J C10J 1_555 1_555
H9K C11K 1_555 1_555
H9A C11A 1_555 1_555
H9I C11I 1_555 1_555
H9B C11B 1_555 1_555
H9J C11J 1_555 1_555
C12K C11K 1_555 1_555
C12A C11A 1_555 1_555
C12I C11I 1_555 1_555
C12B C11B 1_555 1_555
C12J C11J 1_555 1_555
H10K C12K 1_555 1_555
H10A C12A 1_555 1_555
H10I C12I 1_555 1_555
H10B C12B 1_555 1_555
H10J C12J 1_555 1_555
C13K C8K 1_555 1_555
C13A C8A 1_555 1_555
C13I C8I 1_555 1_555
C13B C8B 1_555 1_555
C13J C8J 1_555 1_555
H11K C13K 1_555 1_555
H11A C13A 1_555 1_555
H11I C13I 1_555 1_555
H11B C13B 1_555 1_555
H11J C13J 1_555 1_555
C14K Cs1K 1_555 1_555
C14A Cs1A 1_555 1_555
C14I Cs1I 1_555 1_555
C14B Cs1B 1_555 1_555
C14J Cs1J 1_555 1_555
C15K Cs1K 1_555 1_555
C15A Cs1A 1_555 1_555
C15I Cs1I 1_555 1_555
C15B Cs1B 1_555 1_555
C15J Cs1J 1_555 1_555
C16J C15J 1_555 1_555
C16B C15B 1_555 1_555
C16I C15I 1_555 1_555
C16A C15A 1_555 1_555
C16K C15K 1_555 1_555
H12J C16J 1_555 1_555
H12B C16B 1_555 1_555
H12I C16I 1_555 1_555
H12A C16A 1_555 1_555
H12K C16K 1_555 1_555
C17J C16J 1_555 1_555
C17B C16B 1_555 1_555
C17I C16I 1_555 1_555
C17A C16A 1_555 1_555
C17K C16K 1_555 1_555
C18J C17J 1_555 1_555
C18B C17B 1_555 1_555
C18I C17I 1_555 1_555
C18A C17A 1_555 1_555
C18K C17K 1_555 1_555
H13J C18J 1_555 1_555
H13B C18B 1_555 1_555
H13I C18I 1_555 1_555
H13A C18A 1_555 1_555
H13K C18K 1_555 1_555
C19K Cs1K 1_555 1_555
C19A Cs1A 1_555 1_555
C19I Cs1I 1_555 1_555
C19B Cs1B 1_555 1_555
C19J Cs1J 1_555 1_555
C20J C19J 1_555 1_555
C20B C19B 1_555 1_555
C20I C19I 1_555 1_555
C20A C19A 1_555 1_555
C20K C19K 1_555 1_555
H14J C20J 1_555 1_555
H14B C20B 1_555 1_555
H14I C20I 1_555 1_555
H14A C20A 1_555 1_555
H14K C20K 1_555 1_555
H15J C20J 1_555 1_555
H15B C20B 1_555 1_555
H15I C20I 1_555 1_555
H15A C20A 1_555 1_555
H15K C20K 1_555 1_555
H16J C20J 1_555 1_555
H16B C20B 1_555 1_555
H16I C20I 1_555 1_555
H16A C20A 1_555 1_555
H16K C20K 1_555 1_555
C21J C17J 1_555 1_555
C21B C17B 1_555 1_555
C21I C17I 1_555 1_555
C21A C17A 1_555 1_555
C21K C17K 1_555 1_555
H17J C21J 1_555 1_555
H17B C21B 1_555 1_555
H17I C21I 1_555 1_555
H17A C21A 1_555 1_555
H17K C21K 1_555 1_555
H18J C21J 1_555 1_555
H18B C21B 1_555 1_555
H18I C21I 1_555 1_555
H18A C21A 1_555 1_555
H18K C21K 1_555 1_555
H19J C21J 1_555 1_555
H19B C21B 1_555 1_555
H19I C21I 1_555 1_555
H19A C21A 1_555 1_555
H19K C21K 1_555 1_555
C22J C15J 1_555 1_555
C22B C15B 1_555 1_555
C22I C15I 1_555 1_555
C22A C15A 1_555 1_555
C22K C15K 1_555 1_555
H20J C22J 1_555 1_555
H20B C22B 1_555 1_555
H20I C22I 1_555 1_555
H20A C22A 1_555 1_555
H20K C22K 1_555 1_555
H21J C22J 1_555 1_555
H21B C22B 1_555 1_555
H21I C22I 1_555 1_555
H21A C22A 1_555 1_555
H21K C22K 1_555 1_555
H22J C22J 1_555 1_555
H22B C22B 1_555 1_555
H22I C22I 1_555 1_555
H22A C22A 1_555 1_555
H22K C22K 1_555 1_555
C23K C24 1_555 1_555
C23A P1A 1_555 1_555
C23I P1I 1_555 1_555
C23B P1B 1_555 1_555
C23J P1J 1_555 1_555
C24K Cs1K 1_555 1_555
C24A Cs1A 1_555 1_555
C24I Cs1I 1_555 1_555
C24B Cs1B 1_555 1_555
C24J C23 1_555 1_555
H23J C24J 1_555 1_555
H23B C24B 1_555 1_555
H23I C24I 1_555 1_555
H23A C24A 1_555 1_555
H23K C24K 1_555 1_555
C25J Cs1J 1_555 1_555
C25B Cs1B 1_555 1_555
C25I Cs1I 1_555 1_555
C25A Cs1A 1_555 1_555
C25K Cs1K 1_555 1_555
H24J C25J 1_555 1_555
H24B C25B 1_555 1_555
H24I C25I 1_555 1_555
H24A C25A 1_555 1_555
H24K C25K 1_555 1_555
C26J Cs1J 1_555 1_555
C26B Cs1B 1_555 1_555
C26I Cs1I 1_555 1_555
C26A Cs1A 1_555 1_555
C26K Cs1K 1_555 1_555
H25B C26B 1_555 1_555
H25I C26I 1_555 1_555
H25A C26A 1_555 1_555
H25K C26K 1_555 1_555
H25J C26J 1_555 1_555
C27J C28 1_555 1_555
C27B Cs1B 1_555 1_555
C27I Cs1I 1_555 1_555
C27A Cs1A 1_555 1_555
C27K Cs1K 1_555 1_555
H26B C27B 1_555 1_555
H26I C27I 1_555 1_555
H26A C27A 1_555 1_555
H26K C27K 1_555 1_555
H26J C27J 1_555 1_555
C28J C23J 1_555 1_555
C28B C23B 1_555 1_555
C28I C23I 1_555 1_555
C28A C23A 1_555 1_555
C28K C27 1_555 1_555
H27J C28J 1_555 1_555
H27B C28B 1_555 1_555
H27I C28I 1_555 1_555
H27A C28A 1_555 1_555
H27K C28K 1_555 1_555
C29K P1K 1_555 1_555
C29A P1A 1_555 1_555
C29I P1I 1_555 1_555
C29B P1B 1_555 1_555
C29J P1J 1_555 1_555
C30K C29K 1_555 1_555
C30A C29A 1_555 1_555
C30I C29I 1_555 1_555
C30B C29B 1_555 1_555
C30J C29J 1_555 1_555
H28K C30K 1_555 1_555
H28A C30A 1_555 1_555
H28I C30I 1_555 1_555
H28B C30B 1_555 1_555
H28J C30J 1_555 1_555
C31K C30K 1_555 1_555
C31A C30A 1_555 1_555
C31I C30I 1_555 1_555
C31B C30B 1_555 1_555
C31J C30J 1_555 1_555
H29K C31K 1_555 1_555
H29A C31A 1_555 1_555
H29I C31I 1_555 1_555
H29B C31B 1_555 1_555
H29J C31J 1_555 1_555
C32K C31K 1_555 1_555
C32A C31A 1_555 1_555
C32I C31I 1_555 1_555
C32B C31B 1_555 1_555
C32J C31J 1_555 1_555
H30K C32K 1_555 1_555
H30A C32A 1_555 1_555
H30I C32I 1_555 1_555
H30B C32B 1_555 1_555
H30J C32J 1_555 1_555
C33K C32K 1_555 1_555
C33A C32A 1_555 1_555
C33I C32I 1_555 1_555
C33B C32B 1_555 1_555
C33J C32J 1_555 1_555
H31K C33K 1_555 1_555
H31A C33A 1_555 1_555
H31I C33I 1_555 1_555
H31B C33B 1_555 1_555
H31J C33J 1_555 1_555
C34K C29K 1_555 1_555
C34A C29A 1_555 1_555
C34I C29I 1_555 1_555
C34B C29B 1_555 1_555
C34J C29J 1_555 1_555
H32K C34K 1_555 1_555
H32A C34A 1_555 1_555
H32I C34I 1_555 1_555
H32B C34B 1_555 1_555
H32J C34J 1_555 1_555
C35J Cs1B 1_555 1_555
C35B Cs1I 1_555 1_555
C35I Cs1A 1_555 1_555
C35A Cs1K 1_555 1_555
C35K Cs1 1_555 1_555
C36J C35 1_555 1_555
C36K Cs1K 1_555 1_555
C36A Cs1A 1_555 1_555
C36I Cs1I 1_555 1_555
C36B Cs1B 1_555 1_555
C37J Cs1J 1_555 1_555
C37K Cs1K 1_555 1_555
C37A Cs1A 1_555 1_555
C37I Cs1I 1_555 1_555
C37B Cs1B 1_555 1_555
H33J C37J 1_555 1_555
H33K C37K 1_555 1_555
H33A C37A 1_555 1_555
H33I C37I 1_555 1_555
H33B C37B 1_555 1_555
C38J Cs1J 1_555 1_555
C38K Cs1K 1_555 1_555
C38A Cs1A 1_555 1_555
C38I Cs1I 1_555 1_555
C38B Cs1B 1_555 1_555
C39J Cs1J 1_555 1_555
C39K Cs1K 1_555 1_555
C39A Cs1A 1_555 1_555
C39I Cs1I 1_555 1_555
C39B Cs1B 1_555 1_555
H34J C39J 1_555 1_555
H34K C39K 1_555 1_555
H34A C39A 1_555 1_555
H34I C39I 1_555 1_555
H34B C39B 1_555 1_555
C40J C35 1_555 1_555
C40K Cs1K 1_555 1_555
C40A Cs1A 1_555 1_555
C40I Cs1I 1_555 1_555
C40B Cs1B 1_555 1_555
C41J C40J 1_555 1_555
C41K C40K 1_555 1_555
C41A C40A 1_555 1_555
C41I C40I 1_555 1_555
C41B C40B 1_555 1_555
H35J C41J 1_555 1_555
H35K C41K 1_555 1_555
H35A C41A 1_555 1_555
H35I C41I 1_555 1_555
H35B C41B 1_555 1_555
H36J C41J 1_555 1_555
H36K C41K 1_555 1_555
H36A C41A 1_555 1_555
H36I C41I 1_555 1_555
H36B C41B 1_555 1_555
H37J C41J 1_555 1_555
H37K C41K 1_555 1_555
H37A C41A 1_555 1_555
H37I C41I 1_555 1_555
H37B C41B 1_555 1_555
C42J C38J 1_555 1_555
C42K C38K 1_555 1_555
C42A C38A 1_555 1_555
C42I C38I 1_555 1_555
C42B C38B 1_555 1_555
H38J C42J 1_555 1_555
H38K C42K 1_555 1_555
H38A C42A 1_555 1_555
H38I C42I 1_555 1_555
H38B C42B 1_555 1_555
H39J C42J 1_555 1_555
H39K C42K 1_555 1_555
H39A C42A 1_555 1_555
H39I C42I 1_555 1_555
H39B C42B 1_555 1_555
H40J C42J 1_555 1_555
H40K C42K 1_555 1_555
H40A C42A 1_555 1_555
H40I C42I 1_555 1_555
H40B C42B 1_555 1_555
C43J C36J 1_555 1_555
C43K C36K 1_555 1_555
C43A C36A 1_555 1_555
C43I C36I 1_555 1_555
C43B C36B 1_555 1_555
H41J C43J 1_555 1_555
H41K C43K 1_555 1_555
H41A C43A 1_555 1_555
H41I C43I 1_555 1_555
H41B C43B 1_555 1_555
H42J C43J 1_555 1_555
H42K C43K 1_555 1_555
H42A C43A 1_555 1_555
H42I C43I 1_555 1_555
H42B C43B 1_555 1_555
H43J C43J 1_555 1_555
H43K C43K 1_555 1_555
H43A C43A 1_555 1_555
H43I C43I 1_555 1_555
H43B C43B 1_555 1_555
P2 C1 1_555 1_555
N2 C14 1_555 1_555
C6 C7 1_555 1_555
C12 C13 1_555 1_555
C14 C15 1_555 1_555
C14 C19 1_555 1_555
C18 C19 1_555 1_555
C24 C25 1_555 1_555
C25 C26 1_555 1_555
C26 C27 1_555 1_555
C33 C34 1_555 1_555
C36 C37 1_555 1_555
C36 C35K 1_555 1_555
C37 C38 1_555 1_555
C38 C39 1_555 1_555
C39 C40 1_555 1_555
C40 C35K 1_555 1_555
Cs1K C35K 1_555 1_555
Cs1A C35A 1_555 1_555
Cs1I C35I 1_555 1_555
Cs1B C35B 1_555 1_555
Cs1J C24J 1_555 1_555
Cs1J C27J 1_555 1_555
Cs1J C35J 1_555 1_555
Cs1J C36J 1_555 1_555
Cs1J C40J 1_555 1_555
P1K C23K 1_555 1_555
P2K C1K 1_555 1_555
P2A C1A 1_555 1_555
P2I C1I 1_555 1_555
P2B C1B 1_555 1_555
P2J C1J 1_555 1_555
N1J C35J 1_555 1_555
N2K C14K 1_555 1_555
N2A C14A 1_555 1_555
N2I C14I 1_555 1_555
N2B C14B 1_555 1_555
N2J C14J 1_555 1_555
C6K C7K 1_555 1_555
C6A C7A 1_555 1_555
C6I C7I 1_555 1_555
C6B C7B 1_555 1_555
C6J C7J 1_555 1_555
C12K C13K 1_555 1_555
C12A C13A 1_555 1_555
C12I C13I 1_555 1_555
C12B C13B 1_555 1_555
C12J C13J 1_555 1_555
C14K C15K 1_555 1_555
C14K C19K 1_555 1_555
C14A C15A 1_555 1_555
C14A C19A 1_555 1_555
C14I C15I 1_555 1_555
C14I C19I 1_555 1_555
C14B C15B 1_555 1_555
C14B C19B 1_555 1_555
C14J C15J 1_555 1_555
C14J C19J 1_555 1_555
C18J C19J 1_555 1_555
C18B C19B 1_555 1_555
C18I C19I 1_555 1_555
C18A C19A 1_555 1_555
C18K C19K 1_555 1_555
C23K C28K 1_555 1_555
C23A C24K 1_555 1_555
C23I C24A 1_555 1_555
C23B C24I 1_555 1_555
C23J C24B 1_555 1_555
C24K C25K 1_555 1_555
C24A C25A 1_555 1_555
C24I C25I 1_555 1_555
C24B C25B 1_555 1_555
C24J C25J 1_555 1_555
C25J C26J 1_555 1_555
C25B C26B 1_555 1_555
C25I C26I 1_555 1_555
C25A C26A 1_555 1_555
C25K C26K 1_555 1_555
C26J C27J 1_555 1_555
C26B C27B 1_555 1_555
C26I C27I 1_555 1_555
C26A C27A 1_555 1_555
C26K C27K 1_555 1_555
C27B C28J 1_555 1_555
C27I C28B 1_555 1_555
C27A C28I 1_555 1_555
C27K C28A 1_555 1_555
C33K C34K 1_555 1_555
C33A C34A 1_555 1_555
C33I C34I 1_555 1_555
C33B C34B 1_555 1_555
C33J C34J 1_555 1_555
C35J C36B 1_555 1_555
C35J C40B 1_555 1_555
C35B C36I 1_555 1_555
C35B C40I 1_555 1_555
C35I C36A 1_555 1_555
C35I C40A 1_555 1_555
C35A C36K 1_555 1_555
C35A C40K 1_555 1_555
C36J C37J 1_555 1_555
C36K C37K 1_555 1_555
C36A C37A 1_555 1_555
C36I C37I 1_555 1_555
C36B C37B 1_555 1_555
C37J C38J 1_555 1_555
C37K C38K 1_555 1_555
C37A C38A 1_555 1_555
C37I C38I 1_555 1_555
C37B C38B 1_555 1_555
C38J C39J 1_555 1_555
C38K C39K 1_555 1_555
C38A C39A 1_555 1_555
C38I C39I 1_555 1_555
C38B C39B 1_555 1_555
C39J C40J 1_555 1_555
C39K C40K 1_555 1_555
C39A C40A 1_555 1_555
C39I C40I 1_555 1_555
C39B C40B 1_555 1_555

#END
