
#######################################################################
#
#                 Cambridge Crystallographic Data Centre
#                                CCDC 
#
#######################################################################
#
# If this CIF has been generated from an entry in the Cambridge 
# Structural Database, then it will include bibliographic, chemical, 
# crystal, experimental, refinement or atomic coordinate data resulting 
# from the CCDC's data processing and validation procedures.
#
#######################################################################

data_QEHYOT
_chemical_formula_moiety         'C53 H63 N2 Na1 O1 P2,0.5(C7 H8)'
_chemical_name_systematic        
"(tetrahydrofuran)-(bis((2,6-di-isopropylphenyl)-diphenylphosphinimino)methanide-N,N')-sodium toluene solvate"
_symmetry_cell_setting           triclinic
_symmetry_space_group_name_H-M   'P -1'
_symmetry_Int_Tables_number      2
_space_group_name_Hall           '-P 1'
loop_
_symmetry_equiv_pos_site_id
_symmetry_equiv_pos_as_xyz
1 x,y,z
2 -x,-y,-z
_cell_length_a                   11.8167(7)
_cell_length_b                   12.4338(7)
_cell_length_c                   18.4310(10)
_cell_angle_alpha                73.701(2)
_cell_angle_beta                 80.258(2)
_cell_angle_gamma                72.164(2)
_cell_volume                     2463.95
_exptl_crystal_colour            colorless
_exptl_crystal_description       lath
_cell_formula_units_Z            2
loop_
_atom_site_label
_atom_site_type_symbol
_atom_site_fract_x
_atom_site_fract_y
_atom_site_fract_z
C1 C 0.12419(14) 0.31810(13) 0.12114(9)
H1 H 0.1582 0.3575 0.0747
Na1 Na 0.18498(7) 0.19490(6) 0.30948(4)
P1 P 0.02378(4) 0.40452(3) 0.17434(2)
C2 C -0.13124(14) 0.44132(13) 0.15190(9)
C3 C -0.15500(16) 0.43726(14) 0.08170(10)
H2 H -0.0907 0.4124 0.0462
C4 C -0.27118(17) 0.46895(16) 0.06257(11)
H3 H -0.2859 0.4653 0.0143
C5 C -0.36578(16) 0.50582(15) 0.11336(11)
H4 H -0.4455 0.5270 0.1004
C6 C -0.34340(16) 0.51163(16) 0.18315(11)
H5 H -0.4081 0.5376 0.2181
C7 C -0.22768(16) 0.47993(16) 0.20243(10)
H6 H -0.2135 0.4844 0.2506
C8 C 0.05553(16) 0.54695(14) 0.13783(9)
C9 C 0.17264(17) 0.55172(16) 0.13264(10)
H7 H 0.2355 0.4815 0.1404
C10 C 0.1989(2) 0.65843(17) 0.11623(11)
H8 H 0.2794 0.6607 0.1127
C11 C 0.1080(2) 0.76104(17) 0.10502(10)
H9 H 0.1257 0.8337 0.0952
C12 C -0.0078(2) 0.75783(16) 0.10811(11)
H10 H -0.0698 0.8285 0.0989
C13 C -0.03501(18) 0.65156(14) 0.12470(9)
H11 H -0.1155 0.6502 0.1271
N1 N 0.03471(12) 0.35147(11) 0.26323(7)
C14 C -0.03883(14) 0.37470(13) 0.32889(9)
C15 C -0.03358(15) 0.46451(14) 0.36088(9)
C16 C -0.09962(16) 0.47777(15) 0.42945(10)
H12 H -0.0963 0.5384 0.4502
C17 C -0.17014(16) 0.40493(16) 0.46827(10)
H13 H -0.2153 0.4159 0.5147
C18 C -0.17353(16) 0.31621(16) 0.43817(10)
H14 H -0.2207 0.2653 0.4649
C19 C -0.10942(15) 0.29936(14) 0.36952(9)
C20 C 0.04967(17) 0.54038(15) 0.32390(9)
H15 H 0.0615 0.5429 0.2685
C21 C 0.17102(17) 0.48554(16) 0.35472(12)
H16 H 0.2038 0.4070 0.3462
H17 H 0.1626 0.4809 0.4093
H18 H 0.2251 0.5333 0.3286
C22 C 0.0007(2) 0.66606(16) 0.33128(13)
H19 H 0.0514 0.7131 0.2985
H20 H 0.0000 0.6680 0.3841
H21 H -0.0808 0.6977 0.3159
C23 C -0.11399(16) 0.19655(14) 0.34187(9)
H22 H -0.0675 0.2000 0.2910
C24 C -0.24077(18) 0.19911(17) 0.33286(12)
H23 H -0.2775 0.2719 0.2973
H24 H -0.2878 0.1942 0.3823
H25 H -0.2385 0.1328 0.3133
C25 C -0.05438(17) 0.08162(15) 0.39596(10)
H26 H 0.0292 0.0777 0.3980
H27 H -0.0579 0.0161 0.3776
H28 H -0.0964 0.0776 0.4469
P2 P 0.17057(3) 0.16787(3) 0.14207(2)
C26 C 0.25575(13) 0.12704(13) 0.05693(9)
C27 C 0.29525(15) 0.00793(14) 0.05964(9)
H29 H 0.2786 -0.0467 0.1048
C28 C 0.35821(15) -0.03136(14) -0.00262(10)
H30 H 0.3836 -0.1125 0.0000
C29 C 0.38446(14) 0.04646(15) -0.06865(9)
H31 H 0.4281 0.0192 -0.1113
C30 C 0.34643(16) 0.16482(15) -0.07201(10)
H32 H 0.3643 0.2189 -0.1172
C31 C 0.28247(15) 0.20478(14) -0.00983(9)
H33 H 0.2567 0.2861 -0.0129
C32 C 0.04119(13) 0.11234(13) 0.15122(9)
C33 C -0.03097(15) 0.15258(14) 0.09142(10)
H34 H -0.0139 0.2101 0.0481
C34 C -0.12691(16) 0.10989(16) 0.09428(10)
H35 H -0.1752 0.1378 0.0530
C35 C -0.15311(15) 0.02611(14) 0.15740(10)
H36 H -0.2193 -0.0032 0.1595
C36 C -0.08210(15) -0.01425(14) 0.21713(10)
H37 H -0.0999 -0.0713 0.2605
C37 C 0.01475(14) 0.02796(13) 0.21411(9)
H38 H 0.0634 -0.0009 0.2552
N2 N 0.23747(11) 0.09386(11) 0.21608(7)
C38 C 0.35800(14) 0.04457(14) 0.22982(9)
C39 C 0.39772(14) -0.07898(14) 0.25753(9)
C40 C 0.51327(15) -0.13105(16) 0.27888(9)
H39 H 0.5392 -0.2134 0.2966
C41 C 0.59126(15) -0.06591(17) 0.27487(10)
H40 H 0.6697 -0.1029 0.2899
C42 C 0.55339(15) 0.05387(16) 0.24862(9)
H41 H 0.6067 0.0988 0.2460
C43 C 0.43866(14) 0.11041(15) 0.22582(9)
C44 C 0.31283(15) -0.15311(14) 0.26748(9)
H42 H 0.2476 -0.1076 0.2337
C45 C 0.25516(16) -0.17399(16) 0.34930(10)
H43 H 0.2154 -0.0989 0.3618
H44 H 0.3168 -0.2191 0.3840
H45 H 0.1963 -0.2173 0.3544
C46 C 0.37073(17) -0.26861(16) 0.24493(11)
H46 H 0.4133 -0.2540 0.1943
H47 H 0.3088 -0.3058 0.2444
H48 H 0.4271 -0.3201 0.2817
C47 C 0.40565(15) 0.24211(15) 0.19552(10)
H49 H 0.3174 0.2699 0.1921
C48 C 0.43589(18) 0.30421(18) 0.24810(12)
H50 H 0.4029 0.3886 0.2302
H51 H 0.5228 0.2857 0.2477
H52 H 0.4013 0.2779 0.2999
C49 C 0.46639(17) 0.27569(16) 0.11536(11)
H53 H 0.4445 0.2376 0.0820
H54 H 0.5532 0.2506 0.1171
H55 H 0.4403 0.3604 0.0957
O1 O 0.22564(12) 0.14102(13) 0.42941(7)
C50 C 0.15557(18) 0.18915(17) 0.49034(10)
H56 H 0.0863 0.1567 0.5088
H57 H 0.1258 0.2749 0.4730
C51 C 0.2363(2) 0.1566(3) 0.55208(14)
H58 H 0.2010 0.1152 0.6003
H59 H 0.2501 0.2270 0.5600
C52 C 0.3526(2) 0.0776(2) 0.52548(14)
H60 H 0.4153 0.1192 0.5088
H61 H 0.3809 0.0075 0.5665
C53 C 0.32168(19) 0.0456(2) 0.46068(12)
H62 H 0.3910 0.0343 0.4223
H63 H 0.2966 -0.0272 0.4785
loop_
_geom_bond_atom_site_label_1
_geom_bond_atom_site_label_2
_geom_bond_site_symmetry_1
_geom_bond_site_symmetry_2
C1 H1 1_555 1_555
Na1 N1 1_555 1_555
P1 C1 1_555 1_555
C2 P1 1_555 1_555
C3 C2 1_555 1_555
H2 C3 1_555 1_555
C4 C3 1_555 1_555
H3 C4 1_555 1_555
C5 C4 1_555 1_555
H4 C5 1_555 1_555
C6 C5 1_555 1_555
H5 C6 1_555 1_555
C7 C2 1_555 1_555
H6 C7 1_555 1_555
C8 P1 1_555 1_555
C9 C8 1_555 1_555
H7 C9 1_555 1_555
C10 C9 1_555 1_555
H8 C10 1_555 1_555
C11 C10 1_555 1_555
H9 C11 1_555 1_555
C12 C11 1_555 1_555
H10 C12 1_555 1_555
C13 C8 1_555 1_555
H11 C13 1_555 1_555
N1 P1 1_555 1_555
C14 N1 1_555 1_555
C15 C14 1_555 1_555
C16 C15 1_555 1_555
H12 C16 1_555 1_555
C17 C16 1_555 1_555
H13 C17 1_555 1_555
C18 C17 1_555 1_555
H14 C18 1_555 1_555
C19 C14 1_555 1_555
C20 C15 1_555 1_555
H15 C20 1_555 1_555
C21 C20 1_555 1_555
H16 C21 1_555 1_555
H17 C21 1_555 1_555
H18 C21 1_555 1_555
C22 C20 1_555 1_555
H19 C22 1_555 1_555
H20 C22 1_555 1_555
H21 C22 1_555 1_555
C23 C19 1_555 1_555
H22 C23 1_555 1_555
C24 C23 1_555 1_555
H23 C24 1_555 1_555
H24 C24 1_555 1_555
H25 C24 1_555 1_555
C25 C23 1_555 1_555
H26 C25 1_555 1_555
H27 C25 1_555 1_555
H28 C25 1_555 1_555
P2 C1 1_555 1_555
C26 P2 1_555 1_555
C27 C26 1_555 1_555
H29 C27 1_555 1_555
C28 C27 1_555 1_555
H30 C28 1_555 1_555
C29 C28 1_555 1_555
H31 C29 1_555 1_555
C30 C29 1_555 1_555
H32 C30 1_555 1_555
C31 C26 1_555 1_555
H33 C31 1_555 1_555
C32 P2 1_555 1_555
C33 C32 1_555 1_555
H34 C33 1_555 1_555
C34 C33 1_555 1_555
H35 C34 1_555 1_555
C35 C34 1_555 1_555
H36 C35 1_555 1_555
C36 C35 1_555 1_555
H37 C36 1_555 1_555
C37 C32 1_555 1_555
H38 C37 1_555 1_555
N2 Na1 1_555 1_555
C38 N2 1_555 1_555
C39 C38 1_555 1_555
C40 C39 1_555 1_555
H39 C40 1_555 1_555
C41 C40 1_555 1_555
H40 C41 1_555 1_555
C42 C41 1_555 1_555
H41 C42 1_555 1_555
C43 C38 1_555 1_555
C44 C39 1_555 1_555
H42 C44 1_555 1_555
C45 C44 1_555 1_555
H43 C45 1_555 1_555
H44 C45 1_555 1_555
H45 C45 1_555 1_555
C46 C44 1_555 1_555
H46 C46 1_555 1_555
H47 C46 1_555 1_555
H48 C46 1_555 1_555
C47 C43 1_555 1_555
H49 C47 1_555 1_555
C48 C47 1_555 1_555
H50 C48 1_555 1_555
H51 C48 1_555 1_555
H52 C48 1_555 1_555
C49 C47 1_555 1_555
H53 C49 1_555 1_555
H54 C49 1_555 1_555
H55 C49 1_555 1_555
O1 Na1 1_555 1_555
C50 O1 1_555 1_555
H56 C50 1_555 1_555
H57 C50 1_555 1_555
C51 C50 1_555 1_555
H58 C51 1_555 1_555
H59 C51 1_555 1_555
C52 C51 1_555 1_555
H60 C52 1_555 1_555
H61 C52 1_555 1_555
C53 O1 1_555 1_555
H62 C53 1_555 1_555
H63 C53 1_555 1_555
C6 C7 1_555 1_555
C12 C13 1_555 1_555
C18 C19 1_555 1_555
P2 N2 1_555 1_555
C30 C31 1_555 1_555
C36 C37 1_555 1_555
C42 C43 1_555 1_555
C52 C53 1_555 1_555

#END
