
#######################################################################
#
#                 Cambridge Crystallographic Data Centre
#                                CCDC 
#
#######################################################################
#
# If this CIF has been generated from an entry in the Cambridge 
# Structural Database, then it will include bibliographic, chemical, 
# crystal, experimental, refinement or atomic coordinate data resulting 
# from the CCDC's data processing and validation procedures.
#
#######################################################################

data_QEHYUZ
_chemical_formula_moiety         'C57 H71 K1 N2 O2 P2'
_chemical_name_systematic        
bis(tetrahydrofuran)-(\h^6^-bis((N-(2,6-di-isopropylphenyl)-diphenylphosphinimino)methanide-N))-potassium
_symmetry_cell_setting           monoclinic
_symmetry_space_group_name_H-M   'P 21/c'
_symmetry_Int_Tables_number      14
_space_group_name_Hall           '-P 2ybc'
loop_
_symmetry_equiv_pos_site_id
_symmetry_equiv_pos_as_xyz
1 x,y,z
2 -x,1/2+y,1/2-z
3 -x,-y,-z
4 x,1/2-y,1/2+z
_cell_length_a                   10.4895(14)
_cell_length_b                   12.6503(16)
_cell_length_c                   40.112(5)
_cell_angle_alpha                90
_cell_angle_beta                 93.309(2)
_cell_angle_gamma                90
_cell_volume                     5313.8
_exptl_crystal_colour            colorless
_exptl_crystal_description       needle
_cell_formula_units_Z            4
loop_
_atom_site_label
_atom_site_type_symbol
_atom_site_fract_x
_atom_site_fract_y
_atom_site_fract_z
K1 K 0.77563(17) 0.62490(13) 0.08556(4)
P1 P 0.69562(13) 0.32641(10) 0.13756(3)
C1 C 0.6678(5) 0.4562(4) 0.14714(13)
H1 H 0.5741 0.4671 0.1492
C2 C 0.7915(5) 0.2637(4) 0.17098(13)
C3 C 0.7439(5) 0.2535(4) 0.20273(13)
H2 H 0.6604 0.2783 0.2064
C4 C 0.8161(6) 0.2082(4) 0.22868(14)
H3 H 0.7822 0.2007 0.2500
C5 C 0.9385(6) 0.1736(4) 0.22344(15)
H4 H 0.9897 0.1442 0.2414
C6 C 0.9866(6) 0.1816(4) 0.19242(15)
H5 H 1.0707 0.1576 0.1891
C7 C 0.9128(5) 0.2248(4) 0.16588(14)
H6 H 0.9452 0.2277 0.1443
C8 C 0.5431(5) 0.2549(4) 0.13891(13)
C9 C 0.5372(5) 0.1513(4) 0.12663(14)
H7 H 0.6122 0.1192 0.1190
C10 C 0.4244(6) 0.0950(5) 0.12539(16)
H8 H 0.4222 0.0248 0.1169
C11 C 0.3148(6) 0.1402(4) 0.13642(14)
H9 H 0.2373 0.1012 0.1356
C12 C 0.3180(5) 0.2414(4) 0.14861(14)
H10 H 0.2423 0.2728 0.1560
C13 C 0.4309(5) 0.2979(4) 0.15015(13)
H11 H 0.4322 0.3675 0.1591
N1 N 0.7600(4) 0.2996(4) 0.10369(11)
C14 C 0.7670(5) 0.3629(5) 0.07576(13)
C15 C 0.6603(5) 0.4084(5) 0.05756(14)
C16 C 0.6805(6) 0.4707(5) 0.02923(15)
H12 H 0.6049 0.4915 0.0143
C17 C 0.8000(6) 0.4904(6) 0.01887(16)
H13 H 0.8109 0.5270 -0.0029
C18 C 0.9046(6) 0.4431(7) 0.03601(17)
H14 H 0.9920 0.4554 0.0281
C19 C 0.8906(6) 0.3804(7) 0.06384(16)
C20 C 0.5256(5) 0.3904(5) 0.06645(15)
H15 H 0.5287 0.3598 0.0895
C21 C 0.4625(7) 0.3084(6) 0.04280(18)
H16 H 0.5146 0.2440 0.0431
H17 H 0.4553 0.3370 0.0201
H18 H 0.3772 0.2916 0.0500
C22 C 0.4455(6) 0.4919(5) 0.06700(17)
H19 H 0.4888 0.5437 0.0819
H20 H 0.3614 0.4756 0.0751
H21 H 0.4352 0.5211 0.0444
C23 C 1.0023(6) 0.3248(6) 0.08161(18)
H22 H 0.9917 0.3317 0.1061
C24 C 1.0029(8) 0.2053(6) 0.0734(2)
H23 H 0.9188 0.1752 0.0770
H24 H 1.0678 0.1697 0.0880
H25 H 1.0227 0.1953 0.0500
C25 C 1.1316(6) 0.3749(9) 0.0745(2)
H26 H 1.1303 0.4502 0.0801
H27 H 1.1469 0.3667 0.0507
H28 H 1.1998 0.3396 0.0880
P2 P 0.75112(12) 0.54838(10) 0.17088(3)
C26 C 0.9118(5) 0.4997(4) 0.18207(14)
C27 C 0.9510(5) 0.4671(4) 0.21440(14)
H29 H 0.8906 0.4612 0.2310
C28 C 1.0804(5) 0.4430(4) 0.22213(16)
H30 H 1.1066 0.4199 0.2440
C29 C 1.1686(6) 0.4523(5) 0.19863(18)
H31 H 1.2561 0.4382 0.2043
C30 C 1.1297(6) 0.4826(5) 0.16637(19)
H32 H 1.1906 0.4874 0.1498
C31 C 1.0030(5) 0.5058(5) 0.15819(17)
H33 H 0.9777 0.5263 0.1360
C32 C 0.6847(5) 0.5694(4) 0.21149(13)
C33 C 0.7289(5) 0.6512(4) 0.23250(13)
H34 H 0.7960 0.6955 0.2259
C34 C 0.6761(5) 0.6686(4) 0.26277(14)
H35 H 0.7072 0.7247 0.2768
C35 C 0.5782(5) 0.6048(5) 0.27290(14)
H36 H 0.5421 0.6169 0.2937
C36 C 0.5332(5) 0.5229(5) 0.25228(14)
H37 H 0.4666 0.4782 0.2590
C37 C 0.5857(5) 0.5071(4) 0.22206(14)
H38 H 0.5533 0.4518 0.2080
N2 N 0.7585(4) 0.6564(3) 0.15091(12)
C38 C 0.7340(5) 0.7600(4) 0.16146(14)
C39 C 0.6087(5) 0.7957(4) 0.16613(13)
C40 C 0.5879(5) 0.9008(4) 0.17506(14)
H39 H 0.5033 0.9241 0.1782
C41 C 0.6875(5) 0.9711(4) 0.17944(15)
H40 H 0.6724 1.0418 0.1862
C42 C 0.8101(5) 0.9376(4) 0.17380(15)
H41 H 0.8786 0.9867 0.1761
C43 C 0.8352(5) 0.8342(4) 0.16490(15)
C44 C 0.4943(5) 0.7232(4) 0.16100(13)
H42 H 0.5273 0.6493 0.1594
C45 C 0.4062(5) 0.7267(5) 0.19018(16)
H43 H 0.4559 0.7113 0.2111
H44 H 0.3386 0.6737 0.1866
H45 H 0.3679 0.7971 0.1915
C46 C 0.4197(6) 0.7485(5) 0.12799(15)
H46 H 0.4778 0.7470 0.1097
H47 H 0.3812 0.8189 0.1293
H48 H 0.3523 0.6957 0.1238
C47 C 0.9704(5) 0.8007(5) 0.15865(18)
H49 H 0.9628 0.7353 0.1447
C48 C 1.0440(8) 0.8816(7) 0.1384(2)
H50 H 0.9905 0.9040 0.1188
H51 H 1.1224 0.8491 0.1311
H52 H 1.0658 0.9432 0.1524
C49 C 1.0440(7) 0.7698(7) 0.1904(2)
H53 H 0.9930 0.7207 0.2030
H54 H 1.0630 0.8331 0.2039
H55 H 1.1241 0.7356 0.1850
O1 O 0.9957(7) 0.7106(7) 0.05986(19)
C50 C 0.9932(11) 0.7719(11) 0.0298(3)
H56 H 0.9611 0.8440 0.0339
H57 H 0.9365 0.7384 0.0122
C51 C 1.1313(15) 0.777(3) 0.0185(5)
H58 H 1.1465 0.8369 0.0034
H59 H 1.1604 0.7097 0.0088
C52 C 1.185(3) 0.7953(17) 0.0549(5)
H60 H 1.1474 0.8579 0.0654
H61 H 1.2791 0.7981 0.0570
C53 C 1.1293(9) 0.6890(11) 0.0669(3)
H62 H 1.1588 0.6281 0.0539
H63 H 1.1497 0.6769 0.0910
O2 O 0.6894(7) 0.8145(4) 0.06365(13)
C54 C 0.671(2) 0.8538(11) 0.0294(2)
H64 H 0.6265 0.8023 0.0143
H65 H 0.7529 0.8753 0.0201
C55 C 0.5829(18) 0.9539(14) 0.0375(4)
H66 H 0.5519 0.9953 0.0177
H67 H 0.5137 0.9387 0.0525
C56 C 0.7103(18) 0.9952(13) 0.0553(4)
H68 H 0.7853 0.9874 0.0416
H69 H 0.7041 1.0685 0.0637
C57 C 0.7044(11) 0.9115(5) 0.08268(18)
H70 H 0.7839 0.9106 0.0972
H71 H 0.6308 0.9235 0.0966
C58? C 0.9932(11) 0.7719(11) 0.0298(3)
C59? C 1.1161(18) 0.8406(19) 0.0320(8)
C60? C 1.211(2) 0.750(2) 0.0429(7)
C61? C 1.1293(9) 0.6890(11) 0.0669(3)
C62? C 0.6001(17) 0.8489(10) 0.0367(4)
C63? C 0.689(2) 0.9457(14) 0.0262(4)
C64? C 0.660(2) 1.0034(8) 0.0593(3)
C65? C 0.7044(11) 0.9115(5) 0.08268(18)
H72? H 0.9163 0.8174 0.0280
H73? H 0.9924 0.7251 0.0100
H74? H 1.1129 0.8969 0.0490
H75? H 1.1351 0.8716 0.0102
H76? H 1.2330 0.7059 0.0237
H77? H 1.2898 0.7780 0.0543
H78? H 1.1450 0.6123 0.0647
H79? H 1.1540 0.7098 0.0902
H80? H 0.5170 0.8723 0.0446
H81? H 0.5868 0.7954 0.0188
H82? H 0.7797 0.9263 0.0246
H83? H 0.6559 0.9834 0.0059
H84? H 0.7126 1.0679 0.0631
H85? H 0.5687 1.0203 0.0607
H86? H 0.7948 0.9212 0.0905
H87? H 0.6518 0.9091 0.1024
O3? O 0.9957(7) 0.7106(7) 0.05986(19)
O4? O 0.6894(7) 0.8145(4) 0.06365(13)
loop_
_geom_bond_atom_site_label_1
_geom_bond_atom_site_label_2
_geom_bond_site_symmetry_1
_geom_bond_site_symmetry_2
K1 C14 1_555 1_555
P1 C1 1_555 1_555
C1 H1 1_555 1_555
C2 P1 1_555 1_555
C3 C2 1_555 1_555
H2 C3 1_555 1_555
C4 C3 1_555 1_555
H3 C4 1_555 1_555
C5 C4 1_555 1_555
H4 C5 1_555 1_555
C6 C5 1_555 1_555
H5 C6 1_555 1_555
C7 C2 1_555 1_555
H6 C7 1_555 1_555
C8 P1 1_555 1_555
C9 C8 1_555 1_555
H7 C9 1_555 1_555
C10 C9 1_555 1_555
H8 C10 1_555 1_555
C11 C10 1_555 1_555
H9 C11 1_555 1_555
C12 C11 1_555 1_555
H10 C12 1_555 1_555
C13 C8 1_555 1_555
H11 C13 1_555 1_555
N1 P1 1_555 1_555
C14 N1 1_555 1_555
C15 K1 1_555 1_555
C16 K1 1_555 1_555
H12 C16 1_555 1_555
C17 K1 1_555 1_555
H13 C17 1_555 1_555
C18 K1 1_555 1_555
H14 C18 1_555 1_555
C19 K1 1_555 1_555
C20 C15 1_555 1_555
H15 C20 1_555 1_555
C21 C20 1_555 1_555
H16 C21 1_555 1_555
H17 C21 1_555 1_555
H18 C21 1_555 1_555
C22 C20 1_555 1_555
H19 C22 1_555 1_555
H20 C22 1_555 1_555
H21 C22 1_555 1_555
C23 C19 1_555 1_555
H22 C23 1_555 1_555
C24 C23 1_555 1_555
H23 C24 1_555 1_555
H24 C24 1_555 1_555
H25 C24 1_555 1_555
C25 C23 1_555 1_555
H26 C25 1_555 1_555
H27 C25 1_555 1_555
H28 C25 1_555 1_555
P2 C1 1_555 1_555
C26 P2 1_555 1_555
C27 C26 1_555 1_555
H29 C27 1_555 1_555
C28 C27 1_555 1_555
H30 C28 1_555 1_555
C29 C28 1_555 1_555
H31 C29 1_555 1_555
C30 C29 1_555 1_555
H32 C30 1_555 1_555
C31 C26 1_555 1_555
H33 C31 1_555 1_555
C32 P2 1_555 1_555
C33 C32 1_555 1_555
H34 C33 1_555 1_555
C34 C33 1_555 1_555
H35 C34 1_555 1_555
C35 C34 1_555 1_555
H36 C35 1_555 1_555
C36 C35 1_555 1_555
H37 C36 1_555 1_555
C37 C32 1_555 1_555
H38 C37 1_555 1_555
N2 K1 1_555 1_555
C38 N2 1_555 1_555
C39 C38 1_555 1_555
C40 C39 1_555 1_555
H39 C40 1_555 1_555
C41 C40 1_555 1_555
H40 C41 1_555 1_555
C42 C41 1_555 1_555
H41 C42 1_555 1_555
C43 C38 1_555 1_555
C44 C39 1_555 1_555
H42 C44 1_555 1_555
C45 C44 1_555 1_555
H43 C45 1_555 1_555
H44 C45 1_555 1_555
H45 C45 1_555 1_555
C46 C44 1_555 1_555
H46 C46 1_555 1_555
H47 C46 1_555 1_555
H48 C46 1_555 1_555
C47 C43 1_555 1_555
H49 C47 1_555 1_555
C48 C47 1_555 1_555
H50 C48 1_555 1_555
H51 C48 1_555 1_555
H52 C48 1_555 1_555
C49 C47 1_555 1_555
H53 C49 1_555 1_555
H54 C49 1_555 1_555
H55 C49 1_555 1_555
O1 K1 1_555 1_555
C50 O1 1_555 1_555
H56 C50 1_555 1_555
H57 C50 1_555 1_555
C51 C50 1_555 1_555
H58 C51 1_555 1_555
H59 C51 1_555 1_555
C52 C51 1_555 1_555
H60 C52 1_555 1_555
H61 C52 1_555 1_555
C53 O1 1_555 1_555
H62 C53 1_555 1_555
H63 C53 1_555 1_555
O2 K1 1_555 1_555
C54 O2 1_555 1_555
H64 C54 1_555 1_555
H65 C54 1_555 1_555
C55 C54 1_555 1_555
H66 C55 1_555 1_555
H67 C55 1_555 1_555
C56 C55 1_555 1_555
H68 C56 1_555 1_555
H69 C56 1_555 1_555
C57 O2 1_555 1_555
H70 C57 1_555 1_555
H71 C57 1_555 1_555
C6 C7 1_555 1_555
C12 C13 1_555 1_555
C14 C15 1_555 1_555
C14 C19 1_555 1_555
C15 C16 1_555 1_555
C16 C17 1_555 1_555
C17 C18 1_555 1_555
C18 C19 1_555 1_555
P2 N2 1_555 1_555
C30 C31 1_555 1_555
C36 C37 1_555 1_555
C42 C43 1_555 1_555
C52 C53 1_555 1_555
C56 C57 1_555 1_555

#END
