
#######################################################################
#
#                 Cambridge Crystallographic Data Centre
#                                CCDC 
#
#######################################################################
#
# If this CIF has been generated from an entry in the Cambridge 
# Structural Database, then it will include bibliographic, chemical, 
# crystal, experimental, refinement or atomic coordinate data resulting 
# from the CCDC's data processing and validation procedures.
#
#######################################################################

data_QEHZUZ
_chemical_formula_moiety         'C15 H17 N1 O5'
_chemical_name_systematic        
(S)-2-((R)-1-(Benzo(d)(1,3)dioxol-5-yl)-2-nitroethyl)cyclohexanone
_symmetry_cell_setting           orthorhombic
_symmetry_space_group_name_H-M   'P 21 21 21'
_symmetry_Int_Tables_number      19
_space_group_name_Hall           'P 2ac 2ab'
loop_
_symmetry_equiv_pos_site_id
_symmetry_equiv_pos_as_xyz
1 x,y,z
2 1/2-x,-y,1/2+z
3 -x,1/2+y,1/2-z
4 1/2+x,1/2-y,-z
_cell_length_a                   5.6108(8)
_cell_length_b                   8.4734(11)
_cell_length_c                   29.449(3)
_cell_angle_alpha                90
_cell_angle_beta                 90
_cell_angle_gamma                90
_cell_volume                     1400.08
_exptl_crystal_colour            colorless
_exptl_crystal_description       needle
_cell_formula_units_Z            4
loop_
_atom_site_label
_atom_site_type_symbol
_atom_site_fract_x
_atom_site_fract_y
_atom_site_fract_z
O1 O 0.0776(6) 0.7517(4) 0.23223(9)
O2 O -0.3027(6) 1.1104(4) 0.15771(10)
O3 O -0.0345(7) 1.2865(3) 0.14611(11)
O4 O 0.1492(7) 1.0239(4) -0.04158(9)
O5 O 0.4376(7) 1.1277(4) 0.00568(9)
N1 N -0.0962(7) 1.1550(4) 0.15801(10)
C1 C 0.0914(8) 1.0432(4) 0.17330(11)
H1 H 0.0684 1.0184 0.2052
H2 H 0.2471 1.0915 0.1699
C2 C 0.0797(7) 0.8915(4) 0.14512(11)
H3 H -0.0730 0.8400 0.1515
C3 C 0.0898(7) 0.9257(4) 0.09474(11)
C4 C -0.0827(8) 0.8666(4) 0.06615(12)
H4 H -0.2060 0.8071 0.0785
C5 C -0.0794(10) 0.8928(5) 0.01903(14)
H5 H -0.1959 0.8512 0.0000
C6 C 0.1013(10) 0.9813(5) 0.00275(12)
C7 C 0.3563(11) 1.1225(6) -0.04026(14)
H6 H 0.4797 1.0798 -0.0598
H7 H 0.3171 1.2279 -0.0507
C8 C 0.2757(9) 1.0426(5) 0.03064(12)
C9 C 0.2758(8) 1.0167(4) 0.07651(11)
H8 H 0.3949 1.0581 0.0950
C10 C 0.2799(7) 0.7799(4) 0.16074(10)
H9 H 0.4316 0.8364 0.1579
C11 C 0.2549(8) 0.7252(4) 0.20957(11)
C12 C 0.4554(9) 0.6243(5) 0.22650(12)
H10 H 0.4260 0.5941 0.2578
H11 H 0.6036 0.6830 0.2254
C13 C 0.4745(10) 0.4765(5) 0.19675(12)
H12 H 0.6140 0.4163 0.2056
H13 H 0.3352 0.4107 0.2014
C14 C 0.4932(9) 0.5199(5) 0.14712(13)
H14 H 0.6456 0.5705 0.1418
H15 H 0.4881 0.4243 0.1290
C15 C 0.2960(9) 0.6290(4) 0.13190(11)
H16 H 0.1452 0.5733 0.1336
H17 H 0.3225 0.6580 0.1004
loop_
_geom_bond_atom_site_label_1
_geom_bond_atom_site_label_2
_geom_bond_site_symmetry_1
_geom_bond_site_symmetry_2
O1 C11 1_555 1_555
O2 N1 1_555 1_555
O3 N1 1_555 1_555
O4 C6 1_555 1_555
O5 C7 1_555 1_555
N1 C1 1_555 1_555
C1 H1 1_555 1_555
H2 C1 1_555 1_555
C2 C1 1_555 1_555
H3 C2 1_555 1_555
C3 C2 1_555 1_555
C4 C3 1_555 1_555
H4 C4 1_555 1_555
C5 C4 1_555 1_555
H5 C5 1_555 1_555
C6 C5 1_555 1_555
C7 O4 1_555 1_555
H6 C7 1_555 1_555
H7 C7 1_555 1_555
C8 O5 1_555 1_555
C9 C3 1_555 1_555
H8 C9 1_555 1_555
C10 C2 1_555 1_555
H9 C10 1_555 1_555
C11 C10 1_555 1_555
C12 C11 1_555 1_555
H10 C12 1_555 1_555
H11 C12 1_555 1_555
C13 C12 1_555 1_555
H12 C13 1_555 1_555
H13 C13 1_555 1_555
C14 C13 1_555 1_555
H14 C14 1_555 1_555
H15 C14 1_555 1_555
C15 C10 1_555 1_555
H16 C15 1_555 1_555
H17 C15 1_555 1_555
C6 C8 1_555 1_555
C8 C9 1_555 1_555
C14 C15 1_555 1_555

#END
