
#######################################################################
#
#                 Cambridge Crystallographic Data Centre
#                                CCDC 
#
#######################################################################
#
# If this CIF has been generated from an entry in the Cambridge 
# Structural Database, then it will include bibliographic, chemical, 
# crystal, experimental, refinement or atomic coordinate data resulting 
# from the CCDC's data processing and validation procedures.
#
#######################################################################

data_QEHZAG
_chemical_formula_moiety         'C53 H63 K1 N2 O1 P2'
_chemical_name_systematic        
(tetrahydrofuran)-(bis((2,6-di-isopropylphenyl)-diphenylphosphinimino)methanide-N,N')-potassium
_symmetry_cell_setting           triclinic
_symmetry_space_group_name_H-M   'P -1'
_symmetry_Int_Tables_number      2
_space_group_name_Hall           '-P 1'
loop_
_symmetry_equiv_pos_site_id
_symmetry_equiv_pos_as_xyz
1 x,y,z
2 -x,-y,-z
_cell_length_a                   11.7806(7)
_cell_length_b                   13.3858(8)
_cell_length_c                   17.0995(10)
_cell_angle_alpha                74.123(1)
_cell_angle_beta                 74.504(1)
_cell_angle_gamma                65.122(1)
_cell_volume                     2316.92
_exptl_crystal_colour            colorless
_exptl_crystal_description       block
_cell_formula_units_Z            2
loop_
_atom_site_label
_atom_site_type_symbol
_atom_site_fract_x
_atom_site_fract_y
_atom_site_fract_z
K1 K 0.12337(3) 0.29897(2) 0.137843(18)
C1 C 0.11699(11) 0.34835(10) 0.35362(7)
H1 H 0.1105 0.3217 0.4102
P1 P 0.26646(3) 0.28927(2) 0.297959(18)
C2 C 0.37328(11) 0.23327(10) 0.37326(8)
C3 C 0.33582(13) 0.26029(12) 0.45141(9)
H2 H 0.2542 0.3112 0.4661
C4 C 0.41841(14) 0.21249(14) 0.50804(9)
H3 H 0.3919 0.2321 0.5600
C5 C 0.53932(14) 0.13622(12) 0.48763(9)
H4 H 0.5940 0.1031 0.5259
C6 C 0.57855(14) 0.10938(14) 0.40972(11)
H5 H 0.6604 0.0588 0.3953
C7 C 0.49660(13) 0.15742(13) 0.35283(9)
H6 H 0.5243 0.1388 0.3006
C8 C 0.30741(11) 0.40251(10) 0.22522(8)
C9 C 0.35043(12) 0.39807(11) 0.14154(8)
H7 H 0.3601 0.3358 0.1223
C10 C 0.37923(13) 0.48577(13) 0.08623(9)
H8 H 0.4067 0.4824 0.0304
C11 C 0.36688(13) 0.57795(12) 0.11458(10)
H9 H 0.3858 0.6366 0.0778
C12 C 0.32618(13) 0.58274(12) 0.19800(10)
H10 H 0.3186 0.6444 0.2171
C13 C 0.29671(12) 0.49547(11) 0.25309(9)
H11 H 0.2697 0.4991 0.3089
N1 N 0.30064(10) 0.20039(9) 0.24090(6)
C14 C 0.34854(12) 0.08321(10) 0.25623(7)
C15 C 0.27840(12) 0.01873(10) 0.30847(8)
C16 C 0.33046(14) -0.09801(11) 0.31593(9)
H12 H 0.2842 -0.1398 0.3507
C17 C 0.44906(15) -0.15279(12) 0.27285(9)
H13 H 0.4821 -0.2304 0.2787
C18 C 0.51798(13) -0.09067(12) 0.22088(9)
H14 H 0.5975 -0.1273 0.1917
C19 C 0.47042(12) 0.02571(11) 0.21158(8)
C20 C 0.14693(12) 0.07457(10) 0.35620(8)
H15 H 0.1163 0.1542 0.3310
C21 C 0.15181(13) 0.06657(11) 0.44654(8)
H16 H 0.2142 0.0939 0.4486
H17 H 0.1743 -0.0101 0.4743
H18 H 0.0700 0.1110 0.4732
C22 C 0.05098(14) 0.02788(13) 0.35160(10)
H19 H 0.0481 0.0341 0.2948
H20 H -0.0316 0.0697 0.3790
H21 H 0.0763 -0.0494 0.3781
C23 C 0.54383(12) 0.09256(11) 0.14973(8)
H22 H 0.5151 0.1648 0.1667
C24 C 0.50921(15) 0.11627(15) 0.06490(9)
H23 H 0.4186 0.1514 0.0689
H24 H 0.5391 0.0471 0.0455
H25 H 0.5482 0.1651 0.0269
C25 C 0.68813(13) 0.03843(14) 0.14451(10)
H26 H 0.7086 0.0244 0.1982
H27 H 0.7265 0.0879 0.1068
H28 H 0.7199 -0.0310 0.1253
P2 P -0.02164(3) 0.44695(2) 0.323929(18)
C26 C -0.14355(11) 0.41633(10) 0.40865(7)
C27 C -0.15103(12) 0.31111(11) 0.42289(8)
H29 H -0.0929 0.2585 0.3911
C28 C -0.24384(13) 0.28410(12) 0.48368(9)
H30 H -0.2480 0.2140 0.4920
C29 C -0.33065(13) 0.36160(12) 0.53225(9)
H31 H -0.3932 0.3438 0.5728
C30 C -0.32321(13) 0.46539(12) 0.51979(9)
H32 H -0.3804 0.5171 0.5525
C31 C -0.23075(12) 0.49277(11) 0.45857(8)
H33 H -0.2268 0.5629 0.4507
C32 C -0.05017(11) 0.58834(10) 0.33549(7)
C33 C -0.15079(13) 0.68267(11) 0.30587(8)
H34 H -0.2023 0.6747 0.2771
C34 C -0.17403(14) 0.78801(11) 0.31932(9)
H35 H -0.2410 0.8500 0.2994
C35 C -0.09810(15) 0.80126(12) 0.36221(9)
H36 H -0.1128 0.8722 0.3698
C36 C -0.00021(14) 0.70843(12) 0.39381(9)
H37 H 0.0502 0.7167 0.4233
C37 C 0.02217(12) 0.60274(11) 0.38113(8)
H38 H 0.0866 0.5405 0.4035
N2 N -0.03474(9) 0.44486(8) 0.23383(6)
C38 C -0.12592(11) 0.52336(10) 0.18550(7)
C39 C -0.09689(12) 0.60846(10) 0.12296(8)
C40 C -0.18956(13) 0.68770(11) 0.07756(8)
H39 H -0.1709 0.7448 0.0383
C41 C -0.30858(13) 0.68344(12) 0.08946(9)
H40 H -0.3707 0.7389 0.0606
C42 C -0.33325(13) 0.59499(12) 0.14519(9)
H41 H -0.4114 0.5896 0.1512
C43 C -0.24462(12) 0.51399(11) 0.19240(8)
C44 C 0.03426(12) 0.61441(11) 0.10164(8)
H42 H 0.0867 0.5557 0.1402
C45 C 0.03069(14) 0.72732(12) 0.10849(9)
H43 H -0.0001 0.7379 0.1647
H44 H -0.0248 0.7864 0.0737
H45 H 0.1147 0.7285 0.0913
C46 C 0.09660(13) 0.59185(12) 0.01380(8)
H46 H 0.0988 0.5211 0.0094
H47 H 0.1817 0.5901 0.0022
H48 H 0.0483 0.6503 -0.0251
C47 C -0.27766(12) 0.41703(12) 0.24869(8)
H49 H -0.2050 0.3671 0.2761
C48 C -0.39385(13) 0.45571(14) 0.31572(9)
H50 H -0.3777 0.4946 0.3485
H51 H -0.4103 0.3917 0.3503
H52 H -0.4664 0.5051 0.2903
C49 C -0.30066(15) 0.34936(13) 0.19899(9)
H53 H -0.2271 0.3238 0.1577
H54 H -0.3730 0.3960 0.1727
H55 H -0.3162 0.2860 0.2355
O1 O 0.09970(10) 0.11957(9) 0.11689(7)
C50 C -0.0069(9) 0.0946(3) 0.1232(6)
H56 H -0.0632 0.1516 0.0869
H57 H -0.0533 0.0920 0.1794
C51 C 0.0402(4) -0.0191(4) 0.0983(6)
H58 H 0.0552 -0.0134 0.0389
H59 H -0.0168 -0.0586 0.1248
C52 C 0.1654(5) -0.0727(6) 0.1334(5)
H60 H 0.1507 -0.0929 0.1932
H61 H 0.2257 -0.1375 0.1098
C53 C 0.2046(15) 0.0221(9) 0.1047(9)
H62 H 0.2685 0.0129 0.1349
H63 H 0.2415 0.0266 0.0465
C54? C -0.0130(11) 0.0931(4) 0.1253(8)
C55? C -0.0368(4) 1.0339(3) -0.1429(4)
C56? C -0.1782(4) 1.0736(8) -0.1035(6)
C57? C -0.2222(17) 0.9775(7) -0.1019(10)
H64? H -0.0482 0.1232 0.0748
H65? H -0.0780 0.1234 0.1704
H66? H -0.0090 -0.0603 0.1190
H67? H -0.0267 1.0620 -0.2019
H68? H -0.1894 1.0853 -0.0480
H69? H -0.2265 1.1431 -0.1360
H70? H -0.2716 0.9977 -0.1450
H71? H -0.2727 0.9604 -0.0489
loop_
_geom_bond_atom_site_label_1
_geom_bond_atom_site_label_2
_geom_bond_site_symmetry_1
_geom_bond_site_symmetry_2
K1 N1 1_555 1_555
C1 H1 1_555 1_555
P1 C1 1_555 1_555
C2 P1 1_555 1_555
C3 C2 1_555 1_555
H2 C3 1_555 1_555
C4 C3 1_555 1_555
H3 C4 1_555 1_555
C5 C4 1_555 1_555
H4 C5 1_555 1_555
C6 C5 1_555 1_555
H5 C6 1_555 1_555
C7 C2 1_555 1_555
H6 C7 1_555 1_555
C8 P1 1_555 1_555
C9 C8 1_555 1_555
H7 C9 1_555 1_555
C10 C9 1_555 1_555
H8 C10 1_555 1_555
C11 C10 1_555 1_555
H9 C11 1_555 1_555
C12 C11 1_555 1_555
H10 C12 1_555 1_555
C13 C8 1_555 1_555
H11 C13 1_555 1_555
N1 P1 1_555 1_555
C14 N1 1_555 1_555
C15 C14 1_555 1_555
C16 C15 1_555 1_555
H12 C16 1_555 1_555
C17 C16 1_555 1_555
H13 C17 1_555 1_555
C18 C17 1_555 1_555
H14 C18 1_555 1_555
C19 C14 1_555 1_555
C20 C15 1_555 1_555
H15 C20 1_555 1_555
C21 C20 1_555 1_555
H16 C21 1_555 1_555
H17 C21 1_555 1_555
H18 C21 1_555 1_555
C22 C20 1_555 1_555
H19 C22 1_555 1_555
H20 C22 1_555 1_555
H21 C22 1_555 1_555
C23 C19 1_555 1_555
H22 C23 1_555 1_555
C24 C23 1_555 1_555
H23 C24 1_555 1_555
H24 C24 1_555 1_555
H25 C24 1_555 1_555
C25 C23 1_555 1_555
H26 C25 1_555 1_555
H27 C25 1_555 1_555
H28 C25 1_555 1_555
P2 C1 1_555 1_555
C26 P2 1_555 1_555
C27 C26 1_555 1_555
H29 C27 1_555 1_555
C28 C27 1_555 1_555
H30 C28 1_555 1_555
C29 C28 1_555 1_555
H31 C29 1_555 1_555
C30 C29 1_555 1_555
H32 C30 1_555 1_555
C31 C26 1_555 1_555
H33 C31 1_555 1_555
C32 P2 1_555 1_555
C33 C32 1_555 1_555
H34 C33 1_555 1_555
C34 C33 1_555 1_555
H35 C34 1_555 1_555
C35 C34 1_555 1_555
H36 C35 1_555 1_555
C36 C35 1_555 1_555
H37 C36 1_555 1_555
C37 C32 1_555 1_555
H38 C37 1_555 1_555
N2 K1 1_555 1_555
C38 N2 1_555 1_555
C39 C38 1_555 1_555
C40 C39 1_555 1_555
H39 C40 1_555 1_555
C41 C40 1_555 1_555
H40 C41 1_555 1_555
C42 C41 1_555 1_555
H41 C42 1_555 1_555
C43 C38 1_555 1_555
C44 C39 1_555 1_555
H42 C44 1_555 1_555
C45 C44 1_555 1_555
H43 C45 1_555 1_555
H44 C45 1_555 1_555
H45 C45 1_555 1_555
C46 C44 1_555 1_555
H46 C46 1_555 1_555
H47 C46 1_555 1_555
H48 C46 1_555 1_555
C47 C43 1_555 1_555
H49 C47 1_555 1_555
C48 C47 1_555 1_555
H50 C48 1_555 1_555
H51 C48 1_555 1_555
H52 C48 1_555 1_555
C49 C47 1_555 1_555
H53 C49 1_555 1_555
H54 C49 1_555 1_555
H55 C49 1_555 1_555
O1 K1 1_555 1_555
C50 O1 1_555 1_555
H56 C50 1_555 1_555
H57 C50 1_555 1_555
C51 C50 1_555 1_555
H58 C51 1_555 1_555
H59 C51 1_555 1_555
C52 C51 1_555 1_555
H60 C52 1_555 1_555
H61 C52 1_555 1_555
C53 O1 1_555 1_555
H62 C53 1_555 1_555
H63 C53 1_555 1_555
C6 C7 1_555 1_555
C12 C13 1_555 1_555
C18 C19 1_555 1_555
P2 N2 1_555 1_555
C30 C31 1_555 1_555
C36 C37 1_555 1_555
C42 C43 1_555 1_555
C52 C53 1_555 1_555

#END
