
#######################################################################
#
#                 Cambridge Crystallographic Data Centre
#                                CCDC 
#
#######################################################################
#
# If this CIF has been generated from an entry in the Cambridge 
# Structural Database, then it will include bibliographic, chemical, 
# crystal, experimental, refinement or atomic coordinate data resulting 
# from the CCDC's data processing and validation procedures.
#
#######################################################################

data_QEJCUG
_chemical_formula_moiety         'C17 H16 N2 O2 S1'
_chemical_name_systematic        
2-(1,3-benzothiazol-2-yl)-6-{[(2-hydroxyethyl)imino]methyl}-4-methylphenol
_symmetry_cell_setting           monoclinic
_symmetry_space_group_name_H-M   'P 21/n'
_symmetry_Int_Tables_number      14
_space_group_name_Hall           '-P 2yn'
loop_
_symmetry_equiv_pos_site_id
_symmetry_equiv_pos_as_xyz
1 x,y,z
2 1/2-x,1/2+y,1/2-z
3 -x,-y,-z
4 1/2+x,1/2-y,1/2+z
_cell_length_a                   8.991(3)
_cell_length_b                   8.989(3)
_cell_length_c                   18.683(7)
_cell_angle_alpha                90
_cell_angle_beta                 93.581(4)
_cell_angle_gamma                90
_cell_volume                     1507.01
_exptl_crystal_colour            red
_exptl_crystal_description       block
_cell_formula_units_Z            4
loop_
_atom_site_label
_atom_site_type_symbol
_atom_site_fract_x
_atom_site_fract_y
_atom_site_fract_z
S1 S 0.72766(5) 0.95344(6) 1.02341(3)
N1 N 0.92039(16) 0.93566(17) 1.13239(8)
O1 O 0.83394(15) 0.77389(16) 0.92537(7)
H1 H 0.7929 0.7020 0.9057
C1 C 0.9529(2) 0.7315(2) 0.96039(10)
C2 C 1.0594(2) 0.6351(2) 0.92950(10)
C3 C 0.98907(19) 0.7797(2) 1.03274(9)
N2 N 0.92468(18) 0.63290(19) 0.81502(8)
C4 C 1.0389(2) 0.5926(2) 0.85664(10)
H2 H 1.1109 0.5328 0.8375
C5 C 1.1882(2) 0.5888(2) 0.96940(10)
H3 H 1.2540 0.5253 0.9481
C6 C 1.1187(2) 0.7293(2) 1.06918(10)
H4 H 1.1390 0.7606 1.1162
C7 C 0.89190(19) 0.8838(2) 1.06730(9)
C8 C 0.6974(2) 1.0606(2) 1.09823(11)
C9 C 0.8114(2) 1.0352(2) 1.15143(10)
C10 C 1.2206(2) 0.6340(2) 1.03887(10)
C11 C 0.8098(2) 1.1084(2) 1.21699(11)
H5 H 0.8838 1.0908 1.2530
C12 C 0.9123(2) 0.6020(3) 0.73785(10)
H6 H 1.0056 0.5605 0.7236
H7 H 0.8948 0.6944 0.7119
C13 C 0.5847(2) 1.2350(2) 1.17401(13)
H8 H 0.5102 1.3037 1.1821
C14 C 1.3620(3) 0.5854(3) 1.08053(13)
H9 H 1.3965 0.4938 1.0610
H10 H 1.3421 0.5709 1.1299
H11 H 1.4370 0.6606 1.0771
C15 C 0.7884(2) 0.4955(3) 0.71829(11)
H12 H 0.7820 0.4787 0.6669
H13 H 0.8079 0.4009 0.7420
C16 C 0.5835(2) 1.1616(2) 1.10931(12)
H14 H 0.5084 1.1790 1.0738
C17 C 0.6960(3) 1.2076(2) 1.22741(12)
H15 H 0.6937 1.2570 1.2710
O2 O 0.65270(17) 0.5550(3) 0.73952(9)
H16 H 0.5928 0.5598 0.7047
loop_
_geom_bond_atom_site_label_1
_geom_bond_atom_site_label_2
_geom_bond_site_symmetry_1
_geom_bond_site_symmetry_2
S1 C7 1_555 1_555
N1 C7 1_555 1_555
O1 H1 1_555 1_555
C1 O1 1_555 1_555
C2 C1 1_555 1_555
C3 C1 1_555 1_555
N2 C4 1_555 1_555
C4 C2 1_555 1_555
H2 C4 1_555 1_555
C5 C2 1_555 1_555
H3 C5 1_555 1_555
C6 C3 1_555 1_555
H4 C6 1_555 1_555
C7 C3 1_555 1_555
C8 S1 1_555 1_555
C9 N1 1_555 1_555
C10 C5 1_555 1_555
C11 C9 1_555 1_555
H5 C11 1_555 1_555
C12 N2 1_555 1_555
H6 C12 1_555 1_555
H7 C12 1_555 1_555
C13 H8 1_555 1_555
C14 C10 1_555 1_555
H9 C14 1_555 1_555
H10 C14 1_555 1_555
H11 C14 1_555 1_555
C15 C12 1_555 1_555
H12 C15 1_555 1_555
H13 C15 1_555 1_555
C16 C8 1_555 1_555
H14 C16 1_555 1_555
C17 C11 1_555 1_555
H15 C17 1_555 1_555
O2 C15 1_555 1_555
H16 O2 1_555 1_555
C6 C10 1_555 1_555
C8 C9 1_555 1_555
C13 C16 1_555 1_555
C13 C17 1_555 1_555

#END
