
#######################################################################
#
#                 Cambridge Crystallographic Data Centre
#                                CCDC 
#
#######################################################################
#
# If this CIF has been generated from an entry in the Cambridge 
# Structural Database, then it will include bibliographic, chemical, 
# crystal, experimental, refinement or atomic coordinate data resulting 
# from the CCDC's data processing and validation procedures.
#
#######################################################################

data_QEJDIV
_chemical_formula_moiety         'C24 H18 Cl1 F5 N6 O1'
_chemical_name_systematic        
(S)-4-amino-2-(6-chloro-1-(3,3,4,4,4-pentafluorobutyl)-1H-indazol-3-yl)-5-methyl-5-phenyl-5,7-dihydro-6H-pyrrolo[2,3-d]pyrimidin-6-one
_symmetry_cell_setting           hexagonal
_symmetry_space_group_name_H-M   'P 65'
_symmetry_Int_Tables_number      170
_space_group_name_Hall           'P 65'
loop_
_symmetry_equiv_pos_site_id
_symmetry_equiv_pos_as_xyz
1 x,y,z
2 x-y,x,5/6+z
3 -y,x-y,2/3+z
4 -x,-y,1/2+z
5 -x+y,-x,1/3+z
6 y,-x+y,1/6+z
_cell_length_a                   17.34103(12)
_cell_length_b                   17.34103(12)
_cell_length_c                   15.00551(10)
_cell_angle_alpha                90
_cell_angle_beta                 90
_cell_angle_gamma                120
_cell_volume                     3907.79
_exptl_crystal_colour            colorless
_exptl_crystal_description       'faceted block'
_cell_formula_units_Z            6
_exptl_crystal_recrystallization_method Ethanol
loop_
_atom_site_label
_atom_site_type_symbol
_atom_site_fract_x
_atom_site_fract_y
_atom_site_fract_z
C1 C 0.00151(10) 0.57665(10) 0.74309(11)
C2 C 0.08550(11) 0.60751(10) 0.68581(11)
C3 C 0.14494(10) 0.69837(10) 0.72519(11)
C4 C 0.22591(10) 0.77052(11) 0.69842(11)
C5 C 0.21830(11) 0.84874(11) 0.81890(11)
C6 C 0.10428(10) 0.71168(11) 0.79726(11)
C7 C 0.11844(13) 0.54234(13) 0.70740(14)
H1 H 0.1730 0.5599 0.6759
H2 H 0.0743 0.4834 0.6894
H3 H 0.1287 0.5430 0.7703
C8 C 0.06746(10) 0.61252(10) 0.58735(11)
C9 C 0.02966(14) 0.66193(14) 0.55995(14)
H4 H 0.0124 0.6895 0.6023
C10 C 0.01693(18) 0.67129(18) 0.47061(17)
H5 H -0.0084 0.7051 0.4531
C11 C 0.04206(17) 0.63007(17) 0.40731(15)
H6 H 0.0335 0.6361 0.3471
C12 C 0.07887(16) 0.58130(14) 0.43301(14)
H7 H 0.0955 0.5536 0.3902
C13 C 0.09233(13) 0.57188(12) 0.52227(13)
H8 H 0.1181 0.5382 0.5389
C14 C 0.26199(11) 0.93047(11) 0.87277(11)
C15 C 0.23087(11) 0.95275(11) 0.95124(11)
C16 C 0.15183(13) 0.91462(12) 1.00086(12)
H9 H 0.1041 0.8594 0.9851
C17 C 0.14595(15) 0.95976(13) 1.07275(14)
H10 H 0.0937 0.9355 1.1059
C18 C 0.21862(15) 1.04278(13) 1.09675(12)
C19 C 0.29718(14) 1.08377(13) 1.05036(12)
H11 H 0.3446 1.1388 1.0672
C20 C 0.30137(12) 1.03704(11) 0.97568(11)
C21 C 0.44673(12) 1.14589(12) 0.89994(15)
H12 H 0.4611 1.1800 0.9547
H13 H 0.4349 1.1784 0.8544
C22 C 0.52497(12) 1.13704(11) 0.87216(13)
H14 H 0.5405 1.1097 0.9201
H15 H 0.5088 1.0983 0.8205
C23 C 0.60399(13) 1.22544(12) 0.84992(14)
C24 C 0.68834(14) 1.22499(14) 0.82521(17)
N1 N 0.01989(9) 0.63767(9) 0.80906(9)
H16 H -0.0157 0.6313 0.8520
N2 N 0.26270(9) 0.84685(9) 0.74694(9)
N3 N 0.13834(9) 0.78467(9) 0.84829(9)
N4 N 0.27051(10) 0.76849(10) 0.62595(12)
H17 H 0.3204 0.8145 0.6118
H18 H 0.2491 0.7212 0.5937
N5 N 0.34263(9) 0.99566(9) 0.85074(10)
N6 N 0.36695(9) 1.05968(9) 0.91376(10)
O1 O -0.06868(7) 0.50696(8) 0.73301(8)
F1 F 0.62434(9) 1.28445(8) 0.91764(10)
F2 F 0.58534(9) 1.26317(8) 0.77819(10)
F3 F 0.75350(9) 1.30605(9) 0.80226(13)
F4 F 0.67445(10) 1.17215(10) 0.75683(12)
F5 F 0.71635(10) 1.19757(11) 0.89377(13)
Cl1 Cl 0.20702(5) 1.09598(4) 1.18979(4)
loop_
_geom_bond_atom_site_label_1
_geom_bond_atom_site_label_2
_geom_bond_site_symmetry_1
_geom_bond_site_symmetry_2
C1 C2 1_555 1_555
C2 C3 1_555 1_555
C3 C4 1_555 1_555
C4 N2 1_555 1_555
C5 C14 1_555 1_555
C6 C3 1_555 1_555
C7 C2 1_555 1_555
H1 C7 1_555 1_555
H2 C7 1_555 1_555
H3 C7 1_555 1_555
C8 C2 1_555 1_555
C9 C8 1_555 1_555
H4 C9 1_555 1_555
C10 C9 1_555 1_555
H5 C10 1_555 1_555
C11 C10 1_555 1_555
H6 C11 1_555 1_555
C12 C11 1_555 1_555
H7 C12 1_555 1_555
C13 C8 1_555 1_555
H8 C13 1_555 1_555
C14 C15 1_555 1_555
C15 C16 1_555 1_555
C16 H9 1_555 1_555
C17 C16 1_555 1_555
H10 C17 1_555 1_555
C18 C17 1_555 1_555
C19 C18 1_555 1_555
H11 C19 1_555 1_555
C20 C15 1_555 1_555
C21 H12 1_555 1_555
H13 C21 1_555 1_555
C22 C21 1_555 1_555
H14 C22 1_555 1_555
H15 C22 1_555 1_555
C23 C22 1_555 1_555
C24 C23 1_555 1_555
N1 C1 1_555 1_555
H16 N1 1_555 1_555
N2 C5 1_555 1_555
N3 C5 1_555 1_555
N4 C4 1_555 1_555
H17 N4 1_555 1_555
H18 N4 1_555 1_555
N5 C14 1_555 1_555
N6 C20 1_555 1_555
O1 C1 1_555 1_555
F1 C23 1_555 1_555
F2 C23 1_555 1_555
F3 C24 1_555 1_555
F4 C24 1_555 1_555
F5 C24 1_555 1_555
Cl1 C18 1_555 1_555
C6 N1 1_555 1_555
C6 N3 1_555 1_555
C12 C13 1_555 1_555
C19 C20 1_555 1_555
C21 N6 1_555 1_555
N5 N6 1_555 1_555

#END
