
#######################################################################
#
#                 Cambridge Crystallographic Data Centre
#                                CCDC 
#
#######################################################################
#
# If this CIF has been generated from an entry in the Cambridge 
# Structural Database, then it will include bibliographic, chemical, 
# crystal, experimental, refinement or atomic coordinate data resulting 
# from the CCDC's data processing and validation procedures.
#
#######################################################################

data_QEJDER
_chemical_formula_moiety         'C18 H18 N2 O3 S1,C1 H4 O1'
_chemical_name_systematic        
'2-({[3-(1,3-benzothiazol-2-yl)-2-hydroxy-5-methylphenyl]methylidene}amino)propane-1,3-diol methanol solvate'
_symmetry_cell_setting           monoclinic
_symmetry_space_group_name_H-M   'P 21/n'
_symmetry_Int_Tables_number      14
_space_group_name_Hall           '-P 2yn'
loop_
_symmetry_equiv_pos_site_id
_symmetry_equiv_pos_as_xyz
1 x,y,z
2 1/2-x,1/2+y,1/2-z
3 -x,-y,-z
4 1/2+x,1/2-y,1/2+z
_cell_length_a                   12.812(16)
_cell_length_b                   9.347(12)
_cell_length_c                   15.73(2)
_cell_angle_alpha                90
_cell_angle_beta                 91.689(15)
_cell_angle_gamma                90
_cell_volume                     1882.91
_exptl_crystal_colour            red
_exptl_crystal_description       Block
_cell_formula_units_Z            4
loop_
_atom_site_label
_atom_site_type_symbol
_atom_site_fract_x
_atom_site_fract_y
_atom_site_fract_z
S1 S 0.19544(3) 0.07619(4) 0.55021(2)
N1 N 0.13981(10) 0.44068(13) 0.30195(8)
N2 N 0.02770(9) 0.06925(13) 0.63852(7)
O1 O 0.35010(9) 0.38626(13) 0.24077(8)
H1 H 0.4023 0.3882 0.2118
O2 O 0.04682(11) 0.43557(18) 0.12792(9)
H2 H 0.0295 0.5191 0.1199
O3 O 0.15520(8) 0.26521(11) 0.42626(6)
H3 H 0.1665 0.1795 0.4328
C1 C 0.19558(11) -0.03179(16) 0.63967(9)
C2 C 0.27583(13) -0.11848(19) 0.67335(11)
H4 H 0.3400 -0.1241 0.6474
C3 C 0.25703(15) -0.1951(2) 0.74604(12)
H5 H 0.3094 -0.2531 0.7695
C4 C 0.16113(15) -0.1875(2) 0.78495(12)
H6 H 0.1503 -0.2414 0.8336
C5 C 0.08189(14) -0.10182(19) 0.75292(11)
H7 H 0.0183 -0.0967 0.7798
C6 C 0.09905(11) -0.02209(16) 0.67858(9)
C7 C 0.06660(10) 0.12762(15) 0.57027(8)
C8 C 0.00901(10) 0.22752(14) 0.51462(8)
C9 C -0.09473(11) 0.26033(15) 0.52933(9)
H8 H -0.1265 0.2158 0.5747
C10 C -0.15391(11) 0.35625(16) 0.47989(9)
C11 C -0.26722(12) 0.3868(2) 0.49783(11)
H9 H -0.2712 0.4432 0.5487
H10 H -0.3037 0.2982 0.5053
H11 H -0.2986 0.4384 0.4509
C12 C -0.10539(11) 0.42205(16) 0.41254(9)
H12 H -0.1430 0.4870 0.3789
C13 C -0.00128(11) 0.39322(15) 0.39386(9)
C14 C 0.05852(10) 0.29309(15) 0.44397(8)
C15 C 0.04527(12) 0.46516(16) 0.32375(9)
H13 H 0.0058 0.5318 0.2929
C16 C 0.18495(13) 0.51103(18) 0.22765(10)
H14 H 0.1558 0.6077 0.2228
C17 C 0.30270(13) 0.52313(19) 0.24027(11)
H15 H 0.3308 0.5803 0.1948
H16 H 0.3188 0.5712 0.2937
C18 C 0.15536(15) 0.4291(2) 0.14722(11)
H17 H 0.1931 0.4684 0.1000
H18 H 0.1761 0.3298 0.1541
O4 O 0.00527(18) 0.6715(3) 0.03076(14)
H19 H -0.0492 0.6866 0.0036
C19 C 0.0601(2) 0.7993(3) 0.04125(19)
H20 H 0.1337 0.7806 0.0399
H21 H 0.0439 0.8413 0.0950
H22 H 0.0406 0.8641 -0.0038
C20? C 0.0316(5) 0.7504(6) 0.1210(4)
H23? H 0.1040 0.7771 0.1238
H24? H 0.0173 0.6862 0.1669
H25? H -0.0109 0.8344 0.1256
loop_
_geom_bond_atom_site_label_1
_geom_bond_atom_site_label_2
_geom_bond_site_symmetry_1
_geom_bond_site_symmetry_2
S1 C1 1_555 1_555
N1 C15 1_555 1_555
N2 C6 1_555 1_555
O1 H1 1_555 1_555
O2 H2 1_555 1_555
O3 H3 1_555 1_555
C1 C2 1_555 1_555
C2 H4 1_555 1_555
C3 C2 1_555 1_555
H5 C3 1_555 1_555
C4 C3 1_555 1_555
H6 C4 1_555 1_555
C5 C4 1_555 1_555
H7 C5 1_555 1_555
C6 C1 1_555 1_555
C7 S1 1_555 1_555
C8 C7 1_555 1_555
C9 C8 1_555 1_555
H8 C9 1_555 1_555
C10 C9 1_555 1_555
C11 C10 1_555 1_555
H9 C11 1_555 1_555
H10 C11 1_555 1_555
H11 C11 1_555 1_555
C12 C10 1_555 1_555
H12 C12 1_555 1_555
C13 C12 1_555 1_555
C14 O3 1_555 1_555
C15 C13 1_555 1_555
H13 C15 1_555 1_555
C16 N1 1_555 1_555
H14 C16 1_555 1_555
C17 O1 1_555 1_555
H15 C17 1_555 1_555
H16 C17 1_555 1_555
C18 O2 1_555 1_555
H17 C18 1_555 1_555
H18 C18 1_555 1_555
O4 H19 1_555 1_555
C19 O4 1_555 1_555
H20 C19 1_555 1_555
H21 C19 1_555 1_555
H22 C19 1_555 1_555
N2 C7 1_555 1_555
C5 C6 1_555 1_555
C8 C14 1_555 1_555
C13 C14 1_555 1_555
C16 C17 1_555 1_555
C16 C18 1_555 1_555

#END
