
#######################################################################
#
#                 Cambridge Crystallographic Data Centre
#                                CCDC 
#
#######################################################################
#
# If this CIF has been generated from an entry in the Cambridge 
# Structural Database, then it will include bibliographic, chemical, 
# crystal, experimental, refinement or atomic coordinate data resulting 
# from the CCDC's data processing and validation procedures.
#
#######################################################################

data_QEJFOD
_chemical_name_common            Indano[2,1b:2,3b]bis[1,4]benzothiazine
_chemical_formula_moiety         'C21 H12 N2 S2'
_chemical_name_systematic        
"[1,4]benzothiazino[2',3':2,3]indeno[2,1-b][1,4]benzothiazine"
_symmetry_cell_setting           monoclinic
_symmetry_space_group_name_H-M   'C 2/c'
_symmetry_Int_Tables_number      15
_space_group_name_Hall           '-C 2yn'
loop_
_symmetry_equiv_pos_site_id
_symmetry_equiv_pos_as_xyz
1 x,y,z
2 -x,y,1/2-z
3 1/2+x,1/2+y,z
4 1/2-x,1/2+y,1/2-z
5 -x,-y,-z
6 x,-y,1/2+z
7 1/2-x,1/2-y,-z
8 1/2+x,1/2-y,1/2+z
_cell_length_a                   22.1186(19)
_cell_length_b                   9.4445(6)
_cell_length_c                   16.5628(12)
_cell_angle_alpha                90
_cell_angle_beta                 109.546(9)
_cell_angle_gamma                90
_cell_volume                     3260.57
_exptl_crystal_colour            'pale yellow'
_exptl_crystal_description       block
_cell_formula_units_Z            8
loop_
_atom_site_label
_atom_site_type_symbol
_atom_site_fract_x
_atom_site_fract_y
_atom_site_fract_z
C1 C 0.63172(9) 0.4122(2) 0.46686(11)
C2 C 0.65889(9) 0.2655(2) 0.46205(11)
C3 C 0.63698(9) 0.2217(2) 0.37140(11)
C4 C 0.64841(10) 0.0959(2) 0.33470(12)
H1 H 0.6741 0.0229 0.3688
C5 C 0.62077(10) 0.0814(2) 0.24650(13)
H2 H 0.628 -0.0028 0.2198
C6 C 0.58266(10) 0.1877(2) 0.19645(12)
H3 H 0.5646 0.1747 0.1362
C7 C 0.57052(9) 0.3113(2) 0.23247(11)
H4 H 0.5445 0.3837 0.1982
C8 C 0.59784(9) 0.3265(2) 0.32115(11)
C9 C 0.59280(9) 0.4467(2) 0.37390(11)
C10 C 0.57574(9) 0.6791(2) 0.40173(11)
C11 C 0.53139(10) 0.7896(2) 0.38108(12)
H5 H 0.4937 0.7819 0.3323
C12 C 0.54195(11) 0.9101(2) 0.43109(13)
H6 H 0.5108 0.9836 0.4177
C13 C 0.59749(11) 0.9241(2) 0.50044(12)
H7 H 0.6047 1.008 0.534
C14 C 0.64274(10) 0.8170(2) 0.52149(12)
H8 H 0.6812 0.8284 0.5688
C15 C 0.63222(9) 0.6925(2) 0.47364(11)
C16 C 0.64510(9) 0.3153(2) 0.62241(11)
C17 C 0.64589(10) 0.3372(2) 0.70619(11)
H9 H 0.6143 0.3958 0.7165
C18 C 0.69241(11) 0.2740(2) 0.77408(12)
H10 H 0.6928 0.2899 0.8309
C19 C 0.73849(10) 0.1877(2) 0.76030(12)
H11 H 0.7707 0.1458 0.8075
C20 C 0.73775(10) 0.1624(2) 0.67771(11)
H12 H 0.7687 0.1007 0.6684
C21 C 0.69180(9) 0.2270(2) 0.60778(11)
S1 S 0.68999(2) 0.55506(5) 0.50010(3)
S2 S 0.58341(2) 0.39124(5) 0.53597(3)
N1 N 0.56570(7) 0.56435(17) 0.34523(9)
N2 N 0.68925(8) 0.18578(17) 0.52502(9)
loop_
_geom_bond_atom_site_label_1
_geom_bond_atom_site_label_2
_geom_bond_site_symmetry_1
_geom_bond_site_symmetry_2
C1 C2 1_555 1_555
C2 C3 1_555 1_555
C3 C4 1_555 1_555
C4 H1 1_555 1_555
C5 C4 1_555 1_555
H2 C5 1_555 1_555
C6 C5 1_555 1_555
H3 C6 1_555 1_555
C7 C6 1_555 1_555
H4 C7 1_555 1_555
C8 C3 1_555 1_555
C9 C1 1_555 1_555
C10 C11 1_555 1_555
C11 H5 1_555 1_555
C12 C11 1_555 1_555
H6 C12 1_555 1_555
C13 C12 1_555 1_555
H7 C13 1_555 1_555
C14 C13 1_555 1_555
H8 C14 1_555 1_555
C15 C10 1_555 1_555
C16 C17 1_555 1_555
C17 H9 1_555 1_555
C18 C17 1_555 1_555
H10 C18 1_555 1_555
C19 C18 1_555 1_555
H11 C19 1_555 1_555
C20 C19 1_555 1_555
H12 C20 1_555 1_555
C21 C16 1_555 1_555
S1 C1 1_555 1_555
S2 C1 1_555 1_555
N1 C9 1_555 1_555
N2 C2 1_555 1_555
C7 C8 1_555 1_555
C8 C9 1_555 1_555
C10 N1 1_555 1_555
C14 C15 1_555 1_555
C15 S1 1_555 1_555
C16 S2 1_555 1_555
C20 C21 1_555 1_555
C21 N2 1_555 1_555

#END
