
#######################################################################
#
#                 Cambridge Crystallographic Data Centre
#                                CCDC 
#
#######################################################################
#
# If this CIF has been generated from an entry in the Cambridge 
# Structural Database, then it will include bibliographic, chemical, 
# crystal, experimental, refinement or atomic coordinate data resulting 
# from the CCDC's data processing and validation procedures.
#
#######################################################################

data_QEJFUG
_chemical_formula_moiety         'C8 H12 N1 1+,C8 H11 O4 1-'
_chemical_name_systematic        
'(R)-1-Phenylethylammonium (1R,2R)-trans-cyclohexane-1-carboxylate-2-carboxylic acid'
_symmetry_cell_setting           orthorhombic
_symmetry_space_group_name_H-M   'P 21 21 21'
_symmetry_Int_Tables_number      19
_space_group_name_Hall           'P 2ac 2ab'
loop_
_symmetry_equiv_pos_site_id
_symmetry_equiv_pos_as_xyz
1 x,y,z
2 1/2-x,-y,1/2+z
3 1/2+x,1/2-y,-z
4 -x,1/2+y,1/2-z
_cell_length_a                   9.9880(9)
_cell_length_b                   26.034(2)
_cell_length_c                   6.0826(4)
_cell_angle_alpha                90
_cell_angle_beta                 90
_cell_angle_gamma                90
_cell_volume                     1581.64
_exptl_crystal_colour            colorless
_exptl_crystal_description       prism
_chemical_melting_point          '172-174 deg.C'
_cell_formula_units_Z            4
_exptl_crystal_recrystallization_method ethanol
loop_
_atom_site_label
_atom_site_type_symbol
_atom_site_fract_x
_atom_site_fract_y
_atom_site_fract_z
O1 O 0.8166(2) 0.16392(9) 1.3442(3)
O2 O 0.8255(2) 0.20735(7) 1.0323(3)
O3 O 0.4884(2) 0.19424(7) 1.1399(3)
O4 O 0.4647(2) 0.22043(8) 0.7959(3)
C1 C 0.6992(2) 0.12927(8) 1.0415(4)
C2 C 0.6099(2) 0.15021(9) 0.8589(4)
C3 C 0.5304(3) 0.1071(1) 0.7466(6)
C4 C 0.6220(4) 0.0649(1) 0.6634(6)
C5 C 0.7090(3) 0.0437(1) 0.8483(6)
C6 C 0.7884(3) 0.0856(1) 0.9575(5)
C7 C 0.7856(2) 0.1699(1) 1.1501(4)
C8 C 0.5166(3) 0.19058(8) 0.9473(4)
N1 N 0.9778(2) 0.2105(1) 0.6397(5)
C9 C 1.1204(3) 0.1352(1) 0.7031(5)
C10 C 1.1678(4) 0.1174(2) 0.9037(6)
C11 C 1.1698(5) 0.0649(2) 0.947(1)
C12 C 1.1274(6) 0.0309(2) 0.790(1)
C13 C 1.0829(4) 0.0474(1) 0.589(1)
C14 C 1.0771(3) 0.1002(1) 0.5470(7)
C15 C 1.1182(3) 0.1923(1) 0.6583(5)
C16 C 1.1941(4) 0.2074(1) 0.4540(8)
loop_
_geom_bond_atom_site_label_1
_geom_bond_atom_site_label_2
_geom_bond_site_symmetry_1
_geom_bond_site_symmetry_2
O1 C7 1_555 1_555
O2 C7 1_555 1_555
O3 C8 1_555 1_555
O4 C8 1_555 1_555
N1 C15 1_555 1_555
C1 C2 1_555 1_555
C2 C3 1_555 1_555
C3 C4 1_555 1_555
C4 C5 1_555 1_555
C5 C6 1_555 1_555
C6 C1 1_555 1_555
C7 C1 1_555 1_555
C8 C2 1_555 1_555
C9 C10 1_555 1_555
C10 C11 1_555 1_555
C11 C12 1_555 1_555
C12 C13 1_555 1_555
C13 C14 1_555 1_555
C14 C9 1_555 1_555
C15 C9 1_555 1_555
C16 C15 1_555 1_555

#END
