
#######################################################################
#
#                 Cambridge Crystallographic Data Centre
#                                CCDC 
#
#######################################################################
#
# If this CIF has been generated from an entry in the Cambridge 
# Structural Database, then it will include bibliographic, chemical, 
# crystal, experimental, refinement or atomic coordinate data resulting 
# from the CCDC's data processing and validation procedures.
#
#######################################################################

data_QEJGOE
_chemical_name_common            
1,3,5-tris[2-(3-hexyloxy-5-pyridyl)ethynyl]benzene
_chemical_formula_moiety         'C45 H51 N3 O3'
_chemical_name_systematic        
3,3',3''-[benzene-1,3,5-triyltris(ethyne-2,1-diyl)]tris[5-(hexyloxy)pyridine]
_symmetry_cell_setting           triclinic
_symmetry_space_group_name_H-M   'P -1'
_symmetry_Int_Tables_number      2
_space_group_name_Hall           '-P 1'
loop_
_symmetry_equiv_pos_site_id
_symmetry_equiv_pos_as_xyz
1 x,y,z
2 -x,-y,-z
_cell_length_a                   8.5396(2)
_cell_length_b                   13.1428(3)
_cell_length_c                   18.5486(4)
_cell_angle_alpha                72.236(2)
_cell_angle_beta                 81.113(2)
_cell_angle_gamma                88.887(2)
_cell_volume                     1957.88
_exptl_crystal_colour            colorless
_exptl_crystal_description       needle
_cell_formula_units_Z            2
_exptl_crystal_recrystallization_method acetonitrile
_exptl_crystal_preparation       
'Crystals were grown by cooling a hot, saturated acetonitrile solution to RT.'
loop_
_atom_site_label
_atom_site_type_symbol
_atom_site_fract_x
_atom_site_fract_y
_atom_site_fract_z
O1 O 1.00813(9) 0.62678(6) 0.03633(4)
O2 O -0.77127(8) 0.85993(6) 0.29063(4)
O3 O 0.64090(8) 0.00802(5) 0.58051(4)
N1 N 0.68568(11) 0.79598(7) -0.01960(5)
N2 N -0.70201(10) 0.67162(7) 0.46738(5)
N3 N 0.24227(10) 0.02334(7) 0.68375(5)
C1 C 0.23867(11) 0.56011(7) 0.28365(5)
C2 C 0.08897(11) 0.60498(7) 0.28720(5)
H1 H 0.0678 0.6665 0.2474
C3 C -0.02944(11) 0.55929(7) 0.34921(5)
C4 C 0.00162(11) 0.46842(7) 0.40811(5)
H2 H -0.0789 0.4375 0.4504
C5 C 0.15103(11) 0.42352(7) 0.40448(5)
C6 C 0.26958(10) 0.46991(7) 0.34242(5)
H3 H 0.3717 0.4399 0.3402
C7 C 0.36147(11) 0.60407(7) 0.22004(5)
C8 C 0.46760(11) 0.63645(7) 0.16783(5)
C9 C 0.57175(12) 0.75778(8) 0.04062(6)
H4 H 0.4707 0.7892 0.0394
C10 C 0.59442(11) 0.67387(7) 0.10523(5)
C11 C 0.74222(12) 0.62589(7) 0.10727(5)
H5 H 0.7613 0.5685 0.1504
C12 C 0.85991(12) 0.66474(8) 0.04439(6)
C13 C 0.82575(12) 0.75043(8) -0.01728(6)
H6 H 0.9074 0.7774 -0.0598
C14 C 1.04513(12) 0.53402(8) 0.09566(6)
H7 H 0.9730 0.4732 0.1010
H8 H 1.0329 0.5491 0.1453
C15 C 1.21449(12) 0.50768(8) 0.07262(6)
H9 H 1.2847 0.5692 0.0679
H10 H 1.2255 0.4963 0.0217
C16 C 1.26790(13) 0.40837(8) 0.12996(6)
H11 H 1.2002 0.3462 0.1336
H12 H 1.2546 0.4187 0.1812
C17 C 1.44099(12) 0.38548(8) 0.10637(6)
H13 H 1.4548 0.3814 0.0533
H14 H 1.5081 0.4462 0.1061
C18 C 1.49976(14) 0.28280(9) 0.15786(6)
H15 H 1.4855 0.2858 0.2112
H16 H 1.4352 0.2214 0.1573
C19 C 1.67334(14) 0.26565(9) 0.13229(7)
H17 H 1.6875 0.2609 0.0800
H18 H 1.7067 0.1992 0.1669
H19 H 1.7378 0.3258 0.1335
C20 C -0.18381(11) 0.60387(7) 0.35343(5)
C21 C -0.31390(11) 0.63944(7) 0.35966(5)
C22 C -0.55609(11) 0.63994(7) 0.44821(5)
H20 H -0.5091 0.5889 0.4865
C23 C -0.46943(10) 0.67826(7) 0.37467(5)
C24 C -0.53640(10) 0.75507(7) 0.31819(5)
H21 H -0.4799 0.7839 0.2678
C25 C -0.68784(11) 0.78763(7) 0.33827(5)
C26 C -0.76586(11) 0.74356(8) 0.41319(6)
H22 H -0.8699 0.7661 0.4262
C27 C -0.69592(11) 0.90880(8) 0.21292(5)
H23 H -0.6627 0.8533 0.1881
H24 H -0.6008 0.9514 0.2119
C28 C -0.81538(12) 0.98004(7) 0.17122(6)
H25 H -0.7617 1.0227 0.1199
H26 H -0.8543 1.0304 0.1997
C29 C -0.95702(11) 0.91926(7) 0.16160(5)
H27 H -0.9185 0.8677 0.1340
H28 H -1.0130 0.8781 0.2128
C30 C -1.07311(11) 0.99324(7) 0.11763(5)
H29 H -1.1043 1.0484 0.1430
H30 H -1.0189 1.0301 0.0651
C31 C -1.22158(12) 0.93571(8) 0.11257(6)
H31 H -1.2789 0.9019 0.1650
H32 H -1.1903 0.8781 0.0896
C32 C -1.33325(13) 1.00944(9) 0.06511(7)
H33 H -1.3686 1.0649 0.0888
H34 H -1.4254 0.9678 0.0630
H35 H -1.2775 1.0430 0.0130
C33 C 0.18676(11) 0.32886(7) 0.46242(5)
C34 C 0.22694(11) 0.24997(8) 0.50754(5)
C35 C 0.19178(12) 0.10615(8) 0.63176(6)
H36 H 0.0886 0.1311 0.6433
C36 C 0.28327(11) 0.15840(7) 0.56085(5)
C37 C 0.43480(11) 0.12206(7) 0.54419(5)
H37 H 0.4995 0.1549 0.4964
C38 C 0.48972(11) 0.03683(7) 0.59889(6)
C39 C 0.38920(12) -0.01052(8) 0.66736(6)
H38 H 0.4262 -0.0695 0.7042
C40 C 0.70163(12) -0.07796(8) 0.63674(6)
H39 H 0.6397 -0.1447 0.6456
H40 H 0.6924 -0.0615 0.6859
C41 C 0.87312(12) -0.09208(8) 0.60800(6)
H41 H 0.9355 -0.0262 0.6012
H42 H 0.8825 -0.1050 0.5577
C42 C 0.93831(13) -0.18656(9) 0.66536(6)
H43 H 0.9410 -0.1685 0.7132
H44 H 0.8647 -0.2490 0.6779
C43 C 1.10359(12) -0.21802(8) 0.63710(6)
H45 H 1.1780 -0.1560 0.6244
H46 H 1.1016 -0.2377 0.5898
C44 C 1.16235(14) -0.31179(9) 0.69715(6)
H47 H 1.0864 -0.3731 0.7103
H48 H 1.1644 -0.2915 0.7442
C45 C 1.32690(14) -0.34689(10) 0.67107(7)
H49 H 1.3254 -0.3690 0.6253
H50 H 1.3577 -0.4070 0.7121
H51 H 1.4034 -0.2872 0.6591
loop_
_geom_bond_atom_site_label_1
_geom_bond_atom_site_label_2
_geom_bond_site_symmetry_1
_geom_bond_site_symmetry_2
O1 C12 1_555 1_555
O2 C25 1_555 1_555
O3 C38 1_555 1_555
N1 C9 1_555 1_555
N2 C22 1_555 1_555
N3 C35 1_555 1_555
C1 C2 1_555 1_555
C2 H1 1_555 1_555
C3 C2 1_555 1_555
C4 C3 1_555 1_555
H2 C4 1_555 1_555
C5 C4 1_555 1_555
C6 C1 1_555 1_555
H3 C6 1_555 1_555
C7 C1 1_555 1_555
C8 C7 1_555 1_555
C9 H4 1_555 1_555
C10 C8 1_555 1_555
C11 C10 1_555 1_555
H5 C11 1_555 1_555
C12 C11 1_555 1_555
C13 N1 1_555 1_555
H6 C13 1_555 1_555
C14 O1 1_555 1_555
H7 C14 1_555 1_555
H8 C14 1_555 1_555
C15 C14 1_555 1_555
H9 C15 1_555 1_555
H10 C15 1_555 1_555
C16 C15 1_555 1_555
H11 C16 1_555 1_555
H12 C16 1_555 1_555
C17 C16 1_555 1_555
H13 C17 1_555 1_555
H14 C17 1_555 1_555
C18 C17 1_555 1_555
H15 C18 1_555 1_555
H16 C18 1_555 1_555
C19 C18 1_555 1_555
H17 C19 1_555 1_555
H18 C19 1_555 1_555
H19 C19 1_555 1_555
C20 C3 1_555 1_555
C21 C20 1_555 1_555
C22 H20 1_555 1_555
C23 C21 1_555 1_555
C24 C23 1_555 1_555
H21 C24 1_555 1_555
C25 C24 1_555 1_555
C26 N2 1_555 1_555
H22 C26 1_555 1_555
C27 O2 1_555 1_555
H23 C27 1_555 1_555
H24 C27 1_555 1_555
C28 C27 1_555 1_555
H25 C28 1_555 1_555
H26 C28 1_555 1_555
C29 C28 1_555 1_555
H27 C29 1_555 1_555
H28 C29 1_555 1_555
C30 C29 1_555 1_555
H29 C30 1_555 1_555
H30 C30 1_555 1_555
C31 C30 1_555 1_555
H31 C31 1_555 1_555
H32 C31 1_555 1_555
C32 C31 1_555 1_555
H33 C32 1_555 1_555
H34 C32 1_555 1_555
H35 C32 1_555 1_555
C33 C5 1_555 1_555
C34 C33 1_555 1_555
C35 H36 1_555 1_555
C36 C34 1_555 1_555
C37 C36 1_555 1_555
H37 C37 1_555 1_555
C38 C37 1_555 1_555
C39 N3 1_555 1_555
H38 C39 1_555 1_555
C40 O3 1_555 1_555
H39 C40 1_555 1_555
H40 C40 1_555 1_555
C41 C40 1_555 1_555
H41 C41 1_555 1_555
H42 C41 1_555 1_555
C42 C41 1_555 1_555
H43 C42 1_555 1_555
H44 C42 1_555 1_555
C43 C42 1_555 1_555
H45 C43 1_555 1_555
H46 C43 1_555 1_555
C44 C43 1_555 1_555
H47 C44 1_555 1_555
H48 C44 1_555 1_555
C45 C44 1_555 1_555
H49 C45 1_555 1_555
H50 C45 1_555 1_555
H51 C45 1_555 1_555
C5 C6 1_555 1_555
C9 C10 1_555 1_555
C12 C13 1_555 1_555
C22 C23 1_555 1_555
C25 C26 1_555 1_555
C35 C36 1_555 1_555
C38 C39 1_555 1_555

#END
