
#######################################################################
#
#                 Cambridge Crystallographic Data Centre
#                                CCDC 
#
#######################################################################
#
# If this CIF has been generated from an entry in the Cambridge 
# Structural Database, then it will include bibliographic, chemical, 
# crystal, experimental, refinement or atomic coordinate data resulting 
# from the CCDC's data processing and validation procedures.
#
#######################################################################

data_QEJKEW
_chemical_formula_moiety         'C28 H10 F18 N2'
_chemical_name_systematic        
2-(3,5-bis(Trifluoromethyl)phenyl)-6-(2,4-bis(trifluoromethyl)-6-(4-trifluoromethylpyridin-2-yl)phenyl)-4-trifluoromethylpyridine
_symmetry_cell_setting           triclinic
_symmetry_space_group_name_H-M   'P -1'
_symmetry_Int_Tables_number      2
_space_group_name_Hall           '-P 1'
loop_
_symmetry_equiv_pos_site_id
_symmetry_equiv_pos_as_xyz
1 x,y,z
2 -x,-y,-z
_cell_length_a                   10.4708(12)
_cell_length_b                   11.8225(14)
_cell_length_c                   12.6383(15)
_cell_angle_alpha                104.597(2)
_cell_angle_beta                 105.654(2)
_cell_angle_gamma                105.656(2)
_cell_volume                     1358.65
_exptl_crystal_colour            colorless
_exptl_crystal_description       'irregular block'
_chemical_melting_point          '65.2 deg.C'
_cell_formula_units_Z            2
_exptl_crystal_recrystallization_method pentane
loop_
_atom_site_label
_atom_site_type_symbol
_atom_site_fract_x
_atom_site_fract_y
_atom_site_fract_z
F1 F 0.3238(3) 0.72741(17) 0.7728(3)
F2 F 0.1573(4) 0.6348(2) 0.60734(17)
F3 F 0.1143(5) 0.6481(3) 0.7622(4)
F7 F -0.35982(16) 0.00637(17) 0.29552(12)
F8 F -0.41910(15) 0.11669(14) 0.42145(14)
F9 F -0.48754(14) -0.08212(14) 0.37928(14)
F10 F -0.1785(6) -0.1599(4) 0.7282(4)
F11 F -0.1263(4) -0.2488(2) 0.59222(18)
F12 F 0.0363(4) -0.1148(3) 0.7428(5)
F16 F 0.14867(17) -0.02180(15) 1.02948(18)
F17 F 0.3053(2) -0.06229(15) 0.96589(18)
F18 F 0.3629(2) 0.04513(18) 1.14506(17)
F19 F 0.8900(2) 0.19733(18) 0.84040(17)
F20 F 0.94450(15) 0.32122(17) 1.01245(14)
F21 F 1.00579(16) 0.3909(2) 0.88527(19)
F22 F 0.67504(18) 0.43039(18) 0.57451(14)
F23 F 0.60168(19) 0.56312(14) 0.66450(14)
F24 F 0.45405(16) 0.38002(16) 0.54912(12)
N1 N 0.25258(16) 0.27830(14) 0.69670(13)
N2 N 0.36612(16) 0.36557(14) 0.96021(14)
C1 C 0.36635(19) 0.38378(17) 0.74031(15)
C2 C 0.3579(2) 0.50112(18) 0.74818(17)
H1 H 0.4394 0.5732 0.7805
C3 C 0.2246(2) 0.50663(18) 0.70637(17)
C4 C 0.1051(2) 0.39838(18) 0.66035(17)
H2 H 0.0146 0.4010 0.6319
C5 C 0.1231(2) 0.28503(17) 0.65752(15)
C6 C -0.00023(19) 0.16629(17) 0.61372(16)
C7 C -0.1289(2) 0.14723(18) 0.53016(16)
H3 H -0.1379 0.2093 0.4990
C8 C -0.2444(2) 0.03608(19) 0.49277(17)
C9 C -0.2343(2) -0.05702(19) 0.53856(17)
H4 H -0.3121 -0.1308 0.5142
C10 C -0.1051(2) -0.03807(18) 0.62200(17)
C11 C 0.0112(2) 0.07106(18) 0.65860(16)
H5 H 0.0972 0.0813 0.7131
C12 C 0.2066(3) 0.6295(2) 0.7108(2)
C13 C -0.3778(2) 0.0188(2) 0.39779(19)
C14 C -0.0935(3) -0.1382(2) 0.6733(2)
C15 C 0.2746(2) 0.33553(18) 1.01365(17)
H6 H 0.2300 0.3911 1.0346
C16 C 0.2420(2) 0.22640(19) 1.03978(18)
H7 H 0.1764 0.2085 1.0760
C17 C 0.3106(2) 0.14510(18) 1.01002(17)
C18 C 0.40697(19) 0.17444(18) 0.95561(16)
H8 H 0.4542 0.1211 0.9351
C19 C 0.43147(18) 0.28590(17) 0.93225(15)
C20 C 0.53550(19) 0.32022(16) 0.87450(16)
C21 C 0.6643(2) 0.30361(17) 0.91302(17)
H9 H 0.6838 0.2727 0.9739
C22 C 0.7641(2) 0.33270(19) 0.86150(18)
C23 C 0.7364(2) 0.37743(19) 0.77033(18)
H10 H 0.8031 0.3958 0.7353
C24 C 0.6083(2) 0.39491(19) 0.73108(17)
C25 C 0.50674(19) 0.36834(16) 0.78285(16)
C26 C 0.2813(2) 0.0265(2) 1.0377(2)
C27 C 0.9011(2) 0.3113(2) 0.9009(2)
C28 C 0.5841(3) 0.4416(2) 0.6296(2)
F4? F 0.0847(19) 0.6187(13) 0.653(3)
F5? F 0.233(4) 0.6958(18) 0.7968(14)
F6? F 0.303(3) 0.6891(19) 0.669(3)
F13? F -0.018(3) -0.1866(19) 0.648(2)
F14? F -0.0342(19) -0.0874(9) 0.7835(9)
F15? F -0.2117(17) -0.2104(14) 0.6653(19)
loop_
_geom_bond_atom_site_label_1
_geom_bond_atom_site_label_2
_geom_bond_site_symmetry_1
_geom_bond_site_symmetry_2
F1 C12 1_555 1_555
F2 C12 1_555 1_555
F3 C12 1_555 1_555
F7 C13 1_555 1_555
F8 C13 1_555 1_555
F9 C13 1_555 1_555
F10 C14 1_555 1_555
F11 C14 1_555 1_555
F12 C14 1_555 1_555
F16 C26 1_555 1_555
F17 C26 1_555 1_555
F18 C26 1_555 1_555
F19 C27 1_555 1_555
F20 C27 1_555 1_555
F21 C27 1_555 1_555
F22 C28 1_555 1_555
F23 C28 1_555 1_555
F24 C28 1_555 1_555
N1 C1 1_555 1_555
N2 C15 1_555 1_555
C1 C2 1_555 1_555
C2 H1 1_555 1_555
C3 C2 1_555 1_555
C4 C3 1_555 1_555
H2 C4 1_555 1_555
C5 N1 1_555 1_555
C6 C5 1_555 1_555
C7 C6 1_555 1_555
H3 C7 1_555 1_555
C8 C7 1_555 1_555
C9 C8 1_555 1_555
H4 C9 1_555 1_555
C10 C9 1_555 1_555
C11 C6 1_555 1_555
H5 C11 1_555 1_555
C12 C3 1_555 1_555
C13 C8 1_555 1_555
C14 C10 1_555 1_555
C15 H6 1_555 1_555
C16 C15 1_555 1_555
H7 C16 1_555 1_555
C17 C16 1_555 1_555
C18 C17 1_555 1_555
H8 C18 1_555 1_555
C19 N2 1_555 1_555
C20 C19 1_555 1_555
C21 C20 1_555 1_555
H9 C21 1_555 1_555
C22 C21 1_555 1_555
C23 C22 1_555 1_555
H10 C23 1_555 1_555
C24 C23 1_555 1_555
C25 C1 1_555 1_555
C26 C17 1_555 1_555
C27 C22 1_555 1_555
C28 C24 1_555 1_555
C4 C5 1_555 1_555
C10 C11 1_555 1_555
C18 C19 1_555 1_555
C20 C25 1_555 1_555
C24 C25 1_555 1_555

#END
