
#######################################################################
#
#                 Cambridge Crystallographic Data Centre
#                                CCDC 
#
#######################################################################
#
# If this CIF has been generated from an entry in the Cambridge 
# Structural Database, then it will include bibliographic, chemical, 
# crystal, experimental, refinement or atomic coordinate data resulting 
# from the CCDC's data processing and validation procedures.
#
#######################################################################

data_QEJKAR
_chemical_compound_source        'root bark of Bruguiera gymnorhiza'
_chemical_formula_moiety         'C20 H34 O3'
_chemical_name_systematic        (1-\b)-(15R)-ent-Pimar-8(14)ene-1,15,16-triol
_symmetry_cell_setting           orthorhombic
_symmetry_space_group_name_H-M   'P 21 21 21'
_symmetry_Int_Tables_number      19
_space_group_name_Hall           'P 2ac 2ab'
loop_
_symmetry_equiv_pos_site_id
_symmetry_equiv_pos_as_xyz
1 x,y,z
2 1/2-x,-y,1/2+z
3 1/2+x,1/2-y,-z
4 -x,1/2+y,1/2-z
_cell_length_a                   6.944(2)
_cell_length_b                   9.8710(6)
_cell_length_c                   26.579(9)
_cell_angle_alpha                90
_cell_angle_beta                 90
_cell_angle_gamma                90
_cell_volume                     1821.84
_exptl_crystal_colour            colorless
_exptl_crystal_description       plate
_chemical_melting_point          '220 deg.C'
_cell_formula_units_Z            4
_exptl_crystal_recrystallization_method benzene/chloroform
loop_
_atom_site_label
_atom_site_type_symbol
_atom_site_fract_x
_atom_site_fract_y
_atom_site_fract_z
O1 O 0.3361(6) -0.1100(3) -0.0225(2)
O2 O 0.7324(5) -0.1298(3) 0.0014(1)
O3 O 0.4994(5) 0.5010(3) 0.0565(1)
C1 C 0.4279(7) -0.0220(5) 0.0116(2)
C2 C 0.5868(7) -0.0986(5) 0.0384(2)
C3 C 0.6740(8) -0.0277(4) 0.0844(2)
C4 C 0.5276(7) -0.0084(5) 0.1249(2)
C5 C 0.4694(7) 0.1090(5) 0.1441(2)
C6 C 0.3556(8) 0.1124(5) 0.1920(2)
C7 C 0.2046(8) 0.2267(4) 0.1943(2)
C8 C 0.2933(8) 0.3612(4) 0.1793(2)
C9 C 0.1693(8) 0.4846(5) 0.1950(2)
C10 C 0.2662(7) 0.6135(5) 0.1765(2)
C11 C 0.3088(8) 0.6088(4) 0.1200(2)
C12 C 0.4497(7) 0.4946(4) 0.1090(2)
C13 C 0.3691(7) 0.3544(4) 0.1237(2)
C14 C 0.5401(8) 0.2455(4) 0.1238(2)
C15 C 0.6411(7) 0.2289(4) 0.0741(2)
C16 C 0.7750(7) 0.1069(4) 0.0736(2)
C17 C 0.8285(8) -0.1262(4) 0.1056(2)
C18 C 0.1601(8) 0.4885(5) 0.2529(2)
C19 C -0.0408(8) 0.4781(6) 0.1771(2)
C20 C 0.2186(7) 0.3090(4) 0.0865(2)
H1 H 0.2320(35) -0.0778(27) -0.0308(16)
H2 H 0.7632(54) -0.2097(14) 0.0038(13)
H3 H 0.4325(49) 0.5583(35) 0.0425(4)
H4 H 0.3353(7) 0.0117(5) 0.0359(2)
H5 H 0.4816(7) 0.0548(5) -0.0063(2)
H6 H 0.5323(7) -0.1847(5) 0.0500(2)
H7 H 0.4714(7) -0.0863(5) 0.1380(2)
H8 H 0.4439(8) 0.1229(5) 0.2200(2)
H9 H 0.2905(8) 0.0261(5) 0.1961(2)
H10 H 0.0988(8) 0.2057(4) 0.1717(2)
H11 H 0.1535(8) 0.2333(4) 0.2281(2)
H12 H 0.4099(8) 0.3684(4) 0.1999(2)
H13 H 0.3858(7) 0.6266(5) 0.1947(2)
H14 H 0.1833(7) 0.6903(5) 0.1836(2)
H15 H 0.1902(8) 0.5942(4) 0.1015(2)
H16 H 0.3634(8) 0.6945(4) 0.1093(2)
H17 H 0.5669(7) 0.5107(4) 0.1286(2)
H18 H 0.6368(8) 0.2786(4) 0.1477(2)
H19 H 0.7150(7) 0.3100(4) 0.0669(2)
H20 H 0.5457(7) 0.2185(4) 0.0477(2)
H21 H 0.8750(7) 0.1207(4) 0.0986(2)
H22 H 0.8368(7) 0.1014(4) 0.0410(2)
H23 H 0.9369(20) -0.1289(24) 0.0832(6)
H24 H 0.7744(15) -0.2153(9) 0.1086(11)
H25 H 0.8697(34) -0.0953(18) 0.1381(5)
H26 H 0.0666(30) 0.4241(22) 0.2646(2)
H27 H 0.1239(42) 0.5777(9) 0.2638(2)
H28 H 0.2842(12) 0.4661(28) 0.2665(2)
H29 H -0.1130(13) 0.5499(21) 0.1924(9)
H30 H -0.0956(16) 0.3924(15) 0.1864(11)
H31 H -0.0450(9) 0.4879(32) 0.1411(2)
H32 H 0.1022(15) 0.3595(21) 0.0918(7)
H33 H 0.1931(32) 0.2142(8) 0.0911(8)
H34 H 0.2644(18) 0.3242(27) 0.0529(2)
loop_
_geom_bond_atom_site_label_1
_geom_bond_atom_site_label_2
_geom_bond_site_symmetry_1
_geom_bond_site_symmetry_2
O1 C1 1_555 1_555
O2 C2 1_555 1_555
O3 C12 1_555 1_555
C1 C2 1_555 1_555
C2 C3 1_555 1_555
C3 C4 1_555 1_555
C4 C5 1_555 1_555
C5 C6 1_555 1_555
C6 C7 1_555 1_555
C7 C8 1_555 1_555
C8 C9 1_555 1_555
C9 C10 1_555 1_555
C10 C11 1_555 1_555
C11 C12 1_555 1_555
C12 C13 1_555 1_555
C13 C8 1_555 1_555
C14 C5 1_555 1_555
C15 C14 1_555 1_555
C16 C3 1_555 1_555
C17 C3 1_555 1_555
C18 C9 1_555 1_555
C19 C9 1_555 1_555
C20 C13 1_555 1_555
H1 O1 1_555 1_555
H2 O2 1_555 1_555
H3 O3 1_555 1_555
H4 C1 1_555 1_555
H5 C1 1_555 1_555
H6 C2 1_555 1_555
H7 C4 1_555 1_555
H8 C6 1_555 1_555
H9 C6 1_555 1_555
H10 C7 1_555 1_555
H11 C7 1_555 1_555
H12 C8 1_555 1_555
H13 C10 1_555 1_555
H14 C10 1_555 1_555
H15 C11 1_555 1_555
H16 C11 1_555 1_555
H17 C12 1_555 1_555
H18 C14 1_555 1_555
H19 C15 1_555 1_555
H20 C15 1_555 1_555
H21 C16 1_555 1_555
H22 C16 1_555 1_555
H23 C17 1_555 1_555
H24 C17 1_555 1_555
H25 C17 1_555 1_555
H26 C18 1_555 1_555
H27 C18 1_555 1_555
H28 C18 1_555 1_555
H29 C19 1_555 1_555
H30 C19 1_555 1_555
H31 C19 1_555 1_555
H32 C20 1_555 1_555
H33 C20 1_555 1_555
H34 C20 1_555 1_555
C13 C14 1_555 1_555
C15 C16 1_555 1_555

#END
