
#######################################################################
#
#                 Cambridge Crystallographic Data Centre
#                                CCDC 
#
#######################################################################
#
# If this CIF has been generated from an entry in the Cambridge 
# Structural Database, then it will include bibliographic, chemical, 
# crystal, experimental, refinement or atomic coordinate data resulting 
# from the CCDC's data processing and validation procedures.
#
#######################################################################

data_QEJPUQ
_chemical_formula_moiety         'C6 H4 O4 S1'
_chemical_name_systematic        1,1'-Spirobi(2,1-oxathiol-3-one)
_symmetry_cell_setting           monoclinic
_symmetry_space_group_name_H-M   'C 2/c'
_symmetry_Int_Tables_number      15
_space_group_name_Hall           '-C 2yn'
loop_
_symmetry_equiv_pos_site_id
_symmetry_equiv_pos_as_xyz
1 x,y,z
2 -x,y,1/2-z
3 1/2+x,1/2+y,z
4 1/2-x,1/2+y,1/2-z
5 -x,-y,-z
6 x,-y,1/2+z
7 1/2-x,1/2-y,-z
8 1/2+x,1/2-y,1/2+z
_cell_length_a                   10.839(5)
_cell_length_b                   4.337(2)
_cell_length_c                   14.605(7)
_cell_angle_alpha                90
_cell_angle_beta                 105.41(3)
_cell_angle_gamma                90
_cell_volume                     661.88
_exptl_crystal_description       'rhomboidal plate'
_chemical_melting_point          160.5-161deg.C
_cell_formula_units_Z            4
_exptl_crystal_recrystallization_method 'acetone/carbon tetrachloride'
loop_
_atom_site_label
_atom_site_type_symbol
_atom_site_fract_x
_atom_site_fract_y
_atom_site_fract_z
S1 S 0.0000 0.2139(2) 0.2500
O1 O 0.1738(2) 0.2327(5) 0.3031(1)
O2 O 0.3158(2) 0.4459(6) 0.4255(1)
C1 C 0.2068(3) 0.4077(6) 0.3807(2)
C2 C 0.0923(2) 0.5371(7) 0.4022(2)
C3 C -0.0165(2) 0.4616(6) 0.3424(2)
H1 H 0.0971 0.6653 0.4566
H2 H -0.0981 0.5347 0.3473
O1A O -0.1738(2) 0.2327(5) 0.1969(1)
C1A C -0.2068(3) 0.4077(6) 0.1193(2)
O2A O -0.3158(2) 0.4459(6) 0.0745(1)
C2A C -0.0923(2) 0.5371(7) 0.0978(2)
C3A C 0.0165(2) 0.4616(6) 0.1576(2)
H2A H 0.0981 0.5347 0.1527
H1A H -0.0971 0.6653 0.0434
loop_
_geom_bond_atom_site_label_1
_geom_bond_atom_site_label_2
_geom_bond_site_symmetry_1
_geom_bond_site_symmetry_2
S1 O1 1_555 1_555
O1 C1 1_555 1_555
O2 C1 1_555 1_555
C1 C2 1_555 1_555
C2 C3 1_555 1_555
C3 S1 1_555 1_555
H1 C2 1_555 1_555
H2 C3 1_555 1_555
O1A S1 1_555 1_555
C1A O1A 1_555 1_555
O2A C1A 1_555 1_555
C2A C1A 1_555 1_555
C3A S1 1_555 1_555
H2A C3A 1_555 1_555
H1A C2A 1_555 1_555
C2A C3A 1_555 1_555

#END
