
#######################################################################
#
#                 Cambridge Crystallographic Data Centre
#                                CCDC 
#
#######################################################################
#
# If this CIF has been generated from an entry in the Cambridge 
# Structural Database, then it will include bibliographic, chemical, 
# crystal, experimental, refinement or atomic coordinate data resulting 
# from the CCDC's data processing and validation procedures.
#
#######################################################################

data_QEJTEG
_chemical_name_common            
N,N'-(Anthracene-1,8-diylbis(ethyne-2,1-diyl-4,1-phenylene))bis(N-(pyridin-2-yl)pyridin-2-amine)
_chemical_formula_moiety         'C50 H32 N6'
_chemical_name_systematic        
1,8-bis((4-(Dipyridin-2-ylamino)phenyl)ethynyl)anthracene
_symmetry_cell_setting           monoclinic
_symmetry_space_group_name_H-M   'P 21/c'
_symmetry_Int_Tables_number      14
_space_group_name_Hall           '-P 2ybc'
loop_
_symmetry_equiv_pos_site_id
_symmetry_equiv_pos_as_xyz
1 x,y,z
2 -x,1/2+y,1/2-z
3 -x,-y,-z
4 x,1/2-y,1/2+z
_cell_length_a                   20.3101(9)
_cell_length_b                   9.0336(3)
_cell_length_c                   20.0894(9)
_cell_angle_alpha                90
_cell_angle_beta                 99.057(2)
_cell_angle_gamma                90
_cell_volume                     3639.91
_exptl_crystal_colour            yellow
_exptl_crystal_description       block
_cell_formula_units_Z            4
_exptl_crystal_recrystallization_method chloroform/hexanes
loop_
_atom_site_label
_atom_site_type_symbol
_atom_site_fract_x
_atom_site_fract_y
_atom_site_fract_z
C1 C 0.45986(10) -0.2650(3) 0.64851(10)
C2 C 0.46931(11) -0.3269(3) 0.71128(10)
H1 H 0.4409 -0.2989 0.7425
C3 C 0.52040(11) -0.4316(3) 0.73091(10)
H2 H 0.5262 -0.4722 0.7751
C4 C 0.56121(11) -0.4746(3) 0.68730(10)
H3 H 0.5956 -0.5444 0.7013
C5 C 0.55308(10) -0.4159(2) 0.62024(10)
C6 C 0.59203(10) -0.4631(3) 0.57318(10)
H4 H 0.6257 -0.5351 0.5862
C7 C 0.58319(10) -0.4082(3) 0.50764(10)
C8 C 0.62302(11) -0.4592(3) 0.45980(11)
H5 H 0.6564 -0.5318 0.4727
C9 C 0.61375(11) -0.4050(3) 0.39606(11)
H6 H 0.6413 -0.4385 0.3650
C10 C 0.56378(11) -0.2997(3) 0.37552(11)
H7 H 0.5581 -0.2632 0.3306
C11 C 0.52285(10) -0.2480(3) 0.41866(10)
C12 C 0.53271(10) -0.2997(2) 0.48775(10)
C13 C 0.49369(10) -0.2517(3) 0.53473(10)
H8 H 0.4603 -0.1790 0.5218
C14 C 0.50255(10) -0.3079(2) 0.60045(10)
C15 C 0.40648(11) -0.1632(3) 0.62823(10)
C16 C 0.36113(11) -0.0799(3) 0.60979(10)
C17 C 0.30708(11) 0.0166(3) 0.58499(10)
C18 C 0.24930(11) 0.0207(3) 0.61453(11)
H9 H 0.2462 -0.0389 0.6529
C19 C 0.19674(12) 0.1105(3) 0.58840(12)
H10 H 0.1576 0.1119 0.6088
C20 C 0.20040(11) 0.1983(3) 0.53296(11)
C21 C 0.25840(11) 0.1981(3) 0.50393(11)
H11 H 0.2616 0.2599 0.4663
C22 C 0.31086(11) 0.1082(3) 0.52974(11)
H12 H 0.3502 0.1085 0.5097
C23 C 0.15472(11) 0.4395(3) 0.49648(12)
C24 C 0.20090(12) 0.5165(3) 0.54264(13)
H13 H 0.2249 0.4670 0.5806
C25 C 0.21130(13) 0.6643(3) 0.53257(15)
H14 H 0.2428 0.7181 0.5633
C26 C 0.17529(14) 0.7340(3) 0.47711(16)
H15 H 0.1820 0.8357 0.4682
C27 C 0.12964(16) 0.6507(4) 0.43563(16)
H16 H 0.1037 0.6993 0.3985
C28 C 0.08910(12) 0.2127(3) 0.46762(12)
C29 C 0.02469(12) 0.2544(3) 0.47351(13)
H17 H 0.0163 0.3354 0.5011
C30 C -0.02727(13) 0.1731(4) 0.43735(15)
H18 H -0.0722 0.1970 0.4404
C31 C -0.01303(14) 0.0583(4) 0.39727(15)
H19 H -0.0477 0.0026 0.3715
C32 C 0.05224(14) 0.0261(3) 0.39527(14)
H20 H 0.0619 -0.0539 0.3677
C33 C 0.46785(11) -0.1509(3) 0.39476(10)
C34 C 0.42070(11) -0.0764(3) 0.37240(10)
C35 C 0.36344(10) 0.0104(3) 0.34497(10)
C36 C 0.30369(11) -0.0035(3) 0.37052(10)
H21 H 0.3009 -0.0713 0.4061
C37 C 0.24851(11) 0.0799(3) 0.34486(11)
H22 H 0.2083 0.0692 0.3629
C38 C 0.25168(11) 0.1791(3) 0.29299(11)
C39 C 0.31030(11) 0.1928(3) 0.26605(11)
H23 H 0.3124 0.2590 0.2297
C40 C 0.36556(11) 0.1099(3) 0.29220(10)
H24 H 0.4057 0.1208 0.2739
C41 C 0.13593(11) 0.1932(3) 0.23652(11)
C42 C 0.07345(12) 0.2320(3) 0.25018(13)
H25 H 0.0679 0.3079 0.2816
C43 C 0.01914(13) 0.1551(4) 0.21600(15)
H26 H -0.0247 0.1782 0.2237
C44 C 0.02876(13) 0.0467(3) 0.17159(14)
H27 H -0.0080 -0.0049 0.1471
C45 C 0.09262(13) 0.0137(3) 0.16293(13)
H28 H 0.0992 -0.0641 0.1328
C46 C 0.19769(11) 0.4208(3) 0.27122(11)
C47 C 0.25026(13) 0.4915(3) 0.31188(13)
H29 H 0.2827 0.4360 0.3408
C48 C 0.25417(14) 0.6435(3) 0.30933(15)
H30 H 0.2903 0.6939 0.3356
C49 C 0.20520(14) 0.7232(3) 0.26825(14)
H31 H 0.2072 0.8280 0.2651
C50 C 0.15426(12) 0.6446(3) 0.23269(12)
H32 H 0.1195 0.6985 0.2060
N1 N 0.14465(9) 0.2884(2) 0.50506(10)
N2 N 0.11880(11) 0.5056(3) 0.44340(11)
N3 N 0.10361(10) 0.1011(2) 0.42999(10)
N4 N 0.19415(9) 0.2669(2) 0.26818(9)
N5 N 0.14650(10) 0.0851(2) 0.19458(10)
N6 N 0.14961(9) 0.4967(2) 0.23265(9)
loop_
_geom_bond_atom_site_label_1
_geom_bond_atom_site_label_2
_geom_bond_site_symmetry_1
_geom_bond_site_symmetry_2
C1 C2 1_555 1_555
C2 H1 1_555 1_555
C3 C2 1_555 1_555
H2 C3 1_555 1_555
C4 C3 1_555 1_555
H3 C4 1_555 1_555
C5 C4 1_555 1_555
C6 C5 1_555 1_555
H4 C6 1_555 1_555
C7 C6 1_555 1_555
C8 C7 1_555 1_555
H5 C8 1_555 1_555
C9 C8 1_555 1_555
H6 C9 1_555 1_555
C10 C9 1_555 1_555
H7 C10 1_555 1_555
C11 C10 1_555 1_555
C12 C7 1_555 1_555
C13 C12 1_555 1_555
H8 C13 1_555 1_555
C14 C1 1_555 1_555
C15 C1 1_555 1_555
C16 C15 1_555 1_555
C17 C16 1_555 1_555
C18 C17 1_555 1_555
H9 C18 1_555 1_555
C19 C18 1_555 1_555
H10 C19 1_555 1_555
C20 C19 1_555 1_555
C21 C20 1_555 1_555
H11 C21 1_555 1_555
C22 C17 1_555 1_555
H12 C22 1_555 1_555
C23 C24 1_555 1_555
C24 H13 1_555 1_555
C25 C24 1_555 1_555
H14 C25 1_555 1_555
C26 C25 1_555 1_555
H15 C26 1_555 1_555
C27 C26 1_555 1_555
H16 C27 1_555 1_555
C28 C29 1_555 1_555
C29 H17 1_555 1_555
C30 C29 1_555 1_555
H18 C30 1_555 1_555
C31 C30 1_555 1_555
H19 C31 1_555 1_555
C32 C31 1_555 1_555
H20 C32 1_555 1_555
C33 C11 1_555 1_555
C34 C33 1_555 1_555
C35 C34 1_555 1_555
C36 C35 1_555 1_555
H21 C36 1_555 1_555
C37 C36 1_555 1_555
H22 C37 1_555 1_555
C38 C37 1_555 1_555
C39 C38 1_555 1_555
H23 C39 1_555 1_555
C40 C35 1_555 1_555
H24 C40 1_555 1_555
C41 C42 1_555 1_555
C42 H25 1_555 1_555
C43 C42 1_555 1_555
H26 C43 1_555 1_555
C44 C43 1_555 1_555
H27 C44 1_555 1_555
C45 C44 1_555 1_555
H28 C45 1_555 1_555
C46 C47 1_555 1_555
C47 H29 1_555 1_555
C48 C47 1_555 1_555
H30 C48 1_555 1_555
C49 C48 1_555 1_555
H31 C49 1_555 1_555
C50 C49 1_555 1_555
H32 C50 1_555 1_555
N1 C20 1_555 1_555
N2 C23 1_555 1_555
N3 C28 1_555 1_555
N4 C38 1_555 1_555
N5 C41 1_555 1_555
N6 C46 1_555 1_555
C5 C14 1_555 1_555
C11 C12 1_555 1_555
C13 C14 1_555 1_555
C21 C22 1_555 1_555
C23 N1 1_555 1_555
C27 N2 1_555 1_555
C28 N1 1_555 1_555
C32 N3 1_555 1_555
C39 C40 1_555 1_555
C41 N4 1_555 1_555
C45 N5 1_555 1_555
C46 N4 1_555 1_555
C50 N6 1_555 1_555

#END
