
#######################################################################
#
#                 Cambridge Crystallographic Data Centre
#                                CCDC 
#
#######################################################################
#
# If this CIF has been generated from an entry in the Cambridge 
# Structural Database, then it will include bibliographic, chemical, 
# crystal, experimental, refinement or atomic coordinate data resulting 
# from the CCDC's data processing and validation procedures.
#
#######################################################################

data_QEJTUX
_chemical_formula_moiety         'C11 H11 I1 N1 1+,I1 1-'
_chemical_name_systematic        '1-ethyl-2-iodoquinolin-1-ium iodide'
_symmetry_cell_setting           monoclinic
_symmetry_space_group_name_H-M   'P 21/n'
_symmetry_Int_Tables_number      14
_space_group_name_Hall           '-P 2yn'
loop_
_symmetry_equiv_pos_site_id
_symmetry_equiv_pos_as_xyz
1 x,y,z
2 1/2-x,1/2+y,1/2-z
3 -x,-y,-z
4 1/2+x,1/2-y,1/2+z
_cell_length_a                   7.0400(14)
_cell_length_b                   11.866(2)
_cell_length_c                   14.532(3)
_cell_angle_alpha                90
_cell_angle_beta                 92.37(3)
_cell_angle_gamma                90
_cell_volume                     1212.92
_exptl_crystal_colour            yellow
_exptl_crystal_description       plate
_cell_formula_units_Z            4
loop_
_atom_site_label
_atom_site_type_symbol
_atom_site_fract_x
_atom_site_fract_y
_atom_site_fract_z
I1 I 0.53408(4) 0.67578(3) 0.34370(2)
N1 N 0.1890(6) 0.7262(3) 0.4571(3)
C1 C -0.2107(7) 0.9310(4) 0.4521(3)
H1 H -0.2681 0.9848 0.4114
C2 C -0.2855(7) 0.9119(4) 0.5362(3)
H2 H -0.3931 0.9534 0.5544
C3 C -0.2024(7) 0.8304(4) 0.5956(3)
H3 H -0.2535 0.8191 0.6544
C4 C -0.0493(7) 0.7665(4) 0.5710(3)
H4 H 0.0023 0.7103 0.6113
C5 C 0.0294(7) 0.7864(4) 0.4845(3)
C6 C 0.2780(7) 0.7550(4) 0.3810(3)
C7 C 0.2064(7) 0.8406(4) 0.3218(3)
H5 H 0.2716 0.8607 0.2683
C8 C 0.0414(7) 0.8943(4) 0.3427(3)
H6 H -0.0138 0.9478 0.3010
C9 C -0.0467(7) 0.8705(4) 0.4257(3)
C10 C 0.2527(7) 0.6269(4) 0.5132(3)
H7 H 0.3093 0.5702 0.4726
H8 H 0.1413 0.5920 0.5414
C11 C 0.3977(8) 0.6599(5) 0.5886(4)
H9 H 0.5146 0.6854 0.5608
H10 H 0.4260 0.5946 0.6282
H11 H 0.3463 0.7209 0.6256
I2 I 0.94021(4) 0.54899(3) 0.28353(2)
loop_
_geom_bond_atom_site_label_1
_geom_bond_atom_site_label_2
_geom_bond_site_symmetry_1
_geom_bond_site_symmetry_2
I1 C6 1_555 1_555
N1 C5 1_555 1_555
C1 H1 1_555 1_555
C2 C1 1_555 1_555
H2 C2 1_555 1_555
C3 C2 1_555 1_555
H3 C3 1_555 1_555
C4 C3 1_555 1_555
H4 C4 1_555 1_555
C5 C4 1_555 1_555
C6 N1 1_555 1_555
C7 C6 1_555 1_555
H5 C7 1_555 1_555
C8 C7 1_555 1_555
H6 C8 1_555 1_555
C9 C1 1_555 1_555
C10 N1 1_555 1_555
H7 C10 1_555 1_555
H8 C10 1_555 1_555
C11 C10 1_555 1_555
H9 C11 1_555 1_555
H10 C11 1_555 1_555
H11 C11 1_555 1_555
C5 C9 1_555 1_555
C8 C9 1_555 1_555

#END
