
#######################################################################
#
#                 Cambridge Crystallographic Data Centre
#                                CCDC 
#
#######################################################################
#
# If this CIF has been generated from an entry in the Cambridge 
# Structural Database, then it will include bibliographic, chemical, 
# crystal, experimental, refinement or atomic coordinate data resulting 
# from the CCDC's data processing and validation procedures.
#
#######################################################################

data_QEJVAF
_chemical_formula_moiety         'C23 H22 Cl1 N2 1+,H2 O1,I1 1-'
_chemical_name_systematic        
'6-chloro-1-ethyl-2-[(1-ethylquinolin-2(1H)-ylidene)methyl]quinolin-1-ium iodide monohydrate'
_chemical_properties_biological  'antidepressant-like activity'
_symmetry_cell_setting           orthorhombic
_symmetry_space_group_name_H-M   'P n 21 a'
_symmetry_Int_Tables_number      33
_space_group_name_Hall           'P -2ac -2n'
loop_
_symmetry_equiv_pos_site_id
_symmetry_equiv_pos_as_xyz
1 x,y,z
2 -x,1/2+y,-z
3 1/2+x,y,1/2-z
4 1/2-x,1/2+y,1/2+z
_cell_length_a                   14.6537(14)
_cell_length_b                   7.9906(7)
_cell_length_c                   19.5626(16)
_cell_angle_alpha                90
_cell_angle_beta                 90
_cell_angle_gamma                90
_cell_volume                     2290.62
_exptl_crystal_colour            red
_exptl_crystal_description       block
_cell_formula_units_Z            4
loop_
_atom_site_label
_atom_site_type_symbol
_atom_site_fract_x
_atom_site_fract_y
_atom_site_fract_z
I1 I -0.75436(3) -0.38069(18) -0.53132(2)
Cl1 Cl -1.00384(14) 0.4485(3) -0.84921(9)
N1 N -0.7148(4) 0.0804(7) -0.7028(2)
C1 C -0.8380(5) 0.3024(9) -0.8398(3)
H1 H -0.8304 0.3311 -0.8866
C2 C -0.9155(5) 0.3460(9) -0.8061(3)
C3 C -0.9261(5) 0.3151(10) -0.7368(4)
H2 H -0.9792 0.3524 -0.7134
C4 C -0.8591(5) 0.2299(9) -0.7023(3)
H3 H -0.8658 0.2091 -0.6548
C5 C -0.7823(5) 0.1742(8) -0.7360(3)
C6 C -0.6330(4) 0.0417(8) -0.7313(3)
C7 C -0.6191(5) 0.0922(9) -0.8018(3)
H4 H -0.5625 0.0689 -0.8235
C8 C -0.6854(5) 0.1717(8) -0.8371(3)
H5 H -0.6759 0.1990 -0.8838
C9 C -0.7694(5) 0.2150(9) -0.8051(3)
C10 C -0.7360(5) 0.0149(11) -0.6340(3)
H6 H -0.7061 -0.0952 -0.6282
H7 H -0.8027 -0.0021 -0.6301
C11 C -0.7043(5) 0.1326(11) -0.5767(3)
H8 H -0.6402 0.1630 -0.5841
H9 H -0.7105 0.0760 -0.5325
H10 H -0.7419 0.2340 -0.5769
N2 N -0.4157(4) -0.1290(7) -0.6641(2)
C12 C -0.2394(4) -0.3684(15) -0.7567(4)
H11 H -0.2288 -0.4119 -0.8012
C13 C -0.1766(4) -0.3918(11) -0.7078(3)
H12 H -0.1214 -0.4491 -0.7181
C14 C -0.1921(5) -0.3325(10) -0.6420(4)
H13 H -0.1476 -0.3513 -0.6076
C15 C -0.2703(5) -0.2472(11) -0.6260(4)
H14 H -0.2801 -0.2087 -0.5807
C16 C -0.3361(4) -0.2170(9) -0.6770(3)
C17 C -0.4838(4) -0.1074(8) -0.7118(3)
C18 C -0.4661(5) -0.1784(9) -0.7774(3)
H15 H -0.5117 -0.1676 -0.8116
C19 C -0.3898(5) -0.2584(9) -0.7935(3)
H16 H -0.3815 -0.3008 -0.8384
C20 C -0.3202(5) -0.2809(9) -0.7433(3)
C21 C -0.4280(4) -0.0496(9) -0.5955(3)
H17 H -0.4671 0.0507 -0.6002
H18 H -0.3678 -0.0127 -0.5781
C22 C -0.4708(5) -0.1681(11) -0.5443(3)
H19 H -0.5322 -0.1987 -0.5597
H20 H -0.4746 -0.1132 -0.4996
H21 H -0.4332 -0.2692 -0.5405
C23 C -0.5649(4) -0.0323(9) -0.6918(3)
H22 H -0.5756 -0.0313 -0.6439
O1 O -0.4381(8) -0.071(2) -0.9539(7)
H23 H -0.4603 -0.0158 -0.9884
H24 H -0.3935 -0.0150 -0.9358
O2 O -0.4148(7) 0.2682(17) -0.9784(7)
H25 H -0.4536 0.2696 -0.9448
H26 H -0.3863 0.3636 -0.9802
loop_
_geom_bond_atom_site_label_1
_geom_bond_atom_site_label_2
_geom_bond_site_symmetry_1
_geom_bond_site_symmetry_2
Cl1 C2 1_555 1_555
N1 C5 1_555 1_555
C1 H1 1_555 1_555
C2 C1 1_555 1_555
C3 C2 1_555 1_555
H2 C3 1_555 1_555
C4 C3 1_555 1_555
H3 C4 1_555 1_555
C5 C4 1_555 1_555
C6 N1 1_555 1_555
C7 C6 1_555 1_555
H4 C7 1_555 1_555
C8 C7 1_555 1_555
H5 C8 1_555 1_555
C9 C1 1_555 1_555
C10 N1 1_555 1_555
H6 C10 1_555 1_555
H7 C10 1_555 1_555
C11 C10 1_555 1_555
H8 C11 1_555 1_555
H9 C11 1_555 1_555
H10 C11 1_555 1_555
N2 C16 1_555 1_555
C12 H11 1_555 1_555
C13 C12 1_555 1_555
H12 C13 1_555 1_555
C14 C13 1_555 1_555
H13 C14 1_555 1_555
C15 C14 1_555 1_555
H14 C15 1_555 1_555
C16 C15 1_555 1_555
C17 N2 1_555 1_555
C18 C17 1_555 1_555
H15 C18 1_555 1_555
C19 C18 1_555 1_555
H16 C19 1_555 1_555
C20 C12 1_555 1_555
C21 N2 1_555 1_555
H17 C21 1_555 1_555
H18 C21 1_555 1_555
C22 C21 1_555 1_555
H19 C22 1_555 1_555
H20 C22 1_555 1_555
H21 C22 1_555 1_555
C23 C6 1_555 1_555
H22 C23 1_555 1_555
O1 H23 1_555 1_555
H24 O1 1_555 1_555
O2 H25 1_555 1_555
H26 O2 1_555 1_555
C5 C9 1_555 1_555
C8 C9 1_555 1_555
C16 C20 1_555 1_555
C17 C23 1_555 1_555
C19 C20 1_555 1_555

#END
