
#######################################################################
#
#                 Cambridge Crystallographic Data Centre
#                                CCDC 
#
#######################################################################
#
# If this CIF has been generated from an entry in the Cambridge 
# Structural Database, then it will include bibliographic, chemical, 
# crystal, experimental, refinement or atomic coordinate data resulting 
# from the CCDC's data processing and validation procedures.
#
#######################################################################

data_QEJVUZ
_chemical_formula_moiety         'C29 H41 Cl1 N3 1+,C1 F3 O3 S1 1-'
_chemical_name_systematic        
'5-chloro-4-(dimethylamino)-1,3-bis[2,6-bis(propan-2-yl)phenyl]-1H-imidazol-3-ium trifluoromethanesulfonate'
_symmetry_cell_setting           monoclinic
_symmetry_space_group_name_H-M   'P 21/n'
_symmetry_Int_Tables_number      14
_space_group_name_Hall           '-P 2yn'
loop_
_symmetry_equiv_pos_site_id
_symmetry_equiv_pos_as_xyz
1 x,y,z
2 1/2-x,1/2+y,1/2-z
3 -x,-y,-z
4 1/2+x,1/2-y,1/2+z
_cell_length_a                   10.7745(18)
_cell_length_b                   19.824(3)
_cell_length_c                   14.780(2)
_cell_angle_alpha                90
_cell_angle_beta                 93.837(5)
_cell_angle_gamma                90
_cell_volume                     3149.84
_exptl_crystal_colour            yellow
_exptl_crystal_description       block
_cell_formula_units_Z            4
loop_
_atom_site_label
_atom_site_type_symbol
_atom_site_fract_x
_atom_site_fract_y
_atom_site_fract_z
C1 C 0.0261(3) 0.23824(17) 0.3550(2)
H1 H 0.0315 0.2493 0.2942
C2 C 0.0129(3) 0.17890(17) 0.4828(2)
C3 C 0.0161(3) 0.24564(18) 0.5035(2)
C4 C -0.0817(4) 0.1284(2) 0.6101(3)
H2 H -0.0312 0.1457 0.6608
H3 H -0.1148 0.0852 0.6255
H4 H -0.1489 0.1591 0.5951
C5 C 0.1005(4) 0.0764(2) 0.5491(3)
H5 H 0.1428 0.0713 0.4944
H6 H 0.0724 0.0332 0.5685
H7 H 0.1564 0.0955 0.5955
C6 C 0.0093(3) 0.11600(17) 0.3331(2)
C7 C -0.1093(3) 0.09031(18) 0.3131(2)
C8 C -0.1187(4) 0.03399(19) 0.2560(2)
H8 H -0.1964 0.0149 0.2414
C9 C -0.0151(4) 0.00635(19) 0.2211(2)
H9 H -0.0237 -0.0305 0.1823
C10 C 0.1016(4) 0.03284(19) 0.2432(2)
H10 H 0.1709 0.0133 0.2194
C11 C 0.1171(3) 0.08857(18) 0.3009(2)
C12 C -0.2254(3) 0.12108(19) 0.3496(3)
H11 H -0.199 0.1591 0.3887
C13 C -0.2940(4) 0.0709(2) 0.4072(3)
H12 H -0.3231 0.0337 0.37
H13 H -0.3636 0.0929 0.4318
H14 H -0.2384 0.0546 0.4558
C14 C -0.3110(4) 0.1486(2) 0.2720(3)
H15 H -0.2654 0.1793 0.2364
H16 H -0.3794 0.172 0.2962
H17 H -0.342 0.112 0.2345
C15 C 0.2465(3) 0.1173(2) 0.3258(3)
H18 H 0.2409 0.1465 0.3789
C16 C 0.3423(4) 0.0623(2) 0.3503(3)
H19 H 0.314 0.0352 0.3987
H20 H 0.4205 0.0827 0.3694
H21 H 0.3526 0.0344 0.2983
C17 C 0.2894(4) 0.1608(2) 0.2479(3)
H22 H 0.3055 0.1324 0.1974
H23 H 0.364 0.1845 0.2677
H24 H 0.2255 0.1927 0.2298
C18 C 0.0173(3) 0.35484(17) 0.4140(2)
C19 C -0.1006(3) 0.38404(18) 0.4029(2)
C20 C -0.1035(4) 0.45393(19) 0.3901(2)
H25 H -0.1798 0.4759 0.3824
C21 C 0.0052(4) 0.49101(19) 0.3886(2)
H26 H 0.0012 0.5372 0.378
C22 C 0.1192(4) 0.45993(19) 0.4028(2)
H27 H 0.1913 0.4857 0.4029
C23 C 0.1286(3) 0.39034(18) 0.4172(2)
C24 C -0.2199(3) 0.3433(2) 0.4057(3)
H28 H -0.197 0.2977 0.4261
C25 C -0.2867(4) 0.3373(2) 0.3109(3)
H29 H -0.3091 0.3815 0.2887
H30 H -0.3604 0.3105 0.3144
H31 H -0.2323 0.3163 0.2705
C26 C -0.3071(4) 0.3726(3) 0.4731(3)
H32 H -0.2634 0.3767 0.5316
H33 H -0.3772 0.3431 0.4774
H34 H -0.3355 0.4162 0.4526
C27 C 0.2532(3) 0.35621(19) 0.4371(3)
H35 H 0.2368 0.3119 0.4633
C28 C 0.3379(4) 0.3950(2) 0.5071(3)
H36 H 0.359 0.438 0.4825
H37 H 0.4124 0.3695 0.5212
H38 H 0.2951 0.4016 0.5613
C29 C 0.3189(4) 0.3440(2) 0.3497(3)
H39 H 0.2663 0.3174 0.3086
H40 H 0.3956 0.3204 0.3638
H41 H 0.336 0.3865 0.322
Cl1 Cl 0.01560(10) 0.28588(5) 0.60454(6)
N1 N 0.0201(3) 0.17598(15) 0.38871(19)
N2 N 0.0229(3) 0.28190(14) 0.42355(19)
N3 N -0.0059(3) 0.12103(15) 0.5322(2)
C30 C -0.0068(4) 0.3761(2) 0.1166(3)
O1 O 0.0161(5) 0.28420(19) -0.0046(3)
O2 O -0.1851(4) 0.2988(2) 0.0553(3)
O3 O -0.0146(4) 0.24971(18) 0.1494(2)
F1 F -0.0334(3) 0.42418(14) 0.05593(18)
F2 F -0.0637(3) 0.39173(16) 0.1897(2)
F3 F 0.1144(3) 0.37967(18) 0.1377(3)
S1 S -0.05210(11) 0.29233(5) 0.07399(7)
loop_
_geom_bond_atom_site_label_1
_geom_bond_atom_site_label_2
_geom_bond_site_symmetry_1
_geom_bond_site_symmetry_2
C1 H1 1_555 1_555
C2 C3 1_555 1_555
C3 Cl1 1_555 1_555
C4 H2 1_555 1_555
H3 C4 1_555 1_555
H4 C4 1_555 1_555
C5 H5 1_555 1_555
H6 C5 1_555 1_555
H7 C5 1_555 1_555
C6 C7 1_555 1_555
C7 C8 1_555 1_555
C8 H8 1_555 1_555
C9 C8 1_555 1_555
H9 C9 1_555 1_555
C10 C9 1_555 1_555
H10 C10 1_555 1_555
C11 C6 1_555 1_555
C12 C7 1_555 1_555
H11 C12 1_555 1_555
C13 C12 1_555 1_555
H12 C13 1_555 1_555
H13 C13 1_555 1_555
H14 C13 1_555 1_555
C14 C12 1_555 1_555
H15 C14 1_555 1_555
H16 C14 1_555 1_555
H17 C14 1_555 1_555
C15 C11 1_555 1_555
H18 C15 1_555 1_555
C16 C15 1_555 1_555
H19 C16 1_555 1_555
H20 C16 1_555 1_555
H21 C16 1_555 1_555
C17 C15 1_555 1_555
H22 C17 1_555 1_555
H23 C17 1_555 1_555
H24 C17 1_555 1_555
C18 C19 1_555 1_555
C19 C20 1_555 1_555
C20 H25 1_555 1_555
C21 C20 1_555 1_555
H26 C21 1_555 1_555
C22 C21 1_555 1_555
H27 C22 1_555 1_555
C23 C18 1_555 1_555
C24 C19 1_555 1_555
H28 C24 1_555 1_555
C25 C24 1_555 1_555
H29 C25 1_555 1_555
H30 C25 1_555 1_555
H31 C25 1_555 1_555
C26 C24 1_555 1_555
H32 C26 1_555 1_555
H33 C26 1_555 1_555
H34 C26 1_555 1_555
C27 C23 1_555 1_555
H35 C27 1_555 1_555
C28 C27 1_555 1_555
H36 C28 1_555 1_555
H37 C28 1_555 1_555
H38 C28 1_555 1_555
C29 C27 1_555 1_555
H39 C29 1_555 1_555
H40 C29 1_555 1_555
H41 C29 1_555 1_555
N1 C1 1_555 1_555
N2 C1 1_555 1_555
N3 C2 1_555 1_555
C30 F1 1_555 1_555
O1 S1 1_555 1_555
O2 S1 1_555 1_555
O3 S1 1_555 1_555
F2 C30 1_555 1_555
F3 C30 1_555 1_555
S1 C30 1_555 1_555
C2 N1 1_555 1_555
C3 N2 1_555 1_555
C4 N3 1_555 1_555
C5 N3 1_555 1_555
C6 N1 1_555 1_555
C10 C11 1_555 1_555
C18 N2 1_555 1_555
C22 C23 1_555 1_555

#END
