
#######################################################################
#
#                 Cambridge Crystallographic Data Centre
#                                CCDC 
#
#######################################################################
#
# If this CIF has been generated from an entry in the Cambridge 
# Structural Database, then it will include bibliographic, chemical, 
# crystal, experimental, refinement or atomic coordinate data resulting 
# from the CCDC's data processing and validation procedures.
#
#######################################################################

data_QEKFOE
_chemical_formula_moiety         'C21 H15 N3 O4,C6 H6 N2 O1'
_chemical_name_systematic        
'4-[3,5-bis(2-hydroxyphenyl)-1H-1,2,4-triazol-1-yl]benzoic acid pyridine-4-carboxamide'
_symmetry_cell_setting           monoclinic
_symmetry_space_group_name_H-M   'P 21/c'
_symmetry_Int_Tables_number      14
_space_group_name_Hall           '-P 2ybc'
loop_
_symmetry_equiv_pos_site_id
_symmetry_equiv_pos_as_xyz
1 x,y,z
2 -x,1/2+y,1/2-z
3 -x,-y,-z
4 x,1/2-y,1/2+z
_cell_length_a                   9.3205(3)
_cell_length_b                   36.1503(10)
_cell_length_c                   7.1171(3)
_cell_angle_alpha                90
_cell_angle_beta                 100.206(3)
_cell_angle_gamma                90
_cell_volume                     2360.08
_exptl_crystal_colour            colorless
_cell_formula_units_Z            4
loop_
_atom_site_label
_atom_site_type_symbol
_atom_site_fract_x
_atom_site_fract_y
_atom_site_fract_z
O1 O 0.47984(17) 0.25250(4) 0.6637(3)
H1 H 0.4829 0.2326 0.6091
O2 O 0.0954(2) 0.39343(6) 0.9255(3)
H2 H 0.1600 0.3910 0.8618
O3 O 0.45221(19) 0.45338(5) -0.0201(3)
O4 O 0.63956(18) 0.41588(5) -0.0134(2)
H3 H 0.6548 0.4291 -0.1013
N1 N 0.43010(17) 0.31337(4) 0.9581(2)
N2 N 0.42634(17) 0.35082(4) 0.7151(2)
N3 N 0.31262(17) 0.36137(4) 0.8013(2)
C1 C 0.4957(2) 0.32194(5) 0.8136(3)
C2 C 0.3190(2) 0.33821(5) 0.9456(3)
C3 C 0.6278(2) 0.30284(5) 0.7762(3)
C4 C 0.6155(2) 0.26686(5) 0.7064(3)
C5 C 0.7402(3) 0.24787(6) 0.6845(3)
H4 H 0.7336 0.2235 0.6414
C6 C 0.8736(3) 0.26481(7) 0.7262(3)
H5 H 0.9567 0.2519 0.7091
C7 C 0.8865(2) 0.30067(7) 0.7931(3)
H6 H 0.9774 0.3120 0.8199
C8 C 0.7633(2) 0.31940(6) 0.8198(3)
H7 H 0.7712 0.3434 0.8675
C9 C 0.2169(2) 0.34008(5) 1.0806(3)
C10 C 0.1114(2) 0.36757(6) 1.0647(3)
C11 C 0.0145(3) 0.36896(8) 1.1918(4)
H8 H -0.0569 0.3872 1.1788
C12 C 0.0237(3) 0.34361(8) 1.3362(4)
H9 H -0.0418 0.3446 1.4206
C13 C 0.1300(3) 0.31641(7) 1.3572(4)
H10 H 0.1372 0.2995 1.4569
C14 C 0.2250(2) 0.31452(6) 1.2299(3)
H11 H 0.2955 0.2960 1.2432
C15 C 0.4522(2) 0.36986(5) 0.5475(3)
C16 C 0.5539(2) 0.35708(6) 0.4441(3)
H12 H 0.6055 0.3355 0.4808
C17 C 0.5789(2) 0.37644(6) 0.2861(3)
H13 H 0.6506 0.3683 0.2201
C18 C 0.4992(2) 0.40773(5) 0.2244(3)
C19 C 0.3928(2) 0.41909(5) 0.3234(3)
H14 H 0.3354 0.4395 0.2802
C20 C 0.3699(2) 0.40067(5) 0.4863(3)
H15 H 0.2995 0.4090 0.5538
C21 C 0.5266(2) 0.42815(6) 0.0516(3)
O5 O -0.02293(17) 0.52822(5) 0.7920(2)
N4 N 0.2792(2) 0.55149(5) 0.2994(3)
N5 N 0.1652(2) 0.49066(5) 0.8975(3)
H16 H 0.1270 0.4831 0.9920
H17 H 0.2485 0.4822 0.8814
C22 C 0.1687(3) 0.56842(7) 0.3548(4)
H18 H 0.1297 0.5891 0.2868
C23 C 0.1078(3) 0.55713(6) 0.5070(3)
H19 H 0.0284 0.5697 0.5391
C24 C 0.1658(2) 0.52700(5) 0.6116(3)
C25 C 0.2808(2) 0.50921(6) 0.5550(3)
H20 H 0.3231 0.4887 0.6218
C26 C 0.3331(3) 0.52221(7) 0.3969(3)
H21 H 0.4098 0.5097 0.3579
C27 C 0.0963(2) 0.51511(6) 0.7774(3)
loop_
_geom_bond_atom_site_label_1
_geom_bond_atom_site_label_2
_geom_bond_site_symmetry_1
_geom_bond_site_symmetry_2
O1 H1 1_555 1_555
O2 H2 1_555 1_555
O3 C21 1_555 1_555
O4 H3 1_555 1_555
N1 C1 1_555 1_555
N2 N3 1_555 1_555
N3 C2 1_555 1_555
C1 N2 1_555 1_555
C2 N1 1_555 1_555
C3 C1 1_555 1_555
C4 O1 1_555 1_555
C5 C4 1_555 1_555
H4 C5 1_555 1_555
C6 C5 1_555 1_555
H5 C6 1_555 1_555
C7 C6 1_555 1_555
H6 C7 1_555 1_555
C8 C3 1_555 1_555
H7 C8 1_555 1_555
C9 C2 1_555 1_555
C10 O2 1_555 1_555
C11 C10 1_555 1_555
H8 C11 1_555 1_555
C12 C11 1_555 1_555
H9 C12 1_555 1_555
C13 C12 1_555 1_555
H10 C13 1_555 1_555
C14 C9 1_555 1_555
H11 C14 1_555 1_555
C15 N2 1_555 1_555
C16 C15 1_555 1_555
H12 C16 1_555 1_555
C17 C16 1_555 1_555
H13 C17 1_555 1_555
C18 C17 1_555 1_555
C19 C18 1_555 1_555
H14 C19 1_555 1_555
C20 C15 1_555 1_555
H15 C20 1_555 1_555
C21 O4 1_555 1_555
O5 C27 1_555 1_555
N4 C22 1_555 1_555
N5 H16 1_555 1_555
H17 N5 1_555 1_555
C22 H18 1_555 1_555
C23 C22 1_555 1_555
H19 C23 1_555 1_555
C24 C23 1_555 1_555
C25 C24 1_555 1_555
H20 C25 1_555 1_555
C26 N4 1_555 1_555
H21 C26 1_555 1_555
C27 N5 1_555 1_555
C3 C4 1_555 1_555
C7 C8 1_555 1_555
C9 C10 1_555 1_555
C13 C14 1_555 1_555
C18 C21 1_555 1_555
C19 C20 1_555 1_555
C24 C27 1_555 1_555
C25 C26 1_555 1_555

#END
