
#######################################################################
#
#                 Cambridge Crystallographic Data Centre
#                                CCDC 
#
#######################################################################
#
# If this CIF has been generated from an entry in the Cambridge 
# Structural Database, then it will include bibliographic, chemical, 
# crystal, experimental, refinement or atomic coordinate data resulting 
# from the CCDC's data processing and validation procedures.
#
#######################################################################

data_QEKHIX
_chemical_formula_moiety         'C36 H33 N1 O3'
_chemical_name_systematic        tris(2-(1-Naphthalenyloxy)ethyl)amine
_symmetry_cell_setting           rhombohedral
_symmetry_space_group_name_H-M   'R -3'
_symmetry_Int_Tables_number      148
_space_group_name_Hall           '-R 3'
loop_
_symmetry_equiv_pos_site_id
_symmetry_equiv_pos_as_xyz
1 x,y,z
2 -y,x-y,z
3 -x+y,-x,z
4 1/3+x,2/3+y,2/3+z
5 1/3-y,2/3+x-y,2/3+z
6 1/3-x+y,2/3-x,2/3+z
7 2/3+x,1/3+y,1/3+z
8 2/3-y,1/3+x-y,1/3+z
9 2/3-x+y,1/3-x,1/3+z
10 -x,-y,-z
11 y,-x+y,-z
12 x-y,x,-z
13 2/3-x,1/3-y,1/3-z
14 2/3+y,1/3-x+y,1/3-z
15 2/3+x-y,1/3+x,1/3-z
16 1/3-x,2/3-y,2/3-z
17 1/3+y,2/3-x+y,2/3-z
18 1/3+x-y,2/3+x,2/3-z
_cell_length_a                   13.077(4)
_cell_length_b                   13.077(4)
_cell_length_c                   29.011(8)
_cell_angle_alpha                90
_cell_angle_beta                 90
_cell_angle_gamma                120
_cell_volume                     4296.45
_exptl_crystal_colour            yellow
_exptl_crystal_description       plate
_chemical_melting_point          '99-101 deg.C'
_cell_formula_units_Z            6
_exptl_crystal_recrystallization_method chloroform
loop_
_atom_site_label
_atom_site_type_symbol
_atom_site_fract_x
_atom_site_fract_y
_atom_site_fract_z
O1 O 0.47573(12) 0.19795(14) 0.48201(5)
N1 N 0.6667 0.3333 0.41929(9)
C1 C 0.39868(17) 0.17161(17) 0.51739(7)
C2 C 0.42896(17) 0.13139(16) 0.55764(7)
C3 C 0.5332(2) 0.1258(2) 0.56072(9)
C4 C 0.5617(3) 0.0891(3) 0.60015(9)
C5 C 0.4866(3) 0.0561(3) 0.63816(10)
C6 C 0.3849(3) 0.0590(2) 0.63596(9)
C7 C 0.3524(2) 0.09682(18) 0.59605(7)
C8 C 0.2478(2) 0.1041(2) 0.59250(11)
C9 C 0.2240(2) 0.1454(2) 0.55419(10)
C10 C 0.2999(2) 0.1817(2) 0.51608(9)
C11 C 0.4572(2) 0.2434(3) 0.44045(8)
C12 C 0.5462(2) 0.2492(2) 0.40639(8)
C12A C 0.7508(2) 0.2970(3) 0.40639(8)
C11A C 0.7566(3) 0.2138(4) 0.44045(8)
O1A O 0.80205(14) 0.27778(18) 0.48201(5)
C1A C 0.82839(17) 0.22707(24) 0.51739(7)
C2A C 0.86861(16) 0.29757(23) 0.55764(7)
C3A C 0.8742(2) 0.4074(3) 0.56072(9)
C4A C 0.9109(3) 0.4726(4) 0.60015(9)
C5A C 0.9439(3) 0.4305(4) 0.63816(10)
C6A C 0.9410(2) 0.3259(4) 0.63596(9)
C7A C 0.90318(18) 0.25558(27) 0.59605(7)
C8A C 0.8959(2) 0.1437(3) 0.59250(11)
C9A C 0.8546(2) 0.0786(3) 0.55419(10)
C10A C 0.8183(2) 0.1182(3) 0.51608(9)
C12B C 0.7030(3) 0.4538(2) 0.40639(8)
C11B C 0.7862(4) 0.5428(2) 0.44045(8)
O1B O 0.72222(18) 0.52427(12) 0.48201(5)
C1B C 0.77293(24) 0.60132(17) 0.51739(7)
C2B C 0.70243(23) 0.57104(17) 0.55764(7)
C3B C 0.5926(3) 0.4668(2) 0.56072(9)
C4B C 0.5274(4) 0.4383(3) 0.60015(9)
C5B C 0.5695(4) 0.5134(3) 0.63816(10)
C6B C 0.6741(4) 0.6151(3) 0.63596(9)
C7B C 0.74442(27) 0.6476(2) 0.59605(7)
C8B C 0.8563(3) 0.7522(2) 0.59250(11)
C9B C 0.9214(3) 0.7760(2) 0.55419(10)
C10B C 0.8818(3) 0.7001(2) 0.51608(9)
loop_
_geom_bond_atom_site_label_1
_geom_bond_atom_site_label_2
_geom_bond_site_symmetry_1
_geom_bond_site_symmetry_2
O1 C1 1_555 1_555
N1 C12 1_555 1_555
C1 C2 1_555 1_555
C2 C3 1_555 1_555
C3 C4 1_555 1_555
C4 C5 1_555 1_555
C5 C6 1_555 1_555
C6 C7 1_555 1_555
C7 C2 1_555 1_555
C8 C7 1_555 1_555
C9 C8 1_555 1_555
C10 C1 1_555 1_555
C11 O1 1_555 1_555
C12 C11 1_555 1_555
C12A N1 1_555 1_555
C11A C12A 1_555 1_555
O1A C11A 1_555 1_555
C1A O1A 1_555 1_555
C2A C1A 1_555 1_555
C3A C2A 1_555 1_555
C4A C3A 1_555 1_555
C5A C4A 1_555 1_555
C6A C5A 1_555 1_555
C7A C2A 1_555 1_555
C8A C7A 1_555 1_555
C9A C8A 1_555 1_555
C10A C1A 1_555 1_555
C12B N1 1_555 1_555
C11B C12B 1_555 1_555
O1B C11B 1_555 1_555
C1B O1B 1_555 1_555
C2B C1B 1_555 1_555
C3B C2B 1_555 1_555
C4B C3B 1_555 1_555
C5B C4B 1_555 1_555
C6B C5B 1_555 1_555
C7B C2B 1_555 1_555
C8B C7B 1_555 1_555
C9B C8B 1_555 1_555
C10B C1B 1_555 1_555
C9 C10 1_555 1_555
C6A C7A 1_555 1_555
C9A C10A 1_555 1_555
C6B C7B 1_555 1_555
C9B C10B 1_555 1_555

#END
