
#######################################################################
#
#                 Cambridge Crystallographic Data Centre
#                                CCDC 
#
#######################################################################
#
# If this CIF has been generated from an entry in the Cambridge 
# Structural Database, then it will include bibliographic, chemical, 
# crystal, experimental, refinement or atomic coordinate data resulting 
# from the CCDC's data processing and validation procedures.
#
#######################################################################

data_QEKJIC
_chemical_formula_moiety         'C9 H9 N1 O5,H2 O1'
_chemical_name_systematic        
'4-ethoxypyridine-2,6-dicarboxylic acid monohydrate'
_symmetry_cell_setting           orthorhombic
_symmetry_space_group_name_H-M   'P n m a'
_symmetry_Int_Tables_number      62
_space_group_name_Hall           '-P 2ac 2n'
loop_
_symmetry_equiv_pos_site_id
_symmetry_equiv_pos_as_xyz
1 x,y,z
2 1/2-x,-y,1/2+z
3 -x,1/2+y,-z
4 1/2+x,1/2-y,1/2-z
5 -x,-y,-z
6 1/2+x,y,1/2-z
7 x,1/2-y,z
8 1/2-x,1/2+y,1/2+z
_cell_length_a                   9.4533(4)
_cell_length_b                   6.4921(4)
_cell_length_c                   16.0230(9)
_cell_angle_alpha                90
_cell_angle_beta                 90
_cell_angle_gamma                90
_cell_volume                     983.36
_exptl_crystal_colour            colorless
_exptl_crystal_description       plates
_cell_formula_units_Z            4
loop_
_atom_site_label
_atom_site_type_symbol
_atom_site_fract_x
_atom_site_fract_y
_atom_site_fract_z
N1 N 0.8268(2) 0.2500 0.42484(13)
C1 C 0.9402(2) 0.2500 0.47523(15)
C2 C 0.9347(3) 0.2500 0.56228(16)
H1 H 1.0186 0.2500 0.5948
C3 C 0.8008(3) 0.2500 0.59998(16)
C4 C 0.6830(3) 0.2500 0.54877(17)
H2 H 0.5909 0.2500 0.5724
C5 C 0.6999(2) 0.2500 0.46248(16)
C6 C 1.0810(2) 0.2500 0.43226(15)
O1 O 1.18739(18) 0.2500 0.48631(11)
H3 H 1.272(2) 0.2500 0.466(2)
O2 O 1.0962(2) 0.2500 0.35685(11)
O3 O 0.7754(2) 0.2500 0.68212(10)
C7 C 0.8925(3) 0.2500 0.73925(15)
H4 H 0.9519 0.3743 0.7321
C8 C 0.8176(4) 0.2500 0.82441(19)
H5 H 0.8884 0.2500 0.8691
H6 H 0.7583 0.3733 0.8292
C9 C 0.5686(3) 0.2500 0.41087(16)
O4 O 0.5863(2) 0.2500 0.33056(11)
H7 H 0.504(3) 0.2500 0.304(2)
O5 O 0.4527(2) 0.2500 0.44466(13)
H4F H 0.9519 0.1257 0.7321
H6F H 0.7583 0.1267 0.8292
O6 O 0.3568(2) 0.2500 0.25678(13)
H10 H 0.275(3) 0.2500 0.278(3)
H11 H 0.343(5) 0.2500 0.2070(13)
H8? H 0.9519 0.3743 0.7321
H9? H 0.7583 0.3733 0.8292
loop_
_geom_bond_atom_site_label_1
_geom_bond_atom_site_label_2
_geom_bond_site_symmetry_1
_geom_bond_site_symmetry_2
N1 C1 1_555 1_555
C1 C2 1_555 1_555
C2 H1 1_555 1_555
C3 C2 1_555 1_555
C4 C3 1_555 1_555
H2 C4 1_555 1_555
C5 N1 1_555 1_555
C6 C1 1_555 1_555
O1 C6 1_555 1_555
H3 O1 1_555 1_555
O2 C6 1_555 1_555
O3 C3 1_555 1_555
C7 O3 1_555 1_555
H4 C7 1_555 1_555
C8 C7 1_555 1_555
H5 C8 1_555 1_555
H6 C8 1_555 1_555
C9 C5 1_555 1_555
O4 C9 1_555 1_555
H7 O4 1_555 1_555
O5 C9 1_555 1_555
O6 H10 1_555 1_555
H11 O6 1_555 1_555
H4F C7 1_555 1_555
H6F C8 1_555 1_555
C4 C5 1_555 1_555

#END
