
#######################################################################
#
#                 Cambridge Crystallographic Data Centre
#                                CCDC 
#
#######################################################################
#
# If this CIF has been generated from an entry in the Cambridge 
# Structural Database, then it will include bibliographic, chemical, 
# crystal, experimental, refinement or atomic coordinate data resulting 
# from the CCDC's data processing and validation procedures.
#
#######################################################################

data_QEKMOJ
_chemical_formula_moiety         'C29 H29 N3 O9,2(C1 H4 O1),H2 O1'
_chemical_name_systematic        
'rac-9^2^-Benzamido-1^4^-(methoxycarbonyl)-6,12-dioxo-5,13-diaza-2,8,10,16-tetraoxa-1(1,2),9(1,3)-dibenzenahexadecacyclophane methanol solvate monohydrate'
_symmetry_cell_setting           triclinic
_symmetry_space_group_name_H-M   'P -1'
_symmetry_Int_Tables_number      2
_space_group_name_Hall           '-P 1'
loop_
_symmetry_equiv_pos_site_id
_symmetry_equiv_pos_as_xyz
1 x,y,z
2 -x,-y,-z
_cell_length_a                   13.127(3)
_cell_length_b                   15.887(3)
_cell_length_c                   16.134(3)
_cell_angle_alpha                90.00(3)
_cell_angle_beta                 89.70(3)
_cell_angle_gamma                77.90(3)
_cell_volume                     3289.92
_exptl_crystal_colour            colorless
_exptl_crystal_description       planar
_cell_formula_units_Z            4
loop_
_atom_site_label
_atom_site_type_symbol
_atom_site_fract_x
_atom_site_fract_y
_atom_site_fract_z
C1 C 0.9118(14) 0.6900(11) 0.2475(10)
O27 O 0.9748(16) 0.6657(16) 0.2091(15)
C2 C 0.361(2) 0.2605(17) 0.7117(17)
C13 C 0.2999(9) -0.1013(6) 1.4215(8)
C14 C 0.2238(11) -0.0457(8) 1.4641(12)
H1 H 0.1787 -0.0033 1.4346
C15 C 0.2109(12) -0.0498(8) 1.5488(13)
H2 H 0.1654 -0.0065 1.5772
C16 C 0.2659(10) -0.1182(7) 1.5890(10)
H3 H 0.2504 -0.1275 1.6441
C17 C 0.3472(8) -0.1761(6) 1.5485(11)
H4 H 0.3916 -0.2183 1.5786
C18 C 0.3604(10) -0.1697(7) 1.4634(9)
H5 H 0.4091 -0.2107 1.4351
C19 C 0.3104(7) -0.0909(6) 1.3345(10)
C20 C 0.3920(6) -0.1479(5) 1.2113(9)
C21 C 0.4503(8) -0.0863(5) 1.1788(8)
C22 C 0.4721(7) -0.0756(5) 1.0937(8)
H6 H 0.5063 -0.0327 1.0769
C23 C 0.4414(8) -0.1303(5) 1.0357(8)
H7 H 0.4592 -0.1254 0.9803
C24 C 0.3842(8) -0.1931(6) 1.0583(8)
H8 H 0.3601 -0.2275 1.0195
C25 C 0.3664(7) -0.1995(5) 1.1444(9)
C26 C 0.5132(7) 0.0413(5) 1.2175(7)
H9 H 0.5691 0.0280 1.1769
H10 H 0.5399 0.0656 1.2659
C27 C 0.4233(8) 0.1074(5) 1.1813(7)
C28 C 0.2455(8) 0.1569(6) 1.1518(9)
H11 H 0.2525 0.2140 1.1690
H12 H 0.1803 0.1470 1.1743
C29 C 0.2418(9) 0.1541(5) 1.0634(10)
H13 H 0.1929 0.2041 1.0430
H14 H 0.3100 0.1552 1.0406
C30 C 0.0791(10) -0.1161(7) 0.9630(13)
H15 H 0.1254 -0.1582 0.9292
H16 H 0.0179 -0.0917 0.9307
C31 C 0.0487(10) -0.1570(8) 1.0394(13)
H17 H 0.0045 -0.1133 1.0730
H18 H 0.0080 -0.1989 1.0239
C32 C 0.1821(8) -0.2828(7) 1.0671(11)
C33 C 0.2744(9) -0.3161(5) 1.1196(8)
H19 H 0.2593 -0.3637 1.1516
H20 H 0.3319 -0.3397 1.0827
C34 C 0.2087(6) 0.0647(5) 0.9574(11)
C35 C 0.2447(8) 0.1125(6) 0.8939(9)
H21 H 0.2732 0.1586 0.9105
C36 C 0.2418(9) 0.0971(7) 0.8064(11)
C37 C 0.1984(10) 0.0237(7) 0.7830(11)
H22 H 0.1938 0.0102 0.7273
C38 C 0.1638(9) -0.0267(7) 0.8432(12)
H23 H 0.1376 -0.0740 0.8265
C39 C 0.1671(9) -0.0083(8) 0.9300(14)
C40 C 0.2865(11) 0.1459(9) 0.7378(16)
N1 N 0.3755(7) -0.1557(5) 1.2926(6)
N2 N 0.3279(6) 0.0959(5) 1.1846(7)
N3 N 0.1362(7) -0.1996(5) 1.0890(8)
O5 O 0.2700(5) -0.0239(4) 1.2969(5)
O6 O 0.4809(5) -0.0374(3) 1.2409(5)
O7 O 0.4527(5) 0.1729(3) 1.1536(5)
O8 O 0.2106(5) 0.0778(4) 1.0373(6)
O9 O 0.1295(7) -0.0515(5) 0.9885(8)
O10 O 0.1591(7) -0.3241(4) 1.0111(7)
O11 O 0.3117(5) -0.2580(3) 1.1778(6)
O12 O 0.3187(7) 0.2116(6) 0.7686(7)
O13 O 0.2862(11) 0.1253(7) 0.6685(8)
C3 C 0.3538(17) 0.7566(11) 0.7826(16)
C41 C 0.2997(8) 0.3963(5) 0.0751(9)
C42 C 0.3638(10) 0.3318(6) 0.0338(9)
H24 H 0.4175 0.2944 0.0607
C43 C 0.3458(9) 0.3237(6) -0.0507(11)
H25 H 0.3858 0.2778 -0.0799
C44 C 0.2698(11) 0.3823(7) -0.0925(11)
H26 H 0.2583 0.3743 -0.1485
C45 C 0.2114(13) 0.4522(8) -0.0511(9)
H27 H 0.1676 0.4962 -0.0795
C46 C 0.2201(9) 0.4545(6) 0.0334(10)
H28 H 0.1730 0.4949 0.0637
C47 C 0.3144(7) 0.4092(6) 0.1618(11)
C48 C 0.3943(6) 0.3506(4) 0.2856(6)
C49 C 0.3716(6) 0.2997(5) 0.3528(8)
C50 C 0.3870(7) 0.3061(5) 0.4369(7)
H29 H 0.3622 0.2710 0.4749
C51 C 0.4428(7) 0.3695(5) 0.4625(7)
H30 H 0.4603 0.3750 0.5178
C52 C 0.4702(8) 0.4229(5) 0.4013(9)
H31 H 0.5001 0.4681 0.4182
C53 C 0.4559(7) 0.4130(5) 0.3174(8)
C54 C 0.2765(9) 0.1819(5) 0.3809(7)
H32 H 0.2611 0.1335 0.3505
H33 H 0.3337 0.1595 0.4180
C55 C 0.1834(8) 0.2198(7) 0.4325(10)
C56 C 0.0494(9) 0.3440(8) 0.4588(12)
H34 H 0.0056 0.3036 0.4720
H35 H 0.0088 0.3897 0.4256
C57 C 0.0804(9) 0.3816(7) 0.5377(12)
H36 H 0.0200 0.4046 0.5720
H37 H 0.1288 0.3391 0.5692
C58 C 0.2395(7) 0.6549(5) 0.4276(10)
H38 H 0.1901 0.7054 0.4469
H39 H 0.3076 0.6585 0.4486
C59 C 0.2427(9) 0.6559(6) 0.3415(8)
H40 H 0.1942 0.6907 0.3077
C60 C 0.4262(7) 0.6078(5) 0.3161(6)
C61 C 0.5095(8) 0.5412(5) 0.2805(8)
H41 H 0.5364 0.5652 0.2318
H42 H 0.5656 0.5287 0.3204
C62 C 0.1668(8) 0.4908(6) 0.5704(11)
C63 C 0.1622(8) 0.4751(7) 0.6567(10)
H43 H 0.1316 0.4302 0.6738
C64 C 0.2008(10) 0.5230(6) 0.7186(12)
H44 H 0.2011 0.5080 0.7744
C65 C 0.2390(8) 0.5948(7) 0.6908(8)
C66 C 0.2409(6) 0.6099(6) 0.6059(8)
H45 H 0.2661 0.6581 0.5902
C67 C 0.2104(8) 0.5628(6) 0.5411(8)
C68 C 0.2769(10) 0.6421(9) 0.7532(10)
N4 N 0.3769(7) 0.3449(4) 0.2038(5)
N5 N 0.1364(7) 0.3009(5) 0.4116(8)
N6 N 0.3317(6) 0.5952(4) 0.3134(6)
O14 O 0.2704(5) 0.4781(4) 0.2018(5)
O15 O 0.3129(5) 0.2409(3) 0.3201(5)
O16 O 0.1577(6) 0.1761(4) 0.4874(6)
O17 O 0.1291(5) 0.4488(4) 0.5079(7)
O18 O 0.2092(5) 0.5758(4) 0.4628(6)
O19 O 0.4501(5) 0.6725(3) 0.3438(5)
O20 O 0.4835(5) 0.4629(3) 0.2576(5)
O21 O 0.3201(6) 0.7093(5) 0.7286(6)
O22 O 0.2820(8) 0.6228(5) 0.8261(7)
C6 C 0.9845(11) 0.2843(9) 0.1384(12)
O26 O 1.0268(15) 0.3600(8) 0.1530(12)
C7 C 1.000(2) 0.130(2) 0.303(2)
O4 O 0.9151(16) 0.1918(10) 0.2605(18)
C69 C 0.0223(12) 0.8588(10) 0.3558(13)
O25 O -0.0181(8) 0.7912(6) 0.3776(8)
O23 O 0.1360(8) 0.9570(5) 0.1670(8)
O24 O 0.1375(6) 0.4581(5) 0.3291(8)
C4? C 0.475(2) 0.0197(13) 0.5452(19)
C5? C 0.4723(15) 0.5268(13) 0.9568(16)
O1? O 0.982(3) 0.189(2) 0.203(3)
O2? O 0.4023(18) 0.1185(11) 0.5611(12)
O3? O 0.4128(12) 0.6135(9) 0.9395(12)
C8? C 0.966(3) 0.684(2) 0.3033(14)
C9? C 0.366(2) 0.185(2) 0.616(2)
C10? C 0.355(2) 0.6789(17) 0.8931(18)
C11? C 0.974(2) 0.295(2) 0.103(2)
C12? C 0.967(5) 0.189(4) 0.300(3)
loop_
_geom_bond_atom_site_label_1
_geom_bond_atom_site_label_2
_geom_bond_site_symmetry_1
_geom_bond_site_symmetry_2
C1 O27 1_555 1_555
C2 O12 1_555 1_555
C3 O21 1_555 1_555
C6 O26 1_555 1_555
C7 O4 1_555 1_555
C13 C14 1_555 1_555
C14 H1 1_555 1_555
C15 C14 1_555 1_555
H2 C15 1_555 1_555
C16 C15 1_555 1_555
H3 C16 1_555 1_555
C17 C16 1_555 1_555
H4 C17 1_555 1_555
C18 C13 1_555 1_555
H5 C18 1_555 1_555
C19 C13 1_555 1_555
C20 C21 1_555 1_555
C21 C22 1_555 1_555
C22 H6 1_555 1_555
C23 C22 1_555 1_555
H7 C23 1_555 1_555
C24 C23 1_555 1_555
H8 C24 1_555 1_555
C25 C20 1_555 1_555
C26 H9 1_555 1_555
H10 C26 1_555 1_555
C27 C26 1_555 1_555
C28 H11 1_555 1_555
H12 C28 1_555 1_555
C29 C28 1_555 1_555
H13 C29 1_555 1_555
H14 C29 1_555 1_555
C30 H15 1_555 1_555
H16 C30 1_555 1_555
C31 C30 1_555 1_555
H17 C31 1_555 1_555
H18 C31 1_555 1_555
C32 C33 1_555 1_555
C33 H19 1_555 1_555
H20 C33 1_555 1_555
C34 C35 1_555 1_555
C35 H21 1_555 1_555
C36 C35 1_555 1_555
C37 C36 1_555 1_555
H22 C37 1_555 1_555
C38 C37 1_555 1_555
H23 C38 1_555 1_555
C39 C34 1_555 1_555
C40 C36 1_555 1_555
C41 C42 1_555 1_555
C42 H24 1_555 1_555
C43 C42 1_555 1_555
H25 C43 1_555 1_555
C44 C43 1_555 1_555
H26 C44 1_555 1_555
C45 C44 1_555 1_555
H27 C45 1_555 1_555
C46 C41 1_555 1_555
H28 C46 1_555 1_555
C47 C41 1_555 1_555
C48 C49 1_555 1_555
C49 C50 1_555 1_555
C50 H29 1_555 1_555
C51 C50 1_555 1_555
H30 C51 1_555 1_555
C52 C51 1_555 1_555
H31 C52 1_555 1_555
C53 C48 1_555 1_555
C54 H32 1_555 1_555
H33 C54 1_555 1_555
C55 C54 1_555 1_555
C56 H34 1_555 1_555
H35 C56 1_555 1_555
C57 C56 1_555 1_555
H36 C57 1_555 1_555
H37 C57 1_555 1_555
C58 H38 1_555 1_555
H39 C58 1_555 1_555
C59 C58 1_555 1_555
H40 C59 1_555 1_555
C60 C61 1_555 1_555
C61 H41 1_555 1_555
H42 C61 1_555 1_555
C62 C63 1_555 1_555
C63 H43 1_555 1_555
C64 C63 1_555 1_555
H44 C64 1_555 1_555
C65 C64 1_555 1_555
C66 C65 1_555 1_555
H45 C66 1_555 1_555
C67 C62 1_555 1_555
C68 C65 1_555 1_555
C69 O25 1_555 1_555
N1 C19 1_555 1_555
N2 C27 1_555 1_555
N3 C31 1_555 1_555
N4 C47 1_555 1_555
N5 C55 1_555 1_555
N6 C59 1_555 1_555
O5 C19 1_555 1_555
O6 C21 1_555 1_555
O7 C27 1_555 1_555
O8 C29 1_555 1_555
O9 C30 1_555 1_555
O10 C32 1_555 1_555
O11 C25 1_555 1_555
O12 C40 1_555 1_555
O13 C40 1_555 1_555
O14 C47 1_555 1_555
O15 C49 1_555 1_555
O16 C55 1_555 1_555
O17 C57 1_555 1_555
O18 C58 1_555 1_555
O19 C60 1_555 1_555
O20 C53 1_555 1_555
O21 C68 1_555 1_555
O22 C68 1_555 1_555
C17 C18 1_555 1_555
C20 N1 1_555 1_555
C24 C25 1_555 1_555
C26 O6 1_555 1_555
C28 N2 1_555 1_555
C32 N3 1_555 1_555
C33 O11 1_555 1_555
C34 O8 1_555 1_555
C38 C39 1_555 1_555
C39 O9 1_555 1_555
C45 C46 1_555 1_555
C48 N4 1_555 1_555
C52 C53 1_555 1_555
C54 O15 1_555 1_555
C56 N5 1_555 1_555
C60 N6 1_555 1_555
C61 O20 1_555 1_555
C62 O17 1_555 1_555
C66 C67 1_555 1_555
C67 O18 1_555 1_555

#END
