
#######################################################################
#
#                 Cambridge Crystallographic Data Centre
#                                CCDC 
#
#######################################################################
#
# If this CIF has been generated from an entry in the Cambridge 
# Structural Database, then it will include bibliographic, chemical, 
# crystal, experimental, refinement or atomic coordinate data resulting 
# from the CCDC's data processing and validation procedures.
#
#######################################################################

data_QEKMUP
_chemical_formula_moiety         'C27 H27 Br1 N2 O7'
_chemical_name_systematic        
rac-9^2^-Benzyloxy-1^4^-bromo-6,12-dioxo-5,13-diaza-2,8,10,16-tetraoxa-1(1,2),9(1,3)-dibenzenahexadecacyclophane
_symmetry_cell_setting           monoclinic
_symmetry_space_group_name_H-M   'P 21/c'
_symmetry_Int_Tables_number      14
_space_group_name_Hall           '-P 2ybc'
loop_
_symmetry_equiv_pos_site_id
_symmetry_equiv_pos_as_xyz
1 x,y,z
2 -x,1/2+y,1/2-z
3 -x,-y,-z
4 x,1/2-y,1/2+z
_cell_length_a                   10.106(2)
_cell_length_b                   17.225(3)
_cell_length_c                   15.279(3)
_cell_angle_alpha                90
_cell_angle_beta                 106.38(3)
_cell_angle_gamma                90
_cell_volume                     2551.75
_exptl_crystal_colour            colorless
_exptl_crystal_description       prismatic
_chemical_melting_point          '175.6-177.1 deg.C'
_cell_formula_units_Z            4
_exptl_crystal_recrystallization_method methanol/pentane
loop_
_atom_site_label
_atom_site_type_symbol
_atom_site_fract_x
_atom_site_fract_y
_atom_site_fract_z
Br1 Br 0.27912(8) 0.08116(4) 1.11788(5)
O1 O 0.5244(4) 0.3272(2) 0.9346(3)
O2 O 0.5388(4) 0.1872(2) 0.8881(3)
O3 O 1.0133(4) 0.1282(2) 0.8756(3)
O4 O 0.9651(4) 0.3933(2) 0.9257(3)
O5 O 0.8925(4) 0.2444(2) 0.9409(2)
C1 C 0.4667(5) 0.2751(3) 0.9786(4)
C2 C 0.4739(5) 0.1990(3) 0.9553(3)
C3 C 0.4164(5) 0.1405(3) 0.9947(4)
H1 H 0.4201 0.0889 0.9775
N1 N 0.7388(5) 0.1207(2) 0.8003(3)
H2 H 0.7801 0.1473 0.8477
N2 N 0.7086(5) 0.4380(3) 0.8969(3)
H3 H 0.7451 0.3949 0.9200
C4 C 1.0488(6) 0.2029(4) 0.8590(4)
O6 O 0.7492(5) 0.5539(3) 0.8447(3)
O7 O 0.7640(5) 0.0422(3) 0.6888(3)
C5 C 0.4002(6) 0.2929(3) 1.0446(4)
H4 H 0.3941 0.3446 1.0608
C6 C 0.8129(6) 0.0805(3) 0.7578(4)
C7 C 0.7921(6) 0.2199(4) 1.1389(4)
H5 H 0.7952 0.2727 1.1523
C8 C 0.8586(6) 0.1920(3) 1.0793(4)
C9 C 0.3530(5) 0.1614(3) 1.0605(4)
C10 C 0.9901(6) 0.2615(3) 0.8979(4)
C11 C 0.3435(6) 0.2364(3) 1.0864(4)
H6 H 0.3001 0.2489 1.1307
C12 C 0.7873(6) 0.4897(3) 0.8733(4)
C13 C 1.0280(6) 0.3372(4) 0.8848(4)
C14 C 0.5635(7) 0.4502(4) 0.8859(4)
H7 H 0.5118 0.4337 0.8252
H8 H 0.5471 0.5053 0.8910
C15 C 0.5229(6) 0.1138(4) 0.8432(4)
H9 H 0.4260 0.1009 0.8193
H10 H 0.5679 0.0734 0.8854
C16 C 0.5122(8) 0.4080(3) 0.9533(5)
C17 C 0.9649(7) 0.0795(3) 0.7990(5)
H11 H 0.9934 0.0267 0.8169
H12 H 1.0087 0.0949 0.7528
C18 C 0.7203(8) 0.1700(6) 1.1795(5)
C19 C 0.8484(6) 0.1135(4) 1.0596(4)
H13 H 0.8925 0.0927 1.0192
C20 C 1.1210(6) 0.3549(4) 0.8387(4)
H14 H 1.1466 0.4061 0.8329
C21 C 0.9331(7) 0.4665(3) 0.8809(4)
H15 H 0.9458 0.4633 0.8204
H16 H 0.9956 0.5057 0.9150
C22 C 0.7091(8) 0.0944(5) 1.1602(5)
H17 H 0.6587 0.0619 1.1874
C23 C 1.1413(6) 0.2195(4) 0.8112(4)
H18 H 1.1801 0.1795 0.7858
C24 C 0.5874(6) 0.1211(4) 0.7687(4)
H19 H 0.5569 0.1691 0.7361
H20 H 0.5566 0.0786 0.7262
C25 C 0.9468(8) 0.2430(4) 1.0414(4)
H21 H 0.9473 0.2951 1.0655
H22 H 1.0407 0.2236 1.0589
C26 C 0.7725(7) 0.0662(4) 1.1004(5)
H23 H 0.7651 0.0136 1.0861
C27 C 1.1768(6) 0.2946(5) 0.8006(5)
H24 H 1.2390 0.3055 0.7675
H25 H 0.566(5) 0.417(2) 1.017(4)
H26 H 0.683(4) 0.179(2) 1.207(3)
H27 H 0.409(6) 0.423(3) 0.943(4)
loop_
_geom_bond_atom_site_label_1
_geom_bond_atom_site_label_2
_geom_bond_site_symmetry_1
_geom_bond_site_symmetry_2
Br1 C9 1_555 1_555
O1 C1 1_555 1_555
O2 C2 1_555 1_555
O3 C4 1_555 1_555
O4 C13 1_555 1_555
O5 C10 1_555 1_555
C1 C2 1_555 1_555
C2 C3 1_555 1_555
C3 H1 1_555 1_555
N1 H2 1_555 1_555
N2 H3 1_555 1_555
C4 C10 1_555 1_555
O6 C12 1_555 1_555
O7 C6 1_555 1_555
C5 C1 1_555 1_555
H4 C5 1_555 1_555
C6 N1 1_555 1_555
C7 H5 1_555 1_555
C8 C7 1_555 1_555
C9 C3 1_555 1_555
C10 C13 1_555 1_555
C11 C5 1_555 1_555
H6 C11 1_555 1_555
C12 N2 1_555 1_555
C13 C20 1_555 1_555
C14 N2 1_555 1_555
H7 C14 1_555 1_555
H8 C14 1_555 1_555
C15 O2 1_555 1_555
H9 C15 1_555 1_555
H10 C15 1_555 1_555
C16 O1 1_555 1_555
C17 O3 1_555 1_555
H11 C17 1_555 1_555
H12 C17 1_555 1_555
C18 C7 1_555 1_555
C19 C8 1_555 1_555
H13 C19 1_555 1_555
C20 H14 1_555 1_555
C21 O4 1_555 1_555
H15 C21 1_555 1_555
H16 C21 1_555 1_555
C22 C18 1_555 1_555
H17 C22 1_555 1_555
C23 C4 1_555 1_555
H18 C23 1_555 1_555
C24 N1 1_555 1_555
H19 C24 1_555 1_555
H20 C24 1_555 1_555
C25 O5 1_555 1_555
H21 C25 1_555 1_555
H22 C25 1_555 1_555
C26 C19 1_555 1_555
H23 C26 1_555 1_555
C27 C20 1_555 1_555
H24 C27 1_555 1_555
H25 C16 1_555 1_555
H26 C18 1_555 1_555
H27 C16 1_555 1_555
C6 C17 1_555 1_555
C8 C25 1_555 1_555
C9 C11 1_555 1_555
C12 C21 1_555 1_555
C14 C16 1_555 1_555
C15 C24 1_555 1_555
C22 C26 1_555 1_555
C23 C27 1_555 1_555

#END
