
#######################################################################
#
#                 Cambridge Crystallographic Data Centre
#                                CCDC 
#
#######################################################################
#
# If this CIF has been generated from an entry in the Cambridge 
# Structural Database, then it will include bibliographic, chemical, 
# crystal, experimental, refinement or atomic coordinate data resulting 
# from the CCDC's data processing and validation procedures.
#
#######################################################################

data_QEKNIE
_chemical_formula_moiety         'C30 H20 N5 S3'
_chemical_name_systematic        
6-(3-(2-Benzothiazolyl)pyridin-2-ylthio)-N-(3-(2-benzothiazolyl)pyridin-2-yl)aniline
_symmetry_cell_setting           monoclinic
_symmetry_space_group_name_H-M   'P 21/a'
_symmetry_Int_Tables_number      14
_space_group_name_Hall           '-P 2yab'
loop_
_symmetry_equiv_pos_site_id
_symmetry_equiv_pos_as_xyz
1 x,y,z
2 1/2-x,1/2+y,-z
3 -x,-y,-z
4 1/2+x,1/2-y,z
_cell_length_a                   7.4539(3)
_cell_length_b                   24.0296(5)
_cell_length_c                   13.8094(5)
_cell_angle_alpha                90
_cell_angle_beta                 101.0980(15)
_cell_angle_gamma                90
_cell_volume                     2427.2
_exptl_crystal_colour            colorless
_exptl_crystal_description       parallelepiped
_chemical_melting_point          '171-173 deg.C'
_cell_formula_units_Z            4
_exptl_crystal_recrystallization_method 1,2-dichloroethane
loop_
_atom_site_label
_atom_site_type_symbol
_atom_site_fract_x
_atom_site_fract_y
_atom_site_fract_z
S1 S 0.72449(7) 0.576820(19) 0.22113(4)
S2 S 0.39924(8) 0.41232(2) 0.06109(4)
S3 S 0.72566(8) 0.49724(2) 0.64956(4)
N1 N 0.7008(2) 0.63637(7) 0.41266(12)
H1 H 0.713(3) 0.6005(10) 0.4042(17)
N2 N 0.6842(3) 0.46580(7) 0.14993(14)
N3 N 0.7357(2) 0.52906(7) 0.47140(13)
N4 N 0.6283(3) 0.70179(7) 0.52380(13)
N5 N 0.3873(2) 0.61687(7) 0.18217(13)
H2 H 0.773(4) 0.4755(11) 0.160(2)
C1 C 0.7440(3) 0.67176(8) 0.34028(15)
C2 C 0.7914(3) 0.72804(8) 0.35652(16)
H3 H 0.7932 0.7440 0.4197
C3 C 0.8351(3) 0.76037(8) 0.28224(16)
H4 H 0.8678 0.7982 0.2952
C4 C 0.8325(3) 0.73896(8) 0.18908(16)
H5 H 0.8594 0.7621 0.1380
C5 C 0.7902(3) 0.68351(8) 0.17118(16)
H6 H 0.7896 0.6684 0.1076
C6 C 0.7483(3) 0.64935(8) 0.24617(15)
C7 C 0.7050(3) 0.54744(8) 0.55504(15)
C8 C 0.5115(3) 0.47174(8) 0.11826(14)
C9 C 0.7445(3) 0.41264(8) 0.13204(16)
C10 C 0.9228(3) 0.39320(10) 0.15893(17)
H7 H 1.0174 0.4168 0.1918
C11 C 0.9595(4) 0.33903(10) 0.1369(2)
H8 H 1.0803 0.3250 0.1558
C12 C 0.8213(4) 0.30427(10) 0.0870(2)
H9 H 0.8500 0.2671 0.0721
C13 C 0.6435(4) 0.32315(9) 0.05915(18)
H10 H 0.5498 0.2997 0.0250
C14 C 0.6066(3) 0.37747(9) 0.08276(16)
C15 C 0.7781(3) 0.47264(8) 0.47608(15)
C16 C 0.8190(3) 0.44133(8) 0.39879(16)
H11 H 0.8221 0.4581 0.3369
C17 C 0.8555(3) 0.38498(8) 0.41366(16)
H12 H 0.8836 0.3630 0.3613
C18 C 0.8512(3) 0.36022(9) 0.50456(17)
H13 H 0.8744 0.3215 0.5128
C19 C 0.8140(3) 0.39103(9) 0.58297(17)
H14 H 0.8131 0.3742 0.6451
C20 C 0.7778(3) 0.44771(9) 0.56785(16)
C21 C 0.6640(3) 0.64885(8) 0.50379(15)
C22 C 0.6600(3) 0.60531(8) 0.57385(15)
C23 C 0.6130(3) 0.61986(9) 0.66311(16)
H15 H 0.6069 0.5919 0.7110
C24 C 0.5748(3) 0.67473(9) 0.68324(17)
H16 H 0.5426 0.6850 0.7441
C25 C 0.5854(3) 0.71354(9) 0.61139(17)
H17 H 0.5608 0.7513 0.6248
C26 C 0.4870(3) 0.57158(8) 0.17315(14)
C27 C 0.4070(3) 0.52235(8) 0.12760(14)
C28 C 0.2193(3) 0.52290(9) 0.09184(15)
H18 H 0.1611 0.4907 0.0604
C29 C 0.1166(3) 0.56959(9) 0.10154(16)
H19 H -0.0117 0.5702 0.0778
C30 C 0.2074(3) 0.61531(9) 0.14702(16)
H20 H 0.1379 0.6477 0.1538
loop_
_geom_bond_atom_site_label_1
_geom_bond_atom_site_label_2
_geom_bond_site_symmetry_1
_geom_bond_site_symmetry_2
S1 C6 1_555 1_555
S2 C8 1_555 1_555
S3 C7 1_555 1_555
N1 H1 1_555 1_555
N2 H2 1_555 1_555
N3 C7 1_555 1_555
N4 C21 1_555 1_555
N5 C26 1_555 1_555
C1 N1 1_555 1_555
C2 C1 1_555 1_555
H3 C2 1_555 1_555
C3 C2 1_555 1_555
H4 C3 1_555 1_555
C4 C3 1_555 1_555
H5 C4 1_555 1_555
C5 C4 1_555 1_555
H6 C5 1_555 1_555
C6 C1 1_555 1_555
C7 C22 1_555 1_555
C8 N2 1_555 1_555
C9 N2 1_555 1_555
C10 C9 1_555 1_555
H7 C10 1_555 1_555
C11 C10 1_555 1_555
H8 C11 1_555 1_555
C12 C11 1_555 1_555
H9 C12 1_555 1_555
C13 C12 1_555 1_555
H10 C13 1_555 1_555
C14 S2 1_555 1_555
C15 N3 1_555 1_555
C16 C15 1_555 1_555
H11 C16 1_555 1_555
C17 C16 1_555 1_555
H12 C17 1_555 1_555
C18 C17 1_555 1_555
H13 C18 1_555 1_555
C19 C18 1_555 1_555
H14 C19 1_555 1_555
C20 S3 1_555 1_555
C21 N1 1_555 1_555
C22 C21 1_555 1_555
C23 C22 1_555 1_555
H15 C23 1_555 1_555
C24 C23 1_555 1_555
H16 C24 1_555 1_555
C25 N4 1_555 1_555
H17 C25 1_555 1_555
C26 S1 1_555 1_555
C27 C8 1_555 1_555
C28 C27 1_555 1_555
H18 C28 1_555 1_555
C29 C28 1_555 1_555
H19 C29 1_555 1_555
C30 N5 1_555 1_555
H20 C30 1_555 1_555
C5 C6 1_555 1_555
C9 C14 1_555 1_555
C13 C14 1_555 1_555
C15 C20 1_555 1_555
C19 C20 1_555 1_555
C24 C25 1_555 1_555
C26 C27 1_555 1_555
C29 C30 1_555 1_555

#END
