
#######################################################################
#
#                 Cambridge Crystallographic Data Centre
#                                CCDC 
#
#######################################################################
#
# If this CIF has been generated from an entry in the Cambridge 
# Structural Database, then it will include bibliographic, chemical, 
# crystal, experimental, refinement or atomic coordinate data resulting 
# from the CCDC's data processing and validation procedures.
#
#######################################################################

data_QEKNEZ
_chemical_formula_moiety         'C36 H34 N1 O3 1+,Cl1 O4 1-'
_chemical_name_systematic        
'tris(2-(1-Naphthalenyloxy)ethyl)ammonium perchlorate'
_symmetry_cell_setting           cubic
_symmetry_space_group_name_H-M   'P 21 3'
_symmetry_Int_Tables_number      198
_space_group_name_Hall           'P 2ac 2ab 3'
loop_
_symmetry_equiv_pos_site_id
_symmetry_equiv_pos_as_xyz
1 x,y,z
2 1/2-x,-y,1/2+z
3 1/2+x,1/2-y,-z
4 z,x,y
5 -x,1/2+y,1/2-z
6 1/2-z,-x,1/2+y
7 1/2+z,1/2-x,-y
8 -z,1/2+x,1/2-y
9 y,z,x
10 1/2+y,1/2-z,-x
11 -y,1/2+z,1/2-x
12 1/2-y,-z,1/2+x
_cell_length_a                   14.630(5)
_cell_length_b                   14.630(5)
_cell_length_c                   14.630(5)
_cell_angle_alpha                90
_cell_angle_beta                 90
_cell_angle_gamma                90
_cell_volume                     3131.36
_cell_formula_units_Z            4
_exptl_crystal_recrystallization_method 'diethyl ether/dimethylformamide'
loop_
_atom_site_label
_atom_site_type_symbol
_atom_site_fract_x
_atom_site_fract_y
_atom_site_fract_z
Cl1 Cl 0.3386(1) 0.1614(1) 0.8386(1)
O2 O 0.2804(4) 0.1043(4) 0.7851(4)
O3 O 0.3954(5) 0.1046(5) 0.8954(5)
O2F O 0.2851(4) 0.2196(4) 0.8957(4)
O2K O 0.3957(4) 0.2149(4) 0.7804(4)
N1 N 0.6143(3) 0.3857(3) 0.8857(3)
O1 O 0.8035(2) 0.3604(2) 0.8871(2)
C1 C 0.6762(4) 0.4265(4) 0.9568(3)
C2 C 0.7702(3) 0.4467(4) 0.9184(4)
C3 C 0.8948(3) 0.3527(4) 0.8659(3)
C4 C 0.9526(4) 0.4264(4) 0.8585(4)
C5 C 1.0452(4) 0.4093(4) 0.8346(4)
C6 C 1.0762(3) 0.3251(4) 0.8200(4)
C7 C 1.0186(3) 0.2476(4) 0.8281(3)
C8 C 1.0496(4) 0.1575(5) 0.8153(4)
C9 C 0.9931(4) 0.0849(5) 0.8256(4)
C10 C 0.9002(4) 0.0981(4) 0.8461(4)
C11 C 0.8666(4) 0.1852(4) 0.8600(4)
C12 C 0.9259(3) 0.2625(3) 0.8513(3)
C1E C 0.5432(3) 0.3238(4) 0.9265(4)
C2E C 0.5816(4) 0.2298(3) 0.9467(4)
O1E O 0.6129(2) 0.1965(2) 0.8604(2)
C3E C 0.6341(3) 0.1052(3) 0.8527(4)
C4E C 0.6415(4) 0.0474(4) 0.9264(4)
C5E C 0.6654(4) -0.0452(4) 0.9093(4)
C6E C 0.6800(4) -0.0762(3) 0.8251(4)
C7E C 0.6719(3) -0.0186(3) 0.7476(4)
C8E C 0.6847(4) -0.0496(4) 0.6575(5)
C9E C 0.6744(4) 0.0069(4) 0.5849(5)
C10E C 0.6539(4) 0.0998(4) 0.5981(4)
C11E C 0.6400(4) 0.1334(4) 0.6852(4)
C12E C 0.6487(3) 0.0741(3) 0.7625(3)
C1J C 0.5735(4) 0.4568(3) 0.8238(4)
C2J C 0.5533(4) 0.4184(4) 0.7298(3)
O1J O 0.6396(2) 0.3871(2) 0.6965(2)
C3J C 0.6473(4) 0.3659(3) 0.6052(3)
C4J C 0.5736(4) 0.3585(4) 0.5474(4)
C5J C 0.5907(4) 0.3346(4) 0.4548(4)
C6J C 0.6749(4) 0.3200(4) 0.4238(3)
C7J C 0.7524(4) 0.3281(3) 0.4814(3)
C8J C 0.8425(5) 0.3153(4) 0.4504(4)
C9J C 0.9151(5) 0.3256(4) 0.5069(4)
C10J C 0.9019(4) 0.3461(4) 0.5998(4)
C11J C 0.8148(4) 0.3600(4) 0.6334(4)
C12J C 0.7375(3) 0.3513(3) 0.5741(3)
loop_
_geom_bond_atom_site_label_1
_geom_bond_atom_site_label_2
_geom_bond_site_symmetry_1
_geom_bond_site_symmetry_2
Cl1 O2 1_555 1_555
N1 C1 1_555 1_555
O1 C2 1_555 1_555
O3 Cl1 1_555 1_555
C1 C2 1_555 1_555
C3 O1 1_555 1_555
C4 C3 1_555 1_555
C5 C4 1_555 1_555
C6 C5 1_555 1_555
C7 C6 1_555 1_555
C8 C7 1_555 1_555
C9 C8 1_555 1_555
C10 C9 1_555 1_555
C11 C10 1_555 1_555
C12 C3 1_555 1_555
O2F Cl1 1_555 1_555
O2K Cl1 1_555 1_555
C1E N1 1_555 1_555
C2E C1E 1_555 1_555
O1E C2E 1_555 1_555
C3E O1E 1_555 1_555
C4E C3E 1_555 1_555
C5E C4E 1_555 1_555
C6E C5E 1_555 1_555
C7E C6E 1_555 1_555
C8E C7E 1_555 1_555
C9E C8E 1_555 1_555
C10E C9E 1_555 1_555
C11E C10E 1_555 1_555
C12E C3E 1_555 1_555
C1J N1 1_555 1_555
C2J C1J 1_555 1_555
O1J C2J 1_555 1_555
C3J O1J 1_555 1_555
C4J C3J 1_555 1_555
C5J C4J 1_555 1_555
C6J C5J 1_555 1_555
C7J C6J 1_555 1_555
C8J C7J 1_555 1_555
C9J C8J 1_555 1_555
C10J C9J 1_555 1_555
C11J C10J 1_555 1_555
C12J C3J 1_555 1_555
C7 C12 1_555 1_555
C11 C12 1_555 1_555
C7E C12E 1_555 1_555
C11E C12E 1_555 1_555
C7J C12J 1_555 1_555
C11J C12J 1_555 1_555

#END
