
#######################################################################
#
#                 Cambridge Crystallographic Data Centre
#                                CCDC 
#
#######################################################################
#
# If this CIF has been generated from an entry in the Cambridge 
# Structural Database, then it will include bibliographic, chemical, 
# crystal, experimental, refinement or atomic coordinate data resulting 
# from the CCDC's data processing and validation procedures.
#
#######################################################################

data_QEKNUQ
_chemical_formula_moiety         'C12 H9 Cl1 N2 O2'
_chemical_name_systematic        2-Chloro-N-(2-hydroxyphenyl)nicotinamide
_symmetry_cell_setting           monoclinic
_symmetry_space_group_name_H-M   'C 2/c'
_symmetry_Int_Tables_number      15
_space_group_name_Hall           '-C 2yn'
loop_
_symmetry_equiv_pos_site_id
_symmetry_equiv_pos_as_xyz
1 x,y,z
2 1/2+x,1/2+y,z
3 -x,y,1/2-z
4 1/2-x,1/2+y,1/2-z
5 -x,-y,-z
6 1/2-x,1/2-y,-z
7 x,-y,1/2+z
8 1/2+x,1/2-y,1/2+z
_cell_length_a                   12.5286(3)
_cell_length_b                   7.9125(3)
_cell_length_c                   22.1185(7)
_cell_angle_alpha                90.00
_cell_angle_beta                 97.3580(18)
_cell_angle_gamma                90.00
_cell_volume                     2174.61
_exptl_crystal_colour            colorless
_exptl_crystal_description       Slab
_chemical_melting_point          '135-137 deg.C'
_cell_formula_units_Z            8
_exptl_crystal_recrystallization_method ethanol
loop_
_atom_site_label
_atom_site_type_symbol
_atom_site_fract_x
_atom_site_fract_y
_atom_site_fract_z
Cl1 Cl 0.40095(3) 0.22176(5) 0.366554(17)
O1 O 0.22299(9) -0.02143(16) 0.50828(5)
O2 O 0.54035(10) 0.30848(16) 0.50197(5)
H1 H 0.6031(17) 0.374(3) 0.5062(9)
N1 N 0.28697(11) 0.00873(19) 0.29941(6)
N2 N 0.37705(11) 0.10901(18) 0.49325(6)
H2 H 0.4190(16) 0.138(3) 0.4664(9)
C1 C 0.30969(12) 0.0536(2) 0.35727(7)
C2 C 0.26634(12) -0.0197(2) 0.40641(7)
C3 C 0.19379(13) -0.1511(2) 0.39091(7)
H3 H 0.1606 -0.2059 0.4219
C4 C 0.16958(14) -0.2026(2) 0.33072(8)
H4 H 0.1211 -0.2933 0.3201
C5 C 0.21761(14) -0.1190(2) 0.28671(8)
H5 H 0.2007 -0.1535 0.2455
C6 C 0.28687(12) 0.02430(19) 0.47349(7)
C7 C 0.41435(12) 0.1665(2) 0.55294(7)
C8 C 0.50337(13) 0.2750(2) 0.55589(7)
C9 C 0.54891(13) 0.3400(2) 0.61144(7)
H6 H 0.6086 0.4147 0.6133
C10 C 0.50672(13) 0.2956(2) 0.66446(7)
H7 H 0.5379 0.3398 0.7026
C11 C 0.41938(13) 0.1869(2) 0.66182(7)
H8 H 0.3914 0.1563 0.6982
C12 C 0.37239(13) 0.1225(2) 0.60595(7)
H9 H 0.3121 0.0490 0.6042
loop_
_geom_bond_atom_site_label_1
_geom_bond_atom_site_label_2
_geom_bond_site_symmetry_1
_geom_bond_site_symmetry_2
Cl1 C1 1_555 1_555
O1 C6 1_555 1_555
O2 H1 1_555 1_555
N1 C1 1_555 1_555
N2 H2 1_555 1_555
C1 C2 1_555 1_555
C2 C3 1_555 1_555
C3 H3 1_555 1_555
C4 C3 1_555 1_555
H4 C4 1_555 1_555
C5 N1 1_555 1_555
H5 C5 1_555 1_555
C6 N2 1_555 1_555
C7 N2 1_555 1_555
C8 O2 1_555 1_555
C9 C8 1_555 1_555
H6 C9 1_555 1_555
C10 C9 1_555 1_555
H7 C10 1_555 1_555
C11 C10 1_555 1_555
H8 C11 1_555 1_555
C12 C7 1_555 1_555
H9 C12 1_555 1_555
C2 C6 1_555 1_555
C4 C5 1_555 1_555
C7 C8 1_555 1_555
C11 C12 1_555 1_555

#END
