
#######################################################################
#
#                 Cambridge Crystallographic Data Centre
#                                CCDC 
#
#######################################################################
#
# If this CIF has been generated from an entry in the Cambridge 
# Structural Database, then it will include bibliographic, chemical, 
# crystal, experimental, refinement or atomic coordinate data resulting 
# from the CCDC's data processing and validation procedures.
#
#######################################################################

data_QEKNIG
_chemical_formula_moiety         'C12 H16 N1 O1 1+,Cl1 1-'
_chemical_name_systematic        '2-benzoylpiperidinium chloride'
_symmetry_cell_setting           monoclinic
_symmetry_space_group_name_H-M   'P 21'
_symmetry_Int_Tables_number      4
_space_group_name_Hall           'P 2yb'
loop_
_symmetry_equiv_pos_site_id
_symmetry_equiv_pos_as_xyz
1 x,y,z
2 -x,1/2+y,-z
_cell_length_a                   6.0850(3)
_cell_length_b                   9.8723(5)
_cell_length_c                   10.0281(5)
_cell_angle_alpha                90
_cell_angle_beta                 98.164(2)
_cell_angle_gamma                90
_cell_volume                     596.312
_exptl_crystal_colour            colorless
_exptl_crystal_description       prismatic
_cell_formula_units_Z            2
loop_
_atom_site_label
_atom_site_type_symbol
_atom_site_fract_x
_atom_site_fract_y
_atom_site_fract_z
Cl1 Cl 0.53009(7) 0.71626(5) 0.35787(4)
O1 O 0.6406(2) 0.85785(15) 0.68113(14)
N1 N 0.6646(2) 1.00654(15) 0.47025(15)
H1 H 0.575(3) 1.053(2) 0.5109(19)
H2 H 0.616(3) 0.924(2) 0.4521(19)
C1 C 0.8757(3) 0.99152(16) 0.56525(16)
H3 H 0.9308 1.0816 0.5943
C2 C 1.0489(3) 0.92058(18) 0.49356(17)
H4 H 1.1890 0.9169 0.5532
H5 H 1.0016 0.8283 0.4722
C3 C 1.0820(3) 0.9941(2) 0.36453(17)
H6 H 1.1864 0.9441 0.3188
H7 H 1.1438 1.0833 0.3865
C4 C 0.8625(3) 1.00820(19) 0.27169(17)
H8 H 0.8854 1.0599 0.1926
H9 H 0.8087 0.9191 0.2422
C5 C 0.6913(3) 1.07801(18) 0.34228(18)
H10 H 0.7365 1.1709 0.3620
H11 H 0.5502 1.0795 0.2836
C6 C 0.8202(3) 0.91295(17) 0.68767(17)
C7 C 0.9898(3) 0.90237(19) 0.80904(17)
C8 C 1.1837(3) 0.9776(2) 0.82552(19)
H12 H 1.2093 1.0395 0.7595
C9 C 1.3400(4) 0.9618(3) 0.9392(2)
H13 H 1.4685 1.0140 0.9501
C10 C 1.3045(5) 0.8685(3) 1.0357(2)
H14 H 1.4113 0.8555 1.1107
C11 C 1.1135(5) 0.7954(3) 1.0218(2)
H15 H 1.0894 0.7339 1.0886
C12 C 0.9534(4) 0.8110(2) 0.9092(2)
H16 H 0.8229 0.7607 0.9009
loop_
_geom_bond_atom_site_label_1
_geom_bond_atom_site_label_2
_geom_bond_site_symmetry_1
_geom_bond_site_symmetry_2
O1 C6 1_555 1_555
N1 H1 1_555 1_555
H2 N1 1_555 1_555
C1 N1 1_555 1_555
H3 C1 1_555 1_555
C2 C1 1_555 1_555
H4 C2 1_555 1_555
H5 C2 1_555 1_555
C3 C2 1_555 1_555
H6 C3 1_555 1_555
H7 C3 1_555 1_555
C4 C3 1_555 1_555
H8 C4 1_555 1_555
H9 C4 1_555 1_555
C5 N1 1_555 1_555
H10 C5 1_555 1_555
H11 C5 1_555 1_555
C6 C1 1_555 1_555
C7 C6 1_555 1_555
C8 C7 1_555 1_555
H12 C8 1_555 1_555
C9 C8 1_555 1_555
H13 C9 1_555 1_555
C10 C9 1_555 1_555
H14 C10 1_555 1_555
C11 C10 1_555 1_555
H15 C11 1_555 1_555
C12 C7 1_555 1_555
H16 C12 1_555 1_555
C4 C5 1_555 1_555
C11 C12 1_555 1_555

#END
