
#######################################################################
#
#                 Cambridge Crystallographic Data Centre
#                                CCDC 
#
#######################################################################
#
# If this CIF has been generated from an entry in the Cambridge 
# Structural Database, then it will include bibliographic, chemical, 
# crystal, experimental, refinement or atomic coordinate data resulting 
# from the CCDC's data processing and validation procedures.
#
#######################################################################

data_QEKNOK
_chemical_formula_moiety         'C12 H8 N2 O1 S1'
_chemical_name_systematic        Pyrido(2,3,b)(1,5)benzothiazepin-5(H)-one
_symmetry_cell_setting           monoclinic
_symmetry_space_group_name_H-M   'P 21/c'
_symmetry_Int_Tables_number      14
_space_group_name_Hall           '-P 2ybc'
loop_
_symmetry_equiv_pos_site_id
_symmetry_equiv_pos_as_xyz
1 x,y,z
2 -x,1/2+y,1/2-z
3 -x,-y,-z
4 x,1/2-y,1/2+z
_cell_length_a                   4.3210(2)
_cell_length_b                   25.8549(18)
_cell_length_c                   9.3805(7)
_cell_angle_alpha                90.00
_cell_angle_beta                 101.525(4)
_cell_angle_gamma                90.00
_cell_volume                     1026.85
_chemical_melting_point          '263-264 deg.C'
_cell_formula_units_Z            4
_exptl_crystal_recrystallization_method ethanol
loop_
_atom_site_label
_atom_site_type_symbol
_atom_site_fract_x
_atom_site_fract_y
_atom_site_fract_z
S1 S 0.25710(15) 0.33997(2) 0.19896(7)
O1 O -0.1101(5) 0.44817(7) -0.12599(19)
N1 N -0.0580(5) 0.44533(8) 0.1167(2)
H1 H -0.020(6) 0.4787(11) 0.111(3)
N2 N -0.1171(5) 0.27685(8) 0.0226(2)
C1 C -0.2141(6) 0.36708(9) -0.0333(3)
C2 C -0.4552(6) 0.35388(9) -0.1501(3)
H2 H -0.5697 0.3800 -0.2095
C3 C -0.5252(6) 0.30232(10) -0.1780(3)
H3 H -0.6916 0.2923 -0.2555
C4 C -0.3474(6) 0.26556(10) -0.0907(3)
H4 H -0.3917 0.2301 -0.1128
C5 C -0.0571(5) 0.32702(9) 0.0503(3)
C6 C -0.1212(6) 0.42269(9) -0.0154(3)
C7 C -0.0804(6) 0.42537(9) 0.2553(3)
C8 C -0.2239(6) 0.45622(10) 0.3449(3)
H5 H -0.3143 0.4885 0.3106
C9 C -0.2343(6) 0.43960(10) 0.4846(3)
H6 H -0.3278 0.4610 0.5467
C10 C -0.1097(6) 0.39221(10) 0.5338(3)
H7 H -0.1195 0.3809 0.6291
C11 C 0.0294(6) 0.36122(10) 0.4442(3)
H8 H 0.1109 0.3283 0.4774
C12 C 0.0507(5) 0.37804(9) 0.3054(3)
loop_
_geom_bond_atom_site_label_1
_geom_bond_atom_site_label_2
_geom_bond_site_symmetry_1
_geom_bond_site_symmetry_2
S1 C5 1_555 1_555
O1 C6 1_555 1_555
N1 H1 1_555 1_555
N2 C4 1_555 1_555
C1 C2 1_555 1_555
C2 H2 1_555 1_555
C3 C2 1_555 1_555
H3 C3 1_555 1_555
C4 C3 1_555 1_555
H4 C4 1_555 1_555
C5 N2 1_555 1_555
C6 N1 1_555 1_555
C7 N1 1_555 1_555
C8 C7 1_555 1_555
H5 C8 1_555 1_555
C9 C8 1_555 1_555
H6 C9 1_555 1_555
C10 C9 1_555 1_555
H7 C10 1_555 1_555
C11 C10 1_555 1_555
H8 C11 1_555 1_555
C12 S1 1_555 1_555
C1 C5 1_555 1_555
C1 C6 1_555 1_555
C7 C12 1_555 1_555
C11 C12 1_555 1_555

#END
