
#######################################################################
#
#                 Cambridge Crystallographic Data Centre
#                                CCDC 
#
#######################################################################
#
# If this CIF has been generated from an entry in the Cambridge 
# Structural Database, then it will include bibliographic, chemical, 
# crystal, experimental, refinement or atomic coordinate data resulting 
# from the CCDC's data processing and validation procedures.
#
#######################################################################

data_QEKVOR
_chemical_formula_moiety         'C24 H31 Cl1 O5'
_chemical_name_systematic        
'Ethyl 8-chloro-3-isopropyl-5,5,11a-trimethyl-9-oxo-6a,7,7a,8,9,10,11,11a-octahydrophenanthro(1,10-de)(1,3)dioxine-8-carboxylate'
_symmetry_cell_setting           monoclinic
_symmetry_space_group_name_H-M   'P 21/n'
_symmetry_Int_Tables_number      14
_space_group_name_Hall           '-P 2yn'
loop_
_symmetry_equiv_pos_site_id
_symmetry_equiv_pos_as_xyz
1 x,y,z
2 1/2-x,1/2+y,1/2-z
3 -x,-y,-z
4 1/2+x,1/2-y,1/2+z
_cell_length_a                   9.627(2)
_cell_length_b                   24.351(3)
_cell_length_c                   10.437(2)
_cell_angle_alpha                90
_cell_angle_beta                 109.66(2)
_cell_angle_gamma                90
_cell_volume                     2304.09
_exptl_crystal_colour            colorless
_cell_formula_units_Z            4
loop_
_atom_site_label
_atom_site_type_symbol
_atom_site_fract_x
_atom_site_fract_y
_atom_site_fract_z
Cl1 Cl -0.07655(7) 0.02898(3) 0.16463(8)
O1 O 0.1610(2) 0.21070(7) 0.0578(2)
O2 O 0.3184(2) 0.22534(9) -0.0695(3)
O3 O 0.0773(2) -0.07129(8) 0.1808(3)
O4 O 0.1884(3) -0.00632(10) 0.4728(2)
O5 O 0.1182(2) 0.08138(9) 0.4245(2)
C1 C 0.3647(3) 0.05890(10) 0.2137(2)
C2 C 0.1943(2) 0.06554(9) 0.1696(2)
C3 C 0.1209(3) 0.02411(10) 0.2411(3)
C4 C 0.1676(3) -0.0352(1) 0.2181(3)
C5 C 0.3282(3) -0.0435(1) 0.2447(4)
C6 C 0.3958(3) -0.0001(1) 0.1777(3)
C7 C 0.4446(3) 0.0703(1) 0.3670(3)
C8 C 0.1482(3) 0.0312(1) 0.3936(3)
C9 C 0.1171(5) 0.0916(2) 0.5636(4)
C10 C 0.2653(6) 0.1030(2) 0.6560(5)
C11 C 0.1497(2) 0.12558(10) 0.1700(3)
C12 C 0.1830(2) 0.15263(9) 0.0543(2)
C13 C 0.1796(3) 0.2388(1) -0.0541(3)
C14 C 0.1898(6) 0.2990(2) -0.0192(5)
C15 C 0.0637(5) 0.2260(2) -0.1851(4)
C16 C 0.4016(3) 0.18232(10) 0.0005(3)
C17 C 0.5469(3) 0.1801(1) 0.0060(3)
C18 C 0.6292(3) 0.1361(1) 0.0751(3)
C19 C 0.5706(3) 0.0972(1) 0.1385(3)
C20 C 0.4249(2) 0.09981(10) 0.1343(2)
C21 C 0.3390(2) 0.14319(9) 0.0611(2)
C22 C 0.6126(3) 0.2239(1) -0.0611(4)
C23 C 0.7681(7) 0.2417(3) 0.0304(7)
C24 C 0.6119(9) 0.2080(2) -0.1953(6)
H1 H 0.562(4) 0.074(1) 0.380(3)
H2 H 0.428(4) 0.047(1) 0.428(4)
H3 H 0.424(3) 0.109(2) 0.401(3)
H4 H 0.310(5) 0.059(2) 0.643(5)
H5 H 0.272(5) 0.144(2) 0.604(5)
H6 H 0.302(5) 0.113(2) 0.775(5)
H7 H 0.248(5) 0.309(2) 0.057(5)
H8 H 0.207(4) 0.324(2) -0.094(4)
H9 H 0.102(4) 0.308(2) 0.001(4)
H10 H -0.031(5) 0.234(2) -0.174(4)
H11 H 0.072(5) 0.247(2) -0.259(5)
H12 H 0.068(4) 0.185(2) -0.219(4)
H13 H 0.793(7) 0.206(3) -0.012(7)
H14 H 0.817(6) 0.268(2) -0.028(6)
H15 H 0.742(6) 0.252(2) 0.123(6)
H16 H 0.511(5) 0.193(2) -0.248(5)
H17 H 0.634(5) 0.238(2) -0.244(5)
H18 H 0.649(6) 0.178(2) -0.185(6)
H19 H 0.1589 0.0549 0.0770
H20 H 0.3762 -0.0429 0.3402
H21 H 0.3398 -0.0787 0.2101
H22 H 0.3550 -0.0040 0.0820
H23 H 0.4987 -0.0054 0.2073
H24 H 0.0552 0.1206 0.5642
H25 H 0.0836 0.0585 0.5947
H26 H 0.0474 0.1285 0.1573
H27 H 0.2052 0.1427 0.2532
H28 H 0.1173 0.1381 -0.0301
H29 H 0.7301 0.1331 0.0801
H30 H 0.6300 0.0675 0.1859
H31 H 0.5529 0.2556 -0.0737
loop_
_geom_bond_atom_site_label_1
_geom_bond_atom_site_label_2
_geom_bond_site_symmetry_1
_geom_bond_site_symmetry_2
Cl1 C3 1_555 1_555
O1 C12 1_555 1_555
O2 C13 1_555 1_555
O3 C4 1_555 1_555
O4 C8 1_555 1_555
O5 C8 1_555 1_555
C1 C2 1_555 1_555
C2 C3 1_555 1_555
C3 C4 1_555 1_555
C4 C5 1_555 1_555
C5 C6 1_555 1_555
C6 C1 1_555 1_555
C7 C1 1_555 1_555
C8 C3 1_555 1_555
C9 O5 1_555 1_555
C10 C9 1_555 1_555
C11 C2 1_555 1_555
C12 C11 1_555 1_555
C13 O1 1_555 1_555
C14 C13 1_555 1_555
C15 C13 1_555 1_555
C16 O2 1_555 1_555
C17 C16 1_555 1_555
C18 C17 1_555 1_555
C19 C18 1_555 1_555
C20 C1 1_555 1_555
C21 C12 1_555 1_555
C22 C17 1_555 1_555
C23 C22 1_555 1_555
C24 C22 1_555 1_555
H1 C7 1_555 1_555
H2 C7 1_555 1_555
H3 C7 1_555 1_555
H4 C10 1_555 1_555
H5 C10 1_555 1_555
H6 C10 1_555 1_555
H7 C14 1_555 1_555
H8 C14 1_555 1_555
H9 C14 1_555 1_555
H10 C15 1_555 1_555
H11 C15 1_555 1_555
H12 C15 1_555 1_555
H13 C23 1_555 1_555
H14 C23 1_555 1_555
H15 C23 1_555 1_555
H16 C24 1_555 1_555
H17 C24 1_555 1_555
H18 C24 1_555 1_555
H19 C2 1_555 1_555
H20 C5 1_555 1_555
H21 C5 1_555 1_555
H22 C6 1_555 1_555
H23 C6 1_555 1_555
H24 C9 1_555 1_555
H25 C9 1_555 1_555
H26 C11 1_555 1_555
H27 C11 1_555 1_555
H28 C12 1_555 1_555
H29 C18 1_555 1_555
H30 C19 1_555 1_555
H31 C22 1_555 1_555
C16 C21 1_555 1_555
C19 C20 1_555 1_555
C20 C21 1_555 1_555

#END
