
#######################################################################
#
#                 Cambridge Crystallographic Data Centre
#                                CCDC 
#
#######################################################################
#
# If this CIF has been generated from an entry in the Cambridge 
# Structural Database, then it will include bibliographic, chemical, 
# crystal, experimental, refinement or atomic coordinate data resulting 
# from the CCDC's data processing and validation procedures.
#
#######################################################################

data_QEKWIM
_chemical_formula_moiety         'C27 H31 Cl1 N4 O8'
_chemical_name_systematic        
'2-Chloro-2-(ethoxycarbonyl)-3-((2-hydroxy-3-isopropylphenyl)carbonylmethyl)-4-methylcyclohexanone N-(2,4-dinitrophenyl)hydrazone'
_symmetry_cell_setting           triclinic
_symmetry_space_group_name_H-M   'P -1'
_symmetry_Int_Tables_number      2
_space_group_name_Hall           '-P 1'
loop_
_symmetry_equiv_pos_site_id
_symmetry_equiv_pos_as_xyz
1 x,y,z
2 -x,-y,-z
_cell_length_a                   6.289(2)
_cell_length_b                   10.616(2)
_cell_length_c                   22.175(3)
_cell_angle_alpha                82.37(2)
_cell_angle_beta                 86.66(2)
_cell_angle_gamma                75.17(2)
_cell_volume                     1418.05
_exptl_crystal_colour            yellow
_cell_formula_units_Z            2
loop_
_atom_site_label
_atom_site_type_symbol
_atom_site_fract_x
_atom_site_fract_y
_atom_site_fract_z
Cl1 Cl 0.3988(4) 0.7137(3) 0.2531(1)
O1 O 0.7442(10) 0.1821(7) 0.4294(3)
O2 O 0.567(1) 0.3309(8) 0.3382(3)
O3 O -0.1334(10) 0.7224(6) 0.3070(3)
O4 O -0.079(1) 0.8477(8) 0.2218(4)
O5 O 0.992(2) 0.944(1) -0.0609(5)
O6 O 0.852(2) 0.892(1) -0.1362(5)
O7 O 0.369(2) 0.6178(9) -0.1068(4)
O8 O 0.194(1) 0.5898(8) -0.0232(3)
N1 N 0.298(1) 0.6833(7) 0.1354(3)
N2 N 0.288(1) 0.6751(8) 0.0749(3)
N3 N 0.866(2) 0.8943(10) -0.0821(5)
N4 N 0.333(2) 0.6354(9) -0.0543(4)
C1 C 0.041(1) 0.4363(9) 0.2608(4)
C2 C 0.030(2) 0.434(1) 0.1903(5)
C3 C -0.010(1) 0.569(1) 0.1580(4)
C4 C 0.163(1) 0.6380(8) 0.1713(4)
C5 C 0.177(1) 0.6442(8) 0.2388(3)
C6 C 0.217(1) 0.5047(8) 0.2740(4)
C7 C 0.243(1) 0.5067(9) 0.3430(4)
C8 C 0.418(1) 0.394(1) 0.3719(4)
C9 C 0.430(2) 0.360(1) 0.4372(4)
C10 C 0.298(2) 0.444(1) 0.4759(6)
C11 C 0.302(2) 0.411(1) 0.5405(5)
C12 C 0.460(2) 0.298(1) 0.5647(5)
C13 C 0.596(2) 0.2153(10) 0.5277(4)
C14 C 0.587(1) 0.2524(9) 0.4638(4)
C15 C 0.088(2) 0.296(1) 0.2927(5)
C16 C -0.031(1) 0.7404(9) 0.2613(5)
C17 C -0.216(4) 0.990(3) 0.2550(9)
C18 C -0.329(4) 1.008(3) 0.210(1)
C19 C 0.428(1) 0.7298(9) 0.0361(4)
C20 C 0.450(1) 0.7125(10) -0.0271(4)
C21 C 0.593(2) 0.7717(10) -0.0647(4)
C22 C 0.715(2) 0.838(1) -0.0416(5)
C23 C 0.703(1) 0.8546(10) 0.0194(5)
C24 C 0.561(2) 0.800(1) 0.0591(4)
C25 C 0.768(2) 0.0998(9) 0.5528(4)
C26 C 0.955(3) 0.151(1) 0.5688(8)
C27 C 0.712(3) 0.028(2) 0.6115(9)
H1 H 0.71(2) 0.18(1) 0.391(6)
H2 H 0.21(2) 0.63(1) 0.063(5)
H3 H -0.0965 0.4838 0.2750
H4 H 0.1669 0.3832 0.1759
H5 H -0.0846 0.3966 0.1824
H6 H -0.0080 0.5635 0.1155
H7 H -0.1508 0.6170 0.1704
H8 H 0.3529 0.4550 0.2593
H9 H 0.2789 0.5869 0.3480
H10 H 0.1065 0.5051 0.3633
H11 H 0.2028 0.5254 0.4590
H12 H 0.1992 0.4626 0.5661
H13 H 0.4745 0.2809 0.6076
H14 H -0.0224 0.2561 0.2840
H15 H 0.2280 0.2472 0.2793
H16 H 0.0912 0.2976 0.3357
H17 H -0.2923 0.9653 0.2908
H18 H -0.1286 1.0417 0.2590
H19 H -0.4366 1.0960 0.2131
H20 H -0.2422 1.0259 0.1734
H21 H -0.4058 0.9494 0.2052
H22 H 0.5997 0.7647 -0.1072
H23 H 0.7900 0.9050 0.0341
H24 H 0.5559 0.8085 0.1011
H25 H 0.8145 0.0412 0.5230
H26 H 1.0760 0.0795 0.5832
H27 H 1.0053 0.2001 0.5343
H28 H 0.9114 0.2063 0.6004
H29 H 0.6689 0.0841 0.6413
H30 H 0.5902 -0.0100 0.6049
H31 H 0.8334 -0.0429 0.6242
loop_
_geom_bond_atom_site_label_1
_geom_bond_atom_site_label_2
_geom_bond_site_symmetry_1
_geom_bond_site_symmetry_2
Cl1 C5 1_555 1_555
O1 C14 1_555 1_555
O2 C8 1_555 1_555
O3 C16 1_555 1_555
O4 C16 1_555 1_555
O5 N3 1_555 1_555
O6 N3 1_555 1_555
O7 N4 1_555 1_555
O8 N4 1_555 1_555
N1 N2 1_555 1_555
N2 C19 1_555 1_555
N3 C22 1_555 1_555
N4 C20 1_555 1_555
C1 C2 1_555 1_555
C2 C3 1_555 1_555
C3 C4 1_555 1_555
C4 N1 1_555 1_555
C5 C4 1_555 1_555
C6 C1 1_555 1_555
C7 C6 1_555 1_555
C8 C7 1_555 1_555
C9 C8 1_555 1_555
C10 C9 1_555 1_555
C11 C10 1_555 1_555
C12 C11 1_555 1_555
C13 C12 1_555 1_555
C14 C9 1_555 1_555
C15 C1 1_555 1_555
C16 C5 1_555 1_555
C17 O4 1_555 1_555
C18 C17 1_555 1_555
C19 C20 1_555 1_555
C20 C21 1_555 1_555
C21 C22 1_555 1_555
C22 C23 1_555 1_555
C23 C24 1_555 1_555
C24 C19 1_555 1_555
C25 C13 1_555 1_555
C26 C25 1_555 1_555
C27 C25 1_555 1_555
H1 O1 1_555 1_555
H2 N2 1_555 1_555
H3 C1 1_555 1_555
H4 C2 1_555 1_555
H5 C2 1_555 1_555
H6 C3 1_555 1_555
H7 C3 1_555 1_555
H8 C6 1_555 1_555
H9 C7 1_555 1_555
H10 C7 1_555 1_555
H11 C10 1_555 1_555
H12 C11 1_555 1_555
H13 C12 1_555 1_555
H14 C15 1_555 1_555
H15 C15 1_555 1_555
H16 C15 1_555 1_555
H17 C17 1_555 1_555
H18 C17 1_555 1_555
H19 C18 1_555 1_555
H20 C18 1_555 1_555
H21 C18 1_555 1_555
H22 C21 1_555 1_555
H23 C23 1_555 1_555
H24 C24 1_555 1_555
H25 C25 1_555 1_555
H26 C26 1_555 1_555
H27 C26 1_555 1_555
H28 C26 1_555 1_555
H29 C27 1_555 1_555
H30 C27 1_555 1_555
H31 C27 1_555 1_555
C5 C6 1_555 1_555
C13 C14 1_555 1_555

#END
