
#######################################################################
#
#                 Cambridge Crystallographic Data Centre
#                                CCDC 
#
#######################################################################
#
# If this CIF has been generated from an entry in the Cambridge 
# Structural Database, then it will include bibliographic, chemical, 
# crystal, experimental, refinement or atomic coordinate data resulting 
# from the CCDC's data processing and validation procedures.
#
#######################################################################

data_QEKWIN
_chemical_formula_moiety         
'C22 H31 N6 O4 S1 1+,C7 H4 N1 O3 S1 1-,C1 H3 N1 O1'
_chemical_name_systematic        'Sildenafil saccharinate formamide clathrate'
_symmetry_cell_setting           triclinic
_symmetry_space_group_name_H-M   'P -1'
_symmetry_Int_Tables_number      2
_space_group_name_Hall           '-P 1'
loop_
_symmetry_equiv_pos_site_id
_symmetry_equiv_pos_as_xyz
1 x,y,z
2 -x,-y,-z
_cell_length_a                   9.7746(8)
_cell_length_b                   12.1473(10)
_cell_length_c                   14.4824(12)
_cell_angle_alpha                87.0150(10)
_cell_angle_beta                 75.2760(10)
_cell_angle_gamma                88.6890(10)
_cell_volume                     1660.76
_exptl_crystal_colour            colorless
_exptl_crystal_description       Block
_cell_formula_units_Z            2
loop_
_atom_site_label
_atom_site_type_symbol
_atom_site_fract_x
_atom_site_fract_y
_atom_site_fract_z
S1 S 0.70631(5) 0.02407(4) 0.13560(3)
O1 O 0.41702(15) 0.32047(11) 0.43319(9)
N1 N 0.67610(15) 0.05844(12) 0.49352(10)
O2 O 0.52364(16) 0.28426(13) 0.69968(10)
N2 N 0.54201(17) 0.21434(13) 0.55421(11)
C1 C 0.59565(18) 0.14209(14) 0.48261(12)
O3 O 0.74004(18) -0.07900(11) 0.17760(11)
O4 O 0.64011(17) 0.02551(13) 0.05858(10)
C2 C 0.56270(18) 0.16317(14) 0.38848(12)
C3 C 0.70342(18) 0.04643(14) 0.58219(12)
C4 C 0.4554(2) 0.25992(16) 0.27289(13)
H1 H 0.3959 0.3155 0.2587
N3 N 0.85851(17) 0.08803(13) 0.09355(10)
N4 N 0.69946(17) 0.07623(13) 0.73180(11)
N5 N 0.78450(18) -0.01324(13) 0.70801(11)
C5 C 0.64965(18) 0.11499(15) 0.65709(12)
C6 C 0.62584(19) 0.09141(15) 0.31734(13)
H2 H 0.6820 0.0334 0.3315
C7 C 0.6065(2) 0.10510(15) 0.22626(13)
C8 C 0.78871(19) -0.03232(15) 0.61743(13)
N6 N 1.09106(18) 0.23647(15) 0.05655(12)
C9 C 0.56689(19) 0.21084(15) 0.64443(13)
C10 C 0.47748(18) 0.24944(15) 0.36409(13)
C11 C 0.5202(2) 0.18944(17) 0.20356(13)
H3 H 0.5067 0.1980 0.1423
C12 C 0.9484(2) 0.09224(18) 0.16083(13)
H4 H 0.9526 0.0201 0.1921
H5 H 0.9085 0.1441 0.2095
C13 C 0.8488(2) 0.19708(17) 0.04583(14)
H6 H 0.8074 0.2502 0.0931
H7 H 0.7887 0.1930 0.0022
C14 C 0.9948(2) 0.23332(19) -0.00849(15)
H8 H 1.0331 0.1827 -0.0585
H9 H 0.9892 0.3060 -0.0385
C15 C 0.3526(3) 0.42124(18) 0.40635(15)
H10 H 0.2778 0.4046 0.3764
H11 H 0.4226 0.4658 0.3613
C16 C 0.8749(2) -0.12445(16) 0.56604(14)
H12 H 0.9315 -0.0952 0.5050
H13 H 0.8111 -0.1782 0.5531
C17 C 1.0953(2) 0.12760(18) 0.10740(15)
H14 H 1.1539 0.1321 0.1520
H15 H 1.1372 0.0731 0.0616
C18 C 0.9716(3) -0.18227(19) 0.61927(16)
H16 H 0.9153 -0.2116 0.6803
H17 H 1.0359 -0.1288 0.6320
C19 C 1.0576(3) -0.2756(2) 0.56601(17)
H18 H 0.9950 -0.3309 0.5561
H19 H 1.1187 -0.3074 0.6029
H20 H 1.1137 -0.2474 0.5053
C20 C 0.6699(3) 0.11555(19) 0.82821(14)
H21 H 0.5986 0.1724 0.8356
H22 H 0.7547 0.1446 0.8390
H23 H 0.6368 0.0556 0.8737
C21 C 1.2355(3) 0.2742(2) 0.00657(19)
H24 H 1.2790 0.2226 -0.0404
H25 H 1.2911 0.2790 0.0521
H26 H 1.2298 0.3454 -0.0243
C22 C 0.2935(3) 0.4821(2) 0.49511(18)
H27 H 0.2215 0.4386 0.5381
H28 H 0.2533 0.5510 0.4788
H29 H 0.3677 0.4958 0.5254
H30 H 1.058(3) 0.289(2) 0.1011(18)
H31 H 0.489(3) 0.266(2) 0.5403(16)
S2 S 0.83553(6) 0.46321(4) 0.19796(4)
O5 O 1.19592(17) 0.41157(14) 0.21936(13)
C23 C 1.0253(2) 0.55998(16) 0.25336(13)
N7 N 0.9804(2) 0.39326(14) 0.18889(13)
C24 C 0.8908(2) 0.58170(15) 0.24344(13)
C25 C 1.0765(2) 0.44816(17) 0.21989(14)
C26 C 0.8197(2) 0.67957(18) 0.26771(16)
H32 H 0.7292 0.6926 0.2596
C27 C 0.8893(3) 0.75730(18) 0.30458(17)
H33 H 0.8449 0.8244 0.3219
O6 O 0.8116(2) 0.48647(16) 0.10575(15)
C28 C 1.0236(3) 0.73700(19) 0.31607(17)
H34 H 1.0678 0.7906 0.3415
O7 O 0.7212(2) 0.41313(16) 0.26838(17)
C29 C 1.0937(2) 0.63926(19) 0.29069(17)
H35 H 1.1845 0.6266 0.2983
O8 O 0.4422(3) 0.6944(3) 0.0142(2)
N8 N 0.4341(4) 0.5666(3) 0.1303(2)
H36 H 0.4999 0.5968 0.1496
H37 H 0.3953 0.5070 0.1589
C30 C 0.3936(4) 0.6106(3) 0.0586(2)
H38 H 0.3222 0.5758 0.0397
loop_
_geom_bond_atom_site_label_1
_geom_bond_atom_site_label_2
_geom_bond_site_symmetry_1
_geom_bond_site_symmetry_2
S1 O3 1_555 1_555
O1 C10 1_555 1_555
N1 C1 1_555 1_555
O2 C9 1_555 1_555
N2 C1 1_555 1_555
C1 C2 1_555 1_555
O4 S1 1_555 1_555
C2 C6 1_555 1_555
C3 N1 1_555 1_555
C4 H1 1_555 1_555
N3 S1 1_555 1_555
N4 N5 1_555 1_555
N5 C8 1_555 1_555
C5 C3 1_555 1_555
C6 H2 1_555 1_555
C7 S1 1_555 1_555
C8 C3 1_555 1_555
N6 C14 1_555 1_555
C9 N2 1_555 1_555
C10 C2 1_555 1_555
C11 C4 1_555 1_555
H3 C11 1_555 1_555
C12 N3 1_555 1_555
H4 C12 1_555 1_555
H5 C12 1_555 1_555
C13 N3 1_555 1_555
H6 C13 1_555 1_555
H7 C13 1_555 1_555
C14 C13 1_555 1_555
H8 C14 1_555 1_555
H9 C14 1_555 1_555
C15 O1 1_555 1_555
H10 C15 1_555 1_555
H11 C15 1_555 1_555
C16 C8 1_555 1_555
H12 C16 1_555 1_555
H13 C16 1_555 1_555
C17 N6 1_555 1_555
H14 C17 1_555 1_555
H15 C17 1_555 1_555
C18 C16 1_555 1_555
H16 C18 1_555 1_555
H17 C18 1_555 1_555
C19 C18 1_555 1_555
H18 C19 1_555 1_555
H19 C19 1_555 1_555
H20 C19 1_555 1_555
C20 N4 1_555 1_555
H21 C20 1_555 1_555
H22 C20 1_555 1_555
H23 C20 1_555 1_555
C21 N6 1_555 1_555
H24 C21 1_555 1_555
H25 C21 1_555 1_555
H26 C21 1_555 1_555
C22 C15 1_555 1_555
H27 C22 1_555 1_555
H28 C22 1_555 1_555
H29 C22 1_555 1_555
H30 N6 1_555 1_555
H31 N2 1_555 1_555
S2 N7 1_555 1_555
O5 C25 1_555 1_555
C23 C24 1_555 1_555
N7 C25 1_555 1_555
C24 S2 1_555 1_555
C25 C23 1_555 1_555
C26 C24 1_555 1_555
H32 C26 1_555 1_555
C27 C26 1_555 1_555
H33 C27 1_555 1_555
O6 S2 1_555 1_555
C28 C27 1_555 1_555
H34 C28 1_555 1_555
O7 S2 1_555 1_555
C29 C23 1_555 1_555
H35 C29 1_555 1_555
O8 C30 1_555 1_555
N8 H36 1_555 1_555
H37 N8 1_555 1_555
C30 N8 1_555 1_555
H38 C30 1_555 1_555
C4 C10 1_555 1_555
N4 C5 1_555 1_555
C5 C9 1_555 1_555
C6 C7 1_555 1_555
C7 C11 1_555 1_555
C12 C17 1_555 1_555
C28 C29 1_555 1_555

#END
