
#######################################################################
#
#                 Cambridge Crystallographic Data Centre
#                                CCDC 
#
#######################################################################
#
# If this CIF has been generated from an entry in the Cambridge 
# Structural Database, then it will include bibliographic, chemical, 
# crystal, experimental, refinement or atomic coordinate data resulting 
# from the CCDC's data processing and validation procedures.
#
#######################################################################

data_QEKWAE
_chemical_formula_moiety         'C23 H32 O4'
_chemical_name_systematic        
'Ethyl 1,4a-dimethyl-7-isopropyl-8-methoxy-1,1a,2,3,4,4a,9,10-octahydrophenanthren-2-one-1-carboxylate'
_symmetry_cell_setting           monoclinic
_symmetry_space_group_name_H-M   'P 21/n'
_symmetry_Int_Tables_number      14
_space_group_name_Hall           '-P 2yn'
loop_
_symmetry_equiv_pos_site_id
_symmetry_equiv_pos_as_xyz
1 x,y,z
2 1/2-x,1/2+y,1/2-z
3 -x,-y,-z
4 1/2+x,1/2-y,1/2+z
_cell_length_a                   14.826(3)
_cell_length_b                   9.902(2)
_cell_length_c                   15.821(3)
_cell_angle_alpha                90
_cell_angle_beta                 116.15(2)
_cell_angle_gamma                90
_cell_volume                     2084.9
_exptl_crystal_colour            colorless
_cell_formula_units_Z            4
loop_
_atom_site_label
_atom_site_type_symbol
_atom_site_fract_x
_atom_site_fract_y
_atom_site_fract_z
O1 O 0.9124(2) 0.6558(2) 0.5085(2)
O2 O 0.9159(2) 0.9390(2) 0.3965(2)
O3 O 1.0425(2) 0.9166(2) 0.3579(2)
O4 O 1.1003(2) 0.3072(2) 0.1446(2)
C1 C 0.8972(2) 0.6113(3) 0.2434(2)
C2 C 0.8153(2) 0.5658(3) 0.2710(2)
C3 C 0.8052(3) 0.6567(4) 0.3452(2)
C4 C 0.9029(3) 0.6768(3) 0.4296(2)
C5 C 0.9932(2) 0.7199(2) 0.4110(2)
C6 C 0.9963(2) 0.6226(3) 0.3343(2)
C7 C 1.0860(2) 0.6394(3) 0.3116(2)
C8 C 1.0993(2) 0.5112(3) 0.2653(2)
C9 C 1.0027(2) 0.4573(3) 0.1892(2)
C10 C 1.0055(2) 0.3540(3) 0.1293(2)
C11 C 0.9199(2) 0.2920(3) 0.0621(2)
C12 C 0.8285(2) 0.3433(3) 0.0507(2)
C13 C 0.8221(2) 0.4474(3) 0.1068(2)
C14 C 0.9085(2) 0.5033(3) 0.1784(2)
C15 C 0.8653(2) 0.7443(3) 0.1872(2)
C16 C 1.0910(3) 0.7114(4) 0.5025(2)
C17 C 0.9769(2) 0.8697(3) 0.3863(2)
C18 C 1.0387(4) 1.0629(4) 0.3403(4)
C19 C 1.1090(5) 1.0931(5) 0.3027(4)
C20 C 1.1368(3) 0.3638(4) 0.0820(3)
C21 C 0.9239(3) 0.1710(3) 0.0047(3)
C22 C 0.8637(3) 0.0537(4) 0.0147(3)
C23 C 0.8878(4) 0.2066(5) -0.0986(3)
H1 H 0.7530 0.5656 0.2162
H2 H 0.8308 0.4769 0.2957
H3 H 0.7802 0.7419 0.3175
H4 H 0.7595 0.6157 0.3643
H5 H 1.0054 0.5357 0.3617
H6 H 1.0741 0.7141 0.2700
H7 H 1.1449 0.6562 0.3682
H8 H 1.1438 0.5309 0.2385
H9 H 1.1278 0.4445 0.3125
H10 H 0.7683 0.3067 0.0033
H11 H 0.7580 0.4816 0.0961
H12 H 0.8577 0.8126 0.2254
H13 H 0.9156 0.7707 0.1684
H14 H 0.8036 0.7310 0.1329
H15 H 1.1055 0.6199 0.5211
H16 H 1.1448 0.7483 0.4919
H17 H 1.0843 0.7616 0.5503
H18 H 0.9728 1.0874 0.2965
H19 H 1.0569 1.1099 0.3976
H20 H 1.1744 1.0654 0.3467
H21 H 1.0902 1.0439 0.2455
H22 H 1.1081 1.1861 0.2911
H23 H 1.2015 0.3269 0.0964
H24 H 1.0920 0.3412 0.0188
H25 H 1.1417 0.4586 0.0890
H26 H 0.9921 0.1428 0.0285
H27 H 0.7947 0.0771 -0.0110
H28 H 0.8716 -0.0233 -0.0178
H29 H 0.8873 0.0316 0.0796
H30 H 0.9265 0.2809 -0.1037
H31 H 0.8972 0.1313 -0.1313
H32 H 0.8193 0.2308 -0.1255
loop_
_geom_bond_atom_site_label_1
_geom_bond_atom_site_label_2
_geom_bond_site_symmetry_1
_geom_bond_site_symmetry_2
O1 C4 1_555 1_555
O2 C17 1_555 1_555
O3 C17 1_555 1_555
O4 C10 1_555 1_555
C1 C2 1_555 1_555
C2 C3 1_555 1_555
C3 C4 1_555 1_555
C4 C5 1_555 1_555
C5 C6 1_555 1_555
C6 C1 1_555 1_555
C7 C6 1_555 1_555
C8 C7 1_555 1_555
C9 C8 1_555 1_555
C10 C9 1_555 1_555
C11 C10 1_555 1_555
C12 C11 1_555 1_555
C13 C12 1_555 1_555
C14 C1 1_555 1_555
C15 C1 1_555 1_555
C16 C5 1_555 1_555
C17 C5 1_555 1_555
C18 O3 1_555 1_555
C19 C18 1_555 1_555
C20 O4 1_555 1_555
C21 C11 1_555 1_555
C22 C21 1_555 1_555
C23 C21 1_555 1_555
H1 C2 1_555 1_555
H2 C2 1_555 1_555
H3 C3 1_555 1_555
H4 C3 1_555 1_555
H5 C6 1_555 1_555
H6 C7 1_555 1_555
H7 C7 1_555 1_555
H8 C8 1_555 1_555
H9 C8 1_555 1_555
H10 C12 1_555 1_555
H11 C13 1_555 1_555
H12 C15 1_555 1_555
H13 C15 1_555 1_555
H14 C15 1_555 1_555
H15 C16 1_555 1_555
H16 C16 1_555 1_555
H17 C16 1_555 1_555
H18 C18 1_555 1_555
H19 C18 1_555 1_555
H20 C19 1_555 1_555
H21 C19 1_555 1_555
H22 C19 1_555 1_555
H23 C20 1_555 1_555
H24 C20 1_555 1_555
H25 C20 1_555 1_555
H26 C21 1_555 1_555
H27 C22 1_555 1_555
H28 C22 1_555 1_555
H29 C22 1_555 1_555
H30 C23 1_555 1_555
H31 C23 1_555 1_555
H32 C23 1_555 1_555
C9 C14 1_555 1_555
C13 C14 1_555 1_555

#END
