
#######################################################################
#
#                 Cambridge Crystallographic Data Centre
#                                CCDC 
#
#######################################################################
#
# If this CIF has been generated from an entry in the Cambridge 
# Structural Database, then it will include bibliographic, chemical, 
# crystal, experimental, refinement or atomic coordinate data resulting 
# from the CCDC's data processing and validation procedures.
#
#######################################################################

data_QEKWEJ
_chemical_formula_moiety         'C22 H31 N6 O4 S1 1+,C7 H4 N1 O3 S1 1-'
_chemical_name_systematic        'Sildenafil saccharinate'
_symmetry_cell_setting           triclinic
_symmetry_space_group_name_H-M   'P -1'
_symmetry_Int_Tables_number      2
_space_group_name_Hall           '-P 1'
loop_
_symmetry_equiv_pos_site_id
_symmetry_equiv_pos_as_xyz
1 x,y,z
2 -x,-y,-z
_cell_length_a                   10.3848(10)
_cell_length_b                   11.1915(11)
_cell_length_c                   14.3155(14)
_cell_angle_alpha                80.025(2)
_cell_angle_beta                 70.988(2)
_cell_angle_gamma                89.912(2)
_cell_volume                     1546.54
_exptl_crystal_colour            colorless
_exptl_crystal_description       Plate
_cell_formula_units_Z            2
loop_
_atom_site_label
_atom_site_type_symbol
_atom_site_fract_x
_atom_site_fract_y
_atom_site_fract_z
S1 S 0.43705(9) 0.93737(7) 0.38699(6)
N1 N 0.6832(2) 0.9537(2) 0.00525(17)
O1 O 0.3835(2) 0.66564(19) 0.08278(15)
O2 O 0.6656(2) 0.7624(2) -0.21250(16)
N2 N 0.5872(3) 0.8060(2) -0.05450(18)
N3 N 0.5416(2) 0.8610(2) 0.43441(16)
C1 C 0.5013(3) 0.8897(3) 0.1969(2)
H1 H 0.5668 0.9537 0.1791
C2 C 0.7726(3) 0.9815(3) -0.0910(2)
C3 C 0.4929(3) 0.8262(3) 0.1237(2)
N4 N 0.7269(2) 0.6984(2) 0.48985(19)
N5 N 0.9441(3) 1.0655(2) -0.22929(19)
C4 C 0.5925(3) 0.8653(3) 0.0210(2)
C5 C 0.4151(3) 0.8608(3) 0.2953(2)
N6 N 0.8755(2) 0.9766(2) -0.25114(17)
C6 C 0.3926(3) 0.7299(3) 0.1540(2)
O3 O 0.5043(3) 1.05287(18) 0.33710(16)
O4 O 0.3092(2) 0.9290(2) 0.46609(16)
C7 C 0.3161(3) 0.7667(3) 0.3232(2)
H2 H 0.2572 0.7476 0.3891
C8 C 0.6747(3) 0.8254(3) -0.1535(2)
C9 C 0.8831(3) 1.0692(3) -0.1319(2)
C10 C 0.7715(3) 0.9242(3) -0.1693(2)
C11 C 0.4921(3) 0.7398(3) 0.4950(2)
H3 H 0.4917 0.6827 0.4513
H4 H 0.3995 0.7427 0.5396
C12 C 0.6832(3) 0.8623(3) 0.3673(2)
H5 H 0.7132 0.9438 0.3297
H6 H 0.6886 0.8087 0.3198
C13 C 0.3057(3) 0.7023(3) 0.2528(2)
H7 H 0.2394 0.6389 0.2714
C14 C 0.7741(3) 0.8208(3) 0.4285(2)
H8 H 0.8669 0.8189 0.3840
H9 H 0.7737 0.8781 0.4723
C15 C 0.5829(3) 0.6989(3) 0.5553(2)
H10 H 0.5771 0.7528 0.6026
H11 H 0.5520 0.6177 0.5933
C16 C 0.3005(4) 0.5512(3) 0.1175(3)
H12 H 0.3404 0.4933 0.1573
H13 H 0.2093 0.5647 0.1593
C17 C 0.9312(4) 1.1559(3) -0.0806(3)
H14 H 0.8703 1.2221 -0.0741
H15 H 0.9218 1.1143 -0.0132
C18 C 0.9130(4) 0.9574(3) -0.3541(2)
H16 H 0.8613 0.8876 -0.3566
H17 H 1.0086 0.9441 -0.3786
H18 H 0.8938 1.0277 -0.3953
C19 C 0.8162(4) 0.6515(4) 0.5485(3)
H19 H 0.8035 0.6949 0.6028
H20 H 0.9098 0.6625 0.5056
H21 H 0.7933 0.5665 0.5752
C20 C 1.0697(4) 1.2083(4) -0.1270(3)
H22 H 1.0807 1.2486 -0.1951
H23 H 1.1316 1.1430 -0.1314
C21 C 1.1108(4) 1.2983(4) -0.0732(3)
H24 H 1.0540 1.3661 -0.0720
H25 H 1.2044 1.3263 -0.1077
H26 H 1.1003 1.2597 -0.0055
C22 C 0.2942(4) 0.5031(4) 0.0310(3)
H27 H 0.2514 0.5593 -0.0067
H28 H 0.2421 0.4267 0.0534
H29 H 0.3849 0.4916 -0.0109
H30 H 0.735(3) 0.642(3) 0.448(2)
H31 H 0.525(3) 0.746(3) -0.038(2)
S2 S 0.89097(8) 0.45030(8) 0.35091(6)
O5 O 0.5847(2) 0.5635(2) 0.3030(2)
C23 C 0.7302(3) 0.4007(3) 0.2605(2)
C24 C 0.8490(3) 0.3609(3) 0.2746(2)
N7 N 0.7684(3) 0.5391(2) 0.3576(2)
O6 O 0.8766(2) 0.3768(2) 0.44680(17)
C25 C 0.6855(3) 0.5097(3) 0.3084(2)
C26 C 0.6657(4) 0.3380(3) 0.2113(2)
H32 H 0.5844 0.3630 0.2024
O7 O 1.0201(2) 0.5151(3) 0.3016(2)
C27 C 0.7254(5) 0.2379(4) 0.1761(3)
H33 H 0.6836 0.1944 0.1430
C28 C 0.9102(4) 0.2621(3) 0.2378(3)
H34 H 0.9922 0.2377 0.2458
C29 C 0.8461(6) 0.2007(4) 0.1887(3)
H35 H 0.8846 0.1329 0.1636
loop_
_geom_bond_atom_site_label_1
_geom_bond_atom_site_label_2
_geom_bond_site_symmetry_1
_geom_bond_site_symmetry_2
S1 N3 1_555 1_555
N1 C2 1_555 1_555
O1 C6 1_555 1_555
O2 C8 1_555 1_555
N2 C4 1_555 1_555
N3 C11 1_555 1_555
C1 H1 1_555 1_555
C2 C9 1_555 1_555
C3 C1 1_555 1_555
N4 C14 1_555 1_555
N5 N6 1_555 1_555
C4 N1 1_555 1_555
C5 S1 1_555 1_555
N6 C10 1_555 1_555
C6 C3 1_555 1_555
O3 S1 1_555 1_555
O4 S1 1_555 1_555
C7 C5 1_555 1_555
H2 C7 1_555 1_555
C8 N2 1_555 1_555
C9 N5 1_555 1_555
C10 C2 1_555 1_555
C11 H3 1_555 1_555
H4 C11 1_555 1_555
C12 N3 1_555 1_555
H5 C12 1_555 1_555
H6 C12 1_555 1_555
C13 C6 1_555 1_555
H7 C13 1_555 1_555
C14 C12 1_555 1_555
H8 C14 1_555 1_555
H9 C14 1_555 1_555
C15 N4 1_555 1_555
H10 C15 1_555 1_555
H11 C15 1_555 1_555
C16 O1 1_555 1_555
H12 C16 1_555 1_555
H13 C16 1_555 1_555
C17 C9 1_555 1_555
H14 C17 1_555 1_555
H15 C17 1_555 1_555
C18 N6 1_555 1_555
H16 C18 1_555 1_555
H17 C18 1_555 1_555
H18 C18 1_555 1_555
C19 N4 1_555 1_555
H19 C19 1_555 1_555
H20 C19 1_555 1_555
H21 C19 1_555 1_555
C20 C17 1_555 1_555
H22 C20 1_555 1_555
H23 C20 1_555 1_555
C21 C20 1_555 1_555
H24 C21 1_555 1_555
H25 C21 1_555 1_555
H26 C21 1_555 1_555
C22 C16 1_555 1_555
H27 C22 1_555 1_555
H28 C22 1_555 1_555
H29 C22 1_555 1_555
H30 N4 1_555 1_555
H31 N2 1_555 1_555
S2 C24 1_555 1_555
O5 C25 1_555 1_555
C23 C24 1_555 1_555
C24 C28 1_555 1_555
N7 S2 1_555 1_555
O6 S2 1_555 1_555
C25 C23 1_555 1_555
C26 C23 1_555 1_555
H32 C26 1_555 1_555
O7 S2 1_555 1_555
C27 C26 1_555 1_555
H33 C27 1_555 1_555
C28 H34 1_555 1_555
C29 C27 1_555 1_555
H35 C29 1_555 1_555
C1 C5 1_555 1_555
C3 C4 1_555 1_555
C7 C13 1_555 1_555
C8 C10 1_555 1_555
C11 C15 1_555 1_555
N7 C25 1_555 1_555
C28 C29 1_555 1_555

#END
