
#######################################################################
#
#                 Cambridge Crystallographic Data Centre
#                                CCDC 
#
#######################################################################
#
# If this CIF has been generated from an entry in the Cambridge 
# Structural Database, then it will include bibliographic, chemical, 
# crystal, experimental, refinement or atomic coordinate data resulting 
# from the CCDC's data processing and validation procedures.
#
#######################################################################

data_QEKWAF
_chemical_formula_moiety         
'C22 H31 N6 O4 S1 1+,C7 H4 N1 O3 S1 1-,0.5(C4 H7 N1 O1)'
_chemical_name_systematic        
'Sildenafil saccharinate hemikis(pyrrolidinone) clathrate'
_symmetry_cell_setting           triclinic
_symmetry_space_group_name_H-M   'P -1'
_symmetry_Int_Tables_number      2
_space_group_name_Hall           '-P 1'
loop_
_symmetry_equiv_pos_site_id
_symmetry_equiv_pos_as_xyz
1 x,y,z
2 -x,-y,-z
_cell_length_a                   10.0172(14)
_cell_length_b                   12.0024(17)
_cell_length_c                   14.510(2)
_cell_angle_alpha                85.071(2)
_cell_angle_beta                 72.648(2)
_cell_angle_gamma                87.666(2)
_cell_volume                     1658.78
_exptl_crystal_colour            colorless
_exptl_crystal_description       Block
_cell_formula_units_Z            2
loop_
_atom_site_label
_atom_site_type_symbol
_atom_site_fract_x
_atom_site_fract_y
_atom_site_fract_z
N2 N 0.0642(10) 0.4678(7) 1.0556(7)
C8 C 0.0759(10) 0.4225(9) 0.9808(7)
C9 C -0.0124(10) 0.5478(12) 1.0903(8)
O4 O 0.1534(17) 0.3388(9) 0.9519(8)
N2A N -0.0642(10) 0.5322(7) 0.9444(7)
C8A C -0.0759(10) 0.5775(9) 1.0192(7)
C9A C 0.0124(10) 0.4522(12) 0.9097(8)
O4A O -0.1534(17) 0.6612(9) 1.0481(8)
S2 S 0.20729(12) 0.02454(9) 0.14194(8)
O5 O -0.0864(3) 0.3269(2) 0.4356(2)
N3 N 0.1701(3) 0.0629(3) 0.4991(2)
N4 N 0.0316(4) 0.2184(3) 0.5589(3)
C10 C 0.1388(4) 0.1202(3) 0.6616(3)
C11 C 0.0584(4) 0.1666(3) 0.3932(3)
N5 N 0.3595(4) 0.0860(3) 0.0972(2)
O6 O 0.0065(4) 0.2888(3) 0.7038(2)
N6 N 0.1874(4) 0.0831(3) 0.7363(2)
C12 C 0.1936(4) 0.0516(3) 0.5880(3)
C13 C 0.1227(4) 0.0945(3) 0.3228(3)
H5 H 0.1787 0.0361 0.3375
C14 C 0.0882(4) 0.1463(3) 0.4876(3)
N7 N 0.5939(4) 0.2300(3) 0.0552(3)
C15 C 0.0533(4) 0.2158(4) 0.6488(3)
C16 C -0.0445(4) 0.2638(4) 0.2764(3)
H6 H -0.1029 0.3200 0.2612
C17 C 0.2790(4) -0.0272(3) 0.6229(3)
C18 C -0.0246(4) 0.2543(3) 0.3677(3)
N8 N 0.2733(4) -0.0069(3) 0.7130(2)
C19 C 0.1058(4) 0.1069(3) 0.2319(3)
C20 C 0.4458(5) 0.0863(4) 0.1641(3)
H7 H 0.4462 0.0127 0.1972
H8 H 0.4067 0.1393 0.2124
C21 C 0.0208(4) 0.1913(4) 0.2089(3)
H9 H 0.0081 0.1988 0.1478
C22 C 0.3555(5) 0.1981(4) 0.0486(3)
H10 H 0.3149 0.2513 0.0964
H11 H 0.2978 0.1977 0.0055
C23 C 0.5922(5) 0.1183(4) 0.1077(3)
H12 H 0.6488 0.1193 0.1514
H13 H 0.6324 0.0631 0.0616
C24 C 0.3674(5) -0.1200(4) 0.5714(3)
H14 H 0.3060 -0.1766 0.5637
H15 H 0.4204 -0.0904 0.5072
C25 C -0.1457(6) 0.4298(4) 0.4044(3)
H16 H -0.2178 0.4139 0.3755
H17 H -0.0738 0.4733 0.3567
C26 C 0.5015(5) 0.2325(4) -0.0085(3)
H18 H 0.5393 0.1822 -0.0592
H19 H 0.4990 0.3074 -0.0389
C27 C 0.1554(5) 0.1240(4) 0.8322(3)
H20 H 0.2408 0.1358 0.8468
H21 H 0.1003 0.0699 0.8794
H22 H 0.1037 0.1933 0.8335
C28 C -0.2060(7) 0.4927(5) 0.4913(4)
H23 H -0.2780 0.4494 0.5375
H24 H -0.2452 0.5624 0.4730
H25 H -0.1339 0.5071 0.5197
C29 C 0.7376(5) 0.2658(5) 0.0013(4)
H26 H 0.7901 0.2727 0.0461
H27 H 0.7338 0.3367 -0.0339
H28 H 0.7821 0.2112 -0.0431
C30 C 0.4673(5) -0.1749(4) 0.6208(3)
H29 H 0.4151 -0.2047 0.6852
H30 H 0.5301 -0.1190 0.6278
C31 C 0.5528(6) -0.2682(5) 0.5665(4)
H31 H 0.4916 -0.3257 0.5621
H32 H 0.6166 -0.2988 0.6004
H33 H 0.6046 -0.2394 0.5026
O7 O 0.1468(3) 0.0296(3) 0.0643(2)
O8 O 0.2354(4) -0.0807(3) 0.1857(2)
H34 H -0.026(5) 0.265(4) 0.549(3)
H35 H 0.551(5) 0.282(4) 0.100(3)
S1 S 0.35477(12) 0.45977(10) 0.19786(10)
C1 C 0.5389(4) 0.5543(4) 0.2497(3)
O1 O 0.7088(4) 0.4056(3) 0.2115(3)
O2 O 0.3351(4) 0.4907(3) 0.1058(3)
C2 C 0.5926(5) 0.4435(4) 0.2140(3)
N1 N 0.4977(4) 0.3888(3) 0.1848(3)
O3 O 0.2406(4) 0.4049(3) 0.2671(3)
C3 C 0.4059(4) 0.5760(3) 0.2443(3)
C4 C 0.3348(5) 0.6742(4) 0.2718(3)
H1 H 0.2450 0.6877 0.2668
C5 C 0.4007(6) 0.7510(4) 0.3066(4)
H2 H 0.3551 0.8178 0.3262
C6 C 0.5328(7) 0.7302(5) 0.3129(4)
H3 H 0.5752 0.7835 0.3373
C7 C 0.6050(6) 0.6333(5) 0.2844(4)
H4 H 0.6956 0.6210 0.2882
loop_
_geom_bond_atom_site_label_1
_geom_bond_atom_site_label_2
_geom_bond_site_symmetry_1
_geom_bond_site_symmetry_2
S1 O2 1_555 1_555
C1 C2 1_555 1_555
O1 C2 1_555 1_555
C2 N1 1_555 1_555
N1 S1 1_555 1_555
O3 S1 1_555 1_555
C3 S1 1_555 1_555
C4 C3 1_555 1_555
H1 C4 1_555 1_555
C5 C4 1_555 1_555
H2 C5 1_555 1_555
C6 C5 1_555 1_555
H3 C6 1_555 1_555
C7 C1 1_555 1_555
H4 C7 1_555 1_555
N2 C8 1_555 1_555
C8 O4 1_555 1_555
C9 N2 1_555 1_555
S2 N5 1_555 1_555
O5 C18 1_555 1_555
N3 C12 1_555 1_555
N4 C14 1_555 1_555
C10 N6 1_555 1_555
C11 C13 1_555 1_555
N5 C20 1_555 1_555
O6 C15 1_555 1_555
N6 N8 1_555 1_555
C12 C10 1_555 1_555
C13 H5 1_555 1_555
C14 N3 1_555 1_555
N7 C23 1_555 1_555
C15 N4 1_555 1_555
C16 H6 1_555 1_555
C17 C12 1_555 1_555
C18 C11 1_555 1_555
N8 C17 1_555 1_555
C19 S2 1_555 1_555
C20 H7 1_555 1_555
H8 C20 1_555 1_555
C21 C16 1_555 1_555
H9 C21 1_555 1_555
C22 N5 1_555 1_555
H10 C22 1_555 1_555
H11 C22 1_555 1_555
C23 C20 1_555 1_555
H12 C23 1_555 1_555
H13 C23 1_555 1_555
C24 C17 1_555 1_555
H14 C24 1_555 1_555
H15 C24 1_555 1_555
C25 O5 1_555 1_555
H16 C25 1_555 1_555
H17 C25 1_555 1_555
C26 N7 1_555 1_555
H18 C26 1_555 1_555
H19 C26 1_555 1_555
C27 N6 1_555 1_555
H20 C27 1_555 1_555
H21 C27 1_555 1_555
H22 C27 1_555 1_555
C28 C25 1_555 1_555
H23 C28 1_555 1_555
H24 C28 1_555 1_555
H25 C28 1_555 1_555
C29 N7 1_555 1_555
H26 C29 1_555 1_555
H27 C29 1_555 1_555
H28 C29 1_555 1_555
C30 C24 1_555 1_555
H29 C30 1_555 1_555
H30 C30 1_555 1_555
C31 C30 1_555 1_555
H31 C31 1_555 1_555
H32 C31 1_555 1_555
H33 C31 1_555 1_555
O7 S2 1_555 1_555
O8 S2 1_555 1_555
H34 N4 1_555 1_555
H35 N7 1_555 1_555
N2A C8A 1_555 1_555
C8A C9 1_555 1_555
C9A C8 1_555 1_555
O4A C8A 1_555 1_555
C1 C3 1_555 1_555
C6 C7 1_555 1_555
C10 C15 1_555 1_555
C11 C14 1_555 1_555
C13 C19 1_555 1_555
C16 C18 1_555 1_555
C19 C21 1_555 1_555
C22 C26 1_555 1_555
N2A C9A 1_555 1_555

#END
