
#######################################################################
#
#                 Cambridge Crystallographic Data Centre
#                                CCDC 
#
#######################################################################
#
# If this CIF has been generated from an entry in the Cambridge 
# Structural Database, then it will include bibliographic, chemical, 
# crystal, experimental, refinement or atomic coordinate data resulting 
# from the CCDC's data processing and validation procedures.
#
#######################################################################

data_QELCEP01
_chemical_name_common            
2,2-Tetramethylene-1,2-dihydroquinazolin-4(3H)-one
_chemical_formula_moiety         'C12 H14 N2 O1'
_chemical_name_systematic        
Spiro(cyclopentane-1,2'(1'H)-quinazolin)-4'(3'H)-one
_symmetry_cell_setting           orthorhombic
_symmetry_space_group_name_H-M   'P b c a'
_symmetry_Int_Tables_number      61
_space_group_name_Hall           '-P 2ac 2ab'
loop_
_symmetry_equiv_pos_site_id
_symmetry_equiv_pos_as_xyz
1 x,y,z
2 1/2+x,1/2-y,-z
3 -x,1/2+y,1/2-z
4 1/2-x,-y,1/2+z
5 -x,-y,-z
6 1/2-x,1/2+y,z
7 x,1/2-y,1/2+z
8 1/2+x,y,1/2-z
_cell_length_a                   10.3872(12)
_cell_length_b                   12.0252(13)
_cell_length_c                   16.3027(19)
_cell_angle_alpha                90
_cell_angle_beta                 90
_cell_angle_gamma                90
_cell_volume                     2036.34
_exptl_crystal_colour            colorless
_exptl_crystal_description       prism
_cell_formula_units_Z            8
_exptl_crystal_recrystallization_method ethanol
loop_
_atom_site_label
_atom_site_type_symbol
_atom_site_fract_x
_atom_site_fract_y
_atom_site_fract_z
O1 O 0.08554(8) 0.58043(6) 0.58072(5)
N1 N 0.14762(9) 0.42225(8) 0.51639(6)
H1 H 0.0821(11) 0.4272(12) 0.4846(8)
N2 N 0.30566(10) 0.30494(8) 0.57191(6)
H2 H 0.3437(13) 0.2417(9) 0.5745(9)
C1 C 0.27524(10) 0.48724(9) 0.62879(6)
C2 C 0.34067(10) 0.38442(9) 0.62795(7)
C3 C 0.43548(11) 0.36400(10) 0.68791(7)
H3 H 0.4778 0.2959 0.6891
C4 C 0.46564(11) 0.44475(10) 0.74485(7)
H4 H 0.5295 0.4308 0.7835
C5 C 0.40171(12) 0.54737(10) 0.74554(7)
H5 H 0.4232 0.6013 0.7840
C6 C 0.30602(11) 0.56750(9) 0.68820(7)
H6 H 0.2618 0.6347 0.6891
C7 C 0.16430(10) 0.50191(9) 0.57324(7)
C8 C 0.24515(11) 0.33881(9) 0.49553(6)
C9 C 0.18435(11) 0.23692(10) 0.45265(7)
H7 H 0.1703 0.1774 0.4918
H8 H 0.1023 0.2568 0.4283
C10 C 0.27944(13) 0.20002(11) 0.38614(9)
H9 H 0.3038 0.1229 0.3942
H10 H 0.2410 0.2075 0.3322
C11 C 0.39717(12) 0.27571(10) 0.39391(8)
H11 H 0.4620 0.2424 0.4290
H12 H 0.4348 0.2906 0.3406
C12 C 0.34353(11) 0.38216(10) 0.43211(7)
H13 H 0.3019 0.4282 0.3911
H14 H 0.4111 0.4248 0.4585
loop_
_geom_bond_atom_site_label_1
_geom_bond_atom_site_label_2
_geom_bond_site_symmetry_1
_geom_bond_site_symmetry_2
O1 C7 1_555 1_555
N1 H1 1_555 1_555
N2 H2 1_555 1_555
C1 C2 1_555 1_555
C2 N2 1_555 1_555
C3 C2 1_555 1_555
H3 C3 1_555 1_555
C4 C3 1_555 1_555
H4 C4 1_555 1_555
C5 C4 1_555 1_555
H5 C5 1_555 1_555
C6 C1 1_555 1_555
H6 C6 1_555 1_555
C7 N1 1_555 1_555
C8 N1 1_555 1_555
C9 C8 1_555 1_555
H7 C9 1_555 1_555
H8 C9 1_555 1_555
C10 C9 1_555 1_555
H9 C10 1_555 1_555
H10 C10 1_555 1_555
C11 C10 1_555 1_555
H11 C11 1_555 1_555
H12 C11 1_555 1_555
C12 C8 1_555 1_555
H13 C12 1_555 1_555
H14 C12 1_555 1_555
N2 C8 1_555 1_555
C1 C7 1_555 1_555
C5 C6 1_555 1_555
C11 C12 1_555 1_555

#END
