
#######################################################################
#
#                 Cambridge Crystallographic Data Centre
#                                CCDC 
#
#######################################################################
#
# If this CIF has been generated from an entry in the Cambridge 
# Structural Database, then it will include bibliographic, chemical, 
# crystal, experimental, refinement or atomic coordinate data resulting 
# from the CCDC's data processing and validation procedures.
#
#######################################################################

data_QELGUM
_chemical_formula_moiety         'C2 H5 N4 1+,C6 H2 N3 O8 1-'
_chemical_name_systematic        
'3-amino-1H-1,2,3-triazol-3-ium 3-hydroxy-2,4,6-trinitrophenolate'
_symmetry_cell_setting           orthorhombic
_symmetry_space_group_name_H-M   'P n a 21'
_symmetry_Int_Tables_number      33
_space_group_name_Hall           'P 2c -2n'
loop_
_symmetry_equiv_pos_site_id
_symmetry_equiv_pos_as_xyz
1 x,y,z
2 -x,-y,1/2+z
3 1/2+x,1/2-y,z
4 1/2-x,1/2+y,1/2+z
_cell_length_a                   9.7630(9)
_cell_length_b                   24.942(2)
_cell_length_c                   5.2569(5)
_cell_angle_alpha                90
_cell_angle_beta                 90
_cell_angle_gamma                90
_cell_volume                     1280.1
_exptl_crystal_colour            yellow
_exptl_crystal_description       block
_cell_formula_units_Z            4
loop_
_atom_site_label
_atom_site_type_symbol
_atom_site_fract_x
_atom_site_fract_y
_atom_site_fract_z
N1 N 0.8926(2) 0.54083(9) 0.8794(5)
N2 N 0.8293(3) 0.50208(10) 0.7588(5)
N3 N 0.7281(3) 0.48963(9) 0.9127(6)
H1 H 0.6685 0.4652 0.8803
N4 N 1.0051(3) 0.56388(10) 0.7579(7)
H2 H 1.0780 0.5615 0.8589
H3 H 0.9871 0.5982 0.7262
C1 C 0.7280(4) 0.51895(12) 1.1237(8)
H4 H 0.6665 0.5168 1.2584
C2 C 0.8358(3) 0.55261(12) 1.1020(7)
H5 H 0.8641 0.5785 1.2181
N5 N 0.6551(3) 0.64078(10) 0.6235(6)
N6 N 0.4856(3) 0.80203(10) 0.1961(7)
N7 N 0.2970(3) 0.63153(10) -0.0332(5)
O1 O 0.4663(2) 0.58294(7) 0.3658(5)
O2 O 0.6591(2) 0.74805(8) 0.5679(5)
H6 H 0.6552 0.7801 0.5348
O3 O 0.6138(5) 0.6169(2) 0.8047(9)
O4 O 0.7724(3) 0.63537(14) 0.5561(6)
O5 O 0.5603(3) 0.83068(9) 0.3315(6)
O6 O 0.4164(3) 0.82096(9) 0.0272(7)
O7 O 0.2388(3) 0.65507(10) -0.2044(6)
O8 O 0.2830(3) 0.58366(8) -0.0075(5)
C3 C 0.4684(3) 0.63274(11) 0.3198(6)
C4 C 0.5613(3) 0.66714(10) 0.4508(6)
C5 C 0.5697(3) 0.72166(11) 0.4248(6)
C6 C 0.4825(3) 0.74566(10) 0.2410(7)
C7 C 0.3946(3) 0.71460(12) 0.0997(7)
H7 H 0.3397 0.7308 -0.0227
C8 C 0.3863(3) 0.66049(11) 0.1351(7)
O9? O 0.6383(13) 0.6515(6) 0.858(3)
loop_
_geom_bond_atom_site_label_1
_geom_bond_atom_site_label_2
_geom_bond_site_symmetry_1
_geom_bond_site_symmetry_2
N1 N2 1_555 1_555
N2 N3 1_555 1_555
N3 H1 1_555 1_555
N4 N1 1_555 1_555
H2 N4 1_555 1_555
H3 N4 1_555 1_555
C1 N3 1_555 1_555
H4 C1 1_555 1_555
C2 N1 1_555 1_555
H5 C2 1_555 1_555
N5 O3 1_555 1_555
N6 O5 1_555 1_555
N7 O7 1_555 1_555
O1 C3 1_555 1_555
O2 H6 1_555 1_555
O4 N5 1_555 1_555
O6 N6 1_555 1_555
O8 N7 1_555 1_555
C3 C4 1_555 1_555
C4 N5 1_555 1_555
C5 O2 1_555 1_555
C6 N6 1_555 1_555
C7 C6 1_555 1_555
H7 C7 1_555 1_555
C8 N7 1_555 1_555
C1 C2 1_555 1_555
C3 C8 1_555 1_555
C4 C5 1_555 1_555
C5 C6 1_555 1_555
C7 C8 1_555 1_555

#END
