
#######################################################################
#
#                 Cambridge Crystallographic Data Centre
#                                CCDC 
#
#######################################################################
#
# If this CIF has been generated from an entry in the Cambridge 
# Structural Database, then it will include bibliographic, chemical, 
# crystal, experimental, refinement or atomic coordinate data resulting 
# from the CCDC's data processing and validation procedures.
#
#######################################################################

data_QELHEX
_chemical_formula_moiety         'C2 H5 N4 1+,C2 H1 N6 O4 1-'
_chemical_name_systematic        
'3-amino-1H-1,2,3-triazol-3-ium 5-(dinitromethylidene)-4,5-dihydrotetrazol-1-ide'
_symmetry_cell_setting           monoclinic
_symmetry_space_group_name_H-M   'C 2/c'
_symmetry_Int_Tables_number      15
_space_group_name_Hall           '-C 2yn'
loop_
_symmetry_equiv_pos_site_id
_symmetry_equiv_pos_as_xyz
1 x,y,z
2 -x,y,1/2-z
3 1/2+x,1/2+y,z
4 1/2-x,1/2+y,1/2-z
5 -x,-y,-z
6 x,-y,1/2+z
7 1/2-x,1/2-y,-z
8 1/2+x,1/2-y,1/2+z
_cell_length_a                   26.306(2)
_cell_length_b                   4.9780(4)
_cell_length_c                   16.0379(14)
_cell_angle_alpha                90
_cell_angle_beta                 112.650(2)
_cell_angle_gamma                90
_cell_volume                     1938.21
_exptl_crystal_colour            yellow
_exptl_crystal_description       block
_cell_formula_units_Z            8
loop_
_atom_site_label
_atom_site_type_symbol
_atom_site_fract_x
_atom_site_fract_y
_atom_site_fract_z
N1 N 0.18158(8) 0.2645(4) 0.16803(13)
N2 N 0.23036(8) 0.3540(4) 0.17821(14)
N3 N 0.24729(8) 0.1805(4) 0.13328(14)
H1 H 0.2788 0.1910 0.1287
N4 N 0.15159(9) 0.4120(4) 0.20784(15)
H2 H 0.1439 0.3075 0.2465
H3 H 0.1204 0.4689 0.1650
C1 C 0.16769(10) 0.0381(5) 0.11817(17)
H4 H 0.1353 -0.0604 0.1030
C2 C 0.21083(10) -0.0148(5) 0.09514(17)
H5 H 0.2145 -0.1568 0.0602
N5 N 0.01103(8) 1.0013(4) 0.39120(15)
N6 N -0.03872(9) 0.9246(5) 0.38792(16)
N7 N -0.03982(9) 0.6657(5) 0.38417(16)
N8 N 0.00829(8) 0.5715(4) 0.38436(16)
H6 H 0.0168 0.4057 0.3818
N9 N 0.13107(8) 0.5739(4) 0.44218(13)
N10 N 0.11235(8) 0.9653(4) 0.34564(13)
O1 O 0.11491(7) 0.4300(4) 0.49071(12)
O2 O 0.17782(7) 0.5409(4) 0.44177(13)
O3 O 0.15902(8) 0.9653(4) 0.34296(15)
O4 O 0.07861(7) 1.1442(4) 0.30692(12)
C3 C 0.03971(9) 0.7802(5) 0.38911(15)
C4 C 0.09546(9) 0.7721(5) 0.39195(15)
loop_
_geom_bond_atom_site_label_1
_geom_bond_atom_site_label_2
_geom_bond_site_symmetry_1
_geom_bond_site_symmetry_2
N1 N2 1_555 1_555
N2 N3 1_555 1_555
N3 H1 1_555 1_555
N4 N1 1_555 1_555
H2 N4 1_555 1_555
H3 N4 1_555 1_555
C1 N1 1_555 1_555
H4 C1 1_555 1_555
C2 N3 1_555 1_555
H5 C2 1_555 1_555
N5 N6 1_555 1_555
N6 N7 1_555 1_555
N7 N8 1_555 1_555
N8 H6 1_555 1_555
N9 O1 1_555 1_555
N10 O3 1_555 1_555
O2 N9 1_555 1_555
O4 N10 1_555 1_555
C3 N5 1_555 1_555
C4 N9 1_555 1_555
C1 C2 1_555 1_555
N8 C3 1_555 1_555
N10 C4 1_555 1_555
C3 C4 1_555 1_555

#END
