
#######################################################################
#
#                 Cambridge Crystallographic Data Centre
#                                CCDC 
#
#######################################################################
#
# If this CIF has been generated from an entry in the Cambridge 
# Structural Database, then it will include bibliographic, chemical, 
# crystal, experimental, refinement or atomic coordinate data resulting 
# from the CCDC's data processing and validation procedures.
#
#######################################################################

data_QELHIB
_chemical_formula_moiety         'C4 H2 N3 O4 1-,C2 H5 N4 1+'
_chemical_name_systematic        
'1-amino-1H-1,2,3-triazol-3-ium 5-carboxy-2H-1,2,3-triazole-4-carboxylate'
_symmetry_cell_setting           orthorhombic
_symmetry_space_group_name_H-M   'P n a 21'
_symmetry_Int_Tables_number      33
_space_group_name_Hall           'P 2c -2n'
loop_
_symmetry_equiv_pos_site_id
_symmetry_equiv_pos_as_xyz
1 x,y,z
2 -x,-y,1/2+z
3 1/2+x,1/2-y,z
4 1/2-x,1/2+y,1/2+z
_cell_length_a                   7.9032(6)
_cell_length_b                   23.484(2)
_cell_length_c                   5.1022(5)
_cell_angle_alpha                90
_cell_angle_beta                 90
_cell_angle_gamma                90
_cell_volume                     946.962
_exptl_crystal_colour            colorless
_exptl_crystal_description       block
_cell_formula_units_Z            4
loop_
_atom_site_label
_atom_site_type_symbol
_atom_site_fract_x
_atom_site_fract_y
_atom_site_fract_z
N1 N 0.6564(2) 0.54722(7) 0.9506(4)
N2 N 0.5956(2) 0.58732(8) 1.1039(4)
N3 N 0.6481(2) 0.63451(8) 0.9927(4)
H1 H 0.6270 0.6679 1.0537
N4 N 0.6139(3) 0.49130(8) 1.0162(5)
H2 H 0.7001 0.4754 1.1014
H3 H 0.5975 0.4728 0.8660
C1 C 0.7443(3) 0.56777(9) 0.7457(5)
H4 H 0.7977 0.5473 0.6135
C2 C 0.7376(3) 0.62527(10) 0.7753(5)
H5 H 0.7857 0.6526 0.6662
N5 N 0.7833(2) 0.85334(8) -0.2700(4)
N6 N 0.8068(2) 0.79839(8) -0.3130(4)
H6 H 0.8709 0.7862 -0.4371
N7 N 0.7261(2) 0.76318(7) -0.1540(4)
O1 O 0.6672(3) 0.95518(7) -0.0611(4)
O2 O 0.5226(2) 0.91070(7) 0.2423(4)
H7 H 0.5034 0.8777 0.2862
O3 O 0.4576(2) 0.81012(7) 0.3636(4)
O4 O 0.52753(18) 0.72224(6) 0.2591(4)
C3 C 0.6222(3) 0.91093(10) 0.0392(5)
C4 C 0.6774(3) 0.85450(9) -0.0660(4)
C5 C 0.6417(2) 0.79807(9) 0.0062(5)
C6 C 0.5348(2) 0.77483(9) 0.2253(5)
loop_
_geom_bond_atom_site_label_1
_geom_bond_atom_site_label_2
_geom_bond_site_symmetry_1
_geom_bond_site_symmetry_2
N1 N2 1_555 1_555
N2 N3 1_555 1_555
N3 H1 1_555 1_555
N4 N1 1_555 1_555
H2 N4 1_555 1_555
H3 N4 1_555 1_555
C1 N1 1_555 1_555
H4 C1 1_555 1_555
C2 N3 1_555 1_555
H5 C2 1_555 1_555
N5 N6 1_555 1_555
N6 H6 1_555 1_555
N7 N6 1_555 1_555
O1 C3 1_555 1_555
O2 H7 1_555 1_555
O3 C6 1_555 1_555
O4 C6 1_555 1_555
C3 O2 1_555 1_555
C4 N5 1_555 1_555
C5 N7 1_555 1_555
C6 C5 1_555 1_555
C1 C2 1_555 1_555
C3 C4 1_555 1_555
C4 C5 1_555 1_555

#END
