
#######################################################################
#
#                 Cambridge Crystallographic Data Centre
#                                CCDC 
#
#######################################################################
#
# If this CIF has been generated from an entry in the Cambridge 
# Structural Database, then it will include bibliographic, chemical, 
# crystal, experimental, refinement or atomic coordinate data resulting 
# from the CCDC's data processing and validation procedures.
#
#######################################################################

data_QELHOH
_chemical_formula_moiety         'C74 H58 N4,C1 H1 Cl3,H2 O1'
_chemical_name_systematic        
'3,6-bis(4-t-butylphenyl)-1,8-bis(4-(1-phenyl-1H-benzimidazol-2-yl)phenyl)pyrene chloroform solvate monohydrate'
_symmetry_cell_setting           triclinic
_symmetry_space_group_name_H-M   'P -1'
_symmetry_Int_Tables_number      2
_space_group_name_Hall           '-P 1'
loop_
_symmetry_equiv_pos_site_id
_symmetry_equiv_pos_as_xyz
1 x,y,z
2 -x,-y,-z
_cell_length_a                   9.996(6)
_cell_length_b                   17.116(10)
_cell_length_c                   18.812(10)
_cell_angle_alpha                97.458(12)
_cell_angle_beta                 96.029(12)
_cell_angle_gamma                103.290(11)
_cell_volume                     3075.39
_exptl_crystal_colour            yellow
_exptl_crystal_description       strip
_cell_formula_units_Z            2
loop_
_atom_site_label
_atom_site_type_symbol
_atom_site_fract_x
_atom_site_fract_y
_atom_site_fract_z
C1 C 0.6655(6) 0.5076(4) 0.8731(3)
C2 C 0.6777(6) 0.5714(4) 0.9331(3)
C3 C 0.6193(6) 0.5199(4) 0.8031(3)
C4 C 0.5997(6) 0.5943(4) 0.7903(3)
C5 C 0.7561(6) 0.4261(4) 0.9555(3)
C6 C 0.6849(6) 0.3714(4) 0.8251(3)
C7 C 0.7864(7) 0.2957(4) 0.9044(3)
H1 H 0.8190 0.2500 0.9107
C8 C 0.6998(6) 0.4347(4) 0.8840(3)
C9 C 0.6033(6) 0.6524(4) 0.8491(3)
H2 H 0.5792 0.7000 0.8407
C10 C 0.8368(8) 0.3368(4) 1.0370(3)
C11 C 0.7944(7) 0.3533(4) 0.9649(3)
C12 C 0.5691(7) 0.6112(4) 0.7147(3)
C13 C 0.6410(7) 0.6436(4) 0.9206(3)
C14 C 0.7723(7) 0.4915(4) 1.0120(3)
H3 H 0.8105 0.4869 1.0581
C15 C 0.7326(7) 0.3023(3) 0.8350(3)
C16 C 0.9121(7) 0.2993(3) 1.1737(3)
N1 N 0.6864(6) 0.9210(3) 1.2044(3)
C17 C 0.5881(7) 0.6997(4) 1.0403(3)
H4 H 0.5504 0.6472 1.0484
N2 N 1.0156(6) 0.2291(4) 1.2676(3)
N3 N 0.9169(6) 0.3285(3) 1.3038(3)
C18 C 0.6437(6) 0.7109(4) 0.9778(3)
C19 C 0.9474(7) 0.2855(4) 1.2471(4)
N4 N 0.6005(6) 0.9777(4) 1.1168(3)
C20 C 0.7278(7) 0.2362(4) 0.7750(3)
C21 C 0.6387(7) 0.8431(4) 1.0805(3)
C22 C 0.6177(7) 0.3807(4) 0.7573(3)
H5 H 0.5925 0.3367 0.7198
C23 C 0.7875(7) 0.3163(4) 1.1560(3)
H6 H 0.7264 0.3155 1.1901
C24 C 0.6869(7) 0.1552(4) 0.7819(3)
H7 H 0.6569 0.1410 0.8247
C25 C 0.6971(7) 0.7902(4) 0.9678(3)
H8 H 0.7377 0.7998 0.9265
C26 C 0.9642(7) 0.3186(4) 1.0543(3)
H9 H 1.0249 0.3181 1.0201
C27 C 0.5904(7) 0.4501(4) 0.7463(3)
H10 H 0.5510 0.4545 0.7004
C28 C 0.6613(7) 0.6052(4) 0.6675(3)
H11 H 0.7426 0.5906 0.6826
C29 C 0.7355(7) 0.5587(4) 1.0024(3)
H12 H 0.7474 0.5995 1.0420
C30 C 0.6370(8) 0.6203(4) 0.5975(3)
H13 H 0.7016 0.6154 0.5661
C31 C 0.5872(7) 0.7659(4) 1.0920(3)
H14 H 0.5510 0.7570 1.1347
C32 C 0.7495(7) 0.3348(4) 1.0886(3)
H15 H 0.6635 0.3461 1.0782
C33 C 0.7739(7) 0.2534(4) 0.7101(3)
H16 H 0.8027 0.3072 0.7033
C34 C 0.4275(8) 0.6503(4) 0.6226(3)
H17 H 0.3466 0.6656 0.6085
C35 C 0.5175(8) 0.6426(4) 0.5738(3)
C36 C 1.0001(7) 0.3011(4) 1.1229(4)
H18 H 1.0862 0.2904 1.1344
C37 C 0.6913(7) 0.8554(4) 1.0181(3)
H19 H 0.7237 0.9081 1.0091
C38 C 0.6898(7) 0.0955(4) 0.7265(4)
H20 H 0.6595 0.0417 0.7329
C39 C 0.6403(7) 0.9138(4) 1.1329(3)
C40 C 0.4544(8) 0.6355(4) 0.6927(3)
H21 H 0.3925 0.6425 0.7252
C41 C 0.7348(8) 0.1105(4) 0.6620(3)
C42 C 1.0242(8) 0.2347(5) 1.3414(4)
C43 C 0.7774(7) 0.1922(5) 0.6562(3)
H22 H 0.8097 0.2061 0.6138
C44 C 0.4845(9) 0.6567(4) 0.4962(3)
C45 C 0.9631(8) 0.2982(4) 1.3618(4)
C46 C 0.6753(7) 0.9954(5) 1.2369(4)
C47 C 0.6203(8) 1.0301(5) 1.1816(4)
C48 C 0.7464(9) 0.0465(4) 0.6025(4)
C49 C 0.6894(9) 1.1134(6) 1.3194(5)
H23 H 0.7146 1.1434 1.3657
C50 C 0.5845(8) 0.6314(4) 0.4486(3)
H24 H 0.6762 0.6652 0.4653
H25 H 0.5568 0.6374 0.3996
H26 H 0.5843 0.5756 0.4506
C51 C 1.0057(9) 0.2768(6) 1.4840(4)
H27 H 1.0001 0.2897 1.5330
C52 C 0.7416(9) 0.8667(4) 1.2416(4)
C53 C 0.3411(8) 0.6082(5) 0.4633(3)
H28 H 0.3346 0.5515 0.4637
H29 H 0.3230 0.6173 0.4143
H30 H 0.2742 0.6250 0.4908
C54 C 0.9682(9) 0.1178(5) 1.1706(5)
H31 H 0.8765 0.1211 1.1620
C55 C 1.0653(9) 0.2134(6) 1.4603(5)
H32 H 1.1015 0.1863 1.4946
C56 C 1.0726(7) 0.1893(4) 1.3880(4)
H33 H 1.1078 0.1453 1.3722
C57 C 0.7093(9) 1.0371(5) 1.3077(4)
H34 H 0.7441 1.0138 1.3453
C58 C 0.9559(8) 0.3200(4) 1.4359(4)
H35 H 0.9179 0.3628 1.4516
C59 C 0.6343(9) 1.1475(5) 1.2660(5)
H36 H 0.6199 1.1992 1.2768
C60 C 1.0594(9) 0.1709(5) 1.2238(4)
C61 C 1.0150(13) 0.0575(6) 1.1285(5)
H37 H 0.9562 0.0225 1.0900
C62 C 0.6557(10) -0.0360(4) 0.6067(4)
H38 H 0.6664 -0.0750 0.5675
H39 H 0.5604 -0.0333 0.6033
H40 H 0.6825 -0.0522 0.6520
C63 C 0.5995(8) 1.1069(5) 1.1966(4)
H41 H 0.5624 1.1308 1.1601
C64 C 1.2374(12) 0.1031(8) 1.1950(7)
H42 H 1.3290 0.0995 1.2031
C65 C 1.1937(11) 0.1654(6) 1.2367(4)
H43 H 1.2562 0.2023 1.2726
C66 C 0.4962(11) 0.7477(5) 0.4982(4)
H44 H 0.4302 0.7639 0.5269
H45 H 0.4774 0.7586 0.4499
H46 H 0.5883 0.7778 0.5193
C67 C 0.8958(13) 0.0378(6) 0.6118(6)
H47 H 0.9556 0.0835 0.5971
H48 H 0.9009 -0.0114 0.5825
H49 H 0.9248 0.0359 0.6617
C68 C 1.1505(16) 0.0515(7) 1.1459(7)
H50 H 1.1792 0.0089 1.1213
C69 C 0.7184(11) 0.0668(5) 0.5285(4)
H51 H 0.7829 0.1165 0.5243
H52 H 0.6254 0.0733 0.5205
H53 H 0.7287 0.0236 0.4931
C70 C 0.6839(9) 0.8394(5) 1.2977(4)
H54 H 0.6089 0.8572 1.3129
C71 C 0.7364(12) 0.7848(7) 1.3326(6)
H55 H 0.7005 0.7659 1.3726
C72 C 0.8435(14) 0.7596(7) 1.3058(7)
H56 H 0.8796 0.7228 1.3292
C73 C 0.8498(11) 0.8420(5) 1.2158(4)
H57 H 0.8881 0.8639 1.1776
C74 C 0.9030(11) 0.7840(7) 1.2467(6)
H58 H 0.9733 0.7632 1.2289
Cl1 Cl 0.2386(3) 0.46707(17) 0.76403(19)
Cl2 Cl -0.0292(4) 0.4764(2) 0.7722(2)
Cl3 Cl 0.0574(5) 0.44685(19) 0.63576(18)
C75 C 0.1040(9) 0.4976(5) 0.7220(5)
H59 H 0.1316 0.5562 0.7214
O1 O 0.6837(12) 0.0750(7) 0.9885(5)
H60 H 0.7082 0.1235 1.0111
H61 H 0.6185 0.0694 0.9539
loop_
_geom_bond_atom_site_label_1
_geom_bond_atom_site_label_2
_geom_bond_site_symmetry_1
_geom_bond_site_symmetry_2
C1 C2 1_555 1_555
C2 C13 1_555 1_555
C3 C1 1_555 1_555
C4 C3 1_555 1_555
C5 C8 1_555 1_555
C6 C8 1_555 1_555
C7 H1 1_555 1_555
C8 C1 1_555 1_555
C9 C4 1_555 1_555
H2 C9 1_555 1_555
C10 C11 1_555 1_555
C11 C5 1_555 1_555
C12 C4 1_555 1_555
C13 C9 1_555 1_555
C14 C5 1_555 1_555
H3 C14 1_555 1_555
C15 C6 1_555 1_555
C16 C19 1_555 1_555
N1 C39 1_555 1_555
C17 H4 1_555 1_555
N2 C19 1_555 1_555
N3 C19 1_555 1_555
C18 C13 1_555 1_555
N4 C39 1_555 1_555
C20 C15 1_555 1_555
C21 C31 1_555 1_555
C22 C6 1_555 1_555
H5 C22 1_555 1_555
C23 C16 1_555 1_555
H6 C23 1_555 1_555
C24 C20 1_555 1_555
H7 C24 1_555 1_555
C25 C18 1_555 1_555
H8 C25 1_555 1_555
C26 C10 1_555 1_555
H9 C26 1_555 1_555
C27 C3 1_555 1_555
H10 C27 1_555 1_555
C28 C12 1_555 1_555
H11 C28 1_555 1_555
C29 C2 1_555 1_555
H12 C29 1_555 1_555
C30 C28 1_555 1_555
H13 C30 1_555 1_555
C31 C17 1_555 1_555
H14 C31 1_555 1_555
C32 C10 1_555 1_555
H15 C32 1_555 1_555
C33 C20 1_555 1_555
H16 C33 1_555 1_555
C34 H17 1_555 1_555
C35 C30 1_555 1_555
C36 C16 1_555 1_555
H18 C36 1_555 1_555
C37 C21 1_555 1_555
H19 C37 1_555 1_555
C38 C24 1_555 1_555
H20 C38 1_555 1_555
C39 C21 1_555 1_555
C40 C12 1_555 1_555
H21 C40 1_555 1_555
C41 C38 1_555 1_555
C42 N2 1_555 1_555
C43 C33 1_555 1_555
H22 C43 1_555 1_555
C44 C35 1_555 1_555
C45 N3 1_555 1_555
C46 N1 1_555 1_555
C47 N4 1_555 1_555
C48 C41 1_555 1_555
C49 H23 1_555 1_555
C50 C44 1_555 1_555
H24 C50 1_555 1_555
H25 C50 1_555 1_555
H26 C50 1_555 1_555
C51 H27 1_555 1_555
C52 N1 1_555 1_555
C53 C44 1_555 1_555
H28 C53 1_555 1_555
H29 C53 1_555 1_555
H30 C53 1_555 1_555
C54 H31 1_555 1_555
C55 C51 1_555 1_555
H32 C55 1_555 1_555
C56 C42 1_555 1_555
H33 C56 1_555 1_555
C57 C46 1_555 1_555
H34 C57 1_555 1_555
C58 C45 1_555 1_555
H35 C58 1_555 1_555
C59 C49 1_555 1_555
H36 C59 1_555 1_555
C60 N2 1_555 1_555
C61 C54 1_555 1_555
H37 C61 1_555 1_555
C62 C48 1_555 1_555
H38 C62 1_555 1_555
H39 C62 1_555 1_555
H40 C62 1_555 1_555
C63 C47 1_555 1_555
H41 C63 1_555 1_555
C64 H42 1_555 1_555
C65 C60 1_555 1_555
H43 C65 1_555 1_555
C66 C44 1_555 1_555
H44 C66 1_555 1_555
H45 C66 1_555 1_555
H46 C66 1_555 1_555
C67 C48 1_555 1_555
H47 C67 1_555 1_555
H48 C67 1_555 1_555
H49 C67 1_555 1_555
C68 C61 1_555 1_555
H50 C68 1_555 1_555
C69 C48 1_555 1_555
H51 C69 1_555 1_555
H52 C69 1_555 1_555
H53 C69 1_555 1_555
C70 C52 1_555 1_555
H54 C70 1_555 1_555
C71 C70 1_555 1_555
H55 C71 1_555 1_555
C72 C71 1_555 1_555
H56 C72 1_555 1_555
C73 C52 1_555 1_555
H57 C73 1_555 1_555
C74 C72 1_555 1_555
H58 C74 1_555 1_555
Cl1 C75 1_555 1_555
Cl2 C75 1_555 1_555
Cl3 C75 1_555 1_555
C75 H59 1_555 1_555
O1 H60 1_555 1_555
H61 O1 1_555 1_555
C7 C11 1_555 1_555
C7 C15 1_555 1_555
C14 C29 1_555 1_555
C17 C18 1_555 1_555
C22 C27 1_555 1_555
C23 C32 1_555 1_555
C25 C37 1_555 1_555
C26 C36 1_555 1_555
C34 C35 1_555 1_555
C34 C40 1_555 1_555
C41 C43 1_555 1_555
C42 C45 1_555 1_555
C46 C47 1_555 1_555
C49 C57 1_555 1_555
C51 C58 1_555 1_555
C54 C60 1_555 1_555
C55 C56 1_555 1_555
C59 C63 1_555 1_555
C64 C65 1_555 1_555
C64 C68 1_555 1_555
C73 C74 1_555 1_555

#END
