
#######################################################################
#
#                 Cambridge Crystallographic Data Centre
#                                CCDC 
#
#######################################################################
#
# If this CIF has been generated from an entry in the Cambridge 
# Structural Database, then it will include bibliographic, chemical, 
# crystal, experimental, refinement or atomic coordinate data resulting 
# from the CCDC's data processing and validation procedures.
#
#######################################################################

data_QELLEB
_chemical_formula_moiety         'C6 H16 N1 1+,C16 H18 O2 P1 S2 1-'
_chemical_name_systematic        
'triethylammonium O,O-bis(2,5-dimethylphenyl) phosphorodithioate'
_symmetry_cell_setting           monoclinic
_symmetry_space_group_name_H-M   'P 21/c'
_symmetry_Int_Tables_number      14
_space_group_name_Hall           '-P 2ybc'
loop_
_symmetry_equiv_pos_site_id
_symmetry_equiv_pos_as_xyz
1 x,y,z
2 -x,1/2+y,1/2-z
3 -x,-y,-z
4 x,1/2-y,1/2+z
_cell_length_a                   7.8463(4)
_cell_length_b                   16.6316(8)
_cell_length_c                   20.3943(14)
_cell_angle_alpha                90
_cell_angle_beta                 112.627(2)
_cell_angle_gamma                90
_cell_volume                     2456.54
_exptl_crystal_colour            white
_exptl_crystal_description       block
_cell_formula_units_Z            4
loop_
_atom_site_label
_atom_site_type_symbol
_atom_site_fract_x
_atom_site_fract_y
_atom_site_fract_z
S1 S -0.66979(11) 0.64991(5) -0.19368(5)
S2 S -0.95093(11) 0.50540(5) -0.29436(5)
P1 P -0.70696(10) 0.55420(5) -0.25426(4)
O1 O -0.6284(3) 0.57914(11) -0.31370(10)
O2 O -0.5500(3) 0.48719(12) -0.21518(11)
C1 C -0.5213(4) 0.44528(16) -0.15263(16)
C2 C -0.3699(5) 0.39450(18) -0.13046(18)
C3 C -0.3333(6) 0.3549(2) -0.0663(2)
H1 H -0.2304 0.3216 -0.0488
C4 C -0.4428(6) 0.3628(2) -0.0276(2)
H2 H -0.4121 0.3355 0.0152
C5 C -0.5961(5) 0.4105(2) -0.05189(17)
C6 C -0.6343(5) 0.45266(18) -0.11524(16)
H3 H -0.7371 0.4861 -0.1323
C7 C -0.7210(6) 0.4181(3) -0.0112(2)
H4 H -0.8203 0.3801 -0.0296
H5 H -0.7704 0.4716 -0.0165
H6 H -0.6517 0.4073 0.0382
C8 C -0.2503(5) 0.3822(2) -0.1724(2)
H7 H -0.3133 0.3479 -0.2123
H8 H -0.1360 0.3575 -0.1426
H9 H -0.2256 0.4331 -0.1890
C9 C -0.6485(4) 0.53326(18) -0.37413(16)
C10 C -0.5465(5) 0.46482(19) -0.36813(19)
H10 H -0.4680 0.4474 -0.3233
C11 C -0.5580(6) 0.4210(2) -0.4274(2)
C12 C -0.6757(6) 0.4490(3) -0.4921(2)
H11 H -0.6866 0.4208 -0.5329
C13 C -0.7768(5) 0.5172(3) -0.4983(2)
H12 H -0.8557 0.5341 -0.5432
C14 C -0.7655(5) 0.5625(2) -0.43910(18)
C15 C -0.8703(6) 0.6396(2) -0.4458(2)
H13 H -0.9598 0.6329 -0.4247
H14 H -0.9322 0.6532 -0.4951
H15 H -0.7861 0.6818 -0.4217
C16 C -0.4418(10) 0.3459(3) -0.4195(3)
H16 H -0.5036 0.3009 -0.4090
H17 H -0.3231 0.3529 -0.3818
H18 H -0.4260 0.3362 -0.4633
N1 N -0.8878(4) 0.18157(16) -0.27306(15)
H19 H -1.0041 0.1618 -0.2737
C17 C -0.8198(5) 0.1186(2) -0.3097(2)
H20 H -0.7003 0.1351 -0.3088
H21 H -0.8026 0.0687 -0.2834
C18 C -0.9453(6) 0.1037(3) -0.3844(2)
H22 H -1.0690 0.0964 -0.3869
H23 H -0.9064 0.0562 -0.4016
H24 H -0.9419 0.1489 -0.4132
C19 C -0.9316(6) 0.2599(2) -0.3118(3)
H25 H -0.9782 0.2969 -0.2859
H26 H -1.0288 0.2514 -0.3582
C20 C -0.7689(8) 0.2982(3) -0.3214(4)
H27 H -0.6704 0.3054 -0.2759
H28 H -0.8045 0.3495 -0.3442
H29 H -0.7280 0.2640 -0.3503
C21 C -0.7578(6) 0.1867(3) -0.1962(2)
H30 H -0.7345 0.1330 -0.1761
H31 H -0.6410 0.2087 -0.1938
C22 C -0.8284(8) 0.2378(3) -0.1524(3)
H32 H -0.8360 0.2927 -0.1679
H33 H -0.7466 0.2342 -0.1034
H34 H -0.9489 0.2193 -0.1577
loop_
_geom_bond_atom_site_label_1
_geom_bond_atom_site_label_2
_geom_bond_site_symmetry_1
_geom_bond_site_symmetry_2
S1 P1 1_555 1_555
S2 P1 1_555 1_555
P1 O1 1_555 1_555
O1 C9 1_555 1_555
O2 P1 1_555 1_555
C1 O2 1_555 1_555
C2 C1 1_555 1_555
C3 C2 1_555 1_555
H1 C3 1_555 1_555
C4 C3 1_555 1_555
H2 C4 1_555 1_555
C5 C4 1_555 1_555
C6 C1 1_555 1_555
H3 C6 1_555 1_555
C7 C5 1_555 1_555
H4 C7 1_555 1_555
H5 C7 1_555 1_555
H6 C7 1_555 1_555
C8 C2 1_555 1_555
H7 C8 1_555 1_555
H8 C8 1_555 1_555
H9 C8 1_555 1_555
C9 C10 1_555 1_555
C10 H10 1_555 1_555
C11 C10 1_555 1_555
C12 C11 1_555 1_555
H11 C12 1_555 1_555
C13 C12 1_555 1_555
H12 C13 1_555 1_555
C14 C9 1_555 1_555
C15 C14 1_555 1_555
H13 C15 1_555 1_555
H14 C15 1_555 1_555
H15 C15 1_555 1_555
C16 C11 1_555 1_555
H16 C16 1_555 1_555
H17 C16 1_555 1_555
H18 C16 1_555 1_555
N1 H19 1_555 1_555
C17 N1 1_555 1_555
H20 C17 1_555 1_555
H21 C17 1_555 1_555
C18 C17 1_555 1_555
H22 C18 1_555 1_555
H23 C18 1_555 1_555
H24 C18 1_555 1_555
C19 N1 1_555 1_555
H25 C19 1_555 1_555
H26 C19 1_555 1_555
C20 C19 1_555 1_555
H27 C20 1_555 1_555
H28 C20 1_555 1_555
H29 C20 1_555 1_555
C21 N1 1_555 1_555
H30 C21 1_555 1_555
H31 C21 1_555 1_555
C22 C21 1_555 1_555
H32 C22 1_555 1_555
H33 C22 1_555 1_555
H34 C22 1_555 1_555
C5 C6 1_555 1_555
C13 C14 1_555 1_555

#END
