
#######################################################################
#
#                 Cambridge Crystallographic Data Centre
#                                CCDC 
#
#######################################################################
#
# If this CIF has been generated from an entry in the Cambridge 
# Structural Database, then it will include bibliographic, chemical, 
# crystal, experimental, refinement or atomic coordinate data resulting 
# from the CCDC's data processing and validation procedures.
#
#######################################################################

data_QELQIK
_chemical_formula_moiety         'C23 H17 F1 N4 O3,C2 H6 O1 S1'
_chemical_name_systematic        
'2-(benzylamino)-8-fluoro-3-nitro-N-phenylquinoline-4-carboxamide dimethyl sulfoxide solvate'
_symmetry_cell_setting           monoclinic
_symmetry_space_group_name_H-M   'P 21/c'
_symmetry_Int_Tables_number      14
_space_group_name_Hall           '-P 2ybc'
loop_
_symmetry_equiv_pos_site_id
_symmetry_equiv_pos_as_xyz
1 x,y,z
2 -x,1/2+y,1/2-z
3 -x,-y,-z
4 x,1/2-y,1/2+z
_cell_length_a                   10.547(2)
_cell_length_b                   11.191(2)
_cell_length_c                   20.185(4)
_cell_angle_alpha                90
_cell_angle_beta                 91.115(3)
_cell_angle_gamma                90
_cell_volume                     2382.01
_exptl_crystal_colour            red
_exptl_crystal_description       block
_cell_formula_units_Z            4
loop_
_atom_site_label
_atom_site_type_symbol
_atom_site_fract_x
_atom_site_fract_y
_atom_site_fract_z
F1 F 0.00680(19) 0.2151(2) -0.15351(10)
O1 O 0.4055(2) 0.0296(2) 0.08116(14)
O2 O 0.1857(2) 0.0443(3) 0.17547(16)
O3 O -0.0051(3) 0.1031(3) 0.17821(13)
N1 N -0.0057(2) 0.1677(2) -0.02339(12)
N2 N 0.37624(19) 0.2095(2) 0.13116(11)
H1 H 0.3262 0.2702 0.1310
N3 N 0.0934(3) 0.0886(3) 0.14905(15)
N4 N -0.1307(2) 0.1313(2) 0.06481(13)
H2 H -0.1385 0.1172 0.1064
C1 C 0.1105(3) 0.1787(2) -0.05090(15)
C2 C 0.2274(3) 0.1664(2) -0.01525(15)
C3 C 0.3436(3) 0.1791(3) -0.04878(18)
H3 H 0.4200 0.1721 -0.0253
C4 C 0.3440(3) 0.2014(3) -0.11472(19)
H4 H 0.4207 0.2088 -0.1363
C5 C 0.2294(4) 0.2134(4) -0.15093(18)
H5 H 0.2300 0.2284 -0.1962
C6 C 0.1179(3) 0.2029(3) -0.11898(16)
C7 C 0.2185(2) 0.1377(2) 0.05313(15)
C8 C 0.1012(3) 0.1244(2) 0.08007(14)
C9 C -0.0135(2) 0.1421(2) 0.04017(15)
C10 C 0.3429(3) 0.1189(3) 0.09169(16)
C11 C 0.4848(2) 0.2172(3) 0.17334(13)
C12 C 0.5037(3) 0.3233(3) 0.20748(15)
H6 H 0.4458 0.3854 0.2024
C13 C 0.6085(3) 0.3371(4) 0.24921(16)
H7 H 0.6212 0.4088 0.2717
C14 C 0.6942(3) 0.2447(4) 0.25745(16)
H8 H 0.7645 0.2539 0.2855
C15 C 0.6752(3) 0.1396(4) 0.22408(17)
H9 H 0.7330 0.0775 0.2297
C16 C 0.5704(3) 0.1243(3) 0.18186(15)
H10 H 0.5581 0.0524 0.1596
C17 C -0.2454(3) 0.1428(3) 0.02318(16)
H11 H -0.3152 0.1044 0.0455
H12 H -0.2325 0.1004 -0.0180
C18 C -0.2825(2) 0.2696(3) 0.00737(14)
C19 C -0.3188(3) 0.3005(3) -0.05640(16)
H13 H -0.3179 0.2428 -0.0895
C20 C -0.3563(3) 0.4150(4) -0.0720(2)
H14 H -0.3812 0.4336 -0.1152
C21 C -0.3570(3) 0.5011(4) -0.0245(3)
H15 H -0.3807 0.5788 -0.0353
C22 C -0.3220(3) 0.4721(3) 0.0404(2)
H16 H -0.3226 0.5305 0.0732
C23 C -0.2864(3) 0.3565(3) 0.05596(17)
H17 H -0.2649 0.3369 0.0995
S1 S 0.0754(4) 0.4339(6) 0.1464(3)
O4 O 0.1834(2) 0.3712(2) 0.16251(13)
C24 C -0.0472(3) 0.4180(4) 0.19619(18)
H18 H -0.1168 0.4658 0.1800
H19 H -0.0723 0.3356 0.1972
H20 H -0.0234 0.4434 0.2401
C25 C 0.0387(4) 0.4932(5) 0.0799(2)
H21 H -0.0427 0.5307 0.0834
H22 H 0.1010 0.5523 0.0691
H23 H 0.0350 0.4336 0.0457
S2? S 0.09522(18) 0.47510(16) 0.16284(10)
H24? H -0.1093 0.4806 0.1980
H25? H -0.0789 0.3544 0.1686
H26? H -0.0305 0.3881 0.2401
H27? H -0.0188 0.5596 0.0776
H28? H 0.1090 0.5079 0.0515
H29? H -0.0045 0.4219 0.0658
loop_
_geom_bond_atom_site_label_1
_geom_bond_atom_site_label_2
_geom_bond_site_symmetry_1
_geom_bond_site_symmetry_2
F1 C6 1_555 1_555
O1 C10 1_555 1_555
O2 N3 1_555 1_555
O3 N3 1_555 1_555
N1 C1 1_555 1_555
N2 H1 1_555 1_555
N3 C8 1_555 1_555
N4 H2 1_555 1_555
C1 C2 1_555 1_555
C2 C3 1_555 1_555
C3 H3 1_555 1_555
C4 C3 1_555 1_555
H4 C4 1_555 1_555
C5 C4 1_555 1_555
H5 C5 1_555 1_555
C6 C1 1_555 1_555
C7 C2 1_555 1_555
C8 C7 1_555 1_555
C9 N1 1_555 1_555
C10 N2 1_555 1_555
C11 N2 1_555 1_555
C12 C11 1_555 1_555
H6 C12 1_555 1_555
C13 C12 1_555 1_555
H7 C13 1_555 1_555
C14 C13 1_555 1_555
H8 C14 1_555 1_555
C15 C14 1_555 1_555
H9 C15 1_555 1_555
C16 C11 1_555 1_555
H10 C16 1_555 1_555
C17 N4 1_555 1_555
H11 C17 1_555 1_555
H12 C17 1_555 1_555
C18 C17 1_555 1_555
C19 C18 1_555 1_555
H13 C19 1_555 1_555
C20 C19 1_555 1_555
H14 C20 1_555 1_555
C21 C20 1_555 1_555
H15 C21 1_555 1_555
C22 C21 1_555 1_555
H16 C22 1_555 1_555
C23 C18 1_555 1_555
H17 C23 1_555 1_555
S1 O4 1_555 1_555
C24 S1 1_555 1_555
H18 C24 1_555 1_555
H19 C24 1_555 1_555
H20 C24 1_555 1_555
C25 S1 1_555 1_555
H21 C25 1_555 1_555
H22 C25 1_555 1_555
H23 C25 1_555 1_555
N4 C9 1_555 1_555
C5 C6 1_555 1_555
C7 C10 1_555 1_555
C8 C9 1_555 1_555
C15 C16 1_555 1_555
C22 C23 1_555 1_555

#END
