
#######################################################################
#
#                 Cambridge Crystallographic Data Centre
#                                CCDC 
#
#######################################################################
#
# If this CIF has been generated from an entry in the Cambridge 
# Structural Database, then it will include bibliographic, chemical, 
# crystal, experimental, refinement or atomic coordinate data resulting 
# from the CCDC's data processing and validation procedures.
#
#######################################################################

data_QELVUY
_chemical_formula_moiety         'C17 H13 N1 O3'
_chemical_name_systematic        3-(2-Carbamoylphenyl)-4-phenylfuran-2(5H)-one
_symmetry_cell_setting           monoclinic
_symmetry_space_group_name_H-M   'P 21/c'
_symmetry_Int_Tables_number      14
_space_group_name_Hall           '-P 2ybc'
loop_
_symmetry_equiv_pos_site_id
_symmetry_equiv_pos_as_xyz
1 x,y,z
2 -x,1/2+y,1/2-z
3 -x,-y,-z
4 x,1/2-y,1/2+z
_cell_length_a                   10.157(1)
_cell_length_b                   17.892(2)
_cell_length_c                   7.618(1)
_cell_angle_alpha                90
_cell_angle_beta                 93.40(1)
_cell_angle_gamma                90
_cell_volume                     1381.98
_exptl_crystal_colour            colorless
_exptl_crystal_description       prismatic
_chemical_melting_point          'at 176 deg.C'
_cell_formula_units_Z            4
loop_
_atom_site_label
_atom_site_type_symbol
_atom_site_fract_x
_atom_site_fract_y
_atom_site_fract_z
O1 O 1.1037(2) 0.03888(10) 0.6990(2)
O2 O 1.0265(2) 0.1465(1) 0.5830(2)
O3 O 0.8205(2) 0.1601(1) 0.9928(2)
N1 N 0.8420(3) 0.2650(1) 0.8309(3)
C1 C 0.8781(2) 0.0543(1) 0.6941(3)
C2 C 0.9025(2) -0.0135(1) 0.7681(3)
C3 C 1.0473(3) -0.0273(2) 0.7722(4)
C4 C 1.0049(3) 0.0874(2) 0.6523(3)
C5 C 0.7995(3) 0.1956(2) 0.8548(3)
C6 C 0.7173(2) 0.1611(1) 0.7052(3)
C7 C 0.7516(2) 0.0915(1) 0.6397(3)
C8 C 0.6696(3) 0.0580(2) 0.5093(4)
C9 C 0.5535(3) 0.0924(2) 0.4476(4)
C10 C 0.5210(3) 0.1617(2) 0.5131(4)
C11 C 0.6026(3) 0.1960(2) 0.6401(4)
C12 C 0.8125(2) -0.0652(1) 0.8500(3)
C13 C 0.8417(3) -0.1414(2) 0.8620(4)
C14 C 0.7629(4) -0.1890(2) 0.9532(5)
C15 C 0.6558(3) -0.1609(2) 1.0358(5)
C16 C 0.6258(3) -0.0858(2) 1.0252(4)
C17 C 0.7025(3) -0.0381(2) 0.9313(4)
H1 H 1.087(3) -0.033(1) 0.889(4)
H2 H 1.072(3) -0.070(2) 0.697(4)
H3 H 0.694(2) 0.012(1) 0.462(3)
H4 H 0.490(3) 0.069(2) 0.355(4)
H5 H 0.442(3) 0.185(2) 0.467(4)
H6 H 0.576(3) 0.246(2) 0.685(4)
H7 H 0.924(3) -0.164(2) 0.805(4)
H8 H 0.792(3) -0.242(2) 0.974(4)
H9 H 0.606(3) -0.193(2) 1.104(4)
H10 H 0.555(3) -0.066(2) 1.082(4)
H11 H 0.684(3) 0.017(2) 0.934(3)
H12 H 0.887(3) 0.287(2) 0.912(4)
H13 H 0.828(3) 0.290(2) 0.719(4)
loop_
_geom_bond_atom_site_label_1
_geom_bond_atom_site_label_2
_geom_bond_site_symmetry_1
_geom_bond_site_symmetry_2
O1 C3 1_555 1_555
O2 C4 1_555 1_555
O3 C5 1_555 1_555
N1 C5 1_555 1_555
C1 C2 1_555 1_555
C2 C3 1_555 1_555
C3 H1 1_555 1_555
C4 O1 1_555 1_555
C5 C6 1_555 1_555
C6 C7 1_555 1_555
C7 C1 1_555 1_555
C8 C7 1_555 1_555
C9 C8 1_555 1_555
C10 C9 1_555 1_555
C11 C6 1_555 1_555
C12 C2 1_555 1_555
C13 C12 1_555 1_555
C14 C13 1_555 1_555
C15 C14 1_555 1_555
C16 C15 1_555 1_555
C17 C12 1_555 1_555
H2 C3 1_555 1_555
H3 C8 1_555 1_555
H4 C9 1_555 1_555
H5 C10 1_555 1_555
H6 C11 1_555 1_555
H7 C13 1_555 1_555
H8 C14 1_555 1_555
H9 C15 1_555 1_555
H10 C16 1_555 1_555
H11 C17 1_555 1_555
H12 N1 1_555 1_555
H13 N1 1_555 1_555
C1 C4 1_555 1_555
C10 C11 1_555 1_555
C16 C17 1_555 1_555

#END
