
#######################################################################
#
#                 Cambridge Crystallographic Data Centre
#                                CCDC 
#
#######################################################################
#
# If this CIF has been generated from an entry in the Cambridge 
# Structural Database, then it will include bibliographic, chemical, 
# crystal, experimental, refinement or atomic coordinate data resulting 
# from the CCDC's data processing and validation procedures.
#
#######################################################################

data_QELXIO
_chemical_formula_moiety         'C17 H13 N1 O3'
_chemical_name_systematic        
12-Phenylspiro(isoindoline-3,4'-oxolane)-1,11-dione
_symmetry_cell_setting           monoclinic
_symmetry_space_group_name_H-M   'P 21/n'
_symmetry_Int_Tables_number      14
_space_group_name_Hall           '-P 2yn'
loop_
_symmetry_equiv_pos_site_id
_symmetry_equiv_pos_as_xyz
1 x,y,z
2 1/2-x,1/2+y,1/2-z
3 -x,-y,-z
4 1/2+x,1/2-y,1/2+z
_cell_length_a                   9.29(6)
_cell_length_b                   12.02(7)
_cell_length_c                   12.39(9)
_cell_angle_alpha                90
_cell_angle_beta                 96.4(6)
_cell_angle_gamma                90
_cell_volume                     1374.92
_exptl_crystal_colour            colorless
_exptl_crystal_description       prismatic
_chemical_melting_point          '191 deg.C'
_cell_formula_units_Z            4
loop_
_atom_site_label
_atom_site_type_symbol
_atom_site_fract_x
_atom_site_fract_y
_atom_site_fract_z
O1 O 0.5178(2) 0.5174(1) -0.1773(1)
O2 O 0.4145(1) 0.4059(1) -0.0655(1)
O3 O 0.8569(2) 0.2606(1) 0.2088(1)
N1 N 0.6864(2) 0.3180(1) 0.0716(1)
C1 C 0.5985(2) 0.2722(1) -0.0228(1)
C2 C 0.6235(2) 0.3329(2) -0.1294(1)
C3 C 0.5198(2) 0.4300(2) -0.1295(2)
C4 C 0.4371(2) 0.2947(2) -0.0199(2)
C5 C 0.7775(2) 0.2422(2) 0.1252(1)
C6 C 0.7571(2) 0.1372(2) 0.0633(1)
C7 C 0.6480(2) 0.1520(2) -0.0206(1)
C8 C 0.6068(2) 0.0670(2) -0.0925(2)
C9 C 0.6805(2) -0.0332(2) -0.0788(2)
C10 C 0.7917(2) -0.0487(2) 0.0046(2)
C11 C 0.8312(2) 0.0365(2) 0.0776(2)
C12 C 0.7786(2) 0.3551(2) -0.1467(1)
C13 C 0.8604(2) 0.2682(2) -0.1844(2)
C14 C 1.0056(2) 0.2835(2) -0.1978(2)
C15 C 1.0695(3) 0.3856(2) -0.1759(2)
C16 C 0.9912(3) 0.4722(2) -0.1385(2)
C17 C 0.8460(2) 0.4570(2) -0.1229(2)
H1 H 0.661(2) 0.382(2) 0.100(2)
H2 H 0.576(2) 0.288(1) -0.186(1)
H3 H 0.408(2) 0.299(2) 0.059(2)
H4 H 0.379(2) 0.247(2) -0.067(2)
H5 H 0.531(2) 0.074(2) -0.153(2)
H6 H 0.653(2) -0.093(2) -0.129(2)
H7 H 0.850(2) -0.120(2) 0.012(2)
H8 H 0.913(2) 0.030(2) 0.136(2)
H9 H 0.814(2) 0.193(2) -0.201(2)
H10 H 1.056(3) 0.222(2) -0.224(2)
H11 H 1.163(3) 0.397(2) -0.186(2)
H12 H 1.029(2) 0.542(2) -0.123(2)
H13 H 0.794(2) 0.517(2) -0.098(2)
loop_
_geom_bond_atom_site_label_1
_geom_bond_atom_site_label_2
_geom_bond_site_symmetry_1
_geom_bond_site_symmetry_2
O1 C3 1_555 1_555
O2 C3 1_555 1_555
O3 C5 1_555 1_555
N1 C1 1_555 1_555
C1 C2 1_555 1_555
C2 C3 1_555 1_555
C4 O2 1_555 1_555
C5 N1 1_555 1_555
C6 C5 1_555 1_555
C7 C1 1_555 1_555
C8 C7 1_555 1_555
C9 C8 1_555 1_555
C10 C9 1_555 1_555
C11 C6 1_555 1_555
C12 C2 1_555 1_555
C13 C12 1_555 1_555
C14 C13 1_555 1_555
C15 C14 1_555 1_555
C16 C15 1_555 1_555
C17 C12 1_555 1_555
H1 N1 1_555 1_555
H2 C2 1_555 1_555
H3 C4 1_555 1_555
H4 C4 1_555 1_555
H5 C8 1_555 1_555
H6 C9 1_555 1_555
H7 C10 1_555 1_555
H8 C11 1_555 1_555
H9 C13 1_555 1_555
H10 C14 1_555 1_555
H11 C15 1_555 1_555
H12 C16 1_555 1_555
H13 C17 1_555 1_555
C1 C4 1_555 1_555
C6 C7 1_555 1_555
C10 C11 1_555 1_555
C16 C17 1_555 1_555

#END
