
#######################################################################
#
#                 Cambridge Crystallographic Data Centre
#                                CCDC 
#
#######################################################################
#
# If this CIF has been generated from an entry in the Cambridge 
# Structural Database, then it will include bibliographic, chemical, 
# crystal, experimental, refinement or atomic coordinate data resulting 
# from the CCDC's data processing and validation procedures.
#
#######################################################################

data_QELYUB
_chemical_formula_moiety         'C21 H15 N1 O3'
_chemical_name_systematic        
3-(2-Carbamoylphenyl)-4-(1-naphthyl)furan-2(5H)-one
_symmetry_cell_setting           monoclinic
_symmetry_space_group_name_H-M   'P 21/n'
_symmetry_Int_Tables_number      14
_space_group_name_Hall           '-P 2yn'
loop_
_symmetry_equiv_pos_site_id
_symmetry_equiv_pos_as_xyz
1 x,y,z
2 1/2-x,1/2+y,1/2-z
3 -x,-y,-z
4 1/2+x,1/2-y,1/2+z
_cell_length_a                   8.029(3)
_cell_length_b                   19.622(7)
_cell_length_c                   10.200(2)
_cell_angle_alpha                90
_cell_angle_beta                 97.16(2)
_cell_angle_gamma                90
_cell_volume                     1594.43
_exptl_crystal_colour            colorless
_exptl_crystal_description       prismatic
_chemical_melting_point          '222 deg.C'
_cell_formula_units_Z            4
loop_
_atom_site_label
_atom_site_type_symbol
_atom_site_fract_x
_atom_site_fract_y
_atom_site_fract_z
O1 O 0.2466(4) 0.2471(1) 0.9787(2)
O2 O 0.3673(4) 0.1502(2) 1.0607(2)
O3 O 0.0742(3) 0.0634(1) 0.8851(2)
N1 N 0.2211(5) -0.0215(2) 0.9929(3)
C1 C 0.2480(4) 0.2225(2) 0.7557(3)
C2 C 0.3083(4) 0.1682(2) 0.8248(3)
C3 C 0.3126(5) 0.1840(2) 0.9668(3)
C4 C 0.2025(6) 0.2761(2) 0.8507(3)
C5 C 0.3831(4) 0.1053(2) 0.7796(3)
C6 C 0.3437(4) 0.0400(2) 0.8230(3)
C7 C 0.4246(6) -0.0168(2) 0.7793(5)
C8 C 0.5413(6) -0.0089(3) 0.6908(5)
C9 C 0.5808(6) 0.0550(3) 0.6487(4)
C10 C 0.5032(5) 0.1114(3) 0.6930(4)
C11 C 0.2044(5) 0.0296(2) 0.9055(3)
C12 C 0.2309(4) 0.2342(2) 0.6122(3)
C13 C 0.3033(5) 0.2905(2) 0.5617(3)
C14 C 0.3143(5) 0.2978(2) 0.4271(4)
C15 C 0.2547(4) 0.2479(2) 0.3408(3)
C16 C 0.1736(4) 0.1901(2) 0.3868(3)
C17 C 0.1098(4) 0.1364(2) 0.2993(3)
C18 C 0.0210(5) 0.0849(2) 0.3432(4)
C19 C -0.0104(4) 0.0829(2) 0.4752(4)
C20 C 0.0574(4) 0.1292(2) 0.5641(3)
C21 C 0.1551(4) 0.1841(2) 0.5228(3)
H1 H 0.079(6) 0.287(2) 0.832(4)
H2 H 0.265(6) 0.317(3) 0.832(5)
H3 H 0.14(1) -0.031(4) 1.085(9)
H4 H 0.323(6) -0.037(2) 1.012(4)
H5 H 0.404(6) -0.050(2) 0.826(4)
H6 H 0.587(6) -0.039(2) 0.656(4)
H7 H 0.667(6) 0.055(2) 0.595(4)
H8 H 0.537(5) 0.148(2) 0.666(4)
H9 H 0.349(7) 0.330(3) 0.618(5)
H10 H 0.367(5) 0.328(2) 0.395(4)
H11 H 0.256(5) 0.251(2) 0.247(5)
H12 H 0.137(5) 0.134(2) 0.211(4)
H13 H -0.012(5) 0.044(2) 0.292(4)
H14 H -0.081(5) 0.047(2) 0.518(4)
H15 H 0.043(4) 0.128(2) 0.664(3)
loop_
_geom_bond_atom_site_label_1
_geom_bond_atom_site_label_2
_geom_bond_site_symmetry_1
_geom_bond_site_symmetry_2
O1 C3 1_555 1_555
O2 C3 1_555 1_555
O3 C11 1_555 1_555
N1 C11 1_555 1_555
C1 C2 1_555 1_555
C2 C3 1_555 1_555
C4 O1 1_555 1_555
C5 C2 1_555 1_555
C6 C5 1_555 1_555
C7 C6 1_555 1_555
C8 C7 1_555 1_555
C9 C8 1_555 1_555
C10 C5 1_555 1_555
C11 C6 1_555 1_555
C12 C1 1_555 1_555
C13 C12 1_555 1_555
C14 C13 1_555 1_555
C15 C14 1_555 1_555
C16 C15 1_555 1_555
C17 C16 1_555 1_555
C18 C17 1_555 1_555
C19 C18 1_555 1_555
C20 C19 1_555 1_555
C21 C12 1_555 1_555
H1 C4 1_555 1_555
H2 C4 1_555 1_555
H3 N1 1_555 1_555
H4 N1 1_555 1_555
H5 C7 1_555 1_555
H6 C8 1_555 1_555
H7 C9 1_555 1_555
H8 C10 1_555 1_555
H9 C13 1_555 1_555
H10 C14 1_555 1_555
H11 C15 1_555 1_555
H12 C17 1_555 1_555
H13 C18 1_555 1_555
H14 C19 1_555 1_555
H15 C20 1_555 1_555
C1 C4 1_555 1_555
C9 C10 1_555 1_555
C16 C21 1_555 1_555
C20 C21 1_555 1_555

#END
