
#######################################################################
#
#                 Cambridge Crystallographic Data Centre
#                                CCDC 
#
#######################################################################
#
# If this CIF has been generated from an entry in the Cambridge 
# Structural Database, then it will include bibliographic, chemical, 
# crystal, experimental, refinement or atomic coordinate data resulting 
# from the CCDC's data processing and validation procedures.
#
#######################################################################

data_QELYIQ
_chemical_formula_moiety         'C22 H24 O4 Si1'
_chemical_name_systematic        
'2-Methyl-4-phenyl-2-(trimethylsilyloxy)-3,4-dihydro-2H,5H-pyrano (3,2-c)(1)benzopyran-5-one'
_symmetry_cell_setting           monoclinic
_symmetry_space_group_name_H-M   'P 21/n'
_symmetry_Int_Tables_number      14
_space_group_name_Hall           '-P 2yn'
loop_
_symmetry_equiv_pos_site_id
_symmetry_equiv_pos_as_xyz
1 x,y,z
2 1/2-x,1/2+y,1/2-z
3 -x,-y,-z
4 1/2+x,1/2-y,1/2+z
_cell_length_a                   10.038(2)
_cell_length_b                   12.396(3)
_cell_length_c                   16.853(3)
_cell_angle_alpha                90
_cell_angle_beta                 100.74(3)
_cell_angle_gamma                90
_cell_volume                     2060.3
_exptl_crystal_colour            colorless
_exptl_crystal_description       block
_chemical_melting_point          '418.2 K'
_cell_formula_units_Z            4
_exptl_crystal_recrystallization_method 'petroleum ether/ethyl acetate'
loop_
_atom_site_label
_atom_site_type_symbol
_atom_site_fract_x
_atom_site_fract_y
_atom_site_fract_z
Si1 Si 0.31523(9) 0.26530(8) 0.07053(5)
O1 O 0.44947(18) 0.24306(16) 0.14167(11)
O2 O 0.6160(2) 0.17376(15) 0.07717(12)
O3 O 0.87720(19) 0.41315(17) 0.03307(12)
O4 O 0.8915(2) 0.4807(2) 0.15477(14)
C1 C 0.2134(4) 0.3587(3) 0.1192(2)
H1 H 0.1882 0.3242 0.1652
H2 H 0.1331 0.3784 0.0815
H3 H 0.2656 0.4222 0.1363
C2 C 0.2167(4) 0.1409(3) 0.0392(2)
H4 H 0.1895 0.1086 0.0854
H5 H 0.2719 0.0910 0.0161
H6 H 0.1377 0.1588 -0.0002
C3 C 0.3651(4) 0.3281(4) -0.0189(2)
H7 H 0.4159 0.3926 -0.0030
H8 H 0.2853 0.3458 -0.0577
H9 H 0.4199 0.2786 -0.0426
C4 C 0.5148(4) 0.0556(2) 0.1578(2)
H10 H 0.4479 0.0374 0.1113
H11 H 0.4768 0.0471 0.2057
H12 H 0.5918 0.0088 0.1607
C5 C 0.5593(3) 0.1721(2) 0.15128(17)
C6 C 0.6649(3) 0.2082(2) 0.22184(17)
H13 H 0.7393 0.1570 0.2298
H14 H 0.6255 0.2080 0.2702
C7 C 0.7206(3) 0.3216(2) 0.21002(16)
H15 H 0.8081 0.3264 0.2470
C8 C 0.7515(3) 0.3273(2) 0.12620(16)
C9 C 0.7027(3) 0.2544(2) 0.06872(16)
C10 C 0.7445(3) 0.2541(2) -0.00927(16)
C11 C 0.7039(4) 0.1784(3) -0.06942(19)
H16 H 0.6436 0.1243 -0.0614
C12 C 0.7515(4) 0.1821(3) -0.1405(2)
H17 H 0.7237 0.1308 -0.1804
C13 C 0.8408(4) 0.2624(3) -0.1525(2)
H18 H 0.8740 0.2639 -0.2004
C14 C 0.8817(3) 0.3398(3) -0.09525(19)
H19 H 0.9406 0.3945 -0.1042
C15 C 0.8331(3) 0.3348(2) -0.02364(17)
C16 C 0.8428(3) 0.4108(3) 0.10861(18)
C17 C 0.6348(3) 0.4134(2) 0.23277(16)
C18 C 0.6242(4) 0.4280(3) 0.31231(19)
H20 H 0.6691 0.3808 0.3512
C19 C 0.5485(4) 0.5109(3) 0.3356(2)
H21 H 0.5425 0.5187 0.3897
C20 C 0.4825(4) 0.5818(3) 0.2799(2)
H22 H 0.4314 0.6376 0.2958
C21 C 0.4921(3) 0.5698(3) 0.2003(2)
H23 H 0.4477 0.6179 0.1619
C22 C 0.5677(3) 0.4865(2) 0.17707(17)
H24 H 0.5738 0.4793 0.1229
loop_
_geom_bond_atom_site_label_1
_geom_bond_atom_site_label_2
_geom_bond_site_symmetry_1
_geom_bond_site_symmetry_2
Si1 O1 1_555 1_555
O1 C5 1_555 1_555
O2 C5 1_555 1_555
O3 C15 1_555 1_555
O4 C16 1_555 1_555
C1 Si1 1_555 1_555
H1 C1 1_555 1_555
H2 C1 1_555 1_555
H3 C1 1_555 1_555
C2 Si1 1_555 1_555
H4 C2 1_555 1_555
H5 C2 1_555 1_555
H6 C2 1_555 1_555
C3 Si1 1_555 1_555
H7 C3 1_555 1_555
H8 C3 1_555 1_555
H9 C3 1_555 1_555
C4 H10 1_555 1_555
H11 C4 1_555 1_555
H12 C4 1_555 1_555
C5 C4 1_555 1_555
C6 C5 1_555 1_555
H13 C6 1_555 1_555
H14 C6 1_555 1_555
C7 C6 1_555 1_555
H15 C7 1_555 1_555
C8 C7 1_555 1_555
C9 O2 1_555 1_555
C10 C9 1_555 1_555
C11 C10 1_555 1_555
H16 C11 1_555 1_555
C12 C11 1_555 1_555
H17 C12 1_555 1_555
C13 C12 1_555 1_555
H18 C13 1_555 1_555
C14 C13 1_555 1_555
H19 C14 1_555 1_555
C15 C10 1_555 1_555
C16 O3 1_555 1_555
C17 C7 1_555 1_555
C18 C17 1_555 1_555
H20 C18 1_555 1_555
C19 C18 1_555 1_555
H21 C19 1_555 1_555
C20 C19 1_555 1_555
H22 C20 1_555 1_555
C21 C20 1_555 1_555
H23 C21 1_555 1_555
C22 C17 1_555 1_555
H24 C22 1_555 1_555
C8 C9 1_555 1_555
C8 C16 1_555 1_555
C14 C15 1_555 1_555
C21 C22 1_555 1_555

#END
