
#######################################################################
#
#                 Cambridge Crystallographic Data Centre
#                                CCDC 
#
#######################################################################
#
# If this CIF has been generated from an entry in the Cambridge 
# Structural Database, then it will include bibliographic, chemical, 
# crystal, experimental, refinement or atomic coordinate data resulting 
# from the CCDC's data processing and validation procedures.
#
#######################################################################

data_QELYEM
_chemical_formula_moiety         'C24 H20 F1 N3 O1'
_chemical_name_systematic        
(4Z)-4-((4-Fluorobenzylamino)(phenyl)methylene)-3-methyl-1-phenyl-1H-pyrazol-5(4H)-one
_symmetry_cell_setting           triclinic
_symmetry_space_group_name_H-M   'P -1'
_symmetry_Int_Tables_number      2
_space_group_name_Hall           '-P 1'
loop_
_symmetry_equiv_pos_site_id
_symmetry_equiv_pos_as_xyz
1 x,y,z
2 -x,-y,-z
_cell_length_a                   10.115(4)
_cell_length_b                   10.456(4)
_cell_length_c                   11.192(4)
_cell_angle_alpha                98.162(6)
_cell_angle_beta                 95.571(6)
_cell_angle_gamma                116.225(6)
_cell_volume                     1033.93
_exptl_crystal_colour            colorless
_exptl_crystal_description       prism
_cell_formula_units_Z            2
_exptl_crystal_recrystallization_method ethanol
loop_
_atom_site_label
_atom_site_type_symbol
_atom_site_fract_x
_atom_site_fract_y
_atom_site_fract_z
F1 F 0.5356(4) 1.1149(3) 0.9201(3)
O1 O 0.9144(3) 1.1696(2) 0.46432(19)
N1 N 0.9596(3) 1.1807(2) 0.2632(2)
N2 N 0.9305(3) 1.0818(3) 0.1536(2)
N3 N 0.7610(3) 0.8891(3) 0.4825(2)
H1 H 0.8045 0.9812 0.5125
C1 C 1.0509(4) 1.3793(3) 0.1555(3)
H2 H 1.0166 1.3118 0.0816
C2 C 1.1213(4) 1.5269(4) 0.1561(4)
H3 H 1.1350 1.5581 0.0824
C3 C 1.1712(4) 1.6276(4) 0.2645(4)
H4 H 1.2176 1.7267 0.2644
C4 C 1.1522(4) 1.5809(4) 0.3726(4)
H5 H 1.1858 1.6487 0.4463
C5 C 1.0832(4) 1.4335(3) 0.3731(3)
H6 H 1.0715 1.4027 0.4471
C6 C 1.0317(3) 1.3323(3) 0.2644(3)
C7 C 0.9080(3) 1.1104(3) 0.3571(3)
C8 C 0.8445(3) 0.9584(3) 0.3031(3)
C9 C 0.8629(3) 0.9515(3) 0.1778(3)
C10 C 0.8178(4) 0.8216(3) 0.0780(3)
H7 H 0.8535 0.8529 0.0056
H8 H 0.7106 0.7662 0.0603
H9 H 0.8604 0.7620 0.1038
C11 C 0.7699(3) 0.8495(3) 0.3670(3)
C12 C 0.6991(3) 0.6924(3) 0.3086(3)
C13 C 0.7843(4) 0.6204(3) 0.3042(3)
H10 H 0.8844 0.6684 0.3422
C14 C 0.7212(5) 0.4764(4) 0.2431(3)
H11 H 0.7797 0.4285 0.2394
C15 C 0.5742(5) 0.4042(4) 0.1882(3)
H12 H 0.5326 0.3077 0.1468
C16 C 0.4879(4) 0.4750(4) 0.1947(4)
H13 H 0.3872 0.4258 0.1584
C17 C 0.5498(4) 0.6186(4) 0.2546(3)
H14 H 0.4906 0.6659 0.2587
C18 C 0.6857(5) 0.7944(4) 0.5652(3)
H15 H 0.7520 0.7620 0.6039
H16 H 0.5967 0.7092 0.5190
C19 C 0.6430(4) 0.8777(3) 0.6613(3)
C20 C 0.7301(4) 0.9400(3) 0.7741(3)
H17 H 0.8157 0.9289 0.7920
C21 C 0.6944(5) 1.0199(4) 0.8633(3)
H18 H 0.7545 1.0621 0.9406
C22 C 0.5695(7) 1.0345(5) 0.8346(5)
C23 C 0.4815(5) 0.9747(5) 0.7238(6)
H19 H 0.3964 0.9866 0.7060
C24 C 0.5180(4) 0.8963(4) 0.6376(4)
H20 H 0.4566 0.8544 0.5609
loop_
_geom_bond_atom_site_label_1
_geom_bond_atom_site_label_2
_geom_bond_site_symmetry_1
_geom_bond_site_symmetry_2
F1 C22 1_555 1_555
O1 C7 1_555 1_555
N1 N2 1_555 1_555
N2 C9 1_555 1_555
N3 H1 1_555 1_555
C1 H2 1_555 1_555
C2 C1 1_555 1_555
H3 C2 1_555 1_555
C3 C2 1_555 1_555
H4 C3 1_555 1_555
C4 C3 1_555 1_555
H5 C4 1_555 1_555
C5 C4 1_555 1_555
H6 C5 1_555 1_555
C6 N1 1_555 1_555
C7 N1 1_555 1_555
C8 C7 1_555 1_555
C9 C8 1_555 1_555
C10 C9 1_555 1_555
H7 C10 1_555 1_555
H8 C10 1_555 1_555
H9 C10 1_555 1_555
C11 N3 1_555 1_555
C12 C11 1_555 1_555
C13 C12 1_555 1_555
H10 C13 1_555 1_555
C14 C13 1_555 1_555
H11 C14 1_555 1_555
C15 C14 1_555 1_555
H12 C15 1_555 1_555
C16 C15 1_555 1_555
H13 C16 1_555 1_555
C17 C12 1_555 1_555
H14 C17 1_555 1_555
C18 N3 1_555 1_555
H15 C18 1_555 1_555
H16 C18 1_555 1_555
C19 C18 1_555 1_555
C20 C19 1_555 1_555
H17 C20 1_555 1_555
C21 C20 1_555 1_555
H18 C21 1_555 1_555
C22 C21 1_555 1_555
C23 C22 1_555 1_555
H19 C23 1_555 1_555
C24 C19 1_555 1_555
H20 C24 1_555 1_555
C1 C6 1_555 1_555
C5 C6 1_555 1_555
C8 C11 1_555 1_555
C16 C17 1_555 1_555
C23 C24 1_555 1_555

#END
