
#######################################################################
#
#                 Cambridge Crystallographic Data Centre
#                                CCDC 
#
#######################################################################
#
# If this CIF has been generated from an entry in the Cambridge 
# Structural Database, then it will include bibliographic, chemical, 
# crystal, experimental, refinement or atomic coordinate data resulting 
# from the CCDC's data processing and validation procedures.
#
#######################################################################

data_QELZEN
_chemical_formula_moiety         'C18 H17 N1 O4'
_chemical_name_systematic        
'Diethyl pyrrolo(2,1-a)isoquinoline-1,2-dicarboxylate'
_symmetry_cell_setting           triclinic
_symmetry_space_group_name_H-M   'P -1'
_symmetry_Int_Tables_number      2
_space_group_name_Hall           '-P 1'
loop_
_symmetry_equiv_pos_site_id
_symmetry_equiv_pos_as_xyz
1 x,y,z
2 -x,-y,-z
_cell_length_a                   7.5960(15)
_cell_length_b                   9.920(2)
_cell_length_c                   11.451(2)
_cell_angle_alpha                92.27(3)
_cell_angle_beta                 98.09(3)
_cell_angle_gamma                109.42(3)
_cell_volume                     802.213
_exptl_crystal_colour            colorless
_exptl_crystal_description       block
_chemical_melting_point          '120.0 deg.C'
_cell_formula_units_Z            2
_exptl_crystal_recrystallization_method acetone
loop_
_atom_site_label
_atom_site_type_symbol
_atom_site_fract_x
_atom_site_fract_y
_atom_site_fract_z
C1 C 0.6678(3) 0.8925(2) 0.63017(19)
C2 C 0.5761(3) 0.8403(2) 0.51295(19)
C3 C 0.6626(3) 0.9369(2) 0.43881(19)
H1 H 0.6309 0.9285 0.3567
C4 C 0.9238(3) 1.1699(3) 0.4669(2)
H2 H 0.9128 1.1835 0.3866
C5 C 1.0551(3) 1.2675(3) 0.5444(2)
H3 H 1.1342 1.3496 0.5176
C6 C 1.0777(3) 1.2493(3) 0.6682(2)
C7 C 0.9549(3) 1.1263(2) 0.7104(2)
C8 C 0.8111(3) 1.0219(2) 0.62484(18)
C9 C 0.9808(4) 1.1107(3) 0.8315(2)
H4 H 0.9015 1.0304 0.8603
C10 C 1.1211(4) 1.2117(3) 0.9084(2)
H5 H 1.1356 1.1996 0.9889
C11 C 1.2418(4) 1.3317(3) 0.8674(3)
H6 H 1.3374 1.3996 0.9202
C12 C 1.2202(4) 1.3505(3) 0.7491(3)
H7 H 1.3012 1.4316 0.7222
C13 C 0.6163(3) 0.8221(2) 0.7382(2)
C14 C 0.4292(3) 0.7000(3) 0.4768(2)
C15 C 0.3882(6) 0.7700(4) 0.8670(3)
H8 H 0.3286 0.6671 0.8481
H9 H 0.4925 0.7873 0.9317
C16 C 0.2526(6) 0.8310(6) 0.9012(4)
H10 H 0.2038 0.7868 0.9684
H11 H 0.1506 0.8143 0.8364
H12 H 0.3134 0.9324 0.9214
C17 C 0.2389(4) 0.5434(3) 0.3110(2)
H13 H 0.1213 0.5219 0.3423
H14 H 0.2930 0.4696 0.3305
C18 C 0.2040(4) 0.5485(3) 0.1808(3)
H15 H 0.1180 0.4571 0.1444
H16 H 0.3213 0.5702 0.1510
H17 H 0.1499 0.6215 0.1627
N1 N 0.8023(2) 1.04708(19) 0.50565(15)
O1 O 0.7027(3) 0.7616(2) 0.79706(17)
O2 O 0.4576(3) 0.8370(2) 0.76378(16)
O3 O 0.3730(3) 0.60962(19) 0.54364(16)
O4 O 0.3689(2) 0.68256(17) 0.36088(14)
loop_
_geom_bond_atom_site_label_1
_geom_bond_atom_site_label_2
_geom_bond_site_symmetry_1
_geom_bond_site_symmetry_2
C1 C2 1_555 1_555
C2 C3 1_555 1_555
C3 H1 1_555 1_555
C4 H2 1_555 1_555
C5 C4 1_555 1_555
H3 C5 1_555 1_555
C6 C5 1_555 1_555
C7 C6 1_555 1_555
C8 C1 1_555 1_555
C9 C7 1_555 1_555
H4 C9 1_555 1_555
C10 C9 1_555 1_555
H5 C10 1_555 1_555
C11 C10 1_555 1_555
H6 C11 1_555 1_555
C12 C6 1_555 1_555
H7 C12 1_555 1_555
C13 C1 1_555 1_555
C14 C2 1_555 1_555
C15 H8 1_555 1_555
H9 C15 1_555 1_555
C16 C15 1_555 1_555
H10 C16 1_555 1_555
H11 C16 1_555 1_555
H12 C16 1_555 1_555
C17 H13 1_555 1_555
H14 C17 1_555 1_555
C18 C17 1_555 1_555
H15 C18 1_555 1_555
H16 C18 1_555 1_555
H17 C18 1_555 1_555
N1 C3 1_555 1_555
O1 C13 1_555 1_555
O2 C13 1_555 1_555
O3 C14 1_555 1_555
O4 C14 1_555 1_555
C4 N1 1_555 1_555
C7 C8 1_555 1_555
C8 N1 1_555 1_555
C11 C12 1_555 1_555
C15 O2 1_555 1_555
C17 O4 1_555 1_555

#END
