
#######################################################################
#
#                 Cambridge Crystallographic Data Centre
#                                CCDC 
#
#######################################################################
#
# If this CIF has been generated from an entry in the Cambridge 
# Structural Database, then it will include bibliographic, chemical, 
# crystal, experimental, refinement or atomic coordinate data resulting 
# from the CCDC's data processing and validation procedures.
#
#######################################################################

data_QEMBIU
_chemical_formula_moiety         'C16 H16 N2 O4'
_chemical_name_systematic        N,N'-bis(3-Methoxyphenyl)oxamide
_symmetry_cell_setting           monoclinic
_symmetry_space_group_name_H-M   'P 21/c'
_symmetry_Int_Tables_number      14
_space_group_name_Hall           '-P 2ybc'
loop_
_symmetry_equiv_pos_site_id
_symmetry_equiv_pos_as_xyz
1 x,y,z
2 -x,1/2+y,1/2-z
3 -x,-y,-z
4 x,1/2-y,1/2+z
_cell_length_a                   5.0776(5)
_cell_length_b                   5.3347(6)
_cell_length_c                   26.243(3)
_cell_angle_alpha                90
_cell_angle_beta                 91.396(2)
_cell_angle_gamma                90
_cell_volume                     710.646
_exptl_crystal_colour            colorless
_exptl_crystal_description       block
_cell_formula_units_Z            2
_exptl_crystal_recrystallization_method DMF
loop_
_atom_site_label
_atom_site_type_symbol
_atom_site_fract_x
_atom_site_fract_y
_atom_site_fract_z
O1 O 0.7162(2) 0.5088(2) 0.20306(4)
O2 O 0.77532(18) 0.0979(2) 0.03579(4)
N1 N 0.3452(2) 0.2175(2) 0.04084(4)
H1 H 0.1926 0.1945 0.0267
C1 C 0.5436(2) 0.3588(2) 0.12156(5)
H2 H 0.6631 0.2268 0.1210
C2 C 0.5466(3) 0.5273(3) 0.16184(5)
C3 C 0.3711(3) 0.7265(3) 0.16228(6)
H3 H 0.3769 0.8418 0.1889
C4 C 0.1883(3) 0.7519(3) 0.12304(6)
H4 H 0.0687 0.8839 0.1236
C5 C 0.1790(3) 0.5846(3) 0.08271(5)
H5 H 0.0537 0.6026 0.0565
C6 C 0.3594(2) 0.3900(2) 0.08201(5)
C7 C 0.5446(2) 0.0875(2) 0.02188(5)
C8 C 0.8869(3) 0.2976(3) 0.20525(6)
H6 H 0.9948 0.3056 0.2358
H7 H 0.9972 0.2979 0.1761
H8 H 0.7839 0.1467 0.2054
O1B O 0.2838(2) -0.5088(2) -0.20306(4)
O2B O 0.22468(18) -0.0979(2) -0.03579(4)
N1B N 0.6548(2) -0.2175(2) -0.04084(4)
H1B H 0.8074 -0.1945 -0.0267
C1B C 0.4564(2) -0.3588(2) -0.12156(5)
H2B H 0.3369 -0.2268 -0.1210
C2B C 0.4534(3) -0.5273(3) -0.16184(5)
C3B C 0.6289(3) -0.7265(3) -0.16228(6)
H3B H 0.6231 -0.8418 -0.1889
C4B C 0.8117(3) -0.7519(3) -0.12304(6)
H4B H 0.9313 -0.8839 -0.1236
C5B C 0.8210(3) -0.5846(3) -0.08271(5)
H5B H 0.9463 -0.6026 -0.0565
C6B C 0.6406(2) -0.3900(2) -0.08201(5)
C7B C 0.4554(2) -0.0875(2) -0.02188(5)
C8B C 0.1131(3) -0.2976(3) -0.20525(6)
H6B H 0.0052 -0.3056 -0.2358
H7B H 0.0028 -0.2979 -0.1761
H8B H 0.2161 -0.1467 -0.2054
loop_
_geom_bond_atom_site_label_1
_geom_bond_atom_site_label_2
_geom_bond_site_symmetry_1
_geom_bond_site_symmetry_2
O1 C2 1_555 1_555
O2 C7 1_555 1_555
N1 H1 1_555 1_555
C1 H2 1_555 1_555
C2 C1 1_555 1_555
C3 C2 1_555 1_555
H3 C3 1_555 1_555
C4 C3 1_555 1_555
H4 C4 1_555 1_555
C5 C4 1_555 1_555
H5 C5 1_555 1_555
C6 N1 1_555 1_555
C7 N1 1_555 1_555
C8 O1 1_555 1_555
H6 C8 1_555 1_555
H7 C8 1_555 1_555
H8 C8 1_555 1_555
O1B C2B 1_555 1_555
O2B C7B 1_555 1_555
N1B H1B 1_555 1_555
C1B H2B 1_555 1_555
C2B C1B 1_555 1_555
C3B C2B 1_555 1_555
H3B C3B 1_555 1_555
C4B C3B 1_555 1_555
H4B C4B 1_555 1_555
C5B C4B 1_555 1_555
H5B C5B 1_555 1_555
C6B N1B 1_555 1_555
C7B C7 1_555 1_555
C8B O1B 1_555 1_555
H6B C8B 1_555 1_555
H7B C8B 1_555 1_555
H8B C8B 1_555 1_555
C1 C6 1_555 1_555
C5 C6 1_555 1_555
N1B C7B 1_555 1_555
C1B C6B 1_555 1_555
C5B C6B 1_555 1_555

#END
