
#######################################################################
#
#                 Cambridge Crystallographic Data Centre
#                                CCDC 
#
#######################################################################
#
# If this CIF has been generated from an entry in the Cambridge 
# Structural Database, then it will include bibliographic, chemical, 
# crystal, experimental, refinement or atomic coordinate data resulting 
# from the CCDC's data processing and validation procedures.
#
#######################################################################

data_QEMBAO
_chemical_formula_moiety         'C38 H44 N2'
_chemical_name_systematic        
N^1^,N^4^-bis(2,6-diethyl-4-methylphenyl)-1,4-diphenylbutane-1,4-diimine
_symmetry_cell_setting           triclinic
_symmetry_space_group_name_H-M   'P -1'
_symmetry_Int_Tables_number      2
_space_group_name_Hall           '-P 1'
loop_
_symmetry_equiv_pos_site_id
_symmetry_equiv_pos_as_xyz
1 x,y,z
2 -x,-y,-z
_cell_length_a                   8.181(2)
_cell_length_b                   9.014(2)
_cell_length_c                   11.892(4)
_cell_angle_alpha                86.414(6)
_cell_angle_beta                 70.448(5)
_cell_angle_gamma                69.436(4)
_cell_volume                     772.229
_exptl_crystal_colour            colorless
_exptl_crystal_description       block
_cell_formula_units_Z            1
loop_
_atom_site_label
_atom_site_type_symbol
_atom_site_fract_x
_atom_site_fract_y
_atom_site_fract_z
N1 N 0.20205(19) 0.29004(16) 0.53493(13)
C1 C 0.5101(2) 0.08182(18) 0.49532(15)
H1 H 0.5082 0.1154 0.5718
H2 H 0.6291 0.0732 0.4365
C2 C 0.3582(2) 0.20667(19) 0.46014(15)
C3 C 0.3913(2) 0.23678(19) 0.33101(15)
C4 C 0.5299(3) 0.1285(2) 0.24151(17)
H3 H 0.6054 0.0345 0.2619
C5 C 0.5576(3) 0.1580(3) 0.12223(18)
H4 H 0.6495 0.0831 0.0630
C6 C 0.4495(3) 0.2977(3) 0.09133(19)
H5 H 0.4698 0.3189 0.0112
C7 C 0.3114(3) 0.4063(3) 0.17898(18)
H6 H 0.2375 0.5007 0.1581
C8 C 0.2816(3) 0.3760(2) 0.29754(17)
H7 H 0.1867 0.4500 0.3561
C9 C 0.1627(2) 0.27358(19) 0.65984(15)
C10 C 0.2268(2) 0.3527(2) 0.72458(16)
C11 C 0.1805(3) 0.3370(2) 0.84677(17)
H8 H 0.2252 0.3866 0.8899
C12 C 0.0708(3) 0.2510(2) 0.90771(16)
C13 C 0.0032(3) 0.1807(2) 0.84145(17)
H9 H -0.0738 0.1249 0.8809
C14 C 0.0459(2) 0.19035(19) 0.71898(16)
C15 C 0.0228(3) 0.2378(3) 1.04125(17)
H10 H 0.1237 0.1564 1.0577
H11 H 0.0016 0.3373 1.0787
H12 H -0.0870 0.2109 1.0722
C16 C -0.1995(15) 0.0750(16) 0.7065(9)
H13 H -0.2397 0.0429 0.6480
H14 H -0.1588 -0.0138 0.7519
H15 H -0.3005 0.1590 0.7591
C17 C 0.3341(3) 0.4583(2) 0.66471(18)
H16 H 0.4348 0.4011 0.5942
H17 H 0.3878 0.4838 0.7189
C18 C 0.2142(3) 0.6122(2) 0.62816(19)
H18 H 0.1681 0.5880 0.5699
H19 H 0.2871 0.6776 0.5945
H20 H 0.1119 0.6677 0.6972
C19 C -0.0442(17) 0.1319(18) 0.6454(12)
H21 H -0.0881 0.2179 0.5975
H22 H 0.0527 0.0461 0.5903
N1A N 0.79795(19) -0.29004(16) 0.46507(13)
C1A C 0.4899(2) -0.08182(18) 0.50468(15)
H1A H 0.4918 -0.1154 0.4282
H2A H 0.3709 -0.0732 0.5635
C2A C 0.6418(2) -0.20667(19) 0.53986(15)
C3A C 0.6087(2) -0.23678(19) 0.66899(15)
C4A C 0.4701(3) -0.1285(2) 0.75849(17)
H3A H 0.3946 -0.0345 0.7381
C5A C 0.4424(3) -0.1580(3) 0.87777(18)
H4A H 0.3505 -0.0831 0.9370
C6A C 0.5505(3) -0.2977(3) 0.90867(19)
H5A H 0.5302 -0.3189 0.9888
C7A C 0.6886(3) -0.4063(3) 0.82102(18)
H6A H 0.7625 -0.5007 0.8419
C8A C 0.7184(3) -0.3760(2) 0.70246(17)
H7A H 0.8133 -0.4500 0.6439
C9A C 0.8373(2) -0.27358(19) 0.34016(15)
C10A C 0.7732(2) -0.3527(2) 0.27542(16)
C11A C 0.8195(3) -0.3370(2) 0.15323(17)
H8A H 0.7748 -0.3866 0.1101
C12A C 0.9292(3) -0.2510(2) 0.09229(16)
C13A C 0.9968(3) -0.1807(2) 0.15855(17)
H9A H 1.0738 -0.1249 0.1191
C14A C 0.9541(2) -0.19035(19) 0.28102(16)
C15A C 0.9772(3) -0.2378(3) -0.04125(17)
H10A H 0.8763 -0.1564 -0.0577
H11A H 0.9984 -0.3373 -0.0787
H12A H 1.0870 -0.2109 -0.0722
C16A C 1.1995(15) -0.0750(16) 0.2935(9)
H13A H 1.2397 -0.0429 0.3520
H14A H 1.1588 0.0138 0.2481
H15A H 1.3005 -0.1590 0.2409
C17A C 0.6659(3) -0.4583(2) 0.33529(18)
H16A H 0.5652 -0.4011 0.4058
H17A H 0.6122 -0.4838 0.2811
C18A C 0.7858(3) -0.6122(2) 0.37184(19)
H18A H 0.8319 -0.5880 0.4301
H19A H 0.7129 -0.6776 0.4055
H20A H 0.8881 -0.6677 0.3028
C19A C 1.0442(17) -0.1319(18) 0.3546(12)
H21A H 1.0881 -0.2179 0.4025
H22A H 0.9473 -0.0461 0.4097
H23? H 0.1045 0.2562 1.0764
H24? H 0.0046 0.1376 1.0523
H25? H -0.0968 0.3181 1.0761
C20? C -0.0217(16) 0.0985(18) 0.6540(12)
H26? H 0.0067 0.1245 0.5709
H27? H 0.0415 -0.0144 0.6564
C21? C -0.2238(15) 0.1377(19) 0.7102(13)
H28? H -0.2653 0.0787 0.6681
H29? H -0.2514 0.1107 0.7921
H30? H -0.2861 0.2493 0.7068
loop_
_geom_bond_atom_site_label_1
_geom_bond_atom_site_label_2
_geom_bond_site_symmetry_1
_geom_bond_site_symmetry_2
N1 C2 1_555 1_555
C1 H1 1_555 1_555
H2 C1 1_555 1_555
C2 C1 1_555 1_555
C3 C2 1_555 1_555
C4 C3 1_555 1_555
H3 C4 1_555 1_555
C5 C4 1_555 1_555
H4 C5 1_555 1_555
C6 C5 1_555 1_555
H5 C6 1_555 1_555
C7 C6 1_555 1_555
H6 C7 1_555 1_555
C8 C3 1_555 1_555
H7 C8 1_555 1_555
C9 N1 1_555 1_555
C10 C9 1_555 1_555
C11 C10 1_555 1_555
H8 C11 1_555 1_555
C12 C11 1_555 1_555
C13 C12 1_555 1_555
H9 C13 1_555 1_555
C14 C9 1_555 1_555
C15 C12 1_555 1_555
H10 C15 1_555 1_555
H11 C15 1_555 1_555
H12 C15 1_555 1_555
C16 H13 1_555 1_555
H14 C16 1_555 1_555
H15 C16 1_555 1_555
C17 C10 1_555 1_555
H16 C17 1_555 1_555
H17 C17 1_555 1_555
C18 C17 1_555 1_555
H18 C18 1_555 1_555
H19 C18 1_555 1_555
H20 C18 1_555 1_555
C19 C14 1_555 1_555
H21 C19 1_555 1_555
H22 C19 1_555 1_555
N1A C2A 1_555 1_555
C1A C1 1_555 1_555
H1A C1A 1_555 1_555
H2A C1A 1_555 1_555
C2A C1A 1_555 1_555
C3A C2A 1_555 1_555
C4A C3A 1_555 1_555
H3A C4A 1_555 1_555
C5A C4A 1_555 1_555
H4A C5A 1_555 1_555
C6A C5A 1_555 1_555
H5A C6A 1_555 1_555
C7A C6A 1_555 1_555
H6A C7A 1_555 1_555
C8A C3A 1_555 1_555
H7A C8A 1_555 1_555
C9A N1A 1_555 1_555
C10A C9A 1_555 1_555
C11A C10A 1_555 1_555
H8A C11A 1_555 1_555
C12A C11A 1_555 1_555
C13A C12A 1_555 1_555
H9A C13A 1_555 1_555
C14A C9A 1_555 1_555
C15A C12A 1_555 1_555
H10A C15A 1_555 1_555
H11A C15A 1_555 1_555
H12A C15A 1_555 1_555
C16A H13A 1_555 1_555
H14A C16A 1_555 1_555
H15A C16A 1_555 1_555
C17A C10A 1_555 1_555
H16A C17A 1_555 1_555
H17A C17A 1_555 1_555
C18A C17A 1_555 1_555
H18A C18A 1_555 1_555
H19A C18A 1_555 1_555
H20A C18A 1_555 1_555
C19A C14A 1_555 1_555
H21A C19A 1_555 1_555
H22A C19A 1_555 1_555
C7 C8 1_555 1_555
C13 C14 1_555 1_555
C16 C19 1_555 1_555
C7A C8A 1_555 1_555
C13A C14A 1_555 1_555
C16A C19A 1_555 1_555

#END
