
#######################################################################
#
#                 Cambridge Crystallographic Data Centre
#                                CCDC 
#
#######################################################################
#
# If this CIF has been generated from an entry in the Cambridge 
# Structural Database, then it will include bibliographic, chemical, 
# crystal, experimental, refinement or atomic coordinate data resulting 
# from the CCDC's data processing and validation procedures.
#
#######################################################################

data_QEMHEW
_chemical_formula_moiety         'C11 H14 N4 O1 S1,H2 O1'
_chemical_name_systematic        
'3-(2-Ethoxyphenyl)-5-methylsulfanyl-4H-1,2,4-triazol-4-amine monohydrate'
_symmetry_cell_setting           triclinic
_symmetry_space_group_name_H-M   'P -1'
_symmetry_Int_Tables_number      2
_space_group_name_Hall           '-P 1'
loop_
_symmetry_equiv_pos_site_id
_symmetry_equiv_pos_as_xyz
1 x,y,z
2 -x,-y,-z
_cell_length_a                   7.5828(13)
_cell_length_b                   8.9824(15)
_cell_length_c                   11.5308(19)
_cell_angle_alpha                109.542(3)
_cell_angle_beta                 98.836(3)
_cell_angle_gamma                107.754(3)
_cell_volume                     675.702
_exptl_crystal_colour            colorless
_exptl_crystal_description       block
_chemical_melting_point          '346-347 K'
_cell_formula_units_Z            2
_exptl_crystal_recrystallization_method ethanol
loop_
_atom_site_label
_atom_site_type_symbol
_atom_site_fract_x
_atom_site_fract_y
_atom_site_fract_z
S1 S 0.51827(8) 0.78535(7) 0.92583(6)
O1 O 0.2879(2) 0.22987(17) 0.50608(13)
N1 N 0.6639(2) 0.3926(2) 0.83462(16)
N2 N 0.7055(2) 0.5641(2) 0.90802(16)
N3 N 0.4096(2) 0.4481(2) 0.78349(15)
N4 N 0.2235(3) 0.4397(3) 0.7338(2)
C1 C 0.3890(3) 0.1456(3) 0.66862(19)
C2 C 0.2934(3) 0.0994(2) 0.54047(18)
C3 C 0.2167(3) -0.0707(3) 0.4548(2)
H1 H 0.1534 -0.1014 0.3695
C4 C 0.2344(3) -0.1940(3) 0.4960(2)
H2 H 0.1829 -0.3079 0.4380
C5 C 0.3272(3) -0.1513(3) 0.6218(2)
H3 H 0.3373 -0.2357 0.6490
C6 C 0.4049(3) 0.0177(3) 0.7069(2)
H4 H 0.4692 0.0470 0.7916
C7 C 0.4867(3) 0.3254(3) 0.76118(18)
C8 C 0.5516(3) 0.5933(3) 0.87391(18)
C9 C 0.7634(4) 0.9284(3) 1.0083(3)
H5 H 0.8102 0.9036 1.0791
H6 H 0.7705 1.0441 1.0399
H7 H 0.8413 0.9144 0.9503
C10 C 0.1908(4) 0.1875(3) 0.3751(2)
H8 H 0.0579 0.1094 0.3519
H9 H 0.2550 0.1336 0.3175
C11 C 0.1985(4) 0.3522(3) 0.3665(3)
H10 H 0.1379 0.4058 0.4258
H11 H 0.1317 0.3293 0.2808
H12 H 0.3307 0.4270 0.3872
H15 H 0.194(3) 0.385(3) 0.6518(16)
H16 H 0.153(3) 0.390(3) 0.774(2)
O2 O 0.9684(3) 0.2667(3) 0.86389(16)
H13 H 0.880(3) 0.306(4) 0.862(3)
H14 H 1.048(3) 0.319(3) 0.9388(19)
loop_
_geom_bond_atom_site_label_1
_geom_bond_atom_site_label_2
_geom_bond_site_symmetry_1
_geom_bond_site_symmetry_2
S1 C8 1_555 1_555
O1 C2 1_555 1_555
O2 H13 1_555 1_555
N1 N2 1_555 1_555
N2 C8 1_555 1_555
N3 N4 1_555 1_555
N4 H15 1_555 1_555
C1 C2 1_555 1_555
C2 C3 1_555 1_555
C3 H1 1_555 1_555
C4 C3 1_555 1_555
H2 C4 1_555 1_555
C5 C4 1_555 1_555
H3 C5 1_555 1_555
C6 C1 1_555 1_555
H4 C6 1_555 1_555
C7 N1 1_555 1_555
C8 N3 1_555 1_555
C9 S1 1_555 1_555
H5 C9 1_555 1_555
H6 C9 1_555 1_555
H7 C9 1_555 1_555
C10 O1 1_555 1_555
H8 C10 1_555 1_555
H9 C10 1_555 1_555
C11 C10 1_555 1_555
H10 C11 1_555 1_555
H11 C11 1_555 1_555
H12 C11 1_555 1_555
H14 O2 1_555 1_555
H16 N4 1_555 1_555
N3 C7 1_555 1_555
C1 C7 1_555 1_555
C5 C6 1_555 1_555

#END
