
#######################################################################
#
#                 Cambridge Crystallographic Data Centre
#                                CCDC 
#
#######################################################################
#
# If this CIF has been generated from an entry in the Cambridge 
# Structural Database, then it will include bibliographic, chemical, 
# crystal, experimental, refinement or atomic coordinate data resulting 
# from the CCDC's data processing and validation procedures.
#
#######################################################################

data_QEMJAU
_chemical_formula_moiety         'C8 H5 F3 N2 O4'
_chemical_name_systematic        
2,2,2-Trifluoro-N-(2-hydroxy-5-nitrophenyl)acetamide
_symmetry_cell_setting           orthorhombic
_symmetry_space_group_name_H-M   'P n m a'
_symmetry_Int_Tables_number      62
_space_group_name_Hall           '-P 2ac 2n'
loop_
_symmetry_equiv_pos_site_id
_symmetry_equiv_pos_as_xyz
1 x,y,z
2 1/2-x,-y,1/2+z
3 1/2+x,1/2-y,1/2-z
4 -x,1/2+y,-z
5 -x,-y,-z
6 1/2+x,y,1/2-z
7 1/2-x,1/2+y,1/2+z
8 x,1/2-y,z
_cell_length_a                   19.7661(7)
_cell_length_b                   6.610(9)
_cell_length_c                   7.4321(8)
_cell_angle_alpha                90
_cell_angle_beta                 90
_cell_angle_gamma                90
_cell_volume                     971.033
_exptl_crystal_colour            colorless
_exptl_crystal_description       block
_chemical_melting_point          '437-438 K'
_cell_formula_units_Z            4
_exptl_crystal_recrystallization_method 'ethyl acetate/hexane'
loop_
_atom_site_label
_atom_site_type_symbol
_atom_site_fract_x
_atom_site_fract_y
_atom_site_fract_z
F1 F 0.25551(14) 0.5946(6) 1.2324(5)
F2 F 0.27736(18) 0.7500 0.9961(5)
O1 O 0.13859(18) 0.7500 0.5761(4)
H1 H 0.1334 0.7500 0.4702
O2 O -0.1540(2) 0.7500 0.8891(7)
O3 O -0.0942(2) 0.7500 1.1310(6)
O4 O 0.12420(19) 0.7500 1.2184(4)
N1 N -0.0997(2) 0.7500 0.9669(8)
N2 N 0.14742(19) 0.7500 0.9215(5)
H2 H 0.1805 0.7500 0.8462
C1 C 0.0818(2) 0.7500 0.8483(6)
C2 C 0.0785(3) 0.7500 0.6600(6)
C3 C 0.0162(3) 0.7500 0.5747(7)
H3 H 0.0140 0.7500 0.4497
C4 C -0.0425(3) 0.7500 0.6745(8)
H4 H -0.0844 0.7500 0.6179
C5 C -0.0381(2) 0.7500 0.8589(7)
C6 C 0.0230(2) 0.7500 0.9473(6)
H5 H 0.0246 0.7500 1.0724
C7 C 0.1637(2) 0.7500 1.0940(6)
C8 C 0.2394(3) 0.7500 1.1350(6)
F1G F 0.25551(14) 0.9054(6) 1.2324(5)
loop_
_geom_bond_atom_site_label_1
_geom_bond_atom_site_label_2
_geom_bond_site_symmetry_1
_geom_bond_site_symmetry_2
F1 C8 1_555 1_555
F2 C8 1_555 1_555
O1 H1 1_555 1_555
O2 N1 1_555 1_555
O3 N1 1_555 1_555
O4 C7 1_555 1_555
N1 C5 1_555 1_555
N2 H2 1_555 1_555
C1 N2 1_555 1_555
C2 O1 1_555 1_555
C3 C2 1_555 1_555
H3 C3 1_555 1_555
C4 C3 1_555 1_555
H4 C4 1_555 1_555
C5 C4 1_555 1_555
C6 C1 1_555 1_555
H5 C6 1_555 1_555
C7 N2 1_555 1_555
C8 C7 1_555 1_555
F1G C8 1_555 1_555
C1 C2 1_555 1_555
C5 C6 1_555 1_555

#END
