
#######################################################################
#
#                 Cambridge Crystallographic Data Centre
#                                CCDC 
#
#######################################################################
#
# If this CIF has been generated from an entry in the Cambridge 
# Structural Database, then it will include bibliographic, chemical, 
# crystal, experimental, refinement or atomic coordinate data resulting 
# from the CCDC's data processing and validation procedures.
#
#######################################################################

data_QEMJIC
_chemical_formula_moiety         'C20 H15 Cl1 N2 O4'
_chemical_name_systematic        
4-(4-Chlorophenyl)-3-(2,5-dioxo-2,5-dihydropyrrol-1-yl)-1-(4-methoxyphenyl)azetidin-2-one
_symmetry_cell_setting           monoclinic
_symmetry_space_group_name_H-M   'P 21/c'
_symmetry_Int_Tables_number      14
_space_group_name_Hall           '-P 2ybc'
loop_
_symmetry_equiv_pos_site_id
_symmetry_equiv_pos_as_xyz
1 x,y,z
2 -x,1/2+y,1/2-z
3 -x,-y,-z
4 x,1/2-y,1/2+z
_cell_length_a                   12.344(3)
_cell_length_b                   11.609(3)
_cell_length_c                   13.640(3)
_cell_angle_alpha                90
_cell_angle_beta                 112.888(3)
_cell_angle_gamma                90
_cell_volume                     1800.74
_exptl_crystal_colour            yellow
_exptl_crystal_description       block
_cell_formula_units_Z            4
loop_
_atom_site_label
_atom_site_type_symbol
_atom_site_fract_x
_atom_site_fract_y
_atom_site_fract_z
Cl1 Cl 0.60540(6) 0.11155(7) 1.02026(6)
O1 O 0.65512(15) 0.10125(16) 0.53805(13)
O2 O 0.91941(15) -0.08896(16) 0.82125(13)
O3 O 1.09703(15) 0.03303(16) 0.74384(13)
O4 O 1.39353(15) 0.36837(16) 1.17319(13)
N1 N 0.81116(15) 0.02833(16) 0.68067(13)
N2 N 1.03130(15) 0.18260(16) 0.82416(14)
C1 C 0.6955(2) 0.0289(2) 0.60559(17)
C2 C 0.6388(2) -0.0741(2) 0.62785(19)
H1 H 0.5614 -0.0967 0.5901
C3 C 0.7158(2) -0.1288(2) 0.70993(19)
H2 H 0.7013 -0.1964 0.7394
C4 C 0.8287(2) -0.0661(2) 0.74788(18)
C5 C 0.89280(19) 0.1201(2) 0.69089(17)
H3 H 0.8789 0.1546 0.6215
C6 C 1.0245(2) 0.0968(2) 0.75346(17)
C7 C 0.90632(18) 0.2154(2) 0.77637(16)
H4 H 0.8951 0.2930 0.7459
C8 C 0.83633(18) 0.19596(19) 0.84328(16)
C9 C 0.7178(2) 0.2247(2) 0.80150(18)
H5 H 0.6856 0.2609 0.7356
C10 C 0.6473(2) 0.2004(2) 0.85592(19)
H6 H 0.5679 0.2198 0.8271
C11 C 0.6955(2) 0.1473(2) 0.95345(19)
C12 C 0.8125(2) 0.1201(2) 0.99809(17)
H7 H 0.8445 0.0859 1.0650
C13 C 0.88260(19) 0.14415(19) 0.94243(17)
H8 H 0.9620 0.1252 0.9721
C14 C 1.12358(18) 0.2319(2) 0.91109(16)
C15 C 1.10428(19) 0.3325(2) 0.95628(17)
H9 H 1.0312 0.3681 0.9273
C16 C 1.1921(2) 0.3805(2) 1.04386(18)
H10 H 1.1779 0.4476 1.0742
C17 C 1.3009(2) 0.3287(2) 1.08599(17)
C18 C 1.3204(2) 0.2281(2) 1.04144(19)
H11 H 1.3938 0.1928 1.0706
C19 C 1.23342(19) 0.1792(2) 0.95482(18)
H12 H 1.2477 0.1114 0.9255
C20 C 1.3799(2) 0.4755(3) 1.2176(2)
H13 H 1.3616 0.5345 1.1642
H14 H 1.4517 0.4948 1.2760
H15 H 1.3173 0.4697 1.2424
loop_
_geom_bond_atom_site_label_1
_geom_bond_atom_site_label_2
_geom_bond_site_symmetry_1
_geom_bond_site_symmetry_2
Cl1 C11 1_555 1_555
O1 C1 1_555 1_555
O2 C4 1_555 1_555
O3 C6 1_555 1_555
O4 C17 1_555 1_555
N1 C1 1_555 1_555
N2 C6 1_555 1_555
C1 C2 1_555 1_555
C2 H1 1_555 1_555
C3 C2 1_555 1_555
H2 C3 1_555 1_555
C4 N1 1_555 1_555
C5 N1 1_555 1_555
H3 C5 1_555 1_555
C6 C5 1_555 1_555
C7 N2 1_555 1_555
H4 C7 1_555 1_555
C8 C7 1_555 1_555
C9 C8 1_555 1_555
H5 C9 1_555 1_555
C10 C9 1_555 1_555
H6 C10 1_555 1_555
C11 C10 1_555 1_555
C12 C11 1_555 1_555
H7 C12 1_555 1_555
C13 C8 1_555 1_555
H8 C13 1_555 1_555
C14 N2 1_555 1_555
C15 C14 1_555 1_555
H9 C15 1_555 1_555
C16 C15 1_555 1_555
H10 C16 1_555 1_555
C17 C16 1_555 1_555
C18 C17 1_555 1_555
H11 C18 1_555 1_555
C19 C14 1_555 1_555
H12 C19 1_555 1_555
C20 O4 1_555 1_555
H13 C20 1_555 1_555
H14 C20 1_555 1_555
H15 C20 1_555 1_555
C3 C4 1_555 1_555
C5 C7 1_555 1_555
C12 C13 1_555 1_555
C18 C19 1_555 1_555

#END
