
#######################################################################
#
#                 Cambridge Crystallographic Data Centre
#                                CCDC 
#
#######################################################################
#
# If this CIF has been generated from an entry in the Cambridge 
# Structural Database, then it will include bibliographic, chemical, 
# crystal, experimental, refinement or atomic coordinate data resulting 
# from the CCDC's data processing and validation procedures.
#
#######################################################################

data_QEMLIE
_chemical_formula_moiety         
'C22 H31 N6 O4 S1 1+,C7 H4 N1 O3 S1 1-,C2 H3 N1'
_chemical_name_systematic        
'Sildenafil saccharinate acetonitrile clathrate'
_symmetry_cell_setting           triclinic
_symmetry_space_group_name_H-M   'P -1'
_symmetry_Int_Tables_number      2
_space_group_name_Hall           '-P 1'
loop_
_symmetry_equiv_pos_site_id
_symmetry_equiv_pos_as_xyz
1 x,y,z
2 -x,-y,-z
_cell_length_a                   9.8766(12)
_cell_length_b                   11.8949(14)
_cell_length_c                   14.5924(17)
_cell_angle_alpha                86.0090(10)
_cell_angle_beta                 73.1880(10)
_cell_angle_gamma                89.0450(10)
_cell_volume                     1637.07
_exptl_crystal_colour            colorless
_exptl_crystal_description       block
_cell_formula_units_Z            2
loop_
_atom_site_label
_atom_site_type_symbol
_atom_site_fract_x
_atom_site_fract_y
_atom_site_fract_z
S1 S 0.79118(4) 0.98175(3) 0.36084(3)
O1 O 0.76078(12) 1.08872(9) 0.31976(8)
O2 O 1.08712(11) 0.68645(9) 0.06058(7)
O3 O 0.85541(12) 0.97721(9) 0.43707(8)
O4 O 0.98504(12) 0.71994(9) -0.20175(8)
N1 N 0.82098(13) 0.94660(10) 0.00405(9)
N2 N 0.63747(13) 0.91587(10) 0.40414(9)
N3 N 0.40504(13) 0.76299(11) 0.43971(9)
N4 N 0.71150(13) 1.01306(10) -0.20752(9)
N5 N 0.96214(14) 0.79185(11) -0.05742(9)
C1 C 1.04762(16) 0.74734(13) 0.21970(11)
H1 H 1.1103 0.6911 0.2327
C2 C 0.93735(15) 0.84397(12) 0.10696(10)
C3 C 0.87210(15) 0.91548(12) 0.17887(11)
H2 H 0.8131 0.9745 0.1656
C4 C 0.90486(15) 0.86402(12) 0.01411(11)
C5 C 0.79444(15) 0.95681(12) -0.08327(10)
C6 C 0.98058(16) 0.81771(13) 0.29001(11)
H3 H 0.9944 0.8091 0.3519
N6 N 0.80021(13) 0.92443(10) -0.23178(9)
C7 C 1.02452(15) 0.75769(12) 0.13000(11)
C8 C 0.64524(16) 0.80187(13) 0.44968(11)
H4 H 0.7045 0.8038 0.4939
H5 H 0.6891 0.7492 0.3999
C9 C 0.93811(15) 0.79335(13) -0.14650(11)
C10 C 0.89200(15) 0.90180(12) 0.26872(11)
C11 C 0.85066(15) 0.88816(12) -0.15823(11)
C12 C 0.55064(16) 0.91551(13) 0.33727(11)
H6 H 0.5924 0.8639 0.2862
H7 H 0.5482 0.9922 0.3067
C13 C 0.49740(17) 0.76160(13) 0.50480(11)
H8 H 0.5018 0.6841 0.5333
H9 H 0.4566 0.8111 0.5577
C14 C 0.70626(15) 1.03360(12) -0.11780(11)
C15 C 0.40233(16) 0.87746(13) 0.39175(11)
H10 H 0.3591 0.9315 0.4405
H11 H 0.3440 0.8759 0.3469
C16 C 0.83132(17) 0.88389(14) -0.32754(11)
H12 H 0.8989 0.8216 -0.3337
H13 H 0.8722 0.9453 -0.3754
H14 H 0.7438 0.8575 -0.3380
C17 C 0.42945(18) 1.27438(14) -0.06763(12)
H15 H 0.3740 1.2461 -0.0032
H16 H 0.3654 1.3037 -0.1038
H17 H 0.4926 1.3348 -0.0625
C18 C 0.61693(16) 1.12596(12) -0.06656(11)
H18 H 0.6797 1.1854 -0.0573
H19 H 0.5606 1.0952 -0.0023
C19 C 1.14324(18) 0.58057(13) 0.08986(11)
H20 H 1.0673 0.5360 0.1369
H21 H 1.2185 0.5951 0.1200
C20 C 0.25960(17) 0.72166(14) 0.49039(12)
H22 H 0.2137 0.7727 0.5400
H23 H 0.2645 0.6459 0.5202
H24 H 0.2048 0.7191 0.4443
C21 C 0.51691(17) 1.17883(13) -0.11945(11)
H25 H 0.5729 1.2081 -0.1843
H26 H 0.4523 1.1199 -0.1273
C22 C 1.2024(2) 0.51747(15) 0.00122(12)
H27 H 1.1289 0.5088 -0.0307
H28 H 1.2344 0.4429 0.0191
H29 H 1.2824 0.5596 -0.0425
H30 H 0.442(2) 0.7136(17) 0.3908(14)
H31 H 1.015(2) 0.7395(18) -0.0423(14)
S2 S 0.65260(4) 0.53605(3) 0.30093(3)
O5 O 0.30389(12) 0.59639(10) 0.26843(8)
O6 O 0.77625(12) 0.58669(10) 0.23404(9)
O7 O 0.66246(12) 0.50871(10) 0.39629(8)
N7 N 0.51277(14) 0.61062(11) 0.30498(10)
C23 C 0.46893(16) 0.44191(13) 0.23972(11)
C24 C 0.41858(16) 0.55651(13) 0.27180(11)
C25 C 0.47182(18) 0.26259(14) 0.17629(12)
H32 H 0.4288 0.2081 0.1490
C26 C 0.59966(16) 0.41741(12) 0.25331(11)
C27 C 0.60250(18) 0.23988(13) 0.19078(12)
H33 H 0.6472 0.1700 0.1734
C28 C 0.66955(17) 0.31738(13) 0.23024(11)
H34 H 0.7588 0.3022 0.2407
C29 C 0.40265(17) 0.36369(14) 0.20100(12)
H35 H 0.3126 0.3787 0.1916
N8 N 0.09524(19) 0.33142(14) 0.47760(12)
C30 C 0.05834(18) 0.39061(14) 0.42457(13)
C31 C 0.00999(18) 0.46420(14) 0.35702(12)
H36 H -0.0128 0.4191 0.3097
H37 H 0.0847 0.5186 0.3242
H38 H -0.0746 0.5046 0.3916
loop_
_geom_bond_atom_site_label_1
_geom_bond_atom_site_label_2
_geom_bond_site_symmetry_1
_geom_bond_site_symmetry_2
S1 O1 1_555 1_555
O2 C7 1_555 1_555
O3 S1 1_555 1_555
O4 C9 1_555 1_555
N1 C4 1_555 1_555
N2 S1 1_555 1_555
N3 C13 1_555 1_555
N4 N6 1_555 1_555
N5 C4 1_555 1_555
C1 H1 1_555 1_555
C2 C3 1_555 1_555
C3 H2 1_555 1_555
C4 C2 1_555 1_555
C5 N1 1_555 1_555
C6 C1 1_555 1_555
H3 C6 1_555 1_555
N6 C11 1_555 1_555
C7 C1 1_555 1_555
C8 N2 1_555 1_555
H4 C8 1_555 1_555
H5 C8 1_555 1_555
C9 N5 1_555 1_555
C10 S1 1_555 1_555
C11 C5 1_555 1_555
C12 N2 1_555 1_555
H6 C12 1_555 1_555
H7 C12 1_555 1_555
C13 C8 1_555 1_555
H8 C13 1_555 1_555
H9 C13 1_555 1_555
C14 N4 1_555 1_555
C15 N3 1_555 1_555
H10 C15 1_555 1_555
H11 C15 1_555 1_555
C16 N6 1_555 1_555
H12 C16 1_555 1_555
H13 C16 1_555 1_555
H14 C16 1_555 1_555
C17 H15 1_555 1_555
H16 C17 1_555 1_555
H17 C17 1_555 1_555
C18 C14 1_555 1_555
H18 C18 1_555 1_555
H19 C18 1_555 1_555
C19 O2 1_555 1_555
H20 C19 1_555 1_555
H21 C19 1_555 1_555
C20 N3 1_555 1_555
H22 C20 1_555 1_555
H23 C20 1_555 1_555
H24 C20 1_555 1_555
C21 C17 1_555 1_555
H25 C21 1_555 1_555
H26 C21 1_555 1_555
C22 C19 1_555 1_555
H27 C22 1_555 1_555
H28 C22 1_555 1_555
H29 C22 1_555 1_555
H30 N3 1_555 1_555
H31 N5 1_555 1_555
S2 O6 1_555 1_555
O5 C24 1_555 1_555
O7 S2 1_555 1_555
N7 S2 1_555 1_555
C23 C24 1_555 1_555
C24 N7 1_555 1_555
C25 H32 1_555 1_555
C26 S2 1_555 1_555
C27 C25 1_555 1_555
H33 C27 1_555 1_555
C28 C26 1_555 1_555
H34 C28 1_555 1_555
C29 C23 1_555 1_555
H35 C29 1_555 1_555
N8 C30 1_555 1_555
C30 C31 1_555 1_555
C31 H36 1_555 1_555
H37 C31 1_555 1_555
H38 C31 1_555 1_555
C2 C7 1_555 1_555
C3 C10 1_555 1_555
C5 C14 1_555 1_555
C6 C10 1_555 1_555
C9 C11 1_555 1_555
C12 C15 1_555 1_555
C18 C21 1_555 1_555
C23 C26 1_555 1_555
C25 C29 1_555 1_555
C27 C28 1_555 1_555

#END
