
#######################################################################
#
#                 Cambridge Crystallographic Data Centre
#                                CCDC 
#
#######################################################################
#
# If this CIF has been generated from an entry in the Cambridge 
# Structural Database, then it will include bibliographic, chemical, 
# crystal, experimental, refinement or atomic coordinate data resulting 
# from the CCDC's data processing and validation procedures.
#
#######################################################################

data_QEMNUS
_chemical_formula_moiety         'C22 H22 N2 O6 S2'
_chemical_name_systematic        
'Dimethyl 5,14-dioxo-5,6,7,8,11,12,13,14-octahydrodibenzo(g,i)(1,2,5,12)dithiadiazacyclotetradecine-7,12-dicarboxylate'
_symmetry_cell_setting           orthorhombic
_symmetry_space_group_name_H-M   'P 21 21 21'
_symmetry_Int_Tables_number      19
_space_group_name_Hall           'P 2ac 2ab'
loop_
_symmetry_equiv_pos_site_id
_symmetry_equiv_pos_as_xyz
1 x,y,z
2 1/2-x,-y,1/2+z
3 -x,1/2+y,1/2-z
4 1/2+x,1/2-y,-z
_cell_length_a                   9.901(3)
_cell_length_b                   12.204(4)
_cell_length_c                   18.181(6)
_cell_angle_alpha                90
_cell_angle_beta                 90
_cell_angle_gamma                90
_cell_volume                     2196.84
_chemical_melting_point          202-204deg.C
_cell_formula_units_Z            4
loop_
_atom_site_label
_atom_site_type_symbol
_atom_site_fract_x
_atom_site_fract_y
_atom_site_fract_z
S1 S 0.88288(8) 0.47068(6) 1.11210(4)
S2 S 1.07906(8) 0.43238(6) 1.09639(4)
O1 O 0.93978(19) 0.48451(18) 0.81587(11)
O2 O 0.9959(2) 0.21687(17) 0.93869(11)
O3 O 1.2096(2) 0.25661(17) 0.96658(14)
O4 O 0.5918(2) 0.67612(18) 0.98461(10)
O5 O 0.7022(2) 0.75576(15) 1.21368(9)
O6 O 0.7102(2) 0.86341(16) 1.11494(10)
N1 N 0.9138(2) 0.41972(19) 0.93039(11)
H1 H 0.8583 0.4035 0.9651
N2 N 0.8028(2) 0.69597(18) 1.02755(11)
H2 H 0.8859 0.7089 1.0168
C1 C 0.7151(2) 0.4641(2) 0.85931(12)
C2 C 0.6409(3) 0.3680(2) 0.86422(13)
H3 H 0.6837 0.3032 0.8777
C3 C 0.5045(3) 0.3677(3) 0.84931(17)
H4 H 0.4553 0.3030 0.8527
C4 C 0.4415(3) 0.4634(3) 0.82942(18)
H5 H 0.3496 0.4633 0.8189
C5 C 0.5139(3) 0.5595(2) 0.82500(17)
H6 H 0.4700 0.6237 0.8111
C6 C 0.6511(2) 0.56272(19) 0.84093(12)
C7 C 0.7272(2) 0.66867(19) 0.83650(12)
C8 C 0.7691(3) 0.7067(2) 0.76883(14)
H7 H 0.7452 0.6680 0.7267
C9 C 0.8454(3) 0.8004(2) 0.76193(15)
H8 H 0.8719 0.8245 0.7156
C10 C 0.8824(3) 0.8582(2) 0.82321(14)
H9 H 0.9353 0.9209 0.8188
C11 C 0.8404(3) 0.8225(2) 0.89177(15)
H10 H 0.8653 0.8615 0.9336
C12 C 0.7614(2) 0.72920(18) 0.89870(13)
C13 C 0.7099(3) 0.6976(2) 0.97351(14)
C14 C 0.7673(3) 0.6731(2) 1.10311(14)
H11 H 0.6891 0.6239 1.1023
C15 C 0.7243(3) 0.7771(2) 1.14302(14)
C16 C 0.6546(3) 0.8456(2) 1.25836(14)
H12 H 0.6421 0.8209 1.3080
H13 H 0.5702 0.8718 1.2392
H14 H 0.7199 0.9037 1.2576
C17 C 0.8830(3) 0.6121(2) 1.14292(14)
H15 H 0.8696 0.6152 1.1957
H16 H 0.9690 0.6462 1.1315
C18 C 1.1154(3) 0.4739(2) 1.00329(14)
H17 H 1.0827 0.5482 0.9969
H18 H 1.2127 0.4758 0.9974
C19 C 1.0572(3) 0.4043(2) 0.94182(14)
H19 H 1.1013 0.4292 0.8966
C20 C 1.0978(3) 0.2851(2) 0.95127(14)
C21 C 1.0236(4) 0.1016(3) 0.9449(2)
H20 H 0.9428 0.0608 0.9349
H21 H 1.0543 0.0855 0.9938
H22 H 1.0923 0.0815 0.9102
C22 C 0.8659(3) 0.45891(19) 0.86649(14)
loop_
_geom_bond_atom_site_label_1
_geom_bond_atom_site_label_2
_geom_bond_site_symmetry_1
_geom_bond_site_symmetry_2
S1 S2 1_555 1_555
S2 C18 1_555 1_555
O1 C22 1_555 1_555
O2 C20 1_555 1_555
O3 C20 1_555 1_555
O4 C13 1_555 1_555
O5 C15 1_555 1_555
O6 C15 1_555 1_555
N1 H1 1_555 1_555
N2 H2 1_555 1_555
C1 C2 1_555 1_555
C2 H3 1_555 1_555
C3 C2 1_555 1_555
H4 C3 1_555 1_555
C4 C3 1_555 1_555
H5 C4 1_555 1_555
C5 C4 1_555 1_555
H6 C5 1_555 1_555
C6 C1 1_555 1_555
C7 C6 1_555 1_555
C8 C7 1_555 1_555
H7 C8 1_555 1_555
C9 C8 1_555 1_555
H8 C9 1_555 1_555
C10 C9 1_555 1_555
H9 C10 1_555 1_555
C11 C10 1_555 1_555
H10 C11 1_555 1_555
C12 C7 1_555 1_555
C13 N2 1_555 1_555
C14 N2 1_555 1_555
H11 C14 1_555 1_555
C15 C14 1_555 1_555
C16 O5 1_555 1_555
H12 C16 1_555 1_555
H13 C16 1_555 1_555
H14 C16 1_555 1_555
C17 S1 1_555 1_555
H15 C17 1_555 1_555
H16 C17 1_555 1_555
C18 H17 1_555 1_555
H18 C18 1_555 1_555
C19 N1 1_555 1_555
H19 C19 1_555 1_555
C20 C19 1_555 1_555
C21 O2 1_555 1_555
H20 C21 1_555 1_555
H21 C21 1_555 1_555
H22 C21 1_555 1_555
C22 N1 1_555 1_555
C1 C22 1_555 1_555
C5 C6 1_555 1_555
C11 C12 1_555 1_555
C12 C13 1_555 1_555
C14 C17 1_555 1_555
C18 C19 1_555 1_555

#END
