
#######################################################################
#
#                 Cambridge Crystallographic Data Centre
#                                CCDC 
#
#######################################################################
#
# If this CIF has been generated from an entry in the Cambridge 
# Structural Database, then it will include bibliographic, chemical, 
# crystal, experimental, refinement or atomic coordinate data resulting 
# from the CCDC's data processing and validation procedures.
#
#######################################################################

data_QEMNOM
_chemical_formula_moiety         'C38 H34 N2 O10'
_chemical_name_systematic        
'Dimethyl 11,26-dimethyl-9,14,23,28-tetraoxo-9,11,12,13,14,23,24,25,26,28-decahydrotetrabenzo[f,h,p,r][1,14,4,11]dioxadiazacycloicosine-12,25-dicarboxylate'
_symmetry_cell_setting           triclinic
_symmetry_space_group_name_H-M   'P 1'
_symmetry_Int_Tables_number      1
_space_group_name_Hall           'P 1'
loop_
_symmetry_equiv_pos_site_id
_symmetry_equiv_pos_as_xyz
1 x,y,z
_cell_length_a                   9.583(3)
_cell_length_b                   9.886(3)
_cell_length_c                   10.338(3)
_cell_angle_alpha                77.507(6)
_cell_angle_beta                 84.319(6)
_cell_angle_gamma                65.780(6)
_cell_volume                     871.981
_chemical_melting_point          200-202deg.C
_cell_formula_units_Z            1
loop_
_atom_site_label
_atom_site_type_symbol
_atom_site_fract_x
_atom_site_fract_y
_atom_site_fract_z
N1 N 0.8475(5) 0.5818(5) 1.1742(4)
H1 H 0.8942 0.6346 1.1285
N2 N 1.1261(5) 0.3529(5) 0.9331(4)
H2 H 1.0304 0.3721 0.9459
O1 O 0.4814(7) 0.8507(7) 0.8635(5)
O2 O 0.6637(4) 0.8446(4) 0.9856(4)
O3 O 0.9526(5) 0.7325(5) 0.5756(6)
O4 O 0.9618(5) 0.5070(5) 0.6829(4)
O5 O 0.8567(5) 0.3948(5) 1.3450(5)
O6 O 1.3661(5) 0.1970(5) 0.9928(4)
O7 O 0.7825(5) 0.4631(6) 0.9827(5)
O8 O 0.5427(5) 0.5303(6) 1.0542(6)
O9 O 1.0272(6) 0.6532(5) 0.9411(5)
O10 O 1.1828(5) 0.6867(5) 0.7773(4)
C1 C 0.6516(6) 0.9534(6) 0.6322(6)
C2 C 0.6962(7) 1.0480(7) 0.5363(6)
H3 H 0.7004 1.0384 0.4484
C3 C 0.7345(8) 1.1556(8) 0.5669(8)
H4 H 0.7634 1.2185 0.4995
C4 C 0.7312(9) 1.1727(7) 0.6948(8)
H5 H 0.7580 1.2463 0.7144
C5 C 0.6875(8) 1.0793(7) 0.7952(7)
H6 H 0.6866 1.0886 0.8829
C6 C 0.6451(7) 0.9715(6) 0.7640(6)
C7 C 0.5847(8) 0.8820(7) 0.8743(6)
C8 C 0.5984(6) 0.7881(7) 1.1080(5)
H7 H 0.4914 0.8082 1.0939
C9 C 0.6905(6) 0.6187(6) 1.1465(6)
H8 H 0.6458 0.5854 1.2303
C10 C 0.6058(10) 0.8746(9) 1.2073(7)
H9 H 0.5458 0.9804 1.1773
H10 H 0.7102 0.8589 1.2173
H11 H 0.5663 0.8402 1.2909
C11 C 0.6803(8) 0.5281(8) 1.0524(7)
C12 C 0.5141(11) 0.4528(12) 0.9637(11)
H12 H 0.4108 0.4602 0.9753
H13 H 0.5836 0.3484 0.9810
H14 H 0.5288 0.4983 0.8744
C13 C 0.9215(7) 0.4652(6) 1.2711(6)
C14 C 1.0868(6) 0.4311(6) 1.2866(5)
C15 C 1.1275(8) 0.5431(7) 1.3076(6)
H15 H 1.0528 0.6394 1.3090
C16 C 1.2785(9) 0.5127(8) 1.3265(7)
H16 H 1.3052 0.5890 1.3398
C17 C 1.3888(8) 0.3720(9) 1.3258(7)
H17 H 1.4900 0.3512 1.3419
C18 C 1.3496(7) 0.2588(8) 1.3009(7)
H18 H 1.4258 0.1636 1.2976
C19 C 1.1986(7) 0.2863(6) 1.2811(6)
C20 C 1.1579(6) 0.1679(6) 1.2484(5)
C21 C 1.1050(7) 0.0775(7) 1.3460(6)
H19 H 1.0974 0.0900 1.4334
C22 C 1.0637(9) -0.0307(8) 1.3148(8)
H20 H 1.0299 -0.0910 1.3808
C23 C 1.0735(11) -0.0477(9) 1.1847(9)
H21 H 1.0452 -0.1191 1.1623
C24 C 1.1244(10) 0.0401(8) 1.0893(7)
H22 H 1.1309 0.0274 1.0020
C25 C 1.1667(7) 0.1470(6) 1.1183(6)
C26 C 1.2288(7) 0.2344(6) 1.0109(6)
C27 C 1.1723(6) 0.4487(6) 0.8285(5)
H23 H 1.2844 0.4076 0.8292
C28 C 1.1268(6) 0.4480(6) 0.6909(6)
H24 H 1.1651 0.5114 0.6237
C29 C 1.1888(9) 0.2900(7) 0.6616(7)
H25 H 1.1583 0.2945 0.5745
H26 H 1.1488 0.2285 0.7257
H27 H 1.2984 0.2467 0.6659
C30 C 1.1159(7) 0.6062(7) 0.8580(6)
C31 C 1.1330(10) 0.8421(8) 0.7884(9)
H28 H 1.1878 0.8892 0.7251
H29 H 1.1525 0.8471 0.8762
H30 H 1.0253 0.8940 0.7713
C32 C 0.8892(7) 0.6485(7) 0.6171(6)
C33 C 0.7246(7) 0.6872(7) 0.6005(5)
C34 C 0.6826(8) 0.5773(8) 0.5742(6)
H31 H 0.7561 0.4796 0.5764
C35 C 0.5322(10) 0.6113(9) 0.5447(7)
H32 H 0.5045 0.5369 0.5280
C36 C 0.4251(9) 0.7559(10) 0.5406(7)
H33 H 0.3244 0.7800 0.5196
C37 C 0.4647(8) 0.8642(8) 0.5669(6)
H34 H 0.3900 0.9615 0.5644
C38 C 0.6141(7) 0.8333(6) 0.5976(5)
loop_
_geom_bond_atom_site_label_1
_geom_bond_atom_site_label_2
_geom_bond_site_symmetry_1
_geom_bond_site_symmetry_2
N1 H1 1_555 1_555
N2 H2 1_555 1_555
O1 C7 1_555 1_555
O2 C7 1_555 1_555
O3 C32 1_555 1_555
O4 C28 1_555 1_555
O5 C13 1_555 1_555
O6 C26 1_555 1_555
O7 C11 1_555 1_555
O8 C11 1_555 1_555
O9 C30 1_555 1_555
O10 C30 1_555 1_555
C1 C2 1_555 1_555
C2 H3 1_555 1_555
C3 C2 1_555 1_555
H4 C3 1_555 1_555
C4 C3 1_555 1_555
H5 C4 1_555 1_555
C5 C4 1_555 1_555
H6 C5 1_555 1_555
C6 C1 1_555 1_555
C7 C6 1_555 1_555
C8 O2 1_555 1_555
H7 C8 1_555 1_555
C9 N1 1_555 1_555
H8 C9 1_555 1_555
C10 C8 1_555 1_555
H9 C10 1_555 1_555
H10 C10 1_555 1_555
H11 C10 1_555 1_555
C11 C9 1_555 1_555
C12 O8 1_555 1_555
H12 C12 1_555 1_555
H13 C12 1_555 1_555
H14 C12 1_555 1_555
C13 N1 1_555 1_555
C14 C13 1_555 1_555
C15 C14 1_555 1_555
H15 C15 1_555 1_555
C16 C15 1_555 1_555
H16 C16 1_555 1_555
C17 C16 1_555 1_555
H17 C17 1_555 1_555
C18 C17 1_555 1_555
H18 C18 1_555 1_555
C19 C14 1_555 1_555
C20 C19 1_555 1_555
C21 C20 1_555 1_555
H19 C21 1_555 1_555
C22 C21 1_555 1_555
H20 C22 1_555 1_555
C23 C22 1_555 1_555
H21 C23 1_555 1_555
C24 C23 1_555 1_555
H22 C24 1_555 1_555
C25 C20 1_555 1_555
C26 N2 1_555 1_555
C27 N2 1_555 1_555
H23 C27 1_555 1_555
C28 C27 1_555 1_555
H24 C28 1_555 1_555
C29 C28 1_555 1_555
H25 C29 1_555 1_555
H26 C29 1_555 1_555
H27 C29 1_555 1_555
C30 C27 1_555 1_555
C31 O10 1_555 1_555
H28 C31 1_555 1_555
H29 C31 1_555 1_555
H30 C31 1_555 1_555
C32 O4 1_555 1_555
C33 C32 1_555 1_555
C34 C33 1_555 1_555
H31 C34 1_555 1_555
C35 C34 1_555 1_555
H32 C35 1_555 1_555
C36 C35 1_555 1_555
H33 C36 1_555 1_555
C37 C36 1_555 1_555
H34 C37 1_555 1_555
C38 C1 1_555 1_555
C5 C6 1_555 1_555
C8 C9 1_555 1_555
C18 C19 1_555 1_555
C24 C25 1_555 1_555
C25 C26 1_555 1_555
C33 C38 1_555 1_555
C37 C38 1_555 1_555

#END
