
#######################################################################
#
#                 Cambridge Crystallographic Data Centre
#                                CCDC 
#
#######################################################################
#
# If this CIF has been generated from an entry in the Cambridge 
# Structural Database, then it will include bibliographic, chemical, 
# crystal, experimental, refinement or atomic coordinate data resulting 
# from the CCDC's data processing and validation procedures.
#
#######################################################################

data_QEMNIG
_chemical_formula_moiety         'C24 H26 N2 O6 S2'
_chemical_name_systematic        
'Dimethyl 5,16-dioxo-5,6,7,8,10,11,13,14,15,16-decahydrodibenzo(i,k)(1,4,7,14)dithiadiazacyclohexadecine-7,14-dicarboxylate'
_symmetry_cell_setting           hexagonal
_symmetry_space_group_name_H-M   'P 61'
_symmetry_Int_Tables_number      169
_space_group_name_Hall           'P 61'
loop_
_symmetry_equiv_pos_site_id
_symmetry_equiv_pos_as_xyz
1 x,y,z
2 -y,x-y,1/3+z
3 -x+y,-x,2/3+z
4 -x,-y,1/2+z
5 y,-x+y,5/6+z
6 x-y,x,1/6+z
_cell_length_a                   10.7985(18)
_cell_length_b                   10.7985(18)
_cell_length_c                   36.222(8)
_cell_angle_alpha                90
_cell_angle_beta                 90
_cell_angle_gamma                120
_cell_volume                     3657.88
_chemical_melting_point          179-181deg.C
_cell_formula_units_Z            6
loop_
_atom_site_label
_atom_site_type_symbol
_atom_site_fract_x
_atom_site_fract_y
_atom_site_fract_z
S1 S 0.39308(10) -0.05126(10) 0.03659(3)
S2 S 0.72632(11) 0.14281(10) 0.01011(3)
N1 N 0.4726(3) 0.2594(3) 0.06234(7)
N2 N 0.8557(3) 0.4606(3) -0.01899(7)
O1 O 0.6017(2) 0.4180(2) 0.01851(5)
O2 O 1.0665(2) 0.6512(2) -0.03677(6)
O3 O 0.1788(2) 0.2558(3) 0.02036(7)
O4 O 0.2054(3) 0.2230(3) 0.08013(6)
O5 O 0.6333(3) 0.3153(3) -0.06589(7)
O6 O 0.7483(2) 0.2230(2) -0.09674(6)
C1 C 0.5983(3) 0.3657(3) 0.04873(8)
C2 C 0.7294(3) 0.4138(3) 0.07159(8)
C3 C 0.7339(3) 0.3240(4) 0.09884(8)
H1 H 0.6523 0.2364 0.1035
C4 C 0.8565(4) 0.3623(4) 0.11890(9)
H2 H 0.8573 0.3014 0.1370
C5 C 0.9768(4) 0.4905(4) 0.11199(8)
H3 H 1.0596 0.5173 0.1255
C6 C 0.9759(4) 0.5809(4) 0.08488(9)
H4 H 1.0591 0.6669 0.0802
C7 C 0.8534(3) 0.5456(3) 0.06456(8)
C8 C 0.8635(3) 0.6642(3) 0.03978(8)
C9 C 0.8322(3) 0.7606(4) 0.05684(9)
H5 H 0.7981 0.7435 0.0810
C10 C 0.8507(3) 0.8810(4) 0.03874(11)
H6 H 0.8276 0.9434 0.0504
C11 C 0.9028(3) 0.9079(3) 0.00377(10)
H7 H 0.9149 0.9890 -0.0085
C12 C 0.9379(3) 0.8169(3) -0.01380(9)
H8 H 0.9752 0.8376 -0.0376
C13 C 0.9179(3) 0.6934(3) 0.00396(8)
C14 C 0.9549(4) 0.5999(4) -0.01864(8)
C15 C 0.8622(3) 0.3582(3) -0.04359(8)
H9 H 0.9488 0.4092 -0.0586
C16 C 0.8702(3) 0.2391(3) -0.02246(9)
H10 H 0.9603 0.2810 -0.0093
H11 H 0.8698 0.1716 -0.0402
C17 C 0.7333(4) 0.2992(4) -0.06936(9)
C18 C 0.6361(4) 0.1687(4) -0.12439(10)
H12 H 0.6559 0.1173 -0.1429
H13 H 0.6321 0.2471 -0.1357
H14 H 0.5459 0.1056 -0.1129
C19 C 0.5894(4) 0.0011(4) -0.01749(10)
H15 H 0.6151 0.0206 -0.0434
H16 H 0.5851 -0.0883 -0.0113
C20 C 0.4449(4) -0.0148(5) -0.01183(8)
H17 H 0.3752 -0.0926 -0.0270
H18 H 0.4468 0.0723 -0.0194
C21 C 0.2768(3) 0.0219(3) 0.04186(9)
H19 H 0.2013 -0.0217 0.0236
H20 H 0.2323 -0.0047 0.0660
C22 C 0.3489(3) 0.1843(3) 0.03796(8)
H21 H 0.3825 0.2091 0.0124
C23 C 0.2353(3) 0.2280(3) 0.04463(11)
C24 C 0.0955(4) 0.2584(4) 0.08928(11)
H22 H 0.0816 0.2530 0.1155
H23 H 0.0075 0.1919 0.0774
H24 H 0.1248 0.3535 0.0810
H25 H 0.779(3) 0.434(3) -0.0078(7)
H26 H 0.471(3) 0.213(4) 0.0820(9)
loop_
_geom_bond_atom_site_label_1
_geom_bond_atom_site_label_2
_geom_bond_site_symmetry_1
_geom_bond_site_symmetry_2
S1 C20 1_555 1_555
S2 C16 1_555 1_555
N1 C1 1_555 1_555
N2 C14 1_555 1_555
O1 C1 1_555 1_555
O2 C14 1_555 1_555
O3 C23 1_555 1_555
O4 C23 1_555 1_555
O5 C17 1_555 1_555
O6 C17 1_555 1_555
C1 C2 1_555 1_555
C2 C3 1_555 1_555
C3 H1 1_555 1_555
C4 C3 1_555 1_555
H2 C4 1_555 1_555
C5 C4 1_555 1_555
H3 C5 1_555 1_555
C6 C5 1_555 1_555
H4 C6 1_555 1_555
C7 C2 1_555 1_555
C8 C7 1_555 1_555
C9 C8 1_555 1_555
H5 C9 1_555 1_555
C10 C9 1_555 1_555
H6 C10 1_555 1_555
C11 C10 1_555 1_555
H7 C11 1_555 1_555
C12 C11 1_555 1_555
H8 C12 1_555 1_555
C13 C8 1_555 1_555
C14 C13 1_555 1_555
C15 N2 1_555 1_555
H9 C15 1_555 1_555
C16 C15 1_555 1_555
H10 C16 1_555 1_555
H11 C16 1_555 1_555
C17 C15 1_555 1_555
C18 O6 1_555 1_555
H12 C18 1_555 1_555
H13 C18 1_555 1_555
H14 C18 1_555 1_555
C19 S2 1_555 1_555
H15 C19 1_555 1_555
H16 C19 1_555 1_555
C20 C19 1_555 1_555
H17 C20 1_555 1_555
H18 C20 1_555 1_555
C21 S1 1_555 1_555
H19 C21 1_555 1_555
H20 C21 1_555 1_555
C22 N1 1_555 1_555
H21 C22 1_555 1_555
C23 C22 1_555 1_555
C24 O4 1_555 1_555
H22 C24 1_555 1_555
H23 C24 1_555 1_555
H24 C24 1_555 1_555
H25 N2 1_555 1_555
H26 N1 1_555 1_555
C6 C7 1_555 1_555
C12 C13 1_555 1_555
C21 C22 1_555 1_555

#END
