
#######################################################################
#
#                 Cambridge Crystallographic Data Centre
#                                CCDC 
#
#######################################################################
#
# If this CIF has been generated from an entry in the Cambridge 
# Structural Database, then it will include bibliographic, chemical, 
# crystal, experimental, refinement or atomic coordinate data resulting 
# from the CCDC's data processing and validation procedures.
#
#######################################################################

data_QEMTOU
_chemical_formula_moiety         'C17 H15 Cl1 F1 N3 O3 S1'
_chemical_name_systematic        
'4-(2-chlorodibenzo[b,f][1,4]oxazepin-11-yl)piperazine-1-sulfonyl fluoride'
_symmetry_cell_setting           monoclinic
_symmetry_space_group_name_H-M   'P 21/n'
_symmetry_Int_Tables_number      14
_space_group_name_Hall           '-P 2yn'
loop_
_symmetry_equiv_pos_site_id
_symmetry_equiv_pos_as_xyz
1 x,y,z
2 1/2-x,1/2+y,1/2-z
3 -x,-y,-z
4 1/2+x,1/2-y,1/2+z
_cell_length_a                   15.2420(6)
_cell_length_b                   7.1013(3)
_cell_length_c                   16.9891(7)
_cell_angle_alpha                90
_cell_angle_beta                 101.565(2)
_cell_angle_gamma                90
_cell_volume                     1801.53
_exptl_crystal_colour            colorless
_exptl_crystal_description       PRISM
_cell_formula_units_Z            4
loop_
_atom_site_label
_atom_site_type_symbol
_atom_site_fract_x
_atom_site_fract_y
_atom_site_fract_z
S1 S 0.10177(5) -0.23330(8) 0.29345(4)
Cl1 Cl 0.54222(4) 0.10179(11) 0.60838(5)
F1 F 0.13862(19) -0.4045(2) 0.34625(15)
N1 N 0.15587(12) 0.4495(3) 0.54753(11)
N2 N 0.19438(11) 0.2125(3) 0.46945(11)
N3 N 0.13100(11) -0.0590(3) 0.35076(10)
O1 O 0.29064(12) 0.7343(2) 0.54891(10)
O2 O 0.14868(13) -0.2331(3) 0.23004(12)
O3 O 0.00792(14) -0.2544(3) 0.27868(14)
C1 C 0.43867(17) 0.6150(3) 0.58965(15)
H1 H 0.4592 0.7379 0.5993
C2 C 0.49831(16) 0.4678(4) 0.60250(16)
H2 H 0.5592 0.4902 0.6204
C3 C 0.46701(15) 0.2875(3) 0.58866(14)
C4 C 0.37693(14) 0.2509(3) 0.56097(13)
H3 H 0.3571 0.1275 0.5518
C5 C 0.31617(13) 0.3990(3) 0.54698(11)
C6 C 0.34848(15) 0.5816(3) 0.56254(12)
C7 C 0.23350(17) 0.7392(3) 0.60431(13)
C8 C 0.17086(15) 0.5974(3) 0.60333(12)
C9 C 0.21822(14) 0.3642(3) 0.52079(12)
C10 C 0.11303(16) 0.6129(4) 0.65712(15)
H4 H 0.0703 0.5200 0.6582
C11 C 0.1184(2) 0.7650(5) 0.70895(16)
H5 H 0.0797 0.7728 0.7447
C12 C 0.1806(2) 0.9042(5) 0.70774(17)
H6 H 0.1834 1.0070 0.7421
C13 C 0.2390(2) 0.8914(4) 0.65536(15)
H7 H 0.2816 0.9848 0.6546
C14 C 0.23600(14) 0.1905(3) 0.39914(13)
H8 H 0.2988 0.2243 0.4134
H9 H 0.2072 0.2742 0.3566
C15 C 0.22714(14) -0.0096(3) 0.36993(13)
H10 H 0.2529 -0.0228 0.3224
H11 H 0.2588 -0.0932 0.4111
C16 C 0.08673(15) -0.0351(4) 0.42000(14)
H12 H 0.1123 -0.1222 0.4624
H13 H 0.0233 -0.0623 0.4037
C17 C 0.09945(15) 0.1639(4) 0.45063(15)
H14 H 0.0680 0.2497 0.4102
H15 H 0.0743 0.1769 0.4985
loop_
_geom_bond_atom_site_label_1
_geom_bond_atom_site_label_2
_geom_bond_site_symmetry_1
_geom_bond_site_symmetry_2
S1 F1 1_555 1_555
Cl1 C3 1_555 1_555
N1 C8 1_555 1_555
N2 C9 1_555 1_555
N3 S1 1_555 1_555
O1 C6 1_555 1_555
O2 S1 1_555 1_555
O3 S1 1_555 1_555
C1 H1 1_555 1_555
C2 C1 1_555 1_555
H2 C2 1_555 1_555
C3 C2 1_555 1_555
C4 C3 1_555 1_555
H3 C4 1_555 1_555
C5 C4 1_555 1_555
C6 C1 1_555 1_555
C7 O1 1_555 1_555
C8 C7 1_555 1_555
C9 N1 1_555 1_555
C10 C8 1_555 1_555
H4 C10 1_555 1_555
C11 C10 1_555 1_555
H5 C11 1_555 1_555
C12 C11 1_555 1_555
H6 C12 1_555 1_555
C13 C7 1_555 1_555
H7 C13 1_555 1_555
C14 N2 1_555 1_555
H8 C14 1_555 1_555
H9 C14 1_555 1_555
C15 N3 1_555 1_555
H10 C15 1_555 1_555
H11 C15 1_555 1_555
C16 N3 1_555 1_555
H12 C16 1_555 1_555
H13 C16 1_555 1_555
C17 N2 1_555 1_555
H14 C17 1_555 1_555
H15 C17 1_555 1_555
C5 C6 1_555 1_555
C5 C9 1_555 1_555
C12 C13 1_555 1_555
C14 C15 1_555 1_555
C16 C17 1_555 1_555

#END
