
#######################################################################
#
#                 Cambridge Crystallographic Data Centre
#                                CCDC 
#
#######################################################################
#
# If this CIF has been generated from an entry in the Cambridge 
# Structural Database, then it will include bibliographic, chemical, 
# crystal, experimental, refinement or atomic coordinate data resulting 
# from the CCDC's data processing and validation procedures.
#
#######################################################################

data_QEMVOW
_chemical_compound_source        
'decoction of the lateral roots of A. carmichaelii'
_chemical_name_common            'aconicarmisulfonine A'
_chemical_formula_moiety         'C22 H29 N1 O6 S1,2(H2 O1)'
_chemical_name_systematic        
'12-ethyl-17-hydroxy-14-methyl-4,6-dioxo-12-azoniahexacyclo[8.7.2.1^5,9^.0^1,11^.0^2,9^.0^14,18^]icos-7-ene-7-sulfonate dihydrate'
_chemical_properties_biological  'significant analgesic activity'
_symmetry_cell_setting           monoclinic
_symmetry_space_group_name_H-M   'P 21'
_symmetry_Int_Tables_number      4
_space_group_name_Hall           'P 2yb'
loop_
_symmetry_equiv_pos_site_id
_symmetry_equiv_pos_as_xyz
1 x,y,z
2 -x,1/2+y,-z
_cell_length_a                   8.16471(18)
_cell_length_b                   11.0606(3)
_cell_length_c                   11.9374(3)
_cell_angle_alpha                90
_cell_angle_beta                 94.128(2)
_cell_angle_gamma                90
_cell_volume                     1075.23
_exptl_crystal_colour            colorless
_exptl_crystal_description       prism
_cell_formula_units_Z            2
loop_
_atom_site_label
_atom_site_type_symbol
_atom_site_fract_x
_atom_site_fract_y
_atom_site_fract_z
S1 S 1.28911(8) 0.36811(7) -0.21922(5)
O1 O 1.0224(3) 0.2306(2) -0.35794(19)
O2 O 0.5511(3) 0.7839(2) -0.46799(17)
H1 H 0.5586 0.7955 -0.5370
O3 O 1.3615(3) 0.3443(3) -0.32438(18)
N1 N 0.5430(3) 0.8017(3) -0.1641(2)
H2 H 0.4558 0.8307 -0.2209
O4 O 1.2764(3) 0.2604(2) -0.1500(2)
C1 C 0.7821(3) 0.6440(3) -0.1531(2)
H3 H 0.7455 0.5985 -0.0870
C2 C 0.8384(4) 0.4676(3) -0.4681(2)
O5 O 1.3636(3) 0.4694(2) -0.15774(19)
C3 C 0.8131(3) 0.3825(3) -0.3693(2)
H4 H 0.7364 0.3159 -0.3949
C4 C 0.8700(3) 0.8388(3) -0.2217(2)
H5 H 0.9747 0.8606 -0.2553
O6 O 0.8998(3) 0.4309(2) -0.55166(18)
C5 C 1.0236(3) 0.5171(3) -0.2194(2)
H6 H 1.0969 0.5666 -0.1741
C6 C 0.7828(4) 0.9526(3) -0.1821(3)
C7 C 0.8486(3) 0.6547(3) -0.3475(2)
H7 H 0.9644 0.6792 -0.3580
C8 C 1.0813(4) 0.4124(3) -0.2555(2)
C9 C 0.8503(3) 0.5633(3) -0.2452(2)
C10 C 0.9026(3) 0.7472(3) -0.1230(2)
H8 H 1.0175 0.7180 -0.1188
H9 H 0.8801 0.7844 -0.0502
C11 C 0.7405(4) 0.4524(3) -0.2733(2)
H10 H 0.7367 0.3999 -0.2064
H11 H 0.6273 0.4788 -0.2965
C12 C 0.7777(4) 0.5940(3) -0.4563(2)
H12 H 0.6564 0.5930 -0.4570
H13 H 0.8080 0.6423 -0.5214
C13 C 0.6825(4) 0.8469(3) -0.4050(2)
H14 H 0.7717 0.8615 -0.4566
C14 C 0.6417(3) 0.7093(3) -0.2239(2)
H15 H 0.5670 0.6488 -0.2632
C15 C 0.6323(4) 0.9146(3) -0.1194(3)
H16 H 0.6685 0.9010 -0.0395
H17 H 0.5532 0.9826 -0.1225
C16 C 0.7350(4) 1.0329(3) -0.2847(3)
H18 H 0.6824 1.1077 -0.2593
H19 H 0.8356 1.0564 -0.3210
C17 C 0.9791(4) 0.3290(3) -0.3292(2)
C18 C 0.6181(4) 0.9690(3) -0.3703(3)
H20 H 0.5109 0.9577 -0.3380
H21 H 0.6001 1.0208 -0.4378
C19 C 0.7539(3) 0.7676(3) -0.3075(2)
C20 C 0.4534(4) 0.7423(3) -0.0722(2)
H22 H 0.5341 0.7148 -0.0116
H23 H 0.3936 0.6704 -0.1029
C21 C 0.8956(4) 1.0258(3) -0.0988(3)
H24 H 0.9875 1.0587 -0.1377
H25 H 0.9380 0.9731 -0.0374
H26 H 0.8332 1.0924 -0.0683
C22 C 0.3324(4) 0.8293(3) -0.0236(3)
H27 H 0.2611 0.8643 -0.0848
H28 H 0.3929 0.8941 0.0172
H29 H 0.2654 0.7855 0.0278
O7 O 0.2913(3) 0.7457(3) -0.3346(2)
H30 H 0.2129 0.7878 -0.3647
H31 H 0.3675 0.7410 -0.3793
O8 O 1.2697(3) 0.0240(3) -0.2373(2)
H32 H 1.2015 0.0184 -0.2942
H33 H 1.2744 0.0970 -0.2151
loop_
_geom_bond_atom_site_label_1
_geom_bond_atom_site_label_2
_geom_bond_site_symmetry_1
_geom_bond_site_symmetry_2
S1 O3 1_555 1_555
O1 C17 1_555 1_555
O2 H1 1_555 1_555
N1 H2 1_555 1_555
O4 S1 1_555 1_555
C1 H3 1_555 1_555
C2 C3 1_555 1_555
O5 S1 1_555 1_555
C3 H4 1_555 1_555
C4 H5 1_555 1_555
O6 C2 1_555 1_555
C5 H6 1_555 1_555
C6 C4 1_555 1_555
C7 H7 1_555 1_555
C8 S1 1_555 1_555
C9 C1 1_555 1_555
C10 C1 1_555 1_555
H8 C10 1_555 1_555
H9 C10 1_555 1_555
C11 C3 1_555 1_555
H10 C11 1_555 1_555
H11 C11 1_555 1_555
C12 C2 1_555 1_555
H12 C12 1_555 1_555
H13 C12 1_555 1_555
C13 O2 1_555 1_555
H14 C13 1_555 1_555
C14 N1 1_555 1_555
H15 C14 1_555 1_555
C15 N1 1_555 1_555
H16 C15 1_555 1_555
H17 C15 1_555 1_555
C16 C6 1_555 1_555
H18 C16 1_555 1_555
H19 C16 1_555 1_555
C17 C3 1_555 1_555
C18 C13 1_555 1_555
H20 C18 1_555 1_555
H21 C18 1_555 1_555
C19 C4 1_555 1_555
C20 N1 1_555 1_555
H22 C20 1_555 1_555
H23 C20 1_555 1_555
C21 C6 1_555 1_555
H24 C21 1_555 1_555
H25 C21 1_555 1_555
H26 C21 1_555 1_555
C22 C20 1_555 1_555
H27 C22 1_555 1_555
H28 C22 1_555 1_555
H29 C22 1_555 1_555
O7 H30 1_555 1_555
H31 O7 1_555 1_555
O8 H32 1_555 1_555
H33 O8 1_555 1_555
C1 C14 1_555 1_555
C4 C10 1_555 1_555
C5 C8 1_555 1_555
C5 C9 1_555 1_555
C6 C15 1_555 1_555
C7 C9 1_555 1_555
C7 C12 1_555 1_555
C7 C19 1_555 1_555
C8 C17 1_555 1_555
C9 C11 1_555 1_555
C13 C19 1_555 1_555
C14 C19 1_555 1_555
C16 C18 1_555 1_555

#END
