
#######################################################################
#
#                 Cambridge Crystallographic Data Centre
#                                CCDC 
#
#######################################################################
#
# If this CIF has been generated from an entry in the Cambridge 
# Structural Database, then it will include bibliographic, chemical, 
# crystal, experimental, refinement or atomic coordinate data resulting 
# from the CCDC's data processing and validation procedures.
#
#######################################################################

data_QEMYOW
_chemical_compound_source        'Tinospora hainanensis'
_chemical_name_common            'trans-N-Methyltetrahydroprotoberberine iodide'
_chemical_formula_moiety         'C20 H24 N1 O4 1+,I1 1-'
_chemical_name_systematic        '\b-Cyclanoline iodide'
_symmetry_cell_setting           monoclinic
_symmetry_space_group_name_H-M   'P 21'
_symmetry_Int_Tables_number      4
_space_group_name_Hall           'P 2yb'
loop_
_symmetry_equiv_pos_site_id
_symmetry_equiv_pos_as_xyz
1 x,y,z
2 -x,1/2+y,-z
_cell_length_a                   10.741(1)
_cell_length_b                   8.564(2)
_cell_length_c                   11.088(4)
_cell_angle_alpha                90
_cell_angle_beta                 105.92(1)
_cell_angle_gamma                90
_cell_volume                     980.821
_cell_formula_units_Z            2
loop_
_atom_site_label
_atom_site_type_symbol
_atom_site_fract_x
_atom_site_fract_y
_atom_site_fract_z
I1 I 0.40259(6) 0.5000 0.71374(5)
O1 O 1.1153(7) 0.069(1) 1.1513(6)
O2 O 0.9129(7) 0.022(2) 1.2309(5)
O3 O 0.0435(7) -0.091(1) 0.4831(8)
O4 O 0.2415(6) 0.0457(8) 0.4251(6)
N1 N 0.6113(8) 0.063(1) 0.6776(7)
C1 C 0.704(1) 0.177(1) 0.6435(8)
C2 C 0.844(1) 0.149(1) 0.7184(8)
C3 C 0.8572(9) 0.116(1) 0.8547(8)
C4 C 0.981(1) 0.110(1) 0.9379(9)
C5 C 0.9971(9) 0.076(1) 1.0624(9)
C6 C 0.8905(9) 0.050(1) 1.1076(8)
C7 C 0.7687(8) 0.056(1) 1.0251(8)
C8 C 0.7510(9) 0.087(1) 0.8994(8)
C9 C 0.6115(8) 0.095(1) 0.8130(7)
C10 C 0.5194(9) -0.013(3) 0.8519(7)
C11 C 0.3881(8) -0.029(1) 0.7562(8)
C12 C 0.2861(9) -0.095(1) 0.7908(9)
C13 C 0.1685(9) -0.116(1) 0.703(1)
C14 C 0.1519(9) -0.076(1) 0.5805(9)
C15 C 0.2563(7) -0.003(2) 0.5465(7)
C16 C 0.3744(7) 0.018(2) 0.6339(7)
C17 C 0.4799(8) 0.099(1) 0.5939(7)
C18 C 0.650(1) -0.102(1) 0.659(1)
C19 C 1.226(1) 0.076(2) 1.108(1)
C20 C -0.049(1) -0.199(1) 0.500(1)
H1 H 0.168(8) 0.03(1) 0.378(8)
H2 H 0.84(1) -0.02(3) 1.24(1)
H3 H 0.679 0.280 0.659
H4 H 0.697 0.166 0.557
H5 H 0.893 0.240 0.713
H6 H 0.877 0.063 0.684
H7 H 1.055 0.129 0.908
H8 H 0.695 0.038 1.055
H9 H 0.581 0.198 0.820
H10 H 0.506 0.023 0.928
H11 H 0.558 -0.115 0.865
H12 H 0.297 -0.125 0.876
H13 H 0.098 -0.161 0.728
H14 H 1.301 0.071 1.177
H15 H 1.226 -0.008 1.053
H16 H 1.226 0.172 1.065
H17 H -0.120 -0.201 0.426
H18 H -0.011 -0.300 0.513
H19 H -0.078 -0.170 0.570
H20 H 0.648 -0.116 0.574
H21 H 0.735 -0.120 0.711
H22 H 0.591 -0.172 0.681
H23 H 0.476 0.067 0.510
H24 H 0.466 0.209 0.594
loop_
_geom_bond_atom_site_label_1
_geom_bond_atom_site_label_2
_geom_bond_site_symmetry_1
_geom_bond_site_symmetry_2
O1 C5 1_555 1_555
O2 C6 1_555 1_555
O3 C14 1_555 1_555
O4 C15 1_555 1_555
N1 C1 1_555 1_555
C1 C2 1_555 1_555
C2 C3 1_555 1_555
C3 C4 1_555 1_555
C4 C5 1_555 1_555
C5 C6 1_555 1_555
C6 C7 1_555 1_555
C7 C8 1_555 1_555
C8 C3 1_555 1_555
C9 N1 1_555 1_555
C10 C9 1_555 1_555
C11 C10 1_555 1_555
C12 C11 1_555 1_555
C13 C12 1_555 1_555
C14 C13 1_555 1_555
C15 C14 1_555 1_555
C16 C11 1_555 1_555
C17 N1 1_555 1_555
C18 N1 1_555 1_555
C19 O1 1_555 1_555
C20 O3 1_555 1_555
H1 O4 1_555 1_555
H2 O2 1_555 1_555
H3 C1 1_555 1_555
H4 C1 1_555 1_555
H5 C2 1_555 1_555
H6 C2 1_555 1_555
H7 C4 1_555 1_555
H8 C7 1_555 1_555
H9 C9 1_555 1_555
H10 C10 1_555 1_555
H11 C10 1_555 1_555
H12 C12 1_555 1_555
H13 C13 1_555 1_555
H14 C19 1_555 1_555
H15 C19 1_555 1_555
H16 C19 1_555 1_555
H17 C20 1_555 1_555
H18 C20 1_555 1_555
H19 C20 1_555 1_555
H20 C18 1_555 1_555
H21 C18 1_555 1_555
H22 C18 1_555 1_555
H23 C17 1_555 1_555
H24 C17 1_555 1_555
C8 C9 1_555 1_555
C15 C16 1_555 1_555
C16 C17 1_555 1_555

#END
