
#######################################################################
#
#                 Cambridge Crystallographic Data Centre
#                                CCDC 
#
#######################################################################
#
# If this CIF has been generated from an entry in the Cambridge 
# Structural Database, then it will include bibliographic, chemical, 
# crystal, experimental, refinement or atomic coordinate data resulting 
# from the CCDC's data processing and validation procedures.
#
#######################################################################

data_QENGUO
_chemical_formula_moiety         'C15 H13 N1 S2'
_chemical_name_systematic        
3-benzyl-3,4-dihydro-2H-1,3-benzothiazine-2-thione
_symmetry_cell_setting           monoclinic
_symmetry_space_group_name_H-M   'P 21/c'
_symmetry_Int_Tables_number      14
_space_group_name_Hall           '-P 2ybc'
loop_
_symmetry_equiv_pos_site_id
_symmetry_equiv_pos_as_xyz
1 x,y,z
2 -x,1/2+y,1/2-z
3 -x,-y,-z
4 x,1/2-y,1/2+z
_cell_length_a                   8.3766(2)
_cell_length_b                   6.28950(10)
_cell_length_c                   25.7206(6)
_cell_angle_alpha                90
_cell_angle_beta                 95.618(2)
_cell_angle_gamma                90
_cell_volume                     1348.57
_exptl_crystal_colour            'light yellow'
_exptl_crystal_description       block
_cell_formula_units_Z            4
loop_
_atom_site_label
_atom_site_type_symbol
_atom_site_fract_x
_atom_site_fract_y
_atom_site_fract_z
S1 S 0.03553(8) 0.78869(10) 0.67392(3)
S2 S 0.04612(8) 0.86675(11) 0.56325(3)
N1 N 0.1595(2) 0.5114(3) 0.61103(6)
C1 C 0.1581(3) 0.3568(4) 0.65393(8)
H1 H 0.223921 0.235647 0.646535
H2 H 0.049322 0.306227 0.655571
C2 C 0.2188(3) 0.4477(4) 0.70579(8)
C3 C 0.3237(3) 0.3383(5) 0.74132(10)
H3 H 0.362287 0.205588 0.732698
C4 C 0.3709(4) 0.4272(7) 0.78974(12)
H4 H 0.439379 0.352617 0.813864
C5 C 0.3167(4) 0.6250(7) 0.80213(11)
H5 H 0.348741 0.683041 0.834742
C6 C 0.2168(4) 0.7372(5) 0.76743(10)
H6 H 0.182520 0.872433 0.775868
C7 C 0.1664(3) 0.6473(4) 0.71907(8)
C8 C 0.0914(2) 0.7018(3) 0.61317(8)
C9 C 0.2154(3) 0.4292(4) 0.56235(8)
H7 H 0.183874 0.527255 0.534074
H8 H 0.163926 0.293777 0.553858
C10 C 0.4949(3) 0.5678(4) 0.58043(10)
H9 H 0.451844 0.697625 0.589291
C11 C 0.6589(3) 0.5459(5) 0.58123(12)
H10 H 0.725457 0.660965 0.590420
C12 C 0.7240(3) 0.3562(6) 0.56862(9)
H11 H 0.834630 0.342033 0.569139
C13 C 0.6262(3) 0.1870(5) 0.55522(9)
H12 H 0.670012 0.057160 0.546722
C14 C 0.4617(3) 0.2095(4) 0.55434(9)
H13 H 0.395528 0.094011 0.545247
C15 C 0.3946(2) 0.4004(3) 0.56671(7)
loop_
_geom_bond_atom_site_label_1
_geom_bond_atom_site_label_2
_geom_bond_site_symmetry_1
_geom_bond_site_symmetry_2
S1 C7 1_555 1_555
S2 C8 1_555 1_555
N1 C1 1_555 1_555
C1 H1 1_555 1_555
H2 C1 1_555 1_555
C2 C1 1_555 1_555
C3 C2 1_555 1_555
H3 C3 1_555 1_555
C4 C3 1_555 1_555
H4 C4 1_555 1_555
C5 C4 1_555 1_555
H5 C5 1_555 1_555
C6 C5 1_555 1_555
H6 C6 1_555 1_555
C7 C2 1_555 1_555
C8 S1 1_555 1_555
C9 N1 1_555 1_555
H7 C9 1_555 1_555
H8 C9 1_555 1_555
C10 H9 1_555 1_555
C11 C10 1_555 1_555
H10 C11 1_555 1_555
C12 C11 1_555 1_555
H11 C12 1_555 1_555
C13 C12 1_555 1_555
H12 C13 1_555 1_555
C14 C13 1_555 1_555
H13 C14 1_555 1_555
C15 C9 1_555 1_555
N1 C8 1_555 1_555
C6 C7 1_555 1_555
C10 C15 1_555 1_555
C14 C15 1_555 1_555

#END
