
#######################################################################
#
#                 Cambridge Crystallographic Data Centre
#                                CCDC 
#
#######################################################################
#
# If this CIF has been generated from an entry in the Cambridge 
# Structural Database, then it will include bibliographic, chemical, 
# crystal, experimental, refinement or atomic coordinate data resulting 
# from the CCDC's data processing and validation procedures.
#
#######################################################################

data_QENGUL
_chemical_formula_moiety         'C16 H19 N2 O1 1+,C8 H7 O3 1-'
_chemical_name_systematic        
'(S)-(+)-5-Amino-2-(benzyloxy)-5,6,7,8-tetrahydroquinoline (R)-(-)-mandelic acid'
_symmetry_cell_setting           monoclinic
_symmetry_space_group_name_H-M   'P 21'
_symmetry_Int_Tables_number      4
_space_group_name_Hall           'P 2yb'
loop_
_symmetry_equiv_pos_site_id
_symmetry_equiv_pos_as_xyz
1 x,y,z
2 -x,1/2+y,-z
_cell_length_a                   9.599(3)
_cell_length_b                   6.034(1)
_cell_length_c                   17.887(3)
_cell_angle_alpha                90
_cell_angle_beta                 99.24(2)
_cell_angle_gamma                90
_cell_volume                     1022.58
_cell_formula_units_Z            2
loop_
_atom_site_label
_atom_site_type_symbol
_atom_site_fract_x
_atom_site_fract_y
_atom_site_fract_z
O1 O 0.1290(2) 0.6259(6) 0.0900(1)
N1 N 0.3200(3) 0.5047(5) 0.1764(1)
N2 N 0.4368(2) 0.6695(4) 0.4289(1)
C1 C 0.2209(3) 0.6535(7) 0.1560(2)
C2 C 0.2006(3) 0.8425(6) 0.1969(2)
C3 C 0.2881(3) 0.8736(6) 0.2648(2)
C4 C 0.4976(3) 0.7535(5) 0.3613(2)
C5 C 0.6373(3) 0.6385(7) 0.3573(2)
C6 C 0.6155(3) 0.3968(7) 0.3380(2)
C7 C 0.5230(3) 0.3664(6) 0.2607(2)
C8 C 0.3947(3) 0.7185(5) 0.2893(1)
C9 C 0.4075(3) 0.5369(6) 0.2428(2)
C10 C 0.1382(4) 0.4222(9) 0.0487(2)
C11 C 0.2386(3) 0.4362(7) -0.0076(2)
C12 C 0.3247(3) 0.6148(7) -0.0128(2)
C13 C 0.4195(4) 0.6148(8) -0.0647(2)
C14 C 0.4251(4) 0.4357(9) -0.1112(2)
C15 C 0.3382(4) 0.2586(9) -0.1071(2)
C16 C 0.2435(4) 0.2568(8) -0.0555(2)
H2 H 0.3994 0.5323 0.4193
H3 H 0.3689 0.7641 0.4389
H4 H 0.5047 0.6631 0.4701
H5 H 0.1305 0.9446 0.1791
H6 H 0.2767 0.9969 0.2944
H7 H 0.5153 0.9128 0.3678
H8 H 0.6830 0.7100 0.3191
H9 H 0.6988 0.6527 0.4057
H10 H 0.5712 0.3248 0.3766
H11 H 0.7064 0.3268 0.3376
H12 H 0.5826 0.3723 0.2218
H13 H 0.4804 0.2204 0.2589
H14 H 0.0451 0.3841 0.0221
H15 H 0.1686 0.3041 0.0844
H16 H 0.3202 0.7369 0.0185
H17 H 0.4783 0.7359 -0.0677
H18 H 0.4883 0.4348 -0.1455
H19 H 0.3421 0.1379 -0.1391
H20 H 0.1842 0.1360 -0.0532
O2 O 1.0218(2) 0.2059(4) 0.4954(1)
O3 O 1.3508(2) 0.2184(4) 0.4393(1)
O4 O 1.2197(2) -0.0711(4) 0.4600(1)
C17 C 1.1057(3) 0.2813(5) 0.4419(1)
C18 C 1.2358(3) 0.1303(5) 0.4482(1)
C19 C 1.0275(3) 0.2712(5) 0.3613(2)
C20 C 0.9557(3) 0.0799(6) 0.3352(2)
C21 C 0.8878(3) 0.0660(7) 0.2605(2)
C22 C 0.8894(3) 0.2432(9) 0.2124(2)
C23 C 0.9588(4) 0.4352(9) 0.2380(2)
C24 C 1.0273(3) 0.4506(7) 0.3130(2)
H1 H 0.9782 0.3263 0.4937
H21 H 1.1360 0.4340 0.4540
H22 H 0.9528 -0.0396 0.3677
H23 H 0.8412 -0.0637 0.2431
H24 H 0.8437 0.2336 0.1626
H25 H 0.9600 0.5549 0.2054
H26 H 1.0728 0.5812 0.3304
loop_
_geom_bond_atom_site_label_1
_geom_bond_atom_site_label_2
_geom_bond_site_symmetry_1
_geom_bond_site_symmetry_2
O1 C1 1_555 1_555
O2 C17 1_555 1_555
O3 C18 1_555 1_555
O4 C18 1_555 1_555
N1 C1 1_555 1_555
N2 C4 1_555 1_555
C1 C2 1_555 1_555
C2 C3 1_555 1_555
C3 C8 1_555 1_555
C4 C5 1_555 1_555
C5 C6 1_555 1_555
C6 C7 1_555 1_555
C7 C9 1_555 1_555
C8 C4 1_555 1_555
C9 N1 1_555 1_555
C10 O1 1_555 1_555
C11 C10 1_555 1_555
C12 C11 1_555 1_555
C13 C12 1_555 1_555
C14 C13 1_555 1_555
C15 C14 1_555 1_555
C16 C11 1_555 1_555
C17 C18 1_555 1_555
C19 C17 1_555 1_555
C20 C19 1_555 1_555
C21 C20 1_555 1_555
C22 C21 1_555 1_555
C23 C22 1_555 1_555
C24 C19 1_555 1_555
H1 O2 1_555 1_555
H2 N2 1_555 1_555
H3 N2 1_555 1_555
H4 N2 1_555 1_555
H5 C2 1_555 1_555
H6 C3 1_555 1_555
H7 C4 1_555 1_555
H8 C5 1_555 1_555
H9 C5 1_555 1_555
H10 C6 1_555 1_555
H11 C6 1_555 1_555
H12 C7 1_555 1_555
H13 C7 1_555 1_555
H14 C10 1_555 1_555
H15 C10 1_555 1_555
H16 C12 1_555 1_555
H17 C13 1_555 1_555
H18 C14 1_555 1_555
H19 C15 1_555 1_555
H20 C16 1_555 1_555
H21 C17 1_555 1_555
H22 C20 1_555 1_555
H23 C21 1_555 1_555
H24 C22 1_555 1_555
H25 C23 1_555 1_555
H26 C24 1_555 1_555
C8 C9 1_555 1_555
C15 C16 1_555 1_555
C23 C24 1_555 1_555

#END
