
#######################################################################
#
#                 Cambridge Crystallographic Data Centre
#                                CCDC 
#
#######################################################################
#
# If this CIF has been generated from an entry in the Cambridge 
# Structural Database, then it will include bibliographic, chemical, 
# crystal, experimental, refinement or atomic coordinate data resulting 
# from the CCDC's data processing and validation procedures.
#
#######################################################################

data_QENGOI
_chemical_formula_moiety         'C14 H11 N1 S2'
_chemical_name_systematic        3-benzyl-1,3-benzothiazole-2(3H)-thione
_symmetry_cell_setting           monoclinic
_symmetry_space_group_name_H-M   'P 21/n'
_symmetry_Int_Tables_number      14
_space_group_name_Hall           '-P 2yn'
loop_
_symmetry_equiv_pos_site_id
_symmetry_equiv_pos_as_xyz
1 x,y,z
2 1/2-x,1/2+y,1/2-z
3 -x,-y,-z
4 1/2+x,1/2-y,1/2+z
_cell_length_a                   7.26150(10)
_cell_length_b                   11.8328(2)
_cell_length_c                   14.2292(3)
_cell_angle_alpha                90
_cell_angle_beta                 94.546(2)
_cell_angle_gamma                90
_cell_volume                     1218.78
_exptl_crystal_colour            colorless
_exptl_crystal_description       block
_cell_formula_units_Z            4
loop_
_atom_site_label
_atom_site_type_symbol
_atom_site_fract_x
_atom_site_fract_y
_atom_site_fract_z
S1 S 0.70694(6) 0.44562(4) 0.32091(3)
S2 S 0.70021(7) 0.63334(5) 0.18190(4)
N1 N 0.41991(18) 0.56650(11) 0.28468(9)
C1 C 0.3698(2) 0.48764(14) 0.35154(11)
C2 C 0.2719(2) 0.75186(14) 0.30884(11)
C3 C 0.5126(2) 0.41425(15) 0.38029(11)
C4 C 0.1979(2) 0.47708(15) 0.38706(12)
H1 H 0.101294 0.525530 0.367839
C5 C 0.2904(2) 0.65241(15) 0.24381(11)
H2 H 0.169947 0.618049 0.230082
H3 H 0.333059 0.679004 0.184823
C6 C 0.5957(2) 0.55667(14) 0.25983(12)
C7 C 0.4194(2) 0.82440(15) 0.32931(12)
H4 H 0.530916 0.811173 0.303269
C8 C 0.1749(3) 0.39219(17) 0.45192(13)
H5 H 0.060822 0.383377 0.476419
C9 C 0.4893(3) 0.33000(16) 0.44593(13)
H6 H 0.585772 0.281704 0.465628
C10 C 0.1067(3) 0.77399(16) 0.34738(14)
H7 H 0.005465 0.727050 0.333411
C11 C 0.3183(3) 0.32006(17) 0.48114(14)
H8 H 0.299130 0.264060 0.525169
C12 C 0.4025(3) 0.91648(16) 0.38822(14)
H9 H 0.502111 0.964843 0.401455
C13 C 0.2384(4) 0.93610(17) 0.42694(14)
H10 H 0.227276 0.997358 0.467037
C14 C 0.0913(3) 0.86574(18) 0.40669(16)
H11 H -0.019881 0.879576 0.432900
loop_
_geom_bond_atom_site_label_1
_geom_bond_atom_site_label_2
_geom_bond_site_symmetry_1
_geom_bond_site_symmetry_2
S1 C3 1_555 1_555
S2 C6 1_555 1_555
N1 C1 1_555 1_555
C1 C3 1_555 1_555
C2 C5 1_555 1_555
C3 C9 1_555 1_555
C4 C1 1_555 1_555
H1 C4 1_555 1_555
C5 N1 1_555 1_555
H2 C5 1_555 1_555
H3 C5 1_555 1_555
C6 S1 1_555 1_555
C7 C2 1_555 1_555
H4 C7 1_555 1_555
C8 C4 1_555 1_555
H5 C8 1_555 1_555
C9 H6 1_555 1_555
C10 C2 1_555 1_555
H7 C10 1_555 1_555
C11 C8 1_555 1_555
H8 C11 1_555 1_555
C12 C7 1_555 1_555
H9 C12 1_555 1_555
C13 C12 1_555 1_555
H10 C13 1_555 1_555
C14 C10 1_555 1_555
H11 C14 1_555 1_555
N1 C6 1_555 1_555
C9 C11 1_555 1_555
C13 C14 1_555 1_555

#END
