
#######################################################################
#
#                 Cambridge Crystallographic Data Centre
#                                CCDC 
#
#######################################################################
#
# If this CIF has been generated from an entry in the Cambridge 
# Structural Database, then it will include bibliographic, chemical, 
# crystal, experimental, refinement or atomic coordinate data resulting 
# from the CCDC's data processing and validation procedures.
#
#######################################################################

data_QENQAE
_chemical_formula_moiety         'C45 H29 N5'
_chemical_name_systematic        
12-[4-(4,6-diphenyl-1,3,5-triazin-2-yl)phenyl]-5-phenyl-5,12-dihydroindolo[3,2-a]carbazole
_symmetry_cell_setting           monoclinic
_symmetry_space_group_name_H-M   'P 21/n'
_symmetry_Int_Tables_number      14
_space_group_name_Hall           '-P 2yn'
loop_
_symmetry_equiv_pos_site_id
_symmetry_equiv_pos_as_xyz
1 x,y,z
2 1/2-x,1/2+y,1/2-z
3 -x,-y,-z
4 1/2+x,1/2-y,1/2+z
_cell_length_a                   22.781(5)
_cell_length_b                   5.5944(11)
_cell_length_c                   25.503(5)
_cell_angle_alpha                90
_cell_angle_beta                 90.57(3)
_cell_angle_gamma                90
_cell_volume                     3250.1
_exptl_crystal_colour            yellow
_exptl_crystal_description       block
_cell_formula_units_Z            4
loop_
_atom_site_label
_atom_site_type_symbol
_atom_site_fract_x
_atom_site_fract_y
_atom_site_fract_z
N1 N 0.18425(10) 0.9213(4) 0.11528(10)
N2 N 0.14455(9) 0.6028(4) 0.16577(9)
N3 N 0.08202(10) 0.8318(4) 0.10976(9)
N4 N -0.10564(10) 0.1281(4) 0.21665(9)
N5 N -0.08680(11) 0.0999(4) 0.40600(10)
C1 C 0.12180(13) 1.1519(5) 0.05708(12)
C2 C 0.16540(15) 1.3217(5) 0.04939(13)
H1 H 0.2007 1.3147 0.0694
C3 C 0.15746(18) 1.5015(6) 0.01248(14)
H2 H 0.1872 1.6181 0.0073
C4 C 0.1061(2) 1.5098(7) -0.01673(15)
H3 H 0.1005 1.6333 -0.0419
C5 C 0.06262(18) 1.3408(7) -0.00983(14)
H4 H 0.0278 1.3458 -0.0306
C6 C 0.07040(15) 1.1631(6) 0.02774(13)
H5 H 0.0403 1.0487 0.0333
C7 C 0.12971(12) 0.9586(5) 0.09647(11)
C8 C 0.09181(12) 0.6580(5) 0.14505(11)
C9 C 0.18910(12) 0.7385(5) 0.14910(11)
C10 C 0.24900(12) 0.6810(5) 0.16938(11)
C11 C 0.25906(12) 0.4695(6) 0.19712(12)
H6 H 0.2275 0.3636 0.2040
C12 C 0.31531(13) 0.4145(6) 0.21461(12)
H7 H 0.3224 0.2695 0.2330
C13 C 0.36116(13) 0.5716(7) 0.20518(13)
H8 H 0.3996 0.5334 0.2173
C14 C 0.35156(13) 0.7832(6) 0.17839(13)
H9 H 0.3831 0.8908 0.1726
C15 C 0.29549(12) 0.8372(6) 0.16004(12)
H10 H 0.2888 0.9809 0.1411
C16 C 0.04037(12) 0.5174(5) 0.16274(11)
C17 C -0.01670(11) 0.5927(5) 0.15073(11)
H11 H -0.0226 0.7330 0.1304
C18 C -0.06480(12) 0.4648(5) 0.16821(11)
H12 H -0.1034 0.5163 0.1596
C19 C -0.05614(12) 0.2604(5) 0.19847(11)
C20 C 0.00055(12) 0.1798(5) 0.20981(11)
H13 H 0.0063 0.0374 0.2295
C21 C 0.04830(11) 0.3088(5) 0.19218(11)
H14 H 0.0869 0.2550 0.2002
C22 C -0.14339(12) 0.0034(5) 0.18258(11)
C23 C -0.14907(13) 0.0225(6) 0.12848(12)
H15 H -0.1262 0.1332 0.1092
C24 C -0.18925(14) -0.1258(6) 0.10379(14)
H16 H -0.1942 -0.1164 0.0668
C25 C -0.22248(14) -0.2885(6) 0.13207(14)
H17 H -0.2499 -0.3876 0.1141
C26 C -0.21626(13) -0.3088(6) 0.18605(13)
H18 H -0.2392 -0.4204 0.2051
C27 C -0.17586(11) -0.1626(5) 0.21185(12)
C28 C -0.15709(11) -0.1387(5) 0.26616(11)
C29 C -0.11434(11) 0.0429(5) 0.26771(11)
C30 C -0.09156(11) 0.1236(5) 0.31635(11)
C31 C -0.11286(12) 0.0012(5) 0.36116(12)
C32 C -0.15356(13) -0.1845(5) 0.35980(12)
H19 H -0.1654 -0.2614 0.3912
C33 C -0.17617(12) -0.2539(5) 0.31207(12)
H20 H -0.2044 -0.3785 0.3100
C34 C -0.05249(12) 0.3112(5) 0.33518(11)
C35 C -0.02211(12) 0.5035(5) 0.31306(12)
H21 H -0.0237 0.5299 0.2763
C36 C 0.01034(13) 0.6553(6) 0.34529(13)
H22 H 0.0307 0.7861 0.3302
C37 C 0.01361(13) 0.6195(6) 0.39933(13)
H23 H 0.0373 0.7221 0.4204
C38 C -0.01731(13) 0.4361(6) 0.42248(13)
H24 H -0.0156 0.4120 0.4593
C39 C -0.05084(12) 0.2881(5) 0.39060(12)
C40 C -0.11192(13) 0.0870(5) 0.45772(12)
C41 C -0.09844(18) -0.0959(7) 0.49144(14)
H25 H -0.0723 -0.2186 0.4809
C42 C -0.12302(19) -0.1023(7) 0.54118(15)
H26 H -0.1135 -0.2297 0.5644
C43 C -0.16067(15) 0.0727(6) 0.55700(13)
H27 H -0.1775 0.0674 0.5909
C44 C -0.17380(17) 0.2549(7) 0.52350(15)
H28 H -0.1996 0.3782 0.5344
C45 C -0.14989(17) 0.2627(7) 0.47368(14)
H29 H -0.1598 0.3899 0.4506
loop_
_geom_bond_atom_site_label_1
_geom_bond_atom_site_label_2
_geom_bond_site_symmetry_1
_geom_bond_site_symmetry_2
N1 C7 1_555 1_555
N2 C8 1_555 1_555
N3 C7 1_555 1_555
N4 C19 1_555 1_555
N5 C31 1_555 1_555
C1 C2 1_555 1_555
C2 H1 1_555 1_555
C3 C2 1_555 1_555
H2 C3 1_555 1_555
C4 C3 1_555 1_555
H3 C4 1_555 1_555
C5 C4 1_555 1_555
H4 C5 1_555 1_555
C6 C1 1_555 1_555
H5 C6 1_555 1_555
C7 C1 1_555 1_555
C8 N3 1_555 1_555
C9 N1 1_555 1_555
C10 C9 1_555 1_555
C11 C10 1_555 1_555
H6 C11 1_555 1_555
C12 C11 1_555 1_555
H7 C12 1_555 1_555
C13 C12 1_555 1_555
H8 C13 1_555 1_555
C14 C13 1_555 1_555
H9 C14 1_555 1_555
C15 C10 1_555 1_555
H10 C15 1_555 1_555
C16 C8 1_555 1_555
C17 C16 1_555 1_555
H11 C17 1_555 1_555
C18 C17 1_555 1_555
H12 C18 1_555 1_555
C19 C18 1_555 1_555
C20 C19 1_555 1_555
H13 C20 1_555 1_555
C21 C16 1_555 1_555
H14 C21 1_555 1_555
C22 N4 1_555 1_555
C23 C22 1_555 1_555
H15 C23 1_555 1_555
C24 C23 1_555 1_555
H16 C24 1_555 1_555
C25 C24 1_555 1_555
H17 C25 1_555 1_555
C26 C25 1_555 1_555
H18 C26 1_555 1_555
C27 C22 1_555 1_555
C28 C27 1_555 1_555
C29 N4 1_555 1_555
C30 C29 1_555 1_555
C31 C30 1_555 1_555
C32 C31 1_555 1_555
H19 C32 1_555 1_555
C33 C28 1_555 1_555
H20 C33 1_555 1_555
C34 C30 1_555 1_555
C35 C34 1_555 1_555
H21 C35 1_555 1_555
C36 C35 1_555 1_555
H22 C36 1_555 1_555
C37 C36 1_555 1_555
H23 C37 1_555 1_555
C38 C37 1_555 1_555
H24 C38 1_555 1_555
C39 N5 1_555 1_555
C40 N5 1_555 1_555
C41 C40 1_555 1_555
H25 C41 1_555 1_555
C42 C41 1_555 1_555
H26 C42 1_555 1_555
C43 C42 1_555 1_555
H27 C43 1_555 1_555
C44 C43 1_555 1_555
H28 C44 1_555 1_555
C45 C40 1_555 1_555
H29 C45 1_555 1_555
N2 C9 1_555 1_555
C5 C6 1_555 1_555
C14 C15 1_555 1_555
C20 C21 1_555 1_555
C26 C27 1_555 1_555
C28 C29 1_555 1_555
C32 C33 1_555 1_555
C34 C39 1_555 1_555
C38 C39 1_555 1_555
C44 C45 1_555 1_555

#END
