
#######################################################################
#
#                 Cambridge Crystallographic Data Centre
#                                CCDC 
#
#######################################################################
#
# If this CIF has been generated from an entry in the Cambridge 
# Structural Database, then it will include bibliographic, chemical, 
# crystal, experimental, refinement or atomic coordinate data resulting 
# from the CCDC's data processing and validation procedures.
#
#######################################################################

data_QEPBOF
_chemical_formula_moiety         'C31 H40 O10'
_chemical_name_systematic        
'3a,4-bis(acetyloxy)-9,10-dihydroxy-2,5,10,12,12-pentamethyl-7-oxotetradecahydro-9,6-(epoxymethano)cyclohepta[e]inden-1-yl benzoate'
_symmetry_cell_setting           orthorhombic
_symmetry_space_group_name_H-M   'P 21 21 21'
_symmetry_Int_Tables_number      19
_space_group_name_Hall           'P 2ac 2ab'
loop_
_symmetry_equiv_pos_site_id
_symmetry_equiv_pos_as_xyz
1 x,y,z
2 1/2-x,-y,1/2+z
3 1/2+x,1/2-y,-z
4 -x,1/2+y,1/2-z
_cell_length_a                   8.37266(19)
_cell_length_b                   12.3721(3)
_cell_length_c                   28.5539(7)
_cell_angle_alpha                90
_cell_angle_beta                 90
_cell_angle_gamma                90
_cell_volume                     2957.82
_cell_formula_units_Z            4
loop_
_atom_site_label
_atom_site_type_symbol
_atom_site_fract_x
_atom_site_fract_y
_atom_site_fract_z
O1 O -0.1506(2) -0.86643(13) -0.12813(6)
O2 O -0.2305(2) -0.93365(13) -0.03217(5)
O3 O -0.0597(2) -1.34582(14) -0.11300(6)
O4 O -0.4134(2) -1.03305(15) -0.20173(6)
O5 O -0.3765(2) -0.96916(15) 0.03225(6)
O6 O -0.0655(2) -1.33701(14) -0.03409(6)
H1 H -0.0012 -1.3870 -0.0349
O7 O -0.1964(2) -1.15015(14) -0.02627(6)
H2 H -0.1782 -1.1988 -0.0075
O8 O -0.1735(2) -0.73925(16) -0.18479(7)
C1 C 0.0527(3) -0.9436(2) 0.01864(9)
H3 H 0.0601 -0.9397 -0.0138
C2 C -0.1285(3) -1.13145(19) -0.15653(8)
H4 H -0.2118 -1.1831 -0.1654
C3 C -0.4430(3) -0.85608(19) -0.13167(8)
H5 H -0.5383 -0.8890 -0.1447
H6 H -0.4316 -0.7837 -0.1443
C4 C 0.1107(3) -1.2127(2) -0.07387(8)
H7 H 0.1094 -1.1596 -0.0489
H8 H 0.1963 -1.2634 -0.0674
C5 C -0.0479(3) -1.27298(19) -0.07445(8)
C6 C -0.3674(3) -0.9599(2) -0.06152(8)
H9 H -0.4430 -1.0056 -0.0443
C7 C -0.3127(3) -1.01688(18) -0.10660(8)
H10 H -0.4036 -1.0604 -0.1172
C8 C -0.1939(3) -1.19302(19) -0.07299(8)
C9 C -0.2741(3) -0.96806(19) -0.19152(8)
H11 H -0.2651 -0.9085 -0.2140
C10 C -0.2492(3) -0.95118(19) 0.01370(8)
C11 C -0.2962(3) -0.92403(19) -0.14202(8)
C12 C -0.1069(3) -0.7760(2) -0.15099(9)
C13 C -0.3495(3) -1.25313(19) -0.08213(9)
H12 H -0.4381 -1.2069 -0.0748
H13 H -0.3538 -1.3166 -0.0628
H14 H -0.3547 -1.2738 -0.1145
C14 C -0.1282(3) -1.0413(2) -0.19452(8)
H15 H -0.0326 -0.9968 -0.1900
C15 C -0.0907(3) -1.3628(2) -0.19497(9)
H16 H -0.1959 -1.3326 -0.1922
H17 H -0.0965 -1.4400 -0.1917
H18 H -0.0473 -1.3451 -0.2251
O9 O 0.2471(2) -1.08898(16) -0.12504(7)
O10 O -0.4866(3) -0.9236(2) -0.26090(9)
C16 C 0.0164(3) -1.3165(2) -0.15670(8)
C17 C -0.0959(3) -0.94644(19) 0.04004(8)
C18 C 0.0330(3) -1.19278(19) -0.15932(8)
H19 H 0.0838 -1.1746 -0.1892
C19 C -0.1680(3) -1.09325(19) -0.10580(8)
H20 H -0.0760 -1.0525 -0.0940
C20 C 0.1899(3) -0.9465(2) 0.04562(10)
H21 H 0.2895 -0.9452 0.0312
C21 C -0.6193(3) -0.8409(2) -0.05866(10)
H22 H -0.6812 -0.9036 -0.0666
H23 H -0.6677 -0.7779 -0.0722
H24 H -0.6154 -0.8332 -0.0252
C22 C -0.5075(3) -1.0034(3) -0.23782(9)
C23 C -0.1051(4) -0.9499(2) 0.08888(9)
H25 H -0.2045 -0.9506 0.1034
C24 C -0.4500(3) -0.85381(19) -0.07771(8)
H26 H -0.3859 -0.7926 -0.0667
C25 C 0.1797(4) -0.9514(2) 0.09419(10)
H27 H 0.2723 -0.9541 0.1122
C26 C -0.1215(3) -1.0907(2) -0.24396(8)
H28 H -0.2029 -1.1449 -0.2470
H29 H -0.0186 -1.1230 -0.2489
H30 H -0.1387 -1.0350 -0.2668
C27 C 0.1802(3) -1.3697(2) -0.16054(9)
H31 H 0.1693 -1.4465 -0.1569
H32 H 0.2490 -1.3419 -0.1365
H33 H 0.2255 -1.3542 -0.1907
C28 C 0.1434(3) -1.1562(2) -0.12002(8)
C29 C 0.0321(4) -0.9522(2) 0.11570(9)
H34 H 0.0251 -0.9544 0.1482
C30 C 0.0393(4) -0.7276(2) -0.12884(12)
H35 H 0.1261 -0.7781 -0.1308
H36 H 0.0178 -0.7114 -0.0966
H37 H 0.0676 -0.6623 -0.1450
C31 C -0.6389(4) -1.0837(3) -0.24420(11)
H38 H -0.7065 -1.0834 -0.2171
H39 H -0.5940 -1.1545 -0.2483
H40 H -0.7006 -1.0648 -0.2713
loop_
_geom_bond_atom_site_label_1
_geom_bond_atom_site_label_2
_geom_bond_site_symmetry_1
_geom_bond_site_symmetry_2
O1 C11 1_555 1_555
O2 C6 1_555 1_555
O3 C5 1_555 1_555
O4 C9 1_555 1_555
O5 C10 1_555 1_555
O6 H1 1_555 1_555
O7 H2 1_555 1_555
O8 C12 1_555 1_555
C1 H3 1_555 1_555
C2 H4 1_555 1_555
C3 H5 1_555 1_555
H6 C3 1_555 1_555
C4 H7 1_555 1_555
H8 C4 1_555 1_555
C5 O6 1_555 1_555
C6 H9 1_555 1_555
C7 C6 1_555 1_555
H10 C7 1_555 1_555
C8 O7 1_555 1_555
C9 H11 1_555 1_555
C10 O2 1_555 1_555
C11 C3 1_555 1_555
C12 O1 1_555 1_555
C13 C8 1_555 1_555
H12 C13 1_555 1_555
H13 C13 1_555 1_555
H14 C13 1_555 1_555
C14 C2 1_555 1_555
H15 C14 1_555 1_555
C15 H16 1_555 1_555
H17 C15 1_555 1_555
H18 C15 1_555 1_555
O9 C28 1_555 1_555
O10 C22 1_555 1_555
C16 O3 1_555 1_555
C17 C1 1_555 1_555
C18 C2 1_555 1_555
H19 C18 1_555 1_555
C19 C2 1_555 1_555
H20 C19 1_555 1_555
C20 C1 1_555 1_555
H21 C20 1_555 1_555
C21 H22 1_555 1_555
H23 C21 1_555 1_555
H24 C21 1_555 1_555
C22 O4 1_555 1_555
C23 C17 1_555 1_555
H25 C23 1_555 1_555
C24 C3 1_555 1_555
H26 C24 1_555 1_555
C25 C20 1_555 1_555
H27 C25 1_555 1_555
C26 C14 1_555 1_555
H28 C26 1_555 1_555
H29 C26 1_555 1_555
H30 C26 1_555 1_555
C27 C16 1_555 1_555
H31 C27 1_555 1_555
H32 C27 1_555 1_555
H33 C27 1_555 1_555
C28 C4 1_555 1_555
C29 C23 1_555 1_555
H34 C29 1_555 1_555
C30 C12 1_555 1_555
H35 C30 1_555 1_555
H36 C30 1_555 1_555
H37 C30 1_555 1_555
C31 C22 1_555 1_555
H38 C31 1_555 1_555
H39 C31 1_555 1_555
H40 C31 1_555 1_555
C4 C5 1_555 1_555
C5 C8 1_555 1_555
C6 C24 1_555 1_555
C7 C11 1_555 1_555
C7 C19 1_555 1_555
C8 C19 1_555 1_555
C9 C11 1_555 1_555
C9 C14 1_555 1_555
C10 C17 1_555 1_555
C15 C16 1_555 1_555
C16 C18 1_555 1_555
C18 C28 1_555 1_555
C21 C24 1_555 1_555
C25 C29 1_555 1_555

#END
