
#######################################################################
#
#                 Cambridge Crystallographic Data Centre
#                                CCDC 
#
#######################################################################
#
# If this CIF has been generated from an entry in the Cambridge 
# Structural Database, then it will include bibliographic, chemical, 
# crystal, experimental, refinement or atomic coordinate data resulting 
# from the CCDC's data processing and validation procedures.
#
#######################################################################

data_QEPCOE
_chemical_formula_moiety         'C58 H84 K2 N4 O2 P2'
_chemical_name_systematic        
"bis(\m~2~-\h^2^,\h^2^-N,N'-Dicyclohexyl-2-(diphenylphosphino)carbodiimido)-bis(diethyl ether)-di-potassium"
_symmetry_cell_setting           monoclinic
_symmetry_space_group_name_H-M   'P 21/c'
_symmetry_Int_Tables_number      14
_space_group_name_Hall           '-P 2ybc'
loop_
_symmetry_equiv_pos_site_id
_symmetry_equiv_pos_as_xyz
1 x,y,z
2 -x,1/2+y,1/2-z
3 -x,-y,-z
4 x,1/2-y,1/2+z
_cell_length_a                   11.1009(12)
_cell_length_b                   19.529(2)
_cell_length_c                   14.3917(15)
_cell_angle_alpha                90
_cell_angle_beta                 112.539(2)
_cell_angle_gamma                90
_cell_volume                     2881.66
_exptl_crystal_colour            orange
_exptl_crystal_description       prism
_cell_formula_units_Z            2
_exptl_crystal_recrystallization_method ether
loop_
_atom_site_label
_atom_site_type_symbol
_atom_site_fract_x
_atom_site_fract_y
_atom_site_fract_z
K1 K 0.07606(6) 0.06795(3) -0.01215(4)
P1 P 0.12339(6) 0.07294(3) 0.32734(5)
N1 N -0.0490(2) 0.05319(12) 0.12975(15)
N2 N 0.1374(2) -0.00714(11) 0.16241(14)
O1 O 0.1664(6) 0.18227(15) -0.0652(3)
C1 C 0.0674(2) 0.03360(12) 0.19516(17)
C2 C -0.1377(2) 0.09649(14) 0.15611(18)
H1 H -0.1127 0.0952 0.2292
C3 C -0.1329(3) 0.17050(14) 0.1243(2)
H2 H -0.1486 0.1718 0.0532
H3 H -0.0465 0.1889 0.1611
C4 C -0.2338(3) 0.21530(16) 0.1435(3)
H4 H -0.2132 0.2178 0.2153
H5 H -0.2301 0.2613 0.1194
C5 C -0.3691(3) 0.18715(16) 0.0913(3)
H6 H -0.3925 0.1880 0.0191
H7 H -0.4308 0.2156 0.1066
C6 C -0.3769(3) 0.11433(16) 0.1249(3)
H8 H -0.4636 0.0962 0.0882
H9 H -0.3611 0.1139 0.1960
C7 C -0.2757(3) 0.06941(14) 0.1058(2)
H10 H -0.2795 0.0235 0.1304
H11 H -0.2976 0.0664 0.0339
C8 C 0.2618(2) -0.03698(13) 0.22426(18)
H12 H 0.2794 -0.0285 0.2954
C9 C 0.2548(3) -0.11454(13) 0.2048(2)
H13 H 0.1883 -0.1341 0.2250
H14 H 0.2286 -0.1225 0.1332
C10 C 0.3827(3) -0.15093(14) 0.2603(2)
H15 H 0.4038 -0.1481 0.3322
H16 H 0.3737 -0.1989 0.2416
C11 C 0.4924(3) -0.11996(15) 0.2368(2)
H17 H 0.4778 -0.1289 0.1670
H18 H 0.5741 -0.1414 0.2785
C12 C 0.5020(3) -0.04271(15) 0.2555(2)
H19 H 0.5283 -0.0340 0.3269
H20 H 0.5681 -0.0237 0.2343
C13 C 0.3723(3) -0.00747(13) 0.19840(19)
H21 H 0.3506 -0.0123 0.1267
H22 H 0.3808 0.0410 0.2142
C14 C 0.1410(2) 0.00092(13) 0.41303(18)
C15 C 0.1768(3) 0.01495(15) 0.51557(19)
H23 H 0.2022 0.0591 0.5392
C16 C 0.1750(3) -0.03546(17) 0.5822(2)
H24 H 0.2004 -0.0253 0.6502
C17 C 0.1357(3) -0.10053(17) 0.5482(2)
H25 H 0.1336 -0.1345 0.5929
C18 C 0.0993(3) -0.11539(16) 0.4473(2)
H26 H 0.0724 -0.1595 0.4241
C19 C 0.1027(3) -0.06498(13) 0.3804(2)
H27 H 0.0788 -0.0757 0.3127
C20 C 0.2891(2) 0.10202(12) 0.35005(18)
C21 C 0.2998(3) 0.15425(13) 0.2875(2)
H28 H 0.2254 0.1696 0.2350
C22 C 0.4190(3) 0.18350(14) 0.3022(2)
H29 H 0.4238 0.2182 0.2594
C23 C 0.5311(3) 0.16179(15) 0.3797(2)
H30 H 0.6112 0.1816 0.3894
C24 C 0.5224(3) 0.11026(15) 0.4427(2)
H31 H 0.5973 0.0951 0.4949
C25 C 0.4028(3) 0.08093(14) 0.42849(19)
H32 H 0.3984 0.0467 0.4720
C26 C 0.2801(9) 0.1525(4) -0.1061(7)
C27 C 0.1983(5) 0.1262(4) -0.1951(4)
C28 C 0.2474(12) 0.2421(7) -0.0014(10)
C29 C 0.1693(7) 0.2709(3) 0.0385(4)
K1B K -0.07606(6) -0.06795(3) 0.01215(4)
P1B P -0.12339(6) -0.07294(3) -0.32734(5)
N1B N 0.0490(2) -0.05319(12) -0.12975(15)
N2B N -0.1374(2) 0.00714(11) -0.16241(14)
O1B O -0.1664(6) -0.18227(15) 0.0652(3)
C1B C -0.0674(2) -0.03360(12) -0.19516(17)
C2B C 0.1377(2) -0.09649(14) -0.15611(18)
H1B H 0.1127 -0.0952 -0.2292
C3B C 0.1329(3) -0.17050(14) -0.1243(2)
H2B H 0.1486 -0.1718 -0.0532
H3B H 0.0465 -0.1889 -0.1611
C4B C 0.2338(3) -0.21530(16) -0.1435(3)
H4B H 0.2132 -0.2178 -0.2153
H5B H 0.2301 -0.2613 -0.1194
C5B C 0.3691(3) -0.18715(16) -0.0913(3)
H6B H 0.3925 -0.1880 -0.0191
H7B H 0.4308 -0.2156 -0.1066
C6B C 0.3769(3) -0.11433(16) -0.1249(3)
H8B H 0.4636 -0.0962 -0.0882
H9B H 0.3611 -0.1139 -0.1960
C7B C 0.2757(3) -0.06941(14) -0.1058(2)
H10B H 0.2795 -0.0235 -0.1304
H11B H 0.2976 -0.0664 -0.0339
C8B C -0.2618(2) 0.03698(13) -0.22426(18)
H12B H -0.2794 0.0285 -0.2954
C9B C -0.2548(3) 0.11454(13) -0.2048(2)
H13B H -0.1883 0.1341 -0.2250
H14B H -0.2286 0.1225 -0.1332
C10B C -0.3827(3) 0.15093(14) -0.2603(2)
H15B H -0.4038 0.1481 -0.3322
H16B H -0.3737 0.1989 -0.2416
C11B C -0.4924(3) 0.11996(15) -0.2368(2)
H17B H -0.4778 0.1289 -0.1670
H18B H -0.5741 0.1414 -0.2785
C12B C -0.5020(3) 0.04271(15) -0.2555(2)
H19B H -0.5283 0.0340 -0.3269
H20B H -0.5681 0.0237 -0.2343
C13B C -0.3723(3) 0.00747(13) -0.19840(19)
H21B H -0.3506 0.0123 -0.1267
H22B H -0.3808 -0.0410 -0.2142
C14B C -0.1410(2) -0.00092(13) -0.41303(18)
C15B C -0.1768(3) -0.01495(15) -0.51557(19)
H23B H -0.2022 -0.0591 -0.5392
C16B C -0.1750(3) 0.03546(17) -0.5822(2)
H24B H -0.2004 0.0253 -0.6502
C17B C -0.1357(3) 0.10053(17) -0.5482(2)
H25B H -0.1336 0.1345 -0.5929
C18B C -0.0993(3) 0.11539(16) -0.4473(2)
H26B H -0.0724 0.1595 -0.4241
C19B C -0.1027(3) 0.06498(13) -0.3804(2)
H27B H -0.0788 0.0757 -0.3127
C20B C -0.2891(2) -0.10202(12) -0.35005(18)
C21B C -0.2998(3) -0.15425(13) -0.2875(2)
H28B H -0.2254 -0.1696 -0.2350
C22B C -0.4190(3) -0.18350(14) -0.3022(2)
H29B H -0.4238 -0.2182 -0.2594
C23B C -0.5311(3) -0.16179(15) -0.3797(2)
H30B H -0.6112 -0.1816 -0.3894
C24B C -0.5224(3) -0.11026(15) -0.4427(2)
H31B H -0.5973 -0.0951 -0.4949
C25B C -0.4028(3) -0.08093(14) -0.42849(19)
H32B H -0.3984 -0.0467 -0.4720
C26B C -0.2801(9) -0.1525(4) 0.1061(7)
C27B C -0.1983(5) -0.1262(4) 0.1951(4)
C28B C -0.2474(12) -0.2421(7) 0.0014(10)
C29B C -0.1693(7) -0.2709(3) -0.0385(4)
C30? C 0.1583(11) 0.1904(6) -0.1658(8)
C31? C 0.0933(10) 0.2485(5) -0.0510(8)
loop_
_geom_bond_atom_site_label_1
_geom_bond_atom_site_label_2
_geom_bond_site_symmetry_1
_geom_bond_site_symmetry_2
K1 N1 1_555 1_555
P1 C1 1_555 1_555
N1 C1 1_555 1_555
N2 K1 1_555 1_555
O1 K1 1_555 1_555
C1 N2 1_555 1_555
C2 N1 1_555 1_555
H1 C2 1_555 1_555
C3 C2 1_555 1_555
H2 C3 1_555 1_555
H3 C3 1_555 1_555
C4 C3 1_555 1_555
H4 C4 1_555 1_555
H5 C4 1_555 1_555
C5 C4 1_555 1_555
H6 C5 1_555 1_555
H7 C5 1_555 1_555
C6 C5 1_555 1_555
H8 C6 1_555 1_555
H9 C6 1_555 1_555
C7 C2 1_555 1_555
H10 C7 1_555 1_555
H11 C7 1_555 1_555
C8 N2 1_555 1_555
H12 C8 1_555 1_555
C9 C8 1_555 1_555
H13 C9 1_555 1_555
H14 C9 1_555 1_555
C10 C9 1_555 1_555
H15 C10 1_555 1_555
H16 C10 1_555 1_555
C11 C10 1_555 1_555
H17 C11 1_555 1_555
H18 C11 1_555 1_555
C12 C11 1_555 1_555
H19 C12 1_555 1_555
H20 C12 1_555 1_555
C13 C8 1_555 1_555
H21 C13 1_555 1_555
H22 C13 1_555 1_555
C14 P1 1_555 1_555
C15 C14 1_555 1_555
H23 C15 1_555 1_555
C16 C15 1_555 1_555
H24 C16 1_555 1_555
C17 C16 1_555 1_555
H25 C17 1_555 1_555
C18 C17 1_555 1_555
H26 C18 1_555 1_555
C19 C14 1_555 1_555
H27 C19 1_555 1_555
C20 P1 1_555 1_555
C21 C20 1_555 1_555
H28 C21 1_555 1_555
C22 C21 1_555 1_555
H29 C22 1_555 1_555
C23 C22 1_555 1_555
H30 C23 1_555 1_555
C24 C23 1_555 1_555
H31 C24 1_555 1_555
C25 C20 1_555 1_555
H32 C25 1_555 1_555
C26 O1 1_555 1_555
C27 C26 1_555 1_555
C28 O1 1_555 1_555
C29 C28 1_555 1_555
K1B N1 1_555 1_555
P1B C1B 1_555 1_555
N1B K1 1_555 1_555
N2B K1 1_555 1_555
O1B K1B 1_555 1_555
C1B N1B 1_555 1_555
C2B N1B 1_555 1_555
H1B C2B 1_555 1_555
C3B C2B 1_555 1_555
H2B C3B 1_555 1_555
H3B C3B 1_555 1_555
C4B C3B 1_555 1_555
H4B C4B 1_555 1_555
H5B C4B 1_555 1_555
C5B C4B 1_555 1_555
H6B C5B 1_555 1_555
H7B C5B 1_555 1_555
C6B C5B 1_555 1_555
H8B C6B 1_555 1_555
H9B C6B 1_555 1_555
C7B C2B 1_555 1_555
H10B C7B 1_555 1_555
H11B C7B 1_555 1_555
C8B N2B 1_555 1_555
H12B C8B 1_555 1_555
C9B C8B 1_555 1_555
H13B C9B 1_555 1_555
H14B C9B 1_555 1_555
C10B C9B 1_555 1_555
H15B C10B 1_555 1_555
H16B C10B 1_555 1_555
C11B C10B 1_555 1_555
H17B C11B 1_555 1_555
H18B C11B 1_555 1_555
C12B C11B 1_555 1_555
H19B C12B 1_555 1_555
H20B C12B 1_555 1_555
C13B C8B 1_555 1_555
H21B C13B 1_555 1_555
H22B C13B 1_555 1_555
C14B P1B 1_555 1_555
C15B C14B 1_555 1_555
H23B C15B 1_555 1_555
C16B C15B 1_555 1_555
H24B C16B 1_555 1_555
C17B C16B 1_555 1_555
H25B C17B 1_555 1_555
C18B C17B 1_555 1_555
H26B C18B 1_555 1_555
C19B C14B 1_555 1_555
H27B C19B 1_555 1_555
C20B P1B 1_555 1_555
C21B C20B 1_555 1_555
H28B C21B 1_555 1_555
C22B C21B 1_555 1_555
H29B C22B 1_555 1_555
C23B C22B 1_555 1_555
H30B C23B 1_555 1_555
C24B C23B 1_555 1_555
H31B C24B 1_555 1_555
C25B C20B 1_555 1_555
H32B C25B 1_555 1_555
C26B O1B 1_555 1_555
C27B C26B 1_555 1_555
C28B O1B 1_555 1_555
C29B C28B 1_555 1_555
N2 K1B 1_555 1_555
C6 C7 1_555 1_555
C12 C13 1_555 1_555
C18 C19 1_555 1_555
C24 C25 1_555 1_555
K1B N1B 1_555 1_555
K1B N2B 1_555 1_555
N2B C1B 1_555 1_555
C6B C7B 1_555 1_555
C12B C13B 1_555 1_555
C18B C19B 1_555 1_555
C24B C25B 1_555 1_555

#END
