
#######################################################################
#
#                 Cambridge Crystallographic Data Centre
#                                CCDC 
#
#######################################################################
#
# If this CIF has been generated from an entry in the Cambridge 
# Structural Database, then it will include bibliographic, chemical, 
# crystal, experimental, refinement or atomic coordinate data resulting 
# from the CCDC's data processing and validation procedures.
#
#######################################################################

data_QEPFUP
_chemical_formula_moiety         'C39 H43 N1 O4'
_chemical_name_systematic        
'N-[3-benzyl-4-(3,5-di-t-butyl-4-hydroxyphenyl)-6-methyl-2-oxo-3,4-dihydro-2H-1-benzopyran-3-yl]-4-methylbenzamide unknown solvate'
_symmetry_cell_setting           hexagonal
_symmetry_space_group_name_H-M   'P 65'
_symmetry_Int_Tables_number      170
_space_group_name_Hall           'P 65'
loop_
_symmetry_equiv_pos_site_id
_symmetry_equiv_pos_as_xyz
1 x,y,z
2 -y,x-y,2/3+z
3 -x+y,-x,1/3+z
4 -x,-y,1/2+z
5 y,-x+y,1/6+z
6 x-y,x,5/6+z
_cell_length_a                   15.64960(10)
_cell_length_b                   15.64960(10)
_cell_length_c                   28.7595(3)
_cell_angle_alpha                90
_cell_angle_beta                 90
_cell_angle_gamma                120
_cell_volume                     6099.84
_exptl_crystal_colour            colorless
_exptl_crystal_description       prism
_cell_formula_units_Z            6
loop_
_atom_site_label
_atom_site_type_symbol
_atom_site_fract_x
_atom_site_fract_y
_atom_site_fract_z
O1 O -0.05452(14) 0.28553(16) 0.43721(8)
O2 O 0.01674(18) 0.33116(16) 0.36936(8)
O3 O -0.02404(16) 0.12208(14) 0.37017(7)
O4 O 0.3829(2) 0.75779(15) 0.46907(11)
H1 H 0.364447 0.783738 0.449823
N1 N 0.05481(14) 0.17854(14) 0.43861(7)
H2 H 0.067(2) 0.161(2) 0.4663(13)
C1 C 0.0197(2) 0.30177(18) 0.40715(10)
C2 C 0.10027(16) 0.28350(16) 0.42629(9)
C3 C 0.13838(15) 0.34028(15) 0.47300(8)
H3 H 0.179168 0.316614 0.487732
C4 C 0.04955(16) 0.31015(16) 0.50437(9)
C5 C -0.04078(19) 0.28350(19) 0.48486(11)
C6 C -0.1237(2) 0.2551(3) 0.51240(15)
H4 H -0.184573 0.236191 0.498833
C7 C -0.1146(3) 0.2554(3) 0.55994(16)
H5 H -0.169475 0.238671 0.578477
C8 C -0.0261(3) 0.2800(3) 0.58065(13)
C9 C 0.0554(2) 0.3071(2) 0.55246(10)
H6 H 0.115560 0.323654 0.566133
C10 C -0.0178(4) 0.2751(5) 0.63229(16)
H7 H -0.013717 0.332699 0.646259
H8 H 0.040507 0.272140 0.639746
H9 H -0.074769 0.217191 0.643998
C11 C 0.00096(17) 0.10585(17) 0.40804(9)
C12 C 0.1803(2) 0.3127(2) 0.38890(10)
H10 H 0.213296 0.383559 0.384261
H11 H 0.149162 0.281372 0.359772
C13 C 0.20166(17) 0.45308(16) 0.46971(9)
C14 C 0.27972(18) 0.50041(17) 0.50032(9)
H12 H 0.293124 0.462665 0.520838
C15 C 0.3395(2) 0.60370(18) 0.50149(10)
C16 C 0.3186(2) 0.65750(19) 0.46954(12)
C17 C 0.2407(2) 0.61352(19) 0.43840(12)
C18 C 0.1823(2) 0.51043(18) 0.44013(12)
H13 H 0.128017 0.479476 0.420441
C19 C 0.4236(3) 0.6539(2) 0.53699(13)
C20 C 0.4097(7) 0.7278(4) 0.5661(2)
H14 H 0.403512 0.773222 0.545928
H15 H 0.465730 0.763433 0.586132
H16 H 0.351085 0.693080 0.584655
C21 C 0.4239(3) 0.5794(3) 0.57186(16)
H17 H 0.364690 0.551475 0.590138
H18 H 0.480240 0.612403 0.591929
H19 H 0.427015 0.527782 0.555243
C22 C 0.5232(4) 0.6989(5) 0.5110(2)
H20 H 0.526953 0.648034 0.494050
H21 H 0.576323 0.728100 0.533061
H22 H 0.528322 0.748576 0.489772
C23 C 0.2162(4) 0.6738(3) 0.40368(17)
C24 C 0.1942(5) 0.7448(4) 0.4293(3)
H23 H 0.142291 0.709090 0.451454
H24 H 0.173820 0.777607 0.407562
H25 H 0.252384 0.792748 0.445351
C25 C 0.3047(5) 0.7319(4) 0.37077(18)
H26 H 0.357318 0.785502 0.387456
H27 H 0.284862 0.757488 0.345202
H28 H 0.326954 0.688829 0.359169
C26 C 0.1303(7) 0.6057(4) 0.3716(4)
H29 H 0.141197 0.554643 0.359718
H30 H 0.126244 0.643373 0.346264
H31 H 0.069671 0.576486 0.388917
C27 C -0.0240(4) 0.0027(2) 0.42318(18)
C28 C -0.1170(3) -0.0762(3) 0.4129(2)
H32 H -0.163476 -0.065036 0.398270
C29 C -0.1404(4) -0.1717(3) 0.4246(3)
H33 H -0.202651 -0.224444 0.417711
C30 C -0.0709(5) -0.1883(2) 0.4465(3)
C31 C 0.0221(5) -0.1095(3) 0.4567(2)
H34 H 0.068622 -0.120611 0.471381
C32 C 0.0456(4) -0.0140(3) 0.4451(2)
H35 H 0.107799 0.038797 0.451940
C33 C -0.0990(10) -0.2931(5) 0.4616(6)
H36 H -0.083822 -0.292895 0.493941
H37 H -0.062496 -0.315569 0.443530
H38 H -0.168408 -0.336432 0.456766
C34 C 0.2578(4) 0.2834(5) 0.4015(3)
C35 C 0.3446(5) 0.3503(6) 0.4239(3)
H39 H 0.356047 0.412991 0.431275
C36 C 0.4143(5) 0.3233(8) 0.4353(3)
H40 H 0.472315 0.368053 0.450239
C37 C 0.3972(6) 0.2296(8) 0.4242(4)
H41 H 0.443771 0.211581 0.431827
C38 C 0.3104(6) 0.1628(5) 0.4018(5)
H42 H 0.298960 0.100046 0.394450
C39 C 0.2407(4) 0.1897(5) 0.3905(4)
H43 H 0.182691 0.144982 0.375485
H44? H 0.147956 0.292483 0.358898
H45? H 0.220274 0.384123 0.388531
C40? C -0.0392(6) 0.0011(3) 0.42280(17)
C41? C -0.0979(7) -0.0738(4) 0.39186(16)
H46? H -0.108081 -0.058257 0.361911
C42? C -0.1413(7) -0.1718(3) 0.4057(2)
H47? H -0.180524 -0.221932 0.384975
C43? C -0.1260(7) -0.1950(2) 0.4504(2)
C44? C -0.0674(7) -0.1201(3) 0.48137(18)
H48? H -0.057143 -0.135626 0.511317
C45? C -0.0239(6) -0.0221(3) 0.46755(18)
H49? H 0.015300 0.028050 0.488254
C46? C -0.1681(15) -0.3017(5) 0.4656(5)
H50? H -0.218793 -0.344302 0.444223
H51? H -0.195545 -0.310235 0.496205
H52? H -0.116518 -0.317964 0.465816
C47? C 0.2471(6) 0.2721(6) 0.3938(3)
C48? C 0.3195(7) 0.3068(8) 0.4280(3)
H53? H 0.325843 0.355822 0.448387
C49? C 0.3823(8) 0.2684(10) 0.4318(3)
H54? H 0.430740 0.291689 0.454661
C50? C 0.3728(9) 0.1952(9) 0.4013(5)
H55? H 0.414840 0.169508 0.403794
C51? C 0.3004(8) 0.1604(8) 0.3670(6)
H56? H 0.294044 0.111459 0.346651
C52? C 0.2376(6) 0.1989(7) 0.3633(4)
H57? H 0.189145 0.175590 0.340376
loop_
_geom_bond_atom_site_label_1
_geom_bond_atom_site_label_2
_geom_bond_site_symmetry_1
_geom_bond_site_symmetry_2
O1 C1 1_555 1_555
O2 C1 1_555 1_555
O3 C11 1_555 1_555
O4 H1 1_555 1_555
N1 H2 1_555 1_555
C1 C2 1_555 1_555
C2 N1 1_555 1_555
C3 C2 1_555 1_555
H3 C3 1_555 1_555
C4 C3 1_555 1_555
C5 O1 1_555 1_555
C6 C5 1_555 1_555
H4 C6 1_555 1_555
C7 C6 1_555 1_555
H5 C7 1_555 1_555
C8 C7 1_555 1_555
C9 C4 1_555 1_555
H6 C9 1_555 1_555
C10 C8 1_555 1_555
H7 C10 1_555 1_555
H8 C10 1_555 1_555
H9 C10 1_555 1_555
C11 N1 1_555 1_555
C12 C2 1_555 1_555
H10 C12 1_555 1_555
H11 C12 1_555 1_555
C13 C3 1_555 1_555
C14 C13 1_555 1_555
H12 C14 1_555 1_555
C15 C14 1_555 1_555
C16 O4 1_555 1_555
C17 C16 1_555 1_555
C18 C13 1_555 1_555
H13 C18 1_555 1_555
C19 C15 1_555 1_555
C20 C19 1_555 1_555
H14 C20 1_555 1_555
H15 C20 1_555 1_555
H16 C20 1_555 1_555
C21 C19 1_555 1_555
H17 C21 1_555 1_555
H18 C21 1_555 1_555
H19 C21 1_555 1_555
C22 C19 1_555 1_555
H20 C22 1_555 1_555
H21 C22 1_555 1_555
H22 C22 1_555 1_555
C23 C17 1_555 1_555
C24 C23 1_555 1_555
H23 C24 1_555 1_555
H24 C24 1_555 1_555
H25 C24 1_555 1_555
C25 C23 1_555 1_555
H26 C25 1_555 1_555
H27 C25 1_555 1_555
H28 C25 1_555 1_555
C26 C23 1_555 1_555
H29 C26 1_555 1_555
H30 C26 1_555 1_555
H31 C26 1_555 1_555
C27 C11 1_555 1_555
C28 C27 1_555 1_555
H32 C28 1_555 1_555
C29 C28 1_555 1_555
H33 C29 1_555 1_555
C30 C29 1_555 1_555
C31 C30 1_555 1_555
H34 C31 1_555 1_555
C32 C27 1_555 1_555
H35 C32 1_555 1_555
C33 C30 1_555 1_555
H36 C33 1_555 1_555
H37 C33 1_555 1_555
H38 C33 1_555 1_555
C34 C12 1_555 1_555
C35 C34 1_555 1_555
H39 C35 1_555 1_555
C36 C35 1_555 1_555
H40 C36 1_555 1_555
C37 C36 1_555 1_555
H41 C37 1_555 1_555
C38 C37 1_555 1_555
H42 C38 1_555 1_555
C39 C34 1_555 1_555
H43 C39 1_555 1_555
C4 C5 1_555 1_555
C8 C9 1_555 1_555
C15 C16 1_555 1_555
C17 C18 1_555 1_555
C31 C32 1_555 1_555
C38 C39 1_555 1_555

#END
