
#######################################################################
#
#                 Cambridge Crystallographic Data Centre
#                                CCDC 
#
#######################################################################
#
# If this CIF has been generated from an entry in the Cambridge 
# Structural Database, then it will include bibliographic, chemical, 
# crystal, experimental, refinement or atomic coordinate data resulting 
# from the CCDC's data processing and validation procedures.
#
#######################################################################

data_QEPGUQ
_chemical_formula_moiety         'C15 H22 Cl2 N2 O5'
_chemical_name_systematic        
'di-t-butyl 1,1-dichloro-5-oxo-4,6-diazaspiro[2.4]heptane-4,6-dicarboxylate'
_symmetry_cell_setting           monoclinic
_symmetry_space_group_name_H-M   'P 21/c'
_symmetry_Int_Tables_number      14
_space_group_name_Hall           '-P 2ybc'
loop_
_symmetry_equiv_pos_site_id
_symmetry_equiv_pos_as_xyz
1 x,y,z
2 -x,1/2+y,1/2-z
3 -x,-y,-z
4 x,1/2-y,1/2+z
_cell_length_a                   12.60521(6)
_cell_length_b                   10.85069(4)
_cell_length_c                   13.53848(7)
_cell_angle_alpha                90
_cell_angle_beta                 102.1911(5)
_cell_angle_gamma                90
_cell_volume                     1809.97
_exptl_crystal_colour            colorless
_exptl_crystal_description       block
_cell_formula_units_Z            4
loop_
_atom_site_label
_atom_site_type_symbol
_atom_site_fract_x
_atom_site_fract_y
_atom_site_fract_z
Cl1 Cl 0.49698(2) 0.36923(3) 0.58857(2)
Cl2 Cl 0.70239(3) 0.44621(3) 0.59238(3)
O1 O 0.34554(6) 0.32355(8) 0.19064(7)
O2 O 0.62843(7) 0.48694(8) 0.21355(7)
O3 O 0.80038(7) 0.36597(9) 0.28525(8)
O4 O 0.42375(8) 0.47534(10) 0.11557(9)
O5 O 0.81647(7) 0.27010(11) 0.44723(9)
N1 N 0.50411(8) 0.36745(9) 0.26600(8)
N2 N 0.66395(8) 0.34655(10) 0.35838(8)
C1 C 0.60188(9) 0.41080(11) 0.27004(9)
C2 C 0.60074(9) 0.29279(11) 0.42571(9)
C3 C 0.49971(9) 0.27432(11) 0.34911(9)
H1 H 0.4354 0.2891 0.3787
H2 H 0.4960 0.1893 0.3221
C4 C 0.42246(9) 0.39743(11) 0.18220(10)
C5 C 0.24832(9) 0.33132(12) 0.11037(11)
C6 C 0.63487(10) 0.20927(12) 0.52181(10)
H3 H 0.5830 0.1448 0.5329
H4 H 0.7121 0.1848 0.5415
C7 C 0.76757(10) 0.32338(12) 0.36999(11)
C8 C 0.60725(10) 0.33999(11) 0.54045(10)
C9 C 0.90869(9) 0.35460(12) 0.28089(11)
C10 C 0.20074(11) 0.45658(15) 0.11734(13)
H5 H 0.1946 0.4723 0.1872
H6 H 0.1286 0.4605 0.0729
H7 H 0.2479 0.5189 0.0965
C11 C 0.97364(11) 0.42229(15) 0.37594(13)
H8 H 0.9460 0.5065 0.3778
H9 H 1.0506 0.4251 0.3730
H10 H 0.9652 0.3780 0.4369
C12 C 0.91194(11) 0.41920(16) 0.17515(12)
H11 H 0.8692 0.3705 0.1198
H12 H 0.9872 0.4242 0.1670
H13 H 0.8814 0.5024 0.1740
C13 C 0.26333(11) 0.30464(16) -0.00340(12)
H14 H 0.3070 0.3704 -0.0245
H15 H 0.1920 0.3020 -0.0493
H16 H 0.3001 0.2254 -0.0053
C14 C 0.93715(12) 0.21982(14) 0.27738(17)
H17 H 0.9320 0.1805 0.3414
H18 H 1.0114 0.2116 0.2668
H19 H 0.8866 0.1798 0.2217
C15 C 0.18808(12) 0.23013(17) 0.14981(16)
H20 H 0.2267 0.1520 0.1480
H21 H 0.1148 0.2234 0.1077
H22 H 0.1832 0.2486 0.2196
loop_
_geom_bond_atom_site_label_1
_geom_bond_atom_site_label_2
_geom_bond_site_symmetry_1
_geom_bond_site_symmetry_2
Cl1 C8 1_555 1_555
Cl2 C8 1_555 1_555
O1 C4 1_555 1_555
O2 C1 1_555 1_555
O3 C7 1_555 1_555
O4 C4 1_555 1_555
O5 C7 1_555 1_555
N1 C1 1_555 1_555
N2 C1 1_555 1_555
C2 N2 1_555 1_555
C3 N1 1_555 1_555
H1 C3 1_555 1_555
H2 C3 1_555 1_555
C4 N1 1_555 1_555
C5 O1 1_555 1_555
C6 C2 1_555 1_555
H3 C6 1_555 1_555
H4 C6 1_555 1_555
C7 N2 1_555 1_555
C8 C2 1_555 1_555
C9 O3 1_555 1_555
C10 C5 1_555 1_555
H5 C10 1_555 1_555
H6 C10 1_555 1_555
H7 C10 1_555 1_555
C11 C9 1_555 1_555
H8 C11 1_555 1_555
H9 C11 1_555 1_555
H10 C11 1_555 1_555
C12 C9 1_555 1_555
H11 C12 1_555 1_555
H12 C12 1_555 1_555
H13 C12 1_555 1_555
C13 C5 1_555 1_555
H14 C13 1_555 1_555
H15 C13 1_555 1_555
H16 C13 1_555 1_555
C14 C9 1_555 1_555
H17 C14 1_555 1_555
H18 C14 1_555 1_555
H19 C14 1_555 1_555
C15 C5 1_555 1_555
H20 C15 1_555 1_555
H21 C15 1_555 1_555
H22 C15 1_555 1_555
C2 C3 1_555 1_555
C6 C8 1_555 1_555

#END
