
#######################################################################
#
#                 Cambridge Crystallographic Data Centre
#                                CCDC 
#
#######################################################################
#
# If this CIF has been generated from an entry in the Cambridge 
# Structural Database, then it will include bibliographic, chemical, 
# crystal, experimental, refinement or atomic coordinate data resulting 
# from the CCDC's data processing and validation procedures.
#
#######################################################################

data_QEPJAZ
_chemical_formula_moiety         'C29 H30 N2 O5'
_chemical_name_systematic        
2-(2-benzylidene-3-oxo-2,3-dihydro-4H-1,4-benzoxazin-4-yl)-N-t-butyl-2-(2,5-dimethoxyphenyl)acetamide
_symmetry_cell_setting           monoclinic
_symmetry_space_group_name_H-M   'P 21/c'
_symmetry_Int_Tables_number      14
_space_group_name_Hall           '-P 2ybc'
loop_
_symmetry_equiv_pos_site_id
_symmetry_equiv_pos_as_xyz
1 x,y,z
2 -x,1/2+y,1/2-z
3 -x,-y,-z
4 x,1/2-y,1/2+z
_cell_length_a                   22.0109(8)
_cell_length_b                   9.0540(3)
_cell_length_c                   26.4648(10)
_cell_angle_alpha                90
_cell_angle_beta                 97.775(2)
_cell_angle_gamma                90
_cell_volume                     5225.6
_exptl_crystal_colour            colorless
_exptl_crystal_description       block
_cell_formula_units_Z            8
loop_
_atom_site_label
_atom_site_type_symbol
_atom_site_fract_x
_atom_site_fract_y
_atom_site_fract_z
O1 O 0.41948(12) -0.0928(3) 0.36419(9)
O2 O 0.28228(11) -0.0523(3) 0.34912(9)
N1 N 0.33420(12) 0.0729(3) 0.41584(10)
O3 O 0.25808(11) -0.0531(3) 0.47974(9)
N2 N 0.39641(12) 0.0670(3) 0.29824(11)
H1 H 0.3832 0.1548 0.2909
O4 O 0.44477(13) 0.3921(3) 0.39116(12)
O5 O 0.20711(15) 0.4237(4) 0.29513(12)
C1 C 0.35035(16) 0.2848(4) 0.36093(13)
C2 C 0.37563(15) 0.1388(4) 0.38292(13)
H2 H 0.4125 0.1654 0.4062
C3 C 0.33638(15) 0.1229(4) 0.46662(12)
C4 C 0.39737(15) 0.0232(4) 0.34710(14)
C5 C 0.24608(15) -0.0796(4) 0.42836(13)
C6 C 0.14879(16) -0.2224(4) 0.43474(15)
C7 C 0.29106(17) 0.2953(4) 0.33640(14)
H3 H 0.2675 0.2105 0.3299
C8 C 0.37430(17) 0.2352(4) 0.48684(14)
H4 H 0.3999 0.2825 0.4667
C9 C 0.29807(15) 0.0568(4) 0.49755(13)
C10 C 0.28833(15) -0.0203(4) 0.39450(14)
C11 C 0.38596(19) 0.4119(4) 0.36865(15)
C12 C 0.19689(15) -0.1571(4) 0.40959(14)
H5 H 0.1926 -0.1719 0.3745
C13 C 0.41592(18) -0.0211(5) 0.25599(14)
C14 C 0.26667(19) 0.4315(5) 0.32143(15)
C15 C 0.37435(19) 0.2782(5) 0.53752(15)
H6 H 0.3999 0.3542 0.5510
C16 C 0.29861(18) 0.0981(5) 0.54752(14)
H7 H 0.2731 0.0512 0.5678
C17 C 0.3604(2) 0.5468(5) 0.35483(16)
H8 H 0.3837 0.6321 0.3613
C18 C 0.14918(19) -0.2284(5) 0.48678(17)
H9 H 0.1814 -0.1853 0.5081
C19 C 0.09971(18) -0.2884(5) 0.40436(18)
H10 H 0.0989 -0.2886 0.3691
C20 C 0.3004(2) 0.5579(5) 0.33142(16)
H11 H 0.2832 0.6498 0.3226
C21 C 0.3369(2) 0.2088(5) 0.56737(15)
H12 H 0.3376 0.2370 0.6012
C22 C 0.4020(2) 0.0718(5) 0.20856(15)
H13 H 0.3589 0.0924 0.2024
H14 H 0.4140 0.0192 0.1800
H15 H 0.4244 0.1629 0.2131
C23 C 0.3801(3) -0.1649(5) 0.25003(17)
H16 H 0.3882 -0.2213 0.2809
H17 H 0.3924 -0.2206 0.2223
H18 H 0.3370 -0.1437 0.2431
C24 C 0.0525(2) -0.3532(6) 0.4251(3)
H19 H 0.0197 -0.3951 0.4041
C25 C 0.1025(3) -0.2971(6) 0.5080(2)
H20 H 0.1041 -0.3036 0.5432
C26 C 0.1764(2) 0.5571(6) 0.2869(2)
H21 H 0.1363 0.5399 0.2687
H22 H 0.1989 0.6211 0.2673
H23 H 0.1727 0.6027 0.3191
C27 C 0.4849(2) -0.0484(7) 0.26756(19)
H24 H 0.5059 0.0443 0.2729
H25 H 0.4987 -0.0990 0.2394
H26 H 0.4933 -0.1079 0.2977
C28 C 0.4825(2) 0.5138(6) 0.4032(3)
H27 H 0.4865 0.5681 0.3727
H28 H 0.5222 0.4810 0.4186
H29 H 0.4649 0.5763 0.4266
C29 C 0.0536(3) -0.3561(7) 0.4762(3)
H30 H 0.0211 -0.3982 0.4902
O6 O 0.25507(11) 0.5264(3) 0.52087(9)
O7 O 0.23008(11) 0.4859(3) 0.65075(10)
O8 O 0.09268(13) 0.5368(3) 0.63279(10)
N3 N 0.17859(12) 0.3781(3) 0.57959(11)
N4 N 0.11152(13) 0.3671(3) 0.69526(12)
H31 H 0.1258 0.2796 0.7016
O9 O 0.28869(16) -0.0530(4) 0.69245(12)
O10 O 0.05637(15) 0.0754(4) 0.59671(15)
C30 C 0.26408(15) 0.5465(4) 0.57275(13)
C31 C 0.13490(16) 0.3085(4) 0.60936(14)
H32 H 0.0985 0.2894 0.5845
C32 C 0.22338(16) 0.4689(4) 0.60452(14)
C33 C 0.17663(16) 0.3466(4) 0.52733(14)
C34 C 0.30814(15) 0.6352(4) 0.59350(13)
H33 H 0.3092 0.6493 0.6284
C35 C 0.15533(17) 0.1567(4) 0.62956(15)
C36 C 0.35547(15) 0.7148(4) 0.57083(14)
C37 C 0.21459(16) 0.4214(4) 0.49903(14)
C38 C 0.21421(18) 0.1270(5) 0.65341(14)
H34 H 0.2422 0.2038 0.6598
C39 C 0.11259(17) 0.4179(5) 0.64799(15)
C40 C 0.0882(2) 0.4458(5) 0.73811(15)
C41 C 0.13799(18) 0.2389(5) 0.50256(16)
H35 H 0.1121 0.1847 0.5205
C42 C 0.1139(2) 0.0402(5) 0.62059(17)
C43 C 0.39524(18) 0.8037(5) 0.60277(17)
H36 H 0.3900 0.8109 0.6370
C44 C 0.1385(2) 0.2137(6) 0.45127(17)
H37 H 0.1124 0.1426 0.4349
C45 C 0.2314(2) -0.0127(5) 0.66756(16)
C46 C 0.1903(2) -0.1270(5) 0.65715(16)
H38 H 0.2031 -0.2228 0.6655
C47 C 0.36373(18) 0.7065(5) 0.51971(16)
H39 H 0.3377 0.6487 0.4972
C48 C 0.1320(2) -0.1044(5) 0.63518(18)
H40 H 0.1045 -0.1825 0.6298
C49 C 0.1764(2) 0.2904(6) 0.42369(17)
H41 H 0.1763 0.2710 0.3892
C50 C 0.4416(2) 0.8807(6) 0.5858(3)
H42 H 0.4675 0.9396 0.6080
C51 C 0.21435(19) 0.3956(5) 0.44762(15)
H43 H 0.2400 0.4496 0.4293
C52 C 0.3307(2) 0.0591(6) 0.70674(18)
H44 H 0.3472 0.0945 0.6772
H45 H 0.3633 0.0215 0.7311
H46 H 0.3106 0.1387 0.7218
C53 C 0.4116(2) 0.7861(6) 0.5023(2)
H47 H 0.4175 0.7819 0.4682
C54 C 0.4496(2) 0.8705(7) 0.5364(3)
H48 H 0.4816 0.9220 0.5249
C55 C 0.0971(2) 0.3464(6) 0.78349(18)
H49 H 0.0739 0.2574 0.7761
H50 H 0.0834 0.3954 0.8120
H51 H 0.1398 0.3223 0.7916
C56 C 0.0208(2) 0.4767(7) 0.7243(2)
H52 H 0.0149 0.5460 0.6966
H53 H 0.0048 0.5173 0.7533
H54 H -0.0003 0.3864 0.7141
C57 C 0.0115(2) -0.0367(7) 0.5894(3)
H55 H 0.0227 -0.1076 0.5653
H56 H -0.0275 0.0061 0.5767
H57 H 0.0087 -0.0848 0.6214
C58 C 0.1238(3) 0.5881(7) 0.7496(2)
H58 H 0.1669 0.5670 0.7551
H59 H 0.1118 0.6330 0.7796
H60 H 0.1151 0.6545 0.7212
loop_
_geom_bond_atom_site_label_1
_geom_bond_atom_site_label_2
_geom_bond_site_symmetry_1
_geom_bond_site_symmetry_2
O1 C4 1_555 1_555
O2 C10 1_555 1_555
N1 C2 1_555 1_555
O3 C5 1_555 1_555
N2 H1 1_555 1_555
O4 C11 1_555 1_555
O5 C14 1_555 1_555
C1 C2 1_555 1_555
C2 H2 1_555 1_555
C3 N1 1_555 1_555
C4 N2 1_555 1_555
C5 C10 1_555 1_555
C6 C12 1_555 1_555
C7 C1 1_555 1_555
H3 C7 1_555 1_555
C8 C3 1_555 1_555
H4 C8 1_555 1_555
C9 O3 1_555 1_555
C10 N1 1_555 1_555
C11 C1 1_555 1_555
C12 C5 1_555 1_555
H5 C12 1_555 1_555
C13 N2 1_555 1_555
C14 C7 1_555 1_555
C15 C8 1_555 1_555
H6 C15 1_555 1_555
C16 C9 1_555 1_555
H7 C16 1_555 1_555
C17 C11 1_555 1_555
H8 C17 1_555 1_555
C18 C6 1_555 1_555
H9 C18 1_555 1_555
C19 C6 1_555 1_555
H10 C19 1_555 1_555
C20 C14 1_555 1_555
H11 C20 1_555 1_555
C21 C15 1_555 1_555
H12 C21 1_555 1_555
C22 C13 1_555 1_555
H13 C22 1_555 1_555
H14 C22 1_555 1_555
H15 C22 1_555 1_555
C23 C13 1_555 1_555
H16 C23 1_555 1_555
H17 C23 1_555 1_555
H18 C23 1_555 1_555
C24 C19 1_555 1_555
H19 C24 1_555 1_555
C25 C18 1_555 1_555
H20 C25 1_555 1_555
C26 O5 1_555 1_555
H21 C26 1_555 1_555
H22 C26 1_555 1_555
H23 C26 1_555 1_555
C27 C13 1_555 1_555
H24 C27 1_555 1_555
H25 C27 1_555 1_555
H26 C27 1_555 1_555
C28 O4 1_555 1_555
H27 C28 1_555 1_555
H28 C28 1_555 1_555
H29 C28 1_555 1_555
C29 C24 1_555 1_555
H30 C29 1_555 1_555
O6 C30 1_555 1_555
O7 C32 1_555 1_555
O8 C39 1_555 1_555
N3 C31 1_555 1_555
N4 H31 1_555 1_555
O9 C45 1_555 1_555
O10 C42 1_555 1_555
C30 C32 1_555 1_555
C31 H32 1_555 1_555
C32 N3 1_555 1_555
C33 N3 1_555 1_555
C34 C30 1_555 1_555
H33 C34 1_555 1_555
C35 C31 1_555 1_555
C36 C34 1_555 1_555
C37 O6 1_555 1_555
C38 C35 1_555 1_555
H34 C38 1_555 1_555
C39 N4 1_555 1_555
C40 N4 1_555 1_555
C41 C33 1_555 1_555
H35 C41 1_555 1_555
C42 C35 1_555 1_555
C43 C36 1_555 1_555
H36 C43 1_555 1_555
C44 C41 1_555 1_555
H37 C44 1_555 1_555
C45 C38 1_555 1_555
C46 C45 1_555 1_555
H38 C46 1_555 1_555
C47 C36 1_555 1_555
H39 C47 1_555 1_555
C48 C42 1_555 1_555
H40 C48 1_555 1_555
C49 C44 1_555 1_555
H41 C49 1_555 1_555
C50 C43 1_555 1_555
H42 C50 1_555 1_555
C51 C37 1_555 1_555
H43 C51 1_555 1_555
C52 O9 1_555 1_555
H44 C52 1_555 1_555
H45 C52 1_555 1_555
H46 C52 1_555 1_555
C53 C47 1_555 1_555
H47 C53 1_555 1_555
C54 C50 1_555 1_555
H48 C54 1_555 1_555
C55 C40 1_555 1_555
H49 C55 1_555 1_555
H50 C55 1_555 1_555
H51 C55 1_555 1_555
C56 C40 1_555 1_555
H52 C56 1_555 1_555
H53 C56 1_555 1_555
H54 C56 1_555 1_555
C57 O10 1_555 1_555
H55 C57 1_555 1_555
H56 C57 1_555 1_555
H57 C57 1_555 1_555
C58 C40 1_555 1_555
H58 C58 1_555 1_555
H59 C58 1_555 1_555
H60 C58 1_555 1_555
C2 C4 1_555 1_555
C3 C9 1_555 1_555
C16 C21 1_555 1_555
C17 C20 1_555 1_555
C25 C29 1_555 1_555
C31 C39 1_555 1_555
C33 C37 1_555 1_555
C46 C48 1_555 1_555
C49 C51 1_555 1_555
C53 C54 1_555 1_555

#END
