
#######################################################################
#
#                 Cambridge Crystallographic Data Centre
#                                CCDC 
#
#######################################################################
#
# If this CIF has been generated from an entry in the Cambridge 
# Structural Database, then it will include bibliographic, chemical, 
# crystal, experimental, refinement or atomic coordinate data resulting 
# from the CCDC's data processing and validation procedures.
#
#######################################################################

data_QEPLAZ
_chemical_formula_moiety         'C14 H8 S4'
_chemical_name_systematic        2-(2,2'-bithenyl-5-yl)thieno[3,2-b]thiophene
_symmetry_cell_setting           monoclinic
_symmetry_space_group_name_H-M   'P 21'
_symmetry_Int_Tables_number      4
_space_group_name_Hall           'P 2yb'
loop_
_symmetry_equiv_pos_site_id
_symmetry_equiv_pos_as_xyz
1 x,y,z
2 -x,1/2+y,-z
_cell_length_a                   7.4265(11)
_cell_length_b                   5.7172(8)
_cell_length_c                   14.840(2)
_cell_angle_alpha                90
_cell_angle_beta                 102.336(2)
_cell_angle_gamma                90
_cell_volume                     615.541
_exptl_crystal_colour            yellow
_exptl_crystal_description       plate
_cell_formula_units_Z            2
loop_
_atom_site_label
_atom_site_type_symbol
_atom_site_fract_x
_atom_site_fract_y
_atom_site_fract_z
S1 S 0.9533(4) 0.1296(5) 0.3419(2)
S2 S 0.7056(5) 0.3589(6) 0.0613(2)
S3 S 0.7751(5) -0.0015(7) -0.1887(2)
S4 S 0.5369(4) 0.5511(5) -0.3492(2)
C4 C 0.9023(15) 0.330(2) 0.4165(7)
H4 H 0.9402 0.3188 0.4817
C5 C 0.7987(13) 0.511(2) 0.3709(7)
H5 H 0.7640 0.6426 0.4025
C6 C 0.7483(13) 0.4890(19) 0.2752(7)
H6 H 0.6730 0.5947 0.2343
C7 C 0.8299(17) 0.279(2) 0.2494(8)
C8 C 0.8133(16) 0.192(2) 0.1545(8)
C9 C 0.8766(16) -0.016(2) 0.1274(8)
H7 H 0.9364 -0.1322 0.1688
C10 C 0.8409(15) -0.036(2) 0.0275(8)
H8 H 0.8770 -0.1673 -0.0038
C11 C 0.7496(15) 0.154(2) -0.0170(8)
C12 C 0.7059(16) 0.197(2) -0.1151(9)
C13 C 0.6219(15) 0.406(2) -0.1573(7)
H9 H 0.5748 0.5335 -0.1281
C14 C 0.6245(15) 0.381(2) -0.2563(7)
C15 C 0.7012(15) 0.178(2) -0.2811(7)
C16 C 0.6967(11) 0.1561(18) -0.3760(6)
H10 H 0.7463 0.0308 -0.4050
C17 C 0.6043(14) 0.356(2) -0.4201(7)
H11 H 0.5822 0.3781 -0.4850
C1? C 0.9533(4) 0.1296(5) 0.3419(2)
H1? H 1.0232 -0.0109 0.3488
C2? C 0.7751(5) -0.0015(7) -0.1887(2)
H2? H 0.8318 -0.1512 -0.1808
C3? C 0.5369(4) 0.5511(5) -0.3492(2)
H3? H 0.4749 0.6974 -0.3577
S5? S 0.7483(13) 0.4890(19) 0.2752(7)
S6? S 0.6219(15) 0.406(2) -0.1573(7)
S7? S 0.6967(11) 0.1561(18) -0.3760(6)
loop_
_geom_bond_atom_site_label_1
_geom_bond_atom_site_label_2
_geom_bond_site_symmetry_1
_geom_bond_site_symmetry_2
S1 C4 1_555 1_555
S2 C8 1_555 1_555
S3 C12 1_555 1_555
S4 C14 1_555 1_555
C4 H4 1_555 1_555
C5 C4 1_555 1_555
H5 C5 1_555 1_555
C6 C5 1_555 1_555
H6 C6 1_555 1_555
C7 S1 1_555 1_555
C8 C7 1_555 1_555
C9 C8 1_555 1_555
H7 C9 1_555 1_555
C10 C9 1_555 1_555
H8 C10 1_555 1_555
C11 S2 1_555 1_555
C12 C11 1_555 1_555
C13 C12 1_555 1_555
H9 C13 1_555 1_555
C14 C13 1_555 1_555
C15 S3 1_555 1_555
C16 C15 1_555 1_555
H10 C16 1_555 1_555
C17 S4 1_555 1_555
H11 C17 1_555 1_555
C6 C7 1_555 1_555
C10 C11 1_555 1_555
C14 C15 1_555 1_555
C16 C17 1_555 1_555

#END
