
#######################################################################
#
#                 Cambridge Crystallographic Data Centre
#                                CCDC 
#
#######################################################################
#
# If this CIF has been generated from an entry in the Cambridge 
# Structural Database, then it will include bibliographic, chemical, 
# crystal, experimental, refinement or atomic coordinate data resulting 
# from the CCDC's data processing and validation procedures.
#
#######################################################################

data_QEPMAC
_chemical_formula_moiety         'C23 H32 N2 O6,0.5(C1 H1 Cl3)'
_chemical_name_systematic        
't-butyl [3-t-butoxy-2-(2-oxo-4-phenyl-1,3-oxazolidine-3-carbonyl)cyclobutyl]carbamate chloroform solvate'
_symmetry_cell_setting           monoclinic
_symmetry_space_group_name_H-M   'P 21'
_symmetry_Int_Tables_number      4
_space_group_name_Hall           'P 2yb'
loop_
_symmetry_equiv_pos_site_id
_symmetry_equiv_pos_as_xyz
1 x,y,z
2 -x,1/2+y,-z
_cell_length_a                   10.2216(5)
_cell_length_b                   19.0596(8)
_cell_length_c                   14.1017(6)
_cell_angle_alpha                90
_cell_angle_beta                 111.156(2)
_cell_angle_gamma                90
_cell_volume                     2562.12
_exptl_crystal_colour            colorless
_exptl_crystal_description       plate
_cell_formula_units_Z            4
loop_
_atom_site_label
_atom_site_type_symbol
_atom_site_fract_x
_atom_site_fract_y
_atom_site_fract_z
O1 O 0.7752(5) 0.2614(3) 0.5278(4)
O2 O 1.0102(5) 0.3802(2) 0.3725(4)
O3 O 0.7241(6) 0.3747(3) 0.5237(4)
O4 O 1.0422(6) 0.4063(3) 0.6135(4)
N1 N 0.8636(5) 0.3303(3) 0.4383(4)
O5 O 1.0269(8) 0.5753(3) 0.2018(5)
O6 O 0.9143(7) 0.6340(3) 0.2876(4)
C1 C 0.7824(7) 0.3282(4) 0.4997(5)
N2 N 1.0030(9) 0.5256(3) 0.3361(6)
H1 H 1.042662 0.488964 0.319624
C2 C 0.9284(7) 0.3887(4) 0.4152(5)
C3 C 0.8280(7) 0.2359(4) 0.3089(5)
C4 C 0.9020(6) 0.2586(3) 0.4182(5)
H2 H 1.005832 0.255802 0.435752
C5 C 0.9741(8) 0.5824(3) 0.2754(5)
C6 C 0.9708(12) 0.5232(4) 0.4271(8)
H3 H 0.916087 0.566153 0.429697
C7 C 0.8948(9) 0.4578(4) 0.4501(6)
H4 H 0.792451 0.465227 0.435214
C8 C 0.7048(8) 0.2677(5) 0.2461(6)
H5 H 0.664328 0.305577 0.269714
C9 C 0.8619(8) 0.2168(4) 0.4946(5)
H6 H 0.810276 0.173848 0.462698
H7 H 0.946701 0.202974 0.552744
C10 C 0.6422(10) 0.2421(7) 0.1464(6)
H8 H 0.558664 0.263241 0.101532
C11 C 1.0128(10) 0.6310(4) 0.1261(7)
C12 C 1.0878(16) 0.5146(5) 0.5280(9)
H9 H 1.116930 0.558988 0.566332
H10 H 1.169858 0.488780 0.524322
C13 C 0.9881(11) 0.4690(4) 0.5636(7)
H11 H 0.939417 0.497158 0.600763
C14 C 1.1000(13) 0.4050(5) 0.7249(7)
C15 C 0.8851(9) 0.1806(4) 0.2734(6)
H12 H 0.969113 0.158889 0.316623
C16 C 0.7007(12) 0.1867(7) 0.1131(6)
H13 H 0.656227 0.169613 0.045728
C17 C 0.8187(12) 0.1568(6) 0.1740(6)
H14 H 0.858045 0.118913 0.149612
C18 C 0.8634(13) 0.6437(7) 0.0653(7)
H15 H 0.814010 0.657245 0.110517
H16 H 0.821409 0.600830 0.028548
H17 H 0.855652 0.681546 0.016494
C19 C 1.0829(12) 0.6962(5) 0.1783(8)
H18 H 1.179936 0.685523 0.221623
H19 H 1.032404 0.714623 0.220254
H20 H 1.082553 0.731274 0.127434
C20 C 1.1581(18) 0.3366(8) 0.7525(9)
H21 H 1.257211 0.340621 0.796092
H22 H 1.150044 0.310211 0.690977
H23 H 1.106967 0.311946 0.789368
C21 C 1.094(3) 0.6017(7) 0.0671(17)
H24 H 1.180465 0.580310 0.113648
H25 H 1.117499 0.639408 0.028715
H26 H 1.037709 0.566063 0.019775
C22 C 0.980(2) 0.4110(13) 0.7612(10)
H27 H 0.900757 0.433762 0.708720
H28 H 1.008715 0.439015 0.823580
H29 H 0.952123 0.364026 0.774971
C23 C 1.211(4) 0.4554(15) 0.7576(14)
H30 H 1.284105 0.439041 0.820520
H31 H 1.174570 0.500543 0.769809
H32 H 1.251960 0.460957 0.704736
O7 O 0.3629(4) 0.6205(2) 0.3731(4)
O8 O 0.7520(5) 0.7394(3) 0.5253(4)
N3 N 0.5750(5) 0.6711(3) 0.4381(4)
O9 O 0.1754(6) 0.4253(3) 0.2061(5)
O10 O 0.7995(5) 0.6259(3) 0.5220(4)
O11 O 0.3755(7) 0.3671(3) 0.2872(4)
O12 O 0.5726(6) 0.5935(3) 0.6137(4)
C24 C 0.5163(6) 0.7420(3) 0.4176(5)
H33 H 0.430006 0.744341 0.435225
C25 C 0.4801(6) 0.7642(3) 0.3084(5)
C26 C 0.4873(6) 0.6118(4) 0.4155(5)
C27 C 0.7163(7) 0.6739(4) 0.4972(6)
C28 C 0.3019(7) 0.4175(4) 0.2752(6)
C29 C 0.6314(8) 0.7844(4) 0.4941(6)
H34 H 0.650065 0.827855 0.462640
H35 H 0.605092 0.797284 0.552881
C30 C 0.5562(7) 0.5435(4) 0.4489(6)
H36 H 0.643422 0.536749 0.433460
C31 C 0.3872(8) 0.8189(4) 0.2720(6)
H37 H 0.345274 0.840095 0.314977
N4 N 0.3344(7) 0.4749(3) 0.3360(7)
H38 H 0.278012 0.511415 0.319896
C32 C 0.1130(9) 0.3687(4) 0.1268(7)
C33 C 0.5404(8) 0.7337(5) 0.2450(6)
H39 H 0.606403 0.696680 0.269060
C34 C 0.5033(11) 0.7580(7) 0.1454(7)
H40 H 0.541819 0.736327 0.100689
C35 C 0.4585(10) 0.4775(4) 0.4262(8)
H41 H 0.516336 0.434815 0.428418
C36 C 0.3545(11) 0.8432(5) 0.1749(6)
H42 H 0.291565 0.881545 0.151563
C37 C 0.5772(10) 0.5317(4) 0.5630(7)
H43 H 0.663283 0.503634 0.599500
C38 C 0.0985(14) 0.3039(5) 0.1806(8)
H44 H 0.042720 0.269377 0.130931
H45 H 0.051632 0.315096 0.228259
H46 H 0.191726 0.284458 0.218051
C39 C 0.632(3) 0.5965(7) 0.7175(16)
C40 C 0.4113(11) 0.8129(6) 0.1118(7)
H47 H 0.387534 0.829723 0.044209
C41 C 0.2010(14) 0.3578(7) 0.0652(7)
H48 H 0.233207 0.403239 0.049653
H49 H 0.145986 0.333938 0.001749
H50 H 0.282232 0.328841 0.103336
C42 C 0.4424(15) 0.4859(6) 0.5285(9)
H51 H 0.452212 0.441492 0.566869
H52 H 0.356700 0.511560 0.525233
C43 C 0.594(5) 0.6604(17) 0.7473(17)
H53 H 0.646650 0.698166 0.730477
H54 H 0.614915 0.659875 0.820868
H55 H 0.493109 0.668131 0.711708
C44 C -0.0266(15) 0.3998(8) 0.0686(16)
H56 H -0.083829 0.365452 0.019296
H57 H -0.014153 0.441754 0.032518
H58 H -0.073595 0.412674 0.115555
C45 C 0.795(2) 0.6078(14) 0.7510(14)
H59 H 0.829343 0.583414 0.703488
H60 H 0.841755 0.588954 0.819661
H61 H 0.815025 0.658060 0.750794
C46 C 0.610(6) 0.5227(11) 0.768(2)
H62 H 0.510000 0.510025 0.741077
H63 H 0.641437 0.527806 0.841846
H64 H 0.664206 0.485801 0.750752
Cl1 Cl 0.7093(8) 0.4743(8) 0.1976(9)
Cl2 Cl 0.5091(14) 0.4619(7) 0.0208(6)
Cl3 Cl 0.511(3) 0.5670(6) 0.1625(8)
C51 C 0.539(3) 0.4833(13) 0.1468(15)
C47? C 0.511(4) 0.5590(13) 0.757(3)
H65? H 0.526491 0.508166 0.760928
H66? H 0.422718 0.569853 0.702056
H67? H 0.507732 0.575937 0.821808
C48? C 0.762(4) 0.5644(16) 0.7720(19)
H68? H 0.810549 0.574492 0.844492
H69? H 0.811550 0.587618 0.732667
H70? H 0.761155 0.513619 0.760896
C49? C 0.580(7) 0.6784(19) 0.748(5)
H71? H 0.478826 0.686122 0.715835
H72? H 0.629352 0.706850 0.713501
H73? H 0.611212 0.692059 0.819790
C50? C 0.617(6) 0.591(5) 0.739(3)
Cl4? Cl 0.5129(12) 0.5401(6) 0.0221(6)
Cl5? Cl 0.5000(12) 0.5199(7) 0.2068(8)
Cl6? Cl 0.613(3) 0.4328(7) 0.1736(14)
C52? C 0.616(3) 0.5263(19) 0.157(3)
loop_
_geom_bond_atom_site_label_1
_geom_bond_atom_site_label_2
_geom_bond_site_symmetry_1
_geom_bond_site_symmetry_2
O1 C1 1_555 1_555
O2 C2 1_555 1_555
O3 C1 1_555 1_555
O4 C13 1_555 1_555
N1 C1 1_555 1_555
O5 C5 1_555 1_555
O6 C5 1_555 1_555
N2 H1 1_555 1_555
C2 N1 1_555 1_555
C3 C4 1_555 1_555
C4 N1 1_555 1_555
H2 C4 1_555 1_555
C5 N2 1_555 1_555
C6 N2 1_555 1_555
H3 C6 1_555 1_555
C7 C2 1_555 1_555
H4 C7 1_555 1_555
C8 C3 1_555 1_555
H5 C8 1_555 1_555
C9 O1 1_555 1_555
H6 C9 1_555 1_555
H7 C9 1_555 1_555
C10 C8 1_555 1_555
H8 C10 1_555 1_555
C11 O5 1_555 1_555
C12 C6 1_555 1_555
H9 C12 1_555 1_555
H10 C12 1_555 1_555
C13 C7 1_555 1_555
H11 C13 1_555 1_555
C14 O4 1_555 1_555
C15 C3 1_555 1_555
H12 C15 1_555 1_555
C16 C10 1_555 1_555
H13 C16 1_555 1_555
C17 C15 1_555 1_555
H14 C17 1_555 1_555
C18 C11 1_555 1_555
H15 C18 1_555 1_555
H16 C18 1_555 1_555
H17 C18 1_555 1_555
C19 C11 1_555 1_555
H18 C19 1_555 1_555
H19 C19 1_555 1_555
H20 C19 1_555 1_555
C20 C14 1_555 1_555
H21 C20 1_555 1_555
H22 C20 1_555 1_555
H23 C20 1_555 1_555
C21 C11 1_555 1_555
H24 C21 1_555 1_555
H25 C21 1_555 1_555
H26 C21 1_555 1_555
C22 C14 1_555 1_555
H27 C22 1_555 1_555
H28 C22 1_555 1_555
H29 C22 1_555 1_555
C23 C14 1_555 1_555
H30 C23 1_555 1_555
H31 C23 1_555 1_555
H32 C23 1_555 1_555
O7 C26 1_555 1_555
O8 C27 1_555 1_555
N3 C24 1_555 1_555
O9 C28 1_555 1_555
O10 C27 1_555 1_555
O11 C28 1_555 1_555
O12 C37 1_555 1_555
C24 H33 1_555 1_555
C25 C24 1_555 1_555
C26 N3 1_555 1_555
C27 N3 1_555 1_555
C28 N4 1_555 1_555
C29 O8 1_555 1_555
H34 C29 1_555 1_555
H35 C29 1_555 1_555
C30 C26 1_555 1_555
H36 C30 1_555 1_555
C31 C25 1_555 1_555
H37 C31 1_555 1_555
N4 H38 1_555 1_555
C32 O9 1_555 1_555
C33 C25 1_555 1_555
H39 C33 1_555 1_555
C34 C33 1_555 1_555
H40 C34 1_555 1_555
C35 C30 1_555 1_555
H41 C35 1_555 1_555
C36 C31 1_555 1_555
H42 C36 1_555 1_555
C37 C30 1_555 1_555
H43 C37 1_555 1_555
C38 C32 1_555 1_555
H44 C38 1_555 1_555
H45 C38 1_555 1_555
H46 C38 1_555 1_555
C39 O12 1_555 1_555
C40 C34 1_555 1_555
H47 C40 1_555 1_555
C41 C32 1_555 1_555
H48 C41 1_555 1_555
H49 C41 1_555 1_555
H50 C41 1_555 1_555
C42 C35 1_555 1_555
H51 C42 1_555 1_555
H52 C42 1_555 1_555
C43 C39 1_555 1_555
H53 C43 1_555 1_555
H54 C43 1_555 1_555
H55 C43 1_555 1_555
C44 C32 1_555 1_555
H56 C44 1_555 1_555
H57 C44 1_555 1_555
H58 C44 1_555 1_555
C45 C39 1_555 1_555
H59 C45 1_555 1_555
H60 C45 1_555 1_555
H61 C45 1_555 1_555
C46 C39 1_555 1_555
H62 C46 1_555 1_555
H63 C46 1_555 1_555
H64 C46 1_555 1_555
Cl1 C51 1_555 1_555
Cl2 C51 1_555 1_555
Cl3 C51 1_555 1_555
C4 C9 1_555 1_555
C6 C7 1_555 1_555
C12 C13 1_555 1_555
C16 C17 1_555 1_555
C24 C29 1_555 1_555
N4 C35 1_555 1_555
C36 C40 1_555 1_555
C37 C42 1_555 1_555

#END
