
#######################################################################
#
#                 Cambridge Crystallographic Data Centre
#                                CCDC 
#
#######################################################################
#
# If this CIF has been generated from an entry in the Cambridge 
# Structural Database, then it will include bibliographic, chemical, 
# crystal, experimental, refinement or atomic coordinate data resulting 
# from the CCDC's data processing and validation procedures.
#
#######################################################################

data_QEPRIP
_chemical_formula_moiety         'C9 H14 N3 O3 1+,C5 H3 O2 S1 1-'
_chemical_name_systematic        
'2-[(2-methoxy-4-nitrophenyl)amino]ethan-1-aminium thiophene-3-carboxylate'
_symmetry_cell_setting           orthorhombic
_symmetry_space_group_name_H-M   'P 21 21 21'
_symmetry_Int_Tables_number      19
_space_group_name_Hall           'P 2ac 2ab'
loop_
_symmetry_equiv_pos_site_id
_symmetry_equiv_pos_as_xyz
1 x,y,z
2 1/2-x,-y,1/2+z
3 -x,1/2+y,1/2-z
4 1/2+x,1/2-y,-z
_cell_length_a                   6.16548(3)
_cell_length_b                   14.12385(7)
_cell_length_c                   18.17780(9)
_cell_angle_alpha                90
_cell_angle_beta                 90
_cell_angle_gamma                90
_cell_volume                     1582.93
_exptl_crystal_colour            yellow
_exptl_crystal_description       block
_cell_formula_units_Z            4
_exptl_crystal_recrystallization_method 'dry ethyl acetate'
_exptl_crystal_preparation       'SHG active compound'
loop_
_atom_site_label
_atom_site_type_symbol
_atom_site_fract_x
_atom_site_fract_y
_atom_site_fract_z
S1 S 0.37131(16) 0.08564(7) 0.69179(6)
O1 O 0.1017(3) -0.14007(13) 0.54009(12)
O2 O -0.2086(3) -0.06137(15) 0.55124(12)
C1 C -0.0109(4) -0.07285(16) 0.56393(12)
C2 C 0.0947(4) -0.00151(15) 0.61265(13)
C3 C -0.0161(5) 0.0763(2) 0.64419(16)
H1 H -0.1616 0.0896 0.6354
C4 C 0.1206(5) 0.13317(19) 0.69152(16)
H2 H 0.0774 0.1868 0.7174
C5 C 0.3073(5) -0.0045(2) 0.63394(16)
H3 H 0.4052 -0.0505 0.6186
O3 O 0.4786(3) 0.36667(14) 0.54464(10)
O4 O 0.7579(5) 0.2441(3) 0.78448(16)
O5 O 0.4960(4) 0.26364(19) 0.86086(12)
N1 N 0.0045(4) 0.66764(16) 0.52668(15)
H4 H 0.127(7) 0.644(3) 0.504(2)
H5 H 0.040(6) 0.730(3) 0.5335(18)
H6 H -0.115(7) 0.660(3) 0.503(2)
N2 N 0.1193(4) 0.45833(17) 0.57669(14)
H7 H 0.175(6) 0.467(3) 0.5363(19)
N3 N 0.5772(5) 0.27345(18) 0.79981(14)
C6 C -0.0415(5) 0.6187(2) 0.59692(16)
H8 H -0.1696 0.6463 0.6193
H9 H 0.0793 0.6280 0.6303
C7 C -0.0775(4) 0.51398(19) 0.58564(17)
H10 H -0.1573 0.4895 0.6275
H11 H -0.1675 0.5053 0.5424
C8 C 0.2272(4) 0.41608(18) 0.63359(14)
C9 C 0.4226(4) 0.36627(17) 0.61721(14)
C10 C 0.5378(4) 0.32193(18) 0.67161(15)
H12 H 0.6677 0.2915 0.6609
C11 C 0.4578(4) 0.32298(18) 0.74318(15)
C12 C 0.2679(5) 0.3685(2) 0.76104(15)
H13 H 0.2158 0.3674 0.8090
C13 C 0.1549(5) 0.4162(2) 0.70619(15)
H14 H 0.0287 0.4489 0.7182
C14 C 0.6523(5) 0.3059(2) 0.52287(17)
H15 H 0.7848 0.3271 0.5451
H16 H 0.6669 0.3073 0.4703
H17 H 0.6219 0.2423 0.5385
loop_
_geom_bond_atom_site_label_1
_geom_bond_atom_site_label_2
_geom_bond_site_symmetry_1
_geom_bond_site_symmetry_2
S1 C4 1_555 1_555
O1 C1 1_555 1_555
O2 C1 1_555 1_555
C1 C2 1_555 1_555
C2 C3 1_555 1_555
C3 H1 1_555 1_555
C4 C3 1_555 1_555
H2 C4 1_555 1_555
C5 S1 1_555 1_555
H3 C5 1_555 1_555
O3 C9 1_555 1_555
O4 N3 1_555 1_555
O5 N3 1_555 1_555
N1 H4 1_555 1_555
H5 N1 1_555 1_555
H6 N1 1_555 1_555
N2 H7 1_555 1_555
N3 C11 1_555 1_555
C6 N1 1_555 1_555
H8 C6 1_555 1_555
H9 C6 1_555 1_555
C7 N2 1_555 1_555
H10 C7 1_555 1_555
H11 C7 1_555 1_555
C8 N2 1_555 1_555
C9 C8 1_555 1_555
C10 C9 1_555 1_555
H12 C10 1_555 1_555
C11 C10 1_555 1_555
C12 C11 1_555 1_555
H13 C12 1_555 1_555
C13 C8 1_555 1_555
H14 C13 1_555 1_555
C14 O3 1_555 1_555
H15 C14 1_555 1_555
H16 C14 1_555 1_555
H17 C14 1_555 1_555
C2 C5 1_555 1_555
C6 C7 1_555 1_555
C12 C13 1_555 1_555

#END
