
#######################################################################
#
#                 Cambridge Crystallographic Data Centre
#                                CCDC 
#
#######################################################################
#
# If this CIF has been generated from an entry in the Cambridge 
# Structural Database, then it will include bibliographic, chemical, 
# crystal, experimental, refinement or atomic coordinate data resulting 
# from the CCDC's data processing and validation procedures.
#
#######################################################################

data_QEPROV
_chemical_formula_moiety         'C9 H14 N3 O3 1+,C7 H4 I1 O2 1-'
_chemical_name_systematic        
'2-[(2-methoxy-4-nitrophenyl)amino]ethan-1-aminium 4-iodobenzoate'
_symmetry_cell_setting           orthorhombic
_symmetry_space_group_name_H-M   'P n a 21'
_symmetry_Int_Tables_number      33
_space_group_name_Hall           'P 2c -2n'
loop_
_symmetry_equiv_pos_site_id
_symmetry_equiv_pos_as_xyz
1 x,y,z
2 -x,-y,1/2+z
3 1/2+x,1/2-y,z
4 1/2-x,1/2+y,1/2+z
_cell_length_a                   8.78550(10)
_cell_length_b                   27.8171(3)
_cell_length_c                   15.2550(2)
_cell_angle_alpha                90
_cell_angle_beta                 90
_cell_angle_gamma                90
_cell_volume                     3728.13
_exptl_crystal_colour            yellow
_exptl_crystal_description       block
_cell_formula_units_Z            8
_exptl_crystal_recrystallization_method 'dry acetonitrile'
_exptl_crystal_preparation       'SHG active compound'
loop_
_atom_site_label
_atom_site_type_symbol
_atom_site_fract_x
_atom_site_fract_y
_atom_site_fract_z
I1 I 0.03263(6) 0.43206(2) 0.44270(4)
O1 O -0.0607(4) 0.68416(15) 0.4444(4)
O2 O 0.1868(5) 0.68170(18) 0.4692(3)
C1 C 0.0594(6) 0.6620(2) 0.4569(3)
C2 C 0.0551(5) 0.6075(2) 0.4550(3)
C3 C 0.1812(6) 0.5801(3) 0.4760(4)
H1 H 0.2707 0.5954 0.4929
C4 C 0.1773(7) 0.5304(3) 0.4725(5)
H2 H 0.2626 0.5124 0.4875
C5 C 0.0442(6) 0.5078(2) 0.4462(5)
C6 C -0.0833(6) 0.5343(2) 0.4245(4)
H3 H -0.1718 0.5189 0.4061
C7 C -0.0783(5) 0.5838(2) 0.4303(4)
H4 H -0.1651 0.6016 0.4176
I2 I 0.67899(9) 0.44176(2) 0.24066(5)
O3 O 0.5134(5) 0.68993(16) 0.2549(3)
O4 O 0.7278(6) 0.69254(18) 0.1796(5)
C8 C 0.6288(6) 0.6704(2) 0.2210(4)
C9 C 0.6423(6) 0.6165(2) 0.2279(3)
C10 C 0.7502(7) 0.5914(2) 0.1791(4)
H5 H 0.8174 0.6084 0.1436
C11 C 0.7596(8) 0.5423(3) 0.1824(5)
H6 H 0.8310 0.5262 0.1483
C12 C 0.6637(7) 0.5169(2) 0.2360(5)
C13 C 0.5582(8) 0.5401(3) 0.2880(4)
H7 H 0.4950 0.5227 0.3253
C14 C 0.5479(6) 0.5900(2) 0.2838(4)
H8 H 0.4773 0.6060 0.3186
O5 O 0.8843(9) 0.3076(3) 0.4909(3)
O6 O 0.6583(10) 0.2836(2) 0.5263(3)
O7 O 0.8712(4) 0.33147(18) 0.1669(3)
C15 C 0.7093(9) 0.3000(2) 0.3807(4)
C16 C 0.8168(7) 0.3163(2) 0.3202(3)
H9 H 0.9130 0.3259 0.3386
C17 C 0.7781(6) 0.31788(18) 0.2333(4)
C18 C 0.6295(6) 0.30431(18) 0.2044(3)
C19 C 0.5253(8) 0.2887(3) 0.2677(4)
H10 H 0.4280 0.2796 0.2505
C20 C 0.5649(9) 0.2867(3) 0.3559(4)
H11 H 0.4946 0.2765 0.3975
C21 C 1.0223(7) 0.3461(4) 0.1880(5)
H12 H 1.0756 0.3199 0.2150
H13 H 1.0187 0.3729 0.2277
H14 H 1.0744 0.3555 0.1354
C22 C 0.4514(6) 0.2934(2) 0.0817(4)
H15 H 0.3720 0.3087 0.1160
H16 H 0.4378 0.2589 0.0862
C23 C 0.4347(6) 0.3082(2) -0.0128(4)
H17 H 0.3305 0.3028 -0.0313
H18 H 0.4553 0.3424 -0.0179
N1 N 0.7528(10) 0.2966(2) 0.4717(3)
N2 N 0.5982(5) 0.30631(17) 0.1178(3)
H19 H 0.680(7) 0.309(4) 0.089(6)
N3 N 0.5392(5) 0.28146(17) -0.0720(3)
H20 H 0.628(4) 0.292(2) -0.064(5)
H21 H 0.510(6) 0.289(2) -0.123(2)
H22 H 0.545(8) 0.2515(12) -0.065(5)
O8 O 0.4422(7) 0.4301(2) 0.0199(6)
O9 O 0.3035(8) 0.4046(2) 0.1274(7)
O10 O 0.4067(6) 0.60873(17) 0.0369(3)
C24 C 0.3176(7) 0.4865(3) 0.1056(5)
C25 C 0.3841(7) 0.5225(2) 0.0576(5)
H23 H 0.4517 0.5153 0.0126
C26 C 0.3488(7) 0.5695(2) 0.0775(4)
C27 C 0.2469(6) 0.5807(2) 0.1461(4)
C28 C 0.1819(7) 0.5426(3) 0.1936(5)
H24 H 0.1155 0.5492 0.2396
C29 C 0.2157(8) 0.4955(2) 0.1729(6)
H25 H 0.1708 0.4702 0.2034
C30 C 0.5301(10) 0.6028(4) -0.0227(6)
H26 H 0.4942 0.5874 -0.0751
H27 H 0.6075 0.5833 0.0040
H28 H 0.5718 0.6337 -0.0372
C31 C 0.1389(7) 0.6438(2) 0.2395(4)
H29 H 0.1935 0.6327 0.2909
H30 H 0.0373 0.6302 0.2411
C32 C 0.1288(7) 0.6975(2) 0.2411(4)
H31 H 0.0899 0.7076 0.2978
H32 H 0.2302 0.7108 0.2347
N4 N 0.3565(7) 0.4367(2) 0.0820(6)
N5 N 0.2163(6) 0.62760(17) 0.1616(3)
H33 H 0.273(7) 0.649(2) 0.139(5)
N6 N 0.0302(5) 0.71756(18) 0.1719(3)
H34 H 0.064(7) 0.716(2) 0.120(3)
H35 H 0.032(9) 0.7477(12) 0.177(6)
H36 H -0.064(4) 0.711(3) 0.172(5)
loop_
_geom_bond_atom_site_label_1
_geom_bond_atom_site_label_2
_geom_bond_site_symmetry_1
_geom_bond_site_symmetry_2
I1 C5 1_555 1_555
O1 C1 1_555 1_555
O2 C1 1_555 1_555
C1 C2 1_555 1_555
C2 C3 1_555 1_555
C3 H1 1_555 1_555
C4 C3 1_555 1_555
H2 C4 1_555 1_555
C5 C4 1_555 1_555
C6 C5 1_555 1_555
H3 C6 1_555 1_555
C7 C2 1_555 1_555
H4 C7 1_555 1_555
I2 C12 1_555 1_555
O3 C8 1_555 1_555
O4 C8 1_555 1_555
C8 C9 1_555 1_555
C9 C10 1_555 1_555
C10 H5 1_555 1_555
C11 C10 1_555 1_555
H6 C11 1_555 1_555
C12 C11 1_555 1_555
C13 C12 1_555 1_555
H7 C13 1_555 1_555
C14 C9 1_555 1_555
H8 C14 1_555 1_555
O5 N1 1_555 1_555
O6 N1 1_555 1_555
O7 C17 1_555 1_555
C15 C16 1_555 1_555
C16 H9 1_555 1_555
C17 C16 1_555 1_555
C18 C17 1_555 1_555
C19 C18 1_555 1_555
H10 C19 1_555 1_555
C20 C15 1_555 1_555
H11 C20 1_555 1_555
C21 O7 1_555 1_555
H12 C21 1_555 1_555
H13 C21 1_555 1_555
H14 C21 1_555 1_555
C22 H15 1_555 1_555
H16 C22 1_555 1_555
C23 C22 1_555 1_555
H17 C23 1_555 1_555
H18 C23 1_555 1_555
N1 C15 1_555 1_555
N2 C18 1_555 1_555
H19 N2 1_555 1_555
N3 C23 1_555 1_555
H20 N3 1_555 1_555
H21 N3 1_555 1_555
H22 N3 1_555 1_555
O8 N4 1_555 1_555
O9 N4 1_555 1_555
O10 C26 1_555 1_555
C24 C25 1_555 1_555
C25 H23 1_555 1_555
C26 C25 1_555 1_555
C27 C26 1_555 1_555
C28 C27 1_555 1_555
H24 C28 1_555 1_555
C29 C24 1_555 1_555
H25 C29 1_555 1_555
C30 O10 1_555 1_555
H26 C30 1_555 1_555
H27 C30 1_555 1_555
H28 C30 1_555 1_555
C31 H29 1_555 1_555
H30 C31 1_555 1_555
C32 C31 1_555 1_555
H31 C32 1_555 1_555
H32 C32 1_555 1_555
N4 C24 1_555 1_555
N5 C27 1_555 1_555
H33 N5 1_555 1_555
N6 C32 1_555 1_555
H34 N6 1_555 1_555
H35 N6 1_555 1_555
H36 N6 1_555 1_555
C6 C7 1_555 1_555
C13 C14 1_555 1_555
C19 C20 1_555 1_555
C22 N2 1_555 1_555
C28 C29 1_555 1_555
C31 N5 1_555 1_555

#END
