
#######################################################################
#
#                 Cambridge Crystallographic Data Centre
#                                CCDC 
#
#######################################################################
#
# If this CIF has been generated from an entry in the Cambridge 
# Structural Database, then it will include bibliographic, chemical, 
# crystal, experimental, refinement or atomic coordinate data resulting 
# from the CCDC's data processing and validation procedures.
#
#######################################################################

data_QEPVOZ
_chemical_formula_moiety         'C36 H37 N1 O2 S7,0.5(C1 H2 Cl2)'
_chemical_name_systematic        
"2,7-bis([2,2'-bithiophen]-5-yl)-5-dodecylbisthieno[3,2-c:2',3'-e][1,2]thiazine-4,4(5H)-dione dichloromethane solvate"
_symmetry_cell_setting           triclinic
_symmetry_space_group_name_H-M   'P -1'
_symmetry_Int_Tables_number      2
_space_group_name_Hall           '-P 1'
loop_
_symmetry_equiv_pos_site_id
_symmetry_equiv_pos_as_xyz
1 x,y,z
2 -x,-y,-z
_cell_length_a                   6.3418(2)
_cell_length_b                   16.4142(6)
_cell_length_c                   18.1273(6)
_cell_angle_alpha                82.913(2)
_cell_angle_beta                 80.234(3)
_cell_angle_gamma                88.182(2)
_cell_volume                     1845.31
_exptl_crystal_colour            orange
_exptl_crystal_description       needle
_cell_formula_units_Z            2
_exptl_crystal_recrystallization_method Dichloromethane/hexane
loop_
_atom_site_label
_atom_site_type_symbol
_atom_site_fract_x
_atom_site_fract_y
_atom_site_fract_z
S1 S 0.66709(12) 0.38624(5) 0.57298(4)
S2 S 0.87542(12) 0.22750(5) 0.40927(4)
S3 S 1.26978(13) 0.24572(5) 0.27162(5)
S4 S 1.5349(5) 0.1724(2) 0.12567(19)
S5 S 0.40024(12) 0.14261(5) 0.51632(4)
S6 S -0.23374(12) 0.12793(5) 0.65766(5)
S7 S -0.6558(4) -0.08239(13) 0.69531(19)
O1 O 0.6895(3) 0.47380(12) 0.56053(11)
O2 O 0.7364(3) 0.34440(13) 0.63913(11)
N1 N 0.4155(4) 0.36516(15) 0.57266(14)
C1 C 0.7903(5) 0.34078(19) 0.49463(17)
C2 C 0.7068(5) 0.26870(19) 0.48096(17)
C3 C 0.5057(5) 0.23774(19) 0.51948(17)
C4 C 0.3663(5) 0.28393(18) 0.56534(17)
C5 C 0.9861(5) 0.36402(19) 0.44778(16)
H1 H 1.0613 0.4124 0.4504
C6 C 1.0538(5) 0.30872(19) 0.39842(17)
C7 C 1.2450(5) 0.31064(19) 0.34107(17)
C8 C 1.4217(5) 0.3589(2) 0.33154(18)
H2 H 1.4386 0.3989 0.3637
C9 C 1.5757(5) 0.3431(2) 0.26933(18)
H3 H 1.7072 0.3716 0.2555
C10 C 1.5195(5) 0.2831(2) 0.23046(18)
C11 C 1.6385(5) 0.2500(2) 0.16487(19)
C12 C 1.837(2) 0.2672(11) 0.1275(10)
H4 H 1.9155 0.3098 0.1412
C13 C 1.928(4) 0.2237(17) 0.0696(14)
H5 H 2.0714 0.2263 0.0433
C14 C 1.768(3) 0.1764(17) 0.0585(14)
H6 H 1.7814 0.1467 0.0162
C15 C 0.1753(5) 0.24257(18) 0.59802(17)
H7 H 0.0630 0.2658 0.6309
C16 C 0.1691(5) 0.16551(19) 0.57724(17)
C17 C 0.0030(5) 0.10432(19) 0.60086(17)
C18 C 0.0020(5) 0.02511(19) 0.58512(18)
H8 H 0.1181 0.0006 0.5549
C19 C -0.1867(5) -0.0167(2) 0.61791(18)
H9 H -0.2117 -0.0720 0.6117
C20 C -0.3317(5) 0.03044(19) 0.65982(18)
C21 C -0.5432(5) 0.0084(2) 0.70125(18)
C22 C -0.681(2) 0.0538(8) 0.7482(9)
H10 H -0.6485 0.1067 0.7588
C23 C -0.8755(17) 0.0141(5) 0.7790(7)
H11 H -0.9891 0.0383 0.8106
C24 C -0.8832(16) -0.0621(7) 0.7587(7)
H12 H -0.9972 -0.0994 0.7767
C25 C 0.2503(5) 0.42184(19) 0.60672(17)
H13 H 0.1109 0.4091 0.5934
H14 H 0.2870 0.4787 0.5842
C26 C 0.2252(5) 0.4180(2) 0.69160(17)
H15 H 0.3596 0.4356 0.7055
H16 H 0.1976 0.3607 0.7147
C27 C 0.0408(5) 0.4732(2) 0.72201(18)
H17 H -0.0940 0.4535 0.7101
H18 H 0.0648 0.5297 0.6961
C28 C 0.0162(5) 0.4753(2) 0.80704(18)
H19 H -0.0102 0.4190 0.8329
H20 H 0.1520 0.4940 0.8190
C29 C -0.1646(6) 0.5313(2) 0.83765(18)
H21 H -0.3018 0.5107 0.8285
H22 H -0.1429 0.5870 0.8099
C30 C -0.1786(6) 0.5365(2) 0.92182(19)
H23 H -0.2168 0.4819 0.9498
H24 H -0.0358 0.5505 0.9315
C31 C -0.3410(6) 0.5995(2) 0.95225(19)
H25 H -0.3109 0.6533 0.9215
H26 H -0.4859 0.5829 0.9470
C32 C -0.3381(6) 0.6091(2) 1.03443(19)
H27 H -0.1899 0.6204 1.0403
H28 H -0.3811 0.5565 1.0656
C33 C -0.4854(6) 0.6774(2) 1.06411(19)
H29 H -0.4425 0.7301 1.0331
H30 H -0.6338 0.6661 1.0584
C34 C -0.4805(6) 0.6861(2) 1.1463(2)
H31 H -0.5452 0.6365 1.1777
H32 H -0.3293 0.6876 1.1533
C35 C -0.5949(6) 0.7607(2) 1.1751(2)
H33 H -0.5315 0.8103 1.1435
H34 H -0.5699 0.7633 1.2272
C36 C -0.8332(7) 0.7624(3) 1.1751(2)
H35 H -0.8600 0.7632 1.1233
H36 H -0.8964 0.8117 1.1959
H37 H -0.8979 0.7135 1.2060
Cl1 Cl 0.2827(8) 0.0547(3) 0.9814(3)
Cl2 Cl 0.6881(7) -0.0396(3) 0.9637(3)
C37 C 0.5082(17) 0.0163(6) 0.9244(7)
H38 H 0.4550 -0.0169 0.8896
H39 H 0.5830 0.0639 0.8931
S8? S 1.8916(7) 0.2837(3) 0.1272(3)
S9? S -0.6887(14) 0.0653(6) 0.7620(6)
C38? C 1.582(3) 0.1967(10) 0.1200(9)
H40? H 1.4377 0.1795 0.1267
C39? C 1.734(4) 0.1671(19) 0.0643(16)
H41? H 1.7220 0.1224 0.0366
C40? C 1.901(4) 0.2175(18) 0.0593(14)
H42? H 2.0204 0.2167 0.0198
C41? C -0.636(3) -0.0672(12) 0.7042(18)
H43? H -0.5644 -0.1123 0.6822
C42? C -0.844(3) -0.0702(14) 0.7424(14)
H44? H -0.9425 -0.1113 0.7390
C43? C -0.892(3) -0.0070(12) 0.7861(16)
H45? H -1.0161 -0.0034 0.8232
loop_
_geom_bond_atom_site_label_1
_geom_bond_atom_site_label_2
_geom_bond_site_symmetry_1
_geom_bond_site_symmetry_2
S1 O1 1_555 1_555
S2 C2 1_555 1_555
S3 C7 1_555 1_555
S4 C11 1_555 1_555
S5 C3 1_555 1_555
S6 C17 1_555 1_555
S7 C21 1_555 1_555
O2 S1 1_555 1_555
N1 S1 1_555 1_555
C1 S1 1_555 1_555
C2 C1 1_555 1_555
C3 C2 1_555 1_555
C4 N1 1_555 1_555
C5 C1 1_555 1_555
H1 C5 1_555 1_555
C6 S2 1_555 1_555
C7 C6 1_555 1_555
C8 C7 1_555 1_555
H2 C8 1_555 1_555
C9 C8 1_555 1_555
H3 C9 1_555 1_555
C10 S3 1_555 1_555
C11 C10 1_555 1_555
C12 C11 1_555 1_555
H4 C12 1_555 1_555
C13 C12 1_555 1_555
H5 C13 1_555 1_555
C14 S4 1_555 1_555
H6 C14 1_555 1_555
C15 C4 1_555 1_555
H7 C15 1_555 1_555
C16 S5 1_555 1_555
C17 C16 1_555 1_555
C18 C17 1_555 1_555
H8 C18 1_555 1_555
C19 C18 1_555 1_555
H9 C19 1_555 1_555
C20 S6 1_555 1_555
C21 C20 1_555 1_555
C22 C21 1_555 1_555
H10 C22 1_555 1_555
C23 C22 1_555 1_555
H11 C23 1_555 1_555
C24 S7 1_555 1_555
H12 C24 1_555 1_555
C25 N1 1_555 1_555
H13 C25 1_555 1_555
H14 C25 1_555 1_555
C26 C25 1_555 1_555
H15 C26 1_555 1_555
H16 C26 1_555 1_555
C27 C26 1_555 1_555
H17 C27 1_555 1_555
H18 C27 1_555 1_555
C28 C27 1_555 1_555
H19 C28 1_555 1_555
H20 C28 1_555 1_555
C29 C28 1_555 1_555
H21 C29 1_555 1_555
H22 C29 1_555 1_555
C30 C29 1_555 1_555
H23 C30 1_555 1_555
H24 C30 1_555 1_555
C31 C30 1_555 1_555
H25 C31 1_555 1_555
H26 C31 1_555 1_555
C32 C31 1_555 1_555
H27 C32 1_555 1_555
H28 C32 1_555 1_555
C33 C32 1_555 1_555
H29 C33 1_555 1_555
H30 C33 1_555 1_555
C34 C33 1_555 1_555
H31 C34 1_555 1_555
H32 C34 1_555 1_555
C35 C34 1_555 1_555
H33 C35 1_555 1_555
H34 C35 1_555 1_555
C36 C35 1_555 1_555
H35 C36 1_555 1_555
H36 C36 1_555 1_555
H37 C36 1_555 1_555
Cl1 C37 1_555 1_555
Cl2 C37 1_555 1_555
C37 H38 1_555 1_555
H39 C37 1_555 1_555
C3 C4 1_555 1_555
C5 C6 1_555 1_555
C9 C10 1_555 1_555
C13 C14 1_555 1_555
C15 C16 1_555 1_555
C19 C20 1_555 1_555
C23 C24 1_555 1_555

#END
