
#######################################################################
#
#                 Cambridge Crystallographic Data Centre
#                                CCDC 
#
#######################################################################
#
# If this CIF has been generated from an entry in the Cambridge 
# Structural Database, then it will include bibliographic, chemical, 
# crystal, experimental, refinement or atomic coordinate data resulting 
# from the CCDC's data processing and validation procedures.
#
#######################################################################

data_QEPWOY
_chemical_formula_moiety         'C20 H20 N4 O2 S3'
_chemical_name_systematic        
2,5-bis(3-tolylcarbamoylmethylthio)-1,3,4-thiadiazole
_symmetry_cell_setting           triclinic
_symmetry_space_group_name_H-M   'P -1'
_symmetry_Int_Tables_number      2
_space_group_name_Hall           '-P 1'
loop_
_symmetry_equiv_pos_site_id
_symmetry_equiv_pos_as_xyz
1 x,y,z
2 -x,-y,-z
_cell_length_a                   9.372(4)
_cell_length_b                   10.894(4)
_cell_length_c                   20.743(8)
_cell_angle_alpha                83.988(7)
_cell_angle_beta                 77.498(8)
_cell_angle_gamma                89.250(8)
_cell_volume                     2056.14
_chemical_melting_point          '168-170 deg.C'
_cell_formula_units_Z            4
_exptl_crystal_recrystallization_method ethanol
_exptl_crystal_preparation       fluorescent
loop_
_atom_site_label
_atom_site_type_symbol
_atom_site_fract_x
_atom_site_fract_y
_atom_site_fract_z
S1 S 0.29527(11) 0.63107(7) 0.05350(5)
S2 S 0.46723(10) 0.61336(9) 0.16317(5)
S3 S 0.19682(11) 0.47694(8) -0.04571(4)
O1 O 0.4600(3) 0.7363(2) 0.27860(13)
O2 O 0.0374(3) 0.5267(2) -0.13901(13)
N1 N 0.4087(3) 0.4331(2) 0.09471(14)
N2 N 0.3486(3) 0.4033(2) 0.04361(14)
N3 N 0.2136(3) 0.7587(2) 0.30921(13)
N4 N 0.0170(3) 0.7347(2) -0.14477(13)
H1 H 0.0385 0.7979 -0.1270
C1 C 0.1009(12) 0.7873(11) 0.4181(6)
H4 H 0.0247 0.7379 0.4130
C2 C 0.0955(10) 0.8355(12) 0.4780(5)
C3 C 0.2095(10) 0.9092(10) 0.4855(3)
H5 H 0.2058 0.9415 0.5256
C4 C 0.3289(9) 0.9349(10) 0.4330(4)
H6 H 0.4052 0.9843 0.4380
C5 C 0.3344(11) 0.8867(10) 0.3731(4)
H7 H 0.4143 0.9039 0.3380
C6 C 0.2204(14) 0.8130(10) 0.3656(4)
C13 C 0.3372(4) 0.7330(3) 0.26738(16)
C14 C 0.3138(4) 0.7022(3) 0.20138(15)
H12 H 0.3057 0.7775 0.1730
H13 H 0.2240 0.6549 0.2076
C15 C 0.3903(4) 0.5484(3) 0.10527(16)
C16 C 0.2857(4) 0.4957(3) 0.01749(15)
C17 C 0.1456(4) 0.6322(3) -0.06675(17)
H14 H 0.0854 0.6651 -0.0284
H15 H 0.2316 0.6845 -0.0828
C18 C 0.0606(4) 0.6261(3) -0.12057(16)
C19 C -0.0601(4) 0.7590(3) -0.19591(16)
C20 C -0.0887(5) 0.8815(3) -0.21283(18)
H16 H -0.0582 0.9433 -0.1910
C21 C -0.1623(5) 0.9101(4) -0.2621(2)
H17 H -0.1822 0.9924 -0.2736
C22 C -0.2078(5) 0.8214(4) -0.29519(19)
H18 H -0.2585 0.8438 -0.3284
C23 C -0.1792(4) 0.6992(3) -0.27969(17)
C24 C -0.1052(4) 0.6690(3) -0.22978(17)
H19 H -0.0852 0.5866 -0.2186
C25 C -0.2280(5) 0.6001(4) -0.3156(2)
H20 H -0.3315 0.5871 -0.3005
H21 H -0.1781 0.5248 -0.3066
H22 H -0.2056 0.6250 -0.3624
C26 C -0.0397(15) 0.8113(9) 0.5342(4)
H23 H -0.0276 0.8513 0.5718
H24 H -0.0519 0.7241 0.5467
H25 H -0.1244 0.8433 0.5195
S4 S 0.78236(11) 0.84960(7) 0.03734(4)
S5 S 0.95768(11) 0.83055(9) 0.14636(5)
S6 S 0.67416(12) 1.04018(7) -0.06143(4)
O3 O 0.9710(3) 0.6758(2) 0.26249(12)
O4 O 0.5105(3) 1.0264(2) -0.15341(13)
N5 N 0.8819(3) 1.0349(2) 0.08001(13)
N6 N 0.8179(4) 1.0826(2) 0.02948(13)
N7 N 0.7296(3) 0.6502(2) 0.30484(13)
H2 H 0.6448 0.6553 0.2952
N8 N 0.4937(3) 0.8193(2) -0.15809(13)
H3 H 0.5154 0.7494 -0.1395
C28 C 0.6382(4) 0.6531(3) 0.42266(17)
H29 H 0.5703 0.7112 0.4129
C29 C 0.6385(5) 0.6150(4) 0.48821(18)
C30 C 0.7394(5) 0.5283(4) 0.5005(2)
H30 H 0.7426 0.5011 0.5442
C31 C 0.8352(5) 0.4812(4) 0.4499(2)
H31 H 0.9019 0.4220 0.4597
C32 C 0.8350(4) 0.5195(3) 0.38494(19)
H32 H 0.9004 0.4869 0.3507
C33 C 0.7358(4) 0.6074(3) 0.37139(16)
C34 C 0.8449(4) 0.6830(3) 0.25633(16)
C35 C 0.8086(4) 0.7298(3) 0.19067(15)
H33 H 0.7175 0.7748 0.1978
H34 H 0.7987 0.6614 0.1655
C36 C 0.8718(4) 0.9148(3) 0.09015(16)
C37 C 0.7609(4) 0.9979(3) 0.00287(15)
C38 C 0.6154(4) 0.8927(3) -0.07882(16)
H35 H 0.6989 0.8406 -0.0926
H36 H 0.5516 0.8510 -0.0398
C39 C 0.5348(4) 0.9205(3) -0.13396(16)
C40 C 0.4196(4) 0.8146(3) -0.21027(16)
C41 C 0.3988(4) 0.6992(3) -0.22902(18)
H37 H 0.4334 0.6294 -0.2077
C42 C 0.3273(5) 0.6877(3) -0.27890(19)
H38 H 0.3137 0.6098 -0.2912
C43 C 0.2755(5) 0.7891(3) -0.31103(18)
H39 H 0.2267 0.7800 -0.3448
C44 C 0.2959(4) 0.9048(3) -0.29297(17)
C45 C 0.3680(4) 0.9162(3) -0.24257(16)
H40 H 0.3819 0.9941 -0.2303
C46 C 0.2379(5) 1.0170(4) -0.3271(2)
H41 H 0.3184 1.0752 -0.3444
H42 H 0.1647 1.0543 -0.2964
H43 H 0.2000 0.9937 -0.3633
C47 C 0.5332(6) 0.6663(4) 0.54335(19)
H44 H 0.5086 0.6041 0.5804
H45 H 0.4462 0.6918 0.5285
H46 H 0.5770 0.7360 0.5566
C7? C 0.0537(12) 0.7712(12) 0.4184(6)
H8? H -0.0165 0.7271 0.4046
C8? C 0.0224(8) 0.8134(12) 0.4808(6)
H9? H -0.0688 0.7975 0.5088
C9? C 0.1273(9) 0.8795(10) 0.5014(3)
H10? H 0.1064 0.9077 0.5432
C10? C 0.2635(8) 0.9032(9) 0.4596(4)
C11? C 0.2948(10) 0.8610(10) 0.3972(3)
H11? H 0.3860 0.8769 0.3692
C12? C 0.1899(13) 0.7950(11) 0.3766(4)
C27? C 0.3745(14) 0.9751(11) 0.4792(6)
H26? H 0.4608 0.9822 0.4443
H27? H 0.3979 0.9345 0.5189
H28? H 0.3376 1.0560 0.4874
loop_
_geom_bond_atom_site_label_1
_geom_bond_atom_site_label_2
_geom_bond_site_symmetry_1
_geom_bond_site_symmetry_2
S1 C15 1_555 1_555
S2 C14 1_555 1_555
S3 C16 1_555 1_555
S4 C36 1_555 1_555
S5 C35 1_555 1_555
S6 C37 1_555 1_555
O1 C13 1_555 1_555
O2 C18 1_555 1_555
O3 C34 1_555 1_555
O4 C39 1_555 1_555
N1 N2 1_555 1_555
N2 C16 1_555 1_555
N3 C6 1_555 1_555
N4 H1 1_555 1_555
N5 N6 1_555 1_555
N6 C37 1_555 1_555
N7 H2 1_555 1_555
N8 H3 1_555 1_555
C1 H4 1_555 1_555
C2 C1 1_555 1_555
C3 C2 1_555 1_555
H5 C3 1_555 1_555
C4 C3 1_555 1_555
H6 C4 1_555 1_555
C5 C4 1_555 1_555
H7 C5 1_555 1_555
C6 C1 1_555 1_555
C13 N3 1_555 1_555
C14 C13 1_555 1_555
H12 C14 1_555 1_555
H13 C14 1_555 1_555
C15 S2 1_555 1_555
C16 S1 1_555 1_555
C17 S3 1_555 1_555
H14 C17 1_555 1_555
H15 C17 1_555 1_555
C18 N4 1_555 1_555
C19 N4 1_555 1_555
C20 C19 1_555 1_555
H16 C20 1_555 1_555
C21 C20 1_555 1_555
H17 C21 1_555 1_555
C22 C21 1_555 1_555
H18 C22 1_555 1_555
C23 C22 1_555 1_555
C24 C19 1_555 1_555
H19 C24 1_555 1_555
C25 C23 1_555 1_555
H20 C25 1_555 1_555
H21 C25 1_555 1_555
H22 C25 1_555 1_555
C26 C2 1_555 1_555
H23 C26 1_555 1_555
H24 C26 1_555 1_555
H25 C26 1_555 1_555
C28 H29 1_555 1_555
C29 C28 1_555 1_555
C30 C29 1_555 1_555
H30 C30 1_555 1_555
C31 C30 1_555 1_555
H31 C31 1_555 1_555
C32 C31 1_555 1_555
H32 C32 1_555 1_555
C33 N7 1_555 1_555
C34 N7 1_555 1_555
C35 C34 1_555 1_555
H33 C35 1_555 1_555
H34 C35 1_555 1_555
C36 S5 1_555 1_555
C37 S4 1_555 1_555
C38 S6 1_555 1_555
H35 C38 1_555 1_555
H36 C38 1_555 1_555
C39 N8 1_555 1_555
C40 N8 1_555 1_555
C41 C40 1_555 1_555
H37 C41 1_555 1_555
C42 C41 1_555 1_555
H38 C42 1_555 1_555
C43 C42 1_555 1_555
H39 C43 1_555 1_555
C44 C43 1_555 1_555
C45 C40 1_555 1_555
H40 C45 1_555 1_555
C46 C44 1_555 1_555
H41 C46 1_555 1_555
H42 C46 1_555 1_555
H43 C46 1_555 1_555
C47 C29 1_555 1_555
H44 C47 1_555 1_555
H45 C47 1_555 1_555
H46 C47 1_555 1_555
N1 C15 1_555 1_555
N5 C36 1_555 1_555
C5 C6 1_555 1_555
C17 C18 1_555 1_555
C23 C24 1_555 1_555
C28 C33 1_555 1_555
C32 C33 1_555 1_555
C38 C39 1_555 1_555
C44 C45 1_555 1_555

#END
