
#######################################################################
#
#                 Cambridge Crystallographic Data Centre
#                                CCDC 
#
#######################################################################
#
# If this CIF has been generated from an entry in the Cambridge 
# Structural Database, then it will include bibliographic, chemical, 
# crystal, experimental, refinement or atomic coordinate data resulting 
# from the CCDC's data processing and validation procedures.
#
#######################################################################

data_QEPWIS
_chemical_formula_moiety         'C26 H26 N2 O1 S2'
_chemical_name_systematic        
12b-methyl-6,10-diphenyl-1,3,4,6,7,9,10,12b-octahydro-2H,8H-thiopyrano[3'',2'':4',5']thieno[2',3':3,4]pyrido[1,2-a]pyrimidin-8-one
_symmetry_cell_setting           monoclinic
_symmetry_space_group_name_H-M   'P 21/c'
_symmetry_Int_Tables_number      14
_space_group_name_Hall           '-P 2ybc'
loop_
_symmetry_equiv_pos_site_id
_symmetry_equiv_pos_as_xyz
1 x,y,z
2 -x,1/2+y,1/2-z
3 -x,-y,-z
4 x,1/2-y,1/2+z
_cell_length_a                   14.0654(17)
_cell_length_b                   19.972(3)
_cell_length_c                   8.3587(11)
_cell_angle_alpha                90
_cell_angle_beta                 105.596(3)
_cell_angle_gamma                90
_cell_volume                     2261.62
_exptl_crystal_colour            red
_exptl_crystal_description       block
_cell_formula_units_Z            4
loop_
_atom_site_label
_atom_site_type_symbol
_atom_site_fract_x
_atom_site_fract_y
_atom_site_fract_z
S1 S 0.34073(7) 0.26909(5) -0.01288(13)
S2 S 0.48011(6) 0.38340(5) 0.10535(12)
C1 C 0.1939(3) 0.1361(2) 0.0374(6)
H1 H 0.2017 0.1561 0.1407
C2 C 0.1119(3) 0.0993(3) -0.0286(6)
H2 H 0.0640 0.0946 0.0286
C3 C 0.0996(3) 0.0691(2) -0.1788(7)
H3 H 0.0437 0.0433 -0.2238
C4 C 0.1693(3) 0.0770(2) -0.2629(6)
H4 H 0.1616 0.0562 -0.3653
C5 C 0.2513(3) 0.1156(2) -0.1961(6)
H5 H 0.2980 0.1220 -0.2550
C6 C 0.2646(3) 0.1447(2) -0.0431(7)
C7 C 0.3574(3) 0.1837(2) 0.0346(10)
H6 H 0.3408 0.1888 0.1405
C8 C 0.4419(3) 0.1535(2) 0.1045(7)
H7 H 0.4585 0.1277 0.0174
H8 H 0.4280 0.1213 0.1822
C9 C 0.5349(3) 0.18923(18) 0.1955(4)
C10 C 0.5341(2) 0.26207(16) 0.1916(4)
C11 C 0.4557(2) 0.29906(17) 0.0981(4)
C12 C 0.5959(2) 0.37072(18) 0.2407(4)
C13 C 0.6147(2) 0.30518(17) 0.2764(4)
C14 C 0.7100(2) 0.28269(17) 0.3952(5)
H9 H 0.7522 0.2624 0.3341
H10 H 0.6966 0.2495 0.4710
C15 C 0.7619(2) 0.34317(17) 0.4930(4)
H11 H 0.7211 0.3561 0.5663
C16 C 0.8639(3) 0.32951(18) 0.6074(4)
C17 C 0.9178(3) 0.2727(2) 0.6042(5)
H12 H 0.8927 0.2399 0.5253
C18 C 1.0098(3) 0.2633(2) 0.7176(6)
H13 H 1.0456 0.2244 0.7145
C19 C 1.0470(3) 0.3118(3) 0.8335(5)
H14 H 1.1081 0.3059 0.9097
C20 C 0.9943(3) 0.3686(3) 0.8366(6)
H15 H 1.0196 0.4016 0.9153
C21 C 0.9044(3) 0.3776(2) 0.7246(5)
H16 H 0.8697 0.4170 0.7275
C22 C 0.8138(3) 0.38707(19) 0.2589(5)
H17 H 0.7810 0.3496 0.1928
H18 H 0.8814 0.3739 0.3118
C23 C 0.8141(3) 0.4464(2) 0.1463(5)
H19 H 0.8458 0.4344 0.0605
H20 H 0.8501 0.4834 0.2098
C24 C 0.7077(3) 0.4662(2) 0.0687(5)
H21 H 0.7058 0.5054 -0.0008
H22 H 0.6737 0.4301 -0.0013
C25 C 0.6622(2) 0.42857(17) 0.3170(5)
C26 C 0.6254(3) 0.46167(19) 0.4558(5)
H23 H 0.6683 0.4981 0.5029
H24 H 0.6254 0.4293 0.5406
H25 H 0.5596 0.4783 0.4104
O1 O 0.60750(18) 0.15729(12) 0.2663(3)
N1 N 0.6576(2) 0.48086(15) 0.1948(4)
H26 H 0.6272 0.5181 0.1972
N2 N 0.7635(2) 0.40265(14) 0.3871(4)
loop_
_geom_bond_atom_site_label_1
_geom_bond_atom_site_label_2
_geom_bond_site_symmetry_1
_geom_bond_site_symmetry_2
S1 C7 1_555 1_555
S2 C11 1_555 1_555
C1 H1 1_555 1_555
C2 C1 1_555 1_555
H2 C2 1_555 1_555
C3 C2 1_555 1_555
H3 C3 1_555 1_555
C4 C3 1_555 1_555
H4 C4 1_555 1_555
C5 C4 1_555 1_555
H5 C5 1_555 1_555
C6 C1 1_555 1_555
C7 C6 1_555 1_555
H6 C7 1_555 1_555
C8 C7 1_555 1_555
H7 C8 1_555 1_555
H8 C8 1_555 1_555
C9 C8 1_555 1_555
C10 C9 1_555 1_555
C11 S1 1_555 1_555
C12 S2 1_555 1_555
C13 C10 1_555 1_555
C14 C13 1_555 1_555
H9 C14 1_555 1_555
H10 C14 1_555 1_555
C15 C14 1_555 1_555
H11 C15 1_555 1_555
C16 C15 1_555 1_555
C17 C16 1_555 1_555
H12 C17 1_555 1_555
C18 C17 1_555 1_555
H13 C18 1_555 1_555
C19 C18 1_555 1_555
H14 C19 1_555 1_555
C20 C19 1_555 1_555
H15 C20 1_555 1_555
C21 C16 1_555 1_555
H16 C21 1_555 1_555
C22 H17 1_555 1_555
H18 C22 1_555 1_555
C23 C22 1_555 1_555
H19 C23 1_555 1_555
H20 C23 1_555 1_555
C24 C23 1_555 1_555
H21 C24 1_555 1_555
H22 C24 1_555 1_555
C25 C12 1_555 1_555
C26 C25 1_555 1_555
H23 C26 1_555 1_555
H24 C26 1_555 1_555
H25 C26 1_555 1_555
O1 C9 1_555 1_555
N1 C24 1_555 1_555
H26 N1 1_555 1_555
N2 C15 1_555 1_555
C5 C6 1_555 1_555
C10 C11 1_555 1_555
C12 C13 1_555 1_555
C20 C21 1_555 1_555
C22 N2 1_555 1_555
C25 N1 1_555 1_555
C25 N2 1_555 1_555

#END
