
#######################################################################
#
#                 Cambridge Crystallographic Data Centre
#                                CCDC 
#
#######################################################################
#
# If this CIF has been generated from an entry in the Cambridge 
# Structural Database, then it will include bibliographic, chemical, 
# crystal, experimental, refinement or atomic coordinate data resulting 
# from the CCDC's data processing and validation procedures.
#
#######################################################################

data_QEPXAL
_chemical_compound_source        
'leaves, twigs and flowers of Miliusa sinensis Finet and Gag nep.(Annonaceae)'
_chemical_name_common            
9beta-acetoxy-1-beta-(E-2,6-dimethylhepta-1,5-dienyl)-2-oxa-spiro[4.5]dec-7-ene-3,6-dione
_chemical_formula_moiety         'C20 H26 O5'
_chemical_name_systematic        (+)-Muliusate
_chemical_properties_biological  'potential anticancer drug'
_symmetry_cell_setting           orthorhombic
_symmetry_space_group_name_H-M   'P 21 21 21'
_symmetry_Int_Tables_number      19
_space_group_name_Hall           'P 2ac 2ab'
loop_
_symmetry_equiv_pos_site_id
_symmetry_equiv_pos_as_xyz
1 x,y,z
2 1/2-x,-y,1/2+z
3 1/2+x,1/2-y,-z
4 -x,1/2+y,1/2-z
_cell_length_a                   6.4822(2)
_cell_length_b                   8.8824(2)
_cell_length_c                   33.9137(11)
_cell_angle_alpha                90
_cell_angle_beta                 90
_cell_angle_gamma                90
_cell_volume                     1952.67
_exptl_crystal_colour            colorless
_exptl_crystal_description       needle
_chemical_melting_point          '190.8-191.8 deg.C'
_cell_formula_units_Z            4
_exptl_crystal_recrystallization_method methanol
loop_
_atom_site_label
_atom_site_type_symbol
_atom_site_fract_x
_atom_site_fract_y
_atom_site_fract_z
C1 C 0.0490(7) 0.5147(5) -0.19878(16)
H1 H 0.0408 0.5216 -0.1700
H2 H -0.0038 0.6080 -0.2105
H3 H 0.1936 0.4998 -0.2067
C2 C -0.0784(7) 0.3842(4) -0.21271(15)
O1 O -0.1009(6) 0.3454(4) -0.24676(11)
O2 O -0.1660(5) 0.3122(3) -0.18207(9)
C3 C -0.3075(7) 0.1894(5) -0.19065(14)
H7 H -0.3104 0.1691 -0.2197
C4 C -0.5171(8) 0.2343(5) -0.17669(18)
H8 H -0.5542 0.3380 -0.1774
C5 C -0.6555(7) 0.1346(5) -0.16311(17)
H9 H -0.7858 0.1692 -0.1538
C6 C -0.6088(6) -0.0284(5) -0.16242(13)
O3 O -0.7473(5) -0.1192(3) -0.15557(10)
C7 C -0.3900(6) -0.0785(4) -0.17095(13)
C8 C -0.2323(6) 0.0507(4) -0.16860(13)
H10 H -0.2082 0.0771 -0.1406
H11 H -0.0990 0.0170 -0.1800
C9 C -0.3915(6) -0.1621(4) -0.21071(12)
H12 H -0.5051 -0.1250 -0.2278
H13 H -0.2582 -0.1487 -0.2247
O4 O -0.4715(5) -0.4263(3) -0.22129(9)
C10 C -0.4249(6) -0.3255(4) -0.19979(13)
O5 O -0.3905(5) -0.3459(3) -0.16102(9)
C11 C -0.3187(7) -0.2069(4) -0.14263(12)
H14 H -0.1638 -0.2083 -0.1421
C12 C -0.3957(7) -0.1977(4) -0.10100(13)
H15 H -0.5344 -0.2292 -0.0966
C13 C -0.2919(8) -0.1508(5) -0.06989(15)
C14 C -0.0657(10) -0.1110(8) -0.06927(18)
H16 H -0.0261 -0.0793 -0.0426
H17 H -0.0396 -0.0284 -0.0878
H18 H 0.0162 -0.1993 -0.0770
C15 C -0.4041(9) -0.1316(6) -0.03083(15)
H22 H -0.3163 -0.1719 -0.0093
H23 H -0.5339 -0.1910 -0.0314
C16 C -0.4558(13) 0.0336(7) -0.02213(19)
H24 H -0.3251 0.0897 -0.0178
H25 H -0.5250 0.0778 -0.0455
C17 C -0.5932(12) 0.0540(7) 0.01326(19)
H26 H -0.7375 0.0431 0.0085
C18 C -0.5420(12) 0.0844(6) 0.04909(19)
C19 C -0.6939(16) 0.0995(8) 0.0824(2)
H27 H -0.6194 0.1241 0.1068
H28 H -0.7684 0.0041 0.0859
H29 H -0.7929 0.1800 0.0764
C20 C -0.3192(18) 0.1069(14) 0.0623(3)
H30 H -0.3165 0.1305 0.0906
H31 H -0.2573 0.1904 0.0475
H32 H -0.2401 0.0144 0.0575
H4? H 0.1130 0.5647 -0.2215
H5? H 0.1575 0.4783 -0.1809
H6? H -0.0399 0.5865 -0.1848
H19? H -0.0069 -0.1254 -0.0957
H20? H 0.0066 -0.1762 -0.0504
H21? H -0.0493 -0.0054 -0.0613
loop_
_geom_bond_atom_site_label_1
_geom_bond_atom_site_label_2
_geom_bond_site_symmetry_1
_geom_bond_site_symmetry_2
C1 H1 1_555 1_555
H2 C1 1_555 1_555
H3 C1 1_555 1_555
C2 C1 1_555 1_555
O1 C2 1_555 1_555
O2 C2 1_555 1_555
C3 O2 1_555 1_555
H7 C3 1_555 1_555
C4 C3 1_555 1_555
H8 C4 1_555 1_555
C5 C4 1_555 1_555
H9 C5 1_555 1_555
C6 C5 1_555 1_555
O3 C6 1_555 1_555
C7 C6 1_555 1_555
C8 C3 1_555 1_555
H10 C8 1_555 1_555
H11 C8 1_555 1_555
C9 C7 1_555 1_555
H12 C9 1_555 1_555
H13 C9 1_555 1_555
O4 C10 1_555 1_555
C10 C9 1_555 1_555
O5 C10 1_555 1_555
C11 C7 1_555 1_555
H14 C11 1_555 1_555
C12 C11 1_555 1_555
H15 C12 1_555 1_555
C13 C12 1_555 1_555
C14 C13 1_555 1_555
H16 C14 1_555 1_555
H17 C14 1_555 1_555
H18 C14 1_555 1_555
C15 C13 1_555 1_555
H22 C15 1_555 1_555
H23 C15 1_555 1_555
C16 C15 1_555 1_555
H24 C16 1_555 1_555
H25 C16 1_555 1_555
C17 C16 1_555 1_555
H26 C17 1_555 1_555
C18 C17 1_555 1_555
C19 C18 1_555 1_555
H27 C19 1_555 1_555
H28 C19 1_555 1_555
H29 C19 1_555 1_555
C20 C18 1_555 1_555
H30 C20 1_555 1_555
H31 C20 1_555 1_555
H32 C20 1_555 1_555
C7 C8 1_555 1_555
O5 C11 1_555 1_555

#END
