
#######################################################################
#
#                 Cambridge Crystallographic Data Centre
#                                CCDC 
#
#######################################################################
#
# If this CIF has been generated from an entry in the Cambridge 
# Structural Database, then it will include bibliographic, chemical, 
# crystal, experimental, refinement or atomic coordinate data resulting 
# from the CCDC's data processing and validation procedures.
#
#######################################################################

data_QEPXOY
_chemical_formula_moiety         'C24 H60 B8 Mg1 N2 Si2,C6 H6'
_chemical_name_systematic        
"(Di-n-butyl-bis(trimethylsilyl)-tetracarbadodecaborane)-(N,N,N',N'-tetramethylethylenediamine)-magnesium benzene solvate"
_symmetry_cell_setting           monoclinic
_symmetry_space_group_name_H-M   'P 21/n'
_symmetry_Int_Tables_number      14
_space_group_name_Hall           '-P 2yn'
loop_
_symmetry_equiv_pos_site_id
_symmetry_equiv_pos_as_xyz
1 x,y,z
2 1/2-x,1/2+y,1/2-z
3 -x,-y,-z
4 1/2+x,1/2-y,1/2+z
_cell_length_a                   14.633(3)
_cell_length_b                   16.672(3)
_cell_length_c                   16.970(3)
_cell_angle_alpha                90
_cell_angle_beta                 102.860(10)
_cell_angle_gamma                90
_cell_volume                     4036.18
_chemical_melting_point          '200 deg.C'
_cell_formula_units_Z            4
loop_
_atom_site_label
_atom_site_type_symbol
_atom_site_fract_x
_atom_site_fract_y
_atom_site_fract_z
Mg1 Mg -0.2143(1) 0.7295(1) 0.8025(1)
Si1 Si 0.0838(1) 0.5975(1) 0.8704(1)
Si2 Si 0.1372(1) 0.9156(1) 0.8905(1)
C1 C -0.1071(4) 0.7767(4) 0.7327(3)
B1 B -0.0337(5) 0.8520(4) 0.7697(5)
B2 B -0.0476(5) 0.7042(4) 0.7674(5)
C2 C 0.0027(4) 0.6854(4) 0.8569(3)
B3 B -0.1527(5) 0.8540(4) 0.7761(4)
B4 B -0.1590(5) 0.8466(5) 0.8791(5)
C3 C -0.1230(4) 0.7671(4) 0.9325(4)
C4 C 0.0295(4) 0.8498(4) 0.8655(3)
B5 B 0.0545(5) 0.7622(5) 0.9000(4)
B6 B -0.0554(5) 0.6988(5) 0.9250(4)
B7 B -0.0378(5) 0.8415(5) 0.9362(5)
B8 B -0.0708(5) 0.9032(5) 0.8492(4)
C5 C 0.1784(5) 0.6165(5) 0.8153(4)
C6 C 0.0254(5) 0.5011(4) 0.8288(5)
C7 C 0.1401(5) 0.5768(5) 0.9779(4)
C8 C 0.1149(5) 1.0209(4) 0.8515(5)
C9 C 0.2248(5) 0.8715(5) 0.8385(4)
C10 C 0.1848(5) 0.9219(4) 1.0021(4)
C11 C -0.1417(4) 0.7779(4) 0.6396(3)
C12 C -0.0713(5) 0.7643(4) 0.5885(3)
C13 C -0.1147(5) 0.7688(5) 0.4991(4)
C14 C -0.0466(6) 0.7599(6) 0.4451(4)
C15 C -0.1552(5) 0.7673(5) 1.0147(4)
C16 C -0.2467(10) 0.7134(12) 1.0083(5)
C17 C -0.2607(9) 0.6935(7) 1.0968(8)
C18 C -0.2843(16) 0.7741(10) 1.1390(10)
N1 N -0.2600(4) 0.6058(3) 0.7899(3)
N2 N -0.3638(4) 0.7511(3) 0.7486(4)
C19 C -0.3641(5) 0.6091(6) 0.7714(7)
C20 C -0.4074(7) 0.6732(6) 0.7435(9)
C21 C -0.2286(5) 0.5552(4) 0.8615(4)
C22 C -0.2267(5) 0.5687(4) 0.7214(4)
C23 C -0.3838(5) 0.7893(5) 0.6681(5)
C24 C -0.4036(5) 0.8052(6) 0.8003(5)
H1 H -0.0049 0.8953 0.7238
H2 H -0.0339 0.6504 0.7282
H3 H -0.2133 0.8889 0.7302
H4 H -0.2111 0.8873 0.9056
H5 H 0.1110 0.7608 0.9541
H6 H -0.0429 0.6538 0.9831
H7 H -0.0175 0.8713 0.9937
H8 H -0.0692 0.9757 0.8577
H9 H 0.2105 0.6650 0.8354
H10 H 0.2220 0.5726 0.8237
H11 H 0.1515 0.6220 0.7586
H12 H -0.0042 0.5091 0.7729
H13 H 0.0715 0.4593 0.8332
H14 H -0.0208 0.4859 0.8582
H15 H 0.1706 0.6249 1.0014
H16 H 0.0933 0.5613 1.0065
H17 H 0.1856 0.5347 0.9815
H18 H 0.0901 1.0187 0.7942
H19 H 0.0703 1.0464 0.8771
H20 H 0.1722 1.0511 0.8625
H21 H 0.1995 0.8694 0.7813
H22 H 0.2801 0.9042 0.8493
H23 H 0.2404 0.8183 0.8586
H24 H 0.1969 0.8685 1.0229
H25 H 0.2420 0.9521 1.0130
H26 H 0.1401 0.9474 1.0275
H27 H -0.1688 0.8299 0.6257
H28 H -0.1909 0.7391 0.6245
H29 H -0.0438 0.7122 0.6009
H30 H -0.0225 0.8036 0.6011
H31 H -0.1466 0.8192 0.4878
H32 H -0.1603 0.7267 0.4858
H33 H -0.0774 0.7629 0.3890
H34 H -0.0016 0.8024 0.4579
H35 H -0.0154 0.7092 0.4559
H36 H -0.3821 0.5994 0.8216
H37 H -0.3869 0.5647 0.7365
H38 H -0.4301 0.6619 0.6870
H39 H -0.4615 0.6785 0.7663
H40 H -0.2524 0.5019 0.8500
H41 H -0.1613 0.5539 0.8752
H42 H -0.2512 0.5768 0.9060
H43 H -0.2466 0.5138 0.7156
H44 H -0.2526 0.5974 0.6725
H45 H -0.1596 0.5710 0.7321
H46 H -0.4500 0.7963 0.6485
H47 H -0.3534 0.8406 0.6719
H48 H -0.3598 0.7556 0.6315
H49 H -0.4687 0.8157 0.7780
H50 H -0.3968 0.7804 0.8524
H51 H -0.3693 0.8547 0.8060
C25 C -0.0943(7) 1.0031(7) 0.4815(10)
C26 C -0.0448(11) 1.0160(6) 0.4243(7)
C27 C -0.0493(11) 0.9857(6) 0.5579(9)
H52 H -0.1615 1.0033 0.4673
H53 H -0.0766 1.0274 0.3696
H54 H -0.0842 0.9758 0.5986
C27B C 0.0493(11) 1.0143(6) 0.4421(9)
C25B C 0.0943(7) 0.9969(7) 0.5185(10)
C26B C 0.0448(11) 0.9840(6) 0.5757(7)
H53B H 0.0766 0.9726 0.6304
H52B H 0.1615 0.9967 0.5327
H54B H 0.0842 1.0242 0.4014
C28 C -0.0423(12) 0.5004(9) 0.5620(9)
C29 C 0.0415(12) 0.5362(9) 0.5688(8)
C30 C -0.0840(7) 0.4637(7) 0.4944(10)
H55 H -0.0729 0.4985 0.6065
H56 H 0.0702 0.5620 0.6188
H57 H -0.1440 0.4383 0.4878
C30B C 0.0840(7) 0.5363(7) 0.5056(10)
C28B C 0.0423(12) 0.4996(9) 0.4380(9)
C29B C -0.0415(12) 0.4638(9) 0.4312(8)
H56B H -0.0702 0.4380 0.3812
H55B H 0.0729 0.5015 0.3935
H57B H 0.1440 0.5617 0.5122
C31? C -0.2152(19) 0.6883(10) 1.0198(11)
C32? C -0.2599(10) 0.7353(18) 1.0047(7)
C33? C -0.2890(8) 0.7389(10) 1.0898(8)
C34? C -0.2002(13) 0.7184(14) 1.1603(9)
loop_
_geom_bond_atom_site_label_1
_geom_bond_atom_site_label_2
_geom_bond_site_symmetry_1
_geom_bond_site_symmetry_2
Mg1 C1 1_555 1_555
Si1 C2 1_555 1_555
Si2 C4 1_555 1_555
C1 B1 1_555 1_555
B1 B3 1_555 1_555
B2 C1 1_555 1_555
C2 B2 1_555 1_555
B3 Mg1 1_555 1_555
B4 Mg1 1_555 1_555
C3 Mg1 1_555 1_555
C4 B1 1_555 1_555
B5 C2 1_555 1_555
B6 C2 1_555 1_555
B7 B4 1_555 1_555
B8 B1 1_555 1_555
C5 Si1 1_555 1_555
C6 Si1 1_555 1_555
C7 Si1 1_555 1_555
C8 Si2 1_555 1_555
C9 Si2 1_555 1_555
C10 Si2 1_555 1_555
C11 C1 1_555 1_555
C12 C11 1_555 1_555
C13 C12 1_555 1_555
C14 C13 1_555 1_555
C15 C3 1_555 1_555
C16 C15 1_555 1_555
C17 C16 1_555 1_555
C18 C17 1_555 1_555
N1 Mg1 1_555 1_555
N2 Mg1 1_555 1_555
C19 N1 1_555 1_555
C20 N2 1_555 1_555
C21 N1 1_555 1_555
C22 N1 1_555 1_555
C23 N2 1_555 1_555
C24 N2 1_555 1_555
H1 B1 1_555 1_555
H2 B2 1_555 1_555
H3 B3 1_555 1_555
H4 B4 1_555 1_555
H5 B5 1_555 1_555
H6 B6 1_555 1_555
H7 B7 1_555 1_555
H8 B8 1_555 1_555
H9 C5 1_555 1_555
H10 C5 1_555 1_555
H11 C5 1_555 1_555
H12 C6 1_555 1_555
H13 C6 1_555 1_555
H14 C6 1_555 1_555
H15 C7 1_555 1_555
H16 C7 1_555 1_555
H17 C7 1_555 1_555
H18 C8 1_555 1_555
H19 C8 1_555 1_555
H20 C8 1_555 1_555
H21 C9 1_555 1_555
H22 C9 1_555 1_555
H23 C9 1_555 1_555
H24 C10 1_555 1_555
H25 C10 1_555 1_555
H26 C10 1_555 1_555
H27 C11 1_555 1_555
H28 C11 1_555 1_555
H29 C12 1_555 1_555
H30 C12 1_555 1_555
H31 C13 1_555 1_555
H32 C13 1_555 1_555
H33 C14 1_555 1_555
H34 C14 1_555 1_555
H35 C14 1_555 1_555
H36 C19 1_555 1_555
H37 C19 1_555 1_555
H38 C20 1_555 1_555
H39 C20 1_555 1_555
H40 C21 1_555 1_555
H41 C21 1_555 1_555
H42 C21 1_555 1_555
H43 C22 1_555 1_555
H44 C22 1_555 1_555
H45 C22 1_555 1_555
H46 C23 1_555 1_555
H47 C23 1_555 1_555
H48 C23 1_555 1_555
H49 C24 1_555 1_555
H50 C24 1_555 1_555
H51 C24 1_555 1_555
C25 C26 1_555 1_555
C26 H53 1_555 1_555
C27 C25 1_555 1_555
H52 C25 1_555 1_555
H54 C27 1_555 1_555
C28 C29 1_555 1_555
C29 H56 1_555 1_555
C30 C28 1_555 1_555
H55 C28 1_555 1_555
H57 C30 1_555 1_555
C27B C26 1_555 1_555
C25B C27B 1_555 1_555
C26B C27 1_555 1_555
H53B C26B 1_555 1_555
H52B C25B 1_555 1_555
H54B C27B 1_555 1_555
C30B C29 1_555 1_555
C28B C30B 1_555 1_555
C29B C30 1_555 1_555
H56B C29B 1_555 1_555
H55B C28B 1_555 1_555
H57B C30B 1_555 1_555
C1 B3 1_555 1_555
B3 B4 1_555 1_555
B3 B8 1_555 1_555
B4 C3 1_555 1_555
B4 B8 1_555 1_555
C3 B6 1_555 1_555
C3 B7 1_555 1_555
C4 B5 1_555 1_555
C4 B7 1_555 1_555
C4 B8 1_555 1_555
B5 B6 1_555 1_555
B5 B7 1_555 1_555
B7 B8 1_555 1_555
C19 C20 1_555 1_555
C25B C26B 1_555 1_555
C28B C29B 1_555 1_555

#END
