
#######################################################################
#
#                 Cambridge Crystallographic Data Centre
#                                CCDC 
#
#######################################################################
#
# If this CIF has been generated from an entry in the Cambridge 
# Structural Database, then it will include bibliographic, chemical, 
# crystal, experimental, refinement or atomic coordinate data resulting 
# from the CCDC's data processing and validation procedures.
#
#######################################################################

data_QEQBIA
_chemical_formula_moiety         'C37 H27 F1 N2'
_chemical_name_systematic        
2-(2-fluorophenyl)-1-(1H-indol-3-yl)-3,3-diphenyl-1,2,3,4-tetrahydrocyclopenta[b]indole
_symmetry_cell_setting           monoclinic
_symmetry_space_group_name_H-M   'P 21'
_symmetry_Int_Tables_number      4
_space_group_name_Hall           'P 2yb'
loop_
_symmetry_equiv_pos_site_id
_symmetry_equiv_pos_as_xyz
1 x,y,z
2 -x,1/2+y,-z
_cell_length_a                   10.3153(2)
_cell_length_b                   10.0731(2)
_cell_length_c                   28.3652(5)
_cell_angle_alpha                90
_cell_angle_beta                 91.5730(10)
_cell_angle_gamma                90
_cell_volume                     2946.23
_exptl_crystal_colour            colorless
_exptl_crystal_description       block
_cell_formula_units_Z            4
loop_
_atom_site_label
_atom_site_type_symbol
_atom_site_fract_x
_atom_site_fract_y
_atom_site_fract_z
F1 F 0.5320(2) 0.7232(3) 0.57276(10)
N1 N 0.0240(3) 0.6735(2) 0.68745(8)
H1 H -0.0255 0.7421 0.6853
N2 N 0.5840(3) 0.4654(3) 0.71805(9)
H2 H 0.6265 0.4798 0.7441
C1 C 0.2918(3) 0.4930(2) 0.64051(9)
H3 H 0.2650 0.4179 0.6206
C2 C 0.3017(3) 0.6225(3) 0.60919(9)
H4 H 0.3716 0.6753 0.6239
C3 C 0.1731(3) 0.7079(3) 0.61495(9)
C4 C 0.1256(3) 0.6437(3) 0.65871(9)
C5 C 0.1840(3) 0.5292(2) 0.67224(9)
C6 C 0.1157(3) 0.4795(2) 0.71197(9)
C7 C 0.1245(3) 0.3662(3) 0.74074(10)
H5 H 0.1873 0.3020 0.7356
C8 C 0.0385(3) 0.3513(3) 0.77679(10)
H6 H 0.0447 0.2767 0.7960
C9 C -0.0571(3) 0.4452(3) 0.78504(10)
H7 H -0.1131 0.4326 0.8098
C10 C -0.0699(3) 0.5571(3) 0.75695(10)
H8 H -0.1339 0.6200 0.7623
C11 C 0.0162(3) 0.5721(3) 0.72048(9)
C12 C 0.4561(3) 0.4967(3) 0.70931(11)
H9 H 0.4019 0.5357 0.7310
C13 C 0.4199(3) 0.4626(3) 0.66443(9)
C14 C 0.5322(3) 0.4037(3) 0.64400(10)
C15 C 0.5575(3) 0.3481(3) 0.60016(12)
H10 H 0.4927 0.3437 0.5768
C16 C 0.6793(4) 0.2999(4) 0.59190(14)
H11 H 0.6965 0.2628 0.5627
C17 C 0.7771(4) 0.3057(4) 0.62634(15)
H12 H 0.8589 0.2731 0.6195
C18 C 0.7568(3) 0.3586(4) 0.67056(14)
H13 H 0.8224 0.3612 0.6937
C19 C 0.6326(3) 0.4078(3) 0.67881(11)
C20 C 0.3456(3) 0.5917(3) 0.55994(10)
C21 C 0.4611(3) 0.6415(3) 0.54393(12)
C22 C 0.5109(5) 0.6077(5) 0.50097(18)
H14 H 0.5893 0.6434 0.4916
C23 C 0.4440(6) 0.5211(5) 0.47220(15)
H15 H 0.4767 0.4974 0.4432
C24 C 0.3290(5) 0.4697(4) 0.48638(13)
H16 H 0.2832 0.4110 0.4669
C25 C 0.2797(3) 0.5046(3) 0.52986(11)
H17 H 0.2011 0.4689 0.5389
C26 C 0.0767(3) 0.6919(3) 0.57360(10)
C27 C 0.0934(4) 0.7592(4) 0.53134(11)
H18 H 0.1629 0.8172 0.5287
C28 C 0.0095(5) 0.7420(4) 0.49336(13)
H19 H 0.0231 0.7880 0.4655
C29 C -0.0948(4) 0.6571(5) 0.49627(14)
H20 H -0.1508 0.6448 0.4704
C30 C -0.1155(4) 0.5903(5) 0.53791(14)
H21 H -0.1863 0.5338 0.5404
C31 C -0.0296(3) 0.6084(4) 0.57606(12)
H22 H -0.0440 0.5631 0.6040
C32 C 0.1859(14) 0.8559(15) 0.6229(5)
C33 C 0.3008(11) 0.9203(8) 0.6249(3)
H23 H 0.3770 0.8738 0.6197
C34 C 0.3061(12) 1.0573(10) 0.6347(4)
H24 H 0.3851 1.1013 0.6379
C35 C 0.2067(15) 1.1147(14) 0.6387(5)
H25 H 0.2143 1.2058 0.6433
C36 C 0.0751(12) 1.0640(9) 0.6377(4)
H26 H 0.0028 1.1160 0.6436
C37 C 0.0686(11) 0.9335(9) 0.6272(3)
H27 H -0.0118 0.8931 0.6227
N3 N 0.0671(2) 0.2465(2) 0.91373(8)
H33 H 0.0215 0.1759 0.9171
N4 N 0.3364(2) 0.6950(2) 0.80169(8)
H34 H 0.2933 0.7519 0.7850
C44 C 0.3639(2) 0.3921(2) 0.87502(9)
H35 H 0.4300 0.3911 0.9005
C45 C 0.3692(2) 0.2570(2) 0.84704(8)
H36 H 0.3235 0.2745 0.8169
C46 C 0.2791(2) 0.1537(2) 0.87407(8)
C47 C 0.1885(2) 0.2539(2) 0.89461(9)
C48 C 0.2326(2) 0.3801(2) 0.89579(9)
C49 C 0.1345(3) 0.4617(3) 0.91597(9)
C50 C 0.1213(3) 0.5975(3) 0.92546(12)
H37 H 0.1881 0.6562 0.9190
C51 C 0.0089(4) 0.6424(4) 0.94432(14)
H38 H -0.0006 0.7323 0.9507
C52 C -0.0921(4) 0.5548(4) 0.95409(14)
H39 H -0.1681 0.5883 0.9664
C53 C -0.0822(3) 0.4191(4) 0.94596(13)
H40 H -0.1488 0.3609 0.9531
C54 C 0.0324(3) 0.3748(3) 0.92658(10)
C55 C 0.2859(3) 0.5833(3) 0.82226(10)
H41 H 0.1991 0.5584 0.8206
C56 C 0.3813(2) 0.5149(2) 0.84535(9)
C57 C 0.4986(2) 0.5880(2) 0.83947(9)
C58 C 0.6273(3) 0.5728(3) 0.85606(11)
H42 H 0.6514 0.4991 0.8740
C59 C 0.7175(3) 0.6689(3) 0.84537(13)
H43 H 0.8028 0.6598 0.8564
C60 C 0.6824(3) 0.7795(3) 0.81818(14)
H44 H 0.7448 0.8428 0.8115
C61 C 0.5576(3) 0.7966(3) 0.80113(12)
H45 H 0.5349 0.8700 0.7828
C62 C 0.4663(3) 0.7005(3) 0.81218(10)
C63 C 0.5037(2) 0.2144(2) 0.83408(10)
C64 C 0.5353(3) 0.1950(3) 0.78716(12)
C65 C 0.6585(4) 0.1605(3) 0.77354(16)
H46 H 0.6749 0.1488 0.7417
C66 C 0.7550(4) 0.1439(4) 0.8061(2)
H47 H 0.8373 0.1188 0.7969
C67 C 0.7302(3) 0.1645(4) 0.85347(18)
H48 H 0.7962 0.1551 0.8762
C68 C 0.6061(3) 0.1992(3) 0.86639(13)
H49 H 0.5907 0.2130 0.8982
C69 C 0.2043(2) 0.0556(2) 0.84179(9)
C70 C 0.2143(3) 0.0495(3) 0.79328(9)
H50 H 0.2740 0.1033 0.7784
C71 C 0.1364(3) -0.0360(3) 0.76650(11)
H51 H 0.1441 -0.0390 0.7339
C72 C 0.0483(3) -0.1160(3) 0.78810(13)
H52 H -0.0057 -0.1710 0.7700
C73 C 0.0397(3) -0.1149(3) 0.83626(13)
H53 H -0.0181 -0.1713 0.8510
C74 C 0.1168(3) -0.0301(3) 0.86277(11)
H54 H 0.1103 -0.0300 0.8954
C75 C 0.3511(2) 0.0746(2) 0.91296(8)
C76 C 0.4098(3) -0.0458(3) 0.90230(11)
H55 H 0.4091 -0.0753 0.8712
C77 C 0.4685(4) -0.1213(4) 0.93679(13)
H56 H 0.5062 -0.2018 0.9289
C78 C 0.4727(4) -0.0797(4) 0.98296(13)
H57 H 0.5111 -0.1324 1.0064
C79 C 0.4187(3) 0.0415(4) 0.99401(11)
H58 H 0.4235 0.0724 1.0249
C80 C 0.3575(3) 0.1168(3) 0.95935(9)
H59 H 0.3199 0.1973 0.9673
F2 F 0.4498(3) 0.2124(4) 0.75359(11)
C38? C 0.2197(17) 0.858(2) 0.6261(8)
C39? C 0.3330(8) 0.8868(9) 0.6524(4)
H28? H 0.3881 0.8187 0.6623
C40? C 0.3629(10) 1.0192(10) 0.6638(5)
H29? H 0.4426 1.0399 0.6780
C41? C 0.2722(13) 1.1211(9) 0.6536(3)
H30? H 0.2951 1.2089 0.6595
C42? C 0.1481(14) 1.0924(11) 0.6347(4)
H31? H 0.0809 1.1538 0.6327
C43? C 0.1371(11) 0.9567(9) 0.6188(4)
H32? H 0.0625 0.9361 0.6011
H60? H 0.4706 0.2057 0.7640
F3? F 0.5972(4) 0.2294(5) 0.90970(17)
loop_
_geom_bond_atom_site_label_1
_geom_bond_atom_site_label_2
_geom_bond_site_symmetry_1
_geom_bond_site_symmetry_2
F1 C21 1_555 1_555
N1 H1 1_555 1_555
N2 H2 1_555 1_555
C1 H3 1_555 1_555
C2 C1 1_555 1_555
H4 C2 1_555 1_555
C3 C2 1_555 1_555
C4 N1 1_555 1_555
C5 C1 1_555 1_555
C6 C5 1_555 1_555
C7 C6 1_555 1_555
H5 C7 1_555 1_555
C8 C7 1_555 1_555
H6 C8 1_555 1_555
C9 C8 1_555 1_555
H7 C9 1_555 1_555
C10 C9 1_555 1_555
H8 C10 1_555 1_555
C11 N1 1_555 1_555
C12 N2 1_555 1_555
H9 C12 1_555 1_555
C13 C1 1_555 1_555
C14 C13 1_555 1_555
C15 C14 1_555 1_555
H10 C15 1_555 1_555
C16 C15 1_555 1_555
H11 C16 1_555 1_555
C17 C16 1_555 1_555
H12 C17 1_555 1_555
C18 C17 1_555 1_555
H13 C18 1_555 1_555
C19 N2 1_555 1_555
C20 C2 1_555 1_555
C21 C20 1_555 1_555
C22 C21 1_555 1_555
H14 C22 1_555 1_555
C23 C22 1_555 1_555
H15 C23 1_555 1_555
C24 C23 1_555 1_555
H16 C24 1_555 1_555
C25 C20 1_555 1_555
H17 C25 1_555 1_555
C26 C3 1_555 1_555
C27 C26 1_555 1_555
H18 C27 1_555 1_555
C28 C27 1_555 1_555
H19 C28 1_555 1_555
C29 C28 1_555 1_555
H20 C29 1_555 1_555
C30 C29 1_555 1_555
H21 C30 1_555 1_555
C31 C26 1_555 1_555
H22 C31 1_555 1_555
C32 C3 1_555 1_555
C33 C32 1_555 1_555
H23 C33 1_555 1_555
C34 C33 1_555 1_555
H24 C34 1_555 1_555
C35 C34 1_555 1_555
H25 C35 1_555 1_555
C36 C35 1_555 1_555
H26 C36 1_555 1_555
C37 C32 1_555 1_555
H27 C37 1_555 1_555
N3 H33 1_555 1_555
N4 H34 1_555 1_555
C44 H35 1_555 1_555
C45 C44 1_555 1_555
H36 C45 1_555 1_555
C46 C45 1_555 1_555
C47 N3 1_555 1_555
C48 C44 1_555 1_555
C49 C48 1_555 1_555
C50 C49 1_555 1_555
H37 C50 1_555 1_555
C51 C50 1_555 1_555
H38 C51 1_555 1_555
C52 C51 1_555 1_555
H39 C52 1_555 1_555
C53 C52 1_555 1_555
H40 C53 1_555 1_555
C54 N3 1_555 1_555
C55 N4 1_555 1_555
H41 C55 1_555 1_555
C56 C44 1_555 1_555
C57 C56 1_555 1_555
C58 C57 1_555 1_555
H42 C58 1_555 1_555
C59 C58 1_555 1_555
H43 C59 1_555 1_555
C60 C59 1_555 1_555
H44 C60 1_555 1_555
C61 C60 1_555 1_555
H45 C61 1_555 1_555
C62 N4 1_555 1_555
C63 C45 1_555 1_555
C64 C63 1_555 1_555
C65 C64 1_555 1_555
H46 C65 1_555 1_555
C66 C65 1_555 1_555
H47 C66 1_555 1_555
C67 C66 1_555 1_555
H48 C67 1_555 1_555
C68 C63 1_555 1_555
H49 C68 1_555 1_555
C69 C46 1_555 1_555
C70 C69 1_555 1_555
H50 C70 1_555 1_555
C71 C70 1_555 1_555
H51 C71 1_555 1_555
C72 C71 1_555 1_555
H52 C72 1_555 1_555
C73 C72 1_555 1_555
H53 C73 1_555 1_555
C74 C69 1_555 1_555
H54 C74 1_555 1_555
C75 C46 1_555 1_555
C76 C75 1_555 1_555
H55 C76 1_555 1_555
C77 C76 1_555 1_555
H56 C77 1_555 1_555
C78 C77 1_555 1_555
H57 C78 1_555 1_555
C79 C78 1_555 1_555
H58 C79 1_555 1_555
C80 C75 1_555 1_555
H59 C80 1_555 1_555
F2 C64 1_555 1_555
C3 C4 1_555 1_555
C4 C5 1_555 1_555
C6 C11 1_555 1_555
C10 C11 1_555 1_555
C12 C13 1_555 1_555
C14 C19 1_555 1_555
C18 C19 1_555 1_555
C24 C25 1_555 1_555
C30 C31 1_555 1_555
C36 C37 1_555 1_555
C46 C47 1_555 1_555
C47 C48 1_555 1_555
C49 C54 1_555 1_555
C53 C54 1_555 1_555
C55 C56 1_555 1_555
C57 C62 1_555 1_555
C61 C62 1_555 1_555
C67 C68 1_555 1_555
C73 C74 1_555 1_555
C79 C80 1_555 1_555

#END
