
#######################################################################
#
#                 Cambridge Crystallographic Data Centre
#                                CCDC 
#
#######################################################################
#
# If this CIF has been generated from an entry in the Cambridge 
# Structural Database, then it will include bibliographic, chemical, 
# crystal, experimental, refinement or atomic coordinate data resulting 
# from the CCDC's data processing and validation procedures.
#
#######################################################################

data_QEQPAE
_chemical_formula_moiety         'C19 H25 N1 O2'
_chemical_name_systematic        
17\b-cyano-17\a-hydroxy-19-norandrost-4-en-3-one
_symmetry_cell_setting           orthorhombic
_symmetry_space_group_name_H-M   'P 21 21 21'
_symmetry_Int_Tables_number      19
_space_group_name_Hall           'P 2ac 2ab'
loop_
_symmetry_equiv_pos_site_id
_symmetry_equiv_pos_as_xyz
1 x,y,z
2 1/2-x,-y,1/2+z
3 -x,1/2+y,1/2-z
4 1/2+x,1/2-y,-z
_cell_length_a                   7.123(5)
_cell_length_b                   14.282(3)
_cell_length_c                   16.273(4)
_cell_angle_alpha                90
_cell_angle_beta                 90
_cell_angle_gamma                90
_cell_volume                     1655.46
_exptl_crystal_colour            colorless
_exptl_crystal_description       parallelepiped
_chemical_melting_point          '220-222 deg.C'
_cell_formula_units_Z            4
_exptl_crystal_recrystallization_method 'ethyl acetate'
loop_
_atom_site_label
_atom_site_type_symbol
_atom_site_fract_x
_atom_site_fract_y
_atom_site_fract_z
O1 O 0.1462(4) 0.52336(14) 0.72515(13)
O2 O -0.0161(3) 1.03342(15) 0.34634(11)
H1 H -0.1121 1.0110 0.3267
N1 N -0.3384(6) 1.2024(2) 0.37474(19)
C1 C -0.1479(4) 0.70196(18) 0.64543(19)
H2 H -0.2803 0.7179 0.6450
H3 H -0.1164 0.6770 0.5917
C2 C -0.1143(5) 0.6266(2) 0.7098(2)
H4 H -0.1588 0.6484 0.7628
H5 H -0.1843 0.5707 0.6954
C3 C 0.0904(5) 0.6037(2) 0.71526(17)
C4 C 0.2155(5) 0.68262(19) 0.71086(17)
H6 H 0.3410 0.6730 0.7240
C5 C 0.1629(4) 0.76866(19) 0.68917(16)
C6 C 0.2949(5) 0.8507(2) 0.69444(19)
H7 H 0.4209 0.8279 0.7050
H8 H 0.2583 0.8901 0.7403
C7 C 0.2960(4) 0.90898(19) 0.61620(18)
H9 H 0.3489 0.8724 0.5716
H10 H 0.3745 0.9637 0.6241
C8 C 0.0983(4) 0.93982(17) 0.59337(16)
H11 H 0.0486 0.9781 0.6383
C9 C -0.0293(3) 0.85399(17) 0.58301(15)
H12 H 0.0243 0.8163 0.5385
C10 C -0.0334(4) 0.79099(18) 0.66031(16)
H13 H -0.0956 0.8263 0.7042
C11 C -0.2281(4) 0.88148(19) 0.55608(17)
H14 H -0.2984 0.8251 0.5436
H15 H -0.2905 0.9127 0.6014
C12 C -0.2316(4) 0.94585(18) 0.48102(15)
H16 H -0.1888 0.9115 0.4331
H17 H -0.3594 0.9662 0.4708
C13 C -0.1071(4) 1.03089(17) 0.49388(15)
C14 C 0.0926(4) 0.99750(18) 0.51505(16)
H18 H 0.1316 0.9558 0.4704
C15 C 0.2125(5) 1.0856(2) 0.5078(2)
H19 H 0.3402 1.0699 0.4922
H20 H 0.2150 1.1196 0.5593
C16 C 0.1164(5) 1.1437(2) 0.4403(2)
H21 H 0.1990 1.1507 0.3933
H22 H 0.0847 1.2055 0.4608
C17 C -0.0631(5) 1.08990(18) 0.41573(17)
C18 C -0.1904(4) 1.09602(17) 0.55951(13)
H23 H -0.2026 1.0626 0.6104
H24 H -0.3117 1.1174 0.5420
H25 H -0.1089 1.1488 0.5672
C19 C -0.2190(5) 1.15363(16) 0.39231(13)
loop_
_geom_bond_atom_site_label_1
_geom_bond_atom_site_label_2
_geom_bond_site_symmetry_1
_geom_bond_site_symmetry_2
O1 C3 1_555 1_555
O2 H1 1_555 1_555
N1 C19 1_555 1_555
C1 H2 1_555 1_555
H3 C1 1_555 1_555
C2 C1 1_555 1_555
H4 C2 1_555 1_555
H5 C2 1_555 1_555
C3 C2 1_555 1_555
C4 C3 1_555 1_555
H6 C4 1_555 1_555
C5 C4 1_555 1_555
C6 C5 1_555 1_555
H7 C6 1_555 1_555
H8 C6 1_555 1_555
C7 C6 1_555 1_555
H9 C7 1_555 1_555
H10 C7 1_555 1_555
C8 C7 1_555 1_555
H11 C8 1_555 1_555
C9 C8 1_555 1_555
H12 C9 1_555 1_555
C10 C1 1_555 1_555
H13 C10 1_555 1_555
C11 C9 1_555 1_555
H14 C11 1_555 1_555
H15 C11 1_555 1_555
C12 C11 1_555 1_555
H16 C12 1_555 1_555
H17 C12 1_555 1_555
C13 C12 1_555 1_555
C14 C8 1_555 1_555
H18 C14 1_555 1_555
C15 C14 1_555 1_555
H19 C15 1_555 1_555
H20 C15 1_555 1_555
C16 C15 1_555 1_555
H21 C16 1_555 1_555
H22 C16 1_555 1_555
C17 O2 1_555 1_555
C18 C13 1_555 1_555
H23 C18 1_555 1_555
H24 C18 1_555 1_555
H25 C18 1_555 1_555
C19 C17 1_555 1_555
C5 C10 1_555 1_555
C9 C10 1_555 1_555
C13 C14 1_555 1_555
C13 C17 1_555 1_555
C16 C17 1_555 1_555

#END
