
#######################################################################
#
#                 Cambridge Crystallographic Data Centre
#                                CCDC 
#
#######################################################################
#
# If this CIF has been generated from an entry in the Cambridge 
# Structural Database, then it will include bibliographic, chemical, 
# crystal, experimental, refinement or atomic coordinate data resulting 
# from the CCDC's data processing and validation procedures.
#
#######################################################################

data_QEQRUC
_chemical_formula_moiety         'C48 H54 N4'
_chemical_name_systematic        
3,4,9,10,17,18,23,24-octaethyl-31,32,35,36-tetraazaheptacyclo[24.2.2.2^12,15^.1^2,5^.1^8,11^.1^16,19^.1^22,25^]hexatriaconta-1,3,5(36),6,8,10,12,14,16(32),17,19,21,23,25,27,29,33-heptadecaene
_symmetry_cell_setting           triclinic
_symmetry_space_group_name_H-M   'P -1'
_symmetry_Int_Tables_number      2
_space_group_name_Hall           '-P 1'
loop_
_symmetry_equiv_pos_site_id
_symmetry_equiv_pos_as_xyz
1 x,y,z
2 -x,-y,-z
_cell_length_a                   8.5480(7)
_cell_length_b                   8.9238(6)
_cell_length_c                   13.2254(8)
_cell_angle_alpha                109.258(5)
_cell_angle_beta                 102.157(6)
_cell_angle_gamma                98.121(6)
_cell_volume                     906.437
_exptl_crystal_colour            'dark red'
_exptl_crystal_description       prisms
_cell_formula_units_Z            1
_exptl_crystal_recrystallization_method dichloromethane/hexanes
loop_
_atom_site_label
_atom_site_type_symbol
_atom_site_fract_x
_atom_site_fract_y
_atom_site_fract_z
C1 C 0.5530(2) 0.72484(19) 0.81267(13)
C2 C 0.5999(2) 0.80242(19) 0.93439(13)
C3 C 0.4623(2) 0.76177(19) 0.96597(13)
C4 C 0.3353(2) 0.66042(19) 0.86476(13)
C5 C 0.1775(2) 0.5908(2) 0.86551(13)
H1 H 0.160450 0.622540 0.937601
C6 C 0.0419(2) 0.4849(2) 0.78172(13)
H2 H -0.051712 0.462610 0.806909
C7 C 0.0166(2) 0.40419(19) 0.66671(13)
C8 C -0.1323(2) 0.29983(19) 0.58933(13)
C9 C -0.1049(2) 0.24405(19) 0.48502(13)
C10 C 0.0627(2) 0.31552(19) 0.49844(13)
C11 C 0.1574(2) 0.29543(18) 0.41910(13)
C12 C 0.3310(2) 0.33244(18) 0.45320(13)
H3 H 0.385785 0.366332 0.530142
C13 C 0.4232(2) 0.32095(19) 0.37853(13)
H4 H 0.539661 0.346317 0.405045
C14 C 0.3480(2) 0.27195(18) 0.26248(13)
C15 C 0.1744(2) 0.2287(2) 0.22856(13)
H5 H 0.119305 0.190800 0.151403
C16 C 0.0823(2) 0.23936(19) 0.30331(13)
H6 H -0.034234 0.208448 0.276543
C17 C 0.7630(2) 0.9057(2) 1.01337(13)
H7 H 0.743268 0.986790 1.078575
H8 H 0.819472 0.965994 0.975507
C18 C 0.8760(2) 0.8055(2) 1.05426(14)
H9 H 0.823289 0.749762 1.095173
H10 H 0.980835 0.878416 1.103505
H11 H 0.895857 0.724631 0.990149
C19 C 0.4446(2) 0.8022(2) 1.08187(13)
H12 H 0.337562 0.831418 1.084072
H13 H 0.532557 0.897966 1.133667
C20 C 0.4549(2) 0.6581(2) 1.12068(14)
H14 H 0.362589 0.565935 1.073239
H15 H 0.449972 0.691044 1.198135
H16 H 0.558625 0.625668 1.115372
C21 C -0.2868(2) 0.2533(2) 0.61954(14)
H17 H -0.382380 0.223375 0.553810
H18 H -0.299853 0.348571 0.679320
C22 C -0.2854(2) 0.1099(2) 0.65919(17)
H19 H -0.272069 0.015414 0.600387
H20 H -0.389282 0.081955 0.676230
H21 H -0.193873 0.140731 0.726269
C23 C -0.2253(2) 0.1148(2) 0.38281(13)
H22 H -0.235552 0.152894 0.319896
H23 H -0.334568 0.098201 0.396751
C24 C -0.1734(2) -0.0479(2) 0.35034(14)
H24 H -0.068641 -0.033779 0.331718
H25 H -0.257699 -0.129046 0.285580
H26 H -0.160738 -0.085111 0.412904
N1 N 0.39364(17) 0.64116(16) 0.77336(11)
N2 N 0.13165(17) 0.41142(16) 0.60878(11)
H27 H 0.242(3) 0.484(3) 0.648(2)
C1A C 0.4470(2) 0.27516(19) 0.18733(13)
C2A C 0.4001(2) 0.19758(19) 0.06561(13)
C3A C 0.5377(2) 0.23823(19) 0.03403(13)
C4A C 0.6647(2) 0.33958(19) 0.13524(13)
C5A C 0.8225(2) 0.4092(2) 0.13449(13)
H1A H 0.839550 0.377460 0.062399
C6A C 0.9581(2) 0.5151(2) 0.21828(13)
H2A H 1.051712 0.537390 0.193091
C7A C 0.9834(2) 0.59581(19) 0.33329(13)
C8A C 1.1323(2) 0.70017(19) 0.41067(13)
C9A C 1.1049(2) 0.75595(19) 0.51498(13)
C10A C 0.9373(2) 0.68448(19) 0.50156(13)
C11A C 0.8426(2) 0.70457(18) 0.58090(13)
C12A C 0.6690(2) 0.66756(18) 0.54680(13)
H3A H 0.614215 0.633668 0.469858
C13A C 0.5768(2) 0.67905(19) 0.62147(13)
H4A H 0.460339 0.653683 0.594955
C14A C 0.6520(2) 0.72805(18) 0.73752(13)
C15A C 0.8256(2) 0.7713(2) 0.77144(13)
H5A H 0.880695 0.809200 0.848597
C16A C 0.9177(2) 0.76064(19) 0.69669(13)
H6A H 1.034234 0.791552 0.723457
C17A C 0.2370(2) 0.0943(2) -0.01337(13)
H7A H 0.256732 0.013210 -0.078575
H8A H 0.180528 0.034006 0.024493
C18A C 0.1240(2) 0.1945(2) -0.05426(14)
H9A H 0.176711 0.250238 -0.095173
H10A H 0.019165 0.121584 -0.103505
H11A H 0.104143 0.275369 0.009851
C19A C 0.5554(2) 0.1978(2) -0.08187(13)
H12A H 0.662438 0.168582 -0.084072
H13A H 0.467443 0.102034 -0.133667
C20A C 0.5451(2) 0.3419(2) -0.12068(14)
H14A H 0.637411 0.434065 -0.073239
H15A H 0.550028 0.308956 -0.198135
H16A H 0.441375 0.374332 -0.115372
C21A C 1.2868(2) 0.7467(2) 0.38046(14)
H17A H 1.382380 0.776625 0.446190
H18A H 1.299853 0.651429 0.320680
C22A C 1.2854(2) 0.8901(2) 0.34081(17)
H19A H 1.272069 0.984586 0.399613
H20A H 1.389282 0.918045 0.323770
H21A H 1.193873 0.859269 0.273731
C23A C 1.2253(2) 0.8852(2) 0.61719(13)
H22A H 1.235552 0.847106 0.680104
H23A H 1.334568 0.901799 0.603249
C24A C 1.1734(2) 1.0479(2) 0.64966(14)
H24A H 1.068641 1.033779 0.668282
H25A H 1.257699 1.129046 0.714420
H26A H 1.160738 1.085111 0.587096
N1A N 0.60636(17) 0.35884(16) 0.22664(11)
N2A N 0.86835(17) 0.58858(16) 0.39122(11)
H27A H 0.758(3) 0.516(3) 0.352(2)
loop_
_geom_bond_atom_site_label_1
_geom_bond_atom_site_label_2
_geom_bond_site_symmetry_1
_geom_bond_site_symmetry_2
C1 C2 1_555 1_555
C2 C3 1_555 1_555
C3 C4 1_555 1_555
C4 C5 1_555 1_555
C5 H1 1_555 1_555
C6 C5 1_555 1_555
H2 C6 1_555 1_555
C7 C6 1_555 1_555
C8 C7 1_555 1_555
C9 C8 1_555 1_555
C10 C9 1_555 1_555
C11 C10 1_555 1_555
C12 C11 1_555 1_555
H3 C12 1_555 1_555
C13 C12 1_555 1_555
H4 C13 1_555 1_555
C14 C13 1_555 1_555
C15 C14 1_555 1_555
H5 C15 1_555 1_555
C16 C11 1_555 1_555
H6 C16 1_555 1_555
C17 C2 1_555 1_555
H7 C17 1_555 1_555
H8 C17 1_555 1_555
C18 C17 1_555 1_555
H9 C18 1_555 1_555
H10 C18 1_555 1_555
H11 C18 1_555 1_555
C19 C3 1_555 1_555
H12 C19 1_555 1_555
H13 C19 1_555 1_555
C20 C19 1_555 1_555
H14 C20 1_555 1_555
H15 C20 1_555 1_555
H16 C20 1_555 1_555
C21 C8 1_555 1_555
H17 C21 1_555 1_555
H18 C21 1_555 1_555
C22 C21 1_555 1_555
H19 C22 1_555 1_555
H20 C22 1_555 1_555
H21 C22 1_555 1_555
C23 C9 1_555 1_555
H22 C23 1_555 1_555
H23 C23 1_555 1_555
C24 C23 1_555 1_555
H24 C24 1_555 1_555
H25 C24 1_555 1_555
H26 C24 1_555 1_555
N1 C1 1_555 1_555
N2 C7 1_555 1_555
H27 N2 1_555 1_555
C1A C14 1_555 1_555
C2A C1A 1_555 1_555
C3A C2A 1_555 1_555
C4A C3A 1_555 1_555
C5A C4A 1_555 1_555
H1A C5A 1_555 1_555
C6A C5A 1_555 1_555
H2A C6A 1_555 1_555
C7A C6A 1_555 1_555
C8A C7A 1_555 1_555
C9A C8A 1_555 1_555
C10A C9A 1_555 1_555
C11A C10A 1_555 1_555
C12A C11A 1_555 1_555
H3A C12A 1_555 1_555
C13A C12A 1_555 1_555
H4A C13A 1_555 1_555
C14A C1 1_555 1_555
C15A C14A 1_555 1_555
H5A C15A 1_555 1_555
C16A C11A 1_555 1_555
H6A C16A 1_555 1_555
C17A C2A 1_555 1_555
H7A C17A 1_555 1_555
H8A C17A 1_555 1_555
C18A C17A 1_555 1_555
H9A C18A 1_555 1_555
H10A C18A 1_555 1_555
H11A C18A 1_555 1_555
C19A C3A 1_555 1_555
H12A C19A 1_555 1_555
H13A C19A 1_555 1_555
C20A C19A 1_555 1_555
H14A C20A 1_555 1_555
H15A C20A 1_555 1_555
H16A C20A 1_555 1_555
C21A C8A 1_555 1_555
H17A C21A 1_555 1_555
H18A C21A 1_555 1_555
C22A C21A 1_555 1_555
H19A C22A 1_555 1_555
H20A C22A 1_555 1_555
H21A C22A 1_555 1_555
C23A C9A 1_555 1_555
H22A C23A 1_555 1_555
H23A C23A 1_555 1_555
C24A C23A 1_555 1_555
H24A C24A 1_555 1_555
H25A C24A 1_555 1_555
H26A C24A 1_555 1_555
N1A C1A 1_555 1_555
N2A C7A 1_555 1_555
H27A N2A 1_555 1_555
C4 N1 1_555 1_555
C10 N2 1_555 1_555
C15 C16 1_555 1_555
C4A N1A 1_555 1_555
C10A N2A 1_555 1_555
C13A C14A 1_555 1_555
C15A C16A 1_555 1_555

#END
