
#######################################################################
#
#                 Cambridge Crystallographic Data Centre
#                                CCDC 
#
#######################################################################
#
# If this CIF has been generated from an entry in the Cambridge 
# Structural Database, then it will include bibliographic, chemical, 
# crystal, experimental, refinement or atomic coordinate data resulting 
# from the CCDC's data processing and validation procedures.
#
#######################################################################

data_QEQSIR
_chemical_formula_moiety         'C27 H20 N2 O1,C3 H6 O2'
_chemical_name_systematic        
'1-[3-phenyl-5-(pyren-1-yl)-4,5-dihydro-1H-pyrazol-1-yl]ethan-1-one propanoic acid solvate'
_symmetry_cell_setting           orthorhombic
_symmetry_space_group_name_H-M   'P n a 21'
_symmetry_Int_Tables_number      33
_space_group_name_Hall           'P 2c -2n'
loop_
_symmetry_equiv_pos_site_id
_symmetry_equiv_pos_as_xyz
1 x,y,z
2 -x,-y,1/2+z
3 1/2-x,1/2+y,1/2+z
4 1/2+x,1/2-y,z
_cell_length_a                   10.5529(18)
_cell_length_b                   25.439(5)
_cell_length_c                   8.9279(15)
_cell_angle_alpha                90
_cell_angle_beta                 90
_cell_angle_gamma                90
_cell_volume                     2396.74
_exptl_crystal_colour            yellow
_exptl_crystal_description       needle
_cell_formula_units_Z            4
loop_
_atom_site_label
_atom_site_type_symbol
_atom_site_fract_x
_atom_site_fract_y
_atom_site_fract_z
C1 C 0.5452(2) 0.57301(11) 0.4809(3)
H1 H 0.5945 0.5490 0.5336
C2 C 0.5771(3) 0.62440(12) 0.4825(4)
H2 H 0.6475 0.6348 0.5377
C3 C 0.5071(3) 0.66320(11) 0.4026(3)
C4 C 0.4007(3) 0.64699(10) 0.3197(3)
C5 C 0.3654(2) 0.59251(9) 0.3165(3)
C6 C 0.4365(2) 0.55469(9) 0.3994(3)
C7 C 0.5394(4) 0.71679(13) 0.4022(5)
H3 H 0.6099 0.7281 0.4557
C8 C 0.4680(5) 0.75271(14) 0.3234(5)
H4 H 0.4903 0.7881 0.3249
C9 C 0.3646(5) 0.73679(13) 0.2429(5)
H5 H 0.3177 0.7618 0.1909
C10 C 0.3275(3) 0.68432(11) 0.2367(3)
C11 C 0.2215(3) 0.66615(13) 0.1517(4)
H6 H 0.1738 0.6903 0.0976
C12 C 0.1892(2) 0.61579(12) 0.1477(3)
H7 H 0.1202 0.6054 0.0899
C13 C 0.2587(2) 0.57689(9) 0.2310(3)
C14 C 0.2257(2) 0.52388(10) 0.2296(3)
H8 H 0.1569 0.5128 0.1726
C15 C 0.2933(2) 0.48767(9) 0.3112(3)
H9 H 0.2686 0.4526 0.3088
C16 C 0.3972(2) 0.50193(9) 0.3970(3)
C17 C 0.4675(2) 0.45986(9) 0.4853(3)
H10 H 0.5139 0.4760 0.5685
C18 C 0.5574(2) 0.42563(9) 0.3918(3)
H11 H 0.5575 0.4365 0.2877
H12 H 0.6432 0.4273 0.4304
C19 C 0.5031(2) 0.37136(9) 0.4089(3)
C20 C 0.2857(2) 0.42975(11) 0.6415(3)
C21 C 0.1974(3) 0.38623(12) 0.6797(4)
H13 H 0.1377 0.3981 0.7533
H14 H 0.2447 0.3571 0.7191
H15 H 0.1529 0.3753 0.5912
C22 C 0.5579(3) 0.32318(11) 0.3451(3)
C23 C 0.5097(3) 0.27436(12) 0.3817(4)
H16 H 0.4389 0.2718 0.4432
C24 C 0.5668(4) 0.22922(14) 0.3268(5)
H17 H 0.5341 0.1964 0.3516
C25 C 0.6695(4) 0.23265(18) 0.2376(6)
H18 H 0.7079 0.2022 0.2023
C26 C 0.7176(4) 0.28087(18) 0.1987(6)
H19 H 0.7877 0.2831 0.1359
C27 C 0.6621(3) 0.32582(13) 0.2527(5)
H20 H 0.6953 0.3584 0.2265
N1 N 0.3786(2) 0.41976(8) 0.5430(2)
N2 N 0.4036(2) 0.36906(8) 0.4915(3)
O1 O 0.27671(18) 0.47516(8) 0.6919(2)
C28 C 0.0141(5) 0.60897(19) 0.5423(4)
H21 H -0.0761 0.6054 0.5518
H22 H 0.0368 0.6091 0.4382
H23 H 0.0407 0.6414 0.5877
C29 C 0.0776(3) 0.56400(12) 0.6188(4)
H24 H 0.1686 0.5677 0.6072
H25 H 0.0525 0.5316 0.5698
C30 C 0.0473(3) 0.56002(11) 0.7813(3)
O2 O 0.1052(2) 0.52166(8) 0.8563(2)
H26 H 0.1518 0.5054 0.7994
O3 O -0.0256(2) 0.58843(9) 0.8452(3)
loop_
_geom_bond_atom_site_label_1
_geom_bond_atom_site_label_2
_geom_bond_site_symmetry_1
_geom_bond_site_symmetry_2
C1 H1 1_555 1_555
C2 C1 1_555 1_555
H2 C2 1_555 1_555
C3 C2 1_555 1_555
C4 C3 1_555 1_555
C5 C4 1_555 1_555
C6 C1 1_555 1_555
C7 C3 1_555 1_555
H3 C7 1_555 1_555
C8 C7 1_555 1_555
H4 C8 1_555 1_555
C9 C8 1_555 1_555
H5 C9 1_555 1_555
C10 C4 1_555 1_555
C11 C10 1_555 1_555
H6 C11 1_555 1_555
C12 C11 1_555 1_555
H7 C12 1_555 1_555
C13 C5 1_555 1_555
C14 C13 1_555 1_555
H8 C14 1_555 1_555
C15 C14 1_555 1_555
H9 C15 1_555 1_555
C16 C6 1_555 1_555
C17 C16 1_555 1_555
H10 C17 1_555 1_555
C18 C17 1_555 1_555
H11 C18 1_555 1_555
H12 C18 1_555 1_555
C19 C18 1_555 1_555
C20 C21 1_555 1_555
C21 H13 1_555 1_555
H14 C21 1_555 1_555
H15 C21 1_555 1_555
C22 C19 1_555 1_555
C23 C22 1_555 1_555
H16 C23 1_555 1_555
C24 C23 1_555 1_555
H17 C24 1_555 1_555
C25 C24 1_555 1_555
H18 C25 1_555 1_555
C26 C25 1_555 1_555
H19 C26 1_555 1_555
C27 C22 1_555 1_555
H20 C27 1_555 1_555
N1 C17 1_555 1_555
N2 C19 1_555 1_555
O1 C20 1_555 1_555
C28 H21 1_555 1_555
H22 C28 1_555 1_555
H23 C28 1_555 1_555
C29 C28 1_555 1_555
H24 C29 1_555 1_555
H25 C29 1_555 1_555
C30 C29 1_555 1_555
O2 C30 1_555 1_555
H26 O2 1_555 1_555
O3 C30 1_555 1_555
C5 C6 1_555 1_555
C9 C10 1_555 1_555
C12 C13 1_555 1_555
C15 C16 1_555 1_555
C20 N1 1_555 1_555
C26 C27 1_555 1_555
N1 N2 1_555 1_555

#END
