
#######################################################################
#
#                 Cambridge Crystallographic Data Centre
#                                CCDC 
#
#######################################################################
#
# If this CIF has been generated from an entry in the Cambridge 
# Structural Database, then it will include bibliographic, chemical, 
# crystal, experimental, refinement or atomic coordinate data resulting 
# from the CCDC's data processing and validation procedures.
#
#######################################################################

data_QEQWAL
_chemical_formula_moiety         'C12 H8 N2 O4 S4'
_chemical_name_systematic        
4,4'-p-Xylenebis(1,2,4-dithiazolidine-3,5-dione)
_symmetry_cell_setting           monoclinic
_symmetry_space_group_name_H-M   'P 21/n'
_symmetry_Int_Tables_number      14
_space_group_name_Hall           '-P 2yn'
loop_
_symmetry_equiv_pos_site_id
_symmetry_equiv_pos_as_xyz
1 x,y,z
2 1/2-x,1/2+y,1/2-z
3 -x,-y,-z
4 1/2+x,1/2-y,1/2+z
_cell_length_a                   4.541(7)
_cell_length_b                   21.963(24)
_cell_length_c                   7.842(9)
_cell_angle_alpha                90
_cell_angle_beta                 102.070(10)
_cell_angle_gamma                90
_cell_volume                     764.824
_exptl_crystal_colour            white
_exptl_crystal_description       needle
_chemical_melting_point          218-219deg.C
_cell_formula_units_Z            2
loop_
_atom_site_label
_atom_site_type_symbol
_atom_site_fract_x
_atom_site_fract_y
_atom_site_fract_z
S1 S 0.6795(4) 0.18259(8) 0.0387(2)
S2 S 0.8367(4) 0.23699(8) -0.1386(2)
C1 C 0.9596(14) 0.1749(3) -0.2524(7)
O1 O 1.0782(13) 0.1837(2) -0.3765(6)
N1 N 0.9080(10) 0.1181(2) -0.1902(5)
C2 C 0.7708(12) 0.1126(3) -0.0491(6)
O2 O 0.7141(11) 0.0646(2) 0.0121(5)
C3 C 1.0030(12) 0.0622(3) -0.2720(7)
H1 H 1.0991(12) 0.0345(3) -0.1809(7)
H2 H 1.1506(12) 0.0733(3) -0.3399(7)
C4 C 0.7403(11) 0.0294(2) -0.3905(6)
C5 C 0.6306(12) -0.0258(3) -0.3412(6)
H3 H 0.7177(12) -0.0430(3) -0.2341(6)
C6 C 0.6073(12) 0.0554(3) -0.5499(7)
H4 H 0.6771(12) 0.0924(3) -0.5833(7)
S1B S 0.3205(4) -0.18259(8) -1.0387(2)
S2B S 0.1633(4) -0.23699(8) -0.8614(2)
C1B C 0.0404(14) -0.1749(3) -0.7476(7)
O1B O -0.0782(13) -0.1837(2) -0.6235(6)
N1B N 0.0920(10) -0.1181(2) -0.8098(5)
C2B C 0.2292(12) -0.1126(3) -0.9509(6)
O2B O 0.2859(11) -0.0646(2) -1.0121(5)
C3B C -0.0030(12) -0.0622(3) -0.7280(7)
H1B H -0.0991(12) -0.0345(3) -0.8191(7)
H2B H -0.1506(12) -0.0733(3) -0.6601(7)
C4B C 0.2597(11) -0.0294(2) -0.6095(6)
C5B C 0.3694(12) 0.0258(3) -0.6588(6)
H3B H 0.2823(12) 0.0430(3) -0.7659(6)
C6B C 0.3927(12) -0.0554(3) -0.4501(7)
H4B H 0.3229(12) -0.0924(3) -0.4167(7)
loop_
_geom_bond_atom_site_label_1
_geom_bond_atom_site_label_2
_geom_bond_site_symmetry_1
_geom_bond_site_symmetry_2
S1 S2 1_555 1_555
S2 C1 1_555 1_555
C1 O1 1_555 1_555
N1 C1 1_555 1_555
C2 S1 1_555 1_555
O2 C2 1_555 1_555
C3 N1 1_555 1_555
H1 C3 1_555 1_555
H2 C3 1_555 1_555
C4 C3 1_555 1_555
C5 C4 1_555 1_555
H3 C5 1_555 1_555
C6 C4 1_555 1_555
H4 C6 1_555 1_555
S1B S2B 1_555 1_555
S2B C1B 1_555 1_555
C1B O1B 1_555 1_555
N1B C1B 1_555 1_555
C2B S1B 1_555 1_555
O2B C2B 1_555 1_555
C3B N1B 1_555 1_555
H1B C3B 1_555 1_555
H2B C3B 1_555 1_555
C4B C3B 1_555 1_555
C5B C6 1_555 1_555
H3B C5B 1_555 1_555
C6B C5 1_555 1_555
H4B C6B 1_555 1_555
N1 C2 1_555 1_555
N1B C2B 1_555 1_555
C4B C5B 1_555 1_555
C4B C6B 1_555 1_555

#END
