
#######################################################################
#
#                 Cambridge Crystallographic Data Centre
#                                CCDC 
#
#######################################################################
#
# If this CIF has been generated from an entry in the Cambridge 
# Structural Database, then it will include bibliographic, chemical, 
# crystal, experimental, refinement or atomic coordinate data resulting 
# from the CCDC's data processing and validation procedures.
#
#######################################################################

data_QEQXOC
_chemical_formula_moiety         'C22 H28 F2 N3 O9 P1'
_chemical_name_systematic        
'isopropyl N-[{[5-(2,4-dioxo-3,4-dihydropyrimidin-1(2H)-yl)-4-fluoro-4-(fluoromethyl)-3-hydroxyoxolan-2-yl]methoxy}(phenoxy)phosphoryl]alaninate'
_chemical_properties_biological  
'Antiviral activity in vitro against HCV genotypes 1b, 1a, 2a, and S282T replicons.'
_symmetry_cell_setting           monoclinic
_symmetry_space_group_name_H-M   'P 21'
_symmetry_Int_Tables_number      4
_space_group_name_Hall           'P 2yb'
loop_
_symmetry_equiv_pos_site_id
_symmetry_equiv_pos_as_xyz
1 x,y,z
2 -x,1/2+y,-z
_cell_length_a                   13.9263(13)
_cell_length_b                   6.1043(6)
_cell_length_c                   17.6205(17)
_cell_angle_alpha                90
_cell_angle_beta                 109.543(2)
_cell_angle_gamma                90
_cell_volume                     1411.63
_exptl_crystal_colour            colorless
_exptl_crystal_description       prism
_cell_formula_units_Z            2
loop_
_atom_site_label
_atom_site_type_symbol
_atom_site_fract_x
_atom_site_fract_y
_atom_site_fract_z
P1 P 0.74200(7) 0.79193(19) 0.17705(6)
F1 F 0.32728(19) 0.1966(5) 0.06517(15)
F2 F 0.2634(2) 0.2284(5) 0.1994(2)
O1 O 0.5491(3) 0.1555(6) 0.51263(18)
O2 O 0.4182(3) -0.1881(6) 0.2720(2)
O3 O 0.5568(2) 0.1974(6) 0.17082(18)
O4 O 0.3937(2) 0.6030(6) 0.04020(18)
H1 H 0.3556 0.5179 0.0057
O5 O 0.6615(2) 0.6077(6) 0.17538(18)
O6 O 0.7229(3) 0.8978(7) 0.09825(19)
O7 O 0.8444(2) 0.6544(6) 0.2111(2)
O8 O 0.6771(3) 0.7530(7) 0.3642(2)
O9 O 0.8374(2) 0.7593(7) 0.4532(2)
N1 N 0.4801(3) -0.0049(6) 0.3909(2)
H2 H 0.4599 -0.1123 0.4152
N2 N 0.4863(3) 0.1541(6) 0.2723(2)
N3 N 0.7452(3) 0.9622(7) 0.2484(2)
H3 H 0.6836 0.9850 0.2467
C1 C 0.4591(3) -0.0265(7) 0.3093(2)
C2 C 0.5333(3) 0.3357(7) 0.3164(2)
H4 H 0.5512 0.4548 0.2891
C3 C 0.5546(3) 0.3488(8) 0.3968(3)
H5 H 0.5858 0.4764 0.4254
C4 C 0.5295(3) 0.1676(7) 0.4386(2)
C5 C 0.4644(3) 0.1470(7) 0.1855(2)
H6 H 0.4427 -0.0048 0.1658
C6 C 0.3836(3) 0.3111(7) 0.1351(2)
C7 C 0.3103(3) 0.4019(8) 0.1737(3)
H7 H 0.3475 0.4952 0.2202
H8 H 0.2582 0.4930 0.1344
C8 C 0.4472(3) 0.4838(7) 0.1098(2)
H9 H 0.4752 0.5892 0.1553
C9 C 0.5353(3) 0.3431(7) 0.1026(2)
H10 H 0.5107 0.2553 0.0519
C10 C 0.6314(3) 0.4611(8) 0.1060(2)
H11 H 0.6864 0.3537 0.1107
H12 H 0.6198 0.5464 0.0560
C11 C 0.9428(3) 0.7234(8) 0.2166(3)
C12 C 0.9644(3) 0.9291(8) 0.1929(3)
H13 H 0.9119 1.0342 0.1723
C13 C 1.0654(4) 0.9788(9) 0.2001(3)
H14 H 1.0814 1.1185 0.1837
C14 C 1.1415(3) 0.8269(9) 0.2305(3)
H15 H 1.2097 0.8626 0.2356
C15 C 1.1188(3) 0.6203(10) 0.2540(3)
H16 H 1.1715 0.5154 0.2747
C16 C 1.0186(3) 0.5675(9) 0.2472(3)
H17 H 1.0027 0.4274 0.2632
C17 C 0.8093(3) 0.9546(8) 0.3327(3)
H18 H 0.8776 0.8954 0.3360
C18 C 0.8234(4) 1.1880(9) 0.3672(3)
H19 H 0.8608 1.2761 0.3399
H20 H 0.8617 1.1825 0.4250
H21 H 0.7565 1.2542 0.3587
C19 C 0.7651(3) 0.8103(8) 0.3835(3)
C20 C 0.8079(4) 0.6291(10) 0.5118(3)
H22 H 0.7626 0.5064 0.4833
C21 C 0.7526(5) 0.7691(13) 0.5541(4)
H23 H 0.7954 0.8943 0.5793
H24 H 0.7376 0.6821 0.5955
H25 H 0.6887 0.8220 0.5149
C22 C 0.9068(4) 0.5355(13) 0.5692(3)
H26 H 0.9368 0.4356 0.5398
H27 H 0.8927 0.4554 0.6125
H28 H 0.9545 0.6552 0.5923
loop_
_geom_bond_atom_site_label_1
_geom_bond_atom_site_label_2
_geom_bond_site_symmetry_1
_geom_bond_site_symmetry_2
P1 O5 1_555 1_555
F1 C6 1_555 1_555
F2 C7 1_555 1_555
O1 C4 1_555 1_555
O2 C1 1_555 1_555
O3 C5 1_555 1_555
O4 H1 1_555 1_555
O5 C10 1_555 1_555
O6 P1 1_555 1_555
O7 P1 1_555 1_555
O8 C19 1_555 1_555
O9 C19 1_555 1_555
N1 H2 1_555 1_555
N2 C1 1_555 1_555
N3 P1 1_555 1_555
H3 N3 1_555 1_555
C1 N1 1_555 1_555
C2 N2 1_555 1_555
H4 C2 1_555 1_555
C3 C2 1_555 1_555
H5 C3 1_555 1_555
C4 N1 1_555 1_555
C5 N2 1_555 1_555
H6 C5 1_555 1_555
C6 C5 1_555 1_555
C7 C6 1_555 1_555
H7 C7 1_555 1_555
H8 C7 1_555 1_555
C8 O4 1_555 1_555
H9 C8 1_555 1_555
C9 O3 1_555 1_555
H10 C9 1_555 1_555
C10 C9 1_555 1_555
H11 C10 1_555 1_555
H12 C10 1_555 1_555
C11 O7 1_555 1_555
C12 C11 1_555 1_555
H13 C12 1_555 1_555
C13 C12 1_555 1_555
H14 C13 1_555 1_555
C14 C13 1_555 1_555
H15 C14 1_555 1_555
C15 C14 1_555 1_555
H16 C15 1_555 1_555
C16 C11 1_555 1_555
H17 C16 1_555 1_555
C17 N3 1_555 1_555
H18 C17 1_555 1_555
C18 C17 1_555 1_555
H19 C18 1_555 1_555
H20 C18 1_555 1_555
H21 C18 1_555 1_555
C19 C17 1_555 1_555
C20 O9 1_555 1_555
H22 C20 1_555 1_555
C21 C20 1_555 1_555
H23 C21 1_555 1_555
H24 C21 1_555 1_555
H25 C21 1_555 1_555
C22 C20 1_555 1_555
H26 C22 1_555 1_555
H27 C22 1_555 1_555
H28 C22 1_555 1_555
C3 C4 1_555 1_555
C6 C8 1_555 1_555
C8 C9 1_555 1_555
C15 C16 1_555 1_555

#END
