
#######################################################################
#
#                 Cambridge Crystallographic Data Centre
#                                CCDC 
#
#######################################################################
#
# If this CIF has been generated from an entry in the Cambridge 
# Structural Database, then it will include bibliographic, chemical, 
# crystal, experimental, refinement or atomic coordinate data resulting 
# from the CCDC's data processing and validation procedures.
#
#######################################################################

data_QERDUP
_chemical_formula_moiety         'C26 H17 Cl1 N2 O1'
_chemical_name_systematic        
2-(4-chlorophenyl)-10c-phenyl-2,10c-dihydro-1H-2,10b-diazabenzo[a]cyclopenta[cd]azulen-1-one
_symmetry_cell_setting           triclinic
_symmetry_space_group_name_H-M   'P -1'
_symmetry_Int_Tables_number      2
_space_group_name_Hall           '-P 1'
loop_
_symmetry_equiv_pos_site_id
_symmetry_equiv_pos_as_xyz
1 x,y,z
2 -x,-y,-z
_cell_length_a                   7.4198(10)
_cell_length_b                   10.021(2)
_cell_length_c                   13.568(3)
_cell_angle_alpha                82.271(16)
_cell_angle_beta                 84.975(13)
_cell_angle_gamma                84.925(14)
_cell_volume                     992.816
_cell_formula_units_Z            2
loop_
_atom_site_label
_atom_site_type_symbol
_atom_site_fract_x
_atom_site_fract_y
_atom_site_fract_z
Cl1 Cl 0.06418(13) 1.02258(11) -0.30933(7)
O1 O 0.4778(3) 0.8293(3) 0.11251(16)
N1 N 0.2115(3) 0.7372(3) 0.08988(18)
N2 N 0.3546(3) 0.6644(3) 0.22847(17)
C1 C 0.0914(3) 0.6514(3) 0.1483(2)
C2 C -0.0783(4) 0.6271(3) 0.1327(2)
H1 H -0.1226 0.6639 0.0721
C3 C -0.1968(4) 0.5486(3) 0.2027(3)
H2 H -0.2858 0.5085 0.1753
C4 C -0.1958(4) 0.5255(3) 0.3027(3)
H3 H -0.2816 0.4700 0.3362
C5 C -0.0768(4) 0.5773(3) 0.3627(2)
H4 H -0.1202 0.5869 0.4280
C6 C 0.0918(4) 0.6137(3) 0.3344(2)
C7 C 0.2131(4) 0.6847(3) 0.3847(2)
C8 C 0.1957(5) 0.7297(4) 0.4779(2)
H5 H 0.0943 0.7118 0.5214
C9 C 0.3298(5) 0.8014(4) 0.5054(3)
H6 H 0.3194 0.8306 0.5680
C10 C 0.4796(5) 0.8301(4) 0.4402(3)
H7 H 0.5681 0.8791 0.4597
C11 C 0.5010(4) 0.7872(3) 0.3461(2)
H8 H 0.6017 0.8064 0.3023
C12 C 0.3664(4) 0.7154(3) 0.3210(2)
C13 C 0.1928(3) 0.5845(3) 0.2359(2)
C14 C 0.3603(4) 0.7534(3) 0.1402(2)
C15 C 0.1802(4) 0.8070(3) -0.0076(2)
C16 C 0.1215(4) 0.7374(3) -0.0781(2)
H9 H 0.1050 0.6459 -0.0625
C17 C 0.0869(4) 0.8024(3) -0.1715(2)
H10 H 0.0457 0.7557 -0.2188
C18 C 0.1145(4) 0.9377(4) -0.1936(2)
C19 C 0.1787(4) 1.0070(3) -0.1245(2)
H11 H 0.2002 1.0976 -0.1410
C20 C 0.2110(4) 0.9421(3) -0.0312(2)
H12 H 0.2533 0.9887 0.0158
C21 C 0.2536(3) 0.4368(3) 0.2287(2)
C22 C 0.3096(4) 0.3952(4) 0.1359(2)
H13 H 0.3044 0.4576 0.0788
C23 C 0.3724(4) 0.2634(4) 0.1274(3)
H14 H 0.4087 0.2378 0.0649
C24 C 0.3815(4) 0.1694(4) 0.2111(3)
H15 H 0.4229 0.0802 0.2056
C25 C 0.3286(5) 0.2095(4) 0.3028(3)
H16 H 0.3350 0.1468 0.3598
C26 C 0.2660(4) 0.3416(4) 0.3117(3)
H17 H 0.2317 0.3667 0.3746
loop_
_geom_bond_atom_site_label_1
_geom_bond_atom_site_label_2
_geom_bond_site_symmetry_1
_geom_bond_site_symmetry_2
Cl1 C18 1_555 1_555
O1 C14 1_555 1_555
N1 C1 1_555 1_555
N2 C12 1_555 1_555
C1 C2 1_555 1_555
C2 H1 1_555 1_555
C3 C2 1_555 1_555
H2 C3 1_555 1_555
C4 C3 1_555 1_555
H3 C4 1_555 1_555
C5 C4 1_555 1_555
H4 C5 1_555 1_555
C6 C5 1_555 1_555
C7 C6 1_555 1_555
C8 C7 1_555 1_555
H5 C8 1_555 1_555
C9 C8 1_555 1_555
H6 C9 1_555 1_555
C10 C9 1_555 1_555
H7 C10 1_555 1_555
C11 C10 1_555 1_555
H8 C11 1_555 1_555
C12 C7 1_555 1_555
C13 N2 1_555 1_555
C14 N1 1_555 1_555
C15 N1 1_555 1_555
C16 C15 1_555 1_555
H9 C16 1_555 1_555
C17 C16 1_555 1_555
H10 C17 1_555 1_555
C18 C17 1_555 1_555
C19 C18 1_555 1_555
H11 C19 1_555 1_555
C20 C15 1_555 1_555
H12 C20 1_555 1_555
C21 C13 1_555 1_555
C22 C21 1_555 1_555
H13 C22 1_555 1_555
C23 C22 1_555 1_555
H14 C23 1_555 1_555
C24 C23 1_555 1_555
H15 C24 1_555 1_555
C25 C24 1_555 1_555
H16 C25 1_555 1_555
C26 C21 1_555 1_555
H17 C26 1_555 1_555
N2 C14 1_555 1_555
C1 C13 1_555 1_555
C6 C13 1_555 1_555
C11 C12 1_555 1_555
C19 C20 1_555 1_555
C25 C26 1_555 1_555

#END
