
#######################################################################
#
#                 Cambridge Crystallographic Data Centre
#                                CCDC 
#
#######################################################################
#
# If this CIF has been generated from an entry in the Cambridge 
# Structural Database, then it will include bibliographic, chemical, 
# crystal, experimental, refinement or atomic coordinate data resulting 
# from the CCDC's data processing and validation procedures.
#
#######################################################################

data_QERDOJ
_chemical_formula_moiety         'C30 H25 Cl1 N2 O5,C2 H6 O1 S1'
_chemical_name_systematic        
'1-[(4-chlorophenyl)amino]-6,8,12,14-tetramethoxy-11H-cyclohepta[b]isoindolo[2,1-a]indol-11-one dimethyl sulfoxide solvate'
_symmetry_cell_setting           monoclinic
_symmetry_space_group_name_H-M   'C 2/c'
_symmetry_Int_Tables_number      15
_space_group_name_Hall           '-C 2yn'
loop_
_symmetry_equiv_pos_site_id
_symmetry_equiv_pos_as_xyz
1 x,y,z
2 -x,y,1/2-z
3 1/2+x,1/2+y,z
4 1/2-x,1/2+y,1/2-z
5 -x,-y,-z
6 x,-y,1/2+z
7 1/2-x,1/2-y,-z
8 1/2+x,1/2-y,1/2+z
_cell_length_a                   25.8438(18)
_cell_length_b                   10.3240(4)
_cell_length_c                   25.0480(16)
_cell_angle_alpha                90
_cell_angle_beta                 118.364(8)
_cell_angle_gamma                90
_cell_volume                     5880.77
_cell_formula_units_Z            8
loop_
_atom_site_label
_atom_site_type_symbol
_atom_site_fract_x
_atom_site_fract_y
_atom_site_fract_z
Cl1 Cl 0.33259(4) 1.30605(9) 0.13943(4)
O1 O 0.56178(7) 0.92847(16) 0.54218(7)
O2 O 0.47825(8) 0.80361(17) 0.57382(8)
O3 O 0.37926(8) 0.44723(17) 0.44792(9)
O4 O 0.66086(8) 0.66809(17) 0.37690(9)
O5 O 0.72820(8) 1.0558(2) 0.50104(9)
N1 N 0.54148(8) 0.85580(17) 0.44687(8)
N2 N 0.45316(9) 0.94257(18) 0.34353(9)
H1 H 0.4697 0.9800 0.3784
C1 C 0.53442(10) 0.8588(2) 0.49871(10)
C2 C 0.49048(9) 0.7582(2) 0.48886(10)
C3 C 0.46445(10) 0.7271(2) 0.52527(11)
C4 C 0.42746(10) 0.6213(2) 0.50927(11)
H2 H 0.4100 0.5979 0.5329
C5 C 0.41622(10) 0.5495(2) 0.45781(12)
C6 C 0.44062(10) 0.5803(2) 0.42075(11)
H3 H 0.4322 0.5323 0.3862
C7 C 0.47829(9) 0.6864(2) 0.43754(10)
C8 C 0.50661(9) 0.7531(2) 0.40348(10)
C9 C 0.45875(10) 0.8103(2) 0.34381(10)
C10 C 0.42376(11) 0.7322(2) 0.29670(11)
H4 H 0.3899 0.7707 0.2667
C11 C 0.43186(12) 0.6002(2) 0.28710(11)
H5 H 0.3981 0.5544 0.2614
C12 C 0.48262(12) 0.5332(2) 0.31081(12)
H6 H 0.4806 0.4461 0.3006
C13 C 0.53901(11) 0.5852(2) 0.35022(11)
H7 H 0.5711 0.5441 0.3504
C14 C 0.55075(10) 0.6886(2) 0.38749(10)
C15 C 0.60358(10) 0.7683(2) 0.41480(10)
C16 C 0.65545(11) 0.7659(2) 0.41052(12)
C17 C 0.69816(11) 0.8604(3) 0.43963(12)
H8 H 0.7329 0.8582 0.4371
C18 C 0.68910(11) 0.9581(3) 0.47250(12)
C19 C 0.63789(11) 0.9633(2) 0.47779(11)
H9 H 0.6317 1.0281 0.4999
C20 C 0.59680(9) 0.8679(2) 0.44870(10)
C21 C 0.44971(13) 0.7779(3) 0.60923(13)
H10 H 0.4080 0.7866 0.5843
H11 H 0.4631 0.8384 0.6422
H12 H 0.4588 0.6913 0.6250
C22 C 0.36396(13) 0.3698(3) 0.39608(14)
H13 H 0.3423 0.4209 0.3602
H14 H 0.3401 0.2985 0.3961
H15 H 0.3990 0.3373 0.3967
C23 C 0.42366(10) 1.0234(2) 0.29320(11)
C24 C 0.41599(12) 0.9942(2) 0.23557(12)
H16 H 0.4301 0.9164 0.2289
C25 C 0.38767(12) 1.0802(3) 0.18862(12)
H17 H 0.3817 1.0597 0.1500
C26 C 0.36815(12) 1.1966(3) 0.19896(13)
C27 C 0.37616(12) 1.2283(3) 0.25567(13)
H18 H 0.3634 1.3079 0.2624
C28 C 0.40320(11) 1.1411(2) 0.30216(12)
H19 H 0.4079 1.1613 0.3404
C29 C 0.71084(13) 0.6682(3) 0.36722(15)
H20 H 0.7089 0.5951 0.3427
H21 H 0.7460 0.6630 0.4056
H22 H 0.7113 0.7466 0.3469
C30 C 0.77828(14) 1.0657(3) 0.49148(16)
H23 H 0.7657 1.0649 0.4487
H24 H 0.8041 0.9937 0.5105
H25 H 0.7987 1.1451 0.5088
S1 S 0.28847(4) 0.87122(9) 0.29012(4)
O6 O 0.22963(11) 0.9304(3) 0.26375(13)
C31 C 0.28037(19) 0.7070(4) 0.3003(2)
H26 H 0.2587 0.6969 0.3223
H27 H 0.3185 0.6680 0.3227
H28 H 0.2595 0.6657 0.2614
C32 C 0.32383(17) 0.9137(5) 0.36586(19)
H29 H 0.3317 1.0050 0.3696
H30 H 0.3602 0.8669 0.3864
H31 H 0.2992 0.8928 0.3837
loop_
_geom_bond_atom_site_label_1
_geom_bond_atom_site_label_2
_geom_bond_site_symmetry_1
_geom_bond_site_symmetry_2
Cl1 C26 1_555 1_555
O1 C1 1_555 1_555
O2 C3 1_555 1_555
O3 C5 1_555 1_555
O4 C16 1_555 1_555
O5 C18 1_555 1_555
N1 C1 1_555 1_555
N2 H1 1_555 1_555
C1 C2 1_555 1_555
C2 C3 1_555 1_555
C3 C4 1_555 1_555
C4 H2 1_555 1_555
C5 C4 1_555 1_555
C6 C5 1_555 1_555
H3 C6 1_555 1_555
C7 C2 1_555 1_555
C8 N1 1_555 1_555
C9 N2 1_555 1_555
C10 C9 1_555 1_555
H4 C10 1_555 1_555
C11 C10 1_555 1_555
H5 C11 1_555 1_555
C12 C11 1_555 1_555
H6 C12 1_555 1_555
C13 C12 1_555 1_555
H7 C13 1_555 1_555
C14 C8 1_555 1_555
C15 C14 1_555 1_555
C16 C15 1_555 1_555
C17 C16 1_555 1_555
H8 C17 1_555 1_555
C18 C17 1_555 1_555
C19 C18 1_555 1_555
H9 C19 1_555 1_555
C20 N1 1_555 1_555
C21 O2 1_555 1_555
H10 C21 1_555 1_555
H11 C21 1_555 1_555
H12 C21 1_555 1_555
C22 O3 1_555 1_555
H13 C22 1_555 1_555
H14 C22 1_555 1_555
H15 C22 1_555 1_555
C23 N2 1_555 1_555
C24 C23 1_555 1_555
H16 C24 1_555 1_555
C25 C24 1_555 1_555
H17 C25 1_555 1_555
C26 C25 1_555 1_555
C27 C26 1_555 1_555
H18 C27 1_555 1_555
C28 C23 1_555 1_555
H19 C28 1_555 1_555
C29 O4 1_555 1_555
H20 C29 1_555 1_555
H21 C29 1_555 1_555
H22 C29 1_555 1_555
C30 O5 1_555 1_555
H23 C30 1_555 1_555
H24 C30 1_555 1_555
H25 C30 1_555 1_555
S1 O6 1_555 1_555
C31 S1 1_555 1_555
H26 C31 1_555 1_555
H27 C31 1_555 1_555
H28 C31 1_555 1_555
C32 S1 1_555 1_555
H29 C32 1_555 1_555
H30 C32 1_555 1_555
H31 C32 1_555 1_555
C6 C7 1_555 1_555
C7 C8 1_555 1_555
C8 C9 1_555 1_555
C13 C14 1_555 1_555
C15 C20 1_555 1_555
C19 C20 1_555 1_555
C27 C28 1_555 1_555

#END
