
#######################################################################
#
#                 Cambridge Crystallographic Data Centre
#                                CCDC 
#
#######################################################################
#
# If this CIF has been generated from an entry in the Cambridge 
# Structural Database, then it will include bibliographic, chemical, 
# crystal, experimental, refinement or atomic coordinate data resulting 
# from the CCDC's data processing and validation procedures.
#
#######################################################################

data_QERHOL
_chemical_compound_source        'Huperzia serrata'
_chemical_name_common            'Huperzine A monohydrate'
_chemical_formula_moiety         'C15 H18 N2 O1,H2 O1'
_chemical_name_systematic        
'(6R,10R,14E)-6-Amino-12-ethylidene-8-methyl-6,7,10,12-tetrahydro-6,10-methanocycloocta(b)pyridin-2(1H)-one monohydrate'
_chemical_properties_biological  'reversible inhibitor of acetylcholinesterase'
_symmetry_cell_setting           monoclinic
_symmetry_space_group_name_H-M   'C 2'
_symmetry_Int_Tables_number      5
_space_group_name_Hall           'C 2y'
loop_
_symmetry_equiv_pos_site_id
_symmetry_equiv_pos_as_xyz
1 x,y,z
2 -x,y,-z
3 1/2+x,1/2+y,z
4 1/2-x,1/2+y,-z
_cell_length_a                   14.00(2)
_cell_length_b                   12.35(2)
_cell_length_c                   8.838(14)
_cell_angle_alpha                90
_cell_angle_beta                 111.731(19)
_cell_angle_gamma                90
_cell_volume                     1419.49
_exptl_crystal_colour            white
_exptl_crystal_description       block
_chemical_melting_point          502K
_cell_formula_units_Z            4
_exptl_crystal_recrystallization_method methanol
loop_
_atom_site_label
_atom_site_type_symbol
_atom_site_fract_x
_atom_site_fract_y
_atom_site_fract_z
N1 N 0.8847(4) 0.3330(4) 0.8217(5)
H1 H 0.9473 0.3537 0.8468
N2 N 0.6021(4) 0.1441(5) 0.4456(6)
H2 H 0.5822 0.1478 0.5264
H3 H 0.5527 0.1330 0.3538
O1 O 0.9042(3) 0.3612(4) 1.0844(5)
C1 C 0.8459(4) 0.3315(5) 0.9425(7)
C2 C 0.7446(4) 0.2966(6) 0.8981(7)
H6 H 0.7143 0.2937 0.9756
C3 C 0.6898(5) 0.2667(6) 0.7417(7)
H7 H 0.6223 0.2433 0.7142
C4 C 0.7324(5) 0.2700(5) 0.6200(7)
C5 C 0.8307(4) 0.3038(5) 0.6632(6)
C6 C 0.6691(4) 0.2336(5) 0.4429(7)
C7 C 0.6021(5) 0.3287(6) 0.3509(7)
H8 H 0.5489 0.3009 0.2533
H9 H 0.5684 0.3599 0.4189
C8 C 0.6585(6) 0.4162(5) 0.3032(7)
C9 C 0.7546(6) 0.4023(5) 0.3150(7)
H10 H 0.7870 0.4595 0.2849
C10 C 0.8144(4) 0.3007(5) 0.3736(6)
H11 H 0.8546 0.2856 0.3058
C11 C 0.8886(4) 0.3112(6) 0.5531(7)
H12 H 0.9396 0.2540 0.5788
H13 H 0.9242 0.3802 0.5690
C12 C 0.7430(5) 0.2054(6) 0.3622(7)
C13 C 0.6013(6) 0.5188(6) 0.2430(9)
H14 H 0.6321 0.5573 0.1782
H15 H 0.6041 0.5629 0.3341
H16 H 0.5310 0.5026 0.1780
C14 C 0.7476(5) 0.1136(6) 0.2939(8)
H17 H 0.6989 0.0624 0.2942
C15 C 0.8197(7) 0.0789(7) 0.2155(11)
H18 H 0.8561 0.0154 0.2693
H19 H 0.8678 0.1360 0.2237
H20 H 0.7817 0.0628 0.1028
O2 O 0.9567(4) 0.5875(5) 0.1216(7)
H4 H 0.9401 0.5210 0.1163
H5 H 0.9290 0.6109 0.0246
loop_
_geom_bond_atom_site_label_1
_geom_bond_atom_site_label_2
_geom_bond_site_symmetry_1
_geom_bond_site_symmetry_2
N1 H1 1_555 1_555
N2 H2 1_555 1_555
H3 N2 1_555 1_555
O1 C1 1_555 1_555
O2 H4 1_555 1_555
H5 O2 1_555 1_555
C1 N1 1_555 1_555
C2 C1 1_555 1_555
H6 C2 1_555 1_555
C3 C2 1_555 1_555
H7 C3 1_555 1_555
C4 C3 1_555 1_555
C5 N1 1_555 1_555
C6 N2 1_555 1_555
C7 C6 1_555 1_555
H8 C7 1_555 1_555
H9 C7 1_555 1_555
C8 C7 1_555 1_555
C9 C8 1_555 1_555
H10 C9 1_555 1_555
C10 C9 1_555 1_555
H11 C10 1_555 1_555
C11 C5 1_555 1_555
H12 C11 1_555 1_555
H13 C11 1_555 1_555
C12 C6 1_555 1_555
C13 C8 1_555 1_555
H14 C13 1_555 1_555
H15 C13 1_555 1_555
H16 C13 1_555 1_555
C14 C12 1_555 1_555
H17 C14 1_555 1_555
C15 C14 1_555 1_555
H18 C15 1_555 1_555
H19 C15 1_555 1_555
H20 C15 1_555 1_555
C4 C5 1_555 1_555
C4 C6 1_555 1_555
C10 C11 1_555 1_555
C10 C12 1_555 1_555

#END
