
#######################################################################
#
#                 Cambridge Crystallographic Data Centre
#                                CCDC 
#
#######################################################################
#
# If this CIF has been generated from an entry in the Cambridge 
# Structural Database, then it will include bibliographic, chemical, 
# crystal, experimental, refinement or atomic coordinate data resulting 
# from the CCDC's data processing and validation procedures.
#
#######################################################################

data_QERJON
_chemical_formula_moiety         'C23 H22 O3'
_chemical_name_systematic        
1,5-bis(4-methylphenyl)-3-(2-furanyl)pentane-1,5-dione
_symmetry_cell_setting           monoclinic
_symmetry_space_group_name_H-M   'P 21/c'
_symmetry_Int_Tables_number      14
_space_group_name_Hall           '-P 2ybc'
loop_
_symmetry_equiv_pos_site_id
_symmetry_equiv_pos_as_xyz
1 x,y,z
2 -x,1/2+y,1/2-z
3 -x,-y,-z
4 x,1/2-y,1/2+z
_cell_length_a                   15.831(7)
_cell_length_b                   11.575(5)
_cell_length_c                   10.215(4)
_cell_angle_alpha                90
_cell_angle_beta                 91.080(7)
_cell_angle_gamma                90
_cell_volume                     1871.5
_exptl_crystal_colour            colorless
_exptl_crystal_description       block
_cell_formula_units_Z            4
_exptl_crystal_recrystallization_method ethanol
loop_
_atom_site_label
_atom_site_type_symbol
_atom_site_fract_x
_atom_site_fract_y
_atom_site_fract_z
O1 O 0.2556(2) 0.5681(3) -0.1274(3)
O2 O 0.17042(18) 0.9163(3) 0.0746(3)
O3 O 0.41237(19) 0.8360(3) -0.1275(3)
C1 C 0.2913(4) 0.4636(5) -0.1586(6)
H1 H 0.2678 0.4091 -0.2155
C2 C 0.3640(4) 0.4529(5) -0.0949(6)
H2 H 0.4008 0.3903 -0.0990
C3 C 0.3759(3) 0.5541(4) -0.0190(6)
H3 H 0.4221 0.5707 0.0354
C4 C 0.3090(3) 0.6209(4) -0.0399(4)
C5 C 0.2809(2) 0.7350(3) 0.0105(4)
H4 H 0.2623 0.7826 -0.0639
C6 C 0.2065(2) 0.7190(3) 0.1015(4)
H5 H 0.1682 0.6629 0.0623
H6 H 0.2276 0.6865 0.1833
C7 C 0.1570(2) 0.8266(4) 0.1319(4)
C8 C 0.0893(2) 0.8191(4) 0.2302(4)
C9 C 0.0717(3) 0.7207(4) 0.2996(5)
H7 H 0.1030 0.6541 0.2848
C10 C 0.0086(3) 0.7184(4) 0.3910(5)
H8 H -0.0024 0.6504 0.4361
C11 C -0.0383(3) 0.8160(5) 0.4161(5)
C12 C -0.0200(3) 0.9131(5) 0.3488(6)
H9 H -0.0509 0.9797 0.3649
C13 C 0.0426(3) 0.9171(4) 0.2576(5)
H10 H 0.0537 0.9858 0.2141
C14 C -0.1074(3) 0.8132(5) 0.5184(6)
H11 H -0.1309 0.8892 0.5277
H12 H -0.0837 0.7883 0.6008
H13 H -0.1511 0.7605 0.4908
C15 C 0.3543(2) 0.7954(4) 0.0797(4)
H14 H 0.3335 0.8650 0.1212
H15 H 0.3766 0.7452 0.1480
C16 C 0.4247(3) 0.8275(3) -0.0103(5)
C17 C 0.5105(3) 0.8475(3) 0.0483(4)
C18 C 0.5263(3) 0.8454(4) 0.1814(5)
H16 H 0.4825 0.8301 0.2382
C19 C 0.6058(3) 0.8656(4) 0.2305(5)
H17 H 0.6152 0.8628 0.3206
C20 C 0.6726(3) 0.8901(4) 0.1500(5)
C21 C 0.6571(3) 0.8919(4) 0.0184(5)
H18 H 0.7014 0.9066 -0.0377
C22 C 0.5774(3) 0.8724(4) -0.0340(4)
H19 H 0.5682 0.8759 -0.1241
C23 C 0.7597(3) 0.9127(5) 0.2069(6)
H20 H 0.7932 0.8438 0.2012
H21 H 0.7553 0.9351 0.2970
H22 H 0.7861 0.9736 0.1587
loop_
_geom_bond_atom_site_label_1
_geom_bond_atom_site_label_2
_geom_bond_site_symmetry_1
_geom_bond_site_symmetry_2
O1 C1 1_555 1_555
O2 C7 1_555 1_555
O3 C16 1_555 1_555
C1 H1 1_555 1_555
C2 C1 1_555 1_555
H2 C2 1_555 1_555
C3 C2 1_555 1_555
H3 C3 1_555 1_555
C4 O1 1_555 1_555
C5 C4 1_555 1_555
H4 C5 1_555 1_555
C6 C5 1_555 1_555
H5 C6 1_555 1_555
H6 C6 1_555 1_555
C7 C6 1_555 1_555
C8 C7 1_555 1_555
C9 C8 1_555 1_555
H7 C9 1_555 1_555
C10 C9 1_555 1_555
H8 C10 1_555 1_555
C11 C10 1_555 1_555
C12 C11 1_555 1_555
H9 C12 1_555 1_555
C13 C8 1_555 1_555
H10 C13 1_555 1_555
C14 C11 1_555 1_555
H11 C14 1_555 1_555
H12 C14 1_555 1_555
H13 C14 1_555 1_555
C15 C5 1_555 1_555
H14 C15 1_555 1_555
H15 C15 1_555 1_555
C16 C15 1_555 1_555
C17 C16 1_555 1_555
C18 C17 1_555 1_555
H16 C18 1_555 1_555
C19 C18 1_555 1_555
H17 C19 1_555 1_555
C20 C19 1_555 1_555
C21 C20 1_555 1_555
H18 C21 1_555 1_555
C22 C17 1_555 1_555
H19 C22 1_555 1_555
C23 C20 1_555 1_555
H20 C23 1_555 1_555
H21 C23 1_555 1_555
H22 C23 1_555 1_555
C3 C4 1_555 1_555
C12 C13 1_555 1_555
C21 C22 1_555 1_555

#END
