
#######################################################################
#
#                 Cambridge Crystallographic Data Centre
#                                CCDC 
#
#######################################################################
#
# If this CIF has been generated from an entry in the Cambridge 
# Structural Database, then it will include bibliographic, chemical, 
# crystal, experimental, refinement or atomic coordinate data resulting 
# from the CCDC's data processing and validation procedures.
#
#######################################################################

data_QERJED
_chemical_formula_moiety         'C20 H16 Cl1 N3 O2'
_chemical_name_systematic        
(E)-N'-(4-(2-Chlorobenzyloxy)benzylidene)isonicotinohydrazide
_symmetry_cell_setting           monoclinic
_symmetry_space_group_name_H-M   'P 21/c'
_symmetry_Int_Tables_number      14
_space_group_name_Hall           '-P 2ybc'
loop_
_symmetry_equiv_pos_site_id
_symmetry_equiv_pos_as_xyz
1 x,y,z
2 -x,1/2+y,1/2-z
3 -x,-y,-z
4 x,1/2-y,1/2+z
_cell_length_a                   5.3454(9)
_cell_length_b                   12.360(2)
_cell_length_c                   26.292(4)
_cell_angle_alpha                90
_cell_angle_beta                 94.994(3)
_cell_angle_gamma                90
_cell_volume                     1730.5
_exptl_crystal_colour            colorless
_exptl_crystal_description       block
_cell_formula_units_Z            4
_exptl_crystal_recrystallization_method ethanol
loop_
_atom_site_label
_atom_site_type_symbol
_atom_site_fract_x
_atom_site_fract_y
_atom_site_fract_z
Cl1 Cl 0.23424(11) 0.71742(5) 0.31356(2)
O1 O 0.4847(3) 0.50544(11) 0.26878(5)
O2 O -0.2293(3) 0.31310(14) -0.02373(5)
N1 N 0.1887(3) 0.36771(14) 0.03897(6)
N2 N 0.1948(3) 0.33651(14) -0.01162(6)
H1 H 0.3349 0.3358 -0.0254
N3 N 0.0445(4) 0.19320(16) -0.19219(7)
C1 C 0.4228(4) 0.64991(16) 0.36025(7)
C2 C 0.3682(5) 0.66062(19) 0.41075(8)
H2 H 0.2335 0.7027 0.4190
C3 C 0.5170(6) 0.6079(2) 0.44822(9)
H3 H 0.4817 0.6139 0.4821
C4 C 0.7169(6) 0.5464(2) 0.43603(9)
H4 H 0.8168 0.5114 0.4617
C5 C 0.7707(5) 0.53603(19) 0.38578(9)
H5 H 0.9063 0.4939 0.3780
C6 C 0.6244(4) 0.58793(16) 0.34656(7)
C7 C 0.6794(4) 0.57386(17) 0.29199(7)
H6 H 0.6786 0.6433 0.2748
H7 H 0.8426 0.5405 0.2901
C8 C 0.4772(4) 0.48520(15) 0.21743(7)
C9 C 0.6565(4) 0.51990(15) 0.18576(7)
H8 H 0.7932 0.5610 0.1987
C10 C 0.6278(4) 0.49200(15) 0.13442(7)
H9 H 0.7495 0.5132 0.1133
C11 C 0.4216(4) 0.43309(15) 0.11386(7)
C12 C 0.2450(4) 0.39907(16) 0.14678(7)
H10 H 0.1066 0.3589 0.1339
C13 C 0.2728(4) 0.42407(16) 0.19781(7)
H11 H 0.1549 0.4001 0.2193
C14 C 0.3958(4) 0.40478(16) 0.05991(7)
H12 H 0.5315 0.4138 0.0405
C15 C -0.0197(4) 0.30727(16) -0.03909(7)
C16 C 0.0153(4) 0.26728(15) -0.09221(7)
C17 C 0.2179(4) 0.20694(17) -0.10503(8)
H13 H 0.3487 0.1902 -0.0806
C18 C 0.2224(4) 0.17181(19) -0.15504(8)
H14 H 0.3589 0.1305 -0.1631
C19 C -0.1479(5) 0.2520(2) -0.17900(8)
H15 H -0.2748 0.2686 -0.2043
C20 C -0.1719(4) 0.29002(17) -0.13054(7)
H16 H -0.3117 0.3304 -0.1236
loop_
_geom_bond_atom_site_label_1
_geom_bond_atom_site_label_2
_geom_bond_site_symmetry_1
_geom_bond_site_symmetry_2
Cl1 C1 1_555 1_555
O1 C7 1_555 1_555
O2 C15 1_555 1_555
N1 N2 1_555 1_555
N2 H1 1_555 1_555
N3 C18 1_555 1_555
C1 C2 1_555 1_555
C2 H2 1_555 1_555
C3 C2 1_555 1_555
H3 C3 1_555 1_555
C4 C3 1_555 1_555
H4 C4 1_555 1_555
C5 C4 1_555 1_555
H5 C5 1_555 1_555
C6 C1 1_555 1_555
C7 C6 1_555 1_555
H6 C7 1_555 1_555
H7 C7 1_555 1_555
C8 O1 1_555 1_555
C9 C8 1_555 1_555
H8 C9 1_555 1_555
C10 C9 1_555 1_555
H9 C10 1_555 1_555
C11 C10 1_555 1_555
C12 C11 1_555 1_555
H10 C12 1_555 1_555
C13 C8 1_555 1_555
H11 C13 1_555 1_555
C14 N1 1_555 1_555
H12 C14 1_555 1_555
C15 N2 1_555 1_555
C16 C15 1_555 1_555
C17 C16 1_555 1_555
H13 C17 1_555 1_555
C18 C17 1_555 1_555
H14 C18 1_555 1_555
C19 N3 1_555 1_555
H15 C19 1_555 1_555
C20 C16 1_555 1_555
H16 C20 1_555 1_555
C5 C6 1_555 1_555
C11 C14 1_555 1_555
C12 C13 1_555 1_555
C19 C20 1_555 1_555

#END
