
#######################################################################
#
#                 Cambridge Crystallographic Data Centre
#                                CCDC 
#
#######################################################################
#
# If this CIF has been generated from an entry in the Cambridge 
# Structural Database, then it will include bibliographic, chemical, 
# crystal, experimental, refinement or atomic coordinate data resulting 
# from the CCDC's data processing and validation procedures.
#
#######################################################################

data_QERLOP
_chemical_formula_moiety         'C12 H11 N5 O2 S1'
_chemical_name_systematic        
5-(4-(4-Methoxyphenyl)-1H-1,2,3-triazol-1-yl)methyl-1,3,4-oxadiazole-2-thione
_symmetry_cell_setting           triclinic
_symmetry_space_group_name_H-M   'P -1'
_symmetry_Int_Tables_number      2
_space_group_name_Hall           '-P 1'
loop_
_symmetry_equiv_pos_site_id
_symmetry_equiv_pos_as_xyz
1 x,y,z
2 -x,-y,-z
_cell_length_a                   7.2162(18)
_cell_length_b                   8.604(2)
_cell_length_c                   11.103(3)
_cell_angle_alpha                88.843(3)
_cell_angle_beta                 80.748(3)
_cell_angle_gamma                78.300(3)
_cell_volume                     666.205
_exptl_crystal_colour            yellow
_exptl_crystal_description       plate
_cell_formula_units_Z            2
_exptl_crystal_recrystallization_method ethanol
loop_
_atom_site_label
_atom_site_type_symbol
_atom_site_fract_x
_atom_site_fract_y
_atom_site_fract_z
S1 S 0.26736(6) 0.50406(5) 0.25630(4)
O1 O 0.50341(15) 0.66372(11) 0.11816(9)
N1 N 0.75515(18) 1.09646(14) 0.16055(13)
N2 N 0.68811(18) 1.01882(14) 0.08238(13)
N3 N 0.80397(17) 0.87550(13) 0.06716(12)
N4 N 0.77412(19) 0.48731(14) 0.07397(13)
N5 N 0.63683(18) 0.42263(14) 0.14722(12)
H1 H 0.6562 0.3262 0.1720
C1 C 1.2149(2) 0.99665(19) 0.27715(16)
H2 H 1.2770 0.9208 0.2178
C2 C 1.3175(3) 1.0472(2) 0.35734(18)
H3 H 1.4478 1.0049 0.3525
C3 C 1.2266(3) 1.1612(2) 0.44540(17)
C4 C 1.0325(3) 1.2209(2) 0.45502(17)
H4 H 0.9708 1.2957 0.5153
C5 C 0.9296(2) 1.16852(19) 0.37404(16)
H5 H 0.7986 1.2086 0.3807
C6 C 1.0189(2) 1.05748(17) 0.28342(14)
C7 C 0.9127(2) 1.00328(16) 0.19633(14)
C8 C 0.9442(2) 0.86085(17) 0.13529(15)
H6 H 1.0418 0.7730 0.1401
C9 C 0.7653(2) 0.75719(17) -0.01284(14)
H7 H 0.8827 0.7105 -0.0663
H8 H 0.6731 0.8083 -0.0633
C10 C 0.6885(2) 0.63026(16) 0.05932(13)
C11 C 0.4710(2) 0.52516(16) 0.17545(13)
C12 C 1.2761(4) 1.3430(3) 0.5897(2)
H9 H 1.3727 1.3586 0.6359
H10 H 1.1622 1.3324 0.6445
H11 H 1.2474 1.4327 0.5381
O2 O 1.3432(3) 1.20567(19) 0.51800(16)
loop_
_geom_bond_atom_site_label_1
_geom_bond_atom_site_label_2
_geom_bond_site_symmetry_1
_geom_bond_site_symmetry_2
S1 C11 1_555 1_555
O1 C10 1_555 1_555
N1 N2 1_555 1_555
N2 N3 1_555 1_555
N3 C8 1_555 1_555
N4 N5 1_555 1_555
N5 H1 1_555 1_555
C1 H2 1_555 1_555
C2 C1 1_555 1_555
H3 C2 1_555 1_555
C3 C2 1_555 1_555
C4 C3 1_555 1_555
H4 C4 1_555 1_555
C5 C4 1_555 1_555
H5 C5 1_555 1_555
C6 C1 1_555 1_555
C7 N1 1_555 1_555
C8 C7 1_555 1_555
H6 C8 1_555 1_555
C9 N3 1_555 1_555
H7 C9 1_555 1_555
H8 C9 1_555 1_555
C10 N4 1_555 1_555
C11 O1 1_555 1_555
C12 H9 1_555 1_555
H10 C12 1_555 1_555
H11 C12 1_555 1_555
O2 C3 1_555 1_555
N5 C11 1_555 1_555
C5 C6 1_555 1_555
C6 C7 1_555 1_555
C9 C10 1_555 1_555
C12 O2 1_555 1_555

#END
