
#######################################################################
#
#                 Cambridge Crystallographic Data Centre
#                                CCDC 
#
#######################################################################
#
# If this CIF has been generated from an entry in the Cambridge 
# Structural Database, then it will include bibliographic, chemical, 
# crystal, experimental, refinement or atomic coordinate data resulting 
# from the CCDC's data processing and validation procedures.
#
#######################################################################

data_QERPIN
_chemical_formula_moiety         'C10 H6 Cl1 N1 O2'
_chemical_name_systematic        3-(4-Chlorophenyl)isoxazole-5-carbaldehyde
_symmetry_cell_setting           monoclinic
_symmetry_space_group_name_H-M   'P 21/n'
_symmetry_Int_Tables_number      14
_space_group_name_Hall           '-P 2yn'
loop_
_symmetry_equiv_pos_site_id
_symmetry_equiv_pos_as_xyz
1 x,y,z
2 1/2-x,1/2+y,1/2-z
3 -x,-y,-z
4 1/2+x,1/2-y,1/2+z
_cell_length_a                   3.9531(10)
_cell_length_b                   9.337(2)
_cell_length_c                   25.228(6)
_cell_angle_alpha                90
_cell_angle_beta                 93.909(4)
_cell_angle_gamma                90
_cell_volume                     929.002
_exptl_crystal_colour            colorless
_exptl_crystal_description       block
_cell_formula_units_Z            4
_exptl_crystal_recrystallization_method hexane/dichloromethane
loop_
_atom_site_label
_atom_site_type_symbol
_atom_site_fract_x
_atom_site_fract_y
_atom_site_fract_z
Cl1 Cl 0.88756(18) 0.27884(9) 0.03190(3)
O1 O 0.0176(5) 0.04923(16) -0.25196(6)
O2 O -0.3723(6) 0.1318(2) -0.34113(8)
N1 N 0.1994(6) 0.0403(2) -0.20237(8)
C1 C 0.5025(6) 0.0844(2) -0.09842(9)
H1 H 0.4768 -0.0093 -0.1105
C2 C 0.6618(6) 0.1104(3) -0.04922(9)
H2 H 0.7448 0.0346 -0.0283
C3 C 0.6981(6) 0.2480(3) -0.03115(9)
C4 C 0.5828(7) 0.3616(3) -0.06190(10)
H3 H 0.6120 0.4549 -0.0496
C5 C 0.4223(6) 0.3355(2) -0.11158(9)
H4 H 0.3426 0.4120 -0.1325
C6 C 0.3793(5) 0.1971(2) -0.13033(8)
C7 C 0.2069(5) 0.1698(2) -0.18259(8)
C8 C 0.0381(5) 0.2661(2) -0.21859(8)
H5 H 0.0099 0.3642 -0.2142
C9 C -0.0723(6) 0.1867(2) -0.26017(9)
C10 C -0.2659(7) 0.2197(3) -0.31003(11)
H6 H -0.3090 0.3155 -0.3180
loop_
_geom_bond_atom_site_label_1
_geom_bond_atom_site_label_2
_geom_bond_site_symmetry_1
_geom_bond_site_symmetry_2
Cl1 C3 1_555 1_555
O1 N1 1_555 1_555
O2 C10 1_555 1_555
N1 C7 1_555 1_555
C1 H1 1_555 1_555
C2 C1 1_555 1_555
H2 C2 1_555 1_555
C3 C2 1_555 1_555
C4 C3 1_555 1_555
H3 C4 1_555 1_555
C5 C4 1_555 1_555
H4 C5 1_555 1_555
C6 C1 1_555 1_555
C7 C6 1_555 1_555
C8 C7 1_555 1_555
H5 C8 1_555 1_555
C9 O1 1_555 1_555
C10 C9 1_555 1_555
H6 C10 1_555 1_555
C5 C6 1_555 1_555
C8 C9 1_555 1_555

#END
