
#######################################################################
#
#                 Cambridge Crystallographic Data Centre
#                                CCDC 
#
#######################################################################
#
# If this CIF has been generated from an entry in the Cambridge 
# Structural Database, then it will include bibliographic, chemical, 
# crystal, experimental, refinement or atomic coordinate data resulting 
# from the CCDC's data processing and validation procedures.
#
#######################################################################

data_QERPEL
_chemical_formula_moiety         'C12 H6 N2 O4 2-,C3 H12 N2 2+'
_chemical_name_systematic        
"propane-1,3-diaminium [2,2'-bipyridine]-4,4'-dicarboxylate"
_symmetry_cell_setting           monoclinic
_symmetry_space_group_name_H-M   'P 21/c'
_symmetry_Int_Tables_number      14
_space_group_name_Hall           '-P 2ybc'
loop_
_symmetry_equiv_pos_site_id
_symmetry_equiv_pos_as_xyz
1 x,y,z
2 -x,1/2+y,1/2-z
3 -x,-y,-z
4 x,1/2-y,1/2+z
_cell_length_a                   11.873(6)
_cell_length_b                   8.772(5)
_cell_length_c                   13.972(7)
_cell_angle_alpha                90
_cell_angle_beta                 93.175(7)
_cell_angle_gamma                90
_cell_volume                     1452.95
_exptl_crystal_colour            colorless
_exptl_crystal_description       block
_cell_formula_units_Z            4
loop_
_atom_site_label
_atom_site_type_symbol
_atom_site_fract_x
_atom_site_fract_y
_atom_site_fract_z
O1 O 0.82321(15) 0.0932(2) 1.09885(13)
O2 O 0.08507(15) 0.3978(2) 0.81570(14)
O3 O 0.83706(15) 0.2455(2) 0.97223(14)
O4 O 0.09200(16) 0.6006(3) 0.72106(15)
C1 C 0.6059(2) 0.3055(4) 0.9619(2)
C2 C 0.1368(2) 0.5037(3) 0.77428(19)
N1 N 0.4984(2) 0.5051(3) 0.82675(19)
N2 N 0.4206(2) 0.2369(3) 1.0073(2)
C3 C 0.3154(2) 0.4107(4) 0.8613(2)
C4 C 0.7821(2) 0.1801(3) 1.0349(2)
C5 C 0.4320(2) 0.4141(3) 0.8774(2)
C6 C 0.2631(2) 0.5042(3) 0.7925(2)
C7 C 0.4889(2) 0.3158(3) 0.9514(2)
C8 C 0.5865(3) 0.1264(4) 1.0871(3)
C9 C 0.3309(3) 0.5988(4) 0.7412(2)
C10 C 0.6562(2) 0.2062(4) 1.0289(2)
C11 C 0.4465(3) 0.5954(4) 0.7602(2)
C12 C 0.4701(3) 0.1464(5) 1.0744(3)
H1 H 0.653(2) 0.370(4) 0.920(2)
H2 H 0.619(3) 0.055(5) 1.138(3)
H3 H 0.295(3) 0.661(4) 0.688(2)
H4 H 0.267(2) 0.337(4) 0.899(2)
H5 H 0.502(3) 0.669(4) 0.725(2)
H6 H 0.413(3) 0.084(4) 1.121(3)
N3 N 0.8604(2) 1.0689(3) 0.3006(2)
N4 N 0.9362(2) 0.6728(3) 0.54632(19)
C13 C 0.8948(2) 0.8702(4) 0.4238(2)
C14 C 0.8728(3) 0.7080(3) 0.4536(2)
C15 C 0.8324(3) 0.9101(4) 0.3294(2)
H7 H 0.835(2) 1.086(3) 0.242(2)
H8 H 0.924(3) 0.732(4) 0.593(2)
H9 H 0.759(3) 0.907(3) 0.328(2)
H10 H 0.898(2) 0.642(3) 0.4083(19)
H11 H 0.944(3) 1.083(4) 0.296(2)
H12 H 0.874(2) 0.938(3) 0.474(2)
H13 H 0.796(2) 0.695(3) 0.4591(19)
H14 H 0.969(2) 0.882(3) 0.4192(19)
H15 H 1.019(3) 0.680(4) 0.542(2)
H16 H 0.920(3) 0.581(4) 0.564(2)
H17 H 0.852(2) 0.846(4) 0.278(2)
H18 H 0.840(3) 1.137(4) 0.345(3)
loop_
_geom_bond_atom_site_label_1
_geom_bond_atom_site_label_2
_geom_bond_site_symmetry_1
_geom_bond_site_symmetry_2
O1 C4 1_555 1_555
O2 C2 1_555 1_555
O3 C4 1_555 1_555
O4 C2 1_555 1_555
C1 C7 1_555 1_555
C2 C6 1_555 1_555
N1 C5 1_555 1_555
N2 C7 1_555 1_555
C3 C5 1_555 1_555
C4 C10 1_555 1_555
C5 C7 1_555 1_555
C6 C3 1_555 1_555
C8 C10 1_555 1_555
C9 C6 1_555 1_555
C10 C1 1_555 1_555
C11 N1 1_555 1_555
C12 N2 1_555 1_555
H1 C1 1_555 1_555
H2 C8 1_555 1_555
H3 C9 1_555 1_555
H4 C3 1_555 1_555
H5 C11 1_555 1_555
H6 C12 1_555 1_555
N3 C15 1_555 1_555
N4 C14 1_555 1_555
C13 C14 1_555 1_555
C14 H10 1_555 1_555
C15 C13 1_555 1_555
H7 N3 1_555 1_555
H8 N4 1_555 1_555
H9 C15 1_555 1_555
H11 N3 1_555 1_555
H12 C13 1_555 1_555
H13 C14 1_555 1_555
H14 C13 1_555 1_555
H15 N4 1_555 1_555
H16 N4 1_555 1_555
H17 C15 1_555 1_555
H18 N3 1_555 1_555
C8 C12 1_555 1_555
C9 C11 1_555 1_555

#END
