
#######################################################################
#
#                 Cambridge Crystallographic Data Centre
#                                CCDC 
#
#######################################################################
#
# If this CIF has been generated from an entry in the Cambridge 
# Structural Database, then it will include bibliographic, chemical, 
# crystal, experimental, refinement or atomic coordinate data resulting 
# from the CCDC's data processing and validation procedures.
#
#######################################################################

data_QERTIR01
_chemical_formula_moiety         'C13 H9 Cl1 N2'
_chemical_name_systematic        2-(4-Chlorophenyl)-1H-benzimidazole
_symmetry_cell_setting           orthorhombic
_symmetry_space_group_name_H-M   'P b c a'
_symmetry_Int_Tables_number      61
_space_group_name_Hall           '-P 2ac 2ab'
loop_
_symmetry_equiv_pos_site_id
_symmetry_equiv_pos_as_xyz
1 x,y,z
2 1/2-x,-y,1/2+z
3 -x,1/2+y,1/2-z
4 1/2+x,1/2-y,-z
5 -x,-y,-z
6 1/2+x,y,1/2-z
7 x,1/2-y,1/2+z
8 1/2-x,1/2+y,z
_cell_length_a                   9.1642(7)
_cell_length_b                   9.7348(7)
_cell_length_c                   23.5043(18)
_cell_angle_alpha                90
_cell_angle_beta                 90
_cell_angle_gamma                90
_cell_volume                     2096.86
_exptl_crystal_colour            colorless
_cell_formula_units_Z            8
loop_
_atom_site_label
_atom_site_type_symbol
_atom_site_fract_x
_atom_site_fract_y
_atom_site_fract_z
C1 C 0.67768(14) 0.55090(14) 0.05333(6)
C2 C 0.56584(15) 0.64197(13) 0.04067(6)
H1 H 0.5828 0.7184 0.0164
C3 C 0.42887(15) 0.61960(13) 0.06399(5)
H2 H 0.3510 0.6805 0.0553
C4 C 0.40464(14) 0.50805(13) 0.10021(5)
C5 C 0.51940(15) 0.41809(14) 0.11187(6)
H3 H 0.5032 0.3416 0.1362
C6 C 0.65654(15) 0.43856(14) 0.08860(6)
H4 H 0.7343 0.3770 0.0966
C7 C 0.26153(14) 0.48692(13) 0.12692(5)
C8 C 0.05115(14) 0.51857(13) 0.16578(5)
C9 C -0.07817(15) 0.57011(14) 0.18915(6)
H5 H -0.1021 0.6648 0.1862
C10 C -0.17021(15) 0.47916(14) 0.21671(6)
H6 H -0.2578 0.5125 0.2333
C11 C -0.13674(15) 0.33835(14) 0.22064(6)
H7 H -0.2019 0.2788 0.2401
C12 C -0.01115(15) 0.28465(13) 0.19680(5)
H8 H 0.0104 0.1893 0.1986
C13 C 0.08237(14) 0.37729(13) 0.16997(5)
N1 N 0.16581(12) 0.58546(11) 0.13838(5)
N2 N 0.21682(12) 0.36042(11) 0.14480(5)
H9 H 0.2648 0.2827 0.1410
Cl1 Cl 0.84930(4) 0.57534(4) 0.02337(2)
loop_
_geom_bond_atom_site_label_1
_geom_bond_atom_site_label_2
_geom_bond_site_symmetry_1
_geom_bond_site_symmetry_2
C1 C2 1_555 1_555
C2 H1 1_555 1_555
C3 C2 1_555 1_555
H2 C3 1_555 1_555
C4 C3 1_555 1_555
C5 C4 1_555 1_555
H3 C5 1_555 1_555
C6 C1 1_555 1_555
H4 C6 1_555 1_555
C7 C4 1_555 1_555
C8 C9 1_555 1_555
C9 H5 1_555 1_555
C10 C9 1_555 1_555
H6 C10 1_555 1_555
C11 C10 1_555 1_555
H7 C11 1_555 1_555
C12 C11 1_555 1_555
H8 C12 1_555 1_555
C13 C8 1_555 1_555
N1 C7 1_555 1_555
N2 C7 1_555 1_555
H9 N2 1_555 1_555
Cl1 C1 1_555 1_555
C5 C6 1_555 1_555
C8 N1 1_555 1_555
C12 C13 1_555 1_555
C13 N2 1_555 1_555

#END
