
#######################################################################
#
#                 Cambridge Crystallographic Data Centre
#                                CCDC 
#
#######################################################################
#
# If this CIF has been generated from an entry in the Cambridge 
# Structural Database, then it will include bibliographic, chemical, 
# crystal, experimental, refinement or atomic coordinate data resulting 
# from the CCDC's data processing and validation procedures.
#
#######################################################################

data_QERVEP
_chemical_formula_moiety         'C18 H18 N2 O1'
_chemical_name_systematic        
1-(4,5-Dihydro-5-phenyl-3-(p-tolyl)pyrazol-1-yl)ethanone
_symmetry_cell_setting           monoclinic
_symmetry_space_group_name_H-M   'P 21/c'
_symmetry_Int_Tables_number      14
_space_group_name_Hall           '-P 2ybc'
loop_
_symmetry_equiv_pos_site_id
_symmetry_equiv_pos_as_xyz
1 x,y,z
2 -x,1/2+y,1/2-z
3 -x,-y,-z
4 x,1/2-y,1/2+z
_cell_length_a                   14.872(3)
_cell_length_b                   10.963(2)
_cell_length_c                   9.852(2)
_cell_angle_alpha                90
_cell_angle_beta                 108.58(3)
_cell_angle_gamma                90
_cell_volume                     1522.57
_exptl_crystal_colour            colorless
_exptl_crystal_description       block
_chemical_melting_point          115.5deg.C
_cell_formula_units_Z            4
_exptl_crystal_recrystallization_method ethanol
loop_
_atom_site_label
_atom_site_type_symbol
_atom_site_fract_x
_atom_site_fract_y
_atom_site_fract_z
O1 O 0.00040(12) 0.13831(17) 0.22388(19)
N1 N -0.12161(13) 0.02399(17) 0.09589(18)
C1 C -0.12380(15) -0.0561(2) 0.2170(2)
H1 H -0.0599 -0.0865 0.2678
C2 C -0.53479(18) -0.3242(3) -0.4781(3)
H2 H -0.5424 -0.4083 -0.4568
H3 H -0.5162 -0.3189 -0.5627
H4 H -0.5938 -0.2819 -0.4937
C3 C -0.45903(15) -0.2663(2) -0.3532(2)
C4 C -0.43386(18) -0.1445(2) -0.3585(3)
H5 H -0.4665 -0.0975 -0.4373
C5 C -0.36170(17) -0.0918(2) -0.2497(2)
H6 H -0.3467 -0.0102 -0.2565
C6 C -0.31061(14) -0.15940(19) -0.1287(2)
C7 C -0.33758(15) -0.2802(2) -0.1213(2)
H7 H -0.3067 -0.3267 -0.0410
C8 C -0.41016(16) -0.3319(2) -0.2324(3)
H8 H -0.4263 -0.4131 -0.2253
C9 C -0.18705(15) -0.16137(19) 0.1339(2)
H9 H -0.1496 -0.2328 0.1299
H10 H -0.2351 -0.1835 0.1769
N2 N -0.19188(12) -0.00538(16) -0.03323(17)
C10 C -0.16524(14) 0.00708(19) 0.3219(2)
C11 C -0.24116(16) 0.0866(2) 0.2731(2)
H11 H -0.2645 0.1060 0.1763
C12 C -0.28267(19) 0.1376(3) 0.3680(3)
H12 H -0.3340 0.1902 0.3343
C13 C -0.24740(18) 0.1098(3) 0.5141(3)
H13 H -0.2748 0.1448 0.5775
C14 C -0.17235(17) 0.0310(2) 0.5637(2)
H14 H -0.1493 0.0116 0.6606
C15 C -0.13059(15) -0.0199(2) 0.4684(2)
H15 H -0.0792 -0.0724 0.5027
C16 C -0.05748(15) 0.1147(2) 0.1064(2)
C17 C -0.05997(18) 0.1794(2) -0.0299(3)
H16 H -0.0117 0.2412 -0.0087
H17 H -0.1210 0.2165 -0.0718
H18 H -0.0487 0.1217 -0.0960
C18 C -0.23131(14) -0.10577(19) -0.0138(2)
loop_
_geom_bond_atom_site_label_1
_geom_bond_atom_site_label_2
_geom_bond_site_symmetry_1
_geom_bond_site_symmetry_2
O1 C16 1_555 1_555
N1 C1 1_555 1_555
C1 H1 1_555 1_555
C2 H2 1_555 1_555
H3 C2 1_555 1_555
H4 C2 1_555 1_555
C3 C2 1_555 1_555
C4 C3 1_555 1_555
H5 C4 1_555 1_555
C5 C4 1_555 1_555
H6 C5 1_555 1_555
C6 C5 1_555 1_555
C7 C6 1_555 1_555
H7 C7 1_555 1_555
C8 C3 1_555 1_555
H8 C8 1_555 1_555
C9 C1 1_555 1_555
H9 C9 1_555 1_555
H10 C9 1_555 1_555
N2 N1 1_555 1_555
C10 C1 1_555 1_555
C11 C10 1_555 1_555
H11 C11 1_555 1_555
C12 C11 1_555 1_555
H12 C12 1_555 1_555
C13 C12 1_555 1_555
H13 C13 1_555 1_555
C14 C13 1_555 1_555
H14 C14 1_555 1_555
C15 C10 1_555 1_555
H15 C15 1_555 1_555
C16 N1 1_555 1_555
C17 C16 1_555 1_555
H16 C17 1_555 1_555
H17 C17 1_555 1_555
H18 C17 1_555 1_555
C18 C6 1_555 1_555
C7 C8 1_555 1_555
C9 C18 1_555 1_555
N2 C18 1_555 1_555
C14 C15 1_555 1_555

#END
