
#######################################################################
#
#                 Cambridge Crystallographic Data Centre
#                                CCDC 
#
#######################################################################
#
# If this CIF has been generated from an entry in the Cambridge 
# Structural Database, then it will include bibliographic, chemical, 
# crystal, experimental, refinement or atomic coordinate data resulting 
# from the CCDC's data processing and validation procedures.
#
#######################################################################

data_QERVER
_chemical_formula_moiety         'C30 H50 O4 S1 Si2'
_chemical_name_systematic        
{[3-methyl-8-methylidene-5-(phenylsulfonyl)-1,2,3,3a,6,7,8,8a-octahydroazulene-2,4-diyl]bis(oxy)}bis[t-butyl(dimethyl)silane]
_symmetry_cell_setting           orthorhombic
_symmetry_space_group_name_H-M   'P 21 21 21'
_symmetry_Int_Tables_number      19
_space_group_name_Hall           'P 2ac 2ab'
loop_
_symmetry_equiv_pos_site_id
_symmetry_equiv_pos_as_xyz
1 x,y,z
2 1/2-x,-y,1/2+z
3 -x,1/2+y,1/2-z
4 1/2+x,1/2-y,-z
_cell_length_a                   8.36080(10)
_cell_length_b                   16.92910(10)
_cell_length_c                   23.1401(2)
_cell_angle_alpha                90
_cell_angle_beta                 90
_cell_angle_gamma                90
_cell_volume                     3275.27
_exptl_crystal_colour            colorless
_exptl_crystal_description       block
_cell_formula_units_Z            4
loop_
_atom_site_label
_atom_site_type_symbol
_atom_site_fract_x
_atom_site_fract_y
_atom_site_fract_z
S1 S 0.48178(5) 0.95289(2) 0.24572(2)
Si1 Si 0.19356(7) 0.57233(3) 0.44501(2)
Si2 Si 0.38590(7) 0.78973(3) 0.12353(2)
O1 O 0.58535(18) 1.00238(8) 0.28021(7)
O2 O 0.22911(19) 0.63980(8) 0.39585(6)
O3 O 0.49478(19) 0.95907(8) 0.18380(6)
O4 O 0.34230(17) 0.81025(8) 0.19302(6)
C1 C 0.5013(2) 0.65688(11) 0.35648(8)
H1 H 0.5582 0.6131 0.3741
H2 H 0.5105 0.7029 0.3812
C2 C 0.3397(11) 0.6251(3) 0.1093(3)
H3 H 0.4405 0.6241 0.0895
H4 H 0.2742 0.5823 0.0959
H5 H 0.3574 0.6195 0.1501
C3 C 0.2548(3) 0.98993(13) 0.32472(9)
H6 H 0.3397 0.9939 0.3505
C4 C 0.5871(2) 0.84448(11) 0.32748(8)
H7 H 0.5128 0.8201 0.3543
H8 H 0.6142 0.8962 0.3426
C5 C 0.5053(2) 0.85444(10) 0.26970(8)
C6 C 0.1580(3) 0.96894(12) 0.22738(10)
H9 H 0.1782 0.9585 0.1886
C7 C 0.7397(2) 0.79406(11) 0.32452(9)
H10 H 0.8249 0.8253 0.3076
H11 H 0.7719 0.7801 0.3635
C8 C 0.3260(2) 0.63580(11) 0.34548(8)
H12 H 0.3201 0.5823 0.3294
C9 C 0.5648(2) 0.67411(10) 0.29556(8)
H13 H 0.5843 0.6225 0.2778
C10 C 0.4198(2) 0.71088(10) 0.26178(8)
H14 H 0.4067 0.6787 0.2269
C11 C 0.8309(2) 0.69617(11) 0.25278(10)
H15 H 0.9235 0.7259 0.2481
H16 H 0.8168 0.6500 0.2316
C12 C 0.7193(2) 0.71945(11) 0.28963(8)
C13 C 0.1898(3) 0.76862(11) 0.32646(9)
H17 H 0.0943 0.7536 0.3467
H18 H 0.1632 0.8056 0.2965
H19 H 0.2634 0.7927 0.3530
C14 C 0.2827(2) 0.97425(10) 0.26667(9)
C15 C 0.2490(4) 0.70944(15) 0.09647(10)
C16 C 0.0056(3) 0.60925(12) 0.48106(8)
C17 C -0.0276(3) 0.99429(14) 0.30467(11)
H20 H -0.1322 1.0007 0.3174
C18 C 0.0985(3) 0.99960(14) 0.34367(10)
H21 H 0.0780 1.0096 0.3825
C19 C 0.0025(3) 0.97952(13) 0.24693(11)
H22 H -0.0822 0.9766 0.2210
C20 C 0.0341(3) 0.69193(14) 0.50614(10)
H23 H 0.1151 0.6892 0.5355
H24 H -0.0635 0.7114 0.5227
H25 H 0.0685 0.7269 0.4759
C21 C 0.3632(3) 0.56619(17) 0.49726(11)
H26 H 0.4588 0.5511 0.4771
H27 H 0.3392 0.5275 0.5264
H28 H 0.3788 0.6168 0.5152
C22 C -0.0461(3) 0.55274(16) 0.52972(10)
H29 H -0.1402 0.5731 0.5482
H30 H 0.0386 0.5482 0.5576
H31 H -0.0688 0.5016 0.5137
C23 C -0.1307(3) 0.61440(15) 0.43667(10)
H32 H -0.0994 0.6486 0.4056
H33 H -0.2247 0.6352 0.4550
H34 H -0.1530 0.5627 0.4217
C24 C 0.1616(3) 0.47324(13) 0.41127(10)
H35 H 0.0675 0.4747 0.3875
H36 H 0.1482 0.4343 0.4410
H37 H 0.2526 0.4598 0.3880
C25 C 0.3400(5) 0.88045(16) 0.08057(11)
H38 H 0.2275 0.8914 0.0827
H39 H 0.3702 0.8722 0.0410
H40 H 0.3988 0.9244 0.0960
C26 C 0.2376(16) 0.7134(7) 0.0314(6)
H41 H 0.1809 0.7603 0.0204
H42 H 0.1814 0.6678 0.0173
H43 H 0.3432 0.7145 0.0152
C27 C 0.5992(4) 0.7638(3) 0.12007(12)
H44 H 0.6601 0.8016 0.1418
H45 H 0.6339 0.7642 0.0805
H46 H 0.6149 0.7121 0.1361
C28 C 0.0948(8) 0.7085(4) 0.1252(3)
H47 H 0.1098 0.6980 0.1656
H48 H 0.0290 0.6680 0.1086
H49 H 0.0437 0.7589 0.1205
C29 C 0.4311(2) 0.79570(11) 0.24131(8)
C30 C 0.2670(2) 0.69533(10) 0.29962(8)
H50 H 0.1869 0.6690 0.2754
C31? C 0.235(2) 0.6379(6) 0.1296(4)
H51? H 0.3394 0.6166 0.1368
H52? H 0.1727 0.6000 0.1083
H53? H 0.1829 0.6491 0.1656
C32? C 0.0669(9) 0.7534(9) 0.0967(6)
H54? H 0.0398 0.7688 0.1354
H55? H -0.0119 0.7170 0.0824
H56? H 0.0695 0.7993 0.0723
C33? C 0.280(2) 0.6925(9) 0.0319(7)
H57? H 0.2855 0.7414 0.0111
H58? H 0.1941 0.6609 0.0168
H59? H 0.3789 0.6644 0.0278
loop_
_geom_bond_atom_site_label_1
_geom_bond_atom_site_label_2
_geom_bond_site_symmetry_1
_geom_bond_site_symmetry_2
S1 O1 1_555 1_555
Si1 O2 1_555 1_555
Si2 O4 1_555 1_555
O2 C8 1_555 1_555
O3 S1 1_555 1_555
O4 C29 1_555 1_555
C1 H1 1_555 1_555
H2 C1 1_555 1_555
C2 H3 1_555 1_555
H4 C2 1_555 1_555
H5 C2 1_555 1_555
C3 H6 1_555 1_555
C4 H7 1_555 1_555
H8 C4 1_555 1_555
C5 S1 1_555 1_555
C6 H9 1_555 1_555
C7 C4 1_555 1_555
H10 C7 1_555 1_555
H11 C7 1_555 1_555
C8 C1 1_555 1_555
H12 C8 1_555 1_555
C9 C1 1_555 1_555
H13 C9 1_555 1_555
C10 C9 1_555 1_555
H14 C10 1_555 1_555
C11 H15 1_555 1_555
H16 C11 1_555 1_555
C12 C7 1_555 1_555
C13 H17 1_555 1_555
H18 C13 1_555 1_555
H19 C13 1_555 1_555
C14 S1 1_555 1_555
C15 Si2 1_555 1_555
C16 Si1 1_555 1_555
C17 H20 1_555 1_555
C18 C3 1_555 1_555
H21 C18 1_555 1_555
C19 C6 1_555 1_555
H22 C19 1_555 1_555
C20 C16 1_555 1_555
H23 C20 1_555 1_555
H24 C20 1_555 1_555
H25 C20 1_555 1_555
C21 Si1 1_555 1_555
H26 C21 1_555 1_555
H27 C21 1_555 1_555
H28 C21 1_555 1_555
C22 C16 1_555 1_555
H29 C22 1_555 1_555
H30 C22 1_555 1_555
H31 C22 1_555 1_555
C23 C16 1_555 1_555
H32 C23 1_555 1_555
H33 C23 1_555 1_555
H34 C23 1_555 1_555
C24 Si1 1_555 1_555
H35 C24 1_555 1_555
H36 C24 1_555 1_555
H37 C24 1_555 1_555
C25 Si2 1_555 1_555
H38 C25 1_555 1_555
H39 C25 1_555 1_555
H40 C25 1_555 1_555
C26 C15 1_555 1_555
H41 C26 1_555 1_555
H42 C26 1_555 1_555
H43 C26 1_555 1_555
C27 Si2 1_555 1_555
H44 C27 1_555 1_555
H45 C27 1_555 1_555
H46 C27 1_555 1_555
C28 C15 1_555 1_555
H47 C28 1_555 1_555
H48 C28 1_555 1_555
H49 C28 1_555 1_555
C29 C5 1_555 1_555
C30 C8 1_555 1_555
H50 C30 1_555 1_555
C2 C15 1_555 1_555
C3 C14 1_555 1_555
C4 C5 1_555 1_555
C6 C14 1_555 1_555
C9 C12 1_555 1_555
C10 C29 1_555 1_555
C10 C30 1_555 1_555
C11 C12 1_555 1_555
C13 C30 1_555 1_555
C17 C18 1_555 1_555
C17 C19 1_555 1_555

#END
