
#######################################################################
#
#                 Cambridge Crystallographic Data Centre
#                                CCDC 
#
#######################################################################
#
# If this CIF has been generated from an entry in the Cambridge 
# Structural Database, then it will include bibliographic, chemical, 
# crystal, experimental, refinement or atomic coordinate data resulting 
# from the CCDC's data processing and validation procedures.
#
#######################################################################

data_QERWAM
_chemical_formula_moiety         'C36 H28 N2'
_chemical_name_systematic        
N,N,N',N'-Tetraphenyl-1,1'-biphenyl-4,4'-diamine
_symmetry_cell_setting           orthorhombic
_symmetry_space_group_name_H-M   'F d d 2'
_symmetry_Int_Tables_number      43
_space_group_name_Hall           'F 2 -2d'
loop_
_symmetry_equiv_pos_site_id
_symmetry_equiv_pos_as_xyz
1 x,y,z
2 -x,-y,z
3 1/4+x,1/4-y,1/4+z
4 1/4-x,1/4+y,1/4+z
5 x,1/2+y,1/2+z
6 -x,1/2-y,1/2+z
7 1/4+x,3/4-y,3/4+z
8 1/4-x,3/4+y,3/4+z
9 1/2+x,y,1/2+z
10 1/2-x,-y,1/2+z
11 3/4+x,1/4-y,3/4+z
12 3/4-x,1/4+y,3/4+z
13 1/2+x,1/2+y,z
14 1/2-x,1/2-y,z
15 3/4+x,3/4-y,1/4+z
16 3/4-x,3/4+y,1/4+z
_cell_length_a                   16.389(2)
_cell_length_b                   34.178(4)
_cell_length_c                   9.729(2)
_cell_angle_alpha                90
_cell_angle_beta                 90
_cell_angle_gamma                90
_cell_volume                     5449.63
_exptl_crystal_colour            colorless
_exptl_crystal_description       plate
_cell_formula_units_Z            8
_exptl_crystal_recrystallization_method 'ethyl acetate'
loop_
_atom_site_label
_atom_site_type_symbol
_atom_site_fract_x
_atom_site_fract_y
_atom_site_fract_z
C1 C 0.3929(4) 0.15762(17) 0.9364(14)
C2 C 0.3283(4) 0.18197(17) 0.9065(14)
H1 H 0.3175 0.1889 0.8159
C3 C 0.2800(4) 0.19601(18) 1.0107(15)
H2 H 0.2369 0.2128 0.9905
C4 C 0.2951(5) 0.1853(2) 1.1455(15)
H3 H 0.2611 0.1941 1.2156
C5 C 0.3605(5) 0.1618(2) 1.1750(14)
H4 H 0.3719 0.1552 1.2658
C6 C 0.4091(4) 0.14779(18) 1.0716(13)
H5 H 0.4531 0.1316 1.0924
C7 C 0.4604(3) 0.10214(14) 0.8229(13)
C8 C 0.3995(4) 0.07583(16) 0.8552(14)
H6 H 0.3477 0.0849 0.8782
C9 C 0.4149(3) 0.03622(15) 0.8534(13)
H7 H 0.3732 0.0190 0.8766
C10 C 0.4919(3) 0.02113(14) 0.8174(13)
C11 C 0.5510(4) 0.04814(15) 0.7829(13)
H8 H 0.6022 0.0394 0.7554
C12 C 0.5359(3) 0.08803(15) 0.7882(13)
H9 H 0.5776 0.1055 0.7679
N1 N 0.4442(3) 0.14303(12) 0.8302(12)
C13 C 0.4838(3) 0.16951(14) 0.7413(13)
C14 C 0.5099(4) 0.20580(14) 0.7885(11)
H10 H 0.5075 0.2136 0.8800
C15 C 0.4971(4) 0.16093(19) 0.6044(12)
H11 H 0.4806 0.1359 0.5796
C16 C 0.5401(9) 0.2291(4) 0.6830(7)
H12 H 0.5525 0.2549 0.7061
C17 C 0.5539(10) 0.2186(4) 0.5470(9)
H13 H 0.5797 0.2362 0.4885
C18 C 0.5301(9) 0.1823(4) 0.4963(9)
H14 H 0.5353 0.1738 0.4059
C1A C 0.6071(4) -0.15762(17) 0.9364(14)
C2A C 0.6717(4) -0.18197(17) 0.9065(14)
H1A H 0.6825 -0.1889 0.8159
C3A C 0.7200(4) -0.19601(18) 1.0107(15)
H2A H 0.7631 -0.2128 0.9905
C4A C 0.7049(5) -0.1853(2) 1.1455(15)
H3A H 0.7389 -0.1941 1.2156
C5A C 0.6395(5) -0.1618(2) 1.1750(14)
H4A H 0.6281 -0.1552 1.2658
C6A C 0.5909(4) -0.14779(18) 1.0716(13)
H5A H 0.5469 -0.1316 1.0924
C7A C 0.5396(3) -0.10214(14) 0.8229(13)
C8A C 0.6005(4) -0.07583(16) 0.8552(14)
H6A H 0.6523 -0.0849 0.8782
C9A C 0.5851(3) -0.03622(15) 0.8534(13)
H7A H 0.6268 -0.0190 0.8766
C10A C 0.5081(3) -0.02113(14) 0.8174(13)
C11A C 0.4490(4) -0.04814(15) 0.7829(13)
H8A H 0.3978 -0.0394 0.7554
C12A C 0.4641(3) -0.08803(15) 0.7882(13)
H9A H 0.4224 -0.1055 0.7679
N1A N 0.5558(3) -0.14303(12) 0.8302(12)
C13A C 0.5162(3) -0.16951(14) 0.7413(13)
C14A C 0.4901(4) -0.20580(14) 0.7885(11)
H10A H 0.4925 -0.2136 0.8800
C15A C 0.5029(4) -0.16093(19) 0.6044(12)
H11A H 0.5194 -0.1359 0.5796
C16A C 0.4599(9) -0.2291(4) 0.6830(7)
H12A H 0.4475 -0.2549 0.7061
C17A C 0.4461(10) -0.2186(4) 0.5470(9)
H13A H 0.4203 -0.2362 0.4885
C18A C 0.4699(9) -0.1823(4) 0.4963(9)
H14A H 0.4647 -0.1738 0.4059
C19? C 0.5586(10) 0.2356(3) 0.7365(10)
H15? H 0.5811 0.2567 0.7837
C20? C 0.5658(8) 0.2268(4) 0.5976(10)
H16? H 0.5882 0.2454 0.5389
C21? C 0.5408(9) 0.1911(3) 0.5431(14)
H17? H 0.5556 0.1868 0.4520
loop_
_geom_bond_atom_site_label_1
_geom_bond_atom_site_label_2
_geom_bond_site_symmetry_1
_geom_bond_site_symmetry_2
C1 C2 1_555 1_555
C2 H1 1_555 1_555
C3 C2 1_555 1_555
H2 C3 1_555 1_555
C4 C3 1_555 1_555
H3 C4 1_555 1_555
C5 C4 1_555 1_555
H4 C5 1_555 1_555
C6 C1 1_555 1_555
H5 C6 1_555 1_555
C7 C8 1_555 1_555
C8 H6 1_555 1_555
C9 C8 1_555 1_555
H7 C9 1_555 1_555
C10 C9 1_555 1_555
C11 C10 1_555 1_555
H8 C11 1_555 1_555
C12 C7 1_555 1_555
H9 C12 1_555 1_555
N1 C1 1_555 1_555
C13 N1 1_555 1_555
C14 C13 1_555 1_555
H10 C14 1_555 1_555
C15 C13 1_555 1_555
H11 C15 1_555 1_555
C16 C14 1_555 1_555
H12 C16 1_555 1_555
C17 C16 1_555 1_555
H13 C17 1_555 1_555
C18 C15 1_555 1_555
H14 C18 1_555 1_555
C1A C2A 1_555 1_555
C2A H1A 1_555 1_555
C3A C2A 1_555 1_555
H2A C3A 1_555 1_555
C4A C3A 1_555 1_555
H3A C4A 1_555 1_555
C5A C4A 1_555 1_555
H4A C5A 1_555 1_555
C6A C1A 1_555 1_555
H5A C6A 1_555 1_555
C7A C8A 1_555 1_555
C8A H6A 1_555 1_555
C9A C8A 1_555 1_555
H7A C9A 1_555 1_555
C10A C10 1_555 1_555
C11A C10A 1_555 1_555
H8A C11A 1_555 1_555
C12A C7A 1_555 1_555
H9A C12A 1_555 1_555
N1A C1A 1_555 1_555
C13A N1A 1_555 1_555
C14A C13A 1_555 1_555
H10A C14A 1_555 1_555
C15A C13A 1_555 1_555
H11A C15A 1_555 1_555
C16A C14A 1_555 1_555
H12A C16A 1_555 1_555
C17A C16A 1_555 1_555
H13A C17A 1_555 1_555
C18A C15A 1_555 1_555
H14A C18A 1_555 1_555
C5 C6 1_555 1_555
C7 N1 1_555 1_555
C11 C12 1_555 1_555
C17 C18 1_555 1_555
C5A C6A 1_555 1_555
C7A N1A 1_555 1_555
C9A C10A 1_555 1_555
C11A C12A 1_555 1_555
C17A C18A 1_555 1_555

#END
