
#######################################################################
#
#                 Cambridge Crystallographic Data Centre
#                                CCDC 
#
#######################################################################
#
# If this CIF has been generated from an entry in the Cambridge 
# Structural Database, then it will include bibliographic, chemical, 
# crystal, experimental, refinement or atomic coordinate data resulting 
# from the CCDC's data processing and validation procedures.
#
#######################################################################

data_QERYIW
_chemical_formula_moiety         'C17 H12 F2 N4 S1'
_chemical_name_systematic        
'6-(2,4-Difluorophenyl)-3-(4-methylphenyl)-7H-1,2,4-triazolo(3,4-b)(1,3,4) thiadiazine'
_symmetry_cell_setting           monoclinic
_symmetry_space_group_name_H-M   'P 21/c'
_symmetry_Int_Tables_number      14
_space_group_name_Hall           '-P 2ybc'
loop_
_symmetry_equiv_pos_site_id
_symmetry_equiv_pos_as_xyz
1 x,y,z
2 -x,1/2+y,1/2-z
3 -x,-y,-z
4 x,1/2-y,1/2+z
_cell_length_a                   12.0693(11)
_cell_length_b                   13.0368(12)
_cell_length_c                   10.4572(9)
_cell_angle_alpha                90
_cell_angle_beta                 109.827(2)
_cell_angle_gamma                90
_cell_volume                     1547.85
_exptl_crystal_colour            colorless
_exptl_crystal_description       block
_cell_formula_units_Z            4
_exptl_crystal_recrystallization_method ethanol
loop_
_atom_site_label
_atom_site_type_symbol
_atom_site_fract_x
_atom_site_fract_y
_atom_site_fract_z
S1 S 1.03481(5) 0.80444(5) 1.24396(6)
F1 F 0.73830(14) 0.76724(11) 0.70989(14)
F2 F 0.62307(17) 0.42587(13) 0.68514(18)
N1 N 0.82516(16) 0.83920(14) 0.96963(17)
N2 N 0.88603(15) 0.92174(13) 1.04622(18)
N3 N 0.99200(18) 1.01110(16) 1.2232(2)
N4 N 0.91361(18) 1.07673(15) 1.1313(2)
C1 C 0.7436(2) 0.67609(17) 0.7725(2)
C2 C 0.6799(2) 0.5973(2) 0.6968(3)
H1 H 0.6334 0.6067 0.6063
C3 C 0.6871(2) 0.5040(2) 0.7590(3)
C4 C 0.7562(2) 0.4874(2) 0.8911(3)
H2 H 0.7601 0.4229 0.9304
C5 C 0.8201(2) 0.56838(18) 0.9645(2)
H3 H 0.8680 0.5578 1.0541
C6 C 0.81474(19) 0.66567(17) 0.9079(2)
C7 C 0.87967(19) 0.75313(17) 0.9893(2)
C8 C 1.0043(2) 0.73736(18) 1.0841(2)
H4 H 1.0585 0.7611 1.0400
H5 H 1.0179 0.6646 1.1020
C9 C 0.97367(19) 0.91937(18) 1.1708(2)
C10 C 0.84938(19) 1.02217(17) 1.0271(2)
C11 C 0.75565(19) 1.06402(17) 0.9093(2)
C12 C 0.7039(2) 1.15618(18) 0.9252(3)
H6 H 0.7277 1.1887 1.0093
C13 C 0.6174(2) 1.1993(2) 0.8164(3)
H7 H 0.5839 1.2612 0.8284
C14 C 0.5789(2) 1.1535(2) 0.6901(3)
C15 C 0.6317(2) 1.0620(2) 0.6756(3)
H8 H 0.6076 1.0297 0.5913
C16 C 0.7186(2) 1.01748(19) 0.7823(2)
H9 H 0.7527 0.9561 0.7695
C17 C 0.4837(2) 1.2022(2) 0.5724(3)
H10 H 0.5174 1.2552 0.5335
H11 H 0.4247 1.2312 0.6042
H12 H 0.4485 1.1510 0.5048
loop_
_geom_bond_atom_site_label_1
_geom_bond_atom_site_label_2
_geom_bond_site_symmetry_1
_geom_bond_site_symmetry_2
S1 C8 1_555 1_555
F1 C1 1_555 1_555
F2 C3 1_555 1_555
N1 N2 1_555 1_555
N2 C9 1_555 1_555
N3 N4 1_555 1_555
N4 C10 1_555 1_555
C1 C2 1_555 1_555
C2 H1 1_555 1_555
C3 C2 1_555 1_555
C4 C3 1_555 1_555
H2 C4 1_555 1_555
C5 C4 1_555 1_555
H3 C5 1_555 1_555
C6 C1 1_555 1_555
C7 N1 1_555 1_555
C8 C7 1_555 1_555
H4 C8 1_555 1_555
H5 C8 1_555 1_555
C9 S1 1_555 1_555
C10 N2 1_555 1_555
C11 C10 1_555 1_555
C12 C11 1_555 1_555
H6 C12 1_555 1_555
C13 C12 1_555 1_555
H7 C13 1_555 1_555
C14 C13 1_555 1_555
C15 C14 1_555 1_555
H8 C15 1_555 1_555
C16 C11 1_555 1_555
H9 C16 1_555 1_555
C17 C14 1_555 1_555
H10 C17 1_555 1_555
H11 C17 1_555 1_555
H12 C17 1_555 1_555
N3 C9 1_555 1_555
C5 C6 1_555 1_555
C6 C7 1_555 1_555
C15 C16 1_555 1_555

#END
