
#######################################################################
#
#                 Cambridge Crystallographic Data Centre
#                                CCDC 
#
#######################################################################
#
# If this CIF has been generated from an entry in the Cambridge 
# Structural Database, then it will include bibliographic, chemical, 
# crystal, experimental, refinement or atomic coordinate data resulting 
# from the CCDC's data processing and validation procedures.
#
#######################################################################

data_QERZUL
_chemical_formula_moiety         'C4 N10 O6 2-,2(H4 N1 1+)'
_chemical_name_systematic        
"bis(ammonium) (4H,8H-bis[1,2,5]oxadiazolo[3,4-b:3',4'-e]pyrazine-4,8-diyl)bis(nitroazanide)"
_symmetry_cell_setting           triclinic
_symmetry_space_group_name_H-M   'P -1'
_symmetry_Int_Tables_number      2
_space_group_name_Hall           '-P 1'
loop_
_symmetry_equiv_pos_site_id
_symmetry_equiv_pos_as_xyz
1 x,y,z
2 -x,-y,-z
_cell_length_a                   5.313(3)
_cell_length_b                   6.260(4)
_cell_length_c                   9.689(6)
_cell_angle_alpha                74.130(10)
_cell_angle_beta                 82.944(10)
_cell_angle_gamma                78.931(11)
_cell_volume                     303.355
_exptl_crystal_colour            'whiteish colorless'
_exptl_crystal_description       block
_cell_formula_units_Z            1
loop_
_atom_site_label
_atom_site_type_symbol
_atom_site_fract_x
_atom_site_fract_y
_atom_site_fract_z
O1 O 0.7174(2) 0.5943(2) 0.63839(13)
O2 O 0.4213(2) 0.7770(2) 0.49164(12)
O3 O 0.8172(3) 0.9026(2) 0.95194(13)
N1 N 0.4889(2) 0.6834(2) 0.61720(13)
N2 N 0.4104(3) 0.5945(2) 0.85661(13)
N3 N 0.3037(2) 0.6947(2) 0.72278(13)
N4 N 0.1873(3) 0.2756(2) 0.92120(14)
N5 N 0.6651(3) 0.8783(2) 0.84968(15)
C1 C 0.3380(3) 0.4010(2) 0.94581(14)
C2 C 0.5723(3) 0.6944(2) 0.91208(15)
O1A O 0.2826(2) 0.4057(2) 1.36161(13)
O2A O 0.5787(2) 0.2230(2) 1.50836(12)
O3A O 0.1828(3) 0.0974(2) 1.04806(13)
N1A N 0.5111(2) 0.3166(2) 1.38280(13)
N2A N 0.5896(3) 0.4055(2) 1.14339(13)
N3A N 0.6963(2) 0.3053(2) 1.27722(13)
N4A N 0.8127(3) 0.7244(2) 1.07880(14)
N5A N 0.3349(3) 0.1217(2) 1.15032(15)
C1A C 0.6620(3) 0.5990(2) 1.05419(14)
C2A C 0.4277(3) 0.3056(2) 1.08792(15)
N6 N 1.0472(3) 0.1700(2) 0.64907(15)
H1 H 1.085(5) 0.011(5) 0.672(3)
H2 H 1.052(6) 0.242(5) 0.729(4)
H3 H 1.155(5) 0.244(5) 0.579(3)
H4 H 0.901(6) 0.219(5) 0.607(4)
loop_
_geom_bond_atom_site_label_1
_geom_bond_atom_site_label_2
_geom_bond_site_symmetry_1
_geom_bond_site_symmetry_2
O1 N1 1_555 1_555
O2 N1 1_555 1_555
O3 N5 1_555 1_555
N1 N3 1_555 1_555
N2 N3 1_555 1_555
N4 C1 1_555 1_555
N5 C2 1_555 1_555
C1 N2 1_555 1_555
C2 N2 1_555 1_555
N6 H1 1_555 1_555
H2 N6 1_555 1_555
H3 N6 1_555 1_555
H4 N6 1_555 1_555
O1A N1A 1_555 1_555
O2A N1A 1_555 1_555
O3A N4 1_555 1_555
N1A N3A 1_555 1_555
N2A N3A 1_555 1_555
N4A O3 1_555 1_555
N5A O3A 1_555 1_555
C1A C2 1_555 1_555
C2A C1 1_555 1_555
N2A C1A 1_555 1_555
N2A C2A 1_555 1_555
N4A C1A 1_555 1_555
N5A C2A 1_555 1_555

#END
