
#######################################################################
#
#                 Cambridge Crystallographic Data Centre
#                                CCDC 
#
#######################################################################
#
# If this CIF has been generated from an entry in the Cambridge 
# Structural Database, then it will include bibliographic, chemical, 
# crystal, experimental, refinement or atomic coordinate data resulting 
# from the CCDC's data processing and validation procedures.
#
#######################################################################

data_QESBUO
_chemical_formula_moiety         'C30 H33 B10 N1'
_chemical_name_systematic        
1-(9-methyl-9H-carbazol-3-yl)-2-(9,9-dimethyl-9H-fluoren-2-yl)-1,2-dicarba-closo-dodecaborane(10)
_symmetry_cell_setting           triclinic
_symmetry_space_group_name_H-M   'P -1'
_symmetry_Int_Tables_number      2
_space_group_name_Hall           '-P 1'
loop_
_symmetry_equiv_pos_site_id
_symmetry_equiv_pos_as_xyz
1 x,y,z
2 -x,-y,-z
_cell_length_a                   13.5294(4)
_cell_length_b                   14.5347(5)
_cell_length_c                   17.2949(6)
_cell_angle_alpha                86.318(2)
_cell_angle_beta                 70.182(2)
_cell_angle_gamma                67.113(2)
_cell_volume                     2938.67
_exptl_crystal_colour            yellow
_exptl_crystal_description       block
_cell_formula_units_Z            4
loop_
_atom_site_label
_atom_site_type_symbol
_atom_site_fract_x
_atom_site_fract_y
_atom_site_fract_z
C1 C 0.4528(2) 0.84258(17) 0.17170(15)
H1 H 0.3844 0.8336 0.1890
N1 N 0.6389(2) 0.88057(16) -0.01953(13)
C2 C 0.5027(2) 0.85544(17) 0.08938(15)
C3 C 0.4753(2) 0.85394(18) 0.01606(15)
C4 C 0.4567(2) 0.81917(18) 0.31479(15)
C5 C 0.3858(2) 0.91349(18) 0.39360(15)
C6 C 0.2956(3) 1.33046(19) 0.36896(15)
C7 C 0.5612(2) 0.86967(18) -0.04936(16)
C8 C 0.6072(2) 0.85871(19) 0.20114(16)
H2 H 0.6420 0.8590 0.2391
C9 C 0.4431(2) 1.15135(19) 0.37005(15)
H3 H 0.5011 1.1717 0.3682
C10 C 0.3739(2) 1.01903(18) 0.37695(15)
C11 C 0.6056(2) 0.87090(18) 0.06429(16)
C12 C 0.4601(2) 1.05058(18) 0.37476(15)
H4 H 0.5295 1.0038 0.3765
C13 C 0.3399(2) 1.22060(19) 0.36818(15)
C14 C 0.6573(2) 0.8734(2) 0.12030(17)
H5 H 0.7243 0.8848 0.1037
C15 C 0.2707(2) 1.08928(19) 0.37337(15)
H6 H 0.2132 1.0690 0.3739
C16 C 0.5607(2) 0.8717(2) -0.12962(16)
H7 H 0.6172 0.8834 -0.1726
C17 C 0.5047(2) 0.84315(18) 0.22797(15)
C18 C 0.2540(2) 1.18969(19) 0.36904(16)
C19 C 0.1827(3) 1.36515(19) 0.37182(16)
C20 C 0.3462(3) 1.3968(2) 0.36975(16)
H8 H 0.4218 1.3736 0.3671
B1 B 0.5188(3) 0.8236(2) 0.38539(18)
H9 H 0.5858 0.8542 0.3699
B2 B 0.5243(3) 0.7088(2) 0.35163(19)
H10 H 0.6023 0.6608 0.3139
C21 C 0.3884(2) 0.8390(2) 0.00080(17)
H11 H 0.3309 0.8284 0.0437
C22 C 0.2812(3) 1.4987(2) 0.37458(17)
H12 H 0.3136 1.5444 0.3753
C23 C 0.4741(3) 0.8558(2) -0.14342(17)
H13 H 0.4728 0.8556 -0.1968
C24 C 0.0432(2) 1.2837(2) 0.44351(19)
H14 H 0.0595 1.2854 0.4931
H15 H 0.0266 1.2258 0.4404
H16 H -0.0215 1.3431 0.4439
C25 C 0.1182(3) 1.4667(2) 0.37663(18)
H17 H 0.0428 1.4902 0.3787
B3 B 0.3094(3) 0.8643(2) 0.35979(18)
H18 H 0.2569 0.9041 0.3255
B4 B 0.4073(3) 0.8668(2) 0.48166(19)
H19 H 0.4009 0.9233 0.5292
B5 B 0.3932(3) 0.7342(2) 0.33621(18)
H20 H 0.4010 0.6916 0.2832
C26 C 0.1469(2) 1.2784(2) 0.36872(18)
C27 C 0.1235(3) 1.2743(2) 0.28847(19)
H21 H 0.1894 1.2707 0.2422
H22 H 0.0591 1.3335 0.2878
H23 H 0.1074 1.2162 0.2852
B6 B 0.2764(3) 0.8911(2) 0.46687(18)
H24 H 0.2028 0.9586 0.4956
C28 C 0.1693(3) 1.5327(2) 0.37827(17)
H25 H 0.1271 1.6013 0.3819
C29 C 0.7430(3) 0.8930(2) -0.06858(19)
H26 H 0.7468 0.8983 -0.1250
H27 H 0.8078 0.8362 -0.0650
H28 H 0.7434 0.9527 -0.0482
C30 C 0.3881(3) 0.8399(2) -0.07898(17)
H29 H 0.3301 0.8299 -0.0899
B7 B 0.2808(3) 0.7771(2) 0.43192(18)
H30 H 0.2010 0.7654 0.4451
B8 B 0.3435(3) 0.7777(2) 0.50724(19)
H31 H 0.2996 0.7722 0.5690
B9 B 0.4156(3) 0.6811(2) 0.42688(19)
H32 H 0.4256 0.6037 0.4409
B10 B 0.4937(3) 0.7365(2) 0.45727(19)
H33 H 0.5483 0.7065 0.4919
N2 N 0.34960(19) 0.51030(15) 0.08506(13)
C31 C -0.1003(2) 0.92283(17) 0.23787(14)
C32 C 0.1627(2) 0.76262(18) 0.08009(15)
H34 H 0.1337 0.8004 0.0415
C33 C 0.1745(2) 0.74745(18) 0.21643(15)
H35 H 0.1529 0.7765 0.2691
C34 C 0.0390(2) 0.90856(17) 0.18307(15)
C35 C -0.1799(2) 0.73111(18) 0.37572(15)
H36 H -0.2095 0.7243 0.4318
C36 C -0.1191(2) 0.82835(17) 0.26453(15)
C37 C -0.0925(2) 0.75206(17) 0.20683(15)
H37 H -0.0643 0.7593 0.1507
C38 C 0.1285(2) 0.80446(17) 0.15947(14)
C39 C 0.2512(2) 0.64936(18) 0.19652(16)
H38 H 0.2823 0.6125 0.2346
C40 C 0.2401(2) 0.66455(17) 0.05873(15)
C41 C -0.1534(2) 0.65568(18) 0.31808(15)
C42 C -0.1618(2) 0.81669(18) 0.34860(15)
H39 H -0.1783 0.8673 0.3869
C43 C -0.1664(2) 0.55904(18) 0.32733(16)
C44 C 0.2807(2) 0.60695(18) 0.11790(16)
C45 C -0.2113(2) 0.51671(19) 0.39843(17)
H40 H -0.2348 0.5483 0.4504
C46 C 0.3569(2) 0.50440(18) 0.00327(16)
C47 C 0.2901(2) 0.59894(18) -0.01585(16)
C48 C -0.1083(2) 0.66541(17) 0.23374(15)
C49 C -0.0830(2) 0.57275(18) 0.18243(16)
B11 B -0.0631(2) 0.9449(2) 0.13520(17)
H41 H -0.0569 0.8969 0.0890
B12 B 0.0630(3) 1.0074(2) 0.21029(18)
H42 H 0.1418 0.9982 0.2177
B13 B -0.1937(3) 1.0238(2) 0.20792(17)
H43 H -0.2779 1.0252 0.2106
C50 C 0.2859(2) 0.6110(2) -0.09537(17)
H44 H 0.2428 0.6728 -0.1094
C51 C -0.1366(2) 0.42108(19) 0.24149(17)
H45 H -0.1113 0.3886 0.1896
C52 C -0.2198(2) 0.4265(2) 0.38942(18)
H46 H -0.2505 0.3972 0.4358
C53 C -0.1437(3) 0.5974(2) 0.11922(17)
H47 H -0.2244 0.6313 0.1469
H48 H -0.1287 0.5365 0.0903
H49 H -0.1162 0.6399 0.0807
B14 B 0.0383(3) 1.0008(2) 0.11709(18)
H50 H 0.1025 0.9891 0.0583
C54 C -0.1288(2) 0.51174(18) 0.24980(16)
C55 C -0.1830(3) 0.37946(19) 0.31189(18)
H51 H -0.1894 0.3189 0.3069
C56 C 0.0470(3) 0.5175(2) 0.13974(18)
H52 H 0.0745 0.5563 0.0973
H53 H 0.0629 0.4533 0.1158
H54 H 0.0844 0.5084 0.1796
C57 C 0.4103(3) 0.4374(2) -0.13159(19)
H55 H 0.4497 0.3834 -0.1712
B15 B -0.1691(3) 1.0301(2) 0.30108(18)
H56 H -0.2264 1.0300 0.3563
B16 B -0.0230(3) 0.9551(2) 0.28544(18)
H57 H 0.0028 0.9117 0.3327
C58 C 0.4166(2) 0.4228(2) -0.05407(18)
H58 H 0.4594 0.3605 -0.0406
C59 C 0.4025(3) 0.42715(19) 0.12853(18)
H59 H 0.3849 0.4504 0.1842
H60 H 0.4838 0.4000 0.1012
H61 H 0.3738 0.3762 0.1289
C60 C 0.3471(3) 0.5297(2) -0.15319(18)
H62 H 0.3459 0.5368 -0.2067
B17 B -0.1737(3) 1.1296(2) 0.23607(18)
H63 H -0.2448 1.1994 0.2496
B18 B -0.0312(3) 1.1153(2) 0.18005(19)
H64 H -0.0076 1.1744 0.1620
B19 B -0.1069(3) 1.0752(2) 0.13219(18)
H65 H -0.1380 1.1117 0.0858
B20 B -0.0684(3) 1.0862(2) 0.28466(19)
H66 H -0.0742 1.1294 0.3375
loop_
_geom_bond_atom_site_label_1
_geom_bond_atom_site_label_2
_geom_bond_site_symmetry_1
_geom_bond_site_symmetry_2
C1 H1 1_555 1_555
N1 C7 1_555 1_555
C2 C1 1_555 1_555
C3 C2 1_555 1_555
C4 C5 1_555 1_555
C5 C10 1_555 1_555
C6 C13 1_555 1_555
C7 C3 1_555 1_555
C8 H2 1_555 1_555
C9 H3 1_555 1_555
C10 C12 1_555 1_555
C11 N1 1_555 1_555
C12 C9 1_555 1_555
H4 C12 1_555 1_555
C13 C9 1_555 1_555
C14 C8 1_555 1_555
H5 C14 1_555 1_555
C15 C10 1_555 1_555
H6 C15 1_555 1_555
C16 C7 1_555 1_555
H7 C16 1_555 1_555
C17 C1 1_555 1_555
C18 C13 1_555 1_555
C19 C6 1_555 1_555
C20 C6 1_555 1_555
H8 C20 1_555 1_555
B1 C4 1_555 1_555
H9 B1 1_555 1_555
B2 C4 1_555 1_555
H10 B2 1_555 1_555
C21 C3 1_555 1_555
H11 C21 1_555 1_555
C22 C20 1_555 1_555
H12 C22 1_555 1_555
C23 C16 1_555 1_555
H13 C23 1_555 1_555
C24 H14 1_555 1_555
H15 C24 1_555 1_555
H16 C24 1_555 1_555
C25 C19 1_555 1_555
H17 C25 1_555 1_555
B3 C4 1_555 1_555
H18 B3 1_555 1_555
B4 C5 1_555 1_555
H19 B4 1_555 1_555
B5 C4 1_555 1_555
H20 B5 1_555 1_555
C26 C18 1_555 1_555
C27 C26 1_555 1_555
H21 C27 1_555 1_555
H22 C27 1_555 1_555
H23 C27 1_555 1_555
B6 C5 1_555 1_555
H24 B6 1_555 1_555
C28 C22 1_555 1_555
H25 C28 1_555 1_555
C29 N1 1_555 1_555
H26 C29 1_555 1_555
H27 C29 1_555 1_555
H28 C29 1_555 1_555
C30 C21 1_555 1_555
H29 C30 1_555 1_555
B7 B3 1_555 1_555
H30 B7 1_555 1_555
B8 B4 1_555 1_555
H31 B8 1_555 1_555
B9 B2 1_555 1_555
H32 B9 1_555 1_555
B10 B1 1_555 1_555
H33 B10 1_555 1_555
N2 C44 1_555 1_555
C31 C34 1_555 1_555
C32 H34 1_555 1_555
C33 H35 1_555 1_555
C34 C38 1_555 1_555
C35 H36 1_555 1_555
C36 C31 1_555 1_555
C37 C36 1_555 1_555
H37 C37 1_555 1_555
C38 C32 1_555 1_555
C39 C33 1_555 1_555
H38 C39 1_555 1_555
C40 C32 1_555 1_555
C41 C35 1_555 1_555
C42 C35 1_555 1_555
H39 C42 1_555 1_555
C43 C41 1_555 1_555
C44 C39 1_555 1_555
C45 C43 1_555 1_555
H40 C45 1_555 1_555
C46 N2 1_555 1_555
C47 C40 1_555 1_555
C48 C37 1_555 1_555
C49 C48 1_555 1_555
B11 C31 1_555 1_555
H41 B11 1_555 1_555
B12 C34 1_555 1_555
H42 B12 1_555 1_555
B13 C31 1_555 1_555
H43 B13 1_555 1_555
C50 C47 1_555 1_555
H44 C50 1_555 1_555
C51 H45 1_555 1_555
C52 C45 1_555 1_555
H46 C52 1_555 1_555
C53 C49 1_555 1_555
H47 C53 1_555 1_555
H48 C53 1_555 1_555
H49 C53 1_555 1_555
B14 C34 1_555 1_555
H50 B14 1_555 1_555
C54 C43 1_555 1_555
C55 C51 1_555 1_555
H51 C55 1_555 1_555
C56 C49 1_555 1_555
H52 C56 1_555 1_555
H53 C56 1_555 1_555
H54 C56 1_555 1_555
C57 H55 1_555 1_555
B15 C31 1_555 1_555
H56 B15 1_555 1_555
B16 C31 1_555 1_555
H57 B16 1_555 1_555
C58 C46 1_555 1_555
H58 C58 1_555 1_555
C59 N2 1_555 1_555
H59 C59 1_555 1_555
H60 C59 1_555 1_555
H61 C59 1_555 1_555
C60 C50 1_555 1_555
H62 C60 1_555 1_555
B17 B13 1_555 1_555
H63 B17 1_555 1_555
B18 B12 1_555 1_555
H64 B18 1_555 1_555
B19 B11 1_555 1_555
H65 B19 1_555 1_555
B20 B12 1_555 1_555
H66 B20 1_555 1_555
C2 C11 1_555 1_555
C4 C17 1_555 1_555
C5 B1 1_555 1_555
C5 B3 1_555 1_555
C8 C17 1_555 1_555
C11 C14 1_555 1_555
C15 C18 1_555 1_555
C19 C26 1_555 1_555
B1 B2 1_555 1_555
B1 B4 1_555 1_555
B2 B5 1_555 1_555
B2 B10 1_555 1_555
C23 C30 1_555 1_555
C24 C26 1_555 1_555
C25 C28 1_555 1_555
B3 B5 1_555 1_555
B3 B6 1_555 1_555
B4 B6 1_555 1_555
B4 B10 1_555 1_555
B5 B7 1_555 1_555
B5 B9 1_555 1_555
B6 B7 1_555 1_555
B6 B8 1_555 1_555
B7 B8 1_555 1_555
B7 B9 1_555 1_555
B8 B9 1_555 1_555
B8 B10 1_555 1_555
B9 B10 1_555 1_555
C33 C38 1_555 1_555
C34 B11 1_555 1_555
C34 B16 1_555 1_555
C36 C42 1_555 1_555
C40 C44 1_555 1_555
C41 C48 1_555 1_555
C46 C47 1_555 1_555
C49 C54 1_555 1_555
B11 B13 1_555 1_555
B11 B14 1_555 1_555
B12 B14 1_555 1_555
B12 B16 1_555 1_555
B13 B15 1_555 1_555
B13 B19 1_555 1_555
C51 C54 1_555 1_555
C52 C55 1_555 1_555
B14 B18 1_555 1_555
B14 B19 1_555 1_555
C57 C58 1_555 1_555
C57 C60 1_555 1_555
B15 B16 1_555 1_555
B15 B17 1_555 1_555
B15 B20 1_555 1_555
B16 B20 1_555 1_555
B17 B18 1_555 1_555
B17 B19 1_555 1_555
B17 B20 1_555 1_555
B18 B19 1_555 1_555
B18 B20 1_555 1_555

#END
