
#######################################################################
#
#                 Cambridge Crystallographic Data Centre
#                                CCDC 
#
#######################################################################
#
# If this CIF has been generated from an entry in the Cambridge 
# Structural Database, then it will include bibliographic, chemical, 
# crystal, experimental, refinement or atomic coordinate data resulting 
# from the CCDC's data processing and validation procedures.
#
#######################################################################

data_QESCAV
_chemical_formula_moiety         'C47 H42 B10 N2'
_chemical_name_systematic        
1-(4-([9H-[3,9'-bicarbazole]]-9-yl)phenyl)-2-(9,9-dimethyl-9H-fluoren-2-yl)-1,2-dicarba-closo-dodecaborane(10)
_symmetry_cell_setting           orthorhombic
_symmetry_space_group_name_H-M   'P 21 21 21'
_symmetry_Int_Tables_number      19
_space_group_name_Hall           'P 2ac 2ab'
loop_
_symmetry_equiv_pos_site_id
_symmetry_equiv_pos_as_xyz
1 x,y,z
2 1/2-x,-y,1/2+z
3 -x,1/2+y,1/2-z
4 1/2+x,1/2-y,-z
_cell_length_a                   10.2590(4)
_cell_length_b                   12.0205(5)
_cell_length_c                   33.0167(12)
_cell_angle_alpha                90
_cell_angle_beta                 90
_cell_angle_gamma                90
_cell_volume                     4071.56
_exptl_crystal_colour            colorless
_exptl_crystal_description       block
_cell_formula_units_Z            4
loop_
_atom_site_label
_atom_site_type_symbol
_atom_site_fract_x
_atom_site_fract_y
_atom_site_fract_z
C1 C 0.90007(15) 1.08453(12) 0.14059(5)
H1 H 0.9043 1.1545 0.1525
C2 C 0.38222(14) 0.60310(11) 0.25198(4)
N1 N 0.45065(12) 0.62962(10) 0.18679(3)
N2 N 0.47321(14) 0.72221(11) 0.35171(4)
C3 C 0.61614(13) 0.86794(11) 0.04595(4)
C4 C 0.75151(14) 0.95158(11) 0.04732(4)
C5 C 0.57810(13) 0.80661(11) 0.08378(4)
C6 C 0.59373(15) 0.69152(12) 0.08622(4)
H2 H 0.6309 0.6534 0.0646
C7 C 0.55493(15) 0.63333(12) 0.12024(4)
H3 H 0.5673 0.5568 0.1216
C8 C 0.49776(14) 0.68877(12) 0.15231(4)
C9 C 0.48222(15) 0.80364(12) 0.15051(4)
H4 H 0.4448 0.8415 0.1721
C10 C 0.52234(15) 0.86144(12) 0.11661(4)
H5 H 0.5119 0.9383 0.1157
C11 C 0.35176(14) 0.54905(11) 0.18599(4)
C12 C 0.29720(15) 0.49399(12) 0.15299(5)
H6 H 0.3290 0.5047 0.1269
C13 C 0.19399(16) 0.42292(13) 0.16039(5)
H7 H 0.1557 0.3852 0.1389
C14 C 0.14592(16) 0.40648(13) 0.19952(5)
H8 H 0.0754 0.3591 0.2036
C15 C 0.20163(15) 0.45957(12) 0.23218(5)
H9 H 0.1698 0.4477 0.2582
C16 C 0.30637(14) 0.53136(11) 0.22574(4)
C17 C 0.38339(15) 0.62098(12) 0.29383(4)
H10 H 0.3291 0.5806 0.3109
C18 C 0.46758(16) 0.70051(12) 0.30906(4)
C19 C 0.55096(16) 0.76036(13) 0.28381(4)
H11 H 0.6065 0.8133 0.2950
C20 C 0.55251(15) 0.74237(12) 0.24254(4)
H12 H 0.6086 0.7818 0.2257
C21 C 0.39076(18) 0.79279(13) 0.37330(5)
C22 C 0.27532(19) 0.84275(14) 0.36124(6)
H13 H 0.2438 0.8350 0.3350
C23 C 0.2086(2) 0.90503(15) 0.39011(7)
H14 H 0.1305 0.9391 0.3830
C24 C 0.2560(2) 0.91752(16) 0.42928(7)
H15 H 0.2087 0.9591 0.4479
C25 C 0.3721(2) 0.86919(15) 0.44090(6)
H16 H 0.4036 0.8786 0.4671
C26 C 0.4419(2) 0.80579(13) 0.41268(5)
C27 C 0.56072(18) 0.74276(14) 0.41462(5)
C28 C 0.6509(2) 0.71915(16) 0.44522(5)
H17 H 0.6417 0.7507 0.4708
C29 C 0.7534(2) 0.64875(18) 0.43713(6)
H18 H 0.8139 0.6335 0.4574
C30 C 0.7680(2) 0.59999(17) 0.39912(5)
H19 H 0.8378 0.5523 0.3945
C31 C 0.68049(18) 0.62117(14) 0.36819(5)
H20 H 0.6904 0.5889 0.3428
C32 C 0.57747(17) 0.69225(13) 0.37641(5)
C33 C 0.46753(14) 0.66343(11) 0.22695(4)
C34 C 0.82268(13) 0.96418(11) 0.08673(4)
C35 C 0.88710(15) 0.87444(11) 0.10443(4)
H21 H 0.8831 0.8043 0.0926
C36 C 0.95703(15) 0.89051(11) 0.13973(4)
C37 C 0.96536(14) 0.99553(12) 0.15768(4)
C38 C 0.82826(15) 1.06862(12) 0.10548(4)
H22 H 0.7832 1.1282 0.0942
C39 C 1.05601(14) 0.98764(12) 0.19214(4)
C40 C 1.10016(15) 0.87838(13) 0.19469(4)
C41 C 1.19193(18) 0.84817(15) 0.22345(5)
H23 H 1.2208 0.7750 0.2254
C42 C 1.23985(17) 0.92990(17) 0.24938(5)
H24 H 1.3030 0.9115 0.2685
C43 C 1.19489(17) 1.03743(16) 0.24710(5)
H25 H 1.2273 1.0906 0.2649
C44 C 1.10216(16) 1.06782(14) 0.21876(5)
H26 H 1.0714 1.1405 0.2176
C45 C 1.04009(16) 0.80597(12) 0.16192(4)
C46 C 0.9571(2) 0.71194(15) 0.17982(6)
H27 H 0.8923 0.7429 0.1975
H28 H 1.0120 0.6622 0.1949
H29 H 0.9152 0.6719 0.1583
C47 C 1.14505(19) 0.75930(15) 0.13348(5)
H30 H 1.1047 0.7134 0.1132
H31 H 1.2059 0.7156 0.1488
H32 H 1.1902 0.8197 0.1206
B1 B 0.75822(16) 0.82574(13) 0.02182(5)
H33 H 0.8116 0.7602 0.0336
B2 B 0.60221(17) 0.80754(14) -0.00061(5)
H34 H 0.5652 0.7346 -0.0017
B3 B 0.50266(17) 0.92235(14) 0.01345(5)
H35 H 0.4029 0.9107 0.0192
B4 B 0.59833(17) 1.01082(13) 0.04468(5)
H36 H 0.5625 1.0519 0.0702
B5 B 0.73011(18) 1.06241(14) 0.01551(5)
H37 H 0.7758 1.1363 0.0243
B6 B 0.82968(18) 0.94808(14) 0.00130(5)
H38 H 0.9322 0.9555 0.0020
B7 B 0.73588(18) 0.85797(14) -0.02966(5)
H39 H 0.7806 0.8071 -0.0521
B8 B 0.57726(19) 0.91891(15) -0.03523(5)
H40 H 0.5219 0.9046 -0.0627
B9 B 0.57429(19) 1.04502(15) -0.00686(5)
H41 H 0.5185 1.1131 -0.0152
B10 B 0.7175(2) 1.00508(15) -0.03391(5)
H42 H 0.7573 1.0464 -0.0591
loop_
_geom_bond_atom_site_label_1
_geom_bond_atom_site_label_2
_geom_bond_site_symmetry_1
_geom_bond_site_symmetry_2
C1 H1 1_555 1_555
C2 C16 1_555 1_555
N1 C8 1_555 1_555
N2 C18 1_555 1_555
C3 C4 1_555 1_555
C4 C34 1_555 1_555
C5 C3 1_555 1_555
C6 C5 1_555 1_555
H2 C6 1_555 1_555
C7 C6 1_555 1_555
H3 C7 1_555 1_555
C8 C7 1_555 1_555
C9 C8 1_555 1_555
H4 C9 1_555 1_555
C10 C5 1_555 1_555
H5 C10 1_555 1_555
C11 N1 1_555 1_555
C12 C11 1_555 1_555
H6 C12 1_555 1_555
C13 C12 1_555 1_555
H7 C13 1_555 1_555
C14 C13 1_555 1_555
H8 C14 1_555 1_555
C15 C14 1_555 1_555
H9 C15 1_555 1_555
C16 C11 1_555 1_555
C17 C2 1_555 1_555
H10 C17 1_555 1_555
C18 C17 1_555 1_555
C19 C18 1_555 1_555
H11 C19 1_555 1_555
C20 C19 1_555 1_555
H12 C20 1_555 1_555
C21 N2 1_555 1_555
C22 C21 1_555 1_555
H13 C22 1_555 1_555
C23 C22 1_555 1_555
H14 C23 1_555 1_555
C24 C23 1_555 1_555
H15 C24 1_555 1_555
C25 C24 1_555 1_555
H16 C25 1_555 1_555
C26 C21 1_555 1_555
C27 C26 1_555 1_555
C28 C27 1_555 1_555
H17 C28 1_555 1_555
C29 C28 1_555 1_555
H18 C29 1_555 1_555
C30 C29 1_555 1_555
H19 C30 1_555 1_555
C31 C30 1_555 1_555
H20 C31 1_555 1_555
C32 N2 1_555 1_555
C33 C2 1_555 1_555
C34 C35 1_555 1_555
C35 H21 1_555 1_555
C36 C35 1_555 1_555
C37 C1 1_555 1_555
C38 C1 1_555 1_555
H22 C38 1_555 1_555
C39 C37 1_555 1_555
C40 C39 1_555 1_555
C41 C40 1_555 1_555
H23 C41 1_555 1_555
C42 C41 1_555 1_555
H24 C42 1_555 1_555
C43 C42 1_555 1_555
H25 C43 1_555 1_555
C44 C39 1_555 1_555
H26 C44 1_555 1_555
C45 C36 1_555 1_555
C46 C45 1_555 1_555
H27 C46 1_555 1_555
H28 C46 1_555 1_555
H29 C46 1_555 1_555
C47 C45 1_555 1_555
H30 C47 1_555 1_555
H31 C47 1_555 1_555
H32 C47 1_555 1_555
B1 C3 1_555 1_555
H33 B1 1_555 1_555
B2 C3 1_555 1_555
H34 B2 1_555 1_555
B3 C3 1_555 1_555
H35 B3 1_555 1_555
B4 C3 1_555 1_555
H36 B4 1_555 1_555
B5 C4 1_555 1_555
H37 B5 1_555 1_555
B6 C4 1_555 1_555
H38 B6 1_555 1_555
B7 B1 1_555 1_555
H39 B7 1_555 1_555
B8 B2 1_555 1_555
H40 B8 1_555 1_555
B9 B3 1_555 1_555
H41 B9 1_555 1_555
B10 B5 1_555 1_555
H42 B10 1_555 1_555
N1 C33 1_555 1_555
C4 B1 1_555 1_555
C4 B4 1_555 1_555
C9 C10 1_555 1_555
C15 C16 1_555 1_555
C20 C33 1_555 1_555
C25 C26 1_555 1_555
C27 C32 1_555 1_555
C31 C32 1_555 1_555
C34 C38 1_555 1_555
C36 C37 1_555 1_555
C40 C45 1_555 1_555
C43 C44 1_555 1_555
B1 B2 1_555 1_555
B1 B6 1_555 1_555
B2 B3 1_555 1_555
B2 B7 1_555 1_555
B3 B4 1_555 1_555
B3 B8 1_555 1_555
B4 B5 1_555 1_555
B4 B9 1_555 1_555
B5 B6 1_555 1_555
B5 B9 1_555 1_555
B6 B7 1_555 1_555
B6 B10 1_555 1_555
B7 B8 1_555 1_555
B7 B10 1_555 1_555
B8 B9 1_555 1_555
B8 B10 1_555 1_555
B9 B10 1_555 1_555

#END
