
#######################################################################
#
#                 Cambridge Crystallographic Data Centre
#                                CCDC 
#
#######################################################################
#
# If this CIF has been generated from an entry in the Cambridge 
# Structural Database, then it will include bibliographic, chemical, 
# crystal, experimental, refinement or atomic coordinate data resulting 
# from the CCDC's data processing and validation procedures.
#
#######################################################################

data_QESDUN
_chemical_formula_moiety         'C14 H18 Br4 N2 Si1'
_chemical_name_systematic        
trans-Tetrabromobis(3,5-dimethylpyridine)silicon
_symmetry_cell_setting           monoclinic
_symmetry_space_group_name_H-M   'C 2/m'
_symmetry_Int_Tables_number      12
_space_group_name_Hall           '-C 2y'
loop_
_symmetry_equiv_pos_site_id
_symmetry_equiv_pos_as_xyz
1 x,y,z
2 1/2+x,1/2+y,z
3 x,-y,z
4 1/2+x,1/2-y,z
5 -x,-y,-z
6 1/2-x,1/2-y,-z
7 -x,y,-z
8 1/2-x,1/2+y,-z
_cell_length_a                   16.013(3)
_cell_length_b                   7.316(1)
_cell_length_c                   8.179(2)
_cell_angle_alpha                90
_cell_angle_beta                 113.190(10)
_cell_angle_gamma                90
_cell_volume                     880.762
_exptl_crystal_colour            colorless
_exptl_crystal_description       plate
_cell_formula_units_Z            2
loop_
_atom_site_label
_atom_site_type_symbol
_atom_site_fract_x
_atom_site_fract_y
_atom_site_fract_z
Si1 Si 0.0000 0.0000 0.5000
Br1 Br 0.04397(3) 0.23309(7) 0.72012(7)
N1 N 0.1250(4) 0.0000 0.4992(7)
C1 C 0.1993(4) 0.0000 0.6558(9)
H1 H 0.1907 0.0000 0.7643
C2 C 0.2869(5) 0.0000 0.6618(9)
C3 C 0.3665(5) 0.0000 0.8405(10)
H2 H 0.3436 0.0000 0.9353
H3 H 0.4036 0.1094 0.8510
C4 C 0.2987(5) 0.0000 0.5001(9)
H4 H 0.3579 0.0000 0.4998
C5 C 0.2224(5) 0.0000 0.3404(10)
C6 C 0.2304(5) 0.0000 0.1610(9)
H5 H 0.1696 0.0000 0.0654
H6 H 0.2634 0.1094 0.1510
C7 C 0.1380(4) 0.0000 0.3463(9)
H7 H 0.0861 0.0000 0.2371
Br1B Br 0.04397(3) -0.23309(7) 0.72012(7)
Br1D Br -0.04397(3) -0.23309(7) 0.27988(7)
Br1F Br -0.04397(3) 0.23309(7) 0.27988(7)
H3B H 0.4036 -0.1094 0.8510
H6B H 0.2634 -0.1094 0.1510
N1D N -0.1250(4) 0.0000 0.5008(7)
C1D C -0.1993(4) 0.0000 0.3442(9)
H1D H -0.1907 0.0000 0.2357
C2D C -0.2869(5) 0.0000 0.3382(9)
C3D C -0.3665(5) 0.0000 0.1595(10)
H2D H -0.3436 0.0000 0.0647
H3D H -0.4036 -0.1094 0.1490
H3F H -0.4036 0.1094 0.1490
C4D C -0.2987(5) 0.0000 0.4999(9)
H4D H -0.3579 0.0000 0.5002
C5D C -0.2224(5) 0.0000 0.6596(10)
C6D C -0.2304(5) 0.0000 0.8390(9)
H5D H -0.1696 0.0000 0.9346
H6D H -0.2634 -0.1094 0.8490
H6F H -0.2634 0.1094 0.8490
C7D C -0.1380(4) 0.0000 0.6537(9)
H7D H -0.0861 0.0000 0.7629
loop_
_geom_bond_atom_site_label_1
_geom_bond_atom_site_label_2
_geom_bond_site_symmetry_1
_geom_bond_site_symmetry_2
Si1 Br1 1_555 1_555
N1 Si1 1_555 1_555
C1 N1 1_555 1_555
H1 C1 1_555 1_555
C2 C1 1_555 1_555
C3 C2 1_555 1_555
H2 C3 1_555 1_555
H3 C3 1_555 1_555
C4 C2 1_555 1_555
H4 C4 1_555 1_555
C5 C4 1_555 1_555
C6 C5 1_555 1_555
H5 C6 1_555 1_555
H6 C6 1_555 1_555
C7 N1 1_555 1_555
H7 C7 1_555 1_555
Br1B Si1 1_555 1_555
Br1D Si1 1_555 1_555
Br1F Si1 1_555 1_555
H3B C3 1_555 1_555
H6B C6 1_555 1_555
N1D Si1 1_555 1_555
C1D N1D 1_555 1_555
H1D C1D 1_555 1_555
C2D C1D 1_555 1_555
C3D C2D 1_555 1_555
H2D C3D 1_555 1_555
H3D C3D 1_555 1_555
H3F C3D 1_555 1_555
C4D C2D 1_555 1_555
H4D C4D 1_555 1_555
C5D C4D 1_555 1_555
C6D C5D 1_555 1_555
H5D C6D 1_555 1_555
H6D C6D 1_555 1_555
H6F C6D 1_555 1_555
C7D N1D 1_555 1_555
H7D C7D 1_555 1_555
C5 C7 1_555 1_555
C5D C7D 1_555 1_555

#END
