
#######################################################################
#
#                 Cambridge Crystallographic Data Centre
#                                CCDC 
#
#######################################################################
#
# If this CIF has been generated from an entry in the Cambridge 
# Structural Database, then it will include bibliographic, chemical, 
# crystal, experimental, refinement or atomic coordinate data resulting 
# from the CCDC's data processing and validation procedures.
#
#######################################################################

data_QESGAZ
_chemical_formula_moiety         'C18 H15 N3'
_chemical_name_systematic        
4-phenyl-1-(pyrazin-2-yl)-6,7-dihydro-5H-cyclopenta[c]pyridine
_symmetry_cell_setting           monoclinic
_symmetry_space_group_name_H-M   'P 21/n'
_symmetry_Int_Tables_number      14
_space_group_name_Hall           '-P 2yn'
loop_
_symmetry_equiv_pos_site_id
_symmetry_equiv_pos_as_xyz
1 x,y,z
2 1/2-x,1/2+y,1/2-z
3 -x,-y,-z
4 1/2+x,1/2-y,1/2+z
_cell_length_a                   13.884(16)
_cell_length_b                   7.462(7)
_cell_length_c                   14.377(15)
_cell_angle_alpha                90
_cell_angle_beta                 116.87(11)
_cell_angle_gamma                90
_cell_volume                     1328.68
_exptl_crystal_colour            'light yellow'
_exptl_crystal_description       prism
_cell_formula_units_Z            4
loop_
_atom_site_label
_atom_site_type_symbol
_atom_site_fract_x
_atom_site_fract_y
_atom_site_fract_z
C1 C 0.18486(9) 0.89184(16) 0.22871(9)
C2 C 0.29881(9) 0.89337(16) 0.24933(9)
C3 C 0.70394(9) 0.96266(17) 0.41185(9)
H1 H 0.6811 1.0284 0.4532
C4 C 0.62907(9) 0.87381(15) 0.32540(8)
N1 N 0.37148(8) 0.85990(15) 0.34759(7)
N2 N 0.11198(8) 0.83760(17) 0.13606(8)
C5 C 0.43663(9) 0.92094(15) 0.19536(8)
C6 C 0.51315(9) 0.88353(15) 0.29583(9)
C7 C 0.32937(9) 0.92841(15) 0.17193(8)
C8 C 0.81173(10) 0.95527(18) 0.43754(10)
H2 H 0.8615 1.0152 0.4964
C9 C 0.15462(10) 0.9455(2) 0.30339(10)
H3 H 0.2079 0.9844 0.3675
C10 C 0.66576(10) 0.77513(17) 0.26640(9)
H4 H 0.6167 0.7124 0.2084
N3 N 0.05355(9) 0.94420(19) 0.28812(9)
C11 C 0.01093(10) 0.8369(2) 0.12105(11)
H5 H -0.0427 0.7987 0.0570
C12 C 0.84668(10) 0.86019(18) 0.37711(10)
H6 H 0.9196 0.8579 0.3937
C13 C 0.47445(9) 0.85646(18) 0.36837(9)
C14 C 0.77362(10) 0.76871(18) 0.29231(10)
H7 H 0.7971 0.7017 0.2519
C15 C 0.45136(10) 0.96238(19) 0.10065(9)
H8 H 0.4628 0.8538 0.0698
H9 H 0.5120 1.0426 0.1175
C16 C 0.26250(10) 0.98160(19) 0.06091(9)
H10 H 0.2112 1.0745 0.0550
H11 H 0.2237 0.8797 0.0187
C17 C 0.34631(11) 1.0512(2) 0.02859(10)
H12 H 0.3261 1.0201 -0.0434
H13 H 0.3527 1.1805 0.0358
C18 C -0.01798(11) 0.8898(2) 0.19556(11)
H14 H -0.0905 0.8874 0.1805
H15 H 0.5274(12) 0.827(2) 0.4436(12)
loop_
_geom_bond_atom_site_label_1
_geom_bond_atom_site_label_2
_geom_bond_site_symmetry_1
_geom_bond_site_symmetry_2
C1 C2 1_555 1_555
C2 N1 1_555 1_555
C3 H1 1_555 1_555
C4 C3 1_555 1_555
N1 C13 1_555 1_555
N2 C1 1_555 1_555
C5 C6 1_555 1_555
C6 C4 1_555 1_555
C7 C2 1_555 1_555
C8 C3 1_555 1_555
H2 C8 1_555 1_555
C9 C1 1_555 1_555
H3 C9 1_555 1_555
C10 C4 1_555 1_555
H4 C10 1_555 1_555
N3 C9 1_555 1_555
C11 N2 1_555 1_555
H5 C11 1_555 1_555
C12 C8 1_555 1_555
H6 C12 1_555 1_555
C13 C6 1_555 1_555
C14 C10 1_555 1_555
H7 C14 1_555 1_555
C15 C5 1_555 1_555
H8 C15 1_555 1_555
H9 C15 1_555 1_555
C16 C7 1_555 1_555
H10 C16 1_555 1_555
H11 C16 1_555 1_555
C17 C15 1_555 1_555
H12 C17 1_555 1_555
H13 C17 1_555 1_555
C18 N3 1_555 1_555
H14 C18 1_555 1_555
H15 C13 1_555 1_555
C5 C7 1_555 1_555
C11 C18 1_555 1_555
C12 C14 1_555 1_555
C16 C17 1_555 1_555

#END
