
#######################################################################
#
#                 Cambridge Crystallographic Data Centre
#                                CCDC 
#
#######################################################################
#
# If this CIF has been generated from an entry in the Cambridge 
# Structural Database, then it will include bibliographic, chemical, 
# crystal, experimental, refinement or atomic coordinate data resulting 
# from the CCDC's data processing and validation procedures.
#
#######################################################################

data_QESGUR01
_chemical_formula_moiety         'C22 H19 N1 O1'
_chemical_name_systematic        3-(Benzylamino)-1,3-diphenylprop-2-en-1-one
_symmetry_cell_setting           triclinic
_symmetry_space_group_name_H-M   'P -1'
_symmetry_Int_Tables_number      2
_space_group_name_Hall           '-P 1'
loop_
_symmetry_equiv_pos_site_id
_symmetry_equiv_pos_as_xyz
1 x,y,z
2 -x,-y,-z
_cell_length_a                   9.1333(6)
_cell_length_b                   9.8600(7)
_cell_length_c                   10.1250(7)
_cell_angle_alpha                88.489(4)
_cell_angle_beta                 69.663(3)
_cell_angle_gamma                84.812(4)
_cell_volume                     851.448
_exptl_crystal_colour            colorless
_exptl_crystal_description       prism
_cell_formula_units_Z            2
loop_
_atom_site_label
_atom_site_type_symbol
_atom_site_fract_x
_atom_site_fract_y
_atom_site_fract_z
C1 C 0.1162(3) 0.6555(3) 1.0524(3)
C2 C 0.0325(3) 0.7595(3) 1.1649(3)
C3 C 0.0385(3) 0.7499(3) 1.3003(3)
H1 H 0.0996 0.6783 1.3222
C4 C -0.0443(4) 0.8447(3) 1.4024(3)
H2 H -0.0399 0.8363 1.4926
C5 C -0.1338(4) 0.9519(3) 1.3709(4)
H3 H -0.1916 1.0150 1.4403
C6 C -0.1373(4) 0.9655(3) 1.2367(4)
H4 H -0.1951 1.0394 1.2144
C7 C -0.0552(3) 0.8696(3) 1.1349(3)
H5 H -0.0589 0.8794 1.0445
C8 C 0.1744(3) 0.5276(3) 1.0913(3)
H6 H 0.1535 0.5112 1.1867
C9 C 0.2595(3) 0.4264(3) 0.9974(3)
C10 C 0.3185(3) 0.3011(3) 1.0543(3)
C11 C 0.2152(3) 0.2169(3) 1.1455(3)
H7 H 0.1079 0.2363 1.1672
C12 C 0.2698(4) 0.1057(3) 1.2039(3)
H8 H 0.2000 0.0480 1.2621
C13 C 0.4289(4) 0.0794(4) 1.1761(4)
H9 H 0.4658 0.0060 1.2186
C14 C 0.5324(4) 0.1614(3) 1.0859(4)
H10 H 0.6396 0.1423 1.0659
C15 C 0.4787(3) 0.2709(3) 1.0253(3)
H11 H 0.5496 0.3259 0.9641
C16 C 0.3724(3) 0.3384(3) 0.7506(3)
H12 H 0.3032 0.3216 0.6998
H13 H 0.3915 0.2540 0.7957
C17 C 0.5256(3) 0.3768(3) 0.6464(3)
C18 C 0.5995(4) 0.2960(3) 0.5284(3)
H14 H 0.5548 0.2185 0.5159
C19 C 0.7399(4) 0.3288(4) 0.4281(3)
H15 H 0.7885 0.2733 0.3494
C20 C 0.8059(4) 0.4423(4) 0.4452(4)
H16 H 0.8997 0.4646 0.3781
C21 C 0.7345(4) 0.5232(4) 0.5606(4)
H17 H 0.7799 0.6007 0.5718
C22 C 0.5950(3) 0.4911(3) 0.6613(3)
H18 H 0.5477 0.5472 0.7398
N1 N 0.2935(3) 0.4395(2) 0.8585(2)
H19 H 0.2650 0.5170 0.8300
O1 O 0.1329(2) 0.6855(2) 0.92685(19)
loop_
_geom_bond_atom_site_label_1
_geom_bond_atom_site_label_2
_geom_bond_site_symmetry_1
_geom_bond_site_symmetry_2
C1 C2 1_555 1_555
C2 C3 1_555 1_555
C3 H1 1_555 1_555
C4 C3 1_555 1_555
H2 C4 1_555 1_555
C5 C4 1_555 1_555
H3 C5 1_555 1_555
C6 C5 1_555 1_555
H4 C6 1_555 1_555
C7 C2 1_555 1_555
H5 C7 1_555 1_555
C8 C1 1_555 1_555
H6 C8 1_555 1_555
C9 C8 1_555 1_555
C10 C9 1_555 1_555
C11 C10 1_555 1_555
H7 C11 1_555 1_555
C12 C11 1_555 1_555
H8 C12 1_555 1_555
C13 C12 1_555 1_555
H9 C13 1_555 1_555
C14 C13 1_555 1_555
H10 C14 1_555 1_555
C15 C10 1_555 1_555
H11 C15 1_555 1_555
C16 H12 1_555 1_555
H13 C16 1_555 1_555
C17 C16 1_555 1_555
C18 C17 1_555 1_555
H14 C18 1_555 1_555
C19 C18 1_555 1_555
H15 C19 1_555 1_555
C20 C19 1_555 1_555
H16 C20 1_555 1_555
C21 C20 1_555 1_555
H17 C21 1_555 1_555
C22 C17 1_555 1_555
H18 C22 1_555 1_555
N1 C9 1_555 1_555
H19 N1 1_555 1_555
O1 C1 1_555 1_555
C6 C7 1_555 1_555
C14 C15 1_555 1_555
C16 N1 1_555 1_555
C21 C22 1_555 1_555

#END
