
#######################################################################
#
#                 Cambridge Crystallographic Data Centre
#                                CCDC 
#
#######################################################################
#
# If this CIF has been generated from an entry in the Cambridge 
# Structural Database, then it will include bibliographic, chemical, 
# crystal, experimental, refinement or atomic coordinate data resulting 
# from the CCDC's data processing and validation procedures.
#
#######################################################################

data_QESJUW
_chemical_formula_moiety         'C27 H22 N2 O2 S1'
_chemical_name_systematic        
8-[(4-methylphenyl)sulfonyl]-8,9-dihydro-7H-8,14b-diazabenzo[c]cycloocta[1,2,3-lm]fluorene
_symmetry_cell_setting           triclinic
_symmetry_space_group_name_H-M   'P -1'
_symmetry_Int_Tables_number      2
_space_group_name_Hall           '-P 1'
loop_
_symmetry_equiv_pos_site_id
_symmetry_equiv_pos_as_xyz
1 x,y,z
2 -x,-y,-z
_cell_length_a                   9.219(2)
_cell_length_b                   10.845(2)
_cell_length_c                   10.965(2)
_cell_angle_alpha                91.398(4)
_cell_angle_beta                 102.876(5)
_cell_angle_gamma                92.881(5)
_cell_volume                     1066.65
_exptl_crystal_colour            colorless
_exptl_crystal_description       prismatic
_cell_formula_units_Z            2
loop_
_atom_site_label
_atom_site_type_symbol
_atom_site_fract_x
_atom_site_fract_y
_atom_site_fract_z
S1 S 0.46015(9) 0.21019(7) 0.39758(8)
N1 N -0.0040(3) -0.1735(2) 0.0878(2)
N2 N 0.3311(3) 0.1033(2) 0.3366(2)
O1 O 0.5165(2) 0.18069(19) 0.52493(19)
O2 O 0.5587(2) 0.2196(2) 0.3143(2)
C1 C 0.0735(3) -0.2349(2) 0.0096(2)
C2 C 0.0181(4) -0.3426(3) -0.0601(3)
H1 H -0.0741 -0.3784 -0.0550
C3 C 0.0985(4) -0.3970(3) -0.1367(3)
H2 H 0.0600 -0.4692 -0.1824
C4 C 0.2349(4) -0.3462(3) -0.1466(3)
H3 H 0.2887 -0.3837 -0.1980
C5 C 0.2902(4) -0.2391(3) -0.0793(3)
H4 H 0.3820 -0.2039 -0.0861
C6 C 0.2116(3) -0.1821(3) -0.0010(3)
C7 C 0.2684(3) -0.0678(3) 0.0666(3)
H5 H 0.3598 -0.0333 0.0580
C8 C 0.1954(3) -0.0091(2) 0.1413(2)
C9 C 0.0543(3) -0.0619(2) 0.1561(2)
C10 C -0.0461(3) -0.0221(3) 0.2221(3)
C11 C -0.1720(3) -0.1080(3) 0.1942(3)
C12 C -0.1439(3) -0.2030(3) 0.1137(3)
C13 C -0.2469(4) -0.3032(3) 0.0781(3)
H6 H -0.2289 -0.3668 0.0259
C14 C -0.3754(4) -0.3057(4) 0.1217(3)
H7 H -0.4439 -0.3729 0.0997
C15 C -0.4061(4) -0.2111(4) 0.1974(3)
H8 H -0.4958 -0.2144 0.2231
C16 C -0.3060(4) -0.1128(3) 0.2349(3)
H9 H -0.3265 -0.0499 0.2866
C17 C 0.2579(3) 0.1145(2) 0.2037(3)
H10 H 0.3295 0.1500 0.1598
H11 H 0.1777 0.1702 0.1973
C18 C 0.2330(4) 0.0537(3) 0.4160(3)
H12 H 0.2860 0.0632 0.5029
H13 H 0.2127 -0.0340 0.3965
C19 C 0.0888(4) 0.1131(3) 0.4016(3)
H14 H 0.0827 0.1769 0.4581
C20 C -0.0326(4) 0.0809(3) 0.3131(3)
H15 H -0.1152 0.1277 0.3089
C21 C 0.3738(3) 0.3518(3) 0.3963(3)
C22 C 0.3164(4) 0.3874(3) 0.4971(3)
H16 H 0.3287 0.3397 0.5676
C23 C 0.2405(4) 0.4950(3) 0.4921(3)
H17 H 0.2018 0.5184 0.5601
C24 C 0.2205(4) 0.5683(3) 0.3895(4)
C25 C 0.2819(4) 0.5320(3) 0.2915(4)
H18 H 0.2724 0.5811 0.2221
C26 C 0.3573(4) 0.4247(3) 0.2934(3)
H19 H 0.3966 0.4019 0.2257
C27 C 0.1363(5) 0.6853(3) 0.3873(4)
H20 H 0.1673 0.7415 0.3304
H21 H 0.1572 0.7233 0.4697
H22 H 0.0313 0.6650 0.3602
loop_
_geom_bond_atom_site_label_1
_geom_bond_atom_site_label_2
_geom_bond_site_symmetry_1
_geom_bond_site_symmetry_2
S1 N2 1_555 1_555
N1 C1 1_555 1_555
N2 C17 1_555 1_555
O1 S1 1_555 1_555
O2 S1 1_555 1_555
C1 C2 1_555 1_555
C2 H1 1_555 1_555
C3 C2 1_555 1_555
H2 C3 1_555 1_555
C4 C3 1_555 1_555
H3 C4 1_555 1_555
C5 C4 1_555 1_555
H4 C5 1_555 1_555
C6 C1 1_555 1_555
C7 C6 1_555 1_555
H5 C7 1_555 1_555
C8 C7 1_555 1_555
C9 N1 1_555 1_555
C10 C9 1_555 1_555
C11 C10 1_555 1_555
C12 N1 1_555 1_555
C13 C12 1_555 1_555
H6 C13 1_555 1_555
C14 C13 1_555 1_555
H7 C14 1_555 1_555
C15 C14 1_555 1_555
H8 C15 1_555 1_555
C16 C11 1_555 1_555
H9 C16 1_555 1_555
C17 C8 1_555 1_555
H10 C17 1_555 1_555
H11 C17 1_555 1_555
C18 N2 1_555 1_555
H12 C18 1_555 1_555
H13 C18 1_555 1_555
C19 C18 1_555 1_555
H14 C19 1_555 1_555
C20 C10 1_555 1_555
H15 C20 1_555 1_555
C21 S1 1_555 1_555
C22 C21 1_555 1_555
H16 C22 1_555 1_555
C23 C22 1_555 1_555
H17 C23 1_555 1_555
C24 C23 1_555 1_555
C25 C24 1_555 1_555
H18 C25 1_555 1_555
C26 C21 1_555 1_555
H19 C26 1_555 1_555
C27 C24 1_555 1_555
H20 C27 1_555 1_555
H21 C27 1_555 1_555
H22 C27 1_555 1_555
C5 C6 1_555 1_555
C8 C9 1_555 1_555
C11 C12 1_555 1_555
C15 C16 1_555 1_555
C19 C20 1_555 1_555
C25 C26 1_555 1_555

#END
