
#######################################################################
#
#                 Cambridge Crystallographic Data Centre
#                                CCDC 
#
#######################################################################
#
# If this CIF has been generated from an entry in the Cambridge 
# Structural Database, then it will include bibliographic, chemical, 
# crystal, experimental, refinement or atomic coordinate data resulting 
# from the CCDC's data processing and validation procedures.
#
#######################################################################

data_QESJON
_chemical_formula_moiety         'C60 H120 Mg6 N12 O24'
_chemical_name_systematic        
bis(\m~4~-N,N-Diethylcarbamato-O,O,O',O')-tetrakis(\m~3~-N,N-diethylcarbamato-O,O,O')-hexakis(\m~2~-N,N-diethylcarbamato-O,O')-hexa-magnesium
_symmetry_cell_setting           orthorhombic
_symmetry_space_group_name_H-M   'C c c a'
_symmetry_Int_Tables_number      68
_space_group_name_Hall           '-C 2b 2bc'
loop_
_symmetry_equiv_pos_site_id
_symmetry_equiv_pos_as_xyz
1 x,y,z
2 1/2+x,1/2+y,z
3 1/2+x,y,-z
4 x,-y,1/2+z
5 1/2-x,y,1/2+z
6 x,1/2+y,-z
7 1/2+x,1/2-y,1/2+z
8 -x,1/2+y,1/2+z
9 -x,-y,-z
10 1/2-x,1/2-y,-z
11 1/2-x,-y,z
12 -x,y,1/2-z
13 1/2+x,-y,1/2-z
14 -x,1/2-y,z
15 1/2-x,1/2+y,1/2-z
16 x,1/2-y,1/2-z
_cell_length_a                   20.9480(3)
_cell_length_b                   25.1843(1)
_cell_length_c                   16.2816(1)
_cell_angle_alpha                90
_cell_angle_beta                 90
_cell_angle_gamma                90
_cell_volume                     8589.53
_exptl_crystal_colour            colorless
_exptl_crystal_description       block
_chemical_melting_point          'decomposes above 85 deg.C'
_cell_formula_units_Z            4
_chemical_properties_physical    'extremely air-sensitive and hygroscopic'
_exptl_crystal_recrystallization_method hexane
loop_
_atom_site_label
_atom_site_type_symbol
_atom_site_fract_x
_atom_site_fract_y
_atom_site_fract_z
Mg1 Mg 0.5000 0.16152(5) 0.7500
Mg2 Mg 0.37158(5) 0.20281(4) 0.67599(7)
O1 O 0.46334(11) 0.10339(7) 0.67861(14)
O2 O 0.37226(10) 0.13351(8) 0.62081(13)
O3 O 0.47003(9) 0.21324(7) 0.65782(12)
O4 O 0.59620(9) 0.17990(8) 0.71059(13)
O5 O 0.36066(11) 0.27019(9) 0.61191(13)
O6 O 0.28310(11) 0.21026(10) 0.7184(2)
N1 N 0.4066(2) 0.05052(11) 0.5958(2)
N2 N 0.5000 0.2500 0.5375(2)
N3 N 0.6482(2) 0.14178(11) 0.6032(2)
N4 N 0.1903(2) 0.2500 0.7500
C1 C 0.4147(2) 0.09817(12) 0.6337(2)
C2 C 0.3471(5) 0.0398(3) 0.5483(4)
H1 H 0.3344(5) 0.0030(3) 0.5536(4)
H2 H 0.3125(5) 0.0622(3) 0.5673(4)
C3 C 0.3629(4) 0.0517(3) 0.4676(6)
H3 H 0.3265(4) 0.0457(3) 0.4330(6)
H4 H 0.3974(4) 0.0293(3) 0.4502(6)
H5 H 0.3756(4) 0.0882(3) 0.4638(6)
C4 C 0.4512(2) 0.0063(2) 0.6088(3)
H6 H 0.4931(2) 0.0205(2) 0.6215(3)
H7 H 0.4548(2) -0.0140(2) 0.5584(3)
C5 C 0.4308(3) -0.0290(2) 0.6756(5)
H8 H 0.4612(3) -0.0572(2) 0.6819(5)
H9 H 0.3897(3) -0.0437(2) 0.6627(5)
H10 H 0.4281(3) -0.0091(2) 0.7258(5)
C6 C 0.5000 0.2500 0.6192(3)
C7 C 0.5334(2) 0.2910(2) 0.4907(2)
H11 H 0.5500(2) 0.2754(2) 0.4406(2)
H12 H 0.5694(2) 0.3037(2) 0.5227(2)
C8 C 0.4923(3) 0.3368(2) 0.4690(3)
H13 H 0.5168(3) 0.3623(2) 0.4385(3)
H14 H 0.4765(3) 0.3530(2) 0.5183(3)
H15 H 0.4571(3) 0.3248(2) 0.4362(3)
C9 C 0.6274(2) 0.18522(13) 0.6428(2)
C10 C 0.6848(3) 0.1478(2) 0.5262(3)
H16 H 0.6867(3) 0.1136(2) 0.4990(3)
H17 H 0.6619(3) 0.1719(2) 0.4903(3)
C11 C 0.7498(3) 0.1676(2) 0.5368(4)
H18 H 0.7702(3) 0.1703(2) 0.4842(4)
H19 H 0.7734(3) 0.1435(2) 0.5710(4)
H20 H 0.7486(3) 0.2019(2) 0.5623(4)
C12 C 0.6382(2) 0.08823(15) 0.6384(3)
H21 H 0.6301(2) 0.06333(15) 0.5941(3)
H22 H 0.6007(2) 0.08890(15) 0.6733(3)
C13 C 0.6940(3) 0.0692(2) 0.6875(4)
H23 H 0.6851(3) 0.0344(2) 0.7089(4)
H24 H 0.7017(3) 0.0932(2) 0.7322(4)
H25 H 0.7311(3) 0.0677(2) 0.6530(4)
C14 C 0.2549(2) 0.2500 0.7500
C15 C 0.1553(2) 0.2080(2) 0.7089(4)
H26 H 0.1210(2) 0.2239(2) 0.6773(4)
H27 H 0.1837(2) 0.1905(2) 0.6704(4)
C16 C 0.1288(4) 0.1690(3) 0.7617(5)
H28 H 0.1066(4) 0.1429(3) 0.7296(5)
H29 H 0.0995(4) 0.1856(3) 0.7990(5)
H30 H 0.1624(4) 0.1522(3) 0.7922(5)
O1K O 0.53666(11) 0.10339(7) 0.82139(14)
C1K C 0.5853(2) 0.09817(12) 0.8663(2)
O2K O 0.62774(10) 0.13351(8) 0.87919(13)
Mg2K Mg 0.62842(5) 0.20281(4) 0.82401(7)
O3K O 0.52997(9) 0.21324(7) 0.84218(12)
O5K O 0.63934(11) 0.27019(9) 0.88809(13)
C9O C 0.6274(2) 0.31478(13) 0.8572(2)
O4O O 0.59620(9) 0.32010(8) 0.78941(13)
Mg1O Mg 0.5000 0.33848(5) 0.7500
O1O O 0.46334(11) 0.39661(7) 0.82139(14)
C1O C 0.4147(2) 0.40183(12) 0.8663(2)
O2O O 0.37226(10) 0.36649(8) 0.87919(13)
Mg2O Mg 0.37158(5) 0.29719(4) 0.82401(7)
O3O O 0.47003(9) 0.28676(7) 0.84218(12)
O1M O 0.53666(11) 0.39661(7) 0.67861(14)
C1M C 0.5853(2) 0.40183(12) 0.6337(2)
O2M O 0.62774(10) 0.36649(8) 0.62081(13)
Mg2M Mg 0.62842(5) 0.29719(4) 0.67599(7)
O3M O 0.52997(9) 0.28676(7) 0.65782(12)
O4M O 0.40380(9) 0.32010(8) 0.71059(13)
O5O O 0.36066(11) 0.22981(9) 0.88809(13)
C9K C 0.3726(2) 0.18522(13) 0.8572(2)
O4K O 0.40380(9) 0.17990(8) 0.78941(13)
C9M C 0.3726(2) 0.31478(13) 0.6428(2)
N3M N 0.3518(2) 0.35822(11) 0.6032(2)
C10M C 0.3152(3) 0.3522(2) 0.5262(3)
H16M H 0.3133(3) 0.3864(2) 0.4990(3)
H17M H 0.3381(3) 0.3281(2) 0.4903(3)
C11M C 0.2502(3) 0.3324(2) 0.5368(4)
H18M H 0.2298(3) 0.3297(2) 0.4842(4)
H19M H 0.2266(3) 0.3565(2) 0.5710(4)
H20M H 0.2514(3) 0.2981(2) 0.5623(4)
C12M C 0.3618(2) 0.41177(15) 0.6384(3)
H21M H 0.3699(2) 0.43667(15) 0.5941(3)
H22M H 0.3993(2) 0.41110(15) 0.6733(3)
C13M C 0.3060(3) 0.4308(2) 0.6875(4)
H23M H 0.3149(3) 0.4656(2) 0.7089(4)
H24M H 0.2983(3) 0.4068(2) 0.7322(4)
H25M H 0.2689(3) 0.4323(2) 0.6530(4)
O6O O 0.28310(11) 0.28974(10) 0.7816(2)
C15O C 0.1553(2) 0.2920(2) 0.7911(4)
H26O H 0.1210(2) 0.2761(2) 0.8227(4)
H27O H 0.1837(2) 0.3095(2) 0.8296(4)
C16O C 0.1288(4) 0.3310(3) 0.7383(5)
H28O H 0.1066(4) 0.3571(3) 0.7704(5)
H29O H 0.0995(4) 0.3144(3) 0.7010(5)
H30O H 0.1624(4) 0.3478(3) 0.7078(5)
N3K N 0.3518(2) 0.14178(11) 0.8968(2)
C10K C 0.3152(3) 0.1478(2) 0.9738(3)
H16K H 0.3133(3) 0.1136(2) 1.0010(3)
H17K H 0.3381(3) 0.1719(2) 1.0097(3)
C11K C 0.2502(3) 0.1676(2) 0.9632(4)
H18K H 0.2298(3) 0.1703(2) 1.0158(4)
H19K H 0.2266(3) 0.1435(2) 0.9290(4)
H20K H 0.2514(3) 0.2019(2) 0.9377(4)
C12K C 0.3618(2) 0.08823(15) 0.8616(3)
H21K H 0.3699(2) 0.06333(15) 0.9059(3)
H22K H 0.3993(2) 0.08890(15) 0.8267(3)
C13K C 0.3060(3) 0.0692(2) 0.8125(4)
H23K H 0.3149(3) 0.0344(2) 0.7911(4)
H24K H 0.2983(3) 0.0932(2) 0.7678(4)
H25K H 0.2689(3) 0.0677(2) 0.8470(4)
C7M C 0.4666(2) 0.2090(2) 0.4907(2)
H11M H 0.4500(2) 0.2246(2) 0.4406(2)
H12M H 0.4306(2) 0.1963(2) 0.5227(2)
C8M C 0.5077(3) 0.1632(2) 0.4690(3)
H13M H 0.4832(3) 0.1377(2) 0.4385(3)
H14M H 0.5235(3) 0.1470(2) 0.5183(3)
H15M H 0.5429(3) 0.1752(2) 0.4362(3)
O5M O 0.63934(11) 0.22981(9) 0.61191(13)
O6M O 0.71690(11) 0.28974(10) 0.7184(2)
C14M C 0.7451(2) 0.2500 0.7500
O6K O 0.71690(11) 0.21026(10) 0.7816(2)
N4M N 0.8097(2) 0.2500 0.7500
C15M C 0.8447(2) 0.2920(2) 0.7089(4)
H26M H 0.8790(2) 0.2761(2) 0.6773(4)
H27M H 0.8163(2) 0.3095(2) 0.6704(4)
C16M C 0.8712(4) 0.3310(3) 0.7617(5)
H28M H 0.8934(4) 0.3571(3) 0.7296(5)
H29M H 0.9005(4) 0.3144(3) 0.7990(5)
H30M H 0.8376(4) 0.3478(3) 0.7922(5)
C15K C 0.8447(2) 0.2080(2) 0.7911(4)
H26K H 0.8790(2) 0.2239(2) 0.8227(4)
H27K H 0.8163(2) 0.1905(2) 0.8296(4)
C16K C 0.8712(4) 0.1690(3) 0.7383(5)
H28K H 0.8934(4) 0.1429(3) 0.7704(5)
H29K H 0.9005(4) 0.1856(3) 0.7010(5)
H30K H 0.8376(4) 0.1522(3) 0.7078(5)
N1M N 0.5934(2) 0.44948(11) 0.5958(2)
C2M C 0.6529(5) 0.4602(3) 0.5483(4)
H1M H 0.6656(5) 0.4970(3) 0.5536(4)
H2M H 0.6875(5) 0.4378(3) 0.5673(4)
C3M C 0.6371(4) 0.4483(3) 0.4676(6)
H3M H 0.6735(4) 0.4543(3) 0.4330(6)
H4M H 0.6026(4) 0.4707(3) 0.4502(6)
H5M H 0.6244(4) 0.4118(3) 0.4638(6)
C4M C 0.5488(2) 0.4937(2) 0.6088(3)
H6M H 0.5069(2) 0.4795(2) 0.6215(3)
H7M H 0.5452(2) 0.5140(2) 0.5584(3)
C5M C 0.5692(3) 0.5290(2) 0.6756(5)
H8M H 0.5388(3) 0.5572(2) 0.6819(5)
H9M H 0.6103(3) 0.5437(2) 0.6627(5)
H10M H 0.5719(3) 0.5091(2) 0.7258(5)
C6O C 0.5000 0.2500 0.8808(3)
N2O N 0.5000 0.2500 0.9625(2)
C7O C 0.5334(2) 0.2090(2) 1.0093(2)
H11O H 0.5500(2) 0.2246(2) 1.0594(2)
H12O H 0.5694(2) 0.1963(2) 0.9773(2)
C8O C 0.4923(3) 0.1632(2) 1.0310(3)
H13O H 0.5168(3) 0.1377(2) 1.0615(3)
H14O H 0.4765(3) 0.1470(2) 0.9817(3)
H15O H 0.4571(3) 0.1752(2) 1.0638(3)
C7K C 0.4666(2) 0.2910(2) 1.0093(2)
H11K H 0.4500(2) 0.2754(2) 1.0594(2)
H12K H 0.4306(2) 0.3037(2) 0.9773(2)
C8K C 0.5077(3) 0.3368(2) 1.0310(3)
H13K H 0.4832(3) 0.3623(2) 1.0615(3)
H14K H 0.5235(3) 0.3530(2) 0.9817(3)
H15K H 0.5429(3) 0.3248(2) 1.0638(3)
N1O N 0.4066(2) 0.44948(11) 0.9042(2)
C2O C 0.3471(5) 0.4602(3) 0.9517(4)
H1O H 0.3344(5) 0.4970(3) 0.9464(4)
H2O H 0.3125(5) 0.4378(3) 0.9327(4)
C3O C 0.3629(4) 0.4483(3) 1.0324(6)
H3O H 0.3265(4) 0.4543(3) 1.0670(6)
H4O H 0.3974(4) 0.4707(3) 1.0498(6)
H5O H 0.3756(4) 0.4118(3) 1.0362(6)
C4O C 0.4512(2) 0.4937(2) 0.8912(3)
H6O H 0.4931(2) 0.4795(2) 0.8785(3)
H7O H 0.4548(2) 0.5140(2) 0.9416(3)
C5O C 0.4308(3) 0.5290(2) 0.8244(5)
H8O H 0.4612(3) 0.5572(2) 0.8181(5)
H9O H 0.3897(3) 0.5437(2) 0.8373(5)
H10O H 0.4281(3) 0.5091(2) 0.7742(5)
N3O N 0.6482(2) 0.35822(11) 0.8968(2)
C10O C 0.6848(3) 0.3522(2) 0.9738(3)
H16O H 0.6867(3) 0.3864(2) 1.0010(3)
H17O H 0.6619(3) 0.3281(2) 1.0097(3)
C11O C 0.7498(3) 0.3324(2) 0.9632(4)
H18O H 0.7702(3) 0.3297(2) 1.0158(4)
H19O H 0.7734(3) 0.3565(2) 0.9290(4)
H20O H 0.7486(3) 0.2981(2) 0.9377(4)
C12O C 0.6382(2) 0.41177(15) 0.8616(3)
H21O H 0.6301(2) 0.43667(15) 0.9059(3)
H22O H 0.6007(2) 0.41110(15) 0.8267(3)
C13O C 0.6940(3) 0.4308(2) 0.8125(4)
H23O H 0.6851(3) 0.4656(2) 0.7911(4)
H24O H 0.7017(3) 0.4068(2) 0.7678(4)
H25O H 0.7311(3) 0.4323(2) 0.8470(4)
N1K N 0.5934(2) 0.05052(11) 0.9042(2)
C2K C 0.6529(5) 0.0398(3) 0.9517(4)
H1K H 0.6656(5) 0.0030(3) 0.9464(4)
H2K H 0.6875(5) 0.0622(3) 0.9327(4)
C3K C 0.6371(4) 0.0517(3) 1.0324(6)
H3K H 0.6735(4) 0.0457(3) 1.0670(6)
H4K H 0.6026(4) 0.0293(3) 1.0498(6)
H5K H 0.6244(4) 0.0882(3) 1.0362(6)
C4K C 0.5488(2) 0.0063(2) 0.8912(3)
H6K H 0.5069(2) 0.0205(2) 0.8785(3)
H7K H 0.5452(2) -0.0140(2) 0.9416(3)
C5K C 0.5692(3) -0.0290(2) 0.8244(5)
H8K H 0.5388(3) -0.0572(2) 0.8181(5)
H9K H 0.6103(3) -0.0437(2) 0.8373(5)
H10K H 0.5719(3) -0.0091(2) 0.7742(5)
loop_
_geom_bond_atom_site_label_1
_geom_bond_atom_site_label_2
_geom_bond_site_symmetry_1
_geom_bond_site_symmetry_2
Mg1 O1 1_555 1_555
Mg2 O2 1_555 1_555
O1 C1 1_555 1_555
O2 C1 1_555 1_555
O3 Mg1 1_555 1_555
O4 Mg1 1_555 1_555
O5 Mg2 1_555 1_555
O6 Mg2 1_555 1_555
N1 C1 1_555 1_555
N2 C6 1_555 1_555
N3 C9 1_555 1_555
N4 C14 1_555 1_555
C2 N1 1_555 1_555
H1 C2 1_555 1_555
H2 C2 1_555 1_555
C3 C2 1_555 1_555
H3 C3 1_555 1_555
H4 C3 1_555 1_555
H5 C3 1_555 1_555
C4 N1 1_555 1_555
H6 C4 1_555 1_555
H7 C4 1_555 1_555
C5 C4 1_555 1_555
H8 C5 1_555 1_555
H9 C5 1_555 1_555
H10 C5 1_555 1_555
C6 O3 1_555 1_555
C7 N2 1_555 1_555
H11 C7 1_555 1_555
H12 C7 1_555 1_555
C8 C7 1_555 1_555
H13 C8 1_555 1_555
H14 C8 1_555 1_555
H15 C8 1_555 1_555
C9 O4 1_555 1_555
C10 N3 1_555 1_555
H16 C10 1_555 1_555
H17 C10 1_555 1_555
C11 C10 1_555 1_555
H18 C11 1_555 1_555
H19 C11 1_555 1_555
H20 C11 1_555 1_555
C12 N3 1_555 1_555
H21 C12 1_555 1_555
H22 C12 1_555 1_555
C13 C12 1_555 1_555
H23 C13 1_555 1_555
H24 C13 1_555 1_555
H25 C13 1_555 1_555
C14 O6 1_555 1_555
C15 N4 1_555 1_555
H26 C15 1_555 1_555
H27 C15 1_555 1_555
C16 C15 1_555 1_555
H28 C16 1_555 1_555
H29 C16 1_555 1_555
H30 C16 1_555 1_555
O1K Mg1 1_555 1_555
C1K O1K 1_555 1_555
O2K C1K 1_555 1_555
Mg2K O4 1_555 1_555
O3K Mg1 1_555 1_555
O5K Mg2K 1_555 1_555
C9O O5K 1_555 1_555
O4O C9O 1_555 1_555
Mg1O O4O 1_555 1_555
O1O Mg1O 1_555 1_555
C1O O1O 1_555 1_555
O2O C1O 1_555 1_555
Mg2O O2O 1_555 1_555
O3O Mg1O 1_555 1_555
O1M Mg1O 1_555 1_555
C1M O1M 1_555 1_555
O2M C1M 1_555 1_555
Mg2M O4O 1_555 1_555
O3M C6 1_555 1_555
O4M Mg1O 1_555 1_555
O5O Mg2O 1_555 1_555
C9K O5O 1_555 1_555
O4K Mg1 1_555 1_555
C9M O5 1_555 1_555
N3M C9M 1_555 1_555
C10M N3M 1_555 1_555
H16M C10M 1_555 1_555
H17M C10M 1_555 1_555
C11M C10M 1_555 1_555
H18M C11M 1_555 1_555
H19M C11M 1_555 1_555
H20M C11M 1_555 1_555
C12M N3M 1_555 1_555
H21M C12M 1_555 1_555
H22M C12M 1_555 1_555
C13M C12M 1_555 1_555
H23M C13M 1_555 1_555
H24M C13M 1_555 1_555
H25M C13M 1_555 1_555
O6O C14 1_555 1_555
C15O N4 1_555 1_555
H26O C15O 1_555 1_555
H27O C15O 1_555 1_555
C16O C15O 1_555 1_555
H28O C16O 1_555 1_555
H29O C16O 1_555 1_555
H30O C16O 1_555 1_555
N3K C9K 1_555 1_555
C10K N3K 1_555 1_555
H16K C10K 1_555 1_555
H17K C10K 1_555 1_555
C11K C10K 1_555 1_555
H18K C11K 1_555 1_555
H19K C11K 1_555 1_555
H20K C11K 1_555 1_555
C12K N3K 1_555 1_555
H21K C12K 1_555 1_555
H22K C12K 1_555 1_555
C13K C12K 1_555 1_555
H23K C13K 1_555 1_555
H24K C13K 1_555 1_555
H25K C13K 1_555 1_555
C7M N2 1_555 1_555
H11M C7M 1_555 1_555
H12M C7M 1_555 1_555
C8M C7M 1_555 1_555
H13M C8M 1_555 1_555
H14M C8M 1_555 1_555
H15M C8M 1_555 1_555
O5M C9 1_555 1_555
O6M Mg2M 1_555 1_555
C14M O6M 1_555 1_555
O6K Mg2K 1_555 1_555
N4M C14M 1_555 1_555
C15M N4M 1_555 1_555
H26M C15M 1_555 1_555
H27M C15M 1_555 1_555
C16M C15M 1_555 1_555
H28M C16M 1_555 1_555
H29M C16M 1_555 1_555
H30M C16M 1_555 1_555
C15K N4M 1_555 1_555
H26K C15K 1_555 1_555
H27K C15K 1_555 1_555
C16K C15K 1_555 1_555
H28K C16K 1_555 1_555
H29K C16K 1_555 1_555
H30K C16K 1_555 1_555
N1M C1M 1_555 1_555
C2M N1M 1_555 1_555
H1M C2M 1_555 1_555
H2M C2M 1_555 1_555
C3M C2M 1_555 1_555
H3M C3M 1_555 1_555
H4M C3M 1_555 1_555
H5M C3M 1_555 1_555
C4M N1M 1_555 1_555
H6M C4M 1_555 1_555
H7M C4M 1_555 1_555
C5M C4M 1_555 1_555
H8M C5M 1_555 1_555
H9M C5M 1_555 1_555
H10M C5M 1_555 1_555
C6O O3K 1_555 1_555
N2O C6O 1_555 1_555
C7O N2O 1_555 1_555
H11O C7O 1_555 1_555
H12O C7O 1_555 1_555
C8O C7O 1_555 1_555
H13O C8O 1_555 1_555
H14O C8O 1_555 1_555
H15O C8O 1_555 1_555
C7K N2O 1_555 1_555
H11K C7K 1_555 1_555
H12K C7K 1_555 1_555
C8K C7K 1_555 1_555
H13K C8K 1_555 1_555
H14K C8K 1_555 1_555
H15K C8K 1_555 1_555
N1O C1O 1_555 1_555
C2O N1O 1_555 1_555
H1O C2O 1_555 1_555
H2O C2O 1_555 1_555
C3O C2O 1_555 1_555
H3O C3O 1_555 1_555
H4O C3O 1_555 1_555
H5O C3O 1_555 1_555
C4O N1O 1_555 1_555
H6O C4O 1_555 1_555
H7O C4O 1_555 1_555
C5O C4O 1_555 1_555
H8O C5O 1_555 1_555
H9O C5O 1_555 1_555
H10O C5O 1_555 1_555
N3O C9O 1_555 1_555
C10O N3O 1_555 1_555
H16O C10O 1_555 1_555
H17O C10O 1_555 1_555
C11O C10O 1_555 1_555
H18O C11O 1_555 1_555
H19O C11O 1_555 1_555
H20O C11O 1_555 1_555
C12O N3O 1_555 1_555
H21O C12O 1_555 1_555
H22O C12O 1_555 1_555
C13O C12O 1_555 1_555
H23O C13O 1_555 1_555
H24O C13O 1_555 1_555
H25O C13O 1_555 1_555
N1K C1K 1_555 1_555
C2K N1K 1_555 1_555
H1K C2K 1_555 1_555
H2K C2K 1_555 1_555
C3K C2K 1_555 1_555
H3K C3K 1_555 1_555
H4K C3K 1_555 1_555
H5K C3K 1_555 1_555
C4K N1K 1_555 1_555
H6K C4K 1_555 1_555
H7K C4K 1_555 1_555
C5K C4K 1_555 1_555
H8K C5K 1_555 1_555
H9K C5K 1_555 1_555
H10K C5K 1_555 1_555
Mg2 O3 1_555 1_555
Mg2 O4K 1_555 1_555
O2K Mg2K 1_555 1_555
Mg2K O3K 1_555 1_555
Mg1O O3M 1_555 1_555
Mg2O O3O 1_555 1_555
Mg2O O4M 1_555 1_555
Mg2O O6O 1_555 1_555
O3O C6O 1_555 1_555
O2M Mg2M 1_555 1_555
Mg2M O3M 1_555 1_555
Mg2M O5M 1_555 1_555
O4M C9M 1_555 1_555
C9K O4K 1_555 1_555
C14M O6K 1_555 1_555

#END
