
#######################################################################
#
#                 Cambridge Crystallographic Data Centre
#                                CCDC 
#
#######################################################################
#
# If this CIF has been generated from an entry in the Cambridge 
# Structural Database, then it will include bibliographic, chemical, 
# crystal, experimental, refinement or atomic coordinate data resulting 
# from the CCDC's data processing and validation procedures.
#
#######################################################################

data_QESJUU
_chemical_formula_moiety         'C19 H22 Cl1 N1 O3 Si1'
_chemical_name_systematic        
erythro-1-(chloromethyl)-3,4-diphenyl-silatrane
_symmetry_cell_setting           monoclinic
_symmetry_space_group_name_H-M   'P 21/c'
_symmetry_Int_Tables_number      14
_space_group_name_Hall           '-P 2ybc'
loop_
_symmetry_equiv_pos_site_id
_symmetry_equiv_pos_as_xyz
1 x,y,z
2 -x,1/2+y,1/2-z
3 -x,-y,-z
4 x,1/2-y,1/2+z
_cell_length_a                   12.286(2)
_cell_length_b                   7.020(2)
_cell_length_c                   20.807(2)
_cell_angle_alpha                90
_cell_angle_beta                 95.78(2)
_cell_angle_gamma                90
_cell_volume                     1785.43
_exptl_crystal_colour            colorless
_exptl_crystal_description       block
_chemical_melting_point          '210 deg.C'
_cell_formula_units_Z            4
loop_
_atom_site_label
_atom_site_type_symbol
_atom_site_fract_x
_atom_site_fract_y
_atom_site_fract_z
Cl1 Cl 0.31517(13) -0.3322(2) 0.40536(8)
Si1 Si 0.22085(11) -0.0019(2) 0.47831(6)
O1 O 0.3463(3) 0.0780(5) 0.47675(16)
O2 O 0.1988(3) -0.1817(4) 0.52704(14)
O3 O 0.1156(3) 0.1351(5) 0.45211(14)
N1 N 0.2219(3) 0.1658(5) 0.56404(17)
C1 C 0.1922(4) -0.1640(7) 0.5944(2)
C2 C 0.1596(4) 0.0462(7) 0.6058(2)
C3 C 0.3401(4) 0.2013(8) 0.5836(3)
C4 C 0.3943(5) 0.2110(10) 0.5219(3)
C5 C 0.0763(4) 0.2865(8) 0.4891(3)
C6 C 0.1638(4) 0.3417(7) 0.5422(3)
C7 C 0.2130(5) -0.1477(9) 0.4026(3)
C8 C 0.2947(4) -0.2399(6) 0.6331(2)
C9 C 0.3910(4) -0.2680(8) 0.6052(3)
C10 C 0.4830(5) -0.3406(8) 0.6408(3)
C11 C 0.4795(5) -0.3860(9) 0.7036(3)
C12 C 0.3846(5) -0.3592(9) 0.7323(3)
C13 C 0.2928(5) -0.2869(8) 0.6967(3)
C14 C 0.1491(4) 0.0957(7) 0.6747(2)
C15 C 0.2295(4) 0.1857(8) 0.7166(2)
C16 C 0.2140(6) 0.2061(10) 0.7808(3)
C17 C 0.1239(6) 0.1361(9) 0.8056(3)
C18 C 0.0435(5) 0.0496(9) 0.7651(3)
C19 C 0.0558(4) 0.0318(8) 0.7001(3)
H1 H 0.125(3) -0.249(6) 0.606(2)
H2 H 0.086(3) 0.057(5) 0.5857(17)
H3 H 0.360(4) 0.111(6) 0.612(2)
H4 H 0.351(3) 0.312(6) 0.613(2)
H5 H 0.462(4) 0.179(7) 0.530(2)
H6 H 0.380(5) 0.334(9) 0.499(3)
H7 H 0.000(4) 0.244(6) 0.510(2)
H8 H 0.063(4) 0.380(8) 0.460(2)
H9 H 0.134(3) 0.403(6) 0.5810(19)
H10 H 0.221(4) 0.437(7) 0.525(2)
H11 H 0.150(5) -0.245(9) 0.399(3)
H12 H 0.227(4) -0.085(9) 0.364(3)
H13 H 0.394(4) -0.244(8) 0.563(3)
H14 H 0.550(5) -0.349(8) 0.614(3)
H15 H 0.550(4) -0.435(7) 0.727(2)
H16 H 0.385(4) -0.376(8) 0.775(2)
H17 H 0.223(4) -0.270(7) 0.715(2)
H18 H 0.293(4) 0.242(8) 0.698(3)
H19 H 0.267(4) 0.260(8) 0.802(2)
H20 H 0.120(5) 0.154(9) 0.855(3)
H21 H -0.029(5) -0.013(8) 0.782(3)
H22 H 0.003(4) -0.047(8) 0.673(3)
loop_
_geom_bond_atom_site_label_1
_geom_bond_atom_site_label_2
_geom_bond_site_symmetry_1
_geom_bond_site_symmetry_2
Cl1 C7 1_555 1_555
Si1 O1 1_555 1_555
O1 C4 1_555 1_555
O2 Si1 1_555 1_555
O3 Si1 1_555 1_555
N1 Si1 1_555 1_555
C1 O2 1_555 1_555
C2 N1 1_555 1_555
C3 N1 1_555 1_555
C4 C3 1_555 1_555
C5 O3 1_555 1_555
C6 N1 1_555 1_555
C7 Si1 1_555 1_555
C8 C1 1_555 1_555
C9 C8 1_555 1_555
C10 C9 1_555 1_555
C11 C10 1_555 1_555
C12 C11 1_555 1_555
C13 C8 1_555 1_555
C14 C2 1_555 1_555
C15 C14 1_555 1_555
C16 C15 1_555 1_555
C17 C16 1_555 1_555
C18 C17 1_555 1_555
C19 C14 1_555 1_555
H1 C1 1_555 1_555
H2 C2 1_555 1_555
H3 C3 1_555 1_555
H4 C3 1_555 1_555
H5 C4 1_555 1_555
H6 C4 1_555 1_555
H7 C5 1_555 1_555
H8 C5 1_555 1_555
H9 C6 1_555 1_555
H10 C6 1_555 1_555
H11 C7 1_555 1_555
H12 C7 1_555 1_555
H13 C9 1_555 1_555
H14 C10 1_555 1_555
H15 C11 1_555 1_555
H16 C12 1_555 1_555
H17 C13 1_555 1_555
H18 C15 1_555 1_555
H19 C16 1_555 1_555
H20 C17 1_555 1_555
H21 C18 1_555 1_555
H22 C19 1_555 1_555
C1 C2 1_555 1_555
C5 C6 1_555 1_555
C12 C13 1_555 1_555
C18 C19 1_555 1_555

#END
