
#######################################################################
#
#                 Cambridge Crystallographic Data Centre
#                                CCDC 
#
#######################################################################
#
# If this CIF has been generated from an entry in the Cambridge 
# Structural Database, then it will include bibliographic, chemical, 
# crystal, experimental, refinement or atomic coordinate data resulting 
# from the CCDC's data processing and validation procedures.
#
#######################################################################

data_QESJED
_chemical_formula_moiety         'C36 H78 Mg3 N6 O14 P2'
_chemical_name_systematic        
bis(\m~2~-Isobutyrato-O,O,O')-tetrakis(\m~2~-isobutyrato-O,O')-bis(hexamethylphosphoramide-O)-tri-magnesium
_symmetry_cell_setting           monoclinic
_symmetry_space_group_name_H-M   'C 2/c'
_symmetry_Int_Tables_number      15
_space_group_name_Hall           '-C 2yn'
loop_
_symmetry_equiv_pos_site_id
_symmetry_equiv_pos_as_xyz
1 x,y,z
2 1/2+x,1/2+y,z
3 x,-y,1/2+z
4 1/2+x,1/2-y,1/2+z
5 -x,-y,-z
6 1/2-x,1/2-y,-z
7 -x,y,1/2-z
8 1/2-x,1/2+y,1/2-z
_cell_length_a                   24.5444(5)
_cell_length_b                   11.51080(10)
_cell_length_c                   18.7256(4)
_cell_angle_alpha                90
_cell_angle_beta                 91.1010(10)
_cell_angle_gamma                90
_cell_volume                     5289.49
_exptl_crystal_colour            colorless
_exptl_crystal_description       block
_chemical_melting_point          'decomposes above 99 deg.C'
_cell_formula_units_Z            4
_chemical_properties_physical    'extremely air-sensitive and hygroscopic'
loop_
_atom_site_label
_atom_site_type_symbol
_atom_site_fract_x
_atom_site_fract_y
_atom_site_fract_z
Mg1 Mg 0.5000 0.5000 0.0000
Mg2 Mg 0.36337(3) 0.49172(7) 0.04924(5)
P1 P 0.22787(3) 0.51487(6) 0.08459(4)
O1 O 0.47849(8) 0.6421(2) 0.05934(11)
O2 O 0.39217(7) 0.6344(2) 0.09333(11)
O3 O 0.44171(8) 0.5370(2) -0.07791(11)
O4 O 0.35663(8) 0.4869(2) -0.05560(10)
O5 O 0.44187(7) 0.4029(2) 0.05250(10)
O6 O 0.37268(8) 0.3434(2) 0.11281(12)
O7 O 0.28639(7) 0.5161(2) 0.06787(11)
N1 N 0.21739(11) 0.4737(3) 0.16661(15)
N2 N 0.19503(11) 0.4239(3) 0.0332(2)
N3 N 0.20310(11) 0.6455(2) 0.07418(15)
C1 C 0.43924(11) 0.6786(2) 0.0931(2)
C2 C 0.4492(2) 0.7834(4) 0.1404(3)
H1 H 0.4559(2) 0.7387(4) 0.1855(3)
C3 C 0.5023(2) 0.8367(4) 0.1385(3)
H2 H 0.5287(2) 0.7806(4) 0.1206(3)
H3 H 0.5132(2) 0.8612(4) 0.1868(3)
H4 H 0.5009(2) 0.9045(4) 0.1069(3)
C4 C 0.4021(2) 0.8430(4) 0.1639(3)
H5 H 0.3705(2) 0.7909(4) 0.1607(3)
H6 H 0.3955(2) 0.9112(4) 0.1336(3)
H7 H 0.4078(2) 0.8678(4) 0.2135(3)
C5 C 0.39517(11) 0.5073(3) -0.09761(15)
C6 C 0.3823(2) 0.5015(4) -0.1777(2)
H8 H 0.3646(2) 0.5777(4) -0.1893(2)
C7 C 0.4327(2) 0.4991(4) -0.2217(2)
H9 H 0.4577(2) 0.5602(4) -0.2052(2)
H10 H 0.4228(2) 0.5124(4) -0.2720(2)
H11 H 0.4504(2) 0.4232(4) -0.2166(2)
C8 C 0.3419(2) 0.4157(6) -0.1966(2)
H12 H 0.3106(2) 0.4236(6) -0.1653(2)
H13 H 0.3576(2) 0.3378(6) -0.1910(2)
H14 H 0.3300(2) 0.4271(6) -0.2463(2)
C9 C 0.42241(11) 0.3352(2) 0.09880(15)
C10 C 0.45934(12) 0.2502(3) 0.1380(2)
H15 H 0.48708(12) 0.2978(3) 0.1647(2)
C11 C 0.4902(2) 0.1768(4) 0.0861(2)
H16 H 0.5085(2) 0.2272(4) 0.0519(2)
H17 H 0.4648(2) 0.1254(4) 0.0604(2)
H18 H 0.5174(2) 0.1300(4) 0.1121(2)
C12 C 0.4295(2) 0.1804(4) 0.1932(2)
H19 H 0.4103(2) 0.2332(4) 0.2252(2)
H20 H 0.4556(2) 0.1336(4) 0.2210(2)
H21 H 0.4030(2) 0.1290(4) 0.1692(2)
C13 C 0.2433(2) 0.3677(4) 0.1931(2)
H22 H 0.2620(2) 0.3290(4) 0.1539(2)
H23 H 0.2155(2) 0.3156(4) 0.2121(2)
H24 H 0.2697(2) 0.3872(4) 0.2311(2)
C14 C 0.1885(3) 0.5387(5) 0.2188(3)
H25 H 0.1725(3) 0.6081(5) 0.1965(3)
H26 H 0.2137(3) 0.5621(5) 0.2574(3)
H27 H 0.1594(3) 0.4905(5) 0.2384(3)
C15 C 0.1458(2) 0.3617(5) 0.0538(3)
H28 H 0.1399(2) 0.3729(5) 0.1049(3)
H29 H 0.1502(2) 0.2787(5) 0.0438(3)
H30 H 0.1145(2) 0.3918(5) 0.0265(3)
C16 C 0.2090(2) 0.4147(4) -0.0424(2)
H31 H 0.2423(2) 0.4589(4) -0.0511(2)
H32 H 0.1791(2) 0.4461(4) -0.0720(2)
H33 H 0.2148(2) 0.3329(4) -0.0547(2)
C17 C 0.1459(2) 0.6708(5) 0.0583(3)
H34 H 0.1272(2) 0.5993(5) 0.0436(3)
H35 H 0.1433(2) 0.7281(5) 0.0197(3)
H36 H 0.1288(2) 0.7021(5) 0.1011(3)
C18 C 0.2350(2) 0.7474(3) 0.0969(2)
H37 H 0.2728(2) 0.7242(3) 0.1066(2)
H38 H 0.2194(2) 0.7800(3) 0.1404(2)
H39 H 0.2339(2) 0.8060(3) 0.0590(2)
O1D O 0.52151(8) 0.3579(2) -0.05934(11)
C1D C 0.56076(11) 0.3214(2) -0.0931(2)
O2D O 0.60783(7) 0.3656(2) -0.09333(11)
Mg2D Mg 0.63663(3) 0.50828(7) -0.04924(5)
O4D O 0.64337(8) 0.5131(2) 0.05560(10)
C5D C 0.60483(11) 0.4927(3) 0.09761(15)
O3D O 0.55829(8) 0.4630(2) 0.07791(11)
O5D O 0.55813(7) 0.5971(2) -0.05250(10)
O6D O 0.62732(8) 0.6566(2) -0.11281(12)
C9D C 0.57759(11) 0.6648(2) -0.09880(15)
C10D C 0.54066(12) 0.7498(3) -0.1380(2)
H15D H 0.51292(12) 0.7022(3) -0.1647(2)
C11D C 0.5098(2) 0.8232(4) -0.0861(2)
H16D H 0.4915(2) 0.7728(4) -0.0519(2)
H17D H 0.5352(2) 0.8746(4) -0.0604(2)
H18D H 0.4826(2) 0.8700(4) -0.1121(2)
C12D C 0.5705(2) 0.8196(4) -0.1932(2)
H19D H 0.5897(2) 0.7668(4) -0.2252(2)
H20D H 0.5444(2) 0.8664(4) -0.2210(2)
H21D H 0.5970(2) 0.8710(4) -0.1692(2)
O7D O 0.71361(7) 0.4839(2) -0.06787(11)
P1D P 0.77213(3) 0.48513(6) -0.08459(4)
N1D N 0.78261(11) 0.5263(3) -0.16661(15)
C13D C 0.7567(2) 0.6323(4) -0.1931(2)
H22D H 0.7380(2) 0.6710(4) -0.1539(2)
H23D H 0.7845(2) 0.6844(4) -0.2121(2)
H24D H 0.7303(2) 0.6128(4) -0.2311(2)
C14D C 0.8115(3) 0.4613(5) -0.2188(3)
H25D H 0.8275(3) 0.3919(5) -0.1965(3)
H26D H 0.7863(3) 0.4379(5) -0.2574(3)
H27D H 0.8406(3) 0.5095(5) -0.2384(3)
N2D N 0.80497(11) 0.5761(3) -0.0332(2)
C15D C 0.8542(2) 0.6383(5) -0.0538(3)
H28D H 0.8601(2) 0.6271(5) -0.1049(3)
H29D H 0.8498(2) 0.7213(5) -0.0438(3)
H30D H 0.8855(2) 0.6082(5) -0.0265(3)
C16D C 0.7910(2) 0.5853(4) 0.0424(2)
H31D H 0.7577(2) 0.5411(4) 0.0511(2)
H32D H 0.8209(2) 0.5539(4) 0.0720(2)
H33D H 0.7852(2) 0.6671(4) 0.0547(2)
N3D N 0.79690(11) 0.3545(2) -0.07418(15)
C17D C 0.8541(2) 0.3292(5) -0.0583(3)
H34D H 0.8728(2) 0.4007(5) -0.0436(3)
H35D H 0.8567(2) 0.2719(5) -0.0197(3)
H36D H 0.8712(2) 0.2979(5) -0.1011(3)
C18D C 0.7650(2) 0.2526(3) -0.0969(2)
H37D H 0.7272(2) 0.2758(3) -0.1066(2)
H38D H 0.7806(2) 0.2200(3) -0.1404(2)
H39D H 0.7661(2) 0.1940(3) -0.0590(2)
C6D C 0.6177(2) 0.4985(4) 0.1777(2)
H8D H 0.6354(2) 0.4223(4) 0.1893(2)
C7D C 0.5673(2) 0.5009(4) 0.2217(2)
H9D H 0.5423(2) 0.4398(4) 0.2052(2)
H10D H 0.5772(2) 0.4876(4) 0.2720(2)
H11D H 0.5496(2) 0.5768(4) 0.2166(2)
C8D C 0.6581(2) 0.5843(6) 0.1966(2)
H12D H 0.6894(2) 0.5764(6) 0.1653(2)
H13D H 0.6424(2) 0.6622(6) 0.1910(2)
H14D H 0.6700(2) 0.5729(6) 0.2463(2)
C2D C 0.5508(2) 0.2166(4) -0.1404(3)
H1D H 0.5441(2) 0.2613(4) -0.1855(3)
C3D C 0.4977(2) 0.1633(4) -0.1385(3)
H2D H 0.4713(2) 0.2194(4) -0.1206(3)
H3D H 0.4868(2) 0.1388(4) -0.1868(3)
H4D H 0.4991(2) 0.0955(4) -0.1069(3)
C4D C 0.5979(2) 0.1570(4) -0.1639(3)
H5D H 0.6295(2) 0.2091(4) -0.1607(3)
H6D H 0.6045(2) 0.0888(4) -0.1336(3)
H7D H 0.5922(2) 0.1322(4) -0.2135(3)
loop_
_geom_bond_atom_site_label_1
_geom_bond_atom_site_label_2
_geom_bond_site_symmetry_1
_geom_bond_site_symmetry_2
Mg1 O1 1_555 1_555
Mg2 O2 1_555 1_555
P1 O7 1_555 1_555
O1 C1 1_555 1_555
O2 C1 1_555 1_555
O3 Mg1 1_555 1_555
O4 Mg2 1_555 1_555
O5 Mg1 1_555 1_555
O6 Mg2 1_555 1_555
O7 Mg2 1_555 1_555
N1 P1 1_555 1_555
N2 P1 1_555 1_555
N3 P1 1_555 1_555
C1 C2 1_555 1_555
C2 H1 1_555 1_555
C3 C2 1_555 1_555
H2 C3 1_555 1_555
H3 C3 1_555 1_555
H4 C3 1_555 1_555
C4 C2 1_555 1_555
H5 C4 1_555 1_555
H6 C4 1_555 1_555
H7 C4 1_555 1_555
C5 O3 1_555 1_555
C6 C5 1_555 1_555
H8 C6 1_555 1_555
C7 C6 1_555 1_555
H9 C7 1_555 1_555
H10 C7 1_555 1_555
H11 C7 1_555 1_555
C8 C6 1_555 1_555
H12 C8 1_555 1_555
H13 C8 1_555 1_555
H14 C8 1_555 1_555
C9 O5 1_555 1_555
C10 C9 1_555 1_555
H15 C10 1_555 1_555
C11 C10 1_555 1_555
H16 C11 1_555 1_555
H17 C11 1_555 1_555
H18 C11 1_555 1_555
C12 C10 1_555 1_555
H19 C12 1_555 1_555
H20 C12 1_555 1_555
H21 C12 1_555 1_555
C13 N1 1_555 1_555
H22 C13 1_555 1_555
H23 C13 1_555 1_555
H24 C13 1_555 1_555
C14 N1 1_555 1_555
H25 C14 1_555 1_555
H26 C14 1_555 1_555
H27 C14 1_555 1_555
C15 N2 1_555 1_555
H28 C15 1_555 1_555
H29 C15 1_555 1_555
H30 C15 1_555 1_555
C16 N2 1_555 1_555
H31 C16 1_555 1_555
H32 C16 1_555 1_555
H33 C16 1_555 1_555
C17 N3 1_555 1_555
H34 C17 1_555 1_555
H35 C17 1_555 1_555
H36 C17 1_555 1_555
C18 N3 1_555 1_555
H37 C18 1_555 1_555
H38 C18 1_555 1_555
H39 C18 1_555 1_555
O1D Mg1 1_555 1_555
C1D O1D 1_555 1_555
O2D C1D 1_555 1_555
Mg2D O2D 1_555 1_555
O4D Mg2D 1_555 1_555
C5D O4D 1_555 1_555
O3D Mg1 1_555 1_555
O5D Mg1 1_555 1_555
O6D Mg2D 1_555 1_555
C9D O5D 1_555 1_555
C10D C9D 1_555 1_555
H15D C10D 1_555 1_555
C11D C10D 1_555 1_555
H16D C11D 1_555 1_555
H17D C11D 1_555 1_555
H18D C11D 1_555 1_555
C12D C10D 1_555 1_555
H19D C12D 1_555 1_555
H20D C12D 1_555 1_555
H21D C12D 1_555 1_555
O7D Mg2D 1_555 1_555
P1D O7D 1_555 1_555
N1D P1D 1_555 1_555
C13D N1D 1_555 1_555
H22D C13D 1_555 1_555
H23D C13D 1_555 1_555
H24D C13D 1_555 1_555
C14D N1D 1_555 1_555
H25D C14D 1_555 1_555
H26D C14D 1_555 1_555
H27D C14D 1_555 1_555
N2D P1D 1_555 1_555
C15D N2D 1_555 1_555
H28D C15D 1_555 1_555
H29D C15D 1_555 1_555
H30D C15D 1_555 1_555
C16D N2D 1_555 1_555
H31D C16D 1_555 1_555
H32D C16D 1_555 1_555
H33D C16D 1_555 1_555
N3D P1D 1_555 1_555
C17D N3D 1_555 1_555
H34D C17D 1_555 1_555
H35D C17D 1_555 1_555
H36D C17D 1_555 1_555
C18D N3D 1_555 1_555
H37D C18D 1_555 1_555
H38D C18D 1_555 1_555
H39D C18D 1_555 1_555
C6D C5D 1_555 1_555
H8D C6D 1_555 1_555
C7D C6D 1_555 1_555
H9D C7D 1_555 1_555
H10D C7D 1_555 1_555
H11D C7D 1_555 1_555
C8D C6D 1_555 1_555
H12D C8D 1_555 1_555
H13D C8D 1_555 1_555
H14D C8D 1_555 1_555
C2D C1D 1_555 1_555
H1D C2D 1_555 1_555
C3D C2D 1_555 1_555
H2D C3D 1_555 1_555
H3D C3D 1_555 1_555
H4D C3D 1_555 1_555
C4D C2D 1_555 1_555
H5D C4D 1_555 1_555
H6D C4D 1_555 1_555
H7D C4D 1_555 1_555
Mg2 O5 1_555 1_555
O4 C5 1_555 1_555
O6 C9 1_555 1_555
Mg2D O5D 1_555 1_555
C5D O3D 1_555 1_555
O6D C9D 1_555 1_555

#END
