
#######################################################################
#
#                 Cambridge Crystallographic Data Centre
#                                CCDC 
#
#######################################################################
#
# If this CIF has been generated from an entry in the Cambridge 
# Structural Database, then it will include bibliographic, chemical, 
# crystal, experimental, refinement or atomic coordinate data resulting 
# from the CCDC's data processing and validation procedures.
#
#######################################################################

data_QESJAZ
_chemical_formula_moiety         'C30 H42 Br2 Mg2 O8,C6 H6'
_chemical_name_systematic        
"bis((\m~2~-Benzoato-O,O')-bromo-bis(tetrahydrofuran)-magnesium) benzene solvate"
_symmetry_cell_setting           monoclinic
_symmetry_space_group_name_H-M   'C 2/m'
_symmetry_Int_Tables_number      12
_space_group_name_Hall           '-C 2y'
loop_
_symmetry_equiv_pos_site_id
_symmetry_equiv_pos_as_xyz
1 x,y,z
2 1/2+x,1/2+y,z
3 x,-y,z
4 1/2+x,1/2-y,z
5 -x,-y,-z
6 1/2-x,1/2-y,-z
7 -x,y,-z
8 1/2-x,1/2+y,-z
_cell_length_a                   11.436(5)
_cell_length_b                   15.918(5)
_cell_length_c                   12.271(3)
_cell_angle_alpha                90
_cell_angle_beta                 99.79(3)
_cell_angle_gamma                90
_cell_volume                     2201.26
_exptl_crystal_colour            colorless
_exptl_crystal_description       block
_chemical_melting_point          'decomposes above 88 deg.C'
_cell_formula_units_Z            2
_chemical_properties_physical    'extremely air-sensitive and hygroscopic'
loop_
_atom_site_label
_atom_site_type_symbol
_atom_site_fract_x
_atom_site_fract_y
_atom_site_fract_z
Mg1 Mg 0.39072(15) 0.00000 0.36202(13)
Br1 Br 0.27810(8) 0.00000 0.16867(5)
O1 O 0.2897(4) 0.00000 0.4783(3)
O2 O 0.5618(3) 0.00000 0.3823(4)
O3 O 0.39668(24) 0.13205(18) 0.36766(22)
C1 C 0.3312(5) 0.00000 0.5798(4)
C2 C 0.2451(4) 0.00000 0.6583(4)
C3 C 0.2838(6) 0.00000 0.7707(5)
C4 C 0.1962(8) 0.00000 0.8421(5)
C5 C 0.0801(8) 0.00000 0.7977(7)
C6 C 0.0437(6) 0.00000 0.6899(7)
C7 C 0.1256(5) 0.00000 0.6193(5)
C8 C 0.4803(6) 0.1786(4) 0.3187(6)
C9 C 0.4334(7) 0.2639(4) 0.2977(7)
C10 C 0.3234(6) 0.2673(4) 0.3382(7)
C11 C 0.2923(5) 0.1816(4) 0.3643(5)
H1 H 0.370 0.000 0.800
H2 H 0.219 0.000 0.922
H3 H 0.020 0.000 0.845
H4 H -0.042 0.000 0.659
H5 H 0.098 0.000 0.539
H6 H 0.558 0.180 0.367
H7 H 0.494 0.153 0.251
H8 H 0.423 0.278 0.220
H9 H 0.489 0.306 0.335
H10 H 0.331 0.303 0.404
H11 H 0.263 0.293 0.284
H12 H 0.227 0.161 0.308
H13 H 0.262 0.179 0.434
O2D O 0.4382(3) 0.00000 0.6177(4)
Mg1D Mg 0.60928(15) 0.00000 0.63798(13)
Br1D Br 0.72190(8) 0.00000 0.83133(5)
O1D O 0.7103(4) 0.00000 0.5217(3)
C1D C 0.6688(5) 0.00000 0.4202(4)
O3B O 0.39668(24) -0.13205(18) 0.36766(22)
C8B C 0.4803(6) -0.1786(4) 0.3187(6)
C9B C 0.4334(7) -0.2639(4) 0.2977(7)
C10B C 0.3234(6) -0.2673(4) 0.3382(7)
C11B C 0.2923(5) -0.1816(4) 0.3643(5)
H12B H 0.227 -0.161 0.308
H13B H 0.262 -0.179 0.434
H10B H 0.331 -0.303 0.404
H11B H 0.263 -0.293 0.284
H8B H 0.423 -0.278 0.220
H9B H 0.489 -0.306 0.335
H6B H 0.558 -0.180 0.367
H7B H 0.494 -0.153 0.251
C2D C 0.7549(4) 0.00000 0.3417(4)
C3D C 0.7162(6) 0.00000 0.2293(5)
C4D C 0.8038(8) 0.00000 0.1579(5)
C5D C 0.9199(8) 0.00000 0.2023(7)
C6D C 0.9563(6) 0.00000 0.3101(7)
C7D C 0.8744(5) 0.00000 0.3807(5)
H5D H 0.902 0.000 0.461
H4D H 1.042 0.000 0.341
H3D H 0.980 0.000 0.155
H2D H 0.781 0.000 0.078
H1D H 0.630 0.000 0.200
O3D O 0.60332(24) -0.13205(18) 0.63234(22)
C8D C 0.5197(6) -0.1786(4) 0.6813(6)
C9D C 0.5666(7) -0.2639(4) 0.7023(7)
C10D C 0.6766(6) -0.2673(4) 0.6618(7)
C11D C 0.7077(5) -0.1816(4) 0.6357(5)
H12D H 0.773 -0.161 0.692
H13D H 0.738 -0.179 0.566
H10D H 0.669 -0.303 0.596
H11D H 0.737 -0.293 0.716
H8D H 0.577 -0.278 0.780
H9D H 0.511 -0.306 0.665
H6D H 0.442 -0.180 0.633
H7D H 0.506 -0.153 0.749
O3F O 0.60332(24) 0.13205(18) 0.63234(22)
C8F C 0.5197(6) 0.1786(4) 0.6813(6)
C9F C 0.5666(7) 0.2639(4) 0.7023(7)
C10F C 0.6766(6) 0.2673(4) 0.6618(7)
C11F C 0.7077(5) 0.1816(4) 0.6357(5)
H12F H 0.773 0.161 0.692
H13F H 0.738 0.179 0.566
H10F H 0.669 0.303 0.596
H11F H 0.737 0.293 0.716
H8F H 0.577 0.278 0.780
H9F H 0.511 0.306 0.665
H6F H 0.442 0.180 0.633
H7F H 0.506 0.153 0.749
C12 C 0.00000 0.1695(6) 0.00000
C13 C 0.1008(6) 0.2127(5) 0.0426(5)
C14 C 0.0992(5) 0.2970(5) 0.0404(5)
C15 C 0.00000 0.3389(6) 0.00000
H14 H 0.000 0.107 0.000
H15 H 0.173 0.183 0.075
H16 H 0.171 0.330 0.070
H17 H 0.000 0.402 0.000
C14F C -0.0992(5) 0.2970(5) -0.0404(5)
C13F C -0.1008(6) 0.2127(5) -0.0426(5)
H15F H -0.173 0.183 -0.075
H16F H -0.171 0.330 -0.070
loop_
_geom_bond_atom_site_label_1
_geom_bond_atom_site_label_2
_geom_bond_site_symmetry_1
_geom_bond_site_symmetry_2
Mg1 Br1 1_555 1_555
O1 Mg1 1_555 1_555
O2 Mg1 1_555 1_555
O3 Mg1 1_555 1_555
C1 O1 1_555 1_555
C2 C1 1_555 1_555
C3 C2 1_555 1_555
C4 C3 1_555 1_555
C5 C4 1_555 1_555
C6 C5 1_555 1_555
C7 C2 1_555 1_555
C8 O3 1_555 1_555
C9 C8 1_555 1_555
C10 C9 1_555 1_555
C11 O3 1_555 1_555
C12 C13 1_555 1_555
C13 C14 1_555 1_555
C14 C15 1_555 1_555
C15 H17 1_555 1_555
H1 C3 1_555 1_555
H2 C4 1_555 1_555
H3 C5 1_555 1_555
H4 C6 1_555 1_555
H5 C7 1_555 1_555
H6 C8 1_555 1_555
H7 C8 1_555 1_555
H8 C9 1_555 1_555
H9 C9 1_555 1_555
H10 C10 1_555 1_555
H11 C10 1_555 1_555
H12 C11 1_555 1_555
H13 C11 1_555 1_555
H14 C12 1_555 1_555
H15 C13 1_555 1_555
H16 C14 1_555 1_555
O2D C1 1_555 1_555
Mg1D O2D 1_555 1_555
Br1D Mg1D 1_555 1_555
O1D Mg1D 1_555 1_555
C1D O2 1_555 1_555
O3B Mg1 1_555 1_555
C8B O3B 1_555 1_555
C9B C8B 1_555 1_555
C10B C9B 1_555 1_555
C11B O3B 1_555 1_555
H12B C11B 1_555 1_555
H13B C11B 1_555 1_555
H10B C10B 1_555 1_555
H11B C10B 1_555 1_555
H8B C9B 1_555 1_555
H9B C9B 1_555 1_555
H6B C8B 1_555 1_555
H7B C8B 1_555 1_555
C2D C1D 1_555 1_555
C3D C2D 1_555 1_555
C4D C3D 1_555 1_555
C5D C4D 1_555 1_555
C6D C5D 1_555 1_555
C7D C2D 1_555 1_555
H5D C7D 1_555 1_555
H4D C6D 1_555 1_555
H3D C5D 1_555 1_555
H2D C4D 1_555 1_555
H1D C3D 1_555 1_555
O3D Mg1D 1_555 1_555
C8D O3D 1_555 1_555
C9D C8D 1_555 1_555
C10D C9D 1_555 1_555
C11D O3D 1_555 1_555
H12D C11D 1_555 1_555
H13D C11D 1_555 1_555
H10D C10D 1_555 1_555
H11D C10D 1_555 1_555
H8D C9D 1_555 1_555
H9D C9D 1_555 1_555
H6D C8D 1_555 1_555
H7D C8D 1_555 1_555
O3F Mg1D 1_555 1_555
C8F O3F 1_555 1_555
C9F C8F 1_555 1_555
C10F C9F 1_555 1_555
C11F O3F 1_555 1_555
H12F C11F 1_555 1_555
H13F C11F 1_555 1_555
H10F C10F 1_555 1_555
H11F C10F 1_555 1_555
H8F C9F 1_555 1_555
H9F C9F 1_555 1_555
H6F C8F 1_555 1_555
H7F C8F 1_555 1_555
C14F C15 1_555 1_555
C13F C12 1_555 1_555
H15F C13F 1_555 1_555
H16F C14F 1_555 1_555
C6 C7 1_555 1_555
C10 C11 1_555 1_555
O1D C1D 1_555 1_555
C10B C11B 1_555 1_555
C6D C7D 1_555 1_555
C10D C11D 1_555 1_555
C10F C11F 1_555 1_555
C14F C13F 1_555 1_555

#END
