
#######################################################################
#
#                 Cambridge Crystallographic Data Centre
#                                CCDC 
#
#######################################################################
#
# If this CIF has been generated from an entry in the Cambridge 
# Structural Database, then it will include bibliographic, chemical, 
# crystal, experimental, refinement or atomic coordinate data resulting 
# from the CCDC's data processing and validation procedures.
#
#######################################################################

data_QESKEE
_chemical_formula_moiety         'C70 H140 Mg6 N10 O21,3(C4 H8 O1)'
_chemical_name_systematic        
"(\m~4~-Oxo)-(\m~4~-N,N-di-isopropylcarbamato-O,O,O',O')-tris(\m~3~-N,N-di-isopropylcarbamato-O,O,O')-hexakis(\m~2~-N,N-di-isopropylcarbamato-O,O')-hexa-magnesium tetrahydrofuran solvate"
_symmetry_cell_setting           monoclinic
_symmetry_space_group_name_H-M   'P 21/c'
_symmetry_Int_Tables_number      14
_space_group_name_Hall           '-P 2ybc'
loop_
_symmetry_equiv_pos_site_id
_symmetry_equiv_pos_as_xyz
1 x,y,z
2 x,1/2-y,1/2+z
3 -x,-y,-z
4 -x,1/2+y,1/2-z
_cell_length_a                   14.8404(3)
_cell_length_b                   22.4052(5)
_cell_length_c                   31.4608(6)
_cell_angle_alpha                90
_cell_angle_beta                 96.481(1)
_cell_angle_gamma                90
_cell_volume                     10393.9
_exptl_crystal_colour            colorless
_exptl_crystal_description       column
_chemical_melting_point          'decomposes above 63 deg.C'
_cell_formula_units_Z            4
_chemical_properties_physical    'extremely air-sensitive and hygroscopic'
_exptl_crystal_recrystallization_method hexane
loop_
_atom_site_label
_atom_site_type_symbol
_atom_site_fract_x
_atom_site_fract_y
_atom_site_fract_z
Mg1 Mg 0.25618(8) 0.18053(5) 0.52708(4)
Mg2 Mg 0.26066(8) 0.18840(5) 0.63138(4)
Mg3 Mg 0.37273(7) 0.28088(5) 0.58629(3)
Mg4 Mg 0.16806(7) 0.29046(5) 0.57437(4)
Mg5 Mg 0.18288(8) 0.30845(5) 0.69460(4)
Mg6 Mg 0.30601(8) 0.40155(5) 0.65729(3)
O1 O 0.26520(14) 0.23007(9) 0.57669(7)
O2 O 0.2440(2) 0.09670(10) 0.54129(8)
O3 O 0.2699(2) 0.10391(10) 0.61302(8)
O4 O 0.3584(2) 0.19655(11) 0.49562(8)
O5 O 0.44807(15) 0.25413(10) 0.54130(7)
O6 O 0.1505(2) 0.19897(10) 0.48706(8)
O7 O 0.0906(2) 0.27581(10) 0.52012(7)
O8 O 0.38448(15) 0.23594(9) 0.65120(7)
O9 O 0.31334(15) 0.31436(9) 0.67554(7)
O10 O 0.2409(2) 0.15968(10) 0.68905(8)
O11 O 0.2174(2) 0.23795(10) 0.73074(8)
O12 O 0.14104(15) 0.24281(10) 0.62969(7)
O13 O 0.0546(2) 0.27435(10) 0.67836(7)
O14 O 0.4608(2) 0.34130(10) 0.60901(7)
O15 O 0.4425(2) 0.40921(10) 0.65971(7)
O16 O 0.27620(15) 0.34791(9) 0.56913(7)
O17 O 0.2886(2) 0.43907(9) 0.59919(7)
O18 O 0.0853(2) 0.35668(10) 0.58736(7)
O19 O 0.16697(15) 0.37673(9) 0.65009(7)
O20 O 0.1986(2) 0.37041(10) 0.74024(7)
O21 O 0.2872(2) 0.43914(10) 0.71309(7)
N1 N 0.2520(2) 0.01292(12) 0.58141(10)
N2 N 0.4980(2) 0.22035(13) 0.47978(9)
N3 N 0.0289(2) 0.24672(13) 0.45390(9)
N4 N 0.4406(2) 0.27775(12) 0.71505(9)
N5 N 0.2155(2) 0.14432(12) 0.75790(9)
N6 N 0.0009(2) 0.20045(13) 0.63198(9)
N7 N 0.5795(2) 0.39928(12) 0.63397(9)
N8 N 0.2877(2) 0.43060(12) 0.52735(9)
N9 N 0.0407(2) 0.43210(12) 0.62756(9)
N10 N 0.2407(2) 0.45334(13) 0.77855(9)
C1 C 0.2554(2) 0.0738(2) 0.57872(12)
C2 C 0.2662(3) -0.0164(2) 0.62362(13)
H1 H 0.2736(3) 0.0159(2) 0.64568(13)
C3 C 0.1839(3) -0.0536(2) 0.63239(14)
H2 H 0.1294(3) -0.0286(2) 0.62888(14)
H3 H 0.1930(3) -0.0690(2) 0.66170(14)
H4 H 0.1764(3) -0.0870(2) 0.61221(14)
C4 C 0.3533(3) -0.0536(2) 0.6287(2)
H5 H 0.4046(3) -0.0286(2) 0.6229(2)
H6 H 0.3471(3) -0.0871(2) 0.6085(2)
H7 H 0.3638(3) -0.0691(2) 0.6580(2)
C5 C 0.2333(3) -0.0248(2) 0.54262(13)
H8 H 0.2354(3) -0.0670(2) 0.55301(13)
C6 C 0.1382(3) -0.0157(2) 0.51982(15)
H9 H 0.0938(3) -0.0193(2) 0.54048(15)
H10 H 0.1258(3) -0.0461(2) 0.49749(15)
H11 H 0.1338(3) 0.0241(2) 0.50680(15)
C7 C 0.3062(3) -0.0199(2) 0.51252(14)
H12 H 0.3659(3) -0.0261(2) 0.52864(14)
H13 H 0.3038(3) 0.0198(2) 0.49941(14)
H14 H 0.2959(3) -0.0503(2) 0.49010(14)
C8 C 0.4328(2) 0.22393(15) 0.50702(11)
C9 C 0.4798(3) 0.1920(2) 0.43721(12)
H15 H 0.5369(3) 0.1960(2) 0.42338(12)
C10 C 0.4609(3) 0.1254(2) 0.43951(14)
H16 H 0.5096(3) 0.1062(2) 0.45826(14)
H17 H 0.4581(3) 0.1081(2) 0.41078(14)
H18 H 0.4030(3) 0.1191(2) 0.45097(14)
C11 C 0.4066(3) 0.2257(2) 0.40844(13)
H19 H 0.4221(3) 0.2682(2) 0.40812(13)
H20 H 0.3479(3) 0.2207(2) 0.41949(13)
H21 H 0.4031(3) 0.2097(2) 0.37930(13)
C12 C 0.5874(2) 0.2478(2) 0.49159(12)
H22 H 0.5860(2) 0.2667(2) 0.52029(12)
C13 C 0.6070(3) 0.2973(2) 0.46042(13)
H23 H 0.5576(3) 0.3265(2) 0.45829(13)
H24 H 0.6118(3) 0.2800(2) 0.43216(13)
H25 H 0.6641(3) 0.3171(2) 0.47085(13)
C14 C 0.6622(3) 0.2009(2) 0.49623(15)
H26 H 0.6473(3) 0.1700(2) 0.51638(15)
H27 H 0.7198(3) 0.2198(2) 0.50698(15)
H28 H 0.6675(3) 0.1827(2) 0.46830(15)
C15 C 0.0924(2) 0.2404(2) 0.48834(11)
C16 C -0.0431(3) 0.2921(2) 0.45414(13)
H29 H -0.0348(3) 0.3125(2) 0.48260(13)
C17 C -0.1371(3) 0.2627(3) 0.4493(2)
H30 H -0.1395(3) 0.2322(3) 0.4714(2)
H31 H -0.1484(3) 0.2441(3) 0.4210(2)
H32 H -0.1835(3) 0.2931(3) 0.4523(2)
C18 C -0.0382(3) 0.3400(2) 0.41966(14)
H33 H 0.0220(3) 0.3585(2) 0.42306(14)
H34 H -0.0844(3) 0.3706(2) 0.42259(14)
H35 H -0.0492(3) 0.3216(2) 0.39130(14)
C19 C 0.0312(3) 0.2093(2) 0.41546(12)
H36 H -0.0202(3) 0.2230(2) 0.39443(12)
C20 C 0.0140(4) 0.1437(2) 0.4238(2)
H37 H -0.0418(4) 0.1396(2) 0.4374(2)
H38 H 0.0651(4) 0.1274(2) 0.4427(2)
H39 H 0.0077(4) 0.1219(2) 0.3966(2)
C21 C 0.1170(3) 0.2189(2) 0.39426(13)
H40 H 0.1255(3) 0.2616(2) 0.38950(13)
H41 H 0.1118(3) 0.1979(2) 0.36677(13)
H42 H 0.1692(3) 0.2033(2) 0.41283(13)
C22 C 0.3798(2) 0.27589(14) 0.68036(11)
C23 C 0.5125(2) 0.23200(15) 0.72377(12)
H43 H 0.5434(2) 0.24110(15) 0.75295(12)
C24 C 0.5853(2) 0.2377(2) 0.69329(13)
H44 H 0.6067(2) 0.2791(2) 0.69318(13)
H45 H 0.5597(2) 0.2264(2) 0.66434(13)
H46 H 0.6363(2) 0.2113(2) 0.70282(13)
C25 C 0.4748(3) 0.1692(2) 0.72625(12)
H47 H 0.4286(3) 0.1686(2) 0.74622(12)
H48 H 0.5239(3) 0.1417(2) 0.73631(12)
H49 H 0.4473(3) 0.1568(2) 0.69783(12)
C26 C 0.4375(3) 0.3251(2) 0.74815(11)
H50 H 0.3917(3) 0.3552(2) 0.73632(11)
C27 C 0.4051(3) 0.3003(2) 0.78862(12)
H51 H 0.3469(3) 0.2800(2) 0.78152(12)
H52 H 0.3976(3) 0.3331(2) 0.80855(12)
H53 H 0.4499(3) 0.2719(2) 0.80195(12)
C28 C 0.5277(3) 0.3573(2) 0.75698(12)
H54 H 0.5461(3) 0.3725(2) 0.73006(12)
H55 H 0.5738(3) 0.3294(2) 0.76999(12)
H56 H 0.5215(3) 0.3906(2) 0.77659(12)
C29 C 0.2246(2) 0.1820(2) 0.72436(11)
C30 C 0.2262(3) 0.0791(2) 0.75397(12)
H57 H 0.2204(3) 0.0620(2) 0.78289(12)
C31 C 0.1506(3) 0.0511(2) 0.72352(13)
H58 H 0.0917(3) 0.0640(2) 0.73149(13)
H59 H 0.1550(3) 0.0075(2) 0.72533(13)
H60 H 0.1566(3) 0.0639(2) 0.69418(13)
C32 C 0.3191(3) 0.0601(2) 0.74258(13)
H61 H 0.3665(3) 0.0786(2) 0.76256(13)
H62 H 0.3262(3) 0.0729(2) 0.71336(13)
H63 H 0.3245(3) 0.0165(2) 0.74451(13)
C33 C 0.1900(2) 0.1687(2) 0.79867(11)
H64 H 0.1764(2) 0.2120(2) 0.79379(11)
C34 C 0.2677(3) 0.1648(2) 0.83448(13)
H65 H 0.3218(3) 0.1837(2) 0.82522(13)
H66 H 0.2807(3) 0.1229(2) 0.84144(13)
H67 H 0.2507(3) 0.1855(2) 0.85985(13)
C35 C 0.1039(3) 0.1398(2) 0.81151(13)
H68 H 0.0553(3) 0.1431(2) 0.78781(13)
H69 H 0.0856(3) 0.1603(2) 0.83671(13)
H70 H 0.1156(3) 0.0976(2) 0.81828(13)
C36 C 0.0652(2) 0.24033(15) 0.64715(11)
C37 C 0.0099(3) 0.1639(2) 0.59391(12)
H71 H 0.0674(3) 0.1769(2) 0.58290(12)
C38 C 0.0208(3) 0.0975(2) 0.60419(15)
H72 H 0.0703(3) 0.0919(2) 0.62723(15)
H73 H 0.0348(3) 0.0759(2) 0.57863(15)
H74 H -0.0357(3) 0.0819(2) 0.61329(15)
C39 C -0.0658(3) 0.1764(2) 0.55840(14)
H75 H -0.0699(3) 0.2195(2) 0.55311(14)
H76 H -0.1234(3) 0.1620(2) 0.56691(14)
H77 H -0.0529(3) 0.1559(2) 0.53224(14)
C40 C -0.0803(3) 0.1908(2) 0.65479(13)
H78 H -0.1166(3) 0.1587(2) 0.63879(13)
C41 C -0.0561(3) 0.1676(2) 0.70005(13)
H79 H -0.0173(3) 0.1323(2) 0.69942(13)
H80 H -0.1117(3) 0.1568(2) 0.71232(13)
H81 H -0.0238(3) 0.1987(2) 0.71760(13)
C42 C -0.1405(3) 0.2456(2) 0.6533(2)
H82 H -0.1542(3) 0.2588(2) 0.6235(2)
H83 H -0.1092(3) 0.2776(2) 0.6703(2)
H84 H -0.1971(3) 0.2357(2) 0.6650(2)
C43 C 0.4902(2) 0.38276(15) 0.63437(11)
C44 C 0.6336(2) 0.3784(2) 0.59990(11)
H85 H 0.6929(2) 0.3999(2) 0.60498(11)
C45 C 0.6565(3) 0.3126(2) 0.60291(12)
H86 H 0.6823(3) 0.3030(2) 0.63216(12)
H87 H 0.7006(3) 0.3031(2) 0.58300(12)
H88 H 0.6012(3) 0.2891(2) 0.59551(12)
C46 C 0.5932(3) 0.3962(2) 0.55531(11)
H89 H 0.5794(3) 0.4390(2) 0.55475(11)
H90 H 0.5373(3) 0.3735(2) 0.54742(11)
H91 H 0.6367(3) 0.3875(2) 0.53491(11)
C47 C 0.6188(3) 0.4459(2) 0.66289(12)
H92 H 0.5750(3) 0.4541(2) 0.68410(12)
C48 C 0.6326(3) 0.5041(2) 0.63905(14)
H93 H 0.5748(3) 0.5167(2) 0.62355(14)
H94 H 0.6771(3) 0.4977(2) 0.61871(14)
H95 H 0.6548(3) 0.5350(2) 0.65962(14)
C49 C 0.7076(3) 0.4239(2) 0.68781(13)
H96 H 0.6963(3) 0.3866(2) 0.70264(13)
H97 H 0.7304(3) 0.4542(2) 0.70880(13)
H98 H 0.7527(3) 0.4168(2) 0.66788(13)
C50 C 0.2839(2) 0.40566(15) 0.56627(11)
C51 C 0.2792(3) 0.3932(2) 0.48818(11)
H99 H 0.2663(3) 0.3515(2) 0.49710(11)
C52 C 0.3674(3) 0.3914(2) 0.46755(13)
H100 H 0.4171(3) 0.3784(2) 0.48872(13)
H101 H 0.3807(3) 0.4314(2) 0.45718(13)
H102 H 0.3611(3) 0.3634(2) 0.44348(13)
C53 C 0.1993(3) 0.4131(2) 0.45690(13)
H103 H 0.1442(3) 0.4136(2) 0.47138(13)
H104 H 0.1913(3) 0.3853(2) 0.43272(13)
H105 H 0.2109(3) 0.4532(2) 0.44643(13)
C54 C 0.3063(2) 0.49533(14) 0.52301(12)
H106 H 0.3071(2) 0.50279(14) 0.49171(12)
C55 C 0.4004(2) 0.5123(2) 0.54416(12)
H107 H 0.4457(2) 0.4855(2) 0.53405(12)
H108 H 0.4021(2) 0.5087(2) 0.57528(12)
H109 H 0.4140(2) 0.5536(2) 0.53672(12)
C56 C 0.2313(3) 0.5350(2) 0.53704(12)
H110 H 0.1726(3) 0.5222(2) 0.52254(12)
H111 H 0.2426(3) 0.5766(2) 0.52951(12)
H112 H 0.2307(3) 0.5318(2) 0.56807(12)
C57 C 0.0997(2) 0.38726(14) 0.62120(11)
C58 C -0.0355(2) 0.4463(2) 0.59490(12)
H113 H -0.0684(2) 0.4806(2) 0.60644(12)
C59 C -0.0037(3) 0.4679(2) 0.55336(12)
H114 H 0.0400(3) 0.5004(2) 0.55940(12)
H115 H -0.0558(3) 0.4823(2) 0.53423(12)
H116 H 0.0253(3) 0.4349(2) 0.53964(12)
C60 C -0.1043(3) 0.3952(2) 0.58800(13)
H117 H -0.1227(3) 0.3829(2) 0.61563(13)
H118 H -0.0765(3) 0.3614(2) 0.57468(13)
H119 H -0.1576(3) 0.4088(2) 0.56928(13)
C61 C 0.0536(3) 0.4689(2) 0.66650(12)
H120 H 0.1080(3) 0.4530(2) 0.68464(12)
C62 C 0.0732(3) 0.5334(2) 0.6562(2)
H121 H 0.1253(3) 0.5352(2) 0.6397(2)
H122 H 0.0870(3) 0.5559(2) 0.6829(2)
H123 H 0.0200(3) 0.5509(2) 0.6395(2)
C63 C -0.0272(3) 0.4630(2) 0.69235(14)
H124 H -0.0376(3) 0.4208(2) 0.69828(14)
H125 H -0.0814(3) 0.4798(2) 0.67595(14)
H126 H -0.0145(3) 0.4847(2) 0.71940(14)
C64 C 0.2418(2) 0.41979(15) 0.74255(11)
C65 C 0.1875(3) 0.4338(2) 0.81325(12)
H127 H 0.1566(3) 0.3957(2) 0.80362(12)
C66 C 0.2478(3) 0.4202(2) 0.85437(13)
H128 H 0.2945(3) 0.3913(2) 0.84853(13)
H129 H 0.2111(3) 0.4035(2) 0.87545(13)
H130 H 0.2769(3) 0.4571(2) 0.86567(13)
C67 C 0.1132(3) 0.4787(2) 0.8203(2)
H131 H 0.0759(3) 0.4862(2) 0.7931(2)
H132 H 0.1410(3) 0.5161(2) 0.8313(2)
H133 H 0.0751(3) 0.4625(2) 0.8411(2)
C68 C 0.2927(3) 0.5094(2) 0.78485(12)
H134 H 0.2827(3) 0.5238(2) 0.81401(12)
C69 C 0.2559(3) 0.5581(2) 0.75429(14)
H135 H 0.1902(3) 0.5616(2) 0.75496(14)
H136 H 0.2684(3) 0.5480(2) 0.72522(14)
H137 H 0.2851(3) 0.5961(2) 0.76290(14)
C70 C 0.3946(3) 0.5002(2) 0.78618(14)
H138 H 0.4140(3) 0.4683(2) 0.80646(14)
H139 H 0.4261(3) 0.5373(2) 0.79531(14)
H140 H 0.4094(3) 0.4892(2) 0.75763(14)
O22 O 0.6638(2) 0.06696(14) 0.60071(11)
C71 C 0.5842(3) 0.0343(2) 0.5859(2)
H141 H 0.5636(3) 0.0101(2) 0.6092(2)
H142 H 0.5957(3) 0.0074(2) 0.5621(2)
C72 C 0.5138(3) 0.0808(2) 0.57067(15)
H143 H 0.5199(3) 0.0938(2) 0.54104(15)
H144 H 0.4515(3) 0.0659(2) 0.57226(15)
C73 C 0.5376(4) 0.1302(2) 0.6022(2)
H145 H 0.5252(4) 0.1696(2) 0.5886(2)
H146 H 0.5023(4) 0.1266(2) 0.6270(2)
C74 C 0.6372(4) 0.1228(2) 0.6160(2)
H147 H 0.6718(4) 0.1553(2) 0.6041(2)
H148 H 0.6490(4) 0.1241(2) 0.6476(2)
O23 O 0.4354(3) 0.6919(2) 0.65876(15)
C75 C 0.3380(5) 0.6894(3) 0.6640(2)
H149 H 0.3282(5) 0.6925(3) 0.6945(2)
H150 H 0.3043(5) 0.7219(3) 0.6478(2)
C76 C 0.3104(5) 0.6319(3) 0.6469(2)
H151 H 0.2956(5) 0.6339(3) 0.6154(2)
H152 H 0.2566(5) 0.6171(3) 0.6597(2)
C77 C 0.3911(5) 0.5923(3) 0.6588(2)
H153 H 0.3944(5) 0.5792(3) 0.6890(2)
H154 H 0.3901(5) 0.5568(3) 0.6400(2)
C78 C 0.4654(5) 0.6319(3) 0.6520(2)
H155 H 0.5193(5) 0.6225(3) 0.6724(2)
H156 H 0.4818(5) 0.6274(3) 0.6226(2)
O24 O 0.0507(7) 0.7614(4) 0.6965(3)
C79 C 0.0336(6) 0.8179(6) 0.7176(3)
H157 H -0.0028(6) 0.8448(6) 0.6975(3)
H158 H -0.0001(6) 0.8106(6) 0.7426(3)
C80 C 0.1180(7) 0.8438(5) 0.7310(3)
H159 H 0.1266(7) 0.8488(5) 0.7625(3)
H160 H 0.1237(7) 0.8833(5) 0.7174(3)
C81 C 0.1873(7) 0.7997(5) 0.7165(4)
H161 H 0.2290(7) 0.8208(5) 0.6992(4)
H162 H 0.2238(7) 0.7824(5) 0.7419(4)
C82 C 0.1453(7) 0.7570(6) 0.6938(4)
H163 H 0.1679(7) 0.7177(6) 0.7048(4)
H164 H 0.1574(7) 0.7605(6) 0.6636(4)
loop_
_geom_bond_atom_site_label_1
_geom_bond_atom_site_label_2
_geom_bond_site_symmetry_1
_geom_bond_site_symmetry_2
Mg1 O1 1_555 1_555
Mg2 O1 1_555 1_555
Mg3 O1 1_555 1_555
Mg4 O1 1_555 1_555
Mg5 O9 1_555 1_555
Mg6 O9 1_555 1_555
O2 Mg1 1_555 1_555
O3 Mg2 1_555 1_555
O4 Mg1 1_555 1_555
O5 Mg3 1_555 1_555
O6 Mg1 1_555 1_555
O7 Mg4 1_555 1_555
O8 Mg2 1_555 1_555
O9 C22 1_555 1_555
O10 Mg2 1_555 1_555
O11 Mg5 1_555 1_555
O12 Mg2 1_555 1_555
O13 Mg5 1_555 1_555
O14 Mg3 1_555 1_555
O15 Mg6 1_555 1_555
O16 Mg3 1_555 1_555
O17 Mg6 1_555 1_555
O18 Mg4 1_555 1_555
O19 Mg5 1_555 1_555
O20 Mg5 1_555 1_555
O21 Mg6 1_555 1_555
N1 C1 1_555 1_555
N2 C8 1_555 1_555
N3 C15 1_555 1_555
N4 C22 1_555 1_555
N5 C29 1_555 1_555
N6 C36 1_555 1_555
N7 C43 1_555 1_555
N8 C50 1_555 1_555
N9 C57 1_555 1_555
N10 C64 1_555 1_555
C1 O2 1_555 1_555
C2 N1 1_555 1_555
H1 C2 1_555 1_555
C3 C2 1_555 1_555
H2 C3 1_555 1_555
H3 C3 1_555 1_555
H4 C3 1_555 1_555
C4 C2 1_555 1_555
H5 C4 1_555 1_555
H6 C4 1_555 1_555
H7 C4 1_555 1_555
C5 N1 1_555 1_555
H8 C5 1_555 1_555
C6 C5 1_555 1_555
H9 C6 1_555 1_555
H10 C6 1_555 1_555
H11 C6 1_555 1_555
C7 C5 1_555 1_555
H12 C7 1_555 1_555
H13 C7 1_555 1_555
H14 C7 1_555 1_555
C8 O4 1_555 1_555
C9 N2 1_555 1_555
H15 C9 1_555 1_555
C10 C9 1_555 1_555
H16 C10 1_555 1_555
H17 C10 1_555 1_555
H18 C10 1_555 1_555
C11 C9 1_555 1_555
H19 C11 1_555 1_555
H20 C11 1_555 1_555
H21 C11 1_555 1_555
C12 N2 1_555 1_555
H22 C12 1_555 1_555
C13 C12 1_555 1_555
H23 C13 1_555 1_555
H24 C13 1_555 1_555
H25 C13 1_555 1_555
C14 C12 1_555 1_555
H26 C14 1_555 1_555
H27 C14 1_555 1_555
H28 C14 1_555 1_555
C15 O6 1_555 1_555
C16 N3 1_555 1_555
H29 C16 1_555 1_555
C17 C16 1_555 1_555
H30 C17 1_555 1_555
H31 C17 1_555 1_555
H32 C17 1_555 1_555
C18 C16 1_555 1_555
H33 C18 1_555 1_555
H34 C18 1_555 1_555
H35 C18 1_555 1_555
C19 N3 1_555 1_555
H36 C19 1_555 1_555
C20 C19 1_555 1_555
H37 C20 1_555 1_555
H38 C20 1_555 1_555
H39 C20 1_555 1_555
C21 C19 1_555 1_555
H40 C21 1_555 1_555
H41 C21 1_555 1_555
H42 C21 1_555 1_555
C22 O8 1_555 1_555
C23 N4 1_555 1_555
H43 C23 1_555 1_555
C24 C23 1_555 1_555
H44 C24 1_555 1_555
H45 C24 1_555 1_555
H46 C24 1_555 1_555
C25 C23 1_555 1_555
H47 C25 1_555 1_555
H48 C25 1_555 1_555
H49 C25 1_555 1_555
C26 N4 1_555 1_555
H50 C26 1_555 1_555
C27 C26 1_555 1_555
H51 C27 1_555 1_555
H52 C27 1_555 1_555
H53 C27 1_555 1_555
C28 C26 1_555 1_555
H54 C28 1_555 1_555
H55 C28 1_555 1_555
H56 C28 1_555 1_555
C29 O10 1_555 1_555
C30 N5 1_555 1_555
H57 C30 1_555 1_555
C31 C30 1_555 1_555
H58 C31 1_555 1_555
H59 C31 1_555 1_555
H60 C31 1_555 1_555
C32 C30 1_555 1_555
H61 C32 1_555 1_555
H62 C32 1_555 1_555
H63 C32 1_555 1_555
C33 N5 1_555 1_555
H64 C33 1_555 1_555
C34 C33 1_555 1_555
H65 C34 1_555 1_555
H66 C34 1_555 1_555
H67 C34 1_555 1_555
C35 C33 1_555 1_555
H68 C35 1_555 1_555
H69 C35 1_555 1_555
H70 C35 1_555 1_555
C36 O12 1_555 1_555
C37 N6 1_555 1_555
H71 C37 1_555 1_555
C38 C37 1_555 1_555
H72 C38 1_555 1_555
H73 C38 1_555 1_555
H74 C38 1_555 1_555
C39 C37 1_555 1_555
H75 C39 1_555 1_555
H76 C39 1_555 1_555
H77 C39 1_555 1_555
C40 N6 1_555 1_555
H78 C40 1_555 1_555
C41 C40 1_555 1_555
H79 C41 1_555 1_555
H80 C41 1_555 1_555
H81 C41 1_555 1_555
C42 C40 1_555 1_555
H82 C42 1_555 1_555
H83 C42 1_555 1_555
H84 C42 1_555 1_555
C43 O14 1_555 1_555
C44 N7 1_555 1_555
H85 C44 1_555 1_555
C45 C44 1_555 1_555
H86 C45 1_555 1_555
H87 C45 1_555 1_555
H88 C45 1_555 1_555
C46 C44 1_555 1_555
H89 C46 1_555 1_555
H90 C46 1_555 1_555
H91 C46 1_555 1_555
C47 N7 1_555 1_555
H92 C47 1_555 1_555
C48 C47 1_555 1_555
H93 C48 1_555 1_555
H94 C48 1_555 1_555
H95 C48 1_555 1_555
C49 C47 1_555 1_555
H96 C49 1_555 1_555
H97 C49 1_555 1_555
H98 C49 1_555 1_555
C50 O16 1_555 1_555
C51 N8 1_555 1_555
H99 C51 1_555 1_555
C52 C51 1_555 1_555
H100 C52 1_555 1_555
H101 C52 1_555 1_555
H102 C52 1_555 1_555
C53 C51 1_555 1_555
H103 C53 1_555 1_555
H104 C53 1_555 1_555
H105 C53 1_555 1_555
C54 N8 1_555 1_555
H106 C54 1_555 1_555
C55 C54 1_555 1_555
H107 C55 1_555 1_555
H108 C55 1_555 1_555
H109 C55 1_555 1_555
C56 C54 1_555 1_555
H110 C56 1_555 1_555
H111 C56 1_555 1_555
H112 C56 1_555 1_555
C57 O18 1_555 1_555
C58 N9 1_555 1_555
H113 C58 1_555 1_555
C59 C58 1_555 1_555
H114 C59 1_555 1_555
H115 C59 1_555 1_555
H116 C59 1_555 1_555
C60 C58 1_555 1_555
H117 C60 1_555 1_555
H118 C60 1_555 1_555
H119 C60 1_555 1_555
C61 N9 1_555 1_555
H120 C61 1_555 1_555
C62 C61 1_555 1_555
H121 C62 1_555 1_555
H122 C62 1_555 1_555
H123 C62 1_555 1_555
C63 C61 1_555 1_555
H124 C63 1_555 1_555
H125 C63 1_555 1_555
H126 C63 1_555 1_555
C64 O20 1_555 1_555
C65 N10 1_555 1_555
H127 C65 1_555 1_555
C66 C65 1_555 1_555
H128 C66 1_555 1_555
H129 C66 1_555 1_555
H130 C66 1_555 1_555
C67 C65 1_555 1_555
H131 C67 1_555 1_555
H132 C67 1_555 1_555
H133 C67 1_555 1_555
C68 N10 1_555 1_555
H134 C68 1_555 1_555
C69 C68 1_555 1_555
H135 C69 1_555 1_555
H136 C69 1_555 1_555
H137 C69 1_555 1_555
C70 C68 1_555 1_555
H138 C70 1_555 1_555
H139 C70 1_555 1_555
H140 C70 1_555 1_555
O22 C71 1_555 1_555
O23 C75 1_555 1_555
O24 C79 1_555 1_555
C71 H141 1_555 1_555
H142 C71 1_555 1_555
C72 C71 1_555 1_555
H143 C72 1_555 1_555
H144 C72 1_555 1_555
C73 C72 1_555 1_555
H145 C73 1_555 1_555
H146 C73 1_555 1_555
C74 O22 1_555 1_555
H147 C74 1_555 1_555
H148 C74 1_555 1_555
C75 H149 1_555 1_555
H150 C75 1_555 1_555
C76 C75 1_555 1_555
H151 C76 1_555 1_555
H152 C76 1_555 1_555
C77 C76 1_555 1_555
H153 C77 1_555 1_555
H154 C77 1_555 1_555
C78 O23 1_555 1_555
H155 C78 1_555 1_555
H156 C78 1_555 1_555
C79 H157 1_555 1_555
H158 C79 1_555 1_555
C80 C79 1_555 1_555
H159 C80 1_555 1_555
H160 C80 1_555 1_555
C81 C80 1_555 1_555
H161 C81 1_555 1_555
H162 C81 1_555 1_555
C82 O24 1_555 1_555
H163 C82 1_555 1_555
H164 C82 1_555 1_555
Mg3 O8 1_555 1_555
Mg4 O12 1_555 1_555
Mg4 O16 1_555 1_555
Mg6 O19 1_555 1_555
O3 C1 1_555 1_555
O5 C8 1_555 1_555
O7 C15 1_555 1_555
O11 C29 1_555 1_555
O13 C36 1_555 1_555
O15 C43 1_555 1_555
O17 C50 1_555 1_555
O19 C57 1_555 1_555
O21 C64 1_555 1_555
C73 C74 1_555 1_555
C77 C78 1_555 1_555
C81 C82 1_555 1_555

#END
