
#######################################################################
#
#                 Cambridge Crystallographic Data Centre
#                                CCDC 
#
#######################################################################
#
# If this CIF has been generated from an entry in the Cambridge 
# Structural Database, then it will include bibliographic, chemical, 
# crystal, experimental, refinement or atomic coordinate data resulting 
# from the CCDC's data processing and validation procedures.
#
#######################################################################

data_QESLOS
_chemical_formula_moiety         'C19 H27 N1 O1 S1'
_chemical_name_systematic        
4-{8-[(4-methylphenyl)sulfanyl]cyclooct-4-en-1-yl}morpholine
_symmetry_cell_setting           orthorhombic
_symmetry_space_group_name_H-M   'P b c a'
_symmetry_Int_Tables_number      61
_space_group_name_Hall           '-P 2ac 2ab'
loop_
_symmetry_equiv_pos_site_id
_symmetry_equiv_pos_as_xyz
1 x,y,z
2 1/2-x,-y,1/2+z
3 -x,1/2+y,1/2-z
4 1/2+x,1/2-y,-z
5 -x,-y,-z
6 1/2+x,y,1/2-z
7 x,1/2-y,1/2+z
8 1/2-x,1/2+y,z
_cell_length_a                   13.4779(14)
_cell_length_b                   8.1983(9)
_cell_length_c                   31.894(3)
_cell_angle_alpha                90
_cell_angle_beta                 90
_cell_angle_gamma                90
_cell_volume                     3524.16
_exptl_crystal_colour            colorless
_exptl_crystal_description       prismatic
_cell_formula_units_Z            8
loop_
_atom_site_label
_atom_site_type_symbol
_atom_site_fract_x
_atom_site_fract_y
_atom_site_fract_z
S1 S 1.00029(3) 0.19459(7) 0.66342(2)
N1 N 1.03740(11) 0.21477(17) 0.57766(4)
O1 O 1.16547(10) 0.00410(18) 0.53301(4)
C1 C 0.90342(12) 0.2738(2) 0.62777(5)
H1 H 0.8607 0.1824 0.6196
C2 C 0.83885(13) 0.4026(2) 0.64874(5)
H2 H 0.7789 0.4155 0.6322
H3 H 0.8192 0.3621 0.6761
C3 C 0.88550(16) 0.5698(2) 0.65455(6)
H4 H 0.8487 0.6257 0.6764
H5 H 0.9523 0.5535 0.6650
C4 C 0.89202(15) 0.6828(2) 0.61767(6)
H6 H 0.9202 0.7838 0.6236
C5 C 0.86463(15) 0.6634(2) 0.57830(6)
H7 H 0.8752 0.7524 0.5608
C6 C 0.81866(14) 0.5162(2) 0.55818(6)
H8 H 0.7919 0.5477 0.5311
H9 H 0.7637 0.4799 0.5754
C7 C 0.89022(13) 0.3730(2) 0.55182(5)
H10 H 0.9310 0.3962 0.5275
H11 H 0.8513 0.2767 0.5454
C8 C 0.95939(13) 0.3319(2) 0.58861(5)
H12 H 0.9930 0.4336 0.5963
C9 C 1.11391(14) 0.2786(2) 0.55028(6)
H13 H 1.1380 0.3817 0.5612
H14 H 1.0866 0.2977 0.5226
C10 C 1.19841(14) 0.1589(3) 0.54742(7)
H15 H 1.2483 0.2009 0.5284
H16 H 1.2288 0.1467 0.5748
C11 C 1.09064(16) -0.0566(3) 0.55994(7)
H17 H 1.1180 -0.0719 0.5878
H18 H 1.0684 -0.1619 0.5498
C12 C 1.00351(13) 0.0578(2) 0.56235(6)
H19 H 0.9740 0.0703 0.5348
H20 H 0.9536 0.0138 0.5811
C13 C 0.93369(13) 0.1717(2) 0.71111(5)
C14 C 0.86242(14) 0.0530(3) 0.71621(6)
H21 H 0.8460 -0.0144 0.6938
C15 C 0.81518(15) 0.0331(3) 0.75423(7)
H22 H 0.7664 -0.0465 0.7569
C16 C 0.83879(15) 0.1288(3) 0.78839(6)
C17 C 0.90999(17) 0.2472(3) 0.78299(6)
H23 H 0.9272 0.3134 0.8055
C18 C 0.95625(16) 0.2696(3) 0.74489(6)
H24 H 1.0033 0.3518 0.7419
C19 C 0.7901(2) 0.1011(4) 0.83056(7)
H25 H 0.8017 0.1939 0.8483
H26 H 0.8178 0.0055 0.8434
H27 H 0.7201 0.0864 0.8268
loop_
_geom_bond_atom_site_label_1
_geom_bond_atom_site_label_2
_geom_bond_site_symmetry_1
_geom_bond_site_symmetry_2
S1 C1 1_555 1_555
N1 C8 1_555 1_555
O1 C10 1_555 1_555
C1 H1 1_555 1_555
C2 C1 1_555 1_555
H2 C2 1_555 1_555
H3 C2 1_555 1_555
C3 C2 1_555 1_555
H4 C3 1_555 1_555
H5 C3 1_555 1_555
C4 C3 1_555 1_555
H6 C4 1_555 1_555
C5 C4 1_555 1_555
H7 C5 1_555 1_555
C6 C5 1_555 1_555
H8 C6 1_555 1_555
H9 C6 1_555 1_555
C7 C6 1_555 1_555
H10 C7 1_555 1_555
H11 C7 1_555 1_555
C8 C1 1_555 1_555
H12 C8 1_555 1_555
C9 N1 1_555 1_555
H13 C9 1_555 1_555
H14 C9 1_555 1_555
C10 C9 1_555 1_555
H15 C10 1_555 1_555
H16 C10 1_555 1_555
C11 O1 1_555 1_555
H17 C11 1_555 1_555
H18 C11 1_555 1_555
C12 N1 1_555 1_555
H19 C12 1_555 1_555
H20 C12 1_555 1_555
C13 S1 1_555 1_555
C14 C13 1_555 1_555
H21 C14 1_555 1_555
C15 C14 1_555 1_555
H22 C15 1_555 1_555
C16 C15 1_555 1_555
C17 C16 1_555 1_555
H23 C17 1_555 1_555
C18 C13 1_555 1_555
H24 C18 1_555 1_555
C19 C16 1_555 1_555
H25 C19 1_555 1_555
H26 C19 1_555 1_555
H27 C19 1_555 1_555
C7 C8 1_555 1_555
C11 C12 1_555 1_555
C17 C18 1_555 1_555

#END
