
#######################################################################
#
#                 Cambridge Crystallographic Data Centre
#                                CCDC 
#
#######################################################################
#
# If this CIF has been generated from an entry in the Cambridge 
# Structural Database, then it will include bibliographic, chemical, 
# crystal, experimental, refinement or atomic coordinate data resulting 
# from the CCDC's data processing and validation procedures.
#
#######################################################################

data_QESLIM
_chemical_formula_moiety         'C39 H39 B10 N1'
_chemical_name_systematic        
1-(9,9-dimethyl-9H-fluoren-2-yl)-2-(4-((1-naphthyl)(phenyl)amino)phenyl)-1,2-dicarba-closo-dodecaborane
_symmetry_cell_setting           monoclinic
_symmetry_space_group_name_H-M   'P 21/c'
_symmetry_Int_Tables_number      14
_space_group_name_Hall           '-P 2ybc'
loop_
_symmetry_equiv_pos_site_id
_symmetry_equiv_pos_as_xyz
1 x,y,z
2 -x,1/2+y,1/2-z
3 -x,-y,-z
4 x,1/2-y,1/2+z
_cell_length_a                   21.1696(15)
_cell_length_b                   7.6980(6)
_cell_length_c                   24.4532(14)
_cell_angle_alpha                90
_cell_angle_beta                 119.382(5)
_cell_angle_gamma                90
_cell_volume                     3472.38
_exptl_crystal_colour            yellow
_exptl_crystal_description       block
_cell_formula_units_Z            4
loop_
_atom_site_label
_atom_site_type_symbol
_atom_site_fract_x
_atom_site_fract_y
_atom_site_fract_z
N1 N 0.26828(16) 0.3793(4) 0.07076(16)
C1 C 0.31010(18) 0.6996(4) 0.31109(16)
C2 C 0.25765(18) 0.5871(5) 0.31071(15)
C3 C 0.18507(18) 0.6192(5) 0.27131(15)
H1 H 0.1504 0.5452 0.2714
C4 C 0.38168(18) 0.6292(4) 0.35456(15)
C5 C 0.19080(18) 0.6254(5) 0.05980(16)
H2 H 0.2126 0.6896 0.0414
C6 C 0.37255(18) 0.4725(4) 0.37829(16)
C7 C 0.10455(17) 0.6109(5) 0.09747(15)
C8 C 0.3019(3) 0.2052(6) 0.0960(2)
C9 C 0.2964(2) 0.0642(5) 0.0628(2)
H3 H 0.2644 0.0746 0.0200
C10 C 0.3645(4) 0.3471(8) 0.2024(3)
C11 C 0.21157(18) 0.4546(5) 0.07706(16)
C12 C 0.36711(19) 0.4553(4) 0.05241(18)
H4 H 0.3995 0.4175 0.0928
C13 C 0.28857(18) 0.8458(5) 0.27280(16)
H5 H 0.3230 0.9229 0.2739
C14 C 0.43208(19) 0.3742(5) 0.41862(17)
H6 H 0.4261 0.2698 0.4346
C15 C 0.16340(18) 0.7625(4) 0.23121(15)
C16 C 0.08421(18) 0.7900(5) 0.18564(15)
C17 C 0.13834(19) 0.7012(5) 0.06954(16)
H7 H 0.1251 0.8158 0.0572
C18 C 0.27519(19) 0.4274(5) 0.40749(17)
H8 H 0.2899 0.5345 0.4305
H9 H 0.3008 0.3326 0.4350
H10 H 0.2240 0.4114 0.3907
C19 C 0.2715(2) 0.5689(5) -0.06681(18)
H11 H 0.2392 0.6079 -0.1070
C20 C 0.29259(18) 0.4331(4) 0.35363(16)
C21 C 0.17604(19) 0.3609(5) 0.10252(17)
H12 H 0.1877 0.2446 0.1130
C22 C 0.3449(2) 0.5757(5) -0.04543(19)
H13 H 0.3621 0.6200 -0.0710
C23 C 0.21559(18) 0.8757(5) 0.23312(16)
H14 H 0.2012 0.9730 0.2073
C24 C 0.12382(19) 0.4379(5) 0.11243(17)
H15 H 0.1009 0.3724 0.1296
C25 C 0.29352(19) 0.4495(4) 0.03141(17)
C26 C 0.33033(19) -0.0961(5) 0.08114(18)
C27 C 0.24527(19) 0.5049(4) -0.02922(17)
H16 H 0.1956 0.4988 -0.0443
C28 C 0.45071(18) 0.6913(5) 0.37245(17)
H17 H 0.4571 0.7981 0.3580
C29 C 0.2696(2) 0.2622(5) 0.31646(18)
H18 H 0.2805 0.2673 0.2827
H19 H 0.2185 0.2452 0.2996
H20 H 0.2955 0.1672 0.3438
C30 C 0.3930(2) 0.5167(5) 0.01415(18)
H21 H 0.4426 0.5183 0.0284
C31 C 0.4114(2) 0.3255(6) 0.2618(2)
C32 C 0.51018(19) 0.5904(5) 0.41237(17)
H22 H 0.5568 0.6288 0.4241
C33 C 0.3483(2) 0.1858(7) 0.1562(2)
C34 C 0.5005(2) 0.4339(5) 0.43467(17)
H23 H 0.5408 0.3674 0.4610
C35 C 0.05112(18) 0.7018(5) 0.11072(15)
C36 C 0.4443(3) 0.1577(8) 0.2811(4)
H24 H 0.4767 0.1484 0.3238
B1 B -0.0159(2) 0.8306(6) 0.0574(2)
B2 B 0.0193(2) 0.7797(6) 0.2075(2)
B3 B -0.0362(2) 0.6336(7) 0.0830(2)
B4 B 0.0393(2) 0.9787(6) 0.1813(2)
B5 B 0.0613(2) 0.9245(6) 0.12220(19)
B6 B 0.0293(2) 0.6080(6) 0.16382(19)
C37 C 0.38828(19) 0.0437(5) 0.18811(17)
C38 C 0.3740(4) -0.1100(11) 0.1433(4)
C39 C 0.4372(3) 0.0202(8) 0.2503(3)
B7 B -0.0582(2) 0.6846(7) 0.1428(2)
B8 B -0.0859(2) 0.8251(7) 0.0770(2)
B9 B -0.0524(2) 0.9135(7) 0.1533(2)
B10 B -0.0259(2) 1.0045(7) 0.1001(2)
H25 H 0.0556(17) 0.485(4) 0.1846(14)
H26 H 0.0381(17) 0.759(4) 0.2589(16)
H27 H 0.0709(17) 1.083(4) 0.2159(15)
H28 H -0.040(2) 1.130(6) 0.0812(19)
H29 H -0.1438(17) 0.829(4) 0.0411(15)
H30 H -0.0965(19) 0.608(5) 0.1489(16)
H31 H -0.0882(19) 0.994(5) 0.1697(16)
H32 H 0.1031(17) 0.996(4) 0.1191(14)
H33 H -0.0188(16) 0.845(4) 0.0128(15)
H34 H -0.0543(19) 0.512(5) 0.0516(17)
C40? C 0.3206(6) 0.3224(16) 0.1390(6)
C41? C 0.3444(11) 0.435(2) 0.1916(9)
C42? C 0.3896(9) -0.205(2) 0.1415(8)
C43? C 0.4108(9) -0.1090(18) 0.1902(10)
loop_
_geom_bond_atom_site_label_1
_geom_bond_atom_site_label_2
_geom_bond_site_symmetry_1
_geom_bond_site_symmetry_2
N1 C8 1_555 1_555
C1 C2 1_555 1_555
C2 C3 1_555 1_555
C3 H1 1_555 1_555
C4 C1 1_555 1_555
C5 H2 1_555 1_555
C6 C4 1_555 1_555
C7 C17 1_555 1_555
C8 C9 1_555 1_555
C9 H3 1_555 1_555
C10 C31 1_555 1_555
C11 N1 1_555 1_555
C12 H4 1_555 1_555
C13 C1 1_555 1_555
H5 C13 1_555 1_555
C14 C6 1_555 1_555
H6 C14 1_555 1_555
C15 C3 1_555 1_555
C16 C15 1_555 1_555
C17 C5 1_555 1_555
H7 C17 1_555 1_555
C18 H8 1_555 1_555
H9 C18 1_555 1_555
H10 C18 1_555 1_555
C19 H11 1_555 1_555
C20 C2 1_555 1_555
C21 C11 1_555 1_555
H12 C21 1_555 1_555
C22 C19 1_555 1_555
H13 C22 1_555 1_555
C23 C13 1_555 1_555
H14 C23 1_555 1_555
C24 C7 1_555 1_555
H15 C24 1_555 1_555
C25 N1 1_555 1_555
C26 C9 1_555 1_555
C27 C19 1_555 1_555
H16 C27 1_555 1_555
C28 C4 1_555 1_555
H17 C28 1_555 1_555
C29 C20 1_555 1_555
H18 C29 1_555 1_555
H19 C29 1_555 1_555
H20 C29 1_555 1_555
C30 C12 1_555 1_555
H21 C30 1_555 1_555
C31 C36 1_555 1_555
C32 C28 1_555 1_555
H22 C32 1_555 1_555
C33 C8 1_555 1_555
C34 C14 1_555 1_555
H23 C34 1_555 1_555
C35 C7 1_555 1_555
C36 H24 1_555 1_555
B1 C35 1_555 1_555
B2 C16 1_555 1_555
B3 C35 1_555 1_555
B4 C16 1_555 1_555
B5 C16 1_555 1_555
B6 C16 1_555 1_555
C37 C33 1_555 1_555
C38 C26 1_555 1_555
C39 C36 1_555 1_555
B7 B2 1_555 1_555
B8 B1 1_555 1_555
B9 B2 1_555 1_555
B10 B1 1_555 1_555
H25 B6 1_555 1_555
H26 B2 1_555 1_555
H27 B4 1_555 1_555
H28 B10 1_555 1_555
H29 B8 1_555 1_555
H30 B7 1_555 1_555
H31 B9 1_555 1_555
H32 B5 1_555 1_555
H33 B1 1_555 1_555
H34 B3 1_555 1_555
C5 C11 1_555 1_555
C6 C20 1_555 1_555
C10 C33 1_555 1_555
C12 C25 1_555 1_555
C15 C23 1_555 1_555
C16 C35 1_555 1_555
C18 C20 1_555 1_555
C21 C24 1_555 1_555
C22 C30 1_555 1_555
C25 C27 1_555 1_555
C32 C34 1_555 1_555
C35 B5 1_555 1_555
C35 B6 1_555 1_555
B1 B3 1_555 1_555
B1 B5 1_555 1_555
B2 B4 1_555 1_555
B2 B6 1_555 1_555
B3 B6 1_555 1_555
B3 B7 1_555 1_555
B3 B8 1_555 1_555
B4 B5 1_555 1_555
B4 B9 1_555 1_555
B4 B10 1_555 1_555
B5 B10 1_555 1_555
B6 B7 1_555 1_555
C37 C38 1_555 1_555
C37 C39 1_555 1_555
B7 B8 1_555 1_555
B7 B9 1_555 1_555
B8 B9 1_555 1_555
B8 B10 1_555 1_555
B9 B10 1_555 1_555

#END
