
#######################################################################
#
#                 Cambridge Crystallographic Data Centre
#                                CCDC 
#
#######################################################################
#
# If this CIF has been generated from an entry in the Cambridge 
# Structural Database, then it will include bibliographic, chemical, 
# crystal, experimental, refinement or atomic coordinate data resulting 
# from the CCDC's data processing and validation procedures.
#
#######################################################################

data_QESPUC
_chemical_formula_moiety         'C16 H19 N5 O5,2(H2 O1)'
_chemical_name_systematic        
'methyl 4-{[(8-methyl-2,4,9-trioxooctahydro-2H-pyrazino[1,2-a][1,3,5]triazin-7-yl)methyl]amino}benzoate dihydrate'
_symmetry_cell_setting           orthorhombic
_symmetry_space_group_name_H-M   'P 21 21 21'
_symmetry_Int_Tables_number      19
_space_group_name_Hall           'P 2ac 2ab'
loop_
_symmetry_equiv_pos_site_id
_symmetry_equiv_pos_as_xyz
1 x,y,z
2 1/2-x,-y,1/2+z
3 1/2+x,1/2-y,-z
4 -x,1/2+y,1/2-z
_cell_length_a                   8.5858(7)
_cell_length_b                   14.3809(18)
_cell_length_c                   14.4673(13)
_cell_angle_alpha                90
_cell_angle_beta                 90
_cell_angle_gamma                90
_cell_volume                     1786.3
_exptl_crystal_colour            colorless
_exptl_crystal_description       needle
_cell_formula_units_Z            4
loop_
_atom_site_label
_atom_site_type_symbol
_atom_site_fract_x
_atom_site_fract_y
_atom_site_fract_z
O1 O 0.0096(2) -0.52207(15) -0.67281(13)
O2 O 0.3518(2) -0.41368(13) -0.42575(13)
O3 O 0.4943(2) -0.55403(14) -0.79430(13)
O4 O 1.4322(2) -0.67478(16) -0.34644(15)
O5 O 1.3197(2) -0.71682(15) -0.21364(13)
N1 N 0.2178(3) -0.47607(16) -0.58748(16)
H1 H 0.1665 -0.4779 -0.5364
N2 N 0.2510(3) -0.52657(16) -0.73765(15)
H2 H 0.2108 -0.5405 -0.7903
C1 C 0.6840(3) -0.51418(19) -0.54544(18)
H3 H 0.7911 -0.4943 -0.5328
N3 N 0.4698(3) -0.49152(16) -0.65160(15)
C2 C 0.9928(3) -0.63958(19) -0.46812(18)
H4 H 0.9834 -0.6150 -0.5273
C3 C 1.1554(3) -0.68239(18) -0.33905(19)
C4 C 1.0232(3) -0.71207(19) -0.29085(18)
H5 H 1.0339 -0.7362 -0.2315
N4 N 0.7134(3) -0.66382(16) -0.45741(16)
H6 H 0.6373 -0.6875 -0.4268
C5 C 0.4120(3) -0.52465(19) -0.73209(18)
C6 C 0.4384(3) -0.44403(18) -0.48766(18)
C7 C 0.3751(3) -0.43895(18) -0.58681(18)
H7 H 0.3721 -0.3738 -0.6064
C8 C 0.6794(3) -0.62070(19) -0.54512(19)
H8 H 0.5766 -0.6405 -0.5648
H9 H 0.7536 -0.6433 -0.5904
N5 N 0.5814(3) -0.47528(16) -0.47270(15)
C9 C 0.8776(3) -0.70599(19) -0.3301(2)
H10 H 0.7909 -0.7262 -0.2972
C10 C 0.1487(3) -0.50796(19) -0.66560(19)
C11 C 0.8588(3) -0.66922(18) -0.4202(2)
C12 C 1.4746(3) -0.7272(2) -0.1760(2)
H11 H 1.4678 -0.7476 -0.1129
H12 H 1.5279 -0.6686 -0.1785
H13 H 1.5311 -0.7724 -0.2115
C13 C 1.3151(3) -0.69033(19) -0.30272(19)
C14 C 0.6368(3) -0.4765(2) -0.63909(19)
H14 H 0.6602 -0.4106 -0.6426
H15 H 0.6943 -0.5082 -0.6875
C15 C 0.6405(3) -0.4728(2) -0.37763(19)
H16 H 0.7489 -0.4890 -0.3774
H17 H 0.5835 -0.5164 -0.3405
H18 H 0.6277 -0.4114 -0.3528
C16 C 1.1371(3) -0.64678(18) -0.4279(2)
H19 H 1.2245 -0.6275 -0.4607
O6 O 0.7172(2) -0.26340(14) -0.54420(16)
H20 H 0.761(4) -0.2129(17) -0.560(3)
H21 H 0.789(3) -0.296(2) -0.520(3)
O7 O 0.9707(3) -0.36374(16) -0.46555(14)
H22 H 0.972(5) -0.387(3) -0.4114(14)
H23 H 1.032(4) -0.317(2) -0.467(3)
loop_
_geom_bond_atom_site_label_1
_geom_bond_atom_site_label_2
_geom_bond_site_symmetry_1
_geom_bond_site_symmetry_2
O1 C10 1_555 1_555
O2 C6 1_555 1_555
O3 C5 1_555 1_555
O4 C13 1_555 1_555
O5 C12 1_555 1_555
N1 H1 1_555 1_555
N2 H2 1_555 1_555
C1 H3 1_555 1_555
N3 C5 1_555 1_555
C2 H4 1_555 1_555
C3 C4 1_555 1_555
C4 H5 1_555 1_555
N4 H6 1_555 1_555
C5 N2 1_555 1_555
C6 C7 1_555 1_555
C7 N1 1_555 1_555
H7 C7 1_555 1_555
C8 C1 1_555 1_555
H8 C8 1_555 1_555
H9 C8 1_555 1_555
N5 C1 1_555 1_555
C9 C4 1_555 1_555
H10 C9 1_555 1_555
C10 N1 1_555 1_555
C11 C2 1_555 1_555
C12 H11 1_555 1_555
H12 C12 1_555 1_555
H13 C12 1_555 1_555
C13 O5 1_555 1_555
C14 C1 1_555 1_555
H14 C14 1_555 1_555
H15 C14 1_555 1_555
C15 N5 1_555 1_555
H16 C15 1_555 1_555
H17 C15 1_555 1_555
H18 C15 1_555 1_555
C16 C2 1_555 1_555
H19 C16 1_555 1_555
O6 H20 1_555 1_555
H21 O6 1_555 1_555
O7 H22 1_555 1_555
H23 O7 1_555 1_555
N2 C10 1_555 1_555
N3 C7 1_555 1_555
N3 C14 1_555 1_555
C3 C13 1_555 1_555
C3 C16 1_555 1_555
N4 C8 1_555 1_555
N4 C11 1_555 1_555
C6 N5 1_555 1_555
C9 C11 1_555 1_555

#END
