
#######################################################################
#
#                 Cambridge Crystallographic Data Centre
#                                CCDC 
#
#######################################################################
#
# If this CIF has been generated from an entry in the Cambridge 
# Structural Database, then it will include bibliographic, chemical, 
# crystal, experimental, refinement or atomic coordinate data resulting 
# from the CCDC's data processing and validation procedures.
#
#######################################################################

data_QESPOU
_chemical_formula_moiety         'C22 H28 O3 S1'
_chemical_name_systematic        
'(+-)-(3S,4R,5R)-3-Butyl-3-ethyl-5-phenyl-2,3,4,5-tetrahydro-1-benzothiepin-4-ol 1,1-dioxide'
_symmetry_cell_setting           monoclinic
_symmetry_space_group_name_H-M   'P 21/c'
_symmetry_Int_Tables_number      14
_space_group_name_Hall           '-P 2ybc'
loop_
_symmetry_equiv_pos_site_id
_symmetry_equiv_pos_as_xyz
1 x,y,z
2 -x,1/2+y,1/2-z
3 -x,-y,-z
4 x,1/2-y,1/2+z
_cell_length_a                   16.7307(9)
_cell_length_b                   14.4865(1)
_cell_length_c                   18.4491(1)
_cell_angle_alpha                90
_cell_angle_beta                 116.950(5)
_cell_angle_gamma                90
_cell_volume                     3985.9
_chemical_melting_point          '160-161 deg.C'
_cell_formula_units_Z            8
loop_
_atom_site_label
_atom_site_type_symbol
_atom_site_fract_x
_atom_site_fract_y
_atom_site_fract_z
S1 S 0.9240(1) 0.4218(1) 0.2456(1)
O1 O 0.8887(2) 0.3634(2) 0.2871(1)
O2 O 0.9727(1) 0.3765(1) 0.2077(1)
O3 O 0.9433(1) 0.6939(1) 0.2426(1)
C1 C 0.9926(2) 0.5049(2) 0.3173(2)
C2 C 1.0552(2) 0.5697(2) 0.2996(2)
C3 C 1.0016(2) 0.6343(2) 0.2268(2)
C4 C 0.9444(2) 0.5853(2) 0.1441(1)
C5 C 0.8502(2) 0.5607(2) 0.1319(2)
C6 C 0.7752(2) 0.6091(2) 0.0781(2)
C7 C 0.6894(2) 0.5851(2) 0.0649(2)
C8 C 0.6762(2) 0.5116(2) 0.1047(2)
C9 C 0.7481(2) 0.4622(2) 0.1591(2)
C10 C 0.8342(2) 0.4868(2) 0.1724(2)
C11 C 1.1265(2) 0.5161(2) 0.2847(2)
C12 C 1.1899(2) 0.4547(2) 0.3537(2)
C13 C 1.2538(2) 0.4011(2) 0.3332(2)
C14 C 1.3212(2) 0.3459(3) 0.4042(2)
C15 C 1.1025(2) 0.6286(2) 0.3777(2)
C16 C 1.1748(2) 0.6944(2) 0.3816(2)
C17 C 0.9414(2) 0.6384(2) 0.0719(2)
C18 C 0.9479(2) 0.7330(2) 0.0695(2)
C19 C 0.9461(2) 0.7777(3) 0.0027(2)
C20 C 0.9361(2) 0.7284(3) -0.0637(2)
C21 C 0.9301(2) 0.6349(3) -0.0630(2)
C22 C 0.9318(2) 0.5900(2) 0.0040(2)
H1 H 0.9666 0.7449 0.2562
H2 H 0.9531 0.5440 0.3294
H3 H 1.0300 0.4717 0.3669
H4 H 1.0451 0.6735 0.2196
H5 H 0.9745 0.5267 0.1460
H6 H 0.7826 0.6591 0.0501
H7 H 0.6405 0.6193 0.0287
H8 H 0.6184 0.4952 0.0948
H9 H 0.7396 0.4127 0.1869
H10 H 1.0955 0.4779 0.2367
H11 H 1.1621 0.5605 0.2726
H12 H 1.2241 0.4928 0.4010
H13 H 1.1548 0.4117 0.3679
H14 H 1.2857 0.4437 0.3149
H15 H 1.2199 0.3594 0.2886
H16 H 1.3603 0.3133 0.3877
H17 H 1.2902 0.3025 0.4217
H18 H 1.3560 0.3869 0.4482
H19 H 1.0571 0.6643 0.3842
H20 H 1.1290 0.5870 0.4237
H21 H 1.1991 0.7270 0.4324
H22 H 1.1494 0.7378 0.3376
H23 H 1.2216 0.6602 0.3774
H24 H 0.9535 0.7677 0.1140
H25 H 0.9518 0.8416 0.0030
H26 H 0.9333 0.7585 -0.1093
H27 H 0.9249 0.6008 -0.1077
H28 H 0.9262 0.5261 0.0031
S2 S 1.5327(1) 0.0472(1) 0.3200(1)
O4 O 1.5488(1) 0.0144(2) 0.3993(1)
O5 O 1.5009(1) -0.0199(1) 0.2549(1)
O6 O 1.5408(1) 0.2918(1) 0.2464(1)
C23 C 1.4559(2) 0.1397(2) 0.2964(2)
C24 C 1.4131(2) 0.1864(2) 0.2120(2)
C25 C 1.4855(2) 0.2249(2) 0.1895(2)
C26 C 1.5491(2) 0.1525(2) 0.1812(2)
C27 C 1.6342(2) 0.1426(2) 0.2617(2)
C28 C 1.7153(2) 0.1818(2) 0.2739(2)
C29 C 1.7900(2) 0.1772(2) 0.3490(2)
C30 C 1.7867(2) 0.1329(2) 0.4129(3)
C31 C 1.7083(2) 0.0929(2) 0.4037(2)
C32 C 1.6325(2) 0.0979(2) 0.3279(2)
C33 C 1.3502(2) 0.1201(2) 0.1449(2)
C34 C 1.2691(2) 0.0849(3) 0.1532(2)
C35 C 1.2178(1) 0.0104(3) 0.0919(2)
C36 C 1.2591(3) -0.0794(3) 0.1137(3)
C37 C 1.3596(2) 0.2687(2) 0.2211(2)
C38 C 1.3087(2) 0.3277(2) 0.1457(2)
C39 C 1.5673(2) 0.1715(2) 0.1088(2)
C40 C 1.5728(2) 0.0982(2) 0.0633(2)
C41 C 1.5862(2) 0.1127(2) -0.0047(2)
C42 C 1.5945(2) 0.2001(2) -0.0283(2)
C43 C 1.5886(2) 0.2737(2) 0.0160(2)
C44 C 1.5751(2) 0.2604(2) 0.0839(2)
H29 H 1.5162 0.3424 0.2346
H30 H 1.4069 0.1179 0.3064
H31 H 1.4860 0.1879 0.3360
H32 H 1.4541 0.2560 0.1368
H33 H 1.5179 0.0930 0.1708
H34 H 1.7193 0.2114 0.2309
H35 H 1.8433 0.2048 0.3560
H36 H 1.8376 0.1298 0.4628
H37 H 1.7056 0.0629 0.4471
H38 H 1.3291 0.1514 0.0930
H39 H 1.3851 0.0672 0.1436
H40 H 1.2889 0.0605 0.2073
H41 H 1.2291 0.1362 0.1463
H42 H 1.2134 0.0276 0.0400
H43 H 1.1581 0.0072 0.0867
H44 H 1.2236 -0.1234 0.0728
H45 H 1.2628 -0.0977 0.1651
H46 H 1.3182 -0.0769 0.1176
H47 H 1.3169 0.2449 0.2385
H48 H 1.4010 0.3083 0.2641
H49 H 1.2781 0.3765 0.1581
H50 H 1.2659 0.2901 0.1028
H51 H 1.3502 0.3537 0.1285
H52 H 1.5673 0.0383 0.0786
H53 H 1.5896 0.0624 -0.0345
H54 H 1.6039 0.2096 -0.0737
H55 H 1.5939 0.3334 0.0001
H56 H 1.5712 0.3111 0.1131
C45? C 1.1566(13) -0.0486(15) 0.0878(10)
H57? H 1.1367 -0.0843 0.0388
H58? H 1.1066 -0.0158 0.0876
H59? H 1.1816 -0.0891 0.1340
loop_
_geom_bond_atom_site_label_1
_geom_bond_atom_site_label_2
_geom_bond_site_symmetry_1
_geom_bond_site_symmetry_2
S1 O1 1_555 1_555
O2 S1 1_555 1_555
O3 C3 1_555 1_555
C1 S1 1_555 1_555
C2 C1 1_555 1_555
C3 C2 1_555 1_555
C4 C3 1_555 1_555
C5 C4 1_555 1_555
C6 C5 1_555 1_555
C7 C6 1_555 1_555
C8 C7 1_555 1_555
C9 C8 1_555 1_555
C10 S1 1_555 1_555
C11 C2 1_555 1_555
C12 C11 1_555 1_555
C13 C12 1_555 1_555
C14 C13 1_555 1_555
C15 C2 1_555 1_555
C16 C15 1_555 1_555
C17 C4 1_555 1_555
C18 C17 1_555 1_555
C19 C18 1_555 1_555
C20 C19 1_555 1_555
C21 C20 1_555 1_555
C22 C17 1_555 1_555
H1 O3 1_555 1_555
H2 C1 1_555 1_555
H3 C1 1_555 1_555
H4 C3 1_555 1_555
H5 C4 1_555 1_555
H6 C6 1_555 1_555
H7 C7 1_555 1_555
H8 C8 1_555 1_555
H9 C9 1_555 1_555
H10 C11 1_555 1_555
H11 C11 1_555 1_555
H12 C12 1_555 1_555
H13 C12 1_555 1_555
H14 C13 1_555 1_555
H15 C13 1_555 1_555
H16 C14 1_555 1_555
H17 C14 1_555 1_555
H18 C14 1_555 1_555
H19 C15 1_555 1_555
H20 C15 1_555 1_555
H21 C16 1_555 1_555
H22 C16 1_555 1_555
H23 C16 1_555 1_555
H24 C18 1_555 1_555
H25 C19 1_555 1_555
H26 C20 1_555 1_555
H27 C21 1_555 1_555
H28 C22 1_555 1_555
S2 O4 1_555 1_555
O5 S2 1_555 1_555
O6 C25 1_555 1_555
C23 S2 1_555 1_555
C24 C23 1_555 1_555
C25 C24 1_555 1_555
C26 C25 1_555 1_555
C27 C26 1_555 1_555
C28 C27 1_555 1_555
C29 C28 1_555 1_555
C30 C29 1_555 1_555
C31 C30 1_555 1_555
C32 S2 1_555 1_555
C33 C24 1_555 1_555
C34 C33 1_555 1_555
C35 C34 1_555 1_555
C36 C35 1_555 1_555
C37 C24 1_555 1_555
C38 C37 1_555 1_555
C39 C26 1_555 1_555
C40 C39 1_555 1_555
C41 C40 1_555 1_555
C42 C41 1_555 1_555
C43 C42 1_555 1_555
C44 C39 1_555 1_555
H29 O6 1_555 1_555
H30 C23 1_555 1_555
H31 C23 1_555 1_555
H32 C25 1_555 1_555
H33 C26 1_555 1_555
H34 C28 1_555 1_555
H35 C29 1_555 1_555
H36 C30 1_555 1_555
H37 C31 1_555 1_555
H38 C33 1_555 1_555
H39 C33 1_555 1_555
H40 C34 1_555 1_555
H41 C34 1_555 1_555
H42 C35 1_555 1_555
H43 C35 1_555 1_555
H44 C36 1_555 1_555
H45 C36 1_555 1_555
H46 C36 1_555 1_555
H47 C37 1_555 1_555
H48 C37 1_555 1_555
H49 C38 1_555 1_555
H50 C38 1_555 1_555
H51 C38 1_555 1_555
H52 C40 1_555 1_555
H53 C41 1_555 1_555
H54 C42 1_555 1_555
H55 C43 1_555 1_555
H56 C44 1_555 1_555
C5 C10 1_555 1_555
C9 C10 1_555 1_555
C21 C22 1_555 1_555
C27 C32 1_555 1_555
C31 C32 1_555 1_555
C43 C44 1_555 1_555

#END
