
#######################################################################
#
#                 Cambridge Crystallographic Data Centre
#                                CCDC 
#
#######################################################################
#
# If this CIF has been generated from an entry in the Cambridge 
# Structural Database, then it will include bibliographic, chemical, 
# crystal, experimental, refinement or atomic coordinate data resulting 
# from the CCDC's data processing and validation procedures.
#
#######################################################################

data_QESRIP
_chemical_formula_moiety         'C19 H20 N2 O1'
_chemical_name_systematic        
4^2^,4^5^-Dimethyl-1^2^-oxo-1(1,3)-benzimidazola-4(1,4)-benzenacyclohexaphane
_symmetry_cell_setting           orthorhombic
_symmetry_space_group_name_H-M   'P 21 21 21'
_symmetry_Int_Tables_number      19
_space_group_name_Hall           'P 2ac 2ab'
loop_
_symmetry_equiv_pos_site_id
_symmetry_equiv_pos_as_xyz
1 x,y,z
2 1/2-x,-y,1/2+z
3 -x,1/2+y,1/2-z
4 1/2+x,1/2-y,-z
_cell_length_a                   7.5911(7)
_cell_length_b                   13.9115(11)
_cell_length_c                   14.3428(10)
_cell_angle_alpha                90
_cell_angle_beta                 90
_cell_angle_gamma                90
_cell_volume                     1514.65
_exptl_crystal_colour            colorless
_exptl_crystal_description       cubic
_chemical_melting_point          '183-187 deg.C'
_cell_formula_units_Z            4
_exptl_crystal_recrystallization_method dichloromethane
loop_
_atom_site_label
_atom_site_type_symbol
_atom_site_fract_x
_atom_site_fract_y
_atom_site_fract_z
N1 N 0.2669(2) 0.75948(11) 0.67221(10)
O1 O 0.1871(2) 0.66086(10) 0.54789(9)
C1 C 0.5145(2) 0.62375(13) 0.78565(13)
N2 N 0.0674(2) 0.64370(10) 0.69661(10)
C2 C 0.0818(2) 0.69681(12) 0.77880(12)
C3 C 0.5613(2) 0.64635(13) 0.69463(12)
C4 C 0.3952(2) 0.55162(12) 0.80711(12)
C5 C 0.5235(3) 0.57904(13) 0.62472(13)
C6 C 0.2079(2) 0.76842(12) 0.76365(12)
C7 C 0.3991(2) 0.50917(13) 0.64566(13)
C8 C 0.1651(3) 0.82427(15) 0.91767(16)
C9 C 0.3181(2) 0.50284(12) 0.73211(12)
C10 C 0.2529(3) 0.83225(14) 0.83293(14)
C11 C 0.1761(2) 0.68417(13) 0.62966(14)
C12 C 0.3408(4) 0.53657(19) 0.90716(16)
C13 C -0.0053(3) 0.68989(15) 0.86243(16)
C14 C 0.0072(3) 0.54379(14) 0.68854(17)
C15 C 0.4315(3) 0.79815(15) 0.63407(16)
C16 C 0.0381(3) 0.75489(16) 0.93196(15)
C17 C 0.1300(3) 0.46835(14) 0.73729(17)
C18 C 0.6011(3) 0.75011(15) 0.67235(16)
C19 C 0.5926(4) 0.5903(2) 0.52689(18)
H1 H 0.428(3) 0.8654(15) 0.6484(12)
H2 H 0.115(3) 0.4055(17) 0.7040(13)
H3 H 0.548(2) 0.6675(13) 0.8333(12)
H4 H -0.115(3) 0.5378(14) 0.7155(13)
H5 H 0.426(3) 0.7850(13) 0.5605(14)
H6 H -0.088(3) 0.6431(16) 0.8733(14)
H7 H 0.360(3) 0.4722(14) 0.5935(13)
H8 H -0.020(3) 0.7463(18) 0.9941(16)
H9 H 0.193(3) 0.8666(14) 0.9696(14)
H10 H 0.437(5) 0.543(2) 0.945(2)
H11 H 0.639(2) 0.7804(14) 0.7315(13)
H12 H 0.340(3) 0.8785(14) 0.8224(12)
H13 H 0.005(3) 0.5327(15) 0.6190(15)
H14 H 0.302(4) 0.477(2) 0.9234(18)
H15 H 0.698(3) 0.7604(16) 0.6223(15)
H16 H 0.531(4) 0.644(2) 0.489(2)
H17 H 0.711(5) 0.599(2) 0.524(2)
H18 H 0.580(4) 0.533(2) 0.4927(18)
H19 H 0.247(5) 0.585(3) 0.933(2)
H20 H 0.087(3) 0.4588(15) 0.8031(15)
loop_
_geom_bond_atom_site_label_1
_geom_bond_atom_site_label_2
_geom_bond_site_symmetry_1
_geom_bond_site_symmetry_2
N1 C6 1_555 1_555
O1 C11 1_555 1_555
C1 C3 1_555 1_555
N2 C2 1_555 1_555
C2 C6 1_555 1_555
C3 C5 1_555 1_555
C4 C1 1_555 1_555
C5 C7 1_555 1_555
C6 C10 1_555 1_555
C7 C9 1_555 1_555
C8 C10 1_555 1_555
C9 C4 1_555 1_555
C10 H12 1_555 1_555
C11 N1 1_555 1_555
C12 C4 1_555 1_555
C13 C2 1_555 1_555
C14 N2 1_555 1_555
C15 N1 1_555 1_555
C16 C8 1_555 1_555
C17 C9 1_555 1_555
C18 C3 1_555 1_555
C19 C5 1_555 1_555
H1 C15 1_555 1_555
H2 C17 1_555 1_555
H3 C1 1_555 1_555
H4 C14 1_555 1_555
H5 C15 1_555 1_555
H6 C13 1_555 1_555
H7 C7 1_555 1_555
H8 C16 1_555 1_555
H9 C8 1_555 1_555
H10 C12 1_555 1_555
H11 C18 1_555 1_555
H13 C14 1_555 1_555
H14 C12 1_555 1_555
H15 C18 1_555 1_555
H16 C19 1_555 1_555
H17 C19 1_555 1_555
H18 C19 1_555 1_555
H19 C12 1_555 1_555
H20 C17 1_555 1_555
N2 C11 1_555 1_555
C13 C16 1_555 1_555
C14 C17 1_555 1_555
C15 C18 1_555 1_555

#END
