
#######################################################################
#
#                 Cambridge Crystallographic Data Centre
#                                CCDC 
#
#######################################################################
#
# If this CIF has been generated from an entry in the Cambridge 
# Structural Database, then it will include bibliographic, chemical, 
# crystal, experimental, refinement or atomic coordinate data resulting 
# from the CCDC's data processing and validation procedures.
#
#######################################################################

data_QESVAL
_chemical_formula_moiety         'C16 H10 N4 S2'
_chemical_name_systematic        2,2'-bis(2-Pyridyl)-4,4'-bi(1,3)thiazole
_symmetry_cell_setting           orthorhombic
_symmetry_space_group_name_H-M   'P b c n'
_symmetry_Int_Tables_number      60
_space_group_name_Hall           '-P 2n 2ab'
loop_
_symmetry_equiv_pos_site_id
_symmetry_equiv_pos_as_xyz
1 x,y,z
2 1/2+x,1/2+y,1/2-z
3 x,-y,1/2+z
4 1/2-x,1/2+y,z
5 -x,-y,-z
6 1/2-x,1/2-y,1/2+z
7 -x,y,1/2-z
8 1/2+x,1/2-y,-z
_cell_length_a                   11.882(5)
_cell_length_b                   9.871(4)
_cell_length_c                   24.086(10)
_cell_angle_alpha                90
_cell_angle_beta                 90
_cell_angle_gamma                90
_cell_volume                     2824.98
_exptl_crystal_colour            colorless
_exptl_crystal_description       plate
_cell_formula_units_Z            8
_exptl_crystal_recrystallization_method acetonitrile
loop_
_atom_site_label
_atom_site_type_symbol
_atom_site_fract_x
_atom_site_fract_y
_atom_site_fract_z
S1 S 0.48445(17) 1.0493(2) 0.61842(8)
S2 S 0.14214(17) 0.6875(2) 0.76695(8)
N1 N 0.2447(5) 0.4922(6) 0.8433(2)
N2 N 0.3490(6) 0.7420(6) 0.7463(2)
N3 N 0.2761(5) 0.9999(6) 0.6413(2)
N4 N 0.3795(6) 1.2360(7) 0.5389(3)
C1 C 0.3248(6) 0.5668(7) 0.8187(3)
C2 C 0.2777(7) 0.4028(8) 0.8819(3)
H1 H 0.2222 0.3484 0.8995
C3 C 0.3900(7) 0.3866(8) 0.8973(3)
H2 H 0.4104 0.3218 0.9247
C4 C 0.4705(7) 0.4653(8) 0.8725(3)
H3 H 0.5472 0.4574 0.8832
C5 C 0.4392(7) 0.5559(8) 0.8320(3)
H4 H 0.4938 0.6098 0.8134
C6 C 0.2850(6) 0.6637(7) 0.7770(3)
C7 C 0.2858(6) 0.8221(8) 0.7121(3)
C8 C 0.1707(6) 0.8065(8) 0.7190(3)
H5 H 0.1153 0.8565 0.6993
C9 C 0.3411(6) 0.9148(7) 0.6742(3)
C10 C 0.4568(6) 0.9285(8) 0.6670(3)
H6 H 0.5122 0.8778 0.6864
C11 C 0.3409(6) 1.0763(8) 0.6094(3)
C12 C 0.2998(7) 1.1758(8) 0.5699(3)
C13 C 0.3446(7) 1.3302(8) 0.5025(3)
H7 H 0.3994 1.3754 0.4806
C14 C 0.2316(7) 1.3647(8) 0.4953(3)
H8 H 0.2106 1.4321 0.4691
C15 C 0.1507(7) 1.2999(7) 0.5267(3)
H9 H 0.0732 1.3204 0.5221
C16 C 0.1850(7) 1.2049(7) 0.5650(3)
H10 H 0.1315 1.1598 0.5877
loop_
_geom_bond_atom_site_label_1
_geom_bond_atom_site_label_2
_geom_bond_site_symmetry_1
_geom_bond_site_symmetry_2
S1 C10 1_555 1_555
S2 C6 1_555 1_555
N1 C1 1_555 1_555
N2 C6 1_555 1_555
N3 C9 1_555 1_555
N4 C12 1_555 1_555
C1 C5 1_555 1_555
C2 N1 1_555 1_555
H1 C2 1_555 1_555
C3 C2 1_555 1_555
H2 C3 1_555 1_555
C4 C3 1_555 1_555
H3 C4 1_555 1_555
C5 C4 1_555 1_555
H4 C5 1_555 1_555
C6 C1 1_555 1_555
C7 N2 1_555 1_555
C8 S2 1_555 1_555
H5 C8 1_555 1_555
C9 C7 1_555 1_555
C10 C9 1_555 1_555
H6 C10 1_555 1_555
C11 S1 1_555 1_555
C12 C11 1_555 1_555
C13 N4 1_555 1_555
H7 C13 1_555 1_555
C14 C13 1_555 1_555
H8 C14 1_555 1_555
C15 C14 1_555 1_555
H9 C15 1_555 1_555
C16 C12 1_555 1_555
H10 C16 1_555 1_555
N3 C11 1_555 1_555
C7 C8 1_555 1_555
C15 C16 1_555 1_555

#END
