
#######################################################################
#
#                 Cambridge Crystallographic Data Centre
#                                CCDC 
#
#######################################################################
#
# If this CIF has been generated from an entry in the Cambridge 
# Structural Database, then it will include bibliographic, chemical, 
# crystal, experimental, refinement or atomic coordinate data resulting 
# from the CCDC's data processing and validation procedures.
#
#######################################################################

data_QESWIX
_chemical_formula_moiety         'C11 H14 Br1 N1 O2'
_chemical_name_systematic        't-butyl (4-bromophenyl)carbamate'
_symmetry_cell_setting           triclinic
_symmetry_space_group_name_H-M   'P -1'
_symmetry_Int_Tables_number      2
_space_group_name_Hall           '-P 1'
loop_
_symmetry_equiv_pos_site_id
_symmetry_equiv_pos_as_xyz
1 x,y,z
2 -x,-y,-z
_cell_length_a                   5.255(15)
_cell_length_b                   8.57(2)
_cell_length_c                   13.51(4)
_cell_angle_alpha                81.74(3)
_cell_angle_beta                 83.98(4)
_cell_angle_gamma                86.74(4)
_cell_volume                     598.255
_exptl_crystal_colour            colorless
_exptl_crystal_description       block
_cell_formula_units_Z            2
loop_
_atom_site_label
_atom_site_type_symbol
_atom_site_fract_x
_atom_site_fract_y
_atom_site_fract_z
Br1 Br 0.43931(13) 0.80446(7) 1.32013(4)
C1 C 0.4946(10) 0.7847(6) 1.1819(3)
C2 C 0.6947(11) 0.8573(7) 1.1240(4)
H1 H 0.8031 0.9170 1.1521
C3 C 0.7345(11) 0.8413(6) 1.0228(4)
H2 H 0.8717 0.8896 0.9834
C4 C 0.5752(10) 0.7554(5) 0.9800(3)
C5 C 0.3772(11) 0.6857(6) 1.0391(4)
H3 H 0.2667 0.6273 1.0111
C6 C 0.3360(11) 0.6994(6) 1.1394(4)
H4 H 0.1992 0.6502 1.1786
C7 C 0.8240(10) 0.7389(6) 0.8163(3)
C8 C 0.9812(10) 0.7169(6) 0.6417(3)
C9 C 1.1278(11) 0.8642(6) 0.6277(4)
H5 H 1.0104 0.9540 0.6302
H6 H 1.2280 0.8741 0.5636
H7 H 1.2391 0.8593 0.6801
C10 C 1.1489(11) 0.5686(7) 0.6618(4)
H8 H 1.2331 0.5718 0.7211
H9 H 1.2749 0.5620 0.6055
H10 H 1.0451 0.4780 0.6714
C11 C 0.8378(11) 0.7107(8) 0.5520(4)
H11 H 0.7386 0.6180 0.5631
H12 H 0.9573 0.7073 0.4935
H13 H 0.7258 0.8029 0.5422
N1 N 0.6019(8) 0.7436(5) 0.8760(3)
H14 H 0.4632 0.7391 0.8481
O1 O 1.0339(7) 0.7459(5) 0.8437(3)
O2 O 0.7753(6) 0.7212(4) 0.7237(2)
loop_
_geom_bond_atom_site_label_1
_geom_bond_atom_site_label_2
_geom_bond_site_symmetry_1
_geom_bond_site_symmetry_2
Br1 C1 1_555 1_555
C1 C2 1_555 1_555
C2 H1 1_555 1_555
C3 C2 1_555 1_555
H2 C3 1_555 1_555
C4 C3 1_555 1_555
C5 C4 1_555 1_555
H3 C5 1_555 1_555
C6 C1 1_555 1_555
H4 C6 1_555 1_555
C7 N1 1_555 1_555
C8 C9 1_555 1_555
C9 H5 1_555 1_555
H6 C9 1_555 1_555
H7 C9 1_555 1_555
C10 C8 1_555 1_555
H8 C10 1_555 1_555
H9 C10 1_555 1_555
H10 C10 1_555 1_555
C11 C8 1_555 1_555
H11 C11 1_555 1_555
H12 C11 1_555 1_555
H13 C11 1_555 1_555
N1 C4 1_555 1_555
H14 N1 1_555 1_555
O1 C7 1_555 1_555
O2 C7 1_555 1_555
C5 C6 1_555 1_555
C8 O2 1_555 1_555

#END
