
#######################################################################
#
#                 Cambridge Crystallographic Data Centre
#                                CCDC 
#
#######################################################################
#
# If this CIF has been generated from an entry in the Cambridge 
# Structural Database, then it will include bibliographic, chemical, 
# crystal, experimental, refinement or atomic coordinate data resulting 
# from the CCDC's data processing and validation procedures.
#
#######################################################################

data_QETLUX
_chemical_name_common            5
_chemical_formula_moiety         'C42 H42 N6'
_chemical_name_systematic        
1,3,5-tris(2'-((3,5-dimethylpyrazol-1-yl)methyl)phenyl)benzene
_symmetry_cell_setting           rhombohedral
_symmetry_space_group_name_H-M   'R -3'
_symmetry_Int_Tables_number      148
_space_group_name_Hall           '-R 3'
loop_
_symmetry_equiv_pos_site_id
_symmetry_equiv_pos_as_xyz
1 x,y,z
2 -y,x-y,z
3 -x+y,-x,z
4 2/3+x,1/3+y,1/3+z
5 2/3-y,1/3+x-y,1/3+z
6 2/3-x+y,1/3-x,1/3+z
7 1/3+x,2/3+y,2/3+z
8 1/3-y,2/3+x-y,2/3+z
9 1/3-x+y,2/3-x,2/3+z
10 -x,-y,-z
11 y,-x+y,-z
12 x-y,x,-z
13 1/3-x,2/3-y,2/3-z
14 1/3+y,2/3-x+y,2/3-z
15 1/3+x-y,2/3+x,2/3-z
16 2/3-x,1/3-y,1/3-z
17 2/3+y,1/3-x+y,1/3-z
18 2/3+x-y,1/3+x,1/3-z
_cell_length_a                   24.5701(11)
_cell_length_b                   24.5701(11)
_cell_length_c                   10.1453(8)
_cell_angle_alpha                90
_cell_angle_beta                 90
_cell_angle_gamma                120.00
_cell_volume                     5304.07
_exptl_crystal_colour            colorless
_exptl_crystal_description       rectangular
_chemical_melting_point          139-140deg.C
_cell_formula_units_Z            6
loop_
_atom_site_label
_atom_site_type_symbol
_atom_site_fract_x
_atom_site_fract_y
_atom_site_fract_z
N1 N 0.14056(13) 0.64724(13) 0.1627(3)
N2 N 0.12785(13) 0.61230(13) 0.2740(3)
C1 C 0.19710(14) 0.59663(14) -0.1344(3)
C2 C 0.15796(15) 0.60302(14) -0.0445(3)
C3 C 0.09353(16) 0.56529(17) -0.0588(4)
H1 H 0.0671 0.5691 0.0014
C4 C 0.06763(17) 0.52233(18) -0.1593(4)
H2 H 0.0242 0.4978 -0.1671
C5 C 0.10582(17) 0.51585(17) -0.2478(4)
H3 H 0.0887 0.4868 -0.3161
C6 C 0.16999(15) 0.55262(15) -0.2351(3)
H4 H 0.1959 0.5479 -0.2953
C7 C 0.18590(15) 0.64922(16) 0.0698(3)
H5 H 0.2153 0.6407 0.1166
H6 H 0.2095 0.6914 0.0342
C8 C 0.08508(17) 0.62016(18) 0.3363(4)
C9 C 0.0600(2) 0.5898(2) 0.4663(4)
H7 H 0.0176 0.5559 0.4557
H8 H 0.0605 0.6202 0.5266
H9 H 0.0856 0.5737 0.5004
C10 C 0.07025(17) 0.65919(19) 0.2652(4)
H10 H 0.0413 0.6713 0.2886
C11 C 0.26723(14) 0.63337(14) -0.1263(3)
C12 C 0.30058(14) 0.69865(15) -0.1264(3)
H11 H 0.2785 0.7203 -0.1266
C13 C 0.10637(17) 0.67625(17) 0.1544(4)
C14 C 0.1117(2) 0.7170(2) 0.0408(5)
H12 H 0.1536 0.7523 0.0368
H13 H 0.0824 0.7317 0.0518
H14 H 0.1024 0.6933 -0.0394
N1B N 0.50668(18) 0.85944(13) 0.1627(3)
N1A N 0.35276(13) 0.49332(18) 0.1627(3)
N2B N 0.48445(18) 0.87215(13) 0.2740(3)
N2A N 0.38770(13) 0.51555(18) 0.2740(3)
C1B C 0.39953(20) 0.80290(14) -0.1344(3)
C1A C 0.40337(14) 0.60047(20) -0.1344(3)
C2B C 0.44506(21) 0.84204(15) -0.0445(3)
C2A C 0.39698(14) 0.55494(21) -0.0445(3)
C3B C 0.47176(23) 0.90647(16) -0.0588(4)
C3A C 0.43471(17) 0.52824(23) -0.0588(4)
H1B H 0.5020 0.9329 0.0014
H1A H 0.4309 0.4980 0.0014
C4B C 0.45470(25) 0.93237(17) -0.1593(4)
C4A C 0.47767(18) 0.54530(25) -0.1593(4)
H2B H 0.4736 0.9758 -0.1671
H2A H 0.5022 0.5264 -0.1671
C5B C 0.41003(24) 0.89418(17) -0.2478(4)
C5A C 0.48415(17) 0.58997(24) -0.2478(4)
H3B H 0.3981 0.9113 -0.3161
H3A H 0.5132 0.6019 -0.3161
C6B C 0.38263(21) 0.83001(15) -0.2351(3)
C6A C 0.44738(15) 0.61737(21) -0.2351(3)
H4B H 0.3520 0.8041 -0.2953
H4A H 0.4521 0.6480 -0.2953
C7B C 0.46332(22) 0.81410(15) 0.0698(3)
C7A C 0.35078(16) 0.53668(22) 0.0698(3)
H5B H 0.4254 0.7847 0.1166
H5A H 0.3593 0.5746 0.1166
H6B H 0.4819 0.7905 0.0342
H6A H 0.3086 0.5181 0.0342
C8B C 0.53508(25) 0.91492(17) 0.3363(4)
C8A C 0.37984(18) 0.46492(25) 0.3363(4)
C9B C 0.5298(3) 0.9400(2) 0.4663(4)
C9A C 0.4102(2) 0.4702(3) 0.4663(4)
H7B H 0.5383 0.9824 0.4557
H7A H 0.4441 0.4617 0.4557
H8B H 0.5597 0.9395 0.5266
H8A H 0.3798 0.4403 0.5266
H9B H 0.4881 0.9144 0.5004
H9A H 0.4263 0.5119 0.5004
C10B C 0.58894(25) 0.92975(17) 0.2652(4)
C10A C 0.34081(19) 0.41106(25) 0.2652(4)
H10B H 0.6300 0.9587 0.2886
H10A H 0.3287 0.3700 0.2886
C11B C 0.36614(20) 0.73277(14) -0.1263(3)
C11A C 0.36663(14) 0.63386(20) -0.1263(3)
C12B C 0.39807(21) 0.69942(14) -0.1264(3)
C12A C 0.30135(15) 0.60193(21) -0.1264(3)
H11A H 0.2797 0.5582 -0.1266
H11B H 0.4418 0.7215 -0.1266
C13B C 0.56988(24) 0.89363(17) 0.1544(4)
C13A C 0.32375(17) 0.43012(24) 0.1544(4)
C14B C 0.6053(3) 0.8883(2) 0.0408(5)
C14A C 0.2830(2) 0.3947(3) 0.0408(5)
H12B H 0.5987 0.8464 0.0368
H12A H 0.2477 0.4013 0.0368
H13B H 0.6493 0.9176 0.0518
H13A H 0.2683 0.3507 0.0518
H14B H 0.5909 0.8976 -0.0394
H14A H 0.3067 0.4091 -0.0394
loop_
_geom_bond_atom_site_label_1
_geom_bond_atom_site_label_2
_geom_bond_site_symmetry_1
_geom_bond_site_symmetry_2
N1 N2 1_555 1_555
N2 C8 1_555 1_555
C1 C2 1_555 1_555
C2 C3 1_555 1_555
C3 H1 1_555 1_555
C4 C3 1_555 1_555
H2 C4 1_555 1_555
C5 C4 1_555 1_555
H3 C5 1_555 1_555
C6 C1 1_555 1_555
H4 C6 1_555 1_555
C7 N1 1_555 1_555
H5 C7 1_555 1_555
H6 C7 1_555 1_555
C8 C9 1_555 1_555
C9 H7 1_555 1_555
H8 C9 1_555 1_555
H9 C9 1_555 1_555
C10 C8 1_555 1_555
H10 C10 1_555 1_555
C11 C1 1_555 1_555
C12 C11 1_555 1_555
H11 C12 1_555 1_555
C13 N1 1_555 1_555
C14 C13 1_555 1_555
H12 C14 1_555 1_555
H13 C14 1_555 1_555
H14 C14 1_555 1_555
N1B N2B 1_555 1_555
N1A N2A 1_555 1_555
N2B C8B 1_555 1_555
N2A C8A 1_555 1_555
C1B C2B 1_555 1_555
C1A C2A 1_555 1_555
C2B C3B 1_555 1_555
C2A C3A 1_555 1_555
C3B H1B 1_555 1_555
C3A H1A 1_555 1_555
C4B C3B 1_555 1_555
C4A C3A 1_555 1_555
H2B C4B 1_555 1_555
H2A C4A 1_555 1_555
C5B C4B 1_555 1_555
C5A C4A 1_555 1_555
H3B C5B 1_555 1_555
H3A C5A 1_555 1_555
C6B C1B 1_555 1_555
C6A C1A 1_555 1_555
H4B C6B 1_555 1_555
H4A C6A 1_555 1_555
C7B N1B 1_555 1_555
C7A N1A 1_555 1_555
H5B C7B 1_555 1_555
H5A C7A 1_555 1_555
H6B C7B 1_555 1_555
H6A C7A 1_555 1_555
C8B C9B 1_555 1_555
C8A C9A 1_555 1_555
C9B H7B 1_555 1_555
C9A H7A 1_555 1_555
H8B C9B 1_555 1_555
H8A C9A 1_555 1_555
H9B C9B 1_555 1_555
H9A C9A 1_555 1_555
C10B C8B 1_555 1_555
C10A C8A 1_555 1_555
H10B C10B 1_555 1_555
H10A C10A 1_555 1_555
C11B C12 1_555 1_555
C11A C1A 1_555 1_555
C12B C11B 1_555 1_555
C12A C11 1_555 1_555
H11A C12A 1_555 1_555
H11B C12B 1_555 1_555
C13B N1B 1_555 1_555
C13A N1A 1_555 1_555
C14B C13B 1_555 1_555
C14A C13A 1_555 1_555
H12B C14B 1_555 1_555
H12A C14A 1_555 1_555
H13B C14B 1_555 1_555
H13A C14A 1_555 1_555
H14B C14B 1_555 1_555
H14A C14A 1_555 1_555
C2 C7 1_555 1_555
C5 C6 1_555 1_555
C10 C13 1_555 1_555
C1B C11B 1_555 1_555
C2B C7B 1_555 1_555
C2A C7A 1_555 1_555
C5B C6B 1_555 1_555
C5A C6A 1_555 1_555
C10B C13B 1_555 1_555
C10A C13A 1_555 1_555
C11A C12B 1_555 1_555
C11A C12A 1_555 1_555

#END
