
#######################################################################
#
#                 Cambridge Crystallographic Data Centre
#                                CCDC 
#
#######################################################################
#
# If this CIF has been generated from an entry in the Cambridge 
# Structural Database, then it will include bibliographic, chemical, 
# crystal, experimental, refinement or atomic coordinate data resulting 
# from the CCDC's data processing and validation procedures.
#
#######################################################################

data_QETMOU
_chemical_formula_moiety         'C23 H21 F1 N4 O4,0.5(C2 H6 O1)'
_chemical_name_systematic        
'3-{[4-(benzenecarbonyl)piperazin-1-yl](oxo)acetyl}-4-fluoro-N-methyl-1H-indole-7-carboxamide ethanol solvate'
_chemical_properties_biological  'antiviral activity'
_symmetry_cell_setting           monoclinic
_symmetry_space_group_name_H-M   'C 2/c'
_symmetry_Int_Tables_number      15
_space_group_name_Hall           '-C 2yn'
loop_
_symmetry_equiv_pos_site_id
_symmetry_equiv_pos_as_xyz
1 x,y,z
2 -x,y,1/2-z
3 1/2+x,1/2+y,z
4 1/2-x,1/2+y,1/2-z
5 -x,-y,-z
6 x,-y,1/2+z
7 1/2-x,1/2-y,-z
8 1/2+x,1/2-y,1/2+z
_cell_length_a                   44.150(3)
_cell_length_b                   7.0401(3)
_cell_length_c                   14.2072(8)
_cell_angle_alpha                90
_cell_angle_beta                 93.946(8)
_cell_angle_gamma                90
_cell_volume                     4405.42
_exptl_crystal_colour            colorless
_exptl_crystal_description       Plate
_cell_formula_units_Z            8
_exptl_crystal_recrystallization_method ethanol
loop_
_atom_site_label
_atom_site_type_symbol
_atom_site_fract_x
_atom_site_fract_y
_atom_site_fract_z
F1 F 0.21176(14) 0.6127(8) 0.0461(3)
O1 O 0.28451(13) 0.6755(10) 0.4456(3)
O2 O 0.15410(18) 0.5841(11) 0.1190(4)
O3 O 0.13215(16) 0.8687(10) 0.2681(7)
O4 O 0.0850(2) 0.029(2) 0.4681(7)
N1 N 0.32295(16) 0.5835(10) 0.3606(5)
H1 H 0.3289 0.5485 0.3069
N2 N 0.22563(15) 0.6386(9) 0.3695(4)
H2 H 0.2338 0.6436 0.4262
N3 N 0.11731(18) 0.5678(11) 0.2971(6)
N4 N 0.09648(17) 0.3297(15) 0.4335(5)
C1 C 0.3444(2) 0.5919(17) 0.4418(7)
H3 H 0.3641 0.5539 0.4240
H4 H 0.3379 0.5080 0.4898
H5 H 0.3454 0.7195 0.4657
C2 C 0.29385(19) 0.6300(12) 0.3683(5)
C3 C 0.27291(18) 0.6243(11) 0.2822(4)
C4 C 0.2820(2) 0.6141(10) 0.1920(5)
H6 H 0.3027 0.6100 0.1838
C5 C 0.2623(3) 0.6095(12) 0.1131(5)
H7 H 0.2696 0.6051 0.0534
C6 C 0.2315(2) 0.6113(12) 0.1233(4)
C7 C 0.22043(19) 0.6185(11) 0.2116(5)
C8 C 0.24169(19) 0.6273(11) 0.2903(4)
C9 C 0.19550(19) 0.6408(12) 0.3470(5)
H8 H 0.1804 0.6501 0.3894
C10 C 0.19074(18) 0.6264(10) 0.2478(5)
C11 C 0.1610(2) 0.6247(13) 0.2002(6)
C12 C 0.1354(2) 0.6938(13) 0.2616(7)
C13 C 0.1218(2) 0.3596(12) 0.2907(6)
H9 H 0.1053 0.3053 0.2507
H10 H 0.1406 0.3345 0.2615
C14 C 0.1228(2) 0.2667(16) 0.3842(6)
H11 H 0.1224 0.1298 0.3766
H12 H 0.1415 0.3008 0.4205
C15 C 0.0915(3) 0.6197(19) 0.3470(12)
H13 H 0.0732 0.5822 0.3102
H14 H 0.0911 0.7567 0.3541
C16 C 0.0918(3) 0.531(2) 0.4403(12)
H15 H 0.1080 0.5863 0.4814
H16 H 0.0727 0.5555 0.4678
C17 C 0.0789(3) 0.197(3) 0.4709(9)
C18 C 0.05343(13) 0.2775(18) 0.5283(5)
C19 C 0.05882(15) 0.383(3) 0.6104(6)
H17 H 0.0784 0.4219 0.6291
C20 C 0.0349(2) 0.431(3) 0.6645(7)
H18 H 0.0385 0.5013 0.7194
C21 C 0.00554(18) 0.373(2) 0.6365(7)
H19 H -0.0105 0.4044 0.6727
C22 C 0.00014(12) 0.2671(13) 0.5543(7)
H20 H -0.0195 0.2282 0.5356
C23 C 0.02409(16) 0.2195(11) 0.5002(5)
H21 H 0.0205 0.1489 0.4453
O5 O 0.0671(14) -0.098(10) 0.628(5)
H22 H 0.0710 -0.0151 0.5896
C24 C 0.0506(16) -0.020(8) 0.696(5)
H23 H 0.0362 0.0737 0.6706
H24 H 0.0635 0.0361 0.7466
C25 C 0.0351(11) -0.195(7) 0.728(3)
H25 H 0.0242 -0.1665 0.7819
H26 H 0.0500 -0.2913 0.7435
H27 H 0.0213 -0.2403 0.6776
loop_
_geom_bond_atom_site_label_1
_geom_bond_atom_site_label_2
_geom_bond_site_symmetry_1
_geom_bond_site_symmetry_2
F1 C6 1_555 1_555
O1 C2 1_555 1_555
O2 C11 1_555 1_555
O3 C12 1_555 1_555
O4 C17 1_555 1_555
N1 H1 1_555 1_555
N2 H2 1_555 1_555
N3 C12 1_555 1_555
N4 C14 1_555 1_555
C1 N1 1_555 1_555
H3 C1 1_555 1_555
H4 C1 1_555 1_555
H5 C1 1_555 1_555
C2 N1 1_555 1_555
C3 C2 1_555 1_555
C4 C3 1_555 1_555
H6 C4 1_555 1_555
C5 C4 1_555 1_555
H7 C5 1_555 1_555
C6 C5 1_555 1_555
C7 C6 1_555 1_555
C8 N2 1_555 1_555
C9 N2 1_555 1_555
H8 C9 1_555 1_555
C10 C7 1_555 1_555
C11 C10 1_555 1_555
C12 C11 1_555 1_555
C13 N3 1_555 1_555
H9 C13 1_555 1_555
H10 C13 1_555 1_555
C14 C13 1_555 1_555
H11 C14 1_555 1_555
H12 C14 1_555 1_555
C15 N3 1_555 1_555
H13 C15 1_555 1_555
H14 C15 1_555 1_555
C16 N4 1_555 1_555
H15 C16 1_555 1_555
H16 C16 1_555 1_555
C17 N4 1_555 1_555
C18 C17 1_555 1_555
C19 C18 1_555 1_555
H17 C19 1_555 1_555
C20 C19 1_555 1_555
H18 C20 1_555 1_555
C21 C20 1_555 1_555
H19 C21 1_555 1_555
C22 C21 1_555 1_555
H20 C22 1_555 1_555
C23 C18 1_555 1_555
H21 C23 1_555 1_555
O5 H22 1_555 1_555
C24 O5 1_555 1_555
H23 C24 1_555 1_555
H24 C24 1_555 1_555
C25 C24 1_555 1_555
H25 C25 1_555 1_555
H26 C25 1_555 1_555
H27 C25 1_555 1_555
C3 C8 1_555 1_555
C7 C8 1_555 1_555
C9 C10 1_555 1_555
C15 C16 1_555 1_555
C22 C23 1_555 1_555

#END
