
#######################################################################
#
#                 Cambridge Crystallographic Data Centre
#                                CCDC 
#
#######################################################################
#
# If this CIF has been generated from an entry in the Cambridge 
# Structural Database, then it will include bibliographic, chemical, 
# crystal, experimental, refinement or atomic coordinate data resulting 
# from the CCDC's data processing and validation procedures.
#
#######################################################################

data_QETPOV
_chemical_formula_moiety         'C19 H17 Br1 Cl1 N1 O1'
_chemical_name_systematic        
8-Bromo-6-chloro-1',3',3'-trimethyl-spiro(2H-1-benzopyran-2,2'-indoline)
_symmetry_cell_setting           tetragonal
_symmetry_space_group_name_H-M   'P 43'
_symmetry_Int_Tables_number      78
_space_group_name_Hall           'P 4cw'
loop_
_symmetry_equiv_pos_site_id
_symmetry_equiv_pos_as_xyz
1 x,y,z
2 -x,-y,1/2+z
3 -y,x,3/4+z
4 y,-x,1/4+z
_cell_length_a                   8.1499(8)
_cell_length_b                   8.1499(8)
_cell_length_c                   26.863(5)
_cell_angle_alpha                90
_cell_angle_beta                 90
_cell_angle_gamma                90
_cell_volume                     1784.26
_exptl_crystal_colour            colorless
_exptl_crystal_description       block
_cell_formula_units_Z            4
_exptl_crystal_recrystallization_method acetone
loop_
_atom_site_label
_atom_site_type_symbol
_atom_site_fract_x
_atom_site_fract_y
_atom_site_fract_z
Br1 Br 0.5605(2) 0.2583(2) 1.00375(6)
Cl1 Cl 0.8591(5) -0.0896(4) 0.85491(17)
O1 O 0.3838(10) 0.4078(11) 0.9175(3)
N1 N 0.2949(16) 0.6672(15) 0.8931(5)
C1 C 0.201(2) 0.7161(16) 0.9338(6)
C2 C 0.206(3) 0.856(2) 0.9601(8)
H1 H 0.2890 0.9315 0.9540
C3 C 0.096(4) 0.889(3) 0.9940(10)
H2 H 0.0989 0.9883 1.0110
C4 C -0.025(3) 0.773(3) 1.0047(10)
H3 H -0.1001 0.7925 1.0301
C5 C -0.034(2) 0.627(2) 0.9764(7)
H4 H -0.1161 0.5505 0.9825
C6 C 0.0781(16) 0.5987(18) 0.9410(5)
C7 C 0.1015(15) 0.4640(16) 0.9045(5)
C8 C -0.036(2) 0.461(3) 0.8665(9)
H5 H -0.1395 0.4738 0.8832
H6 H -0.0348 0.3577 0.8492
H7 H -0.0212 0.5485 0.8431
C9 C 0.088(2) 0.285(2) 0.9288(9)
H8 H 0.1621 0.2768 0.9565
H9 H 0.1170 0.2035 0.9043
H10 H -0.0220 0.2660 0.9399
C10 C 0.2717(17) 0.4962(14) 0.8837(5)
C11 C 0.3013(19) 0.4476(19) 0.8311(5)
H11 H 0.2385 0.4995 0.8069
C12 C 0.4078(18) 0.3383(17) 0.8158(4)
H12 H 0.4164 0.3144 0.7821
C13 C 0.5112(14) 0.2553(14) 0.8510(4)
C14 C 0.6284(16) 0.1357(16) 0.8379(5)
H13 H 0.6453 0.1107 0.8045
C15 C 0.7153(14) 0.0577(13) 0.8727(5)
C16 C 0.7011(15) 0.0913(15) 0.9212(5)
H14 H 0.7661 0.0380 0.9446
C17 C 0.5847(15) 0.2095(14) 0.9359(4)
C18 C 0.4930(14) 0.2905(14) 0.9014(4)
C19 C 0.428(3) 0.759(3) 0.8766(12)
H15 H 0.3943 0.8708 0.8718
H16 H 0.4666 0.7150 0.8456
H17 H 0.5139 0.7546 0.9009
loop_
_geom_bond_atom_site_label_1
_geom_bond_atom_site_label_2
_geom_bond_site_symmetry_1
_geom_bond_site_symmetry_2
Br1 C17 1_555 1_555
Cl1 C15 1_555 1_555
O1 C10 1_555 1_555
N1 C1 1_555 1_555
C1 C2 1_555 1_555
C2 H1 1_555 1_555
C3 C2 1_555 1_555
H2 C3 1_555 1_555
C4 C3 1_555 1_555
H3 C4 1_555 1_555
C5 C4 1_555 1_555
H4 C5 1_555 1_555
C6 C1 1_555 1_555
C7 C6 1_555 1_555
C8 C7 1_555 1_555
H5 C8 1_555 1_555
H6 C8 1_555 1_555
H7 C8 1_555 1_555
C9 C7 1_555 1_555
H8 C9 1_555 1_555
H9 C9 1_555 1_555
H10 C9 1_555 1_555
C10 N1 1_555 1_555
C11 C10 1_555 1_555
H11 C11 1_555 1_555
C12 C11 1_555 1_555
H12 C12 1_555 1_555
C13 C12 1_555 1_555
C14 C13 1_555 1_555
H13 C14 1_555 1_555
C15 C14 1_555 1_555
C16 C15 1_555 1_555
H14 C16 1_555 1_555
C17 C16 1_555 1_555
C18 O1 1_555 1_555
C19 N1 1_555 1_555
H15 C19 1_555 1_555
H16 C19 1_555 1_555
H17 C19 1_555 1_555
C5 C6 1_555 1_555
C7 C10 1_555 1_555
C13 C18 1_555 1_555
C17 C18 1_555 1_555

#END
