
#######################################################################
#
#                 Cambridge Crystallographic Data Centre
#                                CCDC 
#
#######################################################################
#
# If this CIF has been generated from an entry in the Cambridge 
# Structural Database, then it will include bibliographic, chemical, 
# crystal, experimental, refinement or atomic coordinate data resulting 
# from the CCDC's data processing and validation procedures.
#
#######################################################################

data_QETRIQ
_chemical_formula_moiety         'C11 H14 N4 O2'
_chemical_name_systematic        
3-(3-Methyl-4-nitroso-1-propyl-1H-5-pyrazolyl)-5-methylisoxazole
_chemical_properties_biological  'antifungal activity'
_symmetry_cell_setting           monoclinic
_symmetry_space_group_name_H-M   'P 21/n'
_symmetry_Int_Tables_number      14
_space_group_name_Hall           '-P 2yn'
loop_
_symmetry_equiv_pos_site_id
_symmetry_equiv_pos_as_xyz
1 x,y,z
2 1/2-x,1/2+y,1/2-z
3 -x,-y,-z
4 1/2+x,1/2-y,1/2+z
_cell_length_a                   4.248(2)
_cell_length_b                   30.861(8)
_cell_length_c                   9.098(3)
_cell_angle_alpha                90
_cell_angle_beta                 98.63(5)
_cell_angle_gamma                90
_cell_volume                     1179.22
_exptl_crystal_colour            'blue green'
_exptl_crystal_description       needle
_chemical_melting_point          67-68deg.C
_cell_formula_units_Z            4
_exptl_crystal_recrystallization_method ethanol
loop_
_atom_site_label
_atom_site_type_symbol
_atom_site_fract_x
_atom_site_fract_y
_atom_site_fract_z
O1 O 0.3065(11) 0.26076(9) 0.2274(3)
O2 O 0.6280(8) 0.38820(9) -0.2638(3)
N1 N 0.2531(13) 0.30575(11) 0.2266(4)
N2 N 0.1275(8) 0.39453(9) 0.1249(3)
N3 N 0.1207(8) 0.43440(9) 0.0552(3)
N4 N 0.5458(9) 0.36470(10) -0.1650(4)
C1 C 0.4027(11) 0.24879(12) 0.0984(4)
C2 C 0.4081(12) 0.28405(12) 0.0137(5)
H1 H 0.4654 0.2854 -0.0809
C3 C 0.3101(10) 0.31866(11) 0.0958(4)
C4 C 0.2747(10) 0.36426(11) 0.0518(4)
C5 C 0.3798(10) 0.38580(12) -0.0676(4)
C6 C 0.2742(11) 0.42931(11) -0.0606(4)
C7 C 0.4774(15) 0.20211(12) 0.0824(5)
H2 H 0.5876 0.1983 -0.0014
H3 H 0.2832 0.1857 0.0674
H4 H 0.6096 0.1922 0.1709
C8 C 0.3131(12) 0.46652(12) -0.1610(4)
H5 H 0.1976 0.4911 -0.1323
H6 H 0.2320 0.4587 -0.2617
H7 H 0.5348 0.4737 -0.1536
C9 C -0.0302(10) 0.39145(13) 0.2575(4)
H8 H -0.1152 0.3624 0.2634
H9 H -0.2077 0.4116 0.2474
C10 C 0.1904(11) 0.40129(12) 0.4007(4)
H10 H 0.3757 0.3826 0.4066
H11 H 0.0814 0.3942 0.4840
C11 C 0.3012(12) 0.44787(12) 0.4161(5)
H12 H 0.4515 0.4533 0.3493
H13 H 0.4007 0.4531 0.5164
H14 H 0.1217 0.4669 0.3924
loop_
_geom_bond_atom_site_label_1
_geom_bond_atom_site_label_2
_geom_bond_site_symmetry_1
_geom_bond_site_symmetry_2
O1 N1 1_555 1_555
O2 N4 1_555 1_555
N1 C3 1_555 1_555
N2 N3 1_555 1_555
N3 C6 1_555 1_555
N4 C5 1_555 1_555
C1 O1 1_555 1_555
C2 C1 1_555 1_555
H1 C2 1_555 1_555
C3 C2 1_555 1_555
C4 N2 1_555 1_555
C5 C4 1_555 1_555
C6 C5 1_555 1_555
C7 C1 1_555 1_555
H2 C7 1_555 1_555
H3 C7 1_555 1_555
H4 C7 1_555 1_555
C8 C6 1_555 1_555
H5 C8 1_555 1_555
H6 C8 1_555 1_555
H7 C8 1_555 1_555
C9 N2 1_555 1_555
H8 C9 1_555 1_555
H9 C9 1_555 1_555
C10 C9 1_555 1_555
H10 C10 1_555 1_555
H11 C10 1_555 1_555
C11 C10 1_555 1_555
H12 C11 1_555 1_555
H13 C11 1_555 1_555
H14 C11 1_555 1_555
C3 C4 1_555 1_555

#END
