
#######################################################################
#
#                 Cambridge Crystallographic Data Centre
#                                CCDC 
#
#######################################################################
#
# If this CIF has been generated from an entry in the Cambridge 
# Structural Database, then it will include bibliographic, chemical, 
# crystal, experimental, refinement or atomic coordinate data resulting 
# from the CCDC's data processing and validation procedures.
#
#######################################################################

data_QETSIU
_chemical_formula_moiety         'C22 H14 N4'
_chemical_name_systematic        
"2,2'-(1,4-phenylene)bis(cyclohepta[d]imidazole) unknown solvate"
_symmetry_cell_setting           monoclinic
_symmetry_space_group_name_H-M   'P 21/n'
_symmetry_Int_Tables_number      14
_space_group_name_Hall           '-P 2yn'
loop_
_symmetry_equiv_pos_site_id
_symmetry_equiv_pos_as_xyz
1 x,y,z
2 1/2-x,1/2+y,1/2-z
3 -x,-y,-z
4 1/2+x,1/2-y,1/2+z
_cell_length_a                   3.7610(3)
_cell_length_b                   13.2538(9)
_cell_length_c                   18.8657(19)
_cell_angle_alpha                90
_cell_angle_beta                 91.226(9)
_cell_angle_gamma                90
_cell_volume                     940.193
_exptl_crystal_colour            yellow
_exptl_crystal_description       needle
_cell_formula_units_Z            2
loop_
_atom_site_label
_atom_site_type_symbol
_atom_site_fract_x
_atom_site_fract_y
_atom_site_fract_z
N1 N 0.1546(4) 0.52343(13) 0.18448(8)
N2 N 0.2047(4) 0.68447(13) 0.13999(9)
C1 C 0.3804(5) 0.54193(16) 0.06353(10)
C2 C 0.2471(5) 0.58368(16) 0.12997(10)
C3 C 0.3503(5) 0.43798(16) 0.05077(10)
H1 H 0.2500 0.3965 0.0847
C4 C 0.5311(5) 0.60383(15) 0.01219(10)
H2 H 0.5522 0.6729 0.0201
C5 C -0.0754(5) 0.55841(17) 0.30062(11)
H3 H -0.0712 0.4894 0.3096
C6 C -0.1973(5) 0.61972(18) 0.35492(12)
H4 H -0.2623 0.5862 0.3960
C7 C 0.0698(5) 0.69108(16) 0.20612(11)
C8 C 0.0408(5) 0.58873(16) 0.23432(10)
C9 C -0.1619(5) 0.79588(17) 0.30496(11)
H5 H -0.2142 0.8622 0.3171
C10 C -0.0212(5) 0.78228(17) 0.23809(11)
H6 H 0.0165 0.8404 0.2117
C11 C -0.2352(5) 0.72377(18) 0.35631(11)
H7 H -0.3238 0.7495 0.3983
N1B N 0.8454(4) 0.47657(13) -0.18448(8)
N2B N 0.7953(4) 0.31553(13) -0.13999(9)
C1B C 0.6196(5) 0.45807(16) -0.06353(10)
C2B C 0.7529(5) 0.41632(16) -0.12997(10)
C3B C 0.6497(5) 0.56202(16) -0.05077(10)
H1B H 0.7500 0.6035 -0.0847
C4B C 0.4689(5) 0.39617(15) -0.01219(10)
H2B H 0.4478 0.3271 -0.0201
C5B C 1.0754(5) 0.44159(17) -0.30062(11)
H3B H 1.0712 0.5106 -0.3096
C6B C 1.1973(5) 0.38028(18) -0.35492(12)
H4B H 1.2623 0.4138 -0.3960
C7B C 0.9302(5) 0.30892(16) -0.20612(11)
C8B C 0.9592(5) 0.41127(16) -0.23432(10)
C9B C 1.1619(5) 0.20412(17) -0.30496(11)
H5B H 1.2142 0.1378 -0.3171
C10B C 1.0212(5) 0.21772(17) -0.23809(11)
H6B H 0.9835 0.1596 -0.2117
C11B C 1.2352(5) 0.27623(18) -0.35631(11)
H7B H 1.3238 0.2505 -0.3983
loop_
_geom_bond_atom_site_label_1
_geom_bond_atom_site_label_2
_geom_bond_site_symmetry_1
_geom_bond_site_symmetry_2
N1 C2 1_555 1_555
N2 C2 1_555 1_555
C1 C2 1_555 1_555
C3 C1 1_555 1_555
H1 C3 1_555 1_555
C4 C1 1_555 1_555
H2 C4 1_555 1_555
C5 H3 1_555 1_555
C6 C5 1_555 1_555
H4 C6 1_555 1_555
C7 N2 1_555 1_555
C8 N1 1_555 1_555
C9 H5 1_555 1_555
C10 C7 1_555 1_555
H6 C10 1_555 1_555
C11 C6 1_555 1_555
H7 C11 1_555 1_555
N1B C2B 1_555 1_555
N2B C2B 1_555 1_555
C1B C2B 1_555 1_555
C3B C4 1_555 1_555
H1B C3B 1_555 1_555
C4B C3 1_555 1_555
H2B C4B 1_555 1_555
C5B H3B 1_555 1_555
C6B C5B 1_555 1_555
H4B C6B 1_555 1_555
C7B N2B 1_555 1_555
C8B N1B 1_555 1_555
C9B H5B 1_555 1_555
C10B C7B 1_555 1_555
H6B C10B 1_555 1_555
C11B C6B 1_555 1_555
H7B C11B 1_555 1_555
C5 C8 1_555 1_555
C7 C8 1_555 1_555
C9 C10 1_555 1_555
C9 C11 1_555 1_555
C1B C3B 1_555 1_555
C1B C4B 1_555 1_555
C5B C8B 1_555 1_555
C7B C8B 1_555 1_555
C9B C10B 1_555 1_555
C9B C11B 1_555 1_555

#END
