
#######################################################################
#
#                 Cambridge Crystallographic Data Centre
#                                CCDC 
#
#######################################################################
#
# If this CIF has been generated from an entry in the Cambridge 
# Structural Database, then it will include bibliographic, chemical, 
# crystal, experimental, refinement or atomic coordinate data resulting 
# from the CCDC's data processing and validation procedures.
#
#######################################################################

data_QETSAM
_chemical_formula_moiety         'C53 H99 N13 O11 Si1'
_chemical_name_systematic        
'N-(2-azido-2-methylpropanoyl)-2-methylalanyl-2-methylalanyl-2-methylalanyl-2-methylalanyl-2-methylalanyl-2-methylalanyl-2-methylalanyl-2-methylalanyl-2-methyl-N-(2-methyl-1-{[tris(propan-2-yl)silyl]oxy}propan-2-yl)alaninamide unknown solvate'
_symmetry_cell_setting           monoclinic
_symmetry_space_group_name_H-M   'P 21/n'
_symmetry_Int_Tables_number      14
_space_group_name_Hall           '-P 2yn'
loop_
_symmetry_equiv_pos_site_id
_symmetry_equiv_pos_as_xyz
1 x,y,z
2 1/2-x,1/2+y,1/2-z
3 -x,-y,-z
4 1/2+x,1/2-y,1/2+z
_cell_length_a                   8.9377(10)
_cell_length_b                   21.205(3)
_cell_length_c                   36.671(3)
_cell_angle_alpha                90
_cell_angle_beta                 90.337(8)
_cell_angle_gamma                90
_cell_volume                     6949.91
_exptl_crystal_colour            colorless
_exptl_crystal_description       block
_cell_formula_units_Z            4
_exptl_crystal_recrystallization_method 'chloroform/diethyl ether'
loop_
_atom_site_label
_atom_site_type_symbol
_atom_site_fract_x
_atom_site_fract_y
_atom_site_fract_z
Si1 Si 0.72048(16) 0.57661(7) 0.86967(3)
O1 O 1.0233(2) 0.67476(11) 0.35736(5)
O2 O 0.6893(2) 0.58446(10) 0.45320(5)
O3 O 0.5368(2) 0.61893(11) 0.60697(5)
O4 O 0.6713(2) 0.71677(11) 0.39451(5)
O5 O 0.9398(2) 0.66711(11) 0.51379(5)
O6 O 0.8363(3) 0.65288(12) 0.67029(5)
O7 O 0.6388(3) 0.75326(11) 0.55224(6)
N1 N 0.7538(3) 0.62413(12) 0.57584(6)
H1 H 0.795936 0.628474 0.554368
N2 N 0.8895(3) 0.61757(13) 0.42106(6)
H2 H 0.926196 0.625209 0.399279
N3 N 0.7083(3) 0.63090(14) 0.35909(6)
H3 H 0.734101 0.616825 0.337451
N4 N 0.8154(3) 0.71537(13) 0.46765(7)
H4 H 0.797950 0.716833 0.444020
N5 N 0.6017(3) 0.66953(13) 0.51503(6)
H5 H 0.617726 0.653049 0.493383
O8 O 0.8486(3) 0.56408(13) 0.29514(6)
N6 N 0.5239(3) 0.70675(15) 0.67167(6)
H6 H 0.534549 0.687318 0.650645
N7 N 0.6211(3) 0.64459(15) 0.73406(7)
H7 H 0.669170 0.652582 0.713706
N8 N 0.7639(3) 0.72115(14) 0.62612(7)
H8 H 0.749127 0.726700 0.602589
N9 N 0.8709(3) 0.70464(13) 0.31123(6)
H9 H 0.856566 0.704545 0.287471
O9 O 0.5995(3) 0.78785(14) 0.70688(6)
N10 N 1.0150(3) 0.62413(14) 0.26376(6)
H10 H 1.041754 0.638623 0.242283
O10 O 0.7494(3) 0.58990(14) 0.82557(7)
C1 C 0.9098(4) 0.67143(16) 0.48080(8)
C2 C 0.7488(4) 0.59692(15) 0.42341(7)
C3 C 0.6038(4) 0.62551(16) 0.57782(7)
O11 O 0.4010(3) 0.66643(19) 0.76171(6)
C4 C 0.9929(4) 0.67576(16) 0.32419(8)
C5 C 0.7117(3) 0.69248(18) 0.36530(8)
C6 C 0.8144(4) 0.66470(17) 0.63755(8)
C7 C 0.8507(4) 0.61565(17) 0.60813(8)
C8 C 0.6129(4) 0.75582(18) 0.67878(8)
C9 C 0.6579(4) 0.72675(17) 0.52223(8)
C10 C 0.9868(4) 0.62825(17) 0.45316(7)
C11 C 0.6623(4) 0.58488(17) 0.38742(8)
C12 C 0.5146(4) 0.63285(19) 0.54147(8)
C13 C 0.7594(4) 0.73647(17) 0.33382(8)
C14 C 0.7324(4) 0.77376(18) 0.65064(9)
C15 C 1.2112(4) 0.69422(19) 0.28524(9)
H11 H 1.280647 0.676020 0.267537
H12 H 1.267257 0.708811 0.306687
H13 H 1.158417 0.729923 0.274101
C16 C 0.8309(5) 0.54901(17) 0.62433(8)
H14 H 0.726140 0.542795 0.631180
H15 H 0.894918 0.544501 0.645963
H16 H 0.859187 0.517414 0.606121
C17 C 1.1274(4) 0.6630(2) 0.44052(8)
H17 H 1.184707 0.635681 0.424171
H18 H 1.189178 0.674010 0.461754
H19 H 1.098478 0.701547 0.427532
C18 C 1.0993(4) 0.64484(16) 0.29663(8)
C19 C 1.0122(4) 0.62614(19) 0.59657(9)
H20 H 1.037847 0.596225 0.577214
H21 H 1.078827 0.619605 0.617546
H22 H 1.023812 0.669320 0.587497
C20 C 0.7045(4) 0.51907(17) 0.37382(8)
H23 H 0.651995 0.510417 0.350831
H24 H 0.675861 0.487581 0.392051
H25 H 0.812780 0.517058 0.369879
C21 C 0.4925(4) 0.5898(2) 0.39398(9)
H26 H 0.468041 0.632331 0.402477
H27 H 0.462913 0.558909 0.412483
H28 H 0.438638 0.581159 0.371170
C22 C 0.4800(4) 0.66453(19) 0.73439(8)
C23 C 0.8994(5) 0.58403(19) 0.26577(9)
C24 C 1.0287(4) 0.56606(18) 0.47120(8)
H29 H 0.937501 0.543589 0.478259
H30 H 1.089891 0.574329 0.492937
H31 H 1.085611 0.540183 0.454027
C25 C 0.4924(5) 0.5671(2) 0.52573(8)
H32 H 0.436183 0.569960 0.502765
H33 H 0.436645 0.541125 0.543094
H34 H 0.590165 0.547753 0.521183
C26 C 0.4085(4) 0.6830(2) 0.69687(8)
C27 C 0.7111(4) 0.61121(19) 0.76209(9)
C28 C 0.7405(5) 0.76107(17) 0.49158(9)
C29 C 0.8207(5) 0.79753(18) 0.34879(10)
H35 H 0.908627 0.788751 0.364059
H36 H 0.743946 0.818372 0.363479
H37 H 0.849366 0.825131 0.328573
C30 C 0.3469(4) 0.6218(2) 0.68087(9)
H38 H 0.307307 0.629821 0.656321
H39 H 0.266546 0.605863 0.696435
H40 H 0.427164 0.590431 0.679565
C31 C 0.6216(4) 0.7493(2) 0.30920(9)
H41 H 0.650041 0.777709 0.289320
H42 H 0.542478 0.769004 0.323689
H43 H 0.584959 0.709469 0.299010
C32 C 1.1789(5) 0.5895(2) 0.31469(10)
H44 H 1.106736 0.555697 0.319339
H45 H 1.223594 0.603307 0.337819
H46 H 1.257645 0.573874 0.298550
C33 C 0.7154(5) 0.6539(2) 0.89546(11)
H47 H 0.612488 0.671660 0.892230
C34 C 0.3646(4) 0.6656(3) 0.54905(9)
H48 H 0.383189 0.708239 0.558338
H49 H 0.308831 0.641370 0.567221
H50 H 0.306024 0.668106 0.526413
C35 C 0.2855(5) 0.7320(2) 0.70204(10)
H51 H 0.327150 0.769160 0.714326
H52 H 0.205429 0.714018 0.716916
H53 H 0.245042 0.744314 0.678187
C36 C 0.6664(5) 0.82757(18) 0.62732(10)
H54 H 0.740028 0.840865 0.609174
H55 H 0.641521 0.863350 0.643077
H56 H 0.575679 0.812725 0.614877
C37 C 0.8231(5) 0.7024(2) 0.88131(11)
H57 H 0.925496 0.690248 0.887911
H58 H 0.800033 0.743563 0.892085
H59 H 0.813964 0.705107 0.854710
C38 C 0.8566(6) 0.8074(2) 0.50788(11)
H60 H 0.922064 0.784817 0.524976
H61 H 0.804502 0.841315 0.520792
H62 H 0.916773 0.825452 0.488218
C39 C 0.838(3) 0.5610(14) 0.2314(7)
C40 C 0.8740(5) 0.7955(2) 0.67044(11)
H63 H 0.912948 0.761010 0.685518
H64 H 0.850410 0.831718 0.686007
H65 H 0.949459 0.807830 0.652521
C41 C 0.6502(5) 0.6205(2) 0.80053(9)
H66 H 0.643802 0.666037 0.806257
H67 H 0.548715 0.602109 0.802338
C42 C 0.8700(5) 0.6402(2) 0.76110(10)
H68 H 0.912884 0.634221 0.736811
H69 H 0.933582 0.619462 0.779339
H70 H 0.864059 0.685430 0.766506
C43 C 0.6231(6) 0.7958(2) 0.46805(10)
H71 H 0.673655 0.819669 0.448827
H72 H 0.566043 0.824905 0.483421
H73 H 0.554854 0.765060 0.456958
C44 C 0.7418(6) 0.6458(3) 0.93728(11)
H74 H 0.666383 0.617026 0.947197
H75 H 0.733707 0.686869 0.949319
H76 H 0.841808 0.628268 0.941597
C45 C 0.7132(8) 0.5430(2) 0.75169(15)
H77 H 0.614657 0.524435 0.756217
H78 H 0.788934 0.520889 0.766271
H79 H 0.737335 0.539075 0.725754
C46 C 0.8780(8) 0.5233(3) 0.88107(15)
H80 H 0.873344 0.489404 0.862113
C47 C 1.0276(7) 0.5539(3) 0.87571(19)
H81 H 1.032563 0.571725 0.851088
H82 H 1.106797 0.522380 0.878815
H83 H 1.040995 0.587603 0.893713
C48 C 0.5260(10) 0.4741(3) 0.8568(2)
H84 H 0.565380 0.478395 0.832082
H85 H 0.424751 0.456455 0.855729
H86 H 0.590954 0.445959 0.871026
C49 C 0.5213(8) 0.5377(3) 0.87475(14)
H87 H 0.453622 0.563643 0.858939
C50 C 0.8714(10) 0.4876(3) 0.91781(16)
H88 H 0.883498 0.517687 0.937918
H89 H 0.951940 0.456322 0.918859
H90 H 0.774549 0.466323 0.919952
N11 N 0.6046(12) 0.5950(6) 0.2436(4)
C51 C 0.9317(18) 0.5649(8) 0.1963(4)
H91 H 0.956164 0.609085 0.191235
H92 H 0.874387 0.547353 0.175856
H93 H 1.024320 0.540787 0.199624
C52 C 0.4535(8) 0.5414(5) 0.9126(2)
H94 H 0.513194 0.515906 0.929596
H95 H 0.350747 0.525326 0.911833
H96 H 0.452898 0.585375 0.920861
N12 N 0.5030(13) 0.5956(6) 0.2621(4)
N13 N 0.7062(16) 0.6007(8) 0.2235(4)
C53 C 0.801(3) 0.4966(9) 0.2293(4)
H97 H 0.892016 0.471297 0.232238
H98 H 0.755049 0.487612 0.205563
H99 H 0.730445 0.486134 0.248745
C54? C 0.6558(18) 0.6028(11) 0.2310(4)
H100? H 0.609577 0.596774 0.254894
H101? H 0.588535 0.586858 0.211908
H102? H 0.674501 0.647794 0.226994
C55? C 0.770(4) 0.4894(14) 0.2332(8)
H103? H 0.863404 0.465323 0.233660
H104? H 0.709051 0.476060 0.212209
H105? H 0.714398 0.481701 0.255715
N14? N 0.8962(17) 0.5935(7) 0.1995(4)
N15? N 0.8382(9) 0.6086(4) 0.17172(19)
N16? N 0.7968(11) 0.6246(6) 0.1441(2)
C56? C 0.808(4) 0.5658(18) 0.2296(6)
loop_
_geom_bond_atom_site_label_1
_geom_bond_atom_site_label_2
_geom_bond_site_symmetry_1
_geom_bond_site_symmetry_2
Si1 O10 1_555 1_555
O1 C4 1_555 1_555
O2 C2 1_555 1_555
O3 C3 1_555 1_555
O4 C5 1_555 1_555
O5 C1 1_555 1_555
O6 C6 1_555 1_555
O7 C9 1_555 1_555
N1 H1 1_555 1_555
N2 H2 1_555 1_555
N3 H3 1_555 1_555
N4 H4 1_555 1_555
N5 H5 1_555 1_555
O8 C23 1_555 1_555
N6 H6 1_555 1_555
N7 H7 1_555 1_555
N8 H8 1_555 1_555
N9 H9 1_555 1_555
O9 C8 1_555 1_555
N10 H10 1_555 1_555
O10 C41 1_555 1_555
C1 N4 1_555 1_555
C2 N2 1_555 1_555
C3 N1 1_555 1_555
O11 C22 1_555 1_555
C4 N9 1_555 1_555
C5 N3 1_555 1_555
C6 N8 1_555 1_555
C7 N1 1_555 1_555
C8 N6 1_555 1_555
C9 N5 1_555 1_555
C10 N2 1_555 1_555
C11 N3 1_555 1_555
C12 N5 1_555 1_555
C13 N9 1_555 1_555
C14 N8 1_555 1_555
C15 H11 1_555 1_555
H12 C15 1_555 1_555
H13 C15 1_555 1_555
C16 C7 1_555 1_555
H14 C16 1_555 1_555
H15 C16 1_555 1_555
H16 C16 1_555 1_555
C17 C10 1_555 1_555
H17 C17 1_555 1_555
H18 C17 1_555 1_555
H19 C17 1_555 1_555
C18 N10 1_555 1_555
C19 C7 1_555 1_555
H20 C19 1_555 1_555
H21 C19 1_555 1_555
H22 C19 1_555 1_555
C20 C11 1_555 1_555
H23 C20 1_555 1_555
H24 C20 1_555 1_555
H25 C20 1_555 1_555
C21 C11 1_555 1_555
H26 C21 1_555 1_555
H27 C21 1_555 1_555
H28 C21 1_555 1_555
C22 N7 1_555 1_555
C23 N10 1_555 1_555
C24 C10 1_555 1_555
H29 C24 1_555 1_555
H30 C24 1_555 1_555
H31 C24 1_555 1_555
C25 C12 1_555 1_555
H32 C25 1_555 1_555
H33 C25 1_555 1_555
H34 C25 1_555 1_555
C26 N6 1_555 1_555
C27 N7 1_555 1_555
C28 N4 1_555 1_555
C29 C13 1_555 1_555
H35 C29 1_555 1_555
H36 C29 1_555 1_555
H37 C29 1_555 1_555
C30 C26 1_555 1_555
H38 C30 1_555 1_555
H39 C30 1_555 1_555
H40 C30 1_555 1_555
C31 C13 1_555 1_555
H41 C31 1_555 1_555
H42 C31 1_555 1_555
H43 C31 1_555 1_555
C32 C18 1_555 1_555
H44 C32 1_555 1_555
H45 C32 1_555 1_555
H46 C32 1_555 1_555
C33 Si1 1_555 1_555
H47 C33 1_555 1_555
C34 C12 1_555 1_555
H48 C34 1_555 1_555
H49 C34 1_555 1_555
H50 C34 1_555 1_555
C35 C26 1_555 1_555
H51 C35 1_555 1_555
H52 C35 1_555 1_555
H53 C35 1_555 1_555
C36 C14 1_555 1_555
H54 C36 1_555 1_555
H55 C36 1_555 1_555
H56 C36 1_555 1_555
C37 C33 1_555 1_555
H57 C37 1_555 1_555
H58 C37 1_555 1_555
H59 C37 1_555 1_555
C38 C28 1_555 1_555
H60 C38 1_555 1_555
H61 C38 1_555 1_555
H62 C38 1_555 1_555
C39 C23 1_555 1_555
C40 C14 1_555 1_555
H63 C40 1_555 1_555
H64 C40 1_555 1_555
H65 C40 1_555 1_555
C41 C27 1_555 1_555
H66 C41 1_555 1_555
H67 C41 1_555 1_555
C42 C27 1_555 1_555
H68 C42 1_555 1_555
H69 C42 1_555 1_555
H70 C42 1_555 1_555
C43 C28 1_555 1_555
H71 C43 1_555 1_555
H72 C43 1_555 1_555
H73 C43 1_555 1_555
C44 C33 1_555 1_555
H74 C44 1_555 1_555
H75 C44 1_555 1_555
H76 C44 1_555 1_555
C45 C27 1_555 1_555
H77 C45 1_555 1_555
H78 C45 1_555 1_555
H79 C45 1_555 1_555
C46 Si1 1_555 1_555
H80 C46 1_555 1_555
C47 C46 1_555 1_555
H81 C47 1_555 1_555
H82 C47 1_555 1_555
H83 C47 1_555 1_555
C48 H84 1_555 1_555
H85 C48 1_555 1_555
H86 C48 1_555 1_555
C49 Si1 1_555 1_555
H87 C49 1_555 1_555
C50 C46 1_555 1_555
H88 C50 1_555 1_555
H89 C50 1_555 1_555
H90 C50 1_555 1_555
N11 N12 1_555 1_555
C51 C39 1_555 1_555
H91 C51 1_555 1_555
H92 C51 1_555 1_555
H93 C51 1_555 1_555
C52 C49 1_555 1_555
H94 C52 1_555 1_555
H95 C52 1_555 1_555
H96 C52 1_555 1_555
N13 C39 1_555 1_555
C53 C39 1_555 1_555
H97 C53 1_555 1_555
H98 C53 1_555 1_555
H99 C53 1_555 1_555
C1 C10 1_555 1_555
C2 C11 1_555 1_555
C3 C12 1_555 1_555
C4 C18 1_555 1_555
C5 C13 1_555 1_555
C6 C7 1_555 1_555
C8 C14 1_555 1_555
C9 C28 1_555 1_555
C15 C18 1_555 1_555
C22 C26 1_555 1_555
C48 C49 1_555 1_555
N11 N13 1_555 1_555

#END
