
#######################################################################
#
#                 Cambridge Crystallographic Data Centre
#                                CCDC 
#
#######################################################################
#
# If this CIF has been generated from an entry in the Cambridge 
# Structural Database, then it will include bibliographic, chemical, 
# crystal, experimental, refinement or atomic coordinate data resulting 
# from the CCDC's data processing and validation procedures.
#
#######################################################################

data_QETVUG
_chemical_formula_moiety         'C16 H24 O8'
_chemical_name_systematic        (1R,2R,3S,4R)-Tetraacetoxycyclooctane
_symmetry_cell_setting           monoclinic
_symmetry_space_group_name_H-M   'P 21'
_symmetry_Int_Tables_number      4
_space_group_name_Hall           'P 2yb'
loop_
_symmetry_equiv_pos_site_id
_symmetry_equiv_pos_as_xyz
1 x,y,z
2 -x,1/2+y,-z
_cell_length_a                   7.903(2)
_cell_length_b                   14.497(4)
_cell_length_c                   8.909(2)
_cell_angle_alpha                90
_cell_angle_beta                 111.80(2)
_cell_angle_gamma                90
_cell_volume                     947.708
_exptl_crystal_colour            colorless
_exptl_crystal_description       cube
_chemical_melting_point          107-108deg.C
_cell_formula_units_Z            2
_exptl_crystal_recrystallization_method ethanol
loop_
_atom_site_label
_atom_site_type_symbol
_atom_site_fract_x
_atom_site_fract_y
_atom_site_fract_z
C1 C 0.4234(3) 0.3128(2) 0.4921(3)
C2 C 0.6207(3) 0.3265(2) 0.6030(3)
C3 C 0.6397(3) 0.3334(2) 0.7807(3)
C4 C 0.7327(4) 0.4209(2) 0.8637(4)
C5 C 0.6739(6) 0.5091(3) 0.7686(5)
C6 C 0.4686(7) 0.5279(3) 0.6906(6)
C7 C 0.3642(6) 0.4856(3) 0.5195(5)
C8 C 0.2998(4) 0.3873(3) 0.5128(4)
C9 C 0.2856(5) 0.2718(3) 0.2152(4)
C10 C 0.2906(8) 0.2872(5) 0.0539(5)
C11 C 0.9049(4) 0.2680(2) 0.6172(4)
C12 C 1.0001(5) 0.1876(3) 0.5844(7)
C13 C 0.6573(5) 0.1795(3) 0.8773(4)
C14 C 0.7814(8) 0.1098(3) 0.9834(6)
C15 C 0.8175(5) 0.4547(2) 1.1452(4)
C16 C 0.7528(6) 0.4567(3) 1.2810(5)
O1 O 0.4228(3) 0.31745(17) 0.3304(2)
O2 O 0.7244(3) 0.25113(14) 0.5757(2)
O3 O 0.7453(3) 0.25807(16) 0.8751(2)
O4 O 0.6885(3) 0.42510(17) 1.0093(2)
O5 O 0.1733(4) 0.2286(2) 0.2444(4)
O6 O 0.9729(3) 0.33952(18) 0.6728(3)
O7 O 0.4973(4) 0.17019(19) 0.8026(4)
O8 O 0.9655(4) 0.4781(3) 1.1539(3)
H1 H 0.3766 0.2527 0.5162
H2 H 0.6686 0.3862 0.5775
H3 H 0.5106 0.3335 0.7748
H4 H 0.8667 0.4167 0.8847
H5 H 0.7304 0.5616 0.8420
H6 H 0.7220 0.5074 0.6787
H7 H 0.4507 0.5957 0.6830
H8 H 0.4114 0.5014 0.7649
H9 H 0.2555 0.5255 0.4641
H10 H 0.4485 0.4893 0.4581
H11 H 0.2809 0.3743 0.6147
H12 H 0.1808 0.3823 0.4185
H13 H 0.1870 0.2524 -0.0286
H14 H 0.2770 0.3542 0.0268
H15 H 0.4083 0.2641 0.0505
H16 H 1.1317 0.2015 0.6144
H17 H 0.9839 0.1329 0.6451
H18 H 0.9452 0.1731 0.4641
H19 H 0.7161 0.0522 0.9845
H20 H 0.8376 0.1353 1.0972
H21 H 0.8843 0.0969 0.9446
H22 H 0.8513 0.4798 1.3823
H23 H 0.6438 0.4986 1.2551
H24 H 0.7160 0.3930 1.3022
loop_
_geom_bond_atom_site_label_1
_geom_bond_atom_site_label_2
_geom_bond_site_symmetry_1
_geom_bond_site_symmetry_2
C1 C2 1_555 1_555
C2 C3 1_555 1_555
C3 C4 1_555 1_555
C4 C5 1_555 1_555
C5 C6 1_555 1_555
C6 C7 1_555 1_555
C7 C8 1_555 1_555
C8 C1 1_555 1_555
C9 C10 1_555 1_555
C10 H13 1_555 1_555
C11 C12 1_555 1_555
C12 H16 1_555 1_555
C13 C14 1_555 1_555
C14 H19 1_555 1_555
C15 C16 1_555 1_555
C16 H22 1_555 1_555
O1 C1 1_555 1_555
O2 C2 1_555 1_555
O3 C3 1_555 1_555
O4 C4 1_555 1_555
O5 C9 1_555 1_555
O6 C11 1_555 1_555
O7 C13 1_555 1_555
O8 C15 1_555 1_555
H1 C1 1_555 1_555
H2 C2 1_555 1_555
H3 C3 1_555 1_555
H4 C4 1_555 1_555
H5 C5 1_555 1_555
H6 C5 1_555 1_555
H7 C6 1_555 1_555
H8 C6 1_555 1_555
H9 C7 1_555 1_555
H10 C7 1_555 1_555
H11 C8 1_555 1_555
H12 C8 1_555 1_555
H14 C10 1_555 1_555
H15 C10 1_555 1_555
H17 C12 1_555 1_555
H18 C12 1_555 1_555
H20 C14 1_555 1_555
H21 C14 1_555 1_555
H23 C16 1_555 1_555
H24 C16 1_555 1_555
C9 O1 1_555 1_555
C11 O2 1_555 1_555
C13 O3 1_555 1_555
C15 O4 1_555 1_555

#END
