
#######################################################################
#
#                 Cambridge Crystallographic Data Centre
#                                CCDC 
#
#######################################################################
#
# If this CIF has been generated from an entry in the Cambridge 
# Structural Database, then it will include bibliographic, chemical, 
# crystal, experimental, refinement or atomic coordinate data resulting 
# from the CCDC's data processing and validation procedures.
#
#######################################################################

data_QETVUH
_chemical_formula_moiety         'C16 H18 F2 O2 S1'
_chemical_name_systematic        
1,1-Difluoro-2-((p-toluenesulfonyl)methylene)spiro(2.5)octane
_symmetry_cell_setting           monoclinic
_symmetry_space_group_name_H-M   'P 21/n'
_symmetry_Int_Tables_number      14
_space_group_name_Hall           '-P 2yn'
loop_
_symmetry_equiv_pos_site_id
_symmetry_equiv_pos_as_xyz
1 x,y,z
2 1/2-x,1/2+y,1/2-z
3 -x,-y,-z
4 1/2+x,1/2-y,1/2+z
_cell_length_a                   13.0719(18)
_cell_length_b                   5.9925(8)
_cell_length_c                   19.815(3)
_cell_angle_alpha                90
_cell_angle_beta                 99.478(3)
_cell_angle_gamma                90
_cell_volume                     1530.99
_exptl_crystal_colour            colorless
_cell_formula_units_Z            4
loop_
_atom_site_label
_atom_site_type_symbol
_atom_site_fract_x
_atom_site_fract_y
_atom_site_fract_z
S1 S 0.58007(4) 0.61535(10) 0.22133(3)
O1 O 0.47183(11) 0.5758(3) 0.21789(8)
O2 O 0.64826(13) 0.4309(3) 0.21774(9)
F1 F 0.56193(10) 1.1433(2) 0.40956(7)
F2 F 0.57958(11) 0.8245(3) 0.46195(6)
C1 C 0.62551(16) 0.7548(4) 0.29718(11)
C2 C 0.56291(14) 0.8153(3) 0.33868(10)
C3 C 0.54716(15) 0.9234(4) 0.40138(10)
C4 C 0.45639(14) 0.8320(3) 0.35398(9)
C5 C 0.40399(17) 0.6241(3) 0.37445(13)
H1 H 0.4538 0.5339 0.4044
H2 H 0.3782 0.5367 0.3340
C6 C 0.31442(19) 0.6860(4) 0.41115(13)
H3 H 0.2779 0.5517 0.4206
H4 H 0.3414 0.7565 0.4545
C7 C 0.23997(17) 0.8429(4) 0.36845(13)
H5 H 0.2091 0.7686 0.3265
H6 H 0.1847 0.8828 0.3934
C8 C 0.29472(16) 1.0499(4) 0.35145(12)
H7 H 0.3219 1.1287 0.3933
H8 H 0.2457 1.1474 0.3235
C9 C 0.38290(14) 0.9944(3) 0.31324(10)
H9 H 0.3552 0.9299 0.2691
H10 H 0.4199 1.1299 0.3054
C10 C 0.59711(15) 0.8082(4) 0.15824(10)
C11 C 0.52300(18) 0.9697(5) 0.13817(13)
H11 H 0.4629 0.9739 0.1576
C12 C 0.5379(2) 1.1219(5) 0.09027(14)
H12 H 0.4873 1.2296 0.0771
C13 C 0.62536(19) 1.1217(4) 0.06060(12)
C14 C 0.69859(18) 0.9620(5) 0.08135(12)
H13 H 0.7589 0.9592 0.0621
C15 C 0.68547(17) 0.8077(5) 0.12923(12)
H14 H 0.7366 0.7011 0.1425
C16 C 0.6420(2) 1.2948(5) 0.00920(14)
H15 H 0.6827 1.2327 -0.0224
H16 H 0.6779 1.4201 0.0322
H17 H 0.5762 1.3428 -0.0153
H18 H 0.6917(19) 0.787(4) 0.3035(11)
loop_
_geom_bond_atom_site_label_1
_geom_bond_atom_site_label_2
_geom_bond_site_symmetry_1
_geom_bond_site_symmetry_2
S1 O1 1_555 1_555
O2 S1 1_555 1_555
F1 C3 1_555 1_555
F2 C3 1_555 1_555
C1 S1 1_555 1_555
C2 C1 1_555 1_555
C3 C2 1_555 1_555
C4 C2 1_555 1_555
C5 C4 1_555 1_555
H1 C5 1_555 1_555
H2 C5 1_555 1_555
C6 C5 1_555 1_555
H3 C6 1_555 1_555
H4 C6 1_555 1_555
C7 C6 1_555 1_555
H5 C7 1_555 1_555
H6 C7 1_555 1_555
C8 C7 1_555 1_555
H7 C8 1_555 1_555
H8 C8 1_555 1_555
C9 C4 1_555 1_555
H9 C9 1_555 1_555
H10 C9 1_555 1_555
C10 S1 1_555 1_555
C11 C10 1_555 1_555
H11 C11 1_555 1_555
C12 C11 1_555 1_555
H12 C12 1_555 1_555
C13 C12 1_555 1_555
C14 C13 1_555 1_555
H13 C14 1_555 1_555
C15 C10 1_555 1_555
H14 C15 1_555 1_555
C16 C13 1_555 1_555
H15 C16 1_555 1_555
H16 C16 1_555 1_555
H17 C16 1_555 1_555
H18 C1 1_555 1_555
C3 C4 1_555 1_555
C8 C9 1_555 1_555
C14 C15 1_555 1_555

#END
