
#######################################################################
#
#                 Cambridge Crystallographic Data Centre
#                                CCDC 
#
#######################################################################
#
# If this CIF has been generated from an entry in the Cambridge 
# Structural Database, then it will include bibliographic, chemical, 
# crystal, experimental, refinement or atomic coordinate data resulting 
# from the CCDC's data processing and validation procedures.
#
#######################################################################

data_QETWEU
_chemical_formula_moiety         'C32 H25 N1 O4 S2 Se3'
_chemical_name_systematic        
N-(phenylsulfonyl)-N-[tris(phenylselanyl)ethenyl]benzenesulfonamide
_symmetry_cell_setting           monoclinic
_symmetry_space_group_name_H-M   'P 21/n'
_symmetry_Int_Tables_number      14
_space_group_name_Hall           '-P 2yn'
loop_
_symmetry_equiv_pos_site_id
_symmetry_equiv_pos_as_xyz
1 x,y,z
2 1/2-x,1/2+y,1/2-z
3 -x,-y,-z
4 1/2+x,1/2-y,1/2+z
_cell_length_a                   17.114(4)
_cell_length_b                   11.241(3)
_cell_length_c                   18.622(4)
_cell_angle_alpha                90
_cell_angle_beta                 116.978(4)
_cell_angle_gamma                90
_cell_volume                     3192.63
_exptl_crystal_colour            white
_exptl_crystal_description       needle
_cell_formula_units_Z            4
loop_
_atom_site_label
_atom_site_type_symbol
_atom_site_fract_x
_atom_site_fract_y
_atom_site_fract_z
Se1 Se 0.89514(2) 0.69200(3) 0.56778(2)
Se2 Se 0.77341(3) 0.57513(4) 0.38377(2)
Se3 Se 0.60168(2) 0.72770(3) 0.37139(2)
S1 S 0.75804(6) 0.95816(8) 0.53046(5)
S2 S 0.68820(6) 0.76626(8) 0.59470(5)
O1 O 0.74709(18) 1.0196(2) 0.59182(15)
O2 O 0.83968(16) 0.9614(2) 0.52737(17)
O3 O 0.61631(16) 0.8442(2) 0.57681(16)
O4 O 0.67428(16) 0.6424(2) 0.57667(14)
N1 N 0.73898(18) 0.8133(2) 0.54002(17)
C1 C 0.8197(3) 0.6870(3) 0.7358(2)
H1 H 0.8216 0.6208 0.7067
C2 C 0.8737(3) 0.6941(4) 0.8174(3)
H2 H 0.9120 0.6321 0.8439
C3 C 0.8712(3) 0.7928(4) 0.8598(3)
H3 H 0.9077 0.7972 0.9150
C4 C 0.8151(3) 0.8848(4) 0.8213(3)
H4 H 0.8142 0.9515 0.8505
C5 C 0.7605(3) 0.8793(3) 0.7403(3)
H5 H 0.7225 0.9418 0.7145
C6 C 0.7623(2) 0.7803(3) 0.6972(2)
C7 C 0.6746(2) 1.0021(3) 0.4364(2)
C8 C 0.5938(3) 1.0315(3) 0.4307(2)
H6 H 0.5843 1.0299 0.4760
C9 C 0.5274(3) 1.0634(4) 0.3567(3)
H7 H 0.4725 1.0834 0.3518
C10 C 0.5424(3) 1.0655(4) 0.2900(3)
H8 H 0.4976 1.0877 0.2402
C11 C 0.6230(3) 1.0350(4) 0.2967(3)
H9 H 0.6324 1.0361 0.2513
C12 C 0.6898(3) 1.0029(4) 0.3699(2)
H10 H 0.7445 0.9821 0.3745
C13 C 0.7728(2) 0.7271(3) 0.5038(2)
C14 C 0.8959(2) 0.5205(3) 0.5710(2)
C15 C 0.8287(3) 0.4536(3) 0.5720(2)
H11 H 0.7794 0.4909 0.5702
C16 C 0.8351(3) 0.3313(4) 0.5757(3)
H12 H 0.7894 0.2864 0.5756
C17 C 0.9083(3) 0.2750(4) 0.5794(3)
H13 H 0.9124 0.1925 0.5823
C18 C 0.9751(3) 0.3417(4) 0.5789(2)
H14 H 1.0247 0.3041 0.5814
C19 C 0.9693(3) 0.4643(4) 0.5747(2)
H15 H 1.0149 0.5090 0.5744
C20 C 0.7228(2) 0.6843(3) 0.4297(2)
C21 C 0.6932(4) 0.6971(5) 0.2318(3)
H16 H 0.7261 0.7622 0.2604
C22 C 0.6400(5) 0.7062(7) 0.1488(4)
H17 H 0.6359 0.7774 0.1219
C23 C 0.5954(4) 0.6107(9) 0.1089(4)
H18 H 0.5608 0.6168 0.0535
C24 C 0.5976(4) 0.5059(8) 0.1446(4)
H19 H 0.5654 0.4409 0.1152
C25 C 0.6507(3) 0.4987(5) 0.2284(3)
H20 H 0.6538 0.4272 0.2548
C26 C 0.6970(3) 0.5927(4) 0.2712(2)
C27 C 0.5488(2) 0.5730(3) 0.3461(2)
C28 C 0.4868(2) 0.5514(3) 0.2687(2)
H21 H 0.4752 0.6082 0.2289
C29 C 0.4416(3) 0.4450(4) 0.2500(3)
H22 H 0.3992 0.4306 0.1975
C30 C 0.4584(3) 0.3616(4) 0.3074(3)
H23 H 0.4278 0.2900 0.2943
C31 C 0.5198(4) 0.3821(4) 0.3839(3)
H24 H 0.5315 0.3239 0.4230
C32 C 0.5652(3) 0.4884(4) 0.4049(3)
H25 H 0.6063 0.5027 0.4579
loop_
_geom_bond_atom_site_label_1
_geom_bond_atom_site_label_2
_geom_bond_site_symmetry_1
_geom_bond_site_symmetry_2
Se1 C13 1_555 1_555
Se2 C20 1_555 1_555
Se3 C20 1_555 1_555
S1 O1 1_555 1_555
S2 O3 1_555 1_555
O2 S1 1_555 1_555
O4 S2 1_555 1_555
N1 S1 1_555 1_555
C1 H1 1_555 1_555
C2 C1 1_555 1_555
H2 C2 1_555 1_555
C3 C2 1_555 1_555
H3 C3 1_555 1_555
C4 C3 1_555 1_555
H4 C4 1_555 1_555
C5 C4 1_555 1_555
H5 C5 1_555 1_555
C6 S2 1_555 1_555
C7 S1 1_555 1_555
C8 C7 1_555 1_555
H6 C8 1_555 1_555
C9 C8 1_555 1_555
H7 C9 1_555 1_555
C10 C9 1_555 1_555
H8 C10 1_555 1_555
C11 C10 1_555 1_555
H9 C11 1_555 1_555
C12 C7 1_555 1_555
H10 C12 1_555 1_555
C13 N1 1_555 1_555
C14 Se1 1_555 1_555
C15 C14 1_555 1_555
H11 C15 1_555 1_555
C16 C15 1_555 1_555
H12 C16 1_555 1_555
C17 C16 1_555 1_555
H13 C17 1_555 1_555
C18 C17 1_555 1_555
H14 C18 1_555 1_555
C19 C14 1_555 1_555
H15 C19 1_555 1_555
C20 C13 1_555 1_555
C21 H16 1_555 1_555
C22 C21 1_555 1_555
H17 C22 1_555 1_555
C23 C22 1_555 1_555
H18 C23 1_555 1_555
C24 C23 1_555 1_555
H19 C24 1_555 1_555
C25 C24 1_555 1_555
H20 C25 1_555 1_555
C26 Se2 1_555 1_555
C27 Se3 1_555 1_555
C28 C27 1_555 1_555
H21 C28 1_555 1_555
C29 C28 1_555 1_555
H22 C29 1_555 1_555
C30 C29 1_555 1_555
H23 C30 1_555 1_555
C31 C30 1_555 1_555
H24 C31 1_555 1_555
C32 C27 1_555 1_555
H25 C32 1_555 1_555
S2 N1 1_555 1_555
C1 C6 1_555 1_555
C5 C6 1_555 1_555
C11 C12 1_555 1_555
C18 C19 1_555 1_555
C21 C26 1_555 1_555
C25 C26 1_555 1_555
C31 C32 1_555 1_555

#END
