
#######################################################################
#
#                 Cambridge Crystallographic Data Centre
#                                CCDC 
#
#######################################################################
#
# If this CIF has been generated from an entry in the Cambridge 
# Structural Database, then it will include bibliographic, chemical, 
# crystal, experimental, refinement or atomic coordinate data resulting 
# from the CCDC's data processing and validation procedures.
#
#######################################################################

data_QETWIY
_chemical_formula_moiety         'C32 H25 N1 O4 S2 Se2'
_chemical_name_systematic        
N-[1-phenyl-2,2-bis(phenylselanyl)ethenyl]-N-(phenylsulfonyl)benzenesulfonamide
_symmetry_cell_setting           triclinic
_symmetry_space_group_name_H-M   'P -1'
_symmetry_Int_Tables_number      2
_space_group_name_Hall           '-P 1'
loop_
_symmetry_equiv_pos_site_id
_symmetry_equiv_pos_as_xyz
1 x,y,z
2 -x,-y,-z
_cell_length_a                   9.3039(6)
_cell_length_b                   11.2838(9)
_cell_length_c                   15.3630(8)
_cell_angle_alpha                110.126(6)
_cell_angle_beta                 99.341(5)
_cell_angle_gamma                93.707(6)
_cell_volume                     1481.6
_exptl_crystal_colour            colorless
_exptl_crystal_description       rod
_cell_formula_units_Z            2
loop_
_atom_site_label
_atom_site_type_symbol
_atom_site_fract_x
_atom_site_fract_y
_atom_site_fract_z
Se1 Se 0.82832(3) -0.06085(3) 0.19053(2)
Se2 Se 0.50736(4) -0.22630(4) 0.17098(3)
S1 S 0.78374(8) 0.21660(7) 0.39751(5)
S2 S 0.65023(9) 0.24960(9) 0.22155(6)
C1 C 0.6329(3) -0.0663(3) 0.2141(2)
O1 O 0.7815(2) 0.1099(2) 0.42644(14)
N1 N 0.6663(2) 0.1626(2) 0.29121(16)
C2 C 0.4393(3) 0.0382(3) 0.2964(2)
C3 C 0.5794(3) 0.0382(3) 0.26111(19)
C4 C 0.6154(3) -0.3383(3) 0.0891(2)
C5 C 0.9017(3) -0.1752(3) 0.2489(2)
C6 C 0.2005(4) 0.1025(3) 0.3113(3)
H1 H 0.1235 0.1434 0.2937
O2 O 0.6851(3) 0.3789(2) 0.28346(18)
C7 C 0.3233(3) 0.0993(3) 0.2716(3)
H2 H 0.3286 0.1384 0.2277
C8 C 0.7831(4) 0.2146(3) 0.1502(2)
O3 O 0.5104(3) 0.2043(3) 0.1614(2)
C9 C 0.1905(4) 0.0463(4) 0.3762(3)
H3 H 0.1079 0.0501 0.4035
C10 C 0.4253(4) -0.0203(4) 0.3608(2)
H4 H 0.5003 -0.0637 0.3776
C11 C 0.6014(4) 0.3028(4) 0.5196(2)
H5 H 0.5609 0.2183 0.5013
C12 C 0.6181(6) 0.5235(6) 0.6173(3)
H6 H 0.5888 0.5869 0.6657
C13 C 0.7078(3) 0.3368(3) 0.4772(2)
C14 C 0.3023(4) -0.0155(4) 0.4006(3)
H7 H 0.2956 -0.0546 0.4443
C15 C 0.8563(4) -0.1840(4) 0.3278(3)
H8 H 0.7878 -0.1338 0.3543
C16 C 0.6810(4) -0.4278(4) 0.1173(3)
H9 H 0.6748 -0.4324 0.1759
C17 C 1.0083(4) -0.2448(4) 0.2120(3)
H10 H 1.0406 -0.2372 0.1598
C18 C 0.7681(4) 0.4616(4) 0.5022(3)
H11 H 0.8388 0.4825 0.4717
C19 C 0.7219(6) 0.5553(4) 0.5734(3)
H12 H 0.7617 0.6399 0.5912
C20 C 0.8529(8) 0.1155(5) 0.0018(4)
H13 H 0.8302 0.0615 -0.0612
C21 C 0.6203(5) -0.3355(4) 0.0016(3)
H14 H 0.5734 -0.2767 -0.0186
C22 C 0.9240(4) 0.2765(4) 0.1870(3)
H15 H 0.9488 0.3324 0.2494
C23 C 0.7629(6) -0.5056(5) -0.0277(5)
H16 H 0.8146 -0.5614 -0.0670
C24 C 0.7565(5) -0.5111(4) 0.0580(4)
H17 H 0.8029 -0.5711 0.0772
C25 C 0.6949(6) -0.4201(5) -0.0565(3)
H18 H 0.6984 -0.4181 -0.1162
C26 C 0.7445(6) 0.1342(4) 0.0589(3)
H19 H 0.6493 0.0922 0.0343
C27 C 1.0273(6) 0.2555(6) 0.1313(4)
H20 H 1.1234 0.2950 0.1561
C28 C 1.0177(6) -0.3391(5) 0.3296(4)
H21 H 1.0553 -0.3963 0.3559
C29 C 0.5557(5) 0.3994(6) 0.5913(3)
H22 H 0.4835 0.3796 0.6212
C30 C 0.9142(6) -0.2687(4) 0.3670(3)
H23 H 0.8823 -0.2774 0.4191
C31 C 0.9894(8) 0.1781(7) 0.0412(5)
H24 H 1.0602 0.1667 0.0037
C32 C 1.0664(6) -0.3263(5) 0.2541(4)
H25 H 1.1395 -0.3728 0.2305
O4 O 0.9169(2) 0.2730(2) 0.38580(15)
loop_
_geom_bond_atom_site_label_1
_geom_bond_atom_site_label_2
_geom_bond_site_symmetry_1
_geom_bond_site_symmetry_2
Se1 C1 1_555 1_555
Se2 C1 1_555 1_555
S1 O1 1_555 1_555
S2 N1 1_555 1_555
C1 C3 1_555 1_555
N1 S1 1_555 1_555
C2 C3 1_555 1_555
C3 N1 1_555 1_555
C4 Se2 1_555 1_555
C5 Se1 1_555 1_555
C6 H1 1_555 1_555
O2 S2 1_555 1_555
C7 C2 1_555 1_555
H2 C7 1_555 1_555
C8 S2 1_555 1_555
O3 S2 1_555 1_555
C9 C6 1_555 1_555
H3 C9 1_555 1_555
C10 C2 1_555 1_555
H4 C10 1_555 1_555
C11 H5 1_555 1_555
C12 H6 1_555 1_555
C13 S1 1_555 1_555
C14 C9 1_555 1_555
H7 C14 1_555 1_555
C15 C5 1_555 1_555
H8 C15 1_555 1_555
C16 C4 1_555 1_555
H9 C16 1_555 1_555
C17 C5 1_555 1_555
H10 C17 1_555 1_555
C18 C13 1_555 1_555
H11 C18 1_555 1_555
C19 C12 1_555 1_555
H12 C19 1_555 1_555
C20 H13 1_555 1_555
C21 C4 1_555 1_555
H14 C21 1_555 1_555
C22 C8 1_555 1_555
H15 C22 1_555 1_555
C23 H16 1_555 1_555
C24 C16 1_555 1_555
H17 C24 1_555 1_555
C25 C21 1_555 1_555
H18 C25 1_555 1_555
C26 C8 1_555 1_555
H19 C26 1_555 1_555
C27 C22 1_555 1_555
H20 C27 1_555 1_555
C28 H21 1_555 1_555
C29 C11 1_555 1_555
H22 C29 1_555 1_555
C30 C15 1_555 1_555
H23 C30 1_555 1_555
C31 C20 1_555 1_555
H24 C31 1_555 1_555
C32 C17 1_555 1_555
H25 C32 1_555 1_555
O4 S1 1_555 1_555
C6 C7 1_555 1_555
C10 C14 1_555 1_555
C11 C13 1_555 1_555
C12 C29 1_555 1_555
C18 C19 1_555 1_555
C20 C26 1_555 1_555
C23 C24 1_555 1_555
C23 C25 1_555 1_555
C27 C31 1_555 1_555
C28 C30 1_555 1_555
C28 C32 1_555 1_555

#END
