
#######################################################################
#
#                 Cambridge Crystallographic Data Centre
#                                CCDC 
#
#######################################################################
#
# If this CIF has been generated from an entry in the Cambridge 
# Structural Database, then it will include bibliographic, chemical, 
# crystal, experimental, refinement or atomic coordinate data resulting 
# from the CCDC's data processing and validation procedures.
#
#######################################################################

data_QEVFIJ
_chemical_formula_moiety         'C15 H7 Cl1 F1 N1 O1'
_chemical_name_systematic        1-chloro-9-fluoro[1]benzopyrano[2,3-b]indole
_symmetry_cell_setting           monoclinic
_symmetry_space_group_name_H-M   'P 21/n'
_symmetry_Int_Tables_number      14
_space_group_name_Hall           '-P 2yn'
loop_
_symmetry_equiv_pos_site_id
_symmetry_equiv_pos_as_xyz
1 x,y,z
2 1/2-x,1/2+y,1/2-z
3 -x,-y,-z
4 1/2+x,1/2-y,1/2+z
_cell_length_a                   8.9388(2)
_cell_length_b                   9.7832(2)
_cell_length_c                   13.5584(3)
_cell_angle_alpha                90
_cell_angle_beta                 107.860(3)
_cell_angle_gamma                90
_cell_volume                     1128.54
_exptl_crystal_colour            'dark red'
_exptl_crystal_description       block
_cell_formula_units_Z            4
loop_
_atom_site_label
_atom_site_type_symbol
_atom_site_fract_x
_atom_site_fract_y
_atom_site_fract_z
Cl1 Cl -0.05987(6) 0.43789(6) 0.24166(3)
O1 O 0.24969(16) 0.36173(13) 0.62504(10)
F1 F 0.66763(17) 0.94103(13) 0.52433(14)
N1 N 0.4554(2) 0.50688(18) 0.70154(13)
C1 C 0.1041(2) 0.40091(17) 0.44425(13)
C2 C 0.3418(2) 0.46960(18) 0.62193(14)
C3 C 0.2024(2) 0.51623(18) 0.44065(13)
H1 H 0.1867(2) 0.56628(18) 0.37999(13)
C4 C 0.4408(2) 0.65199(18) 0.56021(14)
C5 C 0.1307(2) 0.32632(18) 0.53665(14)
C6 C 0.3182(2) 0.54967(16) 0.52780(14)
C7 C 0.5193(2) 0.6214(2) 0.66492(14)
C8 C -0.0212(2) 0.35454(19) 0.35955(14)
C9 C 0.0410(2) 0.21445(19) 0.54584(16)
H2 H 0.0617(2) 0.16789(19) 0.60840(16)
C10 C 0.4897(2) 0.7601(2) 0.51052(16)
H3 H 0.4397(2) 0.7809(2) 0.44131(16)
C11 C 0.6478(2) 0.6982(2) 0.72132(17)
H4 H 0.7000(2) 0.6776(2) 0.79029(17)
C12 C -0.0796(3) 0.1735(2) 0.46045(18)
H5 H -0.1404(3) 0.0982(2) 0.46542(18)
C13 C -0.1117(2) 0.2432(2) 0.36702(16)
H6 H -0.1937(2) 0.2151(2) 0.30991(16)
C14 C 0.6169(2) 0.83439(19) 0.57011(18)
C15 C 0.6967(2) 0.8066(2) 0.67222(18)
H7 H 0.7824(2) 0.8597(2) 0.70804(18)
loop_
_geom_bond_atom_site_label_1
_geom_bond_atom_site_label_2
_geom_bond_site_symmetry_1
_geom_bond_site_symmetry_2
Cl1 C8 1_555 1_555
O1 C2 1_555 1_555
F1 C14 1_555 1_555
N1 C2 1_555 1_555
C1 C3 1_555 1_555
C2 C6 1_555 1_555
C3 H1 1_555 1_555
C4 C6 1_555 1_555
C5 O1 1_555 1_555
C6 C3 1_555 1_555
C7 N1 1_555 1_555
C8 C1 1_555 1_555
C9 C5 1_555 1_555
H2 C9 1_555 1_555
C10 C4 1_555 1_555
H3 C10 1_555 1_555
C11 C7 1_555 1_555
H4 C11 1_555 1_555
C12 C9 1_555 1_555
H5 C12 1_555 1_555
C13 C8 1_555 1_555
H6 C13 1_555 1_555
C14 C10 1_555 1_555
C15 C11 1_555 1_555
H7 C15 1_555 1_555
C1 C5 1_555 1_555
C4 C7 1_555 1_555
C12 C13 1_555 1_555
C14 C15 1_555 1_555

#END
