
#######################################################################
#
#                 Cambridge Crystallographic Data Centre
#                                CCDC 
#
#######################################################################
#
# If this CIF has been generated from an entry in the Cambridge 
# Structural Database, then it will include bibliographic, chemical, 
# crystal, experimental, refinement or atomic coordinate data resulting 
# from the CCDC's data processing and validation procedures.
#
#######################################################################

data_QEVFEF
_chemical_formula_moiety         'C40 H56 Na4 O38 4-,2(C12 H14 N2 2+),8(H2 O1)'
_chemical_name_systematic        
"bis(1,1'-dimethyl-4,4'-bipyridin-1-ium) bis(\m-2,2',2'',2'''-[[1,1'-biphenyl]-2,2',5,5'-tetrayltetrakis(oxy)]tetraacetato)-bis(\m-aqua)-dodeca-aqua-tetra-sodium octahydrate"
_symmetry_cell_setting           monoclinic
_symmetry_space_group_name_H-M   'C 2/c'
_symmetry_Int_Tables_number      15
_space_group_name_Hall           '-C 2yn'
loop_
_symmetry_equiv_pos_site_id
_symmetry_equiv_pos_as_xyz
1 x,y,z
2 -x,y,1/2-z
3 1/2+x,1/2+y,z
4 1/2-x,1/2+y,1/2-z
5 -x,-y,-z
6 x,-y,1/2+z
7 1/2-x,1/2-y,-z
8 1/2+x,1/2-y,1/2+z
_cell_length_a                   29.1539(5)
_cell_length_b                   14.0671(3)
_cell_length_c                   24.2333(7)
_cell_angle_alpha                90
_cell_angle_beta                 126.1560(10)
_cell_angle_gamma                90
_cell_volume                     8024.35
_exptl_crystal_colour            colorless
_exptl_crystal_description       block
_cell_formula_units_Z            4
loop_
_atom_site_label
_atom_site_type_symbol
_atom_site_fract_x
_atom_site_fract_y
_atom_site_fract_z
Na1 Na 0.25310(9) 0.70665(18) 0.70731(12)
Na2 Na 0.34268(12) 0.5584(2) 0.86557(13)
O1 O 0.53348(14) 0.4671(2) 0.94049(16)
O2 O 0.3959(2) 0.4135(4) 0.8929(3)
O3 O 0.4766(2) 0.3245(4) 0.9473(3)
O4 O 0.59062(13) 0.3114(2) 0.77838(16)
O5 O 0.63554(15) 0.4783(2) 0.7732(2)
O6 O 0.72082(15) 0.4125(3) 0.8197(2)
O7 O 0.33030(15) 0.8099(3) 0.57728(18)
O8 O 0.2740(2) 0.8461(4) 0.6733(3)
O9 O 0.2921(2) 0.9495(3) 0.6180(3)
O10 O 0.54685(14) 0.9547(2) 0.70144(17)
O11 O 0.58774(16) 0.7896(3) 0.6867(2)
O12 O 0.60402(19) 0.8587(3) 0.6165(2)
O13 O 0.34234(15) 0.6327(3) 0.77699(19)
O14 O 0.22718(18) 0.5834(3) 0.6169(2)
O15 O 0.28436(18) 0.7678(3) 0.8190(2)
O16 O 0.1592(3) 0.7351(7) 0.6590(4)
O17 O 0.40697(17) 0.6753(3) 0.9413(2)
O18 O 0.2571(2) 0.4889(5) 0.7731(3)
O19 O 0.2742(3) 0.6019(4) 0.8914(3)
C1 C 0.5445(2) 0.4251(3) 0.8980(2)
C2 C 0.50527(19) 0.4156(3) 0.8283(2)
H1 H 0.4669 0.4333 0.8073
C3 C 0.52133(18) 0.3801(3) 0.7879(2)
C4 C 0.57793(19) 0.3516(3) 0.8198(2)
C5 C 0.61662(19) 0.3598(3) 0.8900(3)
H2 H 0.6549 0.3406 0.9116
C6 C 0.6003(2) 0.3955(3) 0.9291(2)
H3 H 0.6272 0.3999 0.9773
C7 C 0.4763(2) 0.4829(4) 0.9144(3)
H4 H 0.4552 0.5035 0.8662
H5 H 0.4747 0.5354 0.9404
C8 C 0.4472(2) 0.3986(6) 0.9176(3)
C9 C 0.64818(19) 0.3123(3) 0.8007(3)
H6 H 0.6519 0.2678 0.7719
H7 H 0.6729 0.2887 0.8483
C10 C 0.6692(2) 0.4100(4) 0.7976(3)
C11 C 0.3846(2) 0.8470(3) 0.6116(3)
C12 C 0.4236(2) 0.8514(3) 0.6820(2)
H8 H 0.4127 0.8316 0.7102
C13 C 0.4790(2) 0.8849(3) 0.7121(2)
C14 C 0.4938(2) 0.9158(3) 0.6699(2)
C15 C 0.4540(2) 0.9131(3) 0.5989(3)
H9 H 0.4642 0.9350 0.5704
C16 C 0.3996(2) 0.8784(4) 0.5699(3)
H10 H 0.3728 0.8761 0.5216
C17 C 0.3098(2) 0.7840(4) 0.6164(3)
H11 H 0.3401 0.7488 0.6576
H12 H 0.2771 0.7404 0.5888
C18 C 0.2914(3) 0.8687(5) 0.6388(3)
C19 C 0.5718(2) 0.9571(3) 0.6656(3)
H13 H 0.6059 0.9982 0.6910
H14 H 0.5445 0.9861 0.6201
C20 C 0.5889(2) 0.8591(4) 0.6561(3)
H15 H 0.367(3) 0.678(4) 0.792(4)
H16 H 0.350(3) 0.588(4) 0.758(4)
H17 H 0.266(3) 0.811(4) 0.826(4)
H18 H 0.316(2) 0.803(5) 0.836(4)
H19 H 0.409(3) 0.732(4) 0.926(3)
H20 H 0.443(2) 0.675(5) 0.979(3)
H21 H 0.245(4) 0.524(5) 0.636(5)
H22 H 0.191(2) 0.559(8) 0.593(6)
O1A O 0.46652(14) 0.4671(2) 0.55951(16)
O2A O 0.6041(2) 0.4135(4) 0.6071(3)
O3A O 0.5234(2) 0.3245(4) 0.5527(3)
O4A O 0.40938(13) 0.3114(2) 0.72162(16)
O5A O 0.36446(15) 0.4783(2) 0.7268(2)
O6A O 0.27918(15) 0.4125(3) 0.6803(2)
C1A C 0.4555(2) 0.4251(3) 0.6020(2)
C2A C 0.49473(19) 0.4156(3) 0.6717(2)
H1A H 0.5331 0.4333 0.6927
C3A C 0.47867(18) 0.3801(3) 0.7121(2)
C4A C 0.42207(19) 0.3516(3) 0.6802(2)
C5A C 0.38338(19) 0.3598(3) 0.6100(3)
H2A H 0.3451 0.3406 0.5884
C6A C 0.3997(2) 0.3955(3) 0.5709(2)
H3A H 0.3728 0.3999 0.5227
C7A C 0.5237(2) 0.4829(4) 0.5856(3)
H4A H 0.5448 0.5035 0.6338
H5A H 0.5253 0.5354 0.5596
C8A C 0.5528(2) 0.3986(6) 0.5824(3)
C9A C 0.35182(19) 0.3123(3) 0.6993(3)
H6A H 0.3481 0.2678 0.7281
H7A H 0.3271 0.2887 0.6517
C10A C 0.3308(2) 0.4100(4) 0.7024(3)
O7A O 0.66970(15) 0.8099(3) 0.92272(18)
O8A O 0.7260(2) 0.8461(4) 0.8267(3)
O9A O 0.7079(2) 0.9495(3) 0.8820(3)
O10A O 0.45315(14) 0.9547(2) 0.79856(17)
O11A O 0.41226(16) 0.7896(3) 0.8133(2)
O12A O 0.39598(19) 0.8587(3) 0.8835(2)
C11A C 0.6154(2) 0.8470(3) 0.8884(3)
C12A C 0.5764(2) 0.8514(3) 0.8180(2)
H8A H 0.5873 0.8316 0.7898
C13A C 0.5210(2) 0.8849(3) 0.7879(2)
C14A C 0.5062(2) 0.9158(3) 0.8301(2)
C15A C 0.5460(2) 0.9131(3) 0.9011(3)
H9A H 0.5358 0.9350 0.9296
C16A C 0.6004(2) 0.8784(4) 0.9301(3)
H10A H 0.6272 0.8761 0.9784
C17A C 0.6902(2) 0.7840(4) 0.8836(3)
H11A H 0.6599 0.7488 0.8424
H12A H 0.7229 0.7404 0.9112
C18A C 0.7086(3) 0.8687(5) 0.8612(3)
C19A C 0.4282(2) 0.9571(3) 0.8344(3)
H13A H 0.3941 0.9982 0.8090
H14A H 0.4555 0.9861 0.8799
C20A C 0.4111(2) 0.8591(4) 0.8439(3)
Na1A Na 0.74690(9) 0.70665(18) 0.79269(12)
Na2A Na 0.65732(12) 0.5584(2) 0.63443(13)
O13A O 0.65766(15) 0.6327(3) 0.72301(19)
O14A O 0.77282(18) 0.5834(3) 0.8831(2)
O15A O 0.71564(18) 0.7678(3) 0.6810(2)
O16A O 0.8408(3) 0.7351(7) 0.8410(4)
O17A O 0.59303(17) 0.6753(3) 0.5587(2)
O18A O 0.7429(2) 0.4889(5) 0.7269(3)
O19A O 0.7258(3) 0.6019(4) 0.6086(3)
H15A H 0.633(3) 0.678(4) 0.708(4)
H16A H 0.650(3) 0.588(4) 0.742(4)
H17A H 0.734(3) 0.811(4) 0.674(4)
H18A H 0.684(2) 0.803(5) 0.664(4)
H19A H 0.591(3) 0.732(4) 0.574(3)
H20A H 0.557(2) 0.675(5) 0.521(3)
H21A H 0.755(4) 0.524(5) 0.864(5)
H22A H 0.809(2) 0.559(8) 0.907(6)
N1 N 0.60097(18) 0.1389(3) 0.9272(2)
C21 C 0.5474(2) 0.1684(4) 0.8993(3)
H23 H 0.5377 0.1916 0.9280
C22 C 0.5070(2) 0.1652(3) 0.8300(3)
H24 H 0.4692 0.1851 0.8108
C23 C 0.5212(2) 0.1328(3) 0.7875(3)
C24 C 0.5767(2) 0.1018(3) 0.8179(3)
H25 H 0.5876 0.0787 0.7904
C25 C 0.6156(2) 0.1046(3) 0.8879(3)
H26 H 0.6532 0.0820 0.9086
C26 C 0.6438(3) 0.1448(4) 1.0018(3)
H27 H 0.6246 0.1508 1.0239
H28 H 0.6680 0.2004 1.0129
H29 H 0.6672 0.0871 1.0181
N1A N 0.39903(18) 0.1389(3) 0.5728(2)
C21A C 0.4526(2) 0.1684(4) 0.6007(3)
H23A H 0.4623 0.1916 0.5720
C22A C 0.4930(2) 0.1652(3) 0.6700(3)
H24A H 0.5308 0.1851 0.6892
C23A C 0.4788(2) 0.1328(3) 0.7125(3)
C24A C 0.4233(2) 0.1018(3) 0.6821(3)
H25A H 0.4124 0.0787 0.7096
C25A C 0.3844(2) 0.1046(3) 0.6121(3)
H26A H 0.3468 0.0820 0.5914
C26A C 0.3562(3) 0.1448(4) 0.4982(3)
H27A H 0.3754 0.1508 0.4761
H28A H 0.3320 0.2004 0.4871
H29A H 0.3328 0.0871 0.4819
N2 N 0.5995(2) 0.6350(3) 0.9278(3)
C27 C 0.6146(2) 0.6032(4) 0.8879(3)
H30 H 0.6522 0.5809 0.9086
C28 C 0.5766(2) 0.6029(3) 0.8185(3)
H31 H 0.5880 0.5816 0.7911
C29 C 0.5210(2) 0.6338(3) 0.7876(3)
C30 C 0.5060(2) 0.6649(4) 0.8296(3)
H32 H 0.4684 0.6857 0.8101
C31 C 0.5458(3) 0.6655(4) 0.8990(3)
H33 H 0.5355 0.6876 0.9274
C32 C 0.6413(3) 0.6366(5) 1.0023(4)
H34 H 0.6610 0.6980 1.0164
H35 H 0.6690 0.5854 1.0163
H36 H 0.6220 0.6275 1.0239
N2A N 0.4005(2) 0.6350(3) 0.5722(3)
C27A C 0.3854(2) 0.6032(4) 0.6121(3)
H30A H 0.3478 0.5809 0.5914
C28A C 0.4234(2) 0.6029(3) 0.6815(3)
H31A H 0.4120 0.5816 0.7089
C29A C 0.4790(2) 0.6338(3) 0.7124(3)
C30A C 0.4940(2) 0.6649(4) 0.6704(3)
H32A H 0.5316 0.6857 0.6899
C31A C 0.4542(3) 0.6655(4) 0.6010(3)
H33A H 0.4645 0.6876 0.5726
C32A C 0.3587(3) 0.6366(5) 0.4977(4)
H34A H 0.3390 0.6980 0.4836
H35A H 0.3310 0.5854 0.4837
H36A H 0.3780 0.6275 0.4761
O20 O 0.24876(19) 0.9731(4) 0.4782(2)
H37 H 0.264(3) 0.961(5) 0.518(2)
H38 H 0.255(4) 0.955(7) 0.452(4)
O21 O 0.24839(19) 0.6590(4) 0.9784(3)
H39 H 0.261(4) 0.647(6) 0.954(4)
H40 H 0.243(6) 0.718(4) 0.981(7)
O22 O 0.3840(2) 0.0370(4) 0.9259(3)
H41 H 0.390(4) -0.015(5) 0.909(5)
H42 H 0.406(7) 0.084(7) 0.923(9)
O23 O 0.4857(3) 0.1349(5) 0.9798(3)
loop_
_geom_bond_atom_site_label_1
_geom_bond_atom_site_label_2
_geom_bond_site_symmetry_1
_geom_bond_site_symmetry_2
Na1 O8 1_555 1_555
Na2 O2 1_555 1_555
O1 C1 1_555 1_555
O2 C8 1_555 1_555
O3 C8 1_555 1_555
O4 C4 1_555 1_555
O5 C10 1_555 1_555
O6 C10 1_555 1_555
O7 C11 1_555 1_555
O8 C18 1_555 1_555
O9 C18 1_555 1_555
O10 C14 1_555 1_555
O11 C20 1_555 1_555
O12 C20 1_555 1_555
O13 Na1 1_555 1_555
O14 Na1 1_555 1_555
O15 Na1 1_555 1_555
O16 Na1 1_555 1_555
O17 Na2 1_555 1_555
O18 Na2 1_555 1_555
O19 Na2 1_555 1_555
C1 C2 1_555 1_555
C2 H1 1_555 1_555
C3 C2 1_555 1_555
C4 C3 1_555 1_555
C5 C4 1_555 1_555
H2 C5 1_555 1_555
C6 C1 1_555 1_555
H3 C6 1_555 1_555
C7 O1 1_555 1_555
H4 C7 1_555 1_555
H5 C7 1_555 1_555
C8 C7 1_555 1_555
C9 O4 1_555 1_555
H6 C9 1_555 1_555
H7 C9 1_555 1_555
C10 C9 1_555 1_555
C11 C12 1_555 1_555
C12 H8 1_555 1_555
C13 C12 1_555 1_555
C14 C13 1_555 1_555
C15 C14 1_555 1_555
H9 C15 1_555 1_555
C16 C11 1_555 1_555
H10 C16 1_555 1_555
C17 O7 1_555 1_555
H11 C17 1_555 1_555
H12 C17 1_555 1_555
C18 C17 1_555 1_555
C19 O10 1_555 1_555
H13 C19 1_555 1_555
H14 C19 1_555 1_555
C20 C19 1_555 1_555
H15 O13 1_555 1_555
H16 O13 1_555 1_555
H17 O15 1_555 1_555
H18 O15 1_555 1_555
H19 O17 1_555 1_555
H20 O17 1_555 1_555
H21 O14 1_555 1_555
H22 O14 1_555 1_555
N1 C21 1_555 1_555
C21 H23 1_555 1_555
C22 C21 1_555 1_555
H24 C22 1_555 1_555
C23 C22 1_555 1_555
C24 C23 1_555 1_555
H25 C24 1_555 1_555
C25 N1 1_555 1_555
H26 C25 1_555 1_555
C26 N1 1_555 1_555
H27 C26 1_555 1_555
H28 C26 1_555 1_555
H29 C26 1_555 1_555
N2 C27 1_555 1_555
C27 H30 1_555 1_555
C28 C27 1_555 1_555
H31 C28 1_555 1_555
C29 C28 1_555 1_555
C30 C29 1_555 1_555
H32 C30 1_555 1_555
C31 N2 1_555 1_555
H33 C31 1_555 1_555
C32 N2 1_555 1_555
H34 C32 1_555 1_555
H35 C32 1_555 1_555
H36 C32 1_555 1_555
O20 H37 1_555 1_555
H38 O20 1_555 1_555
O21 H39 1_555 1_555
H40 O21 1_555 1_555
O22 H41 1_555 1_555
H42 O22 1_555 1_555
O1A C1A 1_555 1_555
O2A C8A 1_555 1_555
O3A C8A 1_555 1_555
O4A C4A 1_555 1_555
O5A C10A 1_555 1_555
O6A C10A 1_555 1_555
C1A C2A 1_555 1_555
C2A H1A 1_555 1_555
C3A C3 1_555 1_555
C4A C3A 1_555 1_555
C5A C4A 1_555 1_555
H2A C5A 1_555 1_555
C6A C1A 1_555 1_555
H3A C6A 1_555 1_555
C7A O1A 1_555 1_555
H4A C7A 1_555 1_555
H5A C7A 1_555 1_555
C8A C7A 1_555 1_555
C9A O4A 1_555 1_555
H6A C9A 1_555 1_555
H7A C9A 1_555 1_555
C10A C9A 1_555 1_555
O7A C11A 1_555 1_555
O8A C18A 1_555 1_555
O9A C18A 1_555 1_555
O10A C14A 1_555 1_555
O11A C20A 1_555 1_555
O12A C20A 1_555 1_555
C11A C12A 1_555 1_555
C12A H8A 1_555 1_555
C13A C13 1_555 1_555
C14A C13A 1_555 1_555
C15A C14A 1_555 1_555
H9A C15A 1_555 1_555
C16A C11A 1_555 1_555
H10A C16A 1_555 1_555
C17A O7A 1_555 1_555
H11A C17A 1_555 1_555
H12A C17A 1_555 1_555
C18A C17A 1_555 1_555
C19A O10A 1_555 1_555
H13A C19A 1_555 1_555
H14A C19A 1_555 1_555
C20A C19A 1_555 1_555
Na1A O8A 1_555 1_555
Na2A O2A 1_555 1_555
O13A Na1A 1_555 1_555
O14A Na1A 1_555 1_555
O15A Na1A 1_555 1_555
O16A Na1A 1_555 1_555
O17A Na2A 1_555 1_555
O18A Na2A 1_555 1_555
O19A Na2A 1_555 1_555
H15A O13A 1_555 1_555
H16A O13A 1_555 1_555
H17A O15A 1_555 1_555
H18A O15A 1_555 1_555
H19A O17A 1_555 1_555
H20A O17A 1_555 1_555
H21A O14A 1_555 1_555
H22A O14A 1_555 1_555
N1A C21A 1_555 1_555
C21A H23A 1_555 1_555
C22A C21A 1_555 1_555
H24A C22A 1_555 1_555
C23A C23 1_555 1_555
C24A C23A 1_555 1_555
H25A C24A 1_555 1_555
C25A N1A 1_555 1_555
H26A C25A 1_555 1_555
C26A N1A 1_555 1_555
H27A C26A 1_555 1_555
H28A C26A 1_555 1_555
H29A C26A 1_555 1_555
N2A C27A 1_555 1_555
C27A H30A 1_555 1_555
C28A C27A 1_555 1_555
H31A C28A 1_555 1_555
C29A C29 1_555 1_555
C30A C29A 1_555 1_555
H32A C30A 1_555 1_555
C31A N2A 1_555 1_555
H33A C31A 1_555 1_555
C32A N2A 1_555 1_555
H34A C32A 1_555 1_555
H35A C32A 1_555 1_555
H36A C32A 1_555 1_555
Na2 O13 1_555 1_555
C5 C6 1_555 1_555
C15 C16 1_555 1_555
C24 C25 1_555 1_555
C30 C31 1_555 1_555
C2A C3A 1_555 1_555
C5A C6A 1_555 1_555
C12A C13A 1_555 1_555
C15A C16A 1_555 1_555
Na2A O13A 1_555 1_555
C22A C23A 1_555 1_555
C24A C25A 1_555 1_555
C28A C29A 1_555 1_555
C30A C31A 1_555 1_555

#END
