
#######################################################################
#
#                 Cambridge Crystallographic Data Centre
#                                CCDC 
#
#######################################################################
#
# If this CIF has been generated from an entry in the Cambridge 
# Structural Database, then it will include bibliographic, chemical, 
# crystal, experimental, refinement or atomic coordinate data resulting 
# from the CCDC's data processing and validation procedures.
#
#######################################################################

data_QEVLEL
_chemical_name_common            
(E)-2-(3-nitrobenzylidene)-2,3-dihydro-1H-tetral-1-one
_chemical_formula_moiety         'C17 H13 N1 O3'
_chemical_name_systematic        
(E)-2-(3-nitrobenzylidene)-3,4-dihydronaphthalen-1(2H)-one
_symmetry_cell_setting           triclinic
_symmetry_space_group_name_H-M   'P -1'
_symmetry_Int_Tables_number      2
_space_group_name_Hall           '-P 1'
loop_
_symmetry_equiv_pos_site_id
_symmetry_equiv_pos_as_xyz
1 x,y,z
2 -x,-y,-z
_cell_length_a                   7.8859(7)
_cell_length_b                   8.0863(8)
_cell_length_c                   12.3613(11)
_cell_angle_alpha                89.580(8)
_cell_angle_beta                 73.057(8)
_cell_angle_gamma                60.907(10)
_cell_volume                     650.334
_exptl_crystal_colour            colorless
_exptl_crystal_description       block
_cell_formula_units_Z            2
loop_
_atom_site_label
_atom_site_type_symbol
_atom_site_fract_x
_atom_site_fract_y
_atom_site_fract_z
O1 O 0.2294(2) 0.7083(2) 0.56642(12)
O2 O 1.0988(2) 0.0923(2) 0.07395(13)
O3 O 1.1306(2) 0.1642(2) -0.09641(13)
N1 N 1.0363(3) 0.1989(3) 0.00657(15)
C1 C 0.1245(3) 0.7278(3) 0.50567(18)
C2 C 0.2074(3) 0.7072(3) 0.37862(17)
C3 C 0.0501(3) 0.7794(3) 0.31846(17)
H1 H 0.1201 0.7361 0.2349
H2 H -0.0276 0.9214 0.3326
C4 C -0.0977(3) 0.7051(3) 0.36146(17)
H3 H -0.2047 0.7597 0.3242
H4 H -0.0218 0.5639 0.3401
C5 C -0.3963(3) 0.7917(3) 0.54208(19)
H5 H -0.4686 0.7764 0.4972
C6 C -0.1980(3) 0.7581(3) 0.48899(17)
C7 C -0.4887(3) 0.8469(3) 0.65894(19)
H6 H -0.6245 0.8704 0.6938
C8 C -0.3848(3) 0.8684(3) 0.72618(18)
H7 H -0.4504 0.9095 0.8065
C9 C -0.1861(3) 0.8299(3) 0.67566(18)
H8 H -0.1130 0.8406 0.7216
C10 C -0.0924(3) 0.7752(3) 0.55744(17)
C11 C 0.5322(3) 0.5814(3) 0.20803(17)
C12 C 0.7241(3) 0.4148(3) 0.16558(17)
H9 H 0.7760 0.3269 0.2150
C13 C 0.8378(3) 0.3787(3) 0.05132(17)
C14 C 0.7733(3) 0.5049(3) -0.02348(18)
H10 H 0.8555 0.4775 -0.1017
C15 C 0.5855(3) 0.6720(3) 0.01920(18)
H11 H 0.5375 0.7618 -0.0301
C16 C 0.4668(3) 0.7098(3) 0.13315(18)
H12 H 0.3381 0.8256 0.1610
C17 C 0.4118(3) 0.6171(3) 0.32997(17)
H13 H 0.4890 0.5701 0.3807
loop_
_geom_bond_atom_site_label_1
_geom_bond_atom_site_label_2
_geom_bond_site_symmetry_1
_geom_bond_site_symmetry_2
O1 C1 1_555 1_555
O2 N1 1_555 1_555
O3 N1 1_555 1_555
N1 C13 1_555 1_555
C1 C2 1_555 1_555
C2 C3 1_555 1_555
C3 H1 1_555 1_555
H2 C3 1_555 1_555
C4 C3 1_555 1_555
H3 C4 1_555 1_555
H4 C4 1_555 1_555
C5 H5 1_555 1_555
C6 C4 1_555 1_555
C7 C5 1_555 1_555
H6 C7 1_555 1_555
C8 C7 1_555 1_555
H7 C8 1_555 1_555
C9 C8 1_555 1_555
H8 C9 1_555 1_555
C10 C1 1_555 1_555
C11 C12 1_555 1_555
C12 H9 1_555 1_555
C13 C12 1_555 1_555
C14 C13 1_555 1_555
H10 C14 1_555 1_555
C15 C14 1_555 1_555
H11 C15 1_555 1_555
C16 C11 1_555 1_555
H12 C16 1_555 1_555
C17 C2 1_555 1_555
H13 C17 1_555 1_555
C5 C6 1_555 1_555
C6 C10 1_555 1_555
C9 C10 1_555 1_555
C11 C17 1_555 1_555
C15 C16 1_555 1_555

#END
