
#######################################################################
#
#                 Cambridge Crystallographic Data Centre
#                                CCDC 
#
#######################################################################
#
# If this CIF has been generated from an entry in the Cambridge 
# Structural Database, then it will include bibliographic, chemical, 
# crystal, experimental, refinement or atomic coordinate data resulting 
# from the CCDC's data processing and validation procedures.
#
#######################################################################

data_QEVLUB
_chemical_name_common            
(E)-2-(4-dimethylaminobenzylidene)-2,3-dihydro-1H-tetral-1-one
_chemical_formula_moiety         'C19 H19 N1 O1'
_chemical_name_systematic        
(E)-2-(4-(dimethylamino)benzylidene)-3,4-dihydronaphthalen-1(2H)-one
_symmetry_cell_setting           triclinic
_symmetry_space_group_name_H-M   'P -1'
_symmetry_Int_Tables_number      2
_space_group_name_Hall           '-P 1'
loop_
_symmetry_equiv_pos_site_id
_symmetry_equiv_pos_as_xyz
1 x,y,z
2 -x,-y,-z
_cell_length_a                   7.8823(2)
_cell_length_b                   9.4191(2)
_cell_length_c                   9.8154(3)
_cell_angle_alpha                84.802(2)
_cell_angle_beta                 83.254(2)
_cell_angle_gamma                78.677(2)
_cell_volume                     707.896
_exptl_crystal_colour            yellow
_exptl_crystal_description       block
_cell_formula_units_Z            2
loop_
_atom_site_label
_atom_site_type_symbol
_atom_site_fract_x
_atom_site_fract_y
_atom_site_fract_z
O1 O 0.30090(9) 0.66475(8) 0.94033(8)
N1 N 0.79782(10) -0.02359(8) 0.45279(8)
C1 C 0.20132(12) 0.62279(10) 0.87226(9)
C2 C 0.26185(12) 0.51080(10) 0.77108(9)
C3 C 0.13460(12) 0.49361(10) 0.67317(10)
H1 H 0.1763 0.4018 0.6275
H2 H 0.1274 0.5747 0.6012
C4 C -0.04650(12) 0.49215(10) 0.74954(10)
H3 H -0.1300 0.4904 0.6821
H4 H -0.0426 0.4030 0.8117
C5 C -0.28554(12) 0.68312(11) 0.85469(10)
H5 H -0.3684 0.6399 0.8187
C6 C -0.10855(12) 0.62307(10) 0.83223(9)
C7 C -0.34135(13) 0.80508(11) 0.92901(10)
H6 H -0.4620 0.8449 0.9432
C8 C -0.22185(13) 0.86951(11) 0.98295(10)
H7 H -0.2604 0.9539 1.0326
C9 C -0.04610(13) 0.80978(10) 0.96376(10)
H8 H 0.0357 0.8524 1.0018
C10 C 0.01140(12) 0.68664(10) 0.88837(9)
C11 C 0.51802(12) 0.31809(10) 0.68878(10)
C12 C 0.64079(12) 0.20560(10) 0.74492(9)
H9 H 0.6632 0.2078 0.8376
C13 C 0.72974(12) 0.09211(10) 0.66956(10)
H10 H 0.8082 0.0163 0.7124
C14 C 0.70579(11) 0.08707(9) 0.52991(9)
C15 C 0.58979(12) 0.20350(10) 0.47086(9)
H11 H 0.5739 0.2057 0.3762
C16 C 0.49861(12) 0.31476(10) 0.54894(10)
H12 H 0.4205 0.3911 0.5064
C17 C 0.42297(12) 0.42970(10) 0.77812(10)
H13 H 0.4828 0.4478 0.8514
C18 C 0.88152(12) -0.15813(10) 0.52101(10)
H14 H 0.7926 -0.2101 0.5678
H15 H 0.9533 -0.1363 0.5886
H16 H 0.9551 -0.2187 0.4527
C19 C 0.75949(13) -0.03077(10) 0.31275(10)
H17 H 0.6390 -0.0436 0.3134
H18 H 0.8384 -0.1130 0.2713
H19 H 0.7752 0.0594 0.2590
loop_
_geom_bond_atom_site_label_1
_geom_bond_atom_site_label_2
_geom_bond_site_symmetry_1
_geom_bond_site_symmetry_2
O1 C1 1_555 1_555
N1 C14 1_555 1_555
C1 C2 1_555 1_555
C2 C3 1_555 1_555
C3 H1 1_555 1_555
H2 C3 1_555 1_555
C4 C3 1_555 1_555
H3 C4 1_555 1_555
H4 C4 1_555 1_555
C5 H5 1_555 1_555
C6 C4 1_555 1_555
C7 C5 1_555 1_555
H6 C7 1_555 1_555
C8 C7 1_555 1_555
H7 C8 1_555 1_555
C9 C8 1_555 1_555
H8 C9 1_555 1_555
C10 C1 1_555 1_555
C11 C12 1_555 1_555
C12 H9 1_555 1_555
C13 C12 1_555 1_555
H10 C13 1_555 1_555
C14 C13 1_555 1_555
C15 C14 1_555 1_555
H11 C15 1_555 1_555
C16 C11 1_555 1_555
H12 C16 1_555 1_555
C17 C2 1_555 1_555
H13 C17 1_555 1_555
C18 N1 1_555 1_555
H14 C18 1_555 1_555
H15 C18 1_555 1_555
H16 C18 1_555 1_555
C19 N1 1_555 1_555
H17 C19 1_555 1_555
H18 C19 1_555 1_555
H19 C19 1_555 1_555
C5 C6 1_555 1_555
C6 C10 1_555 1_555
C9 C10 1_555 1_555
C11 C17 1_555 1_555
C15 C16 1_555 1_555

#END
