
#######################################################################
#
#                 Cambridge Crystallographic Data Centre
#                                CCDC 
#
#######################################################################
#
# If this CIF has been generated from an entry in the Cambridge 
# Structural Database, then it will include bibliographic, chemical, 
# crystal, experimental, refinement or atomic coordinate data resulting 
# from the CCDC's data processing and validation procedures.
#
#######################################################################

data_QEVLIP
_chemical_name_common            
(E)-2-(4-hydroxybenzylidene)-2,3-dihydro-1H-tetral-1-one
_chemical_formula_moiety         'C17 H14 O2'
_chemical_name_systematic        
(E)-2-(4-hydroxybenzylidene)-3,4-dihydronaphthalen-1(2H)-one
_symmetry_cell_setting           monoclinic
_symmetry_space_group_name_H-M   'C 2/c'
_symmetry_Int_Tables_number      15
_space_group_name_Hall           '-C 2yn'
loop_
_symmetry_equiv_pos_site_id
_symmetry_equiv_pos_as_xyz
1 x,y,z
2 -x,y,1/2-z
3 1/2+x,1/2+y,z
4 1/2-x,1/2+y,1/2-z
5 -x,-y,-z
6 x,-y,1/2+z
7 1/2-x,1/2-y,-z
8 1/2+x,1/2-y,1/2+z
_cell_length_a                   17.3268(3)
_cell_length_b                   9.3594(2)
_cell_length_c                   15.5904(3)
_cell_angle_alpha                90
_cell_angle_beta                 105.348(2)
_cell_angle_gamma                90
_cell_volume                     2438.1
_exptl_crystal_colour            colorless
_exptl_crystal_description       plate
_cell_formula_units_Z            8
loop_
_atom_site_label
_atom_site_type_symbol
_atom_site_fract_x
_atom_site_fract_y
_atom_site_fract_z
O1 O 0.58728(5) 0.17590(9) 0.61274(5)
O2 O 0.69077(5) 0.61426(10) 0.18865(6)
H1 H 0.6562(11) 0.686(2) 0.1652(12)
C1 C 0.52747(7) 0.19488(12) 0.54994(7)
C2 C 0.44931(7) 0.13478(12) 0.55369(7)
C3 C 0.66830(7) 0.54683(13) 0.25535(7)
C4 C 0.53016(7) 0.28304(12) 0.47159(7)
C5 C 0.60298(7) 0.30797(12) 0.45879(8)
H2 H 0.6467 0.2643 0.5005
C6 C 0.62371(7) 0.39312(13) 0.38942(8)
C7 C 0.38117(7) 0.14965(12) 0.48228(8)
C8 C 0.58389(7) 0.51870(13) 0.35421(8)
H3 H 0.5408 0.5522 0.3759
C9 C 0.60597(7) 0.59527(13) 0.28841(8)
H4 H 0.5785 0.6808 0.2659
C10 C 0.68879(7) 0.35042(13) 0.35783(8)
H5 H 0.7186 0.2683 0.3828
C11 C 0.71062(7) 0.42480(13) 0.29136(8)
H6 H 0.7543 0.3928 0.2703
C12 C 0.44383(7) 0.06848(13) 0.63232(8)
H7 H 0.4907 0.0553 0.6797
C13 C 0.45126(7) 0.33058(13) 0.41079(8)
H8 H 0.4594 0.3597 0.3528
H9 H 0.4313 0.4146 0.4371
C14 C 0.30782(7) 0.10330(13) 0.49274(8)
H10 H 0.2609 0.1142 0.4452
C15 C 0.37070(8) 0.02212(14) 0.64150(8)
H11 H 0.3671 -0.0226 0.6950
C16 C 0.38886(7) 0.21133(14) 0.39620(8)
H12 H 0.3364 0.2496 0.3624
H13 H 0.4042 0.1346 0.3602
C17 C 0.30245(8) 0.04147(13) 0.57174(9)
H14 H 0.2518 0.0121 0.5783
loop_
_geom_bond_atom_site_label_1
_geom_bond_atom_site_label_2
_geom_bond_site_symmetry_1
_geom_bond_site_symmetry_2
O1 C1 1_555 1_555
O2 H1 1_555 1_555
C1 C2 1_555 1_555
C2 C7 1_555 1_555
C3 O2 1_555 1_555
C4 C1 1_555 1_555
C5 C4 1_555 1_555
H2 C5 1_555 1_555
C6 C5 1_555 1_555
C7 C14 1_555 1_555
C8 C6 1_555 1_555
H3 C8 1_555 1_555
C9 C3 1_555 1_555
H4 C9 1_555 1_555
C10 C6 1_555 1_555
H5 C10 1_555 1_555
C11 C3 1_555 1_555
H6 C11 1_555 1_555
C12 C2 1_555 1_555
H7 C12 1_555 1_555
C13 C4 1_555 1_555
H8 C13 1_555 1_555
H9 C13 1_555 1_555
C14 H10 1_555 1_555
C15 C12 1_555 1_555
H11 C15 1_555 1_555
C16 C7 1_555 1_555
H12 C16 1_555 1_555
H13 C16 1_555 1_555
C17 C14 1_555 1_555
H14 C17 1_555 1_555
C8 C9 1_555 1_555
C10 C11 1_555 1_555
C13 C16 1_555 1_555
C15 C17 1_555 1_555

#END
