
#######################################################################
#
#                 Cambridge Crystallographic Data Centre
#                                CCDC 
#
#######################################################################
#
# If this CIF has been generated from an entry in the Cambridge 
# Structural Database, then it will include bibliographic, chemical, 
# crystal, experimental, refinement or atomic coordinate data resulting 
# from the CCDC's data processing and validation procedures.
#
#######################################################################

data_QEVMIQ
_chemical_name_common            
(E)-2-(4-cyanobenzylidene)-2,3-dihydro-6-methoxy-1H-inden-1-one
_chemical_formula_moiety         'C19 H15 N1 O2'
_chemical_name_systematic        
(E)-4-((6-methoxy-1-oxo-3,4-dihydronaphthalen-2(1H)-ylidene)methyl)benzonitrile
_symmetry_cell_setting           monoclinic
_symmetry_space_group_name_H-M   'P 21/c'
_symmetry_Int_Tables_number      14
_space_group_name_Hall           '-P 2ybc'
loop_
_symmetry_equiv_pos_site_id
_symmetry_equiv_pos_as_xyz
1 x,y,z
2 -x,1/2+y,1/2-z
3 -x,-y,-z
4 x,1/2-y,1/2+z
_cell_length_a                   13.8081(6)
_cell_length_b                   15.4037(4)
_cell_length_c                   6.9613(2)
_cell_angle_alpha                90
_cell_angle_beta                 103.236(4)
_cell_angle_gamma                90
_cell_volume                     1441.31
_exptl_crystal_colour            yellow
_exptl_crystal_description       plate
_cell_formula_units_Z            4
loop_
_atom_site_label
_atom_site_type_symbol
_atom_site_fract_x
_atom_site_fract_y
_atom_site_fract_z
O1 O 0.48021(9) 0.64327(8) 0.30040(15)
O2 O 0.94309(8) 0.65601(7) 0.69145(15)
N1 N 0.04807(11) 0.57804(9) 1.1864(2)
C1 C 0.52711(12) 0.63146(9) 0.4714(2)
C2 C 0.47349(12) 0.62010(9) 0.6351(2)
C3 C 0.53680(12) 0.61862(10) 0.8436(2)
H1 H 0.4991 0.5909 0.9320
H2 H 0.5524 0.6789 0.8897
C4 C 0.63344(12) 0.56886(10) 0.8543(2)
H3 H 0.6752 0.5722 0.9902
H4 H 0.6181 0.5070 0.8228
C5 C 0.69027(12) 0.60543(9) 0.7120(2)
C6 C 0.79237(12) 0.61284(9) 0.7593(2)
H5 H 0.8288 0.5937 0.8849
C7 C 0.84334(12) 0.64802(9) 0.6255(2)
C8 C 0.79051(12) 0.67390(9) 0.4378(2)
H6 H 0.8246 0.6964 0.3446
C9 C 0.68827(12) 0.66621(9) 0.3901(2)
H7 H 0.6523 0.6837 0.2629
C10 C 0.63630(12) 0.63333(9) 0.5244(2)
C11 C 0.30489(11) 0.60696(9) 0.7144(2)
C12 C 0.22162(12) 0.55288(9) 0.6619(2)
H8 H 0.2110 0.5211 0.5420
C13 C 0.15469(12) 0.54476(9) 0.7805(2)
H9 H 0.0994 0.5067 0.7445
C14 C 0.16930(12) 0.59339(9) 0.9549(2)
C15 C 0.24970(12) 0.65007(9) 1.0060(2)
H10 H 0.2582 0.6842 1.1223
C16 C 0.31719(12) 0.65660(9) 0.8870(2)
H11 H 0.3722 0.6950 0.9227
C17 C 0.37482(12) 0.61226(9) 0.5842(2)
H12 H 0.3461 0.6098 0.4465
C18 C 0.99581(12) 0.70233(10) 0.5680(2)
H13 H 0.9949 0.6684 0.4484
H14 H 1.0648 0.7116 0.6399
H15 H 0.9637 0.7586 0.5315
C19 C 0.10117(12) 0.58485(9) 1.0821(2)
loop_
_geom_bond_atom_site_label_1
_geom_bond_atom_site_label_2
_geom_bond_site_symmetry_1
_geom_bond_site_symmetry_2
O1 C1 1_555 1_555
O2 C7 1_555 1_555
N1 C19 1_555 1_555
C1 C2 1_555 1_555
C2 C3 1_555 1_555
C3 H1 1_555 1_555
H2 C3 1_555 1_555
C4 C3 1_555 1_555
H3 C4 1_555 1_555
H4 C4 1_555 1_555
C5 C4 1_555 1_555
C6 C5 1_555 1_555
H5 C6 1_555 1_555
C7 C6 1_555 1_555
C8 C7 1_555 1_555
H6 C8 1_555 1_555
C9 C8 1_555 1_555
H7 C9 1_555 1_555
C10 C1 1_555 1_555
C11 C12 1_555 1_555
C12 H8 1_555 1_555
C13 C12 1_555 1_555
H9 C13 1_555 1_555
C14 C13 1_555 1_555
C15 C14 1_555 1_555
H10 C15 1_555 1_555
C16 C11 1_555 1_555
H11 C16 1_555 1_555
C17 C2 1_555 1_555
H12 C17 1_555 1_555
C18 O2 1_555 1_555
H13 C18 1_555 1_555
H14 C18 1_555 1_555
H15 C18 1_555 1_555
C19 C14 1_555 1_555
C5 C10 1_555 1_555
C9 C10 1_555 1_555
C11 C17 1_555 1_555
C15 C16 1_555 1_555

#END
