
#######################################################################
#
#                 Cambridge Crystallographic Data Centre
#                                CCDC 
#
#######################################################################
#
# If this CIF has been generated from an entry in the Cambridge 
# Structural Database, then it will include bibliographic, chemical, 
# crystal, experimental, refinement or atomic coordinate data resulting 
# from the CCDC's data processing and validation procedures.
#
#######################################################################

data_QEVMEM
_chemical_name_common            
(E)-2-(4-cyanobenzylidene)-2,3-dihydro-5-methoxy-1H-inden-1-one
_chemical_formula_moiety         'C19 H15 N1 O2'
_chemical_name_systematic        
(E)-4-((5-methoxy-1-oxo-3,4-dihydronaphthalen-2(1H)-ylidene)methyl)benzonitrile
_symmetry_cell_setting           monoclinic
_symmetry_space_group_name_H-M   'P 21/c'
_symmetry_Int_Tables_number      14
_space_group_name_Hall           '-P 2ybc'
loop_
_symmetry_equiv_pos_site_id
_symmetry_equiv_pos_as_xyz
1 x,y,z
2 -x,1/2+y,1/2-z
3 -x,-y,-z
4 x,1/2-y,1/2+z
_cell_length_a                   14.4651(3)
_cell_length_b                   6.77380(10)
_cell_length_c                   14.5573(3)
_cell_angle_alpha                90
_cell_angle_beta                 94.951(2)
_cell_angle_gamma                90
_cell_volume                     1421.06
_exptl_crystal_colour            colorless
_exptl_crystal_description       plate
_cell_formula_units_Z            4
loop_
_atom_site_label
_atom_site_type_symbol
_atom_site_fract_x
_atom_site_fract_y
_atom_site_fract_z
O1 O 0.49177(6) 1.12410(12) 0.39464(6)
O2 O 0.82397(6) 0.62745(13) 0.36108(6)
N1 N 0.04532(8) 0.09687(19) 0.34265(8)
C1 C 0.53303(8) 0.96858(16) 0.38626(8)
C2 C 0.48204(8) 0.77858(16) 0.36667(7)
C3 C 0.53847(8) 0.59253(16) 0.36449(8)
H1 H 0.5031 0.4932 0.3259
H2 H 0.5487 0.5387 0.4278
C4 C 0.63229(8) 0.62645(17) 0.32631(8)
H3 H 0.6702 0.5052 0.3350
H4 H 0.6224 0.6529 0.2593
C5 C 0.78112(8) 0.79490(17) 0.38837(8)
C6 C 0.68401(8) 0.79590(16) 0.37257(7)
C7 C 0.82804(8) 0.95609(19) 0.42865(8)
H5 H 0.8937 0.9536 0.4394
C8 C 0.77868(9) 1.12132(18) 0.45330(8)
H6 H 0.8109 1.2318 0.4805
C9 C 0.68341(8) 1.12577(17) 0.43857(8)
H7 H 0.6500 1.2392 0.4552
C10 C 0.63603(8) 0.96235(16) 0.39899(7)
C11 C 0.31921(8) 0.63440(17) 0.34736(7)
C12 C 0.23090(8) 0.67837(18) 0.30501(8)
H8 H 0.2196 0.8049 0.2782
C13 C 0.16010(8) 0.54146(19) 0.30149(8)
H9 H 0.1010 0.5724 0.2714
C14 C 0.17622(8) 0.35697(18) 0.34250(8)
C15 C 0.26332(8) 0.31058(17) 0.38542(8)
H10 H 0.2740 0.1852 0.4136
C16 C 0.33402(8) 0.44754(17) 0.38687(7)
H11 H 0.3937 0.4145 0.4151
C17 C 0.38919(8) 0.79110(16) 0.35556(7)
H12 H 0.3651 0.9217 0.3526
C18 C 0.91984(9) 0.6044(2) 0.39115(10)
H13 H 0.9283 0.6141 0.4585
H14 H 0.9558 0.7082 0.3638
H15 H 0.9413 0.4749 0.3718
C19 C 0.10312(8) 0.21241(19) 0.34181(8)
loop_
_geom_bond_atom_site_label_1
_geom_bond_atom_site_label_2
_geom_bond_site_symmetry_1
_geom_bond_site_symmetry_2
O1 C1 1_555 1_555
O2 C5 1_555 1_555
N1 C19 1_555 1_555
C1 C2 1_555 1_555
C2 C3 1_555 1_555
C3 H1 1_555 1_555
H2 C3 1_555 1_555
C4 C3 1_555 1_555
H3 C4 1_555 1_555
H4 C4 1_555 1_555
C5 C6 1_555 1_555
C6 C4 1_555 1_555
C7 C5 1_555 1_555
H5 C7 1_555 1_555
C8 C7 1_555 1_555
H6 C8 1_555 1_555
C9 C8 1_555 1_555
H7 C9 1_555 1_555
C10 C1 1_555 1_555
C11 C12 1_555 1_555
C12 H8 1_555 1_555
C13 C12 1_555 1_555
H9 C13 1_555 1_555
C14 C13 1_555 1_555
C15 C14 1_555 1_555
H10 C15 1_555 1_555
C16 C11 1_555 1_555
H11 C16 1_555 1_555
C17 C2 1_555 1_555
H12 C17 1_555 1_555
C18 O2 1_555 1_555
H13 C18 1_555 1_555
H14 C18 1_555 1_555
H15 C18 1_555 1_555
C19 C14 1_555 1_555
C6 C10 1_555 1_555
C9 C10 1_555 1_555
C11 C17 1_555 1_555
C15 C16 1_555 1_555

#END
