
#######################################################################
#
#                 Cambridge Crystallographic Data Centre
#                                CCDC 
#
#######################################################################
#
# If this CIF has been generated from an entry in the Cambridge 
# Structural Database, then it will include bibliographic, chemical, 
# crystal, experimental, refinement or atomic coordinate data resulting 
# from the CCDC's data processing and validation procedures.
#
#######################################################################

data_QEVQAM
_chemical_formula_moiety         'C35 H30 N2 O2,H2 O1'
_chemical_name_systematic        
'11,11-bis(1H-indol-3-yl)-1,6,6-trimethyl-6,8,9,11-tetrahydrophenanthro[1,2-b]furan-10(7H)-one monohydrate'
_symmetry_cell_setting           monoclinic
_symmetry_space_group_name_H-M   'P 21/n'
_symmetry_Int_Tables_number      14
_space_group_name_Hall           '-P 2yn'
loop_
_symmetry_equiv_pos_site_id
_symmetry_equiv_pos_as_xyz
1 x,y,z
2 1/2-x,1/2+y,1/2-z
3 -x,-y,-z
4 1/2+x,1/2-y,1/2+z
_cell_length_a                   9.7715(11)
_cell_length_b                   17.0720(19)
_cell_length_c                   16.1634(18)
_cell_angle_alpha                90
_cell_angle_beta                 95.202(2)
_cell_angle_gamma                90
_cell_volume                     2685.26
_exptl_crystal_colour            brown
_exptl_crystal_description       block
_cell_formula_units_Z            4
loop_
_atom_site_label
_atom_site_type_symbol
_atom_site_fract_x
_atom_site_fract_y
_atom_site_fract_z
O1 O 0.34085(10) 0.23127(6) 0.50452(6)
O2 O 0.00933(10) 0.22192(6) 0.22326(6)
N1 N 0.37674(11) 0.48696(7) 0.43281(7)
N2 N -0.15099(12) 0.33392(7) 0.52445(7)
C1 C 0.30524(15) -0.06704(8) 0.54634(9)
H1 H 0.2973 -0.1162 0.5781
H2 H 0.4037 -0.0584 0.5393
C2 C 0.25120(16) 0.00090(8) 0.59471(8)
H3 H 0.2963 0.0011 0.6521
H4 H 0.1510 -0.0050 0.5977
C3 C 0.28093(14) 0.07771(8) 0.55135(8)
H5 H 0.2370 0.1214 0.5793
H6 H 0.3813 0.0871 0.5564
C4 C 0.22818(13) 0.07661(7) 0.46016(7)
C5 C 0.19771(12) 0.14782(7) 0.41694(7)
C6 C 0.24356(13) 0.22610(7) 0.45135(7)
C7 C 0.16926(13) 0.30311(7) 0.41950(7)
C8 C 0.05960(13) 0.31859(7) 0.47872(7)
C9 C 0.07657(13) 0.33523(7) 0.56683(8)
C10 C 0.18982(14) 0.34480(8) 0.62628(8)
H7 H 0.2809 0.3390 0.6110
C11 C 0.16673(16) 0.36286(9) 0.70760(8)
H8 H 0.2429 0.3696 0.7479
C12 C 0.03248(17) 0.37137(9) 0.73144(9)
H9 H 0.0197 0.3835 0.7876
C13 C 0.30884(16) -0.12695(9) 0.40617(10)
H10 H 0.2522 -0.1409 0.3552
H11 H 0.3376 -0.1747 0.4366
H12 H 0.3903 -0.0981 0.3920
C14 C 0.22506(14) -0.07534(8) 0.46073(8)
C15 C 0.19837(13) 0.00462(8) 0.41964(8)
C16 C 0.13619(14) 0.00532(8) 0.33768(8)
H13 H 0.1193 -0.0430 0.3095
C17 C 0.09913(14) 0.07409(8) 0.29705(8)
H14 H 0.0543 0.0728 0.2424
C18 C 0.12769(13) 0.14562(8) 0.33658(8)
C19 C 0.27292(13) 0.36884(8) 0.41841(7)
C20 C 0.26673(13) 0.44193(8) 0.45292(8)
H15 H 0.1969 0.4592 0.4859
C21 C 0.45693(13) 0.44237(8) 0.38516(8)
C22 C 0.58155(14) 0.46077(8) 0.35289(8)
H16 H 0.6249 0.5101 0.3633
C23 C 0.63867(15) 0.40437(9) 0.30542(9)
H17 H 0.7225 0.4154 0.2823
C24 C 0.57575(15) 0.33092(9) 0.29044(10)
H18 H 0.6168 0.2938 0.2565
C25 C 0.45481(14) 0.31187(8) 0.32450(8)
H19 H 0.4138 0.2618 0.3150
C26 C 0.39398(13) 0.36797(8) 0.37327(8)
C27 C -0.08021(13) 0.31814(8) 0.45662(8)
H20 H -0.1217 0.3083 0.4022
C28 C -0.05758(14) 0.34433(8) 0.59265(8)
C29 C -0.08106(16) 0.36234(9) 0.67465(9)
H21 H -0.1717 0.3681 0.6907
C30 C 0.09980(13) 0.29118(8) 0.33317(7)
C31 C 0.08473(13) 0.21910(8) 0.29912(7)
C32 C -0.02348(15) 0.30007(8) 0.21119(8)
H22 H -0.0773 0.3198 0.1638
C33 C 0.03058(14) 0.34537(8) 0.27536(8)
C34 C 0.02505(16) 0.43244(8) 0.28187(9)
H23 H -0.0316 0.4536 0.2339
H24 H 0.1183 0.4538 0.2829
H25 H -0.0152 0.4471 0.3331
C35 C 0.08647(15) -0.11571(9) 0.46986(10)
H26 H 0.0329 -0.0841 0.5059
H27 H 0.1027 -0.1678 0.4944
H28 H 0.0356 -0.1210 0.4150
O3 O 0.05960(10) 0.15663(6) 0.05752(6)
H29 H -0.0061(14) 0.1742(11) 0.0278(9)
H30 H 0.0538(18) 0.1748(10) 0.1046(7)
loop_
_geom_bond_atom_site_label_1
_geom_bond_atom_site_label_2
_geom_bond_site_symmetry_1
_geom_bond_site_symmetry_2
O1 C6 1_555 1_555
O2 C31 1_555 1_555
N1 C20 1_555 1_555
N2 C27 1_555 1_555
C1 H1 1_555 1_555
H2 C1 1_555 1_555
C2 C1 1_555 1_555
H3 C2 1_555 1_555
H4 C2 1_555 1_555
C3 C2 1_555 1_555
H5 C3 1_555 1_555
H6 C3 1_555 1_555
C4 C3 1_555 1_555
C5 C4 1_555 1_555
C6 C5 1_555 1_555
C7 C6 1_555 1_555
C8 C7 1_555 1_555
C9 C8 1_555 1_555
C10 C9 1_555 1_555
H7 C10 1_555 1_555
C11 C10 1_555 1_555
H8 C11 1_555 1_555
C12 C11 1_555 1_555
H9 C12 1_555 1_555
C13 H10 1_555 1_555
H11 C13 1_555 1_555
H12 C13 1_555 1_555
C14 C1 1_555 1_555
C15 C4 1_555 1_555
C16 C15 1_555 1_555
H13 C16 1_555 1_555
C17 C16 1_555 1_555
H14 C17 1_555 1_555
C18 C5 1_555 1_555
C19 C7 1_555 1_555
C20 C19 1_555 1_555
H15 C20 1_555 1_555
C21 N1 1_555 1_555
C22 C21 1_555 1_555
H16 C22 1_555 1_555
C23 C22 1_555 1_555
H17 C23 1_555 1_555
C24 C23 1_555 1_555
H18 C24 1_555 1_555
C25 C24 1_555 1_555
H19 C25 1_555 1_555
C26 C19 1_555 1_555
C27 C8 1_555 1_555
H20 C27 1_555 1_555
C28 N2 1_555 1_555
C29 C12 1_555 1_555
H21 C29 1_555 1_555
C30 C7 1_555 1_555
C31 C18 1_555 1_555
C32 O2 1_555 1_555
H22 C32 1_555 1_555
C33 C30 1_555 1_555
C34 C33 1_555 1_555
H23 C34 1_555 1_555
H24 C34 1_555 1_555
H25 C34 1_555 1_555
C35 C14 1_555 1_555
H26 C35 1_555 1_555
H27 C35 1_555 1_555
H28 C35 1_555 1_555
O3 H29 1_555 1_555
H30 O3 1_555 1_555
C9 C28 1_555 1_555
C13 C14 1_555 1_555
C14 C15 1_555 1_555
C17 C18 1_555 1_555
C21 C26 1_555 1_555
C25 C26 1_555 1_555
C28 C29 1_555 1_555
C30 C31 1_555 1_555
C32 C33 1_555 1_555

#END
