
#######################################################################
#
#                 Cambridge Crystallographic Data Centre
#                                CCDC 
#
#######################################################################
#
# If this CIF has been generated from an entry in the Cambridge 
# Structural Database, then it will include bibliographic, chemical, 
# crystal, experimental, refinement or atomic coordinate data resulting 
# from the CCDC's data processing and validation procedures.
#
#######################################################################

data_QEVSUF
_chemical_formula_moiety         'C11 H31 B10 P1,H1 Br1'
_chemical_name_systematic        
'1-(Di-t-butylphosphinomethyl)-1,2-dicarba-closo-dodecaborane(12) hydrobromide'
_symmetry_cell_setting           monoclinic
_symmetry_space_group_name_H-M   'C c'
_symmetry_Int_Tables_number      9
_space_group_name_Hall           'C -2yc'
loop_
_symmetry_equiv_pos_site_id
_symmetry_equiv_pos_as_xyz
1 x,y,z
2 x,-y,1/2+z
3 1/2+x,1/2+y,z
4 1/2+x,1/2-y,1/2+z
_cell_length_a                   11.7128(16)
_cell_length_b                   29.014(3)
_cell_length_c                   13.7743(18)
_cell_angle_alpha                90
_cell_angle_beta                 115.112(12)
_cell_angle_gamma                90
_cell_volume                     4238.54
_cell_formula_units_Z            8
_exptl_crystal_recrystallization_method hexane/dichloromethane
loop_
_atom_site_label
_atom_site_type_symbol
_atom_site_fract_x
_atom_site_fract_y
_atom_site_fract_z
Br1 Br 0.9458(1) 0.0544(1) 0.8912(1)
P1 P 0.9382(2) -0.0560(1) 0.7430(2)
C1 C 1.1752(8) -0.0519(3) 0.7249(7)
C2 C 1.2508(11) -0.0265(5) 0.8461(11)
C3 C 1.0426(8) -0.0728(3) 0.6803(8)
C4 C 0.9284(12) -0.1026(4) 0.8311(9)
C5 C 0.7893(9) -0.0354(4) 0.6361(8)
C6 C 1.0665(13) -0.1186(6) 0.9009(12)
C7 C 0.8736(18) -0.0831(5) 0.9045(13)
C8 C 0.8531(15) -0.1428(4) 0.7678(12)
C9 C 0.8224(11) 0.0084(4) 0.5921(10)
C10 C 0.6954(10) -0.0225(4) 0.6829(10)
C11 C 0.7291(11) -0.0712(5) 0.5460(10)
B1 B 1.3068(11) -0.0794(5) 0.8160(11)
B2 B 1.2727(12) -0.0779(6) 0.6751(14)
B3 B 1.2093(9) -0.0252(4) 0.6350(8)
B4 B 1.1872(11) 0.0075(4) 0.7282(10)
B5 B 1.4130(11) -0.0346(5) 0.8807(12)
B6 B 1.4276(13) -0.0667(5) 0.7729(14)
B7 B 1.3620(13) -0.0311(7) 0.6573(13)
B8 B 1.3118(14) 0.0191(6) 0.6907(13)
B9 B 1.3415(12) 0.0188(5) 0.8283(12)
B10 B 1.4500(13) -0.0057(5) 0.7817(11)
Br2 Br 1.0544(1) 0.1955(1) 1.1083(1)
P2 P 1.1951(2) 0.3059(1) 1.2566(2)
C12 C 1.4493(8) 0.3015(3) 1.2756(8)
C13 C 1.4038(13) 0.2763(4) 1.1518(11)
C14 C 1.3612(9) 0.3230(3) 1.3173(8)
C15 C 1.1528(10) 0.2853(4) 1.3629(9)
C16 C 1.0969(9) 0.3528(4) 1.1681(9)
C17 C 1.2287(11) 0.2411(4) 1.4060(9)
C18 C 1.1828(11) 0.3207(4) 1.4545(10)
C19 C 1.0122(10) 0.2732(5) 1.3180(10)
C20 C 1.0842(14) 0.3931(4) 1.2308(11)
C21 C 0.9657(13) 0.3328(5) 1.0944(13)
C22 C 1.1624(12) 0.3679(5) 1.0988(12)
B11 B 1.4930(11) 0.3294(5) 1.1872(10)
B12 B 1.5977(12) 0.3278(6) 1.3233(12)
B13 B 1.5733(9) 0.2750(4) 1.3647(8)
B14 B 1.4570(12) 0.2428(4) 1.2698(11)
B15 B 1.5311(13) 0.2843(5) 1.1180(13)
B16 B 1.6527(14) 0.3159(6) 1.2268(15)
B17 B 1.7057(13) 0.2836(7) 1.3408(13)
B18 B 1.6199(15) 0.2300(6) 1.3098(13)
B19 B 1.5138(13) 0.2313(5) 1.1707(13)
B20 B 1.6685(12) 0.2570(6) 1.2175(11)
loop_
_geom_bond_atom_site_label_1
_geom_bond_atom_site_label_2
_geom_bond_site_symmetry_1
_geom_bond_site_symmetry_2
P1 C3 1_555 1_555
C1 C2 1_555 1_555
C2 B1 1_555 1_555
C3 C1 1_555 1_555
C4 P1 1_555 1_555
C5 P1 1_555 1_555
C6 C4 1_555 1_555
C7 C4 1_555 1_555
C8 C4 1_555 1_555
C9 C5 1_555 1_555
C10 C5 1_555 1_555
C11 C5 1_555 1_555
B1 C1 1_555 1_555
B2 C1 1_555 1_555
B3 C1 1_555 1_555
B4 C1 1_555 1_555
B5 C2 1_555 1_555
B6 B1 1_555 1_555
B7 B2 1_555 1_555
B8 B3 1_555 1_555
B9 C2 1_555 1_555
B10 B5 1_555 1_555
P2 C14 1_555 1_555
C12 C13 1_555 1_555
C13 B11 1_555 1_555
C14 C12 1_555 1_555
C15 P2 1_555 1_555
C16 P2 1_555 1_555
C17 C15 1_555 1_555
C18 C15 1_555 1_555
C19 C15 1_555 1_555
C20 C16 1_555 1_555
C21 C16 1_555 1_555
C22 C16 1_555 1_555
B11 C12 1_555 1_555
B12 C12 1_555 1_555
B13 C12 1_555 1_555
B14 C12 1_555 1_555
B15 C13 1_555 1_555
B16 B11 1_555 1_555
B17 B12 1_555 1_555
B18 B13 1_555 1_555
B19 C13 1_555 1_555
B20 B15 1_555 1_555
C2 B4 1_555 1_555
B1 B2 1_555 1_555
B1 B5 1_555 1_555
B2 B3 1_555 1_555
B2 B6 1_555 1_555
B3 B4 1_555 1_555
B3 B7 1_555 1_555
B4 B8 1_555 1_555
B4 B9 1_555 1_555
B5 B6 1_555 1_555
B5 B9 1_555 1_555
B6 B7 1_555 1_555
B6 B10 1_555 1_555
B7 B8 1_555 1_555
B7 B10 1_555 1_555
B8 B9 1_555 1_555
B8 B10 1_555 1_555
B9 B10 1_555 1_555
C13 B14 1_555 1_555
B11 B12 1_555 1_555
B11 B15 1_555 1_555
B12 B13 1_555 1_555
B12 B16 1_555 1_555
B13 B14 1_555 1_555
B13 B17 1_555 1_555
B14 B18 1_555 1_555
B14 B19 1_555 1_555
B15 B16 1_555 1_555
B15 B19 1_555 1_555
B16 B17 1_555 1_555
B16 B20 1_555 1_555
B17 B18 1_555 1_555
B17 B20 1_555 1_555
B18 B19 1_555 1_555
B18 B20 1_555 1_555
B19 B20 1_555 1_555

#END
