
#######################################################################
#
#                 Cambridge Crystallographic Data Centre
#                                CCDC 
#
#######################################################################
#
# If this CIF has been generated from an entry in the Cambridge 
# Structural Database, then it will include bibliographic, chemical, 
# crystal, experimental, refinement or atomic coordinate data resulting 
# from the CCDC's data processing and validation procedures.
#
#######################################################################

data_QEVXIB
_chemical_formula_moiety         'C28 H26 N2 O4'
_chemical_name_systematic        
'ethyl 6-[(4-methylphenyl)methyl]-3,9-diphenyl-1,7-dioxa-2,8-diazaspiro[4.4]nona-2,8-diene-6-carboxylate'
_symmetry_cell_setting           monoclinic
_symmetry_space_group_name_H-M   'P 21/n'
_symmetry_Int_Tables_number      14
_space_group_name_Hall           '-P 2yn'
loop_
_symmetry_equiv_pos_site_id
_symmetry_equiv_pos_as_xyz
1 x,y,z
2 1/2-x,1/2+y,1/2-z
3 -x,-y,-z
4 1/2+x,1/2-y,1/2+z
_cell_length_a                   11.2591(7)
_cell_length_b                   10.2596(5)
_cell_length_c                   19.9617(11)
_cell_angle_alpha                90
_cell_angle_beta                 91.988(2)
_cell_angle_gamma                90
_cell_volume                     2304.47
_exptl_crystal_colour            colorless
_exptl_crystal_description       block
_cell_formula_units_Z            4
loop_
_atom_site_label
_atom_site_type_symbol
_atom_site_fract_x
_atom_site_fract_y
_atom_site_fract_z
O1 O 0.82681(9) 0.70948(11) 0.35583(5)
O2 O 0.66190(9) 0.79743(10) 0.23520(5)
O3 O 0.64048(11) 0.85389(11) 0.39118(6)
O4 O 0.51013(9) 0.70932(10) 0.34539(6)
N1 N 0.90383(11) 0.70783(13) 0.30184(6)
N2 N 0.57131(11) 0.77827(12) 0.18511(6)
C1 C 0.84991(15) 0.69334(15) 0.12170(8)
H1 H 0.766842 0.709894 0.119773
C2 C 0.91204(15) 0.68715(16) 0.06274(8)
H2 H 0.871240 0.700500 0.020841
C3 C 1.03233(16) 0.66179(16) 0.06464(9)
H3 H 1.074107 0.655663 0.024222
C4 C 1.09194(16) 0.64528(18) 0.12612(9)
H4 H 1.175097 0.629274 0.127769
C5 C 1.03103(15) 0.65201(17) 0.18485(9)
H5 H 1.072702 0.640594 0.226632
C6 C 0.90874(14) 0.67542(14) 0.18349(8)
C7 C 0.84574(14) 0.68208(14) 0.24708(8)
C8 C 0.71266(13) 0.67117(14) 0.25592(7)
C9 C 0.64202(13) 0.57063(14) 0.21424(7)
H6 H 0.694616 0.518344 0.185971
H7 H 0.596724 0.511502 0.243094
C10 C 0.56061(13) 0.65623(14) 0.17238(7)
C11 C 0.47717(13) 0.61015(15) 0.11915(7)
C12 C 0.45395(14) 0.47790(15) 0.11103(8)
H8 H 0.489320 0.416471 0.141230
C13 C 0.37879(15) 0.43553(17) 0.05858(8)
H9 H 0.362185 0.345212 0.053500
C14 C 0.32833(14) 0.52381(17) 0.01399(8)
H10 H 0.277873 0.494247 -0.022001
C15 C 0.35138(14) 0.65611(17) 0.02177(8)
H11 H 0.316633 0.716997 -0.008945
C16 C 0.42443(13) 0.69908(16) 0.07387(8)
H12 H 0.439231 0.789719 0.079193
C17 C 0.71094(13) 0.66235(14) 0.33358(7)
C18 C 0.69640(14) 0.52264(14) 0.35979(7)
H13 H 0.613387 0.494179 0.350667
H14 H 0.748883 0.463950 0.334846
C19 C 0.72542(14) 0.50896(14) 0.43391(7)
C20 C 0.64627(15) 0.54729(15) 0.48203(8)
H15 H 0.571505 0.583223 0.468417
C21 C 0.67548(16) 0.53353(16) 0.54994(8)
H16 H 0.620395 0.560686 0.582118
C22 C 0.78364(16) 0.48087(16) 0.57149(8)
C23 C 0.86145(15) 0.44087(16) 0.52334(8)
H17 H 0.935373 0.402910 0.536956
C24 C 0.83324(14) 0.45533(15) 0.45569(8)
H18 H 0.888543 0.428123 0.423642
C25 C 0.8179(2) 0.4696(2) 0.64521(9)
H19 H 0.850984 0.382814 0.654365
H20 H 0.747389 0.482722 0.671845
H21 H 0.877521 0.535995 0.657166
C26 C 0.61875(14) 0.75580(15) 0.36081(7)
C27 C 0.40826(15) 0.78949(17) 0.36242(9)
H22 H 0.435579 0.868482 0.386920
H23 H 0.355030 0.739827 0.391509
C28 C 0.34292(17) 0.8273(2) 0.29847(10)
H24 H 0.394810 0.880693 0.271155
H25 H 0.271813 0.877391 0.308964
H26 H 0.319518 0.748576 0.273554
loop_
_geom_bond_atom_site_label_1
_geom_bond_atom_site_label_2
_geom_bond_site_symmetry_1
_geom_bond_site_symmetry_2
O1 N1 1_555 1_555
O2 N2 1_555 1_555
O3 C26 1_555 1_555
O4 C26 1_555 1_555
N1 C7 1_555 1_555
N2 C10 1_555 1_555
C1 H1 1_555 1_555
C2 C1 1_555 1_555
H2 C2 1_555 1_555
C3 C2 1_555 1_555
H3 C3 1_555 1_555
C4 C3 1_555 1_555
H4 C4 1_555 1_555
C5 C4 1_555 1_555
H5 C5 1_555 1_555
C6 C1 1_555 1_555
C7 C6 1_555 1_555
C8 O2 1_555 1_555
C9 C8 1_555 1_555
H6 C9 1_555 1_555
H7 C9 1_555 1_555
C10 C9 1_555 1_555
C11 C10 1_555 1_555
C12 C11 1_555 1_555
H8 C12 1_555 1_555
C13 C12 1_555 1_555
H9 C13 1_555 1_555
C14 C13 1_555 1_555
H10 C14 1_555 1_555
C15 C14 1_555 1_555
H11 C15 1_555 1_555
C16 C11 1_555 1_555
H12 C16 1_555 1_555
C17 O1 1_555 1_555
C18 C17 1_555 1_555
H13 C18 1_555 1_555
H14 C18 1_555 1_555
C19 C18 1_555 1_555
C20 C19 1_555 1_555
H15 C20 1_555 1_555
C21 C20 1_555 1_555
H16 C21 1_555 1_555
C22 C21 1_555 1_555
C23 C22 1_555 1_555
H17 C23 1_555 1_555
C24 C19 1_555 1_555
H18 C24 1_555 1_555
C25 C22 1_555 1_555
H19 C25 1_555 1_555
H20 C25 1_555 1_555
H21 C25 1_555 1_555
C26 C17 1_555 1_555
C27 O4 1_555 1_555
H22 C27 1_555 1_555
H23 C27 1_555 1_555
C28 C27 1_555 1_555
H24 C28 1_555 1_555
H25 C28 1_555 1_555
H26 C28 1_555 1_555
C5 C6 1_555 1_555
C7 C8 1_555 1_555
C8 C17 1_555 1_555
C15 C16 1_555 1_555
C23 C24 1_555 1_555

#END
