
#######################################################################
#
#                 Cambridge Crystallographic Data Centre
#                                CCDC 
#
#######################################################################
#
# If this CIF has been generated from an entry in the Cambridge 
# Structural Database, then it will include bibliographic, chemical, 
# crystal, experimental, refinement or atomic coordinate data resulting 
# from the CCDC's data processing and validation procedures.
#
#######################################################################

data_QEWFIJ
_chemical_formula_moiety         'C22 H16 F1 N3 O3 S1'
_chemical_name_systematic        
N-(5-(4-Fluoro-3-phenoxyphenyl)-1,3,4-thiadiazol-2-yl)-4-methoxybenzamide
_symmetry_cell_setting           triclinic
_symmetry_space_group_name_H-M   'P -1'
_symmetry_Int_Tables_number      2
_space_group_name_Hall           '-P 1'
loop_
_symmetry_equiv_pos_site_id
_symmetry_equiv_pos_as_xyz
1 x,y,z
2 -x,-y,-z
_cell_length_a                   8.4625(4)
_cell_length_b                   8.7356(4)
_cell_length_c                   13.4092(6)
_cell_angle_alpha                86.664(3)
_cell_angle_beta                 82.318(3)
_cell_angle_gamma                74.281(3)
_cell_volume                     945.389
_cell_formula_units_Z            2
loop_
_atom_site_label
_atom_site_type_symbol
_atom_site_fract_x
_atom_site_fract_y
_atom_site_fract_z
C1 C -0.3077(4) 0.5400(5) -0.0924(2)
H1 H -0.3140 0.5303 -0.1604
C2 C -0.4076(4) 0.6655(4) -0.0404(2)
H2 H -0.4835 0.7422 -0.0733
C3 C -0.3993(4) 0.6820(3) 0.0600(2)
H3 H -0.4683 0.7691 0.0947
C4 C -0.2877(3) 0.5678(3) 0.1082(2)
C5 C -0.1857(4) 0.4397(4) 0.0579(2)
H4 H -0.1103 0.3622 0.0907
C6 C -0.1973(4) 0.4280(5) -0.0429(2)
H5 H -0.1281 0.3415 -0.0780
C7 C -0.2124(3) 0.4649(3) 0.26920(19)
C8 C -0.2865(3) 0.3428(4) 0.29416(19)
C9 C -0.2242(3) 0.2223(3) 0.3590(2)
H6 H -0.2746 0.1401 0.3742
C10 C -0.0849(3) 0.2242(3) 0.40185(18)
H7 H -0.0424 0.1432 0.4468
C11 C -0.0080(3) 0.3446(3) 0.37881(18)
C12 C -0.0728(3) 0.4642(3) 0.31181(18)
H8 H -0.0214 0.5455 0.2953
C13 C 0.1390(3) 0.3495(3) 0.42407(18)
C14 C 0.3688(3) 0.3182(3) 0.51342(18)
C15 C 0.5209(3) 0.1429(3) 0.63395(19)
C16 C 0.6621(3) 0.1031(3) 0.69323(18)
C17 C 0.6726(3) -0.0253(3) 0.76098(19)
H9 H 0.5929 -0.0817 0.7663
C18 C 0.7980(3) -0.0696(3) 0.8197(2)
H10 H 0.8027 -0.1554 0.8647
C19 C 0.9180(3) 0.0120(3) 0.81275(19)
C20 C 0.9113(3) 0.1381(3) 0.7447(2)
H11 H 0.9927 0.1926 0.7382
C21 C 0.7829(3) 0.1824(3) 0.68653(19)
H12 H 0.7780 0.2682 0.6416
C22 C 1.1675(4) 0.0321(4) 0.8716(2)
H13 H 1.2242 0.0287 0.8044
H14 H 1.2437 -0.0229 0.9170
H15 H 1.1228 0.1408 0.8911
N1 N 0.4963(2) 0.2770(2) 0.57210(14)
H16 H 0.5626 0.3367 0.5702
N2 N 0.3457(3) 0.4465(3) 0.45593(16)
N3 N 0.2112(3) 0.4640(3) 0.40420(15)
O1 O -0.2824(2) 0.5936(2) 0.20946(13)
O2 O 0.4247(2) 0.0595(2) 0.63750(14)
O3 O 1.0370(2) -0.0423(2) 0.87475(14)
F1 F -0.4225(2) 0.3426(2) 0.25177(12)
S1 S 0.22940(9) 0.20797(8) 0.50932(5)
loop_
_geom_bond_atom_site_label_1
_geom_bond_atom_site_label_2
_geom_bond_site_symmetry_1
_geom_bond_site_symmetry_2
C1 H1 1_555 1_555
C2 C1 1_555 1_555
H2 C2 1_555 1_555
C3 C2 1_555 1_555
H3 C3 1_555 1_555
C4 C3 1_555 1_555
C5 C4 1_555 1_555
H4 C5 1_555 1_555
C6 C1 1_555 1_555
H5 C6 1_555 1_555
C7 C8 1_555 1_555
C8 C9 1_555 1_555
C9 H6 1_555 1_555
C10 C9 1_555 1_555
H7 C10 1_555 1_555
C11 C10 1_555 1_555
C12 C7 1_555 1_555
H8 C12 1_555 1_555
C13 C11 1_555 1_555
C14 N1 1_555 1_555
C15 C16 1_555 1_555
C16 C17 1_555 1_555
C17 H9 1_555 1_555
C18 C17 1_555 1_555
H10 C18 1_555 1_555
C19 C18 1_555 1_555
C20 C19 1_555 1_555
H11 C20 1_555 1_555
C21 C16 1_555 1_555
H12 C21 1_555 1_555
C22 H13 1_555 1_555
H14 C22 1_555 1_555
H15 C22 1_555 1_555
N1 C15 1_555 1_555
H16 N1 1_555 1_555
N2 C14 1_555 1_555
N3 C13 1_555 1_555
O1 C4 1_555 1_555
O2 C15 1_555 1_555
O3 C19 1_555 1_555
F1 C8 1_555 1_555
S1 C13 1_555 1_555
C5 C6 1_555 1_555
C7 O1 1_555 1_555
C11 C12 1_555 1_555
C14 S1 1_555 1_555
C20 C21 1_555 1_555
C22 O3 1_555 1_555
N2 N3 1_555 1_555

#END
