
#######################################################################
#
#                 Cambridge Crystallographic Data Centre
#                                CCDC 
#
#######################################################################
#
# If this CIF has been generated from an entry in the Cambridge 
# Structural Database, then it will include bibliographic, chemical, 
# crystal, experimental, refinement or atomic coordinate data resulting 
# from the CCDC's data processing and validation procedures.
#
#######################################################################

data_QEWFOP
_chemical_formula_moiety         'C22 H16 F1 N3 O2 S1'
_chemical_name_systematic        
N-(5-(4-Fluoro-3-phenoxyphenyl)-1,3,4-thiadiazol-2-yl)-4-methylbenzamide
_symmetry_cell_setting           triclinic
_symmetry_space_group_name_H-M   'P -1'
_symmetry_Int_Tables_number      2
_space_group_name_Hall           '-P 1'
loop_
_symmetry_equiv_pos_site_id
_symmetry_equiv_pos_as_xyz
1 x,y,z
2 -x,-y,-z
_cell_length_a                   8.2327(16)
_cell_length_b                   8.8616(17)
_cell_length_c                   13.577(3)
_cell_angle_alpha                87.741(12)
_cell_angle_beta                 85.797(10)
_cell_angle_gamma                73.758(10)
_cell_volume                     948.234
_exptl_crystal_colour            colorless
_exptl_crystal_description       plate
_cell_formula_units_Z            2
loop_
_atom_site_label
_atom_site_type_symbol
_atom_site_fract_x
_atom_site_fract_y
_atom_site_fract_z
S1 S 0.76505(6) 0.29761(5) 0.48871(3)
F1 F 1.45910(16) 0.17002(16) 0.74430(9)
O1 O 0.55441(18) 0.43262(15) 0.35517(11)
O2 O 1.3263(2) -0.08002(15) 0.78186(10)
N1 N 0.48978(18) 0.22116(16) 0.42507(10)
H1 H 0.4226 0.1620 0.4283
N2 N 0.65714(19) 0.05941(17) 0.54029(11)
N3 N 0.79792(19) 0.04624(17) 0.59207(11)
C1 C 1.2844(4) -0.0623(4) 1.08600(18)
H2 H 1.2769 -0.0608 1.1547
C2 C 1.3946(4) -0.1820(3) 1.03759(18)
H3 H 1.4634 -0.2634 1.0736
C3 C 1.4080(3) -0.1870(3) 0.93661(17)
H4 H 1.4847 -0.2709 0.9044
C4 C 1.3071(2) -0.0668(2) 0.88359(14)
C5 C 1.1940(3) 0.0550(3) 0.93128(16)
H5 H 1.1243 0.1363 0.8956
C6 C 1.1842(4) 0.0562(3) 1.03300(18)
H6 H 1.1078 0.1396 1.0659
C7 C 1.2444(3) 0.0471(2) 0.72487(13)
C8 C 1.3157(2) 0.1696(2) 0.70247(13)
C9 C 1.2434(2) 0.2902(2) 0.64033(13)
H7 H 1.2924 0.3720 0.6265
C10 C 1.0963(2) 0.2890(2) 0.59818(12)
H8 H 1.0465 0.3702 0.5551
C11 C 1.0213(2) 0.16786(18) 0.61922(12)
C12 C 1.0972(2) 0.0475(2) 0.68328(13)
H9 H 1.0479 -0.0338 0.6983
C13 C 0.8671(2) 0.16071(18) 0.57361(12)
C14 C 0.6250(2) 0.18481(19) 0.48364(12)
C15 C 0.4582(2) 0.3492(2) 0.36132(12)
C16 C 0.3060(2) 0.38169(19) 0.30336(12)
C17 C 0.2838(3) 0.5036(2) 0.23415(14)
H10 H 0.3622 0.5617 0.2261
C18 C 0.1462(3) 0.5390(2) 0.17736(14)
H11 H 0.1345 0.6201 0.1305
C19 C 0.0245(2) 0.4581(2) 0.18743(13)
C20 C 0.0455(3) 0.3401(2) 0.25835(15)
H12 H -0.0357 0.2852 0.2682
C21 C 0.1833(3) 0.3016(2) 0.31493(15)
H13 H 0.1944 0.2205 0.3618
C22 C -0.1288(3) 0.4953(3) 0.12701(16)
H14 H -0.1208 0.4094 0.0843
H15 H -0.1338 0.5890 0.0879
H16 H -0.2294 0.5113 0.1703
loop_
_geom_bond_atom_site_label_1
_geom_bond_atom_site_label_2
_geom_bond_site_symmetry_1
_geom_bond_site_symmetry_2
S1 C13 1_555 1_555
F1 C8 1_555 1_555
O1 C15 1_555 1_555
O2 C4 1_555 1_555
N1 H1 1_555 1_555
N2 N3 1_555 1_555
N3 C13 1_555 1_555
C1 H2 1_555 1_555
C2 C1 1_555 1_555
H3 C2 1_555 1_555
C3 C2 1_555 1_555
H4 C3 1_555 1_555
C4 C3 1_555 1_555
C5 C4 1_555 1_555
H5 C5 1_555 1_555
C6 C1 1_555 1_555
H6 C6 1_555 1_555
C7 O2 1_555 1_555
C8 C7 1_555 1_555
C9 C8 1_555 1_555
H7 C9 1_555 1_555
C10 C9 1_555 1_555
H8 C10 1_555 1_555
C11 C10 1_555 1_555
C12 C7 1_555 1_555
H9 C12 1_555 1_555
C13 C11 1_555 1_555
C14 S1 1_555 1_555
C15 N1 1_555 1_555
C16 C15 1_555 1_555
C17 C16 1_555 1_555
H10 C17 1_555 1_555
C18 C17 1_555 1_555
H11 C18 1_555 1_555
C19 C18 1_555 1_555
C20 C19 1_555 1_555
H12 C20 1_555 1_555
C21 C16 1_555 1_555
H13 C21 1_555 1_555
C22 C19 1_555 1_555
H14 C22 1_555 1_555
H15 C22 1_555 1_555
H16 C22 1_555 1_555
N1 C14 1_555 1_555
N2 C14 1_555 1_555
C5 C6 1_555 1_555
C11 C12 1_555 1_555
C20 C21 1_555 1_555

#END
