
#######################################################################
#
#                 Cambridge Crystallographic Data Centre
#                                CCDC 
#
#######################################################################
#
# If this CIF has been generated from an entry in the Cambridge 
# Structural Database, then it will include bibliographic, chemical, 
# crystal, experimental, refinement or atomic coordinate data resulting 
# from the CCDC's data processing and validation procedures.
#
#######################################################################

data_QEWFUV
_chemical_formula_moiety         'C21 H13 F2 N3 O2 S1'
_chemical_name_systematic        
4-Fluoro-N-(5-(4-fluoro-3-phenoxyphenyl)-1,3,4-thiadiazol-2-yl)benzamide
_symmetry_cell_setting           monoclinic
_symmetry_space_group_name_H-M   'C 2/c'
_symmetry_Int_Tables_number      15
_space_group_name_Hall           '-C 2yn'
loop_
_symmetry_equiv_pos_site_id
_symmetry_equiv_pos_as_xyz
1 x,y,z
2 -x,y,1/2-z
3 1/2+x,1/2+y,z
4 1/2-x,1/2+y,1/2-z
5 -x,-y,-z
6 x,-y,1/2+z
7 1/2-x,1/2-y,-z
8 1/2+x,1/2-y,1/2+z
_cell_length_a                   20.5635(7)
_cell_length_b                   5.8117(2)
_cell_length_c                   32.1855(11)
_cell_angle_alpha                90
_cell_angle_beta                 106.079(2)
_cell_angle_gamma                90
_cell_volume                     3695.98
_exptl_crystal_colour            colorless
_exptl_crystal_description       plate
_cell_formula_units_Z            8
loop_
_atom_site_label
_atom_site_type_symbol
_atom_site_fract_x
_atom_site_fract_y
_atom_site_fract_z
S1 S 0.86316(3) 0.44170(10) 0.003071(17)
F1 F 0.65759(7) 0.3516(3) 0.13073(5)
F2 F 1.05403(10) 0.5400(4) -0.20238(5)
O1 O 0.73249(8) -0.0349(3) 0.14269(6)
O2 O 0.90609(8) 0.6188(3) -0.05820(5)
N1 N 0.95888(8) 0.2881(3) -0.03475(5)
H1 H 0.9899 0.1917 -0.0362
N2 N 0.93438(9) 0.0755(3) 0.02052(6)
N3 N 0.89179(9) 0.0714(3) 0.04701(6)
C1 C 0.8680(2) -0.1800(8) 0.26034(11)
H2 H 0.8978 -0.2138 0.2871
C2 C 0.8147(2) -0.3207(6) 0.24297(11)
H3 H 0.8082 -0.4514 0.2580
C3 C 0.77024(16) -0.2719(5) 0.20324(10)
H4 H 0.7339 -0.3690 0.1913
C4 C 0.78039(13) -0.0777(4) 0.18152(8)
C5 C 0.83351(14) 0.0646(5) 0.19853(8)
H5 H 0.8402 0.1957 0.1837
C6 C 0.87739(18) 0.0113(7) 0.23823(10)
H6 H 0.9140 0.1075 0.2501
C7 C 0.74482(10) 0.1357(4) 0.11606(7)
C8 C 0.70525(10) 0.3308(5) 0.10926(7)
C9 C 0.71212(11) 0.4996(4) 0.08147(8)
H7 H 0.6845 0.6291 0.0773
C10 C 0.76076(10) 0.4756(4) 0.05962(7)
H8 H 0.7663 0.5907 0.0408
C11 C 0.80152(9) 0.2813(4) 0.06542(6)
C12 C 0.79266(10) 0.1115(4) 0.09376(7)
H9 H 0.8194 -0.0201 0.0977
C13 C 0.85215(9) 0.2497(4) 0.04142(6)
C14 C 0.92417(9) 0.2552(4) -0.00447(6)
C15 C 0.94545(10) 0.4705(4) -0.06281(7)
C16 C 0.97779(10) 0.4818(4) -0.09868(7)
C17 C 0.96452(16) 0.6711(5) -0.12459(9)
H10 H 0.9375 0.7878 -0.1186
C18 C 0.99049(19) 0.6919(6) -0.15938(10)
H11 H 0.9812 0.8216 -0.1770
C19 C 1.02963(14) 0.5222(6) -0.16770(8)
C20 C 1.04458(14) 0.3368(6) -0.14261(9)
H12 H 1.0724 0.2226 -0.1486
C21 C 1.01833(13) 0.3157(5) -0.10764(8)
H13 H 1.0285 0.1862 -0.0900
loop_
_geom_bond_atom_site_label_1
_geom_bond_atom_site_label_2
_geom_bond_site_symmetry_1
_geom_bond_site_symmetry_2
S1 C13 1_555 1_555
F1 C8 1_555 1_555
F2 C19 1_555 1_555
O1 C4 1_555 1_555
O2 C15 1_555 1_555
N1 H1 1_555 1_555
N2 N3 1_555 1_555
N3 C13 1_555 1_555
C1 H2 1_555 1_555
C2 C1 1_555 1_555
H3 C2 1_555 1_555
C3 C2 1_555 1_555
H4 C3 1_555 1_555
C4 C3 1_555 1_555
C5 C4 1_555 1_555
H5 C5 1_555 1_555
C6 C1 1_555 1_555
H6 C6 1_555 1_555
C7 O1 1_555 1_555
C8 C7 1_555 1_555
C9 C8 1_555 1_555
H7 C9 1_555 1_555
C10 C9 1_555 1_555
H8 C10 1_555 1_555
C11 C10 1_555 1_555
C12 C7 1_555 1_555
H9 C12 1_555 1_555
C13 C11 1_555 1_555
C14 S1 1_555 1_555
C15 N1 1_555 1_555
C16 C15 1_555 1_555
C17 C16 1_555 1_555
H10 C17 1_555 1_555
C18 C17 1_555 1_555
H11 C18 1_555 1_555
C19 C18 1_555 1_555
C20 C19 1_555 1_555
H12 C20 1_555 1_555
C21 C16 1_555 1_555
H13 C21 1_555 1_555
N1 C14 1_555 1_555
N2 C14 1_555 1_555
C5 C6 1_555 1_555
C11 C12 1_555 1_555
C20 C21 1_555 1_555

#END
