
#######################################################################
#
#                 Cambridge Crystallographic Data Centre
#                                CCDC 
#
#######################################################################
#
# If this CIF has been generated from an entry in the Cambridge 
# Structural Database, then it will include bibliographic, chemical, 
# crystal, experimental, refinement or atomic coordinate data resulting 
# from the CCDC's data processing and validation procedures.
#
#######################################################################

data_QEWGAC
_chemical_formula_moiety         'C21 H14 F1 N3 O2 S1'
_chemical_name_systematic        
N-(5-(4-Fluoro-3-phenoxyphenyl)-1,3,4-thiadiazol-2-yl)benzamide
_symmetry_cell_setting           monoclinic
_symmetry_space_group_name_H-M   'C 2/c'
_symmetry_Int_Tables_number      15
_space_group_name_Hall           '-C 2yn'
loop_
_symmetry_equiv_pos_site_id
_symmetry_equiv_pos_as_xyz
1 x,y,z
2 -x,y,1/2-z
3 1/2+x,1/2+y,z
4 1/2-x,1/2+y,1/2-z
5 -x,-y,-z
6 x,-y,1/2+z
7 1/2-x,1/2-y,-z
8 1/2+x,1/2-y,1/2+z
_cell_length_a                   20.6997(18)
_cell_length_b                   5.8050(6)
_cell_length_c                   30.904(3)
_cell_angle_alpha                90
_cell_angle_beta                 104.387(6)
_cell_angle_gamma                90
_cell_volume                     3597.02
_exptl_crystal_colour            colorless
_exptl_crystal_description       plate
_cell_formula_units_Z            8
loop_
_atom_site_label
_atom_site_type_symbol
_atom_site_fract_x
_atom_site_fract_y
_atom_site_fract_z
S1 S 0.63613(2) 0.05256(9) -0.001244(16)
F1 F 0.84622(6) 0.1413(3) -0.13403(4)
O1 O 0.76945(7) 0.5227(3) -0.14801(5)
O2 O 0.59009(7) -0.1178(3) 0.06327(5)
N1 N 0.53865(7) 0.2111(3) 0.03702(5)
H1 H 0.5074 0.3075 0.0378
N2 N 0.56742(8) 0.4220(3) -0.01959(5)
N3 N 0.61149(8) 0.4239(3) -0.04656(5)
C1 C 0.62467(16) 0.6775(7) -0.26262(10)
H2 H 0.5927 0.7133 -0.2887
C2 C 0.67661(17) 0.8228(6) -0.24651(10)
H3 H 0.6799 0.9589 -0.2617
C3 C 0.72474(14) 0.7714(5) -0.20782(8)
H4 H 0.7604 0.8708 -0.1971
C4 C 0.71887(10) 0.5706(4) -0.18552(7)
C5 C 0.66697(12) 0.4242(5) -0.20147(8)
H5 H 0.6632 0.2883 -0.1863
C6 C 0.62008(15) 0.4791(6) -0.24016(9)
H6 H 0.5847 0.3789 -0.2511
C7 C 0.75845(9) 0.3554(4) -0.11888(6)
C8 C 0.79848(9) 0.1630(4) -0.11123(7)
C9 C 0.79160(10) -0.0043(4) -0.08197(7)
H7 H 0.8194 -0.1327 -0.0775
C10 C 0.74254(9) 0.0195(4) -0.05891(7)
H8 H 0.7370 -0.0945 -0.0390
C11 C 0.70158(8) 0.2122(4) -0.06530(6)
C12 C 0.71040(9) 0.3803(4) -0.09522(6)
H9 H 0.6836 0.5112 -0.0994
C13 C 0.64994(9) 0.2446(3) -0.04068(6)
C14 C 0.57543(8) 0.2420(3) 0.00601(6)
C15 C 0.55034(9) 0.0318(4) 0.06668(6)
C16 C 0.51478(9) 0.0262(4) 0.10288(6)
C17 C 0.52254(14) -0.1659(5) 0.12949(9)
H10 H 0.5489 -0.2874 0.1242
C18 C 0.49144(17) -0.1797(6) 0.16403(10)
H11 H 0.4963 -0.3120 0.1815
C19 C 0.45406(12) -0.0041(5) 0.17283(8)
H12 H 0.4346 -0.0124 0.1969
C20 C 0.44525(13) 0.1825(6) 0.14656(8)
H13 H 0.4185 0.3024 0.1519
C21 C 0.47567(12) 0.1989(5) 0.11142(8)
H14 H 0.4692 0.3299 0.0935
loop_
_geom_bond_atom_site_label_1
_geom_bond_atom_site_label_2
_geom_bond_site_symmetry_1
_geom_bond_site_symmetry_2
S1 C13 1_555 1_555
F1 C8 1_555 1_555
O1 C4 1_555 1_555
O2 C15 1_555 1_555
N1 H1 1_555 1_555
N2 N3 1_555 1_555
N3 C13 1_555 1_555
C1 H2 1_555 1_555
C2 C1 1_555 1_555
H3 C2 1_555 1_555
C3 C2 1_555 1_555
H4 C3 1_555 1_555
C4 C3 1_555 1_555
C5 C4 1_555 1_555
H5 C5 1_555 1_555
C6 C1 1_555 1_555
H6 C6 1_555 1_555
C7 O1 1_555 1_555
C8 C7 1_555 1_555
C9 C8 1_555 1_555
H7 C9 1_555 1_555
C10 C9 1_555 1_555
H8 C10 1_555 1_555
C11 C10 1_555 1_555
C12 C7 1_555 1_555
H9 C12 1_555 1_555
C13 C11 1_555 1_555
C14 S1 1_555 1_555
C15 N1 1_555 1_555
C16 C15 1_555 1_555
C17 C16 1_555 1_555
H10 C17 1_555 1_555
C18 C17 1_555 1_555
H11 C18 1_555 1_555
C19 C18 1_555 1_555
H12 C19 1_555 1_555
C20 C19 1_555 1_555
H13 C20 1_555 1_555
C21 C16 1_555 1_555
H14 C21 1_555 1_555
N1 C14 1_555 1_555
N2 C14 1_555 1_555
C5 C6 1_555 1_555
C11 C12 1_555 1_555
C20 C21 1_555 1_555

#END
