
#######################################################################
#
#                 Cambridge Crystallographic Data Centre
#                                CCDC 
#
#######################################################################
#
# If this CIF has been generated from an entry in the Cambridge 
# Structural Database, then it will include bibliographic, chemical, 
# crystal, experimental, refinement or atomic coordinate data resulting 
# from the CCDC's data processing and validation procedures.
#
#######################################################################

data_QEWHOR
_chemical_formula_moiety         'C9 H7 N1 O1'
_chemical_name_systematic        Quinolin-5-ol
_symmetry_cell_setting           orthorhombic
_symmetry_space_group_name_H-M   'P 21 21 21'
_symmetry_Int_Tables_number      19
_space_group_name_Hall           'P 2ac 2ab'
loop_
_symmetry_equiv_pos_site_id
_symmetry_equiv_pos_as_xyz
1 x,y,z
2 1/2-x,-y,1/2+z
3 -x,1/2+y,1/2-z
4 1/2+x,1/2-y,-z
_cell_length_a                   3.8348(9)
_cell_length_b                   12.718(3)
_cell_length_c                   14.067(3)
_cell_angle_alpha                90
_cell_angle_beta                 90
_cell_angle_gamma                90
_cell_volume                     686.061
_exptl_crystal_colour            colorless
_exptl_crystal_description       plate
_cell_formula_units_Z            4
loop_
_atom_site_label
_atom_site_type_symbol
_atom_site_fract_x
_atom_site_fract_y
_atom_site_fract_z
H1 H 0.229(6) 0.5116(17) 0.1430(15)
C1 C 0.0239(4) 0.33399(11) -0.23140(10)
H2 H -0.0252 0.2948 -0.2856
C2 C -0.0666(4) 0.29048(11) -0.14248(10)
H3 H -0.1679 0.2242 -0.1383
C3 C -0.0013(4) 0.34836(11) -0.06264(9)
H4 H -0.0650 0.3227 -0.0032
C4 C 0.1630(4) 0.44714(10) -0.07057(9)
C5 C 0.2495(4) 0.48468(10) -0.16282(9)
C6 C 0.4175(4) 0.58321(11) -0.17334(10)
H5 H 0.4736 0.6085 -0.2334
C7 C 0.4958(4) 0.64059(11) -0.09410(10)
H6 H 0.6048 0.7054 -0.1012
C8 C 0.4162(4) 0.60434(11) -0.00193(10)
H7 H 0.4762 0.6447 0.0507
C9 C 0.2500(4) 0.50952(11) 0.01035(9)
N1 N 0.1735(3) 0.42646(9) -0.24268(8)
O1 O 0.1627(3) 0.46851(8) 0.09566(7)
loop_
_geom_bond_atom_site_label_1
_geom_bond_atom_site_label_2
_geom_bond_site_symmetry_1
_geom_bond_site_symmetry_2
H1 O1 1_555 1_555
C1 H2 1_555 1_555
C2 C1 1_555 1_555
H3 C2 1_555 1_555
C3 C2 1_555 1_555
H4 C3 1_555 1_555
C4 C3 1_555 1_555
C5 C4 1_555 1_555
C6 C5 1_555 1_555
H5 C6 1_555 1_555
C7 C6 1_555 1_555
H6 C7 1_555 1_555
C8 C7 1_555 1_555
H7 C8 1_555 1_555
C9 C4 1_555 1_555
N1 C1 1_555 1_555
O1 C9 1_555 1_555
C5 N1 1_555 1_555
C8 C9 1_555 1_555

#END
