
#######################################################################
#
#                 Cambridge Crystallographic Data Centre
#                                CCDC 
#
#######################################################################
#
# If this CIF has been generated from an entry in the Cambridge 
# Structural Database, then it will include bibliographic, chemical, 
# crystal, experimental, refinement or atomic coordinate data resulting 
# from the CCDC's data processing and validation procedures.
#
#######################################################################

data_QEWJIN
_chemical_formula_moiety         'C30 H26 O2'
_chemical_name_systematic        9-(bis(4-Ethoxyphenyl)methylene)-9H-fluorene
_symmetry_cell_setting           monoclinic
_symmetry_space_group_name_H-M   'C 2/c'
_symmetry_Int_Tables_number      15
_space_group_name_Hall           '-C 2yn'
loop_
_symmetry_equiv_pos_site_id
_symmetry_equiv_pos_as_xyz
1 x,y,z
2 -x,y,1/2-z
3 1/2+x,1/2+y,z
4 1/2-x,1/2+y,1/2-z
5 -x,-y,-z
6 x,-y,1/2+z
7 1/2-x,1/2-y,-z
8 1/2+x,1/2-y,1/2+z
_cell_length_a                   12.922(3)
_cell_length_b                   20.632(4)
_cell_length_c                   9.972(2)
_cell_angle_alpha                90
_cell_angle_beta                 94.84(3)
_cell_angle_gamma                90
_cell_volume                     2649.12
_exptl_crystal_colour            colorless
_exptl_crystal_description       block
_cell_formula_units_Z            4
loop_
_atom_site_label
_atom_site_type_symbol
_atom_site_fract_x
_atom_site_fract_y
_atom_site_fract_z
O1 O 0.64513(14) 0.31498(8) 0.08716(15)
C1 C 0.94494(17) 0.63889(10) 0.22580(19)
C2 C 0.87791(19) 0.69036(10) 0.1979(2)
H1 H 0.9019 0.7337 0.2098
C3 C 0.77502(19) 0.67799(12) 0.1523(2)
H2 H 0.7285 0.7129 0.1313
C4 C 0.7407(2) 0.61444(12) 0.1376(2)
H3 H 0.6703 0.6063 0.1067
C5 C 0.80704(18) 0.56235(11) 0.1672(2)
H4 H 0.7819 0.5192 0.1583
C6 C 0.91096(17) 0.57411(10) 0.21005(19)
C7 C 1.0000 0.53018(13) 0.2500
C8 C 1.0000 0.46459(14) 0.2500
C9 C 0.90710(18) 0.42523(10) 0.2027(2)
C10 C 0.84901(19) 0.39445(11) 0.2953(2)
H5 H 0.8696 0.3982 0.3887
C11 C 0.7628(2) 0.35896(12) 0.2542(2)
H6 H 0.7232 0.3393 0.3192
C12 C 0.73256(19) 0.35133(10) 0.1178(2)
C13 C 0.7909(2) 0.37965(11) 0.0239(2)
H7 H 0.7723 0.3740 -0.0695
C14 C 0.87727(19) 0.41661(11) 0.0676(2)
H8 H 0.9168 0.4365 0.0028
C15 C 0.6117(2) 0.30372(13) -0.0510(2)
H9 H 0.6655 0.2797 -0.0957
H10 H 0.5982 0.3453 -0.0987
C16 C 0.5139(2) 0.26448(19) -0.0522(3)
H11 H 0.4898 0.2534 -0.1452
H12 H 0.4603 0.2898 -0.0118
H13 H 0.5276 0.2246 -0.0002
O1A O 1.35487(14) 0.31498(8) 0.41284(15)
C1A C 1.05506(17) 0.63889(10) 0.27420(19)
C2A C 1.12209(19) 0.69036(10) 0.3021(2)
H1A H 1.0981 0.7337 0.2902
C3A C 1.22498(19) 0.67799(12) 0.3477(2)
H2A H 1.2715 0.7129 0.3687
C4A C 1.2593(2) 0.61444(12) 0.3624(2)
H3A H 1.3297 0.6063 0.3933
C5A C 1.19296(18) 0.56235(11) 0.3328(2)
H4A H 1.2181 0.5192 0.3417
C6A C 1.08904(17) 0.57411(10) 0.28995(19)
C9A C 1.09290(18) 0.42523(10) 0.2973(2)
C10A C 1.15099(19) 0.39445(11) 0.2047(2)
H5A H 1.1304 0.3982 0.1113
C11A C 1.2372(2) 0.35896(12) 0.2458(2)
H6A H 1.2768 0.3393 0.1808
C12A C 1.26744(19) 0.35133(10) 0.3822(2)
C13A C 1.2091(2) 0.37965(11) 0.4761(2)
H7A H 1.2277 0.3740 0.5695
C14A C 1.12273(19) 0.41661(11) 0.4324(2)
H8A H 1.0832 0.4365 0.4972
C15A C 1.3883(2) 0.30372(13) 0.5510(2)
H9A H 1.3345 0.2797 0.5957
H10A H 1.4018 0.3453 0.5987
C16A C 1.4861(2) 0.26448(19) 0.5522(3)
H11A H 1.5102 0.2534 0.6452
H12A H 1.5397 0.2898 0.5118
H13A H 1.4724 0.2246 0.5002
loop_
_geom_bond_atom_site_label_1
_geom_bond_atom_site_label_2
_geom_bond_site_symmetry_1
_geom_bond_site_symmetry_2
O1 C12 1_555 1_555
C1 C2 1_555 1_555
C2 H1 1_555 1_555
C3 C2 1_555 1_555
H2 C3 1_555 1_555
C4 C3 1_555 1_555
H3 C4 1_555 1_555
C5 C4 1_555 1_555
H4 C5 1_555 1_555
C6 C1 1_555 1_555
C7 C6 1_555 1_555
C8 C7 1_555 1_555
C9 C8 1_555 1_555
C10 C9 1_555 1_555
H5 C10 1_555 1_555
C11 C10 1_555 1_555
H6 C11 1_555 1_555
C12 C11 1_555 1_555
C13 C12 1_555 1_555
H7 C13 1_555 1_555
C14 C9 1_555 1_555
H8 C14 1_555 1_555
C15 O1 1_555 1_555
H9 C15 1_555 1_555
H10 C15 1_555 1_555
C16 C15 1_555 1_555
H11 C16 1_555 1_555
H12 C16 1_555 1_555
H13 C16 1_555 1_555
O1A C12A 1_555 1_555
C1A C1 1_555 1_555
C2A C1A 1_555 1_555
H1A C2A 1_555 1_555
C3A C2A 1_555 1_555
H2A C3A 1_555 1_555
C4A C3A 1_555 1_555
H3A C4A 1_555 1_555
C5A C4A 1_555 1_555
H4A C5A 1_555 1_555
C6A C7 1_555 1_555
C9A C8 1_555 1_555
C10A C9A 1_555 1_555
H5A C10A 1_555 1_555
C11A C10A 1_555 1_555
H6A C11A 1_555 1_555
C12A C11A 1_555 1_555
C13A C12A 1_555 1_555
H7A C13A 1_555 1_555
C14A C9A 1_555 1_555
H8A C14A 1_555 1_555
C15A O1A 1_555 1_555
H9A C15A 1_555 1_555
H10A C15A 1_555 1_555
C16A C15A 1_555 1_555
H11A C16A 1_555 1_555
H12A C16A 1_555 1_555
H13A C16A 1_555 1_555
C5 C6 1_555 1_555
C13 C14 1_555 1_555
C1A C6A 1_555 1_555
C5A C6A 1_555 1_555
C13A C14A 1_555 1_555

#END
