
#######################################################################
#
#                 Cambridge Crystallographic Data Centre
#                                CCDC 
#
#######################################################################
#
# If this CIF has been generated from an entry in the Cambridge 
# Structural Database, then it will include bibliographic, chemical, 
# crystal, experimental, refinement or atomic coordinate data resulting 
# from the CCDC's data processing and validation procedures.
#
#######################################################################

data_QEWJIN01
_chemical_formula_moiety         'C30 H26 O2'
_chemical_name_systematic        9-(bis(4-Ethoxyphenyl)methylene)-9H-fluorene
_symmetry_cell_setting           monoclinic
_symmetry_space_group_name_H-M   'C 2/c'
_symmetry_Int_Tables_number      15
_space_group_name_Hall           '-C 2yn'
loop_
_symmetry_equiv_pos_site_id
_symmetry_equiv_pos_as_xyz
1 x,y,z
2 -x,y,1/2-z
3 1/2+x,1/2+y,z
4 1/2-x,1/2+y,1/2-z
5 -x,-y,-z
6 x,-y,1/2+z
7 1/2-x,1/2-y,-z
8 1/2+x,1/2-y,1/2+z
_cell_length_a                   22.590(5)
_cell_length_b                   10.236(2)
_cell_length_c                   9.995(2)
_cell_angle_alpha                90
_cell_angle_beta                 95.61(3)
_cell_angle_gamma                90
_cell_volume                     2300.09
_exptl_crystal_colour            colorless
_exptl_crystal_description       block
_cell_formula_units_Z            4
loop_
_atom_site_label
_atom_site_type_symbol
_atom_site_fract_x
_atom_site_fract_y
_atom_site_fract_z
O1 O 0.20385(4) 0.36311(9) 0.14777(9)
C1 C 0.10962(6) -0.12438(13) 0.20574(12)
H1 H 0.1237 -0.0373 0.2007
C2 C 0.14756(6) -0.22923(14) 0.19150(14)
H2 H 0.1878 -0.2130 0.1770
C3 C 0.12775(6) -0.35742(14) 0.19808(14)
H3 H 0.1544 -0.4276 0.1877
C4 C 0.06915(6) -0.38331(13) 0.21970(14)
H4 H 0.0553 -0.4707 0.2233
C5 C 0.03124(5) -0.27906(12) 0.23596(12)
C6 C 0.05054(5) -0.14863(12) 0.22761(11)
C7 C 0.0000 -0.06025(17) 0.2500
C8 C 0.0000 0.07169(17) 0.2500
C9 C 0.05292(5) 0.15050(12) 0.22117(12)
C10 C 0.09216(6) 0.20012(13) 0.32494(13)
H5 H 0.0846 0.1857 0.4156
C11 C 0.14198(6) 0.27008(13) 0.29772(13)
H6 H 0.1687 0.3023 0.3695
C12 C 0.15307(5) 0.29337(12) 0.16523(13)
C13 C 0.11377(6) 0.24780(14) 0.06104(13)
H7 H 0.1206 0.2650 -0.0296
C14 C 0.06418(6) 0.17654(13) 0.08978(13)
H8 H 0.0374 0.1449 0.0179
C15 C 0.21094(6) 0.40655(14) 0.01349(14)
H9 H 0.1751 0.4547 -0.0239
H10 H 0.2167 0.3307 -0.0453
C16 C 0.26456(7) 0.49462(17) 0.02059(18)
H11 H 0.2705 0.5259 -0.0698
H12 H 0.2998 0.4459 0.0573
H13 H 0.2583 0.5693 0.0789
O1A O -0.20385(4) 0.36311(9) 0.35223(9)
C1A C -0.10962(6) -0.12438(13) 0.29426(12)
H1A H -0.1237 -0.0373 0.2993
C2A C -0.14756(6) -0.22923(14) 0.30850(14)
H2A H -0.1878 -0.2130 0.3230
C3A C -0.12775(6) -0.35742(14) 0.30192(14)
H3A H -0.1544 -0.4276 0.3123
C4A C -0.06915(6) -0.38331(13) 0.28030(14)
H4A H -0.0553 -0.4707 0.2767
C5A C -0.03124(5) -0.27906(12) 0.26404(12)
C6A C -0.05054(5) -0.14863(12) 0.27239(11)
C9A C -0.05292(5) 0.15050(12) 0.27883(12)
C10A C -0.09216(6) 0.20012(13) 0.17506(13)
H5A H -0.0846 0.1857 0.0844
C11A C -0.14198(6) 0.27008(13) 0.20228(13)
H6A H -0.1687 0.3023 0.1305
C12A C -0.15307(5) 0.29337(12) 0.33477(13)
C13A C -0.11377(6) 0.24780(14) 0.43896(13)
H7A H -0.1206 0.2650 0.5296
C14A C -0.06418(6) 0.17654(13) 0.41022(13)
H8A H -0.0374 0.1449 0.4821
C15A C -0.21094(6) 0.40655(14) 0.48651(14)
H9A H -0.1751 0.4547 0.5239
H10A H -0.2167 0.3307 0.5453
C16A C -0.26456(7) 0.49462(17) 0.47941(18)
H11A H -0.2705 0.5259 0.5698
H12A H -0.2998 0.4459 0.4427
H13A H -0.2583 0.5693 0.4211
loop_
_geom_bond_atom_site_label_1
_geom_bond_atom_site_label_2
_geom_bond_site_symmetry_1
_geom_bond_site_symmetry_2
O1 C12 1_555 1_555
C1 H1 1_555 1_555
C2 C1 1_555 1_555
H2 C2 1_555 1_555
C3 C2 1_555 1_555
H3 C3 1_555 1_555
C4 C3 1_555 1_555
H4 C4 1_555 1_555
C5 C4 1_555 1_555
C6 C1 1_555 1_555
C7 C6 1_555 1_555
C8 C7 1_555 1_555
C9 C8 1_555 1_555
C10 C9 1_555 1_555
H5 C10 1_555 1_555
C11 C10 1_555 1_555
H6 C11 1_555 1_555
C12 C11 1_555 1_555
C13 C12 1_555 1_555
H7 C13 1_555 1_555
C14 C9 1_555 1_555
H8 C14 1_555 1_555
C15 O1 1_555 1_555
H9 C15 1_555 1_555
H10 C15 1_555 1_555
C16 C15 1_555 1_555
H11 C16 1_555 1_555
H12 C16 1_555 1_555
H13 C16 1_555 1_555
O1A C12A 1_555 1_555
C1A H1A 1_555 1_555
C2A C1A 1_555 1_555
H2A C2A 1_555 1_555
C3A C2A 1_555 1_555
H3A C3A 1_555 1_555
C4A C3A 1_555 1_555
H4A C4A 1_555 1_555
C5A C5 1_555 1_555
C6A C7 1_555 1_555
C9A C8 1_555 1_555
C10A C9A 1_555 1_555
H5A C10A 1_555 1_555
C11A C10A 1_555 1_555
H6A C11A 1_555 1_555
C12A C11A 1_555 1_555
C13A C12A 1_555 1_555
H7A C13A 1_555 1_555
C14A C9A 1_555 1_555
H8A C14A 1_555 1_555
C15A O1A 1_555 1_555
H9A C15A 1_555 1_555
H10A C15A 1_555 1_555
C16A C15A 1_555 1_555
H11A C16A 1_555 1_555
H12A C16A 1_555 1_555
H13A C16A 1_555 1_555
C5 C6 1_555 1_555
C13 C14 1_555 1_555
C1A C6A 1_555 1_555
C4A C5A 1_555 1_555
C5A C6A 1_555 1_555
C13A C14A 1_555 1_555

#END
