
#######################################################################
#
#                 Cambridge Crystallographic Data Centre
#                                CCDC 
#
#######################################################################
#
# If this CIF has been generated from an entry in the Cambridge 
# Structural Database, then it will include bibliographic, chemical, 
# crystal, experimental, refinement or atomic coordinate data resulting 
# from the CCDC's data processing and validation procedures.
#
#######################################################################

data_QEWKIO
_chemical_formula_moiety         'C22 H16 Br1 F1 N2 O1'
_chemical_name_systematic        
2-(4-Bromophenyl)-4-(4-fluorobenzyl)-4-phenyl-4H-imidazol-5-ol
_symmetry_cell_setting           monoclinic
_symmetry_space_group_name_H-M   'P 21/c'
_symmetry_Int_Tables_number      14
_space_group_name_Hall           '-P 2ybc'
loop_
_symmetry_equiv_pos_site_id
_symmetry_equiv_pos_as_xyz
1 x,y,z
2 -x,1/2+y,1/2-z
3 -x,-y,-z
4 x,1/2-y,1/2+z
_cell_length_a                   20.1602(18)
_cell_length_b                   6.0050(5)
_cell_length_c                   17.3601(15)
_cell_angle_alpha                90
_cell_angle_beta                 115.257(2)
_cell_angle_gamma                90
_cell_volume                     1900.74
_cell_formula_units_Z            4
loop_
_atom_site_label
_atom_site_type_symbol
_atom_site_fract_x
_atom_site_fract_y
_atom_site_fract_z
Br1 Br 0.42228(11) 0.8447(4) 0.03636(11)
F1 F 0.9654(6) 0.424(2) 0.2398(8)
N1 N 0.7017(6) 0.261(2) 0.3559(7)
N2 N 0.7393(7) 0.607(2) 0.4133(7)
O1 O 0.7932(5) 0.0478(16) 0.4642(6)
H1 H 0.7736 -0.0551 0.4312
C1 C 0.7590(8) 0.238(3) 0.4304(9)
C2 C 0.7846(7) 0.459(2) 0.4775(8)
C3 C 0.6893(8) 0.485(3) 0.3437(9)
C4 C 0.6286(7) 0.571(2) 0.2704(9)
C5 C 0.6007(7) 0.786(2) 0.2741(9)
H2 H 0.6247 0.8731 0.3225
C6 C 0.5378(7) 0.870(3) 0.2064(9)
H3 H 0.5184 1.0098 0.2083
C7 C 0.5052(7) 0.723(3) 0.1333(9)
C8 C 0.5321(8) 0.517(3) 0.1274(9)
H4 H 0.5100 0.4318 0.0781
C9 C 0.5938(8) 0.438(3) 0.1975(9)
H5 H 0.6119 0.2962 0.1959
C10 C 0.7706(7) 0.475(3) 0.5589(9)
C11 C 0.7885(8) 0.303(3) 0.6174(9)
H6 H 0.8103 0.1747 0.6090
C12 C 0.7739(9) 0.321(3) 0.6897(10)
H7 H 0.7873 0.2069 0.7297
C13 C 0.7400(8) 0.507(3) 0.7005(9)
H8 H 0.7298 0.5188 0.7478
C14 C 0.7204(9) 0.681(3) 0.6415(10)
H9 H 0.6966 0.8065 0.6486
C15 C 0.7371(8) 0.662(3) 0.5715(9)
H10 H 0.7253 0.7783 0.5326
C16 C 0.8688(8) 0.508(2) 0.5051(9)
H11 H 0.8792 0.6598 0.5264
H12 H 0.8976 0.4093 0.5514
C17 C 0.8933(8) 0.480(3) 0.4326(9)
C18 C 0.9274(8) 0.283(3) 0.4231(10)
H13 H 0.9306 0.1605 0.4574
C19 C 0.9557(9) 0.268(3) 0.3642(11)
H14 H 0.9825 0.1431 0.3628
C20 C 0.9445(9) 0.437(3) 0.3079(12)
C21 C 0.9078(9) 0.642(3) 0.3115(12)
H15 H 0.9010 0.7589 0.2737
C22 C 0.8832(9) 0.652(3) 0.3757(11)
H16 H 0.8591 0.7800 0.3803
loop_
_geom_bond_atom_site_label_1
_geom_bond_atom_site_label_2
_geom_bond_site_symmetry_1
_geom_bond_site_symmetry_2
Br1 C7 1_555 1_555
F1 C20 1_555 1_555
N1 C1 1_555 1_555
N2 C2 1_555 1_555
O1 H1 1_555 1_555
C1 O1 1_555 1_555
C2 C1 1_555 1_555
C3 N1 1_555 1_555
C4 C3 1_555 1_555
C5 C4 1_555 1_555
H2 C5 1_555 1_555
C6 C5 1_555 1_555
H3 C6 1_555 1_555
C7 C6 1_555 1_555
C8 C7 1_555 1_555
H4 C8 1_555 1_555
C9 C4 1_555 1_555
H5 C9 1_555 1_555
C10 C2 1_555 1_555
C11 C10 1_555 1_555
H6 C11 1_555 1_555
C12 C11 1_555 1_555
H7 C12 1_555 1_555
C13 C12 1_555 1_555
H8 C13 1_555 1_555
C14 C13 1_555 1_555
H9 C14 1_555 1_555
C15 C10 1_555 1_555
H10 C15 1_555 1_555
C16 C2 1_555 1_555
H11 C16 1_555 1_555
H12 C16 1_555 1_555
C17 C16 1_555 1_555
C18 C17 1_555 1_555
H13 C18 1_555 1_555
C19 C18 1_555 1_555
H14 C19 1_555 1_555
C20 C19 1_555 1_555
C21 C20 1_555 1_555
H15 C21 1_555 1_555
C22 C17 1_555 1_555
H16 C22 1_555 1_555
N2 C3 1_555 1_555
C8 C9 1_555 1_555
C14 C15 1_555 1_555
C21 C22 1_555 1_555

#END
