
#######################################################################
#
#                 Cambridge Crystallographic Data Centre
#                                CCDC 
#
#######################################################################
#
# If this CIF has been generated from an entry in the Cambridge 
# Structural Database, then it will include bibliographic, chemical, 
# crystal, experimental, refinement or atomic coordinate data resulting 
# from the CCDC's data processing and validation procedures.
#
#######################################################################

data_QEWNUE
_chemical_formula_moiety         'C15 H14 Cl1 N1 O1'
_chemical_name_systematic        
4-chloro-2-((((R)-1-phenylethyl)imino)methyl)phenol
_symmetry_cell_setting           monoclinic
_symmetry_space_group_name_H-M   'C 2'
_symmetry_Int_Tables_number      5
_space_group_name_Hall           'C 2y'
loop_
_symmetry_equiv_pos_site_id
_symmetry_equiv_pos_as_xyz
1 x,y,z
2 -x,y,-z
3 1/2+x,1/2+y,z
4 1/2-x,1/2+y,-z
_cell_length_a                   20.35(7)
_cell_length_b                   5.73(2)
_cell_length_c                   14.33(5)
_cell_angle_alpha                90
_cell_angle_beta                 128.28(4)
_cell_angle_gamma                90
_cell_volume                     1311.69
_exptl_crystal_colour            colorless
_exptl_crystal_description       block
_cell_formula_units_Z            4
loop_
_atom_site_label
_atom_site_type_symbol
_atom_site_fract_x
_atom_site_fract_y
_atom_site_fract_z
Cl1 Cl 0.08879(13) 0.1015(5) -0.2565(2)
O1 O 0.4077(4) 0.5711(12) -0.0183(5)
H1 H 0.4457 0.4948 0.0386
N1 N 0.4761(5) 0.2214(13) 0.1268(6)
C1 C 0.5484(5) 0.0992(18) 0.2279(7)
H2 H 0.5291 -0.0421 0.2429
C2 C 0.6040(6) 0.0291(18) 0.1975(8)
H3 H 0.5755 -0.0824 0.1338
H4 H 0.6544 -0.0394 0.2660
H5 H 0.6179 0.1642 0.1732
C3 C 0.5889(5) 0.2557(17) 0.3333(6)
C4 C 0.6322(6) 0.450(2) 0.3452(8)
H6 H 0.6380 0.4857 0.2872
C5 C 0.6666(7) 0.591(2) 0.4401(9)
H7 H 0.6982 0.7174 0.4480
C6 C 0.6573(9) 0.556(3) 0.5235(10)
H8 H 0.6802 0.6585 0.5870
C7 C 0.6139(8) 0.368(3) 0.5128(10)
H9 H 0.6079 0.3387 0.5710
C8 C 0.5769(6) 0.2136(18) 0.4155(7)
H10 H 0.5453 0.0868 0.4077
C9 C 0.4047(7) 0.1309(16) 0.0716(8)
H11 H 0.3996 -0.0129 0.0967
C10 C 0.3302(6) 0.2436(15) -0.0294(7)
C11 C 0.3365(6) 0.4613(16) -0.0693(8)
C12 C 0.2635(7) 0.5582(18) -0.1675(9)
H12 H 0.2661 0.7012 -0.1958
C13 C 0.1883(6) 0.4521(17) -0.2241(7)
H13 H 0.1402 0.5230 -0.2894
C14 C 0.1833(6) 0.2377(16) -0.1844(8)
C15 C 0.2555(6) 0.1392(16) -0.0847(8)
H14 H 0.2523 -0.0017 -0.0555
loop_
_geom_bond_atom_site_label_1
_geom_bond_atom_site_label_2
_geom_bond_site_symmetry_1
_geom_bond_site_symmetry_2
Cl1 C14 1_555 1_555
O1 H1 1_555 1_555
N1 C1 1_555 1_555
C1 H2 1_555 1_555
C2 C1 1_555 1_555
H3 C2 1_555 1_555
H4 C2 1_555 1_555
H5 C2 1_555 1_555
C3 C1 1_555 1_555
C4 C3 1_555 1_555
H6 C4 1_555 1_555
C5 C4 1_555 1_555
H7 C5 1_555 1_555
C6 C5 1_555 1_555
H8 C6 1_555 1_555
C7 C6 1_555 1_555
H9 C7 1_555 1_555
C8 C3 1_555 1_555
H10 C8 1_555 1_555
C9 N1 1_555 1_555
H11 C9 1_555 1_555
C10 C9 1_555 1_555
C11 O1 1_555 1_555
C12 C11 1_555 1_555
H12 C12 1_555 1_555
C13 C12 1_555 1_555
H13 C13 1_555 1_555
C14 C13 1_555 1_555
C15 C10 1_555 1_555
H14 C15 1_555 1_555
C7 C8 1_555 1_555
C10 C11 1_555 1_555
C14 C15 1_555 1_555

#END
