
#######################################################################
#
#                 Cambridge Crystallographic Data Centre
#                                CCDC 
#
#######################################################################
#
# If this CIF has been generated from an entry in the Cambridge 
# Structural Database, then it will include bibliographic, chemical, 
# crystal, experimental, refinement or atomic coordinate data resulting 
# from the CCDC's data processing and validation procedures.
#
#######################################################################

data_QEWPEQ
_chemical_name_common            (R)-N-(1-phenylethyl)salicylidene
_chemical_formula_moiety         'C15 H15 N1 O1'
_chemical_name_systematic        2-((((R)-1-phenylethyl)imino)methyl)phenol
_symmetry_cell_setting           monoclinic
_symmetry_space_group_name_H-M   'C 2'
_symmetry_Int_Tables_number      5
_space_group_name_Hall           'C 2y'
loop_
_symmetry_equiv_pos_site_id
_symmetry_equiv_pos_as_xyz
1 x,y,z
2 -x,y,-z
3 1/2+x,1/2+y,z
4 1/2-x,1/2+y,-z
_cell_length_a                   18.566(9)
_cell_length_b                   5.941(3)
_cell_length_c                   14.659(6)
_cell_angle_alpha                90
_cell_angle_beta                 128.576(4)
_cell_angle_gamma                90
_cell_volume                     1264.06
_exptl_crystal_colour            colorless
_exptl_crystal_description       block
_cell_formula_units_Z            4
loop_
_atom_site_label
_atom_site_type_symbol
_atom_site_fract_x
_atom_site_fract_y
_atom_site_fract_z
O1 O 0.38014(12) 0.4716(3) 0.45915(15)
H1 H 0.4190 0.5372 0.5205
N1 N 0.45090(11) 0.8009(3) 0.60885(13)
C1 C 0.53027(13) 0.9161(4) 0.71444(16)
H2 H 0.5078 1.0486 0.7297
C2 C 0.59441(18) 0.9929(5) 0.6894(2)
H3 H 0.6108 0.8664 0.6650
H4 H 0.6491 1.0568 0.7588
H5 H 0.5639 1.1041 0.6287
C3 C 0.57482(12) 0.7565(4) 0.81700(15)
C4 C 0.61862(17) 0.5614(4) 0.8236(2)
H6 H 0.6219 0.5283 0.7642
C5 C 0.65778(17) 0.4142(4) 0.9170(2)
H7 H 0.6873 0.2848 0.9198
C6 C 0.65331(16) 0.4582(5) 1.00461(19)
H8 H 0.6793 0.3588 1.0668
C7 C 0.61029(16) 0.6497(6) 1.0003(2)
H9 H 0.6063 0.6795 1.0593
C8 C 0.57203(15) 0.8017(5) 0.90704(18)
H10 H 0.5447 0.9338 0.9061
C9 C 0.37411(13) 0.9028(4) 0.54432(16)
H11 H 0.3680 1.0431 0.5670
C10 C 0.29499(13) 0.8030(4) 0.43469(16)
C11 C 0.30207(14) 0.5931(4) 0.39610(18)
C12 C 0.22750(18) 0.5107(4) 0.2882(2)
H12 H 0.2320 0.3732 0.2619
C13 C 0.14700(17) 0.6319(6) 0.2204(2)
H13 H 0.0979 0.5759 0.1478
C14 C 0.13747(16) 0.8343(6) 0.2574(2)
H14 H 0.0820 0.9124 0.2113
C15 C 0.21159(14) 0.9206(5) 0.36425(18)
H15 H 0.2058 1.0582 0.3894
loop_
_geom_bond_atom_site_label_1
_geom_bond_atom_site_label_2
_geom_bond_site_symmetry_1
_geom_bond_site_symmetry_2
O1 H1 1_555 1_555
N1 C1 1_555 1_555
C1 H2 1_555 1_555
C2 C1 1_555 1_555
H3 C2 1_555 1_555
H4 C2 1_555 1_555
H5 C2 1_555 1_555
C3 C1 1_555 1_555
C4 C3 1_555 1_555
H6 C4 1_555 1_555
C5 C4 1_555 1_555
H7 C5 1_555 1_555
C6 C5 1_555 1_555
H8 C6 1_555 1_555
C7 C6 1_555 1_555
H9 C7 1_555 1_555
C8 C3 1_555 1_555
H10 C8 1_555 1_555
C9 N1 1_555 1_555
H11 C9 1_555 1_555
C10 C9 1_555 1_555
C11 O1 1_555 1_555
C12 C11 1_555 1_555
H12 C12 1_555 1_555
C13 C12 1_555 1_555
H13 C13 1_555 1_555
C14 C13 1_555 1_555
H14 C14 1_555 1_555
C15 C10 1_555 1_555
H15 C15 1_555 1_555
C7 C8 1_555 1_555
C10 C11 1_555 1_555
C14 C15 1_555 1_555

#END
