
#######################################################################
#
#                 Cambridge Crystallographic Data Centre
#                                CCDC 
#
#######################################################################
#
# If this CIF has been generated from an entry in the Cambridge 
# Structural Database, then it will include bibliographic, chemical, 
# crystal, experimental, refinement or atomic coordinate data resulting 
# from the CCDC's data processing and validation procedures.
#
#######################################################################

data_QEWZID
_chemical_formula_moiety         'C13 H14 N2 O3'
_chemical_name_systematic        
'ethyl 2-(5-methoxy-1-phenyl-1H-pyrazol-3-yl)acetate'
_symmetry_cell_setting           orthorhombic
_symmetry_space_group_name_H-M   'P b c a'
_symmetry_Int_Tables_number      61
_space_group_name_Hall           '-P 2ac 2ab'
loop_
_symmetry_equiv_pos_site_id
_symmetry_equiv_pos_as_xyz
1 x,y,z
2 1/2-x,-y,1/2+z
3 -x,1/2+y,1/2-z
4 1/2+x,1/2-y,-z
5 -x,-y,-z
6 1/2+x,y,1/2-z
7 x,1/2-y,1/2+z
8 1/2-x,1/2+y,z
_cell_length_a                   8.2020(5)
_cell_length_b                   11.1784(8)
_cell_length_c                   26.9704(16)
_cell_angle_alpha                90
_cell_angle_beta                 90
_cell_angle_gamma                90
_cell_volume                     2472.79
_exptl_crystal_colour            colorless
_exptl_crystal_description       BLOCK
_cell_formula_units_Z            8
loop_
_atom_site_label
_atom_site_type_symbol
_atom_site_fract_x
_atom_site_fract_y
_atom_site_fract_z
O1 O 0.3069(2) 0.54190(19) 0.54619(6)
O2 O 0.1025(2) 0.63234(19) 0.50991(6)
O3 O 0.13882(18) 0.92839(10) 0.35329(5)
H1 H 0.175(3) 0.998(2) 0.3671(9)
N1 N 0.20343(17) 0.72684(11) 0.35429(5)
N2 N 0.26275(17) 0.64028(11) 0.38567(5)
C1 C 0.1859(3) 0.3718(3) 0.58631(10)
H2 H 0.1262 0.3455 0.6158
H3 H 0.2938 0.3340 0.5858
H4 H 0.1253 0.3488 0.5565
C2 C 0.2049(4) 0.5029(3) 0.58754(9)
H5 H 0.0965 0.5415 0.5853
H6 H 0.2558 0.5272 0.6193
C3 C 0.2405(2) 0.60344(15) 0.51024(6)
C4 C 0.3647(2) 0.63120(14) 0.47084(6)
H7 H 0.4534 0.6793 0.4858
H8 H 0.4130 0.5552 0.4590
C5 C 0.29680(19) 0.69752(13) 0.42756(6)
C6 C 0.2601(2) 0.81908(14) 0.42430(6)
H9 H 0.2737 0.8782 0.4492
C7 C 0.2000(2) 0.83470(13) 0.37728(6)
C8 C 0.16346(19) 0.69919(13) 0.30415(6)
C9 C 0.0817(2) 0.59401(15) 0.29348(7)
H10 H 0.0500 0.5414 0.3194
C10 C 0.0465(2) 0.56635(18) 0.24447(7)
H11 H -0.0087 0.4940 0.2367
C11 C 0.0911(3) 0.6430(2) 0.20713(7)
H12 H 0.0659 0.6240 0.1737
C12 C 0.1722(3) 0.7473(2) 0.21810(7)
H13 H 0.2026 0.8002 0.1921
C13 C 0.2099(2) 0.77586(16) 0.26671(6)
H14 H 0.2671 0.8475 0.2742
loop_
_geom_bond_atom_site_label_1
_geom_bond_atom_site_label_2
_geom_bond_site_symmetry_1
_geom_bond_site_symmetry_2
O1 C2 1_555 1_555
O2 C3 1_555 1_555
O3 H1 1_555 1_555
N1 N2 1_555 1_555
N2 C5 1_555 1_555
C1 H2 1_555 1_555
H3 C1 1_555 1_555
H4 C1 1_555 1_555
C2 C1 1_555 1_555
H5 C2 1_555 1_555
H6 C2 1_555 1_555
C3 O1 1_555 1_555
C4 C3 1_555 1_555
H7 C4 1_555 1_555
H8 C4 1_555 1_555
C5 C4 1_555 1_555
C6 C5 1_555 1_555
H9 C6 1_555 1_555
C7 O3 1_555 1_555
C8 N1 1_555 1_555
C9 C8 1_555 1_555
H10 C9 1_555 1_555
C10 C9 1_555 1_555
H11 C10 1_555 1_555
C11 C10 1_555 1_555
H12 C11 1_555 1_555
C12 C11 1_555 1_555
H13 C12 1_555 1_555
C13 C8 1_555 1_555
H14 C13 1_555 1_555
N1 C7 1_555 1_555
C6 C7 1_555 1_555
C12 C13 1_555 1_555

#END
