
#######################################################################
#
#                 Cambridge Crystallographic Data Centre
#                                CCDC 
#
#######################################################################
#
# If this CIF has been generated from an entry in the Cambridge 
# Structural Database, then it will include bibliographic, chemical, 
# crystal, experimental, refinement or atomic coordinate data resulting 
# from the CCDC's data processing and validation procedures.
#
#######################################################################

data_QEWZUP
_chemical_formula_moiety         'C21 H20 N2 O5'
_chemical_name_systematic        
'(Z)-methyl 2-(4-(2,4-dimethoxybenzylidene)-5-oxo-1-phenyl-4,5-dihydro-1H-pyrazol-3-yl)acetate'
_symmetry_cell_setting           monoclinic
_symmetry_space_group_name_H-M   'P 21/n'
_symmetry_Int_Tables_number      14
_space_group_name_Hall           '-P 2yn'
loop_
_symmetry_equiv_pos_site_id
_symmetry_equiv_pos_as_xyz
1 x,y,z
2 1/2-x,1/2+y,1/2-z
3 -x,-y,-z
4 1/2+x,1/2-y,1/2+z
_cell_length_a                   10.5352(11)
_cell_length_b                   7.4879(8)
_cell_length_c                   23.186(2)
_cell_angle_alpha                90
_cell_angle_beta                 101.693(3)
_cell_angle_gamma                90
_cell_volume                     1791.11
_exptl_crystal_colour            red
_exptl_crystal_description       BLOCK
_chemical_melting_point          101-103deg.C
_cell_formula_units_Z            4
loop_
_atom_site_label
_atom_site_type_symbol
_atom_site_fract_x
_atom_site_fract_y
_atom_site_fract_z
O1 O 0.13300(12) 0.44185(17) 0.40885(5)
O2 O 0.03983(16) 0.6870(2) 0.43517(7)
O3 O 0.65819(11) 0.61270(16) 0.45651(5)
O4 O 0.27005(11) 0.94253(16) 0.56081(5)
O5 O 0.66231(12) 0.98163(16) 0.70979(5)
N1 N 0.38230(13) 0.58857(19) 0.34429(6)
N2 N 0.51377(13) 0.56119(18) 0.36836(6)
C1 C 0.07089(18) 0.3372(3) 0.44778(8)
H1 H 0.0894 0.2103 0.4433
H2 H -0.0230 0.3568 0.4378
H3 H 0.1042 0.3737 0.4886
C2 C 0.11326(17) 0.6165(2) 0.40903(8)
C3 C 0.19377(16) 0.7163(2) 0.37291(7)
H4 H 0.1568 0.6958 0.3307
H5 H 0.1876 0.8457 0.3806
C4 C 0.33333(16) 0.6641(2) 0.38504(7)
C5 C 0.54881(16) 0.6212(2) 0.42637(7)
C6 C 0.42699(16) 0.6925(2) 0.43913(7)
C7 C 0.39504(16) 0.7749(2) 0.48673(7)
H6 H 0.3059 0.8061 0.4806
C8 C 0.46589(16) 0.8247(2) 0.54384(7)
C9 C 0.59859(16) 0.7918(2) 0.56478(7)
H7 H 0.6465 0.7315 0.5401
C10 C 0.66043(17) 0.8444(2) 0.61976(7)
H8 H 0.7500 0.8195 0.6331
C11 C 0.59173(17) 0.9347(2) 0.65626(7)
C12 C 0.46067(17) 0.9703(2) 0.63773(7)
H9 H 0.4144 1.0316 0.6628
C13 C 0.39783(16) 0.9153(2) 0.58195(7)
C14 C 0.19689(17) 1.0374(2) 0.59639(8)
H10 H 0.1066 1.0476 0.5753
H11 H 0.2337 1.1570 0.6049
H12 H 0.2001 0.9726 0.6334
C15 C 0.59900(18) 1.0796(2) 0.74877(7)
H13 H 0.6607 1.1037 0.7856
H14 H 0.5263 1.0094 0.7571
H15 H 0.5665 1.1929 0.7303
C16 C 0.59104(16) 0.4817(2) 0.33213(7)
C17 C 0.53287(17) 0.4317(2) 0.27477(7)
H16 H 0.4430 0.4518 0.2604
C18 C 0.60715(17) 0.3528(2) 0.23908(7)
H17 H 0.5676 0.3196 0.2000
C19 C 0.73767(17) 0.3215(2) 0.25904(7)
H18 H 0.7875 0.2654 0.2343
C20 C 0.79490(17) 0.3731(2) 0.31567(7)
H19 H 0.8850 0.3536 0.3296
C21 C 0.72301(17) 0.4525(2) 0.35229(7)
H20 H 0.7635 0.4871 0.3911
loop_
_geom_bond_atom_site_label_1
_geom_bond_atom_site_label_2
_geom_bond_site_symmetry_1
_geom_bond_site_symmetry_2
O1 C1 1_555 1_555
O2 C2 1_555 1_555
O3 C5 1_555 1_555
O4 C13 1_555 1_555
O5 C11 1_555 1_555
N1 N2 1_555 1_555
N2 C5 1_555 1_555
C1 H1 1_555 1_555
H2 C1 1_555 1_555
H3 C1 1_555 1_555
C2 O1 1_555 1_555
C3 C2 1_555 1_555
H4 C3 1_555 1_555
H5 C3 1_555 1_555
C4 N1 1_555 1_555
C5 C6 1_555 1_555
C6 C4 1_555 1_555
C7 C6 1_555 1_555
H6 C7 1_555 1_555
C8 C7 1_555 1_555
C9 C8 1_555 1_555
H7 C9 1_555 1_555
C10 C9 1_555 1_555
H8 C10 1_555 1_555
C11 C10 1_555 1_555
C12 C11 1_555 1_555
H9 C12 1_555 1_555
C13 C8 1_555 1_555
C14 O4 1_555 1_555
H10 C14 1_555 1_555
H11 C14 1_555 1_555
H12 C14 1_555 1_555
C15 O5 1_555 1_555
H13 C15 1_555 1_555
H14 C15 1_555 1_555
H15 C15 1_555 1_555
C16 N2 1_555 1_555
C17 C16 1_555 1_555
H16 C17 1_555 1_555
C18 C17 1_555 1_555
H17 C18 1_555 1_555
C19 C18 1_555 1_555
H18 C19 1_555 1_555
C20 C19 1_555 1_555
H19 C20 1_555 1_555
C21 C16 1_555 1_555
H20 C21 1_555 1_555
C3 C4 1_555 1_555
C12 C13 1_555 1_555
C20 C21 1_555 1_555

#END
