
#######################################################################
#
#                 Cambridge Crystallographic Data Centre
#                                CCDC 
#
#######################################################################
#
# If this CIF has been generated from an entry in the Cambridge 
# Structural Database, then it will include bibliographic, chemical, 
# crystal, experimental, refinement or atomic coordinate data resulting 
# from the CCDC's data processing and validation procedures.
#
#######################################################################

data_QEWZOJ
_chemical_formula_moiety         'C21 H21 N3 O3'
_chemical_name_systematic        
'(Z)-methyl 2-(4-(4-(dimethylamino)benzylidene)-5-oxo-1-phenyl-4,5-dihydro-1H-pyrazol-3-yl)acetate'
_symmetry_cell_setting           monoclinic
_symmetry_space_group_name_H-M   'P 21/c'
_symmetry_Int_Tables_number      14
_space_group_name_Hall           '-P 2ybc'
loop_
_symmetry_equiv_pos_site_id
_symmetry_equiv_pos_as_xyz
1 x,y,z
2 -x,1/2+y,1/2-z
3 -x,-y,-z
4 x,1/2-y,1/2+z
_cell_length_a                   17.7025(8)
_cell_length_b                   11.8548(5)
_cell_length_c                   8.6938(4)
_cell_angle_alpha                90
_cell_angle_beta                 102.693(2)
_cell_angle_gamma                90
_cell_volume                     1779.89
_exptl_crystal_colour            red
_exptl_crystal_description       BLOCK
_chemical_melting_point          180-185deg.C
_cell_formula_units_Z            4
loop_
_atom_site_label
_atom_site_type_symbol
_atom_site_fract_x
_atom_site_fract_y
_atom_site_fract_z
O1 O 0.42191(5) 0.08289(8) 0.68451(12)
O2 O 0.29527(6) 0.11330(9) 0.59696(14)
O3 O 0.18172(5) 0.54056(7) 0.55163(11)
N1 N 0.36351(6) 0.41113(9) 0.62947(12)
N2 N 0.30999(6) 0.49360(8) 0.56150(12)
N3 N -0.09801(6) 0.39073(9) 0.88996(13)
C1 C 0.41318(10) -0.01860(12) 0.58916(19)
H1 H 0.4627 -0.0590 0.6075
H2 H 0.3973 0.0018 0.4775
H3 H 0.3737 -0.0672 0.6181
C2 C 0.35661(7) 0.13988(11) 0.67803(15)
C3 C 0.36950(7) 0.24220(11) 0.78314(15)
H4 H 0.3520 0.2259 0.8815
H5 H 0.4255 0.2598 0.8118
C4 C 0.32619(7) 0.34226(10) 0.70276(14)
C5 C 0.24676(7) 0.37455(10) 0.69221(14)
C6 C 0.23775(7) 0.47787(10) 0.59684(14)
C7 C 0.19632(7) 0.31713(10) 0.76428(14)
H6 H 0.2177 0.2491 0.8132
C8 C 0.11937(7) 0.33698(10) 0.78184(14)
C9 C 0.08623(7) 0.25775(10) 0.86968(14)
H7 H 0.1148 0.1917 0.9071
C10 C 0.01478(7) 0.27233(10) 0.90289(14)
H8 H -0.0054 0.2162 0.9608
C11 C -0.02944(7) 0.37085(10) 0.85135(14)
C12 C 0.00229(7) 0.44889(10) 0.75795(15)
H9 H -0.0268 0.5138 0.7174
C13 C 0.07345(7) 0.43254(10) 0.72536(14)
H10 H 0.0927 0.4867 0.6631
C14 C -0.12817(8) 0.31386(12) 0.99266(17)
H11 H -0.1300 0.2372 0.9498
H12 H -0.1804 0.3375 0.9990
H13 H -0.0943 0.3152 1.0983
C15 C -0.13726(7) 0.49892(11) 0.85286(16)
H14 H -0.1513 0.5089 0.7382
H15 H -0.1026 0.5601 0.9002
H16 H -0.1842 0.5003 0.8953
C16 C 0.33703(7) 0.58437(10) 0.48166(14)
C17 C 0.41643(7) 0.59544(11) 0.49319(15)
H17 H 0.4512 0.5417 0.5511
C18 C 0.44448(7) 0.68499(12) 0.41995(15)
H18 H 0.4986 0.6921 0.4275
C19 C 0.39458(8) 0.76407(11) 0.33605(15)
H19 H 0.4142 0.8260 0.2876
C20 C 0.31547(7) 0.75215(11) 0.32319(15)
H20 H 0.2810 0.8060 0.2647
C21 C 0.28599(7) 0.66238(10) 0.39479(14)
H21 H 0.2317 0.6543 0.3846
loop_
_geom_bond_atom_site_label_1
_geom_bond_atom_site_label_2
_geom_bond_site_symmetry_1
_geom_bond_site_symmetry_2
O1 C1 1_555 1_555
O2 C2 1_555 1_555
O3 C6 1_555 1_555
N1 N2 1_555 1_555
N2 C6 1_555 1_555
N3 C11 1_555 1_555
C1 H1 1_555 1_555
H2 C1 1_555 1_555
H3 C1 1_555 1_555
C2 O1 1_555 1_555
C3 C2 1_555 1_555
H4 C3 1_555 1_555
H5 C3 1_555 1_555
C4 N1 1_555 1_555
C5 C4 1_555 1_555
C6 C5 1_555 1_555
C7 C5 1_555 1_555
H6 C7 1_555 1_555
C8 C7 1_555 1_555
C9 C8 1_555 1_555
H7 C9 1_555 1_555
C10 C9 1_555 1_555
H8 C10 1_555 1_555
C11 C10 1_555 1_555
C12 C11 1_555 1_555
H9 C12 1_555 1_555
C13 C8 1_555 1_555
H10 C13 1_555 1_555
C14 N3 1_555 1_555
H11 C14 1_555 1_555
H12 C14 1_555 1_555
H13 C14 1_555 1_555
C15 N3 1_555 1_555
H14 C15 1_555 1_555
H15 C15 1_555 1_555
H16 C15 1_555 1_555
C16 N2 1_555 1_555
C17 C16 1_555 1_555
H17 C17 1_555 1_555
C18 C17 1_555 1_555
H18 C18 1_555 1_555
C19 C18 1_555 1_555
H19 C19 1_555 1_555
C20 C19 1_555 1_555
H20 C20 1_555 1_555
C21 C16 1_555 1_555
H21 C21 1_555 1_555
C3 C4 1_555 1_555
C12 C13 1_555 1_555
C20 C21 1_555 1_555

#END
