
#######################################################################
#
#                 Cambridge Crystallographic Data Centre
#                                CCDC 
#
#######################################################################
#
# If this CIF has been generated from an entry in the Cambridge 
# Structural Database, then it will include bibliographic, chemical, 
# crystal, experimental, refinement or atomic coordinate data resulting 
# from the CCDC's data processing and validation procedures.
#
#######################################################################

data_QEXCOO
_chemical_formula_moiety         'C23 H13 F4 N3 O1'
_chemical_name_systematic        
1,2,3,4-tetrafluoro-9-methyl-5-[2-(1H-pyrazol-1-yl)phenyl]phenanthridin-6(5H)-one
_symmetry_cell_setting           monoclinic
_symmetry_space_group_name_H-M   'P 21/c'
_symmetry_Int_Tables_number      14
_space_group_name_Hall           '-P 2ybc'
loop_
_symmetry_equiv_pos_site_id
_symmetry_equiv_pos_as_xyz
1 x,y,z
2 -x,1/2+y,1/2-z
3 -x,-y,-z
4 x,1/2-y,1/2+z
_cell_length_a                   13.3076(5)
_cell_length_b                   15.7288(6)
_cell_length_c                   9.0940(3)
_cell_angle_alpha                90
_cell_angle_beta                 96.2351(15)
_cell_angle_gamma                90
_cell_volume                     1892.23
_exptl_crystal_colour            colorless
_exptl_crystal_description       Hexagonal
_cell_formula_units_Z            4
loop_
_atom_site_label
_atom_site_type_symbol
_atom_site_fract_x
_atom_site_fract_y
_atom_site_fract_z
C1 C 0.61740(14) 0.59116(12) 0.1702(2)
C2 C 0.54177(13) 0.53451(11) 0.2230(2)
C3 C 0.47189(14) 0.57084(13) 0.3080(2)
H1 H 0.4730 0.6292 0.3247
C4 C 0.40175(15) 0.52144(13) 0.3672(2)
H2 H 0.3548 0.5467 0.4221
C5 C 0.39989(15) 0.43382(13) 0.3459(2)
C6 C 0.46983(14) 0.39791(12) 0.2631(2)
H3 H 0.4696 0.3393 0.2501
C7 C 0.54131(13) 0.44688(11) 0.19780(19)
C8 C 0.61354(13) 0.41262(11) 0.1020(2)
C9 C 0.61458(16) 0.32797(12) 0.0558(2)
C10 C 0.67878(16) 0.29740(12) -0.0384(3)
C11 C 0.74412(15) 0.35213(14) -0.0954(2)
C12 C 0.74585(14) 0.43608(13) -0.0556(2)
C13 C 0.68379(13) 0.46802(11) 0.0452(2)
C14 C 0.32388(18) 0.37945(16) 0.4122(3)
H4 H 0.3400 0.3206 0.3997
H5 H 0.2576 0.3910 0.3636
H6 H 0.3254 0.3920 0.5157
C15 C 0.77225(14) 0.60732(12) 0.0606(2)
C16 C 0.86723(15) 0.59033(13) 0.1329(2)
C17 C 0.94869(18) 0.64010(17) 0.1023(3)
H7 H 1.0129 0.6291 0.1497
C18 C 0.9344(2) 0.70553(18) 0.0021(4)
H8 H 0.9895 0.7376 -0.0200
C19 C 0.8398(2) 0.72399(16) -0.0659(3)
H9 H 0.8305 0.7693 -0.1318
C20 C 0.75866(18) 0.67495(13) -0.0358(2)
H10 H 0.6943 0.6876 -0.0809
N1 N 0.82447(17) 0.50652(16) 0.3406(2)
C21 C 0.8651(3) 0.4393(3) 0.4098(4)
H11 H 0.8402 0.4135 0.4903
C22 C 0.9492(3) 0.4120(3) 0.3477(6)
H12 H 0.9905 0.3663 0.3787
C23 C 0.9599(2) 0.4639(2) 0.2342(5)
H13 H 1.0094 0.4611 0.1696
F1 F 0.54939(11) 0.27117(7) 0.10179(17)
F2 F 0.67632(11) 0.21498(8) -0.07834(18)
F3 F 0.80400(10) 0.32439(9) -0.19559(17)
F4 F 0.80836(9) 0.48632(8) -0.12411(15)
N2 N 0.68715(11) 0.55429(9) 0.08600(17)
N3 N 0.88463(13) 0.52113(12) 0.2322(2)
O1 O 0.62308(12) 0.66675(8) 0.20005(18)
loop_
_geom_bond_atom_site_label_1
_geom_bond_atom_site_label_2
_geom_bond_site_symmetry_1
_geom_bond_site_symmetry_2
C1 C2 1_555 1_555
C2 C3 1_555 1_555
C3 H1 1_555 1_555
C4 C3 1_555 1_555
H2 C4 1_555 1_555
C5 C4 1_555 1_555
C6 C5 1_555 1_555
H3 C6 1_555 1_555
C7 C2 1_555 1_555
C8 C7 1_555 1_555
C9 C8 1_555 1_555
C10 C9 1_555 1_555
C11 C10 1_555 1_555
C12 C11 1_555 1_555
C13 C8 1_555 1_555
C14 C5 1_555 1_555
H4 C14 1_555 1_555
H5 C14 1_555 1_555
H6 C14 1_555 1_555
C15 C16 1_555 1_555
C16 C17 1_555 1_555
C17 H7 1_555 1_555
C18 C17 1_555 1_555
H8 C18 1_555 1_555
C19 C18 1_555 1_555
H9 C19 1_555 1_555
C20 C15 1_555 1_555
H10 C20 1_555 1_555
N1 C21 1_555 1_555
C21 H11 1_555 1_555
C22 C21 1_555 1_555
H12 C22 1_555 1_555
C23 C22 1_555 1_555
H13 C23 1_555 1_555
F1 C9 1_555 1_555
F2 C10 1_555 1_555
F3 C11 1_555 1_555
F4 C12 1_555 1_555
N2 C1 1_555 1_555
N3 C16 1_555 1_555
O1 C1 1_555 1_555
C6 C7 1_555 1_555
C12 C13 1_555 1_555
C13 N2 1_555 1_555
C15 N2 1_555 1_555
C19 C20 1_555 1_555
N1 N3 1_555 1_555
C23 N3 1_555 1_555

#END
