
#######################################################################
#
#                 Cambridge Crystallographic Data Centre
#                                CCDC 
#
#######################################################################
#
# If this CIF has been generated from an entry in the Cambridge 
# Structural Database, then it will include bibliographic, chemical, 
# crystal, experimental, refinement or atomic coordinate data resulting 
# from the CCDC's data processing and validation procedures.
#
#######################################################################

data_QEXDEF
_chemical_formula_moiety         'C23 H17 F1 N4 O3'
_chemical_name_systematic        
1-fluoro-8,9-dimethoxy-5-[2-(1H-pyrazol-1-yl)phenyl]benzo[c][1,7]naphthyridin-6(5H)-one
_symmetry_cell_setting           triclinic
_symmetry_space_group_name_H-M   'P -1'
_symmetry_Int_Tables_number      2
_space_group_name_Hall           '-P 1'
loop_
_symmetry_equiv_pos_site_id
_symmetry_equiv_pos_as_xyz
1 x,y,z
2 -x,-y,-z
_cell_length_a                   8.9704(17)
_cell_length_b                   9.8360(19)
_cell_length_c                   11.913(2)
_cell_angle_alpha                88.611(6)
_cell_angle_beta                 67.88
_cell_angle_gamma                86.309(9)
_cell_volume                     971.733
_exptl_crystal_colour            brown
_exptl_crystal_description       Block
_cell_formula_units_Z            2
loop_
_atom_site_label
_atom_site_type_symbol
_atom_site_fract_x
_atom_site_fract_y
_atom_site_fract_z
C1 C 0.6657(4) 0.6172(4) 0.5144(4)
H1 H 0.7521 0.6329 0.4426
C2 C 0.5452(4) 0.7144(4) 0.5581(4)
C3 C 0.4123(4) 0.6922(4) 0.6661(4)
C4 C 0.4089(4) 0.5722(4) 0.7270(4)
H2 H 0.3226 0.5574 0.7990
C5 C 0.5341(4) 0.4713(4) 0.6821(4)
C6 C 0.5264(4) 0.3467(4) 0.7546(4)
C7 C 0.7795(4) 0.2648(4) 0.5989(4)
C8 C 0.8968(5) 0.1602(4) 0.5570(5)
H3 H 0.8872 0.0820 0.6041
C9 C 1.0353(5) 0.2810(5) 0.3892(5)
H4 H 1.1246 0.2897 0.3177
C10 C 0.9228(5) 0.3850(4) 0.4251(4)
C11 C 0.7883(4) 0.3843(4) 0.5310(4)
C12 C 0.6627(4) 0.4924(4) 0.5756(4)
C13 C 0.6856(4) 0.8757(4) 0.4089(4)
H5 H 0.7761 0.8580 0.4326
H6 H 0.6766 0.9708 0.3907
H7 H 0.7007 0.8227 0.3384
C14 C 0.1682(4) 0.7864(5) 0.8119(4)
H8 H 0.1112 0.7074 0.8108
H9 H 0.0964 0.8663 0.8250
H10 H 0.2084 0.7779 0.8761
C15 C 0.6504(4) 0.1283(4) 0.7812(5)
C16 C 0.5750(4) 0.0165(4) 0.7662(5)
H11 H 0.5183 0.0211 0.7149
C17 C 0.5840(5) -0.1023(4) 0.8275(5)
H12 H 0.5330 -0.1776 0.8170
C18 C 0.6668(4) -0.1114(5) 0.9041(5)
H13 H 0.6714 -0.1921 0.9454
C19 C 0.7424(4) -0.0007(4) 0.9189(4)
H14 H 0.7993 -0.0056 0.9701
C20 C 0.7336(4) 0.1190(4) 0.8570(4)
C21 C 1.0091(6) 0.3326(7) 0.8866(5)
H15 H 1.1103 0.3514 0.8847
C22 C 0.8818(8) 0.4256(6) 0.9179(5)
H16 H 0.8798 0.5160 0.9398
C23 C 0.7573(6) 0.3585(5) 0.9105(5)
H17 H 0.6526 0.3939 0.9267
F1 F 0.9495(3) 0.4959(3) 0.3514(3)
N1 N 0.6505(3) 0.2506(3) 0.7098(3)
N2 N 0.8161(4) 0.2314(4) 0.8752(3)
N3 N 0.9739(4) 0.2122(5) 0.8590(4)
N4 N 1.0229(4) 0.1656(4) 0.4528(4)
O1 O 0.5407(3) 0.8392(3) 0.5063(3)
O2 O 0.2987(3) 0.7977(3) 0.6997(3)
O3 O 0.4160(3) 0.3287(3) 0.8522(3)
loop_
_geom_bond_atom_site_label_1
_geom_bond_atom_site_label_2
_geom_bond_site_symmetry_1
_geom_bond_site_symmetry_2
C1 H1 1_555 1_555
C2 C1 1_555 1_555
C3 C2 1_555 1_555
C4 C3 1_555 1_555
H2 C4 1_555 1_555
C5 C4 1_555 1_555
C6 C5 1_555 1_555
C7 C8 1_555 1_555
C8 H3 1_555 1_555
C9 H4 1_555 1_555
C10 C9 1_555 1_555
C11 C7 1_555 1_555
C12 C1 1_555 1_555
C13 H5 1_555 1_555
H6 C13 1_555 1_555
H7 C13 1_555 1_555
C14 H8 1_555 1_555
H9 C14 1_555 1_555
H10 C14 1_555 1_555
C15 C16 1_555 1_555
C16 H11 1_555 1_555
C17 C16 1_555 1_555
H12 C17 1_555 1_555
C18 C17 1_555 1_555
H13 C18 1_555 1_555
C19 C18 1_555 1_555
H14 C19 1_555 1_555
C20 C15 1_555 1_555
C21 H15 1_555 1_555
C22 C21 1_555 1_555
H16 C22 1_555 1_555
C23 C22 1_555 1_555
H17 C23 1_555 1_555
F1 C10 1_555 1_555
N1 C6 1_555 1_555
N2 C20 1_555 1_555
N3 C21 1_555 1_555
N4 C8 1_555 1_555
O1 C2 1_555 1_555
O2 C3 1_555 1_555
O3 C6 1_555 1_555
C5 C12 1_555 1_555
C7 N1 1_555 1_555
C9 N4 1_555 1_555
C10 C11 1_555 1_555
C11 C12 1_555 1_555
C13 O1 1_555 1_555
C14 O2 1_555 1_555
C15 N1 1_555 1_555
C19 C20 1_555 1_555
C23 N2 1_555 1_555
N2 N3 1_555 1_555

#END
