
#######################################################################
#
#                 Cambridge Crystallographic Data Centre
#                                CCDC 
#
#######################################################################
#
# If this CIF has been generated from an entry in the Cambridge 
# Structural Database, then it will include bibliographic, chemical, 
# crystal, experimental, refinement or atomic coordinate data resulting 
# from the CCDC's data processing and validation procedures.
#
#######################################################################

data_QEXDAB
_chemical_formula_moiety         'C23 H13 F4 N3 O1'
_chemical_name_systematic        
1,2,3,4-tetrafluoro-8-methyl-5-[2-(1H-pyrazol-1-yl)phenyl]phenanthridin-6(5H)-one
_symmetry_cell_setting           orthorhombic
_symmetry_space_group_name_H-M   'P b c a'
_symmetry_Int_Tables_number      61
_space_group_name_Hall           '-P 2ac 2ab'
loop_
_symmetry_equiv_pos_site_id
_symmetry_equiv_pos_as_xyz
1 x,y,z
2 1/2-x,-y,1/2+z
3 -x,1/2+y,1/2-z
4 1/2+x,1/2-y,-z
5 -x,-y,-z
6 1/2+x,y,1/2-z
7 x,1/2-y,1/2+z
8 1/2-x,1/2+y,z
_cell_length_a                   14.9544(7)
_cell_length_b                   9.9792(4)
_cell_length_c                   24.9127(11)
_cell_angle_alpha                90
_cell_angle_beta                 90
_cell_angle_gamma                90
_cell_volume                     3717.8
_exptl_crystal_colour            colorless
_exptl_crystal_description       REctangular
_cell_formula_units_Z            8
loop_
_atom_site_label
_atom_site_type_symbol
_atom_site_fract_x
_atom_site_fract_y
_atom_site_fract_z
C1 C -0.12919(14) 0.7436(2) -0.00005(9)
H1 H -0.1898 0.7280 0.0054
C2 C -0.10295(15) 0.8374(2) -0.03701(9)
H2 H -0.1465 0.8833 -0.0563
C3 C -0.01345(15) 0.8662(2) -0.04654(8)
C4 C 0.04897(14) 0.79827(19) -0.01650(8)
H3 H 0.1093 0.8171 -0.0214
C5 C 0.02402(12) 0.70175(18) 0.02126(7)
C6 C 0.09536(13) 0.6422(2) 0.05377(8)
C7 C -0.01831(12) 0.50152(18) 0.09675(7)
C8 C -0.03886(14) 0.3938(2) 0.13000(8)
C9 C -0.12477(15) 0.3518(2) 0.13774(9)
C10 C -0.19289(15) 0.4127(3) 0.11098(10)
C11 C -0.17417(14) 0.5152(2) 0.07637(9)
C12 C -0.08793(12) 0.56415(19) 0.06797(7)
C13 C -0.06622(12) 0.67063(19) 0.02977(7)
C14 C 0.01377(17) 0.9679(2) -0.08830(9)
H4 H 0.0723 1.0016 -0.0800
H5 H -0.0283 1.0406 -0.0884
H6 H 0.0146 0.9263 -0.1230
C15 C 0.13682(12) 0.51497(19) 0.13148(7)
C16 C 0.21109(14) 0.4405(2) 0.11864(9)
H7 H 0.2197 0.4117 0.0835
C17 C 0.27292(15) 0.4081(2) 0.15760(10)
H8 H 0.3229 0.3573 0.1487
C18 C 0.26074(16) 0.4509(2) 0.20946(10)
H9 H 0.3022 0.4281 0.2357
C19 C 0.18735(15) 0.5276(2) 0.22286(9)
H10 H 0.1798 0.5572 0.2580
C20 C 0.12495(13) 0.56062(18) 0.18394(8)
C21 C -0.01281(16) 0.6035(2) 0.23710(9)
H11 H -0.0094 0.5325 0.2612
C22 C -0.07905(16) 0.6957(2) 0.23390(9)
H12 H -0.1299 0.7017 0.2552
C23 C -0.05463(15) 0.7791(2) 0.19212(9)
H13 H -0.0884 0.8521 0.1809
F1 F 0.02516(8) 0.32324(12) 0.15534(5)
F2 F -0.14214(9) 0.24877(14) 0.17093(6)
F3 F -0.27750(9) 0.37028(18) 0.11778(7)
F4 F -0.24513(8) 0.56773(17) 0.05042(7)
N1 N 0.07025(10) 0.54562(15) 0.09119(6)
N2 N 0.04735(11) 0.63421(15) 0.19863(6)
N3 N 0.02195(12) 0.74346(16) 0.16996(7)
O1 O 0.17344(9) 0.67705(17) 0.05042(6)
loop_
_geom_bond_atom_site_label_1
_geom_bond_atom_site_label_2
_geom_bond_site_symmetry_1
_geom_bond_site_symmetry_2
C1 H1 1_555 1_555
C2 C1 1_555 1_555
H2 C2 1_555 1_555
C3 C2 1_555 1_555
C4 C3 1_555 1_555
H3 C4 1_555 1_555
C5 C4 1_555 1_555
C6 C5 1_555 1_555
C7 C8 1_555 1_555
C8 C9 1_555 1_555
C9 C10 1_555 1_555
C10 C11 1_555 1_555
C11 C12 1_555 1_555
C12 C7 1_555 1_555
C13 C1 1_555 1_555
C14 C3 1_555 1_555
H4 C14 1_555 1_555
H5 C14 1_555 1_555
H6 C14 1_555 1_555
C15 C16 1_555 1_555
C16 H7 1_555 1_555
C17 C16 1_555 1_555
H8 C17 1_555 1_555
C18 C17 1_555 1_555
H9 C18 1_555 1_555
C19 C18 1_555 1_555
H10 C19 1_555 1_555
C20 C15 1_555 1_555
C21 H11 1_555 1_555
C22 C21 1_555 1_555
H12 C22 1_555 1_555
C23 C22 1_555 1_555
H13 C23 1_555 1_555
F1 C8 1_555 1_555
F2 C9 1_555 1_555
F3 C10 1_555 1_555
F4 C11 1_555 1_555
N1 C6 1_555 1_555
N2 C20 1_555 1_555
N3 C23 1_555 1_555
O1 C6 1_555 1_555
C5 C13 1_555 1_555
C7 N1 1_555 1_555
C12 C13 1_555 1_555
C15 N1 1_555 1_555
C19 C20 1_555 1_555
C21 N2 1_555 1_555
N2 N3 1_555 1_555

#END
