
#######################################################################
#
#                 Cambridge Crystallographic Data Centre
#                                CCDC 
#
#######################################################################
#
# If this CIF has been generated from an entry in the Cambridge 
# Structural Database, then it will include bibliographic, chemical, 
# crystal, experimental, refinement or atomic coordinate data resulting 
# from the CCDC's data processing and validation procedures.
#
#######################################################################

data_QEXDIJ
_chemical_formula_moiety         'C19 H12 F3 N3 O1'
_chemical_name_systematic        
5,6,8-trifluoro-3-methyl-1-[2-(1H-pyrazol-1-yl)phenyl]quinolin-2(1H)-one
_symmetry_cell_setting           triclinic
_symmetry_space_group_name_H-M   'P -1'
_symmetry_Int_Tables_number      2
_space_group_name_Hall           '-P 1'
loop_
_symmetry_equiv_pos_site_id
_symmetry_equiv_pos_as_xyz
1 x,y,z
2 -x,-y,-z
_cell_length_a                   7.6826(3)
_cell_length_b                   10.8896(4)
_cell_length_c                   20.6937(8)
_cell_angle_alpha                90.6276(17)
_cell_angle_beta                 98.4411(17)
_cell_angle_gamma                107.2809(16)
_cell_volume                     1632.46
_exptl_crystal_colour            colorless
_exptl_crystal_description       Rectangular
_cell_formula_units_Z            4
loop_
_atom_site_label
_atom_site_type_symbol
_atom_site_fract_x
_atom_site_fract_y
_atom_site_fract_z
C1 C 1.1928(3) 0.4602(2) 0.33922(11)
C2 C 1.3300(3) 0.4200(2) 0.37286(12)
C3 C 1.2928(3) 0.2969(2) 0.39280(12)
H1 H 1.3865 0.2677 0.4144
C4 C 1.1143(3) 0.2174(2) 0.38023(10)
C5 C 0.9685(3) 0.25635(19) 0.34832(10)
C6 C 0.6444(3) 0.2169(2) 0.29824(11)
C7 C 0.6972(3) 0.3442(2) 0.27224(11)
C8 C 0.8699(3) 0.4222(2) 0.28745(11)
H2 H 0.8991 0.5050 0.2726
C9 C 1.0120(3) 0.38176(19) 0.32620(10)
C10 C 0.5474(3) 0.3797(2) 0.22931(13)
H3 H 0.5958 0.4649 0.2149
H4 H 0.4491 0.3776 0.2535
H5 H 0.5010 0.3195 0.1920
C11 C 0.7253(3) 0.05925(19) 0.36755(11)
C12 C 0.7200(3) 0.05956(19) 0.43430(11)
C13 C 0.6639(3) -0.0564(2) 0.46377(12)
H6 H 0.6594 -0.0565 0.5084
C14 C 0.6150(3) -0.1710(2) 0.42727(13)
H7 H 0.5787 -0.2485 0.4473
C15 C 0.6197(3) -0.1710(2) 0.36105(13)
H8 H 0.5874 -0.2485 0.3363
C16 C 0.6724(3) -0.0560(2) 0.33165(11)
H9 H 0.6722 -0.0564 0.2867
C17 C 0.8026(4) 0.3666(3) 0.50374(14)
H10 H 0.7851 0.4474 0.5058
C18 C 0.9267(4) 0.3281(3) 0.54821(14)
H11 H 1.0048 0.3759 0.5844
C19 C 0.9098(4) 0.2063(3) 0.52781(12)
H12 H 0.9749 0.1532 0.5474
F1 F 1.08441(17) 0.09505(12) 0.39845(7)
F2 F 1.50371(18) 0.50056(14) 0.38480(8)
F3 F 1.23498(18) 0.58070(12) 0.31716(8)
N1 N 0.7862(2) 0.17844(15) 0.33577(8)
N2 N 0.7808(2) 0.17621(17) 0.47369(9)
N3 N 0.7123(3) 0.27538(19) 0.45809(10)
O1 O 0.4873(2) 0.14522(16) 0.29086(9)
C20 C 0.9332(3) 1.1918(2) 0.16614(11)
C21 C 0.8016(3) 1.2269(2) 0.12617(12)
C22 C 0.6393(3) 1.1361(2) 0.09946(12)
H13 H 0.5490 1.1596 0.0719
C23 C 0.6138(3) 1.0107(2) 0.11426(12)
C24 C 0.7447(3) 0.9698(2) 0.15463(10)
C25 C 0.8559(3) 0.8054(2) 0.21296(11)
C26 C 1.0216(3) 0.9062(2) 0.24126(11)
C27 C 1.0465(3) 1.0277(2) 0.22474(11)
H14 H 1.1562 1.0903 0.2418
C28 C 0.9098(3) 1.0646(2) 0.18163(10)
C29 C 1.1576(3) 0.8643(3) 0.28857(14)
H15 H 1.2621 0.9374 0.3041
H16 H 1.1976 0.8014 0.2670
H17 H 1.1001 0.8272 0.3249
C30 C 0.5633(3) 0.7386(2) 0.14135(11)
C31 C 0.4170(3) 0.6926(2) 0.17476(13)
H18 H 0.4232 0.7258 0.2169
C32 C 0.2622(4) 0.5981(3) 0.14616(16)
H19 H 0.1637 0.5669 0.1689
C33 C 0.2530(4) 0.5497(3) 0.08380(17)
H20 H 0.1470 0.4866 0.0641
C34 C 0.3980(4) 0.5933(2) 0.05045(14)
H21 H 0.3904 0.5606 0.0081
C35 C 0.5566(3) 0.6866(2) 0.07984(12)
C36 C 0.8660(5) 0.8266(4) -0.02350(19)
H22 H 0.8999 0.8727 -0.0596
C37 C 0.9847(4) 0.7836(4) 0.01952(17)
H23 H 1.1089 0.7941 0.0186
C38 C 0.8813(4) 0.7225(3) 0.06365(15)
H24 H 0.9216 0.6822 0.0997
F4 F 1.09180(18) 1.28247(12) 0.19121(7)
F5 F 0.8307(2) 1.35163(13) 0.11239(8)
F6 F 0.45089(19) 0.92566(14) 0.08813(8)
N4 N 0.7230(2) 0.84226(16) 0.17059(9)
N5 N 0.7102(3) 0.7304(2) 0.04627(10)
N6 N 0.6983(4) 0.7955(3) -0.00829(13)
O2 O 0.8298(2) 0.69192(15) 0.22324(9)
loop_
_geom_bond_atom_site_label_1
_geom_bond_atom_site_label_2
_geom_bond_site_symmetry_1
_geom_bond_site_symmetry_2
C1 C2 1_555 1_555
C2 C3 1_555 1_555
C3 H1 1_555 1_555
C4 C3 1_555 1_555
C5 C4 1_555 1_555
C6 C7 1_555 1_555
C7 C8 1_555 1_555
C8 H2 1_555 1_555
C9 C1 1_555 1_555
C10 C7 1_555 1_555
H3 C10 1_555 1_555
H4 C10 1_555 1_555
H5 C10 1_555 1_555
C11 C12 1_555 1_555
C12 C13 1_555 1_555
C13 H6 1_555 1_555
C14 C13 1_555 1_555
H7 C14 1_555 1_555
C15 C14 1_555 1_555
H8 C15 1_555 1_555
C16 C11 1_555 1_555
H9 C16 1_555 1_555
C17 H10 1_555 1_555
C18 C17 1_555 1_555
H11 C18 1_555 1_555
C19 C18 1_555 1_555
H12 C19 1_555 1_555
F1 C4 1_555 1_555
F2 C2 1_555 1_555
F3 C1 1_555 1_555
N1 C5 1_555 1_555
N2 C12 1_555 1_555
N3 C17 1_555 1_555
O1 C6 1_555 1_555
C20 C21 1_555 1_555
C21 C22 1_555 1_555
C22 H13 1_555 1_555
C23 C22 1_555 1_555
C24 C23 1_555 1_555
C25 C26 1_555 1_555
C26 C27 1_555 1_555
C27 H14 1_555 1_555
C28 C20 1_555 1_555
C29 C26 1_555 1_555
H15 C29 1_555 1_555
H16 C29 1_555 1_555
H17 C29 1_555 1_555
C30 C31 1_555 1_555
C31 H18 1_555 1_555
C32 C31 1_555 1_555
H19 C32 1_555 1_555
C33 C32 1_555 1_555
H20 C33 1_555 1_555
C34 C33 1_555 1_555
H21 C34 1_555 1_555
C35 C30 1_555 1_555
C36 H22 1_555 1_555
C37 C36 1_555 1_555
H23 C37 1_555 1_555
C38 C37 1_555 1_555
H24 C38 1_555 1_555
F4 C20 1_555 1_555
F5 C21 1_555 1_555
F6 C23 1_555 1_555
N4 C24 1_555 1_555
N5 C35 1_555 1_555
N6 C36 1_555 1_555
O2 C25 1_555 1_555
C5 C9 1_555 1_555
C6 N1 1_555 1_555
C8 C9 1_555 1_555
C11 N1 1_555 1_555
C15 C16 1_555 1_555
C19 N2 1_555 1_555
N2 N3 1_555 1_555
C24 C28 1_555 1_555
C25 N4 1_555 1_555
C27 C28 1_555 1_555
C30 N4 1_555 1_555
C34 C35 1_555 1_555
C38 N5 1_555 1_555
N5 N6 1_555 1_555

#END
