
#######################################################################
#
#                 Cambridge Crystallographic Data Centre
#                                CCDC 
#
#######################################################################
#
# If this CIF has been generated from an entry in the Cambridge 
# Structural Database, then it will include bibliographic, chemical, 
# crystal, experimental, refinement or atomic coordinate data resulting 
# from the CCDC's data processing and validation procedures.
#
#######################################################################

data_QEXGUY
_chemical_formula_moiety         'C13 H16 O5'
_chemical_name_systematic        
4-hydroxy-5-methoxy-3-methyl-4,5,5a,7,8,8a-hexahydro-1H-pentaleno[1,2-c]pyran-1,6(3H)-dione
_symmetry_cell_setting           orthorhombic
_symmetry_space_group_name_H-M   'P 21 21 21'
_symmetry_Int_Tables_number      19
_space_group_name_Hall           'P 2ac 2ab'
loop_
_symmetry_equiv_pos_site_id
_symmetry_equiv_pos_as_xyz
1 x,y,z
2 1/2+x,1/2-y,-z
3 -x,1/2+y,1/2-z
4 1/2-x,-y,1/2+z
_cell_length_a                   5.1186(5)
_cell_length_b                   12.6605(12)
_cell_length_c                   19.2081(17)
_cell_angle_alpha                90
_cell_angle_beta                 90
_cell_angle_gamma                90
_cell_volume                     1244.76
_exptl_crystal_colour            colorless
_exptl_crystal_description       block
_cell_formula_units_Z            4
loop_
_atom_site_label
_atom_site_type_symbol
_atom_site_fract_x
_atom_site_fract_y
_atom_site_fract_z
C1 C 0.1402(9) 0.6090(3) 0.2176(2)
C2 C 0.2751(9) 0.5191(3) 0.2171(2)
C3 C 0.2607(9) 0.4659(3) 0.1478(2)
H1 H 0.1335 0.4082 0.1502
C4 C 0.3605(9) 0.6217(4) 0.0647(2)
C5 C 0.3383(10) 0.7341(3) 0.0887(3)
H2 H 0.3580 0.7823 0.0498
H3 H 0.4715 0.7500 0.1231
C6 C 0.0706(9) 0.7437(4) 0.1200(3)
H4 H -0.0570 0.7629 0.0849
H5 H 0.0685 0.7965 0.1566
C7 C 0.0905(10) 0.6669(4) 0.2825(2)
C8 C 0.4437(11) 0.5646(4) 0.3318(2)
H6 H 0.5873 0.6077 0.3137
C9 C 0.3965(10) 0.4747(4) 0.2814(2)
H7 H 0.2765 0.4236 0.3025
C10 C 0.5166(16) 0.5284(5) 0.4040(3)
H8 H 0.5499 0.5888 0.4329
H9 H 0.6707 0.4853 0.4017
H10 H 0.3756 0.4880 0.4234
C11 C 0.4947(15) 0.3497(5) 0.0738(3)
H11 H 0.3635 0.2977 0.0840
H12 H 0.6610 0.3155 0.0685
H13 H 0.4506 0.3856 0.0314
C12 C 0.1510(9) 0.5553(3) 0.1001(2)
H14 H 0.0280 0.5266 0.0659
C13 C 0.0134(8) 0.6336(3) 0.1495(2)
H15 H -0.1750 0.6201 0.1513
O1 O 0.5081(7) 0.4243(3) 0.12954(16)
O2 O 0.5132(8) 0.5893(3) 0.02173(17)
O3 O -0.0643(8) 0.7384(3) 0.2879(2)
O4 O 0.2154(7) 0.6320(3) 0.33956(17)
O5 O 0.6415(9) 0.4258(4) 0.2700(2)
H16 H 0.6514 0.4063 0.2293
loop_
_geom_bond_atom_site_label_1
_geom_bond_atom_site_label_2
_geom_bond_site_symmetry_1
_geom_bond_site_symmetry_2
C1 C2 1_555 1_555
C2 C3 1_555 1_555
C3 H1 1_555 1_555
C4 C5 1_555 1_555
C5 H2 1_555 1_555
H3 C5 1_555 1_555
C6 C5 1_555 1_555
H4 C6 1_555 1_555
H5 C6 1_555 1_555
C7 C1 1_555 1_555
C8 H6 1_555 1_555
C9 C2 1_555 1_555
H7 C9 1_555 1_555
C10 C8 1_555 1_555
H8 C10 1_555 1_555
H9 C10 1_555 1_555
H10 C10 1_555 1_555
C11 H11 1_555 1_555
H12 C11 1_555 1_555
H13 C11 1_555 1_555
C12 C3 1_555 1_555
H14 C12 1_555 1_555
C13 C1 1_555 1_555
H15 C13 1_555 1_555
O1 C3 1_555 1_555
O2 C4 1_555 1_555
O3 C7 1_555 1_555
O4 C7 1_555 1_555
O5 C9 1_555 1_555
H16 O5 1_555 1_555
C4 C12 1_555 1_555
C6 C13 1_555 1_555
C8 C9 1_555 1_555
C8 O4 1_555 1_555
C11 O1 1_555 1_555
C12 C13 1_555 1_555

#END
