
#######################################################################
#
#                 Cambridge Crystallographic Data Centre
#                                CCDC 
#
#######################################################################
#
# If this CIF has been generated from an entry in the Cambridge 
# Structural Database, then it will include bibliographic, chemical, 
# crystal, experimental, refinement or atomic coordinate data resulting 
# from the CCDC's data processing and validation procedures.
#
#######################################################################

data_QEXHIL
_chemical_formula_moiety         'C23 H21 N3 O2'
_chemical_name_systematic        
(E)-4-(6-Methoxy-2-naphthylmethylideneamino)-1,5-dimethyl-2-phenyl-1H-pyrazol-3(2H)-one
_symmetry_cell_setting           monoclinic
_symmetry_space_group_name_H-M   'P 21/n'
_symmetry_Int_Tables_number      14
_space_group_name_Hall           '-P 2yn'
loop_
_symmetry_equiv_pos_site_id
_symmetry_equiv_pos_as_xyz
1 x,y,z
2 1/2-x,1/2+y,1/2-z
3 -x,-y,-z
4 1/2+x,1/2-y,1/2+z
_cell_length_a                   8.102(2)
_cell_length_b                   7.1317(19)
_cell_length_c                   33.558(9)
_cell_angle_alpha                90
_cell_angle_beta                 90.761(4)
_cell_angle_gamma                90
_cell_volume                     1938.84
_exptl_crystal_colour            yellow
_exptl_crystal_description       block
_cell_formula_units_Z            4
_exptl_crystal_recrystallization_method ethanol/n-hexane
loop_
_atom_site_label
_atom_site_type_symbol
_atom_site_fract_x
_atom_site_fract_y
_atom_site_fract_z
C1 C 0.99423(17) 0.6537(2) 0.22771(4)
C2 C 1.07250(18) 0.7784(2) 0.25567(4)
C3 C 0.95695(17) 0.4913(2) 0.24684(5)
C4 C 0.88471(19) 0.3170(2) 0.23002(5)
H1 H 0.9659 0.2190 0.2308
H2 H 0.8503 0.3388 0.2029
H3 H 0.7911 0.2804 0.2454
C5 C 1.0526(2) 0.3455(2) 0.31043(4)
H4 H 0.9800 0.2409 0.3060
H5 H 1.0515 0.3797 0.3381
H6 H 1.1627 0.3116 0.3031
C6 C 1.08658(19) 0.7626(2) 0.32955(4)
C7 C 0.96432(19) 0.7318(2) 0.35721(5)
H7 H 0.8765 0.6522 0.3513
C8 C 0.9743(2) 0.8204(3) 0.39359(5)
H8 H 0.8935 0.7986 0.4125
C9 C 1.1020(2) 0.9404(2) 0.40238(5)
H9 H 1.1076 0.9999 0.4270
C10 C 1.2216(2) 0.9720(2) 0.37445(5)
H10 H 1.3074 1.0547 0.3802
C11 C 1.2155(2) 0.8828(2) 0.33820(5)
H11 H 1.2978 0.9032 0.3196
C12 C 0.97477(18) 0.8426(2) 0.17111(5)
H12 H 1.0294 0.9371 0.1851
C13 C 0.92120(18) 0.8757(2) 0.13012(4)
C14 C 0.95159(18) 1.0442(2) 0.11198(5)
H13 H 1.0087 1.1364 0.1261
C15 C 0.89886(18) 1.0819(2) 0.07259(5)
C16 C 0.92470(19) 1.2560(2) 0.05364(5)
H14 H 0.9810 1.3507 0.0672
C17 C 0.8688(2) 1.2871(3) 0.01607(5)
H15 H 0.8854 1.4036 0.0043
C18 C 0.78663(19) 1.1467(3) -0.00534(5)
C19 C 0.75969(19) 0.9768(3) 0.01155(5)
H16 H 0.7049 0.8838 -0.0028
C20 C 0.81493(18) 0.9409(2) 0.05106(5)
C21 C 0.78510(19) 0.7677(2) 0.07011(5)
H17 H 0.7292 0.6735 0.0563
C22 C 0.83652(19) 0.7362(2) 0.10820(5)
H18 H 0.8156 0.6208 0.1200
C23 C 0.6579(2) 1.0601(3) -0.06691(5)
H19 H 0.7293 0.9539 -0.0702
H20 H 0.6309 1.1125 -0.0925
H21 H 0.5585 1.0209 -0.0541
N1 N 1.08013(14) 0.67643(18) 0.29146(4)
N2 N 0.99672(15) 0.50504(18) 0.28617(4)
N3 N 0.94767(15) 0.68509(19) 0.18819(4)
O1 O 1.12068(13) 0.94131(16) 0.25253(3)
O2 O 0.73941(14) 1.19784(17) -0.04305(3)
loop_
_geom_bond_atom_site_label_1
_geom_bond_atom_site_label_2
_geom_bond_site_symmetry_1
_geom_bond_site_symmetry_2
C1 C2 1_555 1_555
C2 N1 1_555 1_555
C3 C1 1_555 1_555
C4 C3 1_555 1_555
H1 C4 1_555 1_555
H2 C4 1_555 1_555
H3 C4 1_555 1_555
C5 H4 1_555 1_555
H5 C5 1_555 1_555
H6 C5 1_555 1_555
C6 C7 1_555 1_555
C7 H7 1_555 1_555
C8 C7 1_555 1_555
H8 C8 1_555 1_555
C9 C8 1_555 1_555
H9 C9 1_555 1_555
C10 C9 1_555 1_555
H10 C10 1_555 1_555
C11 C6 1_555 1_555
H11 C11 1_555 1_555
C12 H12 1_555 1_555
C13 C12 1_555 1_555
C14 C13 1_555 1_555
H13 C14 1_555 1_555
C15 C14 1_555 1_555
C16 C15 1_555 1_555
H14 C16 1_555 1_555
C17 C16 1_555 1_555
H15 C17 1_555 1_555
C18 C17 1_555 1_555
C19 C18 1_555 1_555
H16 C19 1_555 1_555
C20 C15 1_555 1_555
C21 C20 1_555 1_555
H17 C21 1_555 1_555
C22 C13 1_555 1_555
H18 C22 1_555 1_555
C23 H19 1_555 1_555
H20 C23 1_555 1_555
H21 C23 1_555 1_555
N1 C6 1_555 1_555
N2 C3 1_555 1_555
N3 C1 1_555 1_555
O1 C2 1_555 1_555
O2 C18 1_555 1_555
C5 N2 1_555 1_555
C10 C11 1_555 1_555
C12 N3 1_555 1_555
C19 C20 1_555 1_555
C21 C22 1_555 1_555
C23 O2 1_555 1_555
N1 N2 1_555 1_555

#END
