
#######################################################################
#
#                 Cambridge Crystallographic Data Centre
#                                CCDC 
#
#######################################################################
#
# If this CIF has been generated from an entry in the Cambridge 
# Structural Database, then it will include bibliographic, chemical, 
# crystal, experimental, refinement or atomic coordinate data resulting 
# from the CCDC's data processing and validation procedures.
#
#######################################################################

data_QEXHIM
_chemical_formula_moiety         'C23 H18 Cl2 F3 N3 O4'
_chemical_name_systematic        
'Methyl 2-(2-(((2-((2,4-dichlorophenyl)amino)-6-(trifluoromethyl)pyrimidin-4-yl)oxy)methyl)phenyl)-3-methoxyacrylate'
_symmetry_cell_setting           monoclinic
_symmetry_space_group_name_H-M   'P 21/c'
_symmetry_Int_Tables_number      14
_space_group_name_Hall           '-P 2ybc'
loop_
_symmetry_equiv_pos_site_id
_symmetry_equiv_pos_as_xyz
1 x,y,z
2 -x,1/2+y,1/2-z
3 -x,-y,-z
4 x,1/2-y,1/2+z
_cell_length_a                   11.4505(12)
_cell_length_b                   8.4224(8)
_cell_length_c                   24.5301(18)
_cell_angle_alpha                90
_cell_angle_beta                 103.462(7)
_cell_angle_gamma                90
_cell_volume                     2300.7
_exptl_crystal_colour            colorless
_exptl_crystal_description       Prism
_cell_formula_units_Z            4
loop_
_atom_site_label
_atom_site_type_symbol
_atom_site_fract_x
_atom_site_fract_y
_atom_site_fract_z
Cl1 Cl 0.34514(6) 1.43811(7) 1.03703(3)
Cl2 Cl 0.27007(6) 1.34348(8) 0.81523(3)
F1 F 0.74775(16) 1.0477(2) 1.23589(6)
F2 F 0.85077(16) 1.25350(18) 1.22618(6)
F3 F 0.93172(16) 1.0239(2) 1.23278(6)
O1 O 0.86658(14) 0.90182(18) 1.03058(6)
O2 O 0.64849(15) 0.6362(2) 0.83047(7)
O3 O 0.84221(15) 1.12545(19) 0.86748(7)
N1 N 0.55316(19) 1.2303(2) 1.04649(8)
N2 N 0.69254(19) 1.1649(2) 1.12516(8)
N3 N 0.71108(16) 1.0665(2) 1.03629(7)
C1 C 0.3893(2) 1.3494(3) 0.98088(10)
C2 C 0.3230(2) 1.3785(3) 0.92738(10)
H1 H 0.2559 1.4480 0.9214
C3 C 0.3544(2) 1.3067(3) 0.88270(10)
C4 C 0.4513(2) 1.2065(3) 0.89111(10)
H2 H 0.4720 1.1559 0.8600
C5 C 0.5189(2) 1.1789(3) 0.94473(10)
H3 H 0.5866 1.1106 0.9501
C6 C 0.4891(2) 1.2501(3) 0.99102(9)
C7 C 0.6570(2) 1.1505(3) 1.06978(9)
C8 C 0.8087(2) 0.9891(3) 1.06150(9)
C9 C 0.8553(2) 0.9921(3) 1.11951(9)
H4 H 0.9251 0.9347 1.1374
C10 C 0.7922(2) 1.0844(3) 1.14830(9)
C11 C 0.8312(3) 1.1022(3) 1.21087(10)
C12 C 0.8221(2) 0.9160(3) 0.97096(8)
H5 H 0.8270 1.0280 0.9595
H6 H 0.7369 0.8826 0.9603
C13 C 0.8955(2) 0.8134(2) 0.94171(9)
C14 C 0.9950(2) 0.7315(3) 0.97026(10)
H7 H 1.0193 0.7398 1.0099
C15 C 1.0603(2) 0.6368(3) 0.94172(11)
H8 H 1.1284 0.5803 0.9620
C16 C 1.0268(2) 0.6245(3) 0.88440(10)
H9 H 1.0724 0.5612 0.8649
C17 C 0.9263(2) 0.7047(3) 0.85535(10)
H10 H 0.9024 0.6949 0.8157
C18 C 0.8595(2) 0.7995(3) 0.88320(9)
C19 C 0.5371(2) 0.5614(4) 0.80324(12)
H11 H 0.4725 0.6008 0.8197
H12 H 0.5445 0.4461 0.8084
H13 H 0.5186 0.5864 0.7631
C20 C 0.8351(3) 1.2963(3) 0.86866(11)
H14 H 0.7983 1.3357 0.8310
H15 H 0.9160 1.3407 0.8812
H16 H 0.7860 1.3285 0.8946
H17 H 0.525(2) 1.281(3) 1.0690(11)
O4 O 0.64780(17) 1.1228(2) 0.82206(7)
C21 C 0.7483(2) 0.8788(3) 0.85117(9)
C22 C 0.6497(2) 0.7946(3) 0.82665(9)
H18 H 0.5802 0.8486 0.8064
C23 C 0.7394(2) 1.0507(3) 0.84472(9)
loop_
_geom_bond_atom_site_label_1
_geom_bond_atom_site_label_2
_geom_bond_site_symmetry_1
_geom_bond_site_symmetry_2
Cl1 C1 1_555 1_555
Cl2 C3 1_555 1_555
F1 C11 1_555 1_555
F2 C11 1_555 1_555
F3 C11 1_555 1_555
O1 C8 1_555 1_555
O2 C19 1_555 1_555
O3 C20 1_555 1_555
N1 C6 1_555 1_555
N2 C7 1_555 1_555
N3 C7 1_555 1_555
C1 C2 1_555 1_555
C2 H1 1_555 1_555
C3 C2 1_555 1_555
C4 C3 1_555 1_555
H2 C4 1_555 1_555
C5 C4 1_555 1_555
H3 C5 1_555 1_555
C6 C1 1_555 1_555
C7 N1 1_555 1_555
C8 N3 1_555 1_555
C9 C8 1_555 1_555
H4 C9 1_555 1_555
C10 N2 1_555 1_555
C11 C10 1_555 1_555
C12 O1 1_555 1_555
H5 C12 1_555 1_555
H6 C12 1_555 1_555
C13 C12 1_555 1_555
C14 C13 1_555 1_555
H7 C14 1_555 1_555
C15 C14 1_555 1_555
H8 C15 1_555 1_555
C16 C15 1_555 1_555
H9 C16 1_555 1_555
C17 C16 1_555 1_555
H10 C17 1_555 1_555
C18 C13 1_555 1_555
C19 H11 1_555 1_555
H12 C19 1_555 1_555
H13 C19 1_555 1_555
C20 H14 1_555 1_555
H15 C20 1_555 1_555
H16 C20 1_555 1_555
H17 N1 1_555 1_555
O4 C23 1_555 1_555
C21 C18 1_555 1_555
C22 O2 1_555 1_555
H18 C22 1_555 1_555
C23 O3 1_555 1_555
C5 C6 1_555 1_555
C9 C10 1_555 1_555
C17 C18 1_555 1_555
C21 C22 1_555 1_555
C21 C23 1_555 1_555

#END
