
#######################################################################
#
#                 Cambridge Crystallographic Data Centre
#                                CCDC 
#
#######################################################################
#
# If this CIF has been generated from an entry in the Cambridge 
# Structural Database, then it will include bibliographic, chemical, 
# crystal, experimental, refinement or atomic coordinate data resulting 
# from the CCDC's data processing and validation procedures.
#
#######################################################################

data_QEXJUZ
_chemical_formula_moiety         'C30 H18 O2'
_chemical_name_systematic        3,3'-Diphenylbi-1H-indene-1,1'-dione
_symmetry_cell_setting           orthorhombic
_symmetry_space_group_name_H-M   'P b c a'
_symmetry_Int_Tables_number      61
_space_group_name_Hall           '-P 2ac 2ab'
loop_
_symmetry_equiv_pos_site_id
_symmetry_equiv_pos_as_xyz
1 x,y,z
2 1/2-x,-y,1/2+z
3 -x,1/2+y,1/2-z
4 1/2+x,1/2-y,-z
5 -x,-y,-z
6 1/2+x,y,1/2-z
7 x,1/2-y,1/2+z
8 1/2-x,1/2+y,z
_cell_length_a                   14.5873(15)
_cell_length_b                   16.8272(17)
_cell_length_c                   17.5740(18)
_cell_angle_alpha                90
_cell_angle_beta                 90
_cell_angle_gamma                90
_cell_volume                     4313.77
_exptl_crystal_colour            red
_exptl_crystal_description       block
_cell_formula_units_Z            8
_exptl_crystal_recrystallization_method dichloromethane
loop_
_atom_site_label
_atom_site_type_symbol
_atom_site_fract_x
_atom_site_fract_y
_atom_site_fract_z
O1 O 0.40621(8) 0.14725(6) 0.36317(6)
O2 O 0.35530(8) 0.42527(7) 0.30947(6)
C1 C 0.46065(10) 0.28359(8) 0.36595(8)
C2 C 0.46195(10) 0.19717(9) 0.34520(8)
C3 C 0.54526(10) 0.18547(9) 0.29767(9)
C4 C 0.57879(12) 0.11850(10) 0.26284(11)
H1 H 0.5488 0.0700 0.2674
C5 C 0.65885(14) 0.12538(12) 0.22068(13)
H2 H 0.6822 0.0812 0.1955
C6 C 0.70384(14) 0.19686(12) 0.21585(13)
H3 H 0.7575 0.2002 0.1874
C7 C 0.67099(11) 0.26451(11) 0.25254(10)
H4 H 0.7028 0.3123 0.2502
C8 C 0.58999(10) 0.25840(9) 0.29233(9)
C9 C 0.53614(10) 0.31854(9) 0.33560(8)
C10 C 0.56624(10) 0.40131(9) 0.34505(9)
C11 C 0.59785(11) 0.44598(10) 0.28404(9)
H5 H 0.5998 0.4235 0.2357
C12 C 0.62633(12) 0.52306(10) 0.29434(11)
H6 H 0.6466 0.5525 0.2528
C13 C 0.62520(14) 0.55679(12) 0.36499(12)
H7 H 0.6444 0.6090 0.3716
C14 C 0.59560(15) 0.51313(12) 0.42620(12)
H8 H 0.5956 0.5357 0.4745
C15 C 0.56579(12) 0.43595(11) 0.41665(10)
H9 H 0.5453 0.4070 0.4584
C16 C 0.38221(10) 0.32128(8) 0.40284(8)
C17 C 0.33411(11) 0.39110(9) 0.36758(8)
C18 C 0.25425(10) 0.40858(9) 0.41754(8)
C19 C 0.19266(11) 0.47022(9) 0.41555(9)
H10 H 0.1947 0.5079 0.3769
C20 C 0.12727(12) 0.47468(11) 0.47279(10)
H11 H 0.0847 0.5158 0.4727
C21 C 0.12523(12) 0.41878(11) 0.52946(11)
H12 H 0.0805 0.4223 0.5670
C22 C 0.18847(11) 0.35678(10) 0.53217(9)
H13 H 0.1869 0.3196 0.5713
C23 C 0.25340(10) 0.35197(9) 0.47549(8)
C24 C 0.33443(10) 0.29837(8) 0.46529(8)
C25 C 0.35976(11) 0.23709(9) 0.52110(8)
C26 C 0.29615(13) 0.18397(10) 0.55014(11)
H14 H 0.2361 0.1850 0.5325
C27 C 0.32139(16) 0.12944(12) 0.60525(12)
H15 H 0.2784 0.0936 0.6238
C28 C 0.40892(17) 0.12796(13) 0.63254(12)
H16 H 0.4252 0.0919 0.6703
C29 C 0.47283(16) 0.17975(13) 0.60418(11)
H17 H 0.5326 0.1785 0.6226
C30 C 0.44892(12) 0.23370(11) 0.54846(10)
H18 H 0.4930 0.2681 0.5291
loop_
_geom_bond_atom_site_label_1
_geom_bond_atom_site_label_2
_geom_bond_site_symmetry_1
_geom_bond_site_symmetry_2
O1 C2 1_555 1_555
O2 C17 1_555 1_555
C1 C2 1_555 1_555
C2 C3 1_555 1_555
C3 C4 1_555 1_555
C4 H1 1_555 1_555
C5 C4 1_555 1_555
H2 C5 1_555 1_555
C6 C5 1_555 1_555
H3 C6 1_555 1_555
C7 C6 1_555 1_555
H4 C7 1_555 1_555
C8 C3 1_555 1_555
C9 C1 1_555 1_555
C10 C9 1_555 1_555
C11 C10 1_555 1_555
H5 C11 1_555 1_555
C12 C11 1_555 1_555
H6 C12 1_555 1_555
C13 C12 1_555 1_555
H7 C13 1_555 1_555
C14 C13 1_555 1_555
H8 C14 1_555 1_555
C15 C10 1_555 1_555
H9 C15 1_555 1_555
C16 C1 1_555 1_555
C17 C16 1_555 1_555
C18 C17 1_555 1_555
C19 C18 1_555 1_555
H10 C19 1_555 1_555
C20 C19 1_555 1_555
H11 C20 1_555 1_555
C21 C20 1_555 1_555
H12 C21 1_555 1_555
C22 C21 1_555 1_555
H13 C22 1_555 1_555
C23 C18 1_555 1_555
C24 C16 1_555 1_555
C25 C24 1_555 1_555
C26 C25 1_555 1_555
H14 C26 1_555 1_555
C27 C26 1_555 1_555
H15 C27 1_555 1_555
C28 C27 1_555 1_555
H16 C28 1_555 1_555
C29 C28 1_555 1_555
H17 C29 1_555 1_555
C30 C25 1_555 1_555
H18 C30 1_555 1_555
C7 C8 1_555 1_555
C8 C9 1_555 1_555
C14 C15 1_555 1_555
C22 C23 1_555 1_555
C23 C24 1_555 1_555
C29 C30 1_555 1_555

#END
