
#######################################################################
#
#                 Cambridge Crystallographic Data Centre
#                                CCDC 
#
#######################################################################
#
# If this CIF has been generated from an entry in the Cambridge 
# Structural Database, then it will include bibliographic, chemical, 
# crystal, experimental, refinement or atomic coordinate data resulting 
# from the CCDC's data processing and validation procedures.
#
#######################################################################

data_QEXKOU
_chemical_formula_moiety         'C12 H10 N8 O2 S1,H2 O1'
_chemical_name_systematic        
'4-(4-Nitrobenzylideneamino)-3-(1H-1,2,4-triazol-1-ylmethyl)-1H-1,2,4-triazole-5(4H)-thione monohydrate'
_symmetry_cell_setting           monoclinic
_symmetry_space_group_name_H-M   'P 21/c'
_symmetry_Int_Tables_number      14
_space_group_name_Hall           '-P 2ybc'
loop_
_symmetry_equiv_pos_site_id
_symmetry_equiv_pos_as_xyz
1 x,y,z
2 -x,1/2+y,1/2-z
3 -x,-y,-z
4 x,1/2-y,1/2+z
_cell_length_a                   8.1883(16)
_cell_length_b                   24.938(5)
_cell_length_c                   7.5896(15)
_cell_angle_alpha                90
_cell_angle_beta                 93.56(3)
_cell_angle_gamma                90
_cell_volume                     1546.8
_exptl_crystal_colour            colorless
_exptl_crystal_description       plate
_cell_formula_units_Z            4
_exptl_crystal_recrystallization_method ethanol
loop_
_atom_site_label
_atom_site_type_symbol
_atom_site_fract_x
_atom_site_fract_y
_atom_site_fract_z
S1 S 0.50498(8) 0.57348(2) 0.48086(7)
O1 O 1.0814(4) 0.35604(11) 1.2682(4)
O2 O 1.0145(3) 0.40299(12) 1.4878(4)
N1 N 0.6462(2) 0.69082(6) 1.1192(2)
N2 N 0.6988(3) 0.73357(8) 1.0295(3)
N3 N 0.9021(3) 0.69839(8) 1.2036(2)
N4 N 0.3596(2) 0.68576(7) 0.7878(2)
N5 N 0.3697(2) 0.65906(6) 0.6313(2)
H1 H 0.3201 0.6695 0.5342
N6 N 0.51264(18) 0.61385(6) 0.82115(19)
N7 N 0.60291(19) 0.57820(6) 0.9267(2)
N8 N 1.0113(3) 0.39316(11) 1.3304(4)
C1 C 0.8518(4) 0.73615(11) 1.0843(3)
H2 H 0.9220 0.7622 1.0443
C2 C 0.7675(3) 0.67101(8) 1.2218(3)
H3 H 0.7587 0.6417 1.2966
C3 C 0.4801(2) 0.67234(9) 1.0890(3)
H4 H 0.4052 0.7003 1.1211
H5 H 0.4626 0.6413 1.1624
C4 C 0.4470(2) 0.65796(8) 0.9009(2)
C5 C 0.4635(2) 0.61532(7) 0.6431(2)
C6 C 0.6567(2) 0.53524(8) 0.8636(3)
H6 H 0.6396 0.5272 0.7442
C7 C 0.7474(2) 0.49836(8) 0.9851(3)
C8 C 0.8153(3) 0.45192(8) 0.9197(3)
H7 H 0.8027 0.4442 0.7998
C9 C 0.9019(3) 0.41706(9) 1.0333(4)
H8 H 0.9488 0.3861 0.9908
C10 C 0.9167(3) 0.42927(9) 1.2087(3)
C11 C 0.8487(3) 0.47425(10) 1.2777(3)
H9 H 0.8593 0.4812 1.3983
C12 C 0.7646(3) 0.50880(9) 1.1642(3)
H10 H 0.7185 0.5397 1.2085
O3 O 0.2087(2) 0.71050(7) 0.3670(2)
H11 H 0.245(4) 0.7429(15) 0.339(5)
H12 H 0.107(5) 0.7072(13) 0.325(4)
loop_
_geom_bond_atom_site_label_1
_geom_bond_atom_site_label_2
_geom_bond_site_symmetry_1
_geom_bond_site_symmetry_2
S1 C5 1_555 1_555
O1 N8 1_555 1_555
O2 N8 1_555 1_555
N1 N2 1_555 1_555
N2 C1 1_555 1_555
N3 C1 1_555 1_555
N4 N5 1_555 1_555
N5 H1 1_555 1_555
N6 N7 1_555 1_555
N7 C6 1_555 1_555
N8 C10 1_555 1_555
C1 H2 1_555 1_555
C2 N1 1_555 1_555
H3 C2 1_555 1_555
C3 N1 1_555 1_555
H4 C3 1_555 1_555
H5 C3 1_555 1_555
C4 N4 1_555 1_555
C5 N5 1_555 1_555
C6 H6 1_555 1_555
C7 C6 1_555 1_555
C8 C7 1_555 1_555
H7 C8 1_555 1_555
C9 C8 1_555 1_555
H8 C9 1_555 1_555
C10 C9 1_555 1_555
C11 C10 1_555 1_555
H9 C11 1_555 1_555
C12 C7 1_555 1_555
H10 C12 1_555 1_555
O3 H11 1_555 1_555
H12 O3 1_555 1_555
N3 C2 1_555 1_555
N6 C4 1_555 1_555
N6 C5 1_555 1_555
C3 C4 1_555 1_555
C11 C12 1_555 1_555

#END
