
#######################################################################
#
#                 Cambridge Crystallographic Data Centre
#                                CCDC 
#
#######################################################################
#
# If this CIF has been generated from an entry in the Cambridge 
# Structural Database, then it will include bibliographic, chemical, 
# crystal, experimental, refinement or atomic coordinate data resulting 
# from the CCDC's data processing and validation procedures.
#
#######################################################################

data_QEXKOW
_chemical_formula_moiety         'C35 H51 N3 O1'
_chemical_name_systematic        
N-[(dicyclohexylamino){[2,6-bis(propan-2-yl)phenyl]amino}methylidene]-2,4,6-trimethylbenzamide
_symmetry_cell_setting           monoclinic
_symmetry_space_group_name_H-M   'P 21/n'
_symmetry_Int_Tables_number      14
_space_group_name_Hall           '-P 2yn'
loop_
_symmetry_equiv_pos_site_id
_symmetry_equiv_pos_as_xyz
1 x,y,z
2 1/2-x,1/2+y,1/2-z
3 -x,-y,-z
4 1/2+x,1/2-y,1/2+z
_cell_length_a                   9.6488(3)
_cell_length_b                   28.5318(8)
_cell_length_c                   11.9155(3)
_cell_angle_alpha                90
_cell_angle_beta                 91.439(2)
_cell_angle_gamma                90
_cell_volume                     3279.27
_exptl_crystal_colour            colorless
_exptl_crystal_description       block
_cell_formula_units_Z            4
loop_
_atom_site_label
_atom_site_type_symbol
_atom_site_fract_x
_atom_site_fract_y
_atom_site_fract_z
O1 O 0.78710(15) 0.16306(4) 0.43710(9)
N1 N 0.81269(12) 0.17700(4) 0.22404(9)
H1 H 0.8142 0.1842 0.2976
N2 N 0.76519(12) 0.10393(4) 0.30299(8)
N3 N 0.75853(11) 0.11037(4) 0.11124(8)
C1 C 0.77906(13) 0.13133(4) 0.21212(10)
C2 C 0.77556(15) 0.12137(5) 0.40779(11)
C3 C 0.76758(15) 0.08379(5) 0.49590(10)
C4 C 0.89066(16) 0.06560(5) 0.54313(12)
C5 C 0.88178(17) 0.03043(6) 0.62279(13)
H2 H 0.9632 0.0182 0.6544
C6 C 0.75578(17) 0.01283(6) 0.65701(13)
C7 C 0.63594(17) 0.03148(5) 0.60908(12)
H3 H 0.5506 0.0200 0.6311
C8 C 0.63937(15) 0.06688(5) 0.52902(11)
C9 C 0.50568(18) 0.08704(6) 0.48254(16)
H4 H 0.4310 0.0658 0.4968
H5 H 0.5128 0.0916 0.4031
H6 H 0.4879 0.1165 0.5181
C10 C 1.03008(19) 0.08352(7) 0.50835(18)
H7 H 1.0471 0.1136 0.5420
H8 H 1.0309 0.0864 0.4281
H9 H 1.1010 0.0619 0.5328
C11 C 0.7501(2) -0.02563(8) 0.74359(18)
H10 H 0.6648 -0.0427 0.7340
H11 H 0.7548 -0.0121 0.8174
H12 H 0.8269 -0.0465 0.7345
C12 C 0.87433(15) 0.20988(5) 0.14882(11)
C13 C 0.79666(18) 0.24950(5) 0.11791(14)
C14 C 0.8579(2) 0.28187(6) 0.04732(17)
H13 H 0.8081 0.3082 0.0241
C15 C 0.9897(2) 0.27565(6) 0.01172(17)
H14 H 1.0282 0.2975 -0.0363
C16 C 1.0663(2) 0.23742(6) 0.04614(16)
H15 H 1.1568 0.2342 0.0222
C17 C 1.01100(16) 0.20339(5) 0.11626(12)
C18 C 1.09937(17) 0.16339(6) 0.16103(15)
H16 H 1.0365 0.1374 0.1775
C19 C 1.1690(3) 0.17759(11) 0.2706(2)
H17 H 1.2315 0.2031 0.2577
H18 H 1.2199 0.1514 0.3013
H19 H 1.1001 0.1872 0.3225
C20 C 1.2038(3) 0.14508(10) 0.0783(2)
H20 H 1.2725 0.1687 0.0656
H21 H 1.1569 0.1375 0.0086
H22 H 1.2477 0.1175 0.1084
C21 C 0.6543(2) 0.25802(7) 0.16380(19)
H23 H 0.6224 0.2282 0.1950
C22 C 0.6634(3) 0.29232(16) 0.2586(3)
H24 H 0.7319 0.2819 0.3129
H25 H 0.5750 0.2946 0.2934
H26 H 0.6892 0.3225 0.2303
C23 C 0.5464(3) 0.27349(11) 0.0773(3)
H27 H 0.4571 0.2745 0.1110
H28 H 0.5439 0.2517 0.0160
H29 H 0.5696 0.3041 0.0501
C24 C 0.74825(14) 0.05842(4) 0.10263(10)
H30 H 0.7386 0.0517 0.0221
C25 C 0.88116(16) 0.03397(5) 0.14128(13)
H31 H 0.8961 0.0388 0.2213
H32 H 0.9592 0.0474 0.1028
C26 C 0.8724(2) -0.01846(6) 0.11666(16)
H33 H 0.8675 -0.0233 0.0361
H34 H 0.9555 -0.0338 0.1458
C27 C 0.7469(2) -0.04031(6) 0.16906(16)
H35 H 0.7558 -0.0381 0.2502
H36 H 0.7419 -0.0732 0.1490
C28 C 0.6149(2) -0.01580(6) 0.12939(14)
H37 H 0.5362 -0.0296 0.1662
H38 H 0.6020 -0.0203 0.0491
C29 C 0.62104(16) 0.03652(5) 0.15535(13)
H39 H 0.6254 0.0412 0.2360
H40 H 0.5378 0.0517 0.1260
C30 C 0.72605(15) 0.13691(5) 0.00689(11)
H41 H 0.7344 0.1702 0.0260
C31 C 0.8269(2) 0.12779(7) -0.08565(14)
H42 H 0.8244 0.0948 -0.1056
H43 H 0.9202 0.1353 -0.0591
C32 C 0.7908(3) 0.15737(9) -0.18913(16)
H44 H 0.8039 0.1903 -0.1711
H45 H 0.8532 0.1494 -0.2488
C33 C 0.6440(4) 0.14955(9) -0.22923(18)
H46 H 0.6335 0.1175 -0.2553
H47 H 0.6231 0.1702 -0.2920
C34 C 0.5432(3) 0.15865(8) -0.1371(2)
H48 H 0.4500 0.1514 -0.1642
H49 H 0.5461 0.1916 -0.1171
C35 C 0.57692(18) 0.12912(7) -0.03290(15)
H50 H 0.5148 0.1375 0.0266
H51 H 0.5629 0.0962 -0.0503
loop_
_geom_bond_atom_site_label_1
_geom_bond_atom_site_label_2
_geom_bond_site_symmetry_1
_geom_bond_site_symmetry_2
O1 C2 1_555 1_555
N1 H1 1_555 1_555
N2 C1 1_555 1_555
N3 C1 1_555 1_555
C1 N1 1_555 1_555
C2 N2 1_555 1_555
C3 C2 1_555 1_555
C4 C3 1_555 1_555
C5 C4 1_555 1_555
H2 C5 1_555 1_555
C6 C5 1_555 1_555
C7 C6 1_555 1_555
H3 C7 1_555 1_555
C8 C3 1_555 1_555
C9 C8 1_555 1_555
H4 C9 1_555 1_555
H5 C9 1_555 1_555
H6 C9 1_555 1_555
C10 C4 1_555 1_555
H7 C10 1_555 1_555
H8 C10 1_555 1_555
H9 C10 1_555 1_555
C11 C6 1_555 1_555
H10 C11 1_555 1_555
H11 C11 1_555 1_555
H12 C11 1_555 1_555
C12 N1 1_555 1_555
C13 C12 1_555 1_555
C14 C13 1_555 1_555
H13 C14 1_555 1_555
C15 C14 1_555 1_555
H14 C15 1_555 1_555
C16 C15 1_555 1_555
H15 C16 1_555 1_555
C17 C12 1_555 1_555
C18 C17 1_555 1_555
H16 C18 1_555 1_555
C19 C18 1_555 1_555
H17 C19 1_555 1_555
H18 C19 1_555 1_555
H19 C19 1_555 1_555
C20 C18 1_555 1_555
H20 C20 1_555 1_555
H21 C20 1_555 1_555
H22 C20 1_555 1_555
C21 C13 1_555 1_555
H23 C21 1_555 1_555
C22 C21 1_555 1_555
H24 C22 1_555 1_555
H25 C22 1_555 1_555
H26 C22 1_555 1_555
C23 C21 1_555 1_555
H27 C23 1_555 1_555
H28 C23 1_555 1_555
H29 C23 1_555 1_555
C24 N3 1_555 1_555
H30 C24 1_555 1_555
C25 C24 1_555 1_555
H31 C25 1_555 1_555
H32 C25 1_555 1_555
C26 C25 1_555 1_555
H33 C26 1_555 1_555
H34 C26 1_555 1_555
C27 C26 1_555 1_555
H35 C27 1_555 1_555
H36 C27 1_555 1_555
C28 C27 1_555 1_555
H37 C28 1_555 1_555
H38 C28 1_555 1_555
C29 C24 1_555 1_555
H39 C29 1_555 1_555
H40 C29 1_555 1_555
C30 N3 1_555 1_555
H41 C30 1_555 1_555
C31 C30 1_555 1_555
H42 C31 1_555 1_555
H43 C31 1_555 1_555
C32 C31 1_555 1_555
H44 C32 1_555 1_555
H45 C32 1_555 1_555
C33 C32 1_555 1_555
H46 C33 1_555 1_555
H47 C33 1_555 1_555
C34 C33 1_555 1_555
H48 C34 1_555 1_555
H49 C34 1_555 1_555
C35 C30 1_555 1_555
H50 C35 1_555 1_555
H51 C35 1_555 1_555
C7 C8 1_555 1_555
C16 C17 1_555 1_555
C28 C29 1_555 1_555
C34 C35 1_555 1_555

#END
