
#######################################################################
#
#                 Cambridge Crystallographic Data Centre
#                                CCDC 
#
#######################################################################
#
# If this CIF has been generated from an entry in the Cambridge 
# Structural Database, then it will include bibliographic, chemical, 
# crystal, experimental, refinement or atomic coordinate data resulting 
# from the CCDC's data processing and validation procedures.
#
#######################################################################

data_QEXKUC
_chemical_formula_moiety         'C34 H37 N3 O1'
_chemical_name_systematic        
N-[(dibenzylamino){[2,6-bis(propan-2-yl)phenyl]amino}methylidene]benzamide
_symmetry_cell_setting           triclinic
_symmetry_space_group_name_H-M   'P -1'
_symmetry_Int_Tables_number      2
_space_group_name_Hall           '-P 1'
loop_
_symmetry_equiv_pos_site_id
_symmetry_equiv_pos_as_xyz
1 x,y,z
2 -x,-y,-z
_cell_length_a                   9.6759(7)
_cell_length_b                   10.8613(8)
_cell_length_c                   15.7642(12)
_cell_angle_alpha                70.429(3)
_cell_angle_beta                 79.257(4)
_cell_angle_gamma                69.052(4)
_cell_volume                     1453.63
_exptl_crystal_colour            colorless
_exptl_crystal_description       block
_cell_formula_units_Z            2
loop_
_atom_site_label
_atom_site_type_symbol
_atom_site_fract_x
_atom_site_fract_y
_atom_site_fract_z
N1 N 0.17068(12) 0.79684(11) 0.38015(7)
N2 N 0.19409(12) 0.62516(10) 0.31477(7)
H1 H 0.2082 0.5680 0.3679
N3 N 0.05730(13) 0.85940(11) 0.24966(8)
O1 O 0.28384(15) 0.57495(11) 0.46996(8)
C1 C 0.14133(13) 0.75826(12) 0.31536(8)
C2 C 0.25120(15) 0.70270(14) 0.44946(9)
C3 C 0.29985(15) 0.76279(14) 0.50660(9)
C4 C 0.40473(17) 0.67602(16) 0.56786(10)
H2 H 0.4430 0.5824 0.5728
C5 C 0.4526(2) 0.7285(2) 0.62174(12)
H3 H 0.5225 0.6697 0.6630
C6 C 0.3979(2) 0.8660(2) 0.61469(13)
H4 H 0.4312 0.9009 0.6505
C7 C 0.2934(3) 0.95254(19) 0.55426(13)
H5 H 0.2555 1.0460 0.5497
C8 C 0.2443(2) 0.90153(16) 0.50043(11)
H6 H 0.1736 0.9608 0.4598
C9 C 0.23170(14) 0.55828(12) 0.24542(8)
C10 C 0.34092(15) 0.58256(14) 0.17642(9)
C11 C 0.3869(2) 0.49964(18) 0.11907(11)
H7 H 0.4601 0.5133 0.0729
C12 C 0.3268(2) 0.39813(19) 0.12891(13)
H8 H 0.3595 0.3441 0.0896
C13 C 0.2191(2) 0.37639(17) 0.19628(13)
H9 H 0.1787 0.3078 0.2021
C14 C 0.16863(16) 0.45495(13) 0.25648(10)
C15 C 0.05256(18) 0.42665(16) 0.33195(12)
H10 H 0.0127 0.5078 0.3541
C16 C 0.1203(3) 0.3055(3) 0.41058(18)
H11 H 0.1603 0.2233 0.3919
H12 H 0.0454 0.2945 0.4592
H13 H 0.1982 0.3220 0.4305
C17 C -0.0768(3) 0.4110(4) 0.3004(2)
H14 H -0.1077 0.4833 0.2458
H15 H -0.1577 0.4167 0.3462
H16 H -0.0472 0.3232 0.2892
C18 C 0.41679(17) 0.68919(15) 0.16386(10)
H17 H 0.3662 0.7423 0.2066
C19 C 0.5781(2) 0.6198(2) 0.18539(19)
H18 H 0.5833 0.5616 0.2467
H19 H 0.6233 0.6887 0.1778
H20 H 0.6296 0.5651 0.1453
C20 C 0.4033(3) 0.7892(2) 0.06912(13)
H21 H 0.4553 0.7402 0.0260
H22 H 0.4456 0.8591 0.0644
H23 H 0.3005 0.8315 0.0571
C21 C 0.00423(18) 1.00281(14) 0.25450(10)
H24 H 0.0632 1.0103 0.2949
H25 H -0.0979 1.0241 0.2798
C22 C 0.01300(17) 1.10665(14) 0.16421(10)
C23 C 0.1447(2) 1.0996(2) 0.11209(14)
H26 H 0.2300 1.0273 0.1320
C24 C 0.1521(4) 1.1982(3) 0.03064(18)
H27 H 0.2418 1.1908 -0.0044
C25 C 0.0290(6) 1.3065(3) 0.00119(18)
H28 H 0.0342 1.3731 -0.0537
C26 C -0.1020(4) 1.3163(2) 0.0529(2)
H29 H -0.1860 1.3907 0.0333
C27 C -0.1115(2) 1.21683(19) 0.13440(15)
H30 H -0.2016 1.2243 0.1689
C28 C -0.02696(15) 0.83278(15) 0.19308(9)
H31 H 0.0160 0.7373 0.1929
H32 H -0.0182 0.8904 0.1315
C29 C -0.18968(15) 0.86076(14) 0.22527(10)
C30 C -0.29790(17) 0.95562(16) 0.16864(12)
H33 H -0.2702 1.0036 0.1108
C31 C -0.44686(19) 0.9799(2) 0.19704(15)
H34 H -0.5184 1.0448 0.1585
C32 C -0.4895(2) 0.9089(2) 0.28149(16)
H35 H -0.5897 0.9242 0.3001
C33 C -0.3828(2) 0.8143(2) 0.33896(14)
H36 H -0.4110 0.7659 0.3965
C34 C -0.2349(2) 0.79166(18) 0.31098(11)
H37 H -0.1638 0.7287 0.3504
loop_
_geom_bond_atom_site_label_1
_geom_bond_atom_site_label_2
_geom_bond_site_symmetry_1
_geom_bond_site_symmetry_2
N1 C1 1_555 1_555
N2 H1 1_555 1_555
N3 C1 1_555 1_555
O1 C2 1_555 1_555
C1 N2 1_555 1_555
C2 N1 1_555 1_555
C3 C2 1_555 1_555
C4 C3 1_555 1_555
H2 C4 1_555 1_555
C5 C4 1_555 1_555
H3 C5 1_555 1_555
C6 C5 1_555 1_555
H4 C6 1_555 1_555
C7 C6 1_555 1_555
H5 C7 1_555 1_555
C8 C3 1_555 1_555
H6 C8 1_555 1_555
C9 N2 1_555 1_555
C10 C9 1_555 1_555
C11 C10 1_555 1_555
H7 C11 1_555 1_555
C12 C11 1_555 1_555
H8 C12 1_555 1_555
C13 C12 1_555 1_555
H9 C13 1_555 1_555
C14 C9 1_555 1_555
C15 C14 1_555 1_555
H10 C15 1_555 1_555
C16 C15 1_555 1_555
H11 C16 1_555 1_555
H12 C16 1_555 1_555
H13 C16 1_555 1_555
C17 C15 1_555 1_555
H14 C17 1_555 1_555
H15 C17 1_555 1_555
H16 C17 1_555 1_555
C18 C10 1_555 1_555
H17 C18 1_555 1_555
C19 C18 1_555 1_555
H18 C19 1_555 1_555
H19 C19 1_555 1_555
H20 C19 1_555 1_555
C20 C18 1_555 1_555
H21 C20 1_555 1_555
H22 C20 1_555 1_555
H23 C20 1_555 1_555
C21 N3 1_555 1_555
H24 C21 1_555 1_555
H25 C21 1_555 1_555
C22 C21 1_555 1_555
C23 C22 1_555 1_555
H26 C23 1_555 1_555
C24 C23 1_555 1_555
H27 C24 1_555 1_555
C25 C24 1_555 1_555
H28 C25 1_555 1_555
C26 C25 1_555 1_555
H29 C26 1_555 1_555
C27 C22 1_555 1_555
H30 C27 1_555 1_555
C28 N3 1_555 1_555
H31 C28 1_555 1_555
H32 C28 1_555 1_555
C29 C28 1_555 1_555
C30 C29 1_555 1_555
H33 C30 1_555 1_555
C31 C30 1_555 1_555
H34 C31 1_555 1_555
C32 C31 1_555 1_555
H35 C32 1_555 1_555
C33 C32 1_555 1_555
H36 C33 1_555 1_555
C34 C29 1_555 1_555
H37 C34 1_555 1_555
C7 C8 1_555 1_555
C13 C14 1_555 1_555
C26 C27 1_555 1_555
C33 C34 1_555 1_555

#END
