
#######################################################################
#
#                 Cambridge Crystallographic Data Centre
#                                CCDC 
#
#######################################################################
#
# If this CIF has been generated from an entry in the Cambridge 
# Structural Database, then it will include bibliographic, chemical, 
# crystal, experimental, refinement or atomic coordinate data resulting 
# from the CCDC's data processing and validation procedures.
#
#######################################################################

data_QEXMOW
_chemical_formula_moiety         'C13 H10 N2 O4'
_chemical_name_systematic        
2'-(1,3-Benzodioxol-5-ylmethylene)furan-2-carbohydrazide
_symmetry_cell_setting           monoclinic
_symmetry_space_group_name_H-M   'P 21/a'
_symmetry_Int_Tables_number      14
_space_group_name_Hall           '-P 2yab'
loop_
_symmetry_equiv_pos_site_id
_symmetry_equiv_pos_as_xyz
1 x,y,z
2 1/2-x,1/2+y,-z
3 -x,-y,-z
4 1/2+x,1/2-y,z
_cell_length_a                   9.8351(7)
_cell_length_b                   11.3996(8)
_cell_length_c                   10.4260(7)
_cell_angle_alpha                90
_cell_angle_beta                 95.079(3)
_cell_angle_gamma                90
_cell_volume                     1164.33
_exptl_crystal_colour            red
_exptl_crystal_description       prism
_cell_formula_units_Z            4
_exptl_crystal_recrystallization_method 'anhydrous ethanol'
loop_
_atom_site_label
_atom_site_type_symbol
_atom_site_fract_x
_atom_site_fract_y
_atom_site_fract_z
O1 O 0.23650(14) 0.20846(13) 0.05750(13)
O2 O -0.06964(14) 0.13427(13) -0.13460(13)
O3 O 0.25311(17) 0.60059(13) 0.55773(14)
O4 O 0.11752(18) 0.76555(14) 0.56993(14)
N1 N 0.02494(18) 0.29134(15) 0.05140(16)
H1 H -0.066(2) 0.281(2) 0.023(2)
N2 N 0.06763(17) 0.36980(15) 0.14795(15)
C1 C 0.1155(2) 0.21040(18) 0.01564(18)
C2 C 0.06299(19) 0.12514(18) -0.08041(19)
C3 C 0.1247(2) 0.03295(19) -0.1338(2)
H2 H 0.2160 0.0073 -0.1136
C4 C 0.0276(2) -0.0174(2) -0.2244(2)
H3 H 0.0408 -0.0836 -0.2772
C5 C -0.0874(3) 0.0460(2) -0.2222(2)
H4 H -0.1696 0.0312 -0.2746
C6 C -0.0152(2) 0.45398(18) 0.16670(19)
H5 H -0.0978 0.4617 0.1129
C7 C 0.0180(2) 0.53788(18) 0.27093(18)
C8 C 0.1300(2) 0.51923(17) 0.36270(19)
H6 H 0.1874 0.4525 0.3586
C9 C 0.1524(2) 0.60084(18) 0.45736(19)
C10 C 0.0715(2) 0.69973(19) 0.46400(19)
C11 C -0.0371(2) 0.72126(19) 0.3769(2)
H7 H -0.0921 0.7893 0.3819
C12 C -0.0633(2) 0.63748(18) 0.27954(19)
H8 H -0.1388 0.6488 0.2174
C13 C 0.2365(3) 0.7072(2) 0.6263(2)
H9 H 0.3177 0.7578 0.6214
H10 H 0.2265 0.6901 0.7181
loop_
_geom_bond_atom_site_label_1
_geom_bond_atom_site_label_2
_geom_bond_site_symmetry_1
_geom_bond_site_symmetry_2
O1 C1 1_555 1_555
O2 C2 1_555 1_555
O3 C9 1_555 1_555
O4 C10 1_555 1_555
N1 H1 1_555 1_555
N2 N1 1_555 1_555
C1 N1 1_555 1_555
C2 C1 1_555 1_555
C3 C2 1_555 1_555
H2 C3 1_555 1_555
C4 C3 1_555 1_555
H3 C4 1_555 1_555
C5 O2 1_555 1_555
H4 C5 1_555 1_555
C6 N2 1_555 1_555
H5 C6 1_555 1_555
C7 C6 1_555 1_555
C8 C7 1_555 1_555
H6 C8 1_555 1_555
C9 C8 1_555 1_555
C10 C9 1_555 1_555
C11 C10 1_555 1_555
H7 C11 1_555 1_555
C12 C7 1_555 1_555
H8 C12 1_555 1_555
C13 O3 1_555 1_555
H9 C13 1_555 1_555
H10 C13 1_555 1_555
O4 C13 1_555 1_555
C4 C5 1_555 1_555
C11 C12 1_555 1_555

#END
