
#######################################################################
#
#                 Cambridge Crystallographic Data Centre
#                                CCDC 
#
#######################################################################
#
# If this CIF has been generated from an entry in the Cambridge 
# Structural Database, then it will include bibliographic, chemical, 
# crystal, experimental, refinement or atomic coordinate data resulting 
# from the CCDC's data processing and validation procedures.
#
#######################################################################

data_QEXQUG
_chemical_formula_moiety         'C11 H14 N2 O7 S1'
_chemical_name_systematic        
1-(1,1-Dioxo-3'-deoxy-2,3,5,6-tetrahydro-1,4-oxathiine-\b-D-ribofuranosyl)uracil
_symmetry_cell_setting           monoclinic
_symmetry_space_group_name_H-M   'P 21'
_symmetry_Int_Tables_number      4
_space_group_name_Hall           'P 2yb'
loop_
_symmetry_equiv_pos_site_id
_symmetry_equiv_pos_as_xyz
1 x,y,z
2 -x,1/2+y,-z
_cell_length_a                   5.2752(11)
_cell_length_b                   7.1294(14)
_cell_length_c                   17.425(4)
_cell_angle_alpha                90
_cell_angle_beta                 90.45(3)
_cell_angle_gamma                90
_cell_volume                     655.317
_exptl_crystal_colour            colorless
_exptl_crystal_description       block
_chemical_melting_point          '580 K'
_cell_formula_units_Z            2
_exptl_crystal_recrystallization_method ethanol/methanol
loop_
_atom_site_label
_atom_site_type_symbol
_atom_site_fract_x
_atom_site_fract_y
_atom_site_fract_z
C1 C 0.2009(6) 0.5894(4) 0.05288(14)
H1 H 0.2447 0.6042 -0.0007
H2 H 0.0189 0.5720 0.0560
C2 C 0.2777(6) 0.7640(4) 0.09721(13)
H3 H 0.4600 0.7802 0.0947
H4 H 0.1981 0.8732 0.0742
C3 C 0.3517(5) 0.6194(4) 0.21774(12)
H5 H 0.5312 0.6548 0.2196
C4 C 0.3125(4) 0.4169(3) 0.19153(11)
H6 H 0.4377 0.3378 0.2179
C5 C 0.0520(4) 0.3709(4) 0.22314(11)
H7 H -0.0788 0.4211 0.1886
C6 C 0.0029(5) 0.1664(4) 0.23709(15)
H8 H 0.0489 0.0943 0.1921
H9 H 0.1052 0.1229 0.2801
C7 C 0.2326(5) 0.6134(4) 0.29728(12)
H10 H 0.1539 0.7347 0.3087
C8 C 0.5782(5) 0.7155(4) 0.37963(13)
C9 C 0.8061(5) 0.5005(4) 0.46493(15)
C10 C 0.6463(5) 0.3534(4) 0.43785(13)
H11 H 0.6692 0.2316 0.4557
C11 C 0.4628(4) 0.3915(4) 0.38660(12)
H12 H 0.3570 0.2948 0.3702
H13 H 0.839(4) 0.761(4) 0.4475(12)
N1 N 0.4258(4) 0.5677(3) 0.35762(10)
N2 N 0.7584(4) 0.6739(3) 0.43355(12)
O1 O 0.2346(4) 0.2248(3) 0.06374(11)
O2 O 0.6239(3) 0.4117(3) 0.07853(8)
O3 O 0.2027(4) 0.7485(2) 0.17542(9)
O4 O 0.0464(3) 0.4725(3) 0.29558(9)
O5 O -0.2565(4) 0.1403(3) 0.25314(13)
H14 H -0.2711 0.0714 0.2905
O6 O 0.5524(4) 0.8721(3) 0.35275(10)
O7 O 0.9801(4) 0.4848(3) 0.51245(12)
S1 S 0.35615(11) 0.39248(9) 0.09076(3)
loop_
_geom_bond_atom_site_label_1
_geom_bond_atom_site_label_2
_geom_bond_site_symmetry_1
_geom_bond_site_symmetry_2
C1 H1 1_555 1_555
H2 C1 1_555 1_555
C2 C1 1_555 1_555
H3 C2 1_555 1_555
H4 C2 1_555 1_555
C3 H5 1_555 1_555
C4 C3 1_555 1_555
H6 C4 1_555 1_555
C5 C4 1_555 1_555
H7 C5 1_555 1_555
C6 C5 1_555 1_555
H8 C6 1_555 1_555
H9 C6 1_555 1_555
C7 C3 1_555 1_555
H10 C7 1_555 1_555
C8 N1 1_555 1_555
C9 C10 1_555 1_555
C10 H11 1_555 1_555
C11 C10 1_555 1_555
H12 C11 1_555 1_555
H13 N2 1_555 1_555
N1 C7 1_555 1_555
N2 C8 1_555 1_555
O1 S1 1_555 1_555
O2 S1 1_555 1_555
O3 C2 1_555 1_555
O4 C5 1_555 1_555
O5 C6 1_555 1_555
H14 O5 1_555 1_555
O6 C8 1_555 1_555
O7 C9 1_555 1_555
S1 C1 1_555 1_555
C3 O3 1_555 1_555
C4 S1 1_555 1_555
C7 O4 1_555 1_555
C9 N2 1_555 1_555
C11 N1 1_555 1_555

#END
