
#######################################################################
#
#                 Cambridge Crystallographic Data Centre
#                                CCDC 
#
#######################################################################
#
# If this CIF has been generated from an entry in the Cambridge 
# Structural Database, then it will include bibliographic, chemical, 
# crystal, experimental, refinement or atomic coordinate data resulting 
# from the CCDC's data processing and validation procedures.
#
#######################################################################

data_QEXQES
_chemical_formula_moiety         'C162 H72 N42'
_chemical_name_systematic        
'1,3,6,8,11,13,16,18,21,23,26,28,31,34,35,38,39,42(1,4)-octadecabenzena-2,7,12,17,22,27-hexaaza-4,4,5,5,9,9,10,10,14,14,15,15,19,19,20,20,24,24,25,25,29,29,30,30,32,32,33,33,36,36,37,37,40,40,41,41-hexatriacontacarbonitrila-cyclodotetracontaphane unknown solvate'
_symmetry_cell_setting           triclinic
_symmetry_space_group_name_H-M   'P -1'
_symmetry_Int_Tables_number      2
_space_group_name_Hall           '-P 1'
loop_
_symmetry_equiv_pos_site_id
_symmetry_equiv_pos_as_xyz
1 x,y,z
2 -x,-y,-z
_cell_length_a                   17.9858(4)
_cell_length_b                   21.5869(6)
_cell_length_c                   30.8576(8)
_cell_angle_alpha                76.950(2)
_cell_angle_beta                 82.3950(10)
_cell_angle_gamma                70.7180(10)
_cell_volume                     10994.8
_exptl_crystal_colour            colorless
_exptl_crystal_description       block
_cell_formula_units_Z            2
loop_
_atom_site_label
_atom_site_type_symbol
_atom_site_fract_x
_atom_site_fract_y
_atom_site_fract_z
C1 C 0.12249(17) 0.60222(13) -0.12569(7)
C2 C 0.09257(13) 0.71616(12) -0.12170(6)
C3 C 0.09112(14) 0.65016(11) -0.09506(6)
C4 C 0.14081(13) 0.63119(10) -0.05488(6)
C5 C 0.17080(16) 0.56487(11) -0.03447(7)
H1 H 0.1662 0.5315 -0.0474
C6 C 0.20763(16) 0.54779(11) 0.00511(7)
H2 H 0.2264 0.5031 0.0191
C7 C 0.21642(13) 0.59687(11) 0.02376(6)
C8 C 0.18993(13) 0.66379(11) 0.00240(6)
H3 H 0.1980 0.6967 0.0144
C9 C 0.15187(13) 0.68105(10) -0.03655(6)
H4 H 0.1336 0.7257 -0.0506
C10 C 0.31867(13) 0.52154(11) 0.07316(6)
C11 C 0.38065(15) 0.50887(12) 0.04083(6)
H5 H 0.3779 0.5381 0.0134
C12 C 0.44603(14) 0.45319(12) 0.04921(6)
H6 H 0.4877 0.4456 0.0277
C13 C 0.45008(13) 0.40821(10) 0.08967(6)
C14 C 0.38688(12) 0.41954(10) 0.12108(6)
H7 H 0.3886 0.3891 0.1479
C15 C 0.32153(13) 0.47526(11) 0.11313(6)
H8 H 0.2794 0.4820 0.1344
C16 C 0.21957(12) 0.61646(10) 0.09916(5)
C17 C 0.26767(12) 0.62271(10) 0.12819(6)
H9 H 0.3221 0.6042 0.1244
C18 C 0.23528(11) 0.65656(9) 0.16309(5)
H10 H 0.2680 0.6599 0.1828
C19 C 0.15447(11) 0.68518(9) 0.16840(5)
C20 C 0.10617(12) 0.68070(10) 0.13844(5)
H11 H 0.0519 0.7009 0.1415
C21 C 0.13830(13) 0.64634(11) 0.10394(6)
H12 H 0.1056 0.6433 0.0841
C22 C 0.52572(14) 0.34935(11) 0.10041(6)
C23 C 0.50473(17) 0.29050(13) 0.12784(8)
C24 C 0.57231(15) 0.33106(13) 0.05939(7)
C25 C 0.58184(13) 0.36748(12) 0.12894(6)
C26 C 0.65216(15) 0.30796(14) 0.13978(7)
C27 C 0.60992(15) 0.42043(15) 0.09973(7)
C28 C 0.53835(12) 0.39034(11) 0.17190(6)
C29 C 0.53335(12) 0.34311(10) 0.21013(6)
H13 H 0.5606 0.2981 0.2108
C30 C 0.48777(11) 0.36321(9) 0.24725(5)
H14 H 0.4847 0.3314 0.2728
C31 C 0.44643(10) 0.43025(9) 0.24706(5)
C32 C 0.45332(11) 0.47729(10) 0.20860(5)
H15 H 0.4274 0.5225 0.2081
C33 C 0.49791(12) 0.45749(10) 0.17146(6)
H16 H 0.5010 0.4893 0.1459
C34 C 0.32435(9) 0.50275(8) 0.27686(5)
C35 C 0.30464(10) 0.55694(8) 0.29800(5)
H17 H 0.3393 0.5594 0.3169
C36 C 0.23354(9) 0.60714(8) 0.29097(5)
H18 H 0.2203 0.6434 0.3052
C37 C 0.18175(9) 0.60337(8) 0.26262(5)
C38 C 0.20115(10) 0.54872(8) 0.24172(5)
H19 H 0.1663 0.5459 0.2231
C39 C 0.27244(10) 0.49872(8) 0.24882(5)
H20 H 0.2857 0.4623 0.2348
C40 C 0.10544(9) 0.66059(8) 0.25221(5)
C41 C 0.11931(10) 0.71754(8) 0.20876(5)
C42 C 0.41830(9) 0.42130(7) 0.32837(5)
C43 C 0.49721(8) 0.39650(7) 0.33906(5)
H21 H 0.5371 0.3986 0.3168
C44 C 0.51582(8) 0.36880(7) 0.38273(5)
H22 H 0.5684 0.3517 0.3897
C45 C 0.45696(7) 0.36614(6) 0.41636(4)
C46 C 0.37826(7) 0.39000(6) 0.40568(4)
H23 H 0.3385 0.3877 0.4279
C47 C 0.35955(8) 0.41699(7) 0.36216(5)
H24 H 0.3070 0.4326 0.3552
C48 C 0.47761(7) 0.34184(6) 0.46481(4)
C49 C 0.55383(7) 0.28781(7) 0.47019(4)
C50 C 0.41705(7) 0.31581(6) 0.49296(4)
C51 C 0.48401(7) 0.40313(6) 0.48581(4)
C52 C 0.55553(7) 0.41918(7) 0.46370(5)
C53 C 0.49724(8) 0.37717(7) 0.53374(5)
C54 C 0.40978(7) 0.46370(6) 0.47845(4)
C55 C 0.34356(7) 0.46612(6) 0.50723(4)
H25 H 0.3450 0.4319 0.5319
C56 C 0.27522(7) 0.51926(7) 0.49944(5)
H26 H 0.2308 0.5206 0.5189
C57 C 0.27235(7) 0.57105(7) 0.46249(5)
C58 C 0.33949(8) 0.56917(7) 0.43401(5)
H27 H 0.3383 0.6038 0.4097
C59 C 0.40810(7) 0.51590(7) 0.44175(4)
H28 H 0.4529 0.5148 0.4227
C60 C 0.12938(7) 0.61170(6) 0.45704(5)
C61 C 0.06165(7) 0.64991(6) 0.47837(5)
H29 H 0.0649 0.6829 0.4923
C62 C -0.00955(7) 0.63881(6) 0.47881(5)
H30 H -0.0543 0.6644 0.4930
C63 C -0.01503(7) 0.58938(6) 0.45811(5)
C64 C 0.05329(8) 0.54885(7) 0.43882(5)
H31 H 0.0506 0.5143 0.4264
C65 C 0.12453(8) 0.56020(7) 0.43824(5)
H32 H 0.1697 0.5333 0.4252
C66 C 0.20226(7) 0.69214(7) 0.44550(5)
C67 C 0.25259(8) 0.71063(7) 0.46688(5)
H33 H 0.2879 0.6786 0.4863
C68 C 0.24993(8) 0.77731(7) 0.45914(5)
H34 H 0.2837 0.7896 0.4734
C69 C 0.19729(7) 0.82575(7) 0.43027(5)
C70 C 0.14884(8) 0.80651(7) 0.40777(5)
H35 H 0.1146 0.8384 0.3877
C71 C 0.15140(7) 0.74034(7) 0.41507(5)
H36 H 0.1193 0.7278 0.3997
C72 C -0.09524(8) 0.58444(7) 0.45224(5)
C73 C -0.15097(7) 0.59830(7) 0.49115(5)
C74 C -0.08981(7) 0.51752(7) 0.44493(5)
C75 C -0.13417(8) 0.63818(7) 0.40813(5)
C76 C -0.21031(9) 0.62899(7) 0.40295(5)
C77 C -0.07923(9) 0.61915(7) 0.36972(5)
C78 C -0.14464(8) 0.70953(7) 0.41199(5)
C79 C -0.21293(8) 0.74645(7) 0.43337(5)
H37 H -0.2539 0.7284 0.4435
C80 C -0.21972(8) 0.80910(7) 0.43937(5)
H38 H -0.2652 0.8332 0.4538
C81 C -0.15930(8) 0.83704(7) 0.42417(5)
C82 C -0.09188(8) 0.80097(7) 0.40190(5)
H39 H -0.0519 0.8198 0.3908
C83 C -0.08423(8) 0.73739(7) 0.39633(5)
H40 H -0.0386 0.7131 0.3821
C84 C -0.09736(8) 0.91332(7) 0.44005(6)
C85 C -0.04716(8) 0.86488(7) 0.47114(5)
H41 H -0.0613 0.8277 0.4865
C86 C 0.02279(8) 0.87237(7) 0.47885(5)
H42 H 0.0565 0.8397 0.4989
C87 C 0.04306(8) 0.92909(7) 0.45656(6)
C88 C -0.00847(9) 0.97875(8) 0.42724(6)
H43 H 0.0040 1.0173 0.4133
C89 C -0.07786(9) 0.97040(7) 0.41908(6)
H44 H -0.1118 1.0033 0.3994
C90 C 0.12421(9) 0.93408(7) 0.46185(6)
C91 C 0.15144(9) 0.90020(8) 0.50689(6)
C92 C 0.12307(9) 1.00445(8) 0.45499(6)
C93 C 0.19030(8) 0.89917(7) 0.42558(6)
C94 C 0.16687(9) 0.93727(8) 0.38093(6)
C95 C 0.26557(9) 0.90777(8) 0.43359(7)
C96 C -0.23654(8) 0.95503(8) 0.42124(6)
C97 C -0.25877(9) 1.00787(9) 0.44427(7)
H45 H -0.2268 1.0083 0.4655
C98 C -0.32859(9) 1.05962(9) 0.43545(7)
H46 H -0.3427 1.0954 0.4501
C99 C -0.37763(8) 1.05800(8) 0.40460(6)
C100 C -0.35606(8) 1.00492(7) 0.38222(5)
H47 H -0.3890 1.0035 0.3619
C101 C -0.28539(8) 0.95423(7) 0.39021(5)
H48 H -0.2705 0.9193 0.3747
C102 C -0.45390(8) 1.11507(8) 0.39393(6)
C103 C -0.51480(10) 1.09006(9) 0.38293(7)
C104 C -0.48702(9) 1.14944(8) 0.43194(6)
C105 C -0.44053(9) 1.17163(8) 0.35125(6)
C106 C -0.51875(10) 1.22254(9) 0.34403(6)
C107 C -0.38666(10) 1.20317(9) 0.36363(6)
C108 C -0.40628(10) 1.14112(9) 0.31018(6)
C109 C -0.32465(10) 1.11332(9) 0.30416(6)
H49 H -0.2918 1.1179 0.3233
C110 C -0.29250(11) 1.07906(9) 0.27002(6)
H50 H -0.2381 1.0606 0.2662
C111 C -0.34144(12) 1.07205(9) 0.24132(6)
C112 C -0.42244(13) 1.10213(11) 0.24608(7)
H51 H -0.4552 1.0995 0.2261
C113 C -0.45463(11) 1.13631(10) 0.28089(7)
H52 H -0.5090 1.1559 0.2843
C114 C -0.34409(13) 0.98743(10) 0.20135(7)
C115 C -0.37831(15) 0.95224(11) 0.23713(8)
H53 H -0.3809 0.9613 0.2655
C116 C -0.40866(19) 0.90394(15) 0.23116(10)
H54 H -0.4320 0.8812 0.2554
C117 C -0.40471(18) 0.88918(16) 0.18993(10)
C118 C -0.37239(15) 0.92596(15) 0.15352(9)
H55 H -0.3710 0.9175 0.1251
C119 C -0.34276(14) 0.97424(12) 0.15920(7)
H56 H -0.3216 0.9983 0.1347
C120 C -0.23056(12) 1.02890(9) 0.18912(6)
C121 C -0.17715(12) 0.96652(9) 0.18519(6)
H57 H -0.1923 0.9282 0.1953
C122 C -0.10237(12) 0.96126(9) 0.16654(6)
H58 H -0.0672 0.9195 0.1637
C123 C -0.07883(13) 1.01819(10) 0.15189(6)
C124 C -0.13091(14) 1.08068(10) 0.15705(6)
H59 H -0.1148 1.1186 0.1485
C125 C -0.20693(14) 1.08555(10) 0.17498(6)
H60 H -0.2425 1.1273 0.1776
C126 C -0.4296(3) 0.8309(2) 0.18499(15)
C127 C -0.4635(3) 0.8433(3) 0.1431(2)
C128 C -0.4862(4) 0.8141(3) 0.2225(2)
C129 C 0.05952(14) 0.94468(12) 0.14299(6)
C130 C 0.00226(13) 1.01198(10) 0.12811(6)
C131 C 0.03470(15) 1.06239(13) 0.13519(7)
C132 C -0.3554(3) 0.7612(2) 0.18816(15)
C133 C -0.3843(4) 0.7077(3) 0.17998(18)
C134 C -0.3293(5) 0.7428(2) 0.23362(16)
C135 C -0.2890(2) 0.77091(14) 0.15304(10)
C136 C -0.2894(2) 0.76170(15) 0.10961(10)
H61 H -0.3284 0.7472 0.1020
C137 C -0.23092(17) 0.77449(14) 0.07804(9)
H62 H -0.2307 0.7689 0.0490
C138 C -0.17395(15) 0.79522(11) 0.08979(8)
C139 C -0.17360(17) 0.80322(11) 0.13304(8)
H63 H -0.1338 0.8164 0.1409
C140 C -0.2312(2) 0.79181(13) 0.16408(9)
H64 H -0.2313 0.7982 0.1929
C141 C -0.08623(13) 0.86259(10) 0.05833(6)
C142 C -0.00691(13) 0.85509(11) 0.05303(7)
H65 H 0.0286 0.8150 0.0471
C143 C 0.02074(13) 0.90605(10) 0.05638(6)
H66 H 0.0747 0.8998 0.0535
C144 C -0.03200(11) 0.96705(9) 0.06412(6)
C145 C -0.11313(12) 0.97564(9) 0.06703(6)
H67 H -0.1492 1.0166 0.0708
C146 C -0.13968(13) 0.92439(10) 0.06432(6)
H68 H -0.1936 0.9306 0.0665
C147 C -0.00205(12) 1.02072(10) 0.07406(6)
C148 C 0.07813(14) 1.01571(10) 0.05379(6)
C149 C -0.05461(13) 1.08881(10) 0.05818(6)
C150 C -0.08436(14) 0.76913(12) 0.02403(7)
C151 C -0.08144(14) 0.80112(11) -0.02067(7)
H69 H -0.0967 0.8476 -0.0282
C152 C -0.05562(14) 0.76324(11) -0.05373(7)
H70 H -0.0551 0.7844 -0.0835
C153 C -0.03065(13) 0.69410(11) -0.04254(7)
C154 C -0.03299(14) 0.66249(11) 0.00202(7)
H71 H -0.0162 0.6160 0.0097
C155 C -0.06034(14) 0.70027(11) 0.03474(7)
H72 H -0.0626 0.6790 0.0644
C156 C 0.00156(14) 0.65322(11) -0.07942(7)
C157 C -0.00075(18) 0.58385(13) -0.06457(8)
C158 C -0.04671(17) 0.68294(14) -0.11937(8)
C159 C 0.07694(9) 0.69589(8) 0.29051(5)
C160 C 0.04330(10) 0.63725(9) 0.24158(5)
C161 C 0.04047(12) 0.76650(9) 0.20015(5)
C162 C 0.17045(12) 0.74963(9) 0.22194(6)
N1 N 0.25273(11) 0.57969(9) 0.06474(5)
N2 N 0.39789(8) 0.45100(7) 0.28434(4)
N3 N 0.20163(6) 0.62509(6) 0.45481(4)
N4 N -0.16599(7) 0.90203(6) 0.43054(5)
N5 N -0.30918(11) 1.03428(8) 0.20730(5)
N6 N -0.11415(12) 0.80809(10) 0.05799(6)
N7 N 0.14401(19) 0.56487(13) -0.14882(7)
N8 N 0.09276(13) 0.76714(11) -0.14323(6)
N9 N 0.61169(15) 0.31973(13) 0.02833(6)
N10 N 0.49182(17) 0.24559(12) 0.14963(8)
N11 N 0.63005(17) 0.46205(16) 0.07629(8)
N12 N 0.70458(14) 0.26082(13) 0.14743(7)
N13 N 0.05981(8) 0.72490(7) 0.31862(5)
N14 N -0.00427(10) 0.62000(9) 0.23114(5)
N15 N -0.02287(11) 0.80053(9) 0.19467(5)
N16 N 0.21017(12) 0.77408(9) 0.23257(6)
N17 N 0.61436(7) 0.24772(6) 0.47430(4)
N18 N 0.37133(7) 0.29606(6) 0.51562(4)
N19 N 0.50597(8) 0.35476(7) 0.57079(4)
N20 N 0.61169(7) 0.42914(7) 0.44632(5)
N21 N 0.32067(10) 0.91593(9) 0.44213(8)
N22 N 0.14735(10) 0.96775(8) 0.34661(6)
N23 N 0.17323(10) 0.87446(8) 0.54149(6)
N24 N 0.12507(10) 1.05820(8) 0.44821(7)
N25 N -0.03445(9) 0.60373(7) 0.34123(5)
N26 N -0.26858(8) 0.62046(7) 0.39982(5)
N27 N -0.08707(8) 0.46822(6) 0.43564(4)
N28 N -0.19451(7) 0.60854(6) 0.52134(4)
N29 N -0.51306(8) 1.17919(9) 0.45963(6)
N30 N -0.56285(11) 1.07180(11) 0.37455(9)
N31 N -0.58116(9) 1.25946(8) 0.33946(6)
N32 N -0.34378(10) 1.22553(8) 0.37252(6)
N33 N 0.10238(13) 0.89327(11) 0.15339(6)
N34 N 0.06099(15) 1.10320(13) 0.13927(8)
N35 N 0.14162(13) 1.01154(11) 0.04102(6)
N36 N -0.09499(13) 1.14254(9) 0.04690(6)
N37 N -0.4884(2) 0.8525(3) 0.1088(2)
N38 N -0.5266(4) 0.7997(3) 0.2510(2)
N39 N -0.4044(5) 0.6667(3) 0.1758(2)
N40 N -0.3144(4) 0.73071(18) 0.26898(12)
N41 N -0.0007(2) 0.52918(13) -0.05270(8)
N42 N -0.08058(18) 0.70631(14) -0.15037(8)
loop_
_geom_bond_atom_site_label_1
_geom_bond_atom_site_label_2
_geom_bond_site_symmetry_1
_geom_bond_site_symmetry_2
C1 C3 1_555 1_555
C2 C3 1_555 1_555
C3 C4 1_555 1_555
C4 C5 1_555 1_555
C5 H1 1_555 1_555
C6 C5 1_555 1_555
H2 C6 1_555 1_555
C7 C6 1_555 1_555
C8 C7 1_555 1_555
H3 C8 1_555 1_555
C9 C4 1_555 1_555
H4 C9 1_555 1_555
C10 C11 1_555 1_555
C11 H5 1_555 1_555
C12 C11 1_555 1_555
H6 C12 1_555 1_555
C13 C12 1_555 1_555
C14 C13 1_555 1_555
H7 C14 1_555 1_555
C15 C10 1_555 1_555
H8 C15 1_555 1_555
C16 C17 1_555 1_555
C17 H9 1_555 1_555
C18 C17 1_555 1_555
H10 C18 1_555 1_555
C19 C18 1_555 1_555
C20 C19 1_555 1_555
H11 C20 1_555 1_555
C21 C16 1_555 1_555
H12 C21 1_555 1_555
C22 C13 1_555 1_555
C23 C22 1_555 1_555
C24 C22 1_555 1_555
C25 C22 1_555 1_555
C26 C25 1_555 1_555
C27 C25 1_555 1_555
C28 C25 1_555 1_555
C29 C28 1_555 1_555
H13 C29 1_555 1_555
C30 C29 1_555 1_555
H14 C30 1_555 1_555
C31 C30 1_555 1_555
C32 C31 1_555 1_555
H15 C32 1_555 1_555
C33 C28 1_555 1_555
H16 C33 1_555 1_555
C34 C35 1_555 1_555
C35 H17 1_555 1_555
C36 C35 1_555 1_555
H18 C36 1_555 1_555
C37 C36 1_555 1_555
C38 C37 1_555 1_555
H19 C38 1_555 1_555
C39 C34 1_555 1_555
H20 C39 1_555 1_555
C40 C37 1_555 1_555
C41 C19 1_555 1_555
C42 C43 1_555 1_555
C43 H21 1_555 1_555
C44 C43 1_555 1_555
H22 C44 1_555 1_555
C45 C44 1_555 1_555
C46 C45 1_555 1_555
H23 C46 1_555 1_555
C47 C42 1_555 1_555
H24 C47 1_555 1_555
C48 C45 1_555 1_555
C49 C48 1_555 1_555
C50 C48 1_555 1_555
C51 C48 1_555 1_555
C52 C51 1_555 1_555
C53 C51 1_555 1_555
C54 C51 1_555 1_555
C55 C54 1_555 1_555
H25 C55 1_555 1_555
C56 C55 1_555 1_555
H26 C56 1_555 1_555
C57 C56 1_555 1_555
C58 C57 1_555 1_555
H27 C58 1_555 1_555
C59 C54 1_555 1_555
H28 C59 1_555 1_555
C60 C61 1_555 1_555
C61 H29 1_555 1_555
C62 C61 1_555 1_555
H30 C62 1_555 1_555
C63 C62 1_555 1_555
C64 C63 1_555 1_555
H31 C64 1_555 1_555
C65 C60 1_555 1_555
H32 C65 1_555 1_555
C66 C67 1_555 1_555
C67 H33 1_555 1_555
C68 C67 1_555 1_555
H34 C68 1_555 1_555
C69 C68 1_555 1_555
C70 C69 1_555 1_555
H35 C70 1_555 1_555
C71 C66 1_555 1_555
H36 C71 1_555 1_555
C72 C63 1_555 1_555
C73 C72 1_555 1_555
C74 C72 1_555 1_555
C75 C72 1_555 1_555
C76 C75 1_555 1_555
C77 C75 1_555 1_555
C78 C75 1_555 1_555
C79 C78 1_555 1_555
H37 C79 1_555 1_555
C80 C79 1_555 1_555
H38 C80 1_555 1_555
C81 C80 1_555 1_555
C82 C81 1_555 1_555
H39 C82 1_555 1_555
C83 C78 1_555 1_555
H40 C83 1_555 1_555
C84 C85 1_555 1_555
C85 H41 1_555 1_555
C86 C85 1_555 1_555
H42 C86 1_555 1_555
C87 C86 1_555 1_555
C88 C87 1_555 1_555
H43 C88 1_555 1_555
C89 C84 1_555 1_555
H44 C89 1_555 1_555
C90 C87 1_555 1_555
C91 C90 1_555 1_555
C92 C90 1_555 1_555
C93 C69 1_555 1_555
C94 C93 1_555 1_555
C95 C93 1_555 1_555
C96 C97 1_555 1_555
C97 H45 1_555 1_555
C98 C97 1_555 1_555
H46 C98 1_555 1_555
C99 C98 1_555 1_555
C100 C99 1_555 1_555
H47 C100 1_555 1_555
C101 C96 1_555 1_555
H48 C101 1_555 1_555
C102 C99 1_555 1_555
C103 C102 1_555 1_555
C104 C102 1_555 1_555
C105 C102 1_555 1_555
C106 C105 1_555 1_555
C107 C105 1_555 1_555
C108 C105 1_555 1_555
C109 C108 1_555 1_555
H49 C109 1_555 1_555
C110 C109 1_555 1_555
H50 C110 1_555 1_555
C111 C110 1_555 1_555
C112 C111 1_555 1_555
H51 C112 1_555 1_555
C113 C108 1_555 1_555
H52 C113 1_555 1_555
C114 C115 1_555 1_555
C115 H53 1_555 1_555
C116 C115 1_555 1_555
H54 C116 1_555 1_555
C117 C116 1_555 1_555
C118 C117 1_555 1_555
H55 C118 1_555 1_555
C119 C114 1_555 1_555
H56 C119 1_555 1_555
C120 C121 1_555 1_555
C121 H57 1_555 1_555
C122 C121 1_555 1_555
H58 C122 1_555 1_555
C123 C122 1_555 1_555
C124 C123 1_555 1_555
H59 C124 1_555 1_555
C125 C120 1_555 1_555
H60 C125 1_555 1_555
C126 C117 1_555 1_555
C127 C126 1_555 1_555
C128 C126 1_555 1_555
C129 C130 1_555 1_555
C130 C123 1_555 1_555
C131 C130 1_555 1_555
C132 C126 1_555 1_555
C133 C132 1_555 1_555
C134 C132 1_555 1_555
C135 C132 1_555 1_555
C136 C135 1_555 1_555
H61 C136 1_555 1_555
C137 C136 1_555 1_555
H62 C137 1_555 1_555
C138 C137 1_555 1_555
C139 C138 1_555 1_555
H63 C139 1_555 1_555
C140 C135 1_555 1_555
H64 C140 1_555 1_555
C141 C142 1_555 1_555
C142 H65 1_555 1_555
C143 C142 1_555 1_555
H66 C143 1_555 1_555
C144 C143 1_555 1_555
C145 C144 1_555 1_555
H67 C145 1_555 1_555
C146 C141 1_555 1_555
H68 C146 1_555 1_555
C147 C130 1_555 1_555
C148 C147 1_555 1_555
C149 C147 1_555 1_555
C150 C151 1_555 1_555
C151 H69 1_555 1_555
C152 C151 1_555 1_555
H70 C152 1_555 1_555
C153 C152 1_555 1_555
C154 C153 1_555 1_555
H71 C154 1_555 1_555
C155 C150 1_555 1_555
H72 C155 1_555 1_555
C156 C3 1_555 1_555
C157 C156 1_555 1_555
C158 C156 1_555 1_555
C159 C40 1_555 1_555
C160 C40 1_555 1_555
C161 C41 1_555 1_555
C162 C41 1_555 1_555
N1 C7 1_555 1_555
N2 C31 1_555 1_555
N3 C57 1_555 1_555
N4 C81 1_555 1_555
N5 C111 1_555 1_555
N6 C138 1_555 1_555
N7 C1 1_555 1_555
N8 C2 1_555 1_555
N9 C24 1_555 1_555
N10 C23 1_555 1_555
N11 C27 1_555 1_555
N12 C26 1_555 1_555
N13 C159 1_555 1_555
N14 C160 1_555 1_555
N15 C161 1_555 1_555
N16 C162 1_555 1_555
N17 C49 1_555 1_555
N18 C50 1_555 1_555
N19 C53 1_555 1_555
N20 C52 1_555 1_555
N21 C95 1_555 1_555
N22 C94 1_555 1_555
N23 C91 1_555 1_555
N24 C92 1_555 1_555
N25 C77 1_555 1_555
N26 C76 1_555 1_555
N27 C74 1_555 1_555
N28 C73 1_555 1_555
N29 C104 1_555 1_555
N30 C103 1_555 1_555
N31 C106 1_555 1_555
N32 C107 1_555 1_555
N33 C129 1_555 1_555
N34 C131 1_555 1_555
N35 C148 1_555 1_555
N36 C149 1_555 1_555
N37 C127 1_555 1_555
N38 C128 1_555 1_555
N39 C133 1_555 1_555
N40 C134 1_555 1_555
N41 C157 1_555 1_555
N42 C158 1_555 1_555
C8 C9 1_555 1_555
C10 N1 1_555 1_555
C14 C15 1_555 1_555
C16 N1 1_555 1_555
C20 C21 1_555 1_555
C32 C33 1_555 1_555
C34 N2 1_555 1_555
C38 C39 1_555 1_555
C40 C41 1_555 1_555
C42 N2 1_555 1_555
C46 C47 1_555 1_555
C58 C59 1_555 1_555
C60 N3 1_555 1_555
C64 C65 1_555 1_555
C66 N3 1_555 1_555
C70 C71 1_555 1_555
C82 C83 1_555 1_555
C84 N4 1_555 1_555
C88 C89 1_555 1_555
C90 C93 1_555 1_555
C96 N4 1_555 1_555
C100 C101 1_555 1_555
C112 C113 1_555 1_555
C114 N5 1_555 1_555
C118 C119 1_555 1_555
C120 N5 1_555 1_555
C124 C125 1_555 1_555
C139 C140 1_555 1_555
C141 N6 1_555 1_555
C144 C147 1_555 1_555
C145 C146 1_555 1_555
C150 N6 1_555 1_555
C153 C156 1_555 1_555
C154 C155 1_555 1_555

#END
