
#######################################################################
#
#                 Cambridge Crystallographic Data Centre
#                                CCDC 
#
#######################################################################
#
# If this CIF has been generated from an entry in the Cambridge 
# Structural Database, then it will include bibliographic, chemical, 
# crystal, experimental, refinement or atomic coordinate data resulting 
# from the CCDC's data processing and validation procedures.
#
#######################################################################

data_QEXROB
_chemical_name_common            cis-3,3'-Dimethyldibenzo-18-crown-6
_chemical_formula_moiety         'C22 H28 O6'
_chemical_name_systematic        
10,26-Dimethyl-2,5,8,15,18,21-hexaoxatricyclo(20.4.0.0^9,14^)hexacosa-9,11,13,22,24,26-hexaene
_symmetry_cell_setting           monoclinic
_symmetry_space_group_name_H-M   'P 21/n'
_symmetry_Int_Tables_number      14
_space_group_name_Hall           '-P 2yn'
loop_
_symmetry_equiv_pos_site_id
_symmetry_equiv_pos_as_xyz
1 x,y,z
2 1/2-x,1/2+y,1/2-z
3 -x,-y,-z
4 1/2+x,1/2-y,1/2+z
_cell_length_a                   9.354(3)
_cell_length_b                   7.828(3)
_cell_length_c                   29.122(11)
_cell_angle_alpha                90
_cell_angle_beta                 95.386(5)
_cell_angle_gamma                90
_cell_volume                     2122.99
_exptl_crystal_colour            colorless
_exptl_crystal_description       block
_cell_formula_units_Z            4
_exptl_crystal_recrystallization_method n-heptane
loop_
_atom_site_label
_atom_site_type_symbol
_atom_site_fract_x
_atom_site_fract_y
_atom_site_fract_z
O1 O 1.0188(3) 0.9674(3) 0.38094(9)
O2 O 0.7599(3) 0.8902(3) 0.34027(9)
O3 O 0.6550(3) 0.8772(3) 0.24108(9)
O4 O 0.8351(3) 0.8818(3) 0.16357(9)
O5 O 1.0997(3) 0.9961(3) 0.16048(9)
O6 O 1.2163(3) 0.9737(4) 0.28096(9)
C1 C 0.9339(4) 0.8565(5) 0.40295(13)
C2 C 0.9826(5) 0.7923(6) 0.44587(15)
C3 C 0.8910(6) 0.6890(6) 0.46825(16)
H1 H 0.9221 0.6443 0.4971
C4 C 0.7553(6) 0.6511(6) 0.44889(17)
H2 H 0.6959 0.5808 0.4645
C5 C 0.7068(5) 0.7176(5) 0.40605(15)
H3 H 0.6144 0.6933 0.3931
C6 C 0.7962(4) 0.8200(5) 0.38283(13)
C7 C 0.6151(4) 0.8733(6) 0.32077(14)
H4 H 0.5504 0.9180 0.3420
H5 H 0.5926 0.7536 0.3153
C8 C 0.5963(4) 0.9686(6) 0.27676(14)
H6 H 0.4948 0.9882 0.2683
H7 H 0.6431 1.0789 0.2806
C9 C 0.6257(4) 0.9601(6) 0.19802(15)
H8 H 0.6691 1.0728 0.1994
H9 H 0.5228 0.9740 0.1914
C10 C 0.6833(4) 0.8591(6) 0.16044(14)
H10 H 0.6604 0.7391 0.1637
H11 H 0.6406 0.8980 0.1306
C11 C 0.9076(4) 0.8211(5) 0.12842(12)
C12 C 0.8512(5) 0.7102(5) 0.09443(14)
H12 H 0.7571 0.6719 0.0942
C13 C 0.9367(5) 0.6565(6) 0.06061(15)
H13 H 0.9000 0.5803 0.0380
C14 C 1.0745(5) 0.7152(6) 0.06042(15)
H14 H 1.1301 0.6791 0.0374
C15 C 1.1329(4) 0.8283(5) 0.09414(13)
C16 C 1.0478(4) 0.8791(5) 0.12779(12)
C17 C 1.1462(6) 0.9223(7) 0.20429(15)
H15 H 1.0855 0.8251 0.2095
H16 H 1.2435 0.8806 0.2035
C18 C 1.1427(6) 1.0335(8) 0.24042(16)
H17 H 1.0434 1.0546 0.2458
H18 H 1.1844 1.1415 0.2322
C19 C 1.1597(6) 1.0240(7) 0.32084(18)
H19 H 1.0964 1.1204 0.3138
H20 H 1.2376 1.0629 0.3427
C20 C 1.0815(6) 0.8941(6) 0.34238(18)
H21 H 1.1455 0.8015 0.3528
H22 H 1.0068 0.8482 0.3205
C21 C 1.1289(5) 0.8388(8) 0.46815(16)
H23 H 1.1443 0.7842 0.4977
H24 H 1.1350 0.9604 0.4720
H25 H 1.2008 0.8015 0.4489
C22 C 1.2843(5) 0.8928(7) 0.09349(16)
H26 H 1.3265 0.8442 0.0677
H27 H 1.3397 0.8602 0.1215
H28 H 1.2834 1.0150 0.0908
loop_
_geom_bond_atom_site_label_1
_geom_bond_atom_site_label_2
_geom_bond_site_symmetry_1
_geom_bond_site_symmetry_2
O1 C1 1_555 1_555
O2 C6 1_555 1_555
O3 C8 1_555 1_555
O4 C10 1_555 1_555
O5 C16 1_555 1_555
O6 C18 1_555 1_555
C1 C2 1_555 1_555
C2 C3 1_555 1_555
C3 H1 1_555 1_555
C4 C3 1_555 1_555
H2 C4 1_555 1_555
C5 C4 1_555 1_555
H3 C5 1_555 1_555
C6 C1 1_555 1_555
C7 O2 1_555 1_555
H4 C7 1_555 1_555
H5 C7 1_555 1_555
C8 C7 1_555 1_555
H6 C8 1_555 1_555
H7 C8 1_555 1_555
C9 O3 1_555 1_555
H8 C9 1_555 1_555
H9 C9 1_555 1_555
C10 C9 1_555 1_555
H10 C10 1_555 1_555
H11 C10 1_555 1_555
C11 O4 1_555 1_555
C12 C11 1_555 1_555
H12 C12 1_555 1_555
C13 C12 1_555 1_555
H13 C13 1_555 1_555
C14 C13 1_555 1_555
H14 C14 1_555 1_555
C15 C14 1_555 1_555
C16 C11 1_555 1_555
C17 O5 1_555 1_555
H15 C17 1_555 1_555
H16 C17 1_555 1_555
C18 C17 1_555 1_555
H17 C18 1_555 1_555
H18 C18 1_555 1_555
C19 O6 1_555 1_555
H19 C19 1_555 1_555
H20 C19 1_555 1_555
C20 O1 1_555 1_555
H21 C20 1_555 1_555
H22 C20 1_555 1_555
C21 C2 1_555 1_555
H23 C21 1_555 1_555
H24 C21 1_555 1_555
H25 C21 1_555 1_555
C22 C15 1_555 1_555
H26 C22 1_555 1_555
H27 C22 1_555 1_555
H28 C22 1_555 1_555
C5 C6 1_555 1_555
C15 C16 1_555 1_555
C19 C20 1_555 1_555

#END
