
#######################################################################
#
#                 Cambridge Crystallographic Data Centre
#                                CCDC 
#
#######################################################################
#
# If this CIF has been generated from an entry in the Cambridge 
# Structural Database, then it will include bibliographic, chemical, 
# crystal, experimental, refinement or atomic coordinate data resulting 
# from the CCDC's data processing and validation procedures.
#
#######################################################################

data_QEXRUH
_chemical_formula_moiety         'C19 H14 O3'
_chemical_name_systematic        
1-(2-Furyl)-3-hydroxy-3-(4-phenylphenyl)prop-2-en-1-one
_symmetry_cell_setting           triclinic
_symmetry_space_group_name_H-M   'P -1'
_symmetry_Int_Tables_number      2
_space_group_name_Hall           '-P 1'
loop_
_symmetry_equiv_pos_site_id
_symmetry_equiv_pos_as_xyz
1 x,y,z
2 -x,-y,-z
_cell_length_a                   9.9489(10)
_cell_length_b                   10.4042(11)
_cell_length_c                   16.1706(17)
_cell_angle_alpha                90.113(2)
_cell_angle_beta                 100.547(3)
_cell_angle_gamma                116.292(3)
_cell_volume                     1468.75
_exptl_crystal_colour            yellow
_exptl_crystal_description       needle
_chemical_melting_point          '381 K'
_cell_formula_units_Z            4
_exptl_crystal_recrystallization_method dichloromethane/ethanol
loop_
_atom_site_label
_atom_site_type_symbol
_atom_site_fract_x
_atom_site_fract_y
_atom_site_fract_z
C1 C 0.3929(2) 0.8063(2) -0.03002(13)
H1 H 0.4669 0.7920 0.0074
C2 C 0.4225(2) 0.8563(2) -0.10648(14)
H2 H 0.5154 0.8743 -0.1205
C3 C 0.3156(2) 0.8799(2) -0.16252(13)
H3 H 0.3359 0.9142 -0.2142
C4 C 0.1787(2) 0.8523(2) -0.14120(12)
H4 H 0.1060 0.8684 -0.1787
C5 C 0.1478(2) 0.8011(2) -0.06485(11)
H5 H 0.0541 0.7825 -0.0516
C6 C 0.25465(18) 0.77676(17) -0.00733(11)
C7 C 0.22091(19) 0.71803(17) 0.07418(11)
C8 C 0.07056(19) 0.6307(2) 0.08275(11)
H6 H -0.0097 0.6136 0.0375
C9 C 0.0385(2) 0.5695(2) 0.15644(11)
H7 H -0.0628 0.5113 0.1599
C10 C 0.15506(19) 0.59325(18) 0.22589(11)
C11 C 0.3053(2) 0.6827(2) 0.21854(11)
H8 H 0.3853 0.7013 0.2642
C12 C 0.3368(2) 0.7438(2) 0.14472(12)
H9 H 0.4379 0.8038 0.1417
C13 C 0.1231(2) 0.52574(19) 0.30468(11)
C14 C -0.0197(2) 0.4557(2) 0.32226(12)
H10 H -0.1037 0.4512 0.2836
C15 C -0.0423(2) 0.3895(2) 0.39858(12)
C16 C -0.1983(2) 0.3117(2) 0.41233(11)
C17 C -0.3370(2) 0.2820(2) 0.36566(13)
H11 H -0.3570 0.3098 0.3120
C18 C -0.4465(3) 0.2006(3) 0.41333(15)
H12 H -0.5523 0.1635 0.3974
C19 C -0.3668(3) 0.1878(3) 0.48573(15)
H13 H -0.4105 0.1394 0.5295
O1 O 0.24502(16) 0.53698(17) 0.35901(9)
H27 H 0.207(3) 0.492(3) 0.4002(12)
O2 O 0.06794(16) 0.39441(16) 0.45385(9)
O3 O -0.21468(17) 0.25387(16) 0.48781(9)
C20 C 0.1384(2) 0.1539(2) 0.31490(11)
H14 H 0.1451 0.2453 0.3087
C21 C 0.0986(2) 0.0883(2) 0.38649(12)
H15 H 0.0785 0.1357 0.4278
C22 C 0.0884(3) -0.0459(2) 0.39741(12)
H16 H 0.0618 -0.0897 0.4460
C23 C 0.1177(3) -0.1152(2) 0.33596(13)
H17 H 0.1103 -0.2066 0.3428
C24 C 0.1581(2) -0.0497(2) 0.26381(12)
H18 H 0.1785 -0.0975 0.2228
C25 C 0.16859(18) 0.08609(19) 0.25186(10)
C26 C 0.20649(18) 0.15531(18) 0.17357(10)
C27 C 0.2739(2) 0.3045(2) 0.17195(11)
H19 H 0.3005 0.3627 0.2218
C28 C 0.3020(2) 0.36777(19) 0.09802(11)
H20 H 0.3454 0.4675 0.0987
C29 C 0.26640(17) 0.28461(18) 0.02271(10)
C30 C 0.2015(2) 0.13567(19) 0.02409(11)
H21 H 0.1781 0.0779 -0.0255
C31 C 0.1716(2) 0.07266(19) 0.09746(10)
H22 H 0.1270 -0.0272 0.0964
C32 C 0.29240(18) 0.35407(19) -0.05611(11)
C33 C 0.2836(2) 0.2852(2) -0.13130(11)
H23 H 0.2616 0.1884 -0.1342
C34 C 0.30756(19) 0.3605(2) -0.20382(11)
C35 C 0.3099(2) 0.2919(2) -0.28171(11)
C36 C 0.3363(3) 0.3415(3) -0.35672(13)
H24 H 0.3542 0.4327 -0.3725
C37 C 0.3317(3) 0.2285(4) -0.40648(15)
H25 H 0.3463 0.2307 -0.4617
C38 C 0.3029(3) 0.1187(3) -0.36054(15)
H26 H 0.2936 0.0299 -0.3790
O4 O 0.32615(16) 0.49128(14) -0.05001(8)
H28 H 0.337(3) 0.516(3) -0.1007(9)
O5 O 0.33190(16) 0.49142(16) -0.20409(8)
O6 O 0.28868(17) 0.15240(17) -0.28267(9)
loop_
_geom_bond_atom_site_label_1
_geom_bond_atom_site_label_2
_geom_bond_site_symmetry_1
_geom_bond_site_symmetry_2
C1 H1 1_555 1_555
C2 C1 1_555 1_555
H2 C2 1_555 1_555
C3 C2 1_555 1_555
H3 C3 1_555 1_555
C4 C3 1_555 1_555
H4 C4 1_555 1_555
C5 C4 1_555 1_555
H5 C5 1_555 1_555
C6 C1 1_555 1_555
C7 C6 1_555 1_555
C8 C7 1_555 1_555
H6 C8 1_555 1_555
C9 C8 1_555 1_555
H7 C9 1_555 1_555
C10 C9 1_555 1_555
C11 C10 1_555 1_555
H8 C11 1_555 1_555
C12 C7 1_555 1_555
H9 C12 1_555 1_555
C13 C10 1_555 1_555
C14 C13 1_555 1_555
H10 C14 1_555 1_555
C15 C14 1_555 1_555
C16 C15 1_555 1_555
C17 C16 1_555 1_555
H11 C17 1_555 1_555
C18 C17 1_555 1_555
H12 C18 1_555 1_555
C19 C18 1_555 1_555
H13 C19 1_555 1_555
C20 H14 1_555 1_555
C21 C20 1_555 1_555
H15 C21 1_555 1_555
C22 C21 1_555 1_555
H16 C22 1_555 1_555
C23 C22 1_555 1_555
H17 C23 1_555 1_555
C24 C23 1_555 1_555
H18 C24 1_555 1_555
C25 C20 1_555 1_555
C26 C25 1_555 1_555
C27 C26 1_555 1_555
H19 C27 1_555 1_555
C28 C27 1_555 1_555
H20 C28 1_555 1_555
C29 C28 1_555 1_555
C30 C29 1_555 1_555
H21 C30 1_555 1_555
C31 C26 1_555 1_555
H22 C31 1_555 1_555
C32 C29 1_555 1_555
C33 C32 1_555 1_555
H23 C33 1_555 1_555
C34 C33 1_555 1_555
C35 C34 1_555 1_555
C36 C35 1_555 1_555
H24 C36 1_555 1_555
C37 C36 1_555 1_555
H25 C37 1_555 1_555
C38 C37 1_555 1_555
H26 C38 1_555 1_555
O1 C13 1_555 1_555
H27 O1 1_555 1_555
O2 C15 1_555 1_555
O3 C16 1_555 1_555
O4 C32 1_555 1_555
H28 O4 1_555 1_555
O5 C34 1_555 1_555
O6 C35 1_555 1_555
C5 C6 1_555 1_555
C11 C12 1_555 1_555
C19 O3 1_555 1_555
C24 C25 1_555 1_555
C30 C31 1_555 1_555
C38 O6 1_555 1_555

#END
