
#######################################################################
#
#                 Cambridge Crystallographic Data Centre
#                                CCDC 
#
#######################################################################
#
# If this CIF has been generated from an entry in the Cambridge 
# Structural Database, then it will include bibliographic, chemical, 
# crystal, experimental, refinement or atomic coordinate data resulting 
# from the CCDC's data processing and validation procedures.
#
#######################################################################

data_QEXYAU
_chemical_compound_source        'Xylaria sp.2508'
_chemical_name_common            'Xyloketal H'
_chemical_formula_moiety         'C13 H16 O4'
_chemical_name_systematic        
(3R*,3aR*,9aR*)-3,9a-dimethyl-2,3,3a,9a-tetrahydro-4H-furo(2,3-b)chromen-5,7-diol
_chemical_properties_biological  'no cytotoxic or antibacterial activity'
_symmetry_cell_setting           orthorhombic
_symmetry_space_group_name_H-M   'P 21 21 21'
_symmetry_Int_Tables_number      19
_space_group_name_Hall           'P 2ac 2ab'
loop_
_symmetry_equiv_pos_site_id
_symmetry_equiv_pos_as_xyz
1 x,y,z
2 1/2-x,-y,1/2+z
3 -x,1/2+y,1/2-z
4 1/2+x,1/2-y,-z
_cell_length_a                   8.713(3)
_cell_length_b                   9.408(3)
_cell_length_c                   14.412(5)
_cell_angle_alpha                90
_cell_angle_beta                 90
_cell_angle_gamma                90
_cell_volume                     1181.38
_exptl_crystal_colour            colorless
_exptl_crystal_description       prism
_chemical_melting_point          '483 K'
_cell_formula_units_Z            4
_exptl_crystal_recrystallization_method methanol
loop_
_atom_site_label
_atom_site_type_symbol
_atom_site_fract_x
_atom_site_fract_y
_atom_site_fract_z
O1 O 0.1746(2) 0.7397(2) 0.81921(18)
C1 C 0.1441(3) 1.1196(3) 0.96089(18)
H1 H 0.1359 1.2061 0.9918
O2 O 0.3832(2) 1.0645(2) 1.03698(14)
H2 H 0.3727 1.1472 1.0578
O3 O 0.3269(2) 0.5866(2) 0.74369(13)
O4 O -0.0906(2) 1.1660(2) 0.88577(16)
H3 H -0.1484 1.1397 0.8456
C2 C 0.2838(3) 0.9004(3) 0.93097(17)
C3 C 0.0442(3) 0.9501(3) 0.85116(19)
H4 H -0.0308 0.9226 0.8089
C4 C 0.2679(3) 1.0313(3) 0.97649(16)
C5 C 0.0322(3) 1.0771(3) 0.89821(18)
C6 C 0.1705(3) 0.8642(3) 0.86823(18)
C7 C 0.4394(3) 0.6933(3) 0.87313(18)
H5 H 0.4971 0.6136 0.8997
C8 C 0.5277(3) 0.7446(3) 0.7873(2)
H6 H 0.5145 0.8475 0.7806
C9 C 0.4170(3) 0.8028(3) 0.9500(2)
H7 H 0.3998 0.7538 1.0083
H8 H 0.5099 0.8588 0.9562
C10 C 0.2903(3) 0.6336(3) 0.83478(19)
C11 C 0.2223(4) 0.5127(4) 0.8882(3)
H9 H 0.1290 0.4824 0.8587
H10 H 0.2004 0.5430 0.9504
H11 H 0.2937 0.4351 0.8898
C12 C 0.4500(4) 0.6705(5) 0.7084(2)
H12 H 0.4108 0.7400 0.6646
H13 H 0.5229 0.6103 0.6762
C13 C 0.6965(4) 0.7101(6) 0.7927(3)
H14 H 0.7470 0.7440 0.7378
H15 H 0.7097 0.6091 0.7975
H16 H 0.7403 0.7553 0.8462
loop_
_geom_bond_atom_site_label_1
_geom_bond_atom_site_label_2
_geom_bond_site_symmetry_1
_geom_bond_site_symmetry_2
O1 C6 1_555 1_555
C1 H1 1_555 1_555
O2 H2 1_555 1_555
O3 C10 1_555 1_555
O4 H3 1_555 1_555
C2 C4 1_555 1_555
C3 H4 1_555 1_555
C4 C1 1_555 1_555
C5 C1 1_555 1_555
C6 C2 1_555 1_555
C7 H5 1_555 1_555
C8 C7 1_555 1_555
H6 C8 1_555 1_555
C9 C2 1_555 1_555
H7 C9 1_555 1_555
H8 C9 1_555 1_555
C10 O1 1_555 1_555
C11 C10 1_555 1_555
H9 C11 1_555 1_555
H10 C11 1_555 1_555
H11 C11 1_555 1_555
C12 O3 1_555 1_555
H12 C12 1_555 1_555
H13 C12 1_555 1_555
C13 C8 1_555 1_555
H14 C13 1_555 1_555
H15 C13 1_555 1_555
H16 C13 1_555 1_555
O2 C4 1_555 1_555
O4 C5 1_555 1_555
C3 C5 1_555 1_555
C3 C6 1_555 1_555
C7 C9 1_555 1_555
C7 C10 1_555 1_555
C8 C12 1_555 1_555

#END
