
#######################################################################
#
#                 Cambridge Crystallographic Data Centre
#                                CCDC 
#
#######################################################################
#
# If this CIF has been generated from an entry in the Cambridge 
# Structural Database, then it will include bibliographic, chemical, 
# crystal, experimental, refinement or atomic coordinate data resulting 
# from the CCDC's data processing and validation procedures.
#
#######################################################################

data_QEYFOP
_chemical_formula_moiety         'C22 H18 Cl1 F3 N2 O1'
_chemical_name_systematic        
3-(\a-Methylbenzyl)-6-chloro-4-cyclopropylethynyl-4-trifluoromethyl-3,4-dihydroquinazolin-2-one
_symmetry_cell_setting           orthorhombic
_symmetry_space_group_name_H-M   'P 21 21 21'
_symmetry_Int_Tables_number      19
_space_group_name_Hall           'P 2ac 2ab'
loop_
_symmetry_equiv_pos_site_id
_symmetry_equiv_pos_as_xyz
1 x,y,z
2 1/2-x,-y,1/2+z
3 1/2+x,1/2-y,-z
4 -x,1/2+y,1/2-z
_cell_length_a                   10.908(1)
_cell_length_b                   14.778(1)
_cell_length_c                   24.242(1)
_cell_angle_alpha                90
_cell_angle_beta                 90
_cell_angle_gamma                90
_cell_volume                     3907.77
_exptl_crystal_colour            colorless
_exptl_crystal_description       'irregular block'
_cell_formula_units_Z            8
_exptl_crystal_recrystallization_method methanol
loop_
_atom_site_label
_atom_site_type_symbol
_atom_site_fract_x
_atom_site_fract_y
_atom_site_fract_z
Cl1 Cl 0.1935(7) 0.5605(4) 0.4880(3)
F1 F -0.0334(1) 0.1852(1) 0.4847(1)
F2 F -0.0244(2) 0.2745(1) 0.5547(1)
F3 F -0.0025(2) 0.1308(1) 0.5655(1)
O1 O 0.2773(2) 0.0444(1) 0.4251(1)
N1 N 0.2108(2) 0.1253(1) 0.4988(1)
N2 N 0.1981(2) 0.1835(1) 0.4093(1)
C1 C 0.1636(2) 0.2107(2) 0.5232(1)
C2 C 0.0239(3) 0.1997(2) 0.5321(1)
C3 C 0.1822(2) 0.2901(2) 0.4837(1)
C4 C 0.1916(2) 0.2724(2) 0.4274(1)
C5 C 0.2311(2) 0.1145(2) 0.4438(1)
C6 C 0.1859(2) 0.3787(2) 0.5023(1)
C7 C 0.1939(2) 0.4483(2) 0.4648(1)
C8 C 0.2001(2) 0.4313(2) 0.4084(1)
C9 C 0.1997(3) 0.3445(2) 0.3898(1)
C10 C 0.2495(2) 0.0505(2) 0.5367(1)
C11 C 0.3886(3) 0.0461(2) 0.5397(1)
C12 C 0.1869(2) -0.0393(2) 0.5226(1)
C13 C 0.0776(3) -0.0448(2) 0.4933(1)
C14 C 0.0224(3) -0.1276(2) 0.4833(1)
C15 C 0.0728(3) -0.2067(2) 0.5029(1)
C16 C 0.1805(4) -0.2026(2) 0.5326(1)
C17 C 0.2373(3) -0.1193(2) 0.5425(1)
C18 C 0.2210(3) 0.2283(2) 0.5766(1)
C19 C 0.2642(4) 0.2405(2) 0.6218(1)
C20 C 0.3171(6) 0.2496(3) 0.6742(2)
C21 C 0.4306(6) 0.2721(4) 0.6839(2)
C22 C 0.3976(4) 0.1792(2) 0.6973(1)
H1 H 0.2007(36) 0.1710(25) 0.3705(17)
H2 H 0.1824 0.3914 0.5406
H3 H 0.2048 0.4805 0.3833
H4 H 0.2048 0.3321 0.3514
H5 H 0.2219 0.0667 0.5725
H6 H 0.4122 -0.0015 0.5639
H7 H 0.4209 0.0348 0.5040
H8 H 0.4196 0.1019 0.5534
H9 H 0.0405 0.0091 0.4799
H10 H -0.0515 -0.1297 0.4626
H11 H 0.0344 -0.2632 0.4959
H12 H 0.2159 -0.2566 0.5466
H13 H 0.3112 -0.1176 0.5631
H14 H 0.2604 0.2711 0.7011
H15 H 0.4349 0.3075 0.7164
H16 H 0.4728 0.2743 0.6496
H17 H 0.4225 0.1401 0.6683
H18 H 0.3843 0.1737 0.7359
Cl2 Cl 0.9406(6) -0.0133(5) 0.3112(3)
F4 F 0.5817(1) -0.0560(1) 0.1743(1)
F5 F 0.4143(1) -0.0626(1) 0.2209(1)
F6 F 0.4196(2) 0.0105(1) 0.1441(1)
O2 O 0.2565(2) 0.1539(1) 0.2998(1)
N3 N 0.4063(2) 0.1256(1) 0.2374(1)
N4 N 0.4105(2) 0.0603(1) 0.3254(1)
C23 C 0.5205(2) 0.0789(2) 0.2210(1)
C24 C 0.4841(2) -0.0084(2) 0.1895(1)
C25 C 0.5948(2) 0.0513(2) 0.2718(1)
C26 C 0.5343(2) 0.0395(2) 0.3217(1)
C27 C 0.3532(2) 0.1155(2) 0.2881(1)
C28 C 0.7210(2) 0.0350(2) 0.2683(1)
C29 C 0.7838(2) 0.0062(2) 0.3146(1)
C30 C 0.7231(3) -0.0066(2) 0.3645(1)
C31 C 0.5990(3) 0.0101(2) 0.3681(1)
C32 C 0.3508(2) 0.1934(2) 0.1993(1)
C33 C 0.3770(3) 0.2881(2) 0.2205(1)
C34 C 0.2154(2) 0.1744(2) 0.1862(1)
C35 C 0.1632(2) 0.0886(2) 0.1905(1)
C36 C 0.0428(3) 0.0742(2) 0.1754(1)
C37 C -0.0278(3) 0.1431(2) 0.1542(1)
C38 C 0.0227(3) 0.2283(2) 0.1497(1)
C39 C 0.1428(3) 0.2441(2) 0.1657(1)
C40 C 0.5929(2) 0.1361(2) 0.1836(1)
C41 C 0.6421(3) 0.1875(2) 0.1524(1)
C42 C 0.6928(3) 0.2552(2) 0.1164(1)
C43 C 0.7175(3) 0.3480(2) 0.1386(1)
C44 C 0.6134(3) 0.3342(2) 0.1004(1)
H19 H 0.3753(28) 0.0559(19) 0.3606(13)
H20 H 0.7628 0.0437 0.2344
H21 H 0.7674 -0.0261 0.3961
H22 H 0.5572 0.0014 0.4020
H23 H 0.3935 0.1881 0.1653
H24 H 0.3417 0.3313 0.1963
H25 H 0.3424 0.2949 0.2562
H26 H 0.4631 0.2973 0.2224
H27 H 0.2113 0.0397 0.2038
H28 H 0.0079 0.0156 0.1797
H29 H -0.1097 0.1322 0.1428
H30 H -0.0251 0.2765 0.1354
H31 H 0.1762 0.3032 0.1627
H32 H 0.7476 0.2346 0.0886
H33 H 0.6878 0.3521 0.1754
H34 H 0.7839 0.3745 0.1191
H35 H 0.5390 0.3324 0.1208
H36 H 0.6351 0.3548 0.0646
loop_
_geom_bond_atom_site_label_1
_geom_bond_atom_site_label_2
_geom_bond_site_symmetry_1
_geom_bond_site_symmetry_2
Cl1 C7 1_555 1_555
Cl2 C29 1_555 1_555
F1 C2 1_555 1_555
F2 C2 1_555 1_555
F3 C2 1_555 1_555
F4 C24 1_555 1_555
F5 C24 1_555 1_555
F6 C24 1_555 1_555
O1 C5 1_555 1_555
O2 C27 1_555 1_555
N1 C1 1_555 1_555
N2 C4 1_555 1_555
N3 C23 1_555 1_555
N4 C26 1_555 1_555
C1 C2 1_555 1_555
C3 C1 1_555 1_555
C4 C3 1_555 1_555
C5 N1 1_555 1_555
C6 C3 1_555 1_555
C7 C6 1_555 1_555
C8 C7 1_555 1_555
C9 C4 1_555 1_555
C10 N1 1_555 1_555
C11 C10 1_555 1_555
C12 C10 1_555 1_555
C13 C12 1_555 1_555
C14 C13 1_555 1_555
C15 C14 1_555 1_555
C16 C15 1_555 1_555
C17 C12 1_555 1_555
C18 C1 1_555 1_555
C19 C18 1_555 1_555
C20 C19 1_555 1_555
C21 C20 1_555 1_555
C22 C20 1_555 1_555
C23 C24 1_555 1_555
C25 C23 1_555 1_555
C26 C25 1_555 1_555
C27 N3 1_555 1_555
C28 C25 1_555 1_555
C29 C28 1_555 1_555
C30 C29 1_555 1_555
C31 C26 1_555 1_555
C32 N3 1_555 1_555
C33 C32 1_555 1_555
C34 C32 1_555 1_555
C35 C34 1_555 1_555
C36 C35 1_555 1_555
C37 C36 1_555 1_555
C38 C37 1_555 1_555
C39 C34 1_555 1_555
C40 C23 1_555 1_555
C41 C40 1_555 1_555
C42 C41 1_555 1_555
C43 C42 1_555 1_555
C44 C42 1_555 1_555
H1 N2 1_555 1_555
H2 C6 1_555 1_555
H3 C8 1_555 1_555
H4 C9 1_555 1_555
H5 C10 1_555 1_555
H6 C11 1_555 1_555
H7 C11 1_555 1_555
H8 C11 1_555 1_555
H9 C13 1_555 1_555
H10 C14 1_555 1_555
H11 C15 1_555 1_555
H12 C16 1_555 1_555
H13 C17 1_555 1_555
H14 C20 1_555 1_555
H15 C21 1_555 1_555
H16 C21 1_555 1_555
H17 C22 1_555 1_555
H18 C22 1_555 1_555
H19 N4 1_555 1_555
H20 C28 1_555 1_555
H21 C30 1_555 1_555
H22 C31 1_555 1_555
H23 C32 1_555 1_555
H24 C33 1_555 1_555
H25 C33 1_555 1_555
H26 C33 1_555 1_555
H27 C35 1_555 1_555
H28 C36 1_555 1_555
H29 C37 1_555 1_555
H30 C38 1_555 1_555
H31 C39 1_555 1_555
H32 C42 1_555 1_555
H33 C43 1_555 1_555
H34 C43 1_555 1_555
H35 C44 1_555 1_555
H36 C44 1_555 1_555
N2 C5 1_555 1_555
N4 C27 1_555 1_555
C8 C9 1_555 1_555
C16 C17 1_555 1_555
C21 C22 1_555 1_555
C30 C31 1_555 1_555
C38 C39 1_555 1_555
C43 C44 1_555 1_555

#END
