
#######################################################################
#
#                 Cambridge Crystallographic Data Centre
#                                CCDC 
#
#######################################################################
#
# If this CIF has been generated from an entry in the Cambridge 
# Structural Database, then it will include bibliographic, chemical, 
# crystal, experimental, refinement or atomic coordinate data resulting 
# from the CCDC's data processing and validation procedures.
#
#######################################################################

data_QEYJAI
_chemical_formula_moiety         'C20 H32 N4 O5'
_chemical_name_systematic        
'di-t-butyl 1-[5-(3,5-dimethyl-1H-pyrazol-1-yl)-5-oxopent-3-en-2-yl]hydrazine-1,2-dicarboxylate'
_symmetry_cell_setting           monoclinic
_symmetry_space_group_name_H-M   'P 21/c'
_symmetry_Int_Tables_number      14
_space_group_name_Hall           '-P 2ybc'
loop_
_symmetry_equiv_pos_site_id
_symmetry_equiv_pos_as_xyz
1 x,y,z
2 -x,1/2+y,1/2-z
3 -x,-y,-z
4 x,1/2-y,1/2+z
_cell_length_a                   10.2333(3)
_cell_length_b                   22.7610(8)
_cell_length_c                   10.6701(4)
_cell_angle_alpha                90
_cell_angle_beta                 108.036(2)
_cell_angle_gamma                90
_cell_volume                     2363.16
_exptl_crystal_colour            colorless
_exptl_crystal_description       block
_cell_formula_units_Z            4
loop_
_atom_site_label
_atom_site_type_symbol
_atom_site_fract_x
_atom_site_fract_y
_atom_site_fract_z
O1 O 0.62863(13) 0.57487(6) 0.33743(13)
O2 O 0.15698(12) 0.69323(5) 0.39219(10)
O3 O 0.00594(11) 0.70177(5) 0.18555(10)
O4 O 0.18661(15) 0.61497(5) 0.09714(12)
O5 O 0.13100(13) 0.66332(5) -0.09791(10)
N1 N 0.62667(13) 0.55874(6) 0.54655(14)
N2 N 0.58070(15) 0.57681(7) 0.64902(14)
N3 N 0.22768(12) 0.72108(6) 0.21994(11)
N4 N 0.20391(12) 0.71407(5) 0.08544(11)
H1 H 0.208123 0.743546 0.036418
C1 C 0.61903(19) 0.53463(9) 0.73681(18)
C2 C 0.68931(19) 0.48963(8) 0.6936(2)
H2 H 0.725753 0.455680 0.739756
C3 C 0.69394(17) 0.50488(8) 0.57338(19)
C4 C 0.7562(2) 0.47379(10) 0.4841(2)
H3 H 0.687136 0.466710 0.401143
H4 H 0.793648 0.436998 0.522961
H5 H 0.828126 0.497480 0.470333
C5 C 0.5873(3) 0.53847(13) 0.8636(2)
H6 H 0.541452 0.574948 0.867126
H7 H 0.671162 0.536603 0.935705
H8 H 0.528779 0.506351 0.869722
C6 C 0.59230(16) 0.59128(7) 0.42968(17)
C7 C 0.51053(16) 0.64494(7) 0.42696(16)
H9 H 0.500523 0.659386 0.505009
C8 C 0.45181(15) 0.67252(7) 0.31581(15)
H10 H 0.460914 0.656212 0.239031
C9 C 0.37132(15) 0.72821(7) 0.30335(15)
H11 H 0.370563 0.739588 0.391702
C10 C 0.4394(2) 0.77770(9) 0.2496(2)
H12 H 0.445330 0.766771 0.164644
H13 H 0.530029 0.784582 0.308859
H14 H 0.385589 0.812859 0.241522
C11 C 0.17364(16) 0.65906(7) 0.03300(14)
C12 C 0.13022(16) 0.70339(6) 0.27521(14)
C13 C -0.0829(2) 0.61252(10) 0.2559(3)
H15 H -0.164060 0.594099 0.264585
H16 H -0.010359 0.610046 0.338201
H17 H -0.055229 0.592887 0.188598
C14 C -0.2271(2) 0.68313(13) 0.0891(2)
H18 H -0.203394 0.662100 0.021150
H19 H -0.239048 0.724001 0.066179
H20 H -0.311083 0.667631 0.097813
C15 C -0.1441(2) 0.71164(11) 0.3257(2)
H21 H -0.152001 0.752425 0.301581
H22 H -0.071198 0.706673 0.407009
H23 H -0.228997 0.698321 0.336473
C16 C -0.11289(18) 0.67624(9) 0.21870(18)
C17 C 0.0824(2) 0.61094(8) -0.18006(18)
C18 C -0.0361(4) 0.58469(17) -0.1459(3)
H24 H -0.106374 0.613839 -0.155832
H25 H -0.005605 0.571153 -0.056265
H26 H -0.072375 0.552211 -0.203550
C19 C 0.2016(4) 0.56923(12) -0.1608(3)
H27 H 0.173876 0.536804 -0.220680
H28 H 0.229951 0.554874 -0.071797
H29 H 0.276775 0.589472 -0.177541
C20 C 0.0404(3) 0.63529(11) -0.31829(19)
H30 H 0.004498 0.604171 -0.380106
H31 H 0.118940 0.652390 -0.335425
H32 H -0.028921 0.664800 -0.327333
loop_
_geom_bond_atom_site_label_1
_geom_bond_atom_site_label_2
_geom_bond_site_symmetry_1
_geom_bond_site_symmetry_2
O1 C6 1_555 1_555
O2 C12 1_555 1_555
O3 C12 1_555 1_555
O4 C11 1_555 1_555
O5 C11 1_555 1_555
N1 N2 1_555 1_555
N2 C1 1_555 1_555
N3 N4 1_555 1_555
N4 H1 1_555 1_555
C1 C2 1_555 1_555
C2 H2 1_555 1_555
C3 N1 1_555 1_555
C4 C3 1_555 1_555
H3 C4 1_555 1_555
H4 C4 1_555 1_555
H5 C4 1_555 1_555
C5 C1 1_555 1_555
H6 C5 1_555 1_555
H7 C5 1_555 1_555
H8 C5 1_555 1_555
C6 N1 1_555 1_555
C7 C6 1_555 1_555
H9 C7 1_555 1_555
C8 C7 1_555 1_555
H10 C8 1_555 1_555
C9 N3 1_555 1_555
H11 C9 1_555 1_555
C10 C9 1_555 1_555
H12 C10 1_555 1_555
H13 C10 1_555 1_555
H14 C10 1_555 1_555
C11 N4 1_555 1_555
C12 N3 1_555 1_555
C13 H15 1_555 1_555
H16 C13 1_555 1_555
H17 C13 1_555 1_555
C14 H18 1_555 1_555
H19 C14 1_555 1_555
H20 C14 1_555 1_555
C15 H21 1_555 1_555
H22 C15 1_555 1_555
H23 C15 1_555 1_555
C16 O3 1_555 1_555
C17 O5 1_555 1_555
C18 C17 1_555 1_555
H24 C18 1_555 1_555
H25 C18 1_555 1_555
H26 C18 1_555 1_555
C19 C17 1_555 1_555
H27 C19 1_555 1_555
H28 C19 1_555 1_555
H29 C19 1_555 1_555
C20 C17 1_555 1_555
H30 C20 1_555 1_555
H31 C20 1_555 1_555
H32 C20 1_555 1_555
C2 C3 1_555 1_555
C8 C9 1_555 1_555
C13 C16 1_555 1_555
C14 C16 1_555 1_555
C15 C16 1_555 1_555

#END
