
#######################################################################
#
#                 Cambridge Crystallographic Data Centre
#                                CCDC 
#
#######################################################################
#
# If this CIF has been generated from an entry in the Cambridge 
# Structural Database, then it will include bibliographic, chemical, 
# crystal, experimental, refinement or atomic coordinate data resulting 
# from the CCDC's data processing and validation procedures.
#
#######################################################################

data_QEYQET
_chemical_compound_source        
'insect derived fungus Neonectria ramulariae In-2'
_chemical_name_common            
'(3R,6R,7S,9R,11S,12R,13S,14S,15S,19R)-pyrrocidine A'
_chemical_formula_moiety         'C31 H37 N1 O4'
_chemical_name_systematic        
12-ethenyl-7-hydroxy-14,14b,16,18-tetramethyl-7,8,12,14a,14b,15,16,17,18,18a,18b,18c-dodecahydro-2,5-etheno-7,10-(metheno)fluoreno[9,1-bc][1,8]oxazacyclotetradecine-9,11(6H,11aH)-dione
_symmetry_cell_setting           monoclinic
_symmetry_space_group_name_H-M   'P 21'
_symmetry_Int_Tables_number      4
_space_group_name_Hall           'P 2yb'
loop_
_symmetry_equiv_pos_site_id
_symmetry_equiv_pos_as_xyz
1 x,y,z
2 -x,1/2+y,-z
_cell_length_a                   9.3301(7)
_cell_length_b                   9.4020(7)
_cell_length_c                   15.3975(12)
_cell_angle_alpha                90
_cell_angle_beta                 96.561(7)
_cell_angle_gamma                90
_cell_volume                     1341.85
_exptl_crystal_colour            colorless
_exptl_crystal_description       chunk
_cell_formula_units_Z            2
_exptl_crystal_recrystallization_method methanol
loop_
_atom_site_label
_atom_site_type_symbol
_atom_site_fract_x
_atom_site_fract_y
_atom_site_fract_z
O1 O 0.48708(19) 0.21419(19) 1.16681(10)
H1 H 0.5432 0.1606 1.1430
O2 O -0.05103(16) 0.56294(17) 0.85377(10)
O3 O 0.2966(2) 0.10360(19) 0.84234(11)
O4 O 0.54172(18) 0.44649(18) 0.91308(11)
N1 N 0.5200(2) 0.3858(2) 1.05661(13)
H2 H 0.5951 0.4320 1.0824
C1 C 0.3299(2) 0.2292(2) 1.02960(14)
H3 H 0.2577 0.1603 1.0368
C2 C -0.0015(2) 0.2514(2) 0.73279(14)
H4 H -0.0298 0.1665 0.7660
C3 C 0.2540(2) 0.5867(2) 1.02726(15)
H5 H 0.3435 0.6349 1.0398
C4 C -0.2902(3) 0.5637(3) 0.59306(16)
H6 H -0.3736 0.6293 0.5836
H7 H -0.2310 0.5783 0.5444
C5 C 0.0323(2) 0.5509(2) 0.93411(14)
C6 C -0.1429(2) 0.3375(2) 0.70317(14)
C7 C -0.0845(2) 0.4909(2) 0.70041(13)
H8 H -0.0249 0.4924 0.6504
C8 C 0.1651(2) 0.6198(2) 0.95119(14)
H9 H 0.1943 0.6884 0.9114
C9 C 0.3053(2) 0.2285(2) 0.86287(13)
C10 C 0.4859(2) 0.3791(2) 0.96899(14)
C11 C -0.2242(2) 0.3053(3) 0.61286(15)
H10 H -0.2651 0.2081 0.6130
H11 H -0.1557 0.3084 0.5683
C12 C 0.4174(2) 0.3071(2) 1.10382(14)
C13 C -0.0169(2) 0.4627(2) 0.99681(15)
H12 H -0.1123 0.4257 0.9886
C14 C 0.0829(2) 0.3547(2) 0.80028(13)
H13 H 0.0588 0.3267 0.8596
C15 C -0.1311(3) 0.7506(3) 0.66961(16)
H14 H -0.2073 0.8216 0.6557
H15 H -0.0690 0.7475 0.6224
H16 H -0.0734 0.7765 0.7245
C16 C 0.2143(2) 0.4837(2) 1.08571(14)
C17 C 0.0226(2) 0.5075(2) 0.78196(14)
H17 H 0.1023 0.5732 0.7700
C18 C 0.2187(2) 0.2399(3) 0.65368(14)
H18 H 0.2638 0.2009 0.6068
C19 C 0.3249(2) 0.4135(3) 1.15132(14)
H19 H 0.2755 0.3623 1.1956
H20 H 0.3881 0.4869 1.1818
C20 C -0.2454(2) 0.3157(3) 0.77384(16)
H21 H -0.1938 0.3363 0.8315
H22 H -0.2793 0.2170 0.7723
H23 H -0.3281 0.3800 0.7626
C21 C 0.3040(2) 0.3436(3) 0.71259(14)
H24 H 0.4049 0.3061 0.7221
C22 C 0.2491(2) 0.3504(2) 0.80346(13)
H25 H 0.2870 0.4406 0.8319
C23 C 0.3685(2) 0.2712(2) 0.95264(13)
C24 C 0.0848(2) 0.1981(2) 0.66192(14)
C25 C 0.3132(2) 0.4914(3) 0.67393(16)
H26 H 0.3668 0.5609 0.7087
C26 C 0.0752(3) 0.4288(3) 1.07194(15)
H27 H 0.0423 0.3671 1.1144
C27 C -0.1992(2) 0.6051(3) 0.67921(15)
H28 H -0.2628 0.6089 0.7272
C28 C 0.0199(3) 0.0760(3) 0.60636(19)
H29 H -0.0790 0.0588 0.6195
H30 H 0.0779 -0.0099 0.6193
H31 H 0.0187 0.1002 0.5444
C29 C -0.3464(3) 0.4127(3) 0.58847(16)
H32 H -0.4181 0.4028 0.6317
C30 C -0.4240(3) 0.3814(4) 0.4971(2)
H33 H -0.4596 0.2833 0.4950
H34 H -0.3565 0.3941 0.4534
H35 H -0.5054 0.4470 0.4846
C31 C 0.2528(3) 0.5315(3) 0.59606(18)
H36 H 0.1982 0.4654 0.5592
H37 H 0.2639 0.6265 0.5769
loop_
_geom_bond_atom_site_label_1
_geom_bond_atom_site_label_2
_geom_bond_site_symmetry_1
_geom_bond_site_symmetry_2
O1 H1 1_555 1_555
O2 C5 1_555 1_555
O3 C9 1_555 1_555
O4 C10 1_555 1_555
N1 H2 1_555 1_555
C1 H3 1_555 1_555
C2 H4 1_555 1_555
C3 H5 1_555 1_555
C4 H6 1_555 1_555
H7 C4 1_555 1_555
C5 C8 1_555 1_555
C6 C2 1_555 1_555
C7 C6 1_555 1_555
H8 C7 1_555 1_555
C8 C3 1_555 1_555
H9 C8 1_555 1_555
C9 C22 1_555 1_555
C10 N1 1_555 1_555
C11 C6 1_555 1_555
H10 C11 1_555 1_555
H11 C11 1_555 1_555
C12 O1 1_555 1_555
C13 C5 1_555 1_555
H12 C13 1_555 1_555
C14 C2 1_555 1_555
H13 C14 1_555 1_555
C15 H14 1_555 1_555
H15 C15 1_555 1_555
H16 C15 1_555 1_555
C16 C3 1_555 1_555
C17 O2 1_555 1_555
H17 C17 1_555 1_555
C18 H18 1_555 1_555
C19 C12 1_555 1_555
H19 C19 1_555 1_555
H20 C19 1_555 1_555
C20 C6 1_555 1_555
H21 C20 1_555 1_555
H22 C20 1_555 1_555
H23 C20 1_555 1_555
C21 C18 1_555 1_555
H24 C21 1_555 1_555
C22 C14 1_555 1_555
H25 C22 1_555 1_555
C23 C1 1_555 1_555
C24 C2 1_555 1_555
C25 C21 1_555 1_555
H26 C25 1_555 1_555
C26 C13 1_555 1_555
H27 C26 1_555 1_555
C27 C4 1_555 1_555
H28 C27 1_555 1_555
C28 C24 1_555 1_555
H29 C28 1_555 1_555
H30 C28 1_555 1_555
H31 C28 1_555 1_555
C29 C4 1_555 1_555
H32 C29 1_555 1_555
C30 C29 1_555 1_555
H33 C30 1_555 1_555
H34 C30 1_555 1_555
H35 C30 1_555 1_555
C31 C25 1_555 1_555
H36 C31 1_555 1_555
H37 C31 1_555 1_555
N1 C12 1_555 1_555
C1 C12 1_555 1_555
C7 C17 1_555 1_555
C7 C27 1_555 1_555
C9 C23 1_555 1_555
C10 C23 1_555 1_555
C11 C29 1_555 1_555
C14 C17 1_555 1_555
C15 C27 1_555 1_555
C16 C19 1_555 1_555
C16 C26 1_555 1_555
C18 C24 1_555 1_555
C21 C22 1_555 1_555

#END
