
#######################################################################
#
#                 Cambridge Crystallographic Data Centre
#                                CCDC 
#
#######################################################################
#
# If this CIF has been generated from an entry in the Cambridge 
# Structural Database, then it will include bibliographic, chemical, 
# crystal, experimental, refinement or atomic coordinate data resulting 
# from the CCDC's data processing and validation procedures.
#
#######################################################################

data_QEYSOF
_chemical_formula_moiety         'C30 H32 Mg1 N6,2.5(C5 H5 N1)'
_chemical_name_systematic        
'tetrakis(pyridine)-bis(pyridin-1(4H)-yl)-magnesium(ii0) pyridine solvate'
_symmetry_cell_setting           monoclinic
_symmetry_space_group_name_H-M   'I 2/a'
_symmetry_Int_Tables_number      15
_space_group_name_Hall           '-I 2ya'
loop_
_symmetry_equiv_pos_site_id
_symmetry_equiv_pos_as_xyz
1 x,y,z
2 1/2-x,y,-z
3 1/2+x,1/2+y,1/2+z
4 -x,1/2+y,1/2-z
5 -x,-y,-z
6 1/2+x,-y,z
7 1/2-x,1/2-y,1/2-z
8 x,1/2-y,1/2+z
_cell_length_a                   21.864(4)
_cell_length_b                   11.040(2)
_cell_length_c                   32.266(5)
_cell_angle_alpha                90
_cell_angle_beta                 101.021(5)
_cell_angle_gamma                90
_cell_volume                     7644.68
_exptl_crystal_colour            orange
_exptl_crystal_description       rod
_cell_formula_units_Z            8
_chemical_properties_physical    
Air-sensitive,Moisture-sensitive,Oxygen-sensitive
_exptl_crystal_recrystallization_method pentane/n-hexane
loop_
_atom_site_label
_atom_site_type_symbol
_atom_site_fract_x
_atom_site_fract_y
_atom_site_fract_z
Mg1 Mg 0.98484(2) 0.21614(4) 0.13740(2)
N1 N 1.04573(6) 0.36613(11) 0.13914(4)
N2 N 0.92628(6) 0.05950(11) 0.13250(4)
N3 N 1.06694(6) 0.09083(11) 0.14032(4)
N4 N 0.90522(6) 0.34413(11) 0.13908(4)
N5 N 0.99920(6) 0.21180(11) 0.21257(4)
N6 N 0.96585(6) 0.22026(12) 0.06228(4)
C1 C 1.10648(7) 0.36472(14) 0.16135(4)
H1 H 1.1208(8) 0.2874(16) 0.1745(5)
C2 C 1.14791(7) 0.45688(15) 0.16662(5)
H2 H 1.1898(9) 0.4421(16) 0.1831(6)
C3 C 1.13267(8) 0.57943(15) 0.14707(5)
H3 H 1.1394(10) 0.646(2) 0.1695(7)
H4 H 1.1630(9) 0.6029(17) 0.1289(6)
C4 C 1.06649(8) 0.57751(14) 0.12306(5)
H5 H 1.0473(9) 0.6505(18) 0.1087(6)
C5 C 1.02966(7) 0.47883(14) 0.12103(5)
H6 H 0.9865(9) 0.4827(16) 0.1053(6)
C6 C 0.93954(7) -0.04613(14) 0.11228(5)
H7 H 0.9780(8) -0.0444(16) 0.1017(6)
C7 C 0.90456(8) -0.14680(15) 0.10506(5)
H8 H 0.9196(9) -0.2121(18) 0.0899(6)
C8 C 0.84404(9) -0.16082(16) 0.11985(5)
H9 H 0.8464(10) -0.230(2) 0.1406(7)
H10 H 0.8097(10) -0.185(2) 0.0961(7)
C9 C 0.82969(7) -0.04329(15) 0.13972(5)
H11 H 0.7909(9) -0.0344(17) 0.1486(6)
C10 C 0.86883(7) 0.05224(14) 0.14444(4)
H12 H 0.8570(8) 0.1244(17) 0.1577(6)
C11 C 1.07604(7) -0.00233(14) 0.16764(5)
H13 H 1.0461(9) -0.0089(16) 0.1860(6)
C12 C 1.12213(8) -0.08842(15) 0.16817(5)
H14 H 1.1247(9) -0.1533(19) 0.1884(6)
C13 C 1.16103(8) -0.07924(15) 0.13905(6)
H15 H 1.1955(10) -0.137(2) 0.1385(7)
C14 C 1.15269(7) 0.01726(16) 0.11097(5)
H16 H 1.1789(9) 0.0318(17) 0.0901(6)
C15 C 1.10569(7) 0.09976(14) 0.11272(5)
H17 H 1.0981(8) 0.1698(17) 0.0928(6)
C16 C 0.85173(7) 0.33791(15) 0.11084(5)
H18 H 0.8498(8) 0.2748(17) 0.0904(6)
C17 C 0.80218(8) 0.41631(16) 0.11092(6)
H19 H 0.7664(10) 0.4058(18) 0.0904(6)
C18 C 0.80740(8) 0.50481(16) 0.14157(6)
H20 H 0.7736(9) 0.5604(18) 0.1433(6)
C19 C 0.86235(8) 0.51326(16) 0.17077(6)
H21 H 0.8689(10) 0.573(2) 0.1934(7)
C20 C 0.90978(7) 0.43214(15) 0.16833(5)
H22 H 0.9487(9) 0.4380(17) 0.1865(6)
C21 C 1.03478(7) 0.29249(14) 0.23753(5)
H23 H 1.0582(8) 0.3484(17) 0.2244(6)
C22 C 1.03874(7) 0.29836(14) 0.28097(5)
H24 H 1.0661(9) 0.3579(18) 0.2970(6)
C23 C 1.00414(7) 0.21772(14) 0.30002(5)
H25 H 1.0061(8) 0.2185(16) 0.3305(6)
C24 C 0.96720(7) 0.13381(15) 0.27495(5)
H26 H 0.9425(8) 0.0759(16) 0.2873(6)
C25 C 0.96646(7) 0.13373(14) 0.23173(5)
H27 H 0.9420(8) 0.0749(16) 0.2139(5)
C26 C 1.00125(7) 0.28638(16) 0.04101(5)
H28 H 1.0334(9) 0.3395(17) 0.0581(6)
C27 C 0.99684(9) 0.27923(19) -0.00248(5)
H29 H 1.0255(11) 0.328(2) -0.0144(7)
C28 C 0.95440(10) 0.2002(2) -0.02526(5)
H30 H 0.9518(10) 0.191(2) -0.0560(7)
C29 C 0.91667(9) 0.1333(2) -0.00404(5)
H31 H 0.8872(11) 0.074(2) -0.0184(7)
C30 C 0.92366(7) 0.14622(16) 0.03933(5)
H32 H 0.8979(8) 0.1005(17) 0.0547(6)
N7 N 0.17174(7) 0.27894(15) 0.03678(5)
C31 C 0.16870(9) 0.28787(19) -0.00496(6)
H33 H 0.1750(10) 0.213(2) -0.0197(7)
C32 C 0.15520(9) 0.39408(18) -0.02764(6)
H34 H 0.1536(10) 0.397(2) -0.0586(7)
C33 C 0.14307(9) 0.49732(18) -0.00656(6)
H35 H 0.1318(11) 0.574(2) -0.0215(7)
C34 C 0.14482(9) 0.49014(18) 0.03637(6)
H36 H 0.1345(11) 0.559(2) 0.0524(7)
C35 C 0.15988(8) 0.38093(18) 0.05655(5)
H37 H 0.1630(9) 0.3743(19) 0.0861(7)
C36? C 0.75361(12) 0.22740(18) 0.02154(7)
H38? H 0.7571 0.3019 0.0366
C37? C 0.75579(8) 0.12342(19) 0.04226(6)
H39? H 0.7595 0.1243 0.0721
C38? C 0.75285(11) 0.01480(19) 0.02161(7)
H40? H 0.7547 -0.0592 0.0368
N8? N 0.75361(12) 0.22740(18) 0.02154(7)
C39? C 0.29692(8) 0.73695(18) 0.22800(6)
H41? H 0.3297 0.7293 0.2127
C40? C 0.28264(9) 0.84885(18) 0.24211(6)
H42? H 0.3058 0.9177 0.2365
C41? C 0.23540(9) 0.86283(18) 0.26424(6)
H43? H 0.2255 0.9404 0.2739
N9? N 0.28264(9) 0.84885(18) 0.24211(6)
C42? C 0.76629(8) 0.66221(16) 0.27915(5)
H44? H 0.7769 0.6013 0.3001
C43? C 0.80518(8) 0.68467(16) 0.25211(5)
H45? H 0.8426 0.6400 0.2533
C44? C 0.78827(9) 0.77417(18) 0.22315(6)
H46? H 0.8149 0.7931 0.2040
N10? N 0.80518(8) 0.68467(16) 0.25211(5)
loop_
_geom_bond_atom_site_label_1
_geom_bond_atom_site_label_2
_geom_bond_site_symmetry_1
_geom_bond_site_symmetry_2
Mg1 N1 1_555 1_555
N1 C1 1_555 1_555
N2 Mg1 1_555 1_555
N3 Mg1 1_555 1_555
N4 Mg1 1_555 1_555
N5 Mg1 1_555 1_555
N6 Mg1 1_555 1_555
C1 H1 1_555 1_555
C2 C1 1_555 1_555
H2 C2 1_555 1_555
C3 C2 1_555 1_555
H3 C3 1_555 1_555
H4 C3 1_555 1_555
C4 C3 1_555 1_555
H5 C4 1_555 1_555
C5 N1 1_555 1_555
H6 C5 1_555 1_555
C6 N2 1_555 1_555
H7 C6 1_555 1_555
C7 C6 1_555 1_555
H8 C7 1_555 1_555
C8 C7 1_555 1_555
H9 C8 1_555 1_555
H10 C8 1_555 1_555
C9 C8 1_555 1_555
H11 C9 1_555 1_555
C10 N2 1_555 1_555
H12 C10 1_555 1_555
C11 N3 1_555 1_555
H13 C11 1_555 1_555
C12 C11 1_555 1_555
H14 C12 1_555 1_555
C13 C12 1_555 1_555
H15 C13 1_555 1_555
C14 C13 1_555 1_555
H16 C14 1_555 1_555
C15 N3 1_555 1_555
H17 C15 1_555 1_555
C16 N4 1_555 1_555
H18 C16 1_555 1_555
C17 C16 1_555 1_555
H19 C17 1_555 1_555
C18 C17 1_555 1_555
H20 C18 1_555 1_555
C19 C18 1_555 1_555
H21 C19 1_555 1_555
C20 N4 1_555 1_555
H22 C20 1_555 1_555
C21 N5 1_555 1_555
H23 C21 1_555 1_555
C22 C21 1_555 1_555
H24 C22 1_555 1_555
C23 C22 1_555 1_555
H25 C23 1_555 1_555
C24 C23 1_555 1_555
H26 C24 1_555 1_555
C25 N5 1_555 1_555
H27 C25 1_555 1_555
C26 N6 1_555 1_555
H28 C26 1_555 1_555
C27 C26 1_555 1_555
H29 C27 1_555 1_555
C28 C27 1_555 1_555
H30 C28 1_555 1_555
C29 C28 1_555 1_555
H31 C29 1_555 1_555
C30 N6 1_555 1_555
H32 C30 1_555 1_555
N7 C31 1_555 1_555
C31 H33 1_555 1_555
C32 C31 1_555 1_555
H34 C32 1_555 1_555
C33 C32 1_555 1_555
H35 C33 1_555 1_555
C34 C33 1_555 1_555
H36 C34 1_555 1_555
C35 N7 1_555 1_555
H37 C35 1_555 1_555
C4 C5 1_555 1_555
C9 C10 1_555 1_555
C14 C15 1_555 1_555
C19 C20 1_555 1_555
C24 C25 1_555 1_555
C29 C30 1_555 1_555
C34 C35 1_555 1_555

#END
