
#######################################################################
#
#                 Cambridge Crystallographic Data Centre
#                                CCDC 
#
#######################################################################
#
# If this CIF has been generated from an entry in the Cambridge 
# Structural Database, then it will include bibliographic, chemical, 
# crystal, experimental, refinement or atomic coordinate data resulting 
# from the CCDC's data processing and validation procedures.
#
#######################################################################

data_QEYSUL
_chemical_formula_moiety         'C34 H45 Mg1 N5 Si1,C7 H8'
_chemical_name_systematic        
'(1,4,7-trimethyl-1,4,7,10-tetraazacyclododecanato)-[4-(triphenylsilyl)pyridin-1(4H)-yl]-magnesium toluene solvate'
_symmetry_cell_setting           triclinic
_symmetry_space_group_name_H-M   'P -1'
_symmetry_Int_Tables_number      2
_space_group_name_Hall           '-P 1'
loop_
_symmetry_equiv_pos_site_id
_symmetry_equiv_pos_as_xyz
1 x,y,z
2 -x,-y,-z
_cell_length_a                   7.5892(8)
_cell_length_b                   14.8942(17)
_cell_length_c                   18.236(2)
_cell_angle_alpha                67.9347(19)
_cell_angle_beta                 81.964(2)
_cell_angle_gamma                78.815(2)
_cell_volume                     1868.96
_exptl_crystal_colour            yellow
_exptl_crystal_description       block
_cell_formula_units_Z            2
_chemical_properties_physical    
Air-sensitive,Moisture-sensitive,Oxygen-sensitive
loop_
_atom_site_label
_atom_site_type_symbol
_atom_site_fract_x
_atom_site_fract_y
_atom_site_fract_z
Si1 Si 0.78545(8) 0.39632(4) 0.23229(3)
Mg1 Mg 0.56764(10) 0.15868(6) 0.58998(4)
N1 N 0.7166(3) 0.13428(16) 0.67925(12)
N2 N 0.6206(3) -0.00872(14) 0.63956(11)
N3 N 0.2914(2) 0.13299(15) 0.63287(11)
N4 N 0.4604(3) 0.29591(16) 0.62113(13)
N5 N 0.6095(3) 0.20629(14) 0.47044(11)
C1 C 0.7762(3) 0.0361(2) 0.72903(15)
H1 H 0.6920 0.0164 0.7769
H2 H 0.8970 0.0310 0.7462
C2 C 0.7839(3) -0.03035(19) 0.68307(16)
H3 H 0.8911 -0.0228 0.6448
H4 H 0.7973 -0.0993 0.7202
C3 C 0.4604(3) -0.03544(18) 0.69539(15)
H5 H 0.4571 -0.1063 0.7107
H6 H 0.4699 -0.0227 0.7441
C4 C 0.2952(5) 0.0204(3) 0.6596(2)
H7 H 0.1914 0.0014 0.6984
H8 H 0.2821 0.0040 0.6131
C5 C 0.2678(5) 0.1599(3) 0.7022(2)
H9 H 0.3548 0.1161 0.7411
H10 H 0.1446 0.1528 0.7276
C6 C 0.2993(4) 0.2714(2) 0.67649(16)
H11 H 0.1917 0.3153 0.6511
H12 H 0.3111 0.2845 0.7248
C7 C 0.6115(4) 0.3012(2) 0.6623(2)
H13 H 0.5682 0.3461 0.6919
H14 H 0.7078 0.3290 0.6223
C8 C 0.6882(4) 0.2029(2) 0.71888(19)
H15 H 0.8036 0.2067 0.7361
H16 H 0.6036 0.1816 0.7664
C9 C 0.6525(4) -0.06532(18) 0.58661(16)
H17 H 0.7510 -0.0430 0.5468
H18 H 0.5429 -0.0555 0.5601
H19 H 0.6849 -0.1351 0.6178
C10 C 0.1451(5) 0.1788(4) 0.5800(2)
H20 H 0.0303 0.1628 0.6097
H21 H 0.1657 0.1543 0.5362
H22 H 0.1413 0.2501 0.5588
C11 C 0.4172(4) 0.3912(2) 0.55721(19)
H23 H 0.3115 0.3909 0.5320
H24 H 0.5200 0.4028 0.5176
H25 H 0.3914 0.4434 0.5794
C12 C 0.7568(3) 0.17252(16) 0.42803(14)
H26 H 0.842(3) 0.1209(19) 0.4613(15)
C13 C 0.7894(3) 0.20388(17) 0.34900(14)
H27 H 0.901(4) 0.175(2) 0.3279(17)
C14 C 0.6691(3) 0.28715(17) 0.29279(13)
H28 H 0.638(4) 0.265(2) 0.2517(17)
C15 C 0.5019(3) 0.31381(17) 0.34131(14)
H29 H 0.409(3) 0.3610(17) 0.3120(14)
C16 C 0.4859(3) 0.27581(17) 0.42045(14)
H30 H 0.375(3) 0.2979(17) 0.4463(14)
C17 C 0.8990(3) 0.44076(16) 0.29428(13)
C18 C 0.8810(3) 0.40546(17) 0.37741(13)
H31 H 0.8010 0.3597 0.4050
C19 C 0.9785(3) 0.43655(18) 0.41992(14)
H32 H 0.9653 0.4116 0.4763
C20 C 1.0947(3) 0.50353(19) 0.38091(15)
H33 H 1.1612 0.5244 0.4104
C21 C 1.1139(3) 0.54028(18) 0.29868(14)
H34 H 1.1927 0.5868 0.2715
C22 C 1.0173(3) 0.50867(17) 0.25657(13)
H35 H 1.0317 0.5338 0.2002
C23 C 0.6135(3) 0.49643(17) 0.17325(12)
C24 C 0.4949(3) 0.47370(19) 0.13282(14)
H36 H 0.5063 0.4082 0.1347
C25 C 0.3615(3) 0.5436(2) 0.09011(14)
H37 H 0.2828 0.5257 0.0635
C26 C 0.3430(3) 0.6389(2) 0.08629(14)
H38 H 0.2522 0.6871 0.0566
C27 C 0.4570(3) 0.66473(19) 0.12572(14)
H39 H 0.4440 0.7304 0.1235
C28 C 0.5909(3) 0.59360(17) 0.16866(13)
H40 H 0.6686 0.6118 0.1954
C29 C 0.9668(3) 0.36120(16) 0.16186(13)
C30 C 1.1323(3) 0.30864(17) 0.18856(14)
H41 H 1.1546 0.2928 0.2423
C31 C 1.2662(3) 0.27857(18) 0.13850(14)
H42 H 1.3773 0.2416 0.1585
C32 C 1.2381(3) 0.30239(19) 0.06007(15)
H43 H 1.3294 0.2820 0.0258
C33 C 1.0766(4) 0.3559(2) 0.03159(16)
H44 H 1.0572 0.3737 -0.0228
C34 C 0.9419(4) 0.3840(2) 0.08223(15)
H45 H 0.8301 0.4196 0.0620
C38 C 0.1586(7) 0.0674(4) 0.9062(2)
C39 C 0.3382(5) 0.0251(4) 0.91903(18)
H57 H 0.4223 0.0596 0.9271
C40 C 0.3864(7) -0.0680(4) 0.9194(2)
H58 H 0.5088 -0.0966 0.9272
C41 C 0.2707(9) -0.1267(4) 0.9091(2)
H59 H 0.3104 -0.1919 0.9107
C42 C 0.1072(7) -0.0830(4) 0.8973(2)
H60 H 0.0259 -0.1185 0.8886
C43 C 0.0361(5) 0.0149(3) 0.89603(18)
H61 H -0.0871 0.0419 0.8887
C44 C 0.0928(9) 0.1635(4) 0.9020(2)
H62 H 0.1742 0.1852 0.9270
H63 H -0.0272 0.1658 0.9298
H64 H 0.0852 0.2067 0.8463
H46? H 0.5017 -0.0814 0.7475
H47? H 0.3915 -0.0702 0.6752
C35? C 0.3249(9) 0.0594(5) 0.7082(4)
H48? H 0.2101 0.0390 0.7368
H49? H 0.3815 0.0854 0.7403
C36? C 0.1922(8) 0.2311(5) 0.6480(4)
H50? H 0.1481 0.2800 0.5974
H51? H 0.0862 0.2154 0.6861
H52? H 0.3375 0.2247 0.7289
H53? H 0.2309 0.3316 0.6837
C37? C 0.1768(10) 0.1181(7) 0.5838(4)
H54? H 0.0535 0.1188 0.6085
H55? H 0.2200 0.0547 0.5777
H56? H 0.1783 0.1706 0.5315
loop_
_geom_bond_atom_site_label_1
_geom_bond_atom_site_label_2
_geom_bond_site_symmetry_1
_geom_bond_site_symmetry_2
Si1 C14 1_555 1_555
Mg1 N1 1_555 1_555
N1 C1 1_555 1_555
N2 Mg1 1_555 1_555
N3 Mg1 1_555 1_555
N4 Mg1 1_555 1_555
N5 Mg1 1_555 1_555
C1 H1 1_555 1_555
H2 C1 1_555 1_555
C2 N2 1_555 1_555
H3 C2 1_555 1_555
H4 C2 1_555 1_555
C3 N2 1_555 1_555
H5 C3 1_555 1_555
H6 C3 1_555 1_555
C4 N3 1_555 1_555
H7 C4 1_555 1_555
H8 C4 1_555 1_555
C5 N3 1_555 1_555
H9 C5 1_555 1_555
H10 C5 1_555 1_555
C6 N4 1_555 1_555
H11 C6 1_555 1_555
H12 C6 1_555 1_555
C7 N4 1_555 1_555
H13 C7 1_555 1_555
H14 C7 1_555 1_555
C8 N1 1_555 1_555
H15 C8 1_555 1_555
H16 C8 1_555 1_555
C9 N2 1_555 1_555
H17 C9 1_555 1_555
H18 C9 1_555 1_555
H19 C9 1_555 1_555
C10 N3 1_555 1_555
H20 C10 1_555 1_555
H21 C10 1_555 1_555
H22 C10 1_555 1_555
C11 N4 1_555 1_555
H23 C11 1_555 1_555
H24 C11 1_555 1_555
H25 C11 1_555 1_555
C12 N5 1_555 1_555
H26 C12 1_555 1_555
C13 C12 1_555 1_555
H27 C13 1_555 1_555
C14 C13 1_555 1_555
H28 C14 1_555 1_555
C15 C14 1_555 1_555
H29 C15 1_555 1_555
C16 N5 1_555 1_555
H30 C16 1_555 1_555
C17 Si1 1_555 1_555
C18 C17 1_555 1_555
H31 C18 1_555 1_555
C19 C18 1_555 1_555
H32 C19 1_555 1_555
C20 C19 1_555 1_555
H33 C20 1_555 1_555
C21 C20 1_555 1_555
H34 C21 1_555 1_555
C22 C17 1_555 1_555
H35 C22 1_555 1_555
C23 Si1 1_555 1_555
C24 C23 1_555 1_555
H36 C24 1_555 1_555
C25 C24 1_555 1_555
H37 C25 1_555 1_555
C26 C25 1_555 1_555
H38 C26 1_555 1_555
C27 C26 1_555 1_555
H39 C27 1_555 1_555
C28 C23 1_555 1_555
H40 C28 1_555 1_555
C29 Si1 1_555 1_555
C30 C29 1_555 1_555
H41 C30 1_555 1_555
C31 C30 1_555 1_555
H42 C31 1_555 1_555
C32 C31 1_555 1_555
H43 C32 1_555 1_555
C33 C32 1_555 1_555
H44 C33 1_555 1_555
C34 C29 1_555 1_555
H45 C34 1_555 1_555
C38 C39 1_555 1_555
C39 H57 1_555 1_555
C40 C39 1_555 1_555
H58 C40 1_555 1_555
C41 C40 1_555 1_555
H59 C41 1_555 1_555
C42 C41 1_555 1_555
H60 C42 1_555 1_555
C43 C38 1_555 1_555
H61 C43 1_555 1_555
C44 C38 1_555 1_555
H62 C44 1_555 1_555
H63 C44 1_555 1_555
H64 C44 1_555 1_555
C1 C2 1_555 1_555
C3 C4 1_555 1_555
C5 C6 1_555 1_555
C7 C8 1_555 1_555
C15 C16 1_555 1_555
C21 C22 1_555 1_555
C27 C28 1_555 1_555
C33 C34 1_555 1_555
C42 C43 1_555 1_555

#END
