
#######################################################################
#
#                 Cambridge Crystallographic Data Centre
#                                CCDC 
#
#######################################################################
#
# If this CIF has been generated from an entry in the Cambridge 
# Structural Database, then it will include bibliographic, chemical, 
# crystal, experimental, refinement or atomic coordinate data resulting 
# from the CCDC's data processing and validation procedures.
#
#######################################################################

data_QEYTAQ
_chemical_formula_moiety         'C25 H32 O3'
_chemical_name_systematic        
9-Benzyl-12a-hydroxytetradecahydrotriphenylene-1,5(2H,4bH)-dione
_symmetry_cell_setting           monoclinic
_symmetry_space_group_name_H-M   'P 21/c'
_symmetry_Int_Tables_number      14
_space_group_name_Hall           '-P 2ybc'
loop_
_symmetry_equiv_pos_site_id
_symmetry_equiv_pos_as_xyz
1 x,y,z
2 -x,1/2+y,1/2-z
3 -x,-y,-z
4 x,1/2-y,1/2+z
_cell_length_a                   19.6178(13)
_cell_length_b                   5.3724(4)
_cell_length_c                   19.0540(12)
_cell_angle_alpha                90
_cell_angle_beta                 97.207(2)
_cell_angle_gamma                90
_cell_volume                     1992.32
_exptl_crystal_colour            colorless
_exptl_crystal_description       needle
_cell_formula_units_Z            4
_exptl_crystal_recrystallization_method dichloromethane/hexane
loop_
_atom_site_label
_atom_site_type_symbol
_atom_site_fract_x
_atom_site_fract_y
_atom_site_fract_z
C1 C 0.30252(6) 0.0972(3) -0.08313(7)
O1 O 0.27608(5) -0.0971(2) -0.10578(5)
C2 C 0.34685(8) 0.2515(3) -0.12584(7)
H1 H 0.3174 0.3694 -0.1559
H2 H 0.3694 0.1405 -0.1574
C3 C 0.40160(6) 0.3968(3) -0.07921(7)
H3 H 0.3831 0.5603 -0.0669
H4 H 0.4417 0.4262 -0.1049
C4 C 0.42355(6) 0.2479(3) -0.01202(7)
H5 H 0.4647 0.3253 0.0146
H6 H 0.4356 0.0761 -0.0247
C5 C 0.36506(6) 0.2408(2) 0.03453(6)
H7 H 0.3645 0.4047 0.0593
C6 C 0.29355(6) 0.2068(2) -0.01150(6)
H8 H 0.2762 0.3797 -0.0218
C7 C 0.37298(5) 0.0384(2) 0.09067(6)
H9 H 0.3650 -0.1255 0.0662
C8 C 0.44174(6) 0.0252(2) 0.13688(6)
O2 O 0.48488(5) 0.18792(19) 0.13965(5)
C9 C 0.44930(6) -0.2032(2) 0.18317(7)
H10 H 0.4936 -0.1967 0.2143
H11 H 0.4493 -0.3540 0.1533
C10 C 0.38985(6) -0.2173(3) 0.22840(7)
H12 H 0.3905 -0.3826 0.2515
H13 H 0.3970 -0.0899 0.2661
C11 C 0.31906(6) -0.1768(2) 0.18555(7)
H14 H 0.3082 -0.3183 0.1528
H15 H 0.2835 -0.1695 0.2180
C12 C 0.31846(6) 0.0662(2) 0.14325(6)
H16 H 0.3358 0.1993 0.1776
C13 C 0.24824(5) 0.1599(2) 0.10483(6)
H17 H 0.2519 0.3455 0.1040
O3 O 0.24306(5) -0.18817(16) 0.02578(5)
H18 H 0.2439 -0.2366 -0.0160
C14 C 0.23769(6) 0.0791(2) 0.02692(6)
C15 C 0.16690(6) 0.1585(2) -0.00976(6)
H19 H 0.1650 0.3423 -0.0129
H20 H 0.1603 0.0912 -0.0585
C16 C 0.10910(6) 0.0665(3) 0.02992(7)
H21 H 0.1101 -0.1174 0.0329
H22 H 0.0641 0.1175 0.0045
C17 C 0.11862(6) 0.1785(3) 0.10416(7)
H23 H 0.0805 0.1231 0.1299
H24 H 0.1165 0.3622 0.1005
C18 C 0.18718(6) 0.1023(2) 0.14605(6)
H25 H 0.1862 -0.0807 0.1554
C19 C 0.19725(6) 0.2415(3) 0.21764(7)
H26 H 0.2436 0.2025 0.2419
H27 H 0.1955 0.4228 0.2082
C20 C 0.14500(6) 0.1797(2) 0.26692(6)
C21 C 0.15163(7) -0.0323(3) 0.30912(7)
H28 H 0.1897 -0.1403 0.3073
C22 C 0.10294(8) -0.0879(3) 0.35408(7)
H29 H 0.1081 -0.2327 0.3829
C23 C 0.04707(7) 0.0670(3) 0.35693(7)
H30 H 0.0139 0.0288 0.3876
C24 C 0.03969(7) 0.2773(3) 0.31508(8)
H31 H 0.0012 0.3836 0.3167
C25 C 0.08848(6) 0.3341(3) 0.27047(7)
H32 H 0.0832 0.4799 0.2421
loop_
_geom_bond_atom_site_label_1
_geom_bond_atom_site_label_2
_geom_bond_site_symmetry_1
_geom_bond_site_symmetry_2
C1 O1 1_555 1_555
C2 C1 1_555 1_555
H1 C2 1_555 1_555
H2 C2 1_555 1_555
C3 C2 1_555 1_555
H3 C3 1_555 1_555
H4 C3 1_555 1_555
C4 C3 1_555 1_555
H5 C4 1_555 1_555
H6 C4 1_555 1_555
C5 C4 1_555 1_555
H7 C5 1_555 1_555
C6 C1 1_555 1_555
H8 C6 1_555 1_555
C7 C5 1_555 1_555
H9 C7 1_555 1_555
C8 C7 1_555 1_555
O2 C8 1_555 1_555
C9 C8 1_555 1_555
H10 C9 1_555 1_555
H11 C9 1_555 1_555
C10 C9 1_555 1_555
H12 C10 1_555 1_555
H13 C10 1_555 1_555
C11 C10 1_555 1_555
H14 C11 1_555 1_555
H15 C11 1_555 1_555
C12 C7 1_555 1_555
H16 C12 1_555 1_555
C13 C12 1_555 1_555
H17 C13 1_555 1_555
O3 H18 1_555 1_555
C14 C6 1_555 1_555
C15 C14 1_555 1_555
H19 C15 1_555 1_555
H20 C15 1_555 1_555
C16 C15 1_555 1_555
H21 C16 1_555 1_555
H22 C16 1_555 1_555
C17 C16 1_555 1_555
H23 C17 1_555 1_555
H24 C17 1_555 1_555
C18 C13 1_555 1_555
H25 C18 1_555 1_555
C19 C18 1_555 1_555
H26 C19 1_555 1_555
H27 C19 1_555 1_555
C20 C19 1_555 1_555
C21 C20 1_555 1_555
H28 C21 1_555 1_555
C22 C21 1_555 1_555
H29 C22 1_555 1_555
C23 C22 1_555 1_555
H30 C23 1_555 1_555
C24 C23 1_555 1_555
H31 C24 1_555 1_555
C25 C20 1_555 1_555
H32 C25 1_555 1_555
C5 C6 1_555 1_555
C11 C12 1_555 1_555
C13 C14 1_555 1_555
O3 C14 1_555 1_555
C17 C18 1_555 1_555
C24 C25 1_555 1_555

#END
