
#######################################################################
#
#                 Cambridge Crystallographic Data Centre
#                                CCDC 
#
#######################################################################
#
# If this CIF has been generated from an entry in the Cambridge 
# Structural Database, then it will include bibliographic, chemical, 
# crystal, experimental, refinement or atomic coordinate data resulting 
# from the CCDC's data processing and validation procedures.
#
#######################################################################

data_QEYVIZ
_chemical_formula_moiety         'C172 H120 O8 S4,2(C2 H6 O1 S1),7(C4 H10 O1)'
_chemical_name_systematic        
'2,10,12,20-Tetrathia-5^2^,5^3^,5^5^,5^6^,7^2^,7^3^,7^5^,7^6^,15^2^,15^3^,15^5^,15^6^,17^2^,17^3^,17^5^,17^6^-hexadecaphenyl-1,6,11,16(1,3),4,5,7,8,14,15,17,18(1,4)-dodecabenzenaicosaphane 2,2,10,10,12,12,20,20-octaoxide dimethylsulfoxide diethyl ether solvate'
_symmetry_cell_setting           monoclinic
_symmetry_space_group_name_H-M   'C 2/c'
_symmetry_Int_Tables_number      15
_space_group_name_Hall           '-C 2yn'
loop_
_symmetry_equiv_pos_site_id
_symmetry_equiv_pos_as_xyz
1 x,y,z
2 1/2+x,1/2+y,z
3 x,-y,1/2+z
4 1/2+x,1/2-y,1/2+z
5 -x,-y,-z
6 1/2-x,1/2-y,-z
7 -x,y,1/2-z
8 1/2-x,1/2+y,1/2-z
_cell_length_a                   49.754(7)
_cell_length_b                   11.6954(11)
_cell_length_c                   39.053(6)
_cell_angle_alpha                90
_cell_angle_beta                 129.320(3)
_cell_angle_gamma                90
_cell_volume                     17580.2
_exptl_crystal_colour            colorless
_exptl_crystal_description       plate
_chemical_melting_point          'above 350deg.C(dec)'
_cell_formula_units_Z            4
_exptl_crystal_recrystallization_method 'dmso/diethyl ether'
loop_
_atom_site_label
_atom_site_type_symbol
_atom_site_fract_x
_atom_site_fract_y
_atom_site_fract_z
S1 S -0.18349(4) 0.68614(11) 0.07081(5)
S2 S 0.27465(3) 0.52910(12) 0.08777(5)
O1 O -0.15978(8) 0.6309(3) 0.11408(11)
O2 O -0.21715(7) 0.7254(2) 0.05618(9)
O3 O 0.29805(7) 0.4974(3) 0.07932(10)
O4 O 0.27703(7) 0.6427(2) 0.10369(10)
C1 C 0.14043(12) 0.6399(3) 0.2229(2)
C2 C 0.10492(11) 0.6555(3) 0.19770(14)
H1 H 0.09053(11) 0.6557(3) 0.16632(14)
C3 C 0.09032(12) 0.6707(3) 0.2178(2)
C4 C 0.11202(15) 0.6706(3) 0.2642(2)
H2 H 0.10206(15) 0.6792(3) 0.2783(2)
C5 C 0.14757(12) 0.6580(3) 0.2898(2)
H3 H 0.16215(12) 0.6594(3) 0.3212(2)
C6 C 0.16144(11) 0.6435(3) 0.2685(2)
H4 H 0.18587(11) 0.6358(3) 0.2857(2)
C7 C 0.15716(9) 0.6091(4) 0.20279(14)
C8 C 0.17251(10) 0.5001(4) 0.21172(13)
C9 C 0.18893(10) 0.4715(3) 0.19416(14)
C10 C 0.19030(10) 0.5498(4) 0.16836(14)
C11 C 0.17421(10) 0.6564(4) 0.15821(13)
C12 C 0.15718(10) 0.6855(4) 0.17504(14)
C13 C 0.05164(12) 0.6942(4) 0.18988(15)
C14 C 0.04029(12) 0.7987(4) 0.19385(15)
C15 C 0.00516(13) 0.8222(4) 0.1694(2)
C16 C -0.01937(12) 0.7379(4) 0.1415(2)
C17 C -0.00841(13) 0.6326(4) 0.1369(2)
C18 C 0.02742(13) 0.6119(4) 0.1614(2)
C19 C 0.17346(13) 0.4191(3) 0.2422(2)
C20 C 0.14303(11) 0.3788(4) 0.2325(2)
H5 H 0.12112(11) 0.3964(4) 0.2050(2)
C21 C 0.14497(13) 0.3136(4) 0.2632(2)
H6 H 0.12399(13) 0.2878(4) 0.2565(2)
C22 C 0.17584(14) 0.2839(3) 0.3030(2)
H7 H 0.17623(14) 0.2387(3) 0.3236(2)
C23 C 0.20664(12) 0.3211(4) 0.3130(2)
H8 H 0.22844(12) 0.3007(4) 0.3402(2)
C24 C 0.20499(12) 0.3886(3) 0.2824(2)
H9 H 0.22597(12) 0.4146(3) 0.2892(2)
C25 C 0.20443(12) 0.3534(4) 0.20143(14)
C26 C 0.18212(11) 0.2604(4) 0.18150(14)
H10 H 0.15791(11) 0.2711(4) 0.16544(14)
C27 C 0.19488(13) 0.1512(4) 0.1848(2)
H11 H 0.17954(13) 0.0877(4) 0.1713(2)
C28 C 0.23030(14) 0.1365(4) 0.2082(2)
H12 H 0.23921(14) 0.0627(4) 0.2102(2)
C29 C 0.25248(12) 0.2282(4) 0.22822(15)
H13 H 0.27669(12) 0.2172(4) 0.24436(15)
C30 C 0.24006(12) 0.3352(4) 0.22520(13)
H14 H 0.25572(12) 0.3978(4) 0.23935(13)
C31 C 0.21174(12) 0.5202(4) 0.1545(2)
C32 C 0.20175(11) 0.4369(4) 0.12308(15)
H15 H 0.17977(11) 0.4008(4) 0.10765(15)
C33 C 0.22390(13) 0.4055(3) 0.11396(15)
H16 H 0.21645(13) 0.3497(3) 0.09189(15)
C34 C 0.25621(12) 0.4545(4) 0.1365(2)
C35 C 0.26648(11) 0.5375(4) 0.1685(2)
H17 H 0.28877(11) 0.5718(4) 0.1847(2)
C36 C 0.24419(13) 0.5697(3) 0.17659(14)
H18 H 0.25136(13) 0.6274(3) 0.19796(14)
C37 C 0.17510(12) 0.7370(4) 0.1296(2)
C38 C 0.15966(12) 0.7085(4) 0.0861(2)
H19 H 0.14800(12) 0.6373(4) 0.0747(2)
C39 C 0.16072(12) 0.7804(5) 0.0590(2)
H20 H 0.15014(12) 0.7580(5) 0.0295(2)
C40 C 0.17726(14) 0.8852(5) 0.0748(2)
H21 H 0.17732(14) 0.9364(5) 0.0560(2)
C41 C 0.19374(11) 0.9149(4) 0.1185(2)
H22 H 0.20595(11) 0.9853(4) 0.1301(2)
C42 C 0.19225(10) 0.8415(4) 0.1448(2)
H23 H 0.20335(10) 0.8632(4) 0.1745(2)
C43 C 0.14134(13) 0.8035(4) 0.1666(2)
C44 C 0.15534(12) 0.8825(5) 0.2004(2)
H24 H 0.17462(12) 0.8618(5) 0.2298(2)
C45 C 0.1416(2) 0.9910(5) 0.1917(3)
H25 H 0.1516(2) 1.0452(5) 0.2150(3)
C46 C 0.1137(2) 1.0199(6) 0.1499(3)
H26 H 0.1045(2) 1.0950(6) 0.1442(3)
C47 C 0.0985(2) 0.9442(7) 0.1157(3)
H27 H 0.0786(2) 0.9656(7) 0.0867(3)
C48 C 0.11285(14) 0.8331(5) 0.1241(2)
H28 H 0.10292(14) 0.7794(5) 0.1007(2)
C49 C 0.06601(12) 0.8853(4) 0.2263(2)
C50 C 0.08681(13) 0.9450(4) 0.2208(2)
H29 H 0.08419(13) 0.9336(4) 0.1948(2)
C51 C 0.11161(13) 1.0217(4) 0.2527(2)
H30 H 0.12577(13) 1.0609(4) 0.2480(2)
C52 C 0.11625(13) 1.0426(4) 0.2908(2)
H31 H 0.13358(13) 1.0944(4) 0.3125(2)
C53 C 0.0950(2) 0.9859(5) 0.2968(2)
H32 H 0.0970(2) 0.9997(5) 0.3223(2)
C54 C 0.07042(14) 0.9077(5) 0.2643(2)
H33 H 0.05613(14) 0.8683(5) 0.2687(2)
C55 C -0.00755(10) 0.9396(4) 0.1689(2)
C56 C -0.00914(13) 1.0216(6) 0.1433(2)
H34 H -0.00272(13) 1.0043(6) 0.1256(2)
C57 C -0.02017(15) 1.1319(6) 0.1428(2)
H35 H -0.02081(15) 1.1890(6) 0.1250(2)
C58 C -0.02980(14) 1.1585(5) 0.1668(2)
H36 H -0.03725(14) 1.2340(5) 0.1660(2)
C59 C -0.0289(2) 1.0772(7) 0.1923(2)
H37 H -0.0356(2) 1.0951(7) 0.2097(2)
C60 C -0.0180(2) 0.9668(5) 0.1926(2)
H38 H -0.0180(2) 0.9093(5) 0.2098(2)
C61 C -0.05685(12) 0.7535(3) 0.1205(2)
C62 C -0.08274(15) 0.7783(4) 0.0769(2)
H39 H -0.07716(15) 0.7855(4) 0.0578(2)
C63 C -0.11770(13) 0.7937(4) 0.0592(2)
H40 H -0.13523(13) 0.8102(4) 0.0286(2)
C64 C -0.12586(12) 0.7849(4) 0.0861(2)
C65 C -0.0998(2) 0.7589(4) 0.1301(2)
H41 H -0.1052(2) 0.7516(4) 0.1494(2)
C66 C -0.06632(13) 0.7434(4) 0.1463(2)
H42 H -0.04903(13) 0.7249(4) 0.1767(2)
C67 C -0.03521(13) 0.5434(5) 0.1056(2)
C68 C -0.0491(2) 0.4747(5) 0.1182(2)
H43 H -0.0419(2) 0.4832(5) 0.1472(2)
C69 C -0.0739(2) 0.3907(6) 0.0902(3)
H44 H -0.0845(2) 0.3456(6) 0.0990(3)
C70 C -0.0821(2) 0.3767(7) 0.0495(4)
H45 H -0.0980(2) 0.3181(7) 0.0304(4)
C71 C -0.0689(2) 0.4406(10) 0.0361(3)
H46 H -0.0753(2) 0.4304(10) 0.0077(3)
C72 C -0.0454(2) 0.5239(7) 0.0647(3)
H47 H -0.0357(2) 0.5705(7) 0.0551(3)
C73 C 0.03788(11) 0.4928(5) 0.1588(2)
C74 C 0.04494(12) 0.4101(6) 0.1888(2)
H48 H 0.04466(12) 0.4309(6) 0.2121(2)
C75 C 0.05240(14) 0.2980(6) 0.1861(3)
H49 H 0.05694(14) 0.2425(6) 0.2070(3)
C76 C 0.0531(2) 0.2686(8) 0.1528(4)
H50 H 0.0578(2) 0.1916(8) 0.1504(4)
C77 C 0.0472(2) 0.3474(9) 0.1230(3)
H51 H 0.0486(2) 0.3271(9) 0.1007(3)
C78 C 0.03878(13) 0.4608(6) 0.1262(2)
H52 H 0.03364(13) 0.5158(6) 0.1049(2)
C79 C 0.27976(11) 0.4269(3) 0.12568(14)
H53 H 0.30422(11) 0.4269(3) 0.15327(14)
H54 H 0.27426(11) 0.3495(3) 0.11251(14)
C80 C -0.16272(11) 0.8054(3) 0.06811(15)
H55 H -0.17671(11) 0.8295(3) 0.03681(15)
H56 H -0.16267(11) 0.8695(3) 0.08469(15)
C81 C -0.19083(15) 0.5887(4) 0.0311(2)
C82 C -0.22522(14) 0.5745(4) -0.0083(2)
H57 H -0.24353(14) 0.6201(4) -0.0141(2)
C83 C 0.23173(11) 0.5081(4) 0.0385(2)
C84 C 0.2049(2) 0.5709(4) 0.0304(2)
H58 H 0.2095(2) 0.6257(4) 0.0516(2)
C85 C 0.1713(2) 0.5553(5) -0.0080(2)
H59 H 0.1529(2) 0.5985(5) -0.0128(2)
C86 C -0.16411(12) 0.5214(4) 0.0390(2)
H60 H -0.14104(12) 0.5293(4) 0.0659(2)
C82D C 0.22522(14) 0.4255(4) 0.0083(2)
C81D C 0.19083(15) 0.4113(4) -0.0311(2)
S1D S 0.18349(4) 0.31386(11) -0.07081(5)
O1D O 0.15978(8) 0.3691(3) -0.11408(11)
O2D O 0.21715(7) 0.2746(2) -0.05618(9)
C80D C 0.16272(11) 0.1946(3) -0.06811(15)
C64D C 0.12586(12) 0.2151(4) -0.0861(2)
C63D C 0.11770(13) 0.2063(4) -0.0592(2)
C62D C 0.08274(15) 0.2217(4) -0.0769(2)
C61D C 0.05685(12) 0.2465(3) -0.1205(2)
C16D C 0.01937(12) 0.2621(4) -0.1415(2)
C15D C -0.00516(13) 0.1778(4) -0.1694(2)
C14D C -0.04029(12) 0.2013(4) -0.19385(15)
C13D C -0.05164(12) 0.3058(4) -0.18988(15)
C3D C -0.09032(12) 0.3293(3) -0.2178(2)
C2D C -0.10492(11) 0.3445(3) -0.19770(14)
C1D C -0.14043(12) 0.3601(3) -0.2229(2)
C6D C -0.16144(11) 0.3565(3) -0.2685(2)
C5D C -0.14757(12) 0.3420(3) -0.2898(2)
C4D C -0.11202(15) 0.3294(3) -0.2642(2)
H2D H -0.10206(15) 0.3208(3) -0.2783(2)
H3D H -0.16215(12) 0.3406(3) -0.3212(2)
H4D H -0.18587(11) 0.3642(3) -0.2857(2)
C7D C -0.15716(9) 0.3909(4) -0.20279(14)
C8D C -0.17251(10) 0.4999(4) -0.21172(13)
C9D C -0.18893(10) 0.5285(3) -0.19416(14)
C10D C -0.19030(10) 0.4502(4) -0.16836(14)
C11D C -0.17421(10) 0.3436(4) -0.15821(13)
C12D C -0.15718(10) 0.3145(4) -0.17504(14)
C43D C -0.14134(13) 0.1965(4) -0.1666(2)
C44D C -0.15534(12) 0.1175(5) -0.2004(2)
H24D H -0.17462(12) 0.1382(5) -0.2298(2)
C45D C -0.1416(2) 0.0090(5) -0.1917(3)
H25D H -0.1516(2) -0.0452(5) -0.2150(3)
C46D C -0.1137(2) -0.0199(6) -0.1499(3)
H26D H -0.1045(2) -0.0950(6) -0.1442(3)
C47D C -0.0985(2) 0.0558(7) -0.1157(3)
H27D H -0.0786(2) 0.0344(7) -0.0867(3)
C48D C -0.11285(14) 0.1669(5) -0.1241(2)
H28D H -0.10292(14) 0.2206(5) -0.1007(2)
C37D C -0.17510(12) 0.2630(4) -0.1296(2)
C38D C -0.15966(12) 0.2915(4) -0.0861(2)
H19D H -0.14800(12) 0.3627(4) -0.0747(2)
C39D C -0.16072(12) 0.2196(5) -0.0590(2)
H20D H -0.15014(12) 0.2420(5) -0.0295(2)
C40D C -0.17726(14) 0.1148(5) -0.0748(2)
H21D H -0.17732(14) 0.0636(5) -0.0560(2)
C41D C -0.19374(11) 0.0851(4) -0.1185(2)
H22D H -0.20595(11) 0.0147(4) -0.1301(2)
C42D C -0.19225(10) 0.1585(4) -0.1448(2)
H23D H -0.20335(10) 0.1368(4) -0.1745(2)
C31D C -0.21174(12) 0.4798(4) -0.1545(2)
C32D C -0.20175(11) 0.5631(4) -0.12308(15)
H15D H -0.17977(11) 0.5992(4) -0.10765(15)
C33D C -0.22390(13) 0.5945(3) -0.11396(15)
H16D H -0.21645(13) 0.6503(3) -0.09189(15)
C34D C -0.25621(12) 0.5455(4) -0.1365(2)
C35D C -0.26648(11) 0.4625(4) -0.1685(2)
H17D H -0.28877(11) 0.4282(4) -0.1847(2)
C36D C -0.24419(13) 0.4303(3) -0.17659(14)
H18D H -0.25136(13) 0.3726(3) -0.19796(14)
C79D C -0.27976(11) 0.5731(3) -0.12568(14)
S2D S -0.27465(3) 0.47090(12) -0.08777(5)
O3D O -0.29805(7) 0.5026(3) -0.07932(10)
O4D O -0.27703(7) 0.3573(2) -0.10369(10)
C83D C -0.23173(11) 0.4919(4) -0.0385(2)
C85D C -0.1713(2) 0.4447(5) 0.0080(2)
C84D C -0.2049(2) 0.4291(4) -0.0304(2)
H58D H -0.2095(2) 0.3743(4) -0.0516(2)
H59D H -0.1529(2) 0.4015(5) 0.0128(2)
H53D H -0.30422(11) 0.5731(3) -0.15327(14)
H54D H -0.27426(11) 0.6505(3) -0.11251(14)
C25D C -0.20443(12) 0.6466(4) -0.20143(14)
C26D C -0.18212(11) 0.7396(4) -0.18150(14)
H10D H -0.15791(11) 0.7289(4) -0.16544(14)
C27D C -0.19488(13) 0.8488(4) -0.1848(2)
H11D H -0.17954(13) 0.9123(4) -0.1713(2)
C28D C -0.23030(14) 0.8635(4) -0.2082(2)
H12D H -0.23921(14) 0.9373(4) -0.2102(2)
C29D C -0.25248(12) 0.7718(4) -0.22822(15)
H13D H -0.27669(12) 0.7828(4) -0.24436(15)
C30D C -0.24006(12) 0.6648(4) -0.22520(13)
H14D H -0.25572(12) 0.6022(4) -0.23935(13)
C19D C -0.17346(13) 0.5809(3) -0.2422(2)
C20D C -0.14303(11) 0.6212(4) -0.2325(2)
H5D H -0.12112(11) 0.6036(4) -0.2050(2)
C21D C -0.14497(13) 0.6864(4) -0.2632(2)
H6D H -0.12399(13) 0.7122(4) -0.2565(2)
C22D C -0.17584(14) 0.7161(3) -0.3030(2)
H7D H -0.17623(14) 0.7613(3) -0.3236(2)
C23D C -0.20664(12) 0.6789(4) -0.3130(2)
H8D H -0.22844(12) 0.6993(4) -0.3402(2)
C24D C -0.20499(12) 0.6114(3) -0.2824(2)
H9D H -0.22597(12) 0.5854(3) -0.2892(2)
H1D H -0.09053(11) 0.3443(3) -0.16632(14)
C18D C -0.02742(13) 0.3881(4) -0.1614(2)
C17D C 0.00841(13) 0.3674(4) -0.1369(2)
C67D C 0.03521(13) 0.4566(5) -0.1056(2)
C68D C 0.0491(2) 0.5253(5) -0.1182(2)
H43D H 0.0419(2) 0.5168(5) -0.1472(2)
C69D C 0.0739(2) 0.6093(6) -0.0902(3)
H44D H 0.0845(2) 0.6544(6) -0.0990(3)
C70D C 0.0821(2) 0.6233(7) -0.0495(4)
H45D H 0.0980(2) 0.6819(7) -0.0304(4)
C71D C 0.0689(2) 0.5594(10) -0.0361(3)
H46D H 0.0753(2) 0.5696(10) -0.0077(3)
C72D C 0.0454(2) 0.4761(7) -0.0647(3)
H47D H 0.0357(2) 0.4295(7) -0.0551(3)
C73D C -0.03788(11) 0.5072(5) -0.1588(2)
C74D C -0.04494(12) 0.5899(6) -0.1888(2)
H48D H -0.04466(12) 0.5691(6) -0.2121(2)
C75D C -0.05240(14) 0.7020(6) -0.1861(3)
H49D H -0.05694(14) 0.7575(6) -0.2070(3)
C76D C -0.0531(2) 0.7314(8) -0.1528(4)
H50D H -0.0578(2) 0.8084(8) -0.1504(4)
C77D C -0.0472(2) 0.6526(9) -0.1230(3)
H51D H -0.0486(2) 0.6729(9) -0.1007(3)
C78D C -0.03878(13) 0.5392(6) -0.1262(2)
H52D H -0.03364(13) 0.4842(6) -0.1049(2)
C49D C -0.06601(12) 0.1147(4) -0.2263(2)
C50D C -0.08681(13) 0.0550(4) -0.2208(2)
H29D H -0.08419(13) 0.0664(4) -0.1948(2)
C51D C -0.11161(13) -0.0217(4) -0.2527(2)
H30D H -0.12577(13) -0.0609(4) -0.2480(2)
C52D C -0.11625(13) -0.0426(4) -0.2908(2)
H31D H -0.13358(13) -0.0944(4) -0.3125(2)
C53D C -0.0950(2) 0.0141(5) -0.2968(2)
H32D H -0.0970(2) 0.0003(5) -0.3223(2)
C54D C -0.07042(14) 0.0923(5) -0.2643(2)
H33D H -0.05613(14) 0.1317(5) -0.2687(2)
C55D C 0.00755(10) 0.0604(4) -0.1689(2)
C56D C 0.00914(13) -0.0216(6) -0.1433(2)
H34D H 0.00272(13) -0.0043(6) -0.1256(2)
C57D C 0.02017(15) -0.1319(6) -0.1428(2)
H35D H 0.02081(15) -0.1890(6) -0.1250(2)
C58D C 0.02980(14) -0.1585(5) -0.1668(2)
H36D H 0.03725(14) -0.2340(5) -0.1660(2)
C59D C 0.0289(2) -0.0772(7) -0.1923(2)
H37D H 0.0356(2) -0.0951(7) -0.2097(2)
C60D C 0.0180(2) 0.0332(5) -0.1926(2)
H38D H 0.0180(2) 0.0907(5) -0.2098(2)
C66D C 0.06632(13) 0.2566(4) -0.1463(2)
C65D C 0.0998(2) 0.2411(4) -0.1301(2)
H41D H 0.1052(2) 0.2484(4) -0.1494(2)
H42D H 0.04903(13) 0.2751(4) -0.1767(2)
H39D H 0.07716(15) 0.2145(4) -0.0578(2)
H40D H 0.13523(13) 0.1898(4) -0.0286(2)
H55D H 0.17671(11) 0.1705(3) -0.03681(15)
H56D H 0.16267(11) 0.1305(3) -0.08469(15)
C86D C 0.16411(12) 0.4786(4) -0.0390(2)
H60D H 0.14104(12) 0.4707(4) -0.0659(2)
H57D H 0.24353(14) 0.3799(4) 0.0141(2)
loop_
_geom_bond_atom_site_label_1
_geom_bond_atom_site_label_2
_geom_bond_site_symmetry_1
_geom_bond_site_symmetry_2
S1 O1 1_555 1_555
S2 O3 1_555 1_555
O2 S1 1_555 1_555
O4 S2 1_555 1_555
C1 C2 1_555 1_555
C2 H1 1_555 1_555
C3 C2 1_555 1_555
C4 C3 1_555 1_555
H2 C4 1_555 1_555
C5 C4 1_555 1_555
H3 C5 1_555 1_555
C6 C1 1_555 1_555
H4 C6 1_555 1_555
C7 C1 1_555 1_555
C8 C7 1_555 1_555
C9 C8 1_555 1_555
C10 C9 1_555 1_555
C11 C10 1_555 1_555
C12 C7 1_555 1_555
C13 C3 1_555 1_555
C14 C13 1_555 1_555
C15 C14 1_555 1_555
C16 C15 1_555 1_555
C17 C16 1_555 1_555
C18 C13 1_555 1_555
C19 C8 1_555 1_555
C20 C19 1_555 1_555
H5 C20 1_555 1_555
C21 C20 1_555 1_555
H6 C21 1_555 1_555
C22 C21 1_555 1_555
H7 C22 1_555 1_555
C23 C22 1_555 1_555
H8 C23 1_555 1_555
C24 C19 1_555 1_555
H9 C24 1_555 1_555
C25 C9 1_555 1_555
C26 C25 1_555 1_555
H10 C26 1_555 1_555
C27 C26 1_555 1_555
H11 C27 1_555 1_555
C28 C27 1_555 1_555
H12 C28 1_555 1_555
C29 C28 1_555 1_555
H13 C29 1_555 1_555
C30 C25 1_555 1_555
H14 C30 1_555 1_555
C31 C10 1_555 1_555
C32 C31 1_555 1_555
H15 C32 1_555 1_555
C33 C32 1_555 1_555
H16 C33 1_555 1_555
C34 C33 1_555 1_555
C35 C34 1_555 1_555
H17 C35 1_555 1_555
C36 C31 1_555 1_555
H18 C36 1_555 1_555
C37 C11 1_555 1_555
C38 C37 1_555 1_555
H19 C38 1_555 1_555
C39 C38 1_555 1_555
H20 C39 1_555 1_555
C40 C39 1_555 1_555
H21 C40 1_555 1_555
C41 C40 1_555 1_555
H22 C41 1_555 1_555
C42 C37 1_555 1_555
H23 C42 1_555 1_555
C43 C12 1_555 1_555
C44 C43 1_555 1_555
H24 C44 1_555 1_555
C45 C44 1_555 1_555
H25 C45 1_555 1_555
C46 C45 1_555 1_555
H26 C46 1_555 1_555
C47 C46 1_555 1_555
H27 C47 1_555 1_555
C48 C43 1_555 1_555
H28 C48 1_555 1_555
C49 C14 1_555 1_555
C50 C49 1_555 1_555
H29 C50 1_555 1_555
C51 C50 1_555 1_555
H30 C51 1_555 1_555
C52 C51 1_555 1_555
H31 C52 1_555 1_555
C53 C52 1_555 1_555
H32 C53 1_555 1_555
C54 C49 1_555 1_555
H33 C54 1_555 1_555
C55 C15 1_555 1_555
C56 C55 1_555 1_555
H34 C56 1_555 1_555
C57 C56 1_555 1_555
H35 C57 1_555 1_555
C58 C57 1_555 1_555
H36 C58 1_555 1_555
C59 C58 1_555 1_555
H37 C59 1_555 1_555
C60 C55 1_555 1_555
H38 C60 1_555 1_555
C61 C16 1_555 1_555
C62 C61 1_555 1_555
H39 C62 1_555 1_555
C63 C62 1_555 1_555
H40 C63 1_555 1_555
C64 C63 1_555 1_555
C65 C64 1_555 1_555
H41 C65 1_555 1_555
C66 C61 1_555 1_555
H42 C66 1_555 1_555
C67 C17 1_555 1_555
C68 C67 1_555 1_555
H43 C68 1_555 1_555
C69 C68 1_555 1_555
H44 C69 1_555 1_555
C70 C69 1_555 1_555
H45 C70 1_555 1_555
C71 C70 1_555 1_555
H46 C71 1_555 1_555
C72 C67 1_555 1_555
H47 C72 1_555 1_555
C73 C18 1_555 1_555
C74 C73 1_555 1_555
H48 C74 1_555 1_555
C75 C74 1_555 1_555
H49 C75 1_555 1_555
C76 C75 1_555 1_555
H50 C76 1_555 1_555
C77 C76 1_555 1_555
H51 C77 1_555 1_555
C78 C73 1_555 1_555
H52 C78 1_555 1_555
C79 S2 1_555 1_555
H53 C79 1_555 1_555
H54 C79 1_555 1_555
C80 S1 1_555 1_555
H55 C80 1_555 1_555
H56 C80 1_555 1_555
C81 S1 1_555 1_555
C82 C81 1_555 1_555
H57 C82 1_555 1_555
C83 S2 1_555 1_555
C84 C83 1_555 1_555
H58 C84 1_555 1_555
C85 C84 1_555 1_555
H59 C85 1_555 1_555
C86 C81 1_555 1_555
H60 C86 1_555 1_555
C82D C83 1_555 1_555
C81D C82D 1_555 1_555
S1D C81D 1_555 1_555
O1D S1D 1_555 1_555
O2D S1D 1_555 1_555
C80D S1D 1_555 1_555
C64D C80D 1_555 1_555
C63D C64D 1_555 1_555
C62D C63D 1_555 1_555
C61D C62D 1_555 1_555
C16D C61D 1_555 1_555
C15D C16D 1_555 1_555
C14D C15D 1_555 1_555
C13D C14D 1_555 1_555
C3D C13D 1_555 1_555
C2D C3D 1_555 1_555
C1D C2D 1_555 1_555
C6D C1D 1_555 1_555
C5D C6D 1_555 1_555
C4D C3D 1_555 1_555
H2D C4D 1_555 1_555
H3D C5D 1_555 1_555
H4D C6D 1_555 1_555
C7D C1D 1_555 1_555
C8D C7D 1_555 1_555
C9D C8D 1_555 1_555
C10D C9D 1_555 1_555
C11D C10D 1_555 1_555
C12D C7D 1_555 1_555
C43D C12D 1_555 1_555
C44D C43D 1_555 1_555
H24D C44D 1_555 1_555
C45D C44D 1_555 1_555
H25D C45D 1_555 1_555
C46D C45D 1_555 1_555
H26D C46D 1_555 1_555
C47D C46D 1_555 1_555
H27D C47D 1_555 1_555
C48D C43D 1_555 1_555
H28D C48D 1_555 1_555
C37D C11D 1_555 1_555
C38D C37D 1_555 1_555
H19D C38D 1_555 1_555
C39D C38D 1_555 1_555
H20D C39D 1_555 1_555
C40D C39D 1_555 1_555
H21D C40D 1_555 1_555
C41D C40D 1_555 1_555
H22D C41D 1_555 1_555
C42D C37D 1_555 1_555
H23D C42D 1_555 1_555
C31D C10D 1_555 1_555
C32D C31D 1_555 1_555
H15D C32D 1_555 1_555
C33D C32D 1_555 1_555
H16D C33D 1_555 1_555
C34D C33D 1_555 1_555
C35D C34D 1_555 1_555
H17D C35D 1_555 1_555
C36D C31D 1_555 1_555
H18D C36D 1_555 1_555
C79D C34D 1_555 1_555
S2D C79D 1_555 1_555
O3D S2D 1_555 1_555
O4D S2D 1_555 1_555
C83D C82 1_555 1_555
C85D C86 1_555 1_555
C84D C83D 1_555 1_555
H58D C84D 1_555 1_555
H59D C85D 1_555 1_555
H53D C79D 1_555 1_555
H54D C79D 1_555 1_555
C25D C9D 1_555 1_555
C26D C25D 1_555 1_555
H10D C26D 1_555 1_555
C27D C26D 1_555 1_555
H11D C27D 1_555 1_555
C28D C27D 1_555 1_555
H12D C28D 1_555 1_555
C29D C28D 1_555 1_555
H13D C29D 1_555 1_555
C30D C25D 1_555 1_555
H14D C30D 1_555 1_555
C19D C8D 1_555 1_555
C20D C19D 1_555 1_555
H5D C20D 1_555 1_555
C21D C20D 1_555 1_555
H6D C21D 1_555 1_555
C22D C21D 1_555 1_555
H7D C22D 1_555 1_555
C23D C22D 1_555 1_555
H8D C23D 1_555 1_555
C24D C19D 1_555 1_555
H9D C24D 1_555 1_555
H1D C2D 1_555 1_555
C18D C13D 1_555 1_555
C17D C16D 1_555 1_555
C67D C17D 1_555 1_555
C68D C67D 1_555 1_555
H43D C68D 1_555 1_555
C69D C68D 1_555 1_555
H44D C69D 1_555 1_555
C70D C69D 1_555 1_555
H45D C70D 1_555 1_555
C71D C70D 1_555 1_555
H46D C71D 1_555 1_555
C72D C67D 1_555 1_555
H47D C72D 1_555 1_555
C73D C18D 1_555 1_555
C74D C73D 1_555 1_555
H48D C74D 1_555 1_555
C75D C74D 1_555 1_555
H49D C75D 1_555 1_555
C76D C75D 1_555 1_555
H50D C76D 1_555 1_555
C77D C76D 1_555 1_555
H51D C77D 1_555 1_555
C78D C73D 1_555 1_555
H52D C78D 1_555 1_555
C49D C14D 1_555 1_555
C50D C49D 1_555 1_555
H29D C50D 1_555 1_555
C51D C50D 1_555 1_555
H30D C51D 1_555 1_555
C52D C51D 1_555 1_555
H31D C52D 1_555 1_555
C53D C52D 1_555 1_555
H32D C53D 1_555 1_555
C54D C49D 1_555 1_555
H33D C54D 1_555 1_555
C55D C15D 1_555 1_555
C56D C55D 1_555 1_555
H34D C56D 1_555 1_555
C57D C56D 1_555 1_555
H35D C57D 1_555 1_555
C58D C57D 1_555 1_555
H36D C58D 1_555 1_555
C59D C58D 1_555 1_555
H37D C59D 1_555 1_555
C60D C55D 1_555 1_555
H38D C60D 1_555 1_555
C66D C61D 1_555 1_555
C65D C64D 1_555 1_555
H41D C65D 1_555 1_555
H42D C66D 1_555 1_555
H39D C62D 1_555 1_555
H40D C63D 1_555 1_555
H55D C80D 1_555 1_555
H56D C80D 1_555 1_555
C86D C85 1_555 1_555
H60D C86D 1_555 1_555
H57D C82D 1_555 1_555
C5 C6 1_555 1_555
C11 C12 1_555 1_555
C17 C18 1_555 1_555
C23 C24 1_555 1_555
C29 C30 1_555 1_555
C34 C79 1_555 1_555
C35 C36 1_555 1_555
C41 C42 1_555 1_555
C47 C48 1_555 1_555
C53 C54 1_555 1_555
C59 C60 1_555 1_555
C64 C80 1_555 1_555
C65 C66 1_555 1_555
C71 C72 1_555 1_555
C77 C78 1_555 1_555
C81D C86D 1_555 1_555
C5D C4D 1_555 1_555
C11D C12D 1_555 1_555
C47D C48D 1_555 1_555
C41D C42D 1_555 1_555
C35D C36D 1_555 1_555
S2D C83D 1_555 1_555
C85D C84D 1_555 1_555
C29D C30D 1_555 1_555
C23D C24D 1_555 1_555
C18D C17D 1_555 1_555
C71D C72D 1_555 1_555
C77D C78D 1_555 1_555
C53D C54D 1_555 1_555
C59D C60D 1_555 1_555
C66D C65D 1_555 1_555

#END
