
#######################################################################
#
#                 Cambridge Crystallographic Data Centre
#                                CCDC 
#
#######################################################################
#
# If this CIF has been generated from an entry in the Cambridge 
# Structural Database, then it will include bibliographic, chemical, 
# crystal, experimental, refinement or atomic coordinate data resulting 
# from the CCDC's data processing and validation procedures.
#
#######################################################################

data_QEYVAR
_chemical_formula_moiety         'C18 H26 O6 S6'
_chemical_name_systematic        
1^3',4'^-bis(Hydroxymethyl)-(5,8,11,14-tetraoxa-1^2,2',5,5'^,2,17-hexathia-1(3,4)-bicyclopent-3-en-1-ylidena)cycloheptadecane
_symmetry_cell_setting           monoclinic
_symmetry_space_group_name_H-M   'P 21/c'
_symmetry_Int_Tables_number      14
_space_group_name_Hall           '-P 2ybc'
loop_
_symmetry_equiv_pos_site_id
_symmetry_equiv_pos_as_xyz
1 x,y,z
2 x,1/2-y,1/2+z
3 -x,-y,-z
4 -x,1/2+y,1/2-z
_cell_length_a                   12.517(3)
_cell_length_b                   10.073(3)
_cell_length_c                   20.220(4)
_cell_angle_alpha                90
_cell_angle_beta                 107.14(2)
_cell_angle_gamma                90
_cell_volume                     2436.19
_exptl_crystal_colour            orange
_exptl_crystal_description       block
_chemical_melting_point          421-422K
_cell_formula_units_Z            4
_exptl_crystal_recrystallization_method acetone
loop_
_atom_site_label
_atom_site_type_symbol
_atom_site_fract_x
_atom_site_fract_y
_atom_site_fract_z
S1 S 0.80836(12) 0.25134(18) 0.48987(8)
S2 S 0.88820(12) 0.44732(17) 0.60275(8)
S3 S 0.55966(11) 0.27020(17) 0.50255(8)
S4 S 0.63223(12) 0.47234(16) 0.61312(8)
S5 S 0.32373(12) 0.26442(18) 0.51044(9)
S6 S 0.40772(15) 0.46468(19) 0.64338(11)
O1 O 0.9640(5) 0.2155(6) 0.4046(3)
H1 H 0.9477 0.2902 0.3887
O3 O 1.1121(3) 0.5299(4) 0.6461(2)
H3 H 1.1145 0.4967 0.6840
O4 O 0.3671(4) 0.5934(5) 0.7628(2)
O5 O 0.1822(4) 0.4540(6) 0.7855(2)
O6 O 0.1640(5) 0.1907(6) 0.7329(3)
O7 O 0.2388(4) 0.0945(5) 0.6181(3)
C1 C 0.7755(4) 0.3563(6) 0.5507(3)
C2 C 0.9523(4) 0.2907(6) 0.5161(3)
C3 C 0.9885(4) 0.3778(6) 0.5677(3)
C4 C 0.6703(4) 0.3649(6) 0.5550(3)
C5 C 0.4611(4) 0.3218(6) 0.5436(3)
C6 C 0.4938(4) 0.4121(6) 0.5947(3)
C7 C 1.0205(5) 0.2240(7) 0.4755(3)
H4 H 1.0883 0.2733 0.4818
H5 H 1.0404 0.1361 0.4931
C8 C 1.1071(4) 0.4242(6) 0.5988(3)
H7 H 1.1534 0.3506 0.6217
H8 H 1.1361 0.4558 0.5622
C9 C 0.4747(5) 0.6128(7) 0.6848(3)
H9 H 0.5437 0.5911 0.7201
H10 H 0.4922 0.6705 0.6510
C10 C 0.3954(6) 0.6826(7) 0.7171(4)
H11 H 0.4307 0.7612 0.7418
H12 H 0.3285 0.7097 0.6814
C11 C 0.2914(8) 0.6484(9) 0.7953(5)
H13 H 0.2283 0.6878 0.7609
H14 H 0.3287 0.7176 0.8271
C12 C 0.2532(8) 0.5435(10) 0.8330(4)
H15 H 0.3165 0.4959 0.8628
H16 H 0.2122 0.5835 0.8618
C13 C 0.1530(7) 0.3428(9) 0.8187(4)
H17 H 0.1067 0.3715 0.8469
H18 H 0.2199 0.3017 0.8487
C14 C 0.0906(7) 0.2453(8) 0.7666(4)
H19 H 0.0607 0.1755 0.7890
H20 H 0.0287 0.2889 0.7332
C15 C 0.1224(7) 0.0801(9) 0.6920(4)
H21 H 0.0617 0.1056 0.6518
H22 H 0.0940 0.0159 0.7184
C16 C 0.2149(7) 0.0205(8) 0.6698(4)
H23 H 0.2811 0.0149 0.7094
H24 H 0.1944 -0.0689 0.6531
C17 C 0.3433(6) 0.0606(7) 0.6068(4)
H25 H 0.3595 -0.0328 0.6162
H26 H 0.4031 0.1120 0.6376
C18 C 0.3373(6) 0.0910(7) 0.5336(4)
H27 H 0.2734 0.0440 0.5038
H28 H 0.4037 0.0562 0.5243
O2? O 1.0440(16) 0.0950(19) 0.4860(11)
H2? H 1.0796 0.0829 0.5266
H6? H 0.9807 0.2334 0.4273
loop_
_geom_bond_atom_site_label_1
_geom_bond_atom_site_label_2
_geom_bond_site_symmetry_1
_geom_bond_site_symmetry_2
S1 C1 1_555 1_555
S2 C1 1_555 1_555
S3 C4 1_555 1_555
S4 C4 1_555 1_555
S5 C5 1_555 1_555
S6 C6 1_555 1_555
O1 H1 1_555 1_555
O3 H3 1_555 1_555
O4 C10 1_555 1_555
O5 C12 1_555 1_555
O6 C14 1_555 1_555
O7 C16 1_555 1_555
C1 C4 1_555 1_555
C2 S1 1_555 1_555
C3 S2 1_555 1_555
C5 S3 1_555 1_555
C6 S4 1_555 1_555
C7 O1 1_555 1_555
H4 C7 1_555 1_555
H5 C7 1_555 1_555
C8 O3 1_555 1_555
H7 C8 1_555 1_555
H8 C8 1_555 1_555
C9 S6 1_555 1_555
H9 C9 1_555 1_555
H10 C9 1_555 1_555
C10 C9 1_555 1_555
H11 C10 1_555 1_555
H12 C10 1_555 1_555
C11 O4 1_555 1_555
H13 C11 1_555 1_555
H14 C11 1_555 1_555
C12 C11 1_555 1_555
H15 C12 1_555 1_555
H16 C12 1_555 1_555
C13 O5 1_555 1_555
H17 C13 1_555 1_555
H18 C13 1_555 1_555
C14 C13 1_555 1_555
H19 C14 1_555 1_555
H20 C14 1_555 1_555
C15 O6 1_555 1_555
H21 C15 1_555 1_555
H22 C15 1_555 1_555
C16 C15 1_555 1_555
H23 C16 1_555 1_555
H24 C16 1_555 1_555
C17 O7 1_555 1_555
H25 C17 1_555 1_555
H26 C17 1_555 1_555
C18 S5 1_555 1_555
H27 C18 1_555 1_555
H28 C18 1_555 1_555
C2 C3 1_555 1_555
C2 C7 1_555 1_555
C3 C8 1_555 1_555
C5 C6 1_555 1_555
C17 C18 1_555 1_555

#END
