
#######################################################################
#
#                 Cambridge Crystallographic Data Centre
#                                CCDC 
#
#######################################################################
#
# If this CIF has been generated from an entry in the Cambridge 
# Structural Database, then it will include bibliographic, chemical, 
# crystal, experimental, refinement or atomic coordinate data resulting 
# from the CCDC's data processing and validation procedures.
#
#######################################################################

data_QEYZIG
_chemical_formula_moiety         'C32 H22 O8'
_chemical_name_systematic        
"diethyl 2,2'-dioxo-2H,2'H-[10,10'-binaphtho[2,3-b]pyran]-3,3'-dicarboxylate"
_symmetry_cell_setting           triclinic
_symmetry_space_group_name_H-M   'P 1'
_symmetry_Int_Tables_number      1
_space_group_name_Hall           'P 1'
loop_
_symmetry_equiv_pos_site_id
_symmetry_equiv_pos_as_xyz
1 x,y,z
_cell_length_a                   12.7039(6)
_cell_length_b                   13.6838(11)
_cell_length_c                   20.0466(13)
_cell_angle_alpha                71.882(7)
_cell_angle_beta                 78.624(5)
_cell_angle_gamma                75.444(6)
_cell_volume                     3178.78
_cell_formula_units_Z            4
_exptl_crystal_preparation       Luminescent
loop_
_atom_site_label
_atom_site_type_symbol
_atom_site_fract_x
_atom_site_fract_y
_atom_site_fract_z
O1 O 1.0887(3) 0.8213(2) 0.11354(14)
O2 O 0.9291(4) 0.9296(3) 0.1090(2)
O3 O 0.9065(6) 1.1026(5) -0.0102(3)
O4 O 1.0245(5) 1.0850(4) -0.0986(2)
O5 O 1.1690(3) 0.5143(2) 0.14855(14)
O6 O 1.1443(3) 0.4049(3) 0.09714(18)
O7 O 0.9681(4) 0.2519(4) 0.2814(2)
O8 O 1.0653(5) 0.2310(4) 0.1809(3)
C1 C 1.2533(4) 0.6932(3) 0.1234(2)
C2 C 1.1916(4) 0.7838(3) 0.0850(2)
C3 C 1.0187(5) 0.9082(4) 0.0777(3)
C4 C 1.0621(5) 0.9641(4) 0.0069(3)
C5 C 1.1642(4) 0.9325(4) -0.0211(2)
H1 H 1.1907 0.9710 -0.0670
C6 C 1.2359(4) 0.8404(3) 0.0170(2)
C7 C 1.3418(4) 0.8039(4) -0.0104(2)
H2 H 1.3716 0.8412 -0.0558
C8 C 1.4052(4) 0.7134(4) 0.0276(2)
C9 C 1.5141(4) 0.6718(4) 0.0010(2)
H3 H 1.5453 0.7085 -0.0441
C10 C 1.5735(5) 0.5838(5) 0.0368(3)
H4 H 1.6461 0.5587 0.0173
C11 C 1.5299(5) 0.5276(5) 0.1032(3)
H5 H 1.5722 0.4638 0.1284
C12 C 1.4276(5) 0.5642(4) 0.1313(2)
H6 H 1.4001 0.5263 0.1771
C13 C 1.3604(4) 0.6560(4) 0.0955(2)
C14 C 0.9884(5) 1.0555(4) -0.0341(3)
C15 C 0.9639(7) 1.1715(6) -0.1465(4)
H7 H 0.9773 1.2392 -0.1455
H8 H 0.8842 1.1726 -0.1352
C16 C 1.0077(12) 1.1507(14) -0.2166(6)
H9 H 1.0727 1.1815 -0.2368
H10 H 0.9515 1.1821 -0.2486
H11 H 1.0278 1.0747 -0.2104
C17 C 1.2032(4) 0.6392(4) 0.1960(2)
C18 C 1.1638(3) 0.5501(3) 0.2058(2)
C19 C 1.1310(4) 0.4272(4) 0.1508(3)
C20 C 1.0807(4) 0.3717(4) 0.2196(2)
C21 C 1.0718(4) 0.4099(4) 0.2765(2)
H12 H 1.0362 0.3752 0.3207
C22 C 1.1124(3) 0.4974(3) 0.2728(2)
C23 C 1.1053(4) 0.5373(4) 0.3288(2)
H13 H 1.0716 0.5030 0.3739
C24 C 1.1451(4) 0.6256(4) 0.3223(2)
C25 C 1.1366(5) 0.6668(5) 0.3801(2)
H14 H 1.1032 0.6324 0.4251
C26 C 1.1742(5) 0.7530(5) 0.3730(3)
H15 H 1.1675 0.7803 0.4121
C27 C 1.2244(6) 0.8022(5) 0.3052(3)
H16 H 1.2530 0.8623 0.3001
C28 C 1.2334(5) 0.7685(4) 0.2484(3)
H17 H 1.2665 0.8056 0.2041
C29 C 1.1943(4) 0.6783(3) 0.2533(2)
C30 C 1.0346(5) 0.2780(5) 0.2297(3)
C31 C 1.0066(13) 0.1509(9) 0.1837(6)
H18 H 0.9317 0.1666 0.2087
H19 H 0.9999 0.1529 0.1349
C32 C 1.0515(9) 0.0653(10) 0.2131(6)
H20 H 1.1245 0.0481 0.1873
H21 H 1.0083 0.0142 0.2148
H22 H 1.0586 0.0630 0.2614
O9 O 0.7719(3) 0.4491(2) 0.26186(14)
O10 O 0.7471(3) 0.3598(3) 0.19546(16)
O11 O 0.8899(5) 0.5437(4) 0.01291(19)
O12 O 0.8823(4) 0.3798(4) 0.0693(2)
O13 O 0.9106(2) 0.3712(2) 0.43108(14)
O14 O 1.0784(3) 0.2904(3) 0.45276(18)
O15 O 1.1023(4) 0.1272(4) 0.5767(2)
O16 O 0.9590(3) 0.0553(3) 0.6130(2)
C33 C 0.7882(3) 0.5402(3) 0.3388(2)
C34 C 0.8048(3) 0.5318(3) 0.2717(2)
C35 C 0.7864(4) 0.4301(4) 0.1971(2)
C36 C 0.8432(4) 0.4990(4) 0.1374(2)
C37 C 0.8684(4) 0.5822(4) 0.1459(2)
H23 H 0.9007 0.6289 0.1059
C38 C 0.8486(4) 0.6042(3) 0.2130(2)
C39 C 0.8760(4) 0.6886(4) 0.2237(2)
H24 H 0.9061 0.7385 0.1847
C40 C 0.8598(4) 0.7012(3) 0.2911(2)
C41 C 0.8853(5) 0.7913(4) 0.3035(3)
H25 H 0.9136 0.8424 0.2646
C42 C 0.8699(6) 0.8038(5) 0.3681(4)
H26 H 0.8863 0.8641 0.3745
C43 C 0.8295(5) 0.7287(5) 0.4274(3)
H27 H 0.8207 0.7372 0.4736
C44 C 0.8030(5) 0.6435(4) 0.4176(3)
H28 H 0.7742 0.5938 0.4572
C45 C 0.8178(4) 0.6281(3) 0.3493(2)
C46 C 0.8722(5) 0.4775(6) 0.0674(3)
C47 C 0.9145(7) 0.3531(8) 0.0029(4)
H29 H 0.8773 0.4102 -0.0343
H30 H 0.8890 0.2884 0.0073
C48 C 1.0351(9) 0.3360(10) -0.0201(5)
H31 H 1.0539 0.2959 -0.0552
H32 H 1.0739 0.2968 0.0210
H33 H 1.0569 0.4040 -0.0412
C49 C 0.7371(3) 0.4628(3) 0.39903(19)
C50 C 0.7993(4) 0.3811(3) 0.44280(19)
C51 C 0.9819(4) 0.2920(4) 0.4716(2)
C52 C 0.9337(4) 0.2157(4) 0.5305(2)
C53 C 0.8258(4) 0.2247(3) 0.5424(2)
H34 H 0.7956 0.1744 0.5809
C54 C 0.7529(4) 0.3063(3) 0.49982(19)
C55 C 0.6404(4) 0.3162(4) 0.5111(2)
H35 H 0.6083 0.2657 0.5483
C56 C 0.5737(3) 0.3988(3) 0.4689(2)
C57 C 0.4573(4) 0.4111(4) 0.4824(2)
H36 H 0.4244 0.3621 0.5203
C58 C 0.3929(5) 0.4947(5) 0.4400(3)
H37 H 0.3153 0.5038 0.4492
C59 C 0.4406(5) 0.5654(4) 0.3842(3)
H38 H 0.3952 0.6218 0.3548
C60 C 0.5508(4) 0.5556(4) 0.3705(2)
H39 H 0.5811 0.6062 0.3323
C61 C 0.6213(4) 0.4730(3) 0.4112(2)
C62 C 1.0076(5) 0.1301(4) 0.5753(3)
C63 C 1.0243(5) -0.0343(5) 0.6609(4)
H40 H 1.0823 -0.0749 0.6334
H41 H 1.0592 -0.0093 0.6907
C64 C 0.9469(8) -0.0991(9) 0.7047(6)
H42 H 0.9507 -0.1575 0.6852
H43 H 0.8723 -0.0563 0.7051
H44 H 0.9657 -0.1268 0.7531
O17 O 0.5237(3) 0.7939(2) 0.81561(14)
O18 O 0.5352(4) 0.9135(3) 0.8635(2)
O19 O 0.6870(4) 1.0803(4) 0.6727(3)
O20 O 0.6226(5) 1.0764(4) 0.7816(3)
O21 O 0.2910(3) 0.7303(2) 0.82943(14)
O22 O 0.1456(3) 0.8552(3) 0.81390(19)
O23 O -0.0058(4) 0.7439(4) 1.0123(2)
O24 O -0.0451(4) 0.8091(5) 0.9031(3)
C65 C 0.5024(4) 0.6605(4) 0.7711(2)
C66 C 0.5399(4) 0.7514(4) 0.7603(2)
C67 C 0.5553(4) 0.8855(4) 0.8106(2)
C68 C 0.6081(4) 0.9385(3) 0.7418(2)
C69 C 0.6276(4) 0.8952(4) 0.6895(2)
H45 H 0.6666 0.9282 0.6461
C70 C 0.5932(4) 0.8005(4) 0.6941(2)
C71 C 0.6108(4) 0.7588(4) 0.6392(2)
H46 H 0.6488 0.7913 0.5952
C72 C 0.5736(4) 0.6686(4) 0.6468(3)
C73 C 0.5872(6) 0.6250(6) 0.5885(3)
H47 H 0.6248 0.6565 0.5441
C74 C 0.5472(8) 0.5405(7) 0.5962(4)
H48 H 0.5553 0.5145 0.5563
C75 C 0.4940(6) 0.4885(6) 0.6601(4)
H49 H 0.4676 0.4275 0.6641
C76 C 0.4807(5) 0.5281(5) 0.7180(3)
H50 H 0.4450 0.4935 0.7621
C77 C 0.5185(4) 0.6173(4) 0.7124(2)
C78 C 0.6442(5) 1.0376(4) 0.7289(3)
C79 C 0.6536(11) 1.1806(7) 0.7699(6)
H51 H 0.7340 1.1726 0.7569
H52 H 0.6184 1.2327 0.7298
C80 C 0.6252(16) 1.2152(10) 0.8242(8)
H53 H 0.6545 1.2784 0.8157
H54 H 0.6543 1.1614 0.8652
H55 H 0.5450 1.2325 0.8336
C81 C 0.4546(4) 0.6053(4) 0.8416(2)
C82 C 0.3503(4) 0.6386(3) 0.8688(2)
C83 C 0.1849(4) 0.7743(4) 0.8520(2)
C84 C 0.1328(4) 0.7170(4) 0.9210(2)
C85 C 0.1908(4) 0.6280(4) 0.9581(2)
H56 H 0.1567 0.5919 1.0024
C86 C 0.3014(4) 0.5839(4) 0.9349(2)
C87 C 0.3608(5) 0.4936(4) 0.9720(3)
H57 H 0.3268 0.4553 1.0155
C88 C 0.4693(5) 0.4545(4) 0.9492(3)
C89 C 0.5347(7) 0.3615(5) 0.9869(3)
H58 H 0.5027 0.3206 1.0301
C90 C 0.6382(7) 0.3296(6) 0.9642(4)
H59 H 0.6800 0.2677 0.9916
C91 C 0.6862(7) 0.3852(5) 0.9009(3)
H60 H 0.7611 0.3610 0.8850
C92 C 0.6282(5) 0.4745(5) 0.8605(3)
H61 H 0.6629 0.5116 0.8169
C93 C 0.5176(5) 0.5123(4) 0.8829(3)
C94 C 0.0229(5) 0.7572(5) 0.9496(3)
C95 C -0.1651(12) 0.8289(11) 0.9312(7)
H62 H -0.2021 0.7786 0.9232
H63 H -0.1758 0.8229 0.9825
C96 C -0.1990(9) 0.9149(9) 0.8988(6)
H64 H -0.1392 0.9432 0.8655
H65 H -0.2297 0.9587 0.9313
H66 H -0.2563 0.9147 0.8726
O25 O 0.4502(2) 0.1358(2) 0.59730(14)
O26 O 0.4402(3) 0.2454(3) 0.65842(17)
O27 O 0.2895(6) 0.0568(5) 0.8350(2)
O28 O 0.3191(6) 0.2126(6) 0.7863(3)
O29 O 0.6951(2) -0.0220(2) 0.51088(14)
O30 O 0.8347(3) -0.1347(3) 0.55521(19)
O31 O 1.0446(4) -0.1065(4) 0.4922(3)
O32 O 1.0492(3) 0.0523(4) 0.4281(2)
C97 C 0.4672(4) 0.0267(3) 0.5243(2)
C98 C 0.4268(4) 0.0489(3) 0.5873(2)
C99 C 0.4167(4) 0.1669(4) 0.6580(2)
C100 C 0.3511(4) 0.1013(5) 0.7148(2)
C101 C 0.3271(4) 0.0170(5) 0.7065(3)
H67 H 0.2870 -0.0251 0.7450
C102 C 0.3592(3) -0.0133(4) 0.6414(2)
C103 C 0.3353(4) -0.0949(4) 0.6302(3)
H68 H 0.2933 -0.1372 0.6672
C104 C 0.3695(4) -0.1222(4) 0.5652(3)
C105 C 0.3422(5) -0.2050(4) 0.5517(4)
H69 H 0.2967 -0.2459 0.5870
C106 C 0.3785(6) -0.2294(5) 0.4897(4)
H70 H 0.3551 -0.2847 0.4813
C107 C 0.4503(6) -0.1745(5) 0.4376(3)
H71 H 0.4793 -0.1943 0.3952
C108 C 0.4778(5) -0.0899(4) 0.4501(3)
H72 H 0.5242 -0.0505 0.4145
C109 C 0.4404(4) -0.0615(4) 0.5116(3)
C110 C 0.3153(6) 0.1218(7) 0.7854(3)
C111 C 0.2880(12) 0.2292(10) 0.8590(6)
H73 H 0.2113 0.2217 0.8773
H74 H 0.3368 0.1775 0.8922
C112 C 0.2997(15) 0.3313(14) 0.8510(8)
H75 H 0.3777 0.3342 0.8408
H76 H 0.2683 0.3512 0.8949
H77 H 0.2613 0.3801 0.8119
C113 C 0.5366(4) 0.0935(3) 0.4681(2)
C114 C 0.6473(4) 0.0681(3) 0.46298(19)
C115 C 0.8079(4) -0.0560(4) 0.5116(2)
C116 C 0.8762(4) 0.0107(4) 0.4607(2)
C117 C 0.8308(4) 0.0973(4) 0.4129(2)
H78 H 0.8774 0.1391 0.3795
C118 C 0.7167(3) 0.1276(3) 0.41082(19)
C119 C 0.6683(4) 0.2151(3) 0.3625(2)
H79 H 0.7130 0.2563 0.3268
C120 C 0.5537(4) 0.2443(4) 0.3654(2)
C121 C 0.5033(4) 0.3355(4) 0.3171(2)
H80 H 0.5473 0.3769 0.2809
C122 C 0.3946(5) 0.3637(5) 0.3223(3)
H81 H 0.3621 0.4251 0.2892
C123 C 0.3258(5) 0.3049(5) 0.3756(3)
H82 H 0.2483 0.3265 0.3781
C124 C 0.3713(4) 0.2182(4) 0.4227(2)
H83 H 0.3251 0.1796 0.4590
C125 C 0.4874(4) 0.1829(4) 0.4196(2)
C126 C 0.9977(4) -0.0218(5) 0.4627(2)
C127 C 1.1663(5) 0.0303(6) 0.4257(4)
H84 H 1.1951 -0.0464 0.4354
H85 H 1.1859 0.0545 0.4625
C128 C 1.2146(9) 0.0837(9) 0.3565(5)
H86 H 1.1824 0.0715 0.3199
H87 H 1.2940 0.0566 0.3510
H88 H 1.2001 0.1593 0.3516
loop_
_geom_bond_atom_site_label_1
_geom_bond_atom_site_label_2
_geom_bond_site_symmetry_1
_geom_bond_site_symmetry_2
O1 C2 1_555 1_555
O2 C3 1_555 1_555
O3 C14 1_555 1_555
O4 C14 1_555 1_555
O5 C18 1_555 1_555
O6 C19 1_555 1_555
O7 C30 1_555 1_555
O8 C30 1_555 1_555
C1 C2 1_555 1_555
C2 C6 1_555 1_555
C3 O1 1_555 1_555
C4 C3 1_555 1_555
C5 C4 1_555 1_555
H1 C5 1_555 1_555
C6 C5 1_555 1_555
C7 C6 1_555 1_555
H2 C7 1_555 1_555
C8 C7 1_555 1_555
C9 C8 1_555 1_555
H3 C9 1_555 1_555
C10 C9 1_555 1_555
H4 C10 1_555 1_555
C11 C10 1_555 1_555
H5 C11 1_555 1_555
C12 C11 1_555 1_555
H6 C12 1_555 1_555
C13 C1 1_555 1_555
C14 C4 1_555 1_555
C15 O4 1_555 1_555
H7 C15 1_555 1_555
H8 C15 1_555 1_555
C16 C15 1_555 1_555
H9 C16 1_555 1_555
H10 C16 1_555 1_555
H11 C16 1_555 1_555
C17 C1 1_555 1_555
C18 C17 1_555 1_555
C19 O5 1_555 1_555
C20 C19 1_555 1_555
C21 C20 1_555 1_555
H12 C21 1_555 1_555
C22 C18 1_555 1_555
C23 C22 1_555 1_555
H13 C23 1_555 1_555
C24 C23 1_555 1_555
C25 C24 1_555 1_555
H14 C25 1_555 1_555
C26 C25 1_555 1_555
H15 C26 1_555 1_555
C27 C26 1_555 1_555
H16 C27 1_555 1_555
C28 C27 1_555 1_555
H17 C28 1_555 1_555
C29 C17 1_555 1_555
C30 C20 1_555 1_555
C31 O8 1_555 1_555
H18 C31 1_555 1_555
H19 C31 1_555 1_555
C32 C31 1_555 1_555
H20 C32 1_555 1_555
H21 C32 1_555 1_555
H22 C32 1_555 1_555
O9 C34 1_555 1_555
O10 C35 1_555 1_555
O11 C46 1_555 1_555
O12 C46 1_555 1_555
O13 C50 1_555 1_555
O14 C51 1_555 1_555
O15 C62 1_555 1_555
O16 C62 1_555 1_555
C33 C34 1_555 1_555
C34 C38 1_555 1_555
C35 O9 1_555 1_555
C36 C35 1_555 1_555
C37 C36 1_555 1_555
H23 C37 1_555 1_555
C38 C37 1_555 1_555
C39 C38 1_555 1_555
H24 C39 1_555 1_555
C40 C39 1_555 1_555
C41 C40 1_555 1_555
H25 C41 1_555 1_555
C42 C41 1_555 1_555
H26 C42 1_555 1_555
C43 C42 1_555 1_555
H27 C43 1_555 1_555
C44 C43 1_555 1_555
H28 C44 1_555 1_555
C45 C33 1_555 1_555
C46 C36 1_555 1_555
C47 O12 1_555 1_555
H29 C47 1_555 1_555
H30 C47 1_555 1_555
C48 C47 1_555 1_555
H31 C48 1_555 1_555
H32 C48 1_555 1_555
H33 C48 1_555 1_555
C49 C33 1_555 1_555
C50 C49 1_555 1_555
C51 O13 1_555 1_555
C52 C51 1_555 1_555
C53 C52 1_555 1_555
H34 C53 1_555 1_555
C54 C50 1_555 1_555
C55 C54 1_555 1_555
H35 C55 1_555 1_555
C56 C55 1_555 1_555
C57 C56 1_555 1_555
H36 C57 1_555 1_555
C58 C57 1_555 1_555
H37 C58 1_555 1_555
C59 C58 1_555 1_555
H38 C59 1_555 1_555
C60 C59 1_555 1_555
H39 C60 1_555 1_555
C61 C49 1_555 1_555
C62 C52 1_555 1_555
C63 O16 1_555 1_555
H40 C63 1_555 1_555
H41 C63 1_555 1_555
C64 C63 1_555 1_555
H42 C64 1_555 1_555
H43 C64 1_555 1_555
H44 C64 1_555 1_555
O17 C66 1_555 1_555
O18 C67 1_555 1_555
O19 C78 1_555 1_555
O20 C78 1_555 1_555
O21 C82 1_555 1_555
O22 C83 1_555 1_555
O23 C94 1_555 1_555
O24 C94 1_555 1_555
C65 C66 1_555 1_555
C66 C70 1_555 1_555
C67 O17 1_555 1_555
C68 C67 1_555 1_555
C69 C68 1_555 1_555
H45 C69 1_555 1_555
C70 C69 1_555 1_555
C71 C70 1_555 1_555
H46 C71 1_555 1_555
C72 C71 1_555 1_555
C73 C72 1_555 1_555
H47 C73 1_555 1_555
C74 C73 1_555 1_555
H48 C74 1_555 1_555
C75 C74 1_555 1_555
H49 C75 1_555 1_555
C76 C75 1_555 1_555
H50 C76 1_555 1_555
C77 C65 1_555 1_555
C78 C68 1_555 1_555
C79 O20 1_555 1_555
H51 C79 1_555 1_555
H52 C79 1_555 1_555
C80 C79 1_555 1_555
H53 C80 1_555 1_555
H54 C80 1_555 1_555
H55 C80 1_555 1_555
C81 C65 1_555 1_555
C82 C81 1_555 1_555
C83 O21 1_555 1_555
C84 C83 1_555 1_555
C85 C84 1_555 1_555
H56 C85 1_555 1_555
C86 C82 1_555 1_555
C87 C86 1_555 1_555
H57 C87 1_555 1_555
C88 C87 1_555 1_555
C89 C88 1_555 1_555
H58 C89 1_555 1_555
C90 C89 1_555 1_555
H59 C90 1_555 1_555
C91 C90 1_555 1_555
H60 C91 1_555 1_555
C92 C91 1_555 1_555
H61 C92 1_555 1_555
C93 C81 1_555 1_555
C94 C84 1_555 1_555
C95 O24 1_555 1_555
H62 C95 1_555 1_555
H63 C95 1_555 1_555
C96 C95 1_555 1_555
H64 C96 1_555 1_555
H65 C96 1_555 1_555
H66 C96 1_555 1_555
O25 C98 1_555 1_555
O26 C99 1_555 1_555
O27 C110 1_555 1_555
O28 C110 1_555 1_555
O29 C114 1_555 1_555
O30 C115 1_555 1_555
O31 C126 1_555 1_555
O32 C126 1_555 1_555
C97 C98 1_555 1_555
C98 C102 1_555 1_555
C99 O25 1_555 1_555
C100 C99 1_555 1_555
C101 C100 1_555 1_555
H67 C101 1_555 1_555
C102 C101 1_555 1_555
C103 C102 1_555 1_555
H68 C103 1_555 1_555
C104 C103 1_555 1_555
C105 C104 1_555 1_555
H69 C105 1_555 1_555
C106 C105 1_555 1_555
H70 C106 1_555 1_555
C107 C106 1_555 1_555
H71 C107 1_555 1_555
C108 C107 1_555 1_555
H72 C108 1_555 1_555
C109 C97 1_555 1_555
C110 C100 1_555 1_555
C111 O28 1_555 1_555
H73 C111 1_555 1_555
H74 C111 1_555 1_555
C112 C111 1_555 1_555
H75 C112 1_555 1_555
H76 C112 1_555 1_555
H77 C112 1_555 1_555
C113 C97 1_555 1_555
C114 C113 1_555 1_555
C115 O29 1_555 1_555
C116 C115 1_555 1_555
C117 C116 1_555 1_555
H78 C117 1_555 1_555
C118 C114 1_555 1_555
C119 C118 1_555 1_555
H79 C119 1_555 1_555
C120 C119 1_555 1_555
C121 C120 1_555 1_555
H80 C121 1_555 1_555
C122 C121 1_555 1_555
H81 C122 1_555 1_555
C123 C122 1_555 1_555
H82 C123 1_555 1_555
C124 C123 1_555 1_555
H83 C124 1_555 1_555
C125 C113 1_555 1_555
C126 C116 1_555 1_555
C127 O32 1_555 1_555
H84 C127 1_555 1_555
H85 C127 1_555 1_555
C128 C127 1_555 1_555
H86 C128 1_555 1_555
H87 C128 1_555 1_555
H88 C128 1_555 1_555
C8 C13 1_555 1_555
C12 C13 1_555 1_555
C21 C22 1_555 1_555
C24 C29 1_555 1_555
C28 C29 1_555 1_555
C40 C45 1_555 1_555
C44 C45 1_555 1_555
C53 C54 1_555 1_555
C56 C61 1_555 1_555
C60 C61 1_555 1_555
C72 C77 1_555 1_555
C76 C77 1_555 1_555
C85 C86 1_555 1_555
C88 C93 1_555 1_555
C92 C93 1_555 1_555
C104 C109 1_555 1_555
C108 C109 1_555 1_555
C117 C118 1_555 1_555
C120 C125 1_555 1_555
C124 C125 1_555 1_555

#END
