
#######################################################################
#
#                 Cambridge Crystallographic Data Centre
#                                CCDC 
#
#######################################################################
#
# If this CIF has been generated from an entry in the Cambridge 
# Structural Database, then it will include bibliographic, chemical, 
# crystal, experimental, refinement or atomic coordinate data resulting 
# from the CCDC's data processing and validation procedures.
#
#######################################################################

data_QEZGIO01
_chemical_formula_moiety         'C22 H24 Cl2 N6 O8'
_chemical_name_systematic        
11,32-dichloro-2,8,14,17,20,23,26,29-octaoxa-10,12,31,33,34,35-hexaazatetracyclo[28.3.1.1^3,7^.1^9,13^]hexatriaconta-1(34),3(36),4,6,9(35),10,12,30,32-nonaene
_symmetry_cell_setting           monoclinic
_symmetry_space_group_name_H-M   'C 2/c'
_symmetry_Int_Tables_number      15
_space_group_name_Hall           '-C 2yn'
loop_
_symmetry_equiv_pos_site_id
_symmetry_equiv_pos_as_xyz
1 x,y,z
2 -x,y,1/2-z
3 1/2+x,1/2+y,z
4 1/2-x,1/2+y,1/2-z
5 -x,-y,-z
6 x,-y,1/2+z
7 1/2-x,1/2-y,-z
8 1/2+x,1/2-y,1/2+z
_cell_length_a                   11.245(2)
_cell_length_b                   17.678(3)
_cell_length_c                   13.048(2)
_cell_angle_alpha                90
_cell_angle_beta                 95.709(2)
_cell_angle_gamma                90
_cell_volume                     2580.93
_exptl_crystal_colour            colorless
_exptl_crystal_description       prism
_cell_formula_units_Z            4
loop_
_atom_site_label
_atom_site_type_symbol
_atom_site_fract_x
_atom_site_fract_y
_atom_site_fract_z
Cl1 Cl 0.92278(5) 0.43214(3) 0.55111(4)
O1 O 0.54686(12) 0.33209(8) 0.40039(10)
N1 N 0.80435(13) 0.32715(8) 0.63408(11)
C1 C 0.70609(14) 0.28433(9) 0.63104(12)
C2 C 0.80046(15) 0.37312(10) 0.55382(14)
N2 N 0.71726(13) 0.38002(8) 0.47582(12)
O2 O 0.34900(13) 0.34710(9) 0.52610(11)
O3 O 0.37330(14) 0.41683(8) 0.72338(11)
N3 N 0.61665(12) 0.28162(8) 0.55735(11)
C3 C 0.62746(15) 0.33047(10) 0.48136(13)
O4 O 0.70529(10) 0.23831(7) 0.71230(9)
C4 C 0.44326(17) 0.28201(13) 0.39725(15)
H1 H 0.458959 0.240862 0.448265
H2 H 0.428339 0.258903 0.328046
C5 C 0.33615(19) 0.32620(15) 0.42102(16)
H3 H 0.328039 0.372064 0.377347
H4 H 0.263196 0.295167 0.406054
C6 C 0.2770(2) 0.41003(14) 0.54491(18)
H5 H 0.196989 0.404065 0.506608
H6 H 0.313592 0.456727 0.520334
C7 C 0.2647(2) 0.41656(13) 0.65729(17)
H7 H 0.220845 0.463843 0.669034
H8 H 0.214987 0.373899 0.677560
C8 C 0.4486(2) 0.47907(12) 0.7079(2)
H9 H 0.403057 0.526872 0.709918
H10 H 0.479612 0.475027 0.639722
C9 C 0.59833(14) 0.19981(10) 0.72745(12)
C10 C 0.60069(16) 0.12185(10) 0.72607(13)
H11 H 0.669677 0.095451 0.709129
C11 C 0.500000 0.08282(14) 0.750000
H12 H 0.500000 0.029079 0.749998
C12 C 0.500000 0.24114(13) 0.750000
H13 H 0.500001 0.294878 0.749998
Cl1A Cl 0.07722(5) 0.43214(3) 0.94889(4)
O1A O 0.45314(12) 0.33209(8) 1.09961(10)
N1A N 0.19565(13) 0.32715(8) 0.86592(11)
C1A C 0.29391(14) 0.28433(9) 0.86896(12)
C2A C 0.19954(15) 0.37312(10) 0.94618(14)
N2A N 0.28274(13) 0.38002(8) 1.02418(12)
O2A O 0.65100(13) 0.34710(9) 0.97390(11)
O3A O 0.62670(14) 0.41683(8) 0.77662(11)
N3A N 0.38335(12) 0.28162(8) 0.94265(11)
C3A C 0.37254(15) 0.33047(10) 1.01864(13)
O4A O 0.29471(10) 0.23831(7) 0.78770(9)
C4A C 0.55674(17) 0.28201(13) 1.10275(15)
H1A H 0.541041 0.240862 1.051735
H2A H 0.571661 0.258903 1.171954
C5A C 0.66385(19) 0.32620(15) 1.07898(16)
H3A H 0.671961 0.372064 1.122653
H4A H 0.736804 0.295167 1.093946
C6A C 0.7230(2) 0.41003(14) 0.95509(18)
H5A H 0.803011 0.404065 0.993392
H6A H 0.686408 0.456727 0.979666
C7A C 0.7353(2) 0.41656(13) 0.84271(17)
H7A H 0.779155 0.463843 0.830966
H8A H 0.785013 0.373899 0.822440
C8A C 0.5514(2) 0.47907(12) 0.7921(2)
H9A H 0.596943 0.526872 0.790082
H10A H 0.520388 0.475027 0.860278
C9A C 0.40167(14) 0.19981(10) 0.77255(12)
C10A C 0.39931(16) 0.12185(10) 0.77393(13)
H11A H 0.330323 0.095451 0.790871
loop_
_geom_bond_atom_site_label_1
_geom_bond_atom_site_label_2
_geom_bond_site_symmetry_1
_geom_bond_site_symmetry_2
Cl1 C2 1_555 1_555
O1 C3 1_555 1_555
N1 C1 1_555 1_555
C1 N3 1_555 1_555
C2 N1 1_555 1_555
N2 C2 1_555 1_555
O2 C5 1_555 1_555
O3 C7 1_555 1_555
N3 C3 1_555 1_555
C3 N2 1_555 1_555
O4 C1 1_555 1_555
C4 O1 1_555 1_555
H1 C4 1_555 1_555
H2 C4 1_555 1_555
C5 C4 1_555 1_555
H3 C5 1_555 1_555
H4 C5 1_555 1_555
C6 O2 1_555 1_555
H5 C6 1_555 1_555
H6 C6 1_555 1_555
C7 C6 1_555 1_555
H7 C7 1_555 1_555
H8 C7 1_555 1_555
C8 O3 1_555 1_555
H9 C8 1_555 1_555
H10 C8 1_555 1_555
C9 O4 1_555 1_555
C10 C9 1_555 1_555
H11 C10 1_555 1_555
C11 C10 1_555 1_555
H12 C11 1_555 1_555
C12 C9 1_555 1_555
H13 C12 1_555 1_555
Cl1A C2A 1_555 1_555
O1A C3A 1_555 1_555
N1A C1A 1_555 1_555
C1A N3A 1_555 1_555
C2A N1A 1_555 1_555
N2A C2A 1_555 1_555
O2A C5A 1_555 1_555
O3A C7A 1_555 1_555
N3A C3A 1_555 1_555
C3A N2A 1_555 1_555
O4A C1A 1_555 1_555
C4A O1A 1_555 1_555
H1A C4A 1_555 1_555
H2A C4A 1_555 1_555
C5A C4A 1_555 1_555
H3A C5A 1_555 1_555
H4A C5A 1_555 1_555
C6A O2A 1_555 1_555
H5A C6A 1_555 1_555
H6A C6A 1_555 1_555
C7A C6A 1_555 1_555
H7A C7A 1_555 1_555
H8A C7A 1_555 1_555
C8A C8 1_555 1_555
H9A C8A 1_555 1_555
H10A C8A 1_555 1_555
C9A C12 1_555 1_555
C10A C11 1_555 1_555
H11A C10A 1_555 1_555
O3A C8A 1_555 1_555
O4A C9A 1_555 1_555
C9A C10A 1_555 1_555

#END
