
#######################################################################
#
#                 Cambridge Crystallographic Data Centre
#                                CCDC 
#
#######################################################################
#
# If this CIF has been generated from an entry in the Cambridge 
# Structural Database, then it will include bibliographic, chemical, 
# crystal, experimental, refinement or atomic coordinate data resulting 
# from the CCDC's data processing and validation procedures.
#
#######################################################################

data_QEZRUL
_chemical_formula_moiety         'C29 H21 N1 O3'
_chemical_name_systematic        
N-[2-benzoyl-3-oxo-1,3-diphenylprop-1-en-1-yl]benzamide
_symmetry_cell_setting           triclinic
_symmetry_space_group_name_H-M   'P -1'
_symmetry_Int_Tables_number      2
_space_group_name_Hall           '-P 1'
loop_
_symmetry_equiv_pos_site_id
_symmetry_equiv_pos_as_xyz
1 x,y,z
2 -x,-y,-z
_cell_length_a                   9.7087(8)
_cell_length_b                   10.8041(9)
_cell_length_c                   11.9237(10)
_cell_angle_alpha                78.551(2)
_cell_angle_beta                 66.3730(10)
_cell_angle_gamma                74.2780(10)
_cell_volume                     1097.26
_exptl_crystal_colour            colorless
_exptl_crystal_description       block
_cell_formula_units_Z            2
loop_
_atom_site_label
_atom_site_type_symbol
_atom_site_fract_x
_atom_site_fract_y
_atom_site_fract_z
O1 O 0.02555(9) 0.80231(8) 0.35756(8)
O2 O 0.36618(9) 0.44032(8) 0.48198(7)
O3 O 0.63999(9) 0.48495(8) 0.08929(8)
N1 N 0.21771(10) 0.65557(9) 0.40886(8)
H1 H 0.2360 0.6093 0.4730
C1 C -0.02193(12) 0.56987(10) 0.62731(10)
H2 H 0.0696 0.5064 0.5967
C2 C -0.13319(14) 0.54516(12) 0.74233(11)
H3 H -0.1174 0.4646 0.7898
C3 C -0.26734(13) 0.63796(13) 0.78808(11)
H4 H -0.3428 0.6208 0.8666
C4 C -0.29051(13) 0.75585(12) 0.71854(11)
H5 H -0.3816 0.8195 0.7498
C5 C -0.18042(13) 0.78053(11) 0.60335(11)
H6 H -0.1972 0.8608 0.5558
C6 C -0.04510(12) 0.68811(10) 0.55699(10)
C7 C 0.06674(12) 0.72225(10) 0.43140(10)
C8 C 0.34314(11) 0.65208(10) 0.29925(9)
C9 C 0.33637(11) 0.75442(10) 0.19636(9)
C10 C 0.31422(14) 0.88498(11) 0.21048(11)
H7 H 0.3046 0.9094 0.2860
C11 C 0.30645(15) 0.97832(12) 0.11370(13)
H8 H 0.2930 1.0667 0.1228
C12 C 0.31822(15) 0.94376(13) 0.00335(12)
H9 H 0.3116 1.0085 -0.0621
C13 C 0.33973(13) 0.81446(13) -0.01121(11)
H10 H 0.3471 0.7907 -0.0863
C14 C 0.35048(12) 0.71976(11) 0.08508(10)
H11 H 0.3675 0.6312 0.0747
C15 C 0.47128(11) 0.55333(10) 0.28586(9)
C16 C 0.61003(12) 0.55668(10) 0.16709(9)
C17 C 0.47471(12) 0.44333(10) 0.38075(10)
C18 C 0.60535(12) 0.32745(10) 0.35964(10)
C19 C 0.76035(13) 0.33229(11) 0.29833(10)
H12 H 0.7886 0.4129 0.2631
C20 C 0.87396(14) 0.21920(12) 0.28861(11)
H13 H 0.9793 0.2234 0.2477
C21 C 0.83399(16) 0.10084(12) 0.33823(14)
H14 H 0.9114 0.0237 0.3295
C22 C 0.68017(17) 0.09582(12) 0.40076(15)
H15 H 0.6526 0.0149 0.4355
C23 C 0.56605(14) 0.20807(11) 0.41310(12)
H16 H 0.4613 0.2038 0.4579
C24 C 0.71392(12) 0.64315(10) 0.15356(9)
C25 C 0.68732(13) 0.71405(11) 0.24883(10)
H17 H 0.5963 0.7149 0.3204
C26 C 0.79390(14) 0.78352(12) 0.23927(12)
H18 H 0.7754 0.8314 0.3045
C27 C 0.92683(14) 0.78314(12) 0.13515(12)
H19 H 0.9995 0.8303 0.1292
C28 C 0.95338(14) 0.71361(14) 0.03964(12)
H20 H 1.0441 0.7138 -0.0320
C29 C 0.84805(13) 0.64365(13) 0.04810(11)
H21 H 0.8670 0.5962 -0.0176
loop_
_geom_bond_atom_site_label_1
_geom_bond_atom_site_label_2
_geom_bond_site_symmetry_1
_geom_bond_site_symmetry_2
O1 C7 1_555 1_555
O2 C17 1_555 1_555
O3 C16 1_555 1_555
N1 H1 1_555 1_555
C1 H2 1_555 1_555
C2 C1 1_555 1_555
H3 C2 1_555 1_555
C3 C2 1_555 1_555
H4 C3 1_555 1_555
C4 C3 1_555 1_555
H5 C4 1_555 1_555
C5 C4 1_555 1_555
H6 C5 1_555 1_555
C6 C1 1_555 1_555
C7 N1 1_555 1_555
C8 N1 1_555 1_555
C9 C8 1_555 1_555
C10 C9 1_555 1_555
H7 C10 1_555 1_555
C11 C10 1_555 1_555
H8 C11 1_555 1_555
C12 C11 1_555 1_555
H9 C12 1_555 1_555
C13 C12 1_555 1_555
H10 C13 1_555 1_555
C14 C9 1_555 1_555
H11 C14 1_555 1_555
C15 C8 1_555 1_555
C16 C15 1_555 1_555
C17 C15 1_555 1_555
C18 C17 1_555 1_555
C19 C18 1_555 1_555
H12 C19 1_555 1_555
C20 C19 1_555 1_555
H13 C20 1_555 1_555
C21 C20 1_555 1_555
H14 C21 1_555 1_555
C22 C21 1_555 1_555
H15 C22 1_555 1_555
C23 C18 1_555 1_555
H16 C23 1_555 1_555
C24 C16 1_555 1_555
C25 C24 1_555 1_555
H17 C25 1_555 1_555
C26 C25 1_555 1_555
H18 C26 1_555 1_555
C27 C26 1_555 1_555
H19 C27 1_555 1_555
C28 C27 1_555 1_555
H20 C28 1_555 1_555
C29 C24 1_555 1_555
H21 C29 1_555 1_555
C5 C6 1_555 1_555
C6 C7 1_555 1_555
C13 C14 1_555 1_555
C22 C23 1_555 1_555
C28 C29 1_555 1_555

#END
