
#######################################################################
#
#                 Cambridge Crystallographic Data Centre
#                                CCDC 
#
#######################################################################
#
# If this CIF has been generated from an entry in the Cambridge 
# Structural Database, then it will include bibliographic, chemical, 
# crystal, experimental, refinement or atomic coordinate data resulting 
# from the CCDC's data processing and validation procedures.
#
#######################################################################

data_QIBDIR
_chemical_formula_moiety         'C38 H27 Br2 N1 O2'
_chemical_name_systematic        
(11-benzyl-2,8-dibromo-6-phenyl-6,11,12,13-tetrahydro-6,13-methano[1]benzoxocino[4,3-b]indol-12-yl)(phenyl)methanone
_symmetry_cell_setting           monoclinic
_symmetry_space_group_name_H-M   'P 21/c'
_symmetry_Int_Tables_number      14
_space_group_name_Hall           '-P 2ybc'
loop_
_symmetry_equiv_pos_site_id
_symmetry_equiv_pos_as_xyz
1 x,y,z
2 -x,1/2+y,1/2-z
3 -x,-y,-z
4 x,1/2-y,1/2+z
_cell_length_a                   13.1667(3)
_cell_length_b                   12.7439(3)
_cell_length_c                   19.0241(6)
_cell_angle_alpha                90
_cell_angle_beta                 106.401(3)
_cell_angle_gamma                90
_cell_volume                     3062.26
_exptl_crystal_description       block
_cell_formula_units_Z            4
loop_
_atom_site_label
_atom_site_type_symbol
_atom_site_fract_x
_atom_site_fract_y
_atom_site_fract_z
Br1 Br 0.34861(4) 0.35804(3) 0.63134(3)
Br2 Br -0.13317(3) 1.03032(3) 0.40220(2)
C1 C 0.3098(2) 0.6982(3) 0.53909(16)
C2 C 0.2818(3) 0.6756(3) 0.60258(18)
H1 H 0.2567 0.7285 0.6270
C3 C 0.2917(3) 0.5737(3) 0.62947(19)
H2 H 0.2725 0.5575 0.6716
C4 C 0.3300(3) 0.4971(3) 0.59306(18)
C5 C 0.3572(3) 0.5189(3) 0.52972(17)
H3 H 0.3825 0.4656 0.5058
C6 C 0.3469(2) 0.6199(3) 0.50170(16)
C7 C 0.3718(2) 0.6436(3) 0.42996(17)
H4 H 0.4367 0.6070 0.4289
C8 C 0.2786(3) 0.6058(2) 0.36499(16)
H5 H 0.2601 0.5337 0.3744
C9 C 0.3119(3) 0.6083(3) 0.29400(17)
C10 C 0.3699(3) 0.5164(3) 0.27588(18)
C11 C 0.3859(3) 0.4236(3) 0.3153(2)
H6 H 0.3593 0.4166 0.3554
C12 C 0.4406(4) 0.3415(3) 0.2960(3)
H7 H 0.4499 0.2792 0.3225
C13 C 0.4812(3) 0.3520(4) 0.2377(3)
H8 H 0.5195 0.2972 0.2252
C14 C 0.4658(3) 0.4425(4) 0.1979(2)
H9 H 0.4924 0.4485 0.1577
C15 C 0.4113(3) 0.5250(3) 0.2166(2)
H10 H 0.4021 0.5868 0.1895
C16 C 0.0401(2) 0.8997(2) 0.40053(16)
H11 H 0.0818 0.9540 0.4260
C17 C -0.0690(3) 0.9069(3) 0.37883(17)
C18 C -0.1339(3) 0.8270(3) 0.3409(2)
H12 H -0.2071 0.8350 0.3280
C19 C -0.0910(3) 0.7373(3) 0.3225(2)
H13 H -0.1338 0.6835 0.2973
C20 C 0.0194(2) 0.7289(2) 0.34296(16)
C21 C 0.0857(2) 0.8082(2) 0.38286(15)
C22 C 0.1922(2) 0.7721(2) 0.39456(15)
C23 C 0.1867(2) 0.6760(2) 0.36223(16)
C24 C 0.2943(2) 0.8187(2) 0.44027(16)
C25 C 0.3001(2) 0.9363(3) 0.43008(19)
C26 C 0.3212(3) 1.0057(3) 0.4881(2)
H14 H 0.3347 0.9804 0.5357
C27 C 0.3224(5) 1.1126(4) 0.4759(4)
H15 H 0.3351 1.1591 0.5151
C28 C 0.3047(5) 1.1502(4) 0.4051(4)
H16 H 0.3050 1.2221 0.3968
C29 C 0.2867(4) 1.0823(4) 0.3477(3)
H17 H 0.2767 1.1078 0.3004
C30 C 0.2833(3) 0.9749(3) 0.3596(2)
H18 H 0.2698 0.9289 0.3201
C31 C 0.3876(2) 0.7616(3) 0.42501(17)
H19 H 0.3924 0.7797 0.3765
H20 H 0.4530 0.7826 0.4605
C32 C 0.0465(3) 0.5488(3) 0.29514(18)
H21 H 0.0947 0.5262 0.2679
H22 H -0.0225 0.5590 0.2603
C33 C 0.0379(3) 0.4626(3) 0.34755(19)
C34 C 0.0749(3) 0.4720(3) 0.4225(2)
H23 H 0.1040 0.5352 0.4432
C35 C 0.0691(4) 0.3882(4) 0.4672(3)
H24 H 0.0947 0.3952 0.5178
C36 C 0.0260(5) 0.2952(4) 0.4376(3)
H25 H 0.0242 0.2381 0.4677
C37 C -0.0143(6) 0.2870(4) 0.3637(4)
H26 H -0.0461 0.2246 0.3435
C38 C -0.0089(5) 0.3699(3) 0.3181(3)
H27 H -0.0367 0.3631 0.2676
N1 N 0.0833(2) 0.6491(2) 0.32966(14)
O1 O 0.29980(17) 0.80150(17) 0.51733(11)
O2 O 0.2946(2) 0.6853(2) 0.25539(14)
loop_
_geom_bond_atom_site_label_1
_geom_bond_atom_site_label_2
_geom_bond_site_symmetry_1
_geom_bond_site_symmetry_2
Br1 C4 1_555 1_555
Br2 C17 1_555 1_555
C1 C2 1_555 1_555
C2 H1 1_555 1_555
C3 C2 1_555 1_555
H2 C3 1_555 1_555
C4 C3 1_555 1_555
C5 C4 1_555 1_555
H3 C5 1_555 1_555
C6 C1 1_555 1_555
C7 C6 1_555 1_555
H4 C7 1_555 1_555
C8 C7 1_555 1_555
H5 C8 1_555 1_555
C9 C8 1_555 1_555
C10 C9 1_555 1_555
C11 C10 1_555 1_555
H6 C11 1_555 1_555
C12 C11 1_555 1_555
H7 C12 1_555 1_555
C13 C12 1_555 1_555
H8 C13 1_555 1_555
C14 C13 1_555 1_555
H9 C14 1_555 1_555
C15 C10 1_555 1_555
H10 C15 1_555 1_555
C16 H11 1_555 1_555
C17 C16 1_555 1_555
C18 C17 1_555 1_555
H12 C18 1_555 1_555
C19 C18 1_555 1_555
H13 C19 1_555 1_555
C20 C19 1_555 1_555
C21 C16 1_555 1_555
C22 C21 1_555 1_555
C23 C8 1_555 1_555
C24 C22 1_555 1_555
C25 C24 1_555 1_555
C26 C25 1_555 1_555
H14 C26 1_555 1_555
C27 C26 1_555 1_555
H15 C27 1_555 1_555
C28 C27 1_555 1_555
H16 C28 1_555 1_555
C29 C28 1_555 1_555
H17 C29 1_555 1_555
C30 C25 1_555 1_555
H18 C30 1_555 1_555
C31 C7 1_555 1_555
H19 C31 1_555 1_555
H20 C31 1_555 1_555
C32 H21 1_555 1_555
H22 C32 1_555 1_555
C33 C32 1_555 1_555
C34 C33 1_555 1_555
H23 C34 1_555 1_555
C35 C34 1_555 1_555
H24 C35 1_555 1_555
C36 C35 1_555 1_555
H25 C36 1_555 1_555
C37 C36 1_555 1_555
H26 C37 1_555 1_555
C38 C33 1_555 1_555
H27 C38 1_555 1_555
N1 C20 1_555 1_555
O1 C1 1_555 1_555
O2 C9 1_555 1_555
C5 C6 1_555 1_555
C14 C15 1_555 1_555
C20 C21 1_555 1_555
C22 C23 1_555 1_555
C23 N1 1_555 1_555
C24 C31 1_555 1_555
C24 O1 1_555 1_555
C29 C30 1_555 1_555
C32 N1 1_555 1_555
C37 C38 1_555 1_555

#END
