
#######################################################################
#
#                 Cambridge Crystallographic Data Centre
#                                CCDC 
#
#######################################################################
#
# If this CIF has been generated from an entry in the Cambridge 
# Structural Database, then it will include bibliographic, chemical, 
# crystal, experimental, refinement or atomic coordinate data resulting 
# from the CCDC's data processing and validation procedures.
#
#######################################################################

data_QIBLOC
_chemical_name_common            
2-Amino-7,7-dimethyl-5-oxo-4-phenyl-5,6,7,8-tetrahydro-4H-chromene-3-carbonitrile
_chemical_formula_moiety         'C18 H18 N2 O2'
_chemical_name_systematic        
2-Amino-7,7-dimethyl-4-phenyl-5-oxo-4,5,6,8-tetrahydro-7H-chromene-3-carbornitrile
_symmetry_cell_setting           monoclinic
_symmetry_space_group_name_H-M   'P 21/c'
_symmetry_Int_Tables_number      14
_space_group_name_Hall           '-P 2ybc'
loop_
_symmetry_equiv_pos_site_id
_symmetry_equiv_pos_as_xyz
1 x,y,z
2 -x,1/2+y,1/2-z
3 -x,-y,-z
4 x,1/2-y,1/2+z
_cell_length_a                   11.3070(10)
_cell_length_b                   9.4750(10)
_cell_length_c                   14.919(2)
_cell_angle_alpha                90
_cell_angle_beta                 99.340(10)
_cell_angle_gamma                90
_cell_volume                     1577.14
_exptl_crystal_colour            colorless
_exptl_crystal_description       prism
_chemical_melting_point          232-233deg.C
_cell_formula_units_Z            4
_exptl_crystal_recrystallization_method ethanol
loop_
_atom_site_label
_atom_site_type_symbol
_atom_site_fract_x
_atom_site_fract_y
_atom_site_fract_z
O1 O 0.38594(9) 0.19829(12) 0.53586(7)
O2 O 0.39678(10) 0.42950(13) 0.81702(8)
N1 N -0.00294(13) 0.07976(16) 0.59525(10)
N2 N 0.24217(15) 0.06252(18) 0.46297(11)
C1 C 0.09420(14) 0.48169(19) 0.69650(12)
H1 H 0.0781 0.4273 0.7450
C2 C 0.03121(17) 0.6051(2) 0.67480(15)
H2 H -0.0275 0.6321 0.7084
C3 C 0.05366(18) 0.6873(2) 0.60535(13)
H3 H 0.0103 0.7699 0.5908
C4 C 0.1409(2) 0.6476(2) 0.55686(15)
H4 H 0.1587 0.7043 0.5100
C5 C 0.2025(2) 0.5232(2) 0.57764(13)
H5 H 0.2606 0.4962 0.5435
C6 C 0.18021(13) 0.43816(17) 0.64756(10)
C7 C 0.24657(13) 0.29886(15) 0.66897(10)
H6 H 0.2291 0.2648 0.7275
C8 C 0.20547(13) 0.18659(16) 0.59795(10)
C9 C 0.27108(13) 0.14927(17) 0.53365(10)
C10 C 0.44066(13) 0.26733(15) 0.61272(10)
C11 C 0.38057(13) 0.31358(15) 0.67676(10)
C12 C 0.44793(15) 0.38037(16) 0.75796(10)
C13 C 0.58247(14) 0.3810(2) 0.76731(11)
H7 H 0.6132 0.2940 0.7965
H8 H 0.6136 0.4585 0.8067
C14 C 0.62930(14) 0.39550(18) 0.67704(11)
C15 C 0.57150(13) 0.28023(17) 0.61307(11)
H9 H 0.5853 0.3008 0.5519
H10 H 0.6096 0.1907 0.6312
C16 C 0.09006(14) 0.12739(17) 0.59504(10)
C17 C 0.59603(18) 0.5406(2) 0.63562(14)
H11 H 0.5105 0.5515 0.6259
H12 H 0.6246 0.5487 0.5787
H13 H 0.6321 0.6128 0.6763
C18 C 0.76479(16) 0.3782(3) 0.69277(15)
H14 H 0.7855 0.2872 0.7189
H15 H 0.8007 0.4504 0.7334
H16 H 0.7936 0.3860 0.6359
H17 H 0.2899(17) 0.056(2) 0.4222(13)
H18 H 0.1700(16) 0.0265(18) 0.4520(11)
loop_
_geom_bond_atom_site_label_1
_geom_bond_atom_site_label_2
_geom_bond_site_symmetry_1
_geom_bond_site_symmetry_2
O1 C9 1_555 1_555
O2 C12 1_555 1_555
N1 C16 1_555 1_555
N2 C9 1_555 1_555
C1 H1 1_555 1_555
C2 C1 1_555 1_555
H2 C2 1_555 1_555
C3 C2 1_555 1_555
H3 C3 1_555 1_555
C4 C3 1_555 1_555
H4 C4 1_555 1_555
C5 C4 1_555 1_555
H5 C5 1_555 1_555
C6 C1 1_555 1_555
C7 C6 1_555 1_555
H6 C7 1_555 1_555
C8 C7 1_555 1_555
C9 C8 1_555 1_555
C10 O1 1_555 1_555
C11 C7 1_555 1_555
C12 C11 1_555 1_555
C13 C12 1_555 1_555
H7 C13 1_555 1_555
H8 C13 1_555 1_555
C14 C13 1_555 1_555
C15 C10 1_555 1_555
H9 C15 1_555 1_555
H10 C15 1_555 1_555
C16 C8 1_555 1_555
C17 C14 1_555 1_555
H11 C17 1_555 1_555
H12 C17 1_555 1_555
H13 C17 1_555 1_555
C18 C14 1_555 1_555
H14 C18 1_555 1_555
H15 C18 1_555 1_555
H16 C18 1_555 1_555
H17 N2 1_555 1_555
H18 N2 1_555 1_555
C5 C6 1_555 1_555
C10 C11 1_555 1_555
C14 C15 1_555 1_555

#END
