
#######################################################################
#
#                 Cambridge Crystallographic Data Centre
#                                CCDC 
#
#######################################################################
#
# If this CIF has been generated from an entry in the Cambridge 
# Structural Database, then it will include bibliographic, chemical, 
# crystal, experimental, refinement or atomic coordinate data resulting 
# from the CCDC's data processing and validation procedures.
#
#######################################################################

data_QIBMOD
_chemical_name_common            
3,5,15,17-Tetrathia-7,13,24,25-tetra-aza-10-oxatetracyclo-[17.3.1.1$4,7!.1$13,16!]-pentacosa-1(23),4(24),16(25),19,21-pentaene-6,14-dione
_chemical_formula_moiety         'C16 H16 N4 O3 S4'
_chemical_name_systematic        
1,5-(5,5'-(1,3-phenylenedimethylenedithio)bis(2,3-dihydro-2-oxo-1,3,4-thiadiazol-3-yl))-3-oxapentane
_symmetry_cell_setting           monoclinic
_symmetry_space_group_name_H-M   'P 21/c'
_symmetry_Int_Tables_number      14
_space_group_name_Hall           '-P 2ybc'
loop_
_symmetry_equiv_pos_site_id
_symmetry_equiv_pos_as_xyz
1 x,y,z
2 x,1/2-y,1/2+z
3 -x,-y,-z
4 -x,1/2+y,1/2-z
_cell_length_a                   16.827(2)
_cell_length_b                   14.1071(16)
_cell_length_c                   16.760(4)
_cell_angle_alpha                90
_cell_angle_beta                 93.950(16)
_cell_angle_gamma                90
_cell_volume                     3969.04
_exptl_crystal_colour            'light brown'
_exptl_crystal_description       plate
_cell_formula_units_Z            8
loop_
_atom_site_label
_atom_site_type_symbol
_atom_site_fract_x
_atom_site_fract_y
_atom_site_fract_z
C1 C 0.9779(3) 0.8437(4) 0.3458(3)
H1 H 0.9569 0.8534 0.3976
H2 H 1.0309 0.8710 0.3475
C2 C 0.9832(3) 0.7395(4) 0.3298(3)
H3 H 0.9945 0.7286 0.2745
H4 H 1.0257 0.7115 0.3640
O1 O 0.90958(18) 0.6985(2) 0.34540(18)
C3 C 0.9014(3) 0.6031(3) 0.3213(3)
H5 H 0.9403 0.5639 0.3513
H6 H 0.9096 0.5970 0.2648
C4 C 0.8184(3) 0.5731(3) 0.3375(3)
H7 H 0.8109 0.5068 0.3234
H8 H 0.8108 0.5800 0.3940
N1 N 0.7600(2) 0.6306(3) 0.2911(2)
C5 C 0.7144(3) 0.6972(4) 0.3227(3)
S1 S 0.66391(8) 0.75875(11) 0.24110(8)
C6 C 0.7106(3) 0.6848(3) 0.1758(3)
S2 S 0.69014(8) 0.70025(10) 0.07307(7)
C7 C 0.7601(3) 0.6182(3) 0.0326(3)
H9 H 0.7506 0.5554 0.0536
H10 H 0.7497 0.6155 -0.0250
C8 C 0.8464(3) 0.6430(3) 0.0510(2)
C9 C 0.8998(3) 0.5740(4) 0.0772(3)
H11 H 0.8823 0.5122 0.0842
C10 C 0.9785(4) 0.5957(4) 0.0930(4)
H12 H 1.0144 0.5485 0.1098
C11 C 1.0049(3) 0.6879(4) 0.0842(3)
H13 H 1.0581 0.7025 0.0970
C12 C 0.9533(3) 0.7575(3) 0.0568(2)
C13 C 0.9845(3) 0.8556(3) 0.0443(3)
H14 H 1.0015 0.8599 -0.0097
H15 H 1.0312 0.8651 0.0807
S3 S 0.91533(8) 0.95059(9) 0.05893(7)
C14 C 0.9015(3) 0.9344(3) 0.1604(3)
S4 S 0.81373(9) 0.96650(12) 0.20013(9)
C15 C 0.8530(4) 0.9240(4) 0.2954(3)
N2 N 0.9270(3) 0.8918(3) 0.2847(2)
N3 N 0.9545(2) 0.8971(3) 0.2091(2)
N4 N 0.7585(2) 0.6232(3) 0.2083(2)
O2 O 0.7076(2) 0.7125(3) 0.3933(2)
O3 O 0.8193(3) 0.9255(3) 0.3567(2)
C16 C 0.8746(3) 0.7340(3) 0.0394(2)
H16 H 0.8394 0.7803 0.0192
C17 C 0.4713(3) 0.8310(4) 0.1179(3)
H17 H 0.4569 0.8472 0.1713
H18 H 0.5286 0.8383 0.1166
C18 C 0.4492(3) 0.7300(4) 0.1004(3)
H19 H 0.4591 0.7144 0.0455
H20 H 0.4808 0.6879 0.1356
O4 O 0.3676(2) 0.7192(3) 0.1124(2)
C19 C 0.3376(4) 0.6275(4) 0.0969(3)
H21 H 0.3566 0.5844 0.1391
H22 H 0.3551 0.6042 0.0465
C20 C 0.2481(3) 0.6335(4) 0.0932(3)
H23 H 0.2254 0.5706 0.0860
H24 H 0.2312 0.6594 0.1429
N5 N 0.2202(2) 0.6938(3) 0.0269(2)
C21 C 0.2022(3) 0.7869(4) 0.0352(3)
S5 S 0.18850(9) 0.83401(10) -0.06286(8)
C22 C 0.2051(3) 0.7236(4) -0.1019(3)
S6 S 0.19962(8) 0.70638(11) -0.20473(8)
C23 C 0.27612(19) 0.6185(2) -0.21458(17)
H25 H 0.2607 0.5611 -0.1878
H26 H 0.2786 0.6037 -0.2709
C24 C 0.35807(19) 0.6468(2) -0.18132(17)
C25 C 0.40722(19) 0.5802(2) -0.14189(17)
H27 H 0.3894 0.5187 -0.1341
C26 C 0.4820(4) 0.6070(5) -0.1149(4)
H28 H 0.5152 0.5621 -0.0891
C27 C 0.5109(3) 0.6974(5) -0.1240(3)
H29 H 0.5621 0.7138 -0.1042
C28 C 0.4614(3) 0.7636(4) -0.1636(3)
C29 C 0.4913(3) 0.8626(4) -0.1757(3)
H30 H 0.5099 0.8670 -0.2291
H31 H 0.5366 0.8736 -0.1380
S7 S 0.41895(9) 0.95576(10) -0.16392(8)
C30 C 0.4096(3) 0.9471(4) -0.0612(3)
S8 S 0.34723(8) 1.02134(10) -0.01205(8)
C31 C 0.3789(3) 0.9635(4) 0.0796(3)
N6 N 0.4318(2) 0.8954(3) 0.0607(2)
N7 N 0.4498(2) 0.8871(3) -0.0177(2)
N8 N 0.2217(2) 0.6583(3) -0.0495(2)
O5 O 0.1957(2) 0.8305(3) 0.0971(2)
O6 O 0.3582(2) 0.9832(3) 0.1449(2)
C32 C 0.3866(3) 0.7372(4) -0.1920(3)
H32 H 0.3540 0.7815 -0.2192
loop_
_geom_bond_atom_site_label_1
_geom_bond_atom_site_label_2
_geom_bond_site_symmetry_1
_geom_bond_site_symmetry_2
C1 H1 1_555 1_555
H2 C1 1_555 1_555
C2 C1 1_555 1_555
H3 C2 1_555 1_555
H4 C2 1_555 1_555
O1 C2 1_555 1_555
C3 O1 1_555 1_555
H5 C3 1_555 1_555
H6 C3 1_555 1_555
C4 C3 1_555 1_555
H7 C4 1_555 1_555
H8 C4 1_555 1_555
N1 C4 1_555 1_555
C5 N1 1_555 1_555
S1 C5 1_555 1_555
C6 S1 1_555 1_555
S2 C6 1_555 1_555
C7 S2 1_555 1_555
H9 C7 1_555 1_555
H10 C7 1_555 1_555
C8 C7 1_555 1_555
C9 C8 1_555 1_555
H11 C9 1_555 1_555
C10 C9 1_555 1_555
H12 C10 1_555 1_555
C11 C10 1_555 1_555
H13 C11 1_555 1_555
C12 C11 1_555 1_555
C13 C12 1_555 1_555
H14 C13 1_555 1_555
H15 C13 1_555 1_555
S3 C13 1_555 1_555
C14 S3 1_555 1_555
S4 C14 1_555 1_555
C15 S4 1_555 1_555
N2 C1 1_555 1_555
N3 C14 1_555 1_555
N4 N1 1_555 1_555
O2 C5 1_555 1_555
O3 C15 1_555 1_555
C16 C8 1_555 1_555
H16 C16 1_555 1_555
C17 H17 1_555 1_555
H18 C17 1_555 1_555
C18 C17 1_555 1_555
H19 C18 1_555 1_555
H20 C18 1_555 1_555
O4 C18 1_555 1_555
C19 O4 1_555 1_555
H21 C19 1_555 1_555
H22 C19 1_555 1_555
C20 C19 1_555 1_555
H23 C20 1_555 1_555
H24 C20 1_555 1_555
N5 C20 1_555 1_555
C21 N5 1_555 1_555
S5 C21 1_555 1_555
C22 S5 1_555 1_555
S6 C22 1_555 1_555
C23 S6 1_555 1_555
H25 C23 1_555 1_555
H26 C23 1_555 1_555
C24 C23 1_555 1_555
C25 C24 1_555 1_555
H27 C25 1_555 1_555
C26 C25 1_555 1_555
H28 C26 1_555 1_555
C27 C26 1_555 1_555
H29 C27 1_555 1_555
C28 C27 1_555 1_555
C29 C28 1_555 1_555
H30 C29 1_555 1_555
H31 C29 1_555 1_555
S7 C29 1_555 1_555
C30 S7 1_555 1_555
S8 C30 1_555 1_555
C31 S8 1_555 1_555
N6 C17 1_555 1_555
N7 C30 1_555 1_555
N8 N5 1_555 1_555
O5 C21 1_555 1_555
O6 C31 1_555 1_555
C32 C24 1_555 1_555
H32 C32 1_555 1_555
C6 N4 1_555 1_555
C12 C16 1_555 1_555
C15 N2 1_555 1_555
N2 N3 1_555 1_555
C22 N8 1_555 1_555
C28 C32 1_555 1_555
C31 N6 1_555 1_555
N6 N7 1_555 1_555

#END
