
#######################################################################
#
#                 Cambridge Crystallographic Data Centre
#                                CCDC 
#
#######################################################################
#
# If this CIF has been generated from an entry in the Cambridge 
# Structural Database, then it will include bibliographic, chemical, 
# crystal, experimental, refinement or atomic coordinate data resulting 
# from the CCDC's data processing and validation procedures.
#
#######################################################################

data_QIBQOH
_chemical_formula_moiety         'C14 H14 O2 S1'
_chemical_name_systematic        'bis(p-Tolyl) sulfone'
_symmetry_cell_setting           monoclinic
_symmetry_space_group_name_H-M   'P 21/c'
_symmetry_Int_Tables_number      14
_space_group_name_Hall           '-P 2ybc'
loop_
_symmetry_equiv_pos_site_id
_symmetry_equiv_pos_as_xyz
1 x,y,z
2 x,1/2-y,1/2+z
3 -x,-y,-z
4 -x,1/2+y,1/2-z
_cell_length_a                   14.1773(7)
_cell_length_b                   7.7437(4)
_cell_length_c                   24.0161(12)
_cell_angle_alpha                90
_cell_angle_beta                 101.2050(10)
_cell_angle_gamma                90
_cell_volume                     2586.34
_exptl_crystal_colour            colorless
_exptl_crystal_description       needle
_cell_formula_units_Z            8
_exptl_crystal_recrystallization_method ethanol
loop_
_atom_site_label
_atom_site_type_symbol
_atom_site_fract_x
_atom_site_fract_y
_atom_site_fract_z
S1 S 0.24013(4) 0.87124(8) 0.34337(2)
O1 O 0.25425(12) 0.9434(2) 0.39953(6)
O2 O 0.18549(12) 0.7149(2) 0.33154(7)
C1 C 0.35449(15) 0.8367(2) 0.32655(8)
C2 C 0.36334(17) 0.7421(3) 0.27882(9)
C3 C 0.45260(19) 0.7146(3) 0.26651(10)
C4 C 0.53513(18) 0.7763(3) 0.30085(11)
C5 C 0.52521(17) 0.8694(3) 0.34834(10)
C6 C 0.43592(17) 0.9014(3) 0.36107(9)
C7 C 0.63242(19) 0.7456(4) 0.28665(13)
C8 C 0.18541(14) 1.0286(3) 0.29492(8)
C9 C 0.13688(16) 0.9823(3) 0.24176(10)
C10 C 0.09612(17) 1.1078(4) 0.20416(10)
C11 C 0.10220(16) 1.2799(4) 0.21773(12)
C12 C 0.14976(18) 1.3238(3) 0.27114(13)
C13 C 0.19170(16) 1.2002(3) 0.30968(10)
C14 C 0.06006(19) 1.4165(4) 0.17519(12)
H1 H 0.3089 0.6975 0.2552
H2 H 0.4576 0.6526 0.2341
H3 H 0.5798 0.9115 0.3723
H4 H 0.4308 0.9665 0.3929
H5 H 0.6804 0.8048 0.3136
H6 H 0.6330 0.7885 0.2492
H7 H 0.6460 0.6241 0.2880
H11 H 0.1316 0.8665 0.2313
H12 H 0.0634 1.0749 0.1684
H13 H 0.1539 1.4395 0.2817
H14 H 0.2241 1.2332 0.3455
H15 H -0.0061 1.3900 0.1602
H16 H 0.0952 1.4192 0.1448
H17 H 0.0644 1.5272 0.1935
S2 S 0.74507(4) 0.23084(8) 0.41418(3)
O3 O 0.74717(12) 0.2700(3) 0.35586(7)
O4 O 0.77506(12) 0.0630(2) 0.43635(8)
C15 C 0.81210(14) 0.3885(3) 0.45778(9)
C16 C 0.84830(15) 0.3531(3) 0.51413(9)
C17 C 0.89424(16) 0.4822(4) 0.54840(10)
C18 C 0.90558(16) 0.6456(4) 0.52858(12)
C19 C 0.86955(17) 0.6772(3) 0.47183(13)
C20 C 0.82273(16) 0.5516(3) 0.43639(10)
C21 C 0.95345(18) 0.7873(4) 0.56691(13)
C22 C 0.62691(15) 0.2657(2) 0.42496(9)
C23 C 0.59972(16) 0.1994(3) 0.47255(9)
C24 C 0.50825(18) 0.2346(3) 0.48208(10)
C25 C 0.44386(16) 0.3347(3) 0.44516(11)
C26 C 0.47337(18) 0.3979(3) 0.39775(11)
C27 C 0.56384(17) 0.3651(3) 0.38758(9)
C28 C 0.34563(17) 0.3725(4) 0.45697(12)
H21 H 0.8418 0.2435 0.5288
H22 H 0.9185 0.4579 0.5864
H23 H 0.8772 0.7864 0.4572
H24 H 0.7985 0.5761 0.3984
H25 H 0.9216 0.8950 0.5560
H26 H 1.0197 0.7959 0.5637
H27 H 0.9495 0.7614 0.6055
H31 H 0.6421 0.1318 0.4980
H32 H 0.4898 0.1896 0.5142
H33 H 0.4311 0.4645 0.3720
H34 H 0.5823 0.4102 0.3554
H35 H 0.3089 0.4355 0.4257
H36 H 0.3517 0.4403 0.4909
H37 H 0.3136 0.2660 0.4618
H8? H 0.6258 0.6734 0.2536
H9? H 0.6733 0.6898 0.3180
H10? H 0.6603 0.8541 0.2792
H18? H 0.1084 1.5009 0.1722
H19? H 0.0071 1.4717 0.1875
H20? H 0.0379 1.3637 0.1388
H28? H 1.0056 0.7399 0.5941
H29? H 0.9075 0.8390 0.5864
H30? H 0.9778 0.8734 0.5446
H38? H 0.3406 0.3257 0.4933
H39? H 0.2977 0.3209 0.4280
H40? H 0.3359 0.4952 0.4571
loop_
_geom_bond_atom_site_label_1
_geom_bond_atom_site_label_2
_geom_bond_site_symmetry_1
_geom_bond_site_symmetry_2
S1 O1 1_555 1_555
O2 S1 1_555 1_555
C1 S1 1_555 1_555
C2 C1 1_555 1_555
C3 C2 1_555 1_555
C4 C3 1_555 1_555
C5 C4 1_555 1_555
C6 C1 1_555 1_555
C7 C4 1_555 1_555
C8 S1 1_555 1_555
C9 C8 1_555 1_555
C10 C9 1_555 1_555
C11 C10 1_555 1_555
C12 C11 1_555 1_555
C13 C8 1_555 1_555
C14 C11 1_555 1_555
S2 O3 1_555 1_555
O4 S2 1_555 1_555
C15 S2 1_555 1_555
C16 C15 1_555 1_555
C17 C16 1_555 1_555
C18 C17 1_555 1_555
C19 C18 1_555 1_555
C20 C15 1_555 1_555
C21 C18 1_555 1_555
C22 S2 1_555 1_555
C23 C22 1_555 1_555
C24 C23 1_555 1_555
C25 C24 1_555 1_555
C26 C25 1_555 1_555
C27 C22 1_555 1_555
C28 C25 1_555 1_555
H1 C2 1_555 1_555
H2 C3 1_555 1_555
H3 C5 1_555 1_555
H4 C6 1_555 1_555
H5 C7 1_555 1_555
H6 C7 1_555 1_555
H7 C7 1_555 1_555
H11 C9 1_555 1_555
H12 C10 1_555 1_555
H13 C12 1_555 1_555
H14 C13 1_555 1_555
H15 C14 1_555 1_555
H16 C14 1_555 1_555
H17 C14 1_555 1_555
H21 C16 1_555 1_555
H22 C17 1_555 1_555
H23 C19 1_555 1_555
H24 C20 1_555 1_555
H25 C21 1_555 1_555
H26 C21 1_555 1_555
H27 C21 1_555 1_555
H31 C23 1_555 1_555
H32 C24 1_555 1_555
H33 C26 1_555 1_555
H34 C27 1_555 1_555
H35 C28 1_555 1_555
H36 C28 1_555 1_555
H37 C28 1_555 1_555
C5 C6 1_555 1_555
C12 C13 1_555 1_555
C19 C20 1_555 1_555
C26 C27 1_555 1_555

#END
