
#######################################################################
#
#                 Cambridge Crystallographic Data Centre
#                                CCDC 
#
#######################################################################
#
# If this CIF has been generated from an entry in the Cambridge 
# Structural Database, then it will include bibliographic, chemical, 
# crystal, experimental, refinement or atomic coordinate data resulting 
# from the CCDC's data processing and validation procedures.
#
#######################################################################

data_QIBREY
_chemical_formula_moiety         'C14 H13 Cl1 O2 S1'
_chemical_name_systematic        '3,4-Dimethylphenyl 4-chlorophenyl sulfone'
_symmetry_cell_setting           monoclinic
_symmetry_space_group_name_H-M   'P 21/n'
_symmetry_Int_Tables_number      14
_space_group_name_Hall           '-P 2yn'
loop_
_symmetry_equiv_pos_site_id
_symmetry_equiv_pos_as_xyz
1 x,y,z
2 1/2+x,1/2-y,1/2+z
3 -x,-y,-z
4 1/2-x,1/2+y,1/2-z
_cell_length_a                   12.9682(14)
_cell_length_b                   7.5293(12)
_cell_length_c                   14.4627(17)
_cell_angle_alpha                90
_cell_angle_beta                 110.625(7)
_cell_angle_gamma                90
_cell_volume                     1321.65
_exptl_crystal_colour            colorless
_exptl_crystal_description       block
_chemical_melting_point          '343-344 K'
_cell_formula_units_Z            4
_exptl_crystal_recrystallization_method ethanol
loop_
_atom_site_label
_atom_site_type_symbol
_atom_site_fract_x
_atom_site_fract_y
_atom_site_fract_z
S1 S 0.64115(7) 0.17336(16) 0.84103(7)
O1 O 0.6176(2) 0.3456(4) 0.87187(19)
O2 O 0.74906(17) 0.0979(4) 0.88738(17)
C1 C 0.6138(3) 0.1842(5) 0.7133(2)
C2 C 0.5246(3) 0.2793(6) 0.6537(3)
H1 H 0.4785 0.3401 0.6819
C3 C 0.5015(3) 0.2870(6) 0.5527(3)
H2 H 0.4394 0.3510 0.5109
C4 C 0.5703(3) 0.2002(6) 0.5142(2)
Cl1 Cl 0.54225(8) 0.21027(17) 0.38745(7)
C5 C 0.6595(3) 0.1037(6) 0.5717(3)
H3 H 0.7054 0.0441 0.5430
C6 C 0.6816(3) 0.0947(6) 0.6732(3)
H4 H 0.7426 0.0279 0.7145
C7 C 0.5443(3) 0.0221(6) 0.8552(2)
C8 C 0.4469(3) 0.0854(6) 0.8613(2)
H5 H 0.4336 0.2097 0.8588
C9 C 0.3672(3) -0.0319(7) 0.8711(2)
C10 C 0.2618(3) 0.0406(8) 0.8757(3)
H6 H 0.1996 -0.0082 0.8211
H7 H 0.2619 0.1704 0.8702
H8 H 0.2548 0.0073 0.9387
C11 C 0.3885(3) -0.2130(7) 0.8747(2)
C12 C 0.3031(4) -0.3431(7) 0.8836(3)
H9 H 0.2860 -0.3156 0.9429
H10 H 0.3321 -0.4642 0.8884
H11 H 0.2359 -0.3334 0.8251
C13 C 0.4869(4) -0.2747(7) 0.8702(3)
H12 H 0.5011 -0.3987 0.8740
C14 C 0.5656(3) -0.1583(7) 0.8602(2)
H13 H 0.6329 -0.2020 0.8567
loop_
_geom_bond_atom_site_label_1
_geom_bond_atom_site_label_2
_geom_bond_site_symmetry_1
_geom_bond_site_symmetry_2
S1 O1 1_555 1_555
O2 S1 1_555 1_555
C1 S1 1_555 1_555
C2 C1 1_555 1_555
H1 C2 1_555 1_555
C3 C2 1_555 1_555
H2 C3 1_555 1_555
C4 C3 1_555 1_555
Cl1 C4 1_555 1_555
C5 C4 1_555 1_555
H3 C5 1_555 1_555
C6 C1 1_555 1_555
H4 C6 1_555 1_555
C7 S1 1_555 1_555
C8 C7 1_555 1_555
H5 C8 1_555 1_555
C9 C8 1_555 1_555
C10 C9 1_555 1_555
H6 C10 1_555 1_555
H7 C10 1_555 1_555
H8 C10 1_555 1_555
C11 C9 1_555 1_555
C12 C11 1_555 1_555
H9 C12 1_555 1_555
H10 C12 1_555 1_555
H11 C12 1_555 1_555
C13 C11 1_555 1_555
H12 C13 1_555 1_555
C14 C7 1_555 1_555
H13 C14 1_555 1_555
C5 C6 1_555 1_555
C13 C14 1_555 1_555

#END
