
#######################################################################
#
#                 Cambridge Crystallographic Data Centre
#                                CCDC 
#
#######################################################################
#
# If this CIF has been generated from an entry in the Cambridge 
# Structural Database, then it will include bibliographic, chemical, 
# crystal, experimental, refinement or atomic coordinate data resulting 
# from the CCDC's data processing and validation procedures.
#
#######################################################################

data_QIBRID
_chemical_formula_moiety         'C14 H14 O4'
_chemical_name_systematic        
'Hydroxy(2-oxocyclopent-3-enyl)phenylacetic acid methyl ester'
_symmetry_cell_setting           monoclinic
_symmetry_space_group_name_H-M   'P 21/c'
_symmetry_Int_Tables_number      14
_space_group_name_Hall           '-P 2ybc'
loop_
_symmetry_equiv_pos_site_id
_symmetry_equiv_pos_as_xyz
1 x,y,z
2 -x,1/2+y,1/2-z
3 -x,-y,-z
4 x,1/2-y,1/2+z
_cell_length_a                   11.754(2)
_cell_length_b                   13.036(3)
_cell_length_c                   8.5406(18)
_cell_angle_alpha                90
_cell_angle_beta                 109.143(5)
_cell_angle_gamma                90
_cell_volume                     1236.27
_exptl_crystal_colour            colorless
_chemical_melting_point          102-103deg.C
_cell_formula_units_Z            4
loop_
_atom_site_label
_atom_site_type_symbol
_atom_site_fract_x
_atom_site_fract_y
_atom_site_fract_z
O1 O 0.88345(19) 1.06779(15) 1.2615(2)
O2 O 0.66264(18) 0.91213(14) 1.0276(2)
O3 O 0.59967(18) 1.10881(14) 0.9937(2)
O4 O 0.75547(16) 1.15054(14) 0.9108(2)
C1 C 0.8984(2) 0.9849(2) 1.2057(3)
C2 C 0.9634(3) 0.8972(3) 1.2989(5)
C3 C 0.9621(3) 0.8215(3) 1.1966(4)
C4 C 0.8949(3) 0.8450(2) 1.0209(4)
H1 H 0.8258 0.8000 0.9785
H2 H 0.9462 0.8376 0.9529
C5 C 0.8550(2) 0.9563(2) 1.0236(3)
C6 C 0.7200(2) 0.97351(19) 0.9399(3)
C7 C 0.6831(2) 0.94500(19) 0.7571(3)
C8 C 0.5959(3) 0.8721(2) 0.6908(4)
C9 C 0.5663(4) 0.8428(3) 0.5284(4)
C10 C 0.6201(4) 0.8857(2) 0.4268(4)
C11 C 0.7046(4) 0.9590(3) 0.4882(4)
C12 C 0.7364(3) 0.9889(3) 0.6521(4)
C13 C 0.6839(2) 1.0855(2) 0.9540(3)
C14 C 0.7278(3) 1.2583(2) 0.9156(4)
H3 H 0.6459 1.2705 0.8477
H4 H 0.7808 1.2979 0.8745
H5 H 0.7383 1.2782 1.0277
H6 H 0.897(2) 0.994(2) 0.967(3)
H7 H 0.560(3) 0.844(3) 0.758(4)
H8 H 0.747(3) 0.995(2) 0.426(3)
H9 H 0.598(3) 0.867(2) 0.318(4)
H10 H 0.999(3) 0.901(2) 1.417(4)
H11 H 0.587(2) 0.924(3) 1.011(5)
H12 H 0.994(3) 0.753(3) 1.227(3)
H13 H 0.800(3) 1.041(2) 0.697(3)
H14 H 0.506(3) 0.787(3) 0.484(4)
loop_
_geom_bond_atom_site_label_1
_geom_bond_atom_site_label_2
_geom_bond_site_symmetry_1
_geom_bond_site_symmetry_2
O1 C1 1_555 1_555
O2 C6 1_555 1_555
O3 C13 1_555 1_555
O4 C13 1_555 1_555
C1 C2 1_555 1_555
C2 C3 1_555 1_555
C3 C4 1_555 1_555
C4 H1 1_555 1_555
H2 C4 1_555 1_555
C5 C1 1_555 1_555
C6 C5 1_555 1_555
C7 C6 1_555 1_555
C8 C7 1_555 1_555
C9 C8 1_555 1_555
C10 C9 1_555 1_555
C11 C10 1_555 1_555
C12 C7 1_555 1_555
C13 C6 1_555 1_555
C14 O4 1_555 1_555
H3 C14 1_555 1_555
H4 C14 1_555 1_555
H5 C14 1_555 1_555
H6 C5 1_555 1_555
H7 C8 1_555 1_555
H8 C11 1_555 1_555
H9 C10 1_555 1_555
H10 C2 1_555 1_555
H11 O2 1_555 1_555
H12 C3 1_555 1_555
H13 C12 1_555 1_555
H14 C9 1_555 1_555
C4 C5 1_555 1_555
C11 C12 1_555 1_555

#END
