
#######################################################################
#
#                 Cambridge Crystallographic Data Centre
#                                CCDC 
#
#######################################################################
#
# If this CIF has been generated from an entry in the Cambridge 
# Structural Database, then it will include bibliographic, chemical, 
# crystal, experimental, refinement or atomic coordinate data resulting 
# from the CCDC's data processing and validation procedures.
#
#######################################################################

data_QIBVEF
_chemical_formula_moiety         'C18 H19 N1 O2'
_chemical_name_systematic        
1-(benzyloxy)-3-methyl-5-phenylpyrrolidin-2-one
_symmetry_cell_setting           monoclinic
_symmetry_space_group_name_H-M   'P 21/n'
_symmetry_Int_Tables_number      14
_space_group_name_Hall           '-P 2yn'
loop_
_symmetry_equiv_pos_site_id
_symmetry_equiv_pos_as_xyz
1 x,y,z
2 1/2-x,1/2+y,1/2-z
3 -x,-y,-z
4 1/2+x,1/2-y,1/2+z
_cell_length_a                   5.4408(4)
_cell_length_b                   10.1935(9)
_cell_length_c                   27.458(2)
_cell_angle_alpha                90
_cell_angle_beta                 91.789(8)
_cell_angle_gamma                90
_cell_volume                     1522.1
_exptl_crystal_colour            colorless
_exptl_crystal_description       needle
_cell_formula_units_Z            4
loop_
_atom_site_label
_atom_site_type_symbol
_atom_site_fract_x
_atom_site_fract_y
_atom_site_fract_z
O1 O 0.2313(4) 0.4902(2) 0.22817(9)
O2 O 0.0169(4) 0.55435(19) 0.13685(7)
N1 N -0.0388(5) 0.6116(2) 0.18150(9)
C1 C -0.0941(5) 0.8909(3) 0.14569(12)
H1 H 0.0399 0.8860 0.1675
C2 C -0.1060(6) 0.9903(3) 0.11206(13)
H2 H 0.0197 1.0519 0.1112
C3 C -0.3025(7) 0.9994(3) 0.07958(13)
H3 H -0.3100 1.0668 0.0567
C4 C -0.4865(6) 0.9090(4) 0.08111(13)
H4 H -0.6204 0.9153 0.0594
C5 C -0.4759(6) 0.8078(3) 0.11472(12)
H5 H -0.6018 0.7462 0.1152
C6 C -0.2780(5) 0.7978(3) 0.14768(11)
C7 C -0.2670(6) 0.6881(3) 0.18438(11)
H6 H -0.4100 0.6305 0.1797
C8 C -0.2431(6) 0.7322(3) 0.23809(11)
H7 H -0.1590 0.8159 0.2408
H8 H -0.4038 0.7405 0.2521
C9 C -0.0934(6) 0.6245(3) 0.26382(12)
H9 H -0.2091 0.5568 0.2739
C10 C 0.0582(6) 0.5664(3) 0.22383(12)
C11 C 0.0558(7) 0.6649(4) 0.30820(12)
H10 H 0.1598 0.5935 0.3186
H11 H -0.0524 0.6876 0.3338
H12 H 0.1554 0.7394 0.3005
C12 C -0.1026(7) 0.4274(3) 0.13212(12)
H13 H -0.2770 0.4359 0.1377
H14 H -0.0324 0.3665 0.1559
C13 C -0.0641(6) 0.3782(3) 0.08186(12)
C14 C 0.1391(6) 0.3040(3) 0.07163(13)
H15 H 0.2554 0.2854 0.0962
C15 C 0.1710(6) 0.2574(3) 0.02542(14)
H16 H 0.3084 0.2065 0.0191
C16 C 0.0063(7) 0.2840(3) -0.01122(13)
H17 H 0.0305 0.2524 -0.0425
C17 C -0.1938(7) 0.3572(4) -0.00183(14)
H18 H -0.3079 0.3760 -0.0268
C18 C -0.2300(6) 0.4043(3) 0.04468(14)
H19 H -0.3687 0.4543 0.0507
loop_
_geom_bond_atom_site_label_1
_geom_bond_atom_site_label_2
_geom_bond_site_symmetry_1
_geom_bond_site_symmetry_2
O1 C10 1_555 1_555
O2 N1 1_555 1_555
N1 C7 1_555 1_555
C1 H1 1_555 1_555
C2 C1 1_555 1_555
H2 C2 1_555 1_555
C3 C2 1_555 1_555
H3 C3 1_555 1_555
C4 C3 1_555 1_555
H4 C4 1_555 1_555
C5 C4 1_555 1_555
H5 C5 1_555 1_555
C6 C1 1_555 1_555
C7 C6 1_555 1_555
H6 C7 1_555 1_555
C8 C7 1_555 1_555
H7 C8 1_555 1_555
H8 C8 1_555 1_555
C9 C8 1_555 1_555
H9 C9 1_555 1_555
C10 N1 1_555 1_555
C11 C9 1_555 1_555
H10 C11 1_555 1_555
H11 C11 1_555 1_555
H12 C11 1_555 1_555
C12 O2 1_555 1_555
H13 C12 1_555 1_555
H14 C12 1_555 1_555
C13 C12 1_555 1_555
C14 C13 1_555 1_555
H15 C14 1_555 1_555
C15 C14 1_555 1_555
H16 C15 1_555 1_555
C16 C15 1_555 1_555
H17 C16 1_555 1_555
C17 C16 1_555 1_555
H18 C17 1_555 1_555
C18 C13 1_555 1_555
H19 C18 1_555 1_555
C5 C6 1_555 1_555
C9 C10 1_555 1_555
C17 C18 1_555 1_555

#END
