
#######################################################################
#
#                 Cambridge Crystallographic Data Centre
#                                CCDC 
#
#######################################################################
#
# If this CIF has been generated from an entry in the Cambridge 
# Structural Database, then it will include bibliographic, chemical, 
# crystal, experimental, refinement or atomic coordinate data resulting 
# from the CCDC's data processing and validation procedures.
#
#######################################################################

data_QICCOW
_chemical_formula_moiety         'C7 H7 Cl1 F3 N3 O1'
_chemical_name_systematic        
6-Chloro-3-methoxy-N-(2,2,2-trifluoroethyl)pyrazin-2-amine
_symmetry_cell_setting           orthorhombic
_symmetry_space_group_name_H-M   'P b c a'
_symmetry_Int_Tables_number      61
_space_group_name_Hall           '-P 2ac 2ab'
loop_
_symmetry_equiv_pos_site_id
_symmetry_equiv_pos_as_xyz
1 x,y,z
2 1/2+x,1/2-y,-z
3 -x,1/2+y,1/2-z
4 1/2-x,-y,1/2+z
5 -x,-y,-z
6 1/2-x,1/2+y,z
7 x,1/2-y,1/2+z
8 1/2+x,y,1/2-z
_cell_length_a                   16.3661(6)
_cell_length_b                   6.7959(2)
_cell_length_c                   33.9544(12)
_cell_angle_alpha                90
_cell_angle_beta                 90
_cell_angle_gamma                90
_cell_volume                     3776.49
_exptl_crystal_colour            colorless
_exptl_crystal_description       Needle
_cell_formula_units_Z            16
loop_
_atom_site_label
_atom_site_type_symbol
_atom_site_fract_x
_atom_site_fract_y
_atom_site_fract_z
Cl1 Cl 0.94588(2) 0.18874(6) 0.735726(12)
F1 F 0.53993(6) 0.31149(17) 0.66775(3)
F2 F 0.61570(7) 0.19637(16) 0.62118(3)
F3 F 0.66150(7) 0.42312(16) 0.65959(3)
O1 O 0.62626(7) 0.21301(19) 0.80352(3)
N1 N 0.78639(9) 0.1778(2) 0.73283(4)
N2 N 0.76623(9) 0.2275(2) 0.81401(4)
N3 N 0.64492(8) 0.1611(2) 0.72623(4)
H1 H 0.5968 0.1845 0.7368
C1 C 0.84953(10) 0.1961(2) 0.75770(5)
C2 C 0.84211(10) 0.2204(3) 0.79739(5)
H2 H 0.8895 0.2324 0.8134
C3 C 0.70392(10) 0.2092(2) 0.79052(5)
C4 C 0.71272(10) 0.1829(2) 0.74883(5)
C5 C 0.61532(12) 0.2295(3) 0.84559(5)
H3 H 0.6424 0.1188 0.8587
H4 H 0.5569 0.2274 0.8518
H5 H 0.6392 0.3534 0.8548
C6 C 0.64875(10) 0.1013(3) 0.68560(5)
H6 H 0.6162 -0.0201 0.6820
H7 H 0.7061 0.0712 0.6786
C7 C 0.61676(10) 0.2587(3) 0.65875(5)
Cl2 Cl 0.94166(3) 0.26769(6) 0.915316(12)
F4 F 0.80793(6) 0.20385(16) 1.10846(3)
F5 F 0.93306(6) 0.30451(17) 1.10560(3)
F6 F 0.88748(6) 0.09839(15) 1.06244(3)
O2 O 0.63517(7) 0.30716(18) 0.99532(3)
N4 N 0.84989(9) 0.3183(2) 0.97772(4)
N5 N 0.70341(9) 0.2611(2) 0.93599(4)
N6 N 0.77215(9) 0.3755(2) 1.03439(4)
H8 H 0.7238 0.3721 1.0457
C8 C 0.84742(11) 0.2798(2) 0.93892(5)
C9 C 0.77737(11) 0.2531(2) 0.91766(5)
H9 H 0.7803 0.2290 0.8901
C10 C 0.70410(10) 0.2971(2) 0.97365(5)
C11 C 0.77773(10) 0.3306(2) 0.99533(5)
C12 C 0.55902(10) 0.2825(3) 0.97437(5)
H10 H 0.5538 0.3858 0.9544
H11 H 0.5134 0.2917 0.9930
H12 H 0.5583 0.1533 0.9616
C13 C 0.84221(11) 0.4282(3) 1.05785(5)
H13 H 0.8287 0.5434 1.0745
H14 H 0.8880 0.4653 1.0403
C14 C 0.86782(10) 0.2591(3) 1.08369(5)
loop_
_geom_bond_atom_site_label_1
_geom_bond_atom_site_label_2
_geom_bond_site_symmetry_1
_geom_bond_site_symmetry_2
Cl1 C1 1_555 1_555
F1 C7 1_555 1_555
F2 C7 1_555 1_555
F3 C7 1_555 1_555
O1 C3 1_555 1_555
N1 C1 1_555 1_555
N2 C2 1_555 1_555
N3 H1 1_555 1_555
C1 C2 1_555 1_555
C2 H2 1_555 1_555
C3 N2 1_555 1_555
C4 N1 1_555 1_555
C5 O1 1_555 1_555
H3 C5 1_555 1_555
H4 C5 1_555 1_555
H5 C5 1_555 1_555
C6 N3 1_555 1_555
H6 C6 1_555 1_555
H7 C6 1_555 1_555
C7 C6 1_555 1_555
Cl2 C8 1_555 1_555
F4 C14 1_555 1_555
F5 C14 1_555 1_555
F6 C14 1_555 1_555
O2 C10 1_555 1_555
N4 C8 1_555 1_555
N5 C9 1_555 1_555
N6 H8 1_555 1_555
C8 C9 1_555 1_555
C9 H9 1_555 1_555
C10 N5 1_555 1_555
C11 N4 1_555 1_555
C12 O2 1_555 1_555
H10 C12 1_555 1_555
H11 C12 1_555 1_555
H12 C12 1_555 1_555
C13 N6 1_555 1_555
H13 C13 1_555 1_555
H14 C13 1_555 1_555
C14 C13 1_555 1_555
N3 C4 1_555 1_555
C3 C4 1_555 1_555
N6 C11 1_555 1_555
C10 C11 1_555 1_555

#END
