
#######################################################################
#
#                 Cambridge Crystallographic Data Centre
#                                CCDC 
#
#######################################################################
#
# If this CIF has been generated from an entry in the Cambridge 
# Structural Database, then it will include bibliographic, chemical, 
# crystal, experimental, refinement or atomic coordinate data resulting 
# from the CCDC's data processing and validation procedures.
#
#######################################################################

data_QICFOZ
_chemical_formula_moiety         'C25 H24 Cl1 N1 O5 S1'
_chemical_name_systematic        
"Methyl 1'-(4-chlorophenyl)-5,7'-dioxo-5'-(phenylsulfanyl)decahydro-3H-spiro[furan-2,4'-isoindole]-3'-carboxylate"
_symmetry_cell_setting           orthorhombic
_symmetry_space_group_name_H-M   'P 21 21 21'
_symmetry_Int_Tables_number      19
_space_group_name_Hall           'P 2ac 2ab'
loop_
_symmetry_equiv_pos_site_id
_symmetry_equiv_pos_as_xyz
1 x,y,z
2 1/2-x,-y,1/2+z
3 -x,1/2+y,1/2-z
4 1/2+x,1/2-y,-z
_cell_length_a                   10.2524(10)
_cell_length_b                   13.6597(14)
_cell_length_c                   17.1559(18)
_cell_angle_alpha                90
_cell_angle_beta                 90
_cell_angle_gamma                90
_cell_volume                     2402.59
_cell_formula_units_Z            4
loop_
_atom_site_label
_atom_site_type_symbol
_atom_site_fract_x
_atom_site_fract_y
_atom_site_fract_z
C1 C 0.76497(17) 0.70860(14) -0.07032(10)
C2 C 0.64488(19) 0.71429(15) -0.03454(12)
H1 H 0.5857 0.7626 -0.0490
C3 C 0.61321(18) 0.64750(14) 0.02310(12)
H2 H 0.5325 0.6515 0.0476
C4 C 0.70041(15) 0.57435(12) 0.04499(10)
C5 C 0.82043(17) 0.57074(14) 0.00767(11)
H3 H 0.8805 0.5229 0.0218
C6 C 0.85225(18) 0.63731(15) -0.05026(12)
H4 H 0.9325 0.6335 -0.0753
C7 C 0.66811(16) 0.50034(13) 0.10693(9)
H5 H 0.7461 0.4894 0.1388
C8 C 0.61721(14) 0.39868(12) 0.07723(9)
H6 H 0.6913 0.3542 0.0704
C9 C 0.52990(14) 0.36100(12) 0.14554(9)
H7 H 0.5716 0.3030 0.1682
C10 C 0.53665(15) 0.44521(13) 0.20625(9)
H8 H 0.6135 0.4343 0.2391
C11 C 0.54689(16) 0.41012(12) 0.00028(9)
C12 C 0.40448(17) 0.44002(14) -0.00068(9)
H9 H 0.3618 0.4069 -0.0437
H10 H 0.3995 0.5098 -0.0107
C13 C 0.32873(14) 0.41770(11) 0.07431(8)
H11 H 0.3324 0.4750 0.1086
C14 C 0.39300(14) 0.33097(11) 0.11535(8)
C15 C 0.40058(18) 0.23595(12) 0.06785(11)
H12 H 0.3300 0.2319 0.0304
H13 H 0.4832 0.2307 0.0406
C16 C 0.3878(2) 0.15737(13) 0.13051(14)
H14 H 0.3389 0.1016 0.1113
H15 H 0.4729 0.1353 0.1479
C17 C 0.31644(17) 0.20720(14) 0.19459(12)
C18 C 0.42047(17) 0.46170(14) 0.25938(9)
C19 C 0.2973(2) 0.3925(2) 0.36110(12)
H16 H 0.3051 0.4408 0.4015
H17 H 0.2854 0.3291 0.3841
H18 H 0.2237 0.4078 0.3288
C20 C 0.06966(15) 0.40884(14) 0.13298(10)
C21 C 0.0574(2) 0.49735(18) 0.17029(14)
H19 H 0.0975 0.5528 0.1499
C22 C -0.0156(2) 0.5040(2) 0.23895(16)
H20 H -0.0219 0.5636 0.2648
C23 C -0.0769(3) 0.4249(3) 0.26791(16)
H21 H -0.1257 0.4300 0.3134
C24 C -0.0673(3) 0.3375(2) 0.23047(18)
H22 H -0.1106 0.2832 0.2505
C25 C 0.0061(2) 0.32788(17) 0.16263(15)
H23 H 0.0124 0.2677 0.1376
Cl1 Cl 0.80639(5) 0.79385(4) -0.14170(3)
N1 N 0.56145(15) 0.53043(10) 0.15817(8)
H24 H 0.5858 0.5816 0.1878
O1 O 0.60380(14) 0.39589(11) -0.06068(7)
O2 O 0.34715(14) 0.52947(11) 0.25506(9)
O3 O 0.31396(10) 0.30506(8) 0.18237(6)
O4 O 0.26601(16) 0.17228(12) 0.25158(10)
O5 O 0.41438(13) 0.39232(11) 0.31432(7)
S1 S 0.15960(4) 0.39704(4) 0.04489(2)
loop_
_geom_bond_atom_site_label_1
_geom_bond_atom_site_label_2
_geom_bond_site_symmetry_1
_geom_bond_site_symmetry_2
C1 C2 1_555 1_555
C2 H1 1_555 1_555
C3 C2 1_555 1_555
H2 C3 1_555 1_555
C4 C3 1_555 1_555
C5 C4 1_555 1_555
H3 C5 1_555 1_555
C6 C1 1_555 1_555
H4 C6 1_555 1_555
C7 C4 1_555 1_555
H5 C7 1_555 1_555
C8 C7 1_555 1_555
H6 C8 1_555 1_555
C9 C8 1_555 1_555
H7 C9 1_555 1_555
C10 C9 1_555 1_555
H8 C10 1_555 1_555
C11 C8 1_555 1_555
C12 C11 1_555 1_555
H9 C12 1_555 1_555
H10 C12 1_555 1_555
C13 C12 1_555 1_555
H11 C13 1_555 1_555
C14 C9 1_555 1_555
C15 C14 1_555 1_555
H12 C15 1_555 1_555
H13 C15 1_555 1_555
C16 C15 1_555 1_555
H14 C16 1_555 1_555
H15 C16 1_555 1_555
C17 C16 1_555 1_555
C18 C10 1_555 1_555
C19 H16 1_555 1_555
H17 C19 1_555 1_555
H18 C19 1_555 1_555
C20 C21 1_555 1_555
C21 H19 1_555 1_555
C22 C21 1_555 1_555
H20 C22 1_555 1_555
C23 C22 1_555 1_555
H21 C23 1_555 1_555
C24 C23 1_555 1_555
H22 C24 1_555 1_555
C25 C20 1_555 1_555
H23 C25 1_555 1_555
Cl1 C1 1_555 1_555
N1 C7 1_555 1_555
H24 N1 1_555 1_555
O1 C11 1_555 1_555
O2 C18 1_555 1_555
O3 C14 1_555 1_555
O4 C17 1_555 1_555
O5 C18 1_555 1_555
S1 C13 1_555 1_555
C5 C6 1_555 1_555
C10 N1 1_555 1_555
C13 C14 1_555 1_555
C17 O3 1_555 1_555
C19 O5 1_555 1_555
C20 S1 1_555 1_555
C24 C25 1_555 1_555

#END
