
#######################################################################
#
#                 Cambridge Crystallographic Data Centre
#                                CCDC 
#
#######################################################################
#
# If this CIF has been generated from an entry in the Cambridge 
# Structural Database, then it will include bibliographic, chemical, 
# crystal, experimental, refinement or atomic coordinate data resulting 
# from the CCDC's data processing and validation procedures.
#
#######################################################################

data_QICHES
_chemical_formula_moiety         'C10 H9 Br2 F2 N3 O3'
_chemical_name_systematic        
1-(3,5-dibromophenyl)-N-(2,2-difluoroethyl)-2-nitro-N-nitrosoethan-1-amine
_symmetry_cell_setting           monoclinic
_symmetry_space_group_name_H-M   'P 21/n'
_symmetry_Int_Tables_number      14
_space_group_name_Hall           '-P 2yn'
loop_
_symmetry_equiv_pos_site_id
_symmetry_equiv_pos_as_xyz
1 x,y,z
2 1/2-x,1/2+y,1/2-z
3 -x,-y,-z
4 1/2+x,1/2-y,1/2+z
_cell_length_a                   8.1607(3)
_cell_length_b                   9.1666(3)
_cell_length_c                   18.2924(6)
_cell_angle_alpha                90
_cell_angle_beta                 99.944(3)
_cell_angle_gamma                90
_cell_volume                     1347.82
_exptl_crystal_colour            colorless
_exptl_crystal_description       block
_cell_formula_units_Z            4
loop_
_atom_site_label
_atom_site_type_symbol
_atom_site_fract_x
_atom_site_fract_y
_atom_site_fract_z
Br1 Br 0.67878(5) 0.85849(4) 0.52395(2)
Br2 Br 0.84230(5) 0.26042(4) 0.52011(2)
F1 F 0.5473(3) 0.5005(3) 0.10286(12)
F2 F 0.6401(3) 0.3319(2) 0.18278(13)
O1 O 0.1997(3) 0.4426(3) 0.17469(14)
O2 O 0.5134(3) 0.8161(3) 0.17726(15)
O3 O 0.0427(3) 0.6164(3) 0.20366(16)
N1 N 0.5241(4) 0.6128(3) 0.23872(16)
N2 N 0.1650(4) 0.5361(3) 0.21682(16)
N3 N 0.4441(4) 0.7339(3) 0.21652(17)
C1 C 0.5669(4) 0.6657(4) 0.40433(19)
H1 H 0.510457 0.746511 0.381816
C2 C 0.6650(4) 0.6776(4) 0.4740(2)
C3 C 0.6337(5) 0.4098(4) 0.4032(2)
H2 H 0.621460 0.318927 0.380269
C4 C 0.7509(4) 0.5587(4) 0.50872(19)
H3 H 0.819099 0.568379 0.554765
C5 C 0.7320(5) 0.4254(4) 0.4726(2)
C6 C 0.5541(4) 0.5306(4) 0.36851(19)
C7 C 0.6858(5) 0.5775(4) 0.2204(2)
H4 H 0.756703 0.538580 0.264039
H5 H 0.737117 0.666130 0.206065
C8 C 0.4527(5) 0.5172(4) 0.29041(19)
H6 H 0.458633 0.415923 0.273866
C9 C 0.2727(5) 0.5542(4) 0.2916(2)
H7 H 0.231361 0.491516 0.327105
H8 H 0.265461 0.654271 0.307982
C10 C 0.6743(5) 0.4679(4) 0.1581(2)
H9 H 0.779049 0.465820 0.138791
loop_
_geom_bond_atom_site_label_1
_geom_bond_atom_site_label_2
_geom_bond_site_symmetry_1
_geom_bond_site_symmetry_2
Br1 C2 1_555 1_555
Br2 C5 1_555 1_555
F1 C10 1_555 1_555
F2 C10 1_555 1_555
O1 N2 1_555 1_555
O2 N3 1_555 1_555
O3 N2 1_555 1_555
N1 N3 1_555 1_555
N2 C9 1_555 1_555
C1 H1 1_555 1_555
C2 C1 1_555 1_555
C3 H2 1_555 1_555
C4 C2 1_555 1_555
H3 C4 1_555 1_555
C5 C3 1_555 1_555
C6 C1 1_555 1_555
C7 N1 1_555 1_555
H4 C7 1_555 1_555
H5 C7 1_555 1_555
C8 N1 1_555 1_555
H6 C8 1_555 1_555
C9 C8 1_555 1_555
H7 C9 1_555 1_555
H8 C9 1_555 1_555
C10 C7 1_555 1_555
H9 C10 1_555 1_555
C3 C6 1_555 1_555
C4 C5 1_555 1_555
C6 C8 1_555 1_555

#END
