
#######################################################################
#
#                 Cambridge Crystallographic Data Centre
#                                CCDC 
#
#######################################################################
#
# If this CIF has been generated from an entry in the Cambridge 
# Structural Database, then it will include bibliographic, chemical, 
# crystal, experimental, refinement or atomic coordinate data resulting 
# from the CCDC's data processing and validation procedures.
#
#######################################################################

data_QICKOF
_chemical_formula_moiety         'C20 H20 F3 N1 O2'
_chemical_name_systematic        
3-phenyl-4-(pyrrolidin-1-yl)-2-(trifluoromethyl)-3,4-dihydro-2H-1-benzopyran-2-ol
_symmetry_cell_setting           monoclinic
_symmetry_space_group_name_H-M   'P 21/c'
_symmetry_Int_Tables_number      14
_space_group_name_Hall           '-P 2ybc'
loop_
_symmetry_equiv_pos_site_id
_symmetry_equiv_pos_as_xyz
1 x,y,z
2 -x,1/2+y,1/2-z
3 -x,-y,-z
4 x,1/2-y,1/2+z
_cell_length_a                   10.9292(12)
_cell_length_b                   9.2025(10)
_cell_length_c                   17.8520(19)
_cell_angle_alpha                90
_cell_angle_beta                 99.564(2)
_cell_angle_gamma                90
_cell_volume                     1770.53
_exptl_crystal_colour            colorless
_exptl_crystal_description       block
_cell_formula_units_Z            4
loop_
_atom_site_label
_atom_site_type_symbol
_atom_site_fract_x
_atom_site_fract_y
_atom_site_fract_z
O1 O 0.86657(12) 0.84541(14) 0.20379(7)
H1 H 0.8784 0.7749 0.1778
N1 N 0.75819(15) 0.94145(18) 0.31289(9)
C1 C 0.70097(17) 1.04667(19) 0.25404(10)
H2 H 0.6742 1.1327 0.2793
C2 C 0.76768(17) 1.23686(19) 0.16595(10)
C3 C 0.60356(17) 0.9229(2) 0.13263(11)
F1 F 0.88084(13) 1.07936(17) 0.04957(8)
F2 F 1.02248(11) 1.03892(18) 0.14445(8)
F3 F 0.94734(14) 0.86287(18) 0.07299(9)
C4 C 0.59057(16) 0.9836(2) 0.20209(11)
C5 C 0.91803(19) 0.9855(3) 0.10513(12)
C6 C 0.83776(19) 1.3563(2) 0.19246(13)
H3 H 0.9057 1.3439 0.2308
C7 C 0.5025(2) 0.8700(2) 0.08278(13)
H4 H 0.5138 0.8290 0.0368
C8 C 0.6683(2) 1.2595(2) 0.10779(13)
H5 H 0.6194 1.1812 0.0882
C9 C 0.3699(2) 0.9384(3) 0.16911(18)
H6 H 0.2908 0.9439 0.1817
C10 C 0.8458(2) 1.0082(3) 0.37507(11)
H7 H 0.8104 1.0951 0.3936
H8 H 0.9229 1.0336 0.3581
C11 C 0.6412(2) 1.3967(3) 0.07876(15)
H9 H 0.5743 1.4101 0.0398
C12 C 0.4705(2) 0.9911(3) 0.21900(15)
H10 H 0.4579 1.0323 0.2647
C13 C 0.7122(2) 1.5139(3) 0.10687(16)
H11 H 0.6938 1.6065 0.0873
C14 C 0.3861(2) 0.8782(3) 0.10125(17)
H12 H 0.3182 0.8429 0.0678
C15 C 0.8673(3) 0.8931(3) 0.43613(13)
H13 H 0.9444 0.8417 0.4346
H14 H 0.8708 0.9361 0.4860
C16 C 0.8103(2) 1.4923(2) 0.16399(15)
H15 H 0.8588 1.5708 0.1836
C17 C 0.7581(3) 0.7917(3) 0.41845(13)
H16 H 0.7165 0.7814 0.4621
H17 H 0.7846 0.6965 0.4042
O2 O 0.71421(12) 0.91914(15) 0.10576(7)
C18 C 0.79969(17) 1.09303(19) 0.20547(10)
H18 H 0.8768 1.1089 0.2412
C19 C 0.82265(16) 0.9597(2) 0.15710(10)
C20 C 0.6731(2) 0.8619(3) 0.35285(13)
H19 H 0.6273 0.7892 0.3202
H20 H 0.6148 0.9273 0.3710
loop_
_geom_bond_atom_site_label_1
_geom_bond_atom_site_label_2
_geom_bond_site_symmetry_1
_geom_bond_site_symmetry_2
O1 H1 1_555 1_555
N1 C1 1_555 1_555
C1 H2 1_555 1_555
C2 C6 1_555 1_555
C3 C4 1_555 1_555
F1 C5 1_555 1_555
F2 C5 1_555 1_555
F3 C5 1_555 1_555
C4 C1 1_555 1_555
C5 C19 1_555 1_555
C6 H3 1_555 1_555
C7 C3 1_555 1_555
H4 C7 1_555 1_555
C8 C2 1_555 1_555
H5 C8 1_555 1_555
C9 H6 1_555 1_555
C10 N1 1_555 1_555
H7 C10 1_555 1_555
H8 C10 1_555 1_555
C11 C8 1_555 1_555
H9 C11 1_555 1_555
C12 C4 1_555 1_555
H10 C12 1_555 1_555
C13 C11 1_555 1_555
H11 C13 1_555 1_555
C14 C7 1_555 1_555
H12 C14 1_555 1_555
C15 C10 1_555 1_555
H13 C15 1_555 1_555
H14 C15 1_555 1_555
C16 C6 1_555 1_555
H15 C16 1_555 1_555
C17 C15 1_555 1_555
H16 C17 1_555 1_555
H17 C17 1_555 1_555
O2 C3 1_555 1_555
C18 C1 1_555 1_555
H18 C18 1_555 1_555
C19 O1 1_555 1_555
C20 N1 1_555 1_555
H19 C20 1_555 1_555
H20 C20 1_555 1_555
C2 C18 1_555 1_555
C9 C12 1_555 1_555
C9 C14 1_555 1_555
C13 C16 1_555 1_555
C17 C20 1_555 1_555
O2 C19 1_555 1_555
C18 C19 1_555 1_555

#END
