
#######################################################################
#
#                 Cambridge Crystallographic Data Centre
#                                CCDC 
#
#######################################################################
#
# If this CIF has been generated from an entry in the Cambridge 
# Structural Database, then it will include bibliographic, chemical, 
# crystal, experimental, refinement or atomic coordinate data resulting 
# from the CCDC's data processing and validation procedures.
#
#######################################################################

data_QICKIZ
_chemical_formula_moiety         'C17 H13 F3 O3'
_chemical_name_systematic        
7-methoxy-3-phenyl-2-(trifluoromethyl)-2H-1-benzopyran-2-ol
_symmetry_cell_setting           monoclinic
_symmetry_space_group_name_H-M   'C 2/c'
_symmetry_Int_Tables_number      15
_space_group_name_Hall           '-C 2yn'
loop_
_symmetry_equiv_pos_site_id
_symmetry_equiv_pos_as_xyz
1 x,y,z
2 -x,y,1/2-z
3 1/2+x,1/2+y,z
4 1/2-x,1/2+y,1/2-z
5 -x,-y,-z
6 x,-y,1/2+z
7 1/2-x,1/2-y,-z
8 1/2+x,1/2-y,1/2+z
_cell_length_a                   12.6154(9)
_cell_length_b                   13.1616(9)
_cell_length_c                   18.6775(12)
_cell_angle_alpha                90
_cell_angle_beta                 105.9729(16)
_cell_angle_gamma                90
_cell_volume                     2981.46
_exptl_crystal_colour            colorless
_exptl_crystal_description       block
_cell_formula_units_Z            8
loop_
_atom_site_label
_atom_site_type_symbol
_atom_site_fract_x
_atom_site_fract_y
_atom_site_fract_z
O1 O 0.06377(11) 0.23430(11) 0.56847(7)
O2 O 0.19384(11) 0.45080(10) 0.40626(7)
O3 O 0.36214(10) 0.45874(10) 0.38084(7)
H1 H 0.3808 0.4008 0.3948
F1 F 0.28028(13) 0.60522(10) 0.28159(8)
C1 C 0.12716(13) 0.28496(13) 0.36505(9)
C2 C 0.15217(13) 0.35843(13) 0.41977(9)
C3 C 0.13235(14) 0.34565(14) 0.48809(9)
H2 H 0.1502 0.3964 0.5241
C4 C 0.15256(14) 0.30602(14) 0.29588(9)
H3 H 0.1285 0.2605 0.2567
C5 C 0.05861(16) 0.18072(15) 0.44844(11)
H4 H 0.0264 0.1206 0.4581
F2 F 0.24587(14) 0.63443(9) 0.38487(7)
C6 C 0.20898(14) 0.38788(14) 0.28548(9)
C7 C 0.07997(15) 0.19550(14) 0.38101(10)
H5 H 0.0624 0.1445 0.3452
F3 F 0.11782(12) 0.58479(11) 0.29108(8)
C8 C 0.08552(14) 0.25611(14) 0.50176(10)
C9 C 0.23679(15) 0.40225(14) 0.21387(10)
C10 C 0.24900(14) 0.46177(14) 0.34957(9)
C11 C 0.15620(18) 0.39148(17) 0.14732(11)
H6 H 0.0834 0.3816 0.1478
C12 C 0.34331(16) 0.4186(2) 0.20961(11)
H7 H 0.3999 0.4268 0.2533
C13 C 0.36703(19) 0.4231(2) 0.14231(13)
H8 H 0.4391 0.4351 0.1409
C14 C 0.22354(19) 0.57265(16) 0.32693(12)
C15 C 0.2863(2) 0.41015(18) 0.07754(12)
H9 H 0.3030 0.4116 0.0320
C16 C 0.1816(2) 0.3951(2) 0.08043(12)
H10 H 0.1258 0.3870 0.0364
C17 C 0.0726(2) 0.3143(2) 0.62109(12)
H11 H 0.0554 0.2888 0.6647
H12 H 0.1465 0.3405 0.6346
H13 H 0.0220 0.3676 0.5995
loop_
_geom_bond_atom_site_label_1
_geom_bond_atom_site_label_2
_geom_bond_site_symmetry_1
_geom_bond_site_symmetry_2
O1 C8 1_555 1_555
O2 C2 1_555 1_555
O3 H1 1_555 1_555
F1 C14 1_555 1_555
C1 C2 1_555 1_555
C2 C3 1_555 1_555
C3 H2 1_555 1_555
C4 C1 1_555 1_555
H3 C4 1_555 1_555
C5 H4 1_555 1_555
F2 C14 1_555 1_555
C6 C4 1_555 1_555
C7 C1 1_555 1_555
H5 C7 1_555 1_555
F3 C14 1_555 1_555
C8 C3 1_555 1_555
C9 C6 1_555 1_555
C10 O2 1_555 1_555
C11 C9 1_555 1_555
H6 C11 1_555 1_555
C12 C9 1_555 1_555
H7 C12 1_555 1_555
C13 C12 1_555 1_555
H8 C13 1_555 1_555
C14 C10 1_555 1_555
C15 C13 1_555 1_555
H9 C15 1_555 1_555
C16 C11 1_555 1_555
H10 C16 1_555 1_555
C17 O1 1_555 1_555
H11 C17 1_555 1_555
H12 C17 1_555 1_555
H13 C17 1_555 1_555
O3 C10 1_555 1_555
C5 C7 1_555 1_555
C5 C8 1_555 1_555
C6 C10 1_555 1_555
C15 C16 1_555 1_555

#END
