
#######################################################################
#
#                 Cambridge Crystallographic Data Centre
#                                CCDC 
#
#######################################################################
#
# If this CIF has been generated from an entry in the Cambridge 
# Structural Database, then it will include bibliographic, chemical, 
# crystal, experimental, refinement or atomic coordinate data resulting 
# from the CCDC's data processing and validation procedures.
#
#######################################################################

data_QICLAP
_chemical_formula_moiety         'C19 H27 N5 O3'
_chemical_name_systematic        
5-(R)-((1R,2S,5R)-(-)-Menthyloxy)-4-(R)-(9'-adeninyl)butyrolactone
_symmetry_cell_setting           orthorhombic
_symmetry_space_group_name_H-M   'P 21 21 21'
_symmetry_Int_Tables_number      19
_space_group_name_Hall           'P 2ac 2ab'
loop_
_symmetry_equiv_pos_site_id
_symmetry_equiv_pos_as_xyz
1 x,y,z
2 1/2-x,-y,1/2+z
3 1/2+x,1/2-y,-z
4 -x,1/2+y,1/2-z
_cell_length_a                   8.541(2)
_cell_length_b                   13.973(3)
_cell_length_c                   17.573(4)
_cell_angle_alpha                90
_cell_angle_beta                 90
_cell_angle_gamma                90
_cell_volume                     2097.22
_exptl_crystal_colour            colorless
_chemical_melting_point          197-197.5deg.C
_cell_formula_units_Z            4
_exptl_crystal_recrystallization_method acetone
loop_
_atom_site_label
_atom_site_type_symbol
_atom_site_fract_x
_atom_site_fract_y
_atom_site_fract_z
O1 O 0.5897(3) 0.2346(2) 0.1270(1)
C1 C 0.8864(7) 0.1316(4) 0.2977(3)
O2 O 0.3560(3) 0.3134(2) 0.1518(1)
C2 C 0.5217(7) 0.0462(3) 0.1825(3)
O3 O 0.1197(3) 0.2745(3) 0.1089(2)
C3 C 0.3868(6) 0.0584(4) 0.2371(3)
N1 N 0.4780(3) 0.4437(2) 0.0231(2)
C4 C 0.5586(6) -0.0592(3) 0.1708(3)
N2 N 0.7563(3) 0.4722(2) 0.0199(2)
C5 C 0.5127(4) 0.3212(2) 0.1208(2)
N3 N 0.8165(3) 0.6406(2) 0.0097(2)
C6 C 0.4872(4) 0.3413(2) 0.0367(2)
N4 N 0.6300(3) 0.7592(2) 0.0048(2)
C7 C 0.3358(3) 0.2888(2) 0.0205(2)
N5 N 0.3902(3) 0.5944(2) 0.0133(2)
C8 C 0.2536(5) 0.2902(3) 0.0955(2)
C9 C 1.0123(5) 0.2961(4) 0.3109(3)
C10 C 0.6070(4) 0.5019(2) 0.0189(2)
C11 C 0.8637(6) 0.2380(4) 0.2963(3)
C12 C 0.8502(4) 0.5477(3) 0.0148(2)
C13 C 0.7916(4) 0.2658(3) 0.2201(2)
C14 C 0.6648(4) 0.6670(2) 0.0086(2)
C15 C 0.6436(4) 0.2101(3) 0.2030(2)
C16 C 0.5521(3) 0.5932(2) 0.0129(2)
C17 C 0.6693(5) 0.1028(3) 0.2041(2)
C18 C 0.3537(4) 0.5038(3) 0.0201(2)
C19 C 0.7379(6) 0.0757(3) 0.2801(3)
loop_
_geom_bond_atom_site_label_1
_geom_bond_atom_site_label_2
_geom_bond_site_symmetry_1
_geom_bond_site_symmetry_2
O1 C5 1_555 1_555
C1 C11 1_555 1_555
O2 C5 1_555 1_555
C2 C3 1_555 1_555
O3 C8 1_555 1_555
N1 C6 1_555 1_555
C4 C2 1_555 1_555
N2 C10 1_555 1_555
C5 C6 1_555 1_555
N3 C12 1_555 1_555
C6 C7 1_555 1_555
N4 C14 1_555 1_555
C7 C8 1_555 1_555
N5 C16 1_555 1_555
C8 O2 1_555 1_555
C9 C11 1_555 1_555
C10 N1 1_555 1_555
C11 C13 1_555 1_555
C12 N2 1_555 1_555
C13 C15 1_555 1_555
C14 N3 1_555 1_555
C15 O1 1_555 1_555
C16 C10 1_555 1_555
C17 C2 1_555 1_555
C18 N1 1_555 1_555
C19 C1 1_555 1_555
N5 C18 1_555 1_555
C14 C16 1_555 1_555
C15 C17 1_555 1_555
C17 C19 1_555 1_555

#END
