
#######################################################################
#
#                 Cambridge Crystallographic Data Centre
#                                CCDC 
#
#######################################################################
#
# If this CIF has been generated from an entry in the Cambridge 
# Structural Database, then it will include bibliographic, chemical, 
# crystal, experimental, refinement or atomic coordinate data resulting 
# from the CCDC's data processing and validation procedures.
#
#######################################################################

data_QICLET
_chemical_formula_moiety         'C26 H22 Cl2 N2'
_chemical_name_systematic        
(R,S)-N,N'-Diphenyl-1,2-bis(4-chlorophenyl)-1,2-ethylenediamine
_symmetry_cell_setting           triclinic
_symmetry_space_group_name_H-M   'P -1'
_symmetry_Int_Tables_number      2
_space_group_name_Hall           '-P 1'
loop_
_symmetry_equiv_pos_site_id
_symmetry_equiv_pos_as_xyz
1 x,y,z
2 -x,-y,-z
_cell_length_a                   8.9490(6)
_cell_length_b                   9.9176(7)
_cell_length_c                   21.2549(14)
_cell_angle_alpha                79.468(1)
_cell_angle_beta                 80.542(1)
_cell_angle_gamma                64.201(1)
_cell_volume                     1662.11
_exptl_crystal_colour            white
_cell_formula_units_Z            3
_exptl_crystal_recrystallization_method ethanol/chloroform
loop_
_atom_site_label
_atom_site_type_symbol
_atom_site_fract_x
_atom_site_fract_y
_atom_site_fract_z
Cl1 Cl 0.4710(1) 0.3959(1) 0.1532(1)
Cl2 Cl -0.4907(1) 0.6992(1) 0.0058(1)
N1 N -0.2041(3) 1.0724(3) 0.1474(1)
N2 N -0.4458(3) 1.0328(3) 0.2489(1)
C1 C -0.1622(3) 0.9489(3) 0.2001(1)
C2 C -0.0002(3) 0.8142(3) 0.1860(1)
C3 C 0.0549(4) 0.7678(3) 0.1261(1)
C4 C 0.1989(4) 0.6398(3) 0.1155(1)
C5 C 0.2903(4) 0.5582(3) 0.1656(2)
C6 C 0.2416(4) 0.6023(4) 0.2262(2)
C7 C 0.0971(4) 0.7298(4) 0.2354(2)
C8 C -0.1007(3) 1.1483(3) 0.1264(2)
C9 C -0.0887(4) 1.2063(4) 0.0628(2)
C10 C 0.0067(5) 1.2869(4) 0.0413(2)
C11 C 0.0908(4) 1.3126(4) 0.0825(2)
C12 C 0.0803(4) 1.2557(4) 0.1459(2)
C13 C -0.0139(4) 1.1725(4) 0.1682(2)
C14 C -0.3115(3) 0.9063(3) 0.2211(1)
C15 C -0.3605(4) 0.8537(3) 0.1682(1)
C16 C -0.4848(4) 0.9526(4) 0.1299(2)
C17 C -0.5267(4) 0.9050(4) 0.0808(2)
C18 C -0.4431(5) 0.7578(5) 0.0692(2)
C19 C -0.3199(4) 0.6563(4) 0.1071(2)
C20 C -0.2802(4) 0.7047(3) 0.1560(2)
C21 C -0.5884(4) 1.0252(4) 0.2831(1)
C22 C -0.7205(4) 1.1593(4) 0.3004(2)
C23 C -0.8624(5) 1.1551(5) 0.3359(2)
C24 C -0.8749(5) 1.0200(7) 0.3562(2)
C25 C -0.7464(5) 0.8910(5) 0.3393(2)
C26 C -0.6054(4) 0.8913(4) 0.3030(2)
Cl3 Cl 0.2055(2) 0.5029(2) 0.4160(1)
N3 N -0.4341(4) 1.1559(4) 0.4760(2)
C27 C -0.4513(4) 1.0213(4) 0.4698(2)
C28 C -0.2867(4) 0.8925(4) 0.4552(2)
C29 C -0.1557(6) 0.8558(5) 0.4897(2)
C30 C -0.0035(6) 0.7345(6) 0.4788(2)
C31 C 0.0167(5) 0.6515(5) 0.4316(2)
C32 C -0.1127(5) 0.6844(4) 0.3956(2)
C33 C -0.2615(5) 0.8059(4) 0.4079(2)
C34 C -0.3948(4) 1.2476(4) 0.4255(2)
C35 C -0.3747(4) 1.2224(4) 0.3611(2)
C36 C -0.3388(5) 1.3209(6) 0.3145(2)
C37 C -0.3245(5) 1.4532(5) 0.3252(3)
C38 C -0.3454(6) 1.4700(5) 0.3892(3)
C39 C -0.3767(5) 1.36687(5) 0.4381(2)
C27A C -0.5487(4) 0.9787(4) 0.5302(2)
N3A N -0.5659(4) 0.8441(4) 0.5240(2)
C34A C -0.6052(4) 0.7524(4) 0.5745(2)
C35A C -0.6253(4) 0.7776(4) 0.6389(2)
C36A C -0.6612(5) 0.6791(6) 0.6855(2)
C37A C -0.6755(5) 0.5468(5) 0.6748(3)
C38A C -0.6546(6) 0.5300(5) 0.6108(3)
C39A C -0.6233(5) 0.63313(5) 0.5619(2)
C28A C -0.7133(4) 1.1075(4) 0.5448(2)
C29A C -0.8443(6) 1.1442(5) 0.5103(2)
C30A C -0.9965(6) 1.2655(6) 0.5212(2)
C31A C -1.0167(5) 1.3485(5) 0.5684(2)
Cl3A Cl -1.2055(2) 1.4971(2) 0.5840(1)
C32A C -0.8873(5) 1.3156(4) 0.6044(2)
C33A C -0.7385(5) 1.1941(4) 0.5921(2)
loop_
_geom_bond_atom_site_label_1
_geom_bond_atom_site_label_2
_geom_bond_site_symmetry_1
_geom_bond_site_symmetry_2
Cl1 C5 1_555 1_555
Cl2 C18 1_555 1_555
N1 C1 1_555 1_555
N2 C14 1_555 1_555
C1 C2 1_555 1_555
C2 C3 1_555 1_555
C3 C4 1_555 1_555
C4 C5 1_555 1_555
C5 C6 1_555 1_555
C6 C7 1_555 1_555
C7 C2 1_555 1_555
C8 N1 1_555 1_555
C9 C8 1_555 1_555
C10 C9 1_555 1_555
C11 C10 1_555 1_555
C12 C11 1_555 1_555
C13 C8 1_555 1_555
C14 C1 1_555 1_555
C15 C14 1_555 1_555
C16 C15 1_555 1_555
C17 C16 1_555 1_555
C18 C17 1_555 1_555
C19 C18 1_555 1_555
C20 C15 1_555 1_555
C21 N2 1_555 1_555
C22 C21 1_555 1_555
C23 C22 1_555 1_555
C24 C23 1_555 1_555
C25 C24 1_555 1_555
C26 C21 1_555 1_555
Cl3 C31 1_555 1_555
N3 C27 1_555 1_555
C27 C28 1_555 1_555
C28 C29 1_555 1_555
C29 C30 1_555 1_555
C30 C31 1_555 1_555
C31 C32 1_555 1_555
C32 C33 1_555 1_555
C33 C28 1_555 1_555
C34 N3 1_555 1_555
C35 C34 1_555 1_555
C36 C35 1_555 1_555
C37 C36 1_555 1_555
C38 C37 1_555 1_555
C39 C34 1_555 1_555
C27A C27 1_555 1_555
N3A C27A 1_555 1_555
C34A N3A 1_555 1_555
C35A C34A 1_555 1_555
C36A C35A 1_555 1_555
C37A C36A 1_555 1_555
C38A C37A 1_555 1_555
C39A C34A 1_555 1_555
C28A C27A 1_555 1_555
C29A C28A 1_555 1_555
C30A C29A 1_555 1_555
C31A C30A 1_555 1_555
Cl3A C31A 1_555 1_555
C32A C31A 1_555 1_555
C33A C28A 1_555 1_555
C12 C13 1_555 1_555
C19 C20 1_555 1_555
C25 C26 1_555 1_555
C38 C39 1_555 1_555
C38A C39A 1_555 1_555
C32A C33A 1_555 1_555

#END
