
#######################################################################
#
#                 Cambridge Crystallographic Data Centre
#                                CCDC 
#
#######################################################################
#
# If this CIF has been generated from an entry in the Cambridge 
# Structural Database, then it will include bibliographic, chemical, 
# crystal, experimental, refinement or atomic coordinate data resulting 
# from the CCDC's data processing and validation procedures.
#
#######################################################################

data_QICMUK
_chemical_formula_moiety         'C16 H18 N2 O6'
_chemical_name_systematic        
3-C-(1,2-O-Isopropylidene-\a-D-xylofuranos-3-yl)-5-phenyl-1,2,4-oxadiazole
_symmetry_cell_setting           orthorhombic
_symmetry_space_group_name_H-M   'P 2 21 21'
_symmetry_Int_Tables_number      18
_space_group_name_Hall           'P 2bc 2'
loop_
_symmetry_equiv_pos_site_id
_symmetry_equiv_pos_as_xyz
1 x,y,z
2 -x,1/2-y,1/2+z
3 x,-y,-z
4 -x,1/2+y,1/2-z
_cell_length_a                   6.732(2)
_cell_length_b                   15.729(1)
_cell_length_c                   31.701(1)
_cell_angle_alpha                90
_cell_angle_beta                 90
_cell_angle_gamma                90
_cell_volume                     3356.74
_chemical_melting_point          156-157deg.C
_cell_formula_units_Z            8
loop_
_atom_site_label
_atom_site_type_symbol
_atom_site_fract_x
_atom_site_fract_y
_atom_site_fract_z
O1 O 0.3017(6) 0.2261(2) 0.4009(1)
O2 O 0.1743(7) 0.0903(2) 0.3916(1)
O3 O 0.0974(6) 0.1037(2) 0.4617(1)
O4 O 0.0380(6) 0.333(2) 0.4490(1)
O5 O 0.6491(6) 0.3181(3) 0.4252(1)
O6 O 0.1901(7) 0.2605(3) 0.5756(1)
N1 N 0.2716(8) 0.2676(4) 0.5338(1)
N2 N -0.0563(7) 0.2355(3) 0.5311(1)
C1 C 0.1264(9) 0.1768(3) 0.3981(1)
C2 C 0.0282(9) 0.1792(3) 0.4418(1)
C3 C 0.1275(8) 0.2563(3) 0.4630(1)
C4 C 0.3391(8) 0.2504(4) 0.4446(1)
C5 C 0.4551(9) 0.3327(4) 0.4439(1)
C6 C 0.1180(9) 0.2525(4) 0.5102(1)
C7 C -0.0027(10) 0.2425(4) 0.5705(1)
C8 C -0.1225(10) 0.2303(4) 0.6087(1)
C9 C -0.0416(11) 0.2474(4) 0.6482(1)
C10 C -0.1664(14) 0.2369(5) 0.6838(1)
C11 C -0.3559(13) 0.2067(4) 0.6794(2)
C12 C -0.4344(12) 0.1912(5) 0.6399(2)
C13 C -0.3178(11) 0.2030(4) 0.6041(1)
C14 C 0.1274(11) 0.0405(4) 0.4291(1)
C15 C 0.3024(15) -0.0136(5) 0.4407(2)
C16 C -0.0634(14) -0.0087(5) 0.4217(2)
H1 H 0.025 0.201 0.374
H2 H -0.136 0.185 0.441
H3 H 0.426 0.202 0.461
H4 H 0.470 0.359 0.475
H5 H 0.373 0.379 0.424
H6 H 0.115 0.268 0.651
H7 H -0.107 0.251 0.716
H8 H -0.451 0.198 0.708
H9 H -0.591 0.167 0.638
H10 H -0.382 0.193 0.572
H11 H 0.334 -0.066 0.419
H12 H 0.304 -0.038 0.473
H13 H 0.414 0.024 0.439
H14 H -0.144 -0.019 0.451
H15 H -0.033 -0.072 0.408
H16 H -0.156 0.027 0.399
H17 H -0.092 0.303 0.441
H18 H 0.623 0.292 0.399
O7 O -0.7968(6) 0.3860(3) 0.8327(1)
O8 O -0.6736(6) 0.2484(2) 0.8400(1)
O9 O -0.5579(7) 0.2690(2) 0.7732(1)
O10 O -0.5188(5) 0.4970(2) 0.7897(1)
O11 O -1.1257(6) 0.4830(3) 0.8086(1)
O12 O -0.6427(7) 0.4062(3) 0.6610(1)
N3 N -0.7308(8) 0.4005(4) 0.7023(1)
N4 N -0.4044(7) 0.4331(3) 0.7071(1)
C17 C -0.6233(9) 0.3359(4) 0.8374(1)
C18 C -0.5067(9) 0.3446(3) 0.7961(1)
C19 C -0.6018(9) 0.4211(3) 0.7740(1)
C20 C -0.8192(8) 0.4133(4) 0.7891(1)
C21 C -0.9315(9) 0.4962(4) 0.7902(2)
C22 C -0.5804(9) 0.4181(4) 0.7268(1)
C23 C -0.4486(10) 0.4249(4) 0.6674(1)
C24 C -0.3266(10) 0.4374(3) 0.6302(1)
C25 C -0.1294(11) 0.4645(4) 0.6355(1)
C26 C -0.0125(12) 0.4777(5) 0.6004(2)
C27 C -0.0847(13) 0.4639(5) 0.5599(2)
C28 C -0.2780(14) 0.4365(5) 0.5549(1)
C29 C -0.4037(12) 0.4230(4) 0.5896(2)
C30 C -0.6094(10) 0.2029(4) 0.8022(1)
C31 C -0.4309(12) 0.1480(4) 0.8133(2)
C32 C -0.7811(12) 0.1533(4) 0.7845(2)
H19 H -0.534 0.357 0.864
H20 H -0.347 0.353 0.801
H21 H -0.900 0.367 0.770
H22 H -0.946 0.521 0.758
H23 H -0.846 0.542 0.809
H24 H -0.065 0.473 0.667
H25 H 0.140 0.499 0.604
H26 H 0.011 0.477 0.533
H27 H -0.323 0.423 0.522
H28 H -0.559 0.399 0.585
H29 H -0.309 0.188 0.825
H30 H -0.376 0.115 0.785
H31 H -0.479 0.107 0.835
H32 H -0.831 0.101 0.804
H33 H -0.756 0.129 0.752
H34 H -0.901 0.200 0.782
H35 H -0.384 0.496 0.799
H36 H -1.095 0.470 0.838
loop_
_geom_bond_atom_site_label_1
_geom_bond_atom_site_label_2
_geom_bond_site_symmetry_1
_geom_bond_site_symmetry_2
O1 C1 1_555 1_555
O2 C1 1_555 1_555
O3 C2 1_555 1_555
O4 C3 1_555 1_555
O5 C5 1_555 1_555
O6 N1 1_555 1_555
N1 C6 1_555 1_555
N2 C6 1_555 1_555
C1 C2 1_555 1_555
C2 C3 1_555 1_555
C3 C4 1_555 1_555
C4 O1 1_555 1_555
C5 C4 1_555 1_555
C6 C3 1_555 1_555
C7 O6 1_555 1_555
C8 C7 1_555 1_555
C9 C8 1_555 1_555
C10 C9 1_555 1_555
C11 C10 1_555 1_555
C12 C11 1_555 1_555
C13 C8 1_555 1_555
C14 O2 1_555 1_555
C15 C14 1_555 1_555
C16 C14 1_555 1_555
O7 C17 1_555 1_555
O8 C17 1_555 1_555
O9 C18 1_555 1_555
O10 C19 1_555 1_555
O11 C21 1_555 1_555
O12 N3 1_555 1_555
N3 C22 1_555 1_555
N4 C22 1_555 1_555
C17 C18 1_555 1_555
C18 C19 1_555 1_555
C19 C20 1_555 1_555
C20 O7 1_555 1_555
C21 C20 1_555 1_555
C22 C19 1_555 1_555
C23 O12 1_555 1_555
C24 C23 1_555 1_555
C25 C24 1_555 1_555
C26 C25 1_555 1_555
C27 C26 1_555 1_555
C28 C27 1_555 1_555
C29 C24 1_555 1_555
C30 O8 1_555 1_555
C31 C30 1_555 1_555
C32 C30 1_555 1_555
H1 C1 1_555 1_555
H2 C2 1_555 1_555
H3 C4 1_555 1_555
H4 C5 1_555 1_555
H5 C5 1_555 1_555
H6 C9 1_555 1_555
H7 C10 1_555 1_555
H8 C11 1_555 1_555
H9 C12 1_555 1_555
H10 C13 1_555 1_555
H11 C15 1_555 1_555
H12 C15 1_555 1_555
H13 C15 1_555 1_555
H14 C16 1_555 1_555
H15 C16 1_555 1_555
H16 C16 1_555 1_555
H17 O4 1_555 1_555
H18 O5 1_555 1_555
H19 C17 1_555 1_555
H20 C18 1_555 1_555
H21 C20 1_555 1_555
H22 C21 1_555 1_555
H23 C21 1_555 1_555
H24 C25 1_555 1_555
H25 C26 1_555 1_555
H26 C27 1_555 1_555
H27 C28 1_555 1_555
H28 C29 1_555 1_555
H29 C31 1_555 1_555
H30 C31 1_555 1_555
H31 C31 1_555 1_555
H32 C32 1_555 1_555
H33 C32 1_555 1_555
H34 C32 1_555 1_555
H35 O10 1_555 1_555
H36 O11 1_555 1_555
O3 C14 1_555 1_555
N2 C7 1_555 1_555
C12 C13 1_555 1_555
O9 C30 1_555 1_555
N4 C23 1_555 1_555
C28 C29 1_555 1_555

#END
