
#######################################################################
#
#                 Cambridge Crystallographic Data Centre
#                                CCDC 
#
#######################################################################
#
# If this CIF has been generated from an entry in the Cambridge 
# Structural Database, then it will include bibliographic, chemical, 
# crystal, experimental, refinement or atomic coordinate data resulting 
# from the CCDC's data processing and validation procedures.
#
#######################################################################

data_QIDDOZ
_chemical_formula_moiety         'C19 H20 N4'
_chemical_name_systematic        
2-(1-methyl-1H-pyrrol-2-yl)-3-(2-(pyrrolidin-1-yl)vinyl)quinoxaline
_symmetry_cell_setting           monoclinic
_symmetry_space_group_name_H-M   'P 21/n'
_symmetry_Int_Tables_number      14
_space_group_name_Hall           '-P 2yn'
loop_
_symmetry_equiv_pos_site_id
_symmetry_equiv_pos_as_xyz
1 x,y,z
2 1/2-x,1/2+y,1/2-z
3 -x,-y,-z
4 1/2+x,1/2-y,1/2+z
_cell_length_a                   10.8993(6)
_cell_length_b                   14.3367(9)
_cell_length_c                   11.0977(6)
_cell_angle_alpha                90
_cell_angle_beta                 103.658(4)
_cell_angle_gamma                90
_cell_volume                     1685.09
_exptl_crystal_colour            red
_exptl_crystal_description       irregular
_cell_formula_units_Z            4
_exptl_crystal_preparation       Luminescent
loop_
_atom_site_label
_atom_site_type_symbol
_atom_site_fract_x
_atom_site_fract_y
_atom_site_fract_z
N1 N 0.06807(19) 0.09455(15) 0.66534(19)
N2 N 0.28333(19) 0.15433(16) 0.5877(2)
N3 N -0.28770(18) 0.10895(16) 0.42096(19)
N4 N 0.2348(2) 0.2502(2) 0.3507(3)
C1 C 0.0583(2) 0.12472(17) 0.5509(2)
C2 C 0.1709(2) 0.15280(17) 0.5108(2)
C3 C 0.2924(2) 0.12626(18) 0.7064(2)
C4 C 0.1854(2) 0.09341(19) 0.7441(2)
C5 C 0.4105(3) 0.1302(2) 0.7932(3)
H1 H 0.4812 0.1519 0.7686
C6 C 0.4211(3) 0.1025(3) 0.9117(3)
H2 H 0.4988 0.1059 0.9685
C7 C 0.3156(3) 0.0687(3) 0.9492(3)
H3 H 0.3239 0.0495 1.0308
C8 C 0.2001(3) 0.0635(2) 0.8672(3)
H4 H 0.1310 0.0401 0.8931
C9 C -0.0645(2) 0.13345(18) 0.4672(2)
H5 H -0.0706 0.1635 0.3917
C10 C -0.1710(2) 0.09998(18) 0.4935(2)
H6 H -0.1627 0.0681 0.5679
C11 C -0.3157(3) 0.1598(2) 0.3059(3)
H7 H -0.2868 0.1259 0.2421
H8 H -0.2758 0.2207 0.3162
C12 C -0.4572(3) 0.1688(3) 0.2729(3)
H9 H -0.4820 0.2305 0.2941
H10 H -0.4902 0.1589 0.1848
C13 C -0.5051(3) 0.0988(3) 0.3431(4)
H11 H -0.5317 0.0441 0.2921
H12 H -0.5774 0.1228 0.3701
C14 C -0.4023(2) 0.0735(2) 0.4527(3)
H13 H -0.4153 0.1030 0.5274
H14 H -0.3978 0.0065 0.4649
C15 C 0.1653(2) 0.1773(2) 0.3815(3)
C16 C 0.1088(3) 0.1318(3) 0.2743(3)
H15 H 0.0562 0.0800 0.2676
C17 C 0.1447(4) 0.1773(4) 0.1766(3)
H16 H 0.1208 0.1611 0.0932
C18 C 0.2206(4) 0.2494(4) 0.2257(4)
H17 H 0.2571 0.2916 0.1809
C19 C 0.3034(4) 0.3216(3) 0.4328(4)
H18 H 0.2462 0.3544 0.4716
H19 H 0.3408 0.3646 0.3856
H20 H 0.3685 0.2928 0.4952
loop_
_geom_bond_atom_site_label_1
_geom_bond_atom_site_label_2
_geom_bond_site_symmetry_1
_geom_bond_site_symmetry_2
N1 C1 1_555 1_555
N2 C2 1_555 1_555
N3 C10 1_555 1_555
N4 C15 1_555 1_555
C1 C2 1_555 1_555
C2 C15 1_555 1_555
C3 N2 1_555 1_555
C4 N1 1_555 1_555
C5 C3 1_555 1_555
H1 C5 1_555 1_555
C6 C5 1_555 1_555
H2 C6 1_555 1_555
C7 C6 1_555 1_555
H3 C7 1_555 1_555
C8 C4 1_555 1_555
H4 C8 1_555 1_555
C9 C1 1_555 1_555
H5 C9 1_555 1_555
C10 C9 1_555 1_555
H6 C10 1_555 1_555
C11 N3 1_555 1_555
H7 C11 1_555 1_555
H8 C11 1_555 1_555
C12 C11 1_555 1_555
H9 C12 1_555 1_555
H10 C12 1_555 1_555
C13 C12 1_555 1_555
H11 C13 1_555 1_555
H12 C13 1_555 1_555
C14 N3 1_555 1_555
H13 C14 1_555 1_555
H14 C14 1_555 1_555
C15 C16 1_555 1_555
C16 H15 1_555 1_555
C17 C16 1_555 1_555
H16 C17 1_555 1_555
C18 N4 1_555 1_555
H17 C18 1_555 1_555
C19 N4 1_555 1_555
H18 C19 1_555 1_555
H19 C19 1_555 1_555
H20 C19 1_555 1_555
C3 C4 1_555 1_555
C7 C8 1_555 1_555
C13 C14 1_555 1_555
C17 C18 1_555 1_555

#END
