
#######################################################################
#
#                 Cambridge Crystallographic Data Centre
#                                CCDC 
#
#######################################################################
#
# If this CIF has been generated from an entry in the Cambridge 
# Structural Database, then it will include bibliographic, chemical, 
# crystal, experimental, refinement or atomic coordinate data resulting 
# from the CCDC's data processing and validation procedures.
#
#######################################################################

data_QIDFER
_chemical_formula_moiety         'C12 H24 O6,C6 H7 N2 O2 1+,F6 P1 1-'
_chemical_name_systematic        
'4-nitroanilinium hexafluorophosphate 18-crown-6'
_symmetry_cell_setting           monoclinic
_symmetry_space_group_name_H-M   'P 21/c'
_symmetry_Int_Tables_number      14
_space_group_name_Hall           '-P 2ybc'
loop_
_symmetry_equiv_pos_site_id
_symmetry_equiv_pos_as_xyz
1 x,y,z
2 -x,1/2+y,1/2-z
3 -x,-y,-z
4 x,1/2-y,1/2+z
_cell_length_a                   10.9077(9)
_cell_length_b                   23.296(2)
_cell_length_c                   21.5573(15)
_cell_angle_alpha                90
_cell_angle_beta                 113.277(3)
_cell_angle_gamma                90
_cell_volume                     5031.97
_exptl_crystal_colour            yellow
_exptl_crystal_description       block
_cell_formula_units_Z            8
loop_
_atom_site_label
_atom_site_type_symbol
_atom_site_fract_x
_atom_site_fract_y
_atom_site_fract_z
O1 O -0.4889(3) -0.56563(13) 0.17079(15)
O2 O -0.5712(3) -0.45716(14) 0.18982(16)
O3 O -0.3804(3) -0.37451(13) 0.25890(16)
O4 O -0.1290(3) -0.38578(14) 0.24911(16)
O5 O -0.0410(3) -0.49240(14) 0.22724(15)
O6 O -0.2355(3) -0.57591(13) 0.16662(15)
C1 C -0.6246(4) -0.5484(2) 0.1379(2)
H1 H -0.6828 -0.5815 0.1299
H2 H -0.6393 -0.5309 0.0947
C2 C -0.6545(4) -0.5063(2) 0.1821(2)
H3 H -0.7477 -0.4951 0.1618
H4 H -0.6370 -0.5233 0.2258
C3 C -0.6020(5) -0.4117(2) 0.2252(3)
H5 H -0.5826 -0.4232 0.2714
H6 H -0.6961 -0.4022 0.2036
C4 C -0.5197(4) -0.3609(2) 0.2244(3)
H7 H -0.5382 -0.3501 0.1781
H8 H -0.5422 -0.3287 0.2464
C5 C -0.3007(5) -0.32710(19) 0.2558(2)
H9 H -0.3184 -0.2944 0.2790
H10 H -0.3237 -0.3164 0.2091
C6 C -0.1564(5) -0.3422(2) 0.2879(2)
H11 H -0.1025 -0.3086 0.2900
H12 H -0.1345 -0.3558 0.3336
C7 C 0.0102(4) -0.3984(2) 0.2723(2)
H13 H 0.0425 -0.4135 0.3179
H14 H 0.0596 -0.3637 0.2728
C8 C 0.0305(4) -0.4414(2) 0.2265(3)
H15 H -0.0012 -0.4262 0.1810
H16 H 0.1248 -0.4500 0.2412
C9 C -0.0245(5) -0.5365(2) 0.1859(3)
H17 H 0.0697 -0.5452 0.2002
H18 H -0.0577 -0.5234 0.1394
C10 C -0.0963(4) -0.5885(2) 0.1900(3)
H19 H -0.0819 -0.6186 0.1625
H20 H -0.0634 -0.6019 0.2363
C11 C -0.3122(5) -0.6245(2) 0.1714(3)
H21 H -0.2920 -0.6332 0.2184
H22 H -0.2900 -0.6579 0.1509
C12 C -0.4549(5) -0.6109(2) 0.1362(2)
H23 H -0.4735 -0.5993 0.0901
H24 H -0.5081 -0.6446 0.1348
O7 O -0.3674(4) -0.1693(2) 0.2937(2)
O8 O -0.1804(4) -0.1516(3) 0.2929(2)
C13 C -0.4188(4) -0.24174(18) 0.0733(2)
C14 C -0.2861(4) -0.2278(2) 0.1072(2)
H25 H -0.2249 -0.2360 0.0882
C15 C -0.2453(4) -0.2016(2) 0.1693(2)
H26 H -0.1560 -0.1921 0.1930
C16 C -0.3377(4) -0.18969(19) 0.1960(2)
C17 C -0.4724(4) -0.2035(2) 0.1618(2)
H27 H -0.5333 -0.1954 0.1810
C18 C -0.5135(4) -0.2291(2) 0.0999(2)
H28 H -0.6030 -0.2380 0.0758
N1 N -0.4633(3) -0.27191(16) 0.00896(17)
H29 H -0.5509 -0.2779 -0.0064
H30 H -0.4213 -0.3055 0.0146
H31 H -0.4449 -0.2508 -0.0207
N2 N -0.2919(4) -0.16695(19) 0.2649(2)
O9 O -0.2954(3) -0.12551(13) 0.52880(15)
O10 O -0.5385(3) -0.11938(13) 0.54451(15)
O11 O -0.7453(3) -0.18899(14) 0.45864(15)
O12 O -0.6741(3) -0.29550(15) 0.42445(16)
O13 O -0.4243(3) -0.30872(14) 0.41384(17)
O14 O -0.2299(3) -0.22903(13) 0.48164(15)
C19 C -0.3081(4) -0.0939(2) 0.5811(2)
H32 H -0.2465 -0.0619 0.5930
H33 H -0.2868 -0.1181 0.6206
C20 C -0.4494(4) -0.0721(2) 0.5584(2)
H34 H -0.4577 -0.0484 0.5935
H35 H -0.4714 -0.0488 0.5182
C21 C -0.6740(4) -0.0998(2) 0.5155(2)
H36 H -0.6914 -0.0812 0.4725
H37 H -0.6892 -0.0721 0.5452
C22 C -0.7661(4) -0.1501(2) 0.5051(2)
H38 H -0.7477 -0.1693 0.5478
H39 H -0.8581 -0.1372 0.4871
C23 C -0.8365(4) -0.2355(2) 0.4420(3)
H40 H -0.9273 -0.2213 0.4213
H41 H -0.8267 -0.2565 0.4825
C24 C -0.8078(4) -0.2743(2) 0.3937(2)
H42 H -0.8700 -0.3062 0.3813
H43 H -0.8193 -0.2533 0.3529
C25 C -0.6488(4) -0.3389(2) 0.3840(2)
H44 H -0.6680 -0.3242 0.3390
H45 H -0.7053 -0.3720 0.3802
C26 C -0.5038(5) -0.3558(2) 0.4176(3)
H46 H -0.4821 -0.3658 0.4645
H47 H -0.4865 -0.3889 0.3951
C27 C -0.2864(4) -0.3234(2) 0.4389(3)
H48 H -0.2715 -0.3529 0.4109
H49 H -0.2569 -0.3379 0.4847
C28 C -0.2101(4) -0.2699(2) 0.4375(2)
H50 H -0.1158 -0.2786 0.4522
H51 H -0.2420 -0.2546 0.3920
C29 C -0.1505(4) -0.1783(2) 0.4898(2)
H52 H -0.1832 -0.1560 0.4484
H53 H -0.0583 -0.1886 0.5002
C30 C -0.1602(4) -0.1437(2) 0.5466(2)
H54 H -0.1313 -0.1669 0.5873
H55 H -0.1022 -0.1105 0.5554
O15 O -0.8116(7) -0.1253(3) -0.0185(4)
O16 O -1.0074(5) -0.1049(3) -0.0384(2)
C31 C -0.8495(5) -0.0639(2) 0.0563(3)
C32 C -0.9392(5) -0.0528(3) 0.0835(3)
H56 H -1.0288 -0.0620 0.0603
C33 C -0.8955(5) -0.0273(3) 0.1466(3)
H57 H -0.9560 -0.0189 0.1659
C34 C -0.7642(4) -0.01461(19) 0.1804(2)
C35 C -0.6734(5) -0.0254(3) 0.1520(3)
H58 H -0.5841 -0.0157 0.1748
C36 C -0.7177(6) -0.0512(4) 0.0888(3)
H59 H -0.6580 -0.0595 0.0689
N3 N -0.7166(3) 0.01065(16) 0.24790(16)
H60 H -0.7849 0.0150 0.2602
H61 H -0.6801 0.0447 0.2475
H62 H -0.6559 -0.0124 0.2771
N4 N -0.8938(5) -0.0931(3) -0.0098(2)
P1 P 0.14724(12) -0.24123(6) 0.16973(7)
F1 F 0.2019(6) -0.1794(2) 0.1626(3)
F2 F 0.0831(5) -0.2158(3) 0.2175(3)
F3 F 0.1123(7) -0.3041(2) 0.1818(4)
F4 F 0.2299(5) -0.2658(3) 0.1300(3)
F5 F 0.2779(4) -0.24676(19) 0.2372(2)
F6 F 0.0168(3) -0.23552(18) 0.10307(19)
P2 P -0.3253(2) -0.02720(11) 0.09024(14)
F7 F -0.4400(7) 0.0047(3) 0.0296(4)
F8 F -0.4237(6) -0.0780(3) 0.0839(4)
F9 F -0.2134(7) -0.0565(3) 0.1481(4)
F10 F -0.2285(6) 0.0239(3) 0.0943(4)
F11 F -0.2843(7) -0.0558(3) 0.0357(3)
F12 F -0.3849(5) 0.0048(3) 0.1333(3)
P3 P 0.0000 0.0000 0.5000
F13 F -0.1317(2) -0.00559(11) 0.51536(13)
F14 F -0.0490(3) -0.05311(11) 0.44865(13)
F15 F 0.0764(2) -0.04331(11) 0.56078(12)
F13B F 0.1317(2) 0.00559(11) 0.48464(13)
F14B F 0.0490(3) 0.05311(11) 0.55135(13)
F15B F -0.0764(2) 0.04331(11) 0.43922(12)
O17? O -0.8267(7) -0.0820(5) -0.0450(4)
F16? F 0.1050(9) -0.1807(3) 0.1867(5)
F17? F 0.0451(7) -0.2688(4) 0.1983(4)
F18? F 0.1654(9) -0.3037(3) 0.1453(5)
F19? F 0.2245(7) -0.2156(4) 0.1291(4)
loop_
_geom_bond_atom_site_label_1
_geom_bond_atom_site_label_2
_geom_bond_site_symmetry_1
_geom_bond_site_symmetry_2
O1 C1 1_555 1_555
O2 C2 1_555 1_555
O3 C4 1_555 1_555
O4 C6 1_555 1_555
O5 C8 1_555 1_555
O6 C10 1_555 1_555
C1 H1 1_555 1_555
H2 C1 1_555 1_555
C2 C1 1_555 1_555
H3 C2 1_555 1_555
H4 C2 1_555 1_555
C3 O2 1_555 1_555
H5 C3 1_555 1_555
H6 C3 1_555 1_555
C4 C3 1_555 1_555
H7 C4 1_555 1_555
H8 C4 1_555 1_555
C5 O3 1_555 1_555
H9 C5 1_555 1_555
H10 C5 1_555 1_555
C6 C5 1_555 1_555
H11 C6 1_555 1_555
H12 C6 1_555 1_555
C7 O4 1_555 1_555
H13 C7 1_555 1_555
H14 C7 1_555 1_555
C8 C7 1_555 1_555
H15 C8 1_555 1_555
H16 C8 1_555 1_555
C9 O5 1_555 1_555
H17 C9 1_555 1_555
H18 C9 1_555 1_555
C10 C9 1_555 1_555
H19 C10 1_555 1_555
H20 C10 1_555 1_555
C11 O6 1_555 1_555
H21 C11 1_555 1_555
H22 C11 1_555 1_555
C12 O1 1_555 1_555
H23 C12 1_555 1_555
H24 C12 1_555 1_555
O7 N2 1_555 1_555
O8 N2 1_555 1_555
C13 C14 1_555 1_555
C14 H25 1_555 1_555
C15 C14 1_555 1_555
H26 C15 1_555 1_555
C16 C15 1_555 1_555
C17 C16 1_555 1_555
H27 C17 1_555 1_555
C18 C13 1_555 1_555
H28 C18 1_555 1_555
N1 C13 1_555 1_555
H29 N1 1_555 1_555
H30 N1 1_555 1_555
H31 N1 1_555 1_555
N2 C16 1_555 1_555
O9 C19 1_555 1_555
O10 C20 1_555 1_555
O11 C22 1_555 1_555
O12 C24 1_555 1_555
O13 C26 1_555 1_555
O14 C28 1_555 1_555
C19 H32 1_555 1_555
H33 C19 1_555 1_555
C20 C19 1_555 1_555
H34 C20 1_555 1_555
H35 C20 1_555 1_555
C21 O10 1_555 1_555
H36 C21 1_555 1_555
H37 C21 1_555 1_555
C22 C21 1_555 1_555
H38 C22 1_555 1_555
H39 C22 1_555 1_555
C23 O11 1_555 1_555
H40 C23 1_555 1_555
H41 C23 1_555 1_555
C24 C23 1_555 1_555
H42 C24 1_555 1_555
H43 C24 1_555 1_555
C25 O12 1_555 1_555
H44 C25 1_555 1_555
H45 C25 1_555 1_555
C26 C25 1_555 1_555
H46 C26 1_555 1_555
H47 C26 1_555 1_555
C27 O13 1_555 1_555
H48 C27 1_555 1_555
H49 C27 1_555 1_555
C28 C27 1_555 1_555
H50 C28 1_555 1_555
H51 C28 1_555 1_555
C29 O14 1_555 1_555
H52 C29 1_555 1_555
H53 C29 1_555 1_555
C30 O9 1_555 1_555
H54 C30 1_555 1_555
H55 C30 1_555 1_555
O15 N4 1_555 1_555
O16 N4 1_555 1_555
C31 C32 1_555 1_555
C32 H56 1_555 1_555
C33 C32 1_555 1_555
H57 C33 1_555 1_555
C34 C33 1_555 1_555
C35 C34 1_555 1_555
H58 C35 1_555 1_555
C36 C31 1_555 1_555
H59 C36 1_555 1_555
N3 C34 1_555 1_555
H60 N3 1_555 1_555
H61 N3 1_555 1_555
H62 N3 1_555 1_555
N4 C31 1_555 1_555
P1 F1 1_555 1_555
F2 P1 1_555 1_555
F3 P1 1_555 1_555
F4 P1 1_555 1_555
F5 P1 1_555 1_555
F6 P1 1_555 1_555
P2 F7 1_555 1_555
F8 P2 1_555 1_555
F9 P2 1_555 1_555
F10 P2 1_555 1_555
F11 P2 1_555 1_555
F12 P2 1_555 1_555
P3 F13 1_555 1_555
F14 P3 1_555 1_555
F15 P3 1_555 1_555
F13B P3 1_555 1_555
F14B P3 1_555 1_555
F15B P3 1_555 1_555
C11 C12 1_555 1_555
C17 C18 1_555 1_555
C29 C30 1_555 1_555
C35 C36 1_555 1_555

#END
