
#######################################################################
#
#                 Cambridge Crystallographic Data Centre
#                                CCDC 
#
#######################################################################
#
# If this CIF has been generated from an entry in the Cambridge 
# Structural Database, then it will include bibliographic, chemical, 
# crystal, experimental, refinement or atomic coordinate data resulting 
# from the CCDC's data processing and validation procedures.
#
#######################################################################

data_QIDHUJ
_chemical_formula_moiety         
'C51 H55 N7 O4,C6 H16 N1 1+,2(C1 H2 Cl2),H2 O1,F1 1-'
_chemical_name_systematic        
'triethylammonium flouride 48,50-dimethoxy-1,25,30,30,39,39-hexamethyl-5,21,44,45,46,47,49-heptaazanonacyclo[23.9.9.1^6,10^.1^11,15^.1^16,20^.1^26,29^.1^31,34^.1^35,38^.1^40,43^]pentaconta-6(50),7,9,11(49),12,14,16(48),17,19,26,28,31,33,35,37,40, dichloromethane solvate monohydrate'
_symmetry_cell_setting           monoclinic
_symmetry_space_group_name_H-M   'P 21/c'
_symmetry_Int_Tables_number      14
_space_group_name_Hall           '-P 2ybc'
loop_
_symmetry_equiv_pos_site_id
_symmetry_equiv_pos_as_xyz
1 x,y,z
2 -x,1/2+y,1/2-z
3 -x,-y,-z
4 x,1/2-y,1/2+z
_cell_length_a                   20.7251(2)
_cell_length_b                   14.87716(17)
_cell_length_c                   22.5212(3)
_cell_angle_alpha                90
_cell_angle_beta                 90.9933(11)
_cell_angle_gamma                90
_cell_volume                     6942.93
_exptl_crystal_colour            colorless
_exptl_crystal_description       column
_cell_formula_units_Z            4
loop_
_atom_site_label
_atom_site_type_symbol
_atom_site_fract_x
_atom_site_fract_y
_atom_site_fract_z
C1 C 0.34858(11) 0.10894(15) 0.38647(10)
C2 C 0.40520(12) 0.08314(17) 0.36058(11)
H1 H 0.419251 0.023101 0.354524
C3 C 0.43909(12) 0.16264(18) 0.34444(11)
H2 H 0.479812 0.164963 0.325774
C4 C 0.40257(10) 0.23507(16) 0.36059(10)
C5 C 0.41674(11) 0.33506(16) 0.35632(10)
C6 C 0.36822(11) 0.38515(15) 0.31789(10)
C7 C 0.37426(13) 0.42888(16) 0.26479(11)
H3 H 0.411972 0.430168 0.241422
C8 C 0.31534(13) 0.47168(16) 0.25049(11)
H4 H 0.306420 0.506564 0.215981
C9 C 0.27294(12) 0.45388(14) 0.29553(10)
C10 C 0.20440(12) 0.48480(14) 0.30529(10)
C11 C 0.15634(11) 0.41054(14) 0.29321(9)
C12 C 0.11026(12) 0.39987(17) 0.24962(10)
H5 H 0.102033 0.439832 0.217468
C13 C 0.07691(11) 0.31856(17) 0.26089(10)
H6 H 0.042200 0.294406 0.237865
C14 C 0.10390(10) 0.28131(14) 0.31099(9)
C15 C 0.08554(10) 0.19796(14) 0.34547(10)
C16 C 0.13895(10) 0.12828(14) 0.34614(9)
C17 C 0.14558(12) 0.04868(16) 0.31592(11)
H7 H 0.115978 0.025086 0.287257
C18 C 0.20382(12) 0.00807(15) 0.33474(11)
H8 H 0.220131 -0.047908 0.321321
C19 C 0.23270(10) 0.06330(13) 0.37564(9)
C20 C 0.29434(11) 0.05357(15) 0.41218(10)
C21 C 0.48376(12) 0.34704(19) 0.32895(12)
H9 H 0.515921 0.313881 0.352660
H10 H 0.495062 0.410997 0.328549
H11 H 0.482965 0.323855 0.288209
C22 C 0.19040(14) 0.56361(17) 0.26305(12)
H12 H 0.191969 0.542546 0.221868
H13 H 0.222852 0.610695 0.269428
H14 H 0.147428 0.587924 0.270869
C23 C 0.19739(12) 0.51805(15) 0.37003(11)
H15 H 0.153159 0.539087 0.375947
H16 H 0.227634 0.567549 0.377583
H17 H 0.206949 0.468551 0.397511
C24 C 0.02543(11) 0.15526(17) 0.31584(11)
H18 H -0.010523 0.197995 0.316727
H19 H 0.013717 0.100584 0.337393
H20 H 0.034858 0.140044 0.274552
C25 C 0.31416(14) -0.04554(16) 0.41281(12)
H21 H 0.321043 -0.065969 0.372039
H22 H 0.279930 -0.081479 0.430657
H23 H 0.354185 -0.052642 0.436145
C26 C 0.28277(12) 0.08344(17) 0.47694(10)
H24 H 0.322374 0.074704 0.500644
H25 H 0.247934 0.047414 0.493706
H26 H 0.270669 0.147109 0.477494
C27 C 0.41581(11) 0.37942(17) 0.41876(11)
H27 H 0.425108 0.444332 0.414403
H28 H 0.371819 0.373703 0.434772
C28 C 0.46332(13) 0.3400(2) 0.46321(13)
H29 H 0.452441 0.275797 0.469003
H30 H 0.506916 0.342484 0.446009
C29 C 0.46593(12) 0.3850(2) 0.52325(11)
C30 C 0.39714(11) 0.44872(18) 0.60187(11)
C31 C 0.34515(11) 0.50769(17) 0.60713(10)
C32 C 0.32576(11) 0.53815(16) 0.66305(10)
C33 C 0.36313(12) 0.51417(19) 0.71246(11)
H31 H 0.351884 0.535659 0.750636
C34 C 0.41649(12) 0.4594(2) 0.70650(11)
H32 H 0.442272 0.445218 0.740515
C35 C 0.43297(12) 0.4247(2) 0.65166(11)
H33 H 0.468531 0.384778 0.648369
C36 C 0.26320(13) 0.58457(15) 0.67127(10)
C37 C 0.25761(16) 0.66136(18) 0.70636(13)
H34 H 0.294889 0.689379 0.723098
C38 C 0.19680(18) 0.69594(19) 0.71634(14)
H35 H 0.191871 0.747774 0.740479
C39 C 0.14336(15) 0.65485(17) 0.69111(12)
H36 H 0.101340 0.678244 0.697179
C40 C 0.15228(12) 0.57803(15) 0.65642(10)
C41 C 0.09628(11) 0.52639(15) 0.63294(10)
C42 C 0.09348(11) 0.48792(14) 0.57620(9)
C43 C 0.04278(10) 0.42995(15) 0.56010(9)
C44 C -0.00655(11) 0.41197(18) 0.59977(10)
H37 H -0.040573 0.371998 0.589112
C45 C -0.00522(12) 0.45338(19) 0.65510(10)
H38 H -0.039242 0.442992 0.681989
C46 C 0.04510(12) 0.50943(17) 0.67131(10)
H39 H 0.045085 0.537171 0.709300
C47 C 0.01045(10) 0.32232(15) 0.48031(10)
C48 C 0.02166(10) 0.30101(15) 0.41600(10)
H40 H 0.037741 0.355269 0.395544
H41 H -0.019574 0.282968 0.396616
C49 C 0.07079(10) 0.22505(14) 0.41046(9)
H42 H 0.054442 0.171621 0.431654
H43 H 0.111563 0.243704 0.430436
C50 C 0.34032(15) 0.5981(2) 0.52216(14)
H44 H 0.339498 0.655910 0.543011
H45 H 0.317395 0.603800 0.483915
H46 H 0.385159 0.580499 0.515407
C51 C 0.15832(12) 0.59269(15) 0.52114(10)
H47 H 0.122979 0.633924 0.530263
H48 H 0.169266 0.598511 0.479152
H49 H 0.196171 0.607530 0.545922
N1 N 0.34780(9) 0.20174(13) 0.38674(8)
N2 N 0.30589(9) 0.40146(12) 0.33599(9)
N3 N 0.15186(9) 0.33770(12) 0.33056(8)
N4 N 0.19273(9) 0.13656(12) 0.38226(8)
N5 N 0.40839(10) 0.40994(16) 0.54554(10)
N6 N 0.21119(9) 0.54372(12) 0.64680(8)
N7 N 0.04332(9) 0.39458(13) 0.50200(8)
O1 O 0.51628(9) 0.39950(18) 0.54963(9)
O2 O -0.02481(9) 0.27586(12) 0.51091(8)
O3 O 0.30989(8) 0.53199(12) 0.55696(7)
O4 O 0.13859(8) 0.50183(10) 0.53299(7)
H50 H 0.2888(14) 0.380(2) 0.3636(13)
H51 H 0.1763(12) 0.3292(16) 0.3557(11)
H52 H 0.2048(12) 0.1822(18) 0.4012(12)
H53 H 0.0695(14) 0.4181(19) 0.4802(13)
H54 H 0.3166(13) 0.2315(18) 0.3983(12)
H55 H 0.3731(17) 0.408(2) 0.5226(16)
C52 C 0.26563(12) 0.32921(16) 0.68273(10)
H56 H 0.242680 0.387563 0.683212
H57 H 0.311117 0.341350 0.672653
C53 C 0.26395(13) 0.28882(17) 0.74426(10)
H58 H 0.219293 0.274295 0.754171
H59 H 0.281428 0.332090 0.773144
H60 H 0.290051 0.233899 0.745368
C54 C 0.26627(17) 0.18070(19) 0.63163(13)
H61 H 0.257434 0.147343 0.668650
H62 H 0.246260 0.147010 0.598174
C55 C 0.33720(18) 0.1850(2) 0.62321(14)
H63 H 0.346677 0.226687 0.590835
H64 H 0.353392 0.125016 0.613311
H65 H 0.358282 0.206013 0.659932
C56 C 0.16336(14) 0.2696(2) 0.63983(14)
H66 H 0.151660 0.236096 0.676060
H67 H 0.147302 0.331940 0.644010
C57 C 0.13082(19) 0.2267(2) 0.5870(2)
H68 H 0.143981 0.257674 0.550711
H69 H 0.083907 0.231166 0.590832
H70 H 0.143338 0.163293 0.584788
N8 N 0.23604(10) 0.27148(14) 0.63503(9)
H71 H 0.2438(14) 0.301(2) 0.5987(14)
O5 O 0.26329(9) 0.35830(12) 0.52898(7)
H72 H 0.2447(11) 0.3303(16) 0.4887(11)
H73 H 0.245(2) 0.410(3) 0.536(2)
Cl1 Cl 0.57830(4) 0.31220(8) 0.72258(4)
Cl2 Cl 0.67641(4) 0.28181(5) 0.63463(4)
C58 C 0.61710(12) 0.35596(19) 0.65972(12)
H74 H 0.584785 0.366447 0.627575
H75 H 0.637244 0.414395 0.669984
Cl3 Cl -0.04039(7) 0.14499(12) 0.65520(7)
Cl4 Cl -0.15848(10) 0.23765(14) 0.61819(10)
C59 C -0.10263(18) 0.1526(3) 0.60118(18)
H76 H -0.125401 0.094180 0.598438
H77 H -0.083638 0.165233 0.562029
F1 F 0.23948(6) 0.30338(8) 0.42400(5)
Cl5? Cl -0.07357(19) 0.2326(4) 0.67722(15)
Cl6? Cl -0.1773(3) 0.2330(4) 0.5950(4)
C60? C -0.1045(4) 0.1798(6) 0.6128(4)
H78? H -0.073914 0.186072 0.579736
H79? H -0.111701 0.115021 0.620191
loop_
_geom_bond_atom_site_label_1
_geom_bond_atom_site_label_2
_geom_bond_site_symmetry_1
_geom_bond_site_symmetry_2
C1 C2 1_555 1_555
C2 H1 1_555 1_555
C3 C2 1_555 1_555
H2 C3 1_555 1_555
C4 C3 1_555 1_555
C5 C4 1_555 1_555
C6 C5 1_555 1_555
C7 C6 1_555 1_555
H3 C7 1_555 1_555
C8 C7 1_555 1_555
H4 C8 1_555 1_555
C9 C8 1_555 1_555
C10 C9 1_555 1_555
C11 C10 1_555 1_555
C12 C11 1_555 1_555
H5 C12 1_555 1_555
C13 C12 1_555 1_555
H6 C13 1_555 1_555
C14 C13 1_555 1_555
C15 C14 1_555 1_555
C16 C15 1_555 1_555
C17 C16 1_555 1_555
H7 C17 1_555 1_555
C18 C17 1_555 1_555
H8 C18 1_555 1_555
C19 C18 1_555 1_555
C20 C1 1_555 1_555
C21 C5 1_555 1_555
H9 C21 1_555 1_555
H10 C21 1_555 1_555
H11 C21 1_555 1_555
C22 C10 1_555 1_555
H12 C22 1_555 1_555
H13 C22 1_555 1_555
H14 C22 1_555 1_555
C23 C10 1_555 1_555
H15 C23 1_555 1_555
H16 C23 1_555 1_555
H17 C23 1_555 1_555
C24 C15 1_555 1_555
H18 C24 1_555 1_555
H19 C24 1_555 1_555
H20 C24 1_555 1_555
C25 C20 1_555 1_555
H21 C25 1_555 1_555
H22 C25 1_555 1_555
H23 C25 1_555 1_555
C26 C20 1_555 1_555
H24 C26 1_555 1_555
H25 C26 1_555 1_555
H26 C26 1_555 1_555
C27 C5 1_555 1_555
H27 C27 1_555 1_555
H28 C27 1_555 1_555
C28 C27 1_555 1_555
H29 C28 1_555 1_555
H30 C28 1_555 1_555
C29 C28 1_555 1_555
C30 C31 1_555 1_555
C31 C32 1_555 1_555
C32 C33 1_555 1_555
C33 H31 1_555 1_555
C34 C33 1_555 1_555
H32 C34 1_555 1_555
C35 C30 1_555 1_555
H33 C35 1_555 1_555
C36 C32 1_555 1_555
C37 C36 1_555 1_555
H34 C37 1_555 1_555
C38 C37 1_555 1_555
H35 C38 1_555 1_555
C39 C38 1_555 1_555
H36 C39 1_555 1_555
C40 C39 1_555 1_555
C41 C40 1_555 1_555
C42 C41 1_555 1_555
C43 C42 1_555 1_555
C44 C43 1_555 1_555
H37 C44 1_555 1_555
C45 C44 1_555 1_555
H38 C45 1_555 1_555
C46 C41 1_555 1_555
H39 C46 1_555 1_555
C47 C48 1_555 1_555
C48 H40 1_555 1_555
H41 C48 1_555 1_555
C49 C15 1_555 1_555
H42 C49 1_555 1_555
H43 C49 1_555 1_555
C50 H44 1_555 1_555
H45 C50 1_555 1_555
H46 C50 1_555 1_555
C51 H47 1_555 1_555
H48 C51 1_555 1_555
H49 C51 1_555 1_555
N1 C1 1_555 1_555
N2 C6 1_555 1_555
N3 C11 1_555 1_555
N4 C16 1_555 1_555
N5 C29 1_555 1_555
N6 C36 1_555 1_555
N7 C43 1_555 1_555
O1 C29 1_555 1_555
O2 C47 1_555 1_555
O3 C31 1_555 1_555
O4 C42 1_555 1_555
H50 N2 1_555 1_555
H51 N3 1_555 1_555
H52 N4 1_555 1_555
H53 N7 1_555 1_555
H54 N1 1_555 1_555
H55 N5 1_555 1_555
C52 H56 1_555 1_555
H57 C52 1_555 1_555
C53 C52 1_555 1_555
H58 C53 1_555 1_555
H59 C53 1_555 1_555
H60 C53 1_555 1_555
C54 H61 1_555 1_555
H62 C54 1_555 1_555
C55 C54 1_555 1_555
H63 C55 1_555 1_555
H64 C55 1_555 1_555
H65 C55 1_555 1_555
C56 H66 1_555 1_555
H67 C56 1_555 1_555
C57 C56 1_555 1_555
H68 C57 1_555 1_555
H69 C57 1_555 1_555
H70 C57 1_555 1_555
N8 C52 1_555 1_555
H71 N8 1_555 1_555
O5 H72 1_555 1_555
H73 O5 1_555 1_555
Cl1 C58 1_555 1_555
Cl2 C58 1_555 1_555
C58 H74 1_555 1_555
H75 C58 1_555 1_555
Cl3 C59 1_555 1_555
Cl4 C59 1_555 1_555
C59 H76 1_555 1_555
H77 C59 1_555 1_555
C4 N1 1_555 1_555
C9 N2 1_555 1_555
C14 N3 1_555 1_555
C19 C20 1_555 1_555
C19 N4 1_555 1_555
C30 N5 1_555 1_555
C34 C35 1_555 1_555
C40 N6 1_555 1_555
C45 C46 1_555 1_555
C47 N7 1_555 1_555
C48 C49 1_555 1_555
C50 O3 1_555 1_555
C51 O4 1_555 1_555
C54 N8 1_555 1_555
C56 N8 1_555 1_555

#END
