
#######################################################################
#
#                 Cambridge Crystallographic Data Centre
#                                CCDC 
#
#######################################################################
#
# If this CIF has been generated from an entry in the Cambridge 
# Structural Database, then it will include bibliographic, chemical, 
# crystal, experimental, refinement or atomic coordinate data resulting 
# from the CCDC's data processing and validation procedures.
#
#######################################################################

data_QIDHET
_chemical_formula_moiety         'C52 H59 Cl1 Li1 N7 O5,C2 H3 N1'
_chemical_name_systematic        
'chloro-[48,50-bis(methoxy)-1,25,30,30,39,39-hexamethyl-5,21,44,45,46,47,49-heptaazanonacyclo[23.9.9.1^6,10^.1^11,15^.1^16,20^.1^26,29^.1^31,34^.1^35,38^.1^40,43^]pentaconta-6(50),7,9,11(49),12,14,16(48),17,19,26,28,31,33,35,37,40,42-heptadecaene-4,22-dione]-(methanol)-lithium acetonitrile solvate'
_symmetry_cell_setting           triclinic
_symmetry_space_group_name_H-M   'P -1'
_symmetry_Int_Tables_number      2
_space_group_name_Hall           '-P 1'
loop_
_symmetry_equiv_pos_site_id
_symmetry_equiv_pos_as_xyz
1 x,y,z
2 -x,-y,-z
_cell_length_a                   11.9738(6)
_cell_length_b                   17.5858(7)
_cell_length_c                   13.0947(7)
_cell_angle_alpha                90
_cell_angle_beta                 114.877(6)
_cell_angle_gamma                90
_cell_volume                     2501.49
_cell_formula_units_Z            2
loop_
_atom_site_label
_atom_site_type_symbol
_atom_site_fract_x
_atom_site_fract_y
_atom_site_fract_z
C1 C 0.7648(5) 0.4114(3) 0.8886(4)
C2 C 0.8892(6) 0.4182(3) 0.9335(4)
H1 H 0.935095 0.454647 0.985747
C3 C 0.9377(5) 0.3613(3) 0.8882(5)
H2 H 1.020716 0.353684 0.905863
C4 C 0.8431(6) 0.3193(3) 0.8144(4)
C5 C 0.8423(4) 0.2502(3) 0.7469(4)
C6 C 0.8440(5) 0.1808(2) 0.8146(4)
C7 C 0.9378(5) 0.1382(3) 0.8886(5)
H3 H 1.020882 0.145367 0.906599
C8 C 0.8886(6) 0.0813(3) 0.9339(4)
H4 H 0.933844 0.044792 0.986405
C9 C 0.7644(5) 0.0888(3) 0.8878(4)
C10 C 0.6678(4) 0.0456(2) 0.9096(4)
C11 C 0.6357(4) 0.0879(3) 0.9950(5)
C12 C 0.6618(4) 0.0717(3) 1.1043(6)
H5 H 0.706883 0.030209 1.144668
C13 C 0.6087(5) 0.1287(3) 1.1462(4)
H6 H 0.613314 0.131051 1.218819
C14 C 0.5496(4) 0.1794(3) 1.0621(5)
C15 C 0.4764(4) 0.2501(3) 1.0584(3)
C16 C 0.5496(4) 0.3210(3) 1.0617(5)
C17 C 0.6087(4) 0.3715(3) 1.1462(4)
H7 H 0.613241 0.369094 1.218811
C18 C 0.6618(4) 0.4280(3) 1.1046(5)
H8 H 0.707250 0.469347 1.145330
C19 C 0.6360(4) 0.4125(3) 0.9947(5)
C20 C 0.6673(4) 0.4544(2) 0.9092(4)
C21 C 0.5481(4) 0.4645(2) 0.8012(4)
H9 H 0.516572 0.414434 0.772534
H10 H 0.487708 0.489108 0.821463
C22 C 0.5575(4) 0.5102(2) 0.7054(4)
H11 H 0.598337 0.558209 0.734991
H12 H 0.607611 0.482293 0.676217
C23 C 0.4323(5) 0.5259(4) 0.6101(4)
C24 C 0.2370(5) 0.4617(3) 0.4875(5)
C25 C 0.1828(6) 0.5136(3) 0.4005(6)
H13 H 0.226394 0.555652 0.393780
C26 C 0.0627(7) 0.5013(3) 0.3244(4)
H14 H 0.025142 0.536160 0.266576
C27 C -0.0033(4) 0.4389(4) 0.3317(4)
H15 H -0.083810 0.431877 0.278410
C28 C 0.0498(6) 0.3862(3) 0.4182(5)
C29 C 0.1682(6) 0.3999(3) 0.4960(5)
C30 C -0.0147(6) 0.3155(4) 0.4219(3)
C31 C -0.1378(6) 0.3177(3) 0.4055(3)
H16 H -0.177858 0.363992 0.398665
C32 C -0.1984(4) 0.2506(5) 0.3996(3)
H17 H -0.279266 0.250882 0.391704
C33 C -0.1385(6) 0.1828(3) 0.4054(3)
H18 H -0.179172 0.136737 0.398944
C34 C -0.0161(6) 0.1843(4) 0.4210(3)
C35 C 0.0501(6) 0.1138(3) 0.4189(5)
C36 C -0.0037(4) 0.0616(4) 0.3317(5)
H19 H -0.084179 0.069033 0.278597
C37 C 0.0616(7) -0.0011(3) 0.3236(4)
H20 H 0.023556 -0.035768 0.265607
C38 C 0.1815(6) -0.0137(3) 0.3991(6)
H21 H 0.225035 -0.055629 0.392018
C39 C 0.2359(5) 0.0383(4) 0.4864(4)
C40 C 0.1687(6) 0.1003(3) 0.4961(5)
C41 C 0.4321(5) -0.0254(4) 0.6094(4)
C42 C 0.5575(4) -0.0102(2) 0.7056(4)
H22 H 0.608053 0.017616 0.676723
H23 H 0.597712 -0.058312 0.734894
C43 C 0.5484(4) 0.0355(2) 0.8016(4)
H24 H 0.488147 0.010886 0.821978
H25 H 0.516856 0.085590 0.773031
C44 C 0.7204(4) -0.0329(2) 0.9594(4)
H26 H 0.748095 -0.058782 0.909735
H27 H 0.657532 -0.062497 0.967976
H28 H 0.788410 -0.026252 1.031570
C45 C 0.4466(4) 0.2502(2) 1.1613(3)
H29 H 0.399745 0.205613 1.159937
H30 H 0.399644 0.294757 1.159800
H31 H 0.521858 0.250251 1.228752
C46 C 0.3540(4) 0.2502(2) 0.9529(3)
H32 H 0.369993 0.250582 0.886924
H33 H 0.307504 0.294672 0.953105
H34 H 0.307806 0.205530 0.952504
C47 C 0.7204(4) 0.5331(2) 0.9594(4)
H35 H 0.657426 0.562858 0.967597
H36 H 0.748677 0.558836 0.910107
H37 H 0.787951 0.526284 1.031797
C48 C 0.9583(4) 0.2501(2) 0.7244(4)
H38 H 0.958386 0.294462 0.681745
H39 H 0.958824 0.205320 0.682736
H40 H 1.030080 0.250460 0.794782
C49 C 0.7296(4) 0.2500(2) 0.6334(4)
H41 H 0.656006 0.250700 0.645708
H42 H 0.730530 0.204979 0.592276
H43 H 0.731493 0.294113 0.591009
C50 C 0.2097(4) 0.3725(2) 0.6857(4)
H44 H 0.239317 0.423362 0.707085
H45 H 0.254646 0.338260 0.746280
H46 H 0.123763 0.370196 0.669392
C51 C 0.2100(4) 0.1277(2) 0.6856(4)
H47 H 0.123930 0.128935 0.668859
H48 H 0.253511 0.162697 0.745564
H49 H 0.241337 0.077282 0.708140
C52 C 0.4069(6) 0.2506(5) 0.4142(4)
H50 H 0.400582 0.280780 0.350885
H51 H 0.429523 0.199544 0.405071
H52 H 0.468402 0.271944 0.481979
Cl1 Cl 0.47232(8) 0.25005(5) 0.72374(8)
Li1 Li 0.2585(7) 0.2500(4) 0.5387(6)
N1 N 0.7382(3) 0.3502(2) 0.8162(3)
H53 H 0.665028 0.333386 0.777035
N2 N 0.7387(3) 0.1502(2) 0.8160(3)
H54 H 0.665759 0.167397 0.776905
N3 N 0.5671(3) 0.1537(2) 0.9700(3)
H55 H 0.538742 0.175991 0.905528
N4 N 0.5676(3) 0.3465(2) 0.9698(3)
H56 H 0.539773 0.324041 0.905524
N5 N 0.3604(5) 0.4652(2) 0.5668(4)
H57 H 0.394758 0.421938 0.591102
N6 N 0.0462(3) 0.2500(3) 0.4329(3)
N7 N 0.3597(5) 0.0350(2) 0.5664(4)
H58 H 0.393678 0.078305 0.591120
O1 O 0.3982(3) -0.0904(2) 0.5777(3)
O2 O 0.2271(2) 0.14917(15) 0.5869(3)
O3 O 0.2269(2) 0.35078(14) 0.5869(3)
O4 O 0.3986(3) 0.5904(2) 0.5774(3)
O5 O 0.2979(3) 0.25000(17) 0.4206(2)
C53 C -0.0010(8) 0.2504(3) 0.1542(5)
C54 C -0.1356(5) 0.2499(3) 0.0964(4)
H59 H -0.160601 0.254132 0.016733
H60 H -0.167993 0.291958 0.122123
H61 H -0.166440 0.203140 0.112564
N8 N 0.1071(6) 0.2498(4) 0.2012(5)
loop_
_geom_bond_atom_site_label_1
_geom_bond_atom_site_label_2
_geom_bond_site_symmetry_1
_geom_bond_site_symmetry_2
C1 C2 1_555 1_555
C2 H1 1_555 1_555
C3 C2 1_555 1_555
H2 C3 1_555 1_555
C4 C3 1_555 1_555
C5 C4 1_555 1_555
C6 C5 1_555 1_555
C7 C6 1_555 1_555
H3 C7 1_555 1_555
C8 C7 1_555 1_555
H4 C8 1_555 1_555
C9 C8 1_555 1_555
C10 C9 1_555 1_555
C11 C10 1_555 1_555
C12 C11 1_555 1_555
H5 C12 1_555 1_555
C13 C12 1_555 1_555
H6 C13 1_555 1_555
C14 C13 1_555 1_555
C15 C14 1_555 1_555
C16 C15 1_555 1_555
C17 C16 1_555 1_555
H7 C17 1_555 1_555
C18 C17 1_555 1_555
H8 C18 1_555 1_555
C19 C18 1_555 1_555
C20 C1 1_555 1_555
C21 C20 1_555 1_555
H9 C21 1_555 1_555
H10 C21 1_555 1_555
C22 C21 1_555 1_555
H11 C22 1_555 1_555
H12 C22 1_555 1_555
C23 C22 1_555 1_555
C24 C25 1_555 1_555
C25 H13 1_555 1_555
C26 C25 1_555 1_555
H14 C26 1_555 1_555
C27 C26 1_555 1_555
H15 C27 1_555 1_555
C28 C27 1_555 1_555
C29 C24 1_555 1_555
C30 C28 1_555 1_555
C31 C30 1_555 1_555
H16 C31 1_555 1_555
C32 C31 1_555 1_555
H17 C32 1_555 1_555
C33 C32 1_555 1_555
H18 C33 1_555 1_555
C34 C33 1_555 1_555
C35 C34 1_555 1_555
C36 C35 1_555 1_555
H19 C36 1_555 1_555
C37 C36 1_555 1_555
H20 C37 1_555 1_555
C38 C37 1_555 1_555
H21 C38 1_555 1_555
C39 C38 1_555 1_555
C40 C35 1_555 1_555
C41 C42 1_555 1_555
C42 H22 1_555 1_555
H23 C42 1_555 1_555
C43 C10 1_555 1_555
H24 C43 1_555 1_555
H25 C43 1_555 1_555
C44 C10 1_555 1_555
H26 C44 1_555 1_555
H27 C44 1_555 1_555
H28 C44 1_555 1_555
C45 C15 1_555 1_555
H29 C45 1_555 1_555
H30 C45 1_555 1_555
H31 C45 1_555 1_555
C46 C15 1_555 1_555
H32 C46 1_555 1_555
H33 C46 1_555 1_555
H34 C46 1_555 1_555
C47 C20 1_555 1_555
H35 C47 1_555 1_555
H36 C47 1_555 1_555
H37 C47 1_555 1_555
C48 C5 1_555 1_555
H38 C48 1_555 1_555
H39 C48 1_555 1_555
H40 C48 1_555 1_555
C49 C5 1_555 1_555
H41 C49 1_555 1_555
H42 C49 1_555 1_555
H43 C49 1_555 1_555
C50 H44 1_555 1_555
H45 C50 1_555 1_555
H46 C50 1_555 1_555
C51 H47 1_555 1_555
H48 C51 1_555 1_555
H49 C51 1_555 1_555
C52 H50 1_555 1_555
H51 C52 1_555 1_555
H52 C52 1_555 1_555
Cl1 Li1 1_555 1_555
Li1 N6 1_555 1_555
N1 C1 1_555 1_555
H53 N1 1_555 1_555
N2 C6 1_555 1_555
H54 N2 1_555 1_555
N3 C11 1_555 1_555
H55 N3 1_555 1_555
N4 C16 1_555 1_555
H56 N4 1_555 1_555
N5 C23 1_555 1_555
H57 N5 1_555 1_555
N6 C30 1_555 1_555
N7 C39 1_555 1_555
H58 N7 1_555 1_555
O1 C41 1_555 1_555
O2 C40 1_555 1_555
O3 C29 1_555 1_555
O4 C23 1_555 1_555
O5 C52 1_555 1_555
C53 C54 1_555 1_555
C54 H59 1_555 1_555
H60 C54 1_555 1_555
H61 C54 1_555 1_555
N8 C53 1_555 1_555
C4 N1 1_555 1_555
C9 N2 1_555 1_555
C14 N3 1_555 1_555
C19 C20 1_555 1_555
C19 N4 1_555 1_555
C24 N5 1_555 1_555
C28 C29 1_555 1_555
C34 N6 1_555 1_555
C39 C40 1_555 1_555
C41 N7 1_555 1_555
C42 C43 1_555 1_555
C50 O3 1_555 1_555
C51 O2 1_555 1_555
Li1 O2 1_555 1_555
Li1 O3 1_555 1_555
Li1 O5 1_555 1_555

#END
