
#######################################################################
#
#                 Cambridge Crystallographic Data Centre
#                                CCDC 
#
#######################################################################
#
# If this CIF has been generated from an entry in the Cambridge 
# Structural Database, then it will include bibliographic, chemical, 
# crystal, experimental, refinement or atomic coordinate data resulting 
# from the CCDC's data processing and validation procedures.
#
#######################################################################

data_QIDHAP
_chemical_formula_moiety         'C46 H50 Cl1 Li1 N6 O5,C2 H3 N1'
_chemical_name_systematic        
'aqua-(chloro)-[1,22,27,27,36,36-hexamethyl-5,18-dioxa-41,42,43,44,45,48-hexaazanonacyclo[20.9.9.4^7,16^.1^23,26^.1^28,31^.1^32,35^.1^37,40^.0^10,47^.0^13,46^]octatetraconta-7(48),8,10(47),11,13(46),14,16(45),23,25,28,30,32,34,37,39-pentadecaene-6,17-dione]-lithium acetonitrile solvate'
_symmetry_cell_setting           triclinic
_symmetry_space_group_name_H-M   'P -1'
_symmetry_Int_Tables_number      2
_space_group_name_Hall           '-P 1'
loop_
_symmetry_equiv_pos_site_id
_symmetry_equiv_pos_as_xyz
1 x,y,z
2 -x,-y,-z
_cell_length_a                   11.3271(9)
_cell_length_b                   12.8667(12)
_cell_length_c                   15.6040(10)
_cell_angle_alpha                103.678(2)
_cell_angle_beta                 95.513(2)
_cell_angle_gamma                98.338(2)
_cell_volume                     2166.12
_exptl_crystal_colour            'yellow orange'
_exptl_crystal_description       prisms
_cell_formula_units_Z            2
loop_
_atom_site_label
_atom_site_type_symbol
_atom_site_fract_x
_atom_site_fract_y
_atom_site_fract_z
Cl1 Cl 0.25117(5) 0.67601(4) 0.23402(4)
Li1 Li 0.2762(3) 0.5719(3) 0.3397(3)
O1 O -0.11947(13) 0.58807(13) 0.23615(10)
O2 O 0.01913(13) 0.47801(13) 0.22324(10)
O3 O 0.65347(13) 0.62225(12) 0.47057(10)
O4 O 0.49683(12) 0.60379(12) 0.36369(9)
O5 O 0.23159(18) 0.41953(15) 0.28785(13)
N1 N 0.21884(16) 0.72889(15) 0.03278(12)
H1 H 0.2204 0.6995 0.0783
N2 N 0.07424(15) 0.85576(14) 0.19808(12)
H2 H 0.1104 0.8032 0.2089
N3 N 0.33994(15) 0.93473(14) 0.33992(12)
H3 H 0.3162 0.8646 0.3166
N4 N 0.48461(15) 0.82365(15) 0.17394(12)
H4 H 0.4242 0.7845 0.1898
N5 N 0.11172(15) 0.59302(14) 0.40222(12)
N6 N 0.34256(15) 0.61586(14) 0.47547(12)
C1 C 0.3149(2) 0.74745(19) -0.01266(15)
C2 C 0.2765(2) 0.79368(19) -0.07785(15)
H5 H 0.3235 0.8157 -0.1198
C3 C 0.1545(2) 0.80315(19) -0.07220(15)
H6 H 0.1053 0.8325 -0.1099
C4 C 0.1196(2) 0.76291(18) -0.00334(14)
C5 C 0.00200(19) 0.75862(18) 0.03616(15)
C6 C 0.01232(19) 0.85385(18) 0.11658(14)
C7 C -0.0288(2) 0.95016(19) 0.12709(16)
H7 H -0.0738 0.9726 0.0823
C8 C 0.0075(2) 1.01074(19) 0.21649(16)
H8 H -0.0096 1.0807 0.2420
C9 C 0.07142(19) 0.95161(17) 0.25993(15)
C10 C 0.1287(2) 0.97402(18) 0.35595(15)
C11 C 0.26442(19) 1.00813(18) 0.36560(14)
C12 C 0.3359(2) 1.10745(18) 0.39866(15)
H9 H 0.3090 1.1739 0.4215
C13 C 0.4571(2) 1.09433(18) 0.39299(15)
H10 H 0.5256 1.1504 0.4116
C14 C 0.45833(19) 0.98732(18) 0.35616(14)
C15 C 0.56219(19) 0.92919(18) 0.33081(14)
C16 C 0.56580(19) 0.90609(18) 0.23163(15)
C17 C 0.6435(2) 0.9476(2) 0.18134(16)
H11 H 0.7091 1.0062 0.2029
C18 C 0.6088(2) 0.8878(2) 0.09136(16)
H12 H 0.6472 0.8993 0.0420
C19 C 0.5104(2) 0.81062(19) 0.08801(15)
C20 C 0.4376(2) 0.7208(2) 0.01316(15)
C21 C -0.0973(2) 0.76770(19) -0.03503(15)
H13 H -0.1731 0.7704 -0.0099
H14 H -0.1077 0.7044 -0.0862
H15 H -0.0741 0.8340 -0.0544
C22 C 0.0769(2) 1.0681(2) 0.41132(16)
H16 H 0.1121 1.0838 0.4739
H17 H -0.0108 1.0477 0.4063
H18 H 0.0964 1.1328 0.3891
C23 C 0.0961(2) 0.87314(18) 0.39114(15)
H19 H 0.1310 0.8132 0.3577
H20 H 0.0083 0.8521 0.3838
H21 H 0.1281 0.8897 0.4544
C24 C 0.6811(2) 1.00149(19) 0.38071(16)
H22 H 0.7487 0.9647 0.3648
H23 H 0.6792 1.0150 0.4450
H24 H 0.6907 1.0707 0.3640
C25 C 0.4252(2) 0.61358(19) 0.04146(16)
H25 H 0.3784 0.6189 0.0915
H26 H 0.5053 0.5995 0.0596
H27 H 0.3839 0.5540 -0.0087
C26 C 0.5054(2) 0.7079(2) -0.06825(17)
H28 H 0.4595 0.6492 -0.1171
H29 H 0.5849 0.6905 -0.0528
H30 H 0.5152 0.7759 -0.0869
C27 C -0.03089(19) 0.65042(18) 0.06205(15)
H31 H -0.0293 0.5897 0.0098
H32 H 0.0315 0.6469 0.1098
C28 C -0.15390(19) 0.6342(2) 0.09400(15)
H33 H -0.1645 0.7034 0.1340
H34 H -0.2171 0.6166 0.0419
C29 C -0.1722(2) 0.5454(2) 0.14278(15)
H35 H -0.2594 0.5182 0.1391
H36 H -0.1337 0.4841 0.1145
C30 C -0.02935(18) 0.54509(18) 0.26743(15)
C31 C -0.00134(18) 0.58788(17) 0.36677(15)
C32 C -0.09357(19) 0.61332(17) 0.41790(15)
H37 H -0.1724 0.6110 0.3897
C33 C -0.06891(19) 0.64151(17) 0.50869(15)
H38 H -0.1312 0.6563 0.5440
C34 C 0.04882(19) 0.64843(16) 0.54936(14)
C35 C 0.13621(18) 0.62456(16) 0.49244(14)
C36 C 0.25944(18) 0.63152(16) 0.53163(14)
C37 C 0.28832(19) 0.65505(17) 0.62506(14)
C38 C 0.40892(19) 0.65842(17) 0.65909(15)
H39 H 0.4319 0.6723 0.7215
C39 C 0.49313(19) 0.64159(17) 0.60213(15)
H40 H 0.5747 0.6429 0.6241
C40 C 0.45579(19) 0.62234(16) 0.51050(15)
C41 C 0.54757(19) 0.61525(17) 0.44773(15)
C42 C 0.5800(2) 0.62810(19) 0.30182(15)
H41 H 0.5355 0.6100 0.2409
H42 H 0.6433 0.5825 0.3013
C43 C 0.63837(19) 0.74710(18) 0.32815(16)
H43 H 0.6728 0.7663 0.2768
H44 H 0.7050 0.7592 0.3773
C44 C 0.54671(19) 0.82094(18) 0.35804(15)
H45 H 0.5522 0.8372 0.4237
H46 H 0.4648 0.7802 0.3331
C45 C 0.0827(2) 0.67507(18) 0.64381(15)
H47 H 0.0236 0.6919 0.6817
C46 C 0.1961(2) 0.67694(18) 0.68054(15)
H48 H 0.2150 0.6928 0.7434
H49 H 0.160(4) 0.418(3) 0.258(2)
H50 H 0.258(3) 0.368(3) 0.259(2)
N7 N 0.30750(19) 0.22286(17) 0.20838(14)
C47 C 0.3099(2) 0.1333(2) 0.17897(16)
C48 C 0.3153(2) 0.01987(19) 0.14083(17)
H51 H 0.2420 -0.0141 0.0991
H52 H 0.3216 -0.0177 0.1885
H53 H 0.3857 0.0149 0.1092
loop_
_geom_bond_atom_site_label_1
_geom_bond_atom_site_label_2
_geom_bond_site_symmetry_1
_geom_bond_site_symmetry_2
Cl1 Li1 1_555 1_555
Li1 O4 1_555 1_555
O1 C29 1_555 1_555
O2 C30 1_555 1_555
O3 C41 1_555 1_555
O4 C41 1_555 1_555
O5 Li1 1_555 1_555
N1 H1 1_555 1_555
N2 H2 1_555 1_555
N3 H3 1_555 1_555
N4 H4 1_555 1_555
N5 Li1 1_555 1_555
N6 Li1 1_555 1_555
C1 N1 1_555 1_555
C2 C1 1_555 1_555
H5 C2 1_555 1_555
C3 C2 1_555 1_555
H6 C3 1_555 1_555
C4 N1 1_555 1_555
C5 C4 1_555 1_555
C6 N2 1_555 1_555
C7 C6 1_555 1_555
H7 C7 1_555 1_555
C8 C7 1_555 1_555
H8 C8 1_555 1_555
C9 N2 1_555 1_555
C10 C9 1_555 1_555
C11 N3 1_555 1_555
C12 C11 1_555 1_555
H9 C12 1_555 1_555
C13 C12 1_555 1_555
H10 C13 1_555 1_555
C14 N3 1_555 1_555
C15 C14 1_555 1_555
C16 N4 1_555 1_555
C17 C16 1_555 1_555
H11 C17 1_555 1_555
C18 C17 1_555 1_555
H12 C18 1_555 1_555
C19 N4 1_555 1_555
C20 C1 1_555 1_555
C21 C5 1_555 1_555
H13 C21 1_555 1_555
H14 C21 1_555 1_555
H15 C21 1_555 1_555
C22 C10 1_555 1_555
H16 C22 1_555 1_555
H17 C22 1_555 1_555
H18 C22 1_555 1_555
C23 C10 1_555 1_555
H19 C23 1_555 1_555
H20 C23 1_555 1_555
H21 C23 1_555 1_555
C24 C15 1_555 1_555
H22 C24 1_555 1_555
H23 C24 1_555 1_555
H24 C24 1_555 1_555
C25 C20 1_555 1_555
H25 C25 1_555 1_555
H26 C25 1_555 1_555
H27 C25 1_555 1_555
C26 C20 1_555 1_555
H28 C26 1_555 1_555
H29 C26 1_555 1_555
H30 C26 1_555 1_555
C27 C5 1_555 1_555
H31 C27 1_555 1_555
H32 C27 1_555 1_555
C28 C27 1_555 1_555
H33 C28 1_555 1_555
H34 C28 1_555 1_555
C29 C28 1_555 1_555
H35 C29 1_555 1_555
H36 C29 1_555 1_555
C30 O1 1_555 1_555
C31 N5 1_555 1_555
C32 C31 1_555 1_555
H37 C32 1_555 1_555
C33 C32 1_555 1_555
H38 C33 1_555 1_555
C34 C33 1_555 1_555
C35 N5 1_555 1_555
C36 N6 1_555 1_555
C37 C36 1_555 1_555
C38 C37 1_555 1_555
H39 C38 1_555 1_555
C39 C38 1_555 1_555
H40 C39 1_555 1_555
C40 N6 1_555 1_555
C41 C40 1_555 1_555
C42 O4 1_555 1_555
H41 C42 1_555 1_555
H42 C42 1_555 1_555
C43 C42 1_555 1_555
H43 C43 1_555 1_555
H44 C43 1_555 1_555
C44 C15 1_555 1_555
H45 C44 1_555 1_555
H46 C44 1_555 1_555
C45 C34 1_555 1_555
H47 C45 1_555 1_555
C46 C37 1_555 1_555
H48 C46 1_555 1_555
H49 O5 1_555 1_555
H50 O5 1_555 1_555
N7 C47 1_555 1_555
C47 C48 1_555 1_555
C48 H51 1_555 1_555
H52 C48 1_555 1_555
H53 C48 1_555 1_555
C3 C4 1_555 1_555
C5 C6 1_555 1_555
C8 C9 1_555 1_555
C10 C11 1_555 1_555
C13 C14 1_555 1_555
C15 C16 1_555 1_555
C18 C19 1_555 1_555
C19 C20 1_555 1_555
C30 C31 1_555 1_555
C34 C35 1_555 1_555
C35 C36 1_555 1_555
C39 C40 1_555 1_555
C43 C44 1_555 1_555
C45 C46 1_555 1_555

#END
