
#######################################################################
#
#                 Cambridge Crystallographic Data Centre
#                                CCDC 
#
#######################################################################
#
# If this CIF has been generated from an entry in the Cambridge 
# Structural Database, then it will include bibliographic, chemical, 
# crystal, experimental, refinement or atomic coordinate data resulting 
# from the CCDC's data processing and validation procedures.
#
#######################################################################

data_QIDJAR
_chemical_formula_moiety         'C46 H48 N6 O4,C1 H1 Cl3,3(H2 O1)'
_chemical_name_systematic        
'1,22,27,27,36,36-hexamethyl-5,18-dioxa-41,42,43,44,45,48-hexaazanonacyclo[20.9.9.4^7,16^.1^23,26^.1^28,31^.1^32,35^.1^37,40^.0^10,47^.0^13,46^]octatetraconta-7,9,11,13,15,23,25,28,30,32,34,37,39,45,47-pentadecaene-6,17-dione chloroform solvate trihydrate'
_symmetry_cell_setting           monoclinic
_symmetry_space_group_name_H-M   'P 21/c'
_symmetry_Int_Tables_number      14
_space_group_name_Hall           '-P 2ybc'
loop_
_symmetry_equiv_pos_site_id
_symmetry_equiv_pos_as_xyz
1 x,y,z
2 -x,1/2+y,1/2-z
3 -x,-y,-z
4 x,1/2-y,1/2+z
_cell_length_a                   11.0627(3)
_cell_length_b                   18.4250(6)
_cell_length_c                   22.4453(11)
_cell_angle_alpha                90
_cell_angle_beta                 100.969(4)
_cell_angle_gamma                90
_cell_volume                     4491.45
_cell_formula_units_Z            4
loop_
_atom_site_label
_atom_site_type_symbol
_atom_site_fract_x
_atom_site_fract_y
_atom_site_fract_z
C1 C 0.2617(3) 0.50701(18) 0.47449(17)
C2 C 0.3011(3) 0.41640(17) 0.09467(15)
C3 C 0.3492(3) 0.36118(18) 0.06504(16)
H1 H 0.305782 0.332255 0.032937
C4 C 0.4770(3) 0.35564(18) 0.09178(17)
H2 H 0.533600 0.321761 0.080743
C5 C 0.5037(3) 0.40755(17) 0.13605(15)
C6 C 0.6246(3) 0.42682(17) 0.17751(17)
C7 C 0.6757(3) 0.49723(17) 0.15749(16)
C8 C 0.7616(3) 0.51092(19) 0.12226(18)
H3 H 0.802431 0.475586 0.102448
C9 C 0.7788(3) 0.58738(19) 0.12056(17)
H4 H 0.833141 0.612133 0.099443
C10 C 0.7031(3) 0.61888(17) 0.15475(16)
C11 C 0.6878(3) 0.69684(17) 0.17144(16)
C12 C 0.5537(3) 0.71932(17) 0.15839(16)
C13 C 0.4914(3) 0.76685(19) 0.18851(18)
H5 H 0.524225 0.792125 0.224880
C14 C 0.3679(3) 0.7714(2) 0.15521(18)
H6 H 0.303659 0.800119 0.165644
C15 C 0.3588(3) 0.72709(17) 0.10553(16)
C16 C 0.2473(3) 0.70668(18) 0.05784(17)
C17 C 0.1880(3) 0.63989(18) 0.07880(15)
C18 C 0.0976(3) 0.63507(19) 0.11306(17)
H7 H 0.054690 0.674610 0.126550
C19 C 0.0799(3) 0.56071(19) 0.12462(17)
H8 H 0.023163 0.541594 0.147434
C20 C 0.1583(3) 0.52124(18) 0.09736(16)
C21 C 0.1690(3) 0.44021(18) 0.09036(16)
C22 C 0.1108(3) 0.40177(18) 0.13971(16)
H9 H 0.022893 0.415830 0.133690
H10 H 0.113814 0.348718 0.133139
C23 C 0.1705(3) 0.41775(18) 0.20579(16)
H11 H 0.246715 0.388759 0.217306
H12 H 0.192784 0.469771 0.210292
C24 C 0.0814(3) 0.39892(19) 0.24698(16)
H13 H 0.002462 0.424786 0.233578
H14 H 0.064773 0.346085 0.245499
C25 C 0.0642(3) 0.4107(2) 0.34924(18)
C26 C 0.1216(3) 0.4371(2) 0.41223(18)
C27 C 0.0708(4) 0.4105(2) 0.4605(2)
H15 H 0.003565 0.377557 0.453485
C28 C 0.1200(4) 0.4330(2) 0.5177(2)
H16 H 0.087442 0.415779 0.551298
C29 C 0.2193(3) 0.48197(19) 0.52673(18)
C30 C 0.2765(4) 0.5066(2) 0.58606(18)
H17 H 0.246204 0.490088 0.620537
C31 C 0.3723(4) 0.5525(2) 0.59352(17)
H18 H 0.410291 0.566961 0.633300
C32 C 0.4182(3) 0.57992(18) 0.54244(16)
C33 C 0.3625(3) 0.55875(18) 0.48265(16)
C34 C 0.5168(4) 0.6288(2) 0.54929(18)
H19 H 0.555695 0.644197 0.588675
C35 C 0.5573(3) 0.6543(2) 0.49927(17)
H20 H 0.625399 0.686574 0.503334
C36 C 0.4950(3) 0.63138(18) 0.44132(16)
C37 C 0.5257(3) 0.66344(18) 0.38485(16)
C38 C 0.6887(3) 0.7142(2) 0.34251(17)
H21 H 0.774369 0.730913 0.356788
H22 H 0.636351 0.757664 0.332251
C39 C 0.6836(3) 0.66874(17) 0.28569(16)
H23 H 0.596916 0.656983 0.267894
H24 H 0.728631 0.622637 0.296101
C40 C 0.7421(3) 0.71122(18) 0.23938(16)
H25 H 0.831114 0.699699 0.246647
H26 H 0.734246 0.763698 0.247307
C41 C 0.7604(3) 0.74466(18) 0.13409(17)
H27 H 0.729165 0.736739 0.090715
H28 H 0.847844 0.731774 0.143907
H29 H 0.750194 0.795852 0.143925
C42 C 0.2802(3) 0.6944(2) -0.00435(18)
H30 H 0.339311 0.654342 -0.001900
H31 H 0.316966 0.738641 -0.017339
H32 H 0.205602 0.682233 -0.033768
C43 C 0.1544(3) 0.76997(19) 0.05174(19)
H33 H 0.133398 0.780163 0.091391
H34 H 0.079710 0.756667 0.022821
H35 H 0.191184 0.813276 0.037120
C44 C 0.0948(3) 0.4168(2) 0.02841(17)
H36 H 0.125847 0.442216 -0.003935
H37 H 0.007741 0.428861 0.026191
H38 H 0.103281 0.364284 0.023474
C45 C 0.7169(3) 0.36522(19) 0.1743(2)
H39 H 0.681785 0.319050 0.184470
H40 H 0.793428 0.374833 0.203218
H41 H 0.734339 0.362513 0.133149
C46 C 0.6076(3) 0.43307(19) 0.24317(17)
H42 H 0.547565 0.471291 0.246305
H43 H 0.686642 0.445206 0.269170
H44 H 0.577841 0.386726 0.256222
N1 N 0.3959(2) 0.44414(15) 0.13743(13)
H45 H 0.388436 0.480222 0.162165
N2 N 0.6398(2) 0.56360(14) 0.17699(13)
H46 H 0.584823 0.569747 0.200160
N3 N 0.4732(2) 0.69556(15) 0.10780(13)
H47 H 0.491597 0.664852 0.080855
N4 N 0.2246(2) 0.57011(15) 0.06934(13)
H48 H 0.281653 0.558300 0.048576
N5 N 0.4003(2) 0.58545(15) 0.43331(13)
N6 N 0.2138(3) 0.48390(15) 0.41778(14)
O1 O 0.6478(2) 0.67497(14) 0.39171(11)
O2 O 0.4505(2) 0.67742(14) 0.34059(12)
O3 O -0.0360(3) 0.38277(18) 0.33767(14)
O4 O 0.1367(2) 0.42058(13) 0.30852(11)
C47 C 0.1117(5) 0.6368(3) 0.3229(3)
H49 H 0.189672 0.608070 0.332882
Cl1 Cl 0.12685(16) 0.69878(12) 0.26657(8)
Cl2 Cl 0.08874(17) 0.67992(11) 0.38857(8)
Cl3 Cl -0.01031(13) 0.57615(7) 0.29658(9)
O5 O 0.3982(2) 0.57643(9) 0.21143(8)
H50 H 0.385890 0.569820 0.248187
H51 H 0.368872 0.619460 0.201557
O6 O 0.3543(2) 0.51691(13) 0.31604(8)
H52 H 0.323867 0.473581 0.308707
H53 H 0.296380 0.541202 0.328477
O7 O 0.4917(2) 0.56452(14) 0.03750(8)
H54 H 0.509758 0.561917 0.002396
H55 H 0.542128 0.539077 0.062246
loop_
_geom_bond_atom_site_label_1
_geom_bond_atom_site_label_2
_geom_bond_site_symmetry_1
_geom_bond_site_symmetry_2
C1 C29 1_555 1_555
C2 C3 1_555 1_555
C3 H1 1_555 1_555
C4 C3 1_555 1_555
H2 C4 1_555 1_555
C5 C4 1_555 1_555
C6 C5 1_555 1_555
C7 C6 1_555 1_555
C8 C7 1_555 1_555
H3 C8 1_555 1_555
C9 C8 1_555 1_555
H4 C9 1_555 1_555
C10 C9 1_555 1_555
C11 C10 1_555 1_555
C12 C11 1_555 1_555
C13 C12 1_555 1_555
H5 C13 1_555 1_555
C14 C13 1_555 1_555
H6 C14 1_555 1_555
C15 C14 1_555 1_555
C16 C15 1_555 1_555
C17 C16 1_555 1_555
C18 C17 1_555 1_555
H7 C18 1_555 1_555
C19 C18 1_555 1_555
H8 C19 1_555 1_555
C20 C19 1_555 1_555
C21 C2 1_555 1_555
C22 C21 1_555 1_555
H9 C22 1_555 1_555
H10 C22 1_555 1_555
C23 C22 1_555 1_555
H11 C23 1_555 1_555
H12 C23 1_555 1_555
C24 C23 1_555 1_555
H13 C24 1_555 1_555
H14 C24 1_555 1_555
C25 C26 1_555 1_555
C26 C27 1_555 1_555
C27 H15 1_555 1_555
C28 C27 1_555 1_555
H16 C28 1_555 1_555
C29 C28 1_555 1_555
C30 C29 1_555 1_555
H17 C30 1_555 1_555
C31 C30 1_555 1_555
H18 C31 1_555 1_555
C32 C31 1_555 1_555
C33 C1 1_555 1_555
C34 C32 1_555 1_555
H19 C34 1_555 1_555
C35 C34 1_555 1_555
H20 C35 1_555 1_555
C36 C35 1_555 1_555
C37 C36 1_555 1_555
C38 H21 1_555 1_555
H22 C38 1_555 1_555
C39 C38 1_555 1_555
H23 C39 1_555 1_555
H24 C39 1_555 1_555
C40 C11 1_555 1_555
H25 C40 1_555 1_555
H26 C40 1_555 1_555
C41 C11 1_555 1_555
H27 C41 1_555 1_555
H28 C41 1_555 1_555
H29 C41 1_555 1_555
C42 C16 1_555 1_555
H30 C42 1_555 1_555
H31 C42 1_555 1_555
H32 C42 1_555 1_555
C43 C16 1_555 1_555
H33 C43 1_555 1_555
H34 C43 1_555 1_555
H35 C43 1_555 1_555
C44 C21 1_555 1_555
H36 C44 1_555 1_555
H37 C44 1_555 1_555
H38 C44 1_555 1_555
C45 C6 1_555 1_555
H39 C45 1_555 1_555
H40 C45 1_555 1_555
H41 C45 1_555 1_555
C46 C6 1_555 1_555
H42 C46 1_555 1_555
H43 C46 1_555 1_555
H44 C46 1_555 1_555
N1 C2 1_555 1_555
H45 N1 1_555 1_555
N2 C7 1_555 1_555
H46 N2 1_555 1_555
N3 C12 1_555 1_555
H47 N3 1_555 1_555
N4 C17 1_555 1_555
H48 N4 1_555 1_555
N5 C33 1_555 1_555
N6 C1 1_555 1_555
O1 C37 1_555 1_555
O2 C37 1_555 1_555
O3 C25 1_555 1_555
O4 C24 1_555 1_555
C47 H49 1_555 1_555
Cl1 C47 1_555 1_555
Cl2 C47 1_555 1_555
Cl3 C47 1_555 1_555
O5 H50 1_555 1_555
H51 O5 1_555 1_555
O6 H52 1_555 1_555
H53 O6 1_555 1_555
O7 H54 1_555 1_555
H55 O7 1_555 1_555
C5 N1 1_555 1_555
C10 N2 1_555 1_555
C15 N3 1_555 1_555
C20 C21 1_555 1_555
C20 N4 1_555 1_555
C25 O4 1_555 1_555
C26 N6 1_555 1_555
C32 C33 1_555 1_555
C36 N5 1_555 1_555
C38 O1 1_555 1_555
C39 C40 1_555 1_555

#END
