
#######################################################################
#
#                 Cambridge Crystallographic Data Centre
#                                CCDC 
#
#######################################################################
#
# If this CIF has been generated from an entry in the Cambridge 
# Structural Database, then it will include bibliographic, chemical, 
# crystal, experimental, refinement or atomic coordinate data resulting 
# from the CCDC's data processing and validation procedures.
#
#######################################################################

data_QIDKAS
_chemical_formula_moiety         'C11 H18 O2'
_chemical_name_systematic        
7,7,8,8-tetramethyl-5-oxatricyclo[4.2.0.0^1,4^]octan-2-ol
_symmetry_cell_setting           monoclinic
_symmetry_space_group_name_H-M   'P 21/c'
_symmetry_Int_Tables_number      14
_space_group_name_Hall           '-P 2ybc'
loop_
_symmetry_equiv_pos_site_id
_symmetry_equiv_pos_as_xyz
1 x,y,z
2 -x,1/2+y,1/2-z
3 -x,-y,-z
4 x,1/2-y,1/2+z
_cell_length_a                   7.7959(8)
_cell_length_b                   6.6474(7)
_cell_length_c                   20.421(2)
_cell_angle_alpha                90
_cell_angle_beta                 99.410(3)
_cell_angle_gamma                90
_cell_volume                     1044.03
_exptl_crystal_colour            colorless
_exptl_crystal_description       plate
_cell_formula_units_Z            4
loop_
_atom_site_label
_atom_site_type_symbol
_atom_site_fract_x
_atom_site_fract_y
_atom_site_fract_z
C1 C 0.29127(9) -0.43905(10) 0.23316(4)
H1 H 0.241554 -0.578026 0.230934
C2 C 0.26189(10) -0.30274(11) 0.29137(4)
H2 H 0.369663 -0.239567 0.314825
H3 H 0.196748 -0.368887 0.323142
C3 C 0.14835(8) -0.15893(10) 0.24168(3)
H4 H 0.022389 -0.181011 0.243596
C4 C 0.20085(8) -0.27912(9) 0.18418(3)
C5 C 0.38150(9) -0.25686(10) 0.16431(4)
H5 H 0.434963 -0.119735 0.168117
C6 C 0.30534(9) -0.33251(11) 0.09307(4)
C7 C 0.11473(9) -0.32225(10) 0.11253(3)
C8 C 0.00446(10) -0.51301(12) 0.10291(4)
H6 H 0.070713 -0.625902 0.125204
H7 H -0.026272 -0.542197 0.055395
H8 H -0.101857 -0.493382 0.121941
C9 C 0.00519(11) -0.14325(12) 0.08304(4)
H9 H -0.022640 -0.158506 0.034732
H10 H 0.070762 -0.018477 0.093724
H11 H -0.102741 -0.138078 0.101753
C10 C 0.34246(12) -0.18406(14) 0.03990(4)
H12 H 0.465726 -0.191226 0.035668
H13 H 0.314380 -0.047335 0.052650
H14 H 0.271049 -0.218508 -0.002689
C11 C 0.36659(11) -0.54210(13) 0.07740(4)
H15 H 0.298803 -0.589338 0.035552
H16 H 0.350345 -0.634573 0.113252
H17 H 0.490030 -0.537186 0.073301
O1 O 0.45961(7) -0.40870(9) 0.21148(3)
O2 O 0.18624(7) 0.04930(7) 0.24481(3)
H18 H 0.294452 0.065955 0.252804
loop_
_geom_bond_atom_site_label_1
_geom_bond_atom_site_label_2
_geom_bond_site_symmetry_1
_geom_bond_site_symmetry_2
C1 H1 1_555 1_555
C2 C1 1_555 1_555
H2 C2 1_555 1_555
H3 C2 1_555 1_555
C3 C2 1_555 1_555
H4 C3 1_555 1_555
C4 C1 1_555 1_555
C5 C4 1_555 1_555
H5 C5 1_555 1_555
C6 C5 1_555 1_555
C7 C4 1_555 1_555
C8 C7 1_555 1_555
H6 C8 1_555 1_555
H7 C8 1_555 1_555
H8 C8 1_555 1_555
C9 C7 1_555 1_555
H9 C9 1_555 1_555
H10 C9 1_555 1_555
H11 C9 1_555 1_555
C10 C6 1_555 1_555
H12 C10 1_555 1_555
H13 C10 1_555 1_555
H14 C10 1_555 1_555
C11 C6 1_555 1_555
H15 C11 1_555 1_555
H16 C11 1_555 1_555
H17 C11 1_555 1_555
O1 C1 1_555 1_555
O2 C3 1_555 1_555
H18 O2 1_555 1_555
C3 C4 1_555 1_555
C5 O1 1_555 1_555
C6 C7 1_555 1_555

#END
