
#######################################################################
#
#                 Cambridge Crystallographic Data Centre
#                                CCDC 
#
#######################################################################
#
# If this CIF has been generated from an entry in the Cambridge 
# Structural Database, then it will include bibliographic, chemical, 
# crystal, experimental, refinement or atomic coordinate data resulting 
# from the CCDC's data processing and validation procedures.
#
#######################################################################

data_QIDTUS
_chemical_formula_moiety         'C30 H61 N5 O4 Sr1'
_chemical_name_systematic        
bis(2,2,6,6-Tetramethyl-3,5-heptanedionato-O,O')-(tetraethylenepentaamine-N,N',N'',N''',N'''')-strontium
_symmetry_cell_setting           orthorhombic
_symmetry_space_group_name_H-M   'P c c n'
_symmetry_Int_Tables_number      56
_space_group_name_Hall           '-P 2ab 2ac'
loop_
_symmetry_equiv_pos_site_id
_symmetry_equiv_pos_as_xyz
1 x,y,z
2 1/2+x,1/2+y,-z
3 x,1/2-y,1/2+z
4 1/2-x,y,1/2+z
5 -x,-y,-z
6 1/2-x,1/2-y,z
7 -x,1/2+y,1/2-z
8 1/2+x,-y,1/2-z
_cell_length_a                   11.437(2)
_cell_length_b                   15.868(3)
_cell_length_c                   20.917(6)
_cell_angle_alpha                90
_cell_angle_beta                 90
_cell_angle_gamma                90
_cell_volume                     3796.07
_exptl_crystal_colour            colorless
_chemical_melting_point          84-90deg.C
_cell_formula_units_Z            4
_exptl_crystal_recrystallization_method n-hexane
loop_
_atom_site_label
_atom_site_type_symbol
_atom_site_fract_x
_atom_site_fract_y
_atom_site_fract_z
Sr1 Sr 0.2500 0.2500 0.10086(3)
O1 O 0.3189(4) 0.1467(2) 0.0178(2)
O2 O 0.2517(4) 0.0970(3) 0.1419(2)
N1 N 0.2500 0.2500 0.2300(6)
N2 N 0.0339(12) 0.2677(7) 0.1589(5)
H1 H 0.0853(12) 0.2958(7) 0.1377(5)
N3 N 0.0533(6) 0.1884(6) 0.0377(5)
H2 H 0.0564(6) 0.2035(6) -0.0038(5)
H3 H 0.0529(6) 0.1318(6) 0.0397(5)
C1 C 0.2976(6) 0.0707(4) 0.0053(3)
C2 C 0.3133(9) 0.0456(5) -0.0653(4)
C3 C 0.4075(19) 0.1051(11) -0.0958(6)
H4 H 0.4813(19) 0.0966(11) -0.0749(6)
H5 H 0.3837(19) 0.1627(11) -0.0907(6)
H6 H 0.4152(19) 0.0925(11) -0.1405(6)
C4 C 0.3629(21) -0.0418(9) -0.0726(6)
H7 H 0.4367(21) -0.0451(9) -0.0510(6)
H8 H 0.3738(21) -0.0540(9) -0.1172(6)
H9 H 0.3098(21) -0.0820(9) -0.0544(6)
C5 C 0.2026(16) 0.0580(14) -0.0965(6)
H10 H 0.1771(16) 0.1150(14) -0.0901(6)
H11 H 0.1459(16) 0.0200(14) -0.0788(6)
H12 H 0.2109(16) 0.0473(14) -0.1415(6)
C6 C 0.2633(6) 0.0123(4) 0.0504(3)
H13 H 0.2522(6) -0.0426(4) 0.0359(3)
C7 C 0.2436(6) 0.0265(4) 0.1150(3)
C8 C 0.2116(7) -0.0472(4) 0.1607(4)
C9 C 0.1034(11) -0.0230(6) 0.1983(6)
H14 H 0.1160(11) 0.0304(6) 0.2188(6)
H15 H 0.0880(11) -0.0652(6) 0.2301(6)
H16 H 0.0379(11) -0.0189(6) 0.1699(6)
C10 C 0.1958(18) -0.1297(5) 0.1291(7)
H17 H 0.2654(18) -0.1438(5) 0.1058(7)
H18 H 0.1308(18) -0.1267(5) 0.1002(7)
H19 H 0.1810(18) -0.1721(5) 0.1608(7)
C11 C 0.3096(12) -0.0522(10) 0.2111(7)
H20 H 0.3191(12) 0.0018(10) 0.2311(7)
H21 H 0.3815(12) -0.0683(10) 0.1908(7)
H22 H 0.2894(12) -0.0934(10) 0.2429(7)
C12 C 0.1401(24) 0.2594(16) 0.2607(8)
H23 H 0.1341(24) 0.2145(16) 0.2921(8)
H24 H 0.1429(24) 0.3119(16) 0.2844(8)
C13 C 0.0383(20) 0.2595(15) 0.2268(10)
H25 H -0.0092(20) 0.3047(15) 0.2441(10)
H26 H -0.0016(20) 0.2073(15) 0.2371(10)
C14 C -0.0630(15) 0.2256(15) 0.1286(12)
H27 H -0.0699(15) 0.1692(15) 0.1460(12)
H28 H -0.1345(15) 0.2558(15) 0.1385(12)
C15 C -0.0518(13) 0.2205(14) 0.0656(12)
H29 H -0.0639(13) 0.2766(14) 0.0485(12)
H30 H -0.1157(13) 0.1859(14) 0.0501(12)
O1E O 0.1811(4) 0.3533(2) 0.0178(2)
C1E C 0.2024(6) 0.4293(4) 0.0053(3)
C2E C 0.1867(9) 0.4544(5) -0.0653(4)
C3E C 0.0925(19) 0.3949(11) -0.0958(6)
H4E H 0.0187(19) 0.4034(11) -0.0749(6)
H5E H 0.1163(19) 0.3373(11) -0.0907(6)
H6E H 0.0848(19) 0.4075(11) -0.1405(6)
C4E C 0.1371(21) 0.5418(9) -0.0726(6)
H7E H 0.0633(21) 0.5451(9) -0.0510(6)
H8E H 0.1262(21) 0.5540(9) -0.1172(6)
H9E H 0.1902(21) 0.5820(9) -0.0544(6)
C5E C 0.2974(16) 0.4420(14) -0.0965(6)
H10E H 0.3229(16) 0.3850(14) -0.0901(6)
H11E H 0.3541(16) 0.4800(14) -0.0788(6)
H12E H 0.2891(16) 0.4527(14) -0.1415(6)
C6E C 0.2367(6) 0.4877(4) 0.0504(3)
H13E H 0.2478(6) 0.5426(4) 0.0359(3)
C7E C 0.2564(6) 0.4735(4) 0.1150(3)
O2E O 0.2483(4) 0.4030(3) 0.1419(2)
N2E N 0.4661(12) 0.2323(7) 0.1589(5)
H1E H 0.4147(12) 0.2042(7) 0.1377(5)
C13E C 0.4617(20) 0.2405(15) 0.2268(10)
C12E C 0.3599(24) 0.2406(16) 0.2607(8)
H23E H 0.3659(24) 0.2855(16) 0.2921(8)
H24E H 0.3571(24) 0.1881(16) 0.2844(8)
H25E H 0.5092(20) 0.1953(15) 0.2441(10)
H26E H 0.5016(20) 0.2927(15) 0.2371(10)
C14E C 0.5630(15) 0.2744(15) 0.1286(12)
H27E H 0.5699(15) 0.3308(15) 0.1460(12)
H28E H 0.6345(15) 0.2442(15) 0.1385(12)
C15E C 0.5518(13) 0.2795(14) 0.0656(12)
N3E N 0.4467(6) 0.3116(6) 0.0377(5)
H2E H 0.4436(6) 0.2965(6) -0.0038(5)
H3E H 0.4471(6) 0.3682(6) 0.0397(5)
H29E H 0.5639(13) 0.2234(14) 0.0485(12)
H30E H 0.6157(13) 0.3141(14) 0.0501(12)
C8E C 0.2884(7) 0.5472(4) 0.1607(4)
C9E C 0.3966(11) 0.5230(6) 0.1983(6)
H14E H 0.3840(11) 0.4696(6) 0.2188(6)
H15E H 0.4120(11) 0.5652(6) 0.2301(6)
H16E H 0.4621(11) 0.5189(6) 0.1699(6)
C10E C 0.3042(18) 0.6297(5) 0.1291(7)
H17E H 0.2346(18) 0.6438(5) 0.1058(7)
H18E H 0.3692(18) 0.6267(5) 0.1002(7)
H19E H 0.3190(18) 0.6721(5) 0.1608(7)
C11E C 0.1904(12) 0.5522(10) 0.2111(7)
H20E H 0.1809(12) 0.4982(10) 0.2311(7)
H21E H 0.1185(12) 0.5683(10) 0.1908(7)
H22E H 0.2106(12) 0.5934(10) 0.2429(7)
loop_
_geom_bond_atom_site_label_1
_geom_bond_atom_site_label_2
_geom_bond_site_symmetry_1
_geom_bond_site_symmetry_2
Sr1 O1 1_555 1_555
O1 C1 1_555 1_555
O2 Sr1 1_555 1_555
N1 Sr1 1_555 1_555
N2 Sr1 1_555 1_555
H1 N2 1_555 1_555
N3 Sr1 1_555 1_555
H2 N3 1_555 1_555
H3 N3 1_555 1_555
C1 C2 1_555 1_555
C2 C3 1_555 1_555
C3 H4 1_555 1_555
H5 C3 1_555 1_555
H6 C3 1_555 1_555
C4 C2 1_555 1_555
H7 C4 1_555 1_555
H8 C4 1_555 1_555
H9 C4 1_555 1_555
C5 C2 1_555 1_555
H10 C5 1_555 1_555
H11 C5 1_555 1_555
H12 C5 1_555 1_555
C6 C1 1_555 1_555
H13 C6 1_555 1_555
C7 O2 1_555 1_555
C8 C7 1_555 1_555
C9 C8 1_555 1_555
H14 C9 1_555 1_555
H15 C9 1_555 1_555
H16 C9 1_555 1_555
C10 C8 1_555 1_555
H17 C10 1_555 1_555
H18 C10 1_555 1_555
H19 C10 1_555 1_555
C11 C8 1_555 1_555
H20 C11 1_555 1_555
H21 C11 1_555 1_555
H22 C11 1_555 1_555
C12 N1 1_555 1_555
H23 C12 1_555 1_555
H24 C12 1_555 1_555
C13 N2 1_555 1_555
H25 C13 1_555 1_555
H26 C13 1_555 1_555
C14 N2 1_555 1_555
H27 C14 1_555 1_555
H28 C14 1_555 1_555
C15 N3 1_555 1_555
H29 C15 1_555 1_555
H30 C15 1_555 1_555
O1E Sr1 1_555 1_555
C1E O1E 1_555 1_555
C2E C1E 1_555 1_555
C3E C2E 1_555 1_555
H4E C3E 1_555 1_555
H5E C3E 1_555 1_555
H6E C3E 1_555 1_555
C4E C2E 1_555 1_555
H7E C4E 1_555 1_555
H8E C4E 1_555 1_555
H9E C4E 1_555 1_555
C5E C2E 1_555 1_555
H10E C5E 1_555 1_555
H11E C5E 1_555 1_555
H12E C5E 1_555 1_555
C6E C1E 1_555 1_555
H13E C6E 1_555 1_555
C7E C6E 1_555 1_555
O2E Sr1 1_555 1_555
N2E Sr1 1_555 1_555
H1E N2E 1_555 1_555
C13E N2E 1_555 1_555
C12E N1 1_555 1_555
H23E C12E 1_555 1_555
H24E C12E 1_555 1_555
H25E C13E 1_555 1_555
H26E C13E 1_555 1_555
C14E N2E 1_555 1_555
H27E C14E 1_555 1_555
H28E C14E 1_555 1_555
C15E C14E 1_555 1_555
N3E Sr1 1_555 1_555
H2E N3E 1_555 1_555
H3E N3E 1_555 1_555
H29E C15E 1_555 1_555
H30E C15E 1_555 1_555
C8E C7E 1_555 1_555
C9E C8E 1_555 1_555
H14E C9E 1_555 1_555
H15E C9E 1_555 1_555
H16E C9E 1_555 1_555
C10E C8E 1_555 1_555
H17E C10E 1_555 1_555
H18E C10E 1_555 1_555
H19E C10E 1_555 1_555
C11E C8E 1_555 1_555
H20E C11E 1_555 1_555
H21E C11E 1_555 1_555
H22E C11E 1_555 1_555
C6 C7 1_555 1_555
C12 C13 1_555 1_555
C14 C15 1_555 1_555
C7E O2E 1_555 1_555
C13E C12E 1_555 1_555
C15E N3E 1_555 1_555

#END
