
#######################################################################
#
#                 Cambridge Crystallographic Data Centre
#                                CCDC 
#
#######################################################################
#
# If this CIF has been generated from an entry in the Cambridge 
# Structural Database, then it will include bibliographic, chemical, 
# crystal, experimental, refinement or atomic coordinate data resulting 
# from the CCDC's data processing and validation procedures.
#
#######################################################################

data_QIDTIG
_chemical_formula_moiety         'C52 H102 N6 O8 Sr2'
_chemical_name_systematic        
bis((\m~2~-2,2,6,6-Tetramethyl-3,5-heptanedionato-O,O',O')-(2,2,6,6-tetramethyl-3,5-heptanedionato-O,O')-(diethylenetriamine-N,N',N''))-di-strontium
_symmetry_cell_setting           monoclinic
_symmetry_space_group_name_H-M   'P 21/c'
_symmetry_Int_Tables_number      14
_space_group_name_Hall           '-P 2ybc'
loop_
_symmetry_equiv_pos_site_id
_symmetry_equiv_pos_as_xyz
1 x,y,z
2 x,1/2-y,1/2+z
3 -x,-y,-z
4 -x,1/2+y,1/2-z
_cell_length_a                   20.528(3)
_cell_length_b                   12.106(2)
_cell_length_c                   26.638(5)
_cell_angle_alpha                90.00
_cell_angle_beta                 95.060(10)
_cell_angle_gamma                90.00
_cell_volume                     6594.06
_exptl_crystal_colour            colorless
_chemical_melting_point          128-135deg.C
_cell_formula_units_Z            4
_exptl_crystal_recrystallization_method n-hexane
loop_
_atom_site_label
_atom_site_type_symbol
_atom_site_fract_x
_atom_site_fract_y
_atom_site_fract_z
Sr1 Sr 0.69200(5) 0.56080(9) 0.21309(4)
Sr2 Sr 0.77470(6) 0.45987(10) 0.09368(4)
O1 O 0.6264(4) 0.5369(7) 0.2873(3)
O2 O 0.7634(4) 0.5174(8) 0.2938(3)
O3 O 0.6937(4) 0.6241(7) 0.1192(3)
O4 O 0.5910(4) 0.5025(7) 0.1577(3)
O5 O 0.8530(4) 0.6113(8) 0.0833(3)
O6 O 0.7722(4) 0.5153(8) 0.0025(3)
O7 O 0.7320(4) 0.3787(7) 0.1757(3)
O8 O 0.8656(4) 0.3974(10) 0.1592(4)
N1 N 0.6000(7) 0.7251(11) 0.2202(6)
H1 H 0.5824(7) 0.7410(11) 0.1889(6)
H2 H 0.5678(7) 0.6982(11) 0.2375(6)
N2 N 0.7354(9) 0.7586(13) 0.2533(6)
H3 H 0.7288(9) 0.6886(13) 0.2552(6)
N3 N 0.8214(6) 0.6225(14) 0.1984(6)
H4 H 0.8484(6) 0.5661(14) 0.2076(6)
H5 H 0.8243(6) 0.6357(14) 0.1654(6)
N4 N 0.8727(8) 0.3468(14) 0.0517(7)
H6 H 0.8883(8) 0.3901(14) 0.0281(7)
H7 H 0.9056(8) 0.3356(14) 0.0759(7)
N5 N 0.7531(8) 0.2339(12) 0.0704(6)
H8 H 0.7498(8) 0.2726(12) 0.0971(6)
N6 N 0.6536(7) 0.4056(13) 0.0508(8)
H9 H 0.6236(7) 0.4330(13) 0.0701(8)
H10 H 0.6475(7) 0.4390(13) 0.0206(8)
C1 C 0.6228(14) 0.8259(23) 0.2437(14)
H11 H 0.6166(14) 0.8844(23) 0.2189(14)
H12 H 0.5949(14) 0.8426(23) 0.2703(14)
C2 C 0.6831(14) 0.8303(20) 0.2631(11)
H13 H 0.6809(14) 0.8276(20) 0.2993(11)
H14 H 0.6981(14) 0.9040(20) 0.2557(11)
C3 C 0.7945(14) 0.7927(23) 0.2412(11)
H15 H 0.7867(14) 0.8455(23) 0.2140(11)
H16 H 0.8141(14) 0.8337(23) 0.2700(11)
C4 C 0.8421(11) 0.7197(21) 0.2270(10)
H17 H 0.8674(11) 0.6952(21) 0.2575(10)
H18 H 0.8715(11) 0.7609(21) 0.2074(10)
C5 C 0.8543(15) 0.2383(22) 0.0283(15)
H19 H 0.8279(15) 0.2497(22) -0.0033(15)
H20 H 0.8934(15) 0.1980(22) 0.0214(15)
C6 C 0.8186(14) 0.1773(19) 0.0618(14)
H21 H 0.8446(14) 0.1695(19) 0.0938(14)
H22 H 0.8101(14) 0.1039(19) 0.0481(14)
C7 C 0.6985(13) 0.2222(17) 0.0344(11)
H23 H 0.6852(13) 0.1453(17) 0.0335(11)
H24 H 0.7120(13) 0.2407(17) 0.0014(11)
C8 C 0.6414(11) 0.2908(18) 0.0438(11)
H25 H 0.6086(11) 0.2817(18) 0.0157(11)
H26 H 0.6231(11) 0.2626(18) 0.0736(11)
C9 C 0.6358(7) 0.5164(11) 0.3333(5)
C10 C 0.5729(7) 0.5059(15) 0.3617(6)
C11 C 0.5293(12) 0.4312(33) 0.3340(10)
H27 H 0.5487(12) 0.3590(33) 0.3342(10)
H28 H 0.5213(12) 0.4566(33) 0.2999(10)
H29 H 0.4888(12) 0.4278(33) 0.3493(10)
C12 C 0.5399(14) 0.6073(29) 0.3598(15)
H30 H 0.5663(14) 0.6617(29) 0.3783(15)
H31 H 0.4991(14) 0.5993(29) 0.3746(15)
H32 H 0.5316(14) 0.6303(29) 0.3254(15)
C13 C 0.5848(13) 0.4691(34) 0.4150(8)
H33 H 0.6058(13) 0.3982(34) 0.4162(8)
H34 H 0.5439(13) 0.4638(34) 0.4297(8)
H35 H 0.6125(13) 0.5217(34) 0.4336(8)
C14 C 0.6960(8) 0.5061(13) 0.3608(6)
H36 H 0.6966(8) 0.5003(13) 0.3957(6)
C15 C 0.7567(7) 0.5039(11) 0.3391(5)
C16 C 0.8200(8) 0.4816(14) 0.3747(6)
C17 C 0.8131(11) 0.5148(32) 0.4283(7)
H37 H 0.8067(11) 0.5932(32) 0.4300(7)
H38 H 0.8521(11) 0.4948(32) 0.4489(7)
H39 H 0.7762(11) 0.4775(32) 0.4403(7)
C18 C 0.8755(9) 0.5460(24) 0.3560(11)
H40 H 0.8665(9) 0.6236(24) 0.3581(11)
H41 H 0.8803(9) 0.5263(24) 0.3216(11)
H42 H 0.9152(9) 0.5291(24) 0.3764(11)
C19 C 0.8312(13) 0.3622(20) 0.3732(12)
H43 H 0.8371(13) 0.3401(20) 0.3393(12)
H44 H 0.7941(13) 0.3242(20) 0.3845(12)
H45 H 0.8696(13) 0.3439(20) 0.3948(12)
C20 C 0.6474(6) 0.6730(10) 0.0959(5)
C21 C 0.6615(7) 0.7739(12) 0.0611(6)
C22 C 0.7283(10) 0.8126(19) 0.0767(12)
H46 H 0.7306(10) 0.8370(19) 0.1111(12)
H47 H 0.7391(10) 0.8728(19) 0.0555(12)
H48 H 0.7587(10) 0.7532(19) 0.0736(12)
C23 C 0.6571(18) 0.7356(19) 0.0075(7)
H49 H 0.6133(18) 0.7112(19) -0.0024(7)
H50 H 0.6870(18) 0.6755(19) 0.0043(7)
H51 H 0.6681(18) 0.7954(19) -0.0139(7)
C24 C 0.6145(12) 0.8683(16) 0.0647(11)
H52 H 0.5711(12) 0.8443(16) 0.0535(11)
H53 H 0.6269(12) 0.9281(16) 0.0438(11)
H54 H 0.6156(12) 0.8928(16) 0.0990(11)
C25 C 0.5813(6) 0.6410(12) 0.0954(5)
H55 H 0.5513(6) 0.6797(12) 0.0739(5)
C26 C 0.5568(6) 0.5577(11) 0.1239(5)
C27 C 0.4831(6) 0.5236(12) 0.1161(6)
C28 C 0.4463(8) 0.5803(32) 0.0750(9)
H56 H 0.4478(8) 0.6585(32) 0.0810(9)
H57 H 0.4016(8) 0.5557(32) 0.0727(9)
H58 H 0.4649(8) 0.5642(32) 0.0440(9)
C29 C 0.4787(11) 0.4061(19) 0.1069(13)
H59 H 0.5027(11) 0.3674(19) 0.1340(13)
H60 H 0.4968(11) 0.3891(19) 0.0758(13)
H61 H 0.4337(11) 0.3837(19) 0.1048(13)
C30 C 0.4549(8) 0.5489(30) 0.1652(9)
H62 H 0.4785(8) 0.5084(30) 0.1920(9)
H63 H 0.4097(8) 0.5277(30) 0.1629(9)
H64 H 0.4586(8) 0.6266(30) 0.1720(9)
C31 C 0.8830(6) 0.6454(13) 0.0473(6)
C32 C 0.9423(9) 0.7205(21) 0.0627(8)
C33 C 0.9776(15) 0.7585(35) 0.0219(11)
H65 H 0.9911(15) 0.6963(35) 0.0030(11)
H66 H 1.0154(15) 0.7992(35) 0.0351(11)
H67 H 0.9499(15) 0.8055(35) 0.0002(11)
C34 C 0.9252(19) 0.8054(30) 0.0921(16)
H68 H 0.8938(19) 0.8515(30) 0.0732(16)
H69 H 0.9633(19) 0.8482(30) 0.1028(16)
H70 H 0.9063(19) 0.7767(30) 0.1211(16)
C35 C 0.9907(13) 0.6581(35) 0.0899(16)
H71 H 1.0025(13) 0.5965(35) 0.0699(16)
H72 H 0.9744(13) 0.6317(35) 0.1204(16)
H73 H 1.0285(13) 0.7035(35) 0.0981(16)
C36 C 0.8654(6) 0.6233(13) -0.0037(6)
H74 H 0.8922(6) 0.6535(13) -0.0265(6)
C37 C 0.8123(7) 0.5613(12) -0.0244(5)
C38 C 0.7995(8) 0.5490(18) -0.0807(6)
C39 C 0.8525(16) 0.5834(34) -0.1090(8)
H75 H 0.8651(16) 0.6574(34) -0.0996(8)
H76 H 0.8387(16) 0.5809(34) -0.1443(8)
H77 H 0.8890(16) 0.5347(34) -0.1019(8)
C40 C 0.7789(20) 0.4434(26) -0.0935(9)
H78 H 0.7436(20) 0.4231(26) -0.0740(9)
H79 H 0.8146(20) 0.3927(26) -0.0867(9)
H80 H 0.7642(20) 0.4409(26) -0.1287(9)
C41 C 0.7441(15) 0.6216(36) -0.0979(8)
H81 H 0.7562(15) 0.6973(36) -0.0916(8)
H82 H 0.7071(15) 0.6037(36) -0.0798(8)
H83 H 0.7330(15) 0.6110(36) -0.1333(8)
C42 C 0.7509(7) 0.2923(12) 0.2005(5)
C43 C 0.7002(8) 0.2215(12) 0.2231(6)
C44 C 0.7214(14) 0.1854(29) 0.2743(9)
H84 H 0.7622(14) 0.1468(29) 0.2743(9)
H85 H 0.6890(14) 0.1371(29) 0.2862(9)
H86 H 0.7268(14) 0.2486(29) 0.2960(9)
C45 C 0.6366(11) 0.2801(19) 0.2227(12)
H87 H 0.6221(11) 0.3013(19) 0.1888(12)
H88 H 0.6417(11) 0.3449(19) 0.2435(12)
H89 H 0.6048(11) 0.2321(19) 0.2356(12)
C46 C 0.6899(15) 0.1183(21) 0.1913(11)
H90 H 0.7306(15) 0.0792(21) 0.1909(11)
H91 H 0.6743(15) 0.1384(21) 0.1575(11)
H92 H 0.6583(15) 0.0716(21) 0.2053(11)
C47 C 0.8186(8) 0.2601(14) 0.2068(6)
H93 H 0.8288(8) 0.1956(14) 0.2248(6)
C48 C 0.8709(7) 0.3179(15) 0.1879(6)
C49 C 0.9405(9) 0.2792(21) 0.2074(10)
C50 C 0.9812(12) 0.2713(38) 0.1659(13)
H94 H 0.9779(12) 0.3385(38) 0.1467(13)
H95 H 0.9668(12) 0.2104(38) 0.1447(13)
H96 H 1.0258(12) 0.2598(38) 0.1788(13)
C51 C 0.9693(13) 0.3690(35) 0.2387(15)
H97 H 0.9677(13) 0.4362(35) 0.2195(15)
H98 H 1.0139(13) 0.3515(35) 0.2495(15)
H99 H 0.9451(13) 0.3783(35) 0.2677(15)
C52 C 0.9451(13) 0.1865(32) 0.2363(16)
H100 H 0.9163(13) 0.1927(32) 0.2627(16)
H101 H 0.9893(13) 0.1779(32) 0.2508(16)
H102 H 0.9329(13) 0.1233(32) 0.2158(16)
loop_
_geom_bond_atom_site_label_1
_geom_bond_atom_site_label_2
_geom_bond_site_symmetry_1
_geom_bond_site_symmetry_2
Sr1 O1 1_555 1_555
Sr2 O3 1_555 1_555
O1 C9 1_555 1_555
O2 Sr1 1_555 1_555
O3 Sr1 1_555 1_555
O4 Sr1 1_555 1_555
O5 Sr2 1_555 1_555
O6 Sr2 1_555 1_555
O7 Sr1 1_555 1_555
O8 Sr2 1_555 1_555
N1 Sr1 1_555 1_555
H1 N1 1_555 1_555
H2 N1 1_555 1_555
N2 Sr1 1_555 1_555
H3 N2 1_555 1_555
N3 Sr1 1_555 1_555
H4 N3 1_555 1_555
H5 N3 1_555 1_555
N4 Sr2 1_555 1_555
H6 N4 1_555 1_555
H7 N4 1_555 1_555
N5 Sr2 1_555 1_555
H8 N5 1_555 1_555
N6 Sr2 1_555 1_555
H9 N6 1_555 1_555
H10 N6 1_555 1_555
C1 N1 1_555 1_555
H11 C1 1_555 1_555
H12 C1 1_555 1_555
C2 N2 1_555 1_555
H13 C2 1_555 1_555
H14 C2 1_555 1_555
C3 N2 1_555 1_555
H15 C3 1_555 1_555
H16 C3 1_555 1_555
C4 N3 1_555 1_555
H17 C4 1_555 1_555
H18 C4 1_555 1_555
C5 N4 1_555 1_555
H19 C5 1_555 1_555
H20 C5 1_555 1_555
C6 N5 1_555 1_555
H21 C6 1_555 1_555
H22 C6 1_555 1_555
C7 N5 1_555 1_555
H23 C7 1_555 1_555
H24 C7 1_555 1_555
C8 N6 1_555 1_555
H25 C8 1_555 1_555
H26 C8 1_555 1_555
C9 C10 1_555 1_555
C10 C11 1_555 1_555
C11 H27 1_555 1_555
H28 C11 1_555 1_555
H29 C11 1_555 1_555
C12 C10 1_555 1_555
H30 C12 1_555 1_555
H31 C12 1_555 1_555
H32 C12 1_555 1_555
C13 C10 1_555 1_555
H33 C13 1_555 1_555
H34 C13 1_555 1_555
H35 C13 1_555 1_555
C14 C9 1_555 1_555
H36 C14 1_555 1_555
C15 O2 1_555 1_555
C16 C15 1_555 1_555
C17 C16 1_555 1_555
H37 C17 1_555 1_555
H38 C17 1_555 1_555
H39 C17 1_555 1_555
C18 C16 1_555 1_555
H40 C18 1_555 1_555
H41 C18 1_555 1_555
H42 C18 1_555 1_555
C19 C16 1_555 1_555
H43 C19 1_555 1_555
H44 C19 1_555 1_555
H45 C19 1_555 1_555
C20 O3 1_555 1_555
C21 C20 1_555 1_555
C22 C21 1_555 1_555
H46 C22 1_555 1_555
H47 C22 1_555 1_555
H48 C22 1_555 1_555
C23 C21 1_555 1_555
H49 C23 1_555 1_555
H50 C23 1_555 1_555
H51 C23 1_555 1_555
C24 C21 1_555 1_555
H52 C24 1_555 1_555
H53 C24 1_555 1_555
H54 C24 1_555 1_555
C25 C20 1_555 1_555
H55 C25 1_555 1_555
C26 O4 1_555 1_555
C27 C26 1_555 1_555
C28 C27 1_555 1_555
H56 C28 1_555 1_555
H57 C28 1_555 1_555
H58 C28 1_555 1_555
C29 C27 1_555 1_555
H59 C29 1_555 1_555
H60 C29 1_555 1_555
H61 C29 1_555 1_555
C30 C27 1_555 1_555
H62 C30 1_555 1_555
H63 C30 1_555 1_555
H64 C30 1_555 1_555
C31 O5 1_555 1_555
C32 C31 1_555 1_555
C33 C32 1_555 1_555
H65 C33 1_555 1_555
H66 C33 1_555 1_555
H67 C33 1_555 1_555
C34 C32 1_555 1_555
H68 C34 1_555 1_555
H69 C34 1_555 1_555
H70 C34 1_555 1_555
C35 C32 1_555 1_555
H71 C35 1_555 1_555
H72 C35 1_555 1_555
H73 C35 1_555 1_555
C36 C31 1_555 1_555
H74 C36 1_555 1_555
C37 O6 1_555 1_555
C38 C37 1_555 1_555
C39 C38 1_555 1_555
H75 C39 1_555 1_555
H76 C39 1_555 1_555
H77 C39 1_555 1_555
C40 C38 1_555 1_555
H78 C40 1_555 1_555
H79 C40 1_555 1_555
H80 C40 1_555 1_555
C41 C38 1_555 1_555
H81 C41 1_555 1_555
H82 C41 1_555 1_555
H83 C41 1_555 1_555
C42 O7 1_555 1_555
C43 C42 1_555 1_555
C44 C43 1_555 1_555
H84 C44 1_555 1_555
H85 C44 1_555 1_555
H86 C44 1_555 1_555
C45 C43 1_555 1_555
H87 C45 1_555 1_555
H88 C45 1_555 1_555
H89 C45 1_555 1_555
C46 C43 1_555 1_555
H90 C46 1_555 1_555
H91 C46 1_555 1_555
H92 C46 1_555 1_555
C47 C42 1_555 1_555
H93 C47 1_555 1_555
C48 O8 1_555 1_555
C49 C48 1_555 1_555
C50 C49 1_555 1_555
H94 C50 1_555 1_555
H95 C50 1_555 1_555
H96 C50 1_555 1_555
C51 C49 1_555 1_555
H97 C51 1_555 1_555
H98 C51 1_555 1_555
H99 C51 1_555 1_555
C52 C49 1_555 1_555
H100 C52 1_555 1_555
H101 C52 1_555 1_555
H102 C52 1_555 1_555
Sr2 O7 1_555 1_555
C1 C2 1_555 1_555
C3 C4 1_555 1_555
C5 C6 1_555 1_555
C7 C8 1_555 1_555
C14 C15 1_555 1_555
C25 C26 1_555 1_555
C36 C37 1_555 1_555
C47 C48 1_555 1_555

#END
