
#######################################################################
#
#                 Cambridge Crystallographic Data Centre
#                                CCDC 
#
#######################################################################
#
# If this CIF has been generated from an entry in the Cambridge 
# Structural Database, then it will include bibliographic, chemical, 
# crystal, experimental, refinement or atomic coordinate data resulting 
# from the CCDC's data processing and validation procedures.
#
#######################################################################

data_QIDVAA
_chemical_formula_moiety         'C28 H56 N4 O4 Sr1'
_chemical_name_systematic        
bis(2,2,6,6-Tetramethyl-3,5-heptanedionato-O,O')-(tris(2-aminoethyl)amine-N,N',N'',N''')-strontium
_symmetry_cell_setting           orthorhombic
_symmetry_space_group_name_H-M   'P n m a'
_symmetry_Int_Tables_number      62
_space_group_name_Hall           '-P 2ac 2n'
loop_
_symmetry_equiv_pos_site_id
_symmetry_equiv_pos_as_xyz
1 x,y,z
2 1/2+x,y,1/2-z
3 x,1/2-y,z
4 1/2-x,1/2+y,1/2+z
5 -x,-y,-z
6 1/2-x,-y,1/2+z
7 -x,1/2+y,-z
8 1/2+x,1/2-y,1/2-z
_cell_length_a                   12.178(2)
_cell_length_b                   25.712(5)
_cell_length_c                   11.060(2)
_cell_angle_alpha                90
_cell_angle_beta                 90
_cell_angle_gamma                90
_cell_volume                     3463.12
_exptl_crystal_colour            colorless
_chemical_melting_point          76-84deg.C
_cell_formula_units_Z            4
_exptl_crystal_recrystallization_method n-hexane
loop_
_atom_site_label
_atom_site_type_symbol
_atom_site_fract_x
_atom_site_fract_y
_atom_site_fract_z
Sr1 Sr 0.07222(8) 0.2500 0.25341(9)
O1 O 0.1526(5) 0.3438(3) 0.3011(6)
O2 O 0.0831(7) 0.3074(3) 0.0751(6)
N1 N 0.2286(10) 0.2500 0.4319(9)
H1 H 0.2714(10) 0.2217 0.4235(9)
H2 H 0.2714(10) 0.2783 0.4235(9)
N2 N -0.0161(9) 0.2500 0.4845(8)
N3 N -0.0964(7) 0.3203(4) 0.2915(8)
H3 H -0.0797(7) 0.3506(4) 0.2550(8)
H4 H -0.1583(7) 0.3080(4) 0.2577(8)
C1 C -0.1157(16) 0.3298(7) 0.4193(12)
H5 H -0.0876(16) 0.3642(7) 0.4376(12)
H6 H -0.1946(16) 0.3310(7) 0.4313(12)
C2 C -0.0753(20) 0.2976(9) 0.5003(15)
H7 H -0.1373(20) 0.2885(9) 0.5511(15)
H8 H -0.0278(20) 0.3190(9) 0.5503(15)
C3 C 0.0698(15) 0.2500 0.5718(15)
H9 H 0.0568(15) 0.2802 0.6225(15)
H10 H 0.0568(15) 0.2198 0.6225(15)
C4 C 0.1826(14) 0.2500 0.5470(15)
H11 H 0.2125(14) 0.2802 0.5881(15)
H12 H 0.2125(14) 0.2198 0.5881(15)
C5 C 0.1419(7) 0.3879(4) 0.2497(9)
C6 C 0.1705(9) 0.4365(4) 0.3261(11)
C7 C 0.2262(27) 0.4252(9) 0.4331(23)
H13 H 0.2907(27) 0.4052(9) 0.4151(23)
H14 H 0.1791(27) 0.4055(9) 0.4856(23)
H15 H 0.2470(27) 0.4570(9) 0.4723(23)
C8 C 0.0718(19) 0.4678(9) 0.3464(28)
H16 H 0.0346(19) 0.4732(9) 0.2709(28)
H17 H 0.0921(19) 0.5008(9) 0.3803(28)
H18 H 0.0238(19) 0.4499(9) 0.4013(28)
C9 C 0.2466(35) 0.4705(13) 0.2547(29)
H19 H 0.2114(35) 0.4808(13) 0.1808(29)
H20 H 0.3125(35) 0.4516(13) 0.2363(29)
H21 H 0.2647(35) 0.5008(13) 0.3012(29)
C10 C 0.1029(7) 0.3943(4) 0.1314(9)
H22 H 0.0908(7) 0.4283(4) 0.1055(9)
C11 C 0.0809(8) 0.3553(4) 0.0501(8)
C12 C 0.0522(9) 0.3675(4) -0.0839(8)
C13 C 0.1503(12) 0.3499(7) -0.1601(10)
H23 H 0.2142(12) 0.3694(7) -0.1373(10)
H24 H 0.1347(12) 0.3557(7) -0.2442(10)
H25 H 0.1634(12) 0.3135(7) -0.1468(10)
C14 C 0.0316(16) 0.4246(5) -0.1069(13)
H26 H 0.0956(16) 0.4442(5) -0.0850(13)
H27 H -0.0298(16) 0.4360(5) -0.0594(13)
H28 H 0.0159(16) 0.4298(5) -0.1911(13)
C15 C -0.0478(11) 0.3367(7) -0.1194(12)
H29 H -0.0346(11) 0.3004(7) -0.1047(12)
H30 H -0.0629(11) 0.3420(7) -0.2037(12)
H31 H -0.1096(11) 0.3480(7) -0.0723(12)
O1B O 0.1526(5) 0.1562(3) 0.3011(6)
C5B C 0.1419(7) 0.1121(4) 0.2497(9)
C6B C 0.1705(9) 0.0635(4) 0.3261(11)
C7B C 0.2262(27) 0.0748(9) 0.4331(23)
H13B H 0.2907(27) 0.0948(9) 0.4151(23)
H14B H 0.1791(27) 0.0945(9) 0.4856(23)
H15B H 0.2470(27) 0.0430(9) 0.4723(23)
C8B C 0.0718(19) 0.0322(9) 0.3464(28)
H16B H 0.0346(19) 0.0268(9) 0.2709(28)
H17B H 0.0921(19) -0.0008(9) 0.3803(28)
H18B H 0.0238(19) 0.0501(9) 0.4013(28)
C9B C 0.2466(35) 0.0295(13) 0.2547(29)
H19B H 0.2114(35) 0.0192(13) 0.1808(29)
H20B H 0.3125(35) 0.0484(13) 0.2363(29)
H21B H 0.2647(35) -0.0008(13) 0.3012(29)
C10B C 0.1029(7) 0.1057(4) 0.1314(9)
H22B H 0.0908(7) 0.0717(4) 0.1055(9)
C11B C 0.0809(8) 0.1447(4) 0.0501(8)
O2B O 0.0831(7) 0.1926(3) 0.0751(6)
C2B C -0.0753(20) 0.2024(9) 0.5003(15)
C1B C -0.1157(16) 0.1702(7) 0.4193(12)
N3B N -0.0964(7) 0.1797(4) 0.2915(8)
H3B H -0.0797(7) 0.1494(4) 0.2550(8)
H4B H -0.1583(7) 0.1920(4) 0.2577(8)
H5B H -0.0876(16) 0.1358(7) 0.4376(12)
H6B H -0.1946(16) 0.1690(7) 0.4313(12)
H7B H -0.1373(20) 0.2115(9) 0.5511(15)
H8B H -0.0278(20) 0.1810(9) 0.5503(15)
C12B C 0.0522(9) 0.1325(4) -0.0839(8)
C13B C 0.1503(12) 0.1501(7) -0.1601(10)
H23B H 0.2142(12) 0.1306(7) -0.1373(10)
H24B H 0.1347(12) 0.1443(7) -0.2442(10)
H25B H 0.1634(12) 0.1865(7) -0.1468(10)
C14B C 0.0316(16) 0.0754(5) -0.1069(13)
H26B H 0.0956(16) 0.0558(5) -0.0850(13)
H27B H -0.0298(16) 0.0640(5) -0.0594(13)
H28B H 0.0159(16) 0.0702(5) -0.1911(13)
C15B C -0.0478(11) 0.1633(7) -0.1194(12)
H29B H -0.0346(11) 0.1996(7) -0.1047(12)
H30B H -0.0629(11) 0.1580(7) -0.2037(12)
H31B H -0.1096(11) 0.1520(7) -0.0723(12)
loop_
_geom_bond_atom_site_label_1
_geom_bond_atom_site_label_2
_geom_bond_site_symmetry_1
_geom_bond_site_symmetry_2
Sr1 O1 1_555 1_555
O1 C5 1_555 1_555
O2 Sr1 1_555 1_555
N1 Sr1 1_555 1_555
H1 N1 1_555 1_555
H2 N1 1_555 1_555
N2 Sr1 1_555 1_555
N3 Sr1 1_555 1_555
H3 N3 1_555 1_555
H4 N3 1_555 1_555
C1 N3 1_555 1_555
H5 C1 1_555 1_555
H6 C1 1_555 1_555
C2 N2 1_555 1_555
H7 C2 1_555 1_555
H8 C2 1_555 1_555
C3 N2 1_555 1_555
H9 C3 1_555 1_555
H10 C3 1_555 1_555
C4 N1 1_555 1_555
H11 C4 1_555 1_555
H12 C4 1_555 1_555
C5 C6 1_555 1_555
C6 C7 1_555 1_555
C7 H13 1_555 1_555
H14 C7 1_555 1_555
H15 C7 1_555 1_555
C8 C6 1_555 1_555
H16 C8 1_555 1_555
H17 C8 1_555 1_555
H18 C8 1_555 1_555
C9 C6 1_555 1_555
H19 C9 1_555 1_555
H20 C9 1_555 1_555
H21 C9 1_555 1_555
C10 C5 1_555 1_555
H22 C10 1_555 1_555
C11 O2 1_555 1_555
C12 C11 1_555 1_555
C13 C12 1_555 1_555
H23 C13 1_555 1_555
H24 C13 1_555 1_555
H25 C13 1_555 1_555
C14 C12 1_555 1_555
H26 C14 1_555 1_555
H27 C14 1_555 1_555
H28 C14 1_555 1_555
C15 C12 1_555 1_555
H29 C15 1_555 1_555
H30 C15 1_555 1_555
H31 C15 1_555 1_555
O1B Sr1 1_555 1_555
C5B O1B 1_555 1_555
C6B C5B 1_555 1_555
C7B C6B 1_555 1_555
H13B C7B 1_555 1_555
H14B C7B 1_555 1_555
H15B C7B 1_555 1_555
C8B C6B 1_555 1_555
H16B C8B 1_555 1_555
H17B C8B 1_555 1_555
H18B C8B 1_555 1_555
C9B C6B 1_555 1_555
H19B C9B 1_555 1_555
H20B C9B 1_555 1_555
H21B C9B 1_555 1_555
C10B C5B 1_555 1_555
H22B C10B 1_555 1_555
C11B C10B 1_555 1_555
O2B Sr1 1_555 1_555
C2B N2 1_555 1_555
C1B C2B 1_555 1_555
N3B Sr1 1_555 1_555
H3B N3B 1_555 1_555
H4B N3B 1_555 1_555
H5B C1B 1_555 1_555
H6B C1B 1_555 1_555
H7B C2B 1_555 1_555
H8B C2B 1_555 1_555
C12B C11B 1_555 1_555
C13B C12B 1_555 1_555
H23B C13B 1_555 1_555
H24B C13B 1_555 1_555
H25B C13B 1_555 1_555
C14B C12B 1_555 1_555
H26B C14B 1_555 1_555
H27B C14B 1_555 1_555
H28B C14B 1_555 1_555
C15B C12B 1_555 1_555
H29B C15B 1_555 1_555
H30B C15B 1_555 1_555
H31B C15B 1_555 1_555
C1 C2 1_555 1_555
C3 C4 1_555 1_555
C10 C11 1_555 1_555
C11B O2B 1_555 1_555
C1B N3B 1_555 1_555

#END
