
#######################################################################
#
#                 Cambridge Crystallographic Data Centre
#                                CCDC 
#
#######################################################################
#
# If this CIF has been generated from an entry in the Cambridge 
# Structural Database, then it will include bibliographic, chemical, 
# crystal, experimental, refinement or atomic coordinate data resulting 
# from the CCDC's data processing and validation procedures.
#
#######################################################################

data_QIDVUX
_chemical_formula_moiety         'C17 H19 N3,C18 H16 O1 Si1'
_chemical_name_systematic        
'triphenylsilanol N^3^,N^3^,N^6^,N^6^-tetramethylacridine-3,6-diamine'
_symmetry_cell_setting           monoclinic
_symmetry_space_group_name_H-M   'P 21/n'
_symmetry_Int_Tables_number      14
_space_group_name_Hall           '-P 2yn'
loop_
_symmetry_equiv_pos_site_id
_symmetry_equiv_pos_as_xyz
1 x,y,z
2 1/2-x,1/2+y,1/2-z
3 -x,-y,-z
4 1/2+x,1/2-y,1/2+z
_cell_length_a                   9.4241(3)
_cell_length_b                   14.0778(5)
_cell_length_c                   22.4527(9)
_cell_angle_alpha                90
_cell_angle_beta                 90.545(3)
_cell_angle_gamma                90
_cell_volume                     2978.68
_exptl_crystal_colour            'dark brown'
_exptl_crystal_description       block
_cell_formula_units_Z            4
loop_
_atom_site_label
_atom_site_type_symbol
_atom_site_fract_x
_atom_site_fract_y
_atom_site_fract_z
C1 C 0.4339(2) 0.14659(16) 0.29923(11)
O1 O 0.3849(2) 0.13374(12) 0.42690(8)
Si1 Si 0.36286(7) 0.07871(5) 0.36425(3)
C2 C 0.5751(3) 0.13598(19) 0.28298(13)
C3 C 0.6328(3) 0.1856(2) 0.23639(14)
C4 C 0.5513(3) 0.2474(2) 0.20420(14)
C5 C 0.4114(3) 0.2606(2) 0.21872(14)
C6 C 0.3533(3) 0.21077(19) 0.26599(13)
C7 C 0.1705(2) 0.05083(17) 0.35217(13)
C8 C 0.1121(3) 0.03026(19) 0.29653(14)
C9 C -0.0280(3) 0.0014(2) 0.28968(18)
C10 C -0.1127(3) -0.0084(2) 0.3384(2)
C11 C -0.0598(3) 0.0117(2) 0.39346(19)
C12 C 0.0811(3) 0.0416(2) 0.40087(15)
C13 C 0.4598(2) -0.03733(17) 0.36990(11)
C14 C 0.4495(3) -0.10498(19) 0.32457(13)
C15 C 0.5181(3) -0.1916(2) 0.32862(16)
C16 C 0.5973(3) -0.2134(2) 0.37831(16)
C17 C 0.6088(3) -0.1491(2) 0.42397(14)
C18 C 0.5409(3) -0.0614(2) 0.41965(13)
H1 H 0.2586(3) 0.22046(19) 0.27564(13)
H2 H 0.3557(3) 0.3029(2) 0.19692(14)
H3 H 0.5904(3) 0.2806(2) 0.17251(14)
H4 H 0.7276(3) 0.1769(2) 0.22677(14)
H5 H 0.6323(3) 0.09399(19) 0.30434(13)
H6 H 0.1153(3) 0.0556(2) 0.43886(15)
H7 H -0.1177(3) 0.0055(2) 0.42657(19)
H8 H -0.2061(3) -0.0286(2) 0.3339(2)
H9 H -0.0643(3) -0.0113(2) 0.25186(18)
H10 H 0.1685(3) 0.03597(19) 0.26295(14)
H11 H 0.5502(3) -0.0180(2) 0.45070(13)
H12 H 0.6619(3) -0.1641(2) 0.45782(14)
H13 H 0.6431(3) -0.2718(2) 0.38104(16)
H14 H 0.5105(3) -0.2351(2) 0.29760(16)
H15 H 0.3952(3) -0.09144(19) 0.29082(13)
H16 H 0.388(3) 0.19117(17) 0.42090(17)
N1 N 0.4010(2) 0.32625(14) 0.42745(9)
N2 N 0.8541(2) 0.28734(18) 0.52298(12)
N3 N -0.0631(2) 0.35567(18) 0.34040(12)
C19 C 0.3035(3) 0.38128(17) 0.39958(11)
C20 C 0.1714(3) 0.34140(18) 0.38349(11)
C21 C 0.0657(3) 0.39434(19) 0.35570(12)
C22 C 0.0953(3) 0.4928(2) 0.34313(13)
C23 C 0.2206(3) 0.5320(2) 0.35809(13)
C24 C 0.3303(3) 0.47943(18) 0.38647(12)
C25 C 0.4599(3) 0.51725(19) 0.40348(13)
C26 C 0.5608(3) 0.46274(18) 0.43265(12)
C27 C 0.6952(3) 0.4962(2) 0.45241(13)
C28 C 0.7893(3) 0.4399(2) 0.48047(14)
C29 C 0.7575(3) 0.34268(19) 0.49293(12)
C30 C 0.9989(3) 0.3183(2) 0.53447(15)
C31 C 0.8164(3) 0.1919(2) 0.54041(17)
C32 C 0.6271(3) 0.30796(18) 0.47453(12)
C33 C 0.5276(3) 0.36495(17) 0.44444(11)
C34 C -0.0944(3) 0.2585(2) 0.35523(15)
C35 C -0.1763(3) 0.4106(2) 0.31260(15)
H17 H 0.2359(3) 0.5958(2) 0.34954(13)
H18 H 0.0265(3) 0.5298(2) 0.32434(13)
H19 H 0.1546(3) 0.27767(18) 0.39175(11)
H20 H 0.6046(3) 0.24489(18) 0.48234(12)
H21 H 0.8768(3) 0.4647(2) 0.49203(14)
H22 H 0.7189(3) 0.5594(2) 0.44567(13)
H23 H 0.4795(3) 0.58058(19) 0.39513(13)
H24 H 1.0364(9) 0.3472(15) 0.4992(3)
H25 H 0.9997(4) 0.3637(12) 0.5664(7)
H26 H 1.0561(6) 0.2645(3) 0.5454(10)
H27 H 0.7265(13) 0.1928(3) 0.5601(9)
H28 H 0.810(2) 0.1523(4) 0.5057(2)
H29 H 0.8877(14) 0.1672(7) 0.5670(9)
H30 H -0.0357(16) 0.2170(2) 0.3321(7)
H31 H -0.076(2) 0.2481(4) 0.3968(2)
H32 H -0.1925(6) 0.2455(5) 0.3466(9)
H33 H -0.1964(17) 0.4653(9) 0.3367(5)
H34 H -0.1472(10) 0.4309(14) 0.2737(4)
H35 H -0.2599(8) 0.3721(6) 0.3090(9)
loop_
_geom_bond_atom_site_label_1
_geom_bond_atom_site_label_2
_geom_bond_site_symmetry_1
_geom_bond_site_symmetry_2
C1 Si1 1_555 1_555
O1 Si1 1_555 1_555
Si1 C7 1_555 1_555
C2 C1 1_555 1_555
C3 C2 1_555 1_555
C4 C3 1_555 1_555
C5 C4 1_555 1_555
C6 C1 1_555 1_555
C7 C8 1_555 1_555
C8 C9 1_555 1_555
C9 C10 1_555 1_555
C10 C11 1_555 1_555
C11 C12 1_555 1_555
C12 C7 1_555 1_555
C13 Si1 1_555 1_555
C14 C13 1_555 1_555
C15 C14 1_555 1_555
C16 C15 1_555 1_555
C17 C16 1_555 1_555
C18 C13 1_555 1_555
H1 C6 1_555 1_555
H2 C5 1_555 1_555
H3 C4 1_555 1_555
H4 C3 1_555 1_555
H5 C2 1_555 1_555
H6 C12 1_555 1_555
H7 C11 1_555 1_555
H8 C10 1_555 1_555
H9 C9 1_555 1_555
H10 C8 1_555 1_555
H11 C18 1_555 1_555
H12 C17 1_555 1_555
H13 C16 1_555 1_555
H14 C15 1_555 1_555
H15 C14 1_555 1_555
H16 O1 1_555 1_555
N1 C19 1_555 1_555
N2 C29 1_555 1_555
N3 C21 1_555 1_555
C19 C20 1_555 1_555
C20 C21 1_555 1_555
C21 C22 1_555 1_555
C22 C23 1_555 1_555
C23 C24 1_555 1_555
C24 C19 1_555 1_555
C25 C24 1_555 1_555
C26 C25 1_555 1_555
C27 C26 1_555 1_555
C28 C27 1_555 1_555
C29 C28 1_555 1_555
C30 N2 1_555 1_555
C31 N2 1_555 1_555
C32 C29 1_555 1_555
C33 N1 1_555 1_555
C34 N3 1_555 1_555
C35 N3 1_555 1_555
H17 C23 1_555 1_555
H18 C22 1_555 1_555
H19 C20 1_555 1_555
H20 C32 1_555 1_555
H21 C28 1_555 1_555
H22 C27 1_555 1_555
H23 C25 1_555 1_555
H24 C30 1_555 1_555
H25 C30 1_555 1_555
H26 C30 1_555 1_555
H27 C31 1_555 1_555
H28 C31 1_555 1_555
H29 C31 1_555 1_555
H30 C34 1_555 1_555
H31 C34 1_555 1_555
H32 C34 1_555 1_555
H33 C35 1_555 1_555
H34 C35 1_555 1_555
H35 C35 1_555 1_555
C5 C6 1_555 1_555
C17 C18 1_555 1_555
C26 C33 1_555 1_555
C32 C33 1_555 1_555

#END
