
#######################################################################
#
#                 Cambridge Crystallographic Data Centre
#                                CCDC 
#
#######################################################################
#
# If this CIF has been generated from an entry in the Cambridge 
# Structural Database, then it will include bibliographic, chemical, 
# crystal, experimental, refinement or atomic coordinate data resulting 
# from the CCDC's data processing and validation procedures.
#
#######################################################################

data_QIFDEP
_chemical_formula_moiety         'C16 H18 O3 S1'
_chemical_name_systematic        
(5R,6S)-6-Methyl-5-(phenylsulfonylacetyl)bicyclo(2.2.1)hept-2-ene
_symmetry_cell_setting           monoclinic
_symmetry_space_group_name_H-M   'P 21'
_symmetry_Int_Tables_number      4
_space_group_name_Hall           'P 2yb'
loop_
_symmetry_equiv_pos_site_id
_symmetry_equiv_pos_as_xyz
1 x,y,z
2 -x,1/2+y,-z
_cell_length_a                   11.2342(3)
_cell_length_b                   5.8141(1)
_cell_length_c                   12.3584(3)
_cell_angle_alpha                90
_cell_angle_beta                 115.5233(8)
_cell_angle_gamma                90
_cell_volume                     728.435
_exptl_crystal_colour            colorless
_exptl_crystal_description       needle
_cell_formula_units_Z            2
_exptl_crystal_recrystallization_method ethanol
loop_
_atom_site_label
_atom_site_type_symbol
_atom_site_fract_x
_atom_site_fract_y
_atom_site_fract_z
S1 S 0.22422(5) 0.32895(12) 0.52300(5)
O1 O 0.1958(2) 0.2445(4) 0.4053(2)
O2 O 0.1721(2) 0.5490(3) 0.5349(2)
O3 O 0.2948(2) -0.0431(4) 0.7826(2)
C1 C 0.2075(2) 0.3295(5) 0.7907(2)
C2 C 0.2735(2) 0.3208(6) 0.9300(2)
C3 C 0.1530(2) 0.3717(5) 0.9586(2)
C4 C 0.0681(3) 0.1616(6) 0.9180(3)
C5 C 0.0109(2) 0.1576(6) 0.7996(3)
C6 C 0.0574(2) 0.3697(5) 0.7582(2)
C7 C 0.0736(3) 0.5397(5) 0.8580(3)
C8 C 0.3850(3) 0.4954(7) 0.9860(3)
C9 C 0.2310(2) 0.1229(5) 0.7305(2)
C10 C 0.1677(2) 0.1156(4) 0.5936(2)
C11 C 0.3970(2) 0.3360(6) 0.6076(2)
C12 C 0.4720(3) 0.1563(6) 0.5950(2)
C13 C 0.6059(3) 0.1606(7) 0.6613(3)
C14 C 0.6647(2) 0.3402(9) 0.7389(3)
C15 C 0.5898(3) 0.5167(7) 0.7504(3)
C16 C 0.4544(2) 0.5152(5) 0.6854(2)
H1 H 0.2408 0.4651 0.7654
H2 H 0.3069 0.1655 0.9571
H3 H 0.1745 0.4241 1.0403
H4 H 0.0574 0.0520 0.9680
H5 H -0.0468 0.0461 0.7512
H6 H 0.0022 0.4208 0.6761
H7 H 0.4319 0.0356 0.5424
H8 H 0.6575 0.0418 0.6540
H9 H 0.7557 0.3418 0.7837
H10 H 0.6305 0.6379 0.8024
H11 H 0.4031 0.6330 0.6941
H12 H -0.0096 0.5844 0.8581
H13 H 0.1228 0.6765 0.8574
H14 H 0.3508 0.6478 0.9622
H15 H 0.4519 0.4650 0.9592
H16 H 0.4222 0.4831 1.0717
H17 H 0.0733 0.1351 0.5655
H18 H 0.1854 -0.0342 0.5692
loop_
_geom_bond_atom_site_label_1
_geom_bond_atom_site_label_2
_geom_bond_site_symmetry_1
_geom_bond_site_symmetry_2
S1 O1 1_555 1_555
O2 S1 1_555 1_555
O3 C9 1_555 1_555
C1 C2 1_555 1_555
C2 C3 1_555 1_555
C3 C4 1_555 1_555
C4 C5 1_555 1_555
C5 C6 1_555 1_555
C6 C1 1_555 1_555
C7 C3 1_555 1_555
C8 C2 1_555 1_555
C9 C1 1_555 1_555
C10 S1 1_555 1_555
C11 S1 1_555 1_555
C12 C11 1_555 1_555
C13 C12 1_555 1_555
C14 C13 1_555 1_555
C15 C14 1_555 1_555
C16 C11 1_555 1_555
H1 C1 1_555 1_555
H2 C2 1_555 1_555
H3 C3 1_555 1_555
H4 C4 1_555 1_555
H5 C5 1_555 1_555
H6 C6 1_555 1_555
H7 C12 1_555 1_555
H8 C13 1_555 1_555
H9 C14 1_555 1_555
H10 C15 1_555 1_555
H11 C16 1_555 1_555
H12 C7 1_555 1_555
H13 C7 1_555 1_555
H14 C8 1_555 1_555
H15 C8 1_555 1_555
H16 C8 1_555 1_555
H17 C10 1_555 1_555
H18 C10 1_555 1_555
C6 C7 1_555 1_555
C9 C10 1_555 1_555
C15 C16 1_555 1_555

#END
