
#######################################################################
#
#                 Cambridge Crystallographic Data Centre
#                                CCDC 
#
#######################################################################
#
# If this CIF has been generated from an entry in the Cambridge 
# Structural Database, then it will include bibliographic, chemical, 
# crystal, experimental, refinement or atomic coordinate data resulting 
# from the CCDC's data processing and validation procedures.
#
#######################################################################

data_QIFFUG
_chemical_formula_moiety         'C14 H24 O4'
_chemical_name_systematic        
anti-(15-Methoxy-1,7,9-trioxadispiro(5.1.5.3)hexadecane)
_symmetry_cell_setting           orthorhombic
_symmetry_space_group_name_H-M   'P n a 21'
_symmetry_Int_Tables_number      33
_space_group_name_Hall           'P 2c -2n'
loop_
_symmetry_equiv_pos_site_id
_symmetry_equiv_pos_as_xyz
1 x,y,z
2 -x,-y,1/2+z
3 1/2-x,1/2+y,1/2+z
4 1/2+x,1/2-y,z
_cell_length_a                   9.278(3)
_cell_length_b                   15.418(5)
_cell_length_c                   9.443(3)
_cell_angle_alpha                90
_cell_angle_beta                 90
_cell_angle_gamma                90
_cell_volume                     1350.8
_exptl_crystal_colour            colorless
_exptl_crystal_description       prism
_chemical_melting_point          39-43deg.C
_cell_formula_units_Z            4
loop_
_atom_site_label
_atom_site_type_symbol
_atom_site_fract_x
_atom_site_fract_y
_atom_site_fract_z
O1 O 0.1399(4) 1.1029(2) 0.0336
O2 O -0.2449(4) 0.9707(3) 0.1644(6)
O3 O 0.2034(3) 0.9999(2) 0.2099(5)
O4 O 0.1706(4) 0.8983(2) 0.0239(6)
C1 C 0.2837(6) 1.1297(4) -0.0062(8)
C2 C 0.3369(6) 1.2034(4) 0.0820(8)
C3 C 0.3348(6) 1.1774(4) 0.2376(8)
C4 C 0.1824(6) 1.1480(4) 0.2787(8)
C5 C 0.1243(6) 1.0771(3) 0.1785(7)
C6 C 0.1464(6) 0.9163(3) 0.1698(8)
C7 C 0.3181(6) 0.8898(4) -0.0175(8)
C8 C 0.3951(7) 0.8218(4) 0.0685(8)
C9 C 0.3847(7) 0.8425(4) 0.2267(7)
C10 C 0.2252(6) 0.8494(4) 0.2630(8)
C11 C -0.0141(6) 0.9093(3) 0.1928(7)
C12 C -0.0956(6) 0.9867(3) 0.1305(7)
C13 C -0.0380(6) 1.0657(3) 0.1998(7)
C14 C -0.3412(6) 1.0247(4) 0.0876(8)
H1 H 0.2731 1.1444 -0.1017
H2 H 0.3439 1.0740 -0.0086
H3 H 0.4342 1.2275 0.0580
H4 H 0.2610 1.2581 0.0610
H5 H 0.3974 1.1269 0.2604
H6 H 0.3781 1.2275 0.3024
H7 H 0.2001 1.1207 0.3826
H8 H 0.1277 1.2038 0.2673
H9 H 0.3285 0.8920 -0.1176
H10 H 0.3877 0.9458 -0.0106
H11 H 0.4329 0.7760 0.0387
H12 H 0.4957 0.8179 0.0430
H13 H 0.4385 0.8982 0.2664
H14 H 0.4358 0.7922 0.2791
H15 H 0.2215 0.8739 0.3721
H16 H 0.1657 0.7920 0.2594
H17 H -0.0368 0.9038 0.2948
H18 H -0.0520 0.8584 0.1669
H19 H -0.0612 0.9659 0.0257
H20 H -0.0807 1.1197 0.1681
H21 H -0.0578 1.0871 0.2919
H22 H -0.4598 1.0117 0.1386
H23 H -0.3242 1.0957 0.1024
loop_
_geom_bond_atom_site_label_1
_geom_bond_atom_site_label_2
_geom_bond_site_symmetry_1
_geom_bond_site_symmetry_2
O1 C1 1_555 1_555
O2 C12 1_555 1_555
O3 C5 1_555 1_555
O4 C6 1_555 1_555
C1 C2 1_555 1_555
C2 C3 1_555 1_555
C3 C4 1_555 1_555
C4 C5 1_555 1_555
C5 O1 1_555 1_555
C6 O3 1_555 1_555
C7 O4 1_555 1_555
C8 C7 1_555 1_555
C9 C8 1_555 1_555
C10 C6 1_555 1_555
C11 C6 1_555 1_555
C12 C11 1_555 1_555
C13 C5 1_555 1_555
C14 O2 1_555 1_555
H1 C1 1_555 1_555
H2 C1 1_555 1_555
H3 C2 1_555 1_555
H4 C2 1_555 1_555
H5 C3 1_555 1_555
H6 C3 1_555 1_555
H7 C4 1_555 1_555
H8 C4 1_555 1_555
H9 C7 1_555 1_555
H10 C7 1_555 1_555
H11 C8 1_555 1_555
H12 C8 1_555 1_555
H13 C9 1_555 1_555
H14 C9 1_555 1_555
H15 C10 1_555 1_555
H16 C10 1_555 1_555
H17 C11 1_555 1_555
H18 C11 1_555 1_555
H19 C12 1_555 1_555
H20 C13 1_555 1_555
H21 C13 1_555 1_555
H22 C14 1_555 1_555
H23 C14 1_555 1_555
C9 C10 1_555 1_555
C12 C13 1_555 1_555

#END
