
#######################################################################
#
#                 Cambridge Crystallographic Data Centre
#                                CCDC 
#
#######################################################################
#
# If this CIF has been generated from an entry in the Cambridge 
# Structural Database, then it will include bibliographic, chemical, 
# crystal, experimental, refinement or atomic coordinate data resulting 
# from the CCDC's data processing and validation procedures.
#
#######################################################################

data_QIFHET
_chemical_formula_moiety         'C19 H20 I1 N1 O1'
_chemical_name_systematic        
1'-(4-Iodobenzyl)spiro(isobenzofuran-1(3H),4'-piperidine)
_symmetry_cell_setting           monoclinic
_symmetry_space_group_name_H-M   'P 21/c'
_symmetry_Int_Tables_number      14
_space_group_name_Hall           '-P 2ybc'
loop_
_symmetry_equiv_pos_site_id
_symmetry_equiv_pos_as_xyz
1 x,y,z
2 -x,1/2+y,1/2-z
3 -x,-y,-z
4 x,1/2-y,1/2+z
_cell_length_a                   10.1099(6)
_cell_length_b                   11.8733(6)
_cell_length_c                   14.262(1)
_cell_angle_alpha                90
_cell_angle_beta                 105.722(3)
_cell_angle_gamma                90
_cell_volume                     1647.93
_exptl_crystal_colour            colorless
_exptl_crystal_description       prism
_cell_formula_units_Z            4
_exptl_crystal_recrystallization_method 'petroleum ether/diethyl ether'
loop_
_atom_site_label
_atom_site_type_symbol
_atom_site_fract_x
_atom_site_fract_y
_atom_site_fract_z
I1 I 0.463290(14) 0.584069(11) 0.228124(9)
O1 O 1.12953(14) 1.03075(12) 0.77960(10)
N1 N 0.81044(18) 0.93273(13) 0.62877(13)
C1 C 1.2262(2) 1.06980(16) 0.86721(15)
H1 H 1.1938 1.1404 0.8905
H2 H 1.3174 1.0833 0.8561
C2 C 1.2331(2) 0.97590(16) 0.93930(14)
C3 C 1.3267(2) 0.95761(17) 1.02961(14)
H3 H 1.3981 1.0101 1.0556
C4 C 1.3128(2) 0.86068(18) 1.08078(14)
H4 H 1.3761 0.8459 1.1421
C5 C 1.2063(2) 0.78486(17) 1.04254(14)
H5 H 1.1979 0.7190 1.0783
C6 C 1.1122(2) 0.80452(17) 0.95278(14)
H6 H 1.0390 0.7534 0.9273
C7 C 1.1282(2) 0.90079(16) 0.90142(14)
C8 C 1.0461(2) 0.94026(17) 0.80175(15)
C9 C 0.9051(2) 0.98737(17) 0.80095(15)
H7 H 0.8509 0.9285 0.8230
H8 H 0.9165 1.0516 0.8467
C10 C 0.8283(2) 1.02615(17) 0.69910(15)
H9 H 0.7371 1.0558 0.6999
H10 H 0.8801 1.0878 0.6786
C11 C 0.9456(2) 0.89041(18) 0.62426(15)
H11 H 0.9964 0.9514 0.6018
H12 H 0.9326 0.8279 0.5767
C12 C 1.0291(2) 0.84879(17) 0.72403(14)
H13 H 1.1209 0.8243 0.7198
H14 H 0.9826 0.7828 0.7432
C13 C 0.7325(2) 0.97258(18) 0.53184(16)
H15 H 0.7934 1.0199 0.5043
H16 H 0.6557 1.0205 0.5390
C14 C 0.6748(2) 0.87769(17) 0.46092(15)
C15 C 0.7277(2) 0.85267(17) 0.38289(15)
H17 H 0.8049 0.8933 0.3750
C16 C 0.6691(2) 0.76881(17) 0.31596(14)
H18 H 0.7070 0.7513 0.2636
C17 C 0.5549(2) 0.71153(16) 0.32695(14)
C18 C 0.5003(2) 0.73494(16) 0.40414(14)
H19 H 0.4216 0.6955 0.4109
C19 C 0.5616(2) 0.81630(17) 0.47119(14)
H20 H 0.5262 0.8308 0.5253
loop_
_geom_bond_atom_site_label_1
_geom_bond_atom_site_label_2
_geom_bond_site_symmetry_1
_geom_bond_site_symmetry_2
I1 C17 1_555 1_555
O1 C1 1_555 1_555
N1 C10 1_555 1_555
C1 H1 1_555 1_555
H2 C1 1_555 1_555
C2 C1 1_555 1_555
C3 C2 1_555 1_555
H3 C3 1_555 1_555
C4 C3 1_555 1_555
H4 C4 1_555 1_555
C5 C4 1_555 1_555
H5 C5 1_555 1_555
C6 C5 1_555 1_555
H6 C6 1_555 1_555
C7 C2 1_555 1_555
C8 O1 1_555 1_555
C9 C8 1_555 1_555
H7 C9 1_555 1_555
H8 C9 1_555 1_555
C10 C9 1_555 1_555
H9 C10 1_555 1_555
H10 C10 1_555 1_555
C11 N1 1_555 1_555
H11 C11 1_555 1_555
H12 C11 1_555 1_555
C12 C8 1_555 1_555
H13 C12 1_555 1_555
H14 C12 1_555 1_555
C13 N1 1_555 1_555
H15 C13 1_555 1_555
H16 C13 1_555 1_555
C14 C13 1_555 1_555
C15 C14 1_555 1_555
H17 C15 1_555 1_555
C16 C15 1_555 1_555
H18 C16 1_555 1_555
C17 C16 1_555 1_555
C18 C17 1_555 1_555
H19 C18 1_555 1_555
C19 C14 1_555 1_555
H20 C19 1_555 1_555
C6 C7 1_555 1_555
C7 C8 1_555 1_555
C11 C12 1_555 1_555
C18 C19 1_555 1_555

#END
