
#######################################################################
#
#                 Cambridge Crystallographic Data Centre
#                                CCDC 
#
#######################################################################
#
# If this CIF has been generated from an entry in the Cambridge 
# Structural Database, then it will include bibliographic, chemical, 
# crystal, experimental, refinement or atomic coordinate data resulting 
# from the CCDC's data processing and validation procedures.
#
#######################################################################

data_QIFJIZ
_chemical_compound_source        'roots of Petasites hybridus'
_chemical_formula_moiety         'C20 H28 O6'
_chemical_name_systematic        
6\b-angeloyloxy-3\b,8\b-dihydroxyeremophil-7(11)-en-12,8\a-olide
_symmetry_cell_setting           monoclinic
_symmetry_space_group_name_H-M   'P 21'
_symmetry_Int_Tables_number      4
_space_group_name_Hall           'P 2yb'
loop_
_symmetry_equiv_pos_site_id
_symmetry_equiv_pos_as_xyz
1 x,y,z
2 -x,1/2+y,-z
_cell_length_a                   8.6160(14)
_cell_length_b                   13.093(2)
_cell_length_c                   9.2584(15)
_cell_angle_alpha                90
_cell_angle_beta                 112.499(2)
_cell_angle_gamma                90
_cell_volume                     964.938
_exptl_crystal_colour            colorless
_exptl_crystal_description       prismatic
_cell_formula_units_Z            2
_exptl_crystal_recrystallization_method 'n-hexane/ethyl acetate'
loop_
_atom_site_label
_atom_site_type_symbol
_atom_site_fract_x
_atom_site_fract_y
_atom_site_fract_z
O1 O 1.0234(2) 1.03673(14) 0.2920(2)
H1 H 1.066(6) 0.987(3) 0.347(5)
O2 O 0.37308(15) 0.93739(11) 0.20428(14)
O3 O 0.24117(18) 1.14429(14) 0.20077(19)
H2 H 0.173(3) 1.112(2) 0.227(3)
O4 O 0.3663(2) 1.22014(12) 0.4432(2)
O5 O 0.4027(4) 1.20759(19) 0.6941(3)
O6 O 0.27831(19) 0.86145(14) 0.37027(17)
C1 C 0.7171(3) 1.1679(2) 0.1344(3)
H3 H 0.7441 1.1217 0.0656
H4 H 0.6742 1.2307 0.0776
C2 C 0.8745(3) 1.19068(19) 0.2761(3)
H5 H 0.9590 1.2187 0.2420
H6 H 0.8492 1.2419 0.3396
C3 C 0.9447(3) 1.09694(19) 0.3746(3)
H7 H 1.0322 1.1192 0.4732
C4 C 0.8132(2) 1.03547(16) 0.4139(2)
H8 H 0.7841 1.0777 0.4873
C5 C 0.6461(2) 1.01715(15) 0.2720(2)
C6 C 0.5169(2) 0.97456(14) 0.3373(2)
H9 H 0.5672 0.9185 0.4105
C7 C 0.4592(2) 1.05701(15) 0.4167(2)
C8 C 0.3918(2) 1.15371(16) 0.3272(2)
C9 C 0.5214(3) 1.19837(16) 0.2726(3)
H10 H 0.6170 1.2221 0.3623
H11 H 0.4736 1.2567 0.2057
C10 C 0.5808(2) 1.11928(16) 0.1824(2)
H12 H 0.4847 1.1028 0.0863
C11 C 0.4737(3) 1.06644(18) 0.5636(3)
C12 C 0.4125(3) 1.1694(2) 0.5809(3)
C13 C 0.5344(4) 0.9937(2) 0.6964(3)
H13 H 0.6413 1.0161 0.7705
H14 H 0.5461 0.9270 0.6585
H15 H 0.4551 0.9908 0.7462
C14 C 0.6657(3) 0.93699(18) 0.1583(2)
H16 H 0.6868 0.8713 0.2081
H17 H 0.7580 0.9556 0.1299
H18 H 0.5643 0.9342 0.0662
C15 C 0.8943(3) 0.9388(2) 0.5040(3)
H19 H 0.9990 0.9560 0.5865
H20 H 0.9143 0.8911 0.4341
H21 H 0.8206 0.9085 0.5477
C16 C 0.2616(2) 0.88123(16) 0.2383(2)
C17 C 0.1146(3) 0.85431(18) 0.0947(2)
C18 C 0.0138(3) 0.7783(2) 0.0942(3)
H22 H -0.0762 0.7679 -0.0002
C19 C 0.0222(5) 0.7076(3) 0.2203(4)
H23 H -0.0892 0.6860 0.2061
H24 H 0.0730 0.7415 0.3193
H25 H 0.0883 0.6491 0.2179
C20 C 0.0845(4) 0.9185(3) -0.0477(3)
H26 H -0.0193 0.8984 -0.1292
H27 H 0.1751 0.9089 -0.0826
H28 H 0.0785 0.9891 -0.0225
loop_
_geom_bond_atom_site_label_1
_geom_bond_atom_site_label_2
_geom_bond_site_symmetry_1
_geom_bond_site_symmetry_2
O1 H1 1_555 1_555
O2 C6 1_555 1_555
O3 H2 1_555 1_555
O4 C8 1_555 1_555
O5 C12 1_555 1_555
O6 C16 1_555 1_555
C1 H3 1_555 1_555
H4 C1 1_555 1_555
C2 C1 1_555 1_555
H5 C2 1_555 1_555
H6 C2 1_555 1_555
C3 O1 1_555 1_555
H7 C3 1_555 1_555
C4 C3 1_555 1_555
H8 C4 1_555 1_555
C5 C4 1_555 1_555
C6 C5 1_555 1_555
H9 C6 1_555 1_555
C7 C6 1_555 1_555
C8 O3 1_555 1_555
C9 C8 1_555 1_555
H10 C9 1_555 1_555
H11 C9 1_555 1_555
C10 C1 1_555 1_555
H12 C10 1_555 1_555
C11 C7 1_555 1_555
C12 O4 1_555 1_555
C13 C11 1_555 1_555
H13 C13 1_555 1_555
H14 C13 1_555 1_555
H15 C13 1_555 1_555
C14 C5 1_555 1_555
H16 C14 1_555 1_555
H17 C14 1_555 1_555
H18 C14 1_555 1_555
C15 C4 1_555 1_555
H19 C15 1_555 1_555
H20 C15 1_555 1_555
H21 C15 1_555 1_555
C16 O2 1_555 1_555
C17 C16 1_555 1_555
C18 C17 1_555 1_555
H22 C18 1_555 1_555
C19 C18 1_555 1_555
H23 C19 1_555 1_555
H24 C19 1_555 1_555
H25 C19 1_555 1_555
C20 C17 1_555 1_555
H26 C20 1_555 1_555
H27 C20 1_555 1_555
H28 C20 1_555 1_555
C2 C3 1_555 1_555
C5 C10 1_555 1_555
C7 C8 1_555 1_555
C9 C10 1_555 1_555
C11 C12 1_555 1_555

#END
