
#######################################################################
#
#                 Cambridge Crystallographic Data Centre
#                                CCDC 
#
#######################################################################
#
# If this CIF has been generated from an entry in the Cambridge 
# Structural Database, then it will include bibliographic, chemical, 
# crystal, experimental, refinement or atomic coordinate data resulting 
# from the CCDC's data processing and validation procedures.
#
#######################################################################

data_QIFPOK01
_chemical_formula_moiety         'C21 H17 N5'
_chemical_name_systematic        2,6-bis(1-Methylbenzimidazol-2-yl)pyridine
_symmetry_cell_setting           orthorhombic
_symmetry_space_group_name_H-M   'P b c n'
_symmetry_Int_Tables_number      60
_space_group_name_Hall           '-P 2n 2ab'
loop_
_symmetry_equiv_pos_site_id
_symmetry_equiv_pos_as_xyz
1 x,y,z
2 1/2-x,1/2-y,1/2+z
3 -x,y,1/2-z
4 1/2+x,1/2-y,-z
5 -x,-y,-z
6 1/2+x,1/2+y,1/2-z
7 x,-y,1/2+z
8 1/2-x,1/2+y,z
_cell_length_a                   18.1415(16)
_cell_length_b                   9.1274(8)
_cell_length_c                   20.0652(19)
_cell_angle_alpha                90
_cell_angle_beta                 90
_cell_angle_gamma                90
_cell_volume                     3322.49
_exptl_crystal_colour            colorless
_exptl_crystal_description       block
_chemical_melting_point          '194-196 deg.C'
_cell_formula_units_Z            8
_exptl_crystal_recrystallization_method methanol
loop_
_atom_site_label
_atom_site_type_symbol
_atom_site_fract_x
_atom_site_fract_y
_atom_site_fract_z
N1 N 0.21083(5) 0.75383(9) 0.69435(4)
N2 N 0.29864(5) 0.63766(9) 0.75368(4)
N3 N 0.56063(5) 0.69904(10) 0.53833(4)
N4 N 0.51260(4) 0.50962(9) 0.59573(4)
N5 N 0.39646(4) 0.70429(9) 0.64215(4)
C1 C 0.57616(5) 0.45860(11) 0.56602(5)
C2 C 0.61039(6) 0.32219(12) 0.56872(5)
H1 H 0.5903 0.2435 0.5938
C3 C 0.67513(6) 0.30704(13) 0.53299(5)
H2 H 0.7007 0.2162 0.5341
C4 C 0.70389(6) 0.42291(13) 0.49518(5)
H3 H 0.7479 0.4079 0.4704
C5 C 0.66996(6) 0.55851(13) 0.49294(5)
H4 H 0.6899 0.6363 0.4672
C6 C 0.60513(5) 0.57730(11) 0.53003(5)
C7 C 0.50647(5) 0.65498(11) 0.57779(5)
C8 C 0.44618(5) 0.75343(11) 0.59814(5)
C9 C 0.44221(6) 0.89323(12) 0.56996(5)
H5 H 0.4798 0.9271 0.5408
C10 C 0.38265(6) 0.98134(11) 0.58521(6)
H6 H 0.3788 1.0770 0.5669
C11 C 0.32849(6) 0.92850(11) 0.62765(5)
H7 H 0.2857 0.9848 0.6370
C12 C 0.33840(5) 0.79094(11) 0.65613(5)
C13 C 0.28232(5) 0.73058(11) 0.70182(5)
C14 C 0.17814(6) 0.66899(11) 0.74353(5)
C15 C 0.10364(6) 0.64107(12) 0.75650(5)
H8 H 0.0660 0.6883 0.7316
C16 C 0.08643(6) 0.54250(13) 0.80668(6)
H9 H 0.0362 0.5207 0.8155
C17 C 0.14137(7) 0.47412(12) 0.84473(6)
H10 H 0.1275 0.4089 0.8794
C18 C 0.21541(6) 0.49968(12) 0.83272(5)
H11 H 0.2529 0.4537 0.8584
C19 C 0.23224(6) 0.59643(11) 0.78103(5)
C20 C 0.36981(6) 0.59828(14) 0.78204(5)
H12 H 0.4087 0.6563 0.7607
H13 H 0.3792 0.4938 0.7745
H14 H 0.3695 0.6182 0.8300
C21 C 0.46466(6) 0.41527(11) 0.63546(5)
H15 H 0.4677 0.3145 0.6188
H16 H 0.4137 0.4500 0.6321
H17 H 0.4804 0.4179 0.6822
loop_
_geom_bond_atom_site_label_1
_geom_bond_atom_site_label_2
_geom_bond_site_symmetry_1
_geom_bond_site_symmetry_2
N1 C13 1_555 1_555
N2 C13 1_555 1_555
N3 C6 1_555 1_555
N4 C1 1_555 1_555
N5 C8 1_555 1_555
C1 C2 1_555 1_555
C2 H1 1_555 1_555
C3 C2 1_555 1_555
H2 C3 1_555 1_555
C4 C3 1_555 1_555
H3 C4 1_555 1_555
C5 C4 1_555 1_555
H4 C5 1_555 1_555
C6 C1 1_555 1_555
C7 N3 1_555 1_555
C8 C7 1_555 1_555
C9 C8 1_555 1_555
H5 C9 1_555 1_555
C10 C9 1_555 1_555
H6 C10 1_555 1_555
C11 C10 1_555 1_555
H7 C11 1_555 1_555
C12 N5 1_555 1_555
C13 C12 1_555 1_555
C14 N1 1_555 1_555
C15 C14 1_555 1_555
H8 C15 1_555 1_555
C16 C15 1_555 1_555
H9 C16 1_555 1_555
C17 C16 1_555 1_555
H10 C17 1_555 1_555
C18 C17 1_555 1_555
H11 C18 1_555 1_555
C19 N2 1_555 1_555
C20 N2 1_555 1_555
H12 C20 1_555 1_555
H13 C20 1_555 1_555
H14 C20 1_555 1_555
C21 N4 1_555 1_555
H15 C21 1_555 1_555
H16 C21 1_555 1_555
H17 C21 1_555 1_555
N4 C7 1_555 1_555
C5 C6 1_555 1_555
C11 C12 1_555 1_555
C14 C19 1_555 1_555
C18 C19 1_555 1_555

#END
