
#######################################################################
#
#                 Cambridge Crystallographic Data Centre
#                                CCDC 
#
#######################################################################
#
# If this CIF has been generated from an entry in the Cambridge 
# Structural Database, then it will include bibliographic, chemical, 
# crystal, experimental, refinement or atomic coordinate data resulting 
# from the CCDC's data processing and validation procedures.
#
#######################################################################

data_QIGBIU
_chemical_formula_moiety         'C28 H23 N1 O3 S1'
_chemical_name_systematic        
diphenyl{3-[(phenylsulfonyl)methyl]-1H-indol-2-yl}methanol
_symmetry_cell_setting           orthorhombic
_symmetry_space_group_name_H-M   'P 21 21 21'
_symmetry_Int_Tables_number      19
_space_group_name_Hall           'P 2ac 2ab'
loop_
_symmetry_equiv_pos_site_id
_symmetry_equiv_pos_as_xyz
1 x,y,z
2 1/2-x,-y,1/2+z
3 -x,1/2+y,1/2-z
4 1/2+x,1/2-y,-z
_cell_length_a                   8.4214(5)
_cell_length_b                   11.5257(7)
_cell_length_c                   22.6933(15)
_cell_angle_alpha                90
_cell_angle_beta                 90
_cell_angle_gamma                90
_cell_volume                     2202.67
_exptl_crystal_colour            colorless
_exptl_crystal_description       block
_cell_formula_units_Z            4
loop_
_atom_site_label
_atom_site_type_symbol
_atom_site_fract_x
_atom_site_fract_y
_atom_site_fract_z
S1 S 0.52103(9) 0.59244(7) 0.18683(4)
O1 O 0.4051(3) 0.5741(2) 0.14123(10)
O2 O 0.5076(3) 0.69661(19) 0.22217(10)
O3 O 0.4433(3) 0.69056(19) 0.34152(10)
H1 H 0.4607 0.6857 0.3052
N1 N 0.1519(3) 0.4849(3) 0.32655(13)
C1 C 0.3103(4) 0.5099(3) 0.31867(14)
C2 C 0.3574(4) 0.4652(3) 0.26479(14)
C3 C 0.2213(4) 0.4097(3) 0.23935(14)
C4 C 0.1958(4) 0.3485(3) 0.18712(15)
H2 H 0.2792 0.3388 0.1594
C5 C 0.0473(4) 0.3023(3) 0.17659(16)
H3 H 0.0290 0.2595 0.1414
C6 C -0.0770(4) 0.3175(3) 0.21688(16)
H4 H -0.1781 0.2849 0.2085
C7 C -0.0560(4) 0.3785(3) 0.26837(15)
H5 H -0.1407 0.3897 0.2954
C8 C 0.0949(4) 0.4230(3) 0.27915(14)
C9 C 0.5171(4) 0.4718(3) 0.23655(14)
H6 H 0.5392 0.3991 0.2148
H7 H 0.5999 0.4816 0.2671
C10 C 0.7108(4) 0.5901(3) 0.15420(15)
C11 C 0.7264(4) 0.5533(3) 0.09641(16)
H8 H 0.6357 0.5303 0.0744
C12 C 0.8758(4) 0.5504(3) 0.07117(17)
H9 H 0.8882 0.5274 0.0312
C13 C 1.0078(4) 0.5813(3) 0.10434(16)
H10 H 1.1106 0.5770 0.0873
C14 C 0.9910(4) 0.6181(3) 0.16190(16)
H11 H 1.0820 0.6397 0.1841
C15 C 0.8419(4) 0.6238(3) 0.18738(16)
H12 H 0.8293 0.6502 0.2268
C16 C 0.4043(4) 0.5781(3) 0.36424(14)
C17 C 0.5566(4) 0.5131(3) 0.38241(14)
C18 C 0.6888(4) 0.5771(3) 0.40001(14)
H13 H 0.6873 0.6593 0.3971
C19 C 0.8229(4) 0.5211(3) 0.42178(15)
H14 H 0.9117 0.5656 0.4343
C20 C 0.8282(4) 0.4021(3) 0.42537(15)
H15 H 0.9200 0.3645 0.4405
C21 C 0.6988(4) 0.3372(3) 0.40674(15)
H16 H 0.7022 0.2548 0.4086
C22 C 0.5637(4) 0.3929(3) 0.38528(14)
H17 H 0.4756 0.3481 0.3725
C23 C 0.3038(4) 0.5998(3) 0.41998(14)
C24 C 0.2427(4) 0.7090(3) 0.43153(15)
H18 H 0.2632 0.7711 0.4051
C25 C 0.1508(4) 0.7285(3) 0.48191(16)
H19 H 0.1086 0.8035 0.4894
C26 C 0.1215(4) 0.6384(3) 0.52085(16)
H20 H 0.0615 0.6522 0.5556
C27 C 0.1794(4) 0.5283(3) 0.50917(15)
H21 H 0.1574 0.4661 0.5354
C28 C 0.2700(4) 0.5090(3) 0.45881(15)
H22 H 0.3092 0.4333 0.4507
H23 H 0.101(5) 0.502(4) 0.358(2)
loop_
_geom_bond_atom_site_label_1
_geom_bond_atom_site_label_2
_geom_bond_site_symmetry_1
_geom_bond_site_symmetry_2
S1 O1 1_555 1_555
O2 S1 1_555 1_555
O3 H1 1_555 1_555
N1 C1 1_555 1_555
C1 C2 1_555 1_555
C2 C3 1_555 1_555
C3 C4 1_555 1_555
C4 H2 1_555 1_555
C5 C4 1_555 1_555
H3 C5 1_555 1_555
C6 C5 1_555 1_555
H4 C6 1_555 1_555
C7 C6 1_555 1_555
H5 C7 1_555 1_555
C8 N1 1_555 1_555
C9 S1 1_555 1_555
H6 C9 1_555 1_555
H7 C9 1_555 1_555
C10 S1 1_555 1_555
C11 C10 1_555 1_555
H8 C11 1_555 1_555
C12 C11 1_555 1_555
H9 C12 1_555 1_555
C13 C12 1_555 1_555
H10 C13 1_555 1_555
C14 C13 1_555 1_555
H11 C14 1_555 1_555
C15 C10 1_555 1_555
H12 C15 1_555 1_555
C16 O3 1_555 1_555
C17 C16 1_555 1_555
C18 C17 1_555 1_555
H13 C18 1_555 1_555
C19 C18 1_555 1_555
H14 C19 1_555 1_555
C20 C19 1_555 1_555
H15 C20 1_555 1_555
C21 C20 1_555 1_555
H16 C21 1_555 1_555
C22 C17 1_555 1_555
H17 C22 1_555 1_555
C23 C16 1_555 1_555
C24 C23 1_555 1_555
H18 C24 1_555 1_555
C25 C24 1_555 1_555
H19 C25 1_555 1_555
C26 C25 1_555 1_555
H20 C26 1_555 1_555
C27 C26 1_555 1_555
H21 C27 1_555 1_555
C28 C23 1_555 1_555
H22 C28 1_555 1_555
H23 N1 1_555 1_555
C1 C16 1_555 1_555
C2 C9 1_555 1_555
C3 C8 1_555 1_555
C7 C8 1_555 1_555
C14 C15 1_555 1_555
C21 C22 1_555 1_555
C27 C28 1_555 1_555

#END
