
#######################################################################
#
#                 Cambridge Crystallographic Data Centre
#                                CCDC 
#
#######################################################################
#
# If this CIF has been generated from an entry in the Cambridge 
# Structural Database, then it will include bibliographic, chemical, 
# crystal, experimental, refinement or atomic coordinate data resulting 
# from the CCDC's data processing and validation procedures.
#
#######################################################################

data_QIGDOC
_chemical_formula_moiety         'C33 H25 N1 O4 S2'
_chemical_name_systematic        
2-{phenyl[4-(phenylsulfonyl)phenyl]methyl}-3-(phenylsulfonyl)-1H-indole
_symmetry_cell_setting           triclinic
_symmetry_space_group_name_H-M   'P -1'
_symmetry_Int_Tables_number      2
_space_group_name_Hall           '-P 1'
loop_
_symmetry_equiv_pos_site_id
_symmetry_equiv_pos_as_xyz
1 x,y,z
2 -x,-y,-z
_cell_length_a                   10.6766(19)
_cell_length_b                   12.442(2)
_cell_length_c                   12.841(2)
_cell_angle_alpha                109.010(2)
_cell_angle_beta                 106.262(2)
_cell_angle_gamma                107.322(2)
_cell_volume                     1398.85
_exptl_crystal_colour            colorless
_exptl_crystal_description       block
_cell_formula_units_Z            2
loop_
_atom_site_label
_atom_site_type_symbol
_atom_site_fract_x
_atom_site_fract_y
_atom_site_fract_z
S1 S 0.73935(7) 0.55371(6) 0.39808(6)
S2 S 0.39630(7) 0.91884(6) 0.73709(6)
O1 O 0.8454(2) 0.51303(18) 0.37468(18)
O2 O 0.59280(19) 0.46151(16) 0.34723(17)
O3 O 0.4614(2) 1.05119(17) 0.77077(18)
O4 O 0.2488(2) 0.8603(2) 0.71762(18)
N1 N 0.6793(2) 0.79942(19) 0.28795(18)
H1 H 0.6277 0.8331 0.2592
C1 C 0.8257(2) 0.8401(2) 0.3187(2)
C2 C 0.9211(3) 0.9413(2) 0.3147(2)
H2 H 0.8908 0.9952 0.2900
C3 C 1.0623(3) 0.9582(3) 0.3487(3)
H3 H 1.1292 1.0249 0.3472
C4 C 1.1070(3) 0.8774(3) 0.3854(3)
H4 H 1.2028 0.8904 0.4061
C5 C 1.0139(3) 0.7791(3) 0.3918(3)
H5 H 1.0457 0.7265 0.4177
C6 C 0.8696(2) 0.7600(2) 0.3584(2)
C7 C 0.7420(2) 0.6702(2) 0.3523(2)
C8 C 0.6282(2) 0.6984(2) 0.3095(2)
C9 C 0.4738(2) 0.6412(2) 0.2926(2)
H6 H 0.4575 0.5598 0.2936
C10 C 0.3660(3) 0.6109(2) 0.1685(2)
C11 C 0.3507(4) 0.5133(4) 0.0687(3)
H7 H 0.4078 0.4706 0.0786
C12 C 0.2523(5) 0.4781(5) -0.0456(3)
H8 H 0.2427 0.4113 -0.1119
C13 C 0.1695(5) 0.5401(5) -0.0622(3)
H9 H 0.1034 0.5164 -0.1396
C14 C 0.1835(4) 0.6366(4) 0.0345(4)
H10 H 0.1268 0.6794 0.0231
C15 C 0.2816(3) 0.6731(3) 0.1513(3)
H11 H 0.2897 0.7393 0.2172
C16 C 0.4503(2) 0.7168(2) 0.3996(2)
C17 C 0.3359(3) 0.6571(2) 0.4218(2)
H12 H 0.2700 0.5748 0.3666
C18 C 0.3172(3) 0.7167(2) 0.5236(2)
H13 H 0.2412 0.6744 0.5383
C19 C 0.4136(3) 0.8404(2) 0.6039(2)
C20 C 0.5254(3) 0.9030(2) 0.5816(2)
H14 H 0.5886 0.9865 0.6349
C21 C 0.5433(3) 0.8414(2) 0.4799(2)
H15 H 0.6188 0.8841 0.4651
C22 C 0.5040(3) 0.8924(2) 0.8479(2)
C23 C 0.4424(4) 0.7891(3) 0.8658(3)
H16 H 0.3442 0.7365 0.8220
C24 C 0.5273(5) 0.7647(4) 0.9490(3)
H17 H 0.4865 0.6956 0.9618
C25 C 0.6690(5) 0.8402(4) 1.0117(3)
H18 H 0.7256 0.8216 1.0665
C26 C 0.7323(4) 0.9441(4) 0.9969(3)
H19 H 0.8305 0.9960 1.0421
C27 C 0.6483(4) 0.9716(3) 0.9132(3)
H20 H 0.6894 1.0420 0.9022
C28 C 0.7973(3) 0.6272(2) 0.5572(2)
C29 C 0.7001(3) 0.6496(3) 0.6040(3)
H21 H 0.6071 0.6295 0.5522
C30 C 0.7424(4) 0.7018(3) 0.7277(3)
H22 H 0.6784 0.7176 0.7601
C31 C 0.8808(4) 0.7305(4) 0.8031(3)
H23 H 0.9095 0.7657 0.8866
C32 C 0.9756(4) 0.7079(4) 0.7570(3)
H24 H 1.0682 0.7277 0.8092
C33 C 0.9350(3) 0.6554(3) 0.6324(3)
H25 H 0.9995 0.6397 0.6007
loop_
_geom_bond_atom_site_label_1
_geom_bond_atom_site_label_2
_geom_bond_site_symmetry_1
_geom_bond_site_symmetry_2
S1 O1 1_555 1_555
S2 O3 1_555 1_555
O2 S1 1_555 1_555
O4 S2 1_555 1_555
N1 H1 1_555 1_555
C1 N1 1_555 1_555
C2 C1 1_555 1_555
H2 C2 1_555 1_555
C3 C2 1_555 1_555
H3 C3 1_555 1_555
C4 C3 1_555 1_555
H4 C4 1_555 1_555
C5 C4 1_555 1_555
H5 C5 1_555 1_555
C6 C1 1_555 1_555
C7 S1 1_555 1_555
C8 N1 1_555 1_555
C9 C8 1_555 1_555
H6 C9 1_555 1_555
C10 C9 1_555 1_555
C11 C10 1_555 1_555
H7 C11 1_555 1_555
C12 C11 1_555 1_555
H8 C12 1_555 1_555
C13 C12 1_555 1_555
H9 C13 1_555 1_555
C14 C13 1_555 1_555
H10 C14 1_555 1_555
C15 C10 1_555 1_555
H11 C15 1_555 1_555
C16 C9 1_555 1_555
C17 C16 1_555 1_555
H12 C17 1_555 1_555
C18 C17 1_555 1_555
H13 C18 1_555 1_555
C19 S2 1_555 1_555
C20 C19 1_555 1_555
H14 C20 1_555 1_555
C21 C16 1_555 1_555
H15 C21 1_555 1_555
C22 S2 1_555 1_555
C23 C22 1_555 1_555
H16 C23 1_555 1_555
C24 C23 1_555 1_555
H17 C24 1_555 1_555
C25 C24 1_555 1_555
H18 C25 1_555 1_555
C26 C25 1_555 1_555
H19 C26 1_555 1_555
C27 C22 1_555 1_555
H20 C27 1_555 1_555
C28 S1 1_555 1_555
C29 C28 1_555 1_555
H21 C29 1_555 1_555
C30 C29 1_555 1_555
H22 C30 1_555 1_555
C31 C30 1_555 1_555
H23 C31 1_555 1_555
C32 C31 1_555 1_555
H24 C32 1_555 1_555
C33 C28 1_555 1_555
H25 C33 1_555 1_555
C5 C6 1_555 1_555
C6 C7 1_555 1_555
C7 C8 1_555 1_555
C14 C15 1_555 1_555
C18 C19 1_555 1_555
C20 C21 1_555 1_555
C26 C27 1_555 1_555
C32 C33 1_555 1_555

#END
