
#######################################################################
#
#                 Cambridge Crystallographic Data Centre
#                                CCDC 
#
#######################################################################
#
# If this CIF has been generated from an entry in the Cambridge 
# Structural Database, then it will include bibliographic, chemical, 
# crystal, experimental, refinement or atomic coordinate data resulting 
# from the CCDC's data processing and validation procedures.
#
#######################################################################

data_QIGFOE
_chemical_formula_moiety         'C39 H32 N2 O1,0.5(C1 H2 Cl2)'
_chemical_name_systematic        
'2-[1-(2,3,3-triphenyl-1,2,3,4-tetrahydrocyclopenta[b]indol-1-yl)-1H-indol-3-yl]ethan-1-ol dichloromethane solvate'
_symmetry_cell_setting           monoclinic
_symmetry_space_group_name_H-M   'C 2/c'
_symmetry_Int_Tables_number      15
_space_group_name_Hall           '-C 2yn'
loop_
_symmetry_equiv_pos_site_id
_symmetry_equiv_pos_as_xyz
1 x,y,z
2 -x,y,1/2-z
3 1/2+x,1/2+y,z
4 1/2-x,1/2+y,1/2-z
5 -x,-y,-z
6 x,-y,1/2+z
7 1/2-x,1/2-y,-z
8 1/2+x,1/2-y,1/2+z
_cell_length_a                   23.869(3)
_cell_length_b                   13.815(2)
_cell_length_c                   19.332(3)
_cell_angle_alpha                90
_cell_angle_beta                 103.665(2)
_cell_angle_gamma                90
_cell_volume                     6194.29
_exptl_crystal_colour            colorless
_exptl_crystal_description       block
_cell_formula_units_Z            8
loop_
_atom_site_label
_atom_site_type_symbol
_atom_site_fract_x
_atom_site_fract_y
_atom_site_fract_z
O1 O 0.22287(11) 0.28312(18) 0.92265(11)
H1 H 0.253032 0.281074 0.953525
N1 N 0.25184(8) 0.54685(14) 0.51937(10)
H2 H 0.255641 0.600850 0.498826
N2 N 0.31755(8) 0.28566(14) 0.66853(9)
C1 C 0.29514(10) 0.48207(17) 0.54769(11)
C2 C 0.35811(10) 0.47800(17) 0.54894(12)
C3 C 0.37549(10) 0.39560(18) 0.60832(12)
H3 H 0.379994 0.429654 0.653773
C4 C 0.32035(9) 0.33205(17) 0.60157(11)
H4 H 0.319071 0.282544 0.564927
C5 C 0.27404(9) 0.40522(17) 0.57555(11)
C6 C 0.21319(10) 0.41815(17) 0.56564(11)
C7 C 0.16815(11) 0.3664(2) 0.58334(13)
H5 H 0.174849 0.306960 0.606364
C8 C 0.11363(12) 0.4059(2) 0.56577(16)
H6 H 0.083372 0.372695 0.577774
C9 C 0.10273(13) 0.4940(3) 0.53056(16)
H7 H 0.065292 0.518087 0.519121
C10 C 0.14557(12) 0.5460(2) 0.51239(13)
H8 H 0.137868 0.604827 0.488704
C11 C 0.20115(10) 0.50845(18) 0.53030(12)
C12 C 0.38751(10) 0.57635(19) 0.57253(13)
C13 C 0.40600(11) 0.6374(2) 0.52600(15)
H9 H 0.402215 0.617941 0.479067
C14 C 0.42992(14) 0.7264(2) 0.5472(2)
H10 H 0.442009 0.765741 0.514486
C15 C 0.43604(14) 0.7572(2) 0.6143(2)
H11 H 0.452870 0.816914 0.628572
C16 C 0.41733(19) 0.7001(3) 0.66071(18)
H12 H 0.420655 0.721235 0.707181
C17 C 0.39323(17) 0.6104(2) 0.64010(17)
H13 H 0.380624 0.572463 0.673149
C18 C 0.36814(10) 0.44477(17) 0.47711(11)
C19 C 0.32255(11) 0.42507(19) 0.42001(13)
H14 H 0.285021 0.430697 0.425534
C20 C 0.33157(13) 0.3972(2) 0.35502(14)
H15 H 0.300194 0.385407 0.317133
C21 C 0.38637(15) 0.3869(2) 0.34589(15)
H16 H 0.392448 0.367416 0.302192
C22 C 0.43248(13) 0.4057(2) 0.40232(14)
H17 H 0.469905 0.399309 0.396586
C23 C 0.42344(11) 0.4336(2) 0.46665(13)
H18 H 0.455012 0.445371 0.504296
C24 C 0.43171(10) 0.3429(2) 0.61426(12)
C25 C 0.43587(11) 0.2569(2) 0.57922(15)
H19 H 0.402986 0.230712 0.549453
C26 C 0.48786(14) 0.2092(3) 0.58751(19)
H20 H 0.489657 0.150949 0.563980
C27 C 0.53699(15) 0.2478(4) 0.6306(2)
H21 H 0.571960 0.215405 0.636587
C28 C 0.53444(14) 0.3332(4) 0.66445(18)
H22 H 0.567827 0.359759 0.692904
C29 C 0.48203(12) 0.3813(3) 0.65673(15)
H23 H 0.480691 0.439692 0.680231
C30 C 0.30610(11) 0.33330(19) 0.72676(12)
H24 H 0.300042 0.399599 0.729044
C31 C 0.30494(11) 0.26998(19) 0.77988(12)
C32 C 0.31550(10) 0.17614(17) 0.75389(11)
C33 C 0.31917(12) 0.0827(2) 0.78295(14)
H25 H 0.315400 0.072966 0.829229
C34 C 0.32838(14) 0.0063(2) 0.74217(16)
H26 H 0.329678 -0.056094 0.760621
C35 C 0.33585(14) 0.0198(2) 0.67355(15)
H27 H 0.342379 -0.033562 0.647215
C36 C 0.33375(11) 0.11128(19) 0.64380(13)
H28 H 0.339083 0.120402 0.598118
C37 C 0.32346(9) 0.18846(18) 0.68445(12)
C38 C 0.29220(13) 0.2925(2) 0.85082(13)
H29 H 0.321064 0.261848 0.888194
H30 H 0.294844 0.361888 0.858684
C39 C 0.23409(14) 0.2588(2) 0.85542(15)
H31 H 0.205109 0.288435 0.817628
H32 H 0.231596 0.189194 0.848894
Cl1 Cl 0.51613(8) -0.01584(12) 0.68317(10)
C40 C 0.500000 0.0525(5) 0.750000
H33 H 0.467392 0.093866 0.729906
H33A H 0.532608 0.093866 0.770094
Cl1A Cl 0.48387(8) -0.01584(12) 0.81683(10)
H34? H 0.467393 0.093869 0.729907
loop_
_geom_bond_atom_site_label_1
_geom_bond_atom_site_label_2
_geom_bond_site_symmetry_1
_geom_bond_site_symmetry_2
O1 H1 1_555 1_555
N1 H2 1_555 1_555
N2 C4 1_555 1_555
C1 N1 1_555 1_555
C2 C1 1_555 1_555
C3 C2 1_555 1_555
H3 C3 1_555 1_555
C4 C3 1_555 1_555
H4 C4 1_555 1_555
C5 C1 1_555 1_555
C6 C5 1_555 1_555
C7 C6 1_555 1_555
H5 C7 1_555 1_555
C8 C7 1_555 1_555
H6 C8 1_555 1_555
C9 C8 1_555 1_555
H7 C9 1_555 1_555
C10 C9 1_555 1_555
H8 C10 1_555 1_555
C11 N1 1_555 1_555
C12 C2 1_555 1_555
C13 C12 1_555 1_555
H9 C13 1_555 1_555
C14 C13 1_555 1_555
H10 C14 1_555 1_555
C15 C14 1_555 1_555
H11 C15 1_555 1_555
C16 C15 1_555 1_555
H12 C16 1_555 1_555
C17 C12 1_555 1_555
H13 C17 1_555 1_555
C18 C2 1_555 1_555
C19 C18 1_555 1_555
H14 C19 1_555 1_555
C20 C19 1_555 1_555
H15 C20 1_555 1_555
C21 C20 1_555 1_555
H16 C21 1_555 1_555
C22 C21 1_555 1_555
H17 C22 1_555 1_555
C23 C18 1_555 1_555
H18 C23 1_555 1_555
C24 C3 1_555 1_555
C25 C24 1_555 1_555
H19 C25 1_555 1_555
C26 C25 1_555 1_555
H20 C26 1_555 1_555
C27 C26 1_555 1_555
H21 C27 1_555 1_555
C28 C27 1_555 1_555
H22 C28 1_555 1_555
C29 C24 1_555 1_555
H23 C29 1_555 1_555
C30 N2 1_555 1_555
H24 C30 1_555 1_555
C31 C30 1_555 1_555
C32 C31 1_555 1_555
C33 C32 1_555 1_555
H25 C33 1_555 1_555
C34 C33 1_555 1_555
H26 C34 1_555 1_555
C35 C34 1_555 1_555
H27 C35 1_555 1_555
C36 C35 1_555 1_555
H28 C36 1_555 1_555
C37 N2 1_555 1_555
C38 C31 1_555 1_555
H29 C38 1_555 1_555
H30 C38 1_555 1_555
C39 O1 1_555 1_555
H31 C39 1_555 1_555
H32 C39 1_555 1_555
Cl1 C40 1_555 1_555
C40 H33 1_555 1_555
H33A C40 1_555 1_555
Cl1A C40 1_555 1_555
C4 C5 1_555 1_555
C6 C11 1_555 1_555
C10 C11 1_555 1_555
C16 C17 1_555 1_555
C22 C23 1_555 1_555
C28 C29 1_555 1_555
C32 C37 1_555 1_555
C36 C37 1_555 1_555
C38 C39 1_555 1_555

#END
