
#######################################################################
#
#                 Cambridge Crystallographic Data Centre
#                                CCDC 
#
#######################################################################
#
# If this CIF has been generated from an entry in the Cambridge 
# Structural Database, then it will include bibliographic, chemical, 
# crystal, experimental, refinement or atomic coordinate data resulting 
# from the CCDC's data processing and validation procedures.
#
#######################################################################

data_QIGMIC
_chemical_formula_moiety         'C16 H12 S4 Se8'
_chemical_name_systematic        
trans-trans-twist-2,5,7,10-Tetrathia-1,6(2,6)-ditetraselenafulvalenacyclodecaphane
_symmetry_cell_setting           monoclinic
_symmetry_space_group_name_H-M   'P 21/a'
_symmetry_Int_Tables_number      14
_space_group_name_Hall           '-P 2yab'
loop_
_symmetry_equiv_pos_site_id
_symmetry_equiv_pos_as_xyz
1 x,y,z
2 1/2+x,1/2-y,z
3 -x,-y,-z
4 1/2-x,1/2+y,-z
_cell_length_a                   17.283(5)
_cell_length_b                   8.071(6)
_cell_length_c                   18.386(4)
_cell_angle_alpha                90
_cell_angle_beta                 105.06(2)
_cell_angle_gamma                90
_cell_volume                     2476.6
_exptl_crystal_colour            pink
_exptl_crystal_description       plate
_chemical_melting_point          '194 deg.C(dec.)'
_cell_formula_units_Z            4
_exptl_crystal_recrystallization_method chlorobenzene
loop_
_atom_site_label
_atom_site_type_symbol
_atom_site_fract_x
_atom_site_fract_y
_atom_site_fract_z
Se1 Se 0.04905(9) 0.1627(3) 0.14325(9)
Se2 Se 0.02146(9) 0.0992(2) 0.30569(9)
Se3 Se 0.22055(9) 0.0435(3) 0.37736(9)
Se4 Se 0.24934(9) 0.0909(3) 0.21428(9)
Se5 Se -0.02231(9) -0.3549(3) 0.19877(9)
Se6 Se 0.11321(9) -0.3372(3) 0.11038(9)
Se7 Se 0.25554(9) -0.4057(3) 0.27238(9)
Se8 Se 0.12085(10) -0.4298(3) 0.36215(9)
S1 S -0.1353(2) 0.2018(5) 0.0740(2)
S2 S -0.1553(2) -0.3409(6) 0.0452(3)
S3 S 0.4055(2) 0.0242(5) 0.4494(2)
S4 S 0.3861(3) -0.5178(5) 0.4160(2)
C1 C 0.0966(9) 0.107(2) 0.2459(7)
C2 C -0.0672(8) 0.132(2) 0.2238(7)
C3 C -0.0572(8) 0.162(2) 0.1553(8)
C4 C 0.1746(8) 0.084(2) 0.2743(8)
C5 C 0.3374(8) 0.062(2) 0.2980(8)
C6 C 0.3270(7) 0.045(2) 0.3665(7)
C7 C 0.0884(8) -0.366(2) 0.2027(7)
C8 C 0.0051(9) -0.339(2) 0.0563(9)
C9 C -0.0526(8) -0.345(2) 0.0921(8)
C10 C 0.1451(9) -0.396(2) 0.2694(8)
C11 C 0.2272(9) -0.480(2) 0.4140(9)
C12 C 0.2853(9) -0.472(2) 0.3743(8)
C13 C -0.1404(9) -0.002(2) 0.0276(9)
C14 C -0.1780(8) -0.130(2) 0.0719(9)
C15 C 0.3962(9) -0.199(2) 0.4705(9)
C16 C 0.4271(8) -0.304(2) 0.4146(9)
loop_
_geom_bond_atom_site_label_1
_geom_bond_atom_site_label_2
_geom_bond_site_symmetry_1
_geom_bond_site_symmetry_2
Se1 C1 1_555 1_555
Se2 C1 1_555 1_555
Se3 C4 1_555 1_555
Se4 C4 1_555 1_555
Se5 C7 1_555 1_555
Se6 C7 1_555 1_555
Se7 C10 1_555 1_555
Se8 C10 1_555 1_555
S1 C3 1_555 1_555
S2 C9 1_555 1_555
S3 C6 1_555 1_555
S4 C12 1_555 1_555
C1 C4 1_555 1_555
C2 Se2 1_555 1_555
C3 Se1 1_555 1_555
C5 Se4 1_555 1_555
C6 Se3 1_555 1_555
C7 C10 1_555 1_555
C8 Se6 1_555 1_555
C9 Se5 1_555 1_555
C11 Se8 1_555 1_555
C12 Se7 1_555 1_555
C13 S1 1_555 1_555
C14 S2 1_555 1_555
C15 S3 1_555 1_555
C16 S4 1_555 1_555
C2 C3 1_555 1_555
C5 C6 1_555 1_555
C8 C9 1_555 1_555
C11 C12 1_555 1_555
C13 C14 1_555 1_555
C15 C16 1_555 1_555

#END
