
#######################################################################
#
#                 Cambridge Crystallographic Data Centre
#                                CCDC 
#
#######################################################################
#
# If this CIF has been generated from an entry in the Cambridge 
# Structural Database, then it will include bibliographic, chemical, 
# crystal, experimental, refinement or atomic coordinate data resulting 
# from the CCDC's data processing and validation procedures.
#
#######################################################################

data_QIGNEC
_chemical_formula_moiety         'C78 H84 B1 F15 N4 O1 P2,2(C2 H3 N1)'
_chemical_name_systematic        
"2,2'-[1-(4-{[tris(pentafluorophenyl)-boranyl]oxy}butyl)-1,3-diphosphetane-2,4-diylidene]bis{1,3-bis[2,6-bis(propan-2-yl)phenyl]imidazolidine} acetonitrile solvate"
_symmetry_cell_setting           monoclinic
_symmetry_space_group_name_H-M   'P 21/n'
_symmetry_Int_Tables_number      14
_space_group_name_Hall           '-P 2yn'
loop_
_symmetry_equiv_pos_site_id
_symmetry_equiv_pos_as_xyz
1 x,y,z
2 1/2-x,1/2+y,1/2-z
3 -x,-y,-z
4 1/2+x,1/2-y,1/2+z
_cell_length_a                   12.7579(3)
_cell_length_b                   27.2351(6)
_cell_length_c                   22.2116(5)
_cell_angle_alpha                90
_cell_angle_beta                 92.677(2)
_cell_angle_gamma                90
_cell_volume                     7709.28
_exptl_crystal_colour            red
_exptl_crystal_description       plate
_cell_formula_units_Z            4
loop_
_atom_site_label
_atom_site_type_symbol
_atom_site_fract_x
_atom_site_fract_y
_atom_site_fract_z
P1 P 0.30472(5) 0.21159(2) 0.61611(3)
P2 P 0.47960(6) 0.16442(3) 0.65101(3)
F1 F 0.34305(16) 0.45637(7) 0.64432(9)
F2 F 0.73938(17) 0.42837(8) 0.76992(9)
F3 F 0.68258(17) 0.45769(8) 0.56012(8)
F4 F 0.66393(18) 0.54213(8) 0.62551(10)
F5 F 0.45172(19) 0.37214(8) 0.75272(9)
F6 F 0.61159(19) 0.52949(8) 0.74842(10)
F7 F 0.5624(2) 0.61249(8) 0.56808(10)
F8 F 0.88803(19) 0.46164(9) 0.54901(10)
F9 F 0.3514(2) 0.60842(8) 0.54727(10)
O1 O 0.52248(19) 0.39815(8) 0.65027(9)
F10 F 0.24358(19) 0.52895(9) 0.58636(11)
F11 F 1.02272(18) 0.45128(10) 0.64665(12)
F12 F 0.94344(19) 0.43204(9) 0.75651(10)
F13 F 0.38379(19) 0.39154(11) 0.85933(10)
F14 F 0.54445(19) 0.54692(10) 0.85845(11)
F15 F 0.4299(2) 0.47781(13) 0.91578(10)
N1 N 0.4771(2) 0.11242(9) 0.51750(10)
N2 N 0.45693(19) 0.20966(9) 0.78826(10)
N3 N 0.36072(19) 0.16268(9) 0.47554(10)
N4 N 0.29631(19) 0.23696(9) 0.76865(10)
C1 C 0.4155(2) 0.15173(10) 0.52740(11)
C2 C 0.4099(2) 0.17655(10) 0.58290(11)
C3 C 0.3818(2) 0.21639(10) 0.74443(11)
C4 C 0.5380(2) 0.08466(10) 0.56092(11)
C5 C 0.6408(2) 0.21778(11) 0.76198(12)
C6 C 0.5584(2) 0.18872(10) 0.78156(11)
C7 C 0.2987(2) 0.20539(10) 0.46343(11)
C8 C 0.3472(2) 0.24538(11) 0.43561(12)
C9 C 0.1926(2) 0.23926(11) 0.74062(11)
C10 C 0.3904(2) 0.20398(10) 0.68334(11)
C11 C 0.3141(2) 0.27712(10) 0.59585(12)
H1 H 0.2985 0.2798 0.5519
H2 H 0.2574 0.2946 0.6159
C12 C 0.2863(3) 0.28690(11) 0.42363(12)
H3 H 0.3167 0.3147 0.4053
C13 C 0.1920(2) 0.20510(11) 0.47640(11)
C14 C 0.4156(2) 0.30492(10) 0.61010(12)
H4 H 0.4759 0.2854 0.5969
H5 H 0.4247 0.3102 0.6541
C15 C 0.1469(2) 0.28623(12) 0.73198(12)
C16 C 0.5717(2) 0.13873(11) 0.79685(12)
C17 C 0.4890(3) 0.04630(11) 0.59188(12)
C18 C 0.4611(2) 0.24336(11) 0.41903(13)
H6 H 0.4801 0.2079 0.4149
C19 C 0.1816(3) 0.28819(12) 0.43812(13)
H7 H 0.1416 0.3170 0.4300
C20 C 0.6975(3) 0.44447(11) 0.66603(14)
C21 C 0.1344(2) 0.24806(12) 0.46427(13)
H8 H 0.0627 0.2497 0.4740
C22 C 0.0378(2) 0.20060(13) 0.69833(13)
H9 H -0.0011 0.1719 0.6878
C23 C 0.6450(2) 0.09484(11) 0.56938(13)
C24 C 0.3711(3) 0.03787(12) 0.58620(15)
H10 H 0.3360 0.0704 0.5907
C25 C 0.5095(3) 0.38600(11) 0.58878(14)
C26 C 0.1389(2) 0.15930(13) 0.49921(13)
H11 H 0.1933 0.1389 0.5213
C27 C 0.6270(2) 0.27224(11) 0.74907(13)
H12 H 0.5501 0.2794 0.7468
C28 C 0.5106(3) 0.49287(11) 0.63552(14)
C29 C 0.4806(3) 0.10200(12) 0.45269(12)
H13 H 0.4801 0.0662 0.4447
H14 H 0.5433 0.1168 0.4353
C30 C 0.1375(2) 0.19598(12) 0.72594(12)
C31 C 0.7698(3) 0.43704(11) 0.71356(15)
C32 C 0.7373(2) 0.19503(12) 0.75631(13)
H15 H 0.7944 0.2137 0.7427
C33 C 0.7435(3) 0.45104(12) 0.61111(15)
C34 C 0.3803(3) 0.12629(11) 0.42825(12)
H16 H 0.3904 0.1423 0.3890
H17 H 0.3221 0.1023 0.4237
C35 C 0.4268(3) 0.23091(13) 0.84551(12)
H18 H 0.4627 0.2626 0.8536
H19 H 0.4428 0.2082 0.8795
C36 C 0.4034(3) 0.49339(11) 0.62406(13)
C37 C 0.0474(3) 0.28826(13) 0.70344(14)
H20 H 0.0155 0.3193 0.6959
C38 C 0.4127(3) 0.35423(11) 0.57783(13)
H21 H 0.4028 0.3482 0.5340
H22 H 0.3508 0.3728 0.5907
C39 C 0.5603(3) 0.53487(12) 0.61550(14)
C40 C 0.5082(3) 0.57249(12) 0.58528(14)
C41 C 0.1999(3) 0.33270(12) 0.75644(14)
H23 H 0.2738 0.3244 0.7696
C42 C 0.5323(3) 0.45084(12) 0.74214(14)
C43 C 0.8497(3) 0.45345(13) 0.60346(16)
C44 C 0.8779(3) 0.43888(13) 0.70806(17)
C45 C 0.6705(3) 0.11795(12) 0.79024(14)
H24 H 0.6817 0.0843 0.7997
C46 C 0.7526(3) 0.14597(13) 0.76995(15)
H25 H 0.8195 0.1314 0.7654
C47 C -0.0059(3) 0.24626(15) 0.68591(14)
H26 H -0.0726 0.2486 0.6653
C48 C 0.6967(3) 0.13828(12) 0.53926(15)
H27 H 0.6400 0.1588 0.5194
C49 C 0.3484(3) 0.53046(13) 0.59421(14)
C50 C 0.5535(3) 0.01768(12) 0.63018(14)
H28 H 0.5233 -0.0085 0.6517
C51 C 0.3096(3) 0.23790(13) 0.83496(12)
H29 H 0.2700 0.2110 0.8534
H30 H 0.2864 0.2697 0.8515
C52 C 0.4748(3) 0.41715(13) 0.77470(14)
C53 C 0.4829(3) 0.10748(12) 0.81911(14)
H31 H 0.4196 0.1289 0.8216
C54 C 0.1798(3) 0.14512(12) 0.74164(14)
H32 H 0.2544 0.1489 0.7568
C55 C 0.4028(3) 0.57078(12) 0.57411(14)
C56 C 0.3334(3) 0.01646(13) 0.52594(15)
H33 H 0.3505 0.0391 0.4935
H34 H 0.2572 0.0116 0.5255
H35 H 0.3680 -0.0152 0.5198
C57 C 0.9181(3) 0.44744(13) 0.65267(18)
C58 C 0.1430(3) 0.35009(14) 0.81180(16)
H36 H 0.0697 0.3576 0.8001
H37 H 0.1774 0.3796 0.8283
H38 H 0.1454 0.3242 0.8424
C59 C 0.6715(3) 0.28790(13) 0.68937(14)
H39 H 0.7483 0.2857 0.6924
H40 H 0.6506 0.3218 0.6803
H41 H 0.6443 0.2662 0.6571
C60 C 0.7051(3) 0.06481(13) 0.60823(15)
H42 H 0.7781 0.0710 0.6145
C61 C 0.5351(3) 0.26519(15) 0.46789(16)
H43 H 0.5206 0.3003 0.4720
H44 H 0.6079 0.2606 0.4568
H45 H 0.5243 0.2487 0.5063
C62 C 0.4402(3) 0.42575(17) 0.83143(15)
C63 C 0.6770(3) 0.30266(13) 0.80068(16)
H46 H 0.6465 0.2931 0.8387
H47 H 0.6636 0.3376 0.7931
H48 H 0.7528 0.2968 0.8034
C64 C 0.5531(3) 0.49418(13) 0.77395(15)
C65 C 0.0936(3) 0.12914(15) 0.44566(16)
H49 H 0.0345 0.1469 0.4261
H50 H 0.0693 0.0973 0.4601
H51 H 0.1481 0.1240 0.4166
C66 C 0.0518(3) 0.17011(16) 0.54189(15)
H52 H 0.0792 0.1910 0.5749
H53 H 0.0261 0.1392 0.5584
H54 H -0.0059 0.1870 0.5199
C67 C 0.4787(3) 0.26794(17) 0.35851(16)
H55 H 0.4311 0.2535 0.3274
H56 H 0.5515 0.2629 0.3477
H57 H 0.4647 0.3032 0.3616
C68 C 0.7566(3) 0.17036(16) 0.58583(18)
H58 H 0.7095 0.1801 0.6173
H59 H 0.7828 0.1998 0.5660
H60 H 0.8158 0.1518 0.6039
C69 C 0.6599(3) 0.02633(13) 0.63772(16)
H61 H 0.7021 0.0056 0.6633
C70 C 0.7695(3) 0.12135(16) 0.49062(16)
H62 H 0.8258 0.1010 0.5090
H63 H 0.8001 0.1501 0.4714
H64 H 0.7294 0.1021 0.4602
C71 C 0.1780(4) 0.10993(14) 0.68725(17)
H65 H 0.1054 0.1051 0.6719
H66 H 0.2081 0.0782 0.6998
H67 H 0.2193 0.1240 0.6554
C72 C 0.4626(3) 0.46953(17) 0.86039(16)
C73 C 0.2027(3) 0.37362(13) 0.70951(17)
H68 H 0.2428 0.3626 0.6754
H69 H 0.2363 0.4028 0.7277
H70 H 0.1310 0.3818 0.6953
C74 C 0.5202(3) 0.50378(16) 0.83081(17)
C75 C 0.3321(3) 0.00354(15) 0.63597(17)
H71 H 0.3613 -0.0294 0.6308
H72 H 0.2553 0.0019 0.6330
H73 H 0.3550 0.0164 0.6756
C76 C 0.5096(4) 0.08678(16) 0.88241(16)
H74 H 0.5737 0.0670 0.8816
H75 H 0.4515 0.0662 0.8951
H76 H 0.5206 0.1139 0.9109
C77 C 0.4553(4) 0.06542(15) 0.77607(17)
H77 H 0.4394 0.0785 0.7356
H78 H 0.3940 0.0479 0.7900
H79 H 0.5149 0.0428 0.7749
B1 B 0.5665(3) 0.44415(13) 0.67166(16)
C78 C 0.1188(4) 0.12204(17) 0.7918(2)
H80 H 0.1258 0.1426 0.8280
H81 H 0.1468 0.0892 0.8009
H82 H 0.0445 0.1194 0.7788
H83 H 0.572(3) 0.3697(15) 0.5757(16)
H84 H 0.504(3) 0.4173(15) 0.5626(17)
N5 N 0.3421(3) 0.23650(15) 0.97394(14)
C79 C 0.3264(3) 0.20687(17) 1.00802(15)
C80 C 0.3050(5) 0.1690(2) 1.0516(2)
H85 H 0.3090 0.1367 1.0324
H86 H 0.2345 0.1738 1.0664
H87 H 0.3569 0.1709 1.0854
C81 C 1.1037(5) 0.3854(2) 0.5406(2)
N6 N 1.0525(6) 0.3540(3) 0.5531(3)
C82 C 1.1709(6) 0.4248(2) 0.5224(3)
H88 H 1.2141 0.4134 0.4899
H89 H 1.2164 0.4351 0.5569
H90 H 1.1278 0.4526 0.5082
loop_
_geom_bond_atom_site_label_1
_geom_bond_atom_site_label_2
_geom_bond_site_symmetry_1
_geom_bond_site_symmetry_2
P1 C2 1_555 1_555
P2 C2 1_555 1_555
F1 C36 1_555 1_555
F2 C31 1_555 1_555
F3 C33 1_555 1_555
F4 C39 1_555 1_555
F5 C52 1_555 1_555
F6 C64 1_555 1_555
F7 C40 1_555 1_555
F8 C43 1_555 1_555
F9 C55 1_555 1_555
O1 C25 1_555 1_555
F10 C49 1_555 1_555
F11 C57 1_555 1_555
F12 C44 1_555 1_555
F13 C62 1_555 1_555
F14 C74 1_555 1_555
F15 C72 1_555 1_555
N1 C1 1_555 1_555
N2 C3 1_555 1_555
N3 C1 1_555 1_555
N4 C3 1_555 1_555
C1 C2 1_555 1_555
C3 C10 1_555 1_555
C4 N1 1_555 1_555
C5 C6 1_555 1_555
C6 N2 1_555 1_555
C7 N3 1_555 1_555
C8 C7 1_555 1_555
C9 N4 1_555 1_555
C10 P1 1_555 1_555
C11 P1 1_555 1_555
H1 C11 1_555 1_555
H2 C11 1_555 1_555
C12 C8 1_555 1_555
H3 C12 1_555 1_555
C13 C7 1_555 1_555
C14 C11 1_555 1_555
H4 C14 1_555 1_555
H5 C14 1_555 1_555
C15 C9 1_555 1_555
C16 C6 1_555 1_555
C17 C4 1_555 1_555
C18 C8 1_555 1_555
H6 C18 1_555 1_555
C19 C12 1_555 1_555
H7 C19 1_555 1_555
C20 C31 1_555 1_555
C21 C13 1_555 1_555
H8 C21 1_555 1_555
C22 H9 1_555 1_555
C23 C4 1_555 1_555
C24 C17 1_555 1_555
H10 C24 1_555 1_555
C25 C38 1_555 1_555
C26 C13 1_555 1_555
H11 C26 1_555 1_555
C27 C5 1_555 1_555
H12 C27 1_555 1_555
C28 C36 1_555 1_555
C29 N1 1_555 1_555
H13 C29 1_555 1_555
H14 C29 1_555 1_555
C30 C9 1_555 1_555
C31 C44 1_555 1_555
C32 C5 1_555 1_555
H15 C32 1_555 1_555
C33 C20 1_555 1_555
C34 N3 1_555 1_555
H16 C34 1_555 1_555
H17 C34 1_555 1_555
C35 N2 1_555 1_555
H18 C35 1_555 1_555
H19 C35 1_555 1_555
C36 C49 1_555 1_555
C37 C15 1_555 1_555
H20 C37 1_555 1_555
C38 C14 1_555 1_555
H21 C38 1_555 1_555
H22 C38 1_555 1_555
C39 C28 1_555 1_555
C40 C39 1_555 1_555
C41 C15 1_555 1_555
H23 C41 1_555 1_555
C42 C52 1_555 1_555
C43 C33 1_555 1_555
C44 C57 1_555 1_555
C45 C16 1_555 1_555
H24 C45 1_555 1_555
C46 C32 1_555 1_555
H25 C46 1_555 1_555
C47 C22 1_555 1_555
H26 C47 1_555 1_555
C48 C23 1_555 1_555
H27 C48 1_555 1_555
C49 C55 1_555 1_555
C50 C17 1_555 1_555
H28 C50 1_555 1_555
C51 N4 1_555 1_555
H29 C51 1_555 1_555
H30 C51 1_555 1_555
C52 C62 1_555 1_555
C53 C16 1_555 1_555
H31 C53 1_555 1_555
C54 C30 1_555 1_555
H32 C54 1_555 1_555
C55 C40 1_555 1_555
C56 C24 1_555 1_555
H33 C56 1_555 1_555
H34 C56 1_555 1_555
H35 C56 1_555 1_555
C57 C43 1_555 1_555
C58 C41 1_555 1_555
H36 C58 1_555 1_555
H37 C58 1_555 1_555
H38 C58 1_555 1_555
C59 C27 1_555 1_555
H39 C59 1_555 1_555
H40 C59 1_555 1_555
H41 C59 1_555 1_555
C60 C23 1_555 1_555
H42 C60 1_555 1_555
C61 C18 1_555 1_555
H43 C61 1_555 1_555
H44 C61 1_555 1_555
H45 C61 1_555 1_555
C62 C72 1_555 1_555
C63 C27 1_555 1_555
H46 C63 1_555 1_555
H47 C63 1_555 1_555
H48 C63 1_555 1_555
C64 C42 1_555 1_555
C65 C26 1_555 1_555
H49 C65 1_555 1_555
H50 C65 1_555 1_555
H51 C65 1_555 1_555
C66 C26 1_555 1_555
H52 C66 1_555 1_555
H53 C66 1_555 1_555
H54 C66 1_555 1_555
C67 C18 1_555 1_555
H55 C67 1_555 1_555
H56 C67 1_555 1_555
H57 C67 1_555 1_555
C68 C48 1_555 1_555
H58 C68 1_555 1_555
H59 C68 1_555 1_555
H60 C68 1_555 1_555
C69 C50 1_555 1_555
H61 C69 1_555 1_555
C70 C48 1_555 1_555
H62 C70 1_555 1_555
H63 C70 1_555 1_555
H64 C70 1_555 1_555
C71 C54 1_555 1_555
H65 C71 1_555 1_555
H66 C71 1_555 1_555
H67 C71 1_555 1_555
C72 C74 1_555 1_555
C73 C41 1_555 1_555
H68 C73 1_555 1_555
H69 C73 1_555 1_555
H70 C73 1_555 1_555
C74 C64 1_555 1_555
C75 C24 1_555 1_555
H71 C75 1_555 1_555
H72 C75 1_555 1_555
H73 C75 1_555 1_555
C76 C53 1_555 1_555
H74 C76 1_555 1_555
H75 C76 1_555 1_555
H76 C76 1_555 1_555
C77 C53 1_555 1_555
H77 C77 1_555 1_555
H78 C77 1_555 1_555
H79 C77 1_555 1_555
B1 O1 1_555 1_555
C78 C54 1_555 1_555
H80 C78 1_555 1_555
H81 C78 1_555 1_555
H82 C78 1_555 1_555
H83 C25 1_555 1_555
H84 C25 1_555 1_555
N5 C79 1_555 1_555
C79 C80 1_555 1_555
C80 H85 1_555 1_555
H86 C80 1_555 1_555
H87 C80 1_555 1_555
C81 N6 1_555 1_555
C82 C81 1_555 1_555
H88 C82 1_555 1_555
H89 C82 1_555 1_555
H90 C82 1_555 1_555
P2 C10 1_555 1_555
C19 C21 1_555 1_555
C20 B1 1_555 1_555
C22 C30 1_555 1_555
C28 B1 1_555 1_555
C29 C34 1_555 1_555
C35 C51 1_555 1_555
C37 C47 1_555 1_555
C42 B1 1_555 1_555
C45 C46 1_555 1_555
C60 C69 1_555 1_555

#END
