
#######################################################################
#
#                 Cambridge Crystallographic Data Centre
#                                CCDC 
#
#######################################################################
#
# If this CIF has been generated from an entry in the Cambridge 
# Structural Database, then it will include bibliographic, chemical, 
# crystal, experimental, refinement or atomic coordinate data resulting 
# from the CCDC's data processing and validation procedures.
#
#######################################################################

data_QIGPUU
_chemical_formula_moiety         'C17 H18 N2 O2'
_chemical_name_systematic        
N-[2-(methoxyimino)-2-phenylethyl]-4-methylbenzamide
_symmetry_cell_setting           triclinic
_symmetry_space_group_name_H-M   'P -1'
_symmetry_Int_Tables_number      2
_space_group_name_Hall           '-P 1'
loop_
_symmetry_equiv_pos_site_id
_symmetry_equiv_pos_as_xyz
1 x,y,z
2 -x,-y,-z
_cell_length_a                   5.3098(5)
_cell_length_b                   15.9656(13)
_cell_length_c                   19.7582(19)
_cell_angle_alpha                113.815(9)
_cell_angle_beta                 93.449(8)
_cell_angle_gamma                93.537(7)
_cell_volume                     1522.8
_exptl_crystal_colour            yellow
_exptl_crystal_description       plate
_cell_formula_units_Z            4
loop_
_atom_site_label
_atom_site_type_symbol
_atom_site_fract_x
_atom_site_fract_y
_atom_site_fract_z
O1 O 0.7400(3) 0.75639(12) 0.29738(8)
C1 C 0.1396(4) 0.73289(14) 0.15053(9)
N1 N 0.3180(3) 0.74733(13) 0.27240(9)
O2 O -0.1808(3) 0.70271(11) 0.06442(8)
C2 C 0.1659(4) 0.83048(14) 0.16101(10)
C3 C 0.2977(4) 0.87218(17) 0.42764(11)
H1 H 0.1751 0.8783 0.3947
N2 N -0.0220(3) 0.66948(12) 0.10551(9)
C4 C 0.4951(4) 0.81865(16) 0.40029(11)
C5 C 0.6507(5) 0.8540(2) 0.52659(12)
H2 H 0.7697 0.8466 0.5598
C6 C 0.5287(4) 0.77176(15) 0.31963(11)
C7 C 0.2813(4) 0.91655(18) 0.50329(12)
H3 H 0.1490 0.9529 0.5203
C8 C 0.6724(4) 0.81090(18) 0.45172(11)
H4 H 0.8078 0.7760 0.4351
C9 C 0.3255(4) 0.70019(15) 0.19273(10)
H5 H 0.2877 0.6346 0.1779
H6 H 0.4951 0.7102 0.1801
C10 C 0.0055(4) 0.89184(16) 0.20261(12)
H7 H -0.1228 0.8721 0.2243
C11 C 0.2213(4) 1.01346(17) 0.18117(12)
H8 H 0.2419 1.0749 0.1886
C12 C 0.4551(5) 0.90820(19) 0.55374(12)
C13 C 0.3516(4) 0.86221(17) 0.12926(14)
H9 H 0.4617 0.8221 0.1007
C14 C -0.3541(5) 0.62843(19) 0.01424(13)
H10 H -0.2615 0.5784 -0.0149
H11 H -0.4503 0.6488 -0.0181
H12 H -0.4671 0.6082 0.0419
C15 C 0.3756(5) 0.95294(18) 0.13943(15)
H13 H 0.5010 0.9730 0.1170
C16 C 0.0350(5) 0.98280(17) 0.21216(13)
H14 H -0.0745 1.0236 0.2403
C17 C 0.4316(7) 0.9575(2) 0.63641(13)
H15 H 0.2708 0.9826 0.6440
H16 H 0.5655 1.0063 0.6583
H17 H 0.4436 0.9147 0.6592
H18 H 0.176(4) 0.7531(15) 0.2904(10)
O3 O 0.3225(3) 0.20004(11) 0.06198(8)
O4 O 1.2585(3) 0.26393(13) 0.29117(8)
N3 N 0.8332(3) 0.24667(14) 0.26892(9)
C18 C 0.6686(4) 0.32887(14) 0.15793(10)
C19 C 0.6455(4) 0.23123(14) 0.14737(10)
N4 N 0.4841(3) 0.16708(12) 0.10271(9)
C20 C 1.0480(4) 0.27439(15) 0.31496(11)
C21 C 0.8177(4) 0.29671(18) 0.42807(11)
H19 H 0.6848 0.2549 0.3982
C22 C 0.8359(4) 0.19901(16) 0.18925(11)
H20 H 0.7989 0.1335 0.1749
H21 H 1.0041 0.2089 0.1756
C23 C 1.0204(4) 0.31815(16) 0.39571(11)
C24 C 1.1956(5) 0.4218(2) 0.51818(13)
H22 H 1.3252 0.4651 0.5482
C25 C 0.5055(4) 0.38933(16) 0.19917(12)
H23 H 0.3774 0.3688 0.2204
C26 C 0.7165(4) 0.51191(17) 0.17828(12)
H24 H 0.7342 0.5734 0.1858
C27 C 1.2114(4) 0.38129(18) 0.44263(13)
H25 H 1.3527 0.3966 0.4229
C28 C 0.8538(4) 0.36146(17) 0.12659(13)
H26 H 0.9660 0.3219 0.0985
C29 C 0.9948(5) 0.40017(19) 0.55035(13)
C30 C 0.5316(5) 0.48026(18) 0.20906(13)
H27 H 0.4209 0.5205 0.2372
C31 C 0.1508(5) 0.12551(19) 0.01217(13)
H28 H 0.2443 0.0756 -0.0166
H29 H 0.0545 0.1453 -0.0205
H30 H 0.0380 0.1055 0.0400
C32 C 0.8743(5) 0.45254(18) 0.13661(15)
H31 H 0.9986 0.4733 0.1143
C33 C 0.8089(5) 0.3363(2) 0.50400(13)
H32 H 0.6722 0.3189 0.5243
C34 C 0.9775(7) 0.4446(3) 0.63366(14)
H33 H 0.8180 0.4703 0.6435
H34 H 1.1132 0.4924 0.6565
H35 H 0.9903 0.3991 0.6536
H36 H 0.694(4) 0.2565(16) 0.2887(11)
loop_
_geom_bond_atom_site_label_1
_geom_bond_atom_site_label_2
_geom_bond_site_symmetry_1
_geom_bond_site_symmetry_2
O1 C6 1_555 1_555
C1 C2 1_555 1_555
N1 C6 1_555 1_555
O2 N2 1_555 1_555
C2 C10 1_555 1_555
C3 H1 1_555 1_555
N2 C1 1_555 1_555
C4 C3 1_555 1_555
C5 H2 1_555 1_555
C6 C4 1_555 1_555
C7 C3 1_555 1_555
H3 C7 1_555 1_555
C8 C4 1_555 1_555
H4 C8 1_555 1_555
C9 C1 1_555 1_555
H5 C9 1_555 1_555
H6 C9 1_555 1_555
C10 H7 1_555 1_555
C11 H8 1_555 1_555
C12 C5 1_555 1_555
C13 C2 1_555 1_555
H9 C13 1_555 1_555
C14 O2 1_555 1_555
H10 C14 1_555 1_555
H11 C14 1_555 1_555
H12 C14 1_555 1_555
C15 C11 1_555 1_555
H13 C15 1_555 1_555
C16 C10 1_555 1_555
H14 C16 1_555 1_555
C17 C12 1_555 1_555
H15 C17 1_555 1_555
H16 C17 1_555 1_555
H17 C17 1_555 1_555
H18 N1 1_555 1_555
O3 N4 1_555 1_555
O4 C20 1_555 1_555
N3 C20 1_555 1_555
C18 C19 1_555 1_555
C19 N4 1_555 1_555
C20 C23 1_555 1_555
C21 H19 1_555 1_555
C22 N3 1_555 1_555
H20 C22 1_555 1_555
H21 C22 1_555 1_555
C23 C21 1_555 1_555
C24 H22 1_555 1_555
C25 C18 1_555 1_555
H23 C25 1_555 1_555
C26 H24 1_555 1_555
C27 C23 1_555 1_555
H25 C27 1_555 1_555
C28 C18 1_555 1_555
H26 C28 1_555 1_555
C29 C24 1_555 1_555
C30 C25 1_555 1_555
H27 C30 1_555 1_555
C31 O3 1_555 1_555
H28 C31 1_555 1_555
H29 C31 1_555 1_555
H30 C31 1_555 1_555
C32 C26 1_555 1_555
H31 C32 1_555 1_555
C33 C21 1_555 1_555
H32 C33 1_555 1_555
C34 C29 1_555 1_555
H33 C34 1_555 1_555
H34 C34 1_555 1_555
H35 C34 1_555 1_555
H36 N3 1_555 1_555
N1 C9 1_555 1_555
C5 C8 1_555 1_555
C7 C12 1_555 1_555
C11 C16 1_555 1_555
C13 C15 1_555 1_555
C19 C22 1_555 1_555
C24 C27 1_555 1_555
C26 C30 1_555 1_555
C28 C32 1_555 1_555
C29 C33 1_555 1_555

#END
