
#######################################################################
#
#                 Cambridge Crystallographic Data Centre
#                                CCDC 
#
#######################################################################
#
# If this CIF has been generated from an entry in the Cambridge 
# Structural Database, then it will include bibliographic, chemical, 
# crystal, experimental, refinement or atomic coordinate data resulting 
# from the CCDC's data processing and validation procedures.
#
#######################################################################

data_QIGQAB
_chemical_formula_moiety         'C16 H16 N2 O2'
_chemical_name_systematic        N-[2-(methoxyimino)-2-phenylethyl]benzamide
_symmetry_cell_setting           triclinic
_symmetry_space_group_name_H-M   'P -1'
_symmetry_Int_Tables_number      2
_space_group_name_Hall           '-P 1'
loop_
_symmetry_equiv_pos_site_id
_symmetry_equiv_pos_as_xyz
1 x,y,z
2 -x,-y,-z
_cell_length_a                   5.2551(6)
_cell_length_b                   8.3833(8)
_cell_length_c                   15.9413(16)
_cell_angle_alpha                80.053(8)
_cell_angle_beta                 84.296(9)
_cell_angle_gamma                86.691(9)
_cell_volume                     687.724
_exptl_crystal_colour            colorless
_exptl_crystal_description       needle
_cell_formula_units_Z            2
loop_
_atom_site_label
_atom_site_type_symbol
_atom_site_fract_x
_atom_site_fract_y
_atom_site_fract_z
O1 O 0.5255(3) 1.04643(15) 0.09964(9)
O2 O 1.3359(3) 0.86992(17) 0.36581(9)
N1 N 0.9181(3) 0.9139(2) 0.34600(11)
N2 N 0.6592(3) 1.09187(18) 0.16401(10)
C1 C 0.8236(3) 0.8088(2) 0.17452(11)
C2 C 0.8011(3) 0.9736(2) 0.19769(12)
C3 C 1.0387(4) 0.7662(2) 0.48159(12)
C4 C 1.1105(4) 0.8541(2) 0.39309(12)
C5 C 0.9622(4) 1.0155(2) 0.26337(12)
H1 H 1.1415 1.0047 0.2430
H2 H 0.9251 1.1277 0.2696
C6 C 1.0331(4) 0.7638(2) 0.12266(14)
H3 H 1.1626 0.8360 0.1036
C7 C 0.8149(4) 0.8011(3) 0.52934(13)
H4 H 0.6988 0.8807 0.5063
C8 C 1.2092(4) 0.6480(2) 0.51685(13)
H5 H 1.3620 0.6255 0.4856
C9 C 0.6579(4) 0.5468(2) 0.17961(14)
H6 H 0.5310 0.4731 0.1993
C10 C 0.6368(4) 0.6982(2) 0.20314(13)
H7 H 0.4956 0.7258 0.2385
C11 C 0.8639(4) 0.5044(2) 0.12758(14)
H8 H 0.8769 0.4024 0.1116
C12 C 0.7638(4) 0.7170(3) 0.61185(14)
H9 H 0.6145 0.7418 0.6444
C13 C 0.9322(5) 0.5976(3) 0.64561(14)
H10 H 0.8957 0.5402 0.7005
C14 C 1.0508(4) 0.6128(3) 0.09916(15)
H11 H 1.1911 0.5843 0.0636
C15 C 1.1542(5) 0.5629(3) 0.59830(14)
H12 H 1.2683 0.4818 0.6211
C16 C 0.3779(4) 1.1832(2) 0.06247(14)
H13 H 0.2645 1.2221 0.1062
H14 H 0.2795 1.1526 0.0206
H15 H 0.4899 1.2673 0.0355
H16 H 0.774(4) 0.897(2) 0.3647(12)
loop_
_geom_bond_atom_site_label_1
_geom_bond_atom_site_label_2
_geom_bond_site_symmetry_1
_geom_bond_site_symmetry_2
O1 N2 1_555 1_555
O2 C4 1_555 1_555
N1 C4 1_555 1_555
N2 C2 1_555 1_555
C1 C2 1_555 1_555
C2 C5 1_555 1_555
C3 C4 1_555 1_555
C5 N1 1_555 1_555
H1 C5 1_555 1_555
H2 C5 1_555 1_555
C6 C1 1_555 1_555
H3 C6 1_555 1_555
C7 C3 1_555 1_555
H4 C7 1_555 1_555
C8 C3 1_555 1_555
H5 C8 1_555 1_555
C9 H6 1_555 1_555
C10 C1 1_555 1_555
H7 C10 1_555 1_555
C11 C9 1_555 1_555
H8 C11 1_555 1_555
C12 C7 1_555 1_555
H9 C12 1_555 1_555
C13 C12 1_555 1_555
H10 C13 1_555 1_555
C14 C6 1_555 1_555
H11 C14 1_555 1_555
C15 C8 1_555 1_555
H12 C15 1_555 1_555
C16 O1 1_555 1_555
H13 C16 1_555 1_555
H14 C16 1_555 1_555
H15 C16 1_555 1_555
H16 N1 1_555 1_555
C9 C10 1_555 1_555
C11 C14 1_555 1_555
C13 C15 1_555 1_555

#END
