
#######################################################################
#
#                 Cambridge Crystallographic Data Centre
#                                CCDC 
#
#######################################################################
#
# If this CIF has been generated from an entry in the Cambridge 
# Structural Database, then it will include bibliographic, chemical, 
# crystal, experimental, refinement or atomic coordinate data resulting 
# from the CCDC's data processing and validation procedures.
#
#######################################################################

data_QIHBER
_chemical_formula_moiety         'C68 H86 N4 P2 S2,0.5(C6 H14),C4 H10 O1'
_chemical_name_systematic        
"2,2'-[1,3-bis(phenylsulfanyl)-1,3-diphosphetane-2,4-diylidene]bis{1,3-bis[2,6-diisopropylphenyl]imidazolidine} diethyl ether hexane solvate"
_symmetry_cell_setting           monoclinic
_symmetry_space_group_name_H-M   'P 21/n'
_symmetry_Int_Tables_number      14
_space_group_name_Hall           '-P 2yn'
loop_
_symmetry_equiv_pos_site_id
_symmetry_equiv_pos_as_xyz
1 x,y,z
2 1/2-x,1/2+y,1/2-z
3 -x,-y,-z
4 1/2+x,1/2-y,1/2+z
_cell_length_a                   12.85060(10)
_cell_length_b                   28.6129(3)
_cell_length_c                   19.1709(2)
_cell_angle_alpha                90
_cell_angle_beta                 98.3440(10)
_cell_angle_gamma                90
_cell_volume                     6974.39
_exptl_crystal_colour            colorless
_exptl_crystal_description       block
_cell_formula_units_Z            4
loop_
_atom_site_label
_atom_site_type_symbol
_atom_site_fract_x
_atom_site_fract_y
_atom_site_fract_z
O1 O 0.2819(3) 0.13134(13) 0.30755(19)
C69 C 0.1739(4) 0.11166(19) 0.2096(2)
H87 H 0.1498 0.1442 0.2051
H88 H 0.1172 0.0909 0.1887
H89 H 0.2350 0.1077 0.1850
C70 C 0.2026(5) 0.1004(2) 0.2823(3)
H90 H 0.1417 0.1042 0.3081
H91 H 0.2279 0.0678 0.2878
C71 C 0.4137(6) 0.1524(3) 0.4025(4)
H92 H 0.4719 0.1459 0.3761
H93 H 0.4371 0.1473 0.4529
H94 H 0.3910 0.1849 0.3947
C72 C 0.3263(6) 0.1213(3) 0.3786(3)
H95 H 0.3512 0.0885 0.3818
H96 H 0.2715 0.1247 0.4096
P1 P 0.77906(4) 0.31050(2) 0.26996(3)
P2 P 0.70947(4) 0.40059(2) 0.27983(3)
S1 S 0.77456(4) 0.30352(2) 0.15640(3)
S2 S 0.72097(5) 0.42490(2) 0.17348(3)
N1 N 0.47317(13) 0.35614(6) 0.28583(10)
N2 N 0.52833(14) 0.28237(6) 0.29499(10)
N3 N 0.96147(14) 0.42065(7) 0.35889(10)
N4 N 1.01675(13) 0.34995(7) 0.33265(9)
C1 C 0.83262(15) 0.36819(7) 0.29134(10)
C2 C 0.55884(16) 0.32724(7) 0.28211(10)
C3 C 0.65568(15) 0.34199(7) 0.26979(11)
C4 C 0.93021(16) 0.37956(7) 0.32459(11)
C5 C 1.04339(15) 0.31585(8) 0.28337(11)
C6 C 0.59219(17) 0.24128(8) 0.30292(12)
C7 C 1.05333(16) 0.32863(8) 0.21369(12)
C8 C 1.07165(17) 0.27122(8) 0.30965(12)
C9 C 0.83358(17) 0.24864(8) 0.14374(12)
C10 C 0.42905(17) 0.43883(8) 0.28136(13)
C11 C 0.83856(17) 0.46052(9) 0.42481(12)
C12 C 0.90008(17) 0.46107(8) 0.36991(12)
C13 C 0.65712(18) 0.23248(8) 0.36713(13)
C14 C 0.43051(17) 0.39571(8) 0.17090(12)
C15 C 0.44794(15) 0.39772(7) 0.24498(12)
C16 C 0.39275(19) 0.43574(9) 0.13416(14)
H1 H 0.3823 0.4354 0.0841
C17 C 1.0591(2) 0.25600(9) 0.38368(13)
H2 H 1.0201 0.2812 0.4053
C18 C 0.45087(18) 0.44223(9) 0.36109(14)
H3 H 0.4917 0.4139 0.3791
C19 C 0.91148(19) 0.50129(8) 0.33007(14)
C20 C 0.78973(19) 0.50220(9) 0.43984(14)
H4 H 0.7482 0.5029 0.4770
C21 C 1.09089(19) 0.29490(9) 0.17129(13)
H5 H 1.0950 0.3021 0.1234
C22 C 0.65292(18) 0.47893(8) 0.16355(14)
C23 C 1.03337(19) 0.37804(9) 0.18566(13)
H6 H 0.9806 0.3928 0.2123
C24 C 0.44586(19) 0.35129(9) 0.13007(12)
H7 H 0.4928 0.3303 0.1625
C25 C 1.1134(2) 0.23963(9) 0.26543(15)
H8 H 1.1359 0.2097 0.2829
C26 C 0.5810(2) 0.20871(9) 0.24778(14)
C27 C 0.6430(2) 0.50840(9) 0.21936(17)
H9 H 0.6691 0.4991 0.2662
C28 C 1.1223(2) 0.25134(9) 0.19719(15)
H10 H 1.1501 0.2294 0.1676
C29 C 1.10021(18) 0.36883(9) 0.38530(14)
H11 H 1.1703 0.3639 0.3709
H12 H 1.0990 0.3542 0.4320
C30 C 0.8283(2) 0.41654(10) 0.46778(13)
H13 H 0.8365 0.3894 0.4361
C31 C 0.38863(19) 0.47737(9) 0.24159(15)
H14 H 0.3735 0.5052 0.2651
C32 C 0.4220(2) 0.28069(9) 0.31249(17)
H15 H 0.4217 0.2677 0.3603
H16 H 0.3759 0.2613 0.2781
C33 C 0.6669(2) 0.26676(10) 0.42834(13)
H17 H 0.6287 0.2961 0.4118
C34 C 0.3865(2) 0.33031(10) 0.30914(17)
H18 H 0.3212 0.3340 0.2752
H19 H 0.3733 0.3413 0.3560
C35 C 0.8630(2) 0.24024(10) 0.07811(14)
H20 H 0.8578 0.2645 0.0439
C36 C 0.8007(2) 0.54223(9) 0.40195(17)
H21 H 0.7673 0.5703 0.4133
C37 C 0.8601(2) 0.54175(9) 0.34747(17)
H22 H 0.8663 0.5695 0.3213
C38 C 0.3703(2) 0.47578(9) 0.16911(16)
H23 H 0.3422 0.5023 0.1431
C39 C 0.8454(3) 0.21336(9) 0.19347(15)
H24 H 0.8267 0.2187 0.2390
C40 C 1.07354(19) 0.42019(10) 0.38678(16)
H25 H 1.0865 0.4327 0.4354
H26 H 1.1147 0.4385 0.3565
C41 C 0.7107(2) 0.18998(9) 0.37475(15)
H27 H 0.7550 0.1833 0.4177
C42 C 0.6156(2) 0.49330(10) 0.09504(16)
H28 H 0.6224 0.4732 0.0565
C43 C 0.9791(2) 0.50216(9) 0.27135(17)
H29 H 0.9958 0.4691 0.2602
C44 C 0.5167(2) 0.48528(11) 0.38552(16)
H30 H 0.5827 0.4845 0.3655
H31 H 0.5322 0.4853 0.4371
H32 H 0.4774 0.5136 0.3696
C45 C 0.7003(2) 0.15758(9) 0.32108(18)
H33 H 0.7371 0.1287 0.3272
C46 C 0.9949(3) 0.21116(11) 0.38285(17)
H34 H 0.9258 0.2159 0.3546
H35 H 0.9857 0.2029 0.4312
H36 H 1.0318 0.1858 0.3623
C47 C 0.7815(2) 0.27934(11) 0.45550(14)
H37 H 0.8202 0.2510 0.4721
H38 H 0.7839 0.3016 0.4945
H39 H 0.8138 0.2934 0.4173
C48 C 0.5689(3) 0.53645(12) 0.0829(2)
H40 H 0.5437 0.5460 0.0360
C49 C 1.1342(2) 0.40666(10) 0.19963(18)
H41 H 1.1612 0.4060 0.2501
H42 H 1.1195 0.4390 0.1847
H43 H 1.1868 0.3934 0.1731
C50 C 0.5065(2) 0.21690(10) 0.17958(16)
H44 H 0.4841 0.2504 0.1785
C51 C 0.9893(3) 0.37984(12) 0.10744(16)
H45 H 1.0438 0.3703 0.0796
H46 H 0.9666 0.4118 0.0946
H47 H 0.9291 0.3586 0.0979
C52 C 1.1662(2) 0.24954(13) 0.42994(17)
H48 H 1.2048 0.2242 0.4108
H49 H 1.1553 0.2417 0.4781
H50 H 1.2067 0.2786 0.4304
C53 C 0.6365(3) 0.16701(9) 0.25853(17)
H51 H 0.6302 0.1444 0.2218
C54 C 0.3486(2) 0.44315(13) 0.39417(19)
H52 H 0.3092 0.4717 0.3796
H53 H 0.3658 0.4425 0.4457
H54 H 0.3057 0.4158 0.3782
C55 C 0.5584(3) 0.56603(11) 0.1387(3)
H55 H 0.5266 0.5959 0.1303
C56 C 0.4991(3) 0.35915(12) 0.06546(16)
H56 H 0.4528 0.3776 0.0307
H57 H 0.5136 0.3289 0.0448
H58 H 0.5653 0.3760 0.0790
C57 C 0.5948(3) 0.55165(10) 0.2065(2)
H59 H 0.5868 0.5716 0.2450
C58 C 0.3425(3) 0.32585(12) 0.1105(2)
H60 H 0.3103 0.3203 0.1530
H61 H 0.3551 0.2959 0.0884
H62 H 0.2951 0.3449 0.0773
C59 C 0.9001(2) 0.19655(11) 0.06219(18)
H63 H 0.9181 0.1909 0.0166
C60 C 0.9246(3) 0.52451(13) 0.20427(19)
H64 H 0.8590 0.5078 0.1881
H65 H 0.9707 0.5229 0.1678
H66 H 0.9089 0.5573 0.2135
C61 C 0.6142(3) 0.24591(15) 0.48892(17)
H67 H 0.5412 0.2376 0.4711
H68 H 0.6154 0.2690 0.5267
H69 H 0.6526 0.2179 0.5073
C62 C 0.7221(3) 0.41120(14) 0.4922(2)
H70 H 0.7141 0.4351 0.5277
H71 H 0.7169 0.3801 0.5129
H72 H 0.6663 0.4149 0.4519
C63 C 0.4073(3) 0.18626(13) 0.17763(19)
H73 H 0.4269 0.1532 0.1759
H74 H 0.3572 0.1941 0.1357
H75 H 0.3749 0.1921 0.2200
C64 C 0.9111(3) 0.16161(12) 0.1113(2)
H76 H 0.9368 0.1318 0.1003
C65 C 0.8843(3) 0.17049(11) 0.1771(2)
H77 H 0.8927 0.1466 0.2118
C66 C 1.0842(3) 0.52785(12) 0.2948(2)
H78 H 1.0704 0.5610 0.3021
H79 H 1.1296 0.5246 0.2582
H80 H 1.1192 0.5142 0.3389
C67 C 0.5582(3) 0.20765(15) 0.11418(17)
H81 H 0.6209 0.2273 0.1155
H82 H 0.5084 0.2150 0.0719
H83 H 0.5786 0.1747 0.1131
C68 C 0.9163(4) 0.4130(2) 0.5289(3)
H84 H 0.9841 0.4161 0.5116
H85 H 0.9128 0.3827 0.5521
H86 H 0.9091 0.4381 0.5627
H97? H 0.1496 0.0763 0.2889
H98? H 0.2685 0.0827 0.2814
O2? O 0.2210(7) 0.1207(3) 0.3497(3)
C73? C 0.2866(10) 0.1179(5) 0.4157(5)
H99? H 0.3252 0.1477 0.4261
H100? H 0.3386 0.0924 0.4151
C74? C 0.2202(12) 0.1088(5) 0.4685(8)
H101? H 0.1544 0.1264 0.4573
H102? H 0.2563 0.1186 0.5148
H103? H 0.2045 0.0753 0.4694
C75? C 0.8232(5) 0.5852(2) 0.0381(4)
H104? H 0.8621 0.6115 0.0218
H105? H 0.8374 0.5834 0.0896
H106? H 0.7477 0.5897 0.0231
C76? C 0.8583(5) 0.53978(19) 0.0064(4)
H107? H 0.8334 0.5397 -0.0449
H108? H 0.8248 0.5131 0.0273
C77? C 0.9777(4) 0.53294(15) 0.0186(3)
H109? H 1.0111 0.5597 -0.0022
H110? H 1.0025 0.5330 0.0700
C78? C 1.0138(5) 0.48764(16) -0.0128(3)
H111? H 0.9891 0.4876 -0.0642
H112? H 0.9804 0.4609 0.0080
C79? C 1.1332(5) 0.48078(19) -0.0006(4)
H113? H 1.1667 0.5075 -0.0215
H114? H 1.1581 0.4808 0.0507
C80? C 1.1683(5) 0.4354(2) -0.0323(4)
H115? H 1.1178 0.4270 -0.0737
H116? H 1.1715 0.4104 0.0028
H117? H 1.2380 0.4398 -0.0463
loop_
_geom_bond_atom_site_label_1
_geom_bond_atom_site_label_2
_geom_bond_site_symmetry_1
_geom_bond_site_symmetry_2
P1 S1 1_555 1_555
P2 S2 1_555 1_555
S1 C9 1_555 1_555
S2 C22 1_555 1_555
N1 C2 1_555 1_555
N2 C2 1_555 1_555
N3 C4 1_555 1_555
N4 C4 1_555 1_555
C1 P1 1_555 1_555
C2 C3 1_555 1_555
C3 P1 1_555 1_555
C4 C1 1_555 1_555
C5 N4 1_555 1_555
C6 N2 1_555 1_555
C7 C5 1_555 1_555
C8 C5 1_555 1_555
C9 C35 1_555 1_555
C10 C15 1_555 1_555
C11 C12 1_555 1_555
C12 N3 1_555 1_555
C13 C6 1_555 1_555
C14 C15 1_555 1_555
C15 N1 1_555 1_555
C16 C14 1_555 1_555
H1 C16 1_555 1_555
C17 C8 1_555 1_555
H2 C17 1_555 1_555
C18 C10 1_555 1_555
H3 C18 1_555 1_555
C19 C12 1_555 1_555
C20 C11 1_555 1_555
H4 C20 1_555 1_555
C21 C7 1_555 1_555
H5 C21 1_555 1_555
C22 C27 1_555 1_555
C23 C7 1_555 1_555
H6 C23 1_555 1_555
C24 C14 1_555 1_555
H7 C24 1_555 1_555
C25 C8 1_555 1_555
H8 C25 1_555 1_555
C26 C6 1_555 1_555
C27 H9 1_555 1_555
C28 C21 1_555 1_555
H10 C28 1_555 1_555
C29 N4 1_555 1_555
H11 C29 1_555 1_555
H12 C29 1_555 1_555
C30 C11 1_555 1_555
H13 C30 1_555 1_555
C31 C10 1_555 1_555
H14 C31 1_555 1_555
C32 N2 1_555 1_555
H15 C32 1_555 1_555
H16 C32 1_555 1_555
C33 C13 1_555 1_555
H17 C33 1_555 1_555
C34 N1 1_555 1_555
H18 C34 1_555 1_555
H19 C34 1_555 1_555
C35 H20 1_555 1_555
C36 C20 1_555 1_555
H21 C36 1_555 1_555
C37 C19 1_555 1_555
H22 C37 1_555 1_555
C38 C16 1_555 1_555
H23 C38 1_555 1_555
C39 C9 1_555 1_555
H24 C39 1_555 1_555
C40 N3 1_555 1_555
H25 C40 1_555 1_555
H26 C40 1_555 1_555
C41 C13 1_555 1_555
H27 C41 1_555 1_555
C42 C22 1_555 1_555
H28 C42 1_555 1_555
C43 C19 1_555 1_555
H29 C43 1_555 1_555
C44 C18 1_555 1_555
H30 C44 1_555 1_555
H31 C44 1_555 1_555
H32 C44 1_555 1_555
C45 C41 1_555 1_555
H33 C45 1_555 1_555
C46 C17 1_555 1_555
H34 C46 1_555 1_555
H35 C46 1_555 1_555
H36 C46 1_555 1_555
C47 C33 1_555 1_555
H37 C47 1_555 1_555
H38 C47 1_555 1_555
H39 C47 1_555 1_555
C48 C42 1_555 1_555
H40 C48 1_555 1_555
C49 C23 1_555 1_555
H41 C49 1_555 1_555
H42 C49 1_555 1_555
H43 C49 1_555 1_555
C50 C26 1_555 1_555
H44 C50 1_555 1_555
C51 C23 1_555 1_555
H45 C51 1_555 1_555
H46 C51 1_555 1_555
H47 C51 1_555 1_555
C52 C17 1_555 1_555
H48 C52 1_555 1_555
H49 C52 1_555 1_555
H50 C52 1_555 1_555
C53 C26 1_555 1_555
H51 C53 1_555 1_555
C54 C18 1_555 1_555
H52 C54 1_555 1_555
H53 C54 1_555 1_555
H54 C54 1_555 1_555
C55 C48 1_555 1_555
H55 C55 1_555 1_555
C56 C24 1_555 1_555
H56 C56 1_555 1_555
H57 C56 1_555 1_555
H58 C56 1_555 1_555
C57 C27 1_555 1_555
H59 C57 1_555 1_555
C58 C24 1_555 1_555
H60 C58 1_555 1_555
H61 C58 1_555 1_555
H62 C58 1_555 1_555
C59 C35 1_555 1_555
H63 C59 1_555 1_555
C60 C43 1_555 1_555
H64 C60 1_555 1_555
H65 C60 1_555 1_555
H66 C60 1_555 1_555
C61 C33 1_555 1_555
H67 C61 1_555 1_555
H68 C61 1_555 1_555
H69 C61 1_555 1_555
C62 C30 1_555 1_555
H70 C62 1_555 1_555
H71 C62 1_555 1_555
H72 C62 1_555 1_555
C63 C50 1_555 1_555
H73 C63 1_555 1_555
H74 C63 1_555 1_555
H75 C63 1_555 1_555
C64 C59 1_555 1_555
H76 C64 1_555 1_555
C65 C39 1_555 1_555
H77 C65 1_555 1_555
C66 C43 1_555 1_555
H78 C66 1_555 1_555
H79 C66 1_555 1_555
H80 C66 1_555 1_555
C67 C50 1_555 1_555
H81 C67 1_555 1_555
H82 C67 1_555 1_555
H83 C67 1_555 1_555
C68 C30 1_555 1_555
H84 C68 1_555 1_555
H85 C68 1_555 1_555
H86 C68 1_555 1_555
O1 C70 1_555 1_555
C69 H87 1_555 1_555
H88 C69 1_555 1_555
H89 C69 1_555 1_555
C70 C69 1_555 1_555
H90 C70 1_555 1_555
H91 C70 1_555 1_555
C71 H92 1_555 1_555
H93 C71 1_555 1_555
H94 C71 1_555 1_555
C72 O1 1_555 1_555
H95 C72 1_555 1_555
H96 C72 1_555 1_555
P2 C1 1_555 1_555
P2 C3 1_555 1_555
C25 C28 1_555 1_555
C29 C40 1_555 1_555
C31 C38 1_555 1_555
C32 C34 1_555 1_555
C36 C37 1_555 1_555
C45 C53 1_555 1_555
C55 C57 1_555 1_555
C64 C65 1_555 1_555
C71 C72 1_555 1_555

#END
