
#######################################################################
#
#                 Cambridge Crystallographic Data Centre
#                                CCDC 
#
#######################################################################
#
# If this CIF has been generated from an entry in the Cambridge 
# Structural Database, then it will include bibliographic, chemical, 
# crystal, experimental, refinement or atomic coordinate data resulting 
# from the CCDC's data processing and validation procedures.
#
#######################################################################

data_QIHBEO04
_chemical_formula_moiety         'C10 H8 N2,C6 F4 I2'
_chemical_name_systematic        
"4,4'-bipyridine 1,2,4,5-tetrafluoro-3,6-diiodobenzene"
_symmetry_cell_setting           monoclinic
_symmetry_space_group_name_H-M   'P 21/c'
_symmetry_Int_Tables_number      14
_space_group_name_Hall           '-P 2ybc'
loop_
_symmetry_equiv_pos_site_id
_symmetry_equiv_pos_as_xyz
1 x,y,z
2 -x,1/2+y,1/2-z
3 -x,-y,-z
4 x,1/2-y,1/2+z
_cell_length_a                   8.3599(3)
_cell_length_b                   5.7208(2)
_cell_length_c                   17.7679(7)
_cell_angle_alpha                90
_cell_angle_beta                 96.3440(10)
_cell_angle_gamma                90
_cell_volume                     844.552
_exptl_crystal_colour            colorless
_exptl_crystal_description       block
_cell_formula_units_Z            2
loop_
_atom_site_label
_atom_site_type_symbol
_atom_site_fract_x
_atom_site_fract_y
_atom_site_fract_z
C1 C 0.1745(5) 0.5936(8) 0.1583(2)
H1 H 0.2409 0.7024 0.1852
N1 N 0.1320(4) 0.4045(6) 0.19509(19)
C2 C 0.1264(5) 0.6375(7) 0.0835(2)
H2 H 0.1606 0.7729 0.0611
C3 C 0.0269(4) 0.4811(6) 0.04097(18)
C4 C -0.0196(5) 0.2854(6) 0.0796(2)
H3 H -0.0873 0.1746 0.0546
C5 C 0.0350(6) 0.2558(7) 0.1553(3)
H4 H 0.0016 0.1237 0.1798
C1B C -0.1745(5) 0.4064(8) -0.1583(2)
H1B H -0.2409 0.2976 -0.1852
N1B N -0.1320(4) 0.5955(6) -0.19509(19)
C2B C -0.1264(5) 0.3625(7) -0.0835(2)
H2B H -0.1606 0.2271 -0.0611
C3B C -0.0269(4) 0.5189(6) -0.04097(18)
C4B C 0.0196(5) 0.7146(6) -0.0796(2)
H3B H 0.0873 0.8254 -0.0546
C5B C -0.0350(6) 0.7442(7) -0.1553(3)
H4B H -0.0016 0.8763 -0.1798
F1 F 0.4784(4) 0.2335(4) 0.63107(16)
I1 I 0.30525(3) 0.22582(5) 0.33050(2)
F2 F 0.3309(3) 0.4031(4) 0.50260(14)
C6 C 0.4917(4) 0.1157(6) 0.5668(2)
C7 C 0.4141(4) 0.2022(6) 0.4998(2)
C8 C 0.4219(4) 0.0904(6) 0.4318(2)
F1B F 0.5216(4) -0.2335(4) 0.36893(16)
I1B I 0.69475(3) -0.22582(5) 0.66950(2)
F2B F 0.6691(3) -0.4031(4) 0.49740(14)
C6B C 0.5083(4) -0.1157(6) 0.4332(2)
C7B C 0.5859(4) -0.2022(6) 0.5002(2)
C8B C 0.5781(4) -0.0904(6) 0.5682(2)
loop_
_geom_bond_atom_site_label_1
_geom_bond_atom_site_label_2
_geom_bond_site_symmetry_1
_geom_bond_site_symmetry_2
C1 H1 1_555 1_555
N1 C1 1_555 1_555
C2 C1 1_555 1_555
H2 C2 1_555 1_555
C3 C2 1_555 1_555
C4 C3 1_555 1_555
H3 C4 1_555 1_555
C5 N1 1_555 1_555
H4 C5 1_555 1_555
F1 C6 1_555 1_555
I1 C8 1_555 1_555
F2 C7 1_555 1_555
C6 C7 1_555 1_555
C7 C8 1_555 1_555
C8 C6B 1_555 1_555
C1B H1B 1_555 1_555
N1B C1B 1_555 1_555
C2B C1B 1_555 1_555
H2B C2B 1_555 1_555
C3B C3 1_555 1_555
C4B C3B 1_555 1_555
H3B C4B 1_555 1_555
C5B N1B 1_555 1_555
H4B C5B 1_555 1_555
F1B C6B 1_555 1_555
I1B C8B 1_555 1_555
F2B C7B 1_555 1_555
C6B C7B 1_555 1_555
C7B C8B 1_555 1_555
C8B C6 1_555 1_555
C4 C5 1_555 1_555
C2B C3B 1_555 1_555
C4B C5B 1_555 1_555

#END
