
#######################################################################
#
#                 Cambridge Crystallographic Data Centre
#                                CCDC 
#
#######################################################################
#
# If this CIF has been generated from an entry in the Cambridge 
# Structural Database, then it will include bibliographic, chemical, 
# crystal, experimental, refinement or atomic coordinate data resulting 
# from the CCDC's data processing and validation procedures.
#
#######################################################################

data_QIHKEA
_chemical_formula_moiety         'C27 H23 N3 O5 S1'
_chemical_name_systematic        
7-benzyl-3-((4-nitrophenyl)sulfonyl)-2,3,6a,7-tetrahydro-1H-pyrrolo[2,3-d]carbazol-5(6H)-one
_symmetry_cell_setting           triclinic
_symmetry_space_group_name_H-M   'P -1'
_symmetry_Int_Tables_number      2
_space_group_name_Hall           '-P 1'
loop_
_symmetry_equiv_pos_site_id
_symmetry_equiv_pos_as_xyz
1 x,y,z
2 -x,-y,-z
_cell_length_a                   13.0883(4)
_cell_length_b                   14.5790(4)
_cell_length_c                   14.8803(4)
_cell_angle_alpha                86.377(2)
_cell_angle_beta                 81.233(2)
_cell_angle_gamma                89.278(2)
_cell_volume                     2800.58
_cell_formula_units_Z            4
loop_
_atom_site_label
_atom_site_type_symbol
_atom_site_fract_x
_atom_site_fract_y
_atom_site_fract_z
S1 S 0.95474(5) 0.76021(4) 0.29786(4)
N1 N 0.93149(14) 0.73354(13) 0.40816(12)
C1 C 1.06896(17) 0.62072(14) 0.42768(14)
H1 H 1.087330 0.615124 0.365384
N2 N 0.98439(15) 0.66722(13) 0.70766(12)
C2 C 0.99455(16) 0.67972(14) 0.45828(13)
O1 O 0.99288(16) 0.68053(12) 0.25387(11)
C3 C 1.08773(17) 0.57251(15) 0.59217(14)
H2 H 1.140974 0.605515 0.615488
H3 H 1.085392 0.510756 0.620775
C4 C 0.96334(16) 0.69892(14) 0.55636(14)
O2 O 0.86434(14) 0.80630(13) 0.27656(13)
C5 C 1.02735(16) 0.77349(14) 0.58845(15)
C6 C 1.05491(18) 0.84197(16) 0.28531(14)
C7 C 0.98352(17) 0.61925(15) 0.62325(14)
H4 H 0.927051 0.574570 0.631094
O3 O 1.19099(15) 0.51360(13) 0.46364(12)
C8 C 1.12086(17) 0.56565(15) 0.49134(15)
O4 O 1.37602(16) 1.01733(15) 0.24715(14)
C9 C 1.03562(17) 0.75023(15) 0.67937(15)
C10 C 1.07566(18) 0.85027(16) 0.54392(17)
H5 H 1.070182 0.865898 0.483272
N3 N 1.28613(19) 1.04206(17) 0.26200(14)
C11 C 1.20465(19) 0.97143(17) 0.27153(15)
C12 C 1.1036(2) 0.99855(17) 0.28828(19)
H6 H 1.086462 1.060114 0.294944
C13 C 1.1574(2) 0.81546(17) 0.26790(16)
H7 H 1.174903 0.754051 0.260798
C14 C 1.1400(2) 0.88114(18) 0.6813(2)
H8 H 1.178652 0.918129 0.712108
C15 C 0.84942(17) 0.72724(17) 0.55901(16)
H9 H 0.805080 0.673744 0.564402
H10 H 0.826834 0.765369 0.609465
O5 O 1.25957(18) 1.12186(15) 0.26901(17)
C16 C 1.09124(18) 0.80435(17) 0.72755(18)
H11 H 1.095742 0.789807 0.788585
C17 C 1.2335(2) 0.88168(18) 0.26118(17)
H12 H 1.303046 0.865467 0.249836
C18 C 0.84883(19) 0.78075(18) 0.46854(17)
H13 H 0.782462 0.776407 0.447695
H14 H 0.865292 0.844956 0.472254
C19 C 1.0278(2) 0.93315(17) 0.29509(18)
H15 H 0.958487 0.950109 0.306223
C20 C 1.0079(2) 0.61452(19) 0.78843(15)
H16 H 1.082322 0.611884 0.786453
H17 H 0.983322 0.552119 0.787806
C21 C 1.13323(19) 0.90425(18) 0.5921(2)
H18 H 1.167104 0.956236 0.563243
C22 C 0.9596(2) 0.6549(2) 0.87607(17)
C23 C 0.8794(3) 0.7160(3) 0.8800(2)
H19 H 0.852648 0.735303 0.827553
C24 C 0.9982(4) 0.6296(3) 0.9549(2)
H20 H 1.053438 0.588672 0.952487
C25 C 0.9585(5) 0.6623(4) 1.0356(3)
H21 H 0.986840 0.643745 1.087456
C26 C 0.8379(3) 0.7492(4) 0.9644(3)
H22 H 0.782713 0.790341 0.968409
C27 C 0.8797(5) 0.7203(5) 1.0419(3)
H23 H 0.852226 0.741786 1.098120
S2 S 0.60517(5) 0.25999(4) 0.29489(4)
N4 N 0.59374(14) 0.23486(13) 0.40541(12)
O6 O 0.58326(16) 0.17995(13) 0.25248(12)
C28 C 0.51745(16) 0.20070(15) 0.55547(14)
C29 C 0.51573(16) 0.18190(14) 0.45779(14)
O7 O 0.70152(13) 0.30624(14) 0.27103(13)
C30 C 0.44279(16) 0.27531(15) 0.59164(15)
C31 C 0.47928(18) 0.12004(16) 0.62283(15)
H24 H 0.534483 0.074750 0.627517
C32 C 0.45060(17) 0.12403(15) 0.42979(16)
H25 H 0.450632 0.118882 0.367805
C33 C 0.40510(18) 0.35258(16) 0.55032(17)
H26 H 0.426432 0.368046 0.488784
O8 O 0.20009(16) 0.52015(17) 0.23597(15)
N5 N 0.28166(19) 0.54341(19) 0.25679(15)
O9 O 0.31875(16) 0.01843(15) 0.46969(14)
N6 N 0.45364(16) 0.16735(14) 0.70774(12)
C34 C 0.4526(2) 0.49741(18) 0.29021(19)
H27 H 0.465096 0.558390 0.299857
C35 C 0.38373(18) 0.07511(16) 0.59540(16)
H28 H 0.378052 0.013142 0.623485
H29 H 0.323065 0.108772 0.621343
C36 C 0.41034(18) 0.25151(17) 0.68381(16)
C37 C 0.35972(18) 0.47165(17) 0.26845(16)
C38 C 0.38039(18) 0.06963(16) 0.49517(17)
C39 C 0.3376(2) 0.38270(18) 0.25502(17)
H30 H 0.273364 0.367265 0.240955
C40 C 0.3054(2) 0.38494(19) 0.6936(2)
H31 H 0.259118 0.422905 0.727690
C41 C 0.63113(17) 0.22849(18) 0.55373(16)
H32 H 0.638054 0.266710 0.603499
H33 H 0.675036 0.174742 0.557672
C42 C 0.65800(19) 0.28160(18) 0.46266(17)
H34 H 0.639391 0.345971 0.466826
H35 H 0.731041 0.276611 0.439197
O10 O 0.30251(19) 0.62221(16) 0.26865(18)
C43 C 0.3431(2) 0.30764(19) 0.73631(18)
H36 H 0.323825 0.293852 0.798413
C44 C 0.3342(2) 0.40743(18) 0.6024(2)
H37 H 0.306426 0.459273 0.575331
C45 C 0.5267(2) 0.43143(18) 0.29747(19)
H38 H 0.590656 0.447458 0.311639
C46 C 0.4108(3) 0.1152(2) 0.79086(19)
H39 H 0.427245 0.050675 0.784355
H40 H 0.336175 0.121563 0.800043
C47 C 0.50653(17) 0.34124(16) 0.28380(14)
C48 C 0.4570(10) 0.1275(10) 1.0411(8)
H41 H 0.435183 0.100507 1.099043
C49 C 0.4122(2) 0.31615(18) 0.26271(17)
H42 H 0.399010 0.255116 0.253785
C50 C 0.4160(5) 0.0988(5) 0.9567(3)
H43 H 0.368671 0.051215 0.959965
C51 C 0.5244(4) 0.2158(4) 0.8690(3)
H44 H 0.547126 0.245551 0.812448
C52 C 0.5648(5) 0.2430(5) 0.9455(3)
H45 H 0.613209 0.289388 0.944430
C53 C 0.4523(4) 0.1467(3) 0.8747(2)
C54 C 0.5203(10) 0.1882(10) 1.0263(8)
H46 H 0.546207 0.203221 1.078347
loop_
_geom_bond_atom_site_label_1
_geom_bond_atom_site_label_2
_geom_bond_site_symmetry_1
_geom_bond_site_symmetry_2
S1 N1 1_555 1_555
N1 C2 1_555 1_555
C1 H1 1_555 1_555
N2 C7 1_555 1_555
C2 C1 1_555 1_555
O1 S1 1_555 1_555
C3 H2 1_555 1_555
H3 C3 1_555 1_555
C4 C2 1_555 1_555
O2 S1 1_555 1_555
C5 C4 1_555 1_555
C6 S1 1_555 1_555
C7 C3 1_555 1_555
H4 C7 1_555 1_555
O3 C8 1_555 1_555
C8 C1 1_555 1_555
O4 N3 1_555 1_555
C9 N2 1_555 1_555
C10 C5 1_555 1_555
H5 C10 1_555 1_555
N3 C11 1_555 1_555
C11 C12 1_555 1_555
C12 H6 1_555 1_555
C13 C6 1_555 1_555
H7 C13 1_555 1_555
C14 H8 1_555 1_555
C15 C4 1_555 1_555
H9 C15 1_555 1_555
H10 C15 1_555 1_555
O5 N3 1_555 1_555
C16 C9 1_555 1_555
H11 C16 1_555 1_555
C17 C11 1_555 1_555
H12 C17 1_555 1_555
C18 N1 1_555 1_555
H13 C18 1_555 1_555
H14 C18 1_555 1_555
C19 C6 1_555 1_555
H15 C19 1_555 1_555
C20 N2 1_555 1_555
H16 C20 1_555 1_555
H17 C20 1_555 1_555
C21 C10 1_555 1_555
H18 C21 1_555 1_555
C22 C20 1_555 1_555
C23 C22 1_555 1_555
H19 C23 1_555 1_555
C24 C22 1_555 1_555
H20 C24 1_555 1_555
C25 C24 1_555 1_555
H21 C25 1_555 1_555
C26 C23 1_555 1_555
H22 C26 1_555 1_555
C27 C25 1_555 1_555
H23 C27 1_555 1_555
S2 N4 1_555 1_555
N4 C29 1_555 1_555
O6 S2 1_555 1_555
C28 C29 1_555 1_555
C29 C32 1_555 1_555
O7 S2 1_555 1_555
C30 C28 1_555 1_555
C31 C28 1_555 1_555
H24 C31 1_555 1_555
C32 H25 1_555 1_555
C33 C30 1_555 1_555
H26 C33 1_555 1_555
O8 N5 1_555 1_555
N5 C37 1_555 1_555
O9 C38 1_555 1_555
N6 C31 1_555 1_555
C34 H27 1_555 1_555
C35 C31 1_555 1_555
H28 C35 1_555 1_555
H29 C35 1_555 1_555
C36 C30 1_555 1_555
C37 C34 1_555 1_555
C38 C32 1_555 1_555
C39 C37 1_555 1_555
H30 C39 1_555 1_555
C40 H31 1_555 1_555
C41 C28 1_555 1_555
H32 C41 1_555 1_555
H33 C41 1_555 1_555
C42 N4 1_555 1_555
H34 C42 1_555 1_555
H35 C42 1_555 1_555
O10 N5 1_555 1_555
C43 C36 1_555 1_555
H36 C43 1_555 1_555
C44 C33 1_555 1_555
H37 C44 1_555 1_555
C45 C34 1_555 1_555
H38 C45 1_555 1_555
C46 N6 1_555 1_555
H39 C46 1_555 1_555
H40 C46 1_555 1_555
C47 S2 1_555 1_555
C48 H41 1_555 1_555
C49 C39 1_555 1_555
H42 C49 1_555 1_555
C50 C48 1_555 1_555
H43 C50 1_555 1_555
C51 H44 1_555 1_555
C52 C51 1_555 1_555
H45 C52 1_555 1_555
C53 C46 1_555 1_555
C54 C48 1_555 1_555
H46 C54 1_555 1_555
C3 C8 1_555 1_555
C4 C7 1_555 1_555
C5 C9 1_555 1_555
C12 C19 1_555 1_555
C13 C17 1_555 1_555
C14 C16 1_555 1_555
C14 C21 1_555 1_555
C15 C18 1_555 1_555
C26 C27 1_555 1_555
N6 C36 1_555 1_555
C35 C38 1_555 1_555
C40 C43 1_555 1_555
C40 C44 1_555 1_555
C41 C42 1_555 1_555
C45 C47 1_555 1_555
C47 C49 1_555 1_555
C50 C53 1_555 1_555
C51 C53 1_555 1_555
C52 C54 1_555 1_555

#END
