
#######################################################################
#
#                 Cambridge Crystallographic Data Centre
#                                CCDC 
#
#######################################################################
#
# If this CIF has been generated from an entry in the Cambridge 
# Structural Database, then it will include bibliographic, chemical, 
# crystal, experimental, refinement or atomic coordinate data resulting 
# from the CCDC's data processing and validation procedures.
#
#######################################################################

data_QIHRIL
_chemical_formula_moiety         'C64 H86 N4 O4 P2'
_chemical_name_systematic        
'diethyl 5,6-bis(1,3-bis(2,6-diisopropylphenyl)imidazolidin-2-ylidene)-1,4-diphosphabicyclo[2.1.1]hex-2-ene-2,3-dicarboxylate'
_symmetry_cell_setting           monoclinic
_symmetry_space_group_name_H-M   'P 21/c'
_symmetry_Int_Tables_number      14
_space_group_name_Hall           '-P 2ybc'
loop_
_symmetry_equiv_pos_site_id
_symmetry_equiv_pos_as_xyz
1 x,y,z
2 -x,1/2+y,1/2-z
3 -x,-y,-z
4 x,1/2-y,1/2+z
_cell_length_a                   22.5765(4)
_cell_length_b                   12.80292(13)
_cell_length_c                   23.4743(4)
_cell_angle_alpha                90
_cell_angle_beta                 117.880(2)
_cell_angle_gamma                90
_cell_volume                     5997.57
_exptl_crystal_colour            yellow
_exptl_crystal_description       block
_cell_formula_units_Z            4
loop_
_atom_site_label
_atom_site_type_symbol
_atom_site_fract_x
_atom_site_fract_y
_atom_site_fract_z
P1 P 0.24422(2) 0.45311(2) 0.26715(2)
P2 P 0.26239(2) 0.25079(2) 0.25801(2)
N1 N 0.38528(6) 0.32402(9) 0.21760(6)
N2 N 0.08275(5) 0.37607(8) 0.23850(5)
O1 O 0.38079(5) 0.16881(9) 0.41030(5)
O2 O 0.29349(5) 0.54036(8) 0.41170(5)
C1 C 0.12970(6) 0.30941(9) 0.23577(5)
N3 N 0.10269(5) 0.20906(8) 0.22577(5)
N4 N 0.35883(6) 0.49268(9) 0.20996(6)
C2 C 0.19064(6) 0.33504(9) 0.24186(6)
C3 C 0.29306(6) 0.37244(9) 0.23975(6)
C4 C 0.34215(6) 0.39468(9) 0.22371(6)
C5 C 0.11169(6) 0.48581(10) 0.33281(6)
C6 C 0.09736(6) 0.47667(9) 0.26817(6)
C7 C 0.09551(6) 0.56422(10) 0.23119(7)
O3 O 0.29135(7) 0.18940(10) 0.42667(6)
C8 C 0.37047(7) 0.13573(10) 0.21476(7)
C9 C 0.29982(6) 0.29090(10) 0.34646(6)
C10 C 0.11063(7) 0.66147(11) 0.26161(8)
H1 H 0.1101 0.7206 0.2384
C11 C 0.40327(6) 0.22532(10) 0.24951(6)
C12 C 0.11206(6) 0.12794(10) 0.18878(6)
C13 C 0.38860(8) 0.03982(11) 0.24634(8)
H2 H 0.3676 -0.0208 0.2244
O4 O 0.36524(7) 0.41073(11) 0.46342(5)
C14 C 0.32150(7) 0.44731(11) 0.41428(7)
C15 C 0.31619(7) 0.58146(10) 0.18486(7)
C16 C 0.01953(6) 0.32234(11) 0.22232(7)
H3 H -0.0139 0.3372 0.1784
H4 H 0.0021 0.3421 0.2515
C17 C 0.32586(8) 0.66587(11) 0.22667(9)
C18 C 0.45445(7) 0.21987(11) 0.31325(7)
C19 C 0.14590(7) 0.03703(10) 0.22081(7)
C20 C 0.12633(7) 0.58478(12) 0.36075(7)
H5 H 0.1363 0.5926 0.4037
C21 C 0.29325(6) 0.39432(10) 0.35119(6)
C22 C 0.47028(7) 0.12231(13) 0.34268(7)
H6 H 0.5036 0.1169 0.3852
C23 C 0.08099(7) 0.13550(12) 0.12127(7)
C24 C 0.32311(7) 0.21374(11) 0.39969(7)
C25 C 0.43759(8) 0.03388(12) 0.31003(8)
H7 H 0.4484 -0.0304 0.3308
C26 C 0.10980(7) 0.39306(12) 0.37247(7)
H8 H 0.1014 0.3302 0.3459
C27 C 0.31827(8) 0.14462(13) 0.14455(7)
H9 H 0.2985 0.2145 0.1381
C28 C 0.04022(7) 0.20801(11) 0.23053(8)
H10 H 0.0476 0.1817 0.2721
H11 H 0.0064 0.1654 0.1968
C29 C 0.07638(8) 0.55241(12) 0.16048(7)
H12 H 0.0918 0.4835 0.1548
C30 C 0.08322(9) 0.04816(14) 0.08653(8)
H13 H 0.0632 0.0516 0.0418
C31 C 0.14590(8) -0.04803(12) 0.18328(9)
H14 H 0.1676 -0.1094 0.2035
C32 C 0.12630(7) 0.67120(11) 0.32571(8)
H15 H 0.1369 0.7365 0.3454
C33 C 0.17969(8) 0.02998(11) 0.29335(8)
H16 H 0.1884 0.1013 0.3106
C34 C 0.27197(8) 0.58751(12) 0.11895(8)
C35 C 0.41905(9) 0.48826(12) 0.20172(10)
H17 H 0.4579 0.5135 0.2398
H18 H 0.4136 0.5291 0.1648
C36 C 0.49414(9) 0.31639(15) 0.34864(8)
H19 H 0.4741 0.3771 0.3207
C37 C 0.24876(11) 0.76585(14) 0.13465(12)
H20 H 0.2269 0.8286 0.1175
C38 C 0.42557(9) 0.37304(12) 0.19120(9)
H21 H 0.4080 0.3572 0.1457
H22 H 0.4719 0.3505 0.2141
C39 C 0.17567(9) 0.37701(15) 0.43390(8)
H23 H 0.2111 0.3652 0.4229
H24 H 0.1718 0.3177 0.4569
H25 H 0.1856 0.4381 0.4605
C40 C 0.04528(9) 0.23405(13) 0.08634(7)
H26 H 0.0491 0.2846 0.1192
C41 C 0.40767(10) 0.09177(15) 0.46153(8)
H27 H 0.4365 0.0438 0.4539
H28 H 0.3712 0.0519 0.4617
C42 C 0.11429(9) -0.04234(14) 0.11706(9)
H29 H 0.1140 -0.1001 0.0929
C43 C 0.13292(10) -0.02291(15) 0.31540(10)
H30 H 0.0914 0.0147 0.2985
H31 H 0.1537 -0.0231 0.3616
H32 H 0.1244 -0.0935 0.2998
C44 C 0.29076(10) 0.75806(12) 0.19959(11)
H33 H 0.2960 0.8151 0.2261
C45 C 0.37410(10) 0.65831(14) 0.29758(9)
H34 H 0.3805 0.5842 0.3093
C46 C 0.05156(10) 0.40505(16) 0.38840(10)
H35 H 0.0606 0.4621 0.4178
H36 H 0.0467 0.3418 0.4078
H37 H 0.0109 0.4187 0.3495
C47 C 0.10917(10) 0.63375(16) 0.13688(9)
H38 H 0.0908 0.7014 0.1369
H39 H 0.1007 0.6165 0.0939
H40 H 0.1566 0.6346 0.1650
C48 C 0.29149(11) 0.70066(16) 0.46332(9)
H41 H 0.3029 0.7384 0.4345
H42 H 0.3095 0.7362 0.5040
H43 H 0.2436 0.6965 0.4452
C49 C 0.26048(10) 0.49629(15) 0.07381(9)
H44 H 0.2845 0.4358 0.1000
C50 C 0.23858(9) 0.68184(15) 0.09453(10)
H45 H 0.2092 0.6879 0.0508
C51 C 0.31961(10) 0.59488(15) 0.47290(8)
H46 H 0.3681 0.5989 0.4922
H47 H 0.3081 0.5566 0.5020
C52 C 0.44246(12) 0.7040(2) 0.31189(12)
H48 H 0.4586 0.6700 0.2854
H49 H 0.4737 0.6930 0.3565
H50 H 0.4379 0.7775 0.3028
C53 C 0.24660(9) -0.02789(14) 0.32131(10)
H51 H 0.2389 -0.0998 0.3083
H52 H 0.2681 -0.0237 0.3675
H53 H 0.2749 0.0035 0.3057
C54 C 0.00006(9) 0.55535(18) 0.11934(9)
H54 H -0.0199 0.5033 0.1345
H55 H -0.0115 0.5414 0.0752
H56 H -0.0163 0.6231 0.1226
C55 C 0.35138(11) 0.1345(2) 0.10094(9)
H57 H 0.3864 0.1855 0.1132
H58 H 0.3185 0.1458 0.0569
H59 H 0.3700 0.0658 0.1053
C56 C 0.49291(11) 0.3362(2) 0.41236(11)
H60 H 0.4473 0.3402 0.4047
H61 H 0.5154 0.4008 0.4307
H62 H 0.5153 0.2801 0.4417
C57 C 0.26175(10) 0.06539(19) 0.12538(10)
H63 H 0.2785 -0.0034 0.1250
H64 H 0.2265 0.0820 0.0832
H65 H 0.2446 0.0676 0.1559
C58 C -0.02875(12) 0.2156(2) 0.04299(14)
H66 H -0.0345 0.1691 0.0087
H67 H -0.0504 0.2809 0.0252
H68 H -0.0484 0.1851 0.0676
C59 C 0.28730(17) 0.5173(2) 0.02640(13)
H69 H 0.2639 0.5757 -0.0004
H70 H 0.2806 0.4567 0.0000
H71 H 0.3343 0.5330 0.0497
C60 C 0.44678(13) 0.1439(2) 0.52541(10)
H72 H 0.4835 0.1819 0.5255
H73 H 0.4638 0.0921 0.5588
H74 H 0.4182 0.1913 0.5329
C61 C 0.56678(10) 0.3063(2) 0.36042(11)
H75 H 0.5880 0.2485 0.3888
H76 H 0.5908 0.3694 0.3797
H77 H 0.5670 0.2948 0.3201
C62 C 0.34869(13) 0.71246(19) 0.34004(12)
H78 H 0.3471 0.7865 0.3331
H79 H 0.3784 0.6975 0.3845
H80 H 0.3046 0.6874 0.3292
C63 C 0.07969(18) 0.2814(2) 0.05041(15)
H81 H 0.1264 0.2909 0.0796
H82 H 0.0597 0.3477 0.0328
H83 H 0.0747 0.2355 0.0161
C64 C 0.18673(16) 0.4681(3) 0.03706(18)
H84 H 0.1702 0.4520 0.0670
H85 H 0.1812 0.4084 0.0103
H86 H 0.1621 0.5260 0.0106
loop_
_geom_bond_atom_site_label_1
_geom_bond_atom_site_label_2
_geom_bond_site_symmetry_1
_geom_bond_site_symmetry_2
P1 C2 1_555 1_555
P2 C2 1_555 1_555
N1 C4 1_555 1_555
N2 C1 1_555 1_555
O1 C24 1_555 1_555
O2 C14 1_555 1_555
C1 N3 1_555 1_555
N3 C12 1_555 1_555
N4 C4 1_555 1_555
C2 C1 1_555 1_555
C3 P1 1_555 1_555
C4 C3 1_555 1_555
C5 C6 1_555 1_555
C6 N2 1_555 1_555
C7 C6 1_555 1_555
O3 C24 1_555 1_555
C8 C11 1_555 1_555
C9 P2 1_555 1_555
C10 C7 1_555 1_555
H1 C10 1_555 1_555
C11 N1 1_555 1_555
C12 C19 1_555 1_555
C13 C8 1_555 1_555
H2 C13 1_555 1_555
O4 C14 1_555 1_555
C14 C21 1_555 1_555
C15 N4 1_555 1_555
C16 N2 1_555 1_555
H3 C16 1_555 1_555
H4 C16 1_555 1_555
C17 C15 1_555 1_555
C18 C11 1_555 1_555
C19 C31 1_555 1_555
C20 C5 1_555 1_555
H5 C20 1_555 1_555
C21 P1 1_555 1_555
C22 C18 1_555 1_555
H6 C22 1_555 1_555
C23 C12 1_555 1_555
C24 C9 1_555 1_555
C25 C13 1_555 1_555
H7 C25 1_555 1_555
C26 C5 1_555 1_555
H8 C26 1_555 1_555
C27 C8 1_555 1_555
H9 C27 1_555 1_555
C28 N3 1_555 1_555
H10 C28 1_555 1_555
H11 C28 1_555 1_555
C29 C7 1_555 1_555
H12 C29 1_555 1_555
C30 C23 1_555 1_555
H13 C30 1_555 1_555
C31 H14 1_555 1_555
C32 C10 1_555 1_555
H15 C32 1_555 1_555
C33 C19 1_555 1_555
H16 C33 1_555 1_555
C34 C15 1_555 1_555
C35 N4 1_555 1_555
H17 C35 1_555 1_555
H18 C35 1_555 1_555
C36 C18 1_555 1_555
H19 C36 1_555 1_555
C37 H20 1_555 1_555
C38 N1 1_555 1_555
H21 C38 1_555 1_555
H22 C38 1_555 1_555
C39 C26 1_555 1_555
H23 C39 1_555 1_555
H24 C39 1_555 1_555
H25 C39 1_555 1_555
C40 C23 1_555 1_555
H26 C40 1_555 1_555
C41 O1 1_555 1_555
H27 C41 1_555 1_555
H28 C41 1_555 1_555
C42 C30 1_555 1_555
H29 C42 1_555 1_555
C43 C33 1_555 1_555
H30 C43 1_555 1_555
H31 C43 1_555 1_555
H32 C43 1_555 1_555
C44 C17 1_555 1_555
H33 C44 1_555 1_555
C45 C17 1_555 1_555
H34 C45 1_555 1_555
C46 C26 1_555 1_555
H35 C46 1_555 1_555
H36 C46 1_555 1_555
H37 C46 1_555 1_555
C47 C29 1_555 1_555
H38 C47 1_555 1_555
H39 C47 1_555 1_555
H40 C47 1_555 1_555
C48 H41 1_555 1_555
H42 C48 1_555 1_555
H43 C48 1_555 1_555
C49 C34 1_555 1_555
H44 C49 1_555 1_555
C50 C34 1_555 1_555
H45 C50 1_555 1_555
C51 O2 1_555 1_555
H46 C51 1_555 1_555
H47 C51 1_555 1_555
C52 C45 1_555 1_555
H48 C52 1_555 1_555
H49 C52 1_555 1_555
H50 C52 1_555 1_555
C53 C33 1_555 1_555
H51 C53 1_555 1_555
H52 C53 1_555 1_555
H53 C53 1_555 1_555
C54 C29 1_555 1_555
H54 C54 1_555 1_555
H55 C54 1_555 1_555
H56 C54 1_555 1_555
C55 C27 1_555 1_555
H57 C55 1_555 1_555
H58 C55 1_555 1_555
H59 C55 1_555 1_555
C56 C36 1_555 1_555
H60 C56 1_555 1_555
H61 C56 1_555 1_555
H62 C56 1_555 1_555
C57 C27 1_555 1_555
H63 C57 1_555 1_555
H64 C57 1_555 1_555
H65 C57 1_555 1_555
C58 C40 1_555 1_555
H66 C58 1_555 1_555
H67 C58 1_555 1_555
H68 C58 1_555 1_555
C59 C49 1_555 1_555
H69 C59 1_555 1_555
H70 C59 1_555 1_555
H71 C59 1_555 1_555
C60 C41 1_555 1_555
H72 C60 1_555 1_555
H73 C60 1_555 1_555
H74 C60 1_555 1_555
C61 C36 1_555 1_555
H75 C61 1_555 1_555
H76 C61 1_555 1_555
H77 C61 1_555 1_555
C62 C45 1_555 1_555
H78 C62 1_555 1_555
H79 C62 1_555 1_555
H80 C62 1_555 1_555
C63 C40 1_555 1_555
H81 C63 1_555 1_555
H82 C63 1_555 1_555
H83 C63 1_555 1_555
C64 C49 1_555 1_555
H84 C64 1_555 1_555
H85 C64 1_555 1_555
H86 C64 1_555 1_555
P2 C3 1_555 1_555
C9 C21 1_555 1_555
C16 C28 1_555 1_555
C20 C32 1_555 1_555
C22 C25 1_555 1_555
C31 C42 1_555 1_555
C35 C38 1_555 1_555
C37 C44 1_555 1_555
C37 C50 1_555 1_555
C48 C51 1_555 1_555

#END
