
#######################################################################
#
#                 Cambridge Crystallographic Data Centre
#                                CCDC 
#
#######################################################################
#
# If this CIF has been generated from an entry in the Cambridge 
# Structural Database, then it will include bibliographic, chemical, 
# crystal, experimental, refinement or atomic coordinate data resulting 
# from the CCDC's data processing and validation procedures.
#
#######################################################################

data_QIHRUW
_chemical_formula_moiety         'C24 H20 Br4 O4'
_chemical_name_systematic        
5-(Dibromomethyl)-2-(6-(dibromomethyl)-1-ethyl-1-hydroxy-3-oxo-1,3-dihydro-2H-inden-2-ylidene)-3-ethyl-3-hydroxyindan-1-one
_symmetry_cell_setting           triclinic
_symmetry_space_group_name_H-M   'P -1'
_symmetry_Int_Tables_number      2
_space_group_name_Hall           '-P 1'
loop_
_symmetry_equiv_pos_site_id
_symmetry_equiv_pos_as_xyz
1 x,y,z
2 -x,-y,-z
_cell_length_a                   8.9793(7)
_cell_length_b                   9.0466(7)
_cell_length_c                   9.2896(8)
_cell_angle_alpha                64.949(9)
_cell_angle_beta                 63.370(8)
_cell_angle_gamma                66.781(9)
_cell_volume                     591.312
_exptl_crystal_colour            colorless
_exptl_crystal_description       prism
_cell_formula_units_Z            1
loop_
_atom_site_label
_atom_site_type_symbol
_atom_site_fract_x
_atom_site_fract_y
_atom_site_fract_z
Br1 Br 1.12855(13) -0.24091(13) 0.20119(14)
Br2 Br 1.31973(13) 0.04153(13) -0.08472(14)
O1 O 0.5484(8) 0.1760(8) 0.5068(9)
H1 H 0.452(7) 0.187(15) 0.583(10)
O2 O 0.7716(7) 0.5982(8) 0.4488(8)
C1 C 0.5792(11) 0.4570(12) 0.4589(11)
C2 C 0.6205(11) 0.3136(11) 0.3883(12)
C3 C 0.8160(10) 0.2449(11) 0.3440(11)
C4 C 0.8861(12) 0.3394(12) 0.3734(12)
C5 C 0.7498(11) 0.4818(11) 0.4275(12)
C6 C 0.5694(12) 0.3816(12) 0.2269(12)
H2 H 0.6051 0.2874 0.1810
H3 H 0.4426 0.4231 0.2593
C7 C 0.6507(16) 0.5240(14) 0.0884(14)
H4 H 0.6060 0.6226 0.1285
H5 H 0.6222 0.5542 -0.0124
H6 H 0.7760 0.4864 0.0604
C8 C 0.9211(12) 0.1109(13) 0.2795(14)
H7 H 0.8742 0.0477 0.2584
C9 C 1.0991(11) 0.0712(12) 0.2462(11)
C10 C 1.1655(12) 0.1623(12) 0.2839(12)
H8 H 1.2848 0.1279 0.2689
C11 C 1.0664(14) 0.2964(13) 0.3405(16)
H9 H 1.1153 0.3606 0.3580
C12 C 1.2249(13) -0.0661(13) 0.1659(13)
H10 H 1.3221 -0.1197 0.2115
Br1A Br -0.12855(13) 1.24091(13) 0.79881(14)
Br2A Br -0.31973(13) 0.95847(13) 1.08472(14)
O1A O 0.4516(8) 0.8240(8) 0.4932(9)
H1A H 0.548(7) 0.813(15) 0.417(10)
O2A O 0.2284(7) 0.4018(8) 0.5512(8)
C1A C 0.4208(11) 0.5430(12) 0.5411(11)
C2A C 0.3795(11) 0.6864(11) 0.6117(12)
C3A C 0.1840(10) 0.7551(11) 0.6560(11)
C4A C 0.1139(12) 0.6606(12) 0.6266(12)
C5A C 0.2502(11) 0.5182(11) 0.5725(12)
C6A C 0.4306(12) 0.6184(12) 0.7731(12)
H2A H 0.3949 0.7126 0.8190
H3A H 0.5574 0.5769 0.7407
C7A C 0.3493(16) 0.4760(14) 0.9116(14)
H4A H 0.3940 0.3774 0.8715
H5A H 0.3778 0.4458 1.0124
H6A H 0.2240 0.5136 0.9396
C8A C 0.0789(12) 0.8891(13) 0.7205(14)
H7A H 0.1258 0.9523 0.7416
C9A C -0.0991(11) 0.9288(12) 0.7538(11)
C10A C -0.1655(12) 0.8377(12) 0.7161(12)
H8A H -0.2848 0.8721 0.7311
C11A C -0.0664(14) 0.7036(13) 0.6595(16)
H9A H -0.1153 0.6394 0.6420
C12A C -0.2249(13) 1.0661(13) 0.8341(13)
H10A H -0.3221 1.1197 0.7885
loop_
_geom_bond_atom_site_label_1
_geom_bond_atom_site_label_2
_geom_bond_site_symmetry_1
_geom_bond_site_symmetry_2
Br1 C12 1_555 1_555
Br2 C12 1_555 1_555
O1 H1 1_555 1_555
O2 C5 1_555 1_555
C1 C2 1_555 1_555
C2 O1 1_555 1_555
C3 C2 1_555 1_555
C4 C3 1_555 1_555
C5 C1 1_555 1_555
C6 C2 1_555 1_555
H2 C6 1_555 1_555
H3 C6 1_555 1_555
C7 C6 1_555 1_555
H4 C7 1_555 1_555
H5 C7 1_555 1_555
H6 C7 1_555 1_555
C8 C3 1_555 1_555
H7 C8 1_555 1_555
C9 C8 1_555 1_555
C10 C9 1_555 1_555
H8 C10 1_555 1_555
C11 C4 1_555 1_555
H9 C11 1_555 1_555
C12 C9 1_555 1_555
H10 C12 1_555 1_555
Br1A C12A 1_555 1_555
Br2A C12A 1_555 1_555
O1A H1A 1_555 1_555
O2A C5A 1_555 1_555
C1A C1 1_555 1_555
C2A O1A 1_555 1_555
C3A C2A 1_555 1_555
C4A C3A 1_555 1_555
C5A C1A 1_555 1_555
C6A C2A 1_555 1_555
H2A C6A 1_555 1_555
H3A C6A 1_555 1_555
C7A C6A 1_555 1_555
H4A C7A 1_555 1_555
H5A C7A 1_555 1_555
H6A C7A 1_555 1_555
C8A C3A 1_555 1_555
H7A C8A 1_555 1_555
C9A C8A 1_555 1_555
C10A C9A 1_555 1_555
H8A C10A 1_555 1_555
C11A C4A 1_555 1_555
H9A C11A 1_555 1_555
C12A C9A 1_555 1_555
H10A C12A 1_555 1_555
C4 C5 1_555 1_555
C10 C11 1_555 1_555
C1A C2A 1_555 1_555
C4A C5A 1_555 1_555
C10A C11A 1_555 1_555

#END
