
#######################################################################
#
#                 Cambridge Crystallographic Data Centre
#                                CCDC 
#
#######################################################################
#
# If this CIF has been generated from an entry in the Cambridge 
# Structural Database, then it will include bibliographic, chemical, 
# crystal, experimental, refinement or atomic coordinate data resulting 
# from the CCDC's data processing and validation procedures.
#
#######################################################################

data_QIHXIR
_chemical_formula_moiety         'C48 H54,C1 H1 Cl3'
_chemical_name_systematic        
"5,5,11,11-tetramethyl-2,14-bis(2,3,5,6-tetramethylphenyl)-5,6,7,9,10,11-hexahydrodibenzo[c,c']benzo[1,6-a:3,4-a']di[7]annulene chloroform solvate"
_symmetry_cell_setting           monoclinic
_symmetry_space_group_name_H-M   'P 21/m'
_symmetry_Int_Tables_number      11
_space_group_name_Hall           '-P 2yb'
loop_
_symmetry_equiv_pos_site_id
_symmetry_equiv_pos_as_xyz
1 x,y,z
2 -x,1/2+y,-z
3 -x,-y,-z
4 x,1/2-y,z
_cell_length_a                   6.44880(13)
_cell_length_b                   24.9679(5)
_cell_length_c                   12.7570(3)
_cell_angle_alpha                90
_cell_angle_beta                 98.517(2)
_cell_angle_gamma                90
_cell_volume                     2031.39
_exptl_crystal_colour            colorless
_exptl_crystal_description       needle
_cell_formula_units_Z            2
loop_
_atom_site_label
_atom_site_type_symbol
_atom_site_fract_x
_atom_site_fract_y
_atom_site_fract_z
C1 C 0.1252(5) 0.750000 0.3142(2)
H1 H 0.267984 0.750001 0.346136
C2 C 0.0239(3) 0.70123(8) 0.29162(14)
C3 C -0.1883(3) 0.70112(8) 0.24542(15)
C4 C -0.2895(4) 0.750000 0.2233(2)
H2 H -0.432574 0.750000 0.191899
C5 C -0.2981(3) 0.64854(8) 0.22201(16)
H3 H -0.450894 0.655087 0.205427
H4 H -0.273470 0.625808 0.286233
C6 C -0.2259(3) 0.61820(8) 0.12961(16)
H5 H -0.274407 0.638271 0.063589
H6 H -0.297133 0.582970 0.123406
C7 C 0.0143(3) 0.60845(8) 0.13617(16)
C8 C 0.1260(3) 0.60531(8) 0.25185(15)
C9 C 0.1344(3) 0.64996(8) 0.32030(15)
C10 C 0.1149(3) 0.65294(9) 0.07641(16)
H7 H 0.098489 0.687524 0.110563
H8 H 0.045806 0.654258 0.002676
H9 H 0.264436 0.645284 0.078050
C11 C 0.0410(4) 0.55626(10) 0.07569(17)
H10 H 0.190298 0.549991 0.073505
H11 H -0.033758 0.559233 0.003227
H12 H -0.016557 0.526282 0.111771
C12 C 0.2305(3) 0.55900(8) 0.29137(16)
H13 H 0.226393 0.528415 0.246811
C13 C 0.3407(4) 0.55587(11) 0.3938(2)
H14 H 0.408447 0.523401 0.417814
C14 C 0.3522(3) 0.60006(8) 0.46135(15)
C15 C 0.2485(3) 0.64631(8) 0.42261(15)
H15 H 0.255115 0.676866 0.467369
C16 C 0.4690(3) 0.59868(8) 0.57227(15)
C17 C 0.3871(3) 0.56872(8) 0.65037(16)
C18 C 0.4961(4) 0.56928(8) 0.75423(17)
C19 C 0.6809(3) 0.59789(9) 0.77654(16)
H16 H 0.753766 0.597521 0.846951
C20 C 0.7645(3) 0.62722(8) 0.69996(16)
C21 C 0.6551(3) 0.62829(8) 0.59637(15)
C22 C 0.1865(4) 0.53708(10) 0.62518(19)
H17 H 0.111989 0.548238 0.556068
H18 H 0.097772 0.543635 0.679926
H19 H 0.219500 0.498809 0.623187
C23 C 0.4132(4) 0.53917(11) 0.84190(19)
H20 H 0.276892 0.553994 0.852097
H21 H 0.511893 0.542739 0.907755
H22 H 0.396956 0.501226 0.822771
C24 C 0.9665(4) 0.65746(10) 0.72859(18)
H23 H 0.940102 0.695924 0.718893
H24 H 1.067246 0.645827 0.682773
H25 H 1.023921 0.650345 0.802776
C25 C 0.7430(5) 0.66112(14) 0.51394(17)
H26 H 0.878120 0.646113 0.502198
H27 H 0.762889 0.698180 0.538670
H28 H 0.645177 0.660376 0.447400
C2C C 0.0239(3) 0.79877(8) 0.29162(14)
C3C C -0.1883(3) 0.79888(8) 0.24542(15)
C5C C -0.2981(3) 0.85146(8) 0.22201(16)
H3C H -0.450894 0.844913 0.205427
H4C H -0.273470 0.874192 0.286233
C6C C -0.2259(3) 0.88180(8) 0.12961(16)
H5C H -0.274407 0.861729 0.063589
H6C H -0.297133 0.917030 0.123406
C7C C 0.0143(3) 0.89155(8) 0.13617(16)
C8C C 0.1260(3) 0.89469(8) 0.25185(15)
C9C C 0.1344(3) 0.85004(8) 0.32030(15)
C10C C 0.1149(3) 0.84706(9) 0.07641(16)
H7C H 0.098489 0.812476 0.110563
H8C H 0.045806 0.845742 0.002676
H9C H 0.264436 0.854716 0.078050
C11C C 0.0410(4) 0.94374(10) 0.07569(17)
H10C H 0.190298 0.950009 0.073505
H11C H -0.033758 0.940767 0.003227
H12C H -0.016557 0.973718 0.111771
C12C C 0.2305(3) 0.94100(8) 0.29137(16)
H13C H 0.226393 0.971585 0.246811
C13C C 0.3407(4) 0.94413(11) 0.3938(2)
H14C H 0.408447 0.976599 0.417814
C14C C 0.3522(3) 0.89994(8) 0.46135(15)
C15C C 0.2485(3) 0.85369(8) 0.42261(15)
H15C H 0.255115 0.823134 0.467369
C16C C 0.4690(3) 0.90132(8) 0.57227(15)
C17C C 0.3871(3) 0.93128(8) 0.65037(16)
C18C C 0.4961(4) 0.93072(8) 0.75423(17)
C19C C 0.6809(3) 0.90211(9) 0.77654(16)
H16C H 0.753766 0.902479 0.846951
C20C C 0.7645(3) 0.87278(8) 0.69996(16)
C21C C 0.6551(3) 0.87171(8) 0.59637(15)
C22C C 0.1865(4) 0.96292(10) 0.62518(19)
H17C H 0.111989 0.951762 0.556068
H18C H 0.097772 0.956365 0.679926
H19C H 0.219500 1.001191 0.623187
C23C C 0.4132(4) 0.96083(11) 0.84190(19)
H20C H 0.276892 0.946006 0.852097
H21C H 0.511893 0.957261 0.907755
H22C H 0.396956 0.998774 0.822771
C24C C 0.9665(4) 0.84254(10) 0.72859(18)
H23C H 0.940102 0.804076 0.718893
H24C H 1.067246 0.854173 0.682773
H25C H 1.023921 0.849655 0.802776
C25C C 0.7430(5) 0.83888(14) 0.51394(17)
H26C H 0.878120 0.853887 0.502198
H27C H 0.762889 0.801820 0.538670
H28C H 0.645177 0.839624 0.447400
C26? C 0.361(5) 0.750000 0.683(4)
H29? H 0.231049 0.750000 0.636972
C27? C 0.452(3) 0.7003(5) 0.715(2)
C28? C 0.665(3) 0.7007(5) 0.760(2)
C29? C 0.765(4) 0.750000 0.779(4)
H30? H 0.909677 0.750000 0.808119
C30? C 0.780(3) 0.6485(6) 0.779(2)
H31? H 0.931656 0.655751 0.796788
H32? H 0.757134 0.626928 0.713578
C31? C 0.709(3) 0.6159(11) 0.869(2)
H33? H 0.759679 0.634264 0.937090
H34? H 0.778847 0.580532 0.871619
C32? C 0.469(3) 0.6064(8) 0.8636(12)
C33? C 0.352(4) 0.6039(7) 0.7487(13)
C34? C 0.343(4) 0.6495(6) 0.6821(15)
C35? C 0.370(5) 0.6503(11) 0.926(2)
H35? H 0.423603 0.647042 1.001472
H36? H 0.216868 0.646022 0.914925
H37? H 0.405568 0.685653 0.900396
C36? C 0.442(5) 0.5541(10) 0.924(2)
H38? H 0.480632 0.523523 0.882851
H39? H 0.295623 0.550439 0.935385
H40? H 0.532956 0.554969 0.992905
C37? C 0.239(6) 0.5587(8) 0.7095(17)
H41? H 0.242141 0.527884 0.753311
C38? C 0.122(6) 0.5572(10) 0.6085(19)
H42? H 0.044491 0.525942 0.585475
C39? C 0.118(4) 0.6014(8) 0.5408(13)
C40? C 0.224(5) 0.6471(8) 0.5808(16)
H43? H 0.215012 0.678198 0.537580
C41? C 0.000(3) 0.5999(10) 0.4299(12)
C42? C 0.091(4) 0.5722(14) 0.3518(15)
C43? C -0.020(4) 0.5700(14) 0.2485(14)
C44? C -0.193(5) 0.6026(15) 0.2228(15)
H44? H -0.250319 0.607136 0.150248
C45? C -0.288(4) 0.6291(14) 0.2994(15)
C46? C -0.183(4) 0.6303(13) 0.4040(14)
C47? C 0.307(6) 0.548(3) 0.375(4)
H45? H 0.395945 0.570547 0.426416
H46? H 0.368469 0.545379 0.309807
H47? H 0.296994 0.512052 0.405478
C48? C 0.077(6) 0.5430(18) 0.161(2)
H48? H 0.229662 0.547475 0.174956
H49? H 0.021682 0.559193 0.093054
H50? H 0.042732 0.504720 0.159895
C49? C -0.490(4) 0.6589(17) 0.268(2)
H51? H -0.461435 0.697401 0.266360
H52? H -0.585037 0.651554 0.319292
H53? H -0.554827 0.647058 0.197330
C50? C -0.281(10) 0.660(3) 0.486(3)
H54? H -0.307345 0.635830 0.542907
H55? H -0.414494 0.676231 0.453552
H56? H -0.186368 0.688986 0.516530
Cl1? Cl 0.037(4) 0.750000 0.2839(15)
Cl2? Cl -0.259(2) 0.750000 0.0889(15)
Cl3? Cl 0.181(2) 0.750000 0.0815(14)
C51? C -0.010(4) 0.7280(17) 0.1568(19)
Cl4? Cl 0.44948(16) 0.750000 0.71162(8)
Cl5? Cl 0.73970(14) 0.750000 0.90670(8)
Cl6? Cl 0.29791(13) 0.750000 0.91366(7)
C52? C 0.4895(7) 0.7291(2) 0.8392(4)
H57? H 0.483(9) 0.692(2) 0.824(4)
loop_
_geom_bond_atom_site_label_1
_geom_bond_atom_site_label_2
_geom_bond_site_symmetry_1
_geom_bond_site_symmetry_2
C1 H1 1_555 1_555
C2 C1 1_555 1_555
C3 C2 1_555 1_555
C4 C3 1_555 1_555
H2 C4 1_555 1_555
C5 C3 1_555 1_555
H3 C5 1_555 1_555
H4 C5 1_555 1_555
C6 C5 1_555 1_555
H5 C6 1_555 1_555
H6 C6 1_555 1_555
C7 C6 1_555 1_555
C8 C7 1_555 1_555
C9 C2 1_555 1_555
C10 C7 1_555 1_555
H7 C10 1_555 1_555
H8 C10 1_555 1_555
H9 C10 1_555 1_555
C11 C7 1_555 1_555
H10 C11 1_555 1_555
H11 C11 1_555 1_555
H12 C11 1_555 1_555
C12 C8 1_555 1_555
H13 C12 1_555 1_555
C13 C12 1_555 1_555
H14 C13 1_555 1_555
C14 C13 1_555 1_555
C15 C9 1_555 1_555
H15 C15 1_555 1_555
C16 C14 1_555 1_555
C17 C16 1_555 1_555
C18 C17 1_555 1_555
C19 C18 1_555 1_555
H16 C19 1_555 1_555
C20 C19 1_555 1_555
C21 C16 1_555 1_555
C22 C17 1_555 1_555
H17 C22 1_555 1_555
H18 C22 1_555 1_555
H19 C22 1_555 1_555
C23 C18 1_555 1_555
H20 C23 1_555 1_555
H21 C23 1_555 1_555
H22 C23 1_555 1_555
C24 C20 1_555 1_555
H23 C24 1_555 1_555
H24 C24 1_555 1_555
H25 C24 1_555 1_555
C25 C21 1_555 1_555
H26 C25 1_555 1_555
H27 C25 1_555 1_555
H28 C25 1_555 1_555
C2C C1 1_555 1_555
C3C C4 1_555 1_555
C5C C3C 1_555 1_555
H3C C5C 1_555 1_555
H4C C5C 1_555 1_555
C6C C5C 1_555 1_555
H5C C6C 1_555 1_555
H6C C6C 1_555 1_555
C7C C6C 1_555 1_555
C8C C7C 1_555 1_555
C9C C2C 1_555 1_555
C10C C7C 1_555 1_555
H7C C10C 1_555 1_555
H8C C10C 1_555 1_555
H9C C10C 1_555 1_555
C11C C7C 1_555 1_555
H10C C11C 1_555 1_555
H11C C11C 1_555 1_555
H12C C11C 1_555 1_555
C12C C8C 1_555 1_555
H13C C12C 1_555 1_555
C13C C12C 1_555 1_555
H14C C13C 1_555 1_555
C14C C13C 1_555 1_555
C15C C9C 1_555 1_555
H15C C15C 1_555 1_555
C16C C14C 1_555 1_555
C17C C16C 1_555 1_555
C18C C17C 1_555 1_555
C19C C18C 1_555 1_555
H16C C19C 1_555 1_555
C20C C19C 1_555 1_555
C21C C16C 1_555 1_555
C22C C17C 1_555 1_555
H17C C22C 1_555 1_555
H18C C22C 1_555 1_555
H19C C22C 1_555 1_555
C23C C18C 1_555 1_555
H20C C23C 1_555 1_555
H21C C23C 1_555 1_555
H22C C23C 1_555 1_555
C24C C20C 1_555 1_555
H23C C24C 1_555 1_555
H24C C24C 1_555 1_555
H25C C24C 1_555 1_555
C25C C21C 1_555 1_555
H26C C25C 1_555 1_555
H27C C25C 1_555 1_555
H28C C25C 1_555 1_555
C8 C9 1_555 1_555
C14 C15 1_555 1_555
C20 C21 1_555 1_555
C2C C3C 1_555 1_555
C8C C9C 1_555 1_555
C14C C15C 1_555 1_555
C20C C21C 1_555 1_555

#END
