
#######################################################################
#
#                 Cambridge Crystallographic Data Centre
#                                CCDC 
#
#######################################################################
#
# If this CIF has been generated from an entry in the Cambridge 
# Structural Database, then it will include bibliographic, chemical, 
# crystal, experimental, refinement or atomic coordinate data resulting 
# from the CCDC's data processing and validation procedures.
#
#######################################################################

data_QIHXOX
_chemical_formula_moiety         'C60 H46,C8 Cl2 N2 O2,C1 H2 Cl2'
_chemical_name_systematic        
"5,5,11,11-tetramethyl-2,14-bis(pyren-1-yl)-5,6,7,9,10,11-hexahydrodibenzo[c,c']benzo[1,6-a:3,4-a']di[7]annulene 4,5-dichloro-3,6-dioxocyclohexa-1,4-diene-1,2-dicarbonitrile dichloromethane solvate"
_symmetry_cell_setting           triclinic
_symmetry_space_group_name_H-M   'P -1'
_symmetry_Int_Tables_number      2
_space_group_name_Hall           '-P 1'
loop_
_symmetry_equiv_pos_site_id
_symmetry_equiv_pos_as_xyz
1 x,y,z
2 -x,-y,-z
_cell_length_a                   13.1071(4)
_cell_length_b                   13.8434(4)
_cell_length_c                   16.9161(5)
_cell_angle_alpha                111.1770(10)
_cell_angle_beta                 93.5480(10)
_cell_angle_gamma                110.5820(10)
_cell_volume                     2615.93
_exptl_crystal_colour            black
_exptl_crystal_description       block
_cell_formula_units_Z            2
loop_
_atom_site_label
_atom_site_type_symbol
_atom_site_fract_x
_atom_site_fract_y
_atom_site_fract_z
C1 C 0.70951(15) 0.37727(16) 0.19133(12)
H1 H 0.6816 0.2970 0.1672
C2 C 0.78827(15) 0.43928(16) 0.26971(12)
C3 C 0.82823(16) 0.55721(16) 0.30576(13)
C4 C 0.78668(16) 0.60937(16) 0.26301(13)
H2 H 0.8123 0.6894 0.2884
C5 C 0.70888(16) 0.54774(17) 0.18434(13)
C6 C 0.67078(16) 0.42948(16) 0.14753(13)
C7 C 0.91435(17) 0.62314(16) 0.38946(13)
H3 H 0.8880 0.5922 0.4323
H4 H 0.9229 0.7029 0.4128
C8 C 1.02834(16) 0.61936(16) 0.37850(13)
H5 H 1.0786 0.6599 0.4367
H6 H 1.0592 0.6626 0.3438
C9 C 1.03372(16) 0.50090(16) 0.33517(13)
C10 C 1.02993(17) 0.46846(17) 0.23707(13)
H7 H 1.0304 0.3930 0.2102
H8 H 1.0953 0.5236 0.2293
H9 H 0.9618 0.4683 0.2096
C11 C 1.14927(17) 0.51514(18) 0.37604(15)
H10 H 1.1598 0.4450 0.3470
H11 H 1.1541 0.5320 0.4380
H12 H 1.2074 0.5775 0.3692
C12 C 0.66257(18) 0.60181(18) 0.13705(14)
H13 H 0.6844 0.6822 0.1762
H14 H 0.5801 0.5645 0.1238
C13 C 0.7013(2) 0.59598(19) 0.05181(15)
H15 H 0.7769 0.6566 0.0670
H16 H 0.6510 0.6137 0.0184
C14 C 0.70563(18) 0.48318(18) -0.00921(14)
C15 C 0.81727(18) 0.47714(19) 0.01967(15)
H17 H 0.8138 0.4012 -0.0136
H18 H 0.8295 0.4936 0.0817
H19 H 0.8789 0.5329 0.0091
C16 C 0.7062(2) 0.4873(2) -0.09890(15)
H20 H 0.6358 0.4883 -0.1208
H21 H 0.7146 0.4204 -0.1393
H22 H 0.7686 0.5557 -0.0937
C17 C 0.82526(16) 0.37720(16) 0.31311(12)
C18 C 0.93869(16) 0.40564(16) 0.34605(12)
C19 C 0.96072(16) 0.33642(16) 0.38178(12)
H23 H 1.0361 0.3528 0.4038
C20 C 0.87646(17) 0.24443(16) 0.38636(12)
H24 H 0.8954 0.1992 0.4106
C21 C 0.76466(16) 0.21802(16) 0.35583(12)
C22 C 0.74166(16) 0.28563(16) 0.31898(12)
H25 H 0.6660 0.2685 0.2970
C23 C 0.59119(16) 0.35797(17) 0.06233(13)
C24 C 0.60659(17) 0.37998(17) -0.01263(13)
C25 C 0.53061(17) 0.29985(19) -0.08994(13)
H26 H 0.5400 0.3106 -0.1418
C26 C 0.44160(17) 0.20478(18) -0.09433(13)
H27 H 0.3921 0.1525 -0.1486
C27 C 0.42452(16) 0.18569(17) -0.02012(13)
C28 C 0.50177(16) 0.26319(17) 0.05731(13)
H28 H 0.4928 0.2506 0.1085
C29 C 0.49364(16) 0.04082(16) 0.39906(12)
C30 C 0.58304(16) 0.13657(16) 0.39920(12)
C31 C 0.67240(16) 0.12168(16) 0.36106(12)
C32 C 0.67299(17) 0.01389(17) 0.32756(12)
H29 H 0.7346 0.0042 0.3043
C33 C 0.58637(17) -0.07954(16) 0.32722(12)
H30 H 0.5893 -0.1518 0.3032
C34 C 0.49506(17) -0.06867(16) 0.36172(12)
C35 C 0.40321(17) -0.16381(16) 0.36211(13)
H31 H 0.4030 -0.2373 0.3363
C36 C 0.31766(17) -0.15064(17) 0.39834(13)
H32 H 0.2584 -0.2151 0.3975
C37 C 0.40337(16) 0.05431(16) 0.43840(12)
C38 C 0.31399(17) -0.04146(17) 0.43824(12)
C39 C 0.22744(17) -0.02532(18) 0.47834(13)
H33 H 0.1661 -0.0889 0.4765
C40 C 0.23009(18) 0.08263(19) 0.52084(13)
H34 H 0.1718 0.0921 0.5493
C41 C 0.31639(18) 0.17616(18) 0.52207(13)
H35 H 0.3169 0.2493 0.5513
C42 C 0.40376(16) 0.16407(17) 0.48031(12)
C43 C 0.49503(17) 0.25879(17) 0.48057(13)
H36 H 0.4962 0.3324 0.5084
C44 C 0.57988(16) 0.24621(16) 0.44219(12)
H37 H 0.6389 0.3112 0.4436
C45 C 0.16986(16) 0.00474(16) 0.03645(12)
C46 C 0.25564(16) 0.10179(16) 0.03507(12)
C47 C 0.32956(16) 0.08665(17) -0.02106(12)
C48 C 0.31418(18) -0.02280(18) -0.07660(14)
H38 H 0.3618 -0.0328 -0.1162
C49 C 0.23129(19) -0.11656(18) -0.07511(14)
H39 H 0.2230 -0.1899 -0.1135
C50 C 0.15939(17) -0.10545(17) -0.01817(13)
C51 C 0.07447(19) -0.20133(18) -0.01306(14)
H40 H 0.0689 -0.2752 -0.0475
C52 C 0.00276(18) -0.18889(18) 0.03936(14)
H41 H -0.0523 -0.2542 0.0411
C53 C 0.09264(16) 0.01778(17) 0.09126(12)
C54 C 0.00728(17) -0.07932(18) 0.09278(13)
C55 C -0.06931(18) -0.06421(19) 0.14526(14)
H42 H -0.1263 -0.1284 0.1470
C56 C -0.06304(18) 0.0430(2) 0.19459(14)
H43 H -0.1167 0.0515 0.2288
C57 C 0.02078(18) 0.13829(19) 0.19461(13)
H44 H 0.0246 0.2114 0.2293
C58 C 0.09966(17) 0.12726(17) 0.14383(12)
C59 C 0.18680(17) 0.22362(17) 0.14136(13)
H45 H 0.1928 0.2974 0.1765
C60 C 0.26081(16) 0.21136(16) 0.08973(12)
H46 H 0.3175 0.2770 0.0897
Cl1 Cl 0.16122(7) -0.26935(5) 0.17446(4)
Cl2 Cl 0.36879(6) -0.07771(6) 0.15572(4)
O1 O 0.02656(15) -0.17546(14) 0.28150(13)
O2 O 0.37358(13) 0.14813(14) 0.25325(10)
N1 N 0.25099(19) 0.31203(17) 0.38812(13)
N2 N -0.01234(18) 0.0648(2) 0.41256(15)
C61 C 0.10640(19) -0.10305(18) 0.27520(15)
C62 C 0.1878(2) -0.12886(18) 0.22331(14)
C63 C 0.27519(19) -0.0484(2) 0.21529(14)
C64 C 0.29603(17) 0.07375(18) 0.25918(13)
C65 C 0.21438(17) 0.10019(17) 0.31203(13)
C66 C 0.12719(18) 0.01850(19) 0.31948(14)
C67 C 0.23465(18) 0.21840(18) 0.35461(14)
C68 C 0.04881(19) 0.0441(2) 0.37108(15)
Cl3 Cl 0.45236(7) 0.51171(7) 0.29256(5)
Cl4 Cl 0.60572(5) 0.50713(5) 0.42308(4)
C69 C 0.5119(2) 0.4316(2) 0.32193(19)
H47 H 0.5516 0.4033 0.2769
H48 H 0.4516 0.3651 0.3234
loop_
_geom_bond_atom_site_label_1
_geom_bond_atom_site_label_2
_geom_bond_site_symmetry_1
_geom_bond_site_symmetry_2
C1 H1 1_555 1_555
C2 C1 1_555 1_555
C3 C2 1_555 1_555
C4 C3 1_555 1_555
H2 C4 1_555 1_555
C5 C4 1_555 1_555
C6 C1 1_555 1_555
C7 C3 1_555 1_555
H3 C7 1_555 1_555
H4 C7 1_555 1_555
C8 C7 1_555 1_555
H5 C8 1_555 1_555
H6 C8 1_555 1_555
C9 C8 1_555 1_555
C10 C9 1_555 1_555
H7 C10 1_555 1_555
H8 C10 1_555 1_555
H9 C10 1_555 1_555
C11 C9 1_555 1_555
H10 C11 1_555 1_555
H11 C11 1_555 1_555
H12 C11 1_555 1_555
C12 C5 1_555 1_555
H13 C12 1_555 1_555
H14 C12 1_555 1_555
C13 C12 1_555 1_555
H15 C13 1_555 1_555
H16 C13 1_555 1_555
C14 C13 1_555 1_555
C15 C14 1_555 1_555
H17 C15 1_555 1_555
H18 C15 1_555 1_555
H19 C15 1_555 1_555
C16 C14 1_555 1_555
H20 C16 1_555 1_555
H21 C16 1_555 1_555
H22 C16 1_555 1_555
C17 C2 1_555 1_555
C18 C9 1_555 1_555
C19 C18 1_555 1_555
H23 C19 1_555 1_555
C20 C19 1_555 1_555
H24 C20 1_555 1_555
C21 C20 1_555 1_555
C22 C17 1_555 1_555
H25 C22 1_555 1_555
C23 C6 1_555 1_555
C24 C14 1_555 1_555
C25 C24 1_555 1_555
H26 C25 1_555 1_555
C26 C25 1_555 1_555
H27 C26 1_555 1_555
C27 C26 1_555 1_555
C28 C23 1_555 1_555
H28 C28 1_555 1_555
C29 C30 1_555 1_555
C30 C31 1_555 1_555
C31 C21 1_555 1_555
C32 C31 1_555 1_555
H29 C32 1_555 1_555
C33 C32 1_555 1_555
H30 C33 1_555 1_555
C34 C29 1_555 1_555
C35 C34 1_555 1_555
H31 C35 1_555 1_555
C36 C35 1_555 1_555
H32 C36 1_555 1_555
C37 C29 1_555 1_555
C38 C36 1_555 1_555
C39 C38 1_555 1_555
H33 C39 1_555 1_555
C40 C39 1_555 1_555
H34 C40 1_555 1_555
C41 C40 1_555 1_555
H35 C41 1_555 1_555
C42 C37 1_555 1_555
C43 C42 1_555 1_555
H36 C43 1_555 1_555
C44 C30 1_555 1_555
H37 C44 1_555 1_555
C45 C46 1_555 1_555
C46 C47 1_555 1_555
C47 C27 1_555 1_555
C48 C47 1_555 1_555
H38 C48 1_555 1_555
C49 C48 1_555 1_555
H39 C49 1_555 1_555
C50 C45 1_555 1_555
C51 C50 1_555 1_555
H40 C51 1_555 1_555
C52 C51 1_555 1_555
H41 C52 1_555 1_555
C53 C45 1_555 1_555
C54 C52 1_555 1_555
C55 C54 1_555 1_555
H42 C55 1_555 1_555
C56 C55 1_555 1_555
H43 C56 1_555 1_555
C57 C56 1_555 1_555
H44 C57 1_555 1_555
C58 C53 1_555 1_555
C59 C58 1_555 1_555
H45 C59 1_555 1_555
C60 C46 1_555 1_555
H46 C60 1_555 1_555
Cl1 C62 1_555 1_555
Cl2 C63 1_555 1_555
O1 C61 1_555 1_555
O2 C64 1_555 1_555
N1 C67 1_555 1_555
N2 C68 1_555 1_555
C61 C62 1_555 1_555
C62 C63 1_555 1_555
C63 C64 1_555 1_555
C64 C65 1_555 1_555
C65 C66 1_555 1_555
C66 C61 1_555 1_555
C67 C65 1_555 1_555
C68 C66 1_555 1_555
Cl3 C69 1_555 1_555
Cl4 C69 1_555 1_555
C69 H47 1_555 1_555
H48 C69 1_555 1_555
C5 C6 1_555 1_555
C17 C18 1_555 1_555
C21 C22 1_555 1_555
C23 C24 1_555 1_555
C27 C28 1_555 1_555
C33 C34 1_555 1_555
C37 C38 1_555 1_555
C41 C42 1_555 1_555
C43 C44 1_555 1_555
C49 C50 1_555 1_555
C53 C54 1_555 1_555
C57 C58 1_555 1_555
C59 C60 1_555 1_555

#END
