
#######################################################################
#
#                 Cambridge Crystallographic Data Centre
#                                CCDC 
#
#######################################################################
#
# If this CIF has been generated from an entry in the Cambridge 
# Structural Database, then it will include bibliographic, chemical, 
# crystal, experimental, refinement or atomic coordinate data resulting 
# from the CCDC's data processing and validation procedures.
#
#######################################################################

data_QIHZIS
_chemical_formula_moiety         'C36 H30 N1 P2 1+,C10 H29 B11 N1 1-'
_chemical_name_systematic        
'bis(Triphenylphosphoranyl)iminium 9-diethylamino-7,8,10-(cyclohex-1-yl-2-ylidene)-nido-undecaborate(10)'
_symmetry_cell_setting           monoclinic
_symmetry_space_group_name_H-M   'P 21/c'
_symmetry_Int_Tables_number      14
_space_group_name_Hall           '-P 2ybc'
loop_
_symmetry_equiv_pos_site_id
_symmetry_equiv_pos_as_xyz
1 x,y,z
2 -x,1/2+y,1/2-z
3 -x,-y,-z
4 x,1/2-y,1/2+z
_cell_length_a                   16.747(3)
_cell_length_b                   10.655(2)
_cell_length_c                   26.720(5)
_cell_angle_alpha                90
_cell_angle_beta                 99.830(3)
_cell_angle_gamma                90
_cell_volume                     4697.9
_exptl_crystal_colour            colorless
_exptl_crystal_description       block
_cell_formula_units_Z            4
loop_
_atom_site_label
_atom_site_type_symbol
_atom_site_fract_x
_atom_site_fract_y
_atom_site_fract_z
N1 N 0.5654(2) 0.1827(4) 0.40617(16)
C1 C 0.6550(3) 0.4514(4) 0.37333(19)
C2 C 0.6035(3) 0.3727(4) 0.33131(19)
H1 H 0.5563 0.3425 0.3450
C3 C 0.6129(3) 0.5749(5) 0.3799(2)
H2 H 0.6488 0.6275 0.4034
H3 H 0.5648 0.5588 0.3946
C4 C 0.5884(4) 0.6458(5) 0.3294(3)
H4 H 0.5609 0.7231 0.3355
H5 H 0.6365 0.6673 0.3156
C5 C 0.5336(4) 0.5669(6) 0.2921(3)
H6 H 0.5196 0.6130 0.2605
H7 H 0.4839 0.5511 0.3051
C6 C 0.5709(3) 0.4435(5) 0.2815(2)
H8 H 0.6150 0.4582 0.2629
H9 H 0.5306 0.3922 0.2604
C7 C 0.5366(3) 0.2139(5) 0.4533(2)
H10 H 0.5829 0.2349 0.4790
H11 H 0.5112 0.1401 0.4650
C8 C 0.4766(4) 0.3220(7) 0.4488(3)
H12 H 0.4606 0.3367 0.4811
H13 H 0.4298 0.3013 0.4241
H14 H 0.5016 0.3963 0.4382
C9 C 0.5103(3) 0.1057(5) 0.3702(2)
H15 H 0.5265 0.1117 0.3371
H16 H 0.4561 0.1405 0.3672
C10 C 0.5071(4) -0.0294(6) 0.3841(3)
H17 H 0.4697 -0.0726 0.3586
H18 H 0.4895 -0.0370 0.4163
H19 H 0.5600 -0.0658 0.3862
B1 B 0.8122(4) 0.2174(5) 0.3962(2)
H20 H 0.8651 0.1555 0.4060
B2 B 0.8239(4) 0.3655(5) 0.3710(2)
H21 H 0.8839 0.3965 0.3645
B3 B 0.7998(3) 0.3499(5) 0.4325(2)
H22 H 0.8426 0.3745 0.4670
B4 B 0.7349(3) 0.2206(5) 0.4330(2)
H23 H 0.7386 0.1675 0.4686
B5 B 0.7166(3) 0.1517(5) 0.3705(2)
H24 H 0.7095 0.0505 0.3630
B6 B 0.7666(4) 0.2517(6) 0.3322(2)
H25 H 0.7885 0.2155 0.2984
B7 B 0.7555(3) 0.4704(5) 0.3916(2)
H26 H 0.7734 0.5692 0.3983
B8 B 0.6916(3) 0.3763(5) 0.4275(2)
H27 H 0.6586 0.4153 0.4561
B9 B 0.6418(4) 0.2216(5) 0.3964(2)
B10 B 0.6587(4) 0.2507(5) 0.3241(2)
H28 H 0.6186 0.2139 0.2904
B11 B 0.7369(3) 0.4090(6) 0.3299(3)
H29 H 0.7368 0.4665 0.2957
N2 N 0.1756(2) 1.0339(3) 0.33970(13)
P1 P 0.18153(7) 0.94443(11) 0.38726(5)
P2 P 0.14091(7) 1.16872(11) 0.32298(5)
C11 C 0.2152(3) 1.0179(4) 0.44713(18)
C12 C 0.2944(4) 1.0610(5) 0.4589(2)
H30 H 0.3295 1.0500 0.4357
C13 C 0.3218(5) 1.1200(6) 0.5046(3)
H31 H 0.3751 1.1479 0.5122
C14 C 0.2711(5) 1.1372(5) 0.5381(3)
H32 H 0.2899 1.1772 0.5688
C15 C 0.1937(5) 1.0974(5) 0.5280(2)
H33 H 0.1598 1.1095 0.5517
C16 C 0.1639(3) 1.0372(4) 0.4814(2)
H34 H 0.1102 1.0110 0.4741
C17 C 0.2538(3) 0.8253(4) 0.38011(18)
C18 C 0.2773(3) 0.8056(4) 0.33336(19)
H35 H 0.2581 0.8583 0.3062
C19 C 0.3288(3) 0.7082(5) 0.3269(2)
H36 H 0.3452 0.6968 0.2957
C20 C 0.3559(3) 0.6284(5) 0.3662(2)
H37 H 0.3888 0.5608 0.3612
C21 C 0.3347(3) 0.6481(5) 0.4130(2)
H38 H 0.3545 0.5954 0.4400
C22 C 0.2844(3) 0.7454(4) 0.41988(19)
H39 H 0.2703 0.7582 0.4517
C23 C 0.0868(3) 0.8664(4) 0.39096(18)
C24 C 0.0841(3) 0.7714(5) 0.4266(2)
H40 H 0.1306 0.7507 0.4495
C25 C 0.0130(4) 0.7086(5) 0.4280(2)
H41 H 0.0120 0.6428 0.4508
C26 C -0.0569(4) 0.7427(5) 0.3958(2)
H42 H -0.1054 0.7013 0.3972
C27 C -0.0544(3) 0.8377(5) 0.3617(2)
H43 H -0.1017 0.8616 0.3403
C28 C 0.0171(3) 0.8983(4) 0.35859(19)
H44 H 0.0181 0.9610 0.3345
C29 C 0.1185(3) 1.2627(4) 0.37441(17)
C30 C 0.0505(3) 1.2404(4) 0.39668(19)
H45 H 0.0121 1.1820 0.3821
C31 C 0.0391(3) 1.3035(4) 0.4399(2)
H46 H -0.0076 1.2902 0.4536
C32 C 0.0968(4) 1.3861(5) 0.4626(2)
H47 H 0.0900 1.4266 0.4924
C33 C 0.1636(4) 1.4092(5) 0.4420(2)
H48 H 0.2019 1.4665 0.4574
C34 C 0.1754(3) 1.3489(5) 0.3984(2)
H49 H 0.2218 1.3656 0.3847
C35 C 0.2137(3) 1.2533(4) 0.29483(17)
C36 C 0.2936(3) 1.2189(5) 0.3023(2)
H50 H 0.3105 1.1478 0.3214
C37 C 0.3503(3) 1.2902(5) 0.2813(2)
H51 H 0.4047 1.2675 0.2871
C38 C 0.3249(4) 1.3933(5) 0.2525(2)
H52 H 0.3620 1.4399 0.2380
C39 C 0.2458(4) 1.4278(5) 0.2449(2)
H53 H 0.2290 1.4983 0.2254
C40 C 0.1905(3) 1.3592(4) 0.26584(19)
H54 H 0.1365 1.3842 0.2605
C41 C 0.0529(3) 1.1540(4) 0.27433(17)
C42 C -0.0179(3) 1.2197(4) 0.2736(2)
H55 H -0.0225 1.2762 0.2995
C43 C -0.0825(3) 1.2020(5) 0.2345(2)
H56 H -0.1303 1.2462 0.2344
C44 C -0.0767(3) 1.1201(5) 0.1958(2)
H57 H -0.1207 1.1080 0.1699
C45 C -0.0059(3) 1.0562(5) 0.1954(2)
H58 H -0.0012 1.0017 0.1689
C46 C 0.0587(3) 1.0729(4) 0.2345(2)
H59 H 0.1067 1.0292 0.2342
loop_
_geom_bond_atom_site_label_1
_geom_bond_atom_site_label_2
_geom_bond_site_symmetry_1
_geom_bond_site_symmetry_2
N1 C7 1_555 1_555
C1 C2 1_555 1_555
C2 H1 1_555 1_555
C3 C1 1_555 1_555
H2 C3 1_555 1_555
H3 C3 1_555 1_555
C4 C3 1_555 1_555
H4 C4 1_555 1_555
H5 C4 1_555 1_555
C5 C4 1_555 1_555
H6 C5 1_555 1_555
H7 C5 1_555 1_555
C6 C2 1_555 1_555
H8 C6 1_555 1_555
H9 C6 1_555 1_555
C7 H10 1_555 1_555
H11 C7 1_555 1_555
C8 C7 1_555 1_555
H12 C8 1_555 1_555
H13 C8 1_555 1_555
H14 C8 1_555 1_555
C9 N1 1_555 1_555
H15 C9 1_555 1_555
H16 C9 1_555 1_555
C10 C9 1_555 1_555
H17 C10 1_555 1_555
H18 C10 1_555 1_555
H19 C10 1_555 1_555
B1 H20 1_555 1_555
B2 B1 1_555 1_555
H21 B2 1_555 1_555
B3 B1 1_555 1_555
H22 B3 1_555 1_555
B4 B1 1_555 1_555
H23 B4 1_555 1_555
B5 B1 1_555 1_555
H24 B5 1_555 1_555
B6 B1 1_555 1_555
H25 B6 1_555 1_555
B7 C1 1_555 1_555
H26 B7 1_555 1_555
B8 C1 1_555 1_555
H27 B8 1_555 1_555
B9 N1 1_555 1_555
B10 C2 1_555 1_555
H28 B10 1_555 1_555
B11 B2 1_555 1_555
H29 B11 1_555 1_555
N2 P1 1_555 1_555
P1 C11 1_555 1_555
P2 N2 1_555 1_555
C11 C12 1_555 1_555
C12 H30 1_555 1_555
C13 C12 1_555 1_555
H31 C13 1_555 1_555
C14 C13 1_555 1_555
H32 C14 1_555 1_555
C15 C14 1_555 1_555
H33 C15 1_555 1_555
C16 C11 1_555 1_555
H34 C16 1_555 1_555
C17 P1 1_555 1_555
C18 C17 1_555 1_555
H35 C18 1_555 1_555
C19 C18 1_555 1_555
H36 C19 1_555 1_555
C20 C19 1_555 1_555
H37 C20 1_555 1_555
C21 C20 1_555 1_555
H38 C21 1_555 1_555
C22 C17 1_555 1_555
H39 C22 1_555 1_555
C23 P1 1_555 1_555
C24 C23 1_555 1_555
H40 C24 1_555 1_555
C25 C24 1_555 1_555
H41 C25 1_555 1_555
C26 C25 1_555 1_555
H42 C26 1_555 1_555
C27 C26 1_555 1_555
H43 C27 1_555 1_555
C28 C23 1_555 1_555
H44 C28 1_555 1_555
C29 P2 1_555 1_555
C30 C29 1_555 1_555
H45 C30 1_555 1_555
C31 C30 1_555 1_555
H46 C31 1_555 1_555
C32 C31 1_555 1_555
H47 C32 1_555 1_555
C33 C32 1_555 1_555
H48 C33 1_555 1_555
C34 C29 1_555 1_555
H49 C34 1_555 1_555
C35 P2 1_555 1_555
C36 C35 1_555 1_555
H50 C36 1_555 1_555
C37 C36 1_555 1_555
H51 C37 1_555 1_555
C38 C37 1_555 1_555
H52 C38 1_555 1_555
C39 C38 1_555 1_555
H53 C39 1_555 1_555
C40 C35 1_555 1_555
H54 C40 1_555 1_555
C41 P2 1_555 1_555
C42 C41 1_555 1_555
H55 C42 1_555 1_555
C43 C42 1_555 1_555
H56 C43 1_555 1_555
C44 C43 1_555 1_555
H57 C44 1_555 1_555
C45 C44 1_555 1_555
H58 C45 1_555 1_555
C46 C41 1_555 1_555
H59 C46 1_555 1_555
C5 C6 1_555 1_555
B2 B3 1_555 1_555
B2 B6 1_555 1_555
B2 B7 1_555 1_555
B3 B4 1_555 1_555
B3 B7 1_555 1_555
B3 B8 1_555 1_555
B4 B5 1_555 1_555
B4 B8 1_555 1_555
B4 B9 1_555 1_555
B5 B6 1_555 1_555
B5 B9 1_555 1_555
B5 B10 1_555 1_555
B6 B10 1_555 1_555
B6 B11 1_555 1_555
B7 B8 1_555 1_555
B7 B11 1_555 1_555
B8 B9 1_555 1_555
B9 B10 1_555 1_555
B10 B11 1_555 1_555
C15 C16 1_555 1_555
C21 C22 1_555 1_555
C27 C28 1_555 1_555
C33 C34 1_555 1_555
C39 C40 1_555 1_555
C45 C46 1_555 1_555

#END
