
#######################################################################
#
#                 Cambridge Crystallographic Data Centre
#                                CCDC 
#
#######################################################################
#
# If this CIF has been generated from an entry in the Cambridge 
# Structural Database, then it will include bibliographic, chemical, 
# crystal, experimental, refinement or atomic coordinate data resulting 
# from the CCDC's data processing and validation procedures.
#
#######################################################################

data_QIHZUE
_chemical_formula_moiety         'C8 H26 B11 O2 1-,C14 H19 N2 1+'
_chemical_name_systematic        
'8-(dimethylamino)-N,N-dimethylnaphthalen-1-aminium nido-[\mH-7,8-(1-(dimethoxyboranyl)pentane-1,5-diyl)-7-carba-undecaborane]'
_symmetry_cell_setting           triclinic
_symmetry_space_group_name_H-M   'P -1'
_symmetry_Int_Tables_number      2
_space_group_name_Hall           '-P 1'
loop_
_symmetry_equiv_pos_site_id
_symmetry_equiv_pos_as_xyz
1 x,y,z
2 -x,-y,-z
_cell_length_a                   9.4687(7)
_cell_length_b                   9.6287(8)
_cell_length_c                   17.0590(13)
_cell_angle_alpha                102.413(2)
_cell_angle_beta                 97.696(2)
_cell_angle_gamma                97.792(2)
_cell_volume                     1483.39
_exptl_crystal_colour            colorless
_exptl_crystal_description       block
_cell_formula_units_Z            2
loop_
_atom_site_label
_atom_site_type_symbol
_atom_site_fract_x
_atom_site_fract_y
_atom_site_fract_z
N1 N 0.8071(4) 0.7404(4) 0.4316(2)
N2 N 0.8009(4) 0.8297(4) 0.2991(2)
C1 C 0.9476(7) 0.7280(8) 0.4745(3)
H1 H 1.0156 0.8140 0.4789
H2 H 0.9816 0.6462 0.4448
H3 H 0.9379 0.7156 0.5280
C2 C 0.6961(8) 0.6107(6) 0.4221(4)
H4 H 0.6058 0.6247 0.3944
H5 H 0.6841 0.5957 0.4748
H6 H 0.7265 0.5280 0.3909
C3 C 0.7583(5) 0.8709(5) 0.4696(3)
C4 C 0.7389(5) 0.8976(6) 0.5494(3)
H7 H 0.7584 0.8310 0.5799
C5 C 0.6912(6) 1.0208(7) 0.5853(3)
H8 H 0.6791 1.0368 0.6395
C6 C 0.6624(5) 1.1169(6) 0.5427(4)
H9 H 0.6340 1.2011 0.5689
C7 C 0.6732(5) 1.0965(5) 0.4582(3)
C8 C 0.6357(6) 1.1920(6) 0.4119(5)
H10 H 0.6004 1.2730 0.4366
C9 C 0.6478(7) 1.1732(7) 0.3347(5)
H11 H 0.6229 1.2408 0.3061
C10 C 0.6989(6) 1.0499(6) 0.2953(4)
H12 H 0.7054 1.0353 0.2403
C11 C 0.7390(5) 0.9518(5) 0.3378(3)
C12 C 0.7242(4) 0.9700(5) 0.4207(3)
C13 C 0.7039(7) 0.7322(6) 0.2281(3)
H13 H 0.6120 0.7040 0.2430
H14 H 0.7458 0.6480 0.2101
H15 H 0.6909 0.7811 0.1848
C14 C 0.9448(6) 0.8748(7) 0.2790(4)
H16 H 1.0059 0.9371 0.3265
H17 H 0.9343 0.9255 0.2364
H18 H 0.9874 0.7912 0.2611
H19 H 0.822(5) 0.775(5) 0.348(3)
C15 C 0.2547(7) 0.4543(6) 0.1599(3)
C16 C 0.3302(8) 0.4969(7) 0.0933(4)
H20 H 0.4081 0.4422 0.0855
H21 H 0.3726 0.5984 0.1106
C17 C 0.2278(10) 0.4703(10) 0.0119(4)
H22 H 0.1572 0.5343 0.0183
H23 H 0.2832 0.4951 -0.0285
C18 C 0.1491(13) 0.3179(10) -0.0193(5)
H24 H 0.0616 0.3132 0.0045
H25 H 0.1186 0.3054 -0.0773
C19 C 0.2059(9) 0.1978(8) -0.0104(3)
H26 H 0.2927 0.2005 -0.0348
H27 H 0.1375 0.1150 -0.0434
C20 C 0.2464(8) 0.1655(7) 0.0744(3)
H28 H 0.1797 0.0766 0.0715
C21 C 0.6576(9) 0.1916(10) 0.0913(5)
H29 H 0.7194 0.2551 0.0692
H30 H 0.6689 0.0937 0.0702
H31 H 0.6832 0.2158 0.1496
C22 C 0.3378(10) -0.0830(8) 0.1509(5)
H32 H 0.3910 -0.1418 0.1784
H33 H 0.2794 -0.1422 0.1016
H34 H 0.2766 -0.0382 0.1857
O1 O 0.5061(7) 0.2072(5) 0.0684(3)
O2 O 0.4385(6) 0.0281(5) 0.1313(3)
B1 B 0.2778(8) 0.4391(8) 0.3174(4)
H35 H 0.3404 0.4584 0.3790
B2 B 0.2995(9) 0.5583(7) 0.2571(4)
H36 H 0.3797 0.6582 0.2779
B3 B 0.3526(8) 0.3937(7) 0.2324(3)
H37 H 0.4677 0.3843 0.2367
B4 B 0.2270(8) 0.2638(7) 0.2514(4)
H38 H 0.2634 0.1676 0.2667
B5 B 0.0959(9) 0.3529(9) 0.2934(4)
H39 H 0.0440 0.3141 0.3405
B6 B 0.1401(8) 0.5430(7) 0.2937(4)
H40 H 0.1167 0.6350 0.3378
B7 B 0.2071(8) 0.2839(7) 0.1526(4)
B8 B 0.0459(9) 0.2470(8) 0.1996(5)
H41 H -0.0417 0.1600 0.1648
B9 B -0.0042(10) 0.4316(9) 0.2310(6)
H42 H -0.1184 0.4397 0.2139
B10 B 0.1318(10) 0.5443(9) 0.1934(5)
H43 H 0.0833 0.5968 0.1477
B11 B 0.3959(10) 0.1248(7) 0.0931(4)
H44 H 0.047(5) 0.229(5) 0.131(3)
H45 H 0.024(5) 0.469(5) 0.172(3)
loop_
_geom_bond_atom_site_label_1
_geom_bond_atom_site_label_2
_geom_bond_site_symmetry_1
_geom_bond_site_symmetry_2
N1 C1 1_555 1_555
N2 C11 1_555 1_555
C1 H1 1_555 1_555
H2 C1 1_555 1_555
H3 C1 1_555 1_555
C2 N1 1_555 1_555
H4 C2 1_555 1_555
H5 C2 1_555 1_555
H6 C2 1_555 1_555
C3 N1 1_555 1_555
C4 C3 1_555 1_555
H7 C4 1_555 1_555
C5 C4 1_555 1_555
H8 C5 1_555 1_555
C6 C5 1_555 1_555
H9 C6 1_555 1_555
C7 C6 1_555 1_555
C8 C7 1_555 1_555
H10 C8 1_555 1_555
C9 C8 1_555 1_555
H11 C9 1_555 1_555
C10 C9 1_555 1_555
H12 C10 1_555 1_555
C11 C10 1_555 1_555
C12 C3 1_555 1_555
C13 N2 1_555 1_555
H13 C13 1_555 1_555
H14 C13 1_555 1_555
H15 C13 1_555 1_555
C14 N2 1_555 1_555
H16 C14 1_555 1_555
H17 C14 1_555 1_555
H18 C14 1_555 1_555
H19 N2 1_555 1_555
C15 C16 1_555 1_555
C16 H20 1_555 1_555
H21 C16 1_555 1_555
C17 C16 1_555 1_555
H22 C17 1_555 1_555
H23 C17 1_555 1_555
C18 C17 1_555 1_555
H24 C18 1_555 1_555
H25 C18 1_555 1_555
C19 C18 1_555 1_555
H26 C19 1_555 1_555
H27 C19 1_555 1_555
C20 C19 1_555 1_555
H28 C20 1_555 1_555
C21 H29 1_555 1_555
H30 C21 1_555 1_555
H31 C21 1_555 1_555
C22 H32 1_555 1_555
H33 C22 1_555 1_555
H34 C22 1_555 1_555
O1 C21 1_555 1_555
O2 C22 1_555 1_555
B1 H35 1_555 1_555
B2 C15 1_555 1_555
H36 B2 1_555 1_555
B3 C15 1_555 1_555
H37 B3 1_555 1_555
B4 B1 1_555 1_555
H38 B4 1_555 1_555
B5 B1 1_555 1_555
H39 B5 1_555 1_555
B6 B1 1_555 1_555
H40 B6 1_555 1_555
B7 C15 1_555 1_555
B8 B4 1_555 1_555
H41 B8 1_555 1_555
B9 B5 1_555 1_555
H42 B9 1_555 1_555
B10 C15 1_555 1_555
H43 B10 1_555 1_555
B11 C20 1_555 1_555
H44 B7 1_555 1_555
H45 B9 1_555 1_555
C7 C12 1_555 1_555
C11 C12 1_555 1_555
C20 B7 1_555 1_555
O1 B11 1_555 1_555
O2 B11 1_555 1_555
B1 B2 1_555 1_555
B1 B3 1_555 1_555
B2 B3 1_555 1_555
B2 B6 1_555 1_555
B2 B10 1_555 1_555
B3 B4 1_555 1_555
B3 B7 1_555 1_555
B4 B5 1_555 1_555
B4 B7 1_555 1_555
B5 B6 1_555 1_555
B5 B8 1_555 1_555
B6 B9 1_555 1_555
B6 B10 1_555 1_555
B7 B8 1_555 1_555
B8 B9 1_555 1_555
B8 H44 1_555 1_555
B9 B10 1_555 1_555
B10 H45 1_555 1_555

#END
