
#######################################################################
#
#                 Cambridge Crystallographic Data Centre
#                                CCDC 
#
#######################################################################
#
# If this CIF has been generated from an entry in the Cambridge 
# Structural Database, then it will include bibliographic, chemical, 
# crystal, experimental, refinement or atomic coordinate data resulting 
# from the CCDC's data processing and validation procedures.
#
#######################################################################

data_QIHZEO
_chemical_formula_moiety         'C36 H30 N1 P2 1+,C8 H25 B11 N1 1-'
_chemical_name_systematic        
'triphenyl-N-(triphenylphosphoranylidene)phosphoraniminium nido-9-dimethylamino-\mH-7,8,10-(butane-1,4-diyl)-8,10-dicarba-dodecaborane'
_symmetry_cell_setting           monoclinic
_symmetry_space_group_name_H-M   'P 21/c'
_symmetry_Int_Tables_number      14
_space_group_name_Hall           '-P 2ybc'
loop_
_symmetry_equiv_pos_site_id
_symmetry_equiv_pos_as_xyz
1 x,y,z
2 -x,1/2+y,1/2-z
3 -x,-y,-z
4 x,1/2-y,1/2+z
_cell_length_a                   13.3528(12)
_cell_length_b                   9.1868(9)
_cell_length_c                   37.516(4)
_cell_angle_alpha                90
_cell_angle_beta                 100.747(2)
_cell_angle_gamma                90
_cell_volume                     4521.35
_exptl_crystal_colour            colorless
_exptl_crystal_description       block
_cell_formula_units_Z            4
loop_
_atom_site_label
_atom_site_type_symbol
_atom_site_fract_x
_atom_site_fract_y
_atom_site_fract_z
N1 N 0.7726(3) 0.4034(4) 0.15637(10)
C1 C 0.7577(3) 0.5692(4) 0.07563(10)
C2 C 0.6629(3) 0.4906(4) 0.08361(11)
H1 H 0.6868 0.4018 0.0970
C3 C 0.8029(4) 0.4863(5) 0.04731(11)
H2 H 0.8575 0.5436 0.0406
H3 H 0.8322 0.3960 0.0579
C4 C 0.7254(4) 0.4521(6) 0.01352(12)
H4 H 0.7582 0.3990 -0.0035
H5 H 0.6986 0.5421 0.0020
C5 C 0.6386(4) 0.3618(6) 0.02277(13)
H6 H 0.6648 0.2697 0.0332
H7 H 0.5894 0.3416 0.0008
C6 C 0.5866(4) 0.4428(5) 0.04955(13)
H8 H 0.5353 0.3803 0.0568
H9 H 0.5524 0.5280 0.0378
C7 C 0.8652(4) 0.3193(6) 0.15762(16)
H10 H 0.9156 0.3784 0.1494
H11 H 0.8507 0.2355 0.1422
H12 H 0.8904 0.2884 0.1821
C8 C 0.6918(4) 0.3235(6) 0.16834(15)
H13 H 0.6330 0.3849 0.1669
H14 H 0.7141 0.2926 0.1930
H15 H 0.6745 0.2398 0.1531
B1 B 0.7396(4) 0.8569(5) 0.14103(14)
H16 H 0.7411 0.9504 0.1595
B2 B 0.7194(4) 0.8823(5) 0.09349(14)
H17 H 0.7088 0.9921 0.0817
B3 B 0.8389(4) 0.8216(5) 0.11678(13)
H18 H 0.9072 0.8906 0.1196
B4 B 0.8219(3) 0.7047(5) 0.15224(12)
H19 H 0.8815 0.7028 0.1768
B5 B 0.6861(3) 0.6885(5) 0.15168(13)
H20 H 0.6524 0.6761 0.1761
B6 B 0.6258(4) 0.7930(5) 0.11370(14)
H21 H 0.5517 0.8457 0.1135
B7 B 0.7849(4) 0.7475(5) 0.07391(12)
H22 H 0.8142 0.7750 0.0492
B8 B 0.8461(3) 0.6241(5) 0.11109(12)
H23 H 0.9143 0.5574 0.1107
B9 B 0.7585(3) 0.5444(5) 0.14177(11)
B10 B 0.6176(3) 0.5967(5) 0.11164(13)
H24 H 0.5467 0.5349 0.1110
B11 B 0.6514(4) 0.7336(5) 0.07184(13)
H25 H 0.5938 0.7421 0.0468
N2 N 0.2041(2) 0.2086(3) 0.12910(7)
P1 P 0.20502(6) 0.27800(9) 0.09020(2)
P2 P 0.24311(7) 0.23925(9) 0.17080(2)
C9 C 0.2179(2) 0.4730(3) 0.08947(8)
C10 C 0.1372(3) 0.5567(4) 0.09668(10)
H26 H 0.0788 0.5112 0.1013
C11 C 0.1431(3) 0.7068(4) 0.09710(12)
H27 H 0.0890 0.7620 0.1020
C12 C 0.2303(4) 0.7748(4) 0.09008(12)
H28 H 0.2344 0.8759 0.0902
C13 C 0.3102(4) 0.6930(5) 0.08297(12)
H29 H 0.3687 0.7391 0.0785
C14 C 0.3048(3) 0.5417(4) 0.08241(10)
H30 H 0.3590 0.4870 0.0773
C15 C 0.3046(3) 0.1943(4) 0.07049(9)
C16 C 0.4033(3) 0.1896(4) 0.09113(10)
H31 H 0.4177 0.2362 0.1135
C17 C 0.4794(3) 0.1159(5) 0.07827(12)
H32 H 0.5448 0.1118 0.0921
C18 C 0.4581(4) 0.0484(5) 0.04485(13)
H33 H 0.5089 -0.0034 0.0364
C19 C 0.3620(4) 0.0574(5) 0.02396(13)
H34 H 0.3488 0.0138 0.0012
C20 C 0.2848(3) 0.1307(5) 0.03645(11)
H35 H 0.2201 0.1371 0.0221
C21 C 0.0872(2) 0.2359(3) 0.06037(8)
C22 C 0.0623(3) 0.3083(4) 0.02735(9)
H36 H 0.1036 0.3833 0.0218
C23 C -0.0243(3) 0.2690(5) 0.00259(11)
H37 H -0.0404 0.3170 -0.0196
C24 C -0.0860(3) 0.1600(5) 0.01070(12)
H38 H -0.1438 0.1339 -0.0060
C25 C -0.0629(3) 0.0887(5) 0.04353(12)
H39 H -0.1059 0.0161 0.0492
C26 C 0.0244(3) 0.1249(4) 0.06814(10)
H40 H 0.0409 0.0746 0.0899
C27 C 0.3708(3) 0.1737(4) 0.18747(9)
C28 C 0.4354(3) 0.2397(6) 0.21615(12)
H41 H 0.4141 0.3228 0.2267
C29 C 0.5313(4) 0.1832(7) 0.22917(15)
H42 H 0.5741 0.2290 0.2483
C30 C 0.5631(4) 0.0618(7) 0.21422(17)
H43 H 0.6277 0.0245 0.2232
C31 C 0.5012(4) -0.0068(6) 0.18602(15)
H44 H 0.5238 -0.0902 0.1759
C32 C 0.4039(3) 0.0482(4) 0.17242(11)
H45 H 0.3616 0.0012 0.1534
C33 C 0.2402(3) 0.4285(4) 0.18320(9)
C34 C 0.1583(4) 0.4835(5) 0.19658(14)
H46 H 0.1074 0.4216 0.2014
C35 C 0.1528(5) 0.6329(6) 0.20272(18)
H47 H 0.0977 0.6707 0.2116
C36 C 0.2272(5) 0.7232(5) 0.19587(16)
H48 H 0.2229 0.8225 0.2002
C37 C 0.3081(4) 0.6698(5) 0.18269(13)
H49 H 0.3587 0.7328 0.1780
C38 C 0.3157(3) 0.5215(4) 0.17610(10)
H50 H 0.3709 0.4853 0.1670
C39 C 0.1634(3) 0.1403(4) 0.19603(9)
C40 C 0.1947(4) 0.1188(5) 0.23342(10)
H51 H 0.2565 0.1567 0.2453
C41 C 0.1335(4) 0.0411(6) 0.25271(11)
H52 H 0.1532 0.0296 0.2777
C42 C 0.0435(4) -0.0193(5) 0.23491(12)
H53 H 0.0039 -0.0743 0.2478
C43 C 0.0122(3) 0.0014(5) 0.19843(12)
H54 H -0.0497 -0.0368 0.1867
C44 C 0.0726(3) 0.0792(4) 0.17885(10)
H55 H 0.0518 0.0903 0.1539
loop_
_geom_bond_atom_site_label_1
_geom_bond_atom_site_label_2
_geom_bond_site_symmetry_1
_geom_bond_site_symmetry_2
N1 C7 1_555 1_555
C1 C2 1_555 1_555
C2 H1 1_555 1_555
C3 C1 1_555 1_555
H2 C3 1_555 1_555
H3 C3 1_555 1_555
C4 C3 1_555 1_555
H4 C4 1_555 1_555
H5 C4 1_555 1_555
C5 C4 1_555 1_555
H6 C5 1_555 1_555
H7 C5 1_555 1_555
C6 C2 1_555 1_555
H8 C6 1_555 1_555
H9 C6 1_555 1_555
C7 H10 1_555 1_555
H11 C7 1_555 1_555
H12 C7 1_555 1_555
C8 N1 1_555 1_555
H13 C8 1_555 1_555
H14 C8 1_555 1_555
H15 C8 1_555 1_555
B1 H16 1_555 1_555
B2 B1 1_555 1_555
H17 B2 1_555 1_555
B3 B1 1_555 1_555
H18 B3 1_555 1_555
B4 B1 1_555 1_555
H19 B4 1_555 1_555
B5 B1 1_555 1_555
H20 B5 1_555 1_555
B6 B1 1_555 1_555
H21 B6 1_555 1_555
B7 C1 1_555 1_555
H22 B7 1_555 1_555
B8 C1 1_555 1_555
H23 B8 1_555 1_555
B9 N1 1_555 1_555
B10 C2 1_555 1_555
H24 B10 1_555 1_555
B11 B2 1_555 1_555
H25 B11 1_555 1_555
N2 P1 1_555 1_555
P1 C9 1_555 1_555
P2 N2 1_555 1_555
C9 C10 1_555 1_555
C10 H26 1_555 1_555
C11 C10 1_555 1_555
H27 C11 1_555 1_555
C12 C11 1_555 1_555
H28 C12 1_555 1_555
C13 C12 1_555 1_555
H29 C13 1_555 1_555
C14 C9 1_555 1_555
H30 C14 1_555 1_555
C15 P1 1_555 1_555
C16 C15 1_555 1_555
H31 C16 1_555 1_555
C17 C16 1_555 1_555
H32 C17 1_555 1_555
C18 C17 1_555 1_555
H33 C18 1_555 1_555
C19 C18 1_555 1_555
H34 C19 1_555 1_555
C20 C15 1_555 1_555
H35 C20 1_555 1_555
C21 P1 1_555 1_555
C22 C21 1_555 1_555
H36 C22 1_555 1_555
C23 C22 1_555 1_555
H37 C23 1_555 1_555
C24 C23 1_555 1_555
H38 C24 1_555 1_555
C25 C24 1_555 1_555
H39 C25 1_555 1_555
C26 C21 1_555 1_555
H40 C26 1_555 1_555
C27 P2 1_555 1_555
C28 C27 1_555 1_555
H41 C28 1_555 1_555
C29 C28 1_555 1_555
H42 C29 1_555 1_555
C30 C29 1_555 1_555
H43 C30 1_555 1_555
C31 C30 1_555 1_555
H44 C31 1_555 1_555
C32 C27 1_555 1_555
H45 C32 1_555 1_555
C33 P2 1_555 1_555
C34 C33 1_555 1_555
H46 C34 1_555 1_555
C35 C34 1_555 1_555
H47 C35 1_555 1_555
C36 C35 1_555 1_555
H48 C36 1_555 1_555
C37 C36 1_555 1_555
H49 C37 1_555 1_555
C38 C33 1_555 1_555
H50 C38 1_555 1_555
C39 P2 1_555 1_555
C40 C39 1_555 1_555
H51 C40 1_555 1_555
C41 C40 1_555 1_555
H52 C41 1_555 1_555
C42 C41 1_555 1_555
H53 C42 1_555 1_555
C43 C42 1_555 1_555
H54 C43 1_555 1_555
C44 C39 1_555 1_555
H55 C44 1_555 1_555
C5 C6 1_555 1_555
B2 B3 1_555 1_555
B2 B6 1_555 1_555
B2 B7 1_555 1_555
B3 B4 1_555 1_555
B3 B7 1_555 1_555
B3 B8 1_555 1_555
B4 B5 1_555 1_555
B4 B8 1_555 1_555
B4 B9 1_555 1_555
B5 B6 1_555 1_555
B5 B9 1_555 1_555
B5 B10 1_555 1_555
B6 B10 1_555 1_555
B6 B11 1_555 1_555
B7 B8 1_555 1_555
B7 B11 1_555 1_555
B8 B9 1_555 1_555
B9 B10 1_555 1_555
B10 B11 1_555 1_555
C13 C14 1_555 1_555
C19 C20 1_555 1_555
C25 C26 1_555 1_555
C31 C32 1_555 1_555
C37 C38 1_555 1_555
C43 C44 1_555 1_555

#END
