
#######################################################################
#
#                 Cambridge Crystallographic Data Centre
#                                CCDC 
#
#######################################################################
#
# If this CIF has been generated from an entry in the Cambridge 
# Structural Database, then it will include bibliographic, chemical, 
# crystal, experimental, refinement or atomic coordinate data resulting 
# from the CCDC's data processing and validation procedures.
#
#######################################################################

data_QIJBAO
_chemical_formula_moiety         'C6 H21 B10 O1 1-,C14 H19 N2 1+'
_chemical_name_systematic        
'8-(dimethylamino)-N,N-dimethylnaphthalen-1-aminium di-\mH-7,8-(1-hydroxypentane-1,5-diyl)-7-carba-undecaborane'
_symmetry_cell_setting           monoclinic
_symmetry_space_group_name_H-M   'P 21/c'
_symmetry_Int_Tables_number      14
_space_group_name_Hall           '-P 2ybc'
loop_
_symmetry_equiv_pos_site_id
_symmetry_equiv_pos_as_xyz
1 x,y,z
2 -x,1/2+y,1/2-z
3 -x,-y,-z
4 x,1/2-y,1/2+z
_cell_length_a                   13.5073(5)
_cell_length_b                   12.4931(5)
_cell_length_c                   15.3521(6)
_cell_angle_alpha                90
_cell_angle_beta                 90.3520(10)
_cell_angle_gamma                90
_cell_volume                     2590.59
_exptl_crystal_colour            colorless
_exptl_crystal_description       block
_cell_formula_units_Z            4
loop_
_atom_site_label
_atom_site_type_symbol
_atom_site_fract_x
_atom_site_fract_y
_atom_site_fract_z
O1 O 0.34498(14) 0.41577(15) 0.27829(14)
H1 H 0.3444 0.3508 0.2856
B1 B 0.3596(2) 0.7899(2) 0.28972(17)
H2 H 0.4294 0.8344 0.2832
B2 B 0.2789(2) 0.7682(2) 0.20097(16)
H3 H 0.2955 0.7985 0.1354
B3 B 0.34307(18) 0.6610(2) 0.24553(15)
H4 H 0.4026 0.6204 0.2098
B4 B 0.34874(18) 0.6767(2) 0.35968(16)
H5 H 0.4119 0.6444 0.3969
B5 B 0.28804(19) 0.7994(2) 0.38507(16)
H6 H 0.3129 0.8502 0.4395
B6 B 0.2425(2) 0.8551(2) 0.28594(17)
H7 H 0.2350 0.9415 0.2738
B7 B 0.25592(17) 0.59110(18) 0.31237(14)
B8 B 0.23035(19) 0.6773(2) 0.40937(16)
H8 H 0.1947 0.6374 0.4648
B9 B 0.1612(2) 0.7949(2) 0.36187(17)
H9 H 0.0907 0.8153 0.3933
B10 B 0.15586(19) 0.7607(2) 0.24315(17)
H10 H 0.0792 0.7562 0.2187
C1 C 0.22113(15) 0.65092(16) 0.22140(12)
C2 C 0.18960(17) 0.58382(18) 0.14228(14)
H11 H 0.1676 0.6318 0.0964
H12 H 0.2469 0.5453 0.1209
C3 C 0.10758(18) 0.5037(2) 0.16049(17)
H13 H 0.0597 0.5374 0.1985
H14 H 0.0740 0.4876 0.1060
C4 C 0.1404(2) 0.39915(19) 0.20182(18)
H15 H 0.0871 0.3478 0.1945
H16 H 0.1966 0.3725 0.1693
C5 C 0.1691(2) 0.40099(19) 0.29744(18)
H17 H 0.1780 0.3276 0.3165
H18 H 0.1139 0.4303 0.3298
C6 C 0.26142(18) 0.46333(18) 0.32277(14)
H19 H 0.2722 0.4497 0.3850
H20 H 0.1835(17) 0.6218(19) 0.3650(15)
H21 H 0.1114(17) 0.7294(19) 0.3180(15)
N1 N 0.34848(12) 0.12578(13) 0.10407(10)
N2 N 0.39064(12) 0.28858(13) 0.00695(11)
C7 C 0.24454(14) 0.13603(16) 0.07639(12)
C8 C 0.17607(17) 0.0643(2) 0.10427(16)
H22 H 0.1954 0.0077 0.1398
C9 C 0.07648(18) 0.0753(2) 0.07983(18)
H23 H 0.0302 0.0253 0.0985
C10 C 0.04752(17) 0.1582(2) 0.02910(16)
H24 H -0.0190 0.1653 0.0142
C11 C 0.11606(15) 0.23391(17) -0.00154(14)
C12 C 0.08561(18) 0.3204(2) -0.05452(17)
H25 H 0.0190 0.3277 -0.0689
C13 C 0.15119(19) 0.3926(2) -0.08464(18)
H26 H 0.1295 0.4495 -0.1189
C14 C 0.25184(18) 0.38199(18) -0.06440(16)
H27 H 0.2967 0.4318 -0.0859
C15 C 0.28535(14) 0.29984(16) -0.01372(12)
C16 C 0.21828(14) 0.22298(15) 0.02079(12)
C17 C 0.39154(18) 0.02009(18) 0.08266(19)
H28 H 0.3818 0.0055 0.0218
H29 H 0.3596 -0.0344 0.1165
H30 H 0.4611 0.0206 0.0958
C18 C 0.36202(18) 0.1516(2) 0.19822(14)
H31 H 0.3335 0.2204 0.2102
H32 H 0.4314 0.1531 0.2121
H33 H 0.3299 0.0981 0.2329
C19 C 0.45114(19) 0.2663(3) -0.07095(16)
H34 H 0.4244 0.2055 -0.1013
H35 H 0.5180 0.2513 -0.0534
H36 H 0.4503 0.3275 -0.1087
C20 C 0.42897(19) 0.3818(2) 0.05614(18)
H37 H 0.3882 0.3941 0.1061
H38 H 0.4279 0.4440 0.0194
H39 H 0.4957 0.3678 0.0748
H40 H 0.386(2) 0.192(2) 0.0635(18)
loop_
_geom_bond_atom_site_label_1
_geom_bond_atom_site_label_2
_geom_bond_site_symmetry_1
_geom_bond_site_symmetry_2
O1 H1 1_555 1_555
B1 H2 1_555 1_555
B2 B1 1_555 1_555
H3 B2 1_555 1_555
B3 B1 1_555 1_555
H4 B3 1_555 1_555
B4 B1 1_555 1_555
H5 B4 1_555 1_555
B5 B1 1_555 1_555
H6 B5 1_555 1_555
B6 B1 1_555 1_555
H7 B6 1_555 1_555
B7 B3 1_555 1_555
B8 B4 1_555 1_555
H8 B8 1_555 1_555
B9 B5 1_555 1_555
H9 B9 1_555 1_555
B10 B2 1_555 1_555
H10 B10 1_555 1_555
C1 B2 1_555 1_555
C2 C1 1_555 1_555
H11 C2 1_555 1_555
H12 C2 1_555 1_555
C3 C2 1_555 1_555
H13 C3 1_555 1_555
H14 C3 1_555 1_555
C4 C3 1_555 1_555
H15 C4 1_555 1_555
H16 C4 1_555 1_555
C5 C4 1_555 1_555
H17 C5 1_555 1_555
H18 C5 1_555 1_555
C6 O1 1_555 1_555
H19 C6 1_555 1_555
H20 B7 1_555 1_555
H21 B9 1_555 1_555
N1 C7 1_555 1_555
N2 C15 1_555 1_555
C7 C8 1_555 1_555
C8 H22 1_555 1_555
C9 C8 1_555 1_555
H23 C9 1_555 1_555
C10 C9 1_555 1_555
H24 C10 1_555 1_555
C11 C10 1_555 1_555
C12 C11 1_555 1_555
H25 C12 1_555 1_555
C13 C12 1_555 1_555
H26 C13 1_555 1_555
C14 C13 1_555 1_555
H27 C14 1_555 1_555
C15 C14 1_555 1_555
C16 C7 1_555 1_555
C17 N1 1_555 1_555
H28 C17 1_555 1_555
H29 C17 1_555 1_555
H30 C17 1_555 1_555
C18 N1 1_555 1_555
H31 C18 1_555 1_555
H32 C18 1_555 1_555
H33 C18 1_555 1_555
C19 N2 1_555 1_555
H34 C19 1_555 1_555
H35 C19 1_555 1_555
H36 C19 1_555 1_555
C20 N2 1_555 1_555
H37 C20 1_555 1_555
H38 C20 1_555 1_555
H39 C20 1_555 1_555
H40 N1 1_555 1_555
B2 B3 1_555 1_555
B2 B6 1_555 1_555
B3 B4 1_555 1_555
B3 C1 1_555 1_555
B4 B5 1_555 1_555
B4 B7 1_555 1_555
B5 B6 1_555 1_555
B5 B8 1_555 1_555
B6 B9 1_555 1_555
B6 B10 1_555 1_555
B7 B8 1_555 1_555
B7 C1 1_555 1_555
B7 C6 1_555 1_555
B8 B9 1_555 1_555
B8 H20 1_555 1_555
B9 B10 1_555 1_555
B10 C1 1_555 1_555
B10 H21 1_555 1_555
C5 C6 1_555 1_555
C11 C16 1_555 1_555
C15 C16 1_555 1_555

#END
