
#######################################################################
#
#                 Cambridge Crystallographic Data Centre
#                                CCDC 
#
#######################################################################
#
# If this CIF has been generated from an entry in the Cambridge 
# Structural Database, then it will include bibliographic, chemical, 
# crystal, experimental, refinement or atomic coordinate data resulting 
# from the CCDC's data processing and validation procedures.
#
#######################################################################

data_QIJBEQ
_chemical_formula_moiety         'C34 H32 N8 O4 S2,3(C5 H5 N1)'
_chemical_name_systematic        
"bis(2,2'-Ethylenedioxydibenzaldehyde bis(thiocarbohydrazide)) pyridine solvate"
_symmetry_cell_setting           monoclinic
_symmetry_space_group_name_H-M   'P 21/c'
_symmetry_Int_Tables_number      14
_space_group_name_Hall           '-P 2ybc'
loop_
_symmetry_equiv_pos_site_id
_symmetry_equiv_pos_as_xyz
1 x,y,z
2 x,1/2-y,1/2+z
3 -x,-y,-z
4 -x,1/2+y,1/2-z
_cell_length_a                   12.1752(2)
_cell_length_b                   22.20290(10)
_cell_length_c                   19.8479(4)
_cell_angle_alpha                90
_cell_angle_beta                 117.1680(10)
_cell_angle_gamma                90
_cell_volume                     4773.42
_exptl_crystal_colour            yellow
_exptl_crystal_description       block
_cell_formula_units_Z            4
_exptl_crystal_recrystallization_method benzene/pyridine
loop_
_atom_site_label
_atom_site_type_symbol
_atom_site_fract_x
_atom_site_fract_y
_atom_site_fract_z
S1 S 0.04919(7) 0.67961(4) 0.17047(4)
S2 S 0.38483(9) 0.58139(4) 0.14943(5)
O1 O -0.0180(2) 0.43136(10) 0.36967(13)
O2 O 0.01687(18) 0.39170(10) 0.24825(12)
O3 O 0.7069(3) 0.70860(14) 0.52167(18)
O4 O 0.5806(7) 0.7983(6) 0.4807(5)
N1 N 0.0782(2) 0.60680(11) 0.28071(13)
H1 H 0.0177 0.5870 0.2465
N2 N 0.1309(2) 0.58616(11) 0.35436(13)
N3 N 0.2141(2) 0.68502(10) 0.31799(13)
H2 H 0.2409 0.6722 0.3637
N4 N 0.2681(2) 0.73424(11) 0.30285(13)
N5 N 0.2240(2) 0.50083(11) 0.19091(13)
N6 N 0.3069(2) 0.53812(11) 0.24661(13)
H3 H 0.3119 0.5375 0.2913
N7 N 0.4556(2) 0.60969(11) 0.29171(13)
H4 H 0.4979 0.6382 0.2855
N8 N 0.4655(2) 0.59938(11) 0.36251(13)
C1 C 0.1186(2) 0.65706(13) 0.26042(15)
C2 C 0.0815(3) 0.53824(14) 0.36357(17)
H5 H 0.0166 0.5212 0.3213
C3 C 0.1212(3) 0.50868(14) 0.43656(17)
C4 C 0.2079(3) 0.53332(17) 0.50498(19)
H6 H 0.2430 0.5706 0.5053
C5 C 0.2419(4) 0.5028(2) 0.5721(2)
H7 H 0.2988 0.5198 0.6175
C6 C 0.1917(4) 0.4473(2) 0.5720(2)
H8 H 0.2160 0.4266 0.6174
C7 C 0.1059(3) 0.42210(17) 0.5054(2)
H9 H 0.0717 0.3847 0.5058
C8 C 0.0706(3) 0.45245(15) 0.43812(18)
C9 C -0.0163(3) 0.36919(15) 0.3533(2)
H10 H -0.0662 0.3466 0.3710
H11 H 0.0676 0.3539 0.3787
C10 C -0.0664(3) 0.36210(15) 0.27001(19)
H12 H -0.0729 0.3197 0.2567
H13 H -0.1478 0.3801 0.2442
C11 C -0.0108(3) 0.39220(13) 0.17310(17)
C12 C -0.1066(3) 0.35894(14) 0.1176(2)
H14 H -0.1571 0.3352 0.1305
C13 C -0.1262(3) 0.36126(16) 0.0441(2)
H15 H -0.1911 0.3395 0.0073
C14 C -0.0522(3) 0.39498(17) 0.0234(2)
H16 H -0.0648 0.3950 -0.0265
C15 C 0.0419(3) 0.42911(15) 0.07811(17)
H17 H 0.0920 0.4525 0.0644
C16 C 0.0625(2) 0.42887(12) 0.15315(16)
C17 C 0.1554(2) 0.46877(12) 0.20940(16)
H18 H 0.1640 0.4706 0.2584
C18 C 0.3800(3) 0.57547(13) 0.23124(16)
C19 C 0.5452(3) 0.63225(14) 0.41509(16)
H19 H 0.5875 0.6613 0.4023
C20 C 0.5720(3) 0.62590(17) 0.49349(18)
C21 C 0.5175(4) 0.5820(2) 0.5174(2)
H20 H 0.4610 0.5559 0.4819
C22 C 0.5449(4) 0.5756(2) 0.5937(3)
H21 H 0.5082 0.5453 0.6089
C23 C 0.6269(4) 0.6150(3) 0.6454(2)
H22 H 0.6449 0.6115 0.6961
C24 C 0.6819(3) 0.6585(2) 0.6244(2)
H23 H 0.7385 0.6840 0.6609
C25 C 0.6549(3) 0.6660(2) 0.5481(2)
C26 C 0.7342(9) 0.7540(3) 0.5787(4)
H24 H 0.8189 0.7523 0.6181
H25 H 0.6779 0.7532 0.6009
C27 C 0.7115(8) 0.8045(5) 0.5273(5)
H26 H 0.7323 0.8426 0.5541
H27 H 0.7567 0.8004 0.4980
C30 C 0.5314(3) 0.83009(15) 0.41413(19)
C31 C 0.5997(4) 0.87649(18) 0.4058(3)
H32 H 0.6679 0.8913 0.4480
C32 C 0.5680(4) 0.90064(19) 0.3365(3)
H33 H 0.6148 0.9318 0.3316
C33 C 0.4671(4) 0.87926(19) 0.2734(3)
H34 H 0.4457 0.8959 0.2260
C34 C 0.3980(3) 0.83291(15) 0.28104(19)
H35 H 0.3293 0.8188 0.2385
C35 C 0.4291(3) 0.80737(13) 0.35059(17)
C36 C 0.3612(3) 0.75629(13) 0.35959(16)
H36 H 0.3863 0.7396 0.4074
N9 N 0.8541(2) 0.54179(12) 0.16849(15)
C37 C 0.7659(4) 0.51624(18) 0.1801(2)
H37 H 0.7690 0.5199 0.2276
C38 C 0.6686(4) 0.4840(2) 0.1242(3)
H38 H 0.6072 0.4671 0.1337
C39 C 0.6665(4) 0.4781(2) 0.0549(3)
H39 H 0.6037 0.4562 0.0167
C40 C 0.7556(4) 0.50391(16) 0.0422(2)
H40 H 0.7553 0.5005 -0.0046
C41 C 0.8458(3) 0.53512(15) 0.0999(2)
H41 H 0.9064 0.5532 0.0905
N10 N 0.2669(3) 0.69707(14) 0.48367(16)
C42 C 0.3624(4) 0.71843(18) 0.5426(2)
H42 H 0.4392 0.7155 0.5435
C43 C 0.3565(4) 0.74533(19) 0.6041(2)
H43 H 0.4278 0.7598 0.6445
C44 C 0.2473(5) 0.7501(2) 0.6045(2)
H44 H 0.2407 0.7681 0.6448
C45 C 0.1442(4) 0.72752(18) 0.5428(3)
H45 H 0.0666 0.7300 0.5409
C46 C 0.1583(4) 0.70119(17) 0.4842(2)
H46 H 0.0889 0.6857 0.4433
N11 N 0.6473(2) 0.69264(13) 0.28693(16)
C47 C 0.7047(4) 0.74042(18) 0.3280(2)
H47 H 0.6680 0.7609 0.3534
C48 C 0.8160(4) 0.76124(19) 0.3349(2)
H48 H 0.8537 0.7949 0.3644
C49 C 0.8693(3) 0.7315(2) 0.2978(2)
H49 H 0.9449 0.7441 0.3018
C50 C 0.8110(3) 0.68309(18) 0.2547(2)
H50 H 0.8452 0.6624 0.2281
C51 C 0.7014(3) 0.66525(16) 0.25110(18)
H51 H 0.6625 0.6318 0.2216
O5? O 0.5355(6) 0.8100(5) 0.4816(3)
C28? C 0.7447(7) 0.7705(3) 0.5477(5)
H28? H 0.8150 0.7690 0.5976
H29? H 0.7720 0.7895 0.5139
C29? C 0.6494(6) 0.8085(3) 0.5517(4)
H30? H 0.6320 0.7937 0.5918
H31? H 0.6809 0.8492 0.5648
loop_
_geom_bond_atom_site_label_1
_geom_bond_atom_site_label_2
_geom_bond_site_symmetry_1
_geom_bond_site_symmetry_2
S1 C1 1_555 1_555
S2 C18 1_555 1_555
O1 C8 1_555 1_555
O2 C10 1_555 1_555
O3 C25 1_555 1_555
O4 C27 1_555 1_555
N1 H1 1_555 1_555
N2 N1 1_555 1_555
N3 H2 1_555 1_555
N4 N3 1_555 1_555
N5 N6 1_555 1_555
N6 H3 1_555 1_555
N7 H4 1_555 1_555
N8 N7 1_555 1_555
C1 N1 1_555 1_555
C2 N2 1_555 1_555
H5 C2 1_555 1_555
C3 C2 1_555 1_555
C4 C3 1_555 1_555
H6 C4 1_555 1_555
C5 C4 1_555 1_555
H7 C5 1_555 1_555
C6 C5 1_555 1_555
H8 C6 1_555 1_555
C7 C6 1_555 1_555
H9 C7 1_555 1_555
C8 C3 1_555 1_555
C9 O1 1_555 1_555
H10 C9 1_555 1_555
H11 C9 1_555 1_555
C10 C9 1_555 1_555
H12 C10 1_555 1_555
H13 C10 1_555 1_555
C11 O2 1_555 1_555
C12 C11 1_555 1_555
H14 C12 1_555 1_555
C13 C12 1_555 1_555
H15 C13 1_555 1_555
C14 C13 1_555 1_555
H16 C14 1_555 1_555
C15 C14 1_555 1_555
H17 C15 1_555 1_555
C16 C11 1_555 1_555
C17 N5 1_555 1_555
H18 C17 1_555 1_555
C18 N6 1_555 1_555
C19 N8 1_555 1_555
H19 C19 1_555 1_555
C20 C19 1_555 1_555
C21 C20 1_555 1_555
H20 C21 1_555 1_555
C22 C21 1_555 1_555
H21 C22 1_555 1_555
C23 C22 1_555 1_555
H22 C23 1_555 1_555
C24 C23 1_555 1_555
H23 C24 1_555 1_555
C25 C20 1_555 1_555
C26 O3 1_555 1_555
H24 C26 1_555 1_555
H25 C26 1_555 1_555
C27 C26 1_555 1_555
H26 C27 1_555 1_555
H27 C27 1_555 1_555
C30 O4 1_555 1_555
C31 C30 1_555 1_555
H32 C31 1_555 1_555
C32 C31 1_555 1_555
H33 C32 1_555 1_555
C33 C32 1_555 1_555
H34 C33 1_555 1_555
C34 C33 1_555 1_555
H35 C34 1_555 1_555
C35 C30 1_555 1_555
C36 N4 1_555 1_555
H36 C36 1_555 1_555
N9 C37 1_555 1_555
C37 H37 1_555 1_555
C38 C37 1_555 1_555
H38 C38 1_555 1_555
C39 C38 1_555 1_555
H39 C39 1_555 1_555
C40 C39 1_555 1_555
H40 C40 1_555 1_555
C41 N9 1_555 1_555
H41 C41 1_555 1_555
N10 C42 1_555 1_555
C42 H42 1_555 1_555
C43 C42 1_555 1_555
H43 C43 1_555 1_555
C44 C43 1_555 1_555
H44 C44 1_555 1_555
C45 C44 1_555 1_555
H45 C45 1_555 1_555
C46 N10 1_555 1_555
H46 C46 1_555 1_555
N11 C47 1_555 1_555
C47 H47 1_555 1_555
C48 C47 1_555 1_555
H48 C48 1_555 1_555
C49 C48 1_555 1_555
H49 C49 1_555 1_555
C50 C49 1_555 1_555
H50 C50 1_555 1_555
C51 N11 1_555 1_555
H51 C51 1_555 1_555
N3 C1 1_555 1_555
N7 C18 1_555 1_555
C7 C8 1_555 1_555
C15 C16 1_555 1_555
C16 C17 1_555 1_555
C24 C25 1_555 1_555
C34 C35 1_555 1_555
C35 C36 1_555 1_555
C40 C41 1_555 1_555
C45 C46 1_555 1_555
C50 C51 1_555 1_555

#END
