
#######################################################################
#
#                 Cambridge Crystallographic Data Centre
#                                CCDC 
#
#######################################################################
#
# If this CIF has been generated from an entry in the Cambridge 
# Structural Database, then it will include bibliographic, chemical, 
# crystal, experimental, refinement or atomic coordinate data resulting 
# from the CCDC's data processing and validation procedures.
#
#######################################################################

data_QIJCUH
_chemical_formula_moiety         'C10 H8 N2,C6 H4 O4'
_chemical_name_systematic        
"2,5-Dihydroxy-1,4-benzoquinone 4,4'-bipyridine"
_symmetry_cell_setting           monoclinic
_symmetry_space_group_name_H-M   'C 2/c'
_symmetry_Int_Tables_number      15
_space_group_name_Hall           '-C 2yn'
loop_
_symmetry_equiv_pos_site_id
_symmetry_equiv_pos_as_xyz
1 x,y,z
2 1/2+x,1/2+y,z
3 x,-y,1/2+z
4 1/2+x,1/2-y,1/2+z
5 -x,-y,-z
6 1/2-x,1/2-y,-z
7 -x,y,1/2-z
8 1/2-x,1/2+y,1/2-z
_cell_length_a                   20.8676(17)
_cell_length_b                   7.0151(7)
_cell_length_c                   9.1087(8)
_cell_angle_alpha                90
_cell_angle_beta                 92.843(5)
_cell_angle_gamma                90
_cell_volume                     1331.77
_exptl_crystal_colour            orange
_exptl_crystal_description       needle
_cell_formula_units_Z            4
loop_
_atom_site_label
_atom_site_type_symbol
_atom_site_fract_x
_atom_site_fract_y
_atom_site_fract_z
C1 C 0.18925(6) 0.30700(18) 0.93241(14)
O1 O 0.13723(5) 0.34454(16) 0.86910(11)
C2 C 0.23774(6) 0.19269(19) 0.85043(14)
O2 O 0.22213(5) 0.14586(16) 0.71195(10)
H1 H 0.1813(11) 0.193(3) 0.676(3)
C3 C 0.20608(6) 0.3629(2) 1.08261(14)
H2 H 0.1752(8) 0.438(2) 1.1337(18)
C3E C 0.29392(6) 0.1371(2) 0.91739(14)
C1E C 0.31075(6) 0.19300(18) 1.06759(14)
O1E O 0.36277(5) 0.15546(16) 1.13090(11)
C2E C 0.26226(6) 0.30731(19) 1.14957(14)
O2E O 0.27787(5) 0.35414(16) 1.28805(10)
H1E H 0.3187(11) 0.307(3) 1.324(3)
H2E H 0.3248(8) 0.062(2) 0.8663(18)
N1 N 0.11795(6) 0.21530(17) 0.54574(13)
C4 C 0.13339(7) 0.1763(2) 0.40779(16)
H3 H 0.1769(8) 0.151(2) 0.3935(18)
C5 C 0.08876(7) 0.1733(2) 0.28926(15)
H4 H 0.1015(8) 0.136(2) 0.192(2)
C6 C 0.02457(6) 0.21488(18) 0.31218(14)
C7 C 0.00852(7) 0.2576(2) 0.45608(15)
H5 H -0.0336(9) 0.288(3) 0.481(2)
C8 C 0.05649(7) 0.2554(2) 0.56801(15)
H6 H 0.0478(9) 0.285(3) 0.670(2)
C6F C -0.02457(6) 0.21488(18) 0.18782(14)
C5F C -0.08876(7) 0.1733(2) 0.21074(15)
C4F C -0.13339(7) 0.1763(2) 0.09221(16)
N1F N -0.11795(6) 0.21530(17) -0.04574(13)
C8F C -0.05649(7) 0.2554(2) -0.06801(15)
C7F C -0.00852(7) 0.2576(2) 0.04392(15)
H5F H 0.0336(9) 0.288(3) 0.019(2)
H6F H -0.0478(9) 0.285(3) -0.170(2)
H3F H -0.1769(8) 0.151(2) 0.1065(18)
H4F H -0.1015(8) 0.136(2) 0.308(2)
loop_
_geom_bond_atom_site_label_1
_geom_bond_atom_site_label_2
_geom_bond_site_symmetry_1
_geom_bond_site_symmetry_2
C1 O1 1_555 1_555
C2 C1 1_555 1_555
O2 C2 1_555 1_555
H1 O2 1_555 1_555
C3 C1 1_555 1_555
H2 C3 1_555 1_555
N1 C4 1_555 1_555
C4 H3 1_555 1_555
C5 C4 1_555 1_555
H4 C5 1_555 1_555
C6 C5 1_555 1_555
C7 C6 1_555 1_555
H5 C7 1_555 1_555
C8 N1 1_555 1_555
H6 C8 1_555 1_555
C3E C2 1_555 1_555
C1E C3E 1_555 1_555
O1E C1E 1_555 1_555
C2E C3 1_555 1_555
O2E C2E 1_555 1_555
H1E O2E 1_555 1_555
H2E C3E 1_555 1_555
C6F C6 1_555 1_555
C5F C6F 1_555 1_555
C4F C5F 1_555 1_555
N1F C4F 1_555 1_555
C8F N1F 1_555 1_555
C7F C6F 1_555 1_555
H5F C7F 1_555 1_555
H6F C8F 1_555 1_555
H3F C4F 1_555 1_555
H4F C5F 1_555 1_555
C7 C8 1_555 1_555
C1E C2E 1_555 1_555
C8F C7F 1_555 1_555

#END
