
#######################################################################
#
#                 Cambridge Crystallographic Data Centre
#                                CCDC 
#
#######################################################################
#
# If this CIF has been generated from an entry in the Cambridge 
# Structural Database, then it will include bibliographic, chemical, 
# crystal, experimental, refinement or atomic coordinate data resulting 
# from the CCDC's data processing and validation procedures.
#
#######################################################################

data_QIJDOF
_chemical_formula_moiety         'C23 H22 N2 O2'
_chemical_name_systematic        
(1,2,3,4,4a,11a-hexahydrobenzo[b]cyclohepta[e][1,4]oxazin-11(10aH)-yl)(quinolin-2-yl)methanone
_symmetry_cell_setting           monoclinic
_symmetry_space_group_name_H-M   'P 21'
_symmetry_Int_Tables_number      4
_space_group_name_Hall           'P 2yb'
loop_
_symmetry_equiv_pos_site_id
_symmetry_equiv_pos_as_xyz
1 x,y,z
2 -x,1/2+y,-z
_cell_length_a                   10.0098(5)
_cell_length_b                   5.6235(4)
_cell_length_c                   16.8326(9)
_cell_angle_alpha                90
_cell_angle_beta                 92.531(5)
_cell_angle_gamma                90
_cell_volume                     946.585
_exptl_crystal_colour            'light colorless'
_exptl_crystal_description       plate
_cell_formula_units_Z            2
loop_
_atom_site_label
_atom_site_type_symbol
_atom_site_fract_x
_atom_site_fract_y
_atom_site_fract_z
O1 O 0.7465(2) 0.4563(5) 0.08934(11)
O2 O 0.8100(2) 0.4141(6) 0.35909(12)
N1 N 0.4708(2) 0.4715(5) 0.34729(13)
N2 N 0.6943(2) 0.5309(5) 0.24757(13)
C1 C 0.5780(3) 0.3367(6) 0.35582(15)
C2 C 0.5791(3) 0.4898(5) 0.19261(15)
H1 H 0.5282 0.3586 0.2148
C3 C 0.7043(3) 0.4288(6) 0.32102(15)
C4 C 0.3558(3) 0.3949(6) 0.37932(15)
C5 C 0.5310(3) 0.2946(7) 0.06311(18)
H2 H 0.5618 0.2264 0.0170
C6 C 0.4659(3) 0.0416(7) 0.42896(18)
H3 H 0.4651 -0.1025 0.4560
C7 C 0.4840(3) 0.6940(7) 0.18146(17)
H4 H 0.5100 0.8472 0.1961
C8 C 0.8178(3) 0.6298(6) 0.21609(16)
H5 H 0.8895 0.5129 0.2253
C9 C 0.7991(3) 0.6680(6) 0.12732(17)
H6 H 0.7354 0.7982 0.1176
C10 C 0.3485(3) 0.1779(7) 0.42140(16)
C11 C 0.3919(4) 0.2703(7) 0.0786(2)
H7 H 0.3495 0.1325 0.0603
C12 C 0.5810(3) 0.1186(7) 0.39698(17)
H8 H 0.6593 0.0297 0.4022
C13 C 0.6193(3) 0.4103(6) 0.11144(15)
C14 C 0.3609(3) 0.6521(8) 0.1501(2)
H9 H 0.2998 0.7767 0.1494
C15 C 0.9303(3) 0.7333(8) 0.0916(2)
H10 H 0.9165 0.7581 0.0348
H11 H 0.9940 0.6046 0.0998
C16 C 0.2406(3) 0.5366(8) 0.36883(19)
H12 H 0.2449 0.6802 0.3417
C17 C 0.8630(3) 0.8629(7) 0.2544(2)
H13 H 0.8739 0.8429 0.3115
H14 H 0.7959 0.9845 0.2436
C18 C 0.9962(4) 0.9394(9) 0.2206(2)
H15 H 1.0229 1.0916 0.2433
H16 H 1.0646 0.8239 0.2357
C19 C 0.3168(3) 0.4277(9) 0.1173(2)
H17 H 0.2277 0.3874 0.1234
C20 C 0.2255(4) 0.1115(8) 0.4532(2)
H18 H 0.2198 -0.0281 0.4825
C21 C 0.1150(4) 0.2518(10) 0.4410(2)
H19 H 0.0341 0.2056 0.4613
C22 C 0.9856(4) 0.9602(8) 0.1307(2)
H20 H 1.0734 0.9931 0.1112
H21 H 0.9276 1.0926 0.1160
C23 C 0.1226(3) 0.4637(10) 0.3984(2)
H22 H 0.0463 0.5564 0.3899
loop_
_geom_bond_atom_site_label_1
_geom_bond_atom_site_label_2
_geom_bond_site_symmetry_1
_geom_bond_site_symmetry_2
O1 C9 1_555 1_555
O2 C3 1_555 1_555
N1 C1 1_555 1_555
N2 C2 1_555 1_555
C1 C3 1_555 1_555
C2 H1 1_555 1_555
C3 N2 1_555 1_555
C4 N1 1_555 1_555
C5 H2 1_555 1_555
C6 H3 1_555 1_555
C7 C2 1_555 1_555
H4 C7 1_555 1_555
C8 N2 1_555 1_555
H5 C8 1_555 1_555
C9 C8 1_555 1_555
H6 C9 1_555 1_555
C10 C4 1_555 1_555
C11 C5 1_555 1_555
H7 C11 1_555 1_555
C12 C1 1_555 1_555
H8 C12 1_555 1_555
C13 O1 1_555 1_555
C14 C7 1_555 1_555
H9 C14 1_555 1_555
C15 C9 1_555 1_555
H10 C15 1_555 1_555
H11 C15 1_555 1_555
C16 C4 1_555 1_555
H12 C16 1_555 1_555
C17 C8 1_555 1_555
H13 C17 1_555 1_555
H14 C17 1_555 1_555
C18 C17 1_555 1_555
H15 C18 1_555 1_555
H16 C18 1_555 1_555
C19 C11 1_555 1_555
H17 C19 1_555 1_555
C20 C10 1_555 1_555
H18 C20 1_555 1_555
C21 C20 1_555 1_555
H19 C21 1_555 1_555
C22 C15 1_555 1_555
H20 C22 1_555 1_555
H21 C22 1_555 1_555
C23 C16 1_555 1_555
H22 C23 1_555 1_555
C2 C13 1_555 1_555
C5 C13 1_555 1_555
C6 C10 1_555 1_555
C6 C12 1_555 1_555
C14 C19 1_555 1_555
C18 C22 1_555 1_555
C21 C23 1_555 1_555

#END
