
#######################################################################
#
#                 Cambridge Crystallographic Data Centre
#                                CCDC 
#
#######################################################################
#
# If this CIF has been generated from an entry in the Cambridge 
# Structural Database, then it will include bibliographic, chemical, 
# crystal, experimental, refinement or atomic coordinate data resulting 
# from the CCDC's data processing and validation procedures.
#
#######################################################################

data_QIJGEX
_chemical_formula_moiety         'C30 H50 B20'
_chemical_name_systematic        
1,4-bis-(1-(4-n-butylphenyl)-o-carboran-2-yl)benzene
_symmetry_cell_setting           monoclinic
_symmetry_space_group_name_H-M   'P 21/n'
_symmetry_Int_Tables_number      14
_space_group_name_Hall           '-P 2yn'
loop_
_symmetry_equiv_pos_site_id
_symmetry_equiv_pos_as_xyz
1 x,y,z
2 1/2-x,1/2+y,1/2-z
3 -x,-y,-z
4 1/2+x,1/2-y,1/2+z
_cell_length_a                   11.932(2)
_cell_length_b                   13.890(2)
_cell_length_c                   13.636(2)
_cell_angle_alpha                90
_cell_angle_beta                 114.132(11)
_cell_angle_gamma                90
_cell_volume                     2062.46
_exptl_crystal_colour            colorless
_exptl_crystal_description       Cubic
_cell_formula_units_Z            2
loop_
_atom_site_label
_atom_site_type_symbol
_atom_site_fract_x
_atom_site_fract_y
_atom_site_fract_z
C1 C 0.46043(19) 0.19086(15) 0.26444(16)
C2 C 0.45987(18) 0.18497(15) 0.39087(16)
C3 C 0.48119(18) 0.08837(15) 0.44609(15)
C4 C 0.5970(2) 0.0553(2) 0.5064(2)
H1 H 0.6642 0.0925 0.5122
C5 C 0.3835(2) 0.0326(2) 0.4409(2)
H2 H 0.3037 0.0541 0.4017
C6 C 0.48070(19) 0.09993(16) 0.21458(16)
C7 C 0.5970(2) 0.0723(2) 0.2277(2)
H3 H 0.6640 0.1102 0.2686
C8 C 0.6151(3) -0.0113(2) 0.1806(2)
H4 H 0.6945 -0.0287 0.1911
C9 C 0.5174(3) -0.06997(19) 0.1181(2)
C10 C 0.4019(3) -0.0399(2) 0.1028(2)
H5 H 0.3345 -0.0768 0.0600
C11 C 0.3824(2) 0.04359(19) 0.1492(2)
H6 H 0.3027 0.0621 0.1365
C12 C 0.5411(3) -0.1632(2) 0.0733(2)
H7 H 0.4641 -0.1865 0.0190
H8 H 0.5959 -0.1507 0.0383
C13 C 0.5964(5) -0.2410(3) 0.1562(3)
H9 H 0.6038 -0.2980 0.1182
H10 H 0.6793 -0.2207 0.2018
C14 C 0.5401(6) -0.2701(3) 0.2252(4)
H11 H 0.4563 -0.2884 0.1801
H12 H 0.5359 -0.2140 0.2659
C15 C 0.5950(5) -0.3492(3) 0.3027(4)
H13 H 0.6149 -0.4019 0.2672
H14 H 0.5373 -0.3704 0.3308
H15 H 0.6683 -0.3266 0.3606
B1 B 0.5191(2) 0.28958(19) 0.4600(2)
B2 B 0.3582(2) 0.2672(2) 0.4011(2)
B3 B 0.4151(3) 0.3818(2) 0.3864(3)
B4 B 0.5546(3) 0.3637(2) 0.3703(2)
B5 B 0.5821(2) 0.23870(18) 0.3744(2)
B6 B 0.3235(2) 0.20249(19) 0.2794(2)
B7 B 0.2942(3) 0.3272(2) 0.2750(2)
B8 B 0.4150(3) 0.3882(2) 0.2566(3)
B9 B 0.5194(3) 0.29980(19) 0.2492(2)
B10 B 0.3587(2) 0.2775(2) 0.1903(2)
H16 H 0.568(2) 0.2861(18) 0.545(2)
H17 H 0.310(2) 0.2424(16) 0.4502(18)
H18 H 0.395(3) 0.446(2) 0.424(2)
H19 H 0.637(3) 0.415(2) 0.410(2)
H20 H 0.674(2) 0.1975(16) 0.4051(19)
H21 H 0.260(2) 0.1469(15) 0.2530(17)
H22 H 0.201(2) 0.3542(19) 0.242(2)
H23 H 0.394(3) 0.452(2) 0.206(2)
H24 H 0.574(2) 0.2997(17) 0.201(2)
H25 H 0.312(3) 0.2614(18) 0.100(2)
C1B C 0.53957(19) -0.19086(15) 0.73556(16)
C2B C 0.54013(18) -0.18497(15) 0.60913(16)
C3B C 0.51881(18) -0.08837(15) 0.55391(15)
C4B C 0.4030(2) -0.0553(2) 0.4936(2)
H1B H 0.3358 -0.0925 0.4878
C5B C 0.6165(2) -0.0326(2) 0.5591(2)
H2B H 0.6963 -0.0541 0.5983
C6B C 0.51930(19) -0.09993(16) 0.78542(16)
C7B C 0.4030(2) -0.0723(2) 0.7723(2)
H3B H 0.3360 -0.1102 0.7314
C8B C 0.3849(3) 0.0113(2) 0.8194(2)
H4B H 0.3055 0.0287 0.8089
C9B C 0.4826(3) 0.06997(19) 0.8819(2)
C10B C 0.5981(3) 0.0399(2) 0.8972(2)
H5B H 0.6655 0.0768 0.9400
C11B C 0.6176(2) -0.04359(19) 0.8508(2)
H6B H 0.6973 -0.0621 0.8635
C12B C 0.4589(3) 0.1632(2) 0.9267(2)
H7B H 0.5359 0.1865 0.9810
H8B H 0.4041 0.1507 0.9617
C13B C 0.4036(5) 0.2410(3) 0.8438(3)
H9B H 0.3962 0.2980 0.8818
H10B H 0.3207 0.2207 0.7982
C14B C 0.4599(6) 0.2701(3) 0.7748(4)
H11B H 0.5437 0.2884 0.8199
H12B H 0.4641 0.2140 0.7341
C15B C 0.4050(5) 0.3492(3) 0.6973(4)
H13B H 0.3851 0.4019 0.7328
H14B H 0.4627 0.3704 0.6692
H15B H 0.3317 0.3266 0.6394
B1B B 0.4809(2) -0.28958(19) 0.5400(2)
B2B B 0.6418(2) -0.2672(2) 0.5989(2)
B3B B 0.5849(3) -0.3818(2) 0.6136(3)
B4B B 0.4454(3) -0.3637(2) 0.6297(2)
B5B B 0.4179(2) -0.23870(18) 0.6256(2)
B6B B 0.6765(2) -0.20249(19) 0.7206(2)
B7B B 0.7058(3) -0.3272(2) 0.7250(2)
B8B B 0.5850(3) -0.3882(2) 0.7434(3)
B9B B 0.4806(3) -0.29980(19) 0.7508(2)
B10B B 0.6413(2) -0.2775(2) 0.8097(2)
H16B H 0.432(2) -0.2861(18) 0.455(2)
H17B H 0.690(2) -0.2424(16) 0.5498(18)
H18B H 0.605(3) -0.446(2) 0.576(2)
H19B H 0.363(3) -0.415(2) 0.590(2)
H20B H 0.326(2) -0.1975(16) 0.5949(19)
H21B H 0.740(2) -0.1469(15) 0.7470(17)
H22B H 0.799(2) -0.3542(19) 0.758(2)
H23B H 0.606(3) -0.452(2) 0.794(2)
H24B H 0.426(2) -0.2997(17) 0.799(2)
H25B H 0.688(3) -0.2614(18) 0.900(2)
loop_
_geom_bond_atom_site_label_1
_geom_bond_atom_site_label_2
_geom_bond_site_symmetry_1
_geom_bond_site_symmetry_2
C1 C2 1_555 1_555
C2 C3 1_555 1_555
C3 C4 1_555 1_555
C4 H1 1_555 1_555
C5 C3 1_555 1_555
H2 C5 1_555 1_555
C6 C1 1_555 1_555
C7 C6 1_555 1_555
H3 C7 1_555 1_555
C8 C7 1_555 1_555
H4 C8 1_555 1_555
C9 C8 1_555 1_555
C10 C9 1_555 1_555
H5 C10 1_555 1_555
C11 C6 1_555 1_555
H6 C11 1_555 1_555
C12 C9 1_555 1_555
H7 C12 1_555 1_555
H8 C12 1_555 1_555
C13 C12 1_555 1_555
H9 C13 1_555 1_555
H10 C13 1_555 1_555
C14 C13 1_555 1_555
H11 C14 1_555 1_555
H12 C14 1_555 1_555
C15 C14 1_555 1_555
H13 C15 1_555 1_555
H14 C15 1_555 1_555
H15 C15 1_555 1_555
B1 C2 1_555 1_555
B2 C2 1_555 1_555
B3 B1 1_555 1_555
B4 B1 1_555 1_555
B5 C1 1_555 1_555
B6 C1 1_555 1_555
B7 B2 1_555 1_555
B8 B3 1_555 1_555
B9 C1 1_555 1_555
B10 C1 1_555 1_555
H16 B1 1_555 1_555
H17 B2 1_555 1_555
H18 B3 1_555 1_555
H19 B4 1_555 1_555
H20 B5 1_555 1_555
H21 B6 1_555 1_555
H22 B7 1_555 1_555
H23 B8 1_555 1_555
H24 B9 1_555 1_555
H25 B10 1_555 1_555
C1B C2B 1_555 1_555
C2B C3B 1_555 1_555
C3B C4B 1_555 1_555
C4B C5 1_555 1_555
H1B C4B 1_555 1_555
C5B C4 1_555 1_555
H2B C5B 1_555 1_555
C6B C1B 1_555 1_555
C7B C6B 1_555 1_555
H3B C7B 1_555 1_555
C8B C7B 1_555 1_555
H4B C8B 1_555 1_555
C9B C8B 1_555 1_555
C10B C9B 1_555 1_555
H5B C10B 1_555 1_555
C11B C6B 1_555 1_555
H6B C11B 1_555 1_555
C12B C9B 1_555 1_555
H7B C12B 1_555 1_555
H8B C12B 1_555 1_555
C13B C12B 1_555 1_555
H9B C13B 1_555 1_555
H10B C13B 1_555 1_555
C14B C13B 1_555 1_555
H11B C14B 1_555 1_555
H12B C14B 1_555 1_555
C15B C14B 1_555 1_555
H13B C15B 1_555 1_555
H14B C15B 1_555 1_555
H15B C15B 1_555 1_555
B1B C2B 1_555 1_555
B2B C2B 1_555 1_555
B3B B1B 1_555 1_555
B4B B1B 1_555 1_555
B5B C1B 1_555 1_555
B6B C1B 1_555 1_555
B7B B2B 1_555 1_555
B8B B3B 1_555 1_555
B9B C1B 1_555 1_555
B10B C1B 1_555 1_555
H16B B1B 1_555 1_555
H17B B2B 1_555 1_555
H18B B3B 1_555 1_555
H19B B4B 1_555 1_555
H20B B5B 1_555 1_555
H21B B6B 1_555 1_555
H22B B7B 1_555 1_555
H23B B8B 1_555 1_555
H24B B9B 1_555 1_555
H25B B10B 1_555 1_555
C2 B5 1_555 1_555
C2 B6 1_555 1_555
C10 C11 1_555 1_555
B1 B2 1_555 1_555
B1 B5 1_555 1_555
B2 B3 1_555 1_555
B2 B6 1_555 1_555
B3 B4 1_555 1_555
B3 B7 1_555 1_555
B4 B5 1_555 1_555
B4 B8 1_555 1_555
B4 B9 1_555 1_555
B5 B9 1_555 1_555
B6 B7 1_555 1_555
B6 B10 1_555 1_555
B7 B8 1_555 1_555
B7 B10 1_555 1_555
B8 B9 1_555 1_555
B8 B10 1_555 1_555
B9 B10 1_555 1_555
C2B B5B 1_555 1_555
C2B B6B 1_555 1_555
C3B C5B 1_555 1_555
C10B C11B 1_555 1_555
B1B B2B 1_555 1_555
B1B B5B 1_555 1_555
B2B B3B 1_555 1_555
B2B B6B 1_555 1_555
B3B B4B 1_555 1_555
B3B B7B 1_555 1_555
B4B B5B 1_555 1_555
B4B B8B 1_555 1_555
B4B B9B 1_555 1_555
B5B B9B 1_555 1_555
B6B B7B 1_555 1_555
B6B B10B 1_555 1_555
B7B B8B 1_555 1_555
B7B B10B 1_555 1_555
B8B B9B 1_555 1_555
B8B B10B 1_555 1_555
B9B B10B 1_555 1_555

#END
