
#######################################################################
#
#                 Cambridge Crystallographic Data Centre
#                                CCDC 
#
#######################################################################
#
# If this CIF has been generated from an entry in the Cambridge 
# Structural Database, then it will include bibliographic, chemical, 
# crystal, experimental, refinement or atomic coordinate data resulting 
# from the CCDC's data processing and validation procedures.
#
#######################################################################

data_QIJHUO
_chemical_formula_moiety         'C32 H26 N6 O6,C1 H4 O1'
_chemical_name_systematic        
'Diethyl 1,4-dioxo-6,9-bis(pyridin-3-ylethynyl)-1,2,3,4,5,10-hexahydro-2,3,4a,10a-tetraazabenzo[g]cyclopenta[cd]azulene-2a,10b-dicarboxylate methanol solvate'
_symmetry_cell_setting           triclinic
_symmetry_space_group_name_H-M   'P -1'
_symmetry_Int_Tables_number      2
_space_group_name_Hall           '-P 1'
loop_
_symmetry_equiv_pos_site_id
_symmetry_equiv_pos_as_xyz
1 x,y,z
2 -x,-y,-z
_cell_length_a                   9.2244(13)
_cell_length_b                   12.2312(17)
_cell_length_c                   14.169(2)
_cell_angle_alpha                85.858(2)
_cell_angle_beta                 73.698(2)
_cell_angle_gamma                75.367(2)
_cell_volume                     1484.58
_cell_formula_units_Z            2
loop_
_atom_site_label
_atom_site_type_symbol
_atom_site_fract_x
_atom_site_fract_y
_atom_site_fract_z
C1 C 0.0798(3) 0.1677(2) -0.42558(18)
H1 H 0.0546 0.1941 -0.4851
C2 C 0.0942(3) 0.0556(2) -0.40265(18)
H2 H 0.0788 0.0060 -0.4455
C3 C 0.1314(3) 0.0153(2) -0.31643(17)
H3 H 0.1417 -0.0622 -0.2990
C4 C 0.1537(2) 0.09100(19) -0.25554(16)
C5 C 0.1356(3) 0.2037(2) -0.28500(18)
H4 H 0.1496 0.2558 -0.2438
C6 C 0.1872(2) 0.05852(18) -0.16294(17)
C7 C 0.2104(2) 0.03836(18) -0.08478(16)
C8 C 0.2386(2) 0.01374(17) 0.01046(15)
C9 C 0.3099(2) 0.08055(17) 0.04978(15)
C10 C 0.3359(2) 0.05455(16) 0.14299(15)
C11 C 0.2943(2) -0.04111(17) 0.19383(15)
C12 C 0.2239(2) -0.10745(17) 0.15314(16)
H5 H 0.1959 -0.1718 0.1878
C13 C 0.1950(2) -0.08020(17) 0.06344(16)
H6 H 0.1455 -0.1249 0.0369
C14 C 0.3286(2) -0.07684(17) 0.28717(16)
C15 C 0.3584(3) -0.11332(18) 0.35991(17)
C16 C 0.3965(3) -0.15910(18) 0.44922(16)
C17 C 0.5200(3) -0.1369(2) 0.47661(17)
H7 H 0.5816 -0.0905 0.4366
C18 C 0.5515(3) -0.1831(2) 0.56251(18)
H8 H 0.6350 -0.1687 0.5825
C19 C 0.4617(3) -0.2498(2) 0.61843(17)
H9 H 0.4848 -0.2809 0.6774
C20 C 0.3114(3) -0.2281(2) 0.51146(19)
H10 H 0.2265 -0.2435 0.4938
C21 C 0.4123(2) 0.12551(16) 0.18799(15)
H11 H 0.4207 0.0930 0.2529
H12 H 0.5194 0.1200 0.1456
C22 C 0.3601(2) 0.17982(16) -0.00944(15)
H13 H 0.4745 0.1673 -0.0235
H14 H 0.3344 0.1836 -0.0731
C23 C 0.1891(2) 0.27823(17) 0.27091(15)
C24 C 0.1735(2) 0.36943(17) 0.01487(15)
C25 C 0.3400(2) 0.32081(16) 0.11822(14)
C26 C 0.5035(2) 0.34186(17) 0.07104(15)
C27 C 0.7554(2) 0.33007(19) 0.08789(17)
H15 H 0.7498 0.4111 0.0950
H16 H 0.7978 0.3098 0.0174
C28 C 0.8567(3) 0.2585(2) 0.14674(18)
H17 H 0.8149 0.2809 0.2160
H18 H 0.9627 0.2690 0.1220
H19 H 0.8585 0.1788 0.1406
C29 C 0.2068(2) 0.42874(17) 0.15816(15)
C30 C 0.2467(2) 0.53409(17) 0.18579(15)
C31 C 0.4092(3) 0.60520(19) 0.2548(2)
H20 H 0.3205 0.6465 0.3072
H21 H 0.4326 0.6579 0.1994
C32 C 0.5480(4) 0.5620(2) 0.2931(2)
H22 H 0.5248 0.5083 0.3467
H23 H 0.5741 0.6252 0.3178
H24 H 0.6363 0.5239 0.2401
N1 N 0.0995(2) 0.24217(18) -0.36813(15)
N2 N 0.3417(3) -0.27381(19) 0.59432(16)
N3 N 0.33105(19) 0.24507(13) 0.20119(12)
N4 N 0.28580(19) 0.28623(13) 0.04136(12)
N5 N 0.1327(2) 0.45581(15) 0.07983(13)
H25 H 0.054(3) 0.513(2) 0.0810(17)
N6 N 0.1162(2) 0.38338(15) 0.24664(13)
H26 H 0.046(3) 0.425(2) 0.2868(18)
O1 O 0.14118(17) 0.22168(13) 0.34154(11)
O2 O 0.12105(17) 0.36487(12) -0.05480(11)
O3 O 0.53382(18) 0.38271(14) -0.00950(12)
O4 O 0.60018(16) 0.30774(12) 0.12669(10)
O5 O 0.16706(18) 0.62705(12) 0.17964(12)
O6 O 0.36939(18) 0.50892(12) 0.22163(12)
C33 C 0.1987(4) 0.4917(3) 0.5243(2)
H27 H 0.2195 0.5656 0.5287
H28 H 0.1496 0.4931 0.4711
H29 H 0.2968 0.4335 0.5107
O7 O 0.0987(3) 0.46743(18) 0.61350(16)
H30 H 0.094(4) 0.381(3) 0.615(3)
loop_
_geom_bond_atom_site_label_1
_geom_bond_atom_site_label_2
_geom_bond_site_symmetry_1
_geom_bond_site_symmetry_2
C1 H1 1_555 1_555
C2 C1 1_555 1_555
H2 C2 1_555 1_555
C3 C2 1_555 1_555
H3 C3 1_555 1_555
C4 C3 1_555 1_555
C5 C4 1_555 1_555
H4 C5 1_555 1_555
C6 C4 1_555 1_555
C7 C6 1_555 1_555
C8 C7 1_555 1_555
C9 C8 1_555 1_555
C10 C9 1_555 1_555
C11 C10 1_555 1_555
C12 C11 1_555 1_555
H5 C12 1_555 1_555
C13 C8 1_555 1_555
H6 C13 1_555 1_555
C14 C11 1_555 1_555
C15 C14 1_555 1_555
C16 C15 1_555 1_555
C17 C16 1_555 1_555
H7 C17 1_555 1_555
C18 C17 1_555 1_555
H8 C18 1_555 1_555
C19 C18 1_555 1_555
H9 C19 1_555 1_555
C20 C16 1_555 1_555
H10 C20 1_555 1_555
C21 C10 1_555 1_555
H11 C21 1_555 1_555
H12 C21 1_555 1_555
C22 C9 1_555 1_555
H13 C22 1_555 1_555
H14 C22 1_555 1_555
C23 N3 1_555 1_555
C24 N4 1_555 1_555
C25 C26 1_555 1_555
C26 O3 1_555 1_555
C27 H15 1_555 1_555
H16 C27 1_555 1_555
C28 C27 1_555 1_555
H17 C28 1_555 1_555
H18 C28 1_555 1_555
H19 C28 1_555 1_555
C29 C25 1_555 1_555
C30 C29 1_555 1_555
C31 H20 1_555 1_555
H21 C31 1_555 1_555
C32 C31 1_555 1_555
H22 C32 1_555 1_555
H23 C32 1_555 1_555
H24 C32 1_555 1_555
N1 C1 1_555 1_555
N2 C19 1_555 1_555
N3 C21 1_555 1_555
N4 C22 1_555 1_555
N5 C24 1_555 1_555
H25 N5 1_555 1_555
N6 C23 1_555 1_555
H26 N6 1_555 1_555
O1 C23 1_555 1_555
O2 C24 1_555 1_555
O4 C26 1_555 1_555
O5 C30 1_555 1_555
O6 C30 1_555 1_555
C33 H27 1_555 1_555
H28 C33 1_555 1_555
H29 C33 1_555 1_555
O7 C33 1_555 1_555
H30 O7 1_555 1_555
C5 N1 1_555 1_555
C12 C13 1_555 1_555
C20 N2 1_555 1_555
C25 N3 1_555 1_555
C25 N4 1_555 1_555
C27 O4 1_555 1_555
C29 N5 1_555 1_555
C29 N6 1_555 1_555
C31 O6 1_555 1_555

#END
