
#######################################################################
#
#                 Cambridge Crystallographic Data Centre
#                                CCDC 
#
#######################################################################
#
# If this CIF has been generated from an entry in the Cambridge 
# Structural Database, then it will include bibliographic, chemical, 
# crystal, experimental, refinement or atomic coordinate data resulting 
# from the CCDC's data processing and validation procedures.
#
#######################################################################

data_QIJJUQ
_chemical_formula_moiety         'C48 H34 N6 O6,2(H2 O1)'
_chemical_name_systematic        
'Diethyl 1,4-dioxo-6,9-bis((4-(pyridin-4-ylethynyl)phenyl)ethynyl)-1,2,3,4,5,10-hexahydro-2,3,4a,10a-tetraazabenzo[g]cyclopenta[cd]azulene-2a,10b-dicarboxylate dihydrate'
_symmetry_cell_setting           triclinic
_symmetry_space_group_name_H-M   'P -1'
_symmetry_Int_Tables_number      2
_space_group_name_Hall           '-P 1'
loop_
_symmetry_equiv_pos_site_id
_symmetry_equiv_pos_as_xyz
1 x,y,z
2 -x,-y,-z
_cell_length_a                   9.118(3)
_cell_length_b                   12.291(4)
_cell_length_c                   20.327(6)
_cell_angle_alpha                82.842(6)
_cell_angle_beta                 79.340(6)
_cell_angle_gamma                75.048(5)
_cell_volume                     2155.82
_exptl_crystal_colour            colorless
_exptl_crystal_description       block
_cell_formula_units_Z            2
loop_
_atom_site_label
_atom_site_type_symbol
_atom_site_fract_x
_atom_site_fract_y
_atom_site_fract_z
C1 C 1.5569(9) 0.8479(10) -0.1095(4)
H1 H 1.5781 0.8975 -0.1464
C2 C 1.4669(9) 0.8859(8) -0.0507(4)
H2 H 1.4270 0.9630 -0.0470
C3 C 1.4362(9) 0.8101(8) 0.0024(3)
C4 C 1.4996(10) 0.6964(9) -0.0057(4)
H3 H 1.4772 0.6439 0.0293
C5 C 1.5895(10) 0.6594(8) -0.0606(4)
H4 H 1.6344 0.5827 -0.0632
C6 C 1.3394(8) 0.8434(8) 0.0647(3)
C7 C 1.2653(8) 0.8663(7) 0.1172(3)
C8 C 1.1753(7) 0.8888(6) 0.1831(3)
C9 C 1.1267(8) 0.9953(6) 0.2047(3)
H5 H 1.1515 1.0560 0.1767
C10 C 1.0423(8) 1.0135(6) 0.2667(3)
H6 H 1.0119 1.0864 0.2805
C11 C 1.0014(6) 0.9272(5) 0.3091(3)
C12 C 1.0501(7) 0.8185(5) 0.2888(3)
H7 H 1.0234 0.7584 0.3168
C13 C 1.1386(8) 0.8002(6) 0.2266(3)
H8 H 1.1744 0.7268 0.2136
C14 C 0.9155(6) 0.9450(4) 0.3753(3)
C15 C 0.8479(6) 0.9555(4) 0.4312(3)
C16 C 0.7655(5) 0.9728(4) 0.4988(2)
C17 C 0.7861(6) 1.0575(4) 0.5336(3)
H9 H 0.8546 1.1011 0.5137
C18 C 0.7062(6) 1.0768(4) 0.5965(2)
H10 H 0.7220 1.1329 0.6192
C19 C 0.6009(5) 1.0134(4) 0.6275(2)
C20 C 0.5806(5) 0.9269(3) 0.5940(2)
C21 C 0.6615(5) 0.9068(3) 0.5292(2)
C22 C 0.5118(6) 1.0431(4) 0.6916(3)
C23 C 0.4360(6) 1.0732(4) 0.7425(3)
C24 C 0.3411(7) 1.1114(5) 0.8036(3)
C25 C 0.3648(8) 1.1987(6) 0.8340(3)
H11 H 0.4442 1.2326 0.8143
C26 C 0.2745(9) 1.2366(7) 0.8923(4)
H12 H 0.2922 1.2963 0.9111
C27 C 0.1575(8) 1.1867(7) 0.9233(3)
C28 C 0.1334(8) 1.0987(7) 0.8938(3)
H13 H 0.0560 1.0633 0.9143
C29 C 0.2228(8) 1.0630(6) 0.8346(3)
H14 H 0.2029 1.0049 0.8150
C30 C 0.0668(9) 1.2241(8) 0.9862(4)
C31 C -0.0070(9) 1.2577(8) 1.0373(4)
C32 C -0.0900(6) 1.2903(5) 1.1000(2)
C33 C -0.0460(6) 1.3702(5) 1.1298(3)
H15 H 0.0336 1.4019 1.1075
C34 C -0.1210(7) 1.4026(5) 1.1929(3)
H16 H -0.0916 1.4560 1.2128
N1 N -0.2400(6) 1.3551(5) 1.2262(2)
C35 C -0.2840(6) 1.2752(5) 1.1964(3)
H17 H -0.3636 1.2435 1.2187
C36 C -0.2090(6) 1.2428(5) 1.1333(3)
H18 H -0.2385 1.1894 1.1134
C37 C 0.4679(5) 0.8570(4) 0.6276(2)
H19 H 0.4201 0.8851 0.6709
H20 H 0.3875 0.8679 0.6005
C38 C 0.6387(5) 0.8152(3) 0.4917(2)
H21 H 0.5321 0.8320 0.4854
H22 H 0.7018 0.8149 0.4477
C39 C 0.6322(5) 0.6967(4) 0.6844(2)
C40 C 0.8145(5) 0.6274(4) 0.5124(2)
C41 C 0.5758(5) 0.6649(3) 0.5820(2)
C42 C 0.6843(5) 0.5545(4) 0.6097(2)
C43 C 0.4345(6) 0.6512(4) 0.5552(2)
C44 C 0.1674(6) 0.6706(5) 0.5710(3)
H23 H 0.1653 0.5916 0.5748
H24 H 0.1688 0.6993 0.5243
C45 C 0.0296(6) 0.7366(6) 0.6138(3)
H25 H 0.0354 0.8140 0.6111
H26 H 0.0271 0.7053 0.6596
H27 H -0.0620 0.7329 0.5983
C46 C 0.6326(6) 0.4442(4) 0.6257(2)
C47 C 0.4278(9) 0.3552(6) 0.6621(5)
H28 H 0.4625 0.3087 0.6244
H29 H 0.4709 0.3128 0.7005
C48 C 0.2682(10) 0.3803(7) 0.6767(5)
H30 H 0.2258 0.4215 0.6385
H31 H 0.2341 0.4254 0.7145
H32 H 0.2346 0.3114 0.6872
N2 N 0.8165(4) 0.5381(3) 0.5584(2)
H33 H 0.8897 0.4777 0.5571
N3 N 0.6782(4) 0.7043(3) 0.52674(17)
N4 N 0.7099(5) 0.5886(3) 0.6715(2)
H34 H 0.7684 0.5450 0.6976
N5 N 0.5361(4) 0.7367(3) 0.63760(17)
N6 N 1.6149(10) 0.7311(11) -0.1109(4)
O1 O 0.6406(4) 0.7474(3) 0.73051(17)
O2 O 0.9149(4) 0.6406(3) 0.46476(17)
O3 O 0.4481(4) 0.6176(3) 0.50146(19)
O4 O 0.3026(4) 0.6834(3) 0.59475(17)
O5 O 0.7210(4) 0.3548(3) 0.6212(2)
O6 O 0.4829(4) 0.4608(3) 0.6455(2)
O7 O 0.0870(6) 0.5183(4) 0.2337(2)
H39 H 0.0886 0.5739 0.2519
H40 H 0.1727 0.4954 0.2122
O8 O 0.7678(12) 0.4441(7) 0.9025(4)
H41 H 0.7757 0.4310 0.8633
H42 H 0.8276 0.3924 0.9205
C49? C -0.0927(6) 1.2913(5) 1.10136(19)
C50? C -0.0241(4) 1.3228(5) 1.1500(3)
H35? H 0.0781 1.3261 1.1371
C51? C -0.0836(6) 1.3471(6) 1.2089(2)
H36? H -0.0278 1.3583 1.2404
N7? N -0.2370(6) 1.3554(5) 1.2221(2)
C52? C -0.3266(4) 1.3407(6) 1.1759(3)
H37? H -0.4329 1.3534 1.1872
C53? C -0.2529(6) 1.3073(6) 1.1135(2)
H38? H -0.3066 1.2959 1.0813
loop_
_geom_bond_atom_site_label_1
_geom_bond_atom_site_label_2
_geom_bond_site_symmetry_1
_geom_bond_site_symmetry_2
C1 H1 1_555 1_555
C2 C1 1_555 1_555
H2 C2 1_555 1_555
C3 C2 1_555 1_555
C4 C3 1_555 1_555
H3 C4 1_555 1_555
C5 C4 1_555 1_555
H4 C5 1_555 1_555
C6 C3 1_555 1_555
C7 C6 1_555 1_555
C8 C7 1_555 1_555
C9 C8 1_555 1_555
H5 C9 1_555 1_555
C10 C9 1_555 1_555
H6 C10 1_555 1_555
C11 C10 1_555 1_555
C12 C11 1_555 1_555
H7 C12 1_555 1_555
C13 C8 1_555 1_555
H8 C13 1_555 1_555
C14 C11 1_555 1_555
C15 C14 1_555 1_555
C16 C15 1_555 1_555
C17 C16 1_555 1_555
H9 C17 1_555 1_555
C18 C17 1_555 1_555
H10 C18 1_555 1_555
C19 C18 1_555 1_555
C20 C19 1_555 1_555
C21 C16 1_555 1_555
C22 C19 1_555 1_555
C23 C22 1_555 1_555
C24 C23 1_555 1_555
C25 C24 1_555 1_555
H11 C25 1_555 1_555
C26 C25 1_555 1_555
H12 C26 1_555 1_555
C27 C26 1_555 1_555
C28 C27 1_555 1_555
H13 C28 1_555 1_555
C29 C24 1_555 1_555
H14 C29 1_555 1_555
C30 C27 1_555 1_555
C31 C30 1_555 1_555
C32 C31 1_555 1_555
C33 C32 1_555 1_555
H15 C33 1_555 1_555
C34 C33 1_555 1_555
H16 C34 1_555 1_555
N1 C34 1_555 1_555
C35 N1 1_555 1_555
H17 C35 1_555 1_555
C36 C32 1_555 1_555
H18 C36 1_555 1_555
C37 C20 1_555 1_555
H19 C37 1_555 1_555
H20 C37 1_555 1_555
C38 C21 1_555 1_555
H21 C38 1_555 1_555
H22 C38 1_555 1_555
C39 N4 1_555 1_555
C40 N2 1_555 1_555
C41 C42 1_555 1_555
C42 C46 1_555 1_555
C43 C41 1_555 1_555
C44 H23 1_555 1_555
H24 C44 1_555 1_555
C45 C44 1_555 1_555
H25 C45 1_555 1_555
H26 C45 1_555 1_555
H27 C45 1_555 1_555
C46 O5 1_555 1_555
C47 H28 1_555 1_555
H29 C47 1_555 1_555
C48 C47 1_555 1_555
H30 C48 1_555 1_555
H31 C48 1_555 1_555
H32 C48 1_555 1_555
N2 C42 1_555 1_555
H33 N2 1_555 1_555
N3 C38 1_555 1_555
N4 C42 1_555 1_555
H34 N4 1_555 1_555
N5 C37 1_555 1_555
N6 C1 1_555 1_555
O1 C39 1_555 1_555
O2 C40 1_555 1_555
O3 C43 1_555 1_555
O4 C43 1_555 1_555
O6 C46 1_555 1_555
O7 H39 1_555 1_555
H40 O7 1_555 1_555
O8 H41 1_555 1_555
H42 O8 1_555 1_555
C5 N6 1_555 1_555
C12 C13 1_555 1_555
C20 C21 1_555 1_555
C28 C29 1_555 1_555
C35 C36 1_555 1_555
C39 N5 1_555 1_555
C40 N3 1_555 1_555
C41 N3 1_555 1_555
C41 N5 1_555 1_555
C44 O4 1_555 1_555
C47 O6 1_555 1_555

#END
