
#######################################################################
#
#                 Cambridge Crystallographic Data Centre
#                                CCDC 
#
#######################################################################
#
# If this CIF has been generated from an entry in the Cambridge 
# Structural Database, then it will include bibliographic, chemical, 
# crystal, experimental, refinement or atomic coordinate data resulting 
# from the CCDC's data processing and validation procedures.
#
#######################################################################

data_QIJJAX
_chemical_formula_moiety         'C45 H57 N3 O9'
_chemical_name_systematic        
3,9,15-tribenzyl-4,10,16-trimethyl-6,12,18-tris(propan-2-yl)-1,7,13-trioxa-4,10,16-triazacyclooctadecane-2,5,8,11,14,17-hexone
_symmetry_cell_setting           monoclinic
_symmetry_space_group_name_H-M   'P 21'
_symmetry_Int_Tables_number      4
_space_group_name_Hall           'P 2yb'
loop_
_symmetry_equiv_pos_site_id
_symmetry_equiv_pos_as_xyz
1 x,y,z
2 -x,1/2+y,-z
_cell_length_a                   8.3687(3)
_cell_length_b                   17.1768(6)
_cell_length_c                   15.8933(6)
_cell_angle_alpha                90
_cell_angle_beta                 92.927(2)
_cell_angle_gamma                90
_cell_volume                     2281.64
_exptl_crystal_colour            colorless
_exptl_crystal_description       block
_cell_formula_units_Z            2
_exptl_crystal_recrystallization_method Methanol
loop_
_atom_site_label
_atom_site_type_symbol
_atom_site_fract_x
_atom_site_fract_y
_atom_site_fract_z
O1 O 0.8760(2) 0.52534(11) 0.46914(13)
N1 N 1.1236(3) 0.41424(14) 0.33684(15)
C1 C 1.1236(4) 0.44706(19) 0.57652(18)
O2 O 1.0215(3) 0.56488(14) 0.36211(16)
N2 N 0.6327(3) 0.50546(13) 0.04069(14)
C2 C 1.1695(4) 0.5138(2) 0.6216(2)
H1 H 1.2438 0.5488 0.5989
O3 O 0.8702(2) 0.39303(15) 0.29008(14)
N3 N 0.6239(3) 0.65876(14) 0.35806(16)
C3 C 1.1081(5) 0.5296(2) 0.6993(2)
H2 H 1.1430 0.5744 0.7301
C4 C 0.9968(5) 0.4805(3) 0.7320(2)
H3 H 0.9524 0.4921 0.7844
O4 O 0.9322(2) 0.37383(11) 0.13018(12)
C5 C 1.0131(4) 0.3972(2) 0.6112(2)
H4 H 0.9807 0.3511 0.5821
O5 O 0.4509(3) 0.46206(12) 0.13093(14)
C6 C 0.9507(5) 0.4144(3) 0.6877(2)
H5 H 0.8746 0.3802 0.7103
O6 O 0.9236(3) 0.50463(12) 0.13240(16)
C7 C 1.1899(4) 0.43137(19) 0.49153(19)
H6 H 1.2396 0.3790 0.4922
H7 H 1.2746 0.4699 0.4814
O7 O 0.6521(3) 0.63133(16) 0.18722(15)
C8 C 1.0614(3) 0.43540(16) 0.41861(17)
H8 H 0.9752 0.3974 0.4310
O8 O 0.3865(3) 0.61626(13) 0.16718(13)
C9 C 0.9853(3) 0.51594(16) 0.41149(17)
O9 O 0.5614(3) 0.54293(14) 0.41506(18)
C10 C 0.8011(4) 0.60154(16) 0.47130(18)
H9 H 0.8768 0.6419 0.4516
C11 C 0.7643(4) 0.61752(19) 0.56335(19)
H10 H 0.8675 0.6123 0.5974
C12 C 0.6480(5) 0.5605(2) 0.5995(2)
H11 H 0.5405 0.5697 0.5741
H12 H 0.6469 0.5677 0.6606
H13 H 0.6813 0.5072 0.5872
C13 C 0.6517(4) 0.59863(16) 0.41127(19)
C14 C 0.7088(5) 0.7020(2) 0.5727(2)
H14 H 0.7906 0.7372 0.5526
H15 H 0.6921 0.7128 0.6322
H16 H 0.6083 0.7098 0.5394
C15 C 0.4793(4) 0.65573(17) 0.30234(19)
H17 H 0.4106 0.6131 0.3236
C16 C 0.7384(4) 0.72189(19) 0.3460(2)
H18 H 0.8457 0.7000 0.3413
H19 H 0.7387 0.7574 0.3944
H20 H 0.7074 0.7506 0.2945
C17 C 0.3795(4) 0.73172(18) 0.3036(2)
H21 H 0.4383 0.7739 0.2761
H22 H 0.2769 0.7237 0.2709
C18 C 0.3458(4) 0.75603(17) 0.3921(2)
C19 C 0.2595(5) 0.7077(2) 0.4432(3)
H23 H 0.2190 0.6597 0.4214
C20 C 0.5825(6) 0.4293(3) -0.1618(2)
H24 H 0.6576 0.4671 -0.1784
C21 C 0.2316(6) 0.7284(3) 0.5247(3)
H25 H 0.1731 0.6945 0.5591
C22 C 0.2892(5) 0.7991(3) 0.5570(2)
H26 H 0.2715 0.8133 0.6135
C23 C 0.3718(5) 0.8482(2) 0.5066(2)
H27 H 0.4085 0.8971 0.5277
C24 C 0.4018(4) 0.82646(19) 0.4245(2)
H28 H 0.4612 0.8601 0.3904
C25 C 0.5203(4) 0.63362(17) 0.21373(19)
C26 C 0.4092(4) 0.59110(16) 0.08189(18)
H29 H 0.4688 0.6313 0.0504
C27 C 0.1567(4) 0.6583(2) 0.0307(3)
H30 H 0.2170 0.6912 -0.0068
H31 H 0.1515 0.6838 0.0857
H32 H 0.0480 0.6506 0.0062
C28 C 0.2402(4) 0.57933(18) 0.04170(19)
H33 H 0.1778 0.5468 0.0806
C29 C 0.2440(5) 0.5377(2) -0.0426(2)
H34 H 0.1343 0.5265 -0.0638
H35 H 0.3034 0.4888 -0.0354
H36 H 0.2966 0.5709 -0.0830
C30 C 0.5022(3) 0.51366(16) 0.08645(16)
C31 C 0.7033(4) 0.57025(18) -0.0044(2)
H37 H 0.7990 0.5521 -0.0316
H38 H 0.7328 0.6120 0.0355
H39 H 0.6253 0.5901 -0.0473
C32 C 0.7219(3) 0.43247(16) 0.04956(17)
H40 H 0.6510 0.3945 0.0774
C33 C 0.7645(4) 0.39618(19) -0.03539(19)
H41 H 0.8382 0.4312 -0.0641
H42 H 0.8198 0.3459 -0.0251
C34 C 0.6161(4) 0.38337(19) -0.0907(2)
C35 C 0.4390(7) 0.4196(3) -0.2080(3)
H43 H 0.4168 0.4506 -0.2567
C36 C 0.3293(6) 0.3663(4) -0.1849(4)
H44 H 0.2301 0.3616 -0.2163
C37 C 0.3622(5) 0.3181(3) -0.1148(3)
H45 H 0.2868 0.2800 -0.0992
C38 C 0.5064(5) 0.3268(2) -0.0685(2)
H46 H 0.5304 0.2940 -0.0214
C39 C 0.8704(3) 0.44357(17) 0.10866(17)
C40 C 1.0699(3) 0.37499(16) 0.18867(17)
H47 H 1.1473 0.4153 0.1705
C41 C 1.1477(4) 0.29442(18) 0.18514(19)
H48 H 1.2445 0.2951 0.2247
C42 C 1.2040(5) 0.2797(2) 0.0976(2)
H49 H 1.1114 0.2772 0.0574
H50 H 1.2625 0.2303 0.0969
H51 H 1.2747 0.3221 0.0817
C43 C 1.0375(5) 0.2300(2) 0.2143(3)
H52 H 0.9405 0.2283 0.1771
H53 H 1.0083 0.2406 0.2721
H54 H 1.0930 0.1798 0.2124
C44 C 1.0143(3) 0.39582(16) 0.27615(18)
C45 C 1.2899(4) 0.4350(2) 0.3203(2)
H55 H 1.2980 0.4459 0.2602
H56 H 1.3608 0.3916 0.3367
H57 H 1.3215 0.4813 0.3531
loop_
_geom_bond_atom_site_label_1
_geom_bond_atom_site_label_2
_geom_bond_site_symmetry_1
_geom_bond_site_symmetry_2
O1 C9 1_555 1_555
N1 C8 1_555 1_555
C1 C2 1_555 1_555
O2 C9 1_555 1_555
N2 C30 1_555 1_555
C2 H1 1_555 1_555
O3 C44 1_555 1_555
N3 C13 1_555 1_555
C3 C2 1_555 1_555
H2 C3 1_555 1_555
C4 C3 1_555 1_555
H3 C4 1_555 1_555
O4 C39 1_555 1_555
C5 C1 1_555 1_555
H4 C5 1_555 1_555
O5 C30 1_555 1_555
C6 C4 1_555 1_555
H5 C6 1_555 1_555
O6 C39 1_555 1_555
C7 C1 1_555 1_555
H6 C7 1_555 1_555
H7 C7 1_555 1_555
O7 C25 1_555 1_555
C8 C7 1_555 1_555
H8 C8 1_555 1_555
O8 C25 1_555 1_555
C9 C8 1_555 1_555
O9 C13 1_555 1_555
C10 O1 1_555 1_555
H9 C10 1_555 1_555
C11 C10 1_555 1_555
H10 C11 1_555 1_555
C12 C11 1_555 1_555
H11 C12 1_555 1_555
H12 C12 1_555 1_555
H13 C12 1_555 1_555
C13 C10 1_555 1_555
C14 C11 1_555 1_555
H14 C14 1_555 1_555
H15 C14 1_555 1_555
H16 C14 1_555 1_555
C15 N3 1_555 1_555
H17 C15 1_555 1_555
C16 N3 1_555 1_555
H18 C16 1_555 1_555
H19 C16 1_555 1_555
H20 C16 1_555 1_555
C17 C15 1_555 1_555
H21 C17 1_555 1_555
H22 C17 1_555 1_555
C18 C17 1_555 1_555
C19 C18 1_555 1_555
H23 C19 1_555 1_555
C20 H24 1_555 1_555
C21 C19 1_555 1_555
H25 C21 1_555 1_555
C22 C21 1_555 1_555
H26 C22 1_555 1_555
C23 C22 1_555 1_555
H27 C23 1_555 1_555
C24 C18 1_555 1_555
H28 C24 1_555 1_555
C25 C15 1_555 1_555
C26 O8 1_555 1_555
H29 C26 1_555 1_555
C27 H30 1_555 1_555
H31 C27 1_555 1_555
H32 C27 1_555 1_555
C28 C26 1_555 1_555
H33 C28 1_555 1_555
C29 C28 1_555 1_555
H34 C29 1_555 1_555
H35 C29 1_555 1_555
H36 C29 1_555 1_555
C30 C26 1_555 1_555
C31 N2 1_555 1_555
H37 C31 1_555 1_555
H38 C31 1_555 1_555
H39 C31 1_555 1_555
C32 N2 1_555 1_555
H40 C32 1_555 1_555
C33 C32 1_555 1_555
H41 C33 1_555 1_555
H42 C33 1_555 1_555
C34 C20 1_555 1_555
C35 C20 1_555 1_555
H43 C35 1_555 1_555
C36 C35 1_555 1_555
H44 C36 1_555 1_555
C37 C36 1_555 1_555
H45 C37 1_555 1_555
C38 C34 1_555 1_555
H46 C38 1_555 1_555
C39 C32 1_555 1_555
C40 O4 1_555 1_555
H47 C40 1_555 1_555
C41 C40 1_555 1_555
H48 C41 1_555 1_555
C42 C41 1_555 1_555
H49 C42 1_555 1_555
H50 C42 1_555 1_555
H51 C42 1_555 1_555
C43 C41 1_555 1_555
H52 C43 1_555 1_555
H53 C43 1_555 1_555
H54 C43 1_555 1_555
C44 N1 1_555 1_555
C45 N1 1_555 1_555
H55 C45 1_555 1_555
H56 C45 1_555 1_555
H57 C45 1_555 1_555
C5 C6 1_555 1_555
C23 C24 1_555 1_555
C27 C28 1_555 1_555
C33 C34 1_555 1_555
C37 C38 1_555 1_555
C40 C44 1_555 1_555

#END
