
#######################################################################
#
#                 Cambridge Crystallographic Data Centre
#                                CCDC 
#
#######################################################################
#
# If this CIF has been generated from an entry in the Cambridge 
# Structural Database, then it will include bibliographic, chemical, 
# crystal, experimental, refinement or atomic coordinate data resulting 
# from the CCDC's data processing and validation procedures.
#
#######################################################################

data_QIJJOK
_chemical_formula_moiety         'C48 H34 N6 O6,3(C1 H4 O1)'
_chemical_name_systematic        
'Diethyl 1,4-dioxo-6,9-bis((4-(pyridin-3-ylethynyl)phenyl)ethynyl)-1,2,3,4,5,10-hexahydro-2,3,4a,10a-tetraazabenzo[g]cyclopenta[cd]azulene-2a,10b-dicarboxylate methanol solvate'
_symmetry_cell_setting           triclinic
_symmetry_space_group_name_H-M   'P -1'
_symmetry_Int_Tables_number      2
_space_group_name_Hall           '-P 1'
loop_
_symmetry_equiv_pos_site_id
_symmetry_equiv_pos_as_xyz
1 x,y,z
2 -x,-y,-z
_cell_length_a                   8.9810(9)
_cell_length_b                   12.4978(12)
_cell_length_c                   20.847(2)
_cell_angle_alpha                84.296(2)
_cell_angle_beta                 78.149(2)
_cell_angle_gamma                76.410(2)
_cell_volume                     2222.71
_exptl_crystal_colour            colorless
_exptl_crystal_description       block
_cell_formula_units_Z            2
loop_
_atom_site_label
_atom_site_type_symbol
_atom_site_fract_x
_atom_site_fract_y
_atom_site_fract_z
C1 C 1.7104(3) -0.2998(2) 0.26604(12)
H1 H 1.7628 -0.3147 0.2223
C2 C 1.7660(3) -0.2352(2) 0.30121(13)
H2 H 1.8554 -0.2068 0.2821
C3 C 1.6904(3) -0.2123(2) 0.36444(12)
H3 H 1.7264 -0.1674 0.3895
C4 C 1.5599(3) -0.2559(2) 0.39127(12)
C5 C 1.5134(3) -0.3202(2) 0.35194(13)
H4 H 1.4247 -0.3502 0.3697
C6 C 1.4768(3) -0.2337(2) 0.45648(13)
C7 C 1.4117(3) -0.2141(2) 0.51166(13)
C8 C 1.3338(3) -0.1882(2) 0.57716(12)
C9 C 1.3811(3) -0.1145(3) 0.61096(13)
H5 H 1.4696 -0.0854 0.5914
C10 C 1.3006(3) -0.0839(2) 0.67223(13)
H6 H 1.3337 -0.0336 0.6946
C11 C 1.1706(3) -0.1260(2) 0.70199(11)
C12 C 1.1259(3) -0.2018(2) 0.66923(12)
H7 H 1.0389 -0.2322 0.6892
C13 C 1.2075(3) -0.2328(2) 0.60795(12)
H8 H 1.1771 -0.2855 0.5864
C14 C 1.0803(3) -0.0881(2) 0.76439(12)
C15 C 1.0030(3) -0.05509(19) 0.81461(11)
C16 C 0.9092(3) -0.02370(18) 0.87751(11)
C17 C 0.9231(2) 0.06766(18) 0.90880(10)
C18 C 0.8352(2) 0.09034(17) 0.97177(10)
C19 C 0.7331(2) 0.02345(18) 1.00267(10)
C20 C 0.7183(3) -0.06564(19) 0.97010(11)
H9 H 0.6474 -0.1100 0.9906
C21 C 0.8054(3) -0.08909(19) 0.90882(11)
H10 H 0.7952 -0.1500 0.8875
C22 C 0.6445(3) 0.04160(18) 1.06818(11)
C23 C 0.5701(3) 0.0518(2) 1.12215(12)
C24 C 0.4791(3) 0.0652(2) 1.18742(11)
C25 C 0.4106(3) 0.1701(2) 1.20974(13)
H11 H 0.4224 0.2334 1.1816
C26 C 0.3255(3) 0.1821(2) 1.27290(13)
H12 H 0.2776 0.2539 1.2875
C27 C 0.3087(3) 0.0911(2) 1.31529(12)
C28 C 0.3727(3) -0.0134(2) 1.29232(13)
H13 H 0.3585 -0.0764 1.3203
C29 C 0.4568(3) -0.0265(2) 1.22923(12)
H14 H 0.4999 -0.0986 1.2141
C30 C 0.2287(3) 0.1069(3) 1.38207(13)
C31 C 0.1651(3) 0.1237(3) 1.43732(13)
C32 C 0.0816(3) 0.1511(2) 1.50213(12)
C33 C 0.0593(3) 0.0731(3) 1.55321(13)
H15 H 0.1018 -0.0030 1.5469
C34 C -0.0260(3) 0.1080(3) 1.61356(13)
H16 H -0.0419 0.0560 1.6493
C35 C -0.0870(3) 0.2181(3) 1.62126(13)
H17 H -0.1451 0.2408 1.6630
C36 C 0.0150(3) 0.2605(3) 1.51458(13)
H18 H 0.0296 0.3144 1.4798
C37 C 1.0377(2) 0.13735(18) 0.87473(11)
H19 H 1.1198 0.1298 0.9012
H20 H 1.0888 0.1071 0.8316
C38 C 0.8518(3) 0.18567(17) 1.00763(10)
H21 H 0.7816 0.1884 1.0510
H22 H 0.9602 0.1721 1.0152
C39 C 0.8707(3) 0.28890(19) 0.81966(10)
C40 C 0.6804(3) 0.36928(18) 0.98814(11)
C41 C 0.9258(2) 0.32680(18) 0.91807(10)
C42 C 1.0658(3) 0.34564(18) 0.94507(11)
C43 C 1.3387(3) 0.3256(2) 0.93029(13)
H23 H 1.3295 0.3054 0.9779
H24 H 1.3470 0.4036 0.9228
C44 C 1.4794(3) 0.2526(2) 0.89241(13)
H25 H 1.4672 0.1762 0.8983
H26 H 1.5726 0.2578 0.9085
H27 H 1.4906 0.2762 0.8457
C45 C 0.8193(3) 0.43345(18) 0.89095(10)
C46 C 0.8821(3) 0.53854(19) 0.87112(12)
C47 C 1.1084(6) 0.6031(4) 0.8119(2)
H28 H 1.0302 0.6630 0.7950
H29 H 1.1893 0.5732 0.7743
C48 C 1.1798(6) 0.6461(4) 0.8589(2)
H30 H 1.1001 0.6711 0.8973
H31 H 1.2244 0.7081 0.8377
H32 H 1.2625 0.5876 0.8728
N1 N 1.5861(3) -0.3425(2) 0.29058(11)
N2 N -0.0687(3) 0.2952(2) 1.57269(11)
N3 N 0.9700(2) 0.25453(15) 0.86437(8)
N4 N 0.8158(2) 0.29126(15) 0.97235(9)
N5 N 0.7917(2) 0.39403(16) 0.83203(9)
H33 H 0.7298 0.4343 0.8068
N6 N 0.6852(2) 0.45494(16) 0.94269(9)
H34 H 0.6138 0.5169 0.9448
O1 O 0.8621(2) 0.23389(14) 0.77633(8)
O2 O 0.57527(19) 0.36116(13) 1.03439(8)
O3 O 1.0461(2) 0.38506(16) 0.99672(9)
O4 O 1.20255(18) 0.30981(14) 0.90691(8)
O5 O 0.7978(2) 0.62806(15) 0.87468(10)
O6 O 1.0333(2) 0.51574(16) 0.84630(10)
C51 C 0.4573(18) 0.429(2) 0.2701(14)
H40 H 0.5532 0.3712 0.2633
H41 H 0.3698 0.3998 0.2633
H42 H 0.4366 0.4533 0.3149
O7 O 0.4751(4) 0.5189(3) 0.2250(2)
H43 H 0.5024 0.5665 0.2431
C53 C 0.7074(7) 0.5362(5) 0.5245(3)
H48 H 0.6325 0.6070 0.5307
H49 H 0.6526 0.4791 0.5197
H50 H 0.7860 0.5422 0.4848
O9 O 0.7803(5) 0.5080(3) 0.5788(2)
H51 H 0.8286 0.4417 0.5776
C54 C 0.9677(6) 0.4926(3) 0.3329(2)
H52 H 0.9277 0.5451 0.3676
H53 H 0.8802 0.4759 0.3174
H54 H 1.0336 0.5249 0.2963
O10 O 1.0550(4) 0.3965(2) 0.35733(16)
H55 H 1.1144 0.4123 0.3795
C49? C 1.0724(17) 0.6283(11) 0.8422(7)
H35? H 1.0221 0.6783 0.8091
H36? H 1.0381 0.6622 0.8853
C50? C 1.2474(15) 0.6051(10) 0.8222(6)
H37? H 1.2948 0.5837 0.8612
H38? H 1.2792 0.6715 0.8003
H39? H 1.2822 0.5451 0.7920
C52? C 0.503(4) 0.415(5) 0.278(3)
H44? H 0.5987 0.4324 0.2857
H45? H 0.5292 0.3629 0.2433
H46? H 0.4503 0.3826 0.3185
O8? O 0.4019(14) 0.5143(11) 0.2584(5)
H47? H 0.4211 0.5239 0.2174
loop_
_geom_bond_atom_site_label_1
_geom_bond_atom_site_label_2
_geom_bond_site_symmetry_1
_geom_bond_site_symmetry_2
C1 H1 1_555 1_555
C2 C1 1_555 1_555
H2 C2 1_555 1_555
C3 C2 1_555 1_555
H3 C3 1_555 1_555
C4 C3 1_555 1_555
C5 C4 1_555 1_555
H4 C5 1_555 1_555
C6 C4 1_555 1_555
C7 C6 1_555 1_555
C8 C7 1_555 1_555
C9 C8 1_555 1_555
H5 C9 1_555 1_555
C10 C9 1_555 1_555
H6 C10 1_555 1_555
C11 C10 1_555 1_555
C12 C11 1_555 1_555
H7 C12 1_555 1_555
C13 C8 1_555 1_555
H8 C13 1_555 1_555
C14 C11 1_555 1_555
C15 C14 1_555 1_555
C16 C15 1_555 1_555
C17 C16 1_555 1_555
C18 C17 1_555 1_555
C19 C18 1_555 1_555
C20 C19 1_555 1_555
H9 C20 1_555 1_555
C21 C16 1_555 1_555
H10 C21 1_555 1_555
C22 C19 1_555 1_555
C23 C22 1_555 1_555
C24 C23 1_555 1_555
C25 C24 1_555 1_555
H11 C25 1_555 1_555
C26 C25 1_555 1_555
H12 C26 1_555 1_555
C27 C26 1_555 1_555
C28 C27 1_555 1_555
H13 C28 1_555 1_555
C29 C24 1_555 1_555
H14 C29 1_555 1_555
C30 C27 1_555 1_555
C31 C30 1_555 1_555
C32 C31 1_555 1_555
C33 C32 1_555 1_555
H15 C33 1_555 1_555
C34 C33 1_555 1_555
H16 C34 1_555 1_555
C35 C34 1_555 1_555
H17 C35 1_555 1_555
C36 C32 1_555 1_555
H18 C36 1_555 1_555
C37 C17 1_555 1_555
H19 C37 1_555 1_555
H20 C37 1_555 1_555
C38 C18 1_555 1_555
H21 C38 1_555 1_555
H22 C38 1_555 1_555
C39 N3 1_555 1_555
C40 N4 1_555 1_555
C41 C42 1_555 1_555
C42 O3 1_555 1_555
C43 H23 1_555 1_555
H24 C43 1_555 1_555
C44 C43 1_555 1_555
H25 C44 1_555 1_555
H26 C44 1_555 1_555
H27 C44 1_555 1_555
C45 C41 1_555 1_555
C46 C45 1_555 1_555
C47 H28 1_555 1_555
H29 C47 1_555 1_555
C48 C47 1_555 1_555
H30 C48 1_555 1_555
H31 C48 1_555 1_555
H32 C48 1_555 1_555
N1 C1 1_555 1_555
N2 C35 1_555 1_555
N3 C37 1_555 1_555
N4 C38 1_555 1_555
N5 C39 1_555 1_555
H33 N5 1_555 1_555
N6 C40 1_555 1_555
H34 N6 1_555 1_555
O1 C39 1_555 1_555
O2 C40 1_555 1_555
O4 C42 1_555 1_555
O5 C46 1_555 1_555
O6 C46 1_555 1_555
C51 H40 1_555 1_555
H41 C51 1_555 1_555
H42 C51 1_555 1_555
O7 C51 1_555 1_555
H43 O7 1_555 1_555
C53 H48 1_555 1_555
H49 C53 1_555 1_555
H50 C53 1_555 1_555
O9 C53 1_555 1_555
H51 O9 1_555 1_555
C54 H52 1_555 1_555
H53 C54 1_555 1_555
H54 C54 1_555 1_555
O10 C54 1_555 1_555
H55 O10 1_555 1_555
C5 N1 1_555 1_555
C12 C13 1_555 1_555
C20 C21 1_555 1_555
C28 C29 1_555 1_555
C36 N2 1_555 1_555
C41 N3 1_555 1_555
C41 N4 1_555 1_555
C43 O4 1_555 1_555
C45 N5 1_555 1_555
C45 N6 1_555 1_555
C47 O6 1_555 1_555

#END
