
#######################################################################
#
#                 Cambridge Crystallographic Data Centre
#                                CCDC 
#
#######################################################################
#
# If this CIF has been generated from an entry in the Cambridge 
# Structural Database, then it will include bibliographic, chemical, 
# crystal, experimental, refinement or atomic coordinate data resulting 
# from the CCDC's data processing and validation procedures.
#
#######################################################################

data_QIJMOL
_chemical_formula_moiety         'C20 H19 N3 O5'
_chemical_name_systematic        
2-Azido-2-deoxy-4-O-benzoyl-3-O-benzyl-1,6-anhydro-\b-L-gulopyranose
_symmetry_cell_setting           orthorhombic
_symmetry_space_group_name_H-M   'P 21 21 21'
_symmetry_Int_Tables_number      19
_space_group_name_Hall           'P 2ac 2ab'
loop_
_symmetry_equiv_pos_site_id
_symmetry_equiv_pos_as_xyz
1 x,y,z
2 1/2-x,-y,1/2+z
3 1/2+x,1/2-y,-z
4 -x,1/2+y,1/2-z
_cell_length_a                   7.0756(14)
_cell_length_b                   8.9936(20)
_cell_length_c                   30.319(3)
_cell_angle_alpha                90
_cell_angle_beta                 90
_cell_angle_gamma                90
_cell_volume                     1929.35
_exptl_crystal_colour            colorless
_chemical_melting_point          '126-127 deg.C'
_cell_formula_units_Z            4
_exptl_crystal_recrystallization_method chloroform/hexane
loop_
_atom_site_label
_atom_site_type_symbol
_atom_site_fract_x
_atom_site_fract_y
_atom_site_fract_z
O1 O 0.9321(7) 0.5452(5) 1.1120(2)
O2 O 1.2044(7) 0.3294(5) 1.0817(1)
O3 O 0.9034(7) 0.3991(5) 0.9865(2)
O4 O 1.1093(8) 0.5909(6) 0.9813(2)
O5 O 1.0914(8) 0.0957(6) 1.0860(2)
N1 N 0.6699(9) 0.5492(8) 1.0424(2)
N2 N 0.5763(10) 0.6164(8) 1.0703(2)
N3 N 0.4730(11) 0.6652(9) 1.0947(3)
C1 C 0.9169(13) 0.5554(9) 0.9890(3)
C2 C 0.8625(10) 0.6041(8) 1.0358(3)
C3 C 1.0011(11) 0.5354(9) 1.0683(2)
C4 C 1.0394(11) 0.3733(8) 1.0582(2)
C5 C 1.0719(11) 0.3525(7) 1.0083(2)
C6 C 1.2149(11) 0.4575(10) 0.9888(3)
C7 C 1.0050(16) 0.6609(12) 1.1362(3)
C8 C 0.9231(15) 0.6706(10) 1.1821(3)
C9 C 0.7538(16) 0.6029(10) 1.1930(3)
C10 C 0.6774(17) 0.6237(11) 1.2345(4)
C11 C 0.7672(29) 0.7123(16) 1.2640(4)
C12 C 0.9228(26) 0.7835(17) 1.2537(4)
C13 C 1.0080(17) 0.7577(11) 1.2129(3)
C14 C 1.2139(13) 0.1828(9) 1.0944(2)
C15 C 1.3901(12) 0.1483(9) 1.1181(2)
C16 C 1.5339(13) 0.2497(10) 1.1237(2)
C17 C 1.6932(14) 0.2129(10) 1.1459(3)
C18 C 1.7128(15) 0.0736(11) 1.1647(3)
C19 C 1.5701(16) -0.0291(10) 1.1590(3)
C20 C 1.4111(14) 0.0092(8) 1.1365(3)
H1 H 0.832 0.605 0.967
H2 H 0.863 0.715 1.037
H3 H 1.125 0.588 1.066
H4 H 0.923 0.316 1.066
H5 H 1.105 0.247 1.001
H6 H 1.276 0.416 0.962
H7 H 1.324 0.470 1.009
H8 H 1.145 0.649 1.140
H9 H 0.990 0.758 1.120
H10 H 0.689 0.550 1.168
H11 H 0.565 0.561 1.242
H12 H 0.695 0.743 1.291
H13 H 0.992 0.836 1.278
H14 H 1.130 0.809 1.206
H15 H 1.524 0.353 1.112
H16 H 1.799 0.285 1.150
H17 H 1.833 0.045 1.180
H18 H 1.581 -0.126 1.175
H19 H 1.306 -0.064 1.133
loop_
_geom_bond_atom_site_label_1
_geom_bond_atom_site_label_2
_geom_bond_site_symmetry_1
_geom_bond_site_symmetry_2
O1 C3 1_555 1_555
O2 C4 1_555 1_555
O3 C1 1_555 1_555
O4 C1 1_555 1_555
O5 C14 1_555 1_555
N1 N2 1_555 1_555
N2 N3 1_555 1_555
C1 C2 1_555 1_555
C2 N1 1_555 1_555
C3 C2 1_555 1_555
C4 C3 1_555 1_555
C5 O3 1_555 1_555
C6 O4 1_555 1_555
C7 O1 1_555 1_555
C8 C7 1_555 1_555
C9 C8 1_555 1_555
C10 C9 1_555 1_555
C11 C10 1_555 1_555
C12 C11 1_555 1_555
C13 C8 1_555 1_555
C14 O2 1_555 1_555
C15 C14 1_555 1_555
C16 C15 1_555 1_555
C17 C16 1_555 1_555
C18 C17 1_555 1_555
C19 C18 1_555 1_555
C20 C15 1_555 1_555
H1 C1 1_555 1_555
H2 C2 1_555 1_555
H3 C3 1_555 1_555
H4 C4 1_555 1_555
H5 C5 1_555 1_555
H6 C6 1_555 1_555
H7 C6 1_555 1_555
H8 C7 1_555 1_555
H9 C7 1_555 1_555
H10 C9 1_555 1_555
H11 C10 1_555 1_555
H12 C11 1_555 1_555
H13 C12 1_555 1_555
H14 C13 1_555 1_555
H15 C16 1_555 1_555
H16 C17 1_555 1_555
H17 C18 1_555 1_555
H18 C19 1_555 1_555
H19 C20 1_555 1_555
C4 C5 1_555 1_555
C5 C6 1_555 1_555
C12 C13 1_555 1_555
C19 C20 1_555 1_555

#END
