
#######################################################################
#
#                 Cambridge Crystallographic Data Centre
#                                CCDC 
#
#######################################################################
#
# If this CIF has been generated from an entry in the Cambridge 
# Structural Database, then it will include bibliographic, chemical, 
# crystal, experimental, refinement or atomic coordinate data resulting 
# from the CCDC's data processing and validation procedures.
#
#######################################################################

data_QIJNEF
_chemical_formula_moiety         'C17 H19 N1 O2 S1'
_chemical_name_systematic        
N-butyl-4-methyl-N-phenylbenzene-1-sulfonamide
_symmetry_cell_setting           monoclinic
_symmetry_space_group_name_H-M   'P 21/c'
_symmetry_Int_Tables_number      14
_space_group_name_Hall           '-P 2ybc'
loop_
_symmetry_equiv_pos_site_id
_symmetry_equiv_pos_as_xyz
1 x,y,z
2 -x,1/2+y,1/2-z
3 -x,-y,-z
4 x,1/2-y,1/2+z
_cell_length_a                   18.371(2)
_cell_length_b                   5.8296(7)
_cell_length_c                   15.1869(18)
_cell_angle_alpha                90
_cell_angle_beta                 105.227(2)
_cell_angle_gamma                90
_cell_volume                     1569.35
_cell_formula_units_Z            4
loop_
_atom_site_label
_atom_site_type_symbol
_atom_site_fract_x
_atom_site_fract_y
_atom_site_fract_z
S1 S 0.20379(7) 0.3188(2) 0.69181(9)
O1 O 0.1502(2) 0.2878(7) 0.6062(3)
O2 O 0.2368(2) 0.1233(7) 0.7444(3)
C1 C 0.3945(3) 0.2877(10) 0.7450(4)
C2 C 0.4635(3) 0.2866(10) 0.8102(4)
N1 N 0.2736(2) 0.4672(8) 0.6719(3)
C3 C 0.1168(3) 0.6736(10) 0.7257(4)
C4 C 0.3444(3) 0.4696(9) 0.7422(3)
C5 C 0.3622(3) 0.6501(10) 0.8045(4)
C6 C 0.3134(3) 0.7149(10) 0.5594(4)
C7 C 0.1603(3) 0.4825(9) 0.7609(4)
C8 C 0.4319(3) 0.6486(10) 0.8707(4)
C9 C 0.2548(3) 0.6759(10) 0.6136(4)
C10 C 0.1668(3) 0.4132(11) 0.8499(4)
C11 C 0.0806(3) 0.7969(11) 0.7817(4)
C12 C 0.0860(3) 0.7238(10) 0.8708(4)
C13 C 0.4824(3) 0.4664(10) 0.8732(4)
C14 C 0.1295(3) 0.5354(11) 0.9053(4)
C15 C 0.3067(3) 0.5369(11) 0.4844(4)
C16 C 0.0458(4) 0.8564(12) 0.9295(5)
C17 C 0.3574(4) 0.3781(13) 0.4835(5)
loop_
_geom_bond_atom_site_label_1
_geom_bond_atom_site_label_2
_geom_bond_site_symmetry_1
_geom_bond_site_symmetry_2
S1 O1 1_555 1_555
O2 S1 1_555 1_555
C1 C2 1_555 1_555
C2 C13 1_555 1_555
N1 S1 1_555 1_555
C3 C7 1_555 1_555
C4 C1 1_555 1_555
C5 C4 1_555 1_555
C6 C9 1_555 1_555
C7 S1 1_555 1_555
C8 C5 1_555 1_555
C9 N1 1_555 1_555
C10 C7 1_555 1_555
C11 C3 1_555 1_555
C12 C11 1_555 1_555
C13 C8 1_555 1_555
C14 C10 1_555 1_555
C15 C6 1_555 1_555
C16 C12 1_555 1_555
C17 C15 1_555 1_555
N1 C4 1_555 1_555
C12 C14 1_555 1_555

#END
