
#######################################################################
#
#                 Cambridge Crystallographic Data Centre
#                                CCDC 
#
#######################################################################
#
# If this CIF has been generated from an entry in the Cambridge 
# Structural Database, then it will include bibliographic, chemical, 
# crystal, experimental, refinement or atomic coordinate data resulting 
# from the CCDC's data processing and validation procedures.
#
#######################################################################

data_QIJPAC01
_chemical_name_common            'cefaclor dihydrate'
_chemical_formula_moiety         'C15 H14 Cl1 N3 O4 S1,2(H2 O1)'
_chemical_name_systematic        
'7-{[azaniumyl(phenyl)acetyl]amino}-3-chloro-8-oxo-5-thia-1-azabicyclo[4.2.0]oct-2-ene-2-carboxylate dihydrate'
_chemical_properties_biological  antibiotic
_symmetry_cell_setting           monoclinic
_symmetry_space_group_name_H-M   'P 21'
_symmetry_Int_Tables_number      4
_space_group_name_Hall           'P 2yb'
loop_
_symmetry_equiv_pos_site_id
_symmetry_equiv_pos_as_xyz
1 x,y,z
2 -x,1/2+y,-z
_cell_length_a                   10.590(4)
_cell_length_b                   7.1040(18)
_cell_length_c                   12.188(4)
_cell_angle_alpha                90
_cell_angle_beta                 104.614(7)
_cell_angle_gamma                90
_cell_volume                     887.255
_exptl_crystal_colour            colorless
_exptl_crystal_description       prism
_cell_formula_units_Z            2
loop_
_atom_site_label
_atom_site_type_symbol
_atom_site_fract_x
_atom_site_fract_y
_atom_site_fract_z
S1 S 0.66224(6) 0.05843(10) 0.87440(6)
Cl1 Cl 0.29398(6) -0.03489(10) 0.95785(5)
O1 O 0.84742(18) -0.0196(3) 0.55704(17)
O2 O 0.40292(18) 0.0470(3) 0.52892(16)
O3 O 0.17777(18) 0.0602(3) 0.66709(17)
O4 O 0.19527(17) -0.2551(3) 0.67091(16)
N1 N 0.9813(2) 0.2765(3) 0.53258(19)
H1 H 1.032(2) 0.185(3) 0.572(2)
H2 H 0.941(2) 0.242(4) 0.4609(13)
H3 H 1.025(3) 0.386(2) 0.533(2)
N2 N 0.7053(2) 0.1266(3) 0.6395(2)
H4 H 0.675(3) 0.237(3) 0.657(3)
N3 N 0.47076(19) -0.0950(3) 0.71003(18)
C1 C 1.0079(3) 0.3107(4) 0.7942(2)
H5 H 1.027109 0.181366 0.786830
C2 C 1.0600(3) 0.4049(5) 0.8948(2)
H6 H 1.116676 0.340531 0.956171
C3 C 1.0300(3) 0.5940(5) 0.9066(3)
H7 H 1.065887 0.657763 0.975936
C4 C 0.9479(3) 0.6882(5) 0.8173(3)
H8 H 0.926069 0.816213 0.825720
C5 C 0.8972(3) 0.5954(4) 0.7151(3)
H9 H 0.842378 0.660777 0.653163
C6 C 0.9269(2) 0.4071(4) 0.7037(2)
C7 C 0.8745(2) 0.3136(4) 0.5895(2)
H10 H 0.809951 0.400529 0.540469
C8 C 0.8082(2) 0.1237(4) 0.5941(2)
C9 C 0.6318(2) -0.0423(4) 0.6436(2)
H11 H 0.660021 -0.147982 0.601061
C10 C 0.6120(2) -0.1082(4) 0.7605(2)
H12 H 0.643127 -0.239389 0.781492
C11 C 0.4820(2) -0.0159(4) 0.6098(2)
C12 C 0.5508(2) -0.0295(5) 0.9539(2)
H13 H 0.581842 -0.153872 0.986420
H14 H 0.551646 0.057302 1.017615
C13 C 0.4127(2) -0.0490(4) 0.8826(2)
C14 C 0.3752(2) -0.0770(4) 0.7708(2)
C15 C 0.2356(2) -0.0922(4) 0.6977(2)
O5 O 0.5737(2) 0.4458(3) 0.68974(18)
H15 H 0.500(2) 0.438(6) 0.708(3)
H16 H 0.567(3) 0.493(5) 0.6243(18)
O6 O 0.3389(2) 0.4072(3) 0.7476(2)
H17 H 0.302(3) 0.513(3) 0.731(3)
H18 H 0.291(3) 0.311(3) 0.727(3)
loop_
_geom_bond_atom_site_label_1
_geom_bond_atom_site_label_2
_geom_bond_site_symmetry_1
_geom_bond_site_symmetry_2
S1 C10 1_555 1_555
Cl1 C13 1_555 1_555
O1 C8 1_555 1_555
O2 C11 1_555 1_555
O3 C15 1_555 1_555
O4 C15 1_555 1_555
N1 H1 1_555 1_555
H2 N1 1_555 1_555
H3 N1 1_555 1_555
N2 H4 1_555 1_555
N3 C10 1_555 1_555
C1 H5 1_555 1_555
C2 C1 1_555 1_555
H6 C2 1_555 1_555
C3 C2 1_555 1_555
H7 C3 1_555 1_555
C4 C3 1_555 1_555
H8 C4 1_555 1_555
C5 C4 1_555 1_555
H9 C5 1_555 1_555
C6 C1 1_555 1_555
C7 N1 1_555 1_555
H10 C7 1_555 1_555
C8 N2 1_555 1_555
C9 N2 1_555 1_555
H11 C9 1_555 1_555
C10 C9 1_555 1_555
H12 C10 1_555 1_555
C11 N3 1_555 1_555
C12 S1 1_555 1_555
H13 C12 1_555 1_555
H14 C12 1_555 1_555
C13 C12 1_555 1_555
C14 N3 1_555 1_555
C15 C14 1_555 1_555
O5 H15 1_555 1_555
H16 O5 1_555 1_555
O6 H17 1_555 1_555
H18 O6 1_555 1_555
C5 C6 1_555 1_555
C6 C7 1_555 1_555
C7 C8 1_555 1_555
C9 C11 1_555 1_555
C13 C14 1_555 1_555

#END
