
#######################################################################
#
#                 Cambridge Crystallographic Data Centre
#                                CCDC 
#
#######################################################################
#
# If this CIF has been generated from an entry in the Cambridge 
# Structural Database, then it will include bibliographic, chemical, 
# crystal, experimental, refinement or atomic coordinate data resulting 
# from the CCDC's data processing and validation procedures.
#
#######################################################################

data_QIJSIO
_chemical_formula_moiety         'C64 H70 B5 N1 O10,C1 S2'
_chemical_name_systematic        
'2,5,8,11,14-pentakis(4,4,5,5-tetramethyl-1,3,2-dioxaborolan-2-yl)-15d-azabenzo[5,6]acenaphtho[4,3,2,1,8,7-pqrstuv]dibenzo[fg,ij]pentaphene carbon disulfide solvate'
_symmetry_cell_setting           triclinic
_symmetry_space_group_name_H-M   'P -1'
_symmetry_Int_Tables_number      2
_space_group_name_Hall           '-P 1'
loop_
_symmetry_equiv_pos_site_id
_symmetry_equiv_pos_as_xyz
1 x,y,z
2 -x,-y,-z
_cell_length_a                   13.202(6)
_cell_length_b                   14.378(5)
_cell_length_c                   17.394(6)
_cell_angle_alpha                66.5900(10)
_cell_angle_beta                 81.749(13)
_cell_angle_gamma                85.219(14)
_cell_volume                     2997.3
_exptl_crystal_colour            yellow
_exptl_crystal_description       Block
_cell_formula_units_Z            2
_exptl_crystal_recrystallization_method 'carbon disulfide/hexane'
loop_
_atom_site_label
_atom_site_type_symbol
_atom_site_fract_x
_atom_site_fract_y
_atom_site_fract_z
S1 S 0.57721(15) 0.32095(14) 0.29168(10)
S2 S 0.56722(19) 0.42487(15) 0.41615(16)
C1 C 0.5720(4) 0.3719(4) 0.3536(4)
O1 O 0.7272(2) 0.1845(2) -0.04411(19)
O2 O 0.8988(2) 0.7462(2) -0.02683(19)
O3 O 0.9205(2) 0.6238(2) -0.08095(19)
O4 O 0.6146(2) 0.0620(2) 0.03797(19)
O5 O 0.2156(2) -0.0568(2) 0.35124(19)
O6 O 0.6666(2) 0.8473(2) 0.2973(2)
O7 O 0.1629(3) -0.0160(2) 0.46392(19)
O8 O 0.5112(2) 0.8477(3) 0.3725(2)
O9 O 0.0820(3) 0.3581(2) 0.60793(19)
O10 O 0.1854(3) 0.4747(3) 0.6084(2)
N1 N 0.4670(3) 0.5275(2) 0.1303(2)
C2 C 0.4105(3) 0.5591(3) 0.1889(2)
C3 C 0.3338(3) 0.4906(3) 0.2306(2)
C4 C 0.4254(3) 0.4399(3) 0.1355(2)
C5 C 0.6046(3) 0.6320(3) 0.1145(2)
C6 C 0.3431(3) 0.4164(3) 0.1980(2)
C7 C 0.5878(3) 0.2325(3) 0.0536(2)
C8 C 0.4961(3) 0.2043(3) 0.1097(2)
H1 H 0.471818 0.137983 0.126056
C9 C 0.2527(3) 0.2981(3) 0.3236(2)
C10 C 0.4403(3) 0.2701(3) 0.1416(2)
C11 C 0.5471(3) 0.6621(3) 0.1816(2)
C12 C 0.3106(3) 0.3184(3) 0.2430(2)
C13 C 0.5841(3) 0.7225(3) 0.2170(2)
H2 H 0.646375 0.756723 0.191495
C14 C 0.2939(3) 0.4712(3) 0.3144(2)
C15 C 0.5785(3) 0.3988(3) 0.0624(2)
C16 C 0.3164(3) 0.1460(3) 0.2579(2)
H3 H 0.336768 0.093710 0.238054
C17 C 0.4809(3) 0.3699(3) 0.1094(2)
C18 C 0.7022(3) 0.6638(3) 0.0724(2)
H4 H 0.732413 0.716765 0.079945
C19 C 0.3526(3) 0.2431(3) 0.2116(2)
C20 C 0.6289(3) 0.3282(3) 0.0327(2)
H5 H 0.692322 0.344898 -0.002413
C21 C 0.4509(3) 0.6176(3) 0.2227(2)
C22 C 0.7565(3) 0.6193(3) 0.0194(2)
C23 C 0.3208(3) 0.5390(3) 0.3494(2)
C24 C 0.2501(3) 0.1239(3) 0.3336(2)
C25 C 0.7179(3) 0.5336(3) 0.0135(2)
H6 H 0.758242 0.500942 -0.018792
C26 C 0.5657(3) 0.5550(3) 0.0961(2)
C27 C 0.5321(3) 0.7343(3) 0.2891(3)
C28 C 0.4442(3) 0.6780(3) 0.3322(3)
H7 H 0.412871 0.682659 0.383241
C29 C 0.1989(3) 0.3649(3) 0.4411(2)
H8 H 0.158227 0.307486 0.473270
C30 C 0.2120(3) 0.4343(3) 0.4768(2)
C31 C 0.2433(3) 0.3771(3) 0.3604(2)
C32 C 0.2774(3) 0.5174(3) 0.4324(2)
H9 H 0.291979 0.559320 0.459872
C33 C 0.4017(3) 0.6149(3) 0.3013(2)
C34 C 0.2230(3) 0.1982(3) 0.3668(2)
H10 H 0.183155 0.179716 0.420391
C35 C 0.6220(3) 0.4962(3) 0.0542(2)
C36 C 0.1124(3) 0.4590(3) 0.6818(2)
C37 C 0.6714(3) 0.9265(3) 0.3286(3)
C38 C 0.5754(3) 0.9088(3) 0.3956(3)
C39 C 1.0010(3) 0.6965(3) -0.1268(3)
C40 C 0.0574(3) 0.3608(3) 0.6926(3)
C41 C 1.0038(3) 0.7530(4) -0.0668(3)
C42 C 0.7441(4) 0.1029(3) -0.0758(3)
C43 C 0.1504(4) -0.1398(3) 0.4109(3)
C44 C 0.6937(3) 0.0124(3) -0.0034(3)
B1 B 0.6436(3) 0.1588(3) 0.0157(3)
C45 C 0.6441(4) -0.0626(3) -0.0236(3)
H11 H 0.614836 -0.115826 0.028862
H12 H 0.695144 -0.092908 -0.054218
H13 H 0.589570 -0.028672 -0.058707
C46 C 0.7696(4) -0.0436(3) 0.0615(3)
H14 H 0.806823 0.006122 0.071300
H15 H 0.818357 -0.085035 0.039623
H16 H 0.731705 -0.087356 0.114776
C47 C 0.1464(4) -0.1248(3) 0.4935(3)
B2 B 0.8586(4) 0.6631(3) -0.0298(3)
C48 C 0.0987(4) 0.2636(3) 0.7563(3)
H17 H 0.065437 0.205547 0.755642
H18 H 0.084717 0.264827 0.812784
H19 H 0.172810 0.257530 0.741734
C49 C 0.8543(4) 0.0942(4) -0.1040(3)
H20 H 0.875437 0.156535 -0.152132
H21 H 0.866478 0.036433 -0.120868
H22 H 0.893972 0.083932 -0.057627
C50 C -0.0581(4) 0.3670(4) 0.7097(4)
H23 H -0.084762 0.424314 0.663236
H24 H -0.077486 0.376776 0.762590
H25 H -0.086750 0.304033 0.714350
B3 B 0.2101(3) 0.0160(3) 0.3828(3)
C51 C 0.7727(4) 0.9157(5) 0.3625(4)
H26 H 0.783813 0.845130 0.400755
H27 H 0.772010 0.960039 0.393168
H28 H 0.827998 0.934850 0.315482
B4 B 0.1592(4) 0.4219(3) 0.5658(3)
B5 B 0.5705(4) 0.8101(3) 0.3207(3)
C52 C 0.9628(4) 0.7640(4) -0.2102(3)
H29 H 0.941466 0.721697 -0.237141
H30 H 1.017969 0.807650 -0.247353
H31 H 0.904458 0.806076 -0.200007
C53 C 1.0989(4) 0.6403(4) -0.1408(4)
H32 H 1.115061 0.588300 -0.086757
H33 H 1.154851 0.688092 -0.165218
H34 H 1.090514 0.608004 -0.179535
C54 C 0.0434(4) 0.5517(4) 0.6621(4)
H35 H 0.084424 0.611620 0.646834
H36 H -0.005885 0.544884 0.711778
H37 H 0.006438 0.559315 0.614848
C55 C 0.5151(4) 1.0022(4) 0.3936(4)
H38 H 0.491475 1.037762 0.338040
H39 H 0.558354 1.046747 0.404452
H40 H 0.455800 0.983311 0.437116
C56 C 0.1702(5) 0.4467(4) 0.7535(4)
H41 H 0.218544 0.388706 0.763095
H42 H 0.122098 0.434937 0.804614
H43 H 0.207963 0.508306 0.739552
C57 C 1.0316(4) 0.8616(4) -0.1097(4)
H44 H 0.984737 0.897866 -0.151666
H45 H 1.101967 0.866362 -0.137904
H46 H 1.026475 0.892020 -0.067861
C58 C 0.6833(5) 0.1367(4) -0.1535(3)
H47 H 0.610024 0.141622 -0.135152
H48 H 0.694993 0.086683 -0.179364
H49 H 0.706586 0.202913 -0.194901
C59 C 1.0676(4) 0.6956(5) 0.0052(4)
H50 H 1.058601 0.728547 0.045498
H51 H 1.139995 0.695845 -0.017432
H52 H 1.045136 0.625483 0.033860
C60 C 0.1963(5) -0.2396(4) 0.4120(4)
H53 H 0.192639 -0.243366 0.357434
H54 H 0.158197 -0.295214 0.456888
H55 H 0.268053 -0.245249 0.422355
C61 C 0.5965(4) 0.8429(5) 0.4858(3)
H56 H 0.531456 0.825282 0.522607
H57 H 0.637579 0.880407 0.505939
H58 H 0.634008 0.780728 0.486829
C62 C 0.6648(5) 1.0261(4) 0.2522(4)
H59 H 0.717406 1.025586 0.206425
H60 H 0.675889 1.082659 0.267677
H61 H 0.596983 1.034088 0.233334
C63 C 0.2357(6) -0.1768(4) 0.5426(5)
H62 H 0.298957 -0.166765 0.503440
H63 H 0.223477 -0.249490 0.572090
H64 H 0.242266 -0.147605 0.583798
C64 C 0.0479(5) -0.1487(4) 0.5506(4)
H65 H 0.054757 -0.139350 0.602369
H66 H 0.031143 -0.219241 0.564731
H67 H -0.006815 -0.103408 0.522068
C65 C 0.0466(5) -0.1193(4) 0.3768(4)
H68 H 0.014019 -0.058162 0.382467
H69 H 0.002632 -0.177195 0.408873
H70 H 0.056705 -0.109288 0.317117
loop_
_geom_bond_atom_site_label_1
_geom_bond_atom_site_label_2
_geom_bond_site_symmetry_1
_geom_bond_site_symmetry_2
S1 C1 1_555 1_555
S2 C1 1_555 1_555
O1 C42 1_555 1_555
O2 C41 1_555 1_555
O3 C39 1_555 1_555
O4 C44 1_555 1_555
O5 C43 1_555 1_555
O6 C37 1_555 1_555
O7 C47 1_555 1_555
O8 C38 1_555 1_555
O9 C40 1_555 1_555
O10 C36 1_555 1_555
N1 C2 1_555 1_555
C2 C3 1_555 1_555
C3 C6 1_555 1_555
C4 N1 1_555 1_555
C5 C11 1_555 1_555
C6 C4 1_555 1_555
C7 C8 1_555 1_555
C8 H1 1_555 1_555
C9 C12 1_555 1_555
C10 C8 1_555 1_555
C11 C13 1_555 1_555
C12 C6 1_555 1_555
C13 H2 1_555 1_555
C14 C3 1_555 1_555
C15 C17 1_555 1_555
C16 H3 1_555 1_555
C17 C4 1_555 1_555
C18 C5 1_555 1_555
H4 C18 1_555 1_555
C19 C10 1_555 1_555
C20 C7 1_555 1_555
H5 C20 1_555 1_555
C21 C2 1_555 1_555
C22 C18 1_555 1_555
C23 C14 1_555 1_555
C24 C16 1_555 1_555
C25 C22 1_555 1_555
H6 C25 1_555 1_555
C26 N1 1_555 1_555
C27 C13 1_555 1_555
C28 C27 1_555 1_555
H7 C28 1_555 1_555
C29 H8 1_555 1_555
C30 C29 1_555 1_555
C31 C9 1_555 1_555
C32 C23 1_555 1_555
H9 C32 1_555 1_555
C33 C21 1_555 1_555
C34 C9 1_555 1_555
H10 C34 1_555 1_555
C35 C15 1_555 1_555
C36 C40 1_555 1_555
C37 C38 1_555 1_555
C38 C55 1_555 1_555
C39 C41 1_555 1_555
C40 C48 1_555 1_555
C41 C57 1_555 1_555
C42 C44 1_555 1_555
C43 C47 1_555 1_555
C44 C45 1_555 1_555
B1 O1 1_555 1_555
C45 H11 1_555 1_555
H12 C45 1_555 1_555
H13 C45 1_555 1_555
C46 C44 1_555 1_555
H14 C46 1_555 1_555
H15 C46 1_555 1_555
H16 C46 1_555 1_555
C47 C63 1_555 1_555
B2 O2 1_555 1_555
C48 H17 1_555 1_555
H18 C48 1_555 1_555
H19 C48 1_555 1_555
C49 C42 1_555 1_555
H20 C49 1_555 1_555
H21 C49 1_555 1_555
H22 C49 1_555 1_555
C50 C40 1_555 1_555
H23 C50 1_555 1_555
H24 C50 1_555 1_555
H25 C50 1_555 1_555
B3 O5 1_555 1_555
C51 C37 1_555 1_555
H26 C51 1_555 1_555
H27 C51 1_555 1_555
H28 C51 1_555 1_555
B4 O9 1_555 1_555
B5 O6 1_555 1_555
C52 C39 1_555 1_555
H29 C52 1_555 1_555
H30 C52 1_555 1_555
H31 C52 1_555 1_555
C53 C39 1_555 1_555
H32 C53 1_555 1_555
H33 C53 1_555 1_555
H34 C53 1_555 1_555
C54 C36 1_555 1_555
H35 C54 1_555 1_555
H36 C54 1_555 1_555
H37 C54 1_555 1_555
C55 H38 1_555 1_555
H39 C55 1_555 1_555
H40 C55 1_555 1_555
C56 C36 1_555 1_555
H41 C56 1_555 1_555
H42 C56 1_555 1_555
H43 C56 1_555 1_555
C57 H44 1_555 1_555
H45 C57 1_555 1_555
H46 C57 1_555 1_555
C58 C42 1_555 1_555
H47 C58 1_555 1_555
H48 C58 1_555 1_555
H49 C58 1_555 1_555
C59 C41 1_555 1_555
H50 C59 1_555 1_555
H51 C59 1_555 1_555
H52 C59 1_555 1_555
C60 C43 1_555 1_555
H53 C60 1_555 1_555
H54 C60 1_555 1_555
H55 C60 1_555 1_555
C61 C38 1_555 1_555
H56 C61 1_555 1_555
H57 C61 1_555 1_555
H58 C61 1_555 1_555
C62 C37 1_555 1_555
H59 C62 1_555 1_555
H60 C62 1_555 1_555
H61 C62 1_555 1_555
C63 H62 1_555 1_555
H63 C63 1_555 1_555
H64 C63 1_555 1_555
C64 C47 1_555 1_555
H65 C64 1_555 1_555
H66 C64 1_555 1_555
H67 C64 1_555 1_555
C65 C43 1_555 1_555
H68 C65 1_555 1_555
H69 C65 1_555 1_555
H70 C65 1_555 1_555
O3 B2 1_555 1_555
O4 B1 1_555 1_555
O7 B3 1_555 1_555
O8 B5 1_555 1_555
O10 B4 1_555 1_555
C5 C26 1_555 1_555
C7 B1 1_555 1_555
C10 C17 1_555 1_555
C11 C21 1_555 1_555
C12 C19 1_555 1_555
C14 C31 1_555 1_555
C15 C20 1_555 1_555
C16 C19 1_555 1_555
C22 B2 1_555 1_555
C23 C33 1_555 1_555
C24 C34 1_555 1_555
C24 B3 1_555 1_555
C25 C35 1_555 1_555
C26 C35 1_555 1_555
C27 B5 1_555 1_555
C28 C33 1_555 1_555
C29 C31 1_555 1_555
C30 C32 1_555 1_555
C30 B4 1_555 1_555

#END
