
#######################################################################
#
#                 Cambridge Crystallographic Data Centre
#                                CCDC 
#
#######################################################################
#
# If this CIF has been generated from an entry in the Cambridge 
# Structural Database, then it will include bibliographic, chemical, 
# crystal, experimental, refinement or atomic coordinate data resulting 
# from the CCDC's data processing and validation procedures.
#
#######################################################################

data_QIJSEK
_chemical_formula_moiety         'C34 H15 N1'
_chemical_name_systematic        
15d-azabenzo[5,6]acenaphtho[4,3,2,1,8,7-pqrstuv]dibenzo[fg,ij]pentaphene
_symmetry_cell_setting           orthorhombic
_symmetry_space_group_name_H-M   'P m n 21'
_symmetry_Int_Tables_number      31
_space_group_name_Hall           'P 2ac -2'
loop_
_symmetry_equiv_pos_site_id
_symmetry_equiv_pos_as_xyz
1 x,y,z
2 1/2-x,-y,1/2+z
3 -x,y,z
4 1/2+x,-y,1/2+z
_cell_length_a                   20.639(13)
_cell_length_b                   12.018(8)
_cell_length_c                   3.778(2)
_cell_angle_alpha                90
_cell_angle_beta                 90
_cell_angle_gamma                90
_cell_volume                     937.093
_exptl_crystal_colour            yellow
_exptl_crystal_description       Block
_cell_formula_units_Z            2
_exptl_crystal_recrystallization_method 'carbon disulfide/hexane'
loop_
_atom_site_label
_atom_site_type_symbol
_atom_site_fract_x
_atom_site_fract_y
_atom_site_fract_z
C1 C 0.55411(16) 0.2390(3) 0.2329(9)
N1 N 0.500000 0.1725(4) 0.2718(14)
C2 C 0.53344(17) 0.3467(3) 0.1695(10)
C3 C 0.500000 0.0731(4) 0.4586(14)
C4 C 0.63516(18) 0.4192(3) 0.3840(10)
C5 C 0.57001(17) 0.4387(3) 0.2721(10)
C6 C 0.53648(16) 0.5412(3) 0.3217(10)
C7 C 0.61291(18) 0.2120(3) 0.3838(10)
C8 C 0.62006(19) 0.1031(3) 0.5276(10)
C9 C 0.57412(18) 0.6321(3) 0.4288(11)
H1 H 0.555102 0.703813 0.448697
C10 C 0.65767(18) 0.3014(3) 0.4325(10)
C11 C 0.66917(17) 0.5128(3) 0.4942(11)
H2 H 0.713279 0.505775 0.562512
C12 C 0.63920(18) 0.6171(3) 0.5059(10)
H3 H 0.664440 0.680199 0.569064
C13 C 0.43862(19) 0.0312(3) 0.5666(10)
C14 C 0.500000 -0.1200(5) 0.8286(16)
H4 H 0.500000 -0.190962 0.939669
C15 C 0.72910(19) 0.1603(3) 0.6747(11)
H5 H 0.771371 0.140411 0.751600
C16 C 0.71747(18) 0.2706(3) 0.5733(11)
H6 H 0.750571 0.324881 0.600680
C17 C 0.4407(2) -0.0703(3) 0.7507(11)
H7 H 0.401569 -0.105230 0.822444
C18 C 0.68151(19) 0.0789(3) 0.6675(11)
H8 H 0.690474 0.006699 0.757317
C1B C 0.44589(16) 0.2390(3) 0.2329(9)
C2B C 0.46656(17) 0.3467(3) 0.1695(10)
C4B C 0.36484(18) 0.4192(3) 0.3840(10)
C5B C 0.42999(17) 0.4387(3) 0.2721(10)
C6B C 0.46352(16) 0.5412(3) 0.3217(10)
C7B C 0.38709(18) 0.2120(3) 0.3838(10)
C8B C 0.37994(19) 0.1031(3) 0.5276(10)
C9B C 0.42588(18) 0.6321(3) 0.4288(11)
H1B H 0.444898 0.703813 0.448697
C10B C 0.34233(18) 0.3014(3) 0.4325(10)
C11B C 0.33083(17) 0.5128(3) 0.4942(11)
H2B H 0.286721 0.505775 0.562512
C12B C 0.36080(18) 0.6171(3) 0.5059(10)
H3B H 0.335560 0.680199 0.569064
C13B C 0.56138(19) 0.0312(3) 0.5666(10)
C15B C 0.27090(19) 0.1603(3) 0.6747(11)
H5B H 0.228629 0.140411 0.751600
C16B C 0.28253(18) 0.2706(3) 0.5733(11)
H6B H 0.249429 0.324881 0.600680
C17B C 0.5593(2) -0.0703(3) 0.7507(11)
H7B H 0.598431 -0.105230 0.822444
C18B C 0.31849(19) 0.0789(3) 0.6675(11)
H8B H 0.309526 0.006699 0.757317
loop_
_geom_bond_atom_site_label_1
_geom_bond_atom_site_label_2
_geom_bond_site_symmetry_1
_geom_bond_site_symmetry_2
C1 N1 1_555 1_555
N1 C3 1_555 1_555
C2 C1 1_555 1_555
C3 C13 1_555 1_555
C4 C5 1_555 1_555
C5 C2 1_555 1_555
C6 C5 1_555 1_555
C7 C1 1_555 1_555
C8 C7 1_555 1_555
C9 C6 1_555 1_555
H1 C9 1_555 1_555
C10 C4 1_555 1_555
C11 C4 1_555 1_555
H2 C11 1_555 1_555
C12 C9 1_555 1_555
H3 C12 1_555 1_555
C13 C17 1_555 1_555
C14 H4 1_555 1_555
C15 H5 1_555 1_555
C16 C10 1_555 1_555
H6 C16 1_555 1_555
C17 C14 1_555 1_555
H7 C17 1_555 1_555
C18 C8 1_555 1_555
H8 C18 1_555 1_555
C1B N1 1_555 1_555
C2B C2 1_555 1_555
C4B C5B 1_555 1_555
C5B C2B 1_555 1_555
C6B C6 1_555 1_555
C7B C1B 1_555 1_555
C8B C13 1_555 1_555
C9B C6B 1_555 1_555
H1B C9B 1_555 1_555
C10B C4B 1_555 1_555
C11B C4B 1_555 1_555
H2B C11B 1_555 1_555
C12B C9B 1_555 1_555
H3B C12B 1_555 1_555
C13B C3 1_555 1_555
C15B H5B 1_555 1_555
C16B C10B 1_555 1_555
H6B C16B 1_555 1_555
C17B C14 1_555 1_555
H7B C17B 1_555 1_555
C18B C8B 1_555 1_555
H8B C18B 1_555 1_555
C7 C10 1_555 1_555
C8 C13B 1_555 1_555
C11 C12 1_555 1_555
C15 C16 1_555 1_555
C15 C18 1_555 1_555
C1B C2B 1_555 1_555
C5B C6B 1_555 1_555
C7B C8B 1_555 1_555
C7B C10B 1_555 1_555
C11B C12B 1_555 1_555
C13B C17B 1_555 1_555
C15B C16B 1_555 1_555
C15B C18B 1_555 1_555

#END
