
#######################################################################
#
#                 Cambridge Crystallographic Data Centre
#                                CCDC 
#
#######################################################################
#
# If this CIF has been generated from an entry in the Cambridge 
# Structural Database, then it will include bibliographic, chemical, 
# crystal, experimental, refinement or atomic coordinate data resulting 
# from the CCDC's data processing and validation procedures.
#
#######################################################################

data_QIJVEN
_chemical_formula_moiety         'C36 H38 F2 N6'
_chemical_name_systematic        
"2,2'-[5,10-bis(2-ethylhexyl)-3,8-difluoroindolo[3,2-b]indole-2,7(5H,10H)-diylidene]dipropanedinitrile unknown solvate"
_symmetry_cell_setting           monoclinic
_symmetry_space_group_name_H-M   'P 21/n'
_symmetry_Int_Tables_number      14
_space_group_name_Hall           '-P 2yn'
loop_
_symmetry_equiv_pos_site_id
_symmetry_equiv_pos_as_xyz
1 x,y,z
2 1/2-x,1/2+y,1/2-z
3 -x,-y,-z
4 1/2+x,1/2-y,1/2+z
_cell_length_a                   15.4387(6)
_cell_length_b                   12.7404(4)
_cell_length_c                   20.8005(8)
_cell_angle_alpha                90
_cell_angle_beta                 106.901(2)
_cell_angle_gamma                90
_cell_volume                     3914.65
_exptl_crystal_description       block
_cell_formula_units_Z            4
loop_
_atom_site_label
_atom_site_type_symbol
_atom_site_fract_x
_atom_site_fract_y
_atom_site_fract_z
F1 F 0.5703(2) 0.71262(18) 0.69150(12)
N1 N 0.3102(4) -0.0410(3) 0.4109(2)
C1 C 0.2591(3) 0.2229(3) 0.3652(2)
F2 F 0.1714(2) 0.29393(19) 0.26089(13)
N2 N 0.1368(4) 0.0658(3) 0.2247(2)
C2 C 0.2244(4) 0.3130(3) 0.3252(2)
N3 N 0.4275(4) 1.0491(3) 0.5440(2)
C3 C 0.2405(4) 0.4129(3) 0.3447(2)
H1 H 0.215175 0.469277 0.315384
N4 N 0.5955(4) 0.9391(3) 0.7312(2)
C4 C 0.2968(3) 0.4316(3) 0.4108(2)
N5 N 0.3306(3) 0.6269(2) 0.44513(17)
C5 C 0.3356(3) 0.3432(3) 0.4522(2)
N6 N 0.3925(3) 0.3798(2) 0.51453(17)
C6 C 0.3173(3) 0.2422(3) 0.4318(2)
H2 H 0.342516 0.185542 0.460970
C7 C 0.3315(3) 0.5195(3) 0.4479(2)
C8 C 0.3908(3) 0.4857(3) 0.5116(2)
C9 C 0.4274(3) 0.5743(3) 0.5489(2)
C10 C 0.3895(3) 0.6631(3) 0.5070(2)
C11 C 0.4099(3) 0.7637(3) 0.5264(2)
H3 H 0.383748 0.820012 0.497239
C12 C 0.4712(3) 0.7840(3) 0.5910(2)
C13 C 0.5092(3) 0.6932(3) 0.6308(2)
C14 C 0.4901(3) 0.5934(3) 0.6122(2)
H4 H 0.517931 0.537077 0.640751
C15 C 0.4928(3) 0.8863(3) 0.6144(2)
C16 C 0.4563(4) 0.9750(3) 0.5742(2)
C17 C 0.5503(4) 0.9126(3) 0.6800(2)
C18 C 0.2389(4) 0.1210(3) 0.3408(2)
C19 C 0.1827(4) 0.0934(3) 0.2761(3)
C20 C 0.2795(4) 0.0317(3) 0.3808(2)
C21 C 0.2695(4) 0.6910(3) 0.3934(2)
H5 H 0.244351 0.646850 0.353140
H6 H 0.305125 0.747783 0.380640
C22 C 0.1921(4) 0.7399(4) 0.4129(3)
H7 H 0.218514 0.796824 0.445915
C23 C 0.1436(5) 0.6660(6) 0.4471(4)
H8 H 0.189790 0.630903 0.484051
H9 H 0.105525 0.708806 0.468045
C24 C 0.0879(8) 0.5871(8) 0.4081(5)
H10 H 0.060842 0.545149 0.436709
H11 H 0.039860 0.619890 0.372169
H12 H 0.124531 0.541612 0.388252
C25 C 0.1283(5) 0.7936(4) 0.3508(3)
H13 H 0.165599 0.832312 0.327261
H14 H 0.095112 0.738276 0.319884
C26 C 0.0618(6) 0.8665(6) 0.3637(4)
H15 H 0.095394 0.928870 0.386466
H16 H 0.035040 0.832339 0.396224
C27 C -0.0155(9) 0.9055(11) 0.3057(7)
H17 H 0.010254 0.935921 0.271435
H18 H -0.046593 0.962867 0.322279
C28 C -0.0876(10) 0.8219(10) 0.2707(7)
H19 H -0.134407 0.854982 0.234093
H20 H -0.058392 0.765548 0.252593
H21 H -0.115404 0.792572 0.303584
C29 C 0.4393(4) 0.3158(3) 0.5728(2)
H22 H 0.487960 0.358781 0.602765
H23 H 0.468581 0.256053 0.556919
C30 C 0.3803(9) 0.2720(11) 0.6145(6)
H24 H 0.339695 0.215564 0.588782
C31 C 0.4493(13) 0.2242(15) 0.6798(8)
H25 H 0.437997 0.147697 0.679927
H26 H 0.511163 0.233583 0.675744
C32 C 0.4483(13) 0.2668(14) 0.7463(7)
H27 H 0.387028 0.290589 0.745842
H28 H 0.491804 0.325192 0.761004
C33 C 0.4781(15) 0.1673(15) 0.7911(9)
H29 H 0.425941 0.124844 0.794613
H30 H 0.520801 0.122753 0.775833
C34 C 0.524(2) 0.226(2) 0.8564(12)
H31 H 0.548913 0.175475 0.892573
H32 H 0.573777 0.269320 0.849943
H33 H 0.480181 0.271383 0.868472
C35 C 0.3243(11) 0.3592(12) 0.6319(8)
H34 H 0.298507 0.399847 0.590121
H35 H 0.272710 0.325139 0.642796
C36 C 0.3599(19) 0.4321(19) 0.6826(13)
H36 H 0.312356 0.481319 0.685388
H37 H 0.383251 0.395507 0.725623
H38 H 0.409264 0.470839 0.672508
H39? H 0.069581 0.862031 0.412607
H40? H 0.001829 0.835591 0.341318
C37? C 0.053(3) 0.9829(15) 0.3468(18)
H41? H 0.038112 1.010803 0.386807
H42? H 0.117208 1.001940 0.354192
C38? C 0.007(3) 1.063(3) 0.2949(17)
H43? H 0.027952 1.133433 0.311358
H44? H 0.022402 1.049401 0.253111
H45? H -0.058536 1.058470 0.286485
H46? H 0.501193 0.344092 0.591887
H47? H 0.445272 0.243542 0.557106
C39? C 0.3950(7) 0.3099(11) 0.6280(4)
H48? H 0.403007 0.380966 0.649412
C40? C 0.2947(7) 0.2912(10) 0.6049(8)
H49? H 0.280065 0.248522 0.563347
H50? H 0.277533 0.249933 0.639596
C41? C 0.2388(10) 0.3895(11) 0.5912(4)
H51? H 0.186691 0.384784 0.550214
H52? H 0.274986 0.453201 0.589906
C42? C 0.212180 0.379973 0.654816
H53? H 0.151622 0.347679 0.646698
H54? H 0.257143 0.339263 0.689497
C43? C 0.212(3) 0.4936(7) 0.6736(17)
H55? H 0.195107 0.500017 0.715418
H56? H 0.272281 0.523375 0.680005
H57? H 0.167849 0.531704 0.637648
C44? C 0.4462(10) 0.2357(14) 0.6816(8)
H58? H 0.487601 0.195717 0.662225
H59? H 0.484988 0.279466 0.718097
C45? C 0.4009(11) 0.1569(11) 0.7146(7)
H60? H 0.446911 0.116820 0.747981
H61? H 0.361695 0.193448 0.736941
H62? H 0.364331 0.108986 0.680594
loop_
_geom_bond_atom_site_label_1
_geom_bond_atom_site_label_2
_geom_bond_site_symmetry_1
_geom_bond_site_symmetry_2
F1 C13 1_555 1_555
N1 C20 1_555 1_555
C1 C2 1_555 1_555
F2 C2 1_555 1_555
N2 C19 1_555 1_555
C2 C3 1_555 1_555
N3 C16 1_555 1_555
C3 H1 1_555 1_555
N4 C17 1_555 1_555
C4 C3 1_555 1_555
N5 C7 1_555 1_555
C5 C4 1_555 1_555
N6 C5 1_555 1_555
C6 C1 1_555 1_555
H2 C6 1_555 1_555
C7 C4 1_555 1_555
C8 N6 1_555 1_555
C9 C8 1_555 1_555
C10 N5 1_555 1_555
C11 C10 1_555 1_555
H3 C11 1_555 1_555
C12 C11 1_555 1_555
C13 C12 1_555 1_555
C14 C9 1_555 1_555
H4 C14 1_555 1_555
C15 C12 1_555 1_555
C16 C15 1_555 1_555
C17 C15 1_555 1_555
C18 C1 1_555 1_555
C19 C18 1_555 1_555
C20 C18 1_555 1_555
C21 N5 1_555 1_555
H5 C21 1_555 1_555
H6 C21 1_555 1_555
C22 C21 1_555 1_555
H7 C22 1_555 1_555
C23 C22 1_555 1_555
H8 C23 1_555 1_555
H9 C23 1_555 1_555
C24 C23 1_555 1_555
H10 C24 1_555 1_555
H11 C24 1_555 1_555
H12 C24 1_555 1_555
C25 C22 1_555 1_555
H13 C25 1_555 1_555
H14 C25 1_555 1_555
C26 C25 1_555 1_555
H15 C26 1_555 1_555
H16 C26 1_555 1_555
C27 C26 1_555 1_555
H17 C27 1_555 1_555
H18 C27 1_555 1_555
C28 C27 1_555 1_555
H19 C28 1_555 1_555
H20 C28 1_555 1_555
H21 C28 1_555 1_555
C29 N6 1_555 1_555
H22 C29 1_555 1_555
H23 C29 1_555 1_555
C30 C29 1_555 1_555
H24 C30 1_555 1_555
C31 C30 1_555 1_555
H25 C31 1_555 1_555
H26 C31 1_555 1_555
C32 C31 1_555 1_555
H27 C32 1_555 1_555
H28 C32 1_555 1_555
C33 C32 1_555 1_555
H29 C33 1_555 1_555
H30 C33 1_555 1_555
C34 C33 1_555 1_555
H31 C34 1_555 1_555
H32 C34 1_555 1_555
H33 C34 1_555 1_555
C35 C30 1_555 1_555
H34 C35 1_555 1_555
H35 C35 1_555 1_555
C36 C35 1_555 1_555
H36 C36 1_555 1_555
H37 C36 1_555 1_555
H38 C36 1_555 1_555
C5 C6 1_555 1_555
C7 C8 1_555 1_555
C9 C10 1_555 1_555
C13 C14 1_555 1_555

#END
