
#######################################################################
#
#                 Cambridge Crystallographic Data Centre
#                                CCDC 
#
#######################################################################
#
# If this CIF has been generated from an entry in the Cambridge 
# Structural Database, then it will include bibliographic, chemical, 
# crystal, experimental, refinement or atomic coordinate data resulting 
# from the CCDC's data processing and validation procedures.
#
#######################################################################

data_QIKDIZ
_chemical_formula_moiety         'C25 H15 I1 O1'
_chemical_name_systematic        
(3-Iodo-2-(phenylethynyl)-1-naphthyl)(phenyl)methanone
_symmetry_cell_setting           orthorhombic
_symmetry_space_group_name_H-M   'P b c a'
_symmetry_Int_Tables_number      61
_space_group_name_Hall           '-P 2ac 2ab'
loop_
_symmetry_equiv_pos_site_id
_symmetry_equiv_pos_as_xyz
1 x,y,z
2 1/2-x,-y,1/2+z
3 -x,1/2+y,1/2-z
4 1/2+x,1/2-y,-z
5 -x,-y,-z
6 1/2+x,y,1/2-z
7 x,1/2-y,1/2+z
8 1/2-x,1/2+y,z
_cell_length_a                   15.0955(12)
_cell_length_b                   14.2195(11)
_cell_length_c                   18.3804(14)
_cell_angle_alpha                90
_cell_angle_beta                 90
_cell_angle_gamma                90
_cell_volume                     3945.36
_exptl_crystal_colour            'pale yellow'
_exptl_crystal_description       block
_cell_formula_units_Z            8
loop_
_atom_site_label
_atom_site_type_symbol
_atom_site_fract_x
_atom_site_fract_y
_atom_site_fract_z
C1 C 0.06602(19) 0.81214(19) 0.35449(19)
C2 C 0.0914(2) 0.79311(19) 0.28364(18)
C3 C 0.0320(2) 0.81811(19) 0.22582(16)
C4 C -0.0486(2) 0.8547(2) 0.24077(17)
H1 H -0.0873 0.8672 0.2027
C5 C -0.07550(18) 0.8745(2) 0.3130(2)
C6 C -0.1587(2) 0.9166(3) 0.3290(2)
H2 H -0.1988 0.9284 0.2916
C7 C -0.1800(3) 0.9396(3) 0.3987(3)
H3 H -0.2345 0.9675 0.4085
C8 C -0.1209(3) 0.9220(3) 0.4560(3)
H4 H -0.1361 0.9393 0.5031
C9 C -0.0409(3) 0.8795(2) 0.4432(2)
H5 H -0.0027 0.8673 0.4817
C10 C -0.0162(2) 0.8540(2) 0.37124(15)
C11 C 0.1290(2) 0.7833(2) 0.41511(17)
C12 C 0.2090(2) 0.8405(2) 0.42756(16)
C13 C 0.2211(2) 0.9273(2) 0.39438(19)
H6 H 0.1782 0.9497 0.3625
C14 C 0.2953(3) 0.9807(3) 0.4079(3)
H7 H 0.3018 1.0392 0.3860
C15 C 0.3597(2) 0.9470(4) 0.4539(3)
H8 H 0.4099 0.9829 0.4634
C16 C 0.3500(3) 0.8595(4) 0.4861(2)
H9 H 0.3944 0.8359 0.5160
C17 C 0.2749(3) 0.8078(3) 0.4739(2)
H10 H 0.2679 0.7501 0.4969
C18 C 0.17244(19) 0.7457(2) 0.27082(15)
C19 C 0.2401(2) 0.7031(2) 0.26336(18)
C20 C 0.32318(18) 0.6557(2) 0.25354(16)
C21 C 0.3539(3) 0.6360(2) 0.1843(2)
H11 H 0.3187 0.6493 0.1440
C22 C 0.4366(3) 0.5968(3) 0.1749(3)
H12 H 0.4576 0.5848 0.1282
C23 C 0.4880(3) 0.5755(3) 0.2342(3)
H13 H 0.5438 0.5494 0.2273
C24 C 0.4586(3) 0.5918(3) 0.3026(3)
H14 H 0.4934 0.5755 0.3424
C25 C 0.3765(2) 0.6329(2) 0.3131(2)
H15 H 0.3567 0.6455 0.3600
O1 O 0.1117(2) 0.71356(18) 0.45141(15)
I1 I 0.074022(16) 0.802498(18) 0.118223(13)
loop_
_geom_bond_atom_site_label_1
_geom_bond_atom_site_label_2
_geom_bond_site_symmetry_1
_geom_bond_site_symmetry_2
C1 C2 1_555 1_555
C2 C3 1_555 1_555
C3 C4 1_555 1_555
C4 H1 1_555 1_555
C5 C4 1_555 1_555
C6 C5 1_555 1_555
H2 C6 1_555 1_555
C7 C6 1_555 1_555
H3 C7 1_555 1_555
C8 C7 1_555 1_555
H4 C8 1_555 1_555
C9 C8 1_555 1_555
H5 C9 1_555 1_555
C10 C1 1_555 1_555
C11 C1 1_555 1_555
C12 C11 1_555 1_555
C13 C12 1_555 1_555
H6 C13 1_555 1_555
C14 C13 1_555 1_555
H7 C14 1_555 1_555
C15 C14 1_555 1_555
H8 C15 1_555 1_555
C16 C15 1_555 1_555
H9 C16 1_555 1_555
C17 C12 1_555 1_555
H10 C17 1_555 1_555
C18 C2 1_555 1_555
C19 C18 1_555 1_555
C20 C19 1_555 1_555
C21 C20 1_555 1_555
H11 C21 1_555 1_555
C22 C21 1_555 1_555
H12 C22 1_555 1_555
C23 C22 1_555 1_555
H13 C23 1_555 1_555
C24 C23 1_555 1_555
H14 C24 1_555 1_555
C25 C20 1_555 1_555
H15 C25 1_555 1_555
O1 C11 1_555 1_555
I1 C3 1_555 1_555
C5 C10 1_555 1_555
C9 C10 1_555 1_555
C16 C17 1_555 1_555
C24 C25 1_555 1_555

#END
