
#######################################################################
#
#                 Cambridge Crystallographic Data Centre
#                                CCDC 
#
#######################################################################
#
# If this CIF has been generated from an entry in the Cambridge 
# Structural Database, then it will include bibliographic, chemical, 
# crystal, experimental, refinement or atomic coordinate data resulting 
# from the CCDC's data processing and validation procedures.
#
#######################################################################

data_QIKDET
_chemical_formula_moiety         'C6 H5 N3 O4'
_chemical_name_systematic        3,5-Dinitroaniline
_symmetry_cell_setting           monoclinic
_symmetry_space_group_name_H-M   'P 21/n'
_symmetry_Int_Tables_number      14
_space_group_name_Hall           '-P 2yn'
loop_
_symmetry_equiv_pos_site_id
_symmetry_equiv_pos_as_xyz
1 x,y,z
2 1/2+x,1/2-y,1/2+z
3 -x,-y,-z
4 1/2-x,1/2+y,1/2-z
_cell_length_a                   8.5377(6)
_cell_length_b                   14.0119(9)
_cell_length_c                   12.7071(8)
_cell_angle_alpha                90
_cell_angle_beta                 90.899(2)
_cell_angle_gamma                90
_cell_volume                     1519.96
_exptl_crystal_colour            yellow
_exptl_crystal_description       prism
_cell_formula_units_Z            8
_exptl_crystal_recrystallization_method ethanol
loop_
_atom_site_label
_atom_site_type_symbol
_atom_site_fract_x
_atom_site_fract_y
_atom_site_fract_z
C1 C -0.09505(19) 0.13604(11) 0.47681(11)
C2 C -0.1625(2) 0.04790(10) 0.45248(11)
C3 C -0.26199(19) 0.00621(10) 0.52300(10)
C4 C -0.30029(19) 0.04585(10) 0.61777(11)
C5 C -0.23384(18) 0.13373(10) 0.63817(10)
C6 C -0.1337(2) 0.17880(10) 0.57155(11)
N1 N 0.00886(19) 0.17716(11) 0.41055(11)
N2 N -0.3320(2) -0.08635(10) 0.49576(11)
O1 O -0.2935(2) -0.12460(9) 0.41392(10)
O2 O -0.42577(18) -0.12016(9) 0.55607(11)
N3 N -0.27376(19) 0.18180(10) 0.73685(11)
O3 O -0.35455(19) 0.13944(9) 0.79966(10)
O4 O -0.2283(2) 0.26350(10) 0.74954(12)
H1 H -0.1405 0.0177 0.3893
H2 H -0.3663 0.0157 0.6649
H3 H -0.0915 0.2379 0.5896
H4 H 0.0521 0.2307 0.4270
H5 H 0.0313 0.1496 0.3522
C7 C 0.3283(2) 0.66764(11) 0.63478(12)
C8 C 0.4020(2) 0.66837(11) 0.53746(12)
C9 C 0.37386(19) 0.59562(11) 0.46827(10)
C10 C 0.27794(19) 0.51921(10) 0.48800(11)
C11 C 0.20854(19) 0.52036(10) 0.58532(11)
C12 C 0.2305(2) 0.59156(11) 0.65818(12)
N4 N 0.3533(2) 0.73912(11) 0.70591(12)
N5 N 0.45294(18) 0.59746(12) 0.36608(11)
O5 O 0.42878(18) 0.53376(10) 0.30377(9)
O6 O 0.5414(2) 0.66359(11) 0.34857(11)
N6 N 0.10897(18) 0.43916(10) 0.61347(12)
O7 O 0.0862(2) 0.37794(10) 0.54882(12)
O8 O 0.05576(19) 0.43639(9) 0.70161(11)
H6 H 0.4694 0.7178 0.5200
H7 H 0.2611 0.4704 0.4395
H8 H 0.1804 0.5889 0.7226
H9 H 0.3084 0.7374 0.7660
H10 H 0.4141 0.7859 0.6907
loop_
_geom_bond_atom_site_label_1
_geom_bond_atom_site_label_2
_geom_bond_site_symmetry_1
_geom_bond_site_symmetry_2
C1 C2 1_555 1_555
C2 C3 1_555 1_555
C3 C4 1_555 1_555
C4 C5 1_555 1_555
C5 C6 1_555 1_555
C6 C1 1_555 1_555
N1 C1 1_555 1_555
N2 C3 1_555 1_555
O1 N2 1_555 1_555
O2 N2 1_555 1_555
N3 C5 1_555 1_555
O3 N3 1_555 1_555
O4 N3 1_555 1_555
C7 C8 1_555 1_555
C8 C9 1_555 1_555
C9 C10 1_555 1_555
C10 C11 1_555 1_555
C11 C12 1_555 1_555
C12 C7 1_555 1_555
N4 C7 1_555 1_555
N5 C9 1_555 1_555
O5 N5 1_555 1_555
O6 N5 1_555 1_555
N6 C11 1_555 1_555
O7 N6 1_555 1_555
O8 N6 1_555 1_555
H1 C2 1_555 1_555
H2 C4 1_555 1_555
H3 C6 1_555 1_555
H4 N1 1_555 1_555
H5 N1 1_555 1_555
H6 C8 1_555 1_555
H7 C10 1_555 1_555
H8 C12 1_555 1_555
H9 N4 1_555 1_555
H10 N4 1_555 1_555

#END
