
#######################################################################
#
#                 Cambridge Crystallographic Data Centre
#                                CCDC 
#
#######################################################################
#
# If this CIF has been generated from an entry in the Cambridge 
# Structural Database, then it will include bibliographic, chemical, 
# crystal, experimental, refinement or atomic coordinate data resulting 
# from the CCDC's data processing and validation procedures.
#
#######################################################################

data_QIKDAP
_chemical_formula_moiety         'C6 H7 N3 O2'
_chemical_name_systematic        1,3-Diamino-4-nitrobenzene
_symmetry_cell_setting           monoclinic
_symmetry_space_group_name_H-M   'P 21/n'
_symmetry_Int_Tables_number      14
_space_group_name_Hall           '-P 2yn'
loop_
_symmetry_equiv_pos_site_id
_symmetry_equiv_pos_as_xyz
1 x,y,z
2 1/2+x,1/2-y,1/2+z
3 -x,-y,-z
4 1/2-x,1/2+y,1/2-z
_cell_length_a                   4.4772(3)
_cell_length_b                   11.1379(7)
_cell_length_c                   13.1891(9)
_cell_angle_alpha                90
_cell_angle_beta                 94.7480(10)
_cell_angle_gamma                90
_cell_volume                     655.439
_exptl_crystal_colour            brown
_exptl_crystal_description       block
_cell_formula_units_Z            4
_exptl_crystal_recrystallization_method ethanol
loop_
_atom_site_label
_atom_site_type_symbol
_atom_site_fract_x
_atom_site_fract_y
_atom_site_fract_z
C1 C -0.2039(3) 0.93040(11) 0.26603(10)
C2 C 0.0065(3) 0.83905(12) 0.27917(9)
C3 C 0.1184(3) 0.77840(11) 0.20173(9)
C4 C 0.0054(3) 0.81338(11) 0.10629(9)
C5 C -0.2021(3) 0.90755(13) 0.09345(10)
C6 C -0.3065(4) 0.96587(13) 0.17012(11)
N1 N -0.3070(3) 0.98801(11) 0.34336(10)
N2 N 0.3192(3) 0.68807(10) 0.22111(9)
N3 N 0.0990(3) 0.75681(13) 0.02295(9)
O1 O 0.2722(3) 0.66839(12) 0.03080(9)
O2 O 0.0053(4) 0.79532(12) -0.05838(8)
H1 H 0.0750 0.8181 0.3453
H2 H -0.2696 0.9300 0.0276
H3 H -0.4435 1.0283 0.1594
H4 H -0.4339 1.0455 0.3324
H5 H -0.2474 0.9681 0.4047
H6 H 0.3761 0.6690 0.2829
H7 H 0.3893 0.6500 0.1716
loop_
_geom_bond_atom_site_label_1
_geom_bond_atom_site_label_2
_geom_bond_site_symmetry_1
_geom_bond_site_symmetry_2
C1 C2 1_555 1_555
C2 C3 1_555 1_555
C3 C4 1_555 1_555
C4 C5 1_555 1_555
C5 C6 1_555 1_555
C6 C1 1_555 1_555
N1 C1 1_555 1_555
N2 C3 1_555 1_555
N3 C4 1_555 1_555
O1 N3 1_555 1_555
O2 N3 1_555 1_555
H1 C2 1_555 1_555
H2 C5 1_555 1_555
H3 C6 1_555 1_555
H4 N1 1_555 1_555
H5 N1 1_555 1_555
H6 N2 1_555 1_555
H7 N2 1_555 1_555

#END
