
#######################################################################
#
#                 Cambridge Crystallographic Data Centre
#                                CCDC 
#
#######################################################################
#
# If this CIF has been generated from an entry in the Cambridge 
# Structural Database, then it will include bibliographic, chemical, 
# crystal, experimental, refinement or atomic coordinate data resulting 
# from the CCDC's data processing and validation procedures.
#
#######################################################################

data_QIKFOF
_chemical_name_common            
2,2'-(2,4,8,10-Tetrathiaspiro(5.5)undecane-3,9-diylidene)bis(propanedinitrile)
_chemical_formula_moiety         'C13 H8 N4 S4'
_chemical_name_systematic        
3,9-bis(Dicyanomethylene)-2,4,8,10-tetrathiaspiro(5.5)undecane
_symmetry_cell_setting           monoclinic
_symmetry_space_group_name_H-M   'C 2/c'
_symmetry_Int_Tables_number      15
_space_group_name_Hall           '-C 2yn'
loop_
_symmetry_equiv_pos_site_id
_symmetry_equiv_pos_as_xyz
1 x,y,z
2 1/2+x,1/2+y,z
3 x,-y,1/2+z
4 1/2+x,1/2-y,1/2+z
5 -x,-y,-z
6 1/2-x,1/2-y,-z
7 -x,y,1/2-z
8 1/2-x,1/2+y,1/2-z
_cell_length_a                   12.596(8)
_cell_length_b                   7.157(2)
_cell_length_c                   16.498(3)
_cell_angle_alpha                90
_cell_angle_beta                 95.53(3)
_cell_angle_gamma                90
_cell_volume                     1480.37
_exptl_crystal_colour            yellow
_exptl_crystal_description       prism
_chemical_melting_point          'above 573 K'
_cell_formula_units_Z            4
_exptl_crystal_recrystallization_method acetonitrile/dimethylformamide
loop_
_atom_site_label
_atom_site_type_symbol
_atom_site_fract_x
_atom_site_fract_y
_atom_site_fract_z
S1 S 0.77888(11) 0.0962(2) 0.70949(8)
S2 S 0.93102(13) 0.0539(3) 0.58230(10)
N1 N 0.5300(5) 0.0508(9) 0.5951(3)
N2 N 0.7516(5) -0.0650(8) 0.4057(3)
C1 C 0.9029(4) 0.2102(8) 0.7465(4)
C2 C 1.0000 0.0837(11) 0.7500
C3 C 0.9953(5) -0.0451(8) 0.6751(4)
C4 C 0.8015(5) 0.0586(7) 0.6087(3)
C5 C 0.7178(5) 0.0312(7) 0.5510(3)
C6 C 0.6118(5) 0.0449(9) 0.5729(3)
C7 C 0.7357(5) -0.0215(8) 0.4689(4)
H1 H 0.9143 0.3156 0.7115
H2 H 0.8961 0.2586 0.8007
H3 H 0.9578 -0.1585 0.6873
H4 H 1.0675 -0.0799 0.6658
C1F C 1.0971(4) 0.2102(8) 0.7535(4)
S1F S 1.22112(11) 0.0962(2) 0.79051(8)
C4F C 1.1985(5) 0.0586(7) 0.8913(3)
S2F S 1.06898(13) 0.0539(3) 0.91770(10)
C3F C 1.0047(5) -0.0451(8) 0.8249(4)
H3F H 1.0422 -0.1585 0.8127
H4F H 0.9325 -0.0799 0.8342
C5F C 1.2822(5) 0.0312(7) 0.9490(3)
C6F C 1.3882(5) 0.0449(9) 0.9271(3)
N1F N 1.4700(5) 0.0508(9) 0.9049(3)
C7F C 1.2643(5) -0.0215(8) 1.0311(4)
N2F N 1.2484(5) -0.0650(8) 1.0943(3)
H1F H 1.0857 0.3156 0.7885
H2F H 1.1039 0.2586 0.6993
loop_
_geom_bond_atom_site_label_1
_geom_bond_atom_site_label_2
_geom_bond_site_symmetry_1
_geom_bond_site_symmetry_2
S1 C1 1_555 1_555
S2 C3 1_555 1_555
N1 C6 1_555 1_555
N2 C7 1_555 1_555
C1 C2 1_555 1_555
C2 C3 1_555 1_555
C3 H3 1_555 1_555
C4 S1 1_555 1_555
C5 C4 1_555 1_555
C6 C5 1_555 1_555
C7 C5 1_555 1_555
H1 C1 1_555 1_555
H2 C1 1_555 1_555
H4 C3 1_555 1_555
C1F C2 1_555 1_555
S1F C1F 1_555 1_555
C4F S1F 1_555 1_555
S2F C4F 1_555 1_555
C3F C2 1_555 1_555
H3F C3F 1_555 1_555
H4F C3F 1_555 1_555
C5F C4F 1_555 1_555
C6F C5F 1_555 1_555
N1F C6F 1_555 1_555
C7F C5F 1_555 1_555
N2F C7F 1_555 1_555
H1F C1F 1_555 1_555
H2F C1F 1_555 1_555
S2 C4 1_555 1_555
S2F C3F 1_555 1_555

#END
