
#######################################################################
#
#                 Cambridge Crystallographic Data Centre
#                                CCDC 
#
#######################################################################
#
# If this CIF has been generated from an entry in the Cambridge 
# Structural Database, then it will include bibliographic, chemical, 
# crystal, experimental, refinement or atomic coordinate data resulting 
# from the CCDC's data processing and validation procedures.
#
#######################################################################

data_QIKJOM
_chemical_formula_moiety         'C20 H27 F3 O2 Si1'
_chemical_name_systematic        
'[2-(trifluoromethyl)-6-{[tris(propan-2-yl)silyl]ethynyl}phenyl]acetic acid'
_symmetry_cell_setting           triclinic
_symmetry_space_group_name_H-M   'P -1'
_symmetry_Int_Tables_number      2
_space_group_name_Hall           '-P 1'
loop_
_symmetry_equiv_pos_site_id
_symmetry_equiv_pos_as_xyz
1 x,y,z
2 -x,-y,-z
_cell_length_a                   7.8298(2)
_cell_length_b                   9.7185(2)
_cell_length_c                   14.7139(3)
_cell_angle_alpha                93.737(2)
_cell_angle_beta                 101.554(2)
_cell_angle_gamma                92.038(2)
_cell_volume                     1093.26
_exptl_crystal_colour            colorless
_exptl_crystal_description       block
_cell_formula_units_Z            2
loop_
_atom_site_label
_atom_site_type_symbol
_atom_site_fract_x
_atom_site_fract_y
_atom_site_fract_z
Si1 Si 0.70981(8) 0.22793(8) 0.17536(4)
O1 O 0.94970(17) 0.15722(13) 0.52610(11)
O2 O 0.76201(19) -0.02227(14) 0.48115(14)
H1 H 0.8515 -0.0623 0.4783
F1 F 0.4941(2) 0.2770(2) 0.68154(13)
F2 F 0.7591(3) 0.2217(2) 0.71300(13)
C1 C 0.6880(2) 0.34255(17) 0.53123(12)
C2 C 0.7264(2) 0.42278(18) 0.46134(12)
C3 C 0.8013(2) 0.10819(17) 0.50638(14)
F3 F 0.6838(4) 0.4056(2) 0.77739(12)
C4 C 0.6431(2) 0.19095(19) 0.50744(15)
H2 H 0.5806 0.1562 0.5525
H3 H 0.5661 0.1785 0.4467
C5 C 0.7761(3) 0.5620(2) 0.48064(15)
H4 H 0.8036 0.6137 0.4340
C6 C 0.6995(3) 0.4079(2) 0.61960(13)
C7 C 0.7168(3) 0.3603(2) 0.36918(14)
C8 C 0.7465(3) 0.5475(2) 0.63687(15)
H5 H 0.7519 0.5898 0.6960
C9 C 0.7848(3) 0.6234(2) 0.56784(17)
H6 H 0.8168 0.7169 0.5802
C10 C 0.7088(3) 0.3079(2) 0.29213(15)
C11 C 0.6587(4) 0.3287(3) 0.69781(17)
C12 C 0.4830(6) 0.1470(6) 0.1246(3)
H7 H 0.4885 0.0974 0.0652
C13 C 0.8881(6) 0.1101(6) 0.1835(3)
H8 H 0.9926 0.1676 0.1819
C14 C 0.3471(8) 0.2537(9) 0.1044(4)
H9 H 0.3484 0.3119 0.1598
H10 H 0.2339 0.2080 0.0839
H11 H 0.3729 0.3088 0.0565
C15 C 0.9266(11) 0.0440(12) 0.2742(5)
H12 H 0.9426 0.1141 0.3246
H13 H 1.0311 -0.0060 0.2779
H14 H 0.8309 -0.0184 0.2780
C16 C 0.7358(8) 0.3846(8) 0.1000(3)
H15 H 0.6310 0.4373 0.0987
C17 C 0.4285(9) 0.0421(9) 0.1865(6)
H16 H 0.5181 -0.0227 0.2003
H17 H 0.3217 -0.0060 0.1550
H18 H 0.4112 0.0886 0.2433
C18 C 0.8687(9) 0.0044(8) 0.1022(4)
H19 H 0.7661 -0.0541 0.0994
H20 H 0.9694 -0.0506 0.1097
H21 H 0.8583 0.0503 0.0457
C19 C 0.8875(13) 0.4820(11) 0.1442(7)
H22 H 0.8584 0.5355 0.1957
H23 H 0.9131 0.5427 0.0992
H24 H 0.9877 0.4301 0.1660
C20 C 0.741(2) 0.3443(13) -0.0010(5)
H25 H 0.8253 0.2758 -0.0037
H26 H 0.7721 0.4243 -0.0302
H27 H 0.6277 0.3073 -0.0329
C21? C 0.8223(16) 0.0406(15) 0.2079(8)
H28? H 0.7513 0.0041 0.2495
C22? C 1.001(2) 0.059(4) 0.2692(18)
H29? H 1.0758 0.1138 0.2398
H30? H 1.0490 -0.0298 0.2790
H31? H 0.9933 0.1046 0.3280
C23? C 0.806(5) -0.074(2) 0.1323(17)
H32? H 0.6846 -0.1003 0.1091
H33? H 0.8654 -0.1525 0.1571
H34? H 0.8566 -0.0434 0.0826
C24? C 0.8360(14) 0.3362(11) 0.1169(6)
H35? H 0.9598 0.3297 0.1448
C25? C 0.808(3) 0.292(2) 0.0141(7)
H36? H 0.8486 0.2002 0.0064
H37? H 0.8726 0.3544 -0.0158
H38? H 0.6863 0.2918 -0.0135
C26? C 0.7854(18) 0.4847(14) 0.1335(13)
H39? H 0.6607 0.4886 0.1188
H40? H 0.8360 0.5430 0.0947
H41? H 0.8279 0.5159 0.1976
C27? C 0.512(4) 0.194(3) 0.120(2)
H42? H 0.5236 0.1410 0.0624
C28? C 0.413(5) 0.319(4) 0.087(2)
H43? H 0.3875 0.3718 0.1392
H44? H 0.3062 0.2884 0.0446
H45? H 0.4830 0.3746 0.0552
C29? C 0.394(6) 0.105(5) 0.163(3)
H46? H 0.4521 0.0233 0.1829
H47? H 0.2887 0.0785 0.1183
H48? H 0.3649 0.1552 0.2159
loop_
_geom_bond_atom_site_label_1
_geom_bond_atom_site_label_2
_geom_bond_site_symmetry_1
_geom_bond_site_symmetry_2
Si1 C10 1_555 1_555
O1 C3 1_555 1_555
O2 H1 1_555 1_555
F1 C11 1_555 1_555
F2 C11 1_555 1_555
C1 C2 1_555 1_555
C2 C5 1_555 1_555
C3 O2 1_555 1_555
F3 C11 1_555 1_555
C4 C1 1_555 1_555
H2 C4 1_555 1_555
H3 C4 1_555 1_555
C5 H4 1_555 1_555
C6 C1 1_555 1_555
C7 C2 1_555 1_555
C8 C6 1_555 1_555
H5 C8 1_555 1_555
C9 C5 1_555 1_555
H6 C9 1_555 1_555
C10 C7 1_555 1_555
C11 C6 1_555 1_555
C12 Si1 1_555 1_555
H7 C12 1_555 1_555
C13 Si1 1_555 1_555
H8 C13 1_555 1_555
C14 C12 1_555 1_555
H9 C14 1_555 1_555
H10 C14 1_555 1_555
H11 C14 1_555 1_555
C15 C13 1_555 1_555
H12 C15 1_555 1_555
H13 C15 1_555 1_555
H14 C15 1_555 1_555
C16 Si1 1_555 1_555
H15 C16 1_555 1_555
C17 C12 1_555 1_555
H16 C17 1_555 1_555
H17 C17 1_555 1_555
H18 C17 1_555 1_555
C18 C13 1_555 1_555
H19 C18 1_555 1_555
H20 C18 1_555 1_555
H21 C18 1_555 1_555
C19 C16 1_555 1_555
H22 C19 1_555 1_555
H23 C19 1_555 1_555
H24 C19 1_555 1_555
C20 C16 1_555 1_555
H25 C20 1_555 1_555
H26 C20 1_555 1_555
H27 C20 1_555 1_555
C3 C4 1_555 1_555
C8 C9 1_555 1_555

#END
