
#######################################################################
#
#                 Cambridge Crystallographic Data Centre
#                                CCDC 
#
#######################################################################
#
# If this CIF has been generated from an entry in the Cambridge 
# Structural Database, then it will include bibliographic, chemical, 
# crystal, experimental, refinement or atomic coordinate data resulting 
# from the CCDC's data processing and validation procedures.
#
#######################################################################

data_QIKJAV01
_chemical_formula_moiety         'C17 H10 O3'
_chemical_name_systematic        3-phenyl-4H-furo[3,2-c][1]benzopyran-4-one
_symmetry_cell_setting           orthorhombic
_symmetry_space_group_name_H-M   'P b c a'
_symmetry_Int_Tables_number      61
_space_group_name_Hall           '-P 2ac 2ab'
loop_
_symmetry_equiv_pos_site_id
_symmetry_equiv_pos_as_xyz
1 x,y,z
2 1/2-x,-y,1/2+z
3 -x,1/2+y,1/2-z
4 1/2+x,1/2-y,-z
5 -x,-y,-z
6 1/2+x,y,1/2-z
7 x,1/2-y,1/2+z
8 1/2-x,1/2+y,z
_cell_length_a                   13.408(4)
_cell_length_b                   7.212(2)
_cell_length_c                   25.413(7)
_cell_angle_alpha                90
_cell_angle_beta                 90
_cell_angle_gamma                90
_cell_volume                     2457.4
_exptl_crystal_colour            white
_exptl_crystal_description       bulk
_cell_formula_units_Z            8
loop_
_atom_site_label
_atom_site_type_symbol
_atom_site_fract_x
_atom_site_fract_y
_atom_site_fract_z
O1 O 0.58035(9) 0.21134(14) 0.53877(4)
O2 O 0.66216(8) 0.75184(14) 0.54453(4)
O3 O 0.57308(10) 0.20365(15) 0.62536(5)
C1 C 0.60119(11) 0.2961(2) 0.49127(6)
C2 C 0.61770(10) 0.4904(2) 0.58554(6)
C3 C 0.63611(10) 0.5718(2) 0.53830(6)
C4 C 0.63111(10) 0.4809(2) 0.48856(6)
C5 C 0.63551(10) 0.6293(2) 0.62539(6)
C6 C 0.58947(12) 0.2975(2) 0.58747(6)
C7 C 0.63070(11) 0.6207(2) 0.68316(6)
C8 C 0.66055(12) 0.7822(2) 0.59781(6)
H1 H 0.6751 0.8959 0.6133
C9 C 0.59033(13) 0.1903(2) 0.44637(7)
H2 H 0.5688 0.0679 0.4485
C10 C 0.55429(12) 0.5303(2) 0.70986(6)
H3 H 0.5062 0.4658 0.6909
C11 C 0.65333(12) 0.5575(3) 0.43949(7)
H4 H 0.6741 0.6802 0.4369
C12 C 0.70276(13) 0.7112(2) 0.71303(7)
H5 H 0.7556 0.7700 0.6962
C13 C 0.61211(13) 0.2695(3) 0.39837(7)
H6 H 0.6049 0.1999 0.3678
C14 C 0.64443(13) 0.4509(3) 0.39505(7)
H7 H 0.6603 0.5012 0.3624
C15 C 0.54898(15) 0.5351(2) 0.76391(7)
H8 H 0.4971 0.4749 0.7811
C16 C 0.61998(15) 0.6285(3) 0.79258(7)
H9 H 0.6157 0.6330 0.8291
C17 C 0.69690(16) 0.7149(3) 0.76707(8)
H10 H 0.7456 0.7766 0.7864
loop_
_geom_bond_atom_site_label_1
_geom_bond_atom_site_label_2
_geom_bond_site_symmetry_1
_geom_bond_site_symmetry_2
O1 C1 1_555 1_555
O2 C3 1_555 1_555
O3 C6 1_555 1_555
C1 C4 1_555 1_555
C2 C3 1_555 1_555
C3 C4 1_555 1_555
C4 C11 1_555 1_555
C5 C2 1_555 1_555
C6 O1 1_555 1_555
C7 C5 1_555 1_555
C8 O2 1_555 1_555
H1 C8 1_555 1_555
C9 C1 1_555 1_555
H2 C9 1_555 1_555
C10 C7 1_555 1_555
H3 C10 1_555 1_555
C11 H4 1_555 1_555
C12 C7 1_555 1_555
H5 C12 1_555 1_555
C13 C9 1_555 1_555
H6 C13 1_555 1_555
C14 C11 1_555 1_555
H7 C14 1_555 1_555
C15 C10 1_555 1_555
H8 C15 1_555 1_555
C16 C15 1_555 1_555
H9 C16 1_555 1_555
C17 C12 1_555 1_555
H10 C17 1_555 1_555
C2 C6 1_555 1_555
C5 C8 1_555 1_555
C13 C14 1_555 1_555
C16 C17 1_555 1_555

#END
