
#######################################################################
#
#                 Cambridge Crystallographic Data Centre
#                                CCDC 
#
#######################################################################
#
# If this CIF has been generated from an entry in the Cambridge 
# Structural Database, then it will include bibliographic, chemical, 
# crystal, experimental, refinement or atomic coordinate data resulting 
# from the CCDC's data processing and validation procedures.
#
#######################################################################

data_QIKJUS
_chemical_formula_moiety         'C23 H34 O2 Si1'
_chemical_name_systematic        
'1-(2-{[tris(propan-2-yl)silyl]ethynyl}phenyl)cyclopentane-1-carboxylic acid'
_symmetry_cell_setting           monoclinic
_symmetry_space_group_name_H-M   'P 21/c'
_symmetry_Int_Tables_number      14
_space_group_name_Hall           '-P 2ybc'
loop_
_symmetry_equiv_pos_site_id
_symmetry_equiv_pos_as_xyz
1 x,y,z
2 -x,1/2+y,1/2-z
3 -x,-y,-z
4 x,1/2-y,1/2+z
_cell_length_a                   13.4891(2)
_cell_length_b                   15.7070(2)
_cell_length_c                   11.3683(2)
_cell_angle_alpha                90
_cell_angle_beta                 112.560(2)
_cell_angle_gamma                90
_cell_volume                     2224.33
_exptl_crystal_colour            colorless
_exptl_crystal_description       block
_cell_formula_units_Z            4
loop_
_atom_site_label
_atom_site_type_symbol
_atom_site_fract_x
_atom_site_fract_y
_atom_site_fract_z
Si1 Si 0.63227(4) 0.40803(3) 0.81603(4)
O1 O 1.00323(11) 0.50255(8) 0.83884(11)
H1 H 1.0267 0.4778 0.9076
O2 O 0.92659(12) 0.58327(8) 0.94060(11)
C1 C 0.4295(2) 0.3234(2) 0.7497(3)
H2 H 0.4585 0.3016 0.8350
H3 H 0.3803 0.2828 0.6946
H4 H 0.3924 0.3759 0.7481
C2 C 0.52194(17) 0.33971(15) 0.7034(2)
H5 H 0.5545 0.2840 0.7031
C3 C 0.4773(2) 0.3691(2) 0.5667(2)
H6 H 0.4375 0.4208 0.5598
H7 H 0.4307 0.3260 0.5141
H8 H 0.5352 0.3792 0.5392
C4 C 0.5123(3) 0.5589(2) 0.7878(4)
H9 H 0.5523 0.5832 0.7420
H10 H 0.4881 0.6035 0.8281
H11 H 0.4515 0.5286 0.7296
C5 C 0.58425(18) 0.49750(14) 0.8891(2)
H12 H 0.5406 0.4726 0.9322
C6 C 0.6754(3) 0.5460(2) 0.9883(3)
H13 H 0.7163 0.5080 1.0554
H14 H 0.6465 0.5910 1.0228
H15 H 0.7210 0.5698 0.9495
C7 C 0.6858(3) 0.2954(2) 1.0288(3)
H16 H 0.6540 0.3369 1.0657
H17 H 0.7412 0.2652 1.0954
H18 H 0.6317 0.2560 0.9787
C8 C 0.73389(18) 0.33991(15) 0.94455(19)
H19 H 0.7891 0.3787 0.9996
C9 C 0.7903(2) 0.27722(19) 0.8907(3)
H20 H 0.7383 0.2396 0.8325
H21 H 0.8409 0.2447 0.9588
H22 H 0.8274 0.3075 0.8466
C10 C 0.70634(14) 0.45383(11) 0.72566(16)
C11 C 0.75336(14) 0.47938(11) 0.66208(15)
C12 C 0.80299(13) 0.50603(11) 0.57660(15)
C13 C 0.77432(17) 0.46139(13) 0.46176(17)
H23 H 0.7266 0.4160 0.4453
C14 C 0.81572(19) 0.48383(16) 0.37334(18)
H24 H 0.7964 0.4538 0.2973
C15 C 0.8855(2) 0.55052(17) 0.39778(19)
H25 H 0.9130 0.5663 0.3374
C16 C 0.91589(17) 0.59510(13) 0.51145(19)
H26 H 0.9639 0.6401 0.5261
C17 C 0.87624(12) 0.57407(10) 0.60436(14)
C18 C 0.90546(13) 0.62391(10) 0.72846(15)
C19 C 0.94357(13) 0.56690(10) 0.84527(14)
C20 C 0.81137(15) 0.68165(11) 0.72369(17)
H27 H 0.7429 0.6537 0.6797
H28 H 0.8174 0.6971 0.8088
C21 C 0.8231(2) 0.75949(15) 0.6502(3)
H29 H 0.7857 0.7507 0.5594
H30 H 0.7934 0.8094 0.6750
C22 C 0.9418(2) 0.77089(14) 0.6830(3)
H31 H 0.9684 0.8199 0.7380
H32 H 0.9557 0.7795 0.6062
C23 C 0.99670(17) 0.69021(13) 0.7508(2)
H33 H 1.0347 0.7008 0.8411
H34 H 1.0475 0.6698 0.7158
loop_
_geom_bond_atom_site_label_1
_geom_bond_atom_site_label_2
_geom_bond_site_symmetry_1
_geom_bond_site_symmetry_2
Si1 C2 1_555 1_555
O1 H1 1_555 1_555
O2 C19 1_555 1_555
C1 H2 1_555 1_555
H3 C1 1_555 1_555
H4 C1 1_555 1_555
C2 C1 1_555 1_555
H5 C2 1_555 1_555
C3 C2 1_555 1_555
H6 C3 1_555 1_555
H7 C3 1_555 1_555
H8 C3 1_555 1_555
C4 H9 1_555 1_555
H10 C4 1_555 1_555
H11 C4 1_555 1_555
C5 Si1 1_555 1_555
H12 C5 1_555 1_555
C6 C5 1_555 1_555
H13 C6 1_555 1_555
H14 C6 1_555 1_555
H15 C6 1_555 1_555
C7 H16 1_555 1_555
H17 C7 1_555 1_555
H18 C7 1_555 1_555
C8 Si1 1_555 1_555
H19 C8 1_555 1_555
C9 C8 1_555 1_555
H20 C9 1_555 1_555
H21 C9 1_555 1_555
H22 C9 1_555 1_555
C10 Si1 1_555 1_555
C11 C10 1_555 1_555
C12 C11 1_555 1_555
C13 C12 1_555 1_555
H23 C13 1_555 1_555
C14 C13 1_555 1_555
H24 C14 1_555 1_555
C15 C14 1_555 1_555
H25 C15 1_555 1_555
C16 C15 1_555 1_555
H26 C16 1_555 1_555
C17 C12 1_555 1_555
C18 C17 1_555 1_555
C19 O1 1_555 1_555
C20 C18 1_555 1_555
H27 C20 1_555 1_555
H28 C20 1_555 1_555
C21 C20 1_555 1_555
H29 C21 1_555 1_555
H30 C21 1_555 1_555
C22 C21 1_555 1_555
H31 C22 1_555 1_555
H32 C22 1_555 1_555
C23 C18 1_555 1_555
H33 C23 1_555 1_555
H34 C23 1_555 1_555
C4 C5 1_555 1_555
C7 C8 1_555 1_555
C16 C17 1_555 1_555
C18 C19 1_555 1_555
C22 C23 1_555 1_555

#END
