
#######################################################################
#
#                 Cambridge Crystallographic Data Centre
#                                CCDC 
#
#######################################################################
#
# If this CIF has been generated from an entry in the Cambridge 
# Structural Database, then it will include bibliographic, chemical, 
# crystal, experimental, refinement or atomic coordinate data resulting 
# from the CCDC's data processing and validation procedures.
#
#######################################################################

data_QIKJEC
_chemical_formula_moiety         'C15 H19 B1 N2 O2'
_chemical_name_systematic        
'3-[4-(4,4,5,5-tetramethyl-1,3,2-dioxaborolan-2-yl)phenyl]-1H-pyrazole unknown solvate'
_symmetry_cell_setting           rhombohedral
_symmetry_space_group_name_H-M   'R -3'
_symmetry_Int_Tables_number      148
_space_group_name_Hall           '-R 3'
loop_
_symmetry_equiv_pos_site_id
_symmetry_equiv_pos_as_xyz
1 x,y,z
2 -y,x-y,z
3 -x+y,-x,z
4 2/3+x,1/3+y,1/3+z
5 2/3-y,1/3+x-y,1/3+z
6 2/3-x+y,1/3-x,1/3+z
7 1/3+x,2/3+y,2/3+z
8 1/3-y,2/3+x-y,2/3+z
9 1/3-x+y,2/3-x,2/3+z
10 -x,-y,-z
11 y,-x+y,-z
12 x-y,x,-z
13 1/3-x,2/3-y,2/3-z
14 1/3+y,2/3-x+y,2/3-z
15 1/3+x-y,2/3+x,2/3-z
16 2/3-x,1/3-y,1/3-z
17 2/3+y,1/3-x+y,1/3-z
18 2/3+x-y,1/3+x,1/3-z
_cell_length_a                   24.3603(13)
_cell_length_b                   24.3603(13)
_cell_length_c                   14.5810(11)
_cell_angle_alpha                90
_cell_angle_beta                 90
_cell_angle_gamma                120
_cell_volume                     7493.47
_exptl_crystal_colour            colorless
_exptl_crystal_description       block
_cell_formula_units_Z            18
loop_
_atom_site_label
_atom_site_type_symbol
_atom_site_fract_x
_atom_site_fract_y
_atom_site_fract_z
N1 N 0.04164(6) 0.10117(6) 0.38714(11)
N2 N -0.02111(6) 0.07654(6) 0.37713(12)
H1 H -0.0493 0.0367 0.3884
O1 O 0.3848(3) 0.3104(3) 0.3980(6)
O2 O 0.3730(4) 0.3779(3) 0.3105(6)
C1 C 0.06767(7) 0.16206(7) 0.36347(11)
C2 C 0.13667(7) 0.20359(7) 0.36449(11)
C3 C 0.16537(8) 0.25806(8) 0.31182(13)
H2 H 0.1400 0.2696 0.2762
C4 C 0.26989(8) 0.28138(7) 0.36131(12)
C5 C 0.23076(9) 0.29601(8) 0.31053(14)
H3 H 0.2494 0.3332 0.2737
C6 C 0.17511(8) 0.18874(8) 0.41724(12)
H4 H 0.1564 0.1520 0.4550
C7 C -0.03546(8) 0.11933(8) 0.34833(16)
H5 H -0.0768 0.1124 0.3368
C8 C 0.24048(8) 0.22710(8) 0.41512(13)
H6 H 0.2658 0.2160 0.4514
C9 C 0.02022(8) 0.17536(8) 0.33828(14)
H7 H 0.0255 0.2148 0.3184
C10 C 0.4374(3) 0.3988(3) 0.3073(5)
B1 B 0.34217(10) 0.32298(9) 0.35611(16)
C11 C 0.44796(19) 0.3627(2) 0.3866(3)
C12 C 0.4933(4) 0.3373(4) 0.3634(8)
H8 H 0.4769 0.3090 0.3103
H9 H 0.4963 0.3140 0.4162
H10 H 0.5354 0.3730 0.3491
C13 C 0.4771(2) 0.4698(2) 0.3118(7)
H11 H 0.4637 0.4886 0.2635
H12 H 0.5218 0.4826 0.3029
H13 H 0.4717 0.4846 0.3718
C14 C 0.4481(2) 0.3734(5) 0.2140(3)
H14 H 0.4217 0.3272 0.2122
H15 H 0.4928 0.3855 0.2083
H16 H 0.4364 0.3918 0.1631
C15 C 0.4659(2) 0.3963(3) 0.4765(3)
H17 H 0.4468 0.4233 0.4820
H18 H 0.5121 0.4225 0.4803
H19 H 0.4505 0.3651 0.5264
O3? O 0.3823(7) 0.3035(6) 0.3741(13)
O4? O 0.3696(7) 0.3835(6) 0.3221(13)
C16? C 0.4475(6) 0.3553(6) 0.3414(11)
C17? C 0.4479(10) 0.4161(10) 0.3256(19)
C18? C 0.4898(7) 0.3535(7) 0.4106(14)
H20? H 0.4857 0.3114 0.4111
H21? H 0.4784 0.3624 0.4711
H22? H 0.5336 0.3855 0.3962
C19? C 0.4646(8) 0.4482(10) 0.2439(13)
H23? H 0.4841 0.4303 0.2041
H24? H 0.4949 0.4931 0.2553
H25? H 0.4267 0.4441 0.2140
C20? C 0.4538(6) 0.4556(6) 0.4089(10)
H26? H 0.4369 0.4836 0.3947
H27? H 0.4985 0.4811 0.4262
H28? H 0.4298 0.4276 0.4599
C21? C 0.4623(11) 0.3320(9) 0.2576(17)
H29? H 0.4956 0.3218 0.2705
H30? H 0.4770 0.3649 0.2101
H31? H 0.4242 0.2939 0.2360
loop_
_geom_bond_atom_site_label_1
_geom_bond_atom_site_label_2
_geom_bond_site_symmetry_1
_geom_bond_site_symmetry_2
N1 N2 1_555 1_555
N2 H1 1_555 1_555
O1 B1 1_555 1_555
O2 C10 1_555 1_555
C1 N1 1_555 1_555
C2 C1 1_555 1_555
C3 C2 1_555 1_555
H2 C3 1_555 1_555
C4 C5 1_555 1_555
C5 C3 1_555 1_555
H3 C5 1_555 1_555
C6 C2 1_555 1_555
H4 C6 1_555 1_555
C7 N2 1_555 1_555
H5 C7 1_555 1_555
C8 C4 1_555 1_555
H6 C8 1_555 1_555
C9 C1 1_555 1_555
H7 C9 1_555 1_555
C10 C11 1_555 1_555
B1 O2 1_555 1_555
C11 O1 1_555 1_555
C12 C11 1_555 1_555
H8 C12 1_555 1_555
H9 C12 1_555 1_555
H10 C12 1_555 1_555
C13 C10 1_555 1_555
H11 C13 1_555 1_555
H12 C13 1_555 1_555
H13 C13 1_555 1_555
C14 C10 1_555 1_555
H14 C14 1_555 1_555
H15 C14 1_555 1_555
H16 C14 1_555 1_555
C15 C11 1_555 1_555
H17 C15 1_555 1_555
H18 C15 1_555 1_555
H19 C15 1_555 1_555
C4 B1 1_555 1_555
C6 C8 1_555 1_555
C7 C9 1_555 1_555

#END
