
#######################################################################
#
#                 Cambridge Crystallographic Data Centre
#                                CCDC 
#
#######################################################################
#
# If this CIF has been generated from an entry in the Cambridge 
# Structural Database, then it will include bibliographic, chemical, 
# crystal, experimental, refinement or atomic coordinate data resulting 
# from the CCDC's data processing and validation procedures.
#
#######################################################################

data_QIKKON
_chemical_formula_moiety         'C20 H27 N1 O2 Si1'
_chemical_name_systematic        
'(4-cyano-2-{[tris(propan-2-yl)silyl]ethynyl}phenyl)acetic acid'
_symmetry_cell_setting           monoclinic
_symmetry_space_group_name_H-M   'P 21/c'
_symmetry_Int_Tables_number      14
_space_group_name_Hall           '-P 2ybc'
loop_
_symmetry_equiv_pos_site_id
_symmetry_equiv_pos_as_xyz
1 x,y,z
2 -x,1/2+y,1/2-z
3 -x,-y,-z
4 x,1/2-y,1/2+z
_cell_length_a                   20.3662(3)
_cell_length_b                   11.24400(10)
_cell_length_c                   26.2719(3)
_cell_angle_alpha                90
_cell_angle_beta                 90.8890(10)
_cell_angle_gamma                90
_cell_volume                     6015.48
_exptl_crystal_colour            colorless
_exptl_crystal_description       block
_cell_formula_units_Z            12
loop_
_atom_site_label
_atom_site_type_symbol
_atom_site_fract_x
_atom_site_fract_y
_atom_site_fract_z
Si1 Si 0.22003(3) -0.26226(5) 0.57540(2)
O1 O 0.04073(7) 0.07917(13) 0.55291(5)
H1 H 0.006963 0.043723 0.544814
O2 O 0.06888(7) 0.03476(13) 0.47302(5)
N1 N 0.36738(11) 0.16275(19) 0.33269(8)
C1 C 0.08036(9) 0.08257(17) 0.51378(7)
C2 C 0.14221(9) 0.15295(17) 0.52529(8)
H2 H 0.130287 0.234101 0.533598
H3 H 0.164222 0.118847 0.554867
C3 C 0.18898(9) 0.15428(17) 0.48150(7)
C4 C 0.22907(9) 0.05543(17) 0.47197(7)
C5 C 0.22607(10) -0.04829(18) 0.50378(7)
C6 C 0.22381(10) -0.13375(19) 0.53157(8)
C7 C 0.25202(11) -0.2079(2) 0.63927(8)
H4 H 0.299749 -0.200859 0.636149
C8 C 0.24041(14) -0.2976(2) 0.68151(9)
H5 H 0.194234 -0.302846 0.687952
H6 H 0.263180 -0.272420 0.711915
H7 H 0.256498 -0.374099 0.671336
C9 C 0.22727(14) -0.0850(2) 0.65477(9)
H8 H 0.235076 -0.029377 0.627809
H9 H 0.250154 -0.059476 0.685071
H10 H 0.181041 -0.088926 0.661173
C10 C 0.13251(11) -0.3147(2) 0.57426(9)
H11 H 0.119796 -0.320312 0.538214
C11 C 0.08447(12) -0.2259(3) 0.59789(11)
H12 H 0.091662 -0.223059 0.634069
H13 H 0.040198 -0.250754 0.590685
H14 H 0.091505 -0.148343 0.583688
C12 C 0.12395(13) -0.4401(2) 0.59613(11)
H15 H 0.155119 -0.492855 0.580971
H16 H 0.080231 -0.467762 0.588778
H17 H 0.131136 -0.438112 0.632317
C13 C 0.27550(11) -0.38242(19) 0.54962(8)
H18 H 0.271123 -0.452515 0.571480
C14 C 0.25399(15) -0.4185(2) 0.49520(10)
H19 H 0.209253 -0.445390 0.495405
H20 H 0.281731 -0.481478 0.483395
H21 H 0.257617 -0.351217 0.472947
C15 C 0.34807(12) -0.3452(2) 0.55073(10)
H22 H 0.352994 -0.271568 0.532707
H23 H 0.373938 -0.405665 0.534786
H24 H 0.362654 -0.335191 0.585389
C16 C 0.27315(10) 0.05821(18) 0.43192(7)
H25 H 0.299130 -0.007797 0.425205
C17 C 0.27825(10) 0.15984(18) 0.40198(7)
C18 C 0.32697(11) 0.1621(2) 0.36285(8)
C19 C 0.23764(10) 0.25788(18) 0.41050(8)
H26 H 0.240374 0.325043 0.389987
C20 C 0.19318(10) 0.25364(17) 0.44999(8)
H27 H 0.165700 0.318264 0.455513
Si2 Si 0.12214(3) 0.24043(5) 0.25582(2)
O3 O 0.29679(7) 0.58497(13) 0.28367(5)
H28 H 0.330653 0.549964 0.291866
O4 O 0.26785(6) 0.53782(12) 0.36298(5)
N2 N -0.02678(9) 0.64873(17) 0.50610(7)
C21 C 0.10650(9) 0.55243(17) 0.36190(7)
C22 C 0.06287(9) 0.55143(17) 0.40216(7)
H29 H 0.036398 0.485397 0.407614
C23 C 0.05901(9) 0.64987(18) 0.43427(7)
C24 C 0.09978(10) 0.74815(17) 0.42731(8)
H30 H 0.097504 0.813144 0.449105
C25 C 0.14360(10) 0.74771(17) 0.38763(8)
H31 H 0.171320 0.812507 0.383220
C26 C 0.14696(9) 0.65176(17) 0.35409(7)
C27 C 0.11027(9) 0.45211(18) 0.32830(7)
C28 C 0.11460(10) 0.36894(18) 0.29923(8)
C29 C 0.04317(12) 0.2286(2) 0.21826(9)
H32 H 0.046279 0.158655 0.196197
C30 C -0.01662(12) 0.2110(3) 0.25299(11)
H33 H -0.011796 0.137744 0.271467
H34 H -0.056047 0.208196 0.232528
H35 H -0.019137 0.276003 0.276561
C31 C 0.19211(12) 0.2802(2) 0.21212(9)
H36 H 0.182995 0.360763 0.199646
C32 C 0.19696(17) 0.2007(3) 0.16463(11)
H37 H 0.209982 0.121980 0.174694
H38 H 0.228927 0.233139 0.142032
H39 H 0.154977 0.197408 0.147561
C33 C 0.25770(13) 0.2867(3) 0.24064(12)
H40 H 0.253253 0.335967 0.270245
H41 H 0.290253 0.320155 0.218803
H42 H 0.270935 0.208238 0.250852
C34 C 0.14185(12) 0.1078(2) 0.29679(8)
H43 H 0.187704 0.116568 0.308040
C35 C 0.13769(17) -0.0088(2) 0.26619(11)
H44 H 0.093765 -0.019165 0.253163
H45 H 0.149048 -0.074452 0.287954
H46 H 0.167659 -0.005410 0.238385
C36 C 0.10076(13) 0.0975(2) 0.34510(9)
H47 H 0.102582 0.171308 0.363476
H48 H 0.118007 0.034841 0.366199
H49 H 0.056014 0.080073 0.335841
C37 C 0.03238(15) 0.3372(3) 0.18418(11)
H50 H 0.028775 0.407113 0.204910
H51 H -0.007277 0.326974 0.164435
H52 H 0.068870 0.345673 0.161765
C38 C 0.19398(9) 0.65341(17) 0.31058(7)
H53 H 0.204906 0.735211 0.302597
H54 H 0.172711 0.618856 0.280781
C39 C 0.25639(9) 0.58570(16) 0.32234(7)
C40 C 0.01174(10) 0.64907(18) 0.47462(8)
Si3 Si 0.54471(3) 0.79812(5) 0.40322(2)
O5 O 0.37860(6) 0.42881(12) 0.38841(5)
H55 H 0.344979 0.465273 0.380813
O6 O 0.40642(6) 0.47607(12) 0.30878(5)
N3 N 0.70165(9) 0.37260(17) 0.16456(7)
C41 C 0.56571(9) 0.47128(18) 0.30641(7)
C42 C 0.60894(9) 0.47197(18) 0.26583(7)
H56 H 0.633553 0.539597 0.258944
C43 C 0.61514(9) 0.37087(19) 0.23560(7)
C44 C 0.57751(10) 0.26989(19) 0.24496(8)
H57 H 0.581080 0.203174 0.224262
C45 C 0.53470(10) 0.27007(18) 0.28545(8)
H58 H 0.509363 0.202941 0.291622
C46 C 0.52887(9) 0.36880(18) 0.31709(7)
C47 C 0.55908(9) 0.57606(18) 0.33705(7)
C48 C 0.55269(10) 0.66449(19) 0.36262(8)
C49 C 0.58753(11) 0.9247(2) 0.36966(9)
H59 H 0.634521 0.905902 0.369745
C50 C 0.56583(13) 0.9379(2) 0.31445(9)
H60 H 0.572071 0.863892 0.296982
H61 H 0.591459 0.998785 0.298558
H62 H 0.520237 0.959484 0.312870
C51 C 0.58661(12) 0.7607(2) 0.46536(9)
H63 H 0.582994 0.829931 0.487821
C52 C 0.55360(14) 0.6550(3) 0.49149(9)
H64 H 0.509179 0.675491 0.499492
H65 H 0.577324 0.635779 0.522261
H66 H 0.553633 0.587576 0.469081
C53 C 0.65984(13) 0.7357(3) 0.45752(10)
H67 H 0.664609 0.668604 0.435305
H68 H 0.680593 0.718826 0.489766
H69 H 0.680117 0.804162 0.442574
C54 C 0.45432(10) 0.83205(19) 0.41061(8)
H70 H 0.440918 0.882595 0.381893
C55 C 0.44114(11) 0.9024(2) 0.45982(9)
H71 H 0.457784 0.858646 0.488614
H72 H 0.394727 0.914199 0.463230
H73 H 0.462698 0.978234 0.458235
C56 C 0.41080(11) 0.7207(2) 0.40897(9)
H74 H 0.416318 0.680471 0.377089
H75 H 0.365654 0.743452 0.412422
H76 H 0.423183 0.668432 0.436381
C57 C 0.57989(17) 1.0432(3) 0.39763(11)
H77 H 0.534092 1.062029 0.400324
H78 H 0.601558 1.104906 0.379016
H79 H 0.599212 1.037060 0.431085
C58 C 0.48257(9) 0.36687(18) 0.36123(7)
H80 H 0.503672 0.404560 0.390384
H81 H 0.473434 0.284941 0.370254
C59 C 0.41874(9) 0.42966(16) 0.34952(7)
C60 C 0.66256(10) 0.37159(18) 0.19552(8)
loop_
_geom_bond_atom_site_label_1
_geom_bond_atom_site_label_2
_geom_bond_site_symmetry_1
_geom_bond_site_symmetry_2
Si1 C6 1_555 1_555
O1 H1 1_555 1_555
O2 C1 1_555 1_555
N1 C18 1_555 1_555
C1 O1 1_555 1_555
C2 C1 1_555 1_555
H2 C2 1_555 1_555
H3 C2 1_555 1_555
C3 C2 1_555 1_555
C4 C3 1_555 1_555
C5 C4 1_555 1_555
C6 C5 1_555 1_555
C7 Si1 1_555 1_555
H4 C7 1_555 1_555
C8 C7 1_555 1_555
H5 C8 1_555 1_555
H6 C8 1_555 1_555
H7 C8 1_555 1_555
C9 C7 1_555 1_555
H8 C9 1_555 1_555
H9 C9 1_555 1_555
H10 C9 1_555 1_555
C10 Si1 1_555 1_555
H11 C10 1_555 1_555
C11 C10 1_555 1_555
H12 C11 1_555 1_555
H13 C11 1_555 1_555
H14 C11 1_555 1_555
C12 C10 1_555 1_555
H15 C12 1_555 1_555
H16 C12 1_555 1_555
H17 C12 1_555 1_555
C13 Si1 1_555 1_555
H18 C13 1_555 1_555
C14 C13 1_555 1_555
H19 C14 1_555 1_555
H20 C14 1_555 1_555
H21 C14 1_555 1_555
C15 C13 1_555 1_555
H22 C15 1_555 1_555
H23 C15 1_555 1_555
H24 C15 1_555 1_555
C16 C4 1_555 1_555
H25 C16 1_555 1_555
C17 C16 1_555 1_555
C18 C17 1_555 1_555
C19 C17 1_555 1_555
H26 C19 1_555 1_555
C20 C3 1_555 1_555
H27 C20 1_555 1_555
Si2 C28 1_555 1_555
O3 H28 1_555 1_555
O4 C39 1_555 1_555
N2 C40 1_555 1_555
C21 C22 1_555 1_555
C22 H29 1_555 1_555
C23 C22 1_555 1_555
C24 C23 1_555 1_555
H30 C24 1_555 1_555
C25 C24 1_555 1_555
H31 C25 1_555 1_555
C26 C21 1_555 1_555
C27 C21 1_555 1_555
C28 C27 1_555 1_555
C29 Si2 1_555 1_555
H32 C29 1_555 1_555
C30 C29 1_555 1_555
H33 C30 1_555 1_555
H34 C30 1_555 1_555
H35 C30 1_555 1_555
C31 Si2 1_555 1_555
H36 C31 1_555 1_555
C32 C31 1_555 1_555
H37 C32 1_555 1_555
H38 C32 1_555 1_555
H39 C32 1_555 1_555
C33 C31 1_555 1_555
H40 C33 1_555 1_555
H41 C33 1_555 1_555
H42 C33 1_555 1_555
C34 Si2 1_555 1_555
H43 C34 1_555 1_555
C35 C34 1_555 1_555
H44 C35 1_555 1_555
H45 C35 1_555 1_555
H46 C35 1_555 1_555
C36 C34 1_555 1_555
H47 C36 1_555 1_555
H48 C36 1_555 1_555
H49 C36 1_555 1_555
C37 C29 1_555 1_555
H50 C37 1_555 1_555
H51 C37 1_555 1_555
H52 C37 1_555 1_555
C38 C26 1_555 1_555
H53 C38 1_555 1_555
H54 C38 1_555 1_555
C39 O3 1_555 1_555
C40 C23 1_555 1_555
Si3 C48 1_555 1_555
O5 H55 1_555 1_555
O6 C59 1_555 1_555
N3 C60 1_555 1_555
C41 C42 1_555 1_555
C42 H56 1_555 1_555
C43 C42 1_555 1_555
C44 C43 1_555 1_555
H57 C44 1_555 1_555
C45 C44 1_555 1_555
H58 C45 1_555 1_555
C46 C41 1_555 1_555
C47 C41 1_555 1_555
C48 C47 1_555 1_555
C49 Si3 1_555 1_555
H59 C49 1_555 1_555
C50 C49 1_555 1_555
H60 C50 1_555 1_555
H61 C50 1_555 1_555
H62 C50 1_555 1_555
C51 Si3 1_555 1_555
H63 C51 1_555 1_555
C52 C51 1_555 1_555
H64 C52 1_555 1_555
H65 C52 1_555 1_555
H66 C52 1_555 1_555
C53 C51 1_555 1_555
H67 C53 1_555 1_555
H68 C53 1_555 1_555
H69 C53 1_555 1_555
C54 Si3 1_555 1_555
H70 C54 1_555 1_555
C55 C54 1_555 1_555
H71 C55 1_555 1_555
H72 C55 1_555 1_555
H73 C55 1_555 1_555
C56 C54 1_555 1_555
H74 C56 1_555 1_555
H75 C56 1_555 1_555
H76 C56 1_555 1_555
C57 C49 1_555 1_555
H77 C57 1_555 1_555
H78 C57 1_555 1_555
H79 C57 1_555 1_555
C58 C46 1_555 1_555
H80 C58 1_555 1_555
H81 C58 1_555 1_555
C59 O5 1_555 1_555
C60 C43 1_555 1_555
C19 C20 1_555 1_555
C25 C26 1_555 1_555
C38 C39 1_555 1_555
C45 C46 1_555 1_555
C58 C59 1_555 1_555

#END
