
#######################################################################
#
#                 Cambridge Crystallographic Data Centre
#                                CCDC 
#
#######################################################################
#
# If this CIF has been generated from an entry in the Cambridge 
# Structural Database, then it will include bibliographic, chemical, 
# crystal, experimental, refinement or atomic coordinate data resulting 
# from the CCDC's data processing and validation procedures.
#
#######################################################################

data_QIKKUT
_chemical_formula_moiety         'C25 H34 O3 Si1'
_chemical_name_systematic        
'2-(6-methoxy-3-{[tris(propan-2-yl)silyl]ethynyl}naphthalen-2-yl)propanoic acid'
_symmetry_cell_setting           monoclinic
_symmetry_space_group_name_H-M   'P 21/c'
_symmetry_Int_Tables_number      14
_space_group_name_Hall           '-P 2ybc'
loop_
_symmetry_equiv_pos_site_id
_symmetry_equiv_pos_as_xyz
1 x,y,z
2 -x,1/2+y,1/2-z
3 -x,-y,-z
4 x,1/2-y,1/2+z
_cell_length_a                   10.97060(10)
_cell_length_b                   15.05660(10)
_cell_length_c                   14.9888(2)
_cell_angle_alpha                90
_cell_angle_beta                 102.1180(10)
_cell_angle_gamma                90
_cell_volume                     2420.68
_exptl_crystal_colour            'yellowish colorless'
_exptl_crystal_description       block
_cell_formula_units_Z            4
loop_
_atom_site_label
_atom_site_type_symbol
_atom_site_fract_x
_atom_site_fract_y
_atom_site_fract_z
Si1 Si 0.41890(6) 0.21799(4) 0.83457(4)
O1 O 0.35396(16) 0.46365(13) 1.00754(11)
O2 O 0.41154(15) 0.55022(13) 0.90410(11)
H1 H 0.478(7) 0.581(7) 0.933(6)
O3 O 0.0546(2) 0.67179(14) 0.37074(13)
C1 C 0.3306(2) 0.50858(14) 0.93533(14)
C2 C 0.1956(2) 0.51743(19) 0.88678(16)
H2 H 0.171717 0.574713 0.909035
C3 C 0.17940(17) 0.53341(14) 0.78556(14)
C4 C 0.11785(19) 0.60689(14) 0.74453(15)
H3 H 0.087380 0.648329 0.780366
C5 C 0.09943(18) 0.62148(13) 0.64978(15)
C6 C 0.0344(3) 0.69678(16) 0.60637(19)
H4 H -0.000343 0.737340 0.640668
C7 C 0.0225(3) 0.71010(17) 0.5150(2)
H5 H -0.019574 0.760045 0.487900
C8 C 0.0727(2) 0.64964(16) 0.46118(17)
C9 C 0.0999(3) 0.6108(2) 0.3132(2)
H6 H 0.078170 0.631247 0.251199
H7 H 0.063156 0.553521 0.317649
H8 H 0.188895 0.606341 0.331732
C10 C 0.1321(2) 0.57544(15) 0.49984(15)
H9 H 0.163224 0.534563 0.463810
C11 C 0.14664(18) 0.56011(13) 0.59487(14)
C12 C 0.20774(19) 0.48424(13) 0.63733(14)
H10 H 0.238242 0.442455 0.601872
C13 C 0.22363(17) 0.47010(13) 0.72927(14)
C14 C 0.2854(2) 0.39023(14) 0.76784(14)
C15 C 0.3367(2) 0.32258(15) 0.79709(15)
C16 C 0.5864(2) 0.23607(16) 0.8326(2)
H11 H 0.630775 0.180570 0.852006
C17 C 0.6456(4) 0.3089(3) 0.8993(3)
H12 H 0.639180 0.292829 0.960101
H13 H 0.602812 0.364030 0.882777
H14 H 0.731823 0.315455 0.896700
C18 C 0.6062(3) 0.2577(2) 0.7374(3)
H15 H 0.573906 0.210169 0.696507
H16 H 0.693676 0.264660 0.739341
H17 H 0.563423 0.311797 0.716361
C19 C 0.3526(3) 0.13192(18) 0.7465(2)
H18 H 0.380225 0.150743 0.691348
C20 C 0.2138(3) 0.1308(3) 0.7191(3)
H19 H 0.179276 0.115376 0.770789
H20 H 0.188328 0.087801 0.671533
H21 H 0.184482 0.188532 0.697261
C21 C 0.4095(4) 0.04025(18) 0.7673(3)
H22 H 0.498687 0.044648 0.778851
H23 H 0.381010 0.001748 0.716155
H24 H 0.384582 0.016444 0.820215
C22 C 0.1105(4) 0.4561(4) 0.9170(3)
H25 H 0.026230 0.471596 0.889054
H26 H 0.121370 0.459443 0.982123
H27 H 0.127598 0.396751 0.899695
C23 C 0.4243(11) 0.2101(7) 0.9606(5)
H28 H 0.474261 0.259670 0.990958
C24 C 0.297(3) 0.217(3) 0.979(2)
H29 H 0.258943 0.271647 0.954698
H30 H 0.301706 0.215874 1.044115
H31 H 0.247086 0.167880 0.951539
C25 C 0.494(2) 0.1196(14) 0.9957(15)
H32 H 0.446636 0.070214 0.966162
H33 H 0.501763 0.114743 1.060550
H34 H 0.575366 0.119328 0.981618
H35? H 0.4346(17) 0.464(4) 1.036(3)
H36? H 0.162445 0.457349 0.890049
C26? C 0.335(2) 0.2431(12) 1.0052(10)
H37? H 0.402863 0.284130 1.023286
H38? H 0.317246 0.214755 1.058388
H39? H 0.262660 0.274553 0.973811
C27? C 0.3711(12) 0.1735(8) 0.9425(5)
H40? H 0.301417 0.132098 0.924318
C28? C 0.4770(18) 0.1259(12) 1.0074(14)
H41? H 0.509614 0.079607 0.975059
H42? H 0.445986 0.100661 1.057035
H43? H 0.542064 0.167665 1.030791
C29? C 0.1219(6) 0.5702(6) 0.9354(4)
H44? H 0.150229 0.630623 0.938026
H45? H 0.130295 0.547450 0.996243
H46? H 0.035992 0.567662 0.904470
loop_
_geom_bond_atom_site_label_1
_geom_bond_atom_site_label_2
_geom_bond_site_symmetry_1
_geom_bond_site_symmetry_2
Si1 C15 1_555 1_555
O1 C1 1_555 1_555
O2 H1 1_555 1_555
O3 C8 1_555 1_555
C1 O2 1_555 1_555
C2 C1 1_555 1_555
H2 C2 1_555 1_555
C3 C2 1_555 1_555
C4 C3 1_555 1_555
H3 C4 1_555 1_555
C5 C4 1_555 1_555
C6 C5 1_555 1_555
H4 C6 1_555 1_555
C7 C6 1_555 1_555
H5 C7 1_555 1_555
C8 C7 1_555 1_555
C9 O3 1_555 1_555
H6 C9 1_555 1_555
H7 C9 1_555 1_555
H8 C9 1_555 1_555
C10 C8 1_555 1_555
H9 C10 1_555 1_555
C11 C5 1_555 1_555
C12 C11 1_555 1_555
H10 C12 1_555 1_555
C13 C3 1_555 1_555
C14 C13 1_555 1_555
C15 C14 1_555 1_555
C16 Si1 1_555 1_555
H11 C16 1_555 1_555
C17 C16 1_555 1_555
H12 C17 1_555 1_555
H13 C17 1_555 1_555
H14 C17 1_555 1_555
C18 C16 1_555 1_555
H15 C18 1_555 1_555
H16 C18 1_555 1_555
H17 C18 1_555 1_555
C19 Si1 1_555 1_555
H18 C19 1_555 1_555
C20 C19 1_555 1_555
H19 C20 1_555 1_555
H20 C20 1_555 1_555
H21 C20 1_555 1_555
C21 C19 1_555 1_555
H22 C21 1_555 1_555
H23 C21 1_555 1_555
H24 C21 1_555 1_555
C22 C2 1_555 1_555
H25 C22 1_555 1_555
H26 C22 1_555 1_555
H27 C22 1_555 1_555
C23 Si1 1_555 1_555
H28 C23 1_555 1_555
C24 C23 1_555 1_555
H29 C24 1_555 1_555
H30 C24 1_555 1_555
H31 C24 1_555 1_555
C25 C23 1_555 1_555
H32 C25 1_555 1_555
H33 C25 1_555 1_555
H34 C25 1_555 1_555
C10 C11 1_555 1_555
C12 C13 1_555 1_555

#END
