
#######################################################################
#
#                 Cambridge Crystallographic Data Centre
#                                CCDC 
#
#######################################################################
#
# If this CIF has been generated from an entry in the Cambridge 
# Structural Database, then it will include bibliographic, chemical, 
# crystal, experimental, refinement or atomic coordinate data resulting 
# from the CCDC's data processing and validation procedures.
#
#######################################################################

data_QIKKAW
_chemical_formula_moiety         'C18 H11 I1 N2'
_chemical_name_systematic        
2-(4-Iodophenyl)-8aH-azulene-1,1-dicarbonitrile
_symmetry_cell_setting           triclinic
_symmetry_space_group_name_H-M   'P -1'
_symmetry_Int_Tables_number      2
_space_group_name_Hall           '-P 1'
loop_
_symmetry_equiv_pos_site_id
_symmetry_equiv_pos_as_xyz
1 x,y,z
2 -x,-y,-z
_cell_length_a                   9.243(2)
_cell_length_b                   9.519(2)
_cell_length_c                   10.527(3)
_cell_angle_alpha                73.89(2)
_cell_angle_beta                 65.77(2)
_cell_angle_gamma                64.35(2)
_cell_volume                     755.747
_exptl_crystal_colour            colorless
_exptl_crystal_description       prism
_chemical_melting_point          143deg.C
_cell_formula_units_Z            2
_exptl_crystal_recrystallization_method 'diethyl ether/hexane'
loop_
_atom_site_label
_atom_site_type_symbol
_atom_site_fract_x
_atom_site_fract_y
_atom_site_fract_z
I1 I 0.19912(4) 0.54446(4) 0.46289(3)
C1 C 0.6123(5) 0.7535(4) 0.0917(4)
C2 C 0.8436(5) 0.7555(4) -0.1613(4)
C3 C 0.7740(5) 0.9374(5) -0.0142(5)
H1 H 0.7162(5) 0.9994(5) 0.0624(5)
C4 C 0.9176(5) 0.5816(6) -0.1476(4)
N1 N 0.6493(6) 0.8509(5) -0.3143(5)
C5 C 0.7358(5) 0.8180(5) -0.0176(4)
C6 C 0.9792(5) 0.8352(5) -0.2274(4)
H2 H 0.9840(5) 0.8807(5) -0.3219(4)
C7 C 0.9096(5) 0.9631(5) -0.1357(5)
C8 C 0.9734(6) 1.0783(5) -0.1737(5)
H3 H 0.9151(6) 1.1622(5) -0.1163(5)
C9 C 0.4178(6) 0.6161(5) 0.1666(5)
H4 H 0.3652(6) 0.5623(5) 0.1449(5)
C10 C 0.5362(6) 0.6749(5) 0.0615(5)
H5 H 0.5671(6) 0.6615(5) -0.0345(5)
C11 C 0.5671(6) 0.7695(6) 0.2309(5)
H6 H 0.6196(6) 0.8222(6) 0.2540(5)
C12 C 0.3765(5) 0.6340(5) 0.3043(5)
N2 N 0.9717(5) 0.4478(5) -0.1372(4)
C13 C 1.1567(6) 0.7350(5) -0.2253(5)
H7 H 1.1795(6) 0.6289(5) -0.1802(5)
C14 C 1.1222(7) 1.0802(6) -0.2921(6)
H8 H 1.1239(7) 1.1813(6) -0.3406(6)
C15 C 1.2571(7) 0.9562(6) -0.3426(5)
H9 H 1.3468(7) 0.9750(6) -0.4247(5)
C16 C 1.2801(6) 0.7951(6) -0.2848(5)
H10 H 1.3934(6) 0.7247(6) -0.2880(5)
C17 C 0.7341(6) 0.8072(5) -0.2479(5)
C18 C 0.4508(6) 0.7112(6) 0.3352(5)
H11 H 0.4181(6) 0.7264(6) 0.4310(5)
loop_
_geom_bond_atom_site_label_1
_geom_bond_atom_site_label_2
_geom_bond_site_symmetry_1
_geom_bond_site_symmetry_2
I1 C12 1_555 1_555
C1 C5 1_555 1_555
C2 C4 1_555 1_555
C3 H1 1_555 1_555
C4 N2 1_555 1_555
N1 C17 1_555 1_555
C5 C2 1_555 1_555
C6 C2 1_555 1_555
H2 C6 1_555 1_555
C7 C3 1_555 1_555
C8 C7 1_555 1_555
H3 C8 1_555 1_555
C9 H4 1_555 1_555
C10 C1 1_555 1_555
H5 C10 1_555 1_555
C11 C1 1_555 1_555
H6 C11 1_555 1_555
C12 C9 1_555 1_555
C13 C6 1_555 1_555
H7 C13 1_555 1_555
C14 C8 1_555 1_555
H8 C14 1_555 1_555
C15 C14 1_555 1_555
H9 C15 1_555 1_555
C16 C13 1_555 1_555
H10 C16 1_555 1_555
C17 C2 1_555 1_555
C18 C11 1_555 1_555
H11 C18 1_555 1_555
C3 C5 1_555 1_555
C6 C7 1_555 1_555
C9 C10 1_555 1_555
C12 C18 1_555 1_555
C15 C16 1_555 1_555

#END
