
#######################################################################
#
#                 Cambridge Crystallographic Data Centre
#                                CCDC 
#
#######################################################################
#
# If this CIF has been generated from an entry in the Cambridge 
# Structural Database, then it will include bibliographic, chemical, 
# crystal, experimental, refinement or atomic coordinate data resulting 
# from the CCDC's data processing and validation procedures.
#
#######################################################################

data_QIKKED
_chemical_formula_moiety         'C23 H21 N3 O3'
_chemical_name_systematic        
'2-[3-(1-benzyl-1H-1,2,3-triazol-4-yl)-6-methoxynaphthalen-2-yl]propanoic acid'
_symmetry_cell_setting           triclinic
_symmetry_space_group_name_H-M   'P -1'
_symmetry_Int_Tables_number      2
_space_group_name_Hall           '-P 1'
loop_
_symmetry_equiv_pos_site_id
_symmetry_equiv_pos_as_xyz
1 x,y,z
2 -x,-y,-z
_cell_length_a                   8.4953(2)
_cell_length_b                   9.7523(3)
_cell_length_c                   12.6644(3)
_cell_angle_alpha                67.366(2)
_cell_angle_beta                 87.000(2)
_cell_angle_gamma                79.209(2)
_cell_volume                     951.07
_exptl_crystal_colour            colorless
_exptl_crystal_description       block
_cell_formula_units_Z            2
loop_
_atom_site_label
_atom_site_type_symbol
_atom_site_fract_x
_atom_site_fract_y
_atom_site_fract_z
O1 O 0.05430(12) 0.37297(12) 0.12000(8)
H1 H 0.1490 0.3481 0.1078
O2 O -0.09744(12) 0.36330(12) 0.26773(9)
O3 O 0.47221(12) 0.90351(11) 0.42660(9)
N1 N 0.61748(13) 0.27349(12) 0.05184(9)
N2 N 0.47006(14) 0.25922(13) 0.02978(10)
N3 N 0.37169(13) 0.31354(12) 0.09445(9)
C1 C 0.03364(16) 0.33218(15) 0.23178(12)
C2 C 0.18024(16) 0.24726(14) 0.31065(11)
H2 H 0.2521 0.1889 0.2737
C3 C 0.12873(18) 0.13700(15) 0.42410(12)
H3 H 0.2205 0.0879 0.4745
H4 H 0.0823 0.0626 0.4105
H5 H 0.0510 0.1912 0.4585
C4 C 0.26699(15) 0.36567(14) 0.32147(11)
C5 C 0.22465(16) 0.42257(14) 0.40495(11)
H6 H 0.1489 0.3822 0.4579
C6 C 0.29228(15) 0.54068(14) 0.41335(11)
C7 C 0.24804(16) 0.60041(15) 0.49878(11)
H7 H 0.1756 0.5587 0.5541
C8 C 0.31100(17) 0.71903(15) 0.50059(12)
H8 H 0.2815 0.7569 0.5573
C9 C 0.42080(16) 0.78417(15) 0.41646(12)
C10 C 0.57571(18) 0.97835(16) 0.34016(13)
H9 H 0.5244 1.0124 0.2665
H10 H 0.6738 0.9096 0.3428
H11 H 0.5987 1.0635 0.3529
C11 C 0.46949(16) 0.72775(15) 0.33391(11)
H12 H 0.5432 0.7701 0.2799
C12 C 0.40602(16) 0.60353(14) 0.33165(11)
C13 C 0.45509(15) 0.53945(14) 0.25009(11)
H13 H 0.5346 0.5760 0.1993
C14 C 0.38891(15) 0.42419(14) 0.24315(11)
C15 C 0.45705(15) 0.36075(14) 0.15842(11)
C16 C 0.61564(16) 0.33574(14) 0.13041(11)
H14 H 0.7024 0.3571 0.1593
C17 C 0.75776(17) 0.21131(15) 0.00030(12)
H15 H 0.8404 0.2718 -0.0107
H16 H 0.7273 0.2166 -0.0741
C18 C 0.82396(16) 0.04883(15) 0.07528(12)
C19 C 0.76600(17) -0.06883(16) 0.06203(12)
H17 H 0.6864 -0.0474 0.0073
C20 C 0.82752(17) -0.21779(16) 0.13071(13)
H18 H 0.7895 -0.2959 0.1214
C21 C 0.94468(18) -0.25051(16) 0.21262(13)
H19 H 0.9847 -0.3505 0.2586
C22 C 1.00323(18) -0.13417(17) 0.22675(13)
H20 H 1.0821 -0.1560 0.2820
C23 C 0.94245(17) 0.01486(16) 0.15734(13)
H21 H 0.9818 0.0928 0.1661
loop_
_geom_bond_atom_site_label_1
_geom_bond_atom_site_label_2
_geom_bond_site_symmetry_1
_geom_bond_site_symmetry_2
O1 H1 1_555 1_555
O2 C1 1_555 1_555
O3 C9 1_555 1_555
N1 N2 1_555 1_555
N2 N3 1_555 1_555
N3 C15 1_555 1_555
C1 O1 1_555 1_555
C2 C1 1_555 1_555
H2 C2 1_555 1_555
C3 C2 1_555 1_555
H3 C3 1_555 1_555
H4 C3 1_555 1_555
H5 C3 1_555 1_555
C4 C2 1_555 1_555
C5 C4 1_555 1_555
H6 C5 1_555 1_555
C6 C5 1_555 1_555
C7 C6 1_555 1_555
H7 C7 1_555 1_555
C8 C7 1_555 1_555
H8 C8 1_555 1_555
C9 C8 1_555 1_555
C10 O3 1_555 1_555
H9 C10 1_555 1_555
H10 C10 1_555 1_555
H11 C10 1_555 1_555
C11 C9 1_555 1_555
H12 C11 1_555 1_555
C12 C6 1_555 1_555
C13 C12 1_555 1_555
H13 C13 1_555 1_555
C14 C4 1_555 1_555
C15 C14 1_555 1_555
C16 N1 1_555 1_555
H14 C16 1_555 1_555
C17 N1 1_555 1_555
H15 C17 1_555 1_555
H16 C17 1_555 1_555
C18 C17 1_555 1_555
C19 C18 1_555 1_555
H17 C19 1_555 1_555
C20 C19 1_555 1_555
H18 C20 1_555 1_555
C21 C20 1_555 1_555
H19 C21 1_555 1_555
C22 C21 1_555 1_555
H20 C22 1_555 1_555
C23 C18 1_555 1_555
H21 C23 1_555 1_555
C11 C12 1_555 1_555
C13 C14 1_555 1_555
C15 C16 1_555 1_555
C22 C23 1_555 1_555

#END
