
#######################################################################
#
#                 Cambridge Crystallographic Data Centre
#                                CCDC 
#
#######################################################################
#
# If this CIF has been generated from an entry in the Cambridge 
# Structural Database, then it will include bibliographic, chemical, 
# crystal, experimental, refinement or atomic coordinate data resulting 
# from the CCDC's data processing and validation procedures.
#
#######################################################################

data_QIKNOQ
_chemical_formula_moiety         'C25 H26 N1 O3 P1 S1,H2 O1'
_chemical_name_systematic        
'N-[4-(diphenylphosphoryl)cyclohex-2-en-1-yl]-4-methylbenzene-1-sulfonamide monohydrate'
_symmetry_cell_setting           monoclinic
_symmetry_space_group_name_H-M   'P 21/n'
_symmetry_Int_Tables_number      14
_space_group_name_Hall           '-P 2yn'
loop_
_symmetry_equiv_pos_site_id
_symmetry_equiv_pos_as_xyz
1 x,y,z
2 1/2-x,1/2+y,1/2-z
3 -x,-y,-z
4 1/2+x,1/2-y,1/2+z
_cell_length_a                   9.766(2)
_cell_length_b                   16.136(4)
_cell_length_c                   15.584(4)
_cell_angle_alpha                90
_cell_angle_beta                 99.178(5)
_cell_angle_gamma                90
_cell_volume                     2424.35
_exptl_crystal_colour            colorless
_exptl_crystal_description       rod
_cell_formula_units_Z            4
loop_
_atom_site_label
_atom_site_type_symbol
_atom_site_fract_x
_atom_site_fract_y
_atom_site_fract_z
P1 P 0.4614(3) 0.71918(17) 0.52993(18)
O1 O 0.4215(8) 0.6315(4) 0.5117(5)
C1 C 0.3107(12) 0.7783(7) 0.5377(6)
C2 C 0.3016(13) 0.8643(7) 0.5201(8)
H1 H 0.377641 0.893456 0.503350
C3 C 0.1802(16) 0.9046(10) 0.5276(9)
H2 H 0.173001 0.962086 0.514599
C4 C 0.0721(17) 0.8663(13) 0.5526(9)
H3 H -0.008789 0.897049 0.558715
C5 C 0.0769(16) 0.7834(13) 0.5693(9)
H4 H -0.000199 0.755562 0.586264
C6 C 0.1983(13) 0.7404(9) 0.5607(8)
H5 H 0.202034 0.682373 0.571343
C7 C 0.5444(11) 0.7630(7) 0.4472(7)
C8 C 0.6321(14) 0.8298(8) 0.4578(8)
H6 H 0.647687 0.858067 0.511944
C9 C 0.6983(15) 0.8565(10) 0.3906(10)
H7 H 0.764815 0.899846 0.400160
C10 C 0.6678(16) 0.8204(10) 0.3105(9)
H8 H 0.707369 0.841019 0.262881
C11 C 0.5779(15) 0.7532(9) 0.2999(9)
H9 H 0.559842 0.725607 0.245402
C12 C 0.5159(13) 0.7267(7) 0.3666(7)
H10 H 0.451518 0.682220 0.357453
C13 C 0.5780(11) 0.7323(6) 0.6321(6)
H11 H 0.600026 0.792736 0.638666
C14 C 0.7109(12) 0.6878(7) 0.6289(8)
H12 H 0.749794 0.691868 0.576894
C15 C 0.7769(14) 0.6443(9) 0.6916(9)
H13 H 0.866774 0.624472 0.686220
C16 C 0.7199(15) 0.6232(7) 0.7722(7)
H14 H 0.797571 0.627271 0.822253
C17 C 0.6139(17) 0.6842(8) 0.7866(8)
H15 H 0.661419 0.735249 0.810582
H16 H 0.561933 0.661842 0.831067
C18 C 0.5126(13) 0.7068(7) 0.7084(7)
H17 H 0.454066 0.752914 0.723694
H18 H 0.451110 0.658809 0.691459
N1 N 0.6628(12) 0.5377(6) 0.7715(6)
H19 H 0.591(13) 0.525(8) 0.727(9)
S1 S 0.7595(5) 0.4616(2) 0.8089(2)
O2 O 0.6729(11) 0.3902(5) 0.8004(7)
O3 O 0.8296(11) 0.4822(5) 0.8924(5)
C19 C 0.8836(15) 0.4470(7) 0.7443(8)
C20 C 0.8421(15) 0.4253(9) 0.6579(9)
H20 H 0.746534 0.417576 0.635699
C21 C 0.9367(17) 0.4155(11) 0.6066(12)
H21 H 0.903583 0.404025 0.547164
C22 C 1.0742(18) 0.4203(11) 0.6303(13)
C23 C 1.1169(18) 0.4451(11) 0.7165(13)
H22 H 1.212568 0.453670 0.737586
C24 C 1.0181(16) 0.4574(8) 0.7719(10)
H23 H 1.048464 0.473587 0.830502
C25 C 1.1773(19) 0.4112(14) 0.5718(14)
H24 H 1.246197 0.455604 0.583197
H25 H 1.130907 0.414438 0.511325
H26 H 1.223611 0.357356 0.581937
O4 O 0.4975(15) 0.4924(6) 0.6105(7)
H27 H 0.49(2) 0.516(10) 0.563(6)
H28 H 0.460(18) 0.447(5) 0.599(12)
loop_
_geom_bond_atom_site_label_1
_geom_bond_atom_site_label_2
_geom_bond_site_symmetry_1
_geom_bond_site_symmetry_2
P1 O1 1_555 1_555
C1 P1 1_555 1_555
C2 C1 1_555 1_555
H1 C2 1_555 1_555
C3 C2 1_555 1_555
H2 C3 1_555 1_555
C4 C3 1_555 1_555
H3 C4 1_555 1_555
C5 C4 1_555 1_555
H4 C5 1_555 1_555
C6 C1 1_555 1_555
H5 C6 1_555 1_555
C7 P1 1_555 1_555
C8 C7 1_555 1_555
H6 C8 1_555 1_555
C9 C8 1_555 1_555
H7 C9 1_555 1_555
C10 C9 1_555 1_555
H8 C10 1_555 1_555
C11 C10 1_555 1_555
H9 C11 1_555 1_555
C12 C7 1_555 1_555
H10 C12 1_555 1_555
C13 P1 1_555 1_555
H11 C13 1_555 1_555
C14 C13 1_555 1_555
H12 C14 1_555 1_555
C15 C14 1_555 1_555
H13 C15 1_555 1_555
C16 C15 1_555 1_555
H14 C16 1_555 1_555
C17 C16 1_555 1_555
H15 C17 1_555 1_555
H16 C17 1_555 1_555
C18 C13 1_555 1_555
H17 C18 1_555 1_555
H18 C18 1_555 1_555
N1 C16 1_555 1_555
H19 N1 1_555 1_555
S1 N1 1_555 1_555
O2 S1 1_555 1_555
O3 S1 1_555 1_555
C19 S1 1_555 1_555
C20 C19 1_555 1_555
H20 C20 1_555 1_555
C21 C20 1_555 1_555
H21 C21 1_555 1_555
C22 C21 1_555 1_555
C23 C22 1_555 1_555
H22 C23 1_555 1_555
C24 C19 1_555 1_555
H23 C24 1_555 1_555
C25 C22 1_555 1_555
H24 C25 1_555 1_555
H25 C25 1_555 1_555
H26 C25 1_555 1_555
O4 H27 1_555 1_555
H28 O4 1_555 1_555
C5 C6 1_555 1_555
C11 C12 1_555 1_555
C17 C18 1_555 1_555
C23 C24 1_555 1_555

#END
