
#######################################################################
#
#                 Cambridge Crystallographic Data Centre
#                                CCDC 
#
#######################################################################
#
# If this CIF has been generated from an entry in the Cambridge 
# Structural Database, then it will include bibliographic, chemical, 
# crystal, experimental, refinement or atomic coordinate data resulting 
# from the CCDC's data processing and validation procedures.
#
#######################################################################

data_QIKPAD
_chemical_formula_moiety         'C20 H16 N1 1+,B1 F4 1-'
_chemical_name_systematic        
'7-Methyl-6-phenylpyrido[2,1-a]isoquinolinium tetrafluoroborate'
_symmetry_cell_setting           monoclinic
_symmetry_space_group_name_H-M   'P 21/n'
_symmetry_Int_Tables_number      14
_space_group_name_Hall           '-P 2yn'
loop_
_symmetry_equiv_pos_site_id
_symmetry_equiv_pos_as_xyz
1 x,y,z
2 1/2-x,1/2+y,1/2-z
3 -x,-y,-z
4 1/2+x,1/2-y,1/2+z
_cell_length_a                   8.0073(14)
_cell_length_b                   12.099(2)
_cell_length_c                   16.994(3)
_cell_angle_alpha                90
_cell_angle_beta                 92.808(4)
_cell_angle_gamma                90
_cell_volume                     1644.41
_exptl_crystal_colour            colorless
_exptl_crystal_description       Columnar
_cell_formula_units_Z            4
loop_
_atom_site_label
_atom_site_type_symbol
_atom_site_fract_x
_atom_site_fract_y
_atom_site_fract_z
F1 F 0.17718(14) 0.53371(10) 0.19799(6)
F2 F 0.13636(16) 0.55788(10) 0.06706(6)
F3 F 0.33458(13) 0.65888(9) 0.13319(6)
F4 F 0.05996(15) 0.69259(9) 0.14890(8)
B1 B 0.1781(2) 0.61050(16) 0.13778(11)
N1 N 0.90666(16) 0.09058(10) 0.14623(8)
C1 C 0.8913(2) -0.07861(15) 0.41843(10)
H1 H 0.9030 -0.0932 0.4734
C2 C 0.7643(2) -0.01025(15) 0.38898(10)
H2 H 0.6885 0.0219 0.4237
C3 C 0.7477(2) 0.01117(14) 0.30877(10)
H3 H 0.6608 0.0583 0.2887
C4 C 0.8584(2) -0.03627(13) 0.25744(9)
C5 C 0.8394(2) -0.01219(13) 0.17133(9)
C6 C 0.7585(2) -0.08010(13) 0.11859(9)
C7 C 0.7359(2) -0.04787(13) 0.03686(9)
C8 C 0.6487(2) -0.11559(14) -0.01892(10)
H4 H 0.6039 -0.1843 -0.0029
C9 C 0.6282(2) -0.08273(15) -0.09622(10)
H5 H 0.5687 -0.1286 -0.1333
C10 C 0.6944(2) 0.01746(15) -0.12053(10)
H6 H 0.6808 0.0389 -0.1742
C11 C 1.0014(2) -0.12567(15) 0.36767(10)
H7 H 1.0889 -0.1720 0.3881
C12 C 0.9847(2) -0.10561(14) 0.28707(10)
H8 H 1.0594 -0.1391 0.2524
C13 C 0.6904(2) -0.18926(14) 0.14437(10)
H9 H 0.7111 -0.1977 0.2014
H10 H 0.7459 -0.2492 0.1170
H11 H 0.5698 -0.1921 0.1315
C14 C 0.8003(2) 0.05397(13) 0.01232(9)
C15 C 0.8870(2) 0.12513(13) 0.06895(9)
C16 C 0.9507(2) 0.22913(14) 0.04924(10)
H12 H 0.9364 0.2545 -0.0036
C17 C 1.0328(2) 0.29494(14) 0.10393(11)
H13 H 1.0727 0.3659 0.0899
C18 C 1.0565(2) 0.25558(14) 0.18071(10)
H14 H 1.1161 0.2990 0.2193
C19 C 0.9948(2) 0.15542(14) 0.20054(10)
H15 H 1.0128 0.1294 0.2530
C20 C 0.7789(2) 0.08539(14) -0.06769(10)
H16 H 0.8232 0.1536 -0.0849
loop_
_geom_bond_atom_site_label_1
_geom_bond_atom_site_label_2
_geom_bond_site_symmetry_1
_geom_bond_site_symmetry_2
F1 B1 1_555 1_555
F2 B1 1_555 1_555
F3 B1 1_555 1_555
F4 B1 1_555 1_555
N1 C5 1_555 1_555
C1 H1 1_555 1_555
C2 C1 1_555 1_555
H2 C2 1_555 1_555
C3 C2 1_555 1_555
H3 C3 1_555 1_555
C4 C3 1_555 1_555
C5 C4 1_555 1_555
C6 C5 1_555 1_555
C7 C6 1_555 1_555
C8 C7 1_555 1_555
H4 C8 1_555 1_555
C9 C8 1_555 1_555
H5 C9 1_555 1_555
C10 C9 1_555 1_555
H6 C10 1_555 1_555
C11 C1 1_555 1_555
H7 C11 1_555 1_555
C12 C4 1_555 1_555
H8 C12 1_555 1_555
C13 C6 1_555 1_555
H9 C13 1_555 1_555
H10 C13 1_555 1_555
H11 C13 1_555 1_555
C14 C7 1_555 1_555
C15 N1 1_555 1_555
C16 C15 1_555 1_555
H12 C16 1_555 1_555
C17 C16 1_555 1_555
H13 C17 1_555 1_555
C18 C17 1_555 1_555
H14 C18 1_555 1_555
C19 N1 1_555 1_555
H15 C19 1_555 1_555
C20 C10 1_555 1_555
H16 C20 1_555 1_555
C11 C12 1_555 1_555
C14 C15 1_555 1_555
C14 C20 1_555 1_555
C18 C19 1_555 1_555

#END
