
#######################################################################
#
#                 Cambridge Crystallographic Data Centre
#                                CCDC 
#
#######################################################################
#
# If this CIF has been generated from an entry in the Cambridge 
# Structural Database, then it will include bibliographic, chemical, 
# crystal, experimental, refinement or atomic coordinate data resulting 
# from the CCDC's data processing and validation procedures.
#
#######################################################################

data_QIKPIL
_chemical_formula_moiety         'C21 H18 N1 O1 1+,B1 F4 1-'
_chemical_name_systematic        
'7-(Hydroxymethyl)-6-(4-methylphenyl)pyrido[2,1-a]isoquinolinium tetrafluoroborate'
_symmetry_cell_setting           monoclinic
_symmetry_space_group_name_H-M   'P 21/n'
_symmetry_Int_Tables_number      14
_space_group_name_Hall           '-P 2yn'
loop_
_symmetry_equiv_pos_site_id
_symmetry_equiv_pos_as_xyz
1 x,y,z
2 1/2-x,1/2+y,1/2-z
3 -x,-y,-z
4 1/2+x,1/2-y,1/2+z
_cell_length_a                   14.9793(11)
_cell_length_b                   13.0540(9)
_cell_length_c                   19.6711(15)
_cell_angle_alpha                90
_cell_angle_beta                 110.4470(10)
_cell_angle_gamma                90
_cell_volume                     3604.14
_exptl_crystal_colour            colorless
_cell_formula_units_Z            8
loop_
_atom_site_label
_atom_site_type_symbol
_atom_site_fract_x
_atom_site_fract_y
_atom_site_fract_z
F1 F 0.09976(8) 0.07116(10) 0.08931(7)
F2 F 0.25176(10) 0.09486(12) 0.16254(7)
F3 F 0.21290(12) 0.10379(13) 0.04266(8)
F4 F 0.16623(10) 0.22859(10) 0.10156(9)
B1 B 0.18224(14) 0.12482(18) 0.09855(11)
F5 F 0.29034(9) 0.48115(9) 0.87354(6)
F6 F 0.29804(8) 0.59456(10) 0.96314(6)
F7 F 0.25031(8) 0.64612(9) 0.84548(6)
F8 F 0.40525(8) 0.60471(10) 0.90627(6)
B2 B 0.31187(14) 0.58135(17) 0.89742(10)
O1 O 0.63551(9) -0.05049(12) 0.21237(6)
H1 H 0.6725 -0.0714 0.2528
N1 N 0.41856(10) 0.17701(12) 0.07264(7)
C1 C 0.37520(12) -0.16068(15) -0.03650(9)
H2 H 0.3493 -0.2036 -0.0777
C2 C 0.36082(12) -0.05694(15) -0.04328(9)
H3 H 0.3255 -0.0284 -0.0893
C3 C 0.39820(12) 0.00793(14) 0.01759(9)
C4 C 0.38315(12) 0.11682(14) 0.01145(9)
C5 C 0.47131(11) 0.13317(14) 0.14179(8)
C6 C 0.50245(12) 0.20667(14) 0.20369(8)
C7 C 0.43975(13) 0.23398(15) 0.23899(9)
H4 H 0.3791 0.2021 0.2260
C8 C 0.46614(13) 0.30772(15) 0.29306(9)
H5 H 0.4229 0.3261 0.3166
C9 C 0.55484(13) 0.35536(15) 0.31354(9)
C10 C 0.58151(15) 0.43653(17) 0.37176(11)
H6 H 0.6092 0.4040 0.4194
H7 H 0.5245 0.4750 0.3697
H8 H 0.6282 0.4833 0.3640
C11 C 0.40601(12) 0.28159(15) 0.06731(9)
H9 H 0.4319 0.3224 0.1097
C12 C 0.35758(13) 0.32802(15) 0.00319(10)
H10 H 0.3495 0.4003 0.0009
C13 C 0.31977(13) 0.26861(15) -0.05942(9)
H11 H 0.2848 0.2996 -0.1046
C14 C 0.33396(13) 0.16546(15) -0.05457(9)
H12 H 0.3097 0.1251 -0.0973
C15 C 0.61687(13) 0.32632(16) 0.27828(9)
H13 H 0.6778 0.3577 0.2916
C16 C 0.59170(12) 0.25277(15) 0.22431(9)
H14 H 0.6354 0.2337 0.2013
C17 C 0.48894(11) 0.03132(14) 0.14743(8)
C18 C 0.54895(12) -0.01422(15) 0.21958(9)
H15 H 0.5631 0.0383 0.2582
H16 H 0.5146 -0.0715 0.2325
C19 C 0.45154(11) -0.03528(14) 0.08550(9)
C20 C 0.46572(12) -0.14229(14) 0.09059(9)
H17 H 0.5019 -0.1721 0.1359
C21 C 0.42782(12) -0.20376(15) 0.03081(9)
H18 H 0.4373 -0.2758 0.0351
O2 O 0.28028(11) -0.08627(12) 0.23926(7)
H19 H 0.2682 -0.0355 0.2112
N2 N 0.30812(10) 0.19271(12) 0.39710(7)
C22 C 0.60731(13) 0.01535(16) 0.44350(10)
H20 H 0.6747 0.0133 0.4654
C23 C 0.55837(13) 0.09914(15) 0.45341(10)
H21 H 0.5919 0.1547 0.4824
C24 C 0.45817(12) 0.10333(14) 0.42070(9)
C25 C 0.40553(12) 0.19052(14) 0.43140(9)
C26 C 0.25823(12) 0.10877(14) 0.35370(9)
C27 C 0.15221(12) 0.11827(14) 0.32293(9)
C28 C 0.09666(13) 0.07568(15) 0.35982(9)
H22 H 0.1267 0.0411 0.4045
C29 C -0.00162(13) 0.08324(15) 0.33203(10)
H23 H -0.0383 0.0533 0.3577
C30 C -0.04747(13) 0.13429(15) 0.26684(10)
C31 C -0.15429(14) 0.14440(18) 0.23766(12)
H24 H -0.1831 0.0807 0.2466
H25 H -0.1759 0.1577 0.1854
H26 H -0.1734 0.2013 0.2621
C32 C 0.30669(13) 0.02579(14) 0.34441(9)
C33 C 0.25316(14) -0.06422(16) 0.29999(10)
H27 H 0.2646 -0.1255 0.3315
H28 H 0.1840 -0.0493 0.2828
C34 C 0.40934(12) 0.02064(14) 0.37749(9)
C35 C 0.46160(13) -0.06483(15) 0.36909(9)
H29 H 0.4293 -0.1215 0.3408
C36 C 0.55906(14) -0.06718(16) 0.40152(10)
H30 H 0.5937 -0.1252 0.3953
C37 C 0.10670(14) 0.16887(16) 0.25748(10)
H31 H 0.1432 0.1983 0.2316
C38 C 0.00871(14) 0.17616(16) 0.23038(10)
H32 H -0.0213 0.2106 0.1857
C39 C 0.25718(13) 0.27705(15) 0.40465(10)
H33 H 0.1902 0.2784 0.3798
C40 C 0.29950(13) 0.35808(15) 0.44643(10)
H34 H 0.2627 0.4154 0.4506
C41 C 0.39768(13) 0.35662(15) 0.48333(10)
H35 H 0.4284 0.4125 0.5133
C42 C 0.44889(13) 0.27385(15) 0.47581(10)
H36 H 0.5157 0.2725 0.5013
loop_
_geom_bond_atom_site_label_1
_geom_bond_atom_site_label_2
_geom_bond_site_symmetry_1
_geom_bond_site_symmetry_2
F1 B1 1_555 1_555
F2 B1 1_555 1_555
F3 B1 1_555 1_555
F4 B1 1_555 1_555
F5 B2 1_555 1_555
F6 B2 1_555 1_555
F7 B2 1_555 1_555
F8 B2 1_555 1_555
O1 H1 1_555 1_555
N1 C4 1_555 1_555
C1 H2 1_555 1_555
C2 C1 1_555 1_555
H3 C2 1_555 1_555
C3 C2 1_555 1_555
C4 C3 1_555 1_555
C5 N1 1_555 1_555
C6 C5 1_555 1_555
C7 C6 1_555 1_555
H4 C7 1_555 1_555
C8 C7 1_555 1_555
H5 C8 1_555 1_555
C9 C8 1_555 1_555
C10 C9 1_555 1_555
H6 C10 1_555 1_555
H7 C10 1_555 1_555
H8 C10 1_555 1_555
C11 N1 1_555 1_555
H9 C11 1_555 1_555
C12 C11 1_555 1_555
H10 C12 1_555 1_555
C13 C12 1_555 1_555
H11 C13 1_555 1_555
C14 C4 1_555 1_555
H12 C14 1_555 1_555
C15 C9 1_555 1_555
H13 C15 1_555 1_555
C16 C6 1_555 1_555
H14 C16 1_555 1_555
C17 C5 1_555 1_555
C18 O1 1_555 1_555
H15 C18 1_555 1_555
H16 C18 1_555 1_555
C19 C3 1_555 1_555
C20 C19 1_555 1_555
H17 C20 1_555 1_555
C21 C1 1_555 1_555
H18 C21 1_555 1_555
O2 H19 1_555 1_555
N2 C25 1_555 1_555
C22 H20 1_555 1_555
C23 C22 1_555 1_555
H21 C23 1_555 1_555
C24 C23 1_555 1_555
C25 C24 1_555 1_555
C26 N2 1_555 1_555
C27 C26 1_555 1_555
C28 C27 1_555 1_555
H22 C28 1_555 1_555
C29 C28 1_555 1_555
H23 C29 1_555 1_555
C30 C29 1_555 1_555
C31 C30 1_555 1_555
H24 C31 1_555 1_555
H25 C31 1_555 1_555
H26 C31 1_555 1_555
C32 C26 1_555 1_555
C33 O2 1_555 1_555
H27 C33 1_555 1_555
H28 C33 1_555 1_555
C34 C24 1_555 1_555
C35 C34 1_555 1_555
H29 C35 1_555 1_555
C36 C22 1_555 1_555
H30 C36 1_555 1_555
C37 C27 1_555 1_555
H31 C37 1_555 1_555
C38 C30 1_555 1_555
H32 C38 1_555 1_555
C39 N2 1_555 1_555
H33 C39 1_555 1_555
C40 C39 1_555 1_555
H34 C40 1_555 1_555
C41 C40 1_555 1_555
H35 C41 1_555 1_555
C42 C25 1_555 1_555
H36 C42 1_555 1_555
C13 C14 1_555 1_555
C15 C16 1_555 1_555
C17 C18 1_555 1_555
C17 C19 1_555 1_555
C20 C21 1_555 1_555
C32 C33 1_555 1_555
C32 C34 1_555 1_555
C35 C36 1_555 1_555
C37 C38 1_555 1_555
C41 C42 1_555 1_555

#END
