
#######################################################################
#
#                 Cambridge Crystallographic Data Centre
#                                CCDC 
#
#######################################################################
#
# If this CIF has been generated from an entry in the Cambridge 
# Structural Database, then it will include bibliographic, chemical, 
# crystal, experimental, refinement or atomic coordinate data resulting 
# from the CCDC's data processing and validation procedures.
#
#######################################################################

data_QIKPEH
_chemical_formula_moiety         'C21 H18 N1 1+,B1 F4 1-,0.5(C1 H2 Cl2)'
_chemical_name_systematic        
'7-Ethyl-6-phenylpyrido[2,1-a]isoquinolinium tetrafluoroborate dichloromethane solvate'
_symmetry_cell_setting           monoclinic
_symmetry_space_group_name_H-M   'C 2/c'
_symmetry_Int_Tables_number      15
_space_group_name_Hall           '-C 2yn'
loop_
_symmetry_equiv_pos_site_id
_symmetry_equiv_pos_as_xyz
1 x,y,z
2 -x,y,1/2-z
3 1/2+x,1/2+y,z
4 1/2-x,1/2+y,1/2-z
5 -x,-y,-z
6 x,-y,1/2+z
7 1/2-x,1/2-y,-z
8 1/2+x,1/2-y,1/2+z
_cell_length_a                   24.954(3)
_cell_length_b                   9.2275(11)
_cell_length_c                   17.376(2)
_cell_angle_alpha                90
_cell_angle_beta                 108.948(5)
_cell_angle_gamma                90
_cell_volume                     3784.25
_exptl_crystal_colour            colorless
_exptl_crystal_description       tabular
_cell_formula_units_Z            8
loop_
_atom_site_label
_atom_site_type_symbol
_atom_site_fract_x
_atom_site_fract_y
_atom_site_fract_z
C1 C 0.41576(12) 0.5954(3) 0.11840(17)
H1 H 0.4250 0.5015 0.1414
C2 C 0.44981(12) 0.6591(3) 0.08115(18)
H2 H 0.4822 0.6091 0.0776
C3 C 0.43749(12) 0.7964(3) 0.04839(17)
H3 H 0.4622 0.8439 0.0249
C4 C 0.38889(12) 0.8626(3) 0.05045(17)
H4 H 0.3798 0.9562 0.0270
C5 C 0.35231(11) 0.7967(3) 0.08593(16)
C6 C 0.29889(11) 0.8588(3) 0.08449(16)
C7 C 0.28052(12) 0.9928(3) 0.04588(18)
H5 H 0.3046 1.0462 0.0237
C8 C 0.22821(12) 1.0461(3) 0.04016(17)
H6 H 0.2163 1.1368 0.0145
C9 C 0.19211(12) 0.9682(3) 0.07182(17)
H7 H 0.1553 1.0042 0.0656
C10 C 0.20968(12) 0.8400(3) 0.11184(17)
H8 H 0.1851 0.7886 0.1340
C11 C 0.26386(12) 0.7836(3) 0.12043(16)
C12 C 0.28520(12) 0.6540(3) 0.16653(17)
C13 C 0.33575(12) 0.5972(3) 0.16845(17)
C14 C 0.25195(12) 0.5821(3) 0.21587(18)
H9 H 0.2338 0.6584 0.2390
H10 H 0.2787 0.5286 0.2618
C15 C 0.20639(13) 0.4776(3) 0.1662(2)
H11 H 0.1787 0.5306 0.1221
H12 H 0.1872 0.4335 0.2015
H13 H 0.2240 0.4015 0.1431
C16 C 0.36220(12) 0.4692(3) 0.21862(17)
C17 C 0.39964(12) 0.4913(3) 0.29734(18)
H14 H 0.4082 0.5869 0.3179
C18 C 0.42423(12) 0.3733(3) 0.34534(18)
H15 H 0.4498 0.3884 0.3987
C19 C 0.41169(12) 0.2340(3) 0.31583(19)
H16 H 0.4287 0.1536 0.3489
C20 C 0.37449(13) 0.2116(3) 0.23829(19)
H17 H 0.3659 0.1158 0.2180
C21 C 0.34979(13) 0.3289(3) 0.19011(19)
H18 H 0.3240 0.3129 0.1369
N1 N 0.36802(9) 0.6644(2) 0.12348(14)
C22 C 0.0000 0.4872(5) 0.2500
H19 H -0.0197 0.5502 0.2032
Cl1 Cl 0.05038(3) 0.37793(9) 0.22480(5)
H19A H 0.0197 0.5502 0.2968
Cl1A Cl -0.05038(3) 0.37793(9) 0.27520(5)
B1 B 0.0726(4) 0.2659(9) 0.9806(6)
F1 F 0.0592(5) 0.1429(8) 1.0168(7)
F2 F 0.0468(3) 0.3839(5) 0.9970(6)
F3 F 0.0545(2) 0.2447(9) 0.8976(2)
F4 F 0.1308(3) 0.2833(12) 1.0045(6)
H20? H -0.0197 0.5502 0.2032
B2? B 0.0747(7) 0.2723(19) 0.9954(10)
F5? F 0.0570(10) 0.1372(19) 1.0088(15)
F6? F 0.0761(8) 0.3706(18) 1.0522(12)
F7? F 0.0393(4) 0.3261(17) 0.9246(11)
F8? F 0.1282(6) 0.267(2) 0.9889(14)
loop_
_geom_bond_atom_site_label_1
_geom_bond_atom_site_label_2
_geom_bond_site_symmetry_1
_geom_bond_site_symmetry_2
C1 H1 1_555 1_555
C2 C1 1_555 1_555
H2 C2 1_555 1_555
C3 C2 1_555 1_555
H3 C3 1_555 1_555
C4 C3 1_555 1_555
H4 C4 1_555 1_555
C5 C4 1_555 1_555
C6 C5 1_555 1_555
C7 C6 1_555 1_555
H5 C7 1_555 1_555
C8 C7 1_555 1_555
H6 C8 1_555 1_555
C9 C8 1_555 1_555
H7 C9 1_555 1_555
C10 C9 1_555 1_555
H8 C10 1_555 1_555
C11 C6 1_555 1_555
C12 C11 1_555 1_555
C13 C12 1_555 1_555
C14 C12 1_555 1_555
H9 C14 1_555 1_555
H10 C14 1_555 1_555
C15 C14 1_555 1_555
H11 C15 1_555 1_555
H12 C15 1_555 1_555
H13 C15 1_555 1_555
C16 C13 1_555 1_555
C17 C16 1_555 1_555
H14 C17 1_555 1_555
C18 C17 1_555 1_555
H15 C18 1_555 1_555
C19 C18 1_555 1_555
H16 C19 1_555 1_555
C20 C19 1_555 1_555
H17 C20 1_555 1_555
C21 C16 1_555 1_555
H18 C21 1_555 1_555
N1 C1 1_555 1_555
C22 H19 1_555 1_555
Cl1 C22 1_555 1_555
B1 F1 1_555 1_555
F2 B1 1_555 1_555
F3 B1 1_555 1_555
F4 B1 1_555 1_555
H19A C22 1_555 1_555
Cl1A C22 1_555 1_555
C5 N1 1_555 1_555
C10 C11 1_555 1_555
C13 N1 1_555 1_555
C20 C21 1_555 1_555

#END
