
#######################################################################
#
#                 Cambridge Crystallographic Data Centre
#                                CCDC 
#
#######################################################################
#
# If this CIF has been generated from an entry in the Cambridge 
# Structural Database, then it will include bibliographic, chemical, 
# crystal, experimental, refinement or atomic coordinate data resulting 
# from the CCDC's data processing and validation procedures.
#
#######################################################################

data_QIKPUV
_chemical_formula_moiety         'C64 H82 N2 O6,C1 H4 O1'
_chemical_name_systematic        
'25,27-bis(6-(Hydroxymethyl)-2-pyridylmethoxy)-26,28-di-n-propoxy-5,11,17,23-tetra-t-butylcalix(4)arene methanol solvate'
_symmetry_cell_setting           monoclinic
_symmetry_space_group_name_H-M   'P 21/c'
_symmetry_Int_Tables_number      14
_space_group_name_Hall           '-P 2ybc'
loop_
_symmetry_equiv_pos_site_id
_symmetry_equiv_pos_as_xyz
1 x,y,z
2 x,1/2-y,1/2+z
3 -x,-y,-z
4 -x,1/2+y,1/2-z
_cell_length_a                   21.401(17)
_cell_length_b                   13.436(10)
_cell_length_c                   22.040(18)
_cell_angle_alpha                90
_cell_angle_beta                 95.396(16)
_cell_angle_gamma                90
_cell_volume                     6309.38
_chemical_melting_point          163-164deg.C
_cell_formula_units_Z            4
_exptl_crystal_recrystallization_method dichloromethane/methanol
loop_
_atom_site_label
_atom_site_type_symbol
_atom_site_fract_x
_atom_site_fract_y
_atom_site_fract_z
N1 N 0.3426(3) 0.8063(4) 0.4097(2)
N2 N 0.5334(2) 0.8592(4) 0.0657(2)
O1 O 0.25216(16) 0.8969(2) 0.31365(16)
O2 O 0.39410(15) 0.9559(2) 0.11706(15)
O3 O 0.28426(16) 0.8239(2) 0.18426(16)
O4 O 0.33891(18) 1.0569(3) 0.24816(17)
O5 O 0.4968(2) 0.6930(5) 0.4460(2)
H1 H 0.5315 0.7136 0.4594
O6 O 0.6733(3) 0.7065(5) 0.0653(3)
H2 H 0.6706 0.6463 0.0596
C1 C 0.2378(2) 1.1121(4) 0.3190(2)
H3 H 0.2190 1.1522 0.3490
H4 H 0.2715 1.0734 0.3399
C2 C 0.2646(3) 1.1805(4) 0.2719(2)
C3 C 0.2367(3) 1.2742(4) 0.2610(3)
H5 H 0.2057 1.2954 0.2849
C4 C 0.2547(3) 1.3349(4) 0.2155(3)
C5 C 0.3001(3) 1.2989(4) 0.1794(3)
H6 H 0.3121 1.3387 0.1480
C6 C 0.3285(3) 1.2044(4) 0.1887(3)
C7 C 0.3678(3) 1.1619(4) 0.1418(2)
H7 H 0.4016 1.1220 0.1616
H8 H 0.3861 1.2153 0.1197
C8 C 0.3259(2) 1.0974(4) 0.0977(2)
C9 C 0.2720(3) 1.1383(4) 0.0670(2)
H9 H 0.2641 1.2059 0.0715
C10 C 0.2301(2) 1.0818(4) 0.0302(3)
C11 C 0.2415(2) 0.9821(4) 0.0284(2)
H10 H 0.2121 0.9423 0.0061
C12 C 0.2936(3) 0.9363(4) 0.0573(2)
C13 C 0.3003(2) 0.8232(4) 0.0581(2)
H11 H 0.3380 0.8041 0.0833
H12 H 0.3034 0.7986 0.0171
C14 C 0.2430(2) 0.7792(4) 0.0838(3)
C15 C 0.1940(3) 0.7377(4) 0.0460(3)
H13 H 0.1992 0.7294 0.0049
C16 C 0.1371(3) 0.7080(4) 0.0676(3)
C17 C 0.1324(3) 0.7176(4) 0.1281(3)
H14 H 0.0954 0.6972 0.1433
C18 C 0.1801(3) 0.7567(4) 0.1692(3)
C19 C 0.1708(3) 0.7736(4) 0.2346(3)
H15 H 0.2084 0.7534 0.2597
H16 H 0.1364 0.7325 0.2457
C20 C 0.1567(3) 0.8822(4) 0.2478(2)
C21 C 0.1013(3) 0.9261(5) 0.2217(3)
H17 H 0.0726 0.8867 0.1983
C22 C 0.0873(3) 1.0260(5) 0.2291(3)
C23 C 0.1320(3) 1.0828(4) 0.2607(3)
H18 H 0.1249 1.1507 0.2644
C24 C 0.1887(2) 1.0426(4) 0.2880(2)
C25 C 0.1985(2) 0.9409(4) 0.2832(2)
C26 C 0.2360(3) 0.7834(3) 0.1459(3)
C27 C 0.3379(2) 0.9972(4) 0.0901(2)
C28 C 0.3110(3) 1.1480(4) 0.2371(3)
C29 C 0.0236(3) 1.0697(5) 0.2036(4)
C30 C -0.0065(5) 1.0166(10) 0.1511(7)
H19 H -0.0456 1.0482 0.1379
H20 H -0.0141 0.9489 0.1623
H21 H 0.0204 1.0177 0.1187
C31 C -0.0198(5) 1.0601(11) 0.2543(6)
H22 H -0.0601 1.0877 0.2409
H23 H -0.0021 1.0954 0.2897
H24 H -0.0245 0.9911 0.2642
C32 C 0.0288(5) 1.1740(7) 0.1866(7)
H25 H -0.0118 1.1989 0.1717
H26 H 0.0568 1.1800 0.1552
H27 H 0.0448 1.2119 0.2216
C33 C 0.0840(3) 0.6649(6) 0.0240(3)
C34 C 0.1050(4) 0.5712(7) -0.0053(4)
H28 H 0.1160 0.5222 0.0255
H29 H 0.1409 0.5854 -0.0270
H30 H 0.0716 0.5463 -0.0333
C35 C 0.0683(4) 0.7362(8) -0.0285(5)
H31 H 0.0351 0.7087 -0.0558
H32 H 0.1048 0.7462 -0.0500
H33 H 0.0551 0.7988 -0.0130
C36 C 0.0258(4) 0.6365(8) 0.0539(4)
H34 H 0.0367 0.5900 0.0862
H35 H -0.0042 0.6066 0.0242
H36 H 0.0078 0.6950 0.0703
C37 C 0.1717(3) 1.1278(5) -0.0060(3)
C38 C 0.1638(5) 1.2364(7) 0.0062(5)
H37 H 0.1585 1.2461 0.0486
H38 H 0.1276 1.2610 -0.0181
H39 H 0.2004 1.2718 -0.0039
C39 C 0.1796(4) 1.1178(8) -0.0738(4)
H40 H 0.1437 1.1459 -0.0972
H41 H 0.1833 1.0488 -0.0840
H42 H 0.2168 1.1526 -0.0830
C40 C 0.1141(4) 1.0724(8) 0.0039(5)
H43 H 0.1066 1.0765 0.0461
H44 H 0.1190 1.0040 -0.0071
H45 H 0.0792 1.1007 -0.0207
C41 C 0.2221(3) 1.4350(5) 0.2017(3)
C42 C 0.2240(5) 1.4953(5) 0.2588(4)
H46 H 0.2669 1.5075 0.2739
H47 H 0.2033 1.4597 0.2889
H48 H 0.2031 1.5577 0.2502
C43 C 0.1539(4) 1.4168(5) 0.1789(4)
H49 H 0.1518 1.3777 0.1424
H50 H 0.1333 1.4794 0.1705
H51 H 0.1334 1.3818 0.2095
C44 C 0.2501(4) 1.4919(6) 0.1519(4)
H52 H 0.2934 1.5063 0.1643
H53 H 0.2275 1.5530 0.1443
H54 H 0.2473 1.4525 0.1154
C45 C 0.2389(3) 0.8622(4) 0.3728(3)
H55 H 0.1963 0.8371 0.3715
H56 H 0.2439 0.9157 0.4024
C46 C 0.2853(4) 0.7807(5) 0.3892(3)
C47 C 0.2687(4) 0.6812(6) 0.3810(3)
H57 H 0.2277 0.6643 0.3669
C48 C 0.3122(5) 0.6085(6) 0.3935(3)
H58 H 0.3011 0.5418 0.3893
C49 C 0.3724(4) 0.6352(6) 0.4124(3)
H59 H 0.4034 0.5867 0.4185
C50 C 0.3878(4) 0.7361(7) 0.4228(3)
C51 C 0.4508(4) 0.7734(6) 0.4472(4)
H60 H 0.4629 0.8288 0.4226
H61 H 0.4492 0.7968 0.4887
C52 C 0.4403(3) 0.9540(4) 0.0744(3)
H62 H 0.4473 1.0211 0.0602
H63 H 0.4252 0.9140 0.0394
C53 C 0.5013(3) 0.9115(4) 0.1030(3)
C54 C 0.5214(3) 0.9277(5) 0.1635(3)
H64 H 0.4971 0.9630 0.1890
C55 C 0.5798(4) 0.8886(6) 0.1844(4)
H65 H 0.5956 0.8985 0.2247
C56 C 0.6132(3) 0.8371(6) 0.1470(5)
H66 H 0.6523 0.8117 0.1612
C57 C 0.5902(3) 0.8218(5) 0.0877(4)
C58 C 0.6197(4) 0.7526(7) 0.0389(4)
H67 H 0.5893 0.7027 0.0239
H68 H 0.6300 0.7926 0.0046
C59 C 0.3309(4) 0.7519(5) 0.2069(4)
H69 H 0.3112 0.7028 0.2312
H70 H 0.3463 0.7176 0.1726
C60 C 0.3804(5) 0.7928(10) 0.2414(5)
H71 H 0.3659 0.8224 0.2777
H72 H 0.3987 0.8452 0.2184
C61 C 0.4317(4) 0.7120(9) 0.2603(4)
H73 H 0.4644 0.7411 0.2874
H74 H 0.4491 0.6876 0.2246
H75 H 0.4129 0.6579 0.2805
C62 C 0.3997(5) 1.0637(6) 0.2901(6)
H76 H 0.4273 1.1044 0.2679
H77 H 0.3891 1.1042 0.3241
C63 C 0.4404(9) 0.9841(11) 0.3180(9)
H78 H 0.4610 0.9478 0.2875
H79 H 0.4168 0.9378 0.3407
C64 C 0.4875(5) 1.0426(13) 0.3601(5)
H80 H 0.5010 1.0029 0.3951
H81 H 0.4681 1.1025 0.3731
H82 H 0.5231 1.0595 0.3388
O7 O 0.6442(4) 0.5021(5) 0.0347(3)
C65 C 0.6512(9) 0.4812(11) -0.0271(5)
loop_
_geom_bond_atom_site_label_1
_geom_bond_atom_site_label_2
_geom_bond_site_symmetry_1
_geom_bond_site_symmetry_2
N1 C46 1_555 1_555
N2 C53 1_555 1_555
O1 C25 1_555 1_555
O2 C27 1_555 1_555
O3 C26 1_555 1_555
O4 C28 1_555 1_555
O5 H1 1_555 1_555
O6 H2 1_555 1_555
O7 C65 1_555 1_555
C1 H3 1_555 1_555
H4 C1 1_555 1_555
C2 C1 1_555 1_555
C3 C2 1_555 1_555
H5 C3 1_555 1_555
C4 C3 1_555 1_555
C5 C4 1_555 1_555
H6 C5 1_555 1_555
C6 C5 1_555 1_555
C7 C6 1_555 1_555
H7 C7 1_555 1_555
H8 C7 1_555 1_555
C8 C7 1_555 1_555
C9 C8 1_555 1_555
H9 C9 1_555 1_555
C10 C9 1_555 1_555
C11 C10 1_555 1_555
H10 C11 1_555 1_555
C12 C11 1_555 1_555
C13 C12 1_555 1_555
H11 C13 1_555 1_555
H12 C13 1_555 1_555
C14 C13 1_555 1_555
C15 C14 1_555 1_555
H13 C15 1_555 1_555
C16 C15 1_555 1_555
C17 C16 1_555 1_555
H14 C17 1_555 1_555
C18 C17 1_555 1_555
C19 C18 1_555 1_555
H15 C19 1_555 1_555
H16 C19 1_555 1_555
C20 C19 1_555 1_555
C21 C20 1_555 1_555
H17 C21 1_555 1_555
C22 C21 1_555 1_555
C23 C22 1_555 1_555
H18 C23 1_555 1_555
C24 C1 1_555 1_555
C25 C20 1_555 1_555
C26 C14 1_555 1_555
C27 C8 1_555 1_555
C28 C2 1_555 1_555
C29 C22 1_555 1_555
C30 C29 1_555 1_555
H19 C30 1_555 1_555
H20 C30 1_555 1_555
H21 C30 1_555 1_555
C31 C29 1_555 1_555
H22 C31 1_555 1_555
H23 C31 1_555 1_555
H24 C31 1_555 1_555
C32 C29 1_555 1_555
H25 C32 1_555 1_555
H26 C32 1_555 1_555
H27 C32 1_555 1_555
C33 C16 1_555 1_555
C34 C33 1_555 1_555
H28 C34 1_555 1_555
H29 C34 1_555 1_555
H30 C34 1_555 1_555
C35 C33 1_555 1_555
H31 C35 1_555 1_555
H32 C35 1_555 1_555
H33 C35 1_555 1_555
C36 C33 1_555 1_555
H34 C36 1_555 1_555
H35 C36 1_555 1_555
H36 C36 1_555 1_555
C37 C10 1_555 1_555
C38 C37 1_555 1_555
H37 C38 1_555 1_555
H38 C38 1_555 1_555
H39 C38 1_555 1_555
C39 C37 1_555 1_555
H40 C39 1_555 1_555
H41 C39 1_555 1_555
H42 C39 1_555 1_555
C40 C37 1_555 1_555
H43 C40 1_555 1_555
H44 C40 1_555 1_555
H45 C40 1_555 1_555
C41 C4 1_555 1_555
C42 C41 1_555 1_555
H46 C42 1_555 1_555
H47 C42 1_555 1_555
H48 C42 1_555 1_555
C43 C41 1_555 1_555
H49 C43 1_555 1_555
H50 C43 1_555 1_555
H51 C43 1_555 1_555
C44 C41 1_555 1_555
H52 C44 1_555 1_555
H53 C44 1_555 1_555
H54 C44 1_555 1_555
C45 O1 1_555 1_555
H55 C45 1_555 1_555
H56 C45 1_555 1_555
C46 C45 1_555 1_555
C47 C46 1_555 1_555
H57 C47 1_555 1_555
C48 C47 1_555 1_555
H58 C48 1_555 1_555
C49 C48 1_555 1_555
H59 C49 1_555 1_555
C50 N1 1_555 1_555
C51 O5 1_555 1_555
H60 C51 1_555 1_555
H61 C51 1_555 1_555
C52 O2 1_555 1_555
H62 C52 1_555 1_555
H63 C52 1_555 1_555
C53 C52 1_555 1_555
C54 C53 1_555 1_555
H64 C54 1_555 1_555
C55 C54 1_555 1_555
H65 C55 1_555 1_555
C56 C55 1_555 1_555
H66 C56 1_555 1_555
C57 N2 1_555 1_555
C58 O6 1_555 1_555
H67 C58 1_555 1_555
H68 C58 1_555 1_555
C59 O3 1_555 1_555
H69 C59 1_555 1_555
H70 C59 1_555 1_555
C60 C59 1_555 1_555
H71 C60 1_555 1_555
H72 C60 1_555 1_555
C61 C60 1_555 1_555
H73 C61 1_555 1_555
H74 C61 1_555 1_555
H75 C61 1_555 1_555
C62 O4 1_555 1_555
H76 C62 1_555 1_555
H77 C62 1_555 1_555
C63 C62 1_555 1_555
H78 C63 1_555 1_555
H79 C63 1_555 1_555
C64 C63 1_555 1_555
H80 C64 1_555 1_555
H81 C64 1_555 1_555
H82 C64 1_555 1_555
C6 C28 1_555 1_555
C12 C27 1_555 1_555
C18 C26 1_555 1_555
C23 C24 1_555 1_555
C24 C25 1_555 1_555
C49 C50 1_555 1_555
C50 C51 1_555 1_555
C56 C57 1_555 1_555
C57 C58 1_555 1_555

#END
