
#######################################################################
#
#                 Cambridge Crystallographic Data Centre
#                                CCDC 
#
#######################################################################
#
# If this CIF has been generated from an entry in the Cambridge 
# Structural Database, then it will include bibliographic, chemical, 
# crystal, experimental, refinement or atomic coordinate data resulting 
# from the CCDC's data processing and validation procedures.
#
#######################################################################

data_QIKYUG
_chemical_formula_moiety         'C21 H21 F1 N2 O3'
_chemical_name_systematic        
'Methyl 4-(1,3-dimethyl-1H-indol-2-yl)-4-(2-fluorophenyl)-2-(hydroxyimino)butanoate'
_symmetry_cell_setting           triclinic
_symmetry_space_group_name_H-M   'P 1'
_symmetry_Int_Tables_number      1
_space_group_name_Hall           'P 1'
loop_
_symmetry_equiv_pos_site_id
_symmetry_equiv_pos_as_xyz
1 x,y,z
_cell_length_a                   7.509(7)
_cell_length_b                   9.895(6)
_cell_length_c                   13.071(6)
_cell_angle_alpha                80.40(4)
_cell_angle_beta                 77.72(5)
_cell_angle_gamma                82.79(5)
_cell_volume                     931.59
_cell_formula_units_Z            2
loop_
_atom_site_label
_atom_site_type_symbol
_atom_site_fract_x
_atom_site_fract_y
_atom_site_fract_z
F1 F 0.4997(5) 0.9488(4) 0.5118(3)
O1 O 0.3024(6) 0.8122(5) 0.2179(3)
O2 O 0.4917(6) 0.7589(5) 0.0694(3)
O3 O 0.8773(5) 0.9593(5) 0.1210(3)
H1 H 0.9703 0.9444 0.0743
N1 N 0.7289(7) 0.9049(6) 0.0997(4)
N2 N 0.4096(7) 0.5436(6) 0.3594(4)
C1 C 0.5536(8) 0.7481(7) 0.3780(4)
H2 H 0.4208 0.7775 0.4013
C2 C 0.6386(8) 0.7293(7) 0.4772(4)
C3 C 0.6027(8) 0.8322(6) 0.5400(4)
C4 C 0.6727(8) 0.8222(8) 0.6329(4)
H3 H 0.6486 0.8949 0.6745
C5 C 0.7770(8) 0.7035(7) 0.6611(5)
H4 H 0.8229 0.6927 0.7246
C6 C 0.8164(8) 0.6011(8) 0.6001(5)
H5 H 0.8925 0.5211 0.6201
C7 C 0.7457(8) 0.6127(7) 0.5085(5)
H6 H 0.7716 0.5396 0.4673
C8 C 0.6332(9) 0.8676(8) 0.2936(5)
H7 H 0.5722 0.9561 0.3151
H8 H 0.7650 0.8664 0.2941
C9 C 0.6130(8) 0.8634(7) 0.1848(5)
C10 C 0.4496(9) 0.8124(7) 0.1614(5)
C11 C 0.3426(9) 0.6976(9) 0.0448(6)
H9 H 0.3194 0.6122 0.0936
H10 H 0.3758 0.6771 -0.0280
H11 H 0.2319 0.7621 0.0523
C12 C 0.5613(8) 0.6180(6) 0.3332(4)
C13 C 0.4361(8) 0.4384(8) 0.2996(6)
C14 C 0.6095(9) 0.4442(7) 0.2370(4)
C15 C 0.6913(9) 0.5583(8) 0.2576(5)
C16 C 0.2344(9) 0.5786(9) 0.4295(6)
H12 H 0.1741 0.6640 0.3975
H13 H 0.2571 0.5912 0.4982
H14 H 0.1554 0.5040 0.4393
C17 C 0.8819(10) 0.5902(9) 0.2124(6)
H15 H 0.9146 0.6583 0.2501
H16 H 0.8925 0.6276 0.1373
H17 H 0.9647 0.5060 0.2200
C18 C 0.3241(9) 0.3352(9) 0.3003(5)
H18 H 0.2068 0.3313 0.3452
C19 C 0.3914(11) 0.2401(10) 0.2332(6)
H19 H 0.3179 0.1700 0.2302
C20 C 0.5654(9) 0.2439(8) 0.1693(6)
H20 H 0.6079 0.1747 0.1251
C21 C 0.6766(12) 0.3430(9) 0.1680(6)
H21 H 0.7939 0.3451 0.1231
F2 F -0.2452(5) 0.2867(4) 0.5782(3)
O4 O 0.4019(6) 0.0439(5) 0.8048(4)
O5 O 0.2022(6) 0.0706(6) 0.9554(3)
O6 O -0.1606(5) -0.1281(5) 0.8828(3)
H22 H -0.2352 -0.1544 0.9381
N3 N -0.0193(6) -0.0724(6) 0.9092(4)
N4 N 0.1922(7) 0.2784(6) 0.6620(4)
C22 C -0.0184(7) 0.0876(7) 0.6752(4)
H23 H -0.1447 0.0731 0.7162
C23 C -0.0301(8) 0.0927(7) 0.5600(5)
C24 C 0.0627(9) -0.0012(9) 0.4951(5)
H24 H 0.1439 -0.0730 0.5223
C25 C 0.0410(9) 0.0062(8) 0.3924(5)
H25 H 0.1088 -0.0588 0.3496
C26 C -0.0790(9) 0.1077(9) 0.3511(5)
H26 H -0.0965 0.1109 0.2808
C27 C -0.1760(9) 0.2069(8) 0.4142(5)
H27 H -0.2573 0.2787 0.3871
C28 C -0.1480(8) 0.1956(8) 0.5167(5)
C29 C 0.1059(8) -0.0384(7) 0.7169(4)
H28 H 0.0599 -0.1246 0.7086
H29 H 0.2323 -0.0349 0.6752
C30 C 0.1063(8) -0.0366(7) 0.8325(5)
C31 C 0.2555(8) 0.0284(7) 0.8606(5)
C32 C 0.3314(10) 0.1429(10) 0.9872(6)
H30 H 0.2749 0.1780 1.0535
H31 H 0.3676 0.2200 0.9320
H32 H 0.4398 0.0800 0.9975
C33 C 0.0288(8) 0.2196(7) 0.7059(5)
C34 C -0.0668(7) 0.2845(6) 0.7855(4)
C35 C 0.0376(7) 0.3906(7) 0.7963(5)
C36 C 0.1998(8) 0.3824(7) 0.7196(4)
C37 C 0.3453(8) 0.2307(8) 0.5802(5)
H33 H 0.2972 0.1848 0.5323
H34 H 0.4322 0.1659 0.6143
H35 H 0.4075 0.3099 0.5398
C38 C -0.2500(8) 0.2572(8) 0.8539(5)
H36 H -0.2325 0.2003 0.9206
H37 H -0.3174 0.2086 0.8170
H38 H -0.3196 0.3447 0.8687
C39 C 0.0106(9) 0.4857(7) 0.8647(5)
H39 H -0.0967 0.4892 0.9183
C40 C 0.1411(11) 0.5762(8) 0.8549(6)
H40 H 0.1223 0.6438 0.9009
C41 C 0.3018(11) 0.5688(9) 0.7770(6)
H41 H 0.3904 0.6316 0.7715
C42 C 0.3340(9) 0.4720(8) 0.7080(5)
H42 H 0.4425 0.4670 0.6554
loop_
_geom_bond_atom_site_label_1
_geom_bond_atom_site_label_2
_geom_bond_site_symmetry_1
_geom_bond_site_symmetry_2
F1 C3 1_555 1_555
O1 C10 1_555 1_555
O2 C10 1_555 1_555
O3 H1 1_555 1_555
N1 O3 1_555 1_555
N2 C12 1_555 1_555
C1 H2 1_555 1_555
C2 C1 1_555 1_555
C3 C2 1_555 1_555
C4 C3 1_555 1_555
H3 C4 1_555 1_555
C5 C4 1_555 1_555
H4 C5 1_555 1_555
C6 C5 1_555 1_555
H5 C6 1_555 1_555
C7 C2 1_555 1_555
H6 C7 1_555 1_555
C8 C1 1_555 1_555
H7 C8 1_555 1_555
H8 C8 1_555 1_555
C9 N1 1_555 1_555
C10 C9 1_555 1_555
C11 O2 1_555 1_555
H9 C11 1_555 1_555
H10 C11 1_555 1_555
H11 C11 1_555 1_555
C12 C1 1_555 1_555
C13 N2 1_555 1_555
C14 C13 1_555 1_555
C15 C12 1_555 1_555
C16 N2 1_555 1_555
H12 C16 1_555 1_555
H13 C16 1_555 1_555
H14 C16 1_555 1_555
C17 C15 1_555 1_555
H15 C17 1_555 1_555
H16 C17 1_555 1_555
H17 C17 1_555 1_555
C18 C13 1_555 1_555
H18 C18 1_555 1_555
C19 C18 1_555 1_555
H19 C19 1_555 1_555
C20 C19 1_555 1_555
H20 C20 1_555 1_555
C21 C14 1_555 1_555
H21 C21 1_555 1_555
F2 C28 1_555 1_555
O4 C31 1_555 1_555
O5 C31 1_555 1_555
O6 H22 1_555 1_555
N3 O6 1_555 1_555
N4 C33 1_555 1_555
C22 H23 1_555 1_555
C23 C22 1_555 1_555
C24 C23 1_555 1_555
H24 C24 1_555 1_555
C25 C24 1_555 1_555
H25 C25 1_555 1_555
C26 C25 1_555 1_555
H26 C26 1_555 1_555
C27 C26 1_555 1_555
H27 C27 1_555 1_555
C28 C23 1_555 1_555
C29 C22 1_555 1_555
H28 C29 1_555 1_555
H29 C29 1_555 1_555
C30 N3 1_555 1_555
C31 C30 1_555 1_555
C32 O5 1_555 1_555
H30 C32 1_555 1_555
H31 C32 1_555 1_555
H32 C32 1_555 1_555
C33 C22 1_555 1_555
C34 C33 1_555 1_555
C35 C34 1_555 1_555
C36 N4 1_555 1_555
C37 N4 1_555 1_555
H33 C37 1_555 1_555
H34 C37 1_555 1_555
H35 C37 1_555 1_555
C38 C34 1_555 1_555
H36 C38 1_555 1_555
H37 C38 1_555 1_555
H38 C38 1_555 1_555
C39 C35 1_555 1_555
H39 C39 1_555 1_555
C40 C39 1_555 1_555
H40 C40 1_555 1_555
C41 C40 1_555 1_555
H41 C41 1_555 1_555
C42 C36 1_555 1_555
H42 C42 1_555 1_555
C6 C7 1_555 1_555
C8 C9 1_555 1_555
C14 C15 1_555 1_555
C20 C21 1_555 1_555
C27 C28 1_555 1_555
C29 C30 1_555 1_555
C35 C36 1_555 1_555
C41 C42 1_555 1_555

#END
