
#######################################################################
#
#                 Cambridge Crystallographic Data Centre
#                                CCDC 
#
#######################################################################
#
# If this CIF has been generated from an entry in the Cambridge 
# Structural Database, then it will include bibliographic, chemical, 
# crystal, experimental, refinement or atomic coordinate data resulting 
# from the CCDC's data processing and validation procedures.
#
#######################################################################

data_QIKYEQ
_chemical_formula_moiety         'C22 H18 O4'
_chemical_name_systematic        
'Dimethyl (3-(9-anthryl)prop-2-en-1-ylidene)malonate'
_symmetry_cell_setting           monoclinic
_symmetry_space_group_name_H-M   'P 21/c'
_symmetry_Int_Tables_number      14
_space_group_name_Hall           '-P 2ybc'
loop_
_symmetry_equiv_pos_site_id
_symmetry_equiv_pos_as_xyz
1 x,y,z
2 -x,1/2+y,1/2-z
3 -x,-y,-z
4 x,1/2-y,1/2+z
_cell_length_a                   11.9721(5)
_cell_length_b                   13.0639(6)
_cell_length_c                   12.2280(5)
_cell_angle_alpha                90
_cell_angle_beta                 116.5190(10)
_cell_angle_gamma                90
_cell_volume                     1711.27
_exptl_crystal_colour            yellow
_exptl_crystal_description       'needle fragment'
_cell_formula_units_Z            4
loop_
_atom_site_label
_atom_site_type_symbol
_atom_site_fract_x
_atom_site_fract_y
_atom_site_fract_z
C1 C 0.26950(14) 1.02372(11) 0.89925(13)
H1 H 0.3496 1.0124 0.9653
C2 C 0.20591(15) 1.11115(12) 0.89685(14)
H2 H 0.2418 1.1593 0.9616
C3 C 0.08691(15) 1.13073(12) 0.79877(14)
H3 H 0.0442 1.1924 0.7974
C4 C 0.03332(13) 1.06131(11) 0.70619(13)
H4 H -0.0466 1.0750 0.6409
C5 C 0.09638(13) 0.96818(10) 0.70656(12)
C6 C 0.04945(16) 0.73209(12) 0.51773(14)
H5 H -0.0312 0.7447 0.4532
C7 C 0.11127(18) 0.64428(13) 0.51695(16)
H6 H 0.0733 0.5963 0.4524
C8 C 0.23183(18) 0.62483(13) 0.61224(16)
H7 H 0.2743 0.5639 0.6106
C9 C 0.28781(16) 0.69217(12) 0.70619(15)
H8 H 0.3690 0.6776 0.7688
C10 C 0.22610(14) 0.78478(11) 0.71210(13)
C11 C 0.28162(13) 0.85730(11) 0.80657(13)
C12 C 0.21773(13) 0.94887(10) 0.80426(12)
C13 C 0.04215(13) 0.89577(11) 0.61348(13)
H9 H -0.0384 0.9084 0.5487
C14 C 0.10428(13) 0.80516(11) 0.61406(13)
C15 C 0.41168(14) 0.84553(12) 0.90513(14)
H10 H 0.4687 0.8974 0.9083
C16 C 0.45945(13) 0.77154(12) 0.99024(14)
H11 H 0.5456 0.7758 1.0457
C17 C 0.38987(13) 0.68597(11) 1.00392(13)
H12 H 0.3027 0.6836 0.9517
C18 C 0.43991(13) 0.60911(11) 1.08571(13)
C19 C 0.35786(13) 0.52479(11) 1.08680(12)
O1 O 0.24622(10) 0.52202(9) 1.02413(10)
O2 O 0.42353(10) 0.44928(8) 1.16310(10)
C20 C 0.35106(16) 0.36069(12) 1.16186(16)
H13 H 0.2870 0.3807 1.1869
H14 H 0.4060 0.3092 1.2187
H15 H 0.3109 0.3320 1.0792
C21 C 0.57364(13) 0.60655(10) 1.17920(13)
O3 O 0.60725(11) 0.60932(10) 1.28806(10)
O4 O 0.65163(10) 0.60328(9) 1.12803(10)
C22 C 0.78301(14) 0.60598(14) 1.21289(15)
H16 H 0.8009 0.6679 1.2632
H17 H 0.8327 0.6065 1.1673
H18 H 0.8044 0.5454 1.2656
loop_
_geom_bond_atom_site_label_1
_geom_bond_atom_site_label_2
_geom_bond_site_symmetry_1
_geom_bond_site_symmetry_2
C1 H1 1_555 1_555
C2 C1 1_555 1_555
H2 C2 1_555 1_555
C3 C2 1_555 1_555
H3 C3 1_555 1_555
C4 C3 1_555 1_555
H4 C4 1_555 1_555
C5 C4 1_555 1_555
C6 H5 1_555 1_555
C7 C6 1_555 1_555
H6 C7 1_555 1_555
C8 C7 1_555 1_555
H7 C8 1_555 1_555
C9 C8 1_555 1_555
H8 C9 1_555 1_555
C10 C9 1_555 1_555
C11 C10 1_555 1_555
C12 C1 1_555 1_555
C13 C5 1_555 1_555
H9 C13 1_555 1_555
C14 C6 1_555 1_555
C15 C11 1_555 1_555
H10 C15 1_555 1_555
C16 C15 1_555 1_555
H11 C16 1_555 1_555
C17 C16 1_555 1_555
H12 C17 1_555 1_555
C18 C17 1_555 1_555
C19 C18 1_555 1_555
O1 C19 1_555 1_555
O2 C19 1_555 1_555
C20 O2 1_555 1_555
H13 C20 1_555 1_555
H14 C20 1_555 1_555
H15 C20 1_555 1_555
C21 C18 1_555 1_555
O3 C21 1_555 1_555
O4 C21 1_555 1_555
C22 O4 1_555 1_555
H16 C22 1_555 1_555
H17 C22 1_555 1_555
H18 C22 1_555 1_555
C5 C12 1_555 1_555
C10 C14 1_555 1_555
C11 C12 1_555 1_555
C13 C14 1_555 1_555

#END
