
#######################################################################
#
#                 Cambridge Crystallographic Data Centre
#                                CCDC 
#
#######################################################################
#
# If this CIF has been generated from an entry in the Cambridge 
# Structural Database, then it will include bibliographic, chemical, 
# crystal, experimental, refinement or atomic coordinate data resulting 
# from the CCDC's data processing and validation procedures.
#
#######################################################################

data_QIKYIU
_chemical_formula_moiety         'C22 H18 O4'
_chemical_name_systematic        
'Dimethyl (3-(9-anthryl)prop-2-en-1-ylidene)malonate'
_symmetry_cell_setting           monoclinic
_symmetry_space_group_name_H-M   'P 21/c'
_symmetry_Int_Tables_number      14
_space_group_name_Hall           '-P 2ybc'
loop_
_symmetry_equiv_pos_site_id
_symmetry_equiv_pos_as_xyz
1 x,y,z
2 -x,1/2+y,1/2-z
3 -x,-y,-z
4 x,1/2-y,1/2+z
_cell_length_a                   13.2208(4)
_cell_length_b                   11.4071(3)
_cell_length_c                   11.6277(3)
_cell_angle_alpha                90
_cell_angle_beta                 91.3320(10)
_cell_angle_gamma                90
_cell_volume                     1753.11
_exptl_crystal_colour            yellow
_exptl_crystal_description       'prism fragment'
_cell_formula_units_Z            4
loop_
_atom_site_label
_atom_site_type_symbol
_atom_site_fract_x
_atom_site_fract_y
_atom_site_fract_z
C1 C 0.98245(6) 0.52690(7) 0.28298(7)
H1 H 0.9461 0.5964 0.2642
C2 C 1.07021(6) 0.50262(8) 0.22777(7)
H2 H 1.0932 0.5545 0.1700
C3 C 1.12761(7) 0.40055(8) 0.25579(8)
H3 H 1.1875 0.3834 0.2154
C4 C 1.09642(6) 0.32761(8) 0.34060(7)
H4 H 1.1364 0.2612 0.3608
C5 C 1.00472(6) 0.34910(7) 0.39978(7)
C6 C 0.85399(7) 0.21903(8) 0.63653(8)
H5 H 0.8964 0.1556 0.6595
C7 C 0.76514(7) 0.23717(8) 0.69141(8)
H6 H 0.7468 0.1875 0.7531
C8 C 0.70002(7) 0.33038(8) 0.65624(8)
H7 H 0.6371 0.3408 0.6927
C9 C 0.72715(6) 0.40523(8) 0.57029(7)
H8 H 0.6829 0.4673 0.5483
C10 C 0.82110(6) 0.39164(7) 0.51292(7)
C11 C 0.85160(6) 0.46839(7) 0.42470(6)
C12 C 0.94420(6) 0.44934(7) 0.36871(6)
C13 C 0.97394(6) 0.27447(7) 0.48750(7)
H9 H 1.0150 0.2091 0.5083
C14 C 0.88407(6) 0.29402(7) 0.54521(7)
C15 C 0.78401(6) 0.56597(7) 0.39157(7)
H10 H 0.7627 0.6180 0.4501
C16 C 0.75073(6) 0.58547(7) 0.28293(7)
H11 H 0.7742 0.5360 0.2235
C17 C 0.68077(6) 0.67857(7) 0.25310(7)
H12 H 0.6593 0.7296 0.3123
C18 C 0.64455(6) 0.69639(7) 0.14505(7)
C19 C 0.57438(6) 0.79223(7) 0.11270(7)
O1 O 0.54521(5) 0.81025(6) 0.01476(6)
O2 O 0.54632(5) 0.85557(6) 0.20325(6)
C20 C 0.47088(8) 0.94438(9) 0.17874(9)
H13 H 0.4993 1.0041 0.1282
H14 H 0.4504 0.9810 0.2508
H15 H 0.4118 0.9082 0.1406
C21 C 0.67550(6) 0.62033(7) 0.04679(7)
O3 O 0.74141(6) 0.64441(7) -0.01857(6)
O4 O 0.62126(5) 0.52193(6) 0.04216(6)
C22 C 0.64579(9) 0.44205(10) -0.05024(10)
H16 H 0.6354 0.4816 -0.1244
H17 H 0.6019 0.3730 -0.0469
H18 H 0.7167 0.4177 -0.0418
loop_
_geom_bond_atom_site_label_1
_geom_bond_atom_site_label_2
_geom_bond_site_symmetry_1
_geom_bond_site_symmetry_2
C1 H1 1_555 1_555
C2 C1 1_555 1_555
H2 C2 1_555 1_555
C3 C2 1_555 1_555
H3 C3 1_555 1_555
C4 C3 1_555 1_555
H4 C4 1_555 1_555
C5 C4 1_555 1_555
C6 H5 1_555 1_555
C7 C6 1_555 1_555
H6 C7 1_555 1_555
C8 C7 1_555 1_555
H7 C8 1_555 1_555
C9 C8 1_555 1_555
H8 C9 1_555 1_555
C10 C9 1_555 1_555
C11 C10 1_555 1_555
C12 C1 1_555 1_555
C13 C5 1_555 1_555
H9 C13 1_555 1_555
C14 C6 1_555 1_555
C15 C11 1_555 1_555
H10 C15 1_555 1_555
C16 C15 1_555 1_555
H11 C16 1_555 1_555
C17 C16 1_555 1_555
H12 C17 1_555 1_555
C18 C17 1_555 1_555
C19 C18 1_555 1_555
O1 C19 1_555 1_555
O2 C19 1_555 1_555
C20 O2 1_555 1_555
H13 C20 1_555 1_555
H14 C20 1_555 1_555
H15 C20 1_555 1_555
C21 C18 1_555 1_555
O3 C21 1_555 1_555
O4 C21 1_555 1_555
C22 O4 1_555 1_555
H16 C22 1_555 1_555
H17 C22 1_555 1_555
H18 C22 1_555 1_555
C5 C12 1_555 1_555
C10 C14 1_555 1_555
C11 C12 1_555 1_555
C13 C14 1_555 1_555

#END
