
#######################################################################
#
#                 Cambridge Crystallographic Data Centre
#                                CCDC 
#
#######################################################################
#
# If this CIF has been generated from an entry in the Cambridge 
# Structural Database, then it will include bibliographic, chemical, 
# crystal, experimental, refinement or atomic coordinate data resulting 
# from the CCDC's data processing and validation procedures.
#
#######################################################################

data_QILGIE
_chemical_formula_moiety         'C26 H34 B2 N4,C6 H6'
_chemical_name_systematic        
"1,6-dimethyl-5,10-bis(2,4,6-trimethylphenyl)-1,5,6,10-tetrahydro-4,9,5,10-diimidazo[2,1-c:2',1'-f][1,4,2,5]diazadiborinine benzene solvate"
_symmetry_cell_setting           triclinic
_symmetry_space_group_name_H-M   'P -1'
_symmetry_Int_Tables_number      2
_space_group_name_Hall           '-P 1'
loop_
_symmetry_equiv_pos_site_id
_symmetry_equiv_pos_as_xyz
1 x,y,z
2 -x,-y,-z
_cell_length_a                   8.6291(7)
_cell_length_b                   12.0667(11)
_cell_length_c                   15.4453(15)
_cell_angle_alpha                105.783(4)
_cell_angle_beta                 100.624(4)
_cell_angle_gamma                101.343(3)
_cell_volume                     1468.37
_exptl_crystal_colour            colorless
_exptl_crystal_description       block
_cell_formula_units_Z            2
loop_
_atom_site_label
_atom_site_type_symbol
_atom_site_fract_x
_atom_site_fract_y
_atom_site_fract_z
B1 B 0.5809(3) 0.3301(3) 0.6992(2)
B2 B 0.3313(3) 0.3372(3) 0.5250(2)
C1 C 0.3894(3) 0.3152(2) 0.69130(18)
C2 C 0.3648(4) 0.3014(3) 0.84790(19)
H1 H 0.4206 0.2375 0.8435
H2 H 0.2738 0.2854 0.8763
H3 H 0.4419 0.3779 0.8863
C3 C 0.1431(3) 0.3069(3) 0.7191(2)
H4 H 0.0566 0.3018 0.7492
C4 C 0.1345(3) 0.3157(3) 0.63369(19)
H5 H 0.04 0.318 0.5922
C5 C 0.4951(3) 0.2930(2) 0.52193(17)
C6 C 0.5036(3) 0.2735(3) 0.35765(18)
H6 H 0.3999 0.2131 0.3258
H7 H 0.5841 0.2602 0.3214
H8 H 0.4871 0.3531 0.364
C7 C 0.7047(3) 0.2321(2) 0.47782(19)
H9 H 0.7756 0.2075 0.4406
C8 C 0.7217(3) 0.2423(2) 0.56810(18)
H10 H 0.8078 0.226 0.6066
C9 C 0.6787(3) 0.2674(2) 0.76347(17)
C10 C 0.6331(3) 0.1429(2) 0.74676(18)
C11 C 0.4858(3) 0.0630(3) 0.6697(2)
H11 H 0.5059 0.0635 0.6093
H12 H 0.3895 0.0925 0.6774
H13 H 0.4668 -0.0185 0.6725
C12 C 0.7222(3) 0.0891(3) 0.79955(19)
H14 H 0.6886 0.0051 0.786
C13 C 0.8590(3) 0.1550(3) 0.87169(19)
C14 C 0.9531(4) 0.0963(3) 0.9300(2)
H15 H 0.9112 0.0982 0.985
H16 H 1.069 0.1394 0.9495
H17 H 0.9403 0.0134 0.8933
C15 C 0.9047(3) 0.2772(3) 0.88853(18)
H18 H 0.9985 0.3239 0.9371
C16 C 0.8180(3) 0.3340(3) 0.83680(18)
C17 C 0.8810(3) 0.4679(3) 0.8617(2)
H19 H 0.9832 0.496 0.9106
H20 H 0.7997 0.5067 0.8841
H21 H 0.9007 0.4878 0.8065
C18 C 0.1762(3) 0.2645(2) 0.43571(17)
C19 C 0.1169(3) 0.1387(2) 0.40673(18)
C20 C 0.1926(3) 0.0647(3) 0.4580(2)
H22 H 0.3074 0.0755 0.4563
H23 H 0.1339 -0.0196 0.4282
H24 H 0.1855 0.0901 0.5227
C21 C -0.0148(3) 0.0785(3) 0.32904(19)
H25 H -0.0518 -0.0059 0.3113
C22 C -0.0928(3) 0.1383(3) 0.27717(18)
C23 C -0.2339(3) 0.0727(3) 0.1925(2)
H26 H -0.2636 -0.0123 0.1864
H27 H -0.2017 0.0823 0.1369
H28 H -0.3279 0.1055 0.1995
C24 C -0.0370(3) 0.2619(3) 0.30601(19)
H29 H -0.0897 0.3048 0.272
C25 C 0.0942(3) 0.3253(2) 0.38349(18)
C26 C 0.1431(4) 0.4592(3) 0.4081(2)
H30 H 0.0669 0.4839 0.3665
H31 H 0.2539 0.485 0.4011
H32 H 0.1405 0.4958 0.4725
N1 N 0.5921(2) 0.28081(19) 0.59530(14)
N2 N 0.5630(2) 0.2646(2) 0.44976(15)
N3 N 0.2863(2) 0.3208(2) 0.61655(15)
N4 N 0.3023(3) 0.3066(2) 0.75487(15)
H33 H 0.638(3) 0.431(2) 0.7227(17)
H34 H 0.364(3) 0.438(2) 0.5358(19)
C27 C 0.5016(4) 0.3581(3) 0.1600(2)
H35 H 0.4864 0.4195 0.2088
C28 C 0.6408(5) 0.3764(3) 0.1286(3)
H36 H 0.7229 0.4496 0.1565
C29 C 0.6608(4) 0.2879(3) 0.0565(2)
H37 H 0.7556 0.3011 0.0338
C30 C 0.5443(4) 0.1810(3) 0.0177(2)
H38 H 0.5591 0.1202 -0.0316
C31 C 0.4064(4) 0.1613(3) 0.0496(2)
H39 H 0.3268 0.0868 0.023
C32 C 0.3837(4) 0.2503(3) 0.1205(2)
H40 H 0.2875 0.2374 0.1421
loop_
_geom_bond_atom_site_label_1
_geom_bond_atom_site_label_2
_geom_bond_site_symmetry_1
_geom_bond_site_symmetry_2
B1 C1 1_555 1_555
B2 C5 1_555 1_555
C1 N3 1_555 1_555
C2 H1 1_555 1_555
H2 C2 1_555 1_555
H3 C2 1_555 1_555
C3 H4 1_555 1_555
C4 C3 1_555 1_555
H5 C4 1_555 1_555
C5 N1 1_555 1_555
C6 H6 1_555 1_555
H7 C6 1_555 1_555
H8 C6 1_555 1_555
C7 H9 1_555 1_555
C8 C7 1_555 1_555
H10 C8 1_555 1_555
C9 B1 1_555 1_555
C10 C9 1_555 1_555
C11 C10 1_555 1_555
H11 C11 1_555 1_555
H12 C11 1_555 1_555
H13 C11 1_555 1_555
C12 C10 1_555 1_555
H14 C12 1_555 1_555
C13 C12 1_555 1_555
C14 C13 1_555 1_555
H15 C14 1_555 1_555
H16 C14 1_555 1_555
H17 C14 1_555 1_555
C15 C13 1_555 1_555
H18 C15 1_555 1_555
C16 C9 1_555 1_555
C17 C16 1_555 1_555
H19 C17 1_555 1_555
H20 C17 1_555 1_555
H21 C17 1_555 1_555
C18 B2 1_555 1_555
C19 C18 1_555 1_555
C20 C19 1_555 1_555
H22 C20 1_555 1_555
H23 C20 1_555 1_555
H24 C20 1_555 1_555
C21 C19 1_555 1_555
H25 C21 1_555 1_555
C22 C21 1_555 1_555
C23 C22 1_555 1_555
H26 C23 1_555 1_555
H27 C23 1_555 1_555
H28 C23 1_555 1_555
C24 C22 1_555 1_555
H29 C24 1_555 1_555
C25 C18 1_555 1_555
C26 C25 1_555 1_555
H30 C26 1_555 1_555
H31 C26 1_555 1_555
H32 C26 1_555 1_555
N1 B1 1_555 1_555
N2 C5 1_555 1_555
N3 B2 1_555 1_555
N4 C1 1_555 1_555
H33 B1 1_555 1_555
H34 B2 1_555 1_555
C27 H35 1_555 1_555
C28 C27 1_555 1_555
H36 C28 1_555 1_555
C29 C28 1_555 1_555
H37 C29 1_555 1_555
C30 C29 1_555 1_555
H38 C30 1_555 1_555
C31 C30 1_555 1_555
H39 C31 1_555 1_555
C32 C27 1_555 1_555
H40 C32 1_555 1_555
C2 N4 1_555 1_555
C3 N4 1_555 1_555
C4 N3 1_555 1_555
C6 N2 1_555 1_555
C7 N2 1_555 1_555
C8 N1 1_555 1_555
C15 C16 1_555 1_555
C24 C25 1_555 1_555
C31 C32 1_555 1_555

#END
