
#######################################################################
#
#                 Cambridge Crystallographic Data Centre
#                                CCDC 
#
#######################################################################
#
# If this CIF has been generated from an entry in the Cambridge 
# Structural Database, then it will include bibliographic, chemical, 
# crystal, experimental, refinement or atomic coordinate data resulting 
# from the CCDC's data processing and validation procedures.
#
#######################################################################

data_QILGOK
_chemical_formula_moiety         'C26 H34 B2 N4'
_chemical_name_systematic        
1,6-dimethyl-5,10-bis(2,4,6-trimethylphenyl)-1,5,6,10-tetrahydro-4,9,5,10-diimidazo[2,1-c:2',1'-f][1,4,2,5]diazadiborinine
_symmetry_cell_setting           triclinic
_symmetry_space_group_name_H-M   'P -1'
_symmetry_Int_Tables_number      2
_space_group_name_Hall           '-P 1'
loop_
_symmetry_equiv_pos_site_id
_symmetry_equiv_pos_as_xyz
1 x,y,z
2 -x,-y,-z
_cell_length_a                   7.3396(3)
_cell_length_b                   7.6382(4)
_cell_length_c                   12.1930(6)
_cell_angle_alpha                76.3162(18)
_cell_angle_beta                 73.8017(18)
_cell_angle_gamma                66.6077(16)
_cell_volume                     596.298
_exptl_crystal_colour            colorless
_exptl_crystal_description       block
_cell_formula_units_Z            1
loop_
_atom_site_label
_atom_site_type_symbol
_atom_site_fract_x
_atom_site_fract_y
_atom_site_fract_z
B1 B 0.4299(3) 0.6199(3) 0.10788(17)
H1 H 0.533(4) 0.687(3) 0.118(2)
C1 C 0.6148(5) 0.2983(4) 0.0220(2)
C2 C 0.7130(3) 0.0989(3) 0.17837(18)
H2 H 0.7709 -0.0148 0.228
C3 C 0.6153(3) 0.2787(3) 0.20641(18)
H3 H 0.5926 0.3148 0.2798
C4 C 0.7911(3) -0.0499(3) 0.00058(18)
H4 H 0.6798 -0.0898 0.0001
H5 H 0.8923 -0.1573 0.0379
H6 H 0.8545 -0.0126 -0.0789
N1 N 0.5539(4) 0.4016(3) 0.10931(18)
N2 N 0.7123(3) 0.1125(2) 0.06356(18)
C5 C 0.2282(3) 0.6536(3) 0.21159(14)
C6 C 0.0870(3) 0.5644(2) 0.22248(14)
C7 C 0.1112(3) 0.4370(3) 0.13800(16)
H7 H 0.2159 0.311 0.1535
H8 H 0.1513 0.4969 0.0592
H9 H -0.0179 0.4203 0.1464
C8 C -0.0793(3) 0.5857(2) 0.31554(15)
H10 H -0.1713 0.5234 0.3208
C9 C -0.1138(3) 0.6953(3) 0.40052(15)
C10 C -0.2915(3) 0.7145(3) 0.50123(17)
H11 H -0.2422 0.6699 0.5735
H12 H -0.3665 0.6362 0.4964
H13 H -0.3813 0.8499 0.4994
C11 C 0.0233(3) 0.7848(3) 0.38935(16)
H14 H 0.0021 0.8617 0.4458
C12 C 0.1919(3) 0.7658(3) 0.29790(16)
C13 C 0.3309(3) 0.8685(3) 0.29702(19)
H15 H 0.2789 0.9375 0.364
H16 H 0.3367 0.9606 0.2261
H17 H 0.4674 0.7741 0.3004
B1A B 0.5701(3) 0.3801(3) -0.10788(17)
H1A H 0.467(4) 0.313(3) -0.118(2)
C1A C 0.3852(5) 0.7017(4) -0.0220(2)
C2A C 0.2870(3) 0.9011(3) -0.17837(18)
H2A H 0.2291 1.0148 -0.228
C3A C 0.3847(3) 0.7213(3) -0.20641(18)
H3A H 0.4074 0.6852 -0.2798
C4A C 0.2089(3) 1.0499(3) -0.00058(18)
H4A H 0.3202 1.0898 -0.0001
H5A H 0.1077 1.1573 -0.0379
H6A H 0.1455 1.0126 0.0789
N1A N 0.4461(4) 0.5984(3) -0.10931(18)
N2A N 0.2877(3) 0.8875(2) -0.06356(18)
C5A C 0.7718(3) 0.3464(3) -0.21159(14)
C6A C 0.9130(3) 0.4356(2) -0.22248(14)
C7A C 0.8888(3) 0.5630(3) -0.13800(16)
H7A H 0.7841 0.689 -0.1535
H8A H 0.8487 0.5031 -0.0592
H9A H 1.0179 0.5797 -0.1464
C8A C 1.0793(3) 0.4143(2) -0.31554(15)
H10A H 1.1713 0.4766 -0.3208
C9A C 1.1138(3) 0.3047(3) -0.40052(15)
C10A C 1.2915(3) 0.2855(3) -0.50123(17)
H11A H 1.2422 0.3301 -0.5735
H12A H 1.3665 0.3638 -0.4964
H13A H 1.3813 0.1501 -0.4994
C11A C 0.9767(3) 0.2152(3) -0.38935(16)
H14A H 0.9979 0.1383 -0.4458
C12A C 0.8081(3) 0.2342(3) -0.29790(16)
C13A C 0.6691(3) 0.1315(3) -0.29702(19)
H15A H 0.7211 0.0625 -0.364
H16A H 0.6633 0.0394 -0.2261
H17A H 0.5326 0.2259 -0.3004
C14? C 0.573(5) 0.366(3) 0.0908(18)
C15? C 0.737(3) 0.045(2) 0.1208(15)
H18? H 0.8055 -0.082 0.1552
C16? C 0.704(3) 0.099(2) 0.0127(15)
H19? H 0.7422 0.0138 -0.0417
C17? C 0.659(3) 0.220(2) 0.2872(12)
H20? H 0.5923 0.1375 0.3429
H21? H 0.5898 0.3536 0.3033
H22? H 0.8012 0.1763 0.2939
N3? N 0.607(4) 0.300(3) -0.0089(15)
N4? N 0.651(2) 0.211(2) 0.1717(11)
loop_
_geom_bond_atom_site_label_1
_geom_bond_atom_site_label_2
_geom_bond_site_symmetry_1
_geom_bond_site_symmetry_2
B1 H1 1_555 1_555
C1 N1 1_555 1_555
C2 H2 1_555 1_555
C3 C2 1_555 1_555
H3 C3 1_555 1_555
C4 H4 1_555 1_555
H5 C4 1_555 1_555
H6 C4 1_555 1_555
N1 B1 1_555 1_555
N2 C1 1_555 1_555
C5 B1 1_555 1_555
C6 C5 1_555 1_555
C7 C6 1_555 1_555
H7 C7 1_555 1_555
H8 C7 1_555 1_555
H9 C7 1_555 1_555
C8 C6 1_555 1_555
H10 C8 1_555 1_555
C9 C8 1_555 1_555
C10 C9 1_555 1_555
H11 C10 1_555 1_555
H12 C10 1_555 1_555
H13 C10 1_555 1_555
C11 C9 1_555 1_555
H14 C11 1_555 1_555
C12 C5 1_555 1_555
C13 C12 1_555 1_555
H15 C13 1_555 1_555
H16 C13 1_555 1_555
H17 C13 1_555 1_555
B1A C1 1_555 1_555
H1A B1A 1_555 1_555
C1A B1 1_555 1_555
C2A H2A 1_555 1_555
C3A C2A 1_555 1_555
H3A C3A 1_555 1_555
C4A H4A 1_555 1_555
H5A C4A 1_555 1_555
H6A C4A 1_555 1_555
N1A B1A 1_555 1_555
N2A C1A 1_555 1_555
C5A B1A 1_555 1_555
C6A C5A 1_555 1_555
C7A C6A 1_555 1_555
H7A C7A 1_555 1_555
H8A C7A 1_555 1_555
H9A C7A 1_555 1_555
C8A C6A 1_555 1_555
H10A C8A 1_555 1_555
C9A C8A 1_555 1_555
C10A C9A 1_555 1_555
H11A C10A 1_555 1_555
H12A C10A 1_555 1_555
H13A C10A 1_555 1_555
C11A C9A 1_555 1_555
H14A C11A 1_555 1_555
C12A C5A 1_555 1_555
C13A C12A 1_555 1_555
H15A C13A 1_555 1_555
H16A C13A 1_555 1_555
H17A C13A 1_555 1_555
C2 N2 1_555 1_555
C3 N1 1_555 1_555
C4 N2 1_555 1_555
C11 C12 1_555 1_555
C1A N1A 1_555 1_555
C2A N2A 1_555 1_555
C3A N1A 1_555 1_555
C4A N2A 1_555 1_555
C11A C12A 1_555 1_555

#END
