
#######################################################################
#
#                 Cambridge Crystallographic Data Centre
#                                CCDC 
#
#######################################################################
#
# If this CIF has been generated from an entry in the Cambridge 
# Structural Database, then it will include bibliographic, chemical, 
# crystal, experimental, refinement or atomic coordinate data resulting 
# from the CCDC's data processing and validation procedures.
#
#######################################################################

data_QILJIG
_chemical_formula_moiety         'C4 H6 Cl1 N1 O3'
_chemical_name_systematic        N-(Chloroacetyl)glycine
_symmetry_cell_setting           monoclinic
_symmetry_space_group_name_H-M   'P 21/c'
_symmetry_Int_Tables_number      14
_space_group_name_Hall           '-P 2ybc'
loop_
_symmetry_equiv_pos_site_id
_symmetry_equiv_pos_as_xyz
1 x,y,z
2 -x,1/2+y,1/2-z
3 -x,-y,-z
4 x,1/2-y,1/2+z
_cell_length_a                   18.001(4)
_cell_length_b                   7.6371(17)
_cell_length_c                   9.372(2)
_cell_angle_alpha                90
_cell_angle_beta                 105.025(3)
_cell_angle_gamma                90
_cell_volume                     1244.37
_exptl_crystal_colour            colorless
_exptl_crystal_description       block
_cell_formula_units_Z            8
loop_
_atom_site_label
_atom_site_type_symbol
_atom_site_fract_x
_atom_site_fract_y
_atom_site_fract_z
C1 C 0.34036(11) 0.8173(2) 0.8783(2)
C2 C 0.31910(11) 0.6313(2) 0.8351(2)
H1 H 0.2649 0.6123 0.8272
H2 H 0.3288 0.6058 0.7401
C3 C 0.36784(10) 0.3480(2) 0.9359(2)
C4 C 0.42198(13) 0.2461(3) 1.0570(2)
H3 H 0.4549 0.1752 1.0129
H4 H 0.3918 0.1669 1.1003
Cl1 Cl 0.48117(3) 0.37273(7) 1.20038(5)
N1 N 0.36524(9) 0.5190(2) 0.94747(17)
H5 H 0.3955 0.5654 1.0245
O1 O 0.30581(9) 0.92850(18) 0.77700(15)
H6 H 0.3193 1.0283 0.8040
O2 O 0.38362(11) 0.85625(19) 0.99322(17)
O3 O 0.32736(8) 0.26765(17) 0.82999(15)
C5 C 0.16319(11) 0.1528(2) 0.0418(2)
C6 C 0.18026(11) 0.3394(2) 0.0134(2)
H7 H 0.2345 0.3637 0.0547
H8 H 0.1678 0.3614 -0.0921
C7 C 0.13138(10) 0.6218(2) 0.06725(18)
C8 C 0.07865(12) 0.7218(3) 0.1386(2)
H9 H 0.0449 0.7935 0.0636
H10 H 0.1097 0.8005 0.2114
Cl2 Cl 0.02089(3) 0.59470(7) 0.22620(6)
N2 N 0.13446(9) 0.4500(2) 0.08162(17)
H11 H 0.1055 0.4000 0.1293
O4 O 0.12139(12) 0.1121(2) 0.1163(2)
O5 O 0.19929(9) 0.04173(18) -0.02249(17)
H12 H 0.1878 -0.0585 -0.0052
O6 O 0.16923(8) 0.70336(17) -0.00271(15)
loop_
_geom_bond_atom_site_label_1
_geom_bond_atom_site_label_2
_geom_bond_site_symmetry_1
_geom_bond_site_symmetry_2
C1 C2 1_555 1_555
C2 H1 1_555 1_555
H2 C2 1_555 1_555
C3 C4 1_555 1_555
C4 H3 1_555 1_555
H4 C4 1_555 1_555
Cl1 C4 1_555 1_555
N1 C2 1_555 1_555
H5 N1 1_555 1_555
O1 C1 1_555 1_555
H6 O1 1_555 1_555
O2 C1 1_555 1_555
O3 C3 1_555 1_555
C5 C6 1_555 1_555
C6 H7 1_555 1_555
H8 C6 1_555 1_555
C7 C8 1_555 1_555
C8 H9 1_555 1_555
H10 C8 1_555 1_555
Cl2 C8 1_555 1_555
N2 C6 1_555 1_555
H11 N2 1_555 1_555
O4 C5 1_555 1_555
O5 C5 1_555 1_555
H12 O5 1_555 1_555
O6 C7 1_555 1_555
C3 N1 1_555 1_555
C7 N2 1_555 1_555

#END
