
#######################################################################
#
#                 Cambridge Crystallographic Data Centre
#                                CCDC 
#
#######################################################################
#
# If this CIF has been generated from an entry in the Cambridge 
# Structural Database, then it will include bibliographic, chemical, 
# crystal, experimental, refinement or atomic coordinate data resulting 
# from the CCDC's data processing and validation procedures.
#
#######################################################################

data_QILLOO
_chemical_formula_moiety         'C11 H11 N3 O1'
_chemical_name_systematic        1-(1-Benzyl-1H-1,2,3-triazol-4-yl)ethanone
_symmetry_cell_setting           monoclinic
_symmetry_space_group_name_H-M   'P 21/n'
_symmetry_Int_Tables_number      14
_space_group_name_Hall           '-P 2yn'
loop_
_symmetry_equiv_pos_site_id
_symmetry_equiv_pos_as_xyz
1 x,y,z
2 1/2-x,1/2+y,1/2-z
3 -x,-y,-z
4 1/2+x,1/2-y,1/2+z
_cell_length_a                   5.6022(4)
_cell_length_b                   7.9278(6)
_cell_length_c                   23.558(2)
_cell_angle_alpha                90
_cell_angle_beta                 91.225(3)
_cell_angle_gamma                90
_cell_volume                     1046.05
_exptl_crystal_colour            colorless
_exptl_crystal_description       prism
_cell_formula_units_Z            4
loop_
_atom_site_label
_atom_site_type_symbol
_atom_site_fract_x
_atom_site_fract_y
_atom_site_fract_z
O1 O 0.6613(14) -0.2961(9) 0.4692(3)
N1 N 0.9899(14) 0.0681(13) 0.4254(3)
N2 N 0.9070(14) 0.2204(12) 0.4129(4)
N3 N 0.6660(13) 0.2091(11) 0.4143(3)
C1 C 0.832(2) -0.2217(15) 0.4526(5)
C2 C 1.0731(19) -0.2988(14) 0.4443(5)
H1 H 1.0696 -0.4178 0.4555
H2 H 1.1924 -0.2387 0.4676
H3 H 1.1151 -0.2904 0.4042
C3 C 0.7986(17) -0.0365(14) 0.4363(4)
C4 C 0.5974(18) 0.0546(13) 0.4294(4)
H4 H 0.4383 0.0165 0.4342
C5 C 0.5204(18) 0.3588(14) 0.3983(5)
H5 H 0.3566 0.3451 0.4126
H6 H 0.5910 0.4610 0.4161
C6 C 0.5103(18) 0.3797(14) 0.3358(5)
C7 C 0.325(2) 0.3104(16) 0.3032(5)
H7 H 0.2007 0.2506 0.3213
C8 C 0.319(2) 0.3269(17) 0.2459(5)
H8 H 0.1922 0.2764 0.2245
C9 C 0.488(3) 0.4134(16) 0.2189(5)
H9 H 0.4808 0.4216 0.1787
C10 C 0.673(3) 0.4908(17) 0.2486(6)
H10 H 0.7900 0.5551 0.2295
C11 C 0.683(2) 0.4712(15) 0.3080(6)
H11 H 0.8102 0.5215 0.3293
loop_
_geom_bond_atom_site_label_1
_geom_bond_atom_site_label_2
_geom_bond_site_symmetry_1
_geom_bond_site_symmetry_2
O1 C1 1_555 1_555
N1 N2 1_555 1_555
N2 N3 1_555 1_555
N3 C4 1_555 1_555
C1 C2 1_555 1_555
C2 H1 1_555 1_555
H2 C2 1_555 1_555
H3 C2 1_555 1_555
C3 N1 1_555 1_555
C4 C3 1_555 1_555
H4 C4 1_555 1_555
C5 N3 1_555 1_555
H5 C5 1_555 1_555
H6 C5 1_555 1_555
C6 C5 1_555 1_555
C7 C6 1_555 1_555
H7 C7 1_555 1_555
C8 C7 1_555 1_555
H8 C8 1_555 1_555
C9 C8 1_555 1_555
H9 C9 1_555 1_555
C10 C9 1_555 1_555
H10 C10 1_555 1_555
C11 C6 1_555 1_555
H11 C11 1_555 1_555
C1 C3 1_555 1_555
C10 C11 1_555 1_555

#END
