
#######################################################################
#
#                 Cambridge Crystallographic Data Centre
#                                CCDC 
#
#######################################################################
#
# If this CIF has been generated from an entry in the Cambridge 
# Structural Database, then it will include bibliographic, chemical, 
# crystal, experimental, refinement or atomic coordinate data resulting 
# from the CCDC's data processing and validation procedures.
#
#######################################################################

data_QILLII
_chemical_formula_moiety         'C16 H14 N4 O1'
_chemical_name_systematic        
1-Benzyl-N-phenyl-1H-1,2,3-triazole-4-carboxamide
_symmetry_cell_setting           triclinic
_symmetry_space_group_name_H-M   'P -1'
_symmetry_Int_Tables_number      2
_space_group_name_Hall           '-P 1'
loop_
_symmetry_equiv_pos_site_id
_symmetry_equiv_pos_as_xyz
1 x,y,z
2 -x,-y,-z
_cell_length_a                   5.4800(8)
_cell_length_b                   9.7921(11)
_cell_length_c                   25.786(3)
_cell_angle_alpha                98.614(11)
_cell_angle_beta                 95.933(12)
_cell_angle_gamma                90.223(10)
_cell_volume                     1360.49
_exptl_crystal_colour            colorless
_exptl_crystal_description       prism
_cell_formula_units_Z            4
loop_
_atom_site_label
_atom_site_type_symbol
_atom_site_fract_x
_atom_site_fract_y
_atom_site_fract_z
C1 C 0.006(3) 0.1121(15) 1.0782(6)
C2 C 0.199(3) 0.1121(16) 1.1157(6)
H1 H 0.3333 0.1753 1.1181
C3 C 0.196(4) 0.0141(19) 1.1515(7)
H2 H 0.3330 0.0082 1.1767
C4 C -0.018(3) -0.0769(17) 1.1497(7)
H3 H -0.0208 -0.1440 1.1728
C5 C -0.213(3) -0.0620(17) 1.1137(7)
H4 H -0.3595 -0.1139 1.1138
C6 C -0.202(3) 0.0251(16) 1.0779(6)
H5 H -0.3368 0.0280 1.0518
C7 C 0.197(2) 0.2554(15) 1.0215(5)
C8 C 0.134(3) 0.3409(15) 0.9784(5)
C9 C 0.310(3) 0.3900(15) 0.9514(6)
H6 H 0.4835 0.3834 0.9563
C10 C 0.232(3) 0.5186(17) 0.8710(6)
H7 H 0.3980 0.5600 0.8813
H8 H 0.1183 0.5942 0.8645
C11 C 0.235(3) 0.4183(15) 0.8208(6)
C12 C 0.040(3) 0.4160(17) 0.7824(6)
H9 H -0.0950 0.4750 0.7884
C13 C 0.040(3) 0.3281(16) 0.7354(6)
H10 H -0.0898 0.3320 0.7082
C14 C 0.231(3) 0.2314(18) 0.7266(6)
H11 H 0.2207 0.1609 0.6968
C15 C 0.429(4) 0.247(2) 0.7640(8)
H12 H 0.5723 0.1947 0.7579
C16 C 0.425(3) 0.3385(16) 0.8111(6)
H13 H 0.5628 0.3438 0.8370
N1 N 0.007(2) 0.2055(13) 1.0420(5)
H14 H -0.1374 0.2355 1.0312
N2 N -0.095(3) 0.3447(16) 0.9578(6)
N3 N -0.090(3) 0.4233(15) 0.9180(6)
N4 N 0.156(2) 0.4543(12) 0.9137(5)
O1 O 0.407(2) 0.2343(12) 1.0364(4)
C17 C 0.496(3) 0.1096(16) 0.5773(6)
C18 C 0.696(3) 0.1012(18) 0.6157(6)
H15 H 0.8394 0.1561 0.6158
C19 C 0.688(3) 0.0175(18) 0.6521(6)
H16 H 0.8233 0.0154 0.6781
C20 C 0.488(3) -0.0639(16) 0.6521(6)
H17 H 0.4837 -0.1216 0.6785
C21 C 0.289(3) -0.0645(15) 0.6139(7)
H18 H 0.1510 -0.1242 0.6130
C22 C 0.299(3) 0.0279(16) 0.5761(7)
H19 H 0.1645 0.0312 0.5499
C23 C 0.692(3) 0.2594(16) 0.5215(7)
C24 C 0.636(3) 0.3310(14) 0.4760(6)
C25 C 0.788(3) 0.4031(17) 0.4501(6)
H20 H 0.9608 0.4155 0.4577
C26 C 0.740(3) 0.5240(16) 0.3728(6)
H21 H 0.9094 0.5607 0.3835
H22 H 0.6316 0.6025 0.3676
C27 C 0.733(3) 0.4205(15) 0.3207(6)
C28 C 0.533(3) 0.4078(16) 0.2819(6)
H23 H 0.3966 0.4665 0.2868
C29 C 0.528(3) 0.3139(16) 0.2377(6)
H24 H 0.3861 0.3020 0.2128
C30 C 0.728(3) 0.2379(16) 0.2293(7)
H25 H 0.7325 0.1818 0.1961
C31 C 0.929(3) 0.2376(17) 0.2676(6)
H26 H 1.0597 0.1756 0.2618
C32 C 0.934(3) 0.3283(17) 0.3134(6)
H27 H 1.0675 0.3304 0.3401
N5 N 0.480(2) 0.1995(13) 0.5367(5)
H28 H 0.3350 0.2168 0.5213
N6 N 0.3944(19) 0.3621(10) 0.4549(4)
N7 N 0.416(2) 0.4286(13) 0.4162(4)
N8 N 0.655(2) 0.4490(13) 0.4148(5)
O2 O 0.913(2) 0.2528(12) 0.5415(4)
loop_
_geom_bond_atom_site_label_1
_geom_bond_atom_site_label_2
_geom_bond_site_symmetry_1
_geom_bond_site_symmetry_2
C1 C2 1_555 1_555
C2 H1 1_555 1_555
C3 C2 1_555 1_555
H2 C3 1_555 1_555
C4 C3 1_555 1_555
H3 C4 1_555 1_555
C5 C4 1_555 1_555
H4 C5 1_555 1_555
C6 C1 1_555 1_555
H5 C6 1_555 1_555
C7 C8 1_555 1_555
C8 C9 1_555 1_555
C9 H6 1_555 1_555
C10 H7 1_555 1_555
H8 C10 1_555 1_555
C11 C10 1_555 1_555
C12 C11 1_555 1_555
H9 C12 1_555 1_555
C13 C12 1_555 1_555
H10 C13 1_555 1_555
C14 C13 1_555 1_555
H11 C14 1_555 1_555
C15 C14 1_555 1_555
H12 C15 1_555 1_555
C16 C11 1_555 1_555
H13 C16 1_555 1_555
N1 C1 1_555 1_555
H14 N1 1_555 1_555
N2 C8 1_555 1_555
N3 N2 1_555 1_555
N4 C9 1_555 1_555
O1 C7 1_555 1_555
C17 C18 1_555 1_555
C18 H15 1_555 1_555
C19 C18 1_555 1_555
H16 C19 1_555 1_555
C20 C19 1_555 1_555
H17 C20 1_555 1_555
C21 C20 1_555 1_555
H18 C21 1_555 1_555
C22 C17 1_555 1_555
H19 C22 1_555 1_555
C23 C24 1_555 1_555
C24 C25 1_555 1_555
C25 H20 1_555 1_555
C26 H21 1_555 1_555
H22 C26 1_555 1_555
C27 C26 1_555 1_555
C28 C27 1_555 1_555
H23 C28 1_555 1_555
C29 C28 1_555 1_555
H24 C29 1_555 1_555
C30 C29 1_555 1_555
H25 C30 1_555 1_555
C31 C30 1_555 1_555
H26 C31 1_555 1_555
C32 C27 1_555 1_555
H27 C32 1_555 1_555
N5 C17 1_555 1_555
H28 N5 1_555 1_555
N6 C24 1_555 1_555
N7 N6 1_555 1_555
N8 C25 1_555 1_555
O2 C23 1_555 1_555
C5 C6 1_555 1_555
C7 N1 1_555 1_555
C10 N4 1_555 1_555
C15 C16 1_555 1_555
N3 N4 1_555 1_555
C21 C22 1_555 1_555
C23 N5 1_555 1_555
C26 N8 1_555 1_555
C31 C32 1_555 1_555
N7 N8 1_555 1_555

#END
