
#######################################################################
#
#                 Cambridge Crystallographic Data Centre
#                                CCDC 
#
#######################################################################
#
# If this CIF has been generated from an entry in the Cambridge 
# Structural Database, then it will include bibliographic, chemical, 
# crystal, experimental, refinement or atomic coordinate data resulting 
# from the CCDC's data processing and validation procedures.
#
#######################################################################

data_QILLUU
_chemical_formula_moiety         'C32 H34 S4'
_chemical_name_systematic        
10,12-bis(Hexylsulfanyl)-5,11-dithiabenzo[a]benzo[4,5]pentaleno[2,1,6-cde]azulene
_symmetry_cell_setting           triclinic
_symmetry_space_group_name_H-M   'P -1'
_symmetry_Int_Tables_number      2
_space_group_name_Hall           '-P 1'
loop_
_symmetry_equiv_pos_site_id
_symmetry_equiv_pos_as_xyz
1 x,y,z
2 -x,-y,-z
_cell_length_a                   9.8388(14)
_cell_length_b                   14.266(2)
_cell_length_c                   21.044(4)
_cell_angle_alpha                83.576(8)
_cell_angle_beta                 76.485(7)
_cell_angle_gamma                78.156(8)
_cell_volume                     2804.46
_exptl_crystal_colour            red
_exptl_crystal_description       plate
_cell_formula_units_Z            4
loop_
_atom_site_label
_atom_site_type_symbol
_atom_site_fract_x
_atom_site_fract_y
_atom_site_fract_z
S1 S 0.30406(11) 0.99691(7) 0.06054(5)
S2 S -0.14075(11) 0.78799(8) 0.07175(6)
S3 S -0.36985(11) 0.93704(8) 0.11732(6)
S4 S 0.03695(12) 0.62178(8) 0.01526(6)
C1 C 0.0072(4) 1.1032(3) 0.10474(19)
C2 C 0.0120(5) 1.1951(3) 0.1183(2)
H1 H 0.1006 1.2149 0.1134
C3 C -0.1149(5) 1.2577(3) 0.1393(2)
H2 H -0.1132 1.3208 0.1490
C4 C -0.2442(5) 1.2289(3) 0.1462(2)
H3 H -0.3302 1.2725 0.1608
C5 C -0.2497(4) 1.1371(3) 0.1319(2)
H4 H -0.3390 1.1187 0.1360
C6 C -0.1257(4) 1.0731(3) 0.11190(19)
C7 C -0.0951(4) 0.9714(3) 0.09361(19)
C8 C 0.0590(4) 0.9472(3) 0.07540(19)
C9 C 0.1191(4) 1.0225(3) 0.0821(2)
C10 C 0.1610(4) 0.8674(3) 0.05161(19)
C11 C 0.2972(4) 0.8827(3) 0.04142(19)
C12 C 0.3960(4) 0.7993(3) 0.01377(19)
C13 C 0.3130(4) 0.7322(3) 0.00653(19)
C14 C 0.3808(4) 0.6468(3) -0.0220(2)
H5 H 0.3271 0.6016 -0.0282
C15 C 0.5285(5) 0.6287(3) -0.0415(2)
H6 H 0.5752 0.5707 -0.0614
C16 C 0.6084(5) 0.6928(3) -0.0325(2)
H7 H 0.7092 0.6778 -0.0451
C17 C 0.5431(4) 0.7794(3) -0.0052(2)
H8 H 0.5981 0.8242 0.0004
C18 C -0.1819(4) 0.9100(3) 0.0933(2)
C19 C 0.0408(4) 0.7368(3) 0.0382(2)
C20 C 0.1597(4) 0.7729(3) 0.03178(19)
C21 C -0.3981(5) 0.9397(3) 0.2059(2)
H9 H -0.3356 0.9803 0.2152
H10 H -0.4977 0.9713 0.2227
C22 C -0.3716(6) 0.8447(4) 0.2433(3)
H11 H -0.2687 0.8171 0.2320
H12 H -0.4235 0.8005 0.2298
C23 C -0.4180(6) 0.8521(4) 0.3169(3)
H13 H -0.3621 0.8945 0.3296
H14 H -0.5189 0.8846 0.3268
C24 C -0.4051(9) 0.7626(4) 0.3594(3)
H15 H -0.3030 0.7331 0.3529
H16 H -0.4534 0.7177 0.3442
C25 C -0.4633(10) 0.7710(6) 0.4309(3)
H17 H -0.4093 0.8127 0.4456
H18 H -0.5624 0.8065 0.4360
C26 C -0.4666(11) 0.6892(7) 0.4765(4)
H19 H -0.5135 0.6436 0.4621
H20 H -0.5193 0.7094 0.5198
H21 H -0.3691 0.6583 0.4789
C27 C 0.1173(5) 0.5424(3) 0.0758(2)
H22 H 0.1495 0.4775 0.0591
H23 H 0.2027 0.5655 0.0802
C28 C 0.0239(5) 0.5340(4) 0.1420(3)
H24 H -0.0631 0.5124 0.1381
H25 H -0.0053 0.5979 0.1601
C29 C 0.0978(6) 0.4632(4) 0.1892(3)
H26 H 0.1367 0.4017 0.1683
H27 H 0.1791 0.4888 0.1961
C30 C 0.0045(8) 0.4437(5) 0.2546(3)
H28 H -0.0661 0.4075 0.2477
H29 H 0.0645 0.4009 0.2818
C31 C -0.0706(11) 0.5230(6) 0.2912(4)
H30 H -0.1365 0.5639 0.2659
H31 H -0.0017 0.5617 0.2965
C32 C -0.1575(10) 0.4954(6) 0.3602(4)
H32 H -0.2340 0.4641 0.3554
H33 H -0.1986 0.5535 0.3839
H34 H -0.0945 0.4513 0.3846
S5 S 0.34508(12) 1.05054(8) 0.46624(5)
S6 S -0.03876(12) 0.85308(8) 0.39271(5)
S7 S -0.07386(14) 0.72728(9) 0.50808(6)
S8 S -0.01437(12) 0.93796(8) 0.26244(5)
C33 C 0.2239(4) 0.9088(3) 0.5670(2)
C34 C 0.2732(5) 0.9106(3) 0.6235(2)
H35 H 0.3383 0.9508 0.6247
C35 C 0.2253(5) 0.8527(3) 0.6779(2)
H36 H 0.2568 0.8537 0.7172
C36 C 0.1322(5) 0.7933(3) 0.6758(2)
H37 H 0.1006 0.7541 0.7137
C37 C 0.0834(5) 0.7896(3) 0.6191(2)
H38 H 0.0193 0.7484 0.6184
C38 C 0.1292(5) 0.8465(3) 0.5642(2)
C39 C 0.0927(4) 0.8638(3) 0.4979(2)
C40 C 0.1675(4) 0.9393(3) 0.4650(2)
C41 C 0.2455(4) 0.9645(3) 0.5045(2)
C42 C 0.1875(4) 0.9884(3) 0.4032(2)
C43 C 0.1422(4) 0.9876(3) 0.3422(2)
C44 C 0.2186(4) 1.0573(3) 0.2962(2)
C45 C 0.3004(4) 1.0962(3) 0.3306(2)
C46 C 0.2793(4) 1.0507(3) 0.3962(2)
C47 C 0.2217(5) 1.0868(3) 0.2308(2)
H39 H 0.1682 1.0613 0.2070
C48 C 0.3049(5) 1.1544(3) 0.2006(2)
H40 H 0.3088 1.1745 0.1557
C49 C 0.3815(5) 1.1926(3) 0.2351(2)
H41 H 0.4354 1.2397 0.2137
C50 C 0.3815(5) 1.1637(3) 0.3000(2)
H42 H 0.4359 1.1896 0.3231
C51 C 0.0132(5) 0.8217(3) 0.4696(2)
C52 C 0.0517(4) 0.9328(3) 0.33449(19)
C53 C 0.0165(11) 0.6332(5) 0.4562(4)
H43 H -0.0203 0.5745 0.4760
H44 H -0.0141 0.6494 0.4141
C54 C 0.1638(9) 0.6081(5) 0.4412(4)
H45 H 0.1975 0.5976 0.4826
H46 H 0.2025 0.6631 0.4158
C55 C 0.2218(11) 0.5248(7) 0.4048(5)
H47 H 0.2040 0.4690 0.4359
H48 H 0.1622 0.5273 0.3725
C56 C 0.3644(10) 0.5013(7) 0.3701(6)
H49 H 0.4269 0.4936 0.4018
H50 H 0.3863 0.5561 0.3388
C57 C 0.4010(12) 0.4143(7) 0.3337(6)
H51 H 0.3799 0.3589 0.3646
H52 H 0.3402 0.4216 0.3014
C58 C 0.5481(10) 0.3943(6) 0.2999(5)
H53 H 0.5643 0.3386 0.2739
H54 H 0.6088 0.3805 0.3320
H55 H 0.5711 0.4502 0.2709
C59 C 0.0583(5) 0.8174(3) 0.2354(2)
H56 H 0.0194 0.7704 0.2695
H57 H 0.0264 0.8110 0.1951
C60 C 0.2194(5) 0.7927(3) 0.2217(2)
H58 H 0.2516 0.7924 0.2629
H59 H 0.2591 0.8426 0.1905
C61 C 0.2753(5) 0.6953(3) 0.1933(2)
H60 H 0.2441 0.6964 0.1517
H61 H 0.2330 0.6460 0.2241
C62 C 0.4367(5) 0.6668(3) 0.1802(2)
H62 H 0.4790 0.7187 0.1525
H63 H 0.4672 0.6603 0.2224
C63 C 0.4935(5) 0.5736(3) 0.1467(3)
H64 H 0.4648 0.5802 0.1041
H65 H 0.4507 0.5216 0.1741
C64 C 0.6543(5) 0.5466(4) 0.1353(3)
H66 H 0.6972 0.5961 0.1061
H67 H 0.6862 0.4849 0.1151
H68 H 0.6833 0.5412 0.1772
loop_
_geom_bond_atom_site_label_1
_geom_bond_atom_site_label_2
_geom_bond_site_symmetry_1
_geom_bond_site_symmetry_2
S1 C9 1_555 1_555
S2 C18 1_555 1_555
S3 C18 1_555 1_555
S4 C19 1_555 1_555
C1 C2 1_555 1_555
C2 H1 1_555 1_555
C3 C2 1_555 1_555
H2 C3 1_555 1_555
C4 C3 1_555 1_555
H3 C4 1_555 1_555
C5 C4 1_555 1_555
H4 C5 1_555 1_555
C6 C1 1_555 1_555
C7 C6 1_555 1_555
C8 C7 1_555 1_555
C9 C1 1_555 1_555
C10 C8 1_555 1_555
C11 S1 1_555 1_555
C12 C11 1_555 1_555
C13 C12 1_555 1_555
C14 C13 1_555 1_555
H5 C14 1_555 1_555
C15 C14 1_555 1_555
H6 C15 1_555 1_555
C16 C15 1_555 1_555
H7 C16 1_555 1_555
C17 C12 1_555 1_555
H8 C17 1_555 1_555
C18 C7 1_555 1_555
C19 S2 1_555 1_555
C20 C10 1_555 1_555
C21 S3 1_555 1_555
H9 C21 1_555 1_555
H10 C21 1_555 1_555
C22 C21 1_555 1_555
H11 C22 1_555 1_555
H12 C22 1_555 1_555
C23 C22 1_555 1_555
H13 C23 1_555 1_555
H14 C23 1_555 1_555
C24 C23 1_555 1_555
H15 C24 1_555 1_555
H16 C24 1_555 1_555
C25 C24 1_555 1_555
H17 C25 1_555 1_555
H18 C25 1_555 1_555
C26 C25 1_555 1_555
H19 C26 1_555 1_555
H20 C26 1_555 1_555
H21 C26 1_555 1_555
C27 S4 1_555 1_555
H22 C27 1_555 1_555
H23 C27 1_555 1_555
C28 C27 1_555 1_555
H24 C28 1_555 1_555
H25 C28 1_555 1_555
C29 C28 1_555 1_555
H26 C29 1_555 1_555
H27 C29 1_555 1_555
C30 C29 1_555 1_555
H28 C30 1_555 1_555
H29 C30 1_555 1_555
C31 C30 1_555 1_555
H30 C31 1_555 1_555
H31 C31 1_555 1_555
C32 C31 1_555 1_555
H32 C32 1_555 1_555
H33 C32 1_555 1_555
H34 C32 1_555 1_555
S5 C41 1_555 1_555
S6 C51 1_555 1_555
S7 C51 1_555 1_555
S8 C52 1_555 1_555
C33 C34 1_555 1_555
C34 H35 1_555 1_555
C35 C34 1_555 1_555
H36 C35 1_555 1_555
C36 C35 1_555 1_555
H37 C36 1_555 1_555
C37 C36 1_555 1_555
H38 C37 1_555 1_555
C38 C33 1_555 1_555
C39 C38 1_555 1_555
C40 C39 1_555 1_555
C41 C33 1_555 1_555
C42 C40 1_555 1_555
C43 C42 1_555 1_555
C44 C43 1_555 1_555
C45 C44 1_555 1_555
C46 S5 1_555 1_555
C47 C44 1_555 1_555
H39 C47 1_555 1_555
C48 C47 1_555 1_555
H40 C48 1_555 1_555
C49 C48 1_555 1_555
H41 C49 1_555 1_555
C50 C45 1_555 1_555
H42 C50 1_555 1_555
C51 C39 1_555 1_555
C52 S6 1_555 1_555
C53 S7 1_555 1_555
H43 C53 1_555 1_555
H44 C53 1_555 1_555
C54 C53 1_555 1_555
H45 C54 1_555 1_555
H46 C54 1_555 1_555
C55 C54 1_555 1_555
H47 C55 1_555 1_555
H48 C55 1_555 1_555
C56 C55 1_555 1_555
H49 C56 1_555 1_555
H50 C56 1_555 1_555
C57 C56 1_555 1_555
H51 C57 1_555 1_555
H52 C57 1_555 1_555
C58 C57 1_555 1_555
H53 C58 1_555 1_555
H54 C58 1_555 1_555
H55 C58 1_555 1_555
C59 S8 1_555 1_555
H56 C59 1_555 1_555
H57 C59 1_555 1_555
C60 C59 1_555 1_555
H58 C60 1_555 1_555
H59 C60 1_555 1_555
C61 C60 1_555 1_555
H60 C61 1_555 1_555
H61 C61 1_555 1_555
C62 C61 1_555 1_555
H62 C62 1_555 1_555
H63 C62 1_555 1_555
C63 C62 1_555 1_555
H64 C63 1_555 1_555
H65 C63 1_555 1_555
C64 C63 1_555 1_555
H66 C64 1_555 1_555
H67 C64 1_555 1_555
H68 C64 1_555 1_555
C5 C6 1_555 1_555
C8 C9 1_555 1_555
C10 C11 1_555 1_555
C13 C20 1_555 1_555
C16 C17 1_555 1_555
C19 C20 1_555 1_555
C37 C38 1_555 1_555
C40 C41 1_555 1_555
C42 C46 1_555 1_555
C43 C52 1_555 1_555
C45 C46 1_555 1_555
C49 C50 1_555 1_555

#END
