
#######################################################################
#
#                 Cambridge Crystallographic Data Centre
#                                CCDC 
#
#######################################################################
#
# If this CIF has been generated from an entry in the Cambridge 
# Structural Database, then it will include bibliographic, chemical, 
# crystal, experimental, refinement or atomic coordinate data resulting 
# from the CCDC's data processing and validation procedures.
#
#######################################################################

data_QILPIN
_chemical_formula_moiety         'C70 H92 S2 Si4,2(C4 H8 O1)'
_chemical_name_systematic        
"(naphtho[3',2',1',8',7':1,12,11]thieno[2',3':3,4]tetrapheno[9,10-b]thiene-6,7,13,14-tetrayltetraethyne-2,1-diyl)tetrakis[tris(propan-2-yl)silane] tetrahydrofuran solvate"
_symmetry_cell_setting           triclinic
_symmetry_space_group_name_H-M   'P -1'
_symmetry_Int_Tables_number      2
_space_group_name_Hall           '-P 1'
loop_
_symmetry_equiv_pos_site_id
_symmetry_equiv_pos_as_xyz
1 x,y,z
2 -x,-y,-z
_cell_length_a                   9.1445(10)
_cell_length_b                   11.1272(11)
_cell_length_c                   18.608(2)
_cell_angle_alpha                74.447(4)
_cell_angle_beta                 88.802(5)
_cell_angle_gamma                80.013(5)
_cell_volume                     1795.79
_exptl_crystal_colour            colorless
_exptl_crystal_description       Prism
_cell_formula_units_Z            1
loop_
_atom_site_label
_atom_site_type_symbol
_atom_site_fract_x
_atom_site_fract_y
_atom_site_fract_z
Si1 Si 0.47979(8) 0.21171(7) 1.29894(4)
Si2 Si 1.17416(8) 0.28067(7) 0.65357(4)
S1 S 0.32488(7) 0.20235(6) 1.05627(4)
C1 C 0.2828(3) 0.2398(3) 0.96183(15)
H1 H 0.1858 0.2755 0.9412
C2 C 0.4001(3) 0.2137(3) 0.92028(15)
H2 H 0.3948 0.2300 0.8675
C3 C 0.5340(3) 0.1586(2) 0.96425(14)
C4 C 0.5087(3) 0.1445(2) 1.04090(14)
C5 C 0.6203(3) 0.0922(2) 1.09602(14)
C6 C 0.7643(3) 0.0449(2) 1.07468(13)
C7 C 0.7948(3) 0.0655(2) 0.99644(14)
C8 C 0.9414(3) 0.0283(2) 0.97353(13)
C9 C 0.9727(3) 0.0540(2) 0.89540(14)
C10 C 0.8537(3) 0.1132(3) 0.84269(14)
H3 H 0.8732 0.1312 0.7909
C11 C 0.7139(3) 0.1444(3) 0.86461(14)
H4 H 0.6369 0.1815 0.8279
C12 C 0.6790(3) 0.1229(2) 0.94163(14)
C13 C 0.5836(3) 0.1047(2) 1.16936(14)
C14 C 0.5376(3) 0.1361(3) 1.22388(15)
C15 C 0.4597(3) 0.3908(3) 1.25705(17)
H5 H 0.5611 0.4123 1.2590
C16 C 0.4070(4) 0.4380(3) 1.17631(19)
H6 H 0.3064 0.4211 1.1719
H7 H 0.4741 0.3942 1.1460
H8 H 0.4063 0.5294 1.1586
C17 C 0.3603(4) 0.4646(3) 1.3043(2)
H9 H 0.3581 0.5556 1.2832
H10 H 0.4002 0.4390 1.3556
H11 H 0.2593 0.4462 1.3040
C18 C 0.2984(3) 0.1670(3) 1.33620(17)
H12 H 0.2570 0.2270 1.3660
C19 C 0.1862(4) 0.1850(4) 1.2733(2)
H13 H 0.2212 0.1256 1.2436
H14 H 0.1749 0.2720 1.2414
H15 H 0.0902 0.1688 1.2944
C20 C 0.3163(4) 0.0341(3) 1.3887(2)
H16 H 0.2191 0.0169 1.4076
H17 H 0.3829 0.0277 1.4307
H18 H 0.3585 -0.0278 1.3618
C21 C 0.6332(3) 0.1543(3) 1.37239(16)
H19 H 0.6350 0.0617 1.3946
C22 C 0.7853(3) 0.1694(3) 1.33861(18)
H20 H 0.7841 0.2582 1.3116
H21 H 0.8076 0.1162 1.3041
H22 H 0.8617 0.1433 1.3786
C23 C 0.6077(4) 0.2184(3) 1.43610(18)
H23 H 0.6857 0.1798 1.4748
H24 H 0.5105 0.2075 1.4575
H25 H 0.6107 0.3090 1.4167
C24 C 1.1189(3) 0.0233(2) 0.87254(13)
C25 C 1.1491(3) 0.0788(2) 0.79604(14)
C26 C 1.1618(3) 0.1446(2) 0.73390(14)
C27 C 1.1220(4) 0.4284(3) 0.68858(17)
H26 H 1.2209 0.4481 0.6987
C28 C 1.0518(6) 0.4137(4) 0.7604(2)
H27 H 1.0390 0.4940 0.7741
H28 H 1.1146 0.3477 0.7984
H29 H 0.9546 0.3895 0.7573
C29 C 1.0535(4) 0.5454(3) 0.62774(17)
H30 H 0.9614 0.5305 0.6083
H31 H 1.1235 0.5625 0.5872
H32 H 1.0315 0.6184 0.6486
C30 C 1.0433(3) 0.2824(3) 0.57656(15)
H33 H 1.0391 0.3655 0.5383
C31 C 0.8852(3) 0.2753(3) 0.6037(2)
H34 H 0.8197 0.2810 0.5615
H35 H 0.8499 0.3456 0.6256
H36 H 0.8847 0.1947 0.6414
C32 C 1.0962(4) 0.1787(3) 0.53728(18)
H37 H 1.1043 0.0955 0.5734
H38 H 1.1935 0.1893 0.5159
H39 H 1.0246 0.1851 0.4974
C33 C 1.3720(3) 0.2665(3) 0.62274(14)
H40 H 1.3922 0.1929 0.6006
C34 C 1.3992(3) 0.3841(3) 0.56218(16)
H41 H 1.3824 0.4579 0.5825
H42 H 1.3307 0.3990 0.5196
H43 H 1.5018 0.3706 0.5457
C35 C 1.4807(3) 0.2380(3) 0.68923(16)
H44 H 1.5826 0.2332 0.6715
H45 H 1.4698 0.1571 0.7243
H46 H 1.4590 0.3057 0.7145
Si1A Si 1.52021(8) -0.21171(7) 0.70106(4)
Si2A Si 0.82584(8) -0.28067(7) 1.34643(4)
S1A S 1.67512(7) -0.20235(6) 0.94373(4)
C1A C 1.7172(3) -0.2398(3) 1.03817(15)
H1A H 1.8142 -0.2755 1.0588
C2A C 1.5999(3) -0.2137(3) 1.07972(15)
H2A H 1.6052 -0.2300 1.1325
C3A C 1.4660(3) -0.1586(2) 1.03575(14)
C4A C 1.4913(3) -0.1445(2) 0.95910(14)
C5A C 1.3797(3) -0.0922(2) 0.90398(14)
C6A C 1.2357(3) -0.0449(2) 0.92532(13)
C7A C 1.2052(3) -0.0655(2) 1.00356(14)
C8A C 1.0586(3) -0.0283(2) 1.02647(13)
C9A C 1.0273(3) -0.0540(2) 1.10460(14)
C10A C 1.1463(3) -0.1132(3) 1.15731(14)
H3A H 1.1268 -0.1312 1.2091
C11A C 1.2861(3) -0.1444(3) 1.13539(14)
H4A H 1.3631 -0.1815 1.1721
C12A C 1.3210(3) -0.1229(2) 1.05837(14)
C13A C 1.4164(3) -0.1047(2) 0.83064(14)
C14A C 1.4624(3) -0.1361(3) 0.77612(15)
C15A C 1.5403(3) -0.3908(3) 0.74295(17)
H5A H 1.4389 -0.4123 0.7410
C16A C 1.5930(4) -0.4380(3) 0.82369(19)
H6A H 1.6936 -0.4211 0.8281
H7A H 1.5259 -0.3942 0.8540
H8A H 1.5937 -0.5294 0.8414
C17A C 1.6397(4) -0.4646(3) 0.6957(2)
H9A H 1.6419 -0.5556 0.7168
H10A H 1.5998 -0.4390 0.6444
H11A H 1.7407 -0.4462 0.6960
C18A C 1.7016(3) -0.1670(3) 0.66380(17)
H12A H 1.7430 -0.2270 0.6340
C19A C 1.8138(4) -0.1850(4) 0.7267(2)
H13A H 1.7788 -0.1256 0.7564
H14A H 1.8251 -0.2720 0.7586
H15A H 1.9098 -0.1688 0.7056
C20A C 1.6837(4) -0.0341(3) 0.6113(2)
H16A H 1.7809 -0.0169 0.5924
H17A H 1.6171 -0.0277 0.5693
H18A H 1.6415 0.0278 0.6382
C21A C 1.3668(3) -0.1543(3) 0.62761(16)
H19A H 1.3650 -0.0617 0.6054
C22A C 1.2147(3) -0.1694(3) 0.66139(18)
H20A H 1.2159 -0.2582 0.6884
H21A H 1.1924 -0.1162 0.6959
H22A H 1.1383 -0.1433 0.6214
C23A C 1.3923(4) -0.2184(3) 0.56390(18)
H23A H 1.3143 -0.1798 0.5252
H24A H 1.4895 -0.2075 0.5425
H25A H 1.3893 -0.3090 0.5833
C24A C 0.8811(3) -0.0233(2) 1.12746(13)
C25A C 0.8509(3) -0.0788(2) 1.20396(14)
C26A C 0.8382(3) -0.1446(2) 1.26610(14)
C27A C 0.8780(4) -0.4284(3) 1.31142(17)
H26A H 0.7791 -0.4481 1.3013
C28A C 0.9482(6) -0.4137(4) 1.2396(2)
H27A H 0.9610 -0.4940 1.2259
H28A H 0.8854 -0.3477 1.2016
H29A H 1.0454 -0.3895 1.2427
C29A C 0.9465(4) -0.5454(3) 1.37226(17)
H30A H 1.0386 -0.5305 1.3917
H31A H 0.8765 -0.5625 1.4128
H32A H 0.9685 -0.6184 1.3514
C30A C 0.9567(3) -0.2824(3) 1.42344(15)
H33A H 0.9609 -0.3655 1.4617
C31A C 1.1148(3) -0.2753(3) 1.3963(2)
H34A H 1.1803 -0.2810 1.4385
H35A H 1.1501 -0.3456 1.3744
H36A H 1.1153 -0.1947 1.3586
C32A C 0.9038(4) -0.1787(3) 1.46272(18)
H37A H 0.8957 -0.0955 1.4266
H38A H 0.8065 -0.1893 1.4841
H39A H 0.9754 -0.1851 1.5026
C33A C 0.6280(3) -0.2665(3) 1.37726(14)
H40A H 0.6078 -0.1929 1.3994
C34A C 0.6008(3) -0.3841(3) 1.43782(16)
H41A H 0.6176 -0.4579 1.4175
H42A H 0.6693 -0.3990 1.4804
H43A H 0.4982 -0.3706 1.4543
C35A C 0.5193(3) -0.2380(3) 1.31077(16)
H44A H 0.4174 -0.2332 1.3285
H45A H 0.5302 -0.1571 1.2757
H46A H 0.5410 -0.3057 1.2855
O1 O 0.9665(3) 0.3078(4) 0.02921(18)
C36 C 0.8556(4) 0.3925(4) -0.0206(2)
H47 H 0.8298 0.3545 -0.0599
H48 H 0.8905 0.4729 -0.0445
C37 C 0.7234(4) 0.4154(3) 0.0268(2)
H49 H 0.6591 0.3510 0.0310
H50 H 0.6638 0.5008 0.0065
C38 C 0.7972(5) 0.4034(5) 0.1019(2)
H51 H 0.7337 0.3704 0.1437
H52 H 0.8184 0.4861 0.1051
C39 C 0.9411(4) 0.3091(4) 0.1025(2)
H53 H 1.0248 0.3360 0.1234
H54 H 0.9304 0.2236 0.1333
loop_
_geom_bond_atom_site_label_1
_geom_bond_atom_site_label_2
_geom_bond_site_symmetry_1
_geom_bond_site_symmetry_2
Si1 C14 1_555 1_555
Si2 C26 1_555 1_555
S1 C1 1_555 1_555
C1 H1 1_555 1_555
C2 C1 1_555 1_555
H2 C2 1_555 1_555
C3 C2 1_555 1_555
C4 S1 1_555 1_555
C5 C4 1_555 1_555
C6 C5 1_555 1_555
C7 C6 1_555 1_555
C8 C7 1_555 1_555
C9 C8 1_555 1_555
C10 C9 1_555 1_555
H3 C10 1_555 1_555
C11 C10 1_555 1_555
H4 C11 1_555 1_555
C12 C3 1_555 1_555
C13 C5 1_555 1_555
C14 C13 1_555 1_555
C15 Si1 1_555 1_555
H5 C15 1_555 1_555
C16 C15 1_555 1_555
H6 C16 1_555 1_555
H7 C16 1_555 1_555
H8 C16 1_555 1_555
C17 C15 1_555 1_555
H9 C17 1_555 1_555
H10 C17 1_555 1_555
H11 C17 1_555 1_555
C18 Si1 1_555 1_555
H12 C18 1_555 1_555
C19 C18 1_555 1_555
H13 C19 1_555 1_555
H14 C19 1_555 1_555
H15 C19 1_555 1_555
C20 C18 1_555 1_555
H16 C20 1_555 1_555
H17 C20 1_555 1_555
H18 C20 1_555 1_555
C21 Si1 1_555 1_555
H19 C21 1_555 1_555
C22 C21 1_555 1_555
H20 C22 1_555 1_555
H21 C22 1_555 1_555
H22 C22 1_555 1_555
C23 C21 1_555 1_555
H23 C23 1_555 1_555
H24 C23 1_555 1_555
H25 C23 1_555 1_555
C24 C9 1_555 1_555
C25 C24 1_555 1_555
C26 C25 1_555 1_555
C27 Si2 1_555 1_555
H26 C27 1_555 1_555
C28 C27 1_555 1_555
H27 C28 1_555 1_555
H28 C28 1_555 1_555
H29 C28 1_555 1_555
C29 C27 1_555 1_555
H30 C29 1_555 1_555
H31 C29 1_555 1_555
H32 C29 1_555 1_555
C30 Si2 1_555 1_555
H33 C30 1_555 1_555
C31 C30 1_555 1_555
H34 C31 1_555 1_555
H35 C31 1_555 1_555
H36 C31 1_555 1_555
C32 C30 1_555 1_555
H37 C32 1_555 1_555
H38 C32 1_555 1_555
H39 C32 1_555 1_555
C33 Si2 1_555 1_555
H40 C33 1_555 1_555
C34 C33 1_555 1_555
H41 C34 1_555 1_555
H42 C34 1_555 1_555
H43 C34 1_555 1_555
C35 C33 1_555 1_555
H44 C35 1_555 1_555
H45 C35 1_555 1_555
H46 C35 1_555 1_555
O1 C36 1_555 1_555
C36 H47 1_555 1_555
H48 C36 1_555 1_555
C37 C36 1_555 1_555
H49 C37 1_555 1_555
H50 C37 1_555 1_555
C38 C37 1_555 1_555
H51 C38 1_555 1_555
H52 C38 1_555 1_555
C39 O1 1_555 1_555
H53 C39 1_555 1_555
H54 C39 1_555 1_555
Si1A C14A 1_555 1_555
Si2A C26A 1_555 1_555
S1A C1A 1_555 1_555
C1A H1A 1_555 1_555
C2A C1A 1_555 1_555
H2A C2A 1_555 1_555
C3A C2A 1_555 1_555
C4A S1A 1_555 1_555
C5A C4A 1_555 1_555
C6A C24 1_555 1_555
C7A C6A 1_555 1_555
C8A C8 1_555 1_555
C9A C8A 1_555 1_555
C10A C9A 1_555 1_555
H3A C10A 1_555 1_555
C11A C10A 1_555 1_555
H4A C11A 1_555 1_555
C12A C3A 1_555 1_555
C13A C5A 1_555 1_555
C14A C13A 1_555 1_555
C15A Si1A 1_555 1_555
H5A C15A 1_555 1_555
C16A C15A 1_555 1_555
H6A C16A 1_555 1_555
H7A C16A 1_555 1_555
H8A C16A 1_555 1_555
C17A C15A 1_555 1_555
H9A C17A 1_555 1_555
H10A C17A 1_555 1_555
H11A C17A 1_555 1_555
C18A Si1A 1_555 1_555
H12A C18A 1_555 1_555
C19A C18A 1_555 1_555
H13A C19A 1_555 1_555
H14A C19A 1_555 1_555
H15A C19A 1_555 1_555
C20A C18A 1_555 1_555
H16A C20A 1_555 1_555
H17A C20A 1_555 1_555
H18A C20A 1_555 1_555
C21A Si1A 1_555 1_555
H19A C21A 1_555 1_555
C22A C21A 1_555 1_555
H20A C22A 1_555 1_555
H21A C22A 1_555 1_555
H22A C22A 1_555 1_555
C23A C21A 1_555 1_555
H23A C23A 1_555 1_555
H24A C23A 1_555 1_555
H25A C23A 1_555 1_555
C24A C6 1_555 1_555
C25A C24A 1_555 1_555
C26A C25A 1_555 1_555
C27A Si2A 1_555 1_555
H26A C27A 1_555 1_555
C28A C27A 1_555 1_555
H27A C28A 1_555 1_555
H28A C28A 1_555 1_555
H29A C28A 1_555 1_555
C29A C27A 1_555 1_555
H30A C29A 1_555 1_555
H31A C29A 1_555 1_555
H32A C29A 1_555 1_555
C30A Si2A 1_555 1_555
H33A C30A 1_555 1_555
C31A C30A 1_555 1_555
H34A C31A 1_555 1_555
H35A C31A 1_555 1_555
H36A C31A 1_555 1_555
C32A C30A 1_555 1_555
H37A C32A 1_555 1_555
H38A C32A 1_555 1_555
H39A C32A 1_555 1_555
C33A Si2A 1_555 1_555
H40A C33A 1_555 1_555
C34A C33A 1_555 1_555
H41A C34A 1_555 1_555
H42A C34A 1_555 1_555
H43A C34A 1_555 1_555
C35A C33A 1_555 1_555
H44A C35A 1_555 1_555
H45A C35A 1_555 1_555
H46A C35A 1_555 1_555
C3 C4 1_555 1_555
C7 C12 1_555 1_555
C11 C12 1_555 1_555
C38 C39 1_555 1_555
C3A C4A 1_555 1_555
C5A C6A 1_555 1_555
C7A C8A 1_555 1_555
C7A C12A 1_555 1_555
C9A C24A 1_555 1_555
C11A C12A 1_555 1_555

#END
