
#######################################################################
#
#                 Cambridge Crystallographic Data Centre
#                                CCDC 
#
#######################################################################
#
# If this CIF has been generated from an entry in the Cambridge 
# Structural Database, then it will include bibliographic, chemical, 
# crystal, experimental, refinement or atomic coordinate data resulting 
# from the CCDC's data processing and validation procedures.
#
#######################################################################

data_QILPEJ
_chemical_formula_moiety         'C78 H96 S2 Si4'
_chemical_name_systematic        
([1]benzothieno[2',3':3,4]naphtho[3',2',1',8',7':1,12,11]tetrapheno[9,10-b][1]benzothiene-8,9,17,18-tetrayltetraethyne-2,1-diyl)tetrakis[tris(propan-2-yl)silane]
_symmetry_cell_setting           triclinic
_symmetry_space_group_name_H-M   'P -1'
_symmetry_Int_Tables_number      2
_space_group_name_Hall           '-P 1'
loop_
_symmetry_equiv_pos_site_id
_symmetry_equiv_pos_as_xyz
1 x,y,z
2 -x,-y,-z
_cell_length_a                   7.5793(3)
_cell_length_b                   13.0670(5)
_cell_length_c                   17.7690(6)
_cell_angle_alpha                98.4420(10)
_cell_angle_beta                 91.1550(10)
_cell_angle_gamma                96.3030(10)
_cell_volume                     1729.05
_exptl_crystal_colour            black
_exptl_crystal_description       block
_cell_formula_units_Z            1
loop_
_atom_site_label
_atom_site_type_symbol
_atom_site_fract_x
_atom_site_fract_y
_atom_site_fract_z
S1 S 0.29613(7) 0.68835(4) 0.42289(3)
Si1 Si 0.83203(8) 0.84384(4) 0.12420(3)
Si2 Si 0.62310(8) 0.48674(4) 0.24281(3)
C1 C 0.6201(3) 0.91609(14) 0.54293(11)
C2 C 1.0760(3) 1.00408(14) 0.47771(10)
C3 C 0.4685(3) 0.84552(14) 0.51704(11)
C4 C 0.9158(3) 0.88081(14) 0.37478(10)
C5 C 1.0709(3) 0.94464(14) 0.40263(10)
C6 C 1.2299(3) 1.07443(14) 0.50353(10)
C7 C 1.2216(3) 0.95693(15) 0.35733(11)
H1 H 1.2188 0.9184 0.3076
C8 C 0.4818(3) 0.77931(15) 0.44686(11)
C9 C 0.2967(3) 0.82183(15) 0.55012(11)
C10 C 0.6274(3) 0.78406(14) 0.40114(10)
C11 C 0.6202(3) 0.61775(15) 0.29774(11)
C12 C 0.7709(3) 0.86246(14) 0.42257(10)
C13 C 0.6312(3) 0.69927(15) 0.34012(11)
C14 C 0.8960(3) 0.84767(15) 0.29382(11)
C15 C 0.2194(3) 0.86674(16) 0.61654(12)
H2 H 0.2836 0.9237 0.6488
C16 C 1.3687(3) 1.02154(16) 0.38256(11)
H3 H 1.4673 1.0261 0.3506
C17 C 0.8774(3) 0.83594(16) 0.22545(12)
C18 C 0.0514(3) 0.82905(17) 0.63540(12)
H4 H 0.0022 0.8602 0.6807
C19 C 0.5868(3) 0.80308(19) 0.10180(13)
H5 H 0.5732 0.7258 0.0862
C20 C 0.9752(3) 0.75695(19) 0.06462(12)
H6 H 1.1007 0.7821 0.0822
C21 C 0.8645(3) 0.46291(17) 0.23764(14)
H7 H 0.9129 0.4946 0.1933
C22 C 0.1919(3) 0.73890(16) 0.50405(12)
C23 C 0.4796(3) 0.39667(17) 0.29668(13)
H8 H 0.3625 0.4252 0.3015
C24 C 0.5267(3) 0.49319(18) 0.14444(12)
H9 H 0.5860 0.5591 0.1296
C25 C -0.0471(3) 0.74647(19) 0.58944(13)
H10 H -0.1621 0.7213 0.6037
C26 C 0.9000(4) 0.98356(18) 0.11318(13)
H11 H 0.8819 0.9897 0.0582
C27 C 0.0222(3) 0.70100(18) 0.52300(13)
H12 H -0.0446 0.6450 0.4909
C28 C 0.5184(4) 0.8498(2) 0.03360(14)
H13 H 0.5159 0.9249 0.0483
H14 H 0.3982 0.8167 0.0181
H15 H 0.5974 0.8374 -0.0089
C29 C 0.8916(4) 0.34802(18) 0.22261(15)
H16 H 0.8511 0.3144 0.2660
H17 H 1.0180 0.3412 0.2157
H18 H 0.8232 0.3145 0.1765
C30 C 0.4702(4) 0.8244(2) 0.17064(15)
H19 H 0.5119 0.7903 0.2121
H20 H 0.3467 0.7969 0.1562
H21 H 0.4775 0.8996 0.1875
C31 C 0.5683(4) 0.4067(2) 0.08241(14)
H22 H 0.6973 0.4070 0.0795
H23 H 0.5185 0.4181 0.0334
H24 H 0.5158 0.3394 0.0945
C32 C 0.9646(4) 0.7650(2) -0.02002(13)
H25 H 0.8429 0.7426 -0.0400
H26 H 1.0457 0.7202 -0.0471
H27 H 0.9985 0.8373 -0.0273
C33 C 0.5532(4) 0.4006(2) 0.37839(15)
H28 H 0.6693 0.3741 0.3770
H29 H 0.4711 0.3575 0.4060
H30 H 0.5661 0.4727 0.4043
C34 C 0.3298(4) 0.5055(2) 0.14515(16)
H31 H 0.2634 0.4419 0.1576
H32 H 0.2896 0.5180 0.0949
H33 H 0.3095 0.5647 0.1834
C35 C 1.0981(4) 1.0148(2) 0.13426(17)
H34 H 1.1210 1.0071 0.1875
H35 H 1.1306 1.0875 0.1275
H36 H 1.1691 0.9698 0.1012
C36 C 0.7853(5) 1.0581(2) 0.15896(16)
H37 H 0.6606 1.0397 0.1418
H38 H 0.8242 1.1296 0.1512
H39 H 0.7978 1.0525 0.2132
C37 C 0.9452(5) 0.6445(2) 0.07603(17)
H40 H 0.9589 0.6398 0.1303
H41 H 1.0322 0.6055 0.0477
H42 H 0.8250 0.6150 0.0575
C38 C 0.4389(4) 0.28360(19) 0.25692(17)
H43 H 0.3830 0.2828 0.2066
H44 H 0.3580 0.2445 0.2876
H45 H 0.5496 0.2514 0.2512
C39 C 0.9769(3) 0.5167(2) 0.30819(18)
H46 H 0.9649 0.5914 0.3159
H47 H 1.1018 0.5063 0.3007
H48 H 0.9356 0.4867 0.3530
S1A S 1.70387(7) 1.31165(4) 0.57711(3)
Si1A Si 1.16797(8) 1.15616(4) 0.87580(3)
Si2A Si 1.37690(8) 1.51326(4) 0.75719(3)
C1A C 1.3799(3) 1.08391(14) 0.45707(11)
C2A C 0.9240(3) 0.99592(14) 0.52229(10)
C3A C 1.5315(3) 1.15448(14) 0.48296(11)
C4A C 1.0842(3) 1.11919(14) 0.62522(10)
C5A C 0.9291(3) 1.05536(14) 0.59737(10)
C6A C 0.7701(3) 0.92557(14) 0.49647(10)
C7A C 0.7784(3) 1.04307(15) 0.64267(11)
H1A H 0.7812 1.0816 0.6924
C8A C 1.5182(3) 1.22069(15) 0.55314(11)
C9A C 1.7033(3) 1.17817(15) 0.44988(11)
C10A C 1.3726(3) 1.21594(14) 0.59886(10)
C11A C 1.3798(3) 1.38225(15) 0.70226(11)
C12A C 1.2291(3) 1.13754(14) 0.57743(10)
C13A C 1.3688(3) 1.30073(15) 0.65988(11)
C14A C 1.1040(3) 1.15233(15) 0.70618(11)
C15A C 1.7806(3) 1.13326(16) 0.38346(12)
H2A H 1.7164 1.0763 0.3512
C16A C 0.6313(3) 0.97846(16) 0.61744(11)
H3A H 0.5327 0.9739 0.6494
C17A C 1.1226(3) 1.16406(16) 0.77455(12)
C18A C 1.9486(3) 1.17095(17) 0.36460(12)
H4A H 1.9978 1.1398 0.3193
C19A C 1.4132(3) 1.19692(19) 0.89820(13)
H5A H 1.4268 1.2742 0.9138
C20A C 1.0248(3) 1.24305(19) 0.93538(12)
H6A H 0.8993 1.2179 0.9178
C21A C 1.1355(3) 1.53709(17) 0.76236(14)
H7A H 1.0871 1.5054 0.8067
C22A C 1.8081(3) 1.26110(16) 0.49595(12)
C23A C 1.5204(3) 1.60333(17) 0.70332(13)
H8A H 1.6375 1.5748 0.6985
C24A C 1.4733(3) 1.50681(18) 0.85556(12)
H9A H 1.4140 1.4409 0.8704
C25A C 2.0471(3) 1.25353(19) 0.41056(13)
H10A H 2.1621 1.2787 0.3963
C26A C 1.1000(4) 1.01644(18) 0.88682(13)
H11A H 1.1181 1.0103 0.9418
C27A C 1.9778(3) 1.29900(18) 0.47700(13)
H12A H 2.0446 1.3550 0.5091
C28A C 1.4816(4) 1.1502(2) 0.96640(14)
H13A H 1.4841 1.0751 0.9517
H14A H 1.6018 1.1833 0.9819
H15A H 1.4026 1.1626 1.0089
C29A C 1.1084(4) 1.65198(18) 0.77739(15)
H16A H 1.1489 1.6856 0.7340
H17A H 0.9820 1.6588 0.7843
H18A H 1.1768 1.6855 0.8235
C30A C 1.5298(4) 1.1756(2) 0.82936(15)
H19A H 1.4881 1.2097 0.7879
H20A H 1.6533 1.2031 0.8438
H21A H 1.5225 1.1004 0.8125
C31A C 1.4317(4) 1.5933(2) 0.91759(14)
H22A H 1.3027 1.5930 0.9205
H23A H 1.4815 1.5819 0.9666
H24A H 1.4842 1.6606 0.9055
C32A C 1.0354(4) 1.2350(2) 1.02002(13)
H25A H 1.1571 1.2574 1.0400
H26A H 0.9543 1.2798 1.0471
H27A H 1.0015 1.1627 1.0273
C33A C 1.4468(4) 1.5994(2) 0.62161(15)
H28A H 1.3307 1.6259 0.6230
H29A H 1.5289 1.6425 0.5940
H30A H 1.4339 1.5273 0.5957
C34A C 1.6702(4) 1.4945(2) 0.85485(16)
H31A H 1.7366 1.5581 0.8424
H32A H 1.7104 1.4820 0.9051
H33A H 1.6905 1.4353 0.8166
C35A C 0.9019(4) 0.9852(2) 0.86574(17)
H34A H 0.8790 0.9929 0.8125
H35A H 0.8694 0.9125 0.8725
H36A H 0.8309 1.0302 0.8988
C36A C 1.2147(5) 0.9419(2) 0.84104(16)
H37A H 1.3394 0.9603 0.8582
H38A H 1.1758 0.8704 0.8488
H39A H 1.2022 0.9475 0.7868
C37A C 1.0548(5) 1.3555(2) 0.92397(17)
H40A H 1.0411 1.3602 0.8697
H41A H 0.9678 1.3945 0.9523
H42A H 1.1750 1.3850 0.9425
C38A C 1.5611(4) 1.71640(19) 0.74308(17)
H43A H 1.6170 1.7172 0.7934
H44A H 1.6420 1.7555 0.7124
H45A H 1.4504 1.7486 0.7488
C39A C 1.0231(3) 1.4833(2) 0.69181(18)
H46A H 1.0351 1.4086 0.6841
H47A H 0.8982 1.4937 0.6993
H48A H 1.0644 1.5133 0.6470
loop_
_geom_bond_atom_site_label_1
_geom_bond_atom_site_label_2
_geom_bond_site_symmetry_1
_geom_bond_site_symmetry_2
S1 C8 1_555 1_555
Si1 C17 1_555 1_555
Si2 C11 1_555 1_555
C1 C3 1_555 1_555
C2 C5 1_555 1_555
C3 C8 1_555 1_555
C4 C5 1_555 1_555
C5 C7 1_555 1_555
C6 C2 1_555 1_555
C7 H1 1_555 1_555
C8 C10 1_555 1_555
C9 C3 1_555 1_555
C10 C12 1_555 1_555
C11 C13 1_555 1_555
C12 C4 1_555 1_555
C13 C10 1_555 1_555
C14 C4 1_555 1_555
C15 C9 1_555 1_555
H2 C15 1_555 1_555
C16 C7 1_555 1_555
H3 C16 1_555 1_555
C17 C14 1_555 1_555
C18 C15 1_555 1_555
H4 C18 1_555 1_555
C19 Si1 1_555 1_555
H5 C19 1_555 1_555
C20 Si1 1_555 1_555
H6 C20 1_555 1_555
C21 Si2 1_555 1_555
H7 C21 1_555 1_555
C22 S1 1_555 1_555
C23 Si2 1_555 1_555
H8 C23 1_555 1_555
C24 Si2 1_555 1_555
H9 C24 1_555 1_555
C25 C18 1_555 1_555
H10 C25 1_555 1_555
C26 Si1 1_555 1_555
H11 C26 1_555 1_555
C27 C22 1_555 1_555
H12 C27 1_555 1_555
C28 C19 1_555 1_555
H13 C28 1_555 1_555
H14 C28 1_555 1_555
H15 C28 1_555 1_555
C29 C21 1_555 1_555
H16 C29 1_555 1_555
H17 C29 1_555 1_555
H18 C29 1_555 1_555
C30 C19 1_555 1_555
H19 C30 1_555 1_555
H20 C30 1_555 1_555
H21 C30 1_555 1_555
C31 C24 1_555 1_555
H22 C31 1_555 1_555
H23 C31 1_555 1_555
H24 C31 1_555 1_555
C32 C20 1_555 1_555
H25 C32 1_555 1_555
H26 C32 1_555 1_555
H27 C32 1_555 1_555
C33 C23 1_555 1_555
H28 C33 1_555 1_555
H29 C33 1_555 1_555
H30 C33 1_555 1_555
C34 C24 1_555 1_555
H31 C34 1_555 1_555
H32 C34 1_555 1_555
H33 C34 1_555 1_555
C35 C26 1_555 1_555
H34 C35 1_555 1_555
H35 C35 1_555 1_555
H36 C35 1_555 1_555
C36 C26 1_555 1_555
H37 C36 1_555 1_555
H38 C36 1_555 1_555
H39 C36 1_555 1_555
C37 C20 1_555 1_555
H40 C37 1_555 1_555
H41 C37 1_555 1_555
H42 C37 1_555 1_555
C38 C23 1_555 1_555
H43 C38 1_555 1_555
H44 C38 1_555 1_555
H45 C38 1_555 1_555
C39 C21 1_555 1_555
H46 C39 1_555 1_555
H47 C39 1_555 1_555
H48 C39 1_555 1_555
S1A C8A 1_555 1_555
Si1A C17A 1_555 1_555
Si2A C11A 1_555 1_555
C1A C6 1_555 1_555
C2A C2 1_555 1_555
C3A C1A 1_555 1_555
C4A C5A 1_555 1_555
C5A C2A 1_555 1_555
C6A C1 1_555 1_555
C7A C5A 1_555 1_555
H1A C7A 1_555 1_555
C8A C3A 1_555 1_555
C9A C3A 1_555 1_555
C10A C8A 1_555 1_555
C11A C13A 1_555 1_555
C12A C6 1_555 1_555
C13A C10A 1_555 1_555
C14A C4A 1_555 1_555
C15A C9A 1_555 1_555
H2A C15A 1_555 1_555
C16A C1 1_555 1_555
H3A C16A 1_555 1_555
C17A C14A 1_555 1_555
C18A C15A 1_555 1_555
H4A C18A 1_555 1_555
C19A Si1A 1_555 1_555
H5A C19A 1_555 1_555
C20A Si1A 1_555 1_555
H6A C20A 1_555 1_555
C21A Si2A 1_555 1_555
H7A C21A 1_555 1_555
C22A S1A 1_555 1_555
C23A Si2A 1_555 1_555
H8A C23A 1_555 1_555
C24A Si2A 1_555 1_555
H9A C24A 1_555 1_555
C25A C18A 1_555 1_555
H10A C25A 1_555 1_555
C26A Si1A 1_555 1_555
H11A C26A 1_555 1_555
C27A C22A 1_555 1_555
H12A C27A 1_555 1_555
C28A C19A 1_555 1_555
H13A C28A 1_555 1_555
H14A C28A 1_555 1_555
H15A C28A 1_555 1_555
C29A C21A 1_555 1_555
H16A C29A 1_555 1_555
H17A C29A 1_555 1_555
H18A C29A 1_555 1_555
C30A C19A 1_555 1_555
H19A C30A 1_555 1_555
H20A C30A 1_555 1_555
H21A C30A 1_555 1_555
C31A C24A 1_555 1_555
H22A C31A 1_555 1_555
H23A C31A 1_555 1_555
H24A C31A 1_555 1_555
C32A C20A 1_555 1_555
H25A C32A 1_555 1_555
H26A C32A 1_555 1_555
H27A C32A 1_555 1_555
C33A C23A 1_555 1_555
H28A C33A 1_555 1_555
H29A C33A 1_555 1_555
H30A C33A 1_555 1_555
C34A C24A 1_555 1_555
H31A C34A 1_555 1_555
H32A C34A 1_555 1_555
H33A C34A 1_555 1_555
C35A C26A 1_555 1_555
H34A C35A 1_555 1_555
H35A C35A 1_555 1_555
H36A C35A 1_555 1_555
C36A C26A 1_555 1_555
H37A C36A 1_555 1_555
H38A C36A 1_555 1_555
H39A C36A 1_555 1_555
C37A C20A 1_555 1_555
H40A C37A 1_555 1_555
H41A C37A 1_555 1_555
H42A C37A 1_555 1_555
C38A C23A 1_555 1_555
H43A C38A 1_555 1_555
H44A C38A 1_555 1_555
H45A C38A 1_555 1_555
C39A C21A 1_555 1_555
H46A C39A 1_555 1_555
H47A C39A 1_555 1_555
H48A C39A 1_555 1_555
C9 C22 1_555 1_555
C12 C6A 1_555 1_555
C16 C1A 1_555 1_555
C25 C27 1_555 1_555
C2A C6A 1_555 1_555
C4A C12A 1_555 1_555
C7A C16A 1_555 1_555
C9A C22A 1_555 1_555
C10A C12A 1_555 1_555
C25A C27A 1_555 1_555

#END
