
#######################################################################
#
#                 Cambridge Crystallographic Data Centre
#                                CCDC 
#
#######################################################################
#
# If this CIF has been generated from an entry in the Cambridge 
# Structural Database, then it will include bibliographic, chemical, 
# crystal, experimental, refinement or atomic coordinate data resulting 
# from the CCDC's data processing and validation procedures.
#
#######################################################################

data_QILREK
_chemical_formula_moiety         'C14 H15 N1 O3 S1'
_chemical_name_systematic        2-Hydroxy-N,2-diphenylethanesulfonamide
_symmetry_cell_setting           orthorhombic
_symmetry_space_group_name_H-M   'P 21 21 21'
_symmetry_Int_Tables_number      19
_space_group_name_Hall           'P 2ac 2ab'
loop_
_symmetry_equiv_pos_site_id
_symmetry_equiv_pos_as_xyz
1 x,y,z
2 1/2+x,1/2-y,-z
3 -x,1/2+y,1/2-z
4 1/2-x,-y,1/2+z
_cell_length_a                   7.3822(17)
_cell_length_b                   13.429(3)
_cell_length_c                   13.736(3)
_cell_angle_alpha                90
_cell_angle_beta                 90
_cell_angle_gamma                90
_cell_volume                     1361.73
_exptl_crystal_colour            colorless
_exptl_crystal_description       block
_cell_formula_units_Z            4
loop_
_atom_site_label
_atom_site_type_symbol
_atom_site_fract_x
_atom_site_fract_y
_atom_site_fract_z
S1 S 0.74049(6) 0.18356(4) 0.29162(3)
O1 O 0.7608(2) 0.14314(11) 0.19612(9)
O2 O 0.89658(19) 0.19211(13) 0.35302(11)
O3 O 0.5060(2) 0.23679(11) 0.46388(10)
H1 H 0.4748 0.2515 0.5193
N1 N 0.6586(2) 0.29665(13) 0.28097(12)
C1 C 0.5035(3) 0.31154(15) 0.21849(15)
C2 C 0.5264(3) 0.31359(17) 0.11854(16)
H2 H 0.6414 0.3073 0.0916
C3 C 0.3769(5) 0.32508(19) 0.0593(2)
H3 H 0.3911 0.3246 -0.0080
C4 C 0.2079(4) 0.33718(19) 0.0986(2)
H4 H 0.1080 0.3444 0.0579
C5 C 0.1851(4) 0.3388(2) 0.1983(3)
H5 H 0.0709 0.3490 0.2250
C6 C 0.3344(3) 0.3249(2) 0.2584(2)
H6 H 0.3199 0.3247 0.3257
C7 C 0.5783(3) 0.10849(14) 0.35294(14)
H7 H 0.4624 0.1156 0.3204
H8 H 0.6147 0.0393 0.3476
C8 C 0.5541(3) 0.13397(15) 0.46054(14)
H9 H 0.6697 0.1244 0.4944
C9 C 0.4109(3) 0.06961(14) 0.50799(15)
C10 C 0.4532(3) 0.01178(17) 0.58835(17)
H10 H 0.5710 0.0112 0.6124
C11 C 0.3207(4) -0.0452(2) 0.6329(2)
H11 H 0.3506 -0.0847 0.6862
C12 C 0.1463(4) -0.0439(2) 0.5995(2)
H12 H 0.0576 -0.0821 0.6298
C13 C 0.1032(4) 0.01485(19) 0.5200(2)
H13 H -0.0155 0.0167 0.4974
C14 C 0.2343(3) 0.07059(15) 0.47400(17)
H14 H 0.2042 0.1090 0.4200
loop_
_geom_bond_atom_site_label_1
_geom_bond_atom_site_label_2
_geom_bond_site_symmetry_1
_geom_bond_site_symmetry_2
S1 O1 1_555 1_555
O2 S1 1_555 1_555
O3 H1 1_555 1_555
N1 S1 1_555 1_555
C1 N1 1_555 1_555
C2 C1 1_555 1_555
H2 C2 1_555 1_555
C3 C2 1_555 1_555
H3 C3 1_555 1_555
C4 C3 1_555 1_555
H4 C4 1_555 1_555
C5 C4 1_555 1_555
H5 C5 1_555 1_555
C6 C1 1_555 1_555
H6 C6 1_555 1_555
C7 S1 1_555 1_555
H7 C7 1_555 1_555
H8 C7 1_555 1_555
C8 O3 1_555 1_555
H9 C8 1_555 1_555
C9 C8 1_555 1_555
C10 C9 1_555 1_555
H10 C10 1_555 1_555
C11 C10 1_555 1_555
H11 C11 1_555 1_555
C12 C11 1_555 1_555
H12 C12 1_555 1_555
C13 C12 1_555 1_555
H13 C13 1_555 1_555
C14 C9 1_555 1_555
H14 C14 1_555 1_555
C5 C6 1_555 1_555
C7 C8 1_555 1_555
C13 C14 1_555 1_555

#END
