
#######################################################################
#
#                 Cambridge Crystallographic Data Centre
#                                CCDC 
#
#######################################################################
#
# If this CIF has been generated from an entry in the Cambridge 
# Structural Database, then it will include bibliographic, chemical, 
# crystal, experimental, refinement or atomic coordinate data resulting 
# from the CCDC's data processing and validation procedures.
#
#######################################################################

data_QILVAK
_chemical_formula_moiety         'C19 H15 N1 O3 S1'
_chemical_name_systematic        
'ethyl 10-(methylsulfanyl)-7-oxo-7,8-dihydronaphtho[1,8-ef]indole-9-carboxylate'
_symmetry_cell_setting           triclinic
_symmetry_space_group_name_H-M   'P -1'
_symmetry_Int_Tables_number      2
_space_group_name_Hall           '-P 1'
loop_
_symmetry_equiv_pos_site_id
_symmetry_equiv_pos_as_xyz
1 x,y,z
2 -x,-y,-z
_cell_length_a                   7.529(5)
_cell_length_b                   8.069(5)
_cell_length_c                   12.582(5)
_cell_angle_alpha                87.884(5)
_cell_angle_beta                 84.376(5)
_cell_angle_gamma                85.268(5)
_cell_volume                     757.783
_exptl_crystal_colour            yellow
_exptl_crystal_description       block
_cell_formula_units_Z            2
loop_
_atom_site_label
_atom_site_type_symbol
_atom_site_fract_x
_atom_site_fract_y
_atom_site_fract_z
S1 S 0.09983(5) 0.09120(5) 0.37064(3)
N1 N 0.34821(16) 0.38168(15) 0.15463(10)
H1 H 0.4085 0.4690 0.1354
O1 O 0.42801(15) 0.37105(13) -0.07590(8)
O2 O 0.34619(17) 0.60382(14) 0.32050(9)
O3 O 0.24705(15) 0.40701(13) 0.43755(8)
C1 C 0.36973(19) 0.08279(18) -0.18205(11)
H2 H 0.4259 0.1668 -0.2213
C2 C 0.33041(19) -0.05838(19) -0.23336(12)
H3 H 0.3576 -0.0668 -0.3068
C3 C 0.25146(19) -0.18475(19) -0.17532(12)
H4 H 0.2268 -0.2788 -0.2100
C4 C 0.12604(19) -0.30540(18) -0.00440(12)
H5 H 0.1028 -0.4005 -0.0386
C5 C 0.08190(19) -0.29234(18) 0.10320(12)
H6 H 0.0284 -0.3786 0.1417
C6 C 0.11671(19) -0.14950(18) 0.15636(12)
H7 H 0.0862 -0.1433 0.2296
C7 C 0.21067(18) 0.18911(17) 0.25886(11)
C8 C 0.28304(18) 0.34437(18) 0.25661(11)
C9 C 0.36570(18) 0.25333(17) -0.02358(11)
C10 C 0.32591(18) 0.09888(17) -0.07332(11)
C11 C 0.24289(17) -0.02966(17) -0.01113(11)
C12 C 0.20697(18) -0.17449(18) -0.06389(12)
C13 C 0.19520(18) -0.01864(17) 0.10184(11)
C14 C 0.23618(18) 0.13219(17) 0.15217(11)
C15 C 0.32120(18) 0.25565(17) 0.09098(11)
C16 C 0.29639(19) 0.46660(18) 0.33938(11)
C17 C 0.2378(2) 0.5219(2) 0.52443(12)
H8 H 0.1437 0.6100 0.5168
H9 H 0.3507 0.5716 0.5253
C18 C 0.1982(3) 0.4200(2) 0.62534(13)
H10 H 0.1904 0.4902 0.6858
H11 H 0.2923 0.3334 0.6315
H12 H 0.0865 0.3713 0.6230
C19 C 0.2865(2) 0.0028(2) 0.43953(12)
H13 H 0.2426 -0.0552 0.5035
H14 H 0.3562 0.0902 0.4578
H15 H 0.3600 -0.0734 0.3939
loop_
_geom_bond_atom_site_label_1
_geom_bond_atom_site_label_2
_geom_bond_site_symmetry_1
_geom_bond_site_symmetry_2
S1 C7 1_555 1_555
N1 H1 1_555 1_555
O1 C9 1_555 1_555
O2 C16 1_555 1_555
O3 C16 1_555 1_555
C1 H2 1_555 1_555
C2 C1 1_555 1_555
H3 C2 1_555 1_555
C3 C2 1_555 1_555
H4 C3 1_555 1_555
C4 H5 1_555 1_555
C5 C4 1_555 1_555
H6 C5 1_555 1_555
C6 C5 1_555 1_555
H7 C6 1_555 1_555
C7 C8 1_555 1_555
C8 N1 1_555 1_555
C9 C10 1_555 1_555
C10 C1 1_555 1_555
C11 C10 1_555 1_555
C12 C3 1_555 1_555
C13 C6 1_555 1_555
C14 C7 1_555 1_555
C15 N1 1_555 1_555
C16 C8 1_555 1_555
C17 O3 1_555 1_555
H8 C17 1_555 1_555
H9 C17 1_555 1_555
C18 C17 1_555 1_555
H10 C18 1_555 1_555
H11 C18 1_555 1_555
H12 C18 1_555 1_555
C19 S1 1_555 1_555
H13 C19 1_555 1_555
H14 C19 1_555 1_555
H15 C19 1_555 1_555
C4 C12 1_555 1_555
C9 C15 1_555 1_555
C11 C12 1_555 1_555
C11 C13 1_555 1_555
C13 C14 1_555 1_555
C14 C15 1_555 1_555

#END
