
#######################################################################
#
#                 Cambridge Crystallographic Data Centre
#                                CCDC 
#
#######################################################################
#
# If this CIF has been generated from an entry in the Cambridge 
# Structural Database, then it will include bibliographic, chemical, 
# crystal, experimental, refinement or atomic coordinate data resulting 
# from the CCDC's data processing and validation procedures.
#
#######################################################################

data_QILVEP
_chemical_formula_moiety         'C13 H2 F6 N6 O9'
_chemical_name_systematic        
N,N'-bis(3,4,5-trifluoro-2,6-dinitrophenyl)urea
_symmetry_cell_setting           monoclinic
_symmetry_space_group_name_H-M   'P 21/n'
_symmetry_Int_Tables_number      14
_space_group_name_Hall           '-P 2yn'
loop_
_symmetry_equiv_pos_site_id
_symmetry_equiv_pos_as_xyz
1 x,y,z
2 1/2-x,1/2+y,1/2-z
3 -x,-y,-z
4 1/2+x,1/2-y,1/2+z
_cell_length_a                   12.2579(5)
_cell_length_b                   9.7269(4)
_cell_length_c                   29.1802(12)
_cell_angle_alpha                90
_cell_angle_beta                 92.889(4)
_cell_angle_gamma                90
_cell_volume                     3474.77
_exptl_crystal_description       plate
_cell_formula_units_Z            8
loop_
_atom_site_label
_atom_site_type_symbol
_atom_site_fract_x
_atom_site_fract_y
_atom_site_fract_z
C1 C 0.95132(14) 1.00289(17) 0.11868(6)
C2 C 1.29502(15) 1.09611(19) 0.19623(7)
C3 C 1.26533(17) 1.0477(2) 0.23769(7)
C4 C 1.16983(17) 0.97496(19) 0.24038(6)
C5 C 1.10310(14) 0.95124(18) 0.20155(6)
C6 C 1.12965(14) 1.00202(17) 0.15859(6)
C7 C 1.22772(14) 1.07577(18) 0.15721(6)
C8 C 0.64148(16) 1.1098(2) 0.02097(7)
C9 C 0.56769(16) 1.0718(3) 0.05230(8)
C10 C 0.60186(17) 0.9986(3) 0.09008(7)
C11 C 0.71075(16) 0.9638(2) 0.09773(6)
C12 C 0.78943(15) 1.0044(2) 0.06734(6)
C13 C 0.75113(15) 1.0767(2) 0.02826(6)
F1 F 1.39065(9) 1.15947(12) 0.19419(4)
F2 F 1.33002(11) 1.06842(14) 0.27537(4)
F3 F 1.14653(11) 0.92189(14) 0.28053(4)
F4 F 0.60450(10) 1.17596(15) -0.01661(4)
F5 F 0.46186(10) 1.10370(19) 0.04471(5)
F6 F 0.52661(10) 0.95601(19) 0.11829(5)
N1 N 1.06259(12) 0.98028(15) 0.11924(5)
H1 H 1.0904(16) 0.975(2) 0.0950(6)
N2 N 0.90054(12) 0.97890(16) 0.07596(5)
H2 H 0.9375(16) 0.970(2) 0.0536(6)
N3 N 1.01017(13) 0.85804(16) 0.20690(5)
N4 N 1.26226(12) 1.13595(18) 0.11458(6)
N5 N 0.73804(16) 0.8740(2) 0.13672(6)
N6 N 0.82552(12) 1.11967(17) -0.00652(5)
O1 O 0.94966(12) 0.88159(15) 0.23779(5)
O2 O 1.00153(11) 0.75957(13) 0.18066(5)
O3 O 1.24650(12) 1.06905(18) 0.07928(5)
O4 O 1.30554(12) 1.24859(16) 0.11658(6)
O5 O 0.90352(10) 1.03705(12) 0.15192(4)
O6 O 0.70361(14) 0.9042(2) 0.17392(5)
O7 O 0.79207(15) 0.7722(2) 0.12892(6)
O8 O 0.89881(10) 1.03853(14) -0.01521(4)
O9 O 0.81018(12) 1.22927(16) -0.02558(5)
C14 C 0.34748(15) 0.5276(2) 0.06255(7)
C15 C 0.32182(18) 0.4445(2) 0.02571(7)
C16 C 0.21913(18) 0.3898(2) 0.01993(7)
C17 C 0.14049(15) 0.41968(19) 0.05070(6)
C18 C 0.16371(14) 0.50240(18) 0.08898(6)
C19 C 0.26944(15) 0.55639(18) 0.09402(6)
C20 C 0.02763(14) 0.41796(18) 0.13911(6)
C21 C -0.15055(16) 0.20174(19) 0.25036(6)
C22 C -0.25362(17) 0.1743(2) 0.23190(7)
C23 C -0.28871(16) 0.2365(2) 0.19147(7)
C24 C -0.22154(15) 0.32696(19) 0.16971(6)
C25 C -0.11768(14) 0.35890(17) 0.18821(6)
C26 C -0.08425(14) 0.29291(18) 0.22862(6)
F7 F 0.44721(10) 0.58106(14) 0.06751(5)
F8 F 0.39695(12) 0.41650(17) -0.00468(5)
F9 F 0.19593(12) 0.31155(14) -0.01676(4)
F10 F -0.11554(10) 0.14065(12) 0.28915(4)
F11 F -0.31902(11) 0.08882(14) 0.25325(4)
F12 F -0.38894(10) 0.20978(15) 0.17383(4)
N7 N 0.08660(12) 0.52546(15) 0.12176(5)
H3 H 0.0867(17) 0.5976(18) 0.1345(7)
N8 N -0.05028(12) 0.45828(16) 0.16811(5)
H4 H -0.0673(17) 0.5380(17) 0.1709(7)
N9 N 0.03048(14) 0.36319(17) 0.04104(5)
N10 N 0.30061(13) 0.64553(17) 0.13293(6)
N11 N 0.02241(13) 0.32556(16) 0.25117(5)
O10 O 0.02418(13) 0.24157(15) 0.03122(5)
O11 O -0.04692(11) 0.44203(15) 0.04340(5)
O12 O 0.23443(12) 0.73322(15) 0.14324(5)
O13 O 0.38958(12) 0.62710(18) 0.15267(6)
O14 O 0.04393(10) 0.29862(12) 0.12940(4)
O15 O 0.10407(11) 0.28349(16) 0.23344(5)
O16 O 0.02220(12) 0.39360(17) 0.28602(5)
N12 N -0.26173(14) 0.38868(18) 0.12606(6)
O17 O -0.2904(4) 0.3069(3) 0.09589(11)
O18 O -0.2568(5) 0.5088(3) 0.12269(11)
O19? O -0.3328(11) 0.4849(11) 0.1278(2)
O20? O -0.2313(10) 0.3522(13) 0.0909(2)
loop_
_geom_bond_atom_site_label_1
_geom_bond_atom_site_label_2
_geom_bond_site_symmetry_1
_geom_bond_site_symmetry_2
C1 N1 1_555 1_555
C2 C3 1_555 1_555
C3 C4 1_555 1_555
C4 C5 1_555 1_555
C5 C6 1_555 1_555
C6 C7 1_555 1_555
C7 C2 1_555 1_555
C8 C9 1_555 1_555
C9 C10 1_555 1_555
C10 C11 1_555 1_555
C11 C12 1_555 1_555
C12 C13 1_555 1_555
C13 C8 1_555 1_555
F1 C2 1_555 1_555
F2 C3 1_555 1_555
F3 C4 1_555 1_555
F4 C8 1_555 1_555
F5 C9 1_555 1_555
F6 C10 1_555 1_555
N1 C6 1_555 1_555
H1 N1 1_555 1_555
N2 C1 1_555 1_555
H2 N2 1_555 1_555
N3 C5 1_555 1_555
N4 C7 1_555 1_555
N5 C11 1_555 1_555
N6 C13 1_555 1_555
O1 N3 1_555 1_555
O2 N3 1_555 1_555
O3 N4 1_555 1_555
O4 N4 1_555 1_555
O5 C1 1_555 1_555
O6 N5 1_555 1_555
O7 N5 1_555 1_555
O8 N6 1_555 1_555
O9 N6 1_555 1_555
C14 C15 1_555 1_555
C15 C16 1_555 1_555
C16 C17 1_555 1_555
C17 C18 1_555 1_555
C18 C19 1_555 1_555
C19 C14 1_555 1_555
C20 N7 1_555 1_555
C21 C22 1_555 1_555
C22 C23 1_555 1_555
C23 C24 1_555 1_555
C24 C25 1_555 1_555
C25 C26 1_555 1_555
C26 C21 1_555 1_555
F7 C14 1_555 1_555
F8 C15 1_555 1_555
F9 C16 1_555 1_555
F10 C21 1_555 1_555
F11 C22 1_555 1_555
F12 C23 1_555 1_555
N7 C18 1_555 1_555
H3 N7 1_555 1_555
N8 C20 1_555 1_555
H4 N8 1_555 1_555
N9 C17 1_555 1_555
N10 C19 1_555 1_555
N11 C26 1_555 1_555
O10 N9 1_555 1_555
O11 N9 1_555 1_555
O12 N10 1_555 1_555
O13 N10 1_555 1_555
O14 C20 1_555 1_555
O15 N11 1_555 1_555
O16 N11 1_555 1_555
N12 C24 1_555 1_555
O17 N12 1_555 1_555
O18 N12 1_555 1_555
C12 N2 1_555 1_555
C25 N8 1_555 1_555

#END
