
#######################################################################
#
#                 Cambridge Crystallographic Data Centre
#                                CCDC 
#
#######################################################################
#
# If this CIF has been generated from an entry in the Cambridge 
# Structural Database, then it will include bibliographic, chemical, 
# crystal, experimental, refinement or atomic coordinate data resulting 
# from the CCDC's data processing and validation procedures.
#
#######################################################################

data_QILWIT
_chemical_formula_moiety         'C16 H5 F5 N3 O1 P1 S2,0.17(C1 H4 O1)'
_chemical_name_systematic        
"4-(4-oxido-4H-thieno[2',3':4,5]phospholo[3,2-b]thiophen-4-yl)-1-(pentafluorophenyl)-1H-1,2,3-triazole methanol solvate"
_symmetry_cell_setting           rhombohedral
_symmetry_space_group_name_H-M   'R -3'
_symmetry_Int_Tables_number      148
_space_group_name_Hall           '-R 3'
loop_
_symmetry_equiv_pos_site_id
_symmetry_equiv_pos_as_xyz
1 x,y,z
2 -y,x-y,z
3 -x+y,-x,z
4 2/3+x,1/3+y,1/3+z
5 2/3-y,1/3+x-y,1/3+z
6 2/3-x+y,1/3-x,1/3+z
7 1/3+x,2/3+y,2/3+z
8 1/3-y,2/3+x-y,2/3+z
9 1/3-x+y,2/3-x,2/3+z
10 -x,-y,-z
11 y,-x+y,-z
12 x-y,x,-z
13 1/3-x,2/3-y,2/3-z
14 1/3+y,2/3-x+y,2/3-z
15 1/3+x-y,2/3+x,2/3-z
16 2/3-x,1/3-y,1/3-z
17 2/3+y,1/3-x+y,1/3-z
18 2/3+x-y,1/3+x,1/3-z
_cell_length_a                   35.0181(11)
_cell_length_b                   35.0181(11)
_cell_length_c                   8.0290(2)
_cell_angle_alpha                90
_cell_angle_beta                 90
_cell_angle_gamma                120
_cell_volume                     8526.63
_exptl_crystal_colour            'light yellow'
_exptl_crystal_description       pillar
_cell_formula_units_Z            18
loop_
_atom_site_label
_atom_site_type_symbol
_atom_site_fract_x
_atom_site_fract_y
_atom_site_fract_z
P1 P 0.09290(3) 0.34711(3) 0.11204(11)
O1 O 0.07467(9) 0.36636(9) -0.0051(3)
S1 S 0.21982(3) 0.41517(4) 0.30275(13)
S2 S 0.12555(3) 0.37545(3) 0.61318(12)
F1 F -0.01839(9) 0.16179(10) -0.1803(4)
F2 F -0.07518(11) 0.07590(12) -0.1214(5)
F3 F -0.09057(11) 0.04558(11) 0.1936(6)
F4 F -0.04985(12) 0.10077(12) 0.4511(5)
F5 F 0.00865(10) 0.18578(10) 0.3934(4)
N1 N 0.08902(12) 0.27196(12) -0.0206(4)
N2 N 0.06485(12) 0.22977(12) -0.0229(5)
N3 N 0.02909(11) 0.21955(11) 0.0748(4)
C1 C 0.22607(14) 0.41066(16) 0.0935(5)
H1 H 0.2539 0.4232 0.0399
C2 C 0.18719(13) 0.38741(14) 0.0125(5)
H2 H 0.1844 0.3816 -0.1037
C3 C 0.15143(13) 0.37295(13) 0.1240(5)
C4 C 0.16440(13) 0.38574(13) 0.2862(5)
C5 C 0.12822(12) 0.37272(12) 0.4022(5)
C6 C 0.08731(12) 0.35224(12) 0.3318(5)
C7 C 0.05308(14) 0.33812(14) 0.4497(5)
H3 H 0.0226 0.3230 0.4224
C8 C 0.06907(14) 0.34878(14) 0.6065(5)
H4 H 0.0510 0.3422 0.7025
C9 C 0.07017(13) 0.28970(13) 0.0781(4)
C10 C 0.03173(12) 0.25596(13) 0.1396(5)
H5 H 0.0114 0.2579 0.2123
C11 C -0.00325(13) 0.17515(14) 0.1046(6)
C12 C -0.02495(14) 0.14695(16) -0.0255(7)
C13 C -0.05449(16) 0.10289(17) 0.0059(9)
C14 C -0.06264(18) 0.08798(18) 0.1664(10)
C15 C -0.04199(17) 0.11553(19) 0.2963(8)
C16 C -0.01168(15) 0.15942(16) 0.2656(6)
O2 O -0.0286(19) 0.0193(19) -0.361(5)
H6 H -0.0097 0.0313 -0.4382
C17 C -0.0318(13) 0.0191(13) -0.177(4)
H7 H -0.0625 -0.0003 -0.1437
H8 H -0.0218 0.0491 -0.1378
H9 H -0.0132 0.0084 -0.1289
loop_
_geom_bond_atom_site_label_1
_geom_bond_atom_site_label_2
_geom_bond_site_symmetry_1
_geom_bond_site_symmetry_2
P1 O1 1_555 1_555
S1 C1 1_555 1_555
S2 C5 1_555 1_555
F1 C12 1_555 1_555
F2 C13 1_555 1_555
F3 C14 1_555 1_555
F4 C15 1_555 1_555
F5 C16 1_555 1_555
N1 N2 1_555 1_555
N2 N3 1_555 1_555
N3 C10 1_555 1_555
C1 H1 1_555 1_555
C2 C1 1_555 1_555
H2 C2 1_555 1_555
C3 P1 1_555 1_555
C4 S1 1_555 1_555
C5 C4 1_555 1_555
C6 P1 1_555 1_555
C7 C6 1_555 1_555
H3 C7 1_555 1_555
C8 S2 1_555 1_555
H4 C8 1_555 1_555
C9 P1 1_555 1_555
C10 C9 1_555 1_555
H5 C10 1_555 1_555
C11 N3 1_555 1_555
C12 C11 1_555 1_555
C13 C12 1_555 1_555
C14 C13 1_555 1_555
C15 C14 1_555 1_555
C16 C11 1_555 1_555
O2 H6 1_555 1_555
C17 O2 1_555 1_555
H7 C17 1_555 1_555
H8 C17 1_555 1_555
H9 C17 1_555 1_555
N1 C9 1_555 1_555
C2 C3 1_555 1_555
C3 C4 1_555 1_555
C5 C6 1_555 1_555
C7 C8 1_555 1_555
C15 C16 1_555 1_555

#END
