
#######################################################################
#
#                 Cambridge Crystallographic Data Centre
#                                CCDC 
#
#######################################################################
#
# If this CIF has been generated from an entry in the Cambridge 
# Structural Database, then it will include bibliographic, chemical, 
# crystal, experimental, refinement or atomic coordinate data resulting 
# from the CCDC's data processing and validation procedures.
#
#######################################################################

data_QILWEQ
_chemical_formula_moiety         'C21 H19 O3 P1'
_chemical_name_systematic        
4-(diphenylphosphoryl)-3,4-dihydro-2H-1-benzopyran-2-ol
_symmetry_cell_setting           monoclinic
_symmetry_space_group_name_H-M   'P 21'
_symmetry_Int_Tables_number      4
_space_group_name_Hall           'P 2yb'
loop_
_symmetry_equiv_pos_site_id
_symmetry_equiv_pos_as_xyz
1 x,y,z
2 -x,1/2+y,-z
_cell_length_a                   8.6712(17)
_cell_length_b                   10.537(2)
_cell_length_c                   19.688(4)
_cell_angle_alpha                90
_cell_angle_beta                 90.59(3)
_cell_angle_gamma                90
_cell_volume                     1798.77
_exptl_crystal_colour            colorless
_exptl_crystal_description       Prism
_chemical_melting_point          '204-206 deg.C'
_cell_formula_units_Z            4
_exptl_crystal_recrystallization_method dichloromethane
loop_
_atom_site_label
_atom_site_type_symbol
_atom_site_fract_x
_atom_site_fract_y
_atom_site_fract_z
P1 P 0.77065(14) 0.55609(14) 0.39517(7)
O1 O 0.9759(4) 0.5327(5) 0.5771(2)
O2 O 1.1777(4) 0.4174(5) 0.5378(3)
H1 H 1.1665 0.3401 0.5385
O3 O 0.8628(4) 0.6748(3) 0.40737(18)
C1 C 0.8201(6) 0.5530(6) 0.5802(3)
C2 C 0.7668(8) 0.6116(7) 0.6397(3)
H2 H 0.8372 0.6387 0.6726
C3 C 0.6108(9) 0.6291(7) 0.6497(3)
H3 H 0.5768 0.6680 0.6893
C4 C 0.5038(7) 0.5887(7) 0.6008(3)
H4 H 0.3986 0.5996 0.6074
C5 C 0.5576(6) 0.5324(6) 0.5423(3)
H5 H 0.4869 0.5058 0.5095
C6 C 0.7154(6) 0.5141(5) 0.5309(3)
C7 C 0.7715(6) 0.4455(5) 0.4667(3)
H6 H 0.6982 0.3772 0.4562
C8 C 0.9322(6) 0.3832(6) 0.4833(3)
H7 H 0.9174 0.3106 0.5127
H8 H 0.9781 0.3533 0.4415
C9 C 1.0392(6) 0.4749(6) 0.5170(3)
H9 H 1.0634 0.5423 0.4845
C10 C 0.5709(6) 0.5890(5) 0.3779(2)
C11 C 0.5176(6) 0.7155(6) 0.3815(3)
H10 H 0.5859 0.7806 0.3925
C12 C 0.3629(7) 0.7430(6) 0.3684(3)
H11 H 0.3290 0.8267 0.3694
C13 C 0.2604(6) 0.6474(7) 0.3542(3)
H12 H 0.1573 0.6670 0.3459
C14 C 0.3087(7) 0.5214(7) 0.3519(3)
H13 H 0.2377 0.4571 0.3430
C15 C 0.4630(6) 0.4918(6) 0.3629(3)
H14 H 0.4957 0.4079 0.3604
C16 C 0.8348(6) 0.4674(6) 0.3218(3)
C17 C 0.8182(7) 0.3392(6) 0.3130(4)
H15 H 0.7785 0.2909 0.3482
C18 C 0.8595(8) 0.2782(8) 0.2521(4)
H16 H 0.8457 0.1912 0.2470
C19 C 0.9193(8) 0.3478(9) 0.2012(4)
H17 H 0.9462 0.3084 0.1608
C20 C 0.9410(7) 0.4763(9) 0.2085(3)
H18 H 0.9840 0.5231 0.1734
C21 C 0.8978(6) 0.5370(8) 0.2692(3)
H19 H 0.9117 0.6241 0.2740
P2 P 0.33109(17) 0.63027(16) 0.96021(8)
O4 O -0.0411(6) 0.4183(6) 0.9108(3)
O5 O -0.1045(11) 0.4558(10) 1.0167(4)
H20 H -0.0828 0.3895 1.0365
O6 O 0.1897(4) 0.7097(4) 0.94999(19)
C22 C 0.0684(9) 0.4234(6) 0.8600(3)
C23 C 0.0072(11) 0.4070(7) 0.7933(4)
H21 H -0.0981 0.3942 0.7870
C24 C 0.1019(14) 0.4102(8) 0.7383(4)
H22 H 0.0627 0.3972 0.6947
C25 C 0.2521(13) 0.4321(8) 0.7484(4)
H23 H 0.3163 0.4362 0.7109
C26 C 0.3166(9) 0.4493(7) 0.8130(4)
H24 H 0.4222 0.4625 0.8179
C27 C 0.2220(8) 0.4465(6) 0.8708(3)
C28 C 0.2849(7) 0.4627(6) 0.9431(3)
H25 H 0.3791 0.4121 0.9482
C29 C 0.1627(9) 0.4131(7) 0.9938(3)
H26 H 0.1984 0.4272 1.0400
H27 H 0.1482 0.3225 0.9874
C30 C -0.0004(8) 0.4866(14) 0.9813(4)
H28 H 0.0109 0.5788 0.9771
C31 C 0.4831(6) 0.6791(6) 0.9046(3)
C32 C 0.6196(7) 0.6149(8) 0.8951(3)
H29 H 0.6387 0.5403 0.9189
C33 C 0.7302(7) 0.6612(9) 0.8497(4)
H30 H 0.8222 0.6175 0.8434
C34 C 0.7017(8) 0.7700(9) 0.8151(4)
H31 H 0.7758 0.8011 0.7857
C35 C 0.5679(8) 0.8344(8) 0.8224(4)
H32 H 0.5486 0.9076 0.7974
C36 C 0.4600(7) 0.7892(6) 0.8680(3)
H33 H 0.3691 0.8346 0.8740
C37 C 0.4041(7) 0.6423(6) 1.0463(3)
C38 C 0.5567(8) 0.6180(8) 1.0643(3)
H34 H 0.6264 0.5921 1.0315
C39 C 0.6053(9) 0.6323(8) 1.1313(4)
H35 H 0.7082 0.6182 1.1427
C40 C 0.5042(12) 0.6667(7) 1.1805(4)
H36 H 0.5371 0.6716 1.2255
C41 C 0.3543(11) 0.6941(9) 1.1637(4)
H37 H 0.2856 0.7210 1.1967
C42 C 0.3068(8) 0.6811(8) 1.0969(3)
H38 H 0.2047 0.6993 1.0856
loop_
_geom_bond_atom_site_label_1
_geom_bond_atom_site_label_2
_geom_bond_site_symmetry_1
_geom_bond_site_symmetry_2
P1 O3 1_555 1_555
O1 C1 1_555 1_555
O2 H1 1_555 1_555
C1 C2 1_555 1_555
C2 H2 1_555 1_555
C3 C2 1_555 1_555
H3 C3 1_555 1_555
C4 C3 1_555 1_555
H4 C4 1_555 1_555
C5 C4 1_555 1_555
H5 C5 1_555 1_555
C6 C1 1_555 1_555
C7 P1 1_555 1_555
H6 C7 1_555 1_555
C8 C7 1_555 1_555
H7 C8 1_555 1_555
H8 C8 1_555 1_555
C9 O1 1_555 1_555
H9 C9 1_555 1_555
C10 P1 1_555 1_555
C11 C10 1_555 1_555
H10 C11 1_555 1_555
C12 C11 1_555 1_555
H11 C12 1_555 1_555
C13 C12 1_555 1_555
H12 C13 1_555 1_555
C14 C13 1_555 1_555
H13 C14 1_555 1_555
C15 C10 1_555 1_555
H14 C15 1_555 1_555
C16 P1 1_555 1_555
C17 C16 1_555 1_555
H15 C17 1_555 1_555
C18 C17 1_555 1_555
H16 C18 1_555 1_555
C19 C18 1_555 1_555
H17 C19 1_555 1_555
C20 C19 1_555 1_555
H18 C20 1_555 1_555
C21 C16 1_555 1_555
H19 C21 1_555 1_555
P2 O6 1_555 1_555
O4 C22 1_555 1_555
O5 H20 1_555 1_555
C22 C23 1_555 1_555
C23 H21 1_555 1_555
C24 C23 1_555 1_555
H22 C24 1_555 1_555
C25 C24 1_555 1_555
H23 C25 1_555 1_555
C26 C25 1_555 1_555
H24 C26 1_555 1_555
C27 C22 1_555 1_555
C28 P2 1_555 1_555
H25 C28 1_555 1_555
C29 C28 1_555 1_555
H26 C29 1_555 1_555
H27 C29 1_555 1_555
C30 O4 1_555 1_555
H28 C30 1_555 1_555
C31 P2 1_555 1_555
C32 C31 1_555 1_555
H29 C32 1_555 1_555
C33 C32 1_555 1_555
H30 C33 1_555 1_555
C34 C33 1_555 1_555
H31 C34 1_555 1_555
C35 C34 1_555 1_555
H32 C35 1_555 1_555
C36 C31 1_555 1_555
H33 C36 1_555 1_555
C37 P2 1_555 1_555
C38 C37 1_555 1_555
H34 C38 1_555 1_555
C39 C38 1_555 1_555
H35 C39 1_555 1_555
C40 C39 1_555 1_555
H36 C40 1_555 1_555
C41 C40 1_555 1_555
H37 C41 1_555 1_555
C42 C37 1_555 1_555
H38 C42 1_555 1_555
O2 C9 1_555 1_555
C5 C6 1_555 1_555
C6 C7 1_555 1_555
C8 C9 1_555 1_555
C14 C15 1_555 1_555
C20 C21 1_555 1_555
O5 C30 1_555 1_555
C26 C27 1_555 1_555
C27 C28 1_555 1_555
C29 C30 1_555 1_555
C35 C36 1_555 1_555
C41 C42 1_555 1_555

#END
