
#######################################################################
#
#                 Cambridge Crystallographic Data Centre
#                                CCDC 
#
#######################################################################
#
# If this CIF has been generated from an entry in the Cambridge 
# Structural Database, then it will include bibliographic, chemical, 
# crystal, experimental, refinement or atomic coordinate data resulting 
# from the CCDC's data processing and validation procedures.
#
#######################################################################

data_QILXIU
_chemical_formula_moiety         'C15 H15 N1 O2 S1'
_chemical_name_systematic        N-(2-Phenylprop-2-en-1-yl)benzenesulfonamide
_symmetry_cell_setting           monoclinic
_symmetry_space_group_name_H-M   'C 2/c'
_symmetry_Int_Tables_number      15
_space_group_name_Hall           '-C 2yn'
loop_
_symmetry_equiv_pos_site_id
_symmetry_equiv_pos_as_xyz
1 x,y,z
2 -x,y,1/2-z
3 1/2+x,1/2+y,z
4 1/2-x,1/2+y,1/2-z
5 -x,-y,-z
6 x,-y,1/2+z
7 1/2-x,1/2-y,-z
8 1/2+x,1/2-y,1/2+z
_cell_length_a                   18.2298(11)
_cell_length_b                   8.4545(4)
_cell_length_c                   18.1304(9)
_cell_angle_alpha                90
_cell_angle_beta                 93.618(4)
_cell_angle_gamma                90
_cell_volume                     2788.76
_exptl_crystal_colour            colorless
_exptl_crystal_description       block
_cell_formula_units_Z            8
loop_
_atom_site_label
_atom_site_type_symbol
_atom_site_fract_x
_atom_site_fract_y
_atom_site_fract_z
C1 C 0.30290(13) 0.3285(3) -0.14057(13)
H1 H 0.2871 0.3899 -0.1021
C2 C 0.27974(15) 0.1733(3) -0.14741(16)
H2 H 0.2488 0.1314 -0.1135
C3 C 0.30205(16) 0.0810(3) -0.20359(16)
H3 H 0.2858 -0.0228 -0.2090
C4 C 0.34870(19) 0.1441(3) -0.25176(15)
H4 H 0.3647 0.0819 -0.2899
C5 C 0.37216(15) 0.2968(3) -0.24483(13)
H5 H 0.4045 0.3363 -0.2780
C6 C 0.34899(11) 0.3943(2) -0.18972(10)
C7 C 0.37209(11) 0.5625(3) -0.18444(10)
C8 C 0.39961(18) 0.6405(4) -0.23930(15)
C9 C 0.36131(12) 0.6493(2) -0.11362(11)
H6 H 0.3759 0.7589 -0.1185
H7 H 0.3098 0.6469 -0.1032
C10 C 0.41234(9) 0.7997(2) 0.05563(9)
C11 C 0.47949(11) 0.8302(2) 0.09195(11)
H8 H 0.5120 0.7479 0.1039
C12 C 0.49794(14) 0.9837(3) 0.11031(14)
H9 H 0.5429 1.0050 0.1354
C13 C 0.45101(15) 1.1045(3) 0.09214(14)
H10 H 0.4639 1.2076 0.1053
C14 C 0.38509(15) 1.0752(3) 0.05466(14)
H11 H 0.3539 1.1590 0.0414
C15 C 0.36400(12) 0.9214(3) 0.03604(11)
H12 H 0.3188 0.9008 0.0112
N1 N 0.40569(9) 0.57484(19) -0.05242(8)
H13 H 0.4418 0.5145 -0.0623
O1 O 0.43738(8) 0.50175(15) 0.07488(7)
O2 O 0.31087(8) 0.58763(18) 0.03732(8)
S1 S 0.38831(3) 0.60353(5) 0.03220(2)
H14 H 0.4042(15) 0.591(3) -0.2863(16)
H15 H 0.4158(14) 0.752(3) -0.2315(13)
loop_
_geom_bond_atom_site_label_1
_geom_bond_atom_site_label_2
_geom_bond_site_symmetry_1
_geom_bond_site_symmetry_2
C1 H1 1_555 1_555
C2 C1 1_555 1_555
H2 C2 1_555 1_555
C3 C2 1_555 1_555
H3 C3 1_555 1_555
C4 C3 1_555 1_555
H4 C4 1_555 1_555
C5 C4 1_555 1_555
H5 C5 1_555 1_555
C6 C1 1_555 1_555
C7 C6 1_555 1_555
C8 C7 1_555 1_555
C9 C7 1_555 1_555
H6 C9 1_555 1_555
H7 C9 1_555 1_555
C10 C11 1_555 1_555
C11 H8 1_555 1_555
C12 C11 1_555 1_555
H9 C12 1_555 1_555
C13 C12 1_555 1_555
H10 C13 1_555 1_555
C14 C13 1_555 1_555
H11 C14 1_555 1_555
C15 C10 1_555 1_555
H12 C15 1_555 1_555
N1 C9 1_555 1_555
H13 N1 1_555 1_555
O1 S1 1_555 1_555
O2 S1 1_555 1_555
S1 C10 1_555 1_555
H14 C8 1_555 1_555
H15 C8 1_555 1_555
C5 C6 1_555 1_555
C14 C15 1_555 1_555
N1 S1 1_555 1_555

#END
