
#######################################################################
#
#                 Cambridge Crystallographic Data Centre
#                                CCDC 
#
#######################################################################
#
# If this CIF has been generated from an entry in the Cambridge 
# Structural Database, then it will include bibliographic, chemical, 
# crystal, experimental, refinement or atomic coordinate data resulting 
# from the CCDC's data processing and validation procedures.
#
#######################################################################

data_QILYOB
_chemical_formula_moiety         'C22 H19 N3'
_chemical_name_systematic        
N-(4-methylphenyl)-3-((4-methylphenyl)imino)-3H-indol-2-amine
_symmetry_cell_setting           monoclinic
_symmetry_space_group_name_H-M   'P 21/c'
_symmetry_Int_Tables_number      14
_space_group_name_Hall           '-P 2ybc'
loop_
_symmetry_equiv_pos_site_id
_symmetry_equiv_pos_as_xyz
1 x,y,z
2 -x,1/2+y,1/2-z
3 -x,-y,-z
4 x,1/2-y,1/2+z
_cell_length_a                   12.480(5)
_cell_length_b                   16.462(6)
_cell_length_c                   8.795(3)
_cell_angle_alpha                90
_cell_angle_beta                 103.289(9)
_cell_angle_gamma                90
_cell_volume                     1758.51
_exptl_crystal_colour            colorless
_exptl_crystal_description       block
_cell_formula_units_Z            4
loop_
_atom_site_label
_atom_site_type_symbol
_atom_site_fract_x
_atom_site_fract_y
_atom_site_fract_z
N1 N 1.0249(3) 0.8450(2) 1.1021(4)
N2 N 1.0654(3) 0.7423(3) 0.9349(5)
N3 N 0.8872(3) 0.8048(2) 0.7140(4)
C1 C 1.0079(3) 0.8053(3) 0.9707(5)
C2 C 0.9106(3) 0.8364(3) 0.8507(5)
C3 C 0.8700(3) 0.9036(3) 0.9308(5)
C4 C 0.9419(3) 0.9073(3) 1.0770(5)
C5 C 0.9330(4) 0.9674(3) 1.1813(5)
H1 H 0.9809 0.9695 1.2793
C6 C 0.8505(4) 1.0252(3) 1.1364(6)
H2 H 0.8440 1.0668 1.2052
C7 C 0.7792(4) 1.0222(3) 0.9940(7)
H3 H 0.7244 1.0614 0.9674
C8 C 0.7875(4) 0.9615(3) 0.8885(6)
H4 H 0.7387 0.9595 0.7911
C9 C 1.1611(3) 0.7055(3) 1.0256(4)
C10 C 1.3143(3) 0.6996(3) 1.2427(5)
H5 H 1.3532 0.7223 1.3360
C11 C 1.2209(3) 0.7386(3) 1.1608(5)
H6 H 1.1988 0.7873 1.1977
C12 C 1.3523(3) 0.6282(3) 1.1911(5)
C13 C 1.2922(4) 0.5962(3) 1.0544(5)
H7 H 1.3160 0.5485 1.0162
C14 C 1.1972(4) 0.6330(3) 0.9717(5)
H8 H 1.1572 0.6094 0.8800
C15 C 1.4550(4) 0.5875(4) 1.2847(6)
H9 H 1.4863 0.5538 1.2171
H10 H 1.4365 0.5548 1.3653
H11 H 1.5075 0.6282 1.3313
C16 C 0.7913(4) 0.8269(3) 0.6014(5)
C17 C 0.8004(4) 0.8573(3) 0.4585(5)
H12 H 0.8698 0.8681 0.4412
C18 C 0.7088(4) 0.8719(3) 0.3417(5)
H13 H 0.7172 0.8926 0.2468
C19 C 0.6049(4) 0.8566(3) 0.3619(5)
C20 C 0.5957(4) 0.8267(3) 0.5036(6)
H14 H 0.5261 0.8155 0.5197
C21 C 0.6874(4) 0.8127(3) 0.6236(6)
H15 H 0.6786 0.7936 0.7195
C22 C 0.5031(5) 0.8675(4) 0.2300(7)
H16 H 0.5206 0.9019 0.1509
H17 H 0.4455 0.8920 0.2702
H18 H 0.4790 0.8155 0.1856
H19 H 1.044(3) 0.723(3) 0.847(5)
loop_
_geom_bond_atom_site_label_1
_geom_bond_atom_site_label_2
_geom_bond_site_symmetry_1
_geom_bond_site_symmetry_2
N1 C1 1_555 1_555
N2 C1 1_555 1_555
N3 C2 1_555 1_555
C1 C2 1_555 1_555
C2 C3 1_555 1_555
C3 C4 1_555 1_555
C4 N1 1_555 1_555
C5 C4 1_555 1_555
H1 C5 1_555 1_555
C6 C5 1_555 1_555
H2 C6 1_555 1_555
C7 C6 1_555 1_555
H3 C7 1_555 1_555
C8 C3 1_555 1_555
H4 C8 1_555 1_555
C9 N2 1_555 1_555
C10 H5 1_555 1_555
C11 C9 1_555 1_555
H6 C11 1_555 1_555
C12 C10 1_555 1_555
C13 C12 1_555 1_555
H7 C13 1_555 1_555
C14 C9 1_555 1_555
H8 C14 1_555 1_555
C15 C12 1_555 1_555
H9 C15 1_555 1_555
H10 C15 1_555 1_555
H11 C15 1_555 1_555
C16 N3 1_555 1_555
C17 C16 1_555 1_555
H12 C17 1_555 1_555
C18 C17 1_555 1_555
H13 C18 1_555 1_555
C19 C18 1_555 1_555
C20 C19 1_555 1_555
H14 C20 1_555 1_555
C21 C16 1_555 1_555
H15 C21 1_555 1_555
C22 C19 1_555 1_555
H16 C22 1_555 1_555
H17 C22 1_555 1_555
H18 C22 1_555 1_555
H19 N2 1_555 1_555
C7 C8 1_555 1_555
C10 C11 1_555 1_555
C13 C14 1_555 1_555
C20 C21 1_555 1_555

#END
