
#######################################################################
#
#                 Cambridge Crystallographic Data Centre
#                                CCDC 
#
#######################################################################
#
# If this CIF has been generated from an entry in the Cambridge 
# Structural Database, then it will include bibliographic, chemical, 
# crystal, experimental, refinement or atomic coordinate data resulting 
# from the CCDC's data processing and validation procedures.
#
#######################################################################

data_QILYIV
_chemical_formula_moiety         'C23 H23 N3,C4 H8 O2'
_chemical_name_systematic        
"3-methyl-N,N'-bis(4-methylphenyl)-3H-indole-2,3-diamine ethyl acetate solvate"
_symmetry_cell_setting           monoclinic
_symmetry_space_group_name_H-M   'C 2/c'
_symmetry_Int_Tables_number      15
_space_group_name_Hall           '-C 2yn'
loop_
_symmetry_equiv_pos_site_id
_symmetry_equiv_pos_as_xyz
1 x,y,z
2 -x,y,1/2-z
3 1/2+x,1/2+y,z
4 1/2-x,1/2+y,1/2-z
5 -x,-y,-z
6 x,-y,1/2+z
7 1/2-x,1/2-y,-z
8 1/2+x,1/2-y,1/2+z
_cell_length_a                   23.0116(14)
_cell_length_b                   11.7702(10)
_cell_length_c                   17.9128(10)
_cell_angle_alpha                90
_cell_angle_beta                 92.626(5)
_cell_angle_gamma                90
_cell_volume                     4846.61
_exptl_crystal_colour            colorless
_exptl_crystal_description       block
_cell_formula_units_Z            8
loop_
_atom_site_label
_atom_site_type_symbol
_atom_site_fract_x
_atom_site_fract_y
_atom_site_fract_z
N1 N 0.27088(6) 1.03535(13) 0.20057(7)
H1 H 0.2840 1.1027 0.2092
N2 N 0.21682(6) 0.79966(12) 0.30002(7)
N3 N 0.31010(6) 0.88194(13) 0.32205(7)
H2 H 0.3322 0.9336 0.3046
C1 C 0.25480(7) 0.88070(15) 0.29340(8)
C2 C 0.17307(7) 0.94231(15) 0.22506(9)
C3 C 0.28881(7) 0.97950(16) 0.13737(9)
C4 C 0.16622(7) 0.83620(15) 0.25738(9)
C5 C 0.23162(7) 0.98773(15) 0.25281(9)
C6 C 0.32189(8) 1.03900(18) 0.08698(10)
H3 H 0.3289 1.1162 0.0941
C7 C 0.33669(8) 0.80998(15) 0.37681(9)
C8 C 0.30115(8) 0.81179(18) 0.06236(9)
H4 H 0.2937 0.7350 0.0545
C9 C 0.27758(8) 0.86532(16) 0.12285(9)
H5 H 0.2540 0.8245 0.1541
C10 C 0.39681(8) 0.81617(18) 0.38840(9)
H6 H 0.4185 0.8628 0.3583
C11 C 0.07095(8) 0.82497(19) 0.20152(10)
H7 H 0.0360 0.7862 0.1932
C12 C 0.12919(8) 0.99035(17) 0.18062(10)
H8 H 0.1339 1.0613 0.1589
C13 C 0.30515(9) 0.73966(17) 0.42185(9)
H9 H 0.2649 0.7347 0.4147
C14 C 0.33362(10) 0.67687(19) 0.47753(10)
H10 H 0.3120 0.6297 0.5074
C15 C 0.22237(9) 1.07777(17) 0.31281(10)
H11 H 0.2593 1.0994 0.3356
H12 H 0.1982 1.0472 0.3502
H13 H 0.2038 1.1432 0.2903
C16 C 0.07781(9) 0.92974(19) 0.16927(11)
H14 H 0.0476 0.9604 0.1394
C17 C 0.11506(8) 0.77542(17) 0.24637(10)
H15 H 0.1103 0.7044 0.2680
C18 C 0.34433(9) 0.9838(2) 0.02659(10)
H16 H 0.3662 1.0253 -0.0063
C19 C 0.33541(9) 0.8688(2) 0.01323(9)
C20 C 0.42416(9) 0.7532(2) 0.44445(10)
H17 H 0.4643 0.7585 0.4518
C21 C 0.39347(10) 0.68221(19) 0.49016(10)
C22 C 0.36328(11) 0.8089(2) -0.05020(11)
H18 H 0.4021 0.7863 -0.0347
H19 H 0.3647 0.8592 -0.0922
H20 H 0.3408 0.7428 -0.0641
C23 C 0.42393(13) 0.6118(3) 0.55060(14)
H21 H 0.4021 0.6144 0.5950
H22 H 0.4622 0.6418 0.5613
H23 H 0.4268 0.5346 0.5339
O1 O 0.54494(6) 0.85785(12) 0.34880(7)
O2 O 0.57675(6) 0.98450(14) 0.26708(8)
C24 C 0.55172(8) 0.96302(18) 0.32280(11)
C25 C 0.57181(9) 0.76742(19) 0.30696(11)
H24 H 0.6134 0.7804 0.3052
H25 H 0.5553 0.7653 0.2562
C26 C 0.52309(10) 1.0485(2) 0.37063(14)
H26 H 0.4859 1.0688 0.3480
H27 H 0.5471 1.1150 0.3754
H28 H 0.5178 1.0166 0.4192
C27 C 0.56059(12) 0.6588(2) 0.34535(14)
H29 H 0.5763 0.6624 0.3959
H30 H 0.5787 0.5978 0.3195
H31 H 0.5194 0.6457 0.3456
loop_
_geom_bond_atom_site_label_1
_geom_bond_atom_site_label_2
_geom_bond_site_symmetry_1
_geom_bond_site_symmetry_2
N1 H1 1_555 1_555
N2 C1 1_555 1_555
N3 H2 1_555 1_555
C1 N3 1_555 1_555
C2 C4 1_555 1_555
C3 N1 1_555 1_555
C4 N2 1_555 1_555
C5 N1 1_555 1_555
C6 C3 1_555 1_555
H3 C6 1_555 1_555
C7 N3 1_555 1_555
C8 H4 1_555 1_555
C9 C3 1_555 1_555
H5 C9 1_555 1_555
C10 C7 1_555 1_555
H6 C10 1_555 1_555
C11 H7 1_555 1_555
C12 C2 1_555 1_555
H8 C12 1_555 1_555
C13 C7 1_555 1_555
H9 C13 1_555 1_555
C14 C13 1_555 1_555
H10 C14 1_555 1_555
C15 C5 1_555 1_555
H11 C15 1_555 1_555
H12 C15 1_555 1_555
H13 C15 1_555 1_555
C16 C11 1_555 1_555
H14 C16 1_555 1_555
C17 C4 1_555 1_555
H15 C17 1_555 1_555
C18 C6 1_555 1_555
H16 C18 1_555 1_555
C19 C8 1_555 1_555
C20 C10 1_555 1_555
H17 C20 1_555 1_555
C21 C14 1_555 1_555
C22 C19 1_555 1_555
H18 C22 1_555 1_555
H19 C22 1_555 1_555
H20 C22 1_555 1_555
C23 C21 1_555 1_555
H21 C23 1_555 1_555
H22 C23 1_555 1_555
H23 C23 1_555 1_555
O1 C24 1_555 1_555
O2 C24 1_555 1_555
C24 C26 1_555 1_555
C25 O1 1_555 1_555
H24 C25 1_555 1_555
H25 C25 1_555 1_555
C26 H26 1_555 1_555
H27 C26 1_555 1_555
H28 C26 1_555 1_555
C27 C25 1_555 1_555
H29 C27 1_555 1_555
H30 C27 1_555 1_555
H31 C27 1_555 1_555
C1 C5 1_555 1_555
C2 C5 1_555 1_555
C8 C9 1_555 1_555
C11 C17 1_555 1_555
C12 C16 1_555 1_555
C18 C19 1_555 1_555
C20 C21 1_555 1_555

#END
