
#######################################################################
#
#                 Cambridge Crystallographic Data Centre
#                                CCDC 
#
#######################################################################
#
# If this CIF has been generated from an entry in the Cambridge 
# Structural Database, then it will include bibliographic, chemical, 
# crystal, experimental, refinement or atomic coordinate data resulting 
# from the CCDC's data processing and validation procedures.
#
#######################################################################

data_QILZUG
_chemical_formula_moiety         'C17 H25 N1 O10 S1'
_chemical_name_systematic        
'O-ethyl N-(2,3,4,6-tetra-O-acetyl-\b-D-glucopyranosyl)thiocarbamate'
_symmetry_cell_setting           monoclinic
_symmetry_space_group_name_H-M   'P 21'
_symmetry_Int_Tables_number      4
_space_group_name_Hall           'P 2yb'
loop_
_symmetry_equiv_pos_site_id
_symmetry_equiv_pos_as_xyz
1 x,y,z
2 -x,1/2+y,-z
_cell_length_a                   7.7492(2)
_cell_length_b                   10.4470(3)
_cell_length_c                   14.3852(3)
_cell_angle_alpha                90
_cell_angle_beta                 100.8100(10)
_cell_angle_gamma                90
_cell_volume                     1143.9
_exptl_crystal_colour            colorless
_exptl_crystal_description       parallelepiped
_cell_formula_units_Z            2
loop_
_atom_site_label
_atom_site_type_symbol
_atom_site_fract_x
_atom_site_fract_y
_atom_site_fract_z
S1 S 0.54892(17) 0.41399(11) 0.68914(9)
O1 O 0.4248(3) 0.7520(2) 0.67308(15)
O2 O 0.4085(4) 0.6917(3) 0.92413(18)
O3 O 0.5855(7) 0.8385(5) 1.0070(2)
O4 O 0.1738(3) 0.9040(3) 0.87532(16)
O5 O -0.0952(5) 0.8271(5) 0.8781(3)
O6 O -0.0114(3) 0.8894(2) 0.67380(16)
O7 O 0.0183(5) 1.1020(3) 0.6976(4)
O8 O 0.2991(3) 0.9635(2) 0.54130(18)
O9 O 0.0417(4) 1.0440(4) 0.4639(3)
C1 C 0.4486(4) 0.6790(3) 0.7602(2)
H1 H 0.3712 0.6041 0.7513
C2 C 0.3987(4) 0.7655(3) 0.8376(2)
H2 H 0.4778 0.8394 0.8488
C3 C 0.2075(4) 0.8103(3) 0.8068(2)
H3 H 0.1282 0.7372 0.8070
C4 C 0.1765(4) 0.8705(3) 0.7081(2)
H4 H 0.2381 0.9526 0.7102
C5 C 0.2428(4) 0.7787(3) 0.6370(2)
H5 H 0.1763 0.6985 0.6336
C6 C 0.5073(6) 0.7404(5) 1.0049(3)
C7 C 0.4978(7) 0.6552(5) 1.0893(3)
H6 H 0.4821 0.5678 1.0686
H7 H 0.4005 0.6809 1.1175
H8 H 0.6048 0.6628 1.1349
C8 C 0.0176(5) 0.9053(5) 0.9042(3)
C9 C 0.0058(8) 1.0167(7) 0.9677(4)
H12 H 0.1140 1.0639 0.9770
H13 H -0.0149 0.9865 1.0277
H14 H -0.0892 1.0714 0.9394
C10 C -0.0754(5) 1.0119(4) 0.6721(3)
C11 C -0.2685(6) 1.0154(5) 0.6351(4)
H15 H -0.2998 0.9483 0.5894
H16 H -0.2999 1.0967 0.6055
H17 H -0.3302 1.0035 0.6864
C12 C 0.2244(5) 0.8342(4) 0.5378(3)
H21 H 0.2846 0.7794 0.4998
H22 H 0.1012 0.8372 0.5083
C13 C 0.1950(6) 1.0590(4) 0.4987(3)
C14 C 0.2937(6) 1.1830(5) 0.5060(4)
H23 H 0.3959 1.1769 0.5552
H24 H 0.2194 1.2507 0.5206
H25 H 0.3290 1.2009 0.4468
N1 N 0.6291(4) 0.6375(3) 0.7831(2)
C15 C 0.6819(5) 0.5210(4) 0.7519(2)
O10 O 0.8546(4) 0.5099(3) 0.7795(2)
C16 C 0.9330(6) 0.3859(6) 0.7584(4)
H29 H 0.8999 0.3659 0.6916
H30 H 0.8925 0.3174 0.7944
C17 C 1.1273(7) 0.4004(8) 0.7855(7)
H31 H 1.1832 0.3221 0.7725
H32 H 1.1584 0.4196 0.8517
H33 H 1.1655 0.4687 0.7496
H34 H 0.711(4) 0.695(3) 0.807(3)
H9? H 0.5103 0.7073 1.1451
H10? H 0.5913 0.5936 1.0965
H11? H 0.3870 0.6114 1.0800
H18? H -0.3203 1.0840 0.6648
H19? H -0.3198 0.9356 0.6487
H20? H -0.2898 1.0288 0.5679
H26? H 0.2336 1.2422 0.4600
H27? H 0.4102 1.1685 0.4944
H28? H 0.3004 1.2179 0.5683
loop_
_geom_bond_atom_site_label_1
_geom_bond_atom_site_label_2
_geom_bond_site_symmetry_1
_geom_bond_site_symmetry_2
S1 C15 1_555 1_555
O1 C1 1_555 1_555
O2 C2 1_555 1_555
O3 C6 1_555 1_555
O4 C3 1_555 1_555
O5 C8 1_555 1_555
O6 C4 1_555 1_555
O7 C10 1_555 1_555
O8 C12 1_555 1_555
O9 C13 1_555 1_555
C1 H1 1_555 1_555
C2 C1 1_555 1_555
H2 C2 1_555 1_555
C3 C2 1_555 1_555
H3 C3 1_555 1_555
C4 C3 1_555 1_555
H4 C4 1_555 1_555
C5 O1 1_555 1_555
H5 C5 1_555 1_555
C6 O2 1_555 1_555
C7 C6 1_555 1_555
H6 C7 1_555 1_555
H7 C7 1_555 1_555
H8 C7 1_555 1_555
C8 O4 1_555 1_555
C9 C8 1_555 1_555
H12 C9 1_555 1_555
H13 C9 1_555 1_555
H14 C9 1_555 1_555
C10 O6 1_555 1_555
C11 C10 1_555 1_555
H15 C11 1_555 1_555
H16 C11 1_555 1_555
H17 C11 1_555 1_555
C12 C5 1_555 1_555
H21 C12 1_555 1_555
H22 C12 1_555 1_555
C13 O8 1_555 1_555
C14 C13 1_555 1_555
H23 C14 1_555 1_555
H24 C14 1_555 1_555
H25 C14 1_555 1_555
N1 C1 1_555 1_555
C15 N1 1_555 1_555
O10 C15 1_555 1_555
C16 O10 1_555 1_555
H29 C16 1_555 1_555
H30 C16 1_555 1_555
C17 C16 1_555 1_555
H31 C17 1_555 1_555
H32 C17 1_555 1_555
H33 C17 1_555 1_555
H34 N1 1_555 1_555
C4 C5 1_555 1_555

#END
