
#######################################################################
#
#                 Cambridge Crystallographic Data Centre
#                                CCDC 
#
#######################################################################
#
# If this CIF has been generated from an entry in the Cambridge 
# Structural Database, then it will include bibliographic, chemical, 
# crystal, experimental, refinement or atomic coordinate data resulting 
# from the CCDC's data processing and validation procedures.
#
#######################################################################

data_QIMGUQ
_chemical_formula_moiety         'C25 H33 N1 O2'
_chemical_name_systematic        
6-(But-3-yn-1-yl)-3-hydroxy-3a,6-dimethyl-3-(pyridin-2-ylmethyl)dodecahydro-7H-cyclopenta[a]naphthalen-7-one
_symmetry_cell_setting           monoclinic
_symmetry_space_group_name_H-M   'P 21'
_symmetry_Int_Tables_number      4
_space_group_name_Hall           'P 2yb'
loop_
_symmetry_equiv_pos_site_id
_symmetry_equiv_pos_as_xyz
1 x,y,z
2 -x,1/2+y,-z
_cell_length_a                   11.138(5)
_cell_length_b                   6.236(5)
_cell_length_c                   15.807(5)
_cell_angle_alpha                90
_cell_angle_beta                 97.437(5)
_cell_angle_gamma                90
_cell_volume                     1088.66
_exptl_crystal_colour            colorless
_exptl_crystal_description       needle
_cell_formula_units_Z            2
loop_
_atom_site_label
_atom_site_type_symbol
_atom_site_fract_x
_atom_site_fract_y
_atom_site_fract_z
C1 C 0.2500(3) 0.4276(6) 0.61406(17)
C2 C 0.2271(3) 0.3677(7) 0.51907(18)
H1 H 0.1501 0.2938 0.5075
H2 H 0.2225 0.4974 0.4849
C3 C 0.3218(3) 0.2320(7) 0.49509(19)
C4 C 0.4005(5) 0.1211(10) 0.4794(3)
C5 C 0.0360(3) 0.4713(6) 0.64307(18)
C6 C -0.0605(3) 0.5902(7) 0.68022(18)
H3 H -0.1353 0.5089 0.6728
H4 H -0.0750 0.7277 0.6520
C7 C -0.0173(3) 0.6230(7) 0.7751(2)
C8 C 0.1038(2) 0.7426(5) 0.78866(17)
C9 C 0.2000(2) 0.6266(5) 0.74409(16)
C10 C 0.1596(2) 0.5790(5) 0.64710(15)
C11 C 0.3238(3) 0.7378(6) 0.76228(18)
C12 C 0.3660(3) 0.7593(6) 0.85776(17)
C13 C 0.2728(2) 0.8782(5) 0.90245(15)
C14 C 0.1505(2) 0.7645(5) 0.88286(16)
C15 C 0.0723(3) 0.8712(7) 0.94357(19)
C16 C 0.1606(3) 0.9153(7) 1.02350(19)
C17 C 0.2911(2) 0.8799(5) 1.00133(16)
C18 C 0.2646(3) 1.1124(5) 0.87168(18)
H5 H 0.3432 1.1777 0.8820
H6 H 0.2092 1.1896 0.9021
H7 H 0.2364 1.1160 0.8117
C19 C 0.1470(3) 0.7871(6) 0.59501(17)
H8 H 0.2258 0.8378 0.5863
H9 H 0.1072 0.8936 0.6253
H10 H 0.1000 0.7601 0.5407
C20 C 0.3460(3) 0.6717(5) 1.04014(17)
C21 C 0.3512(2) 0.6573(5) 1.13602(17)
C22 C 0.3153(3) 0.4769(6) 1.17546(19)
H11 H 0.2857 0.3593 1.1431
C23 C 0.3231(4) 0.4698(7) 1.2626(2)
H12 H 0.2984 0.3482 1.2897
C24 C 0.3670(4) 0.6415(9) 1.3085(2)
H13 H 0.3735 0.6406 1.3678
C25 C 0.4016(4) 0.8162(8) 1.2659(2)
H14 H 0.4309 0.9349 1.2977
N1 N 0.3957(3) 0.8270(5) 1.18104(15)
O1 O 0.0177(2) 0.2893(5) 0.61670(16)
O2 O 0.3694(2) 1.0535(4) 1.03079(14)
H15 H 0.255(2) 0.295(5) 0.6488(17)
H16 H 0.334(3) 0.478(5) 0.6282(17)
H17 H 0.391(3) 1.028(6) 1.080(2)
H18 H -0.071(3) 0.715(6) 0.8014(19)
H19 H -0.007(3) 0.475(6) 0.8034(18)
H20 H 0.092(2) 0.879(5) 0.7652(15)
H21 H 0.2056(18) 0.488(4) 0.7685(12)
H22 H 0.316(3) 0.881(7) 0.7321(19)
H23 H 0.387(2) 0.660(5) 0.7389(16)
H24 H 0.382(2) 0.623(5) 0.8784(15)
H25 H 0.443(3) 0.838(5) 0.8681(16)
H26 H 0.1585(19) 0.620(5) 0.9037(14)
H27 H 0.003(3) 0.794(5) 0.9527(15)
H28 H 0.043(3) 1.002(5) 0.9190(18)
H29 H 0.149(3) 1.050(6) 1.045(2)
H30 H 0.144(2) 0.818(5) 1.0726(17)
H31 H 0.430(3) 0.656(5) 1.0286(16)
H32 H 0.304(2) 0.539(5) 1.0121(17)
H33 H 0.452(4) 0.022(8) 0.472(3)
loop_
_geom_bond_atom_site_label_1
_geom_bond_atom_site_label_2
_geom_bond_site_symmetry_1
_geom_bond_site_symmetry_2
C1 C2 1_555 1_555
C2 H1 1_555 1_555
H2 C2 1_555 1_555
C3 C2 1_555 1_555
C4 C3 1_555 1_555
C5 C6 1_555 1_555
C6 H3 1_555 1_555
H4 C6 1_555 1_555
C7 C6 1_555 1_555
C8 C7 1_555 1_555
C9 C8 1_555 1_555
C10 C1 1_555 1_555
C11 C9 1_555 1_555
C12 C11 1_555 1_555
C13 C12 1_555 1_555
C14 C8 1_555 1_555
C15 C14 1_555 1_555
C16 C15 1_555 1_555
C17 C13 1_555 1_555
C18 C13 1_555 1_555
H5 C18 1_555 1_555
H6 C18 1_555 1_555
H7 C18 1_555 1_555
C19 C10 1_555 1_555
H8 C19 1_555 1_555
H9 C19 1_555 1_555
H10 C19 1_555 1_555
C20 C17 1_555 1_555
C21 C20 1_555 1_555
C22 C21 1_555 1_555
H11 C22 1_555 1_555
C23 C22 1_555 1_555
H12 C23 1_555 1_555
C24 C23 1_555 1_555
H13 C24 1_555 1_555
C25 C24 1_555 1_555
H14 C25 1_555 1_555
N1 C21 1_555 1_555
O1 C5 1_555 1_555
O2 C17 1_555 1_555
H15 C1 1_555 1_555
H16 C1 1_555 1_555
H17 O2 1_555 1_555
H18 C7 1_555 1_555
H19 C7 1_555 1_555
H20 C8 1_555 1_555
H21 C9 1_555 1_555
H22 C11 1_555 1_555
H23 C11 1_555 1_555
H24 C12 1_555 1_555
H25 C12 1_555 1_555
H26 C14 1_555 1_555
H27 C15 1_555 1_555
H28 C15 1_555 1_555
H29 C16 1_555 1_555
H30 C16 1_555 1_555
H31 C20 1_555 1_555
H32 C20 1_555 1_555
H33 C4 1_555 1_555
C5 C10 1_555 1_555
C9 C10 1_555 1_555
C13 C14 1_555 1_555
C16 C17 1_555 1_555
C25 N1 1_555 1_555

#END
