
#######################################################################
#
#                 Cambridge Crystallographic Data Centre
#                                CCDC 
#
#######################################################################
#
# If this CIF has been generated from an entry in the Cambridge 
# Structural Database, then it will include bibliographic, chemical, 
# crystal, experimental, refinement or atomic coordinate data resulting 
# from the CCDC's data processing and validation procedures.
#
#######################################################################

data_QIMKIJ
_chemical_formula_moiety         'C15 H18 O6'
_chemical_name_systematic        
'7-(2,4-dimethoxyphenyl)-4,7-dioxoheptanoic acid'
_symmetry_cell_setting           triclinic
_symmetry_space_group_name_H-M   'P -1'
_symmetry_Int_Tables_number      2
_space_group_name_Hall           '-P 1'
loop_
_symmetry_equiv_pos_site_id
_symmetry_equiv_pos_as_xyz
1 x,y,z
2 -x,-y,-z
_cell_length_a                   5.0684(2)
_cell_length_b                   10.7081(4)
_cell_length_c                   12.5971(4)
_cell_angle_alpha                88.366(3)
_cell_angle_beta                 88.816(3)
_cell_angle_gamma                86.232(3)
_cell_volume                     681.805
_exptl_crystal_colour            colorless
_exptl_crystal_description       lath
_cell_formula_units_Z            2
loop_
_atom_site_label
_atom_site_type_symbol
_atom_site_fract_x
_atom_site_fract_y
_atom_site_fract_z
O1 O -0.61543(17) 0.09077(8) 0.09898(7)
O2 O -0.21354(18) 0.08536(8) 0.02233(7)
H1 H -0.291(4) 0.025(2) -0.0167(17)
O3 O 0.0130(2) 0.36523(9) 0.28901(7)
O4 O 0.53690(18) 0.66149(9) 0.08077(7)
O5 O 0.52529(17) 0.64508(8) 0.41022(7)
O6 O 1.20535(17) 0.92772(8) 0.41404(7)
C1 C -0.3898(2) 0.12658(11) 0.09206(10)
C2 C -0.2904(2) 0.21761(11) 0.16832(10)
H2 H -0.1862 0.1703 0.2236
H3 H -0.4439 0.2617 0.2041
C3 C -0.1191(2) 0.31460(11) 0.11556(9)
H4 H 0.0127 0.2714 0.0678
H5 H -0.2325 0.3733 0.0714
C4 C 0.0238(2) 0.38843(11) 0.19406(10)
C5 C 0.1840(2) 0.49069(11) 0.14600(9)
H6 H 0.0633 0.5537 0.1095
H7 H 0.3084 0.4541 0.0919
C6 C 0.3403(2) 0.55588(11) 0.22768(9)
H8 H 0.2152 0.5996 0.2777
H9 H 0.4485 0.4920 0.2689
C7 C 0.5198(2) 0.64951(11) 0.17775(9)
C8 C 0.6863(2) 0.72441(11) 0.24527(9)
C9 C 0.6957(2) 0.71909(11) 0.35801(9)
C10 C 0.8726(2) 0.78787(11) 0.41088(9)
H10 H 0.8815 0.7815 0.4861
C11 C 1.0376(2) 0.86629(11) 0.35402(10)
C12 C 1.0255(2) 0.87749(11) 0.24366(10)
H11 H 1.1331 0.9329 0.2049
C13 C 0.8527(2) 0.80591(11) 0.19188(10)
H12 H 0.8467 0.8124 0.1166
C14 C 0.4981(3) 0.65486(12) 0.52330(10)
H13 H 0.4537 0.7424 0.5410
H14 H 0.6651 0.6259 0.5565
H15 H 0.3571 0.6030 0.5496
C15 C 1.3633(3) 1.01653(11) 0.35967(10)
H16 H 1.4686 0.9748 0.3033
H17 H 1.4816 1.0513 0.4101
H18 H 1.2478 1.0842 0.3285
loop_
_geom_bond_atom_site_label_1
_geom_bond_atom_site_label_2
_geom_bond_site_symmetry_1
_geom_bond_site_symmetry_2
O1 C1 1_555 1_555
O2 H1 1_555 1_555
O3 C4 1_555 1_555
O4 C7 1_555 1_555
O5 C9 1_555 1_555
O6 C11 1_555 1_555
C1 O2 1_555 1_555
C2 C1 1_555 1_555
H2 C2 1_555 1_555
H3 C2 1_555 1_555
C3 C2 1_555 1_555
H4 C3 1_555 1_555
H5 C3 1_555 1_555
C4 C3 1_555 1_555
C5 C4 1_555 1_555
H6 C5 1_555 1_555
H7 C5 1_555 1_555
C6 C5 1_555 1_555
H8 C6 1_555 1_555
H9 C6 1_555 1_555
C7 C6 1_555 1_555
C8 C7 1_555 1_555
C9 C8 1_555 1_555
C10 C9 1_555 1_555
H10 C10 1_555 1_555
C11 C10 1_555 1_555
C12 C11 1_555 1_555
H11 C12 1_555 1_555
C13 C8 1_555 1_555
H12 C13 1_555 1_555
C14 O5 1_555 1_555
H13 C14 1_555 1_555
H14 C14 1_555 1_555
H15 C14 1_555 1_555
C15 O6 1_555 1_555
H16 C15 1_555 1_555
H17 C15 1_555 1_555
H18 C15 1_555 1_555
C12 C13 1_555 1_555

#END
