
#######################################################################
#
#                 Cambridge Crystallographic Data Centre
#                                CCDC 
#
#######################################################################
#
# If this CIF has been generated from an entry in the Cambridge 
# Structural Database, then it will include bibliographic, chemical, 
# crystal, experimental, refinement or atomic coordinate data resulting 
# from the CCDC's data processing and validation procedures.
#
#######################################################################

data_QIMLIK
_chemical_formula_moiety         'C16 H20 O5'
_chemical_name_systematic        
'7-(4-methoxy-3,5-dimethylphenyl)-4,7-dioxoheptanoic  acid'
_symmetry_cell_setting           triclinic
_symmetry_space_group_name_H-M   'P -1'
_symmetry_Int_Tables_number      2
_space_group_name_Hall           '-P 1'
loop_
_symmetry_equiv_pos_site_id
_symmetry_equiv_pos_as_xyz
1 x,y,z
2 -x,-y,-z
_cell_length_a                   4.8058(2)
_cell_length_b                   10.1740(4)
_cell_length_c                   15.6249(5)
_cell_angle_alpha                98.617(3)
_cell_angle_beta                 92.701(3)
_cell_angle_gamma                102.236(3)
_cell_volume                     735.721
_exptl_crystal_colour            colorless
_exptl_crystal_description       plate
_cell_formula_units_Z            2
loop_
_atom_site_label
_atom_site_type_symbol
_atom_site_fract_x
_atom_site_fract_y
_atom_site_fract_z
O1 O -0.11136(19) 0.93263(9) 0.89730(5)
O2 O 0.3105(2) 1.06995(10) 0.94586(6)
H1 H 0.244(4) 1.069(2) 1.0034(14)
O3 O 0.36694(17) 0.96416(8) 0.62320(5)
O4 O 0.25820(19) 0.64136(9) 0.52055(5)
O5 O 0.48787(18) 0.50730(8) 0.12427(5)
C1 C 0.1254(3) 0.99393(11) 0.88399(7)
C2 C 0.2347(2) 0.99150(12) 0.79526(7)
H2 H 0.4094 0.9545 0.7948
H3 H 0.2880 1.0861 0.7834
C3 C 0.0192(2) 0.90675(12) 0.72350(7)
H4 H -0.1550 0.9441 0.7238
H5 H -0.0351 0.8123 0.7356
C4 C 0.1291(2) 0.90331(11) 0.63403(7)
C5 C -0.0841(2) 0.82359(12) 0.56125(7)
H6 H -0.2452 0.8697 0.5578
H7 H -0.1612 0.7321 0.5757
C6 C 0.0312(2) 0.80609(11) 0.47236(7)
H8 H -0.1300 0.7859 0.4271
H9 H 0.1599 0.8928 0.4649
C7 C 0.1927(2) 0.69318(11) 0.45954(7)
C8 C 0.2716(2) 0.64729(11) 0.37027(7)
C9 C 0.1966(2) 0.70393(11) 0.29927(7)
H10 H 0.0978 0.7759 0.3078
C10 C 0.2631(2) 0.65762(11) 0.21607(7)
C11 C 0.4111(2) 0.55303(11) 0.20597(7)
C12 C 0.4940(2) 0.49468(11) 0.27609(7)
C13 C 0.4213(2) 0.54327(11) 0.35796(7)
H11 H 0.4744 0.5050 0.4064
C14 C 0.1689(3) 0.71694(12) 0.13983(7)
H12 H 0.2974 0.7064 0.0936
H13 H 0.1746 0.8140 0.1581
H14 H -0.0264 0.6691 0.1181
C15 C 0.2661(3) 0.40421(13) 0.07402(8)
H15 H 0.3292 0.3773 0.0165
H16 H 0.0939 0.4401 0.0675
H17 H 0.2237 0.3247 0.1036
C16 C 0.6569(3) 0.38334(12) 0.26264(7)
H18 H 0.6887 0.3523 0.3180
H19 H 0.8414 0.4183 0.2408
H20 H 0.5469 0.3068 0.2204
loop_
_geom_bond_atom_site_label_1
_geom_bond_atom_site_label_2
_geom_bond_site_symmetry_1
_geom_bond_site_symmetry_2
O1 C1 1_555 1_555
O2 H1 1_555 1_555
O3 C4 1_555 1_555
O4 C7 1_555 1_555
O5 C11 1_555 1_555
C1 O2 1_555 1_555
C2 C1 1_555 1_555
H2 C2 1_555 1_555
H3 C2 1_555 1_555
C3 C2 1_555 1_555
H4 C3 1_555 1_555
H5 C3 1_555 1_555
C4 C3 1_555 1_555
C5 C4 1_555 1_555
H6 C5 1_555 1_555
H7 C5 1_555 1_555
C6 C5 1_555 1_555
H8 C6 1_555 1_555
H9 C6 1_555 1_555
C7 C6 1_555 1_555
C8 C7 1_555 1_555
C9 C8 1_555 1_555
H10 C9 1_555 1_555
C10 C9 1_555 1_555
C11 C10 1_555 1_555
C12 C11 1_555 1_555
C13 C8 1_555 1_555
H11 C13 1_555 1_555
C14 C10 1_555 1_555
H12 C14 1_555 1_555
H13 C14 1_555 1_555
H14 C14 1_555 1_555
C15 O5 1_555 1_555
H15 C15 1_555 1_555
H16 C15 1_555 1_555
H17 C15 1_555 1_555
C16 C12 1_555 1_555
H18 C16 1_555 1_555
H19 C16 1_555 1_555
H20 C16 1_555 1_555
C12 C13 1_555 1_555

#END
