
#######################################################################
#
#                 Cambridge Crystallographic Data Centre
#                                CCDC 
#
#######################################################################
#
# If this CIF has been generated from an entry in the Cambridge 
# Structural Database, then it will include bibliographic, chemical, 
# crystal, experimental, refinement or atomic coordinate data resulting 
# from the CCDC's data processing and validation procedures.
#
#######################################################################

data_QIMLEG
_chemical_formula_moiety         'C13 H14 O6'
_chemical_name_systematic        
'7-(2,4-dihydroxyphenyl)-4,7-dioxoheptanoic acid'
_symmetry_cell_setting           monoclinic
_symmetry_space_group_name_H-M   'P 21/c'
_symmetry_Int_Tables_number      14
_space_group_name_Hall           '-P 2ybc'
loop_
_symmetry_equiv_pos_site_id
_symmetry_equiv_pos_as_xyz
1 x,y,z
2 -x,1/2+y,1/2-z
3 -x,-y,-z
4 x,1/2-y,1/2+z
_cell_length_a                   24.2109(19)
_cell_length_b                   5.1133(3)
_cell_length_c                   21.2183(15)
_cell_angle_alpha                90
_cell_angle_beta                 114.664(9)
_cell_angle_gamma                90
_cell_volume                     2387.14
_exptl_crystal_colour            colorless
_exptl_crystal_description       plate
_cell_formula_units_Z            8
loop_
_atom_site_label
_atom_site_type_symbol
_atom_site_fract_x
_atom_site_fract_y
_atom_site_fract_z
O1 O 0.16590(8) 0.3548(5) 0.62883(10)
O2 O 0.20881(9) 0.0217(5) 0.70132(10)
H1 H 0.1691(19) -0.017(10) 0.690(2)
O3 O 0.39517(8) 0.3958(5) 0.70807(10)
O4 O 0.42256(8) 0.4232(5) 0.57739(9)
O5 O 0.47446(9) 0.7721(5) 0.53463(10)
H2 H 0.4421(17) 0.638(9) 0.5393(19)
O6 O 0.68975(9) 0.7665(5) 0.62916(11)
H3 H 0.6838(17) 0.906(9) 0.600(2)
C1 C 0.21106(13) 0.2380(7) 0.66686(14)
C2 C 0.27469(12) 0.3204(7) 0.68121(15)
H4 H 0.2977 0.3469 0.7317
H5 H 0.2733 0.4898 0.6580
C3 C 0.30818(12) 0.1208(7) 0.65630(14)
H6 H 0.3074 -0.0517 0.6771
H7 H 0.2868 0.1030 0.6053
C4 C 0.37331(12) 0.1989(7) 0.67538(13)
C5 C 0.41030(12) 0.0131(7) 0.65260(14)
H8 H 0.3880 -0.0202 0.6023
H9 H 0.4144 -0.1558 0.6770
C6 C 0.47336(12) 0.1150(7) 0.66680(14)
H10 H 0.4931 0.1772 0.7153
H11 H 0.4981 -0.0306 0.6616
C7 C 0.47251(12) 0.3350(7) 0.61899(13)
C8 C 0.52913(12) 0.4461(6) 0.62170(13)
C9 C 0.52744(12) 0.6602(7) 0.57886(14)
C10 C 0.58070(12) 0.7719(7) 0.58091(13)
H12 H 0.5790 0.9185 0.5527
C11 C 0.63617(12) 0.6662(7) 0.62466(14)
C12 C 0.63921(12) 0.4495(7) 0.66690(14)
H13 H 0.6775 0.3768 0.6963
C13 C 0.58670(12) 0.3443(7) 0.66536(14)
H14 H 0.5890 0.1993 0.6944
O7 O 0.32156(8) 0.8048(5) 0.45839(10)
O8 O 0.30091(9) 0.4566(5) 0.50968(10)
H15 H 0.3406(16) 0.449(8) 0.5330(18)
O9 O 0.10255(9) 0.5936(5) 0.31476(10)
O10 O 0.08913(8) 0.5825(5) 0.16068(9)
O11 O 0.03530(9) 0.2273(5) 0.06705(10)
H16 H 0.0640(16) 0.302(8) 0.0958(18)
O12 O -0.17840(9) 0.2812(5) -0.05363(10)
H17 H -0.177(2) 0.134(12) -0.077(3)
C14 C 0.28536(13) 0.6435(7) 0.46136(14)
C15 C 0.21926(12) 0.6280(7) 0.41403(14)
H18 H 0.1956 0.6598 0.4418
H19 H 0.2102 0.4476 0.3956
C16 C 0.19705(12) 0.8163(7) 0.35320(13)
H20 H 0.2037 0.9980 0.3709
H21 H 0.2212 0.7904 0.3258
C17 C 0.13076(12) 0.7784(7) 0.30687(13)
C18 C 0.10019(12) 0.9797(7) 0.25116(13)
H22 H 0.1260 1.0132 0.2261
H23 H 0.0966 1.1456 0.2732
C19 C 0.03694(12) 0.8942(7) 0.19909(14)
H24 H 0.0131 0.8362 0.2247
H25 H 0.0158 1.0461 0.1702
C20 C 0.03914(12) 0.6757(7) 0.15255(13)
C21 C -0.01729(12) 0.5720(7) 0.09944(13)
C22 C -0.01667(12) 0.3540(7) 0.05842(14)
C23 C -0.06998(12) 0.2535(6) 0.00787(13)
H26 H -0.0687 0.1053 -0.0185
C24 C -0.12483(12) 0.3700(7) -0.00389(13)
C25 C -0.12753(12) 0.5878(7) 0.03493(14)
H27 H -0.1654 0.6685 0.0261
C26 C -0.07464(12) 0.6832(7) 0.08596(13)
H28 H -0.0767 0.8280 0.1130
loop_
_geom_bond_atom_site_label_1
_geom_bond_atom_site_label_2
_geom_bond_site_symmetry_1
_geom_bond_site_symmetry_2
O1 C1 1_555 1_555
O2 H1 1_555 1_555
O3 C4 1_555 1_555
O4 C7 1_555 1_555
O5 H2 1_555 1_555
O6 H3 1_555 1_555
C1 O2 1_555 1_555
C2 C1 1_555 1_555
H4 C2 1_555 1_555
H5 C2 1_555 1_555
C3 C2 1_555 1_555
H6 C3 1_555 1_555
H7 C3 1_555 1_555
C4 C3 1_555 1_555
C5 C4 1_555 1_555
H8 C5 1_555 1_555
H9 C5 1_555 1_555
C6 C5 1_555 1_555
H10 C6 1_555 1_555
H11 C6 1_555 1_555
C7 C6 1_555 1_555
C8 C7 1_555 1_555
C9 O5 1_555 1_555
C10 C9 1_555 1_555
H12 C10 1_555 1_555
C11 O6 1_555 1_555
C12 C11 1_555 1_555
H13 C12 1_555 1_555
C13 C8 1_555 1_555
H14 C13 1_555 1_555
O7 C14 1_555 1_555
O8 H15 1_555 1_555
O9 C17 1_555 1_555
O10 C20 1_555 1_555
O11 H16 1_555 1_555
O12 H17 1_555 1_555
C14 O8 1_555 1_555
C15 C14 1_555 1_555
H18 C15 1_555 1_555
H19 C15 1_555 1_555
C16 C15 1_555 1_555
H20 C16 1_555 1_555
H21 C16 1_555 1_555
C17 C16 1_555 1_555
C18 C17 1_555 1_555
H22 C18 1_555 1_555
H23 C18 1_555 1_555
C19 C18 1_555 1_555
H24 C19 1_555 1_555
H25 C19 1_555 1_555
C20 C19 1_555 1_555
C21 C20 1_555 1_555
C22 O11 1_555 1_555
C23 C22 1_555 1_555
H26 C23 1_555 1_555
C24 O12 1_555 1_555
C25 C24 1_555 1_555
H27 C25 1_555 1_555
C26 C21 1_555 1_555
H28 C26 1_555 1_555
C8 C9 1_555 1_555
C10 C11 1_555 1_555
C12 C13 1_555 1_555
C21 C22 1_555 1_555
C23 C24 1_555 1_555
C25 C26 1_555 1_555

#END
