
#######################################################################
#
#                 Cambridge Crystallographic Data Centre
#                                CCDC 
#
#######################################################################
#
# If this CIF has been generated from an entry in the Cambridge 
# Structural Database, then it will include bibliographic, chemical, 
# crystal, experimental, refinement or atomic coordinate data resulting 
# from the CCDC's data processing and validation procedures.
#
#######################################################################

data_QIMLAC
_chemical_formula_moiety         'C13 H14 O5'
_chemical_name_systematic        '7-(2-hydroxyphenyl)-4,7-dioxoheptanoic acid'
_symmetry_cell_setting           triclinic
_symmetry_space_group_name_H-M   'P -1'
_symmetry_Int_Tables_number      2
_space_group_name_Hall           '-P 1'
loop_
_symmetry_equiv_pos_site_id
_symmetry_equiv_pos_as_xyz
1 x,y,z
2 -x,-y,-z
_cell_length_a                   4.81390(10)
_cell_length_b                   9.0144(2)
_cell_length_c                   14.1469(3)
_cell_angle_alpha                105.211(2)
_cell_angle_beta                 94.803(2)
_cell_angle_gamma                99.123(2)
_cell_volume                     579.813
_exptl_crystal_colour            colorless
_exptl_crystal_description       plate
_cell_formula_units_Z            2
loop_
_atom_site_label
_atom_site_type_symbol
_atom_site_fract_x
_atom_site_fract_y
_atom_site_fract_z
O1 O 0.8713(2) 0.31458(11) 0.92367(7)
O2 O 0.7279(2) 0.53666(11) 0.92685(9)
H1 H 0.860(9) 0.570(2) 0.973(3)
O3 O 0.19590(15) 0.15519(9) 0.61456(5)
O4 O 0.15117(15) 0.37738(8) 0.45770(5)
O5 O -0.21800(16) 0.43493(9) 0.33430(5)
H2 H -0.1117 0.4569 0.3925
C1 C 0.7112(2) 0.39099(13) 0.89079(8)
C2 C 0.4953(2) 0.30816(14) 0.80204(8)
H3 H 0.3244 0.3566 0.8062
H4 H 0.4381 0.1969 0.8002
C3 C 0.6220(2) 0.31929(12) 0.70848(8)
H5 H 0.6663 0.4307 0.7093
H6 H 0.8027 0.2799 0.7086
C4 C 0.4293(2) 0.22830(11) 0.61428(7)
C5 C 0.5587(2) 0.23181(12) 0.52141(7)
H7 H 0.7269 0.1812 0.5211
H8 H 0.6264 0.3425 0.5238
C6 C 0.3650(2) 0.15272(11) 0.42476(7)
H9 H 0.4826 0.1213 0.3714
H10 H 0.2452 0.0565 0.4308
C7 C 0.1757(2) 0.25667(11) 0.39643(7)
C8 C 0.0201(2) 0.21210(11) 0.29580(7)
C9 C -0.1625(2) 0.30701(12) 0.26971(7)
C10 C -0.2982(2) 0.26932(13) 0.17324(8)
H11 H -0.4202 0.3336 0.1556
C11 C -0.2558(3) 0.13932(14) 0.10354(8)
H12 H -0.3452 0.1163 0.0376
C12 C -0.0847(3) 0.04115(13) 0.12803(8)
H13 H -0.0617 -0.0502 0.0798
C13 C 0.0517(2) 0.07783(12) 0.22331(8)
H14 H 0.1694 0.0109 0.2402
H15? H 1.001(11) 0.380(5) 0.972(4)
loop_
_geom_bond_atom_site_label_1
_geom_bond_atom_site_label_2
_geom_bond_site_symmetry_1
_geom_bond_site_symmetry_2
O1 C1 1_555 1_555
O2 H1 1_555 1_555
O3 C4 1_555 1_555
O4 C7 1_555 1_555
O5 H2 1_555 1_555
C1 O2 1_555 1_555
C2 C1 1_555 1_555
H3 C2 1_555 1_555
H4 C2 1_555 1_555
C3 C2 1_555 1_555
H5 C3 1_555 1_555
H6 C3 1_555 1_555
C4 C3 1_555 1_555
C5 C4 1_555 1_555
H7 C5 1_555 1_555
H8 C5 1_555 1_555
C6 C5 1_555 1_555
H9 C6 1_555 1_555
H10 C6 1_555 1_555
C7 C6 1_555 1_555
C8 C7 1_555 1_555
C9 O5 1_555 1_555
C10 C9 1_555 1_555
H11 C10 1_555 1_555
C11 C10 1_555 1_555
H12 C11 1_555 1_555
C12 C11 1_555 1_555
H13 C12 1_555 1_555
C13 C8 1_555 1_555
H14 C13 1_555 1_555
C8 C9 1_555 1_555
C12 C13 1_555 1_555

#END
