
#######################################################################
#
#                 Cambridge Crystallographic Data Centre
#                                CCDC 
#
#######################################################################
#
# If this CIF has been generated from an entry in the Cambridge 
# Structural Database, then it will include bibliographic, chemical, 
# crystal, experimental, refinement or atomic coordinate data resulting 
# from the CCDC's data processing and validation procedures.
#
#######################################################################

data_QIMSUD
_chemical_formula_moiety         'C16 H14 N2'
_chemical_name_systematic        2-(3,4-dimethylphenyl)-1,8-naphthyridine
_symmetry_cell_setting           orthorhombic
_symmetry_space_group_name_H-M   'P 21 21 21'
_symmetry_Int_Tables_number      19
_space_group_name_Hall           'P 2ac 2ab'
loop_
_symmetry_equiv_pos_site_id
_symmetry_equiv_pos_as_xyz
1 x,y,z
2 1/2+x,1/2-y,-z
3 -x,1/2+y,1/2-z
4 1/2-x,-y,1/2+z
_cell_length_a                   6.449(8)
_cell_length_b                   10.548(14)
_cell_length_c                   17.84(2)
_cell_angle_alpha                90
_cell_angle_beta                 90
_cell_angle_gamma                90
_cell_volume                     1213.55
_exptl_crystal_colour            colorless
_exptl_crystal_description       block
_cell_formula_units_Z            4
loop_
_atom_site_label
_atom_site_type_symbol
_atom_site_fract_x
_atom_site_fract_y
_atom_site_fract_z
N1 N -0.0273(2) -0.80067(16) -0.11350(10)
N2 N 0.0449(3) -0.65154(17) -0.20386(10)
C1 C 0.1687(4) -1.2625(2) 0.11848(14)
H1 H 0.1812 -1.2338 0.1693
H2 H 0.3028 -1.2861 0.0998
H3 H 0.0778 -1.3345 0.1166
C2 C 0.0809(3) -1.15737(18) 0.07076(12)
C3 C -0.1196(3) -1.11146(18) 0.08247(12)
C4 C -0.1931(3) -1.01494(18) 0.03748(12)
H4 H -0.3259 -0.9840 0.0463
C5 C -0.0777(3) -0.96187(18) -0.02032(11)
C6 C -0.1613(3) -0.86172(18) -0.07048(11)
C7 C -0.1014(3) -0.70983(18) -0.16082(11)
C8 C -0.3138(3) -0.67853(18) -0.16533(12)
C9 C -0.3727(4) -0.5812(2) -0.21463(13)
H5 H -0.5113 -0.5576 -0.2185
C10 C -0.2273(4) -0.5219(2) -0.25650(14)
H6 H -0.2631 -0.4566 -0.2891
C11 C -0.0207(4) -0.5620(2) -0.24929(14)
H7 H 0.0778 -0.5220 -0.2791
C12 C -0.3765(3) -0.8368(2) -0.07332(13)
H8 H -0.4666 -0.8824 -0.0428
C13 C -0.4521(3) -0.7474(2) -0.12003(14)
H9 H -0.5939 -0.7315 -0.1222
C14 C 0.1989(3) -1.10362(19) 0.01422(12)
H10 H 0.3334 -1.1326 0.0064
C15 C 0.1221(3) -1.00794(19) -0.03096(12)
H11 H 0.2047 -0.9742 -0.0687
C16 C -0.2536(4) -1.1658(2) 0.14321(13)
H12 H -0.3844 -1.1223 0.1439
H13 H -0.1860 -1.1555 0.1908
H14 H -0.2764 -1.2543 0.1338
loop_
_geom_bond_atom_site_label_1
_geom_bond_atom_site_label_2
_geom_bond_site_symmetry_1
_geom_bond_site_symmetry_2
N1 C6 1_555 1_555
N2 C7 1_555 1_555
C1 H1 1_555 1_555
H2 C1 1_555 1_555
H3 C1 1_555 1_555
C2 C1 1_555 1_555
C3 C2 1_555 1_555
C4 C3 1_555 1_555
H4 C4 1_555 1_555
C5 C4 1_555 1_555
C6 C5 1_555 1_555
C7 N1 1_555 1_555
C8 C7 1_555 1_555
C9 C8 1_555 1_555
H5 C9 1_555 1_555
C10 C9 1_555 1_555
H6 C10 1_555 1_555
C11 N2 1_555 1_555
H7 C11 1_555 1_555
C12 C6 1_555 1_555
H8 C12 1_555 1_555
C13 C8 1_555 1_555
H9 C13 1_555 1_555
C14 C2 1_555 1_555
H10 C14 1_555 1_555
C15 C5 1_555 1_555
H11 C15 1_555 1_555
C16 C3 1_555 1_555
H12 C16 1_555 1_555
H13 C16 1_555 1_555
H14 C16 1_555 1_555
C10 C11 1_555 1_555
C12 C13 1_555 1_555
C14 C15 1_555 1_555

#END
