
#######################################################################
#
#                 Cambridge Crystallographic Data Centre
#                                CCDC 
#
#######################################################################
#
# If this CIF has been generated from an entry in the Cambridge 
# Structural Database, then it will include bibliographic, chemical, 
# crystal, experimental, refinement or atomic coordinate data resulting 
# from the CCDC's data processing and validation procedures.
#
#######################################################################

data_QIMTOY
_chemical_formula_moiety         'C22 H24 N2 O3'
_chemical_name_systematic        
'ethyl 4-(3-cyanophenyl)-2,7,7-trimethyl-5-oxo-1,4,5,6,7,8-hexahydroquinoline-3-carboxylate'
_symmetry_cell_setting           orthorhombic
_symmetry_space_group_name_H-M   'P b c a'
_symmetry_Int_Tables_number      61
_space_group_name_Hall           '-P 2ac 2ab'
loop_
_symmetry_equiv_pos_site_id
_symmetry_equiv_pos_as_xyz
1 x,y,z
2 1/2-x,-y,1/2+z
3 -x,1/2+y,1/2-z
4 1/2+x,1/2-y,-z
5 -x,-y,-z
6 1/2+x,y,1/2-z
7 x,1/2-y,1/2+z
8 1/2-x,1/2+y,z
_cell_length_a                   15.333(11)
_cell_length_b                   14.146(11)
_cell_length_c                   17.640(13)
_cell_angle_alpha                90
_cell_angle_beta                 90
_cell_angle_gamma                90
_cell_volume                     3826.13
_exptl_crystal_colour            colorless
_exptl_crystal_description       block
_cell_formula_units_Z            8
loop_
_atom_site_label
_atom_site_type_symbol
_atom_site_fract_x
_atom_site_fract_y
_atom_site_fract_z
N1 N 0.32956(13) 0.58901(13) 0.10504(11)
H1 H 0.320180 0.529233 0.101508
N2 N 0.2605(2) 0.5691(2) 0.43772(15)
O1 O 0.52090(12) 0.83281(13) 0.16794(11)
O2 O 0.58406(12) 0.70082(15) 0.12926(12)
O3 O 0.20893(11) 0.89045(11) 0.11989(9)
C1 C 0.6046(2) 0.9561(2) 0.2156(2)
H2 H 0.587874 0.997048 0.174722
H3 H 0.660845 0.974679 0.234329
H4 H 0.562454 0.960645 0.255702
C2 C 0.51850(18) 0.74435(19) 0.14325(13)
C3 C 0.42901(15) 0.70986(16) 0.13576(12)
C4 C 0.41401(16) 0.61992(17) 0.11569(13)
C5 C 0.48126(18) 0.54555(19) 0.10128(16)
H5 H 0.452950 0.487398 0.087794
H6 H 0.518553 0.565305 0.060539
H7 H 0.515449 0.536180 0.146244
C6 C 0.26047(16) 0.64904(15) 0.09986(12)
C7 C 0.27122(15) 0.74053(14) 0.11798(11)
C8 C 0.35333(15) 0.77550(15) 0.15494(12)
H8 H 0.366581 0.838262 0.134434
C9 C 0.20137(16) 0.80639(16) 0.10442(12)
C10 C 0.11860(16) 0.76911(17) 0.06928(14)
H9 H 0.123122 0.774548 0.014607
H10 H 0.070275 0.808446 0.085530
C11 C 0.09845(16) 0.66743(17) 0.08919(13)
C12 C 0.17782(15) 0.60817(16) 0.07083(14)
H11 H 0.170139 0.545630 0.092368
H12 H 0.182147 0.601201 0.016250
C13 C 0.02069(18) 0.6328(2) 0.04277(17)
H13 H 0.008253 0.568228 0.055667
H14 H -0.029303 0.671272 0.053709
H15 H 0.034244 0.637001 -0.010257
C14 C 0.07613(19) 0.6596(2) 0.17302(15)
H16 H 0.063421 0.594967 0.185266
H17 H 0.124774 0.680894 0.202745
H18 H 0.026125 0.698137 0.183932
C15 C 0.34158(14) 0.78474(16) 0.24036(12)
C16 C 0.31607(16) 0.70796(17) 0.28251(13)
H19 H 0.305503 0.650652 0.258362
C17 C 0.30579(16) 0.71433(19) 0.36030(13)
C18 C 0.2795(2) 0.6339(2) 0.40354(16)
C19 C 0.32080(17) 0.7986(2) 0.39636(15)
H20 H 0.314838 0.803093 0.448701
C20 C 0.34453(19) 0.8757(2) 0.35491(17)
H21 H 0.353759 0.933272 0.379089
C21 C 0.35497(17) 0.86915(18) 0.27748(15)
H22 H 0.371256 0.922381 0.249961
C22 C 0.6084(4) 0.8642(5) 0.1899(8)
H23 H 0.630977 0.823498 0.229599
H24 H 0.647329 0.860282 0.146731
H25? H 0.560016 0.999720 0.200229
H26? H 0.660292 0.987079 0.214292
H27? H 0.592902 0.934638 0.266236
C23? C 0.6054(6) 0.8804(10) 0.1673(10)
H28? H 0.650600 0.836331 0.182637
H29? H 0.618582 0.901759 0.116292
loop_
_geom_bond_atom_site_label_1
_geom_bond_atom_site_label_2
_geom_bond_site_symmetry_1
_geom_bond_site_symmetry_2
N1 H1 1_555 1_555
N2 C18 1_555 1_555
O1 C2 1_555 1_555
O2 C2 1_555 1_555
O3 C9 1_555 1_555
C1 H2 1_555 1_555
H3 C1 1_555 1_555
H4 C1 1_555 1_555
C2 C3 1_555 1_555
C3 C4 1_555 1_555
C4 N1 1_555 1_555
C5 C4 1_555 1_555
H5 C5 1_555 1_555
H6 C5 1_555 1_555
H7 C5 1_555 1_555
C6 N1 1_555 1_555
C7 C6 1_555 1_555
C8 C3 1_555 1_555
H8 C8 1_555 1_555
C9 C7 1_555 1_555
C10 C9 1_555 1_555
H9 C10 1_555 1_555
H10 C10 1_555 1_555
C11 C10 1_555 1_555
C12 C6 1_555 1_555
H11 C12 1_555 1_555
H12 C12 1_555 1_555
C13 C11 1_555 1_555
H13 C13 1_555 1_555
H14 C13 1_555 1_555
H15 C13 1_555 1_555
C14 C11 1_555 1_555
H16 C14 1_555 1_555
H17 C14 1_555 1_555
H18 C14 1_555 1_555
C15 C8 1_555 1_555
C16 C15 1_555 1_555
H19 C16 1_555 1_555
C17 C16 1_555 1_555
C18 C17 1_555 1_555
C19 C17 1_555 1_555
H20 C19 1_555 1_555
C20 C19 1_555 1_555
H21 C20 1_555 1_555
C21 C15 1_555 1_555
H22 C21 1_555 1_555
C22 O1 1_555 1_555
H23 C22 1_555 1_555
H24 C22 1_555 1_555
C1 C22 1_555 1_555
C7 C8 1_555 1_555
C11 C12 1_555 1_555
C20 C21 1_555 1_555

#END
