
#######################################################################
#
#                 Cambridge Crystallographic Data Centre
#                                CCDC 
#
#######################################################################
#
# If this CIF has been generated from an entry in the Cambridge 
# Structural Database, then it will include bibliographic, chemical, 
# crystal, experimental, refinement or atomic coordinate data resulting 
# from the CCDC's data processing and validation procedures.
#
#######################################################################

data_QIMVEQ
_chemical_formula_moiety         'C21 H22 N2 O3'
_chemical_name_systematic        
'methyl 4-(3-cyanophenyl)-2,7,7-trimethyl-5-oxo-1,4,5,6,7,8-hexahydroquinoline-3-carboxylate'
_symmetry_cell_setting           orthorhombic
_symmetry_space_group_name_H-M   'P b c a'
_symmetry_Int_Tables_number      61
_space_group_name_Hall           '-P 2ac 2ab'
loop_
_symmetry_equiv_pos_site_id
_symmetry_equiv_pos_as_xyz
1 x,y,z
2 1/2-x,-y,1/2+z
3 1/2+x,1/2-y,-z
4 -x,1/2+y,1/2-z
5 -x,-y,-z
6 1/2+x,y,1/2-z
7 1/2-x,1/2+y,z
8 x,1/2-y,1/2+z
_cell_length_a                   15.093(2)
_cell_length_b                   13.896(2)
_cell_length_c                   17.501(2)
_cell_angle_alpha                90
_cell_angle_beta                 90
_cell_angle_gamma                90
_cell_volume                     3670.53
_exptl_crystal_colour            yellow
_exptl_crystal_description       block
_cell_formula_units_Z            8
loop_
_atom_site_label
_atom_site_type_symbol
_atom_site_fract_x
_atom_site_fract_y
_atom_site_fract_z
O1 O 0.51281(9) 0.13879(10) 0.17343(9)
O2 O 0.58481(9) 0.26593(12) 0.12781(9)
O3 O 0.19325(9) 0.10459(9) 0.13142(8)
N1 N 0.33369(10) 0.40305(11) 0.11403(10)
H1 H 0.327435 0.464506 0.111885
N2 N 0.25381(17) 0.43032(17) 0.44731(12)
C1 C 0.59677(14) 0.09112(17) 0.18260(16)
H2 H 0.587326 0.027537 0.202447
H3 H 0.625982 0.086956 0.133989
H4 H 0.633016 0.127062 0.217494
C2 C 0.51565(13) 0.22887(15) 0.14597(12)
C3 C 0.42776(12) 0.27212(13) 0.14175(11)
C4 C 0.41775(13) 0.36524(13) 0.12290(11)
C5 C 0.48936(14) 0.43779(15) 0.10879(15)
H5 H 0.463115 0.498732 0.096318
H6 H 0.524995 0.444447 0.153921
H7 H 0.525839 0.416683 0.067103
C6 C 0.26024(12) 0.34614(12) 0.10856(11)
C7 C 0.26559(12) 0.25222(12) 0.12626(10)
C8 C 0.34742(12) 0.21186(12) 0.16387(11)
H8 H 0.356576 0.146392 0.144607
C9 C 0.19078(12) 0.19009(12) 0.11329(11)
C10 C 0.11040(13) 0.23249(14) 0.07638(13)
H9 H 0.058953 0.195208 0.091460
H10 H 0.116438 0.226984 0.021373
C11 C 0.09429(12) 0.33774(13) 0.09664(11)
C12 C 0.07020(15) 0.34682(17) 0.18076(13)
H11 H 0.016957 0.311168 0.190748
H12 H 0.117547 0.321655 0.211461
H13 H 0.060886 0.413351 0.193154
C13 C 0.01877(14) 0.37804(17) 0.04839(14)
H14 H -0.034654 0.343082 0.059141
H15 H 0.010244 0.444800 0.060444
H16 H 0.033181 0.371619 -0.004797
C14 C 0.17852(12) 0.39360(13) 0.07916(12)
H17 H 0.183742 0.401359 0.024258
H18 H 0.173880 0.457261 0.101540
C15 C 0.33687(11) 0.20645(12) 0.25016(11)
C16 C 0.31046(12) 0.28630(13) 0.29134(11)
H19 H 0.298384 0.343567 0.265880
C17 C 0.30178(12) 0.28213(14) 0.36984(12)
C18 C 0.27420(15) 0.36518(17) 0.41251(13)
C19 C 0.32006(14) 0.19792(16) 0.40863(13)
H20 H 0.315435 0.195367 0.461576
C20 C 0.34502(16) 0.11848(17) 0.36812(14)
H21 H 0.356706 0.061141 0.393604
C21 C 0.35302(14) 0.12261(14) 0.28983(13)
H22 H 0.369679 0.067639 0.263138
loop_
_geom_bond_atom_site_label_1
_geom_bond_atom_site_label_2
_geom_bond_site_symmetry_1
_geom_bond_site_symmetry_2
O1 C1 1_555 1_555
O2 C2 1_555 1_555
O3 C9 1_555 1_555
N1 H1 1_555 1_555
N2 C18 1_555 1_555
C1 H2 1_555 1_555
H3 C1 1_555 1_555
H4 C1 1_555 1_555
C2 O1 1_555 1_555
C3 C2 1_555 1_555
C4 N1 1_555 1_555
C5 C4 1_555 1_555
H5 C5 1_555 1_555
H6 C5 1_555 1_555
H7 C5 1_555 1_555
C6 N1 1_555 1_555
C7 C6 1_555 1_555
C8 C3 1_555 1_555
H8 C8 1_555 1_555
C9 C7 1_555 1_555
C10 C9 1_555 1_555
H9 C10 1_555 1_555
H10 C10 1_555 1_555
C11 C10 1_555 1_555
C12 C11 1_555 1_555
H11 C12 1_555 1_555
H12 C12 1_555 1_555
H13 C12 1_555 1_555
C13 C11 1_555 1_555
H14 C13 1_555 1_555
H15 C13 1_555 1_555
H16 C13 1_555 1_555
C14 C6 1_555 1_555
H17 C14 1_555 1_555
H18 C14 1_555 1_555
C15 C8 1_555 1_555
C16 C15 1_555 1_555
H19 C16 1_555 1_555
C17 C16 1_555 1_555
C18 C17 1_555 1_555
C19 C17 1_555 1_555
H20 C19 1_555 1_555
C20 C19 1_555 1_555
H21 C20 1_555 1_555
C21 C15 1_555 1_555
H22 C21 1_555 1_555
C3 C4 1_555 1_555
C7 C8 1_555 1_555
C11 C14 1_555 1_555
C20 C21 1_555 1_555

#END
