
#######################################################################
#
#                 Cambridge Crystallographic Data Centre
#                                CCDC 
#
#######################################################################
#
# If this CIF has been generated from an entry in the Cambridge 
# Structural Database, then it will include bibliographic, chemical, 
# crystal, experimental, refinement or atomic coordinate data resulting 
# from the CCDC's data processing and validation procedures.
#
#######################################################################

data_QIMVAM
_chemical_formula_moiety         'C22 H19 N1 O7'
_chemical_name_systematic        
'ethyl 2-amino-4-(3-hydroxy-4-methoxyphenyl)-5-oxo-4H,5H-pyrano[3,2-c][1]benzopyran-3-carboxylate'
_symmetry_cell_setting           monoclinic
_symmetry_space_group_name_H-M   'P 21/c'
_symmetry_Int_Tables_number      14
_space_group_name_Hall           '-P 2ybc'
loop_
_symmetry_equiv_pos_site_id
_symmetry_equiv_pos_as_xyz
1 x,y,z
2 -x,1/2+y,1/2-z
3 -x,-y,-z
4 x,1/2-y,1/2+z
_cell_length_a                   9.292(5)
_cell_length_b                   13.230(3)
_cell_length_c                   17.115(4)
_cell_angle_alpha                90
_cell_angle_beta                 106.04(5)
_cell_angle_gamma                90
_cell_volume                     2022.09
_exptl_crystal_colour            colorless
_exptl_crystal_description       block
_cell_formula_units_Z            4
loop_
_atom_site_label
_atom_site_type_symbol
_atom_site_fract_x
_atom_site_fract_y
_atom_site_fract_z
N1 N 0.37739(19) 0.22910(14) -0.09055(9)
H1 H 0.454562 0.197290 -0.096259
H2 H 0.318954 0.260025 -0.131310
O1 O 0.62435(13) 0.08891(10) 0.12659(7)
O2 O 0.60726(16) 0.11426(12) -0.00619(8)
O3 O 0.21916(13) 0.28623(10) -0.02442(7)
O4 O 0.19830(13) 0.20025(10) 0.24259(7)
O5 O 0.00619(13) 0.27437(11) 0.15738(8)
O6 O 0.78606(13) 0.48778(10) 0.32840(7)
O7 O 0.60742(18) 0.54015(11) 0.18141(9)
C1 C 0.8186(3) 0.0013(3) 0.21988(17)
H3 H 0.909765 -0.036119 0.226885
H4 H 0.837722 0.060055 0.254155
H5 H 0.745486 -0.040469 0.234352
C2 C 0.7611(2) 0.03309(18) 0.13369(13)
H6 H 0.834017 0.075368 0.118271
H7 H 0.741357 -0.025617 0.098376
C3 C 0.5577(2) 0.12786(15) 0.05236(11)
C4 C 0.42644(18) 0.18663(13) 0.05266(10)
C5 C 0.3484(2) 0.23048(14) -0.01861(11)
C6 C 0.15629(18) 0.28150(13) 0.03908(10)
C7 C 0.22544(17) 0.24035(13) 0.11173(10)
C8 C 0.38501(17) 0.20304(13) 0.13204(10)
H8 H 0.391033 0.138050 0.160236
C9 C 0.14842(19) 0.23563(14) 0.17463(11)
C10 C -0.0612(2) 0.31983(15) 0.08299(12)
C11 C 0.00879(19) 0.32583(13) 0.02177(11)
C12 C -0.0658(2) 0.37428(15) -0.05158(12)
H9 H -0.020063 0.379295 -0.093380
C13 C -0.2060(2) 0.41400(17) -0.06122(15)
H10 H -0.255085 0.446773 -0.109264
C14 C -0.2743(2) 0.40502(19) 0.00127(17)
H11 H -0.370039 0.431131 -0.005972
C15 C -0.2036(2) 0.35845(19) 0.07343(15)
H12 H -0.250180 0.352987 0.114844
C16 C 0.48983(17) 0.27794(13) 0.18823(9)
C17 C 0.57893(18) 0.24937(14) 0.26417(10)
H13 H 0.572204 0.183833 0.282492
C18 C 0.67800(19) 0.31702(15) 0.31329(10)
H14 H 0.736644 0.296821 0.364184
C19 C 0.68936(17) 0.41454(14) 0.28639(10)
C20 C 0.59896(18) 0.44494(13) 0.21065(10)
C21 C 0.50009(17) 0.37731(13) 0.16279(10)
H15 H 0.439137 0.398231 0.112659
C22 C 0.8763(2) 0.46398(18) 0.40787(12)
H16 H 0.937872 0.521066 0.430042
H17 H 0.813132 0.447741 0.442003
H18 H 0.938879 0.407061 0.405224
H19 H 0.677(2) 0.5736(18) 0.2113(15)
loop_
_geom_bond_atom_site_label_1
_geom_bond_atom_site_label_2
_geom_bond_site_symmetry_1
_geom_bond_site_symmetry_2
N1 H1 1_555 1_555
H2 N1 1_555 1_555
O1 C2 1_555 1_555
O2 C3 1_555 1_555
O3 C5 1_555 1_555
O4 C9 1_555 1_555
O5 C9 1_555 1_555
O6 C19 1_555 1_555
O7 C20 1_555 1_555
C1 H3 1_555 1_555
H4 C1 1_555 1_555
H5 C1 1_555 1_555
C2 C1 1_555 1_555
H6 C2 1_555 1_555
H7 C2 1_555 1_555
C3 O1 1_555 1_555
C4 C3 1_555 1_555
C5 N1 1_555 1_555
C6 O3 1_555 1_555
C7 C6 1_555 1_555
C8 C4 1_555 1_555
H8 C8 1_555 1_555
C9 C7 1_555 1_555
C10 O5 1_555 1_555
C11 C6 1_555 1_555
C12 C11 1_555 1_555
H9 C12 1_555 1_555
C13 C12 1_555 1_555
H10 C13 1_555 1_555
C14 C13 1_555 1_555
H11 C14 1_555 1_555
C15 C10 1_555 1_555
H12 C15 1_555 1_555
C16 C8 1_555 1_555
C17 C16 1_555 1_555
H13 C17 1_555 1_555
C18 C17 1_555 1_555
H14 C18 1_555 1_555
C19 C18 1_555 1_555
C20 C19 1_555 1_555
C21 C16 1_555 1_555
H15 C21 1_555 1_555
C22 O6 1_555 1_555
H16 C22 1_555 1_555
H17 C22 1_555 1_555
H18 C22 1_555 1_555
H19 O7 1_555 1_555
C4 C5 1_555 1_555
C7 C8 1_555 1_555
C10 C11 1_555 1_555
C14 C15 1_555 1_555
C20 C21 1_555 1_555

#END
