
#######################################################################
#
#                 Cambridge Crystallographic Data Centre
#                                CCDC 
#
#######################################################################
#
# If this CIF has been generated from an entry in the Cambridge 
# Structural Database, then it will include bibliographic, chemical, 
# crystal, experimental, refinement or atomic coordinate data resulting 
# from the CCDC's data processing and validation procedures.
#
#######################################################################

data_QINGEC
_chemical_formula_moiety         'C27 H21 Br1 O5'
_chemical_name_systematic        
'methyl 2-[6-(4-bromophenyl)-7-(2-phenylethenyl)-6,7-dihydro-2H-furo[2,3-f][1,3]benzodioxol-6-yl]prop-2-enoate'
_symmetry_cell_setting           orthorhombic
_symmetry_space_group_name_H-M   'P 21 21 21'
_symmetry_Int_Tables_number      19
_space_group_name_Hall           'P 2ac 2ab'
loop_
_symmetry_equiv_pos_site_id
_symmetry_equiv_pos_as_xyz
1 x,y,z
2 1/2-x,-y,1/2+z
3 -x,1/2+y,1/2-z
4 1/2+x,1/2-y,-z
_cell_length_a                   11.6521(5)
_cell_length_b                   12.9690(5)
_cell_length_c                   15.0816(6)
_cell_angle_alpha                90
_cell_angle_beta                 90
_cell_angle_gamma                90
_cell_volume                     2279.07
_exptl_crystal_colour            colorless
_exptl_crystal_description       block
_cell_formula_units_Z            4
loop_
_atom_site_label
_atom_site_type_symbol
_atom_site_fract_x
_atom_site_fract_y
_atom_site_fract_z
Br1 Br 0.58346(6) 0.57593(6) 0.11517(5)
O1 O -0.0935(5) 0.6235(4) 0.0259(4)
O2 O 0.0237(4) 0.4982(3) 0.0671(3)
O3 O 0.2772(5) 0.1006(4) -0.2883(3)
O4 O 0.3421(5) 0.2314(5) -0.3780(3)
O5 O 0.1748(4) 0.4913(3) -0.1836(3)
C1 C -0.3087(6) 0.3530(4) -0.0777(4)
H1 H -0.2843 0.3847 -0.0257
C2 C -0.4253(5) 0.3416(4) -0.0945(4)
H2 H -0.4789 0.3656 -0.0538
C3 C -0.4618(3) 0.2942(5) -0.1723(4)
H3 H -0.5398 0.2866 -0.1835
C4 C -0.3817(5) 0.2583(4) -0.2332(3)
H4 H -0.4061 0.2267 -0.2852
C5 C -0.2651(4) 0.2698(4) -0.2164(4)
H5 H -0.2115 0.2457 -0.2571
C6 C -0.2286(4) 0.3171(4) -0.1386(5)
C7 C -0.1005(7) 0.3229(6) -0.1527(6)
H6 H -0.0706 0.3022 -0.2070
C8 C -0.0332(6) 0.3542(6) -0.0947(5)
H7 H -0.0717 0.3757 -0.0439
C9 C 0.1362(5) 0.4805(4) -0.0908(3)
C10 C 0.0916(6) 0.3658(4) -0.0862(4)
H8 H 0.1151 0.3363 -0.0292
C11 C 0.1625(5) 0.3170(4) -0.1579(4)
C12 C 0.1824(5) 0.2128(5) -0.1784(4)
H9 H 0.1562 0.1595 -0.1425
C13 C 0.2429(5) 0.1948(5) -0.2546(4)
C14 C 0.2818(6) 0.2719(6) -0.3071(4)
C15 C 0.2658(5) 0.3747(6) -0.2892(4)
H10 H 0.2941 0.4272 -0.3251
C16 C 0.2034(5) 0.3926(4) -0.2124(4)
C17 C 0.2418(5) 0.5019(4) -0.0351(3)
C18 C 0.2892(5) 0.4333(4) 0.0247(4)
H11 H 0.2528 0.3705 0.0345
C19 C 0.3887(5) 0.4553(4) 0.0703(4)
H12 H 0.4186 0.4082 0.1107
C20 C 0.4428(4) 0.5465(4) 0.0555(4)
C21 C 0.3971(5) 0.6194(4) -0.0011(4)
H13 H 0.4325 0.6829 -0.0092
C22 C 0.2980(5) 0.5949(5) -0.0447(4)
H14 H 0.2667 0.6436 -0.0830
C23 C 0.0452(4) 0.5621(5) -0.0765(4)
C24 C 0.0123(6) 0.6288(5) -0.1372(5)
H15 H -0.0463 0.6754 -0.1248
H16 H 0.0475 0.6294 -0.1925
C25 C -0.0152(6) 0.5661(5) 0.0100(5)
C26 C -0.0406(8) 0.4895(8) 0.1499(6)
H17 H -0.0057 0.4382 0.1870
H18 H -0.1184 0.4699 0.1372
H19 H -0.0401 0.5548 0.1800
C27 C 0.3238(8) 0.1211(8) -0.3714(6)
H20 H 0.3403 0.0726 -0.4150
loop_
_geom_bond_atom_site_label_1
_geom_bond_atom_site_label_2
_geom_bond_site_symmetry_1
_geom_bond_site_symmetry_2
Br1 C20 1_555 1_555
O1 C25 1_555 1_555
O2 C25 1_555 1_555
O3 C13 1_555 1_555
O4 C14 1_555 1_555
O5 C9 1_555 1_555
C1 H1 1_555 1_555
C2 C1 1_555 1_555
H2 C2 1_555 1_555
C3 C2 1_555 1_555
H3 C3 1_555 1_555
C4 C3 1_555 1_555
H4 C4 1_555 1_555
C5 C4 1_555 1_555
H5 C5 1_555 1_555
C6 C1 1_555 1_555
C7 C6 1_555 1_555
H6 C7 1_555 1_555
C8 C7 1_555 1_555
H7 C8 1_555 1_555
C9 C10 1_555 1_555
C10 C8 1_555 1_555
H8 C10 1_555 1_555
C11 C10 1_555 1_555
C12 C11 1_555 1_555
H9 C12 1_555 1_555
C13 C12 1_555 1_555
C14 C13 1_555 1_555
C15 C14 1_555 1_555
H10 C15 1_555 1_555
C16 O5 1_555 1_555
C17 C9 1_555 1_555
C18 C17 1_555 1_555
H11 C18 1_555 1_555
C19 C18 1_555 1_555
H12 C19 1_555 1_555
C20 C19 1_555 1_555
C21 C20 1_555 1_555
H13 C21 1_555 1_555
C22 C17 1_555 1_555
H14 C22 1_555 1_555
C23 C9 1_555 1_555
C24 C23 1_555 1_555
H15 C24 1_555 1_555
H16 C24 1_555 1_555
C25 C23 1_555 1_555
C26 O2 1_555 1_555
H17 C26 1_555 1_555
H18 C26 1_555 1_555
H19 C26 1_555 1_555
C27 O3 1_555 1_555
H20 C27 1_555 1_555
O4 C27 1_555 1_555
C5 C6 1_555 1_555
C11 C16 1_555 1_555
C15 C16 1_555 1_555
C21 C22 1_555 1_555

#END
