
#######################################################################
#
#                 Cambridge Crystallographic Data Centre
#                                CCDC 
#
#######################################################################
#
# If this CIF has been generated from an entry in the Cambridge 
# Structural Database, then it will include bibliographic, chemical, 
# crystal, experimental, refinement or atomic coordinate data resulting 
# from the CCDC's data processing and validation procedures.
#
#######################################################################

data_QINMIJ
_chemical_formula_moiety         'C20 H20 N2 O4'
_chemical_name_systematic        
(+)-(2R,5S,7R)-2-Methyl-2-phenyl-7-(p-nitrobenzyl)-1-aza-3-oxabicyclo(3.3.0)octan-8-one
_symmetry_cell_setting           orthorhombic
_symmetry_space_group_name_H-M   'P 21 21 21'
_symmetry_Int_Tables_number      19
_space_group_name_Hall           'P 2ac 2ab'
loop_
_symmetry_equiv_pos_site_id
_symmetry_equiv_pos_as_xyz
1 x,y,z
2 1/2-x,-y,1/2+z
3 1/2+x,1/2-y,-z
4 -x,1/2+y,1/2-z
_cell_length_a                   8.547(1)
_cell_length_b                   9.880(1)
_cell_length_c                   19.963(1)
_cell_angle_alpha                90
_cell_angle_beta                 90
_cell_angle_gamma                90
_cell_volume                     1685.76
_exptl_crystal_colour            colorless
_chemical_melting_point          '103-105 deg.C'
_cell_formula_units_Z            4
_exptl_crystal_recrystallization_method 'dichloromethane/diethyl ether'
loop_
_atom_site_label
_atom_site_type_symbol
_atom_site_fract_x
_atom_site_fract_y
_atom_site_fract_z
O1 O -0.9631(1) 0.0621(1) 0.18143(6)
O2 O -0.3036(1) 0.1323(1) -0.11349(5)
O3 O -0.8343(1) 0.1890(1) 0.25034(5)
O4 O -0.3266(1) -0.2442(1) -0.02361(5)
N1 N -0.3659(1) -0.0145(1) -0.03149(5)
N2 N -0.8398(1) 0.1025(1) 0.20631(6)
C1 C -0.6870(2) 0.0017(1) -0.06718(7)
C2 C -0.6928(2) 0.0429(1) 0.18308(6)
C3 C -0.6199(2) 0.1255(1) -0.16678(7)
C4 C -0.6971(2) -0.0560(1) 0.13366(7)
C5 C -0.3039(2) -0.1287(1) -0.00448(6)
C6 C -0.1881(2) 0.0672(1) 0.04926(7)
C7 C -0.3523(2) -0.0924(2) -0.15056(7)
C8 C -0.4158(2) -0.0787(1) 0.14384(6)
C9 C -0.4016(2) 0.0168(1) -0.10153(7)
C10 C -0.5581(2) -0.1158(1) 0.11449(7)
C11 C -0.2008(2) -0.0879(1) 0.05492(7)
C12 C -0.8907(2) 0.0991(2) -0.13547(9)
C13 C -0.3256(2) 0.1096(1) 0.00460(7)
C14 C -0.5547(2) 0.0830(1) 0.21332(7)
C15 C -0.2637(2) -0.1424(1) 0.12228(6)
C16 C -0.8452(2) 0.0251(2) -0.08001(8)
C17 C -0.7773(2) 0.1490(1) -0.17888(7)
C18 C -0.5746(2) 0.0519(1) -0.11044(7)
C19 C -0.2957(2) 0.2097(1) -0.05286(8)
C20 C -0.4168(2) 0.0217(2) 0.19321(7)
loop_
_geom_bond_atom_site_label_1
_geom_bond_atom_site_label_2
_geom_bond_site_symmetry_1
_geom_bond_site_symmetry_2
O1 N2 1_555 1_555
O2 C9 1_555 1_555
O3 N2 1_555 1_555
O4 C5 1_555 1_555
N1 C5 1_555 1_555
N2 C2 1_555 1_555
C1 C16 1_555 1_555
C2 C4 1_555 1_555
C3 C17 1_555 1_555
C4 C10 1_555 1_555
C5 C11 1_555 1_555
C6 C11 1_555 1_555
C7 C9 1_555 1_555
C8 C10 1_555 1_555
C9 N1 1_555 1_555
C11 C15 1_555 1_555
C12 C16 1_555 1_555
C13 N1 1_555 1_555
C14 C2 1_555 1_555
C15 C8 1_555 1_555
C17 C12 1_555 1_555
C18 C1 1_555 1_555
C19 O2 1_555 1_555
C20 C8 1_555 1_555
C3 C18 1_555 1_555
C6 C13 1_555 1_555
C9 C18 1_555 1_555
C13 C19 1_555 1_555
C14 C20 1_555 1_555

#END
