
#######################################################################
#
#                 Cambridge Crystallographic Data Centre
#                                CCDC 
#
#######################################################################
#
# If this CIF has been generated from an entry in the Cambridge 
# Structural Database, then it will include bibliographic, chemical, 
# crystal, experimental, refinement or atomic coordinate data resulting 
# from the CCDC's data processing and validation procedures.
#
#######################################################################

data_QINPUB
_chemical_compound_source        
'culture of marine-associated fungus Penicillium sp. ZZ380'
_chemical_name_common            'penicipyrrodiether A'
_chemical_formula_moiety         'C43 H53 N1 O8'
_chemical_name_systematic        
"8-ethenyl-7,21a,21b-trihydroxy-2,3,4,8,10,10b,12,14-octamethyl-2,3,5b,7a,8,10a,10b,11,12,13,14,14a,14b,14c,21a,21b-hexadecahydro-20H-20a,6-(epiminomethano)-16,19-ethenofluoreno[1',9':11,12,13]oxacyclotridecino[7,8-b]furo[3,2-g][1]benzofuran-5,23(5aH)-dione unknown solvate"
_chemical_properties_biological  
'antibacterial activity in inhibiting the growth of methicillin-resistant Staphylococcus aureus'
_symmetry_cell_setting           hexagonal
_symmetry_space_group_name_H-M   'P 64'
_symmetry_Int_Tables_number      172
_space_group_name_Hall           'P 64'
loop_
_symmetry_equiv_pos_site_id
_symmetry_equiv_pos_as_xyz
1 x,y,z
2 x-y,x,2/3+z
3 -y,x-y,1/3+z
4 -x,-y,z
5 -x+y,-x,2/3+z
6 y,-x+y,1/3+z
_cell_length_a                   28.5703(10)
_cell_length_b                   28.5703(10)
_cell_length_c                   9.3110(4)
_cell_angle_alpha                90
_cell_angle_beta                 90
_cell_angle_gamma                120
_cell_volume                     6581.98
_exptl_crystal_colour            colorless
_exptl_crystal_description       plate
_cell_formula_units_Z            6
loop_
_atom_site_label
_atom_site_type_symbol
_atom_site_fract_x
_atom_site_fract_y
_atom_site_fract_z
O1 O 0.17734(14) 0.75110(14) 0.9102(4)
H1 H 0.189229 0.730315 0.915674
O2 O 0.07279(18) 0.78528(15) 0.6680(4)
O3 O 0.06342(17) 0.53669(15) 0.9020(6)
C1 C 0.1207(2) 0.81009(19) 0.9049(5)
H2 H 0.147694 0.811533 0.837494
C2 C 0.1265(2) 0.7266(2) 0.9603(5)
O4 O 0.01418(18) 0.65319(18) 1.0919(6)
O5 O 0.22536(17) 0.68884(17) 0.9734(7)
O6 O 0.1567(2) 0.5554(2) 0.7720(6)
H3 H 0.130003 0.537210 0.721820
O7 O 0.1234(2) 0.47860(19) 0.9187(7)
C3 C 0.0782(2) 0.8591(2) 0.8097(6)
H4 H 0.058412 0.860332 0.894214
N1 N 0.0219(2) 0.58728(18) 0.9730(6)
H5 H -0.007662 0.560338 1.004088
C4 C 0.0957(2) 0.6720(2) 0.9598(6)
C5 C 0.0722(2) 0.8025(2) 0.8142(5)
H6 H 0.038175 0.776948 0.861443
C6 C 0.0950(3) 0.7192(2) 0.5995(5)
H7 H 0.126590 0.746089 0.557325
C7 C 0.0090(3) 0.6910(2) 0.7074(7)
H8 H -0.017257 0.699096 0.736977
C8 C 0.1384(2) 0.6131(2) 1.0057(7)
H9 H 0.129100 0.619832 1.101961
C9 C 0.1117(2) 0.6334(2) 0.8995(7)
H10 H 0.133219 0.647674 0.811823
C10 C 0.0587(2) 0.7318(2) 0.6585(5)
C11 C 0.1994(2) 0.6407(2) 1.0005(7)
C12 C 0.0384(3) 0.6263(2) 0.6676(7)
C13 C 0.1382(2) 0.8992(2) 0.8439(6)
C14 C 0.0405(2) 0.6391(2) 1.0169(7)
C15 C 0.1104(2) 0.7656(2) 1.0183(5)
H11 H 0.071631 0.745351 1.039214
C16 C 0.1461(3) 0.5351(3) 0.9143(9)
C17 C 0.1957(3) 0.8821(2) 1.0504(7)
C18 C 0.2250(3) 0.6082(3) 1.0346(8)
C19 C 0.1092(3) 0.5512(2) 0.9873(8)
C20 C 0.1756(3) 0.9080(3) 0.7164(8)
H12 H 0.166770 0.873692 0.675688
H13 H 0.212469 0.926181 0.748688
H14 H 0.171072 0.929670 0.645059
O8 O 0.0937(2) 0.5253(2) 1.1224(7)
H15 H 0.072615 0.532979 1.161159
C21 C 0.1423(3) 0.9528(2) 0.8882(8)
H16 H 0.123965 0.947859 0.979240
H17 H 0.180103 0.979568 0.902061
C22 C 0.0847(3) 0.6665(3) 0.6027(7)
H18 H 0.109078 0.657965 0.560914
C23 C 0.0569(2) 0.5817(2) 0.8685(7)
C24 C 0.1417(3) 0.7905(3) 1.1652(6)
C25 C -0.0011(3) 0.6386(2) 0.7117(8)
H19 H -0.034397 0.611182 0.744051
C26 C 0.1518(4) 0.7492(4) 1.2372(7)
H20 H 0.120890 0.717753 1.265875
C27 C 0.0551(3) 0.8753(3) 0.6858(7)
H21 H 0.076591 0.879930 0.599479
C28 C 0.1441(2) 0.8670(2) 0.9696(6)
H22 H 0.118022 0.864029 1.042585
C29 C 0.1994(3) 0.5576(3) 0.9902(8)
C30 C 0.0359(3) 0.5750(2) 0.7155(8)
H23 H 0.057620 0.566526 0.652300
H24 H -0.001153 0.545393 0.711193
C31 C 0.1923(3) 0.8445(3) 1.1376(7)
H25 H 0.223491 0.851557 1.186853
C32 C 0.0613(4) 0.9303(3) 0.7279(8)
H26 H 0.051234 0.944316 0.645877
H27 H 0.035822 0.924351 0.804328
C33 C 0.1043(4) 0.7988(3) 1.2669(7)
H28 H 0.094374 0.823136 1.223591
H29 H 0.122678 0.813824 1.355906
H30 H 0.072305 0.764709 1.284922
C34 C 0.1675(4) 0.4671(3) 0.9128(14)
H31 H 0.179070 0.469804 0.812537
C35 C 0.2130(3) 0.5129(3) 0.9971(11)
H32 H 0.210250 0.501386 1.097428
C36 C -0.0035(4) 0.8343(4) 0.6553(9)
H33 H -0.006264 0.800908 0.625028
H34 H -0.016880 0.847736 0.580759
H35 H -0.024530 0.828309 0.740893
C37 C 0.1180(4) 0.9738(3) 0.7779(9)
H36 H 0.141617 0.985103 0.693377
C38 C 0.2454(3) 0.9375(3) 1.0368(11)
H37 H 0.259764 0.942062 0.941402
H38 H 0.272143 0.940847 1.104955
H39 H 0.235807 0.964654 1.055605
C39 C 0.1476(5) 0.4110(4) 0.963(2)
H40 H 0.137325 0.407966 1.061963
H41 H 0.175762 0.402169 0.952314
H42 H 0.116902 0.386466 0.906390
C40 C 0.1170(5) 1.0229(3) 0.8333(11)
H43 H 0.097393 1.014175 0.922115
H44 H 0.099725 1.034127 0.764042
H45 H 0.153386 1.051669 0.848909
C41 C 0.2792(3) 0.6371(4) 1.1113(12)
H46 H 0.307571 0.655454 1.042036
H47 H 0.284870 0.611222 1.162572
H48 H 0.279471 0.662972 1.177652
C42 C 0.1964(5) 0.7508(5) 1.2649(12)
H49 H 0.229057 0.780976 1.239375
H50 H 0.196272 0.721761 1.310603
C43 C 0.2686(4) 0.5265(5) 0.9405(15)
H51 H 0.272253 0.538408 0.842631
H52 H 0.272205 0.494856 0.945143
H53 H 0.296149 0.554618 0.998016
loop_
_geom_bond_atom_site_label_1
_geom_bond_atom_site_label_2
_geom_bond_site_symmetry_1
_geom_bond_site_symmetry_2
O1 H1 1_555 1_555
O2 C5 1_555 1_555
O3 C19 1_555 1_555
C1 H2 1_555 1_555
C2 O1 1_555 1_555
O4 C14 1_555 1_555
O5 C11 1_555 1_555
O6 H3 1_555 1_555
O7 C16 1_555 1_555
C3 H4 1_555 1_555
N1 H5 1_555 1_555
C4 C2 1_555 1_555
C5 C1 1_555 1_555
H6 C5 1_555 1_555
C6 H7 1_555 1_555
C7 H8 1_555 1_555
C8 H9 1_555 1_555
C9 C4 1_555 1_555
H10 C9 1_555 1_555
C10 O2 1_555 1_555
C11 C8 1_555 1_555
C12 C22 1_555 1_555
C13 C3 1_555 1_555
C14 N1 1_555 1_555
C15 C1 1_555 1_555
H11 C15 1_555 1_555
C16 O6 1_555 1_555
C17 C28 1_555 1_555
C18 C11 1_555 1_555
C19 C8 1_555 1_555
C20 C13 1_555 1_555
H12 C20 1_555 1_555
H13 C20 1_555 1_555
H14 C20 1_555 1_555
O8 C19 1_555 1_555
H15 O8 1_555 1_555
C21 C13 1_555 1_555
H16 C21 1_555 1_555
H17 C21 1_555 1_555
C22 C6 1_555 1_555
H18 C22 1_555 1_555
C23 O3 1_555 1_555
C24 C15 1_555 1_555
C25 C7 1_555 1_555
H19 C25 1_555 1_555
C26 C24 1_555 1_555
H20 C26 1_555 1_555
C27 C3 1_555 1_555
H21 C27 1_555 1_555
C28 C1 1_555 1_555
H22 C28 1_555 1_555
C29 C16 1_555 1_555
C30 C12 1_555 1_555
H23 C30 1_555 1_555
H24 C30 1_555 1_555
C31 C17 1_555 1_555
H25 C31 1_555 1_555
C32 C27 1_555 1_555
H26 C32 1_555 1_555
H27 C32 1_555 1_555
C33 C24 1_555 1_555
H28 C33 1_555 1_555
H29 C33 1_555 1_555
H30 C33 1_555 1_555
C34 O7 1_555 1_555
H31 C34 1_555 1_555
C35 C29 1_555 1_555
H32 C35 1_555 1_555
C36 C27 1_555 1_555
H33 C36 1_555 1_555
H34 C36 1_555 1_555
H35 C36 1_555 1_555
C37 C21 1_555 1_555
H36 C37 1_555 1_555
C38 C17 1_555 1_555
H37 C38 1_555 1_555
H38 C38 1_555 1_555
H39 C38 1_555 1_555
C39 C34 1_555 1_555
H40 C39 1_555 1_555
H41 C39 1_555 1_555
H42 C39 1_555 1_555
C40 C37 1_555 1_555
H43 C40 1_555 1_555
H44 C40 1_555 1_555
H45 C40 1_555 1_555
C41 C18 1_555 1_555
H46 C41 1_555 1_555
H47 C41 1_555 1_555
H48 C41 1_555 1_555
C42 C26 1_555 1_555
H49 C42 1_555 1_555
H50 C42 1_555 1_555
C43 C35 1_555 1_555
H51 C43 1_555 1_555
H52 C43 1_555 1_555
H53 C43 1_555 1_555
C2 C15 1_555 1_555
C3 C5 1_555 1_555
N1 C23 1_555 1_555
C4 C14 1_555 1_555
C6 C10 1_555 1_555
C7 C10 1_555 1_555
C8 C9 1_555 1_555
C9 C23 1_555 1_555
C12 C25 1_555 1_555
C13 C28 1_555 1_555
C16 C19 1_555 1_555
C18 C29 1_555 1_555
C23 C30 1_555 1_555
C24 C31 1_555 1_555
C32 C37 1_555 1_555
C34 C35 1_555 1_555

#END
