
#######################################################################
#
#                 Cambridge Crystallographic Data Centre
#                                CCDC 
#
#######################################################################
#
# If this CIF has been generated from an entry in the Cambridge 
# Structural Database, then it will include bibliographic, chemical, 
# crystal, experimental, refinement or atomic coordinate data resulting 
# from the CCDC's data processing and validation procedures.
#
#######################################################################

data_QINQIQ
_chemical_formula_moiety         'C27 H25 Br1 N2 O6'
_chemical_name_systematic        
'methyl 2-bromo-9-ethyl-11-(4-methoxyphenyl)-8,10-dioxo-7b,8,9,10,10a,11-hexahydro-6H-[1]benzopyrano[4,3-e]pyrrolo[3,4-a]pyrrolizine-7a(12aH)-carboxylate'
_symmetry_cell_setting           triclinic
_symmetry_space_group_name_H-M   'P -1'
_symmetry_Int_Tables_number      2
_space_group_name_Hall           '-P 1'
loop_
_symmetry_equiv_pos_site_id
_symmetry_equiv_pos_as_xyz
1 x,y,z
2 -x,-y,-z
_cell_length_a                   6.1480(3)
_cell_length_b                   9.3553(7)
_cell_length_c                   21.4639(14)
_cell_angle_alpha                97.508(6)
_cell_angle_beta                 91.047(5)
_cell_angle_gamma                93.474(5)
_cell_volume                     1221.26
_exptl_crystal_colour            colorless
_exptl_crystal_description       prism
_cell_formula_units_Z            2
loop_
_atom_site_label
_atom_site_type_symbol
_atom_site_fract_x
_atom_site_fract_y
_atom_site_fract_z
Br1 Br 0.91167(7) 0.36208(5) 0.04367(2)
O1 O 0.2537(4) 0.0357(3) 0.18526(10)
O2 O 0.2739(4) 0.7407(2) 0.32291(11)
O3 O 0.7234(4) 0.5515(2) 0.45599(11)
O4 O 0.6620(4) 0.7789(3) 0.09147(10)
O5 O 0.9251(3) 0.2750(2) 0.37996(9)
O6 O 0.6784(3) 0.2236(2) 0.45046(8)
N1 N 0.6043(3) 0.3365(2) 0.29546(9)
N2 N 0.5258(4) 0.6764(2) 0.39219(11)
C1 C 0.5407(4) 0.2977(2) 0.35760(10)
C2 C 0.3954(4) 0.1580(3) 0.34157(11)
H1 H 0.294268 0.120562 0.367827
C3 C 0.4388(4) 0.1000(3) 0.28409(12)
C4 C 0.6162(4) 0.1917(3) 0.25707(11)
H2 H 0.757207 0.154112 0.266028
C5 C 0.4192(4) 0.4136(3) 0.27274(11)
H3 H 0.312512 0.340598 0.251308
C6 C 0.3117(4) 0.4867(3) 0.33361(12)
H4 H 0.154369 0.462143 0.332675
C7 C 0.4248(4) 0.4278(3) 0.38823(11)
H5 H 0.319216 0.399667 0.418782
C8 C 0.5800(4) 0.5538(3) 0.41716(12)
C9 C 0.3596(4) 0.6475(3) 0.34633(13)
C10 C 0.3281(5) -0.0213(3) 0.24083(14)
H6 H 0.428809 -0.095697 0.229435
H7 H 0.205343 -0.063632 0.261313
C11 C 0.4084(5) 0.1120(3) 0.15547(13)
C12 C 0.5893(4) 0.1879(3) 0.18692(11)
C13 C 0.7409(4) 0.2587(3) 0.15254(12)
H8 H 0.866539 0.305026 0.172398
C14 C 0.7056(5) 0.2604(3) 0.08924(13)
C15 C 0.5225(6) 0.1895(4) 0.05810(14)
H9 H 0.498960 0.192776 0.015404
C16 C 0.3766(6) 0.1143(4) 0.09123(15)
H10 H 0.255128 0.064368 0.070540
C17 C 0.4907(4) 0.5128(3) 0.22610(11)
C18 C 0.6927(4) 0.5888(3) 0.23088(11)
H11 H 0.787352 0.579084 0.264134
C19 C 0.7567(4) 0.6793(3) 0.18703(12)
H12 H 0.892573 0.729505 0.191077
C20 C 0.6164(5) 0.6939(3) 0.13726(12)
C21 C 0.4142(5) 0.6181(3) 0.13179(13)
H13 H 0.320060 0.627241 0.098341
C22 C 0.3525(4) 0.5295(3) 0.17560(13)
H14 H 0.216234 0.479827 0.171480
C23 C 0.8581(6) 0.8673(4) 0.09748(16)
H15 H 0.866463 0.924243 0.063390
H16 H 0.979962 0.807635 0.096467
H17 H 0.861021 0.930075 0.136668
C24 C 0.6263(5) 0.8209(3) 0.41172(17)
H18 H 0.687357 0.825588 0.453988
H19 H 0.515362 0.890479 0.412629
C25 C 0.8025(6) 0.8607(4) 0.36873(19)
H20 H 0.742194 0.858616 0.327027
H21 H 0.913915 0.792948 0.368155
H22 H 0.864509 0.956067 0.383432
C26 C 0.7405(4) 0.2670(2) 0.39616(11)
C27 C 0.8547(5) 0.2076(4) 0.49385(14)
H23 H 0.957203 0.145236 0.473190
H24 H 0.797610 0.166341 0.529319
H25 H 0.926391 0.300533 0.507911
loop_
_geom_bond_atom_site_label_1
_geom_bond_atom_site_label_2
_geom_bond_site_symmetry_1
_geom_bond_site_symmetry_2
Br1 C14 1_555 1_555
O1 C10 1_555 1_555
O2 C9 1_555 1_555
O3 C8 1_555 1_555
O4 C20 1_555 1_555
O5 C26 1_555 1_555
O6 C26 1_555 1_555
N1 C1 1_555 1_555
N2 C8 1_555 1_555
C1 C2 1_555 1_555
C2 H1 1_555 1_555
C3 C2 1_555 1_555
C4 N1 1_555 1_555
H2 C4 1_555 1_555
C5 N1 1_555 1_555
H3 C5 1_555 1_555
C6 C5 1_555 1_555
H4 C6 1_555 1_555
C7 C1 1_555 1_555
H5 C7 1_555 1_555
C8 C7 1_555 1_555
C9 N2 1_555 1_555
C10 C3 1_555 1_555
H6 C10 1_555 1_555
H7 C10 1_555 1_555
C11 O1 1_555 1_555
C12 C4 1_555 1_555
C13 C12 1_555 1_555
H8 C13 1_555 1_555
C14 C13 1_555 1_555
C15 C14 1_555 1_555
H9 C15 1_555 1_555
C16 C11 1_555 1_555
H10 C16 1_555 1_555
C17 C5 1_555 1_555
C18 C17 1_555 1_555
H11 C18 1_555 1_555
C19 C18 1_555 1_555
H12 C19 1_555 1_555
C20 C19 1_555 1_555
C21 C20 1_555 1_555
H13 C21 1_555 1_555
C22 C17 1_555 1_555
H14 C22 1_555 1_555
C23 O4 1_555 1_555
H15 C23 1_555 1_555
H16 C23 1_555 1_555
H17 C23 1_555 1_555
C24 N2 1_555 1_555
H18 C24 1_555 1_555
H19 C24 1_555 1_555
C25 C24 1_555 1_555
H20 C25 1_555 1_555
H21 C25 1_555 1_555
H22 C25 1_555 1_555
C26 C1 1_555 1_555
C27 O6 1_555 1_555
H23 C27 1_555 1_555
H24 C27 1_555 1_555
H25 C27 1_555 1_555
C3 C4 1_555 1_555
C6 C7 1_555 1_555
C6 C9 1_555 1_555
C11 C12 1_555 1_555
C15 C16 1_555 1_555
C21 C22 1_555 1_555

#END
