
#######################################################################
#
#                 Cambridge Crystallographic Data Centre
#                                CCDC 
#
#######################################################################
#
# If this CIF has been generated from an entry in the Cambridge 
# Structural Database, then it will include bibliographic, chemical, 
# crystal, experimental, refinement or atomic coordinate data resulting 
# from the CCDC's data processing and validation procedures.
#
#######################################################################

data_QINVOB
_chemical_formula_moiety         'C23 H24 N6 O2'
_chemical_name_systematic        
3,4-dibenzyl-3,4,7,10,11,13-hexahydro-9H-[1,5]dioxacycloundecino[10,9-d:7,8-d']bis[1,2,3]triazole
_symmetry_cell_setting           triclinic
_symmetry_space_group_name_H-M   'P -1'
_symmetry_Int_Tables_number      2
_space_group_name_Hall           '-P 1'
loop_
_symmetry_equiv_pos_site_id
_symmetry_equiv_pos_as_xyz
1 x,y,z
2 -x,-y,-z
_cell_length_a                   8.2396(2)
_cell_length_b                   11.5901(5)
_cell_length_c                   12.2867(6)
_cell_angle_alpha                107.523(4)
_cell_angle_beta                 104.775(3)
_cell_angle_gamma                90.140(3)
_cell_volume                     1077.91
_exptl_crystal_colour            colorless
_exptl_crystal_description       needle
_cell_formula_units_Z            2
loop_
_atom_site_label
_atom_site_type_symbol
_atom_site_fract_x
_atom_site_fract_y
_atom_site_fract_z
O1 O 0.98061(18) 0.88758(14) 0.57609(14)
O2 O 0.90496(19) 0.60232(14) 0.41445(15)
N1 N 0.4781(2) 0.77416(16) 0.35168(16)
N2 N 0.7701(2) 0.86907(16) 0.23521(15)
N3 N 0.5429(2) 0.87986(17) 0.53460(18)
N4 N 0.9244(3) 0.7245(2) 0.18608(18)
N5 N 0.4194(2) 0.81201(19) 0.44755(19)
N6 N 0.8784(2) 0.8285(2) 0.17023(18)
C1 C 0.7434(2) 0.79057(18) 0.29274(17)
C2 C 0.6408(2) 0.81728(17) 0.37669(18)
C3 C 0.6792(3) 0.88610(18) 0.49365(19)
C4 C 0.5058(3) 0.92701(19) 0.13070(19)
C5 C 0.8425(3) 0.6978(2) 0.25984(19)
C6 C 0.8408(3) 0.95891(19) 0.57069(19)
H1 H 0.861973 1.023900 0.540186
H2 H 0.829141 0.995615 0.650128
C7 C 0.6743(3) 0.9714(2) 0.2197(2)
H3 H 0.737148 1.022985 0.192821
H4 H 0.657458 1.019233 0.295113
C8 C 0.3570(3) 0.5633(2) 0.2385(2)
C9 C 0.3697(3) 0.6936(2) 0.2415(2)
H5 H 0.412507 0.698371 0.176309
H6 H 0.257668 0.721806 0.229715
C10 C 0.8633(3) 0.5826(2) 0.2911(2)
H7 H 0.759262 0.530378 0.253813
H8 H 0.951194 0.540755 0.259605
C11 C 0.9671(3) 0.7961(2) 0.6298(2)
H9 H 0.854200 0.755523 0.599212
H10 H 0.988852 0.832553 0.714833
C12 C 0.4498(4) 0.5213(2) 0.3271(2)
H11 H 0.526325 0.574662 0.392405
C13 C 0.4946(3) 0.8419(3) 0.0219(2)
H12 H 0.591925 0.813293 0.002115
C14 C 0.3608(3) 0.9692(3) 0.1580(2)
H13 H 0.366977 1.026880 0.230769
C15 C 1.0745(3) 0.6530(2) 0.4721(3)
H14 H 1.101460 0.715678 0.440599
H15 H 1.151401 0.590325 0.458113
C16 C 1.0934(4) 0.7059(2) 0.6024(3)
H16 H 1.206081 0.745706 0.640871
H17 H 1.080143 0.640866 0.634757
C17 C 0.2444(4) 0.4821(3) 0.1414(3)
H18 H 0.181345 0.509380 0.081036
C18 C 0.3392(4) 0.7995(3) -0.0572(3)
H19 H 0.332013 0.741851 -0.130094
C19 C 0.1957(4) 0.8418(4) -0.0290(3)
H20 H 0.091249 0.812946 -0.082710
C20 C 0.4298(5) 0.4000(3) 0.3193(3)
H21 H 0.492733 0.371881 0.379072
C21 C 0.2055(4) 0.9260(4) 0.0775(3)
H22 H 0.107612 0.954769 0.096365
C22 C 0.2250(5) 0.3619(3) 0.1336(3)
H23 H 0.149902 0.308110 0.067765
C23 C 0.3156(6) 0.3211(3) 0.2221(4)
H24 H 0.300479 0.239933 0.217103
loop_
_geom_bond_atom_site_label_1
_geom_bond_atom_site_label_2
_geom_bond_site_symmetry_1
_geom_bond_site_symmetry_2
O1 C6 1_555 1_555
O2 C10 1_555 1_555
N1 N5 1_555 1_555
N2 N6 1_555 1_555
N3 N5 1_555 1_555
N4 N6 1_555 1_555
C1 N2 1_555 1_555
C2 N1 1_555 1_555
C3 N3 1_555 1_555
C4 C7 1_555 1_555
C5 N4 1_555 1_555
C6 C3 1_555 1_555
H1 C6 1_555 1_555
H2 C6 1_555 1_555
C7 N2 1_555 1_555
H3 C7 1_555 1_555
H4 C7 1_555 1_555
C8 C9 1_555 1_555
C9 N1 1_555 1_555
H5 C9 1_555 1_555
H6 C9 1_555 1_555
C10 C5 1_555 1_555
H7 C10 1_555 1_555
H8 C10 1_555 1_555
C11 O1 1_555 1_555
H9 C11 1_555 1_555
H10 C11 1_555 1_555
C12 C8 1_555 1_555
H11 C12 1_555 1_555
C13 C4 1_555 1_555
H12 C13 1_555 1_555
C14 C4 1_555 1_555
H13 C14 1_555 1_555
C15 O2 1_555 1_555
H14 C15 1_555 1_555
H15 C15 1_555 1_555
C16 C11 1_555 1_555
H16 C16 1_555 1_555
H17 C16 1_555 1_555
C17 C8 1_555 1_555
H18 C17 1_555 1_555
C18 C13 1_555 1_555
H19 C18 1_555 1_555
C19 C18 1_555 1_555
H20 C19 1_555 1_555
C20 C12 1_555 1_555
H21 C20 1_555 1_555
C21 C14 1_555 1_555
H22 C21 1_555 1_555
C22 C17 1_555 1_555
H23 C22 1_555 1_555
C23 C20 1_555 1_555
H24 C23 1_555 1_555
C1 C2 1_555 1_555
C1 C5 1_555 1_555
C2 C3 1_555 1_555
C15 C16 1_555 1_555
C19 C21 1_555 1_555
C22 C23 1_555 1_555

#END
