
#######################################################################
#
#                 Cambridge Crystallographic Data Centre
#                                CCDC 
#
#######################################################################
#
# If this CIF has been generated from an entry in the Cambridge 
# Structural Database, then it will include bibliographic, chemical, 
# crystal, experimental, refinement or atomic coordinate data resulting 
# from the CCDC's data processing and validation procedures.
#
#######################################################################

data_QINXIX
_chemical_formula_moiety         'C13 H11 Cl1 F2 N2 O3'
_chemical_name_systematic        
'ethyl 3-[2-(6-chloropyridin-3-yl)-1,3-oxazol-5-yl]-2,2-difluoropropanoate'
_symmetry_cell_setting           triclinic
_symmetry_space_group_name_H-M   'P -1'
_symmetry_Int_Tables_number      2
_space_group_name_Hall           '-P 1'
loop_
_symmetry_equiv_pos_site_id
_symmetry_equiv_pos_as_xyz
1 x,y,z
2 -x,-y,-z
_cell_length_a                   6.1733(5)
_cell_length_b                   8.5095(10)
_cell_length_c                   14.0773(18)
_cell_angle_alpha                92.458(10)
_cell_angle_beta                 99.125(9)
_cell_angle_gamma                104.260(9)
_cell_volume                     705.049
_exptl_crystal_colour            colorless
_exptl_crystal_description       block
_cell_formula_units_Z            2
loop_
_atom_site_label
_atom_site_type_symbol
_atom_site_fract_x
_atom_site_fract_y
_atom_site_fract_z
Cl1 Cl 0.3248(2) 0.57095(12) 0.76752(8)
F1 F -0.1877(4) 0.0354(3) 0.2118(2)
F2 F -0.5073(5) 0.0335(3) 0.12667(19)
O1 O -0.3234(3) 0.0817(3) 0.39884(16)
O2 O -0.5542(6) -0.2994(4) 0.0713(4)
O3 O -0.1817(5) -0.2000(3) 0.0984(3)
N1 N -0.5845(5) 0.2099(4) 0.4238(2)
C1 C 0.0046(5) 0.2656(4) 0.5530(3)
H1 H 0.0390 0.1852 0.5156
N2 N 0.1646(5) 0.3474(4) 0.6255(2)
C2 C 0.1135(6) 0.4640(4) 0.6757(2)
C3 C -0.0926(7) 0.5033(4) 0.6593(3)
H2 H -0.1204 0.5859 0.6972
C4 C -0.2544(6) 0.4166(4) 0.5852(2)
H3 H -0.3948 0.4403 0.5717
C5 C -0.2086(5) 0.2923(4) 0.5297(2)
C6 C -0.3767(5) 0.1994(4) 0.4519(2)
C7 C -0.6722(5) 0.0935(5) 0.3485(3)
H4 H -0.8195 0.0712 0.3142
C8 C -0.5169(5) 0.0157(4) 0.3311(2)
C9 C -0.5125(6) -0.1190(4) 0.2617(3)
H5 H -0.6672 -0.1801 0.2364
H6 H -0.4354 -0.1921 0.2957
C10 C -0.3962(5) -0.0622(4) 0.1790(3)
C11 C -0.3862(6) -0.2018(4) 0.1079(3)
C12 C -0.1408(11) -0.3260(6) 0.0342(5)
H7 H -0.0154 -0.3656 0.0656
H8 H -0.2747 -0.4169 0.0199
C13 C -0.0881(12) -0.2579(7) -0.0543(4)
H9 H -0.0520 -0.3379 -0.0949
H10 H 0.0396 -0.1645 -0.0394
H11 H -0.2168 -0.2260 -0.0873
loop_
_geom_bond_atom_site_label_1
_geom_bond_atom_site_label_2
_geom_bond_site_symmetry_1
_geom_bond_site_symmetry_2
Cl1 C2 1_555 1_555
F1 C10 1_555 1_555
F2 C10 1_555 1_555
O1 C6 1_555 1_555
O2 C11 1_555 1_555
O3 C11 1_555 1_555
N1 C6 1_555 1_555
C1 H1 1_555 1_555
N2 C1 1_555 1_555
C2 N2 1_555 1_555
C3 C2 1_555 1_555
H2 C3 1_555 1_555
C4 C3 1_555 1_555
H3 C4 1_555 1_555
C5 C1 1_555 1_555
C6 C5 1_555 1_555
C7 N1 1_555 1_555
H4 C7 1_555 1_555
C8 O1 1_555 1_555
C9 C8 1_555 1_555
H5 C9 1_555 1_555
H6 C9 1_555 1_555
C10 C9 1_555 1_555
C11 C10 1_555 1_555
C12 O3 1_555 1_555
H7 C12 1_555 1_555
H8 C12 1_555 1_555
C13 C12 1_555 1_555
H9 C13 1_555 1_555
H10 C13 1_555 1_555
H11 C13 1_555 1_555
C4 C5 1_555 1_555
C7 C8 1_555 1_555

#END
