
#######################################################################
#
#                 Cambridge Crystallographic Data Centre
#                                CCDC 
#
#######################################################################
#
# If this CIF has been generated from an entry in the Cambridge 
# Structural Database, then it will include bibliographic, chemical, 
# crystal, experimental, refinement or atomic coordinate data resulting 
# from the CCDC's data processing and validation procedures.
#
#######################################################################

data_QINXAO
_chemical_formula_moiety         'C27 H22 N2 O4'
_chemical_name_systematic        
"Dimethyl 3,3'-(phenylmethylene)bis(1H-indole-2-carboxylate)"
_symmetry_cell_setting           monoclinic
_symmetry_space_group_name_H-M   'P 21/c'
_symmetry_Int_Tables_number      14
_space_group_name_Hall           '-P 2ybc'
loop_
_symmetry_equiv_pos_site_id
_symmetry_equiv_pos_as_xyz
1 x,y,z
2 -x,1/2+y,1/2-z
3 -x,-y,-z
4 x,1/2-y,1/2+z
_cell_length_a                   13.604(3)
_cell_length_b                   15.560(3)
_cell_length_c                   11.274(2)
_cell_angle_alpha                90
_cell_angle_beta                 112.66(3)
_cell_angle_gamma                90
_cell_volume                     2202.24
_exptl_crystal_colour            colorless
_exptl_crystal_description       block
_cell_formula_units_Z            4
loop_
_atom_site_label
_atom_site_type_symbol
_atom_site_fract_x
_atom_site_fract_y
_atom_site_fract_z
O1 O 0.52156(18) -0.10234(15) 0.9162(2)
N1 N 0.3221(2) -0.07271(18) 0.8973(3)
H1 H 0.3563 -0.1099 0.9548
C1 C 0.3029(2) 0.08122(19) 0.6386(3)
H2 H 0.3709 0.1108 0.6826
O2 O 0.52350(18) 0.01567(15) 0.8016(2)
N2 N 0.3660(2) -0.00463(17) 0.3694(3)
H3 H 0.3961 -0.0012 0.3150
C2 C 0.2866(3) 0.0248(2) 0.7391(3)
O3 O 0.4526(2) 0.18689(16) 0.5589(3)
C3 C 0.1909(3) 0.0105(2) 0.7638(3)
O4 O 0.46982(19) 0.14311(15) 0.3787(2)
C4 C 0.0870(3) 0.0436(2) 0.7147(3)
H4 H 0.0657 0.0822 0.6464
C5 C 0.0171(3) 0.0181(2) 0.7694(4)
H5 H -0.0517 0.0403 0.7376
C6 C 0.0467(3) -0.0403(2) 0.8713(4)
H6 H -0.0024 -0.0558 0.9064
C7 C 0.1462(3) -0.0749(2) 0.9201(4)
H7 H 0.1659 -0.1139 0.9878
C8 C 0.2178(3) -0.0499(2) 0.8649(3)
C9 C 0.3638(3) -0.0263(2) 0.8228(3)
C10 C 0.4765(3) -0.0341(2) 0.8434(3)
C11 C 0.6316(3) -0.1198(2) 0.9398(4)
H8 H 0.6544 -0.1702 0.9924
H9 H 0.6746 -0.0717 0.9832
H10 H 0.6390 -0.1290 0.8595
C12 C 0.3159(2) 0.02960(19) 0.5322(3)
C13 C 0.2685(2) -0.0511(2) 0.4786(3)
C14 C 0.1994(3) -0.1099(2) 0.5024(3)
H11 H 0.1743 -0.0993 0.5669
C15 C 0.1699(3) -0.1824(2) 0.4296(4)
H12 H 0.1243 -0.2211 0.4454
C16 C 0.2062(3) -0.2005(2) 0.3313(4)
H13 H 0.1843 -0.2506 0.2833
C17 C 0.2733(3) -0.1452(2) 0.3054(3)
H14 H 0.2985 -0.1573 0.2413
C18 C 0.3028(2) -0.0704(2) 0.3775(3)
C19 C 0.3741(2) 0.0555(2) 0.4624(3)
C20 C 0.4351(3) 0.1350(2) 0.4750(3)
C21 C 0.5280(3) 0.2203(3) 0.3776(4)
H15 H 0.5483 0.2193 0.3050
H16 H 0.5907 0.2235 0.4553
H17 H 0.4838 0.2695 0.3718
C22 C 0.2189(3) 0.1521(2) 0.5862(3)
C23 C 0.1452(3) 0.1525(3) 0.4629(4)
H18 H 0.1441 0.1072 0.4087
C24 C 0.0724(4) 0.2182(3) 0.4161(4)
H19 H 0.0223 0.2164 0.3321
C25 C 0.0744(4) 0.2856(3) 0.4939(5)
H20 H 0.0268 0.3309 0.4626
C26 C 0.1465(4) 0.2865(3) 0.6181(5)
H21 H 0.1469 0.3319 0.6719
C27 C 0.2187(3) 0.2202(2) 0.6638(4)
H22 H 0.2679 0.2216 0.7484
loop_
_geom_bond_atom_site_label_1
_geom_bond_atom_site_label_2
_geom_bond_site_symmetry_1
_geom_bond_site_symmetry_2
O1 C10 1_555 1_555
N1 H1 1_555 1_555
C1 H2 1_555 1_555
O2 C10 1_555 1_555
N2 H3 1_555 1_555
C2 C1 1_555 1_555
O3 C20 1_555 1_555
C3 C2 1_555 1_555
O4 C20 1_555 1_555
C4 C3 1_555 1_555
H4 C4 1_555 1_555
C5 C4 1_555 1_555
H5 C5 1_555 1_555
C6 C5 1_555 1_555
H6 C6 1_555 1_555
C7 C6 1_555 1_555
H7 C7 1_555 1_555
C8 N1 1_555 1_555
C9 N1 1_555 1_555
C10 C9 1_555 1_555
C11 O1 1_555 1_555
H8 C11 1_555 1_555
H9 C11 1_555 1_555
H10 C11 1_555 1_555
C12 C1 1_555 1_555
C13 C12 1_555 1_555
C14 C13 1_555 1_555
H11 C14 1_555 1_555
C15 C14 1_555 1_555
H12 C15 1_555 1_555
C16 C15 1_555 1_555
H13 C16 1_555 1_555
C17 C16 1_555 1_555
H14 C17 1_555 1_555
C18 N2 1_555 1_555
C19 N2 1_555 1_555
C20 C19 1_555 1_555
C21 O4 1_555 1_555
H15 C21 1_555 1_555
H16 C21 1_555 1_555
H17 C21 1_555 1_555
C22 C1 1_555 1_555
C23 C22 1_555 1_555
H18 C23 1_555 1_555
C24 C23 1_555 1_555
H19 C24 1_555 1_555
C25 C24 1_555 1_555
H20 C25 1_555 1_555
C26 C25 1_555 1_555
H21 C26 1_555 1_555
C27 C22 1_555 1_555
H22 C27 1_555 1_555
C2 C9 1_555 1_555
C3 C8 1_555 1_555
C7 C8 1_555 1_555
C12 C19 1_555 1_555
C13 C18 1_555 1_555
C17 C18 1_555 1_555
C26 C27 1_555 1_555

#END
