
#######################################################################
#
#                 Cambridge Crystallographic Data Centre
#                                CCDC 
#
#######################################################################
#
# If this CIF has been generated from an entry in the Cambridge 
# Structural Database, then it will include bibliographic, chemical, 
# crystal, experimental, refinement or atomic coordinate data resulting 
# from the CCDC's data processing and validation procedures.
#
#######################################################################

data_QINXOD
_chemical_formula_moiety         'C20 H17 N5 O3'
_chemical_name_systematic        
'benzyl (6-{[2-(pyridine-2-carbonyl)hydrazinylidene]methyl}pyridin-2-yl)carbamate'
_symmetry_cell_setting           monoclinic
_symmetry_space_group_name_H-M   'P 21/c'
_symmetry_Int_Tables_number      14
_space_group_name_Hall           '-P 2ybc'
loop_
_symmetry_equiv_pos_site_id
_symmetry_equiv_pos_as_xyz
1 x,y,z
2 -x,1/2+y,1/2-z
3 -x,-y,-z
4 x,1/2-y,1/2+z
_cell_length_a                   11.47645(19)
_cell_length_b                   24.6510(4)
_cell_length_c                   13.33278(19)
_cell_angle_alpha                90
_cell_angle_beta                 109.0533(17)
_cell_angle_gamma                90
_cell_volume                     3565.28
_exptl_crystal_colour            'metallic dark grey'
_exptl_crystal_description       plate
_cell_formula_units_Z            8
loop_
_atom_site_label
_atom_site_type_symbol
_atom_site_fract_x
_atom_site_fract_y
_atom_site_fract_z
O1 O 0.89616(10) 0.38633(5) 0.71886(8)
O2 O 0.96883(10) 0.42983(5) 0.60148(9)
O3 O 0.83519(11) 0.59510(5) 1.11520(9)
N1 N 0.91132(11) 0.47561(6) 0.72845(10)
H1 H 0.882002 0.470027 0.779245
N2 N 0.90904(11) 0.56269(6) 0.77860(9)
N3 N 0.86050(12) 0.58463(6) 0.95274(10)
H2 H 0.860911 0.561805 0.904068
N4 N 0.84405(11) 0.47679(6) 0.96399(10)
N5 N 0.88110(11) 0.63863(6) 0.93902(10)
C1 C 0.93465(13) 0.52945(7) 0.70964(11)
C2 C 0.82136(13) 0.50618(7) 1.04079(11)
C3 C 0.83949(14) 0.56655(7) 1.04161(11)
C4 C 0.92961(13) 0.43063(7) 0.67558(11)
C5 C 0.92877(13) 0.61644(7) 0.77304(12)
C6 C 0.99701(14) 0.60311(7) 0.62415(12)
H3 H 1.026170 0.616705 0.571763
C7 C 0.79172(14) 0.39701(7) 1.04388(13)
H4 H 0.783381 0.359471 1.043189
C8 C 0.97979(13) 0.54789(7) 0.63075(12)
H5 H 0.997762 0.523864 0.584045
C9 C 0.82924(14) 0.42300(7) 0.96776(12)
H6 H 0.845195 0.401841 0.915976
C10 C 0.90962(14) 0.65111(7) 0.85582(12)
H7 H 0.919629 0.688040 0.846936
C11 C 0.97102(14) 0.63845(7) 0.69531(12)
H8 H 0.981578 0.675681 0.691022
C12 C 0.78267(14) 0.48358(8) 1.11947(12)
H9 H 0.767499 0.505491 1.170637
C13 C 0.87306(14) 0.29158(7) 0.73053(13)
C14 C 0.91084(15) 0.33533(7) 0.67008(13)
H10 H 0.995983 0.330426 0.673711
H11 H 0.859287 0.334686 0.596162
C15 C 0.76677(14) 0.42794(8) 1.12120(13)
H12 H 0.740074 0.411780 1.172873
C16 C 0.78763(15) 0.25251(7) 0.67727(15)
H13 H 0.756739 0.252699 0.603524
C17 C 0.92085(16) 0.29017(7) 0.84135(14)
H14 H 0.980564 0.315090 0.877681
C18 C 0.74848(17) 0.21340(8) 0.73355(18)
H15 H 0.692543 0.187062 0.697292
C19 C 0.87883(18) 0.25144(8) 0.89687(17)
H16 H 0.909224 0.251131 0.970632
C20 C 0.79200(19) 0.21316(8) 0.84368(19)
H17 H 0.763298 0.187639 0.881364
O4 O 0.60754(10) 0.62569(5) 0.75414(8)
O5 O 0.52652(11) 0.59014(5) 0.87378(9)
O6 O 0.67356(11) 0.39943(5) 0.39895(9)
N6 N 0.59106(11) 0.44782(6) 0.72504(9)
N7 N 0.63782(11) 0.41792(6) 0.55473(10)
H18 H 0.631997 0.443114 0.597468
N8 N 0.59162(12) 0.53685(6) 0.76098(10)
H19 H 0.624757 0.539162 0.711846
N9 N 0.65700(11) 0.52453(6) 0.52903(10)
N10 N 0.61987(11) 0.36489(6) 0.57785(10)
C21 C 0.68189(13) 0.49161(7) 0.45765(12)
C22 C 0.57073(14) 0.58463(7) 0.80325(11)
C23 C 0.56588(13) 0.48475(7) 0.78761(11)
C24 C 0.66450(14) 0.43146(7) 0.46603(12)
C25 C 0.56961(13) 0.39494(7) 0.73829(12)
C26 C 0.67175(14) 0.57780(7) 0.51776(12)
H20 H 0.654728 0.601255 0.565825
C27 C 0.51825(14) 0.47113(7) 0.86828(11)
H21 H 0.500198 0.497669 0.910570
C28 C 0.59096(14) 0.35639(7) 0.66259(12)
H22 H 0.582397 0.320075 0.677781
C29 C 0.52449(14) 0.37771(7) 0.81793(12)
H23 H 0.511844 0.341058 0.827295
C30 C 0.71083(14) 0.60010(8) 0.43883(12)
H24 H 0.718773 0.637459 0.433887
C31 C 0.49885(14) 0.41654(8) 0.88300(12)
H25 H 0.468535 0.405969 0.936731
C32 C 0.61668(15) 0.72002(7) 0.71844(13)
C33 C 0.72269(14) 0.51049(8) 0.37718(12)
H26 H 0.739720 0.486349 0.330183
C34 C 0.73780(14) 0.56561(8) 0.36748(13)
H27 H 0.765468 0.579243 0.314237
C35 C 0.58443(17) 0.67922(7) 0.78824(14)
H28 H 0.634325 0.685055 0.861659
H29 H 0.498331 0.682755 0.782562
C36 C 0.70623(15) 0.75901(7) 0.76065(13)
H30 H 0.746481 0.760083 0.833514
C37 C 0.73652(15) 0.79635(8) 0.69580(15)
H31 H 0.796455 0.822469 0.725119
C38 C 0.55537(17) 0.71944(8) 0.60951(14)
H32 H 0.493542 0.694106 0.580298
C39 C 0.67764(18) 0.79483(8) 0.58737(15)
H33 H 0.699014 0.819313 0.543231
C40 C 0.58643(19) 0.75649(9) 0.54497(15)
H34 H 0.545719 0.755739 0.472157
loop_
_geom_bond_atom_site_label_1
_geom_bond_atom_site_label_2
_geom_bond_site_symmetry_1
_geom_bond_site_symmetry_2
O1 C4 1_555 1_555
O2 C4 1_555 1_555
O3 C3 1_555 1_555
N1 H1 1_555 1_555
N2 C1 1_555 1_555
N3 H2 1_555 1_555
N4 C2 1_555 1_555
N5 N3 1_555 1_555
C1 N1 1_555 1_555
C2 C3 1_555 1_555
C3 N3 1_555 1_555
C4 N1 1_555 1_555
C5 N2 1_555 1_555
C6 H3 1_555 1_555
C7 H4 1_555 1_555
C8 C1 1_555 1_555
H5 C8 1_555 1_555
C9 N4 1_555 1_555
H6 C9 1_555 1_555
C10 N5 1_555 1_555
H7 C10 1_555 1_555
C11 C5 1_555 1_555
H8 C11 1_555 1_555
C12 C2 1_555 1_555
H9 C12 1_555 1_555
C13 C14 1_555 1_555
C14 O1 1_555 1_555
H10 C14 1_555 1_555
H11 C14 1_555 1_555
C15 C7 1_555 1_555
H12 C15 1_555 1_555
C16 C13 1_555 1_555
H13 C16 1_555 1_555
C17 C13 1_555 1_555
H14 C17 1_555 1_555
C18 C16 1_555 1_555
H15 C18 1_555 1_555
C19 C17 1_555 1_555
H16 C19 1_555 1_555
C20 C18 1_555 1_555
H17 C20 1_555 1_555
O4 C22 1_555 1_555
O5 C22 1_555 1_555
O6 C24 1_555 1_555
N6 C23 1_555 1_555
N7 H18 1_555 1_555
N8 H19 1_555 1_555
N9 C21 1_555 1_555
N10 N7 1_555 1_555
C21 C24 1_555 1_555
C22 N8 1_555 1_555
C23 N8 1_555 1_555
C24 N7 1_555 1_555
C25 N6 1_555 1_555
C26 N9 1_555 1_555
H20 C26 1_555 1_555
C27 C23 1_555 1_555
H21 C27 1_555 1_555
C28 N10 1_555 1_555
H22 C28 1_555 1_555
C29 C25 1_555 1_555
H23 C29 1_555 1_555
C30 C26 1_555 1_555
H24 C30 1_555 1_555
C31 C27 1_555 1_555
H25 C31 1_555 1_555
C32 C35 1_555 1_555
C33 C21 1_555 1_555
H26 C33 1_555 1_555
C34 C30 1_555 1_555
H27 C34 1_555 1_555
C35 O4 1_555 1_555
H28 C35 1_555 1_555
H29 C35 1_555 1_555
C36 C32 1_555 1_555
H30 C36 1_555 1_555
C37 C36 1_555 1_555
H31 C37 1_555 1_555
C38 C32 1_555 1_555
H32 C38 1_555 1_555
C39 C37 1_555 1_555
H33 C39 1_555 1_555
C40 C38 1_555 1_555
H34 C40 1_555 1_555
C5 C10 1_555 1_555
C6 C8 1_555 1_555
C6 C11 1_555 1_555
C7 C9 1_555 1_555
C12 C15 1_555 1_555
C19 C20 1_555 1_555
C25 C28 1_555 1_555
C29 C31 1_555 1_555
C33 C34 1_555 1_555
C39 C40 1_555 1_555

#END
