
#######################################################################
#
#                 Cambridge Crystallographic Data Centre
#                                CCDC 
#
#######################################################################
#
# If this CIF has been generated from an entry in the Cambridge 
# Structural Database, then it will include bibliographic, chemical, 
# crystal, experimental, refinement or atomic coordinate data resulting 
# from the CCDC's data processing and validation procedures.
#
#######################################################################

data_QINYIY
_chemical_formula_moiety         'C25 H18 N2 O1'
_chemical_name_systematic        
3-[3-(3-methylphenyl)quinoxalin-2-yl]naphthalen-1-ol
_symmetry_cell_setting           monoclinic
_symmetry_space_group_name_H-M   'P 21/c'
_symmetry_Int_Tables_number      14
_space_group_name_Hall           '-P 2ybc'
loop_
_symmetry_equiv_pos_site_id
_symmetry_equiv_pos_as_xyz
1 x,y,z
2 -x,1/2+y,1/2-z
3 -x,-y,-z
4 x,1/2-y,1/2+z
_cell_length_a                   12.5461(11)
_cell_length_b                   8.8150(8)
_cell_length_c                   20.0989(17)
_cell_angle_alpha                90
_cell_angle_beta                 117.602(4)
_cell_angle_gamma                90
_cell_volume                     1969.83
_exptl_crystal_colour            yellow
_exptl_crystal_description       block
_cell_formula_units_Z            4
loop_
_atom_site_label
_atom_site_type_symbol
_atom_site_fract_x
_atom_site_fract_y
_atom_site_fract_z
N1 N 0.1916(3) 0.4915(3) 0.09184(18)
N2 N 0.4334(3) 0.4505(3) 0.12264(19)
O1 O 0.3392(2) 0.8720(3) 0.36448(13)
H1 H 0.3913 0.9050 0.3546
C1 C 0.2787(3) 0.7538(4) 0.3159(2)
C2 C 0.3086(3) 0.7070(4) 0.2622(2)
H2 H 0.3690 0.7564 0.2561
C3 C 0.2467(3) 0.5817(4) 0.21530(18)
C4 C 0.1554(3) 0.5146(4) 0.22357(19)
H3 H 0.1133 0.4351 0.1919
C5 C 0.1234(3) 0.5618(4) 0.2782(2)
C6 C 0.1863(3) 0.6855(4) 0.3259(2)
C7 C 0.1537(4) 0.7330(5) 0.3810(2)
H4 H 0.1941 0.8140 0.4121
C8 C 0.0625(4) 0.6613(6) 0.3894(2)
H5 H 0.0422 0.6934 0.4262
C9 C 0.0005(4) 0.5386(5) 0.3415(3)
H6 H -0.0605 0.4891 0.3470
C10 C 0.0302(4) 0.4934(5) 0.2877(2)
H7 H -0.0127 0.4143 0.2560
C11 C 0.2821(4) 0.5239(3) 0.1588(2)
C12 C 0.4043(4) 0.5000(4) 0.1743(2)
C13 C 0.3387(4) 0.4167(4) 0.0528(2)
C14 C 0.2195(4) 0.4346(4) 0.0384(2)
C15 C 0.1254(4) 0.3952(4) -0.0327(2)
H8 H 0.0455 0.4084 -0.0432
C16 C 0.1535(5) 0.3372(5) -0.0857(2)
H9 H 0.0917 0.3108 -0.1325
C17 C 0.2725(5) 0.3168(5) -0.0712(2)
H10 H 0.2883 0.2763 -0.1085
C18 C 0.3669(4) 0.3552(4) -0.0031(3)
H11 H 0.4462 0.3418 0.0063
C19 C 0.5078(3) 0.5202(4) 0.2515(2)
C20 C 0.5048(3) 0.4611(4) 0.3139(2)
H12 H 0.4358 0.4109 0.3082
C21 C 0.6023(4) 0.4742(5) 0.3857(2)
C22 C 0.7028(5) 0.5506(6) 0.3925(3)
H13 H 0.7686 0.5603 0.4398
C23 C 0.7087(4) 0.6132(5) 0.3311(3)
H14 H 0.7766 0.6667 0.3375
C24 C 0.6110(4) 0.5952(4) 0.2591(2)
H15 H 0.6151 0.6328 0.2171
C25 C 0.5949(4) 0.4057(5) 0.4520(2)
H16 H 0.6144 0.2997 0.4553
H17 H 0.5148 0.4175 0.4459
H18 H 0.6508 0.4560 0.4971
loop_
_geom_bond_atom_site_label_1
_geom_bond_atom_site_label_2
_geom_bond_site_symmetry_1
_geom_bond_site_symmetry_2
N1 C11 1_555 1_555
N2 C12 1_555 1_555
O1 H1 1_555 1_555
C1 O1 1_555 1_555
C2 C1 1_555 1_555
H2 C2 1_555 1_555
C3 C2 1_555 1_555
C4 C3 1_555 1_555
H3 C4 1_555 1_555
C5 C4 1_555 1_555
C6 C1 1_555 1_555
C7 C6 1_555 1_555
H4 C7 1_555 1_555
C8 C7 1_555 1_555
H5 C8 1_555 1_555
C9 C8 1_555 1_555
H6 C9 1_555 1_555
C10 C5 1_555 1_555
H7 C10 1_555 1_555
C11 C3 1_555 1_555
C12 C11 1_555 1_555
C13 N2 1_555 1_555
C14 N1 1_555 1_555
C15 C14 1_555 1_555
H8 C15 1_555 1_555
C16 C15 1_555 1_555
H9 C16 1_555 1_555
C17 C16 1_555 1_555
H10 C17 1_555 1_555
C18 C13 1_555 1_555
H11 C18 1_555 1_555
C19 C12 1_555 1_555
C20 C19 1_555 1_555
H12 C20 1_555 1_555
C21 C20 1_555 1_555
C22 C21 1_555 1_555
H13 C22 1_555 1_555
C23 C22 1_555 1_555
H14 C23 1_555 1_555
C24 C19 1_555 1_555
H15 C24 1_555 1_555
C25 C21 1_555 1_555
H16 C25 1_555 1_555
H17 C25 1_555 1_555
H18 C25 1_555 1_555
C5 C6 1_555 1_555
C9 C10 1_555 1_555
C13 C14 1_555 1_555
C17 C18 1_555 1_555
C23 C24 1_555 1_555

#END
