
#######################################################################
#
#                 Cambridge Crystallographic Data Centre
#                                CCDC 
#
#######################################################################
#
# If this CIF has been generated from an entry in the Cambridge 
# Structural Database, then it will include bibliographic, chemical, 
# crystal, experimental, refinement or atomic coordinate data resulting 
# from the CCDC's data processing and validation procedures.
#
#######################################################################

data_QIPFOM
_chemical_name_common            
6a,6b,14,15-Tetrahydro-5H,8H-[3,1]benzoxazino[2',1':3,4]pyrazino[1,2-a][3,1]benzoxazine-5,8-dione
_chemical_formula_moiety         'C18 H14 N2 O4'
_chemical_name_systematic        
3,22-Dioxa-11,14-diazapentacyclo[12.8.0.0^2,11^.0^5,10^.0^15,20^]docosa-5(10),6,8,15(20),16,18-hexaene-4,21-dione
_symmetry_cell_setting           triclinic
_symmetry_space_group_name_H-M   'P -1'
_symmetry_Int_Tables_number      2
_space_group_name_Hall           '-P 1'
loop_
_symmetry_equiv_pos_site_id
_symmetry_equiv_pos_as_xyz
1 x,y,z
2 -x,-y,-z
_cell_length_a                   8.0580(10)
_cell_length_b                   8.2629(11)
_cell_length_c                   12.0972(14)
_cell_angle_alpha                74.956(2)
_cell_angle_beta                 73.8680(10)
_cell_angle_gamma                72.3110(10)
_cell_volume                     723.54
_exptl_crystal_colour            orange
_exptl_crystal_description       block
_cell_formula_units_Z            2
loop_
_atom_site_label
_atom_site_type_symbol
_atom_site_fract_x
_atom_site_fract_y
_atom_site_fract_z
N1 N 0.5762(3) 0.3589(3) 0.6287(2)
N2 N 0.4532(3) 0.5027(3) 0.8359(2)
O1 O 0.7212(2) 0.5863(2) 0.54220(16)
O2 O 0.8892(2) 0.6033(3) 0.36520(18)
O3 O 0.6612(2) 0.6710(2) 0.75579(16)
O4 O 0.6823(3) 0.8514(3) 0.85352(18)
C1 C 0.6664(3) 0.4729(3) 0.6484(2)
H1 H 0.7706 0.4040 0.6809
C2 C 0.5451(3) 0.5917(3) 0.7294(2)
H2 H 0.4584 0.6804 0.6886
C3 C 0.3676(3) 0.3824(3) 0.8175(2)
H3 H 0.2659 0.4473 0.7830
H4 H 0.3242 0.3144 0.8926
C4 C 0.4938(4) 0.2636(4) 0.7389(2)
H5 H 0.5862 0.1867 0.7786
H6 H 0.4296 0.1932 0.7229
C5 C 0.8153(4) 0.5144(4) 0.4472(3)
C6 C 0.8080(4) 0.3362(4) 0.4543(3)
C7 C 0.6848(4) 0.2634(3) 0.5421(3)
C8 C 0.6709(4) 0.1016(4) 0.5381(3)
H7 H 0.5882 0.0506 0.5955
C9 C 0.7781(4) 0.0164(4) 0.4503(3)
H8 H 0.7666 -0.0916 0.4486
C10 C 0.9023(4) 0.0876(4) 0.3648(3)
H9 H 0.9759 0.0275 0.3065
C11 C 0.9168(4) 0.2484(4) 0.3660(3)
H10 H 0.9993 0.2985 0.3078
C12 C 0.5914(4) 0.7686(4) 0.8402(3)
C13 C 0.4154(4) 0.7550(4) 0.9111(2)
C14 C 0.3523(4) 0.6153(4) 0.9128(2)
C15 C 0.1977(4) 0.5903(4) 0.9944(3)
H11 H 0.1545 0.4958 0.9991
C16 C 0.1090(4) 0.7063(5) 1.0681(3)
H12 H 0.0060 0.6882 1.1226
C17 C 0.1676(4) 0.8473(4) 1.0639(3)
H13 H 0.1038 0.9257 1.1130
C18 C 0.3217(4) 0.8707(4) 0.9860(3)
H14 H 0.3643 0.9648 0.9830
loop_
_geom_bond_atom_site_label_1
_geom_bond_atom_site_label_2
_geom_bond_site_symmetry_1
_geom_bond_site_symmetry_2
N1 C1 1_555 1_555
N2 C2 1_555 1_555
O1 C1 1_555 1_555
O2 C5 1_555 1_555
O3 C2 1_555 1_555
O4 C12 1_555 1_555
C1 H1 1_555 1_555
C2 C1 1_555 1_555
H2 C2 1_555 1_555
C3 N2 1_555 1_555
H3 C3 1_555 1_555
H4 C3 1_555 1_555
C4 N1 1_555 1_555
H5 C4 1_555 1_555
H6 C4 1_555 1_555
C5 O1 1_555 1_555
C6 C5 1_555 1_555
C7 N1 1_555 1_555
C8 C7 1_555 1_555
H7 C8 1_555 1_555
C9 C8 1_555 1_555
H8 C9 1_555 1_555
C10 C9 1_555 1_555
H9 C10 1_555 1_555
C11 C6 1_555 1_555
H10 C11 1_555 1_555
C12 O3 1_555 1_555
C13 C12 1_555 1_555
C14 N2 1_555 1_555
C15 C14 1_555 1_555
H11 C15 1_555 1_555
C16 C15 1_555 1_555
H12 C16 1_555 1_555
C17 C16 1_555 1_555
H13 C17 1_555 1_555
C18 C13 1_555 1_555
H14 C18 1_555 1_555
C3 C4 1_555 1_555
C6 C7 1_555 1_555
C10 C11 1_555 1_555
C13 C14 1_555 1_555
C17 C18 1_555 1_555

#END
