
#######################################################################
#
#                 Cambridge Crystallographic Data Centre
#                                CCDC 
#
#######################################################################
#
# If this CIF has been generated from an entry in the Cambridge 
# Structural Database, then it will include bibliographic, chemical, 
# crystal, experimental, refinement or atomic coordinate data resulting 
# from the CCDC's data processing and validation procedures.
#
#######################################################################

data_QIPHUV
_chemical_formula_moiety         'C12 H11 Br1 O2'
_chemical_name_systematic        1-(4-bromophenyl)-5-oxaspiro[2.4]heptan-4-one
_symmetry_cell_setting           orthorhombic
_symmetry_space_group_name_H-M   'P 21 21 21'
_symmetry_Int_Tables_number      19
_space_group_name_Hall           'P 2ac 2ab'
loop_
_symmetry_equiv_pos_site_id
_symmetry_equiv_pos_as_xyz
1 x,y,z
2 1/2-x,-y,1/2+z
3 -x,1/2+y,1/2-z
4 1/2+x,1/2-y,-z
_cell_length_a                   6.3847(15)
_cell_length_b                   6.7025(19)
_cell_length_c                   25.206(9)
_cell_angle_alpha                90
_cell_angle_beta                 90
_cell_angle_gamma                90
_cell_volume                     1078.65
_exptl_crystal_colour            colorless
_exptl_crystal_description       block
_cell_formula_units_Z            4
loop_
_atom_site_label
_atom_site_type_symbol
_atom_site_fract_x
_atom_site_fract_y
_atom_site_fract_z
Br1 Br 0.17389(2) 0.65895(2) 0.53212(2)
O1 O 1.23244(13) 0.14719(15) 0.73081(4)
O2 O 0.92250(13) 0.13822(15) 0.77199(4)
C1 C 1.04384(16) 0.13423(16) 0.72808(5)
C2 C 0.70096(17) 0.13327(18) 0.75690(5)
H1 H 0.638998 0.268444 0.758992
H2 H 0.621539 0.043233 0.780659
C3 C 0.69567(16) 0.05611(17) 0.69991(4)
H3 H 0.675196 -0.090239 0.698769
H4 H 0.584019 0.121866 0.679005
C4 C 0.91032(16) 0.11407(16) 0.68035(4)
C5 C 1.0088(2) 0.05504(19) 0.62885(5)
H5 H 0.924256 -0.026914 0.604178
H6 H 1.160279 0.023411 0.629062
C6 C 0.94668(18) 0.26896(18) 0.63608(5)
H7 H 1.065219 0.363535 0.642403
C7 C 0.75972(17) 0.35743(17) 0.60989(4)
C8 C 0.6358(2) 0.25420(18) 0.57392(5)
H8 H 0.671817 0.121078 0.564748
C9 C 0.4596(2) 0.3416(2) 0.55098(5)
H9 H 0.375742 0.268976 0.526558
C10 C 0.40905(19) 0.53585(19) 0.56440(4)
C11 C 0.52859(19) 0.64292(19) 0.60047(5)
H10 H 0.491355 0.775777 0.609609
C12 C 0.7035(2) 0.55343(17) 0.62309(5)
H11 H 0.786069 0.626016 0.647811
loop_
_geom_bond_atom_site_label_1
_geom_bond_atom_site_label_2
_geom_bond_site_symmetry_1
_geom_bond_site_symmetry_2
Br1 C10 1_555 1_555
O1 C1 1_555 1_555
O2 C1 1_555 1_555
C1 C4 1_555 1_555
C2 O2 1_555 1_555
H1 C2 1_555 1_555
H2 C2 1_555 1_555
C3 C2 1_555 1_555
H3 C3 1_555 1_555
H4 C3 1_555 1_555
C4 C3 1_555 1_555
C5 C4 1_555 1_555
H5 C5 1_555 1_555
H6 C5 1_555 1_555
C6 C4 1_555 1_555
H7 C6 1_555 1_555
C7 C6 1_555 1_555
C8 C7 1_555 1_555
H8 C8 1_555 1_555
C9 C8 1_555 1_555
H9 C9 1_555 1_555
C10 C9 1_555 1_555
C11 C10 1_555 1_555
H10 C11 1_555 1_555
C12 C7 1_555 1_555
H11 C12 1_555 1_555
C5 C6 1_555 1_555
C11 C12 1_555 1_555

#END
