
#######################################################################
#
#                 Cambridge Crystallographic Data Centre
#                                CCDC 
#
#######################################################################
#
# If this CIF has been generated from an entry in the Cambridge 
# Structural Database, then it will include bibliographic, chemical, 
# crystal, experimental, refinement or atomic coordinate data resulting 
# from the CCDC's data processing and validation procedures.
#
#######################################################################

data_QIPJEH
_chemical_formula_moiety         'C10 H9 Br1 O2 S1'
_chemical_name_systematic        3-[(4-bromophenyl)sulfanyl]oxolan-2-one
_symmetry_cell_setting           monoclinic
_symmetry_space_group_name_H-M   'P 21'
_symmetry_Int_Tables_number      4
_space_group_name_Hall           'P 2yb'
loop_
_symmetry_equiv_pos_site_id
_symmetry_equiv_pos_as_xyz
1 x,y,z
2 -x,1/2+y,-z
_cell_length_a                   5.7304(6)
_cell_length_b                   8.3275(7)
_cell_length_c                   10.4712(8)
_cell_angle_alpha                90
_cell_angle_beta                 92.034(3)
_cell_angle_gamma                90
_cell_volume                     499.37
_exptl_crystal_colour            colorless
_exptl_crystal_description       Block
_cell_formula_units_Z            2
loop_
_atom_site_label
_atom_site_type_symbol
_atom_site_fract_x
_atom_site_fract_y
_atom_site_fract_z
Br1 Br -0.04099(2) 0.74510(2) 0.53862(2)
C1 C 0.1597(3) 0.59525(15) 0.62338(12)
C2 C 0.0943(3) 0.53268(16) 0.74002(12)
H1 H -0.047969 0.564675 0.776345
C3 C 0.2405(3) 0.42264(16) 0.80252(12)
H2 H 0.199134 0.380600 0.882961
C4 C 0.4479(3) 0.37324(16) 0.74813(12)
C5 C 0.4757(3) 0.07631(16) 0.87779(13)
H3 H 0.586463 -0.006029 0.914001
C6 C 0.3062(3) 0.11556(15) 0.98291(13)
O1 O 0.1071(2) 0.03229(14) 0.96277(10)
O2 O 0.3351(2) 0.20433(13) 1.07222(10)
C7 C 0.1301(3) -0.07922(19) 0.85613(14)
H4 H -0.018170 -0.086687 0.805006
H5 H 0.173365 -0.187694 0.887579
C8 C 0.3228(3) -0.00912(18) 0.77669(13)
H6 H 0.259103 0.067274 0.711931
H7 H 0.410451 -0.094577 0.733452
S1 S 0.65169(5) 0.24240(6) 0.82634(3)
C9 C 0.5095(3) 0.43767(17) 0.63092(12)
H8 H 0.650010 0.404274 0.593350
C10 C 0.3667(3) 0.55054(17) 0.56864(13)
H9 H 0.410449 0.596172 0.489855
loop_
_geom_bond_atom_site_label_1
_geom_bond_atom_site_label_2
_geom_bond_site_symmetry_1
_geom_bond_site_symmetry_2
Br1 C1 1_555 1_555
C1 C2 1_555 1_555
C2 H1 1_555 1_555
C3 C2 1_555 1_555
H2 C3 1_555 1_555
C4 C3 1_555 1_555
C5 H3 1_555 1_555
C6 C5 1_555 1_555
O1 C6 1_555 1_555
O2 C6 1_555 1_555
C7 O1 1_555 1_555
H4 C7 1_555 1_555
H5 C7 1_555 1_555
C8 C5 1_555 1_555
H6 C8 1_555 1_555
H7 C8 1_555 1_555
S1 C4 1_555 1_555
C9 C4 1_555 1_555
H8 C9 1_555 1_555
C10 C1 1_555 1_555
H9 C10 1_555 1_555
C5 S1 1_555 1_555
C7 C8 1_555 1_555
C9 C10 1_555 1_555

#END
