
#######################################################################
#
#                 Cambridge Crystallographic Data Centre
#                                CCDC 
#
#######################################################################
#
# If this CIF has been generated from an entry in the Cambridge 
# Structural Database, then it will include bibliographic, chemical, 
# crystal, experimental, refinement or atomic coordinate data resulting 
# from the CCDC's data processing and validation procedures.
#
#######################################################################

data_QIPJAD
_chemical_formula_moiety         'C13 H14 O3'
_chemical_name_systematic        
1-(4-methoxyphenyl)-5-oxaspiro[2.4]heptan-4-one
_symmetry_cell_setting           orthorhombic
_symmetry_space_group_name_H-M   'P 21 21 21'
_symmetry_Int_Tables_number      19
_space_group_name_Hall           'P 2ac 2ab'
loop_
_symmetry_equiv_pos_site_id
_symmetry_equiv_pos_as_xyz
1 x,y,z
2 1/2-x,-y,1/2+z
3 -x,1/2+y,1/2-z
4 1/2+x,1/2-y,-z
_cell_length_a                   6.2610(7)
_cell_length_b                   7.4076(8)
_cell_length_c                   24.242(2)
_cell_angle_alpha                90
_cell_angle_beta                 90
_cell_angle_gamma                90
_cell_volume                     1124.32
_exptl_crystal_colour            colorless
_exptl_crystal_description       block
_cell_formula_units_Z            4
loop_
_atom_site_label
_atom_site_type_symbol
_atom_site_fract_x
_atom_site_fract_y
_atom_site_fract_z
O1 O 0.4689(2) 0.48359(19) 0.46362(4)
O2 O 0.46989(19) 0.21596(15) 0.50615(5)
O3 O 0.83281(17) 0.57607(14) 0.80518(4)
C1 C 0.4498(2) 0.3970(2) 0.50554(6)
C2 C 0.4563(3) 0.1503(2) 0.56281(7)
H1 H 0.600680 0.126305 0.577775
H2 H 0.371878 0.037411 0.564496
C3 C 0.3474(2) 0.2987(2) 0.59523(6)
H3 H 0.190856 0.280406 0.596722
H4 H 0.404251 0.306856 0.633249
C4 C 0.4043(2) 0.46280(18) 0.56196(5)
C5 C 0.3155(3) 0.6484(2) 0.57013(7)
H5 H 0.214937 0.666822 0.601144
H6 H 0.283634 0.720659 0.536771
C6 C 0.5454(3) 0.61597(19) 0.58396(6)
H7 H 0.650647 0.666184 0.556994
C7 C 0.6217(2) 0.60527(18) 0.64219(5)
C8 C 0.5182(2) 0.69434(19) 0.68530(6)
H8 H 0.395379 0.765484 0.677709
C9 C 0.5920(2) 0.6805(2) 0.73903(6)
H9 H 0.518701 0.741069 0.767907
C10 C 0.7727(2) 0.57844(18) 0.75100(5)
C11 C 0.8787(2) 0.48833(18) 0.70873(6)
H10 H 1.002071 0.418045 0.716390
C12 C 0.8013(2) 0.50259(19) 0.65503(5)
H11 H 0.873328 0.440333 0.626264
C13 C 1.0296(3) 0.4904(2) 0.81913(6)
H12 H 1.146343 0.546732 0.798408
H13 H 1.021625 0.361874 0.809795
H14 H 1.056070 0.503817 0.858759
loop_
_geom_bond_atom_site_label_1
_geom_bond_atom_site_label_2
_geom_bond_site_symmetry_1
_geom_bond_site_symmetry_2
O1 C1 1_555 1_555
O2 C1 1_555 1_555
O3 C10 1_555 1_555
C1 C4 1_555 1_555
C2 O2 1_555 1_555
H1 C2 1_555 1_555
H2 C2 1_555 1_555
C3 C2 1_555 1_555
H3 C3 1_555 1_555
H4 C3 1_555 1_555
C4 C3 1_555 1_555
C5 C4 1_555 1_555
H5 C5 1_555 1_555
H6 C5 1_555 1_555
C6 C4 1_555 1_555
H7 C6 1_555 1_555
C7 C6 1_555 1_555
C8 C7 1_555 1_555
H8 C8 1_555 1_555
C9 C8 1_555 1_555
H9 C9 1_555 1_555
C10 C9 1_555 1_555
C11 C10 1_555 1_555
H10 C11 1_555 1_555
C12 C7 1_555 1_555
H11 C12 1_555 1_555
C13 O3 1_555 1_555
H12 C13 1_555 1_555
H13 C13 1_555 1_555
H14 C13 1_555 1_555
C5 C6 1_555 1_555
C11 C12 1_555 1_555

#END
