
#######################################################################
#
#                 Cambridge Crystallographic Data Centre
#                                CCDC 
#
#######################################################################
#
# If this CIF has been generated from an entry in the Cambridge 
# Structural Database, then it will include bibliographic, chemical, 
# crystal, experimental, refinement or atomic coordinate data resulting 
# from the CCDC's data processing and validation procedures.
#
#######################################################################

data_QIPPEN
_chemical_formula_moiety         'C17 H28 O2 Si1'
_chemical_name_systematic        
trimethyl(2,2,4,8-tetramethyl-4,5,8,8a-tetrahydro-2H,3aH-indeno[5,6-d][1,3]dioxol-5-yl)silane
_symmetry_cell_setting           orthorhombic
_symmetry_space_group_name_H-M   'P 21 21 21'
_symmetry_Int_Tables_number      19
_space_group_name_Hall           'P 2ac 2ab'
loop_
_symmetry_equiv_pos_site_id
_symmetry_equiv_pos_as_xyz
1 x,y,z
2 1/2-x,-y,1/2+z
3 -x,1/2+y,1/2-z
4 1/2+x,1/2-y,-z
_cell_length_a                   7.53335(13)
_cell_length_b                   10.27117(14)
_cell_length_c                   22.6089(3)
_cell_angle_alpha                90
_cell_angle_beta                 90
_cell_angle_gamma                90
_cell_volume                     1749.39
_exptl_crystal_colour            colorless
_exptl_crystal_description       prism
_cell_formula_units_Z            4
loop_
_atom_site_label
_atom_site_type_symbol
_atom_site_fract_x
_atom_site_fract_y
_atom_site_fract_z
Si1 Si 0.54477(6) 0.48533(4) 0.48598(2)
O1 O 0.40912(15) 0.78312(11) 0.74151(5)
O2 O 0.17575(14) 0.68033(11) 0.69445(5)
C1 C 0.6154(2) 0.43383(15) 0.56397(6)
H1 H 0.577(3) 0.3430(18) 0.5682(8)
C2 C 0.8117(2) 0.45642(15) 0.56855(7)
H2 H 0.896(3) 0.409(2) 0.5448(9)
C3 C 0.8432(2) 0.55299(15) 0.60724(7)
H3 H 0.956(3) 0.5887(19) 0.6189(8)
C4 C 0.6765(2) 0.59537(14) 0.63336(6)
C5 C 0.6581(2) 0.70124(15) 0.67937(7)
H4 H 0.752(2) 0.6910(18) 0.7084(8)
C6 C 0.4766(2) 0.67776(14) 0.70703(6)
H5 H 0.482(2) 0.5989(18) 0.7306(7)
C7 C 0.2190(2) 0.77061(15) 0.74124(7)
C8 C 0.33423(19) 0.66301(14) 0.66053(6)
H6 H 0.347(2) 0.7332(17) 0.6319(8)
C9 C 0.34769(19) 0.53383(14) 0.62763(6)
H7 H 0.274(2) 0.5375(18) 0.5917(8)
C10 C 0.54186(19) 0.52382(14) 0.61005(6)
C11 C 0.6808(2) 0.83797(16) 0.65311(8)
H8 H 0.663(3) 0.905(2) 0.6835(9)
H9 H 0.595(3) 0.854(2) 0.6215(10)
H10 H 0.802(3) 0.849(2) 0.6370(9)
C12 C 0.1537(2) 0.71384(17) 0.79894(8)
H11 H 0.024(3) 0.701(2) 0.7978(9)
H12 H 0.181(3) 0.775(2) 0.8319(9)
H13 H 0.214(3) 0.632(2) 0.8058(9)
C13 C 0.1420(3) 0.90366(16) 0.72814(8)
H14 H 0.188(3) 0.933(2) 0.6888(10)
H15 H 0.178(3) 0.964(2) 0.7575(10)
H16 H 0.012(3) 0.900(2) 0.7264(9)
C14 C 0.2849(2) 0.41590(16) 0.66333(7)
H17 H 0.354(3) 0.407(2) 0.6999(9)
H18 H 0.165(3) 0.421(2) 0.6734(9)
H19 H 0.303(3) 0.334(2) 0.6409(9)
C15 C 0.6805(4) 0.3918(2) 0.43171(9)
H20 H 0.794(4) 0.419(3) 0.4340(11)
H21 H 0.681(4) 0.301(3) 0.4402(13)
H22 H 0.641(4) 0.410(3) 0.3911(12)
C16 C 0.5812(3) 0.66371(17) 0.47683(8)
H23 H 0.492(4) 0.712(3) 0.4995(13)
H24 H 0.690(4) 0.688(3) 0.4902(13)
H25 H 0.567(4) 0.694(2) 0.4368(11)
C17 C 0.3068(3) 0.4413(2) 0.47268(8)
H26 H 0.279(3) 0.443(2) 0.4314(11)
H27 H 0.227(4) 0.501(3) 0.4935(13)
H28 H 0.282(4) 0.357(3) 0.4851(12)
loop_
_geom_bond_atom_site_label_1
_geom_bond_atom_site_label_2
_geom_bond_site_symmetry_1
_geom_bond_site_symmetry_2
Si1 C1 1_555 1_555
O1 C6 1_555 1_555
O2 C7 1_555 1_555
C1 H1 1_555 1_555
C2 C1 1_555 1_555
H2 C2 1_555 1_555
C3 C2 1_555 1_555
H3 C3 1_555 1_555
C4 C3 1_555 1_555
C5 C4 1_555 1_555
H4 C5 1_555 1_555
C6 C5 1_555 1_555
H5 C6 1_555 1_555
C7 O1 1_555 1_555
C8 O2 1_555 1_555
H6 C8 1_555 1_555
C9 C8 1_555 1_555
H7 C9 1_555 1_555
C10 C1 1_555 1_555
C11 C5 1_555 1_555
H8 C11 1_555 1_555
H9 C11 1_555 1_555
H10 C11 1_555 1_555
C12 C7 1_555 1_555
H11 C12 1_555 1_555
H12 C12 1_555 1_555
H13 C12 1_555 1_555
C13 C7 1_555 1_555
H14 C13 1_555 1_555
H15 C13 1_555 1_555
H16 C13 1_555 1_555
C14 C9 1_555 1_555
H17 C14 1_555 1_555
H18 C14 1_555 1_555
H19 C14 1_555 1_555
C15 Si1 1_555 1_555
H20 C15 1_555 1_555
H21 C15 1_555 1_555
H22 C15 1_555 1_555
C16 Si1 1_555 1_555
H23 C16 1_555 1_555
H24 C16 1_555 1_555
H25 C16 1_555 1_555
C17 Si1 1_555 1_555
H26 C17 1_555 1_555
H27 C17 1_555 1_555
H28 C17 1_555 1_555
C4 C10 1_555 1_555
C6 C8 1_555 1_555
C9 C10 1_555 1_555

#END
