
#######################################################################
#
#                 Cambridge Crystallographic Data Centre
#                                CCDC 
#
#######################################################################
#
# If this CIF has been generated from an entry in the Cambridge 
# Structural Database, then it will include bibliographic, chemical, 
# crystal, experimental, refinement or atomic coordinate data resulting 
# from the CCDC's data processing and validation procedures.
#
#######################################################################

data_QIPTIV
_chemical_formula_moiety         'C33 H40 Br1 N3 O3'
_chemical_name_systematic        
't-butyl {5-[3,5-bis(4-methylphenyl)-1H-pyrazol-1-yl]-2-bromo-1-cyclohexyl-5-oxopent-3-en-1-yl}carbamate'
_symmetry_cell_setting           monoclinic
_symmetry_space_group_name_H-M   'P 21'
_symmetry_Int_Tables_number      4
_space_group_name_Hall           'P 2yb'
loop_
_symmetry_equiv_pos_site_id
_symmetry_equiv_pos_as_xyz
1 x,y,z
2 -x,1/2+y,-z
_cell_length_a                   11.5281(3)
_cell_length_b                   9.2306(2)
_cell_length_c                   30.7030(7)
_cell_angle_alpha                90
_cell_angle_beta                 96.2370(10)
_cell_angle_gamma                90
_cell_volume                     3247.81
_exptl_crystal_colour            colorless
_exptl_crystal_description       prismatic
_cell_formula_units_Z            4
loop_
_atom_site_label
_atom_site_type_symbol
_atom_site_fract_x
_atom_site_fract_y
_atom_site_fract_z
Br1 Br 0.35063(3) 1.10342(5) 1.02233(2)
N1 N 0.3935(3) 0.7963(4) 0.84992(9)
N2 N 0.5083(3) 0.7557(4) 0.85959(10)
N3 N 0.3106(3) 0.7747(4) 1.05313(11)
O1 O 0.2249(3) 0.8148(4) 0.88219(9)
O2 O 0.3054(3) 0.5473(4) 1.02627(13)
O3 O 0.1514(2) 0.6478(3) 1.05542(10)
C1 C 0.3289(4) 0.8240(5) 0.88624(13)
C2 C 0.4017(4) 0.8648(5) 0.92680(12)
H1 H 0.4803 0.8860 0.9259
C3 C 0.3562(3) 0.8713(4) 0.96431(12)
H2 H 0.2785 0.8447 0.9649
C4 C 0.4236(3) 0.9195(4) 1.00571(11)
H3 H 0.5038 0.9401 0.9998
C5 C 0.4277(3) 0.8112(4) 1.04367(11)
H4 H 0.4616 0.7219 1.0333
C6 C 0.5060(3) 0.8571(4) 1.08483(12)
H5 H 0.4711 0.9431 1.0969
C7 C 0.5119(4) 0.7390(6) 1.11935(16)
H6 H 0.4342 0.7223 1.1276
H7 H 0.5381 0.6499 1.1068
C8 C 0.5932(5) 0.7755(8) 1.16007(16)
H8 H 0.5625 0.8580 1.1747
H9 H 0.5971 0.6940 1.1801
C9 C 0.7128(4) 0.8100(7) 1.14889(17)
H10 H 0.7466 0.7243 1.1370
H11 H 0.7617 0.8379 1.1753
C10 C 0.7101(5) 0.9313(7) 1.11583(18)
H12 H 0.7880 0.9467 1.1076
H13 H 0.6851 1.0201 1.1289
C11 C 0.6276(4) 0.8962(6) 1.07535(15)
H14 H 0.6232 0.9793 1.0559
H15 H 0.6596 0.8160 1.0601
C12 C 0.3543(4) 0.7748(5) 0.80594(12)
C13 C 0.4476(4) 0.7193(5) 0.78819(12)
H16 H 0.4499 0.6928 0.7591
C14 C 0.5407(4) 0.7091(5) 0.82214(12)
C15 C 0.6614(3) 0.6607(4) 0.82006(12)
C16 C 0.7274(3) 0.6081(7) 0.85676(12)
H17 H 0.6943 0.6013 0.8830
C17 C 0.8405(4) 0.5655(6) 0.85531(15)
H18 H 0.8826 0.5297 0.8806
C18 C 0.8938(4) 0.5744(6) 0.81727(15)
C19 C 0.8290(4) 0.6298(7) 0.78100(14)
H19 H 0.8631 0.6393 0.7551
C20 C 0.7146(4) 0.6719(5) 0.78200(14)
H20 H 0.6727 0.7082 0.7568
C21 C 1.0184(4) 0.5241(9) 0.8161(2)
H21 H 1.0287 0.4912 0.7871
H22 H 1.0347 0.4461 0.8365
H23 H 1.0707 0.6031 0.8239
C22 C 0.2414(4) 0.8222(5) 0.78360(12)
C23 C 0.1904(4) 0.7426(6) 0.74811(13)
H24 H 0.2246 0.6568 0.7401
C24 C 0.0882(5) 0.7914(8) 0.72471(15)
H25 H 0.0560 0.7379 0.7007
C25 C 0.0335(5) 0.9149(7) 0.73555(16)
C26 C 0.0850(5) 0.9943(7) 0.77043(16)
H26 H 0.0504 1.0801 0.7783
C27 C 0.1868(4) 0.9484(6) 0.79371(16)
H27 H 0.2199 1.0043 0.8170
C28 C -0.0818(5) 0.9639(8) 0.71113(19)
H28 H -0.0723 1.0582 0.6988
H29 H -0.1403 0.9679 0.7311
H30 H -0.1054 0.8964 0.6881
C29 C 0.2605(4) 0.6467(5) 1.04324(14)
C30 C 0.0711(4) 0.5242(6) 1.04600(19)
C31 C 0.1207(6) 0.3910(6) 1.0685(2)
H31 H 0.1896 0.3620 1.0558
H32 H 0.0641 0.3145 1.0651
H33 H 0.1405 0.4110 1.0991
C32 C -0.0357(5) 0.5772(9) 1.0664(2)
H34 H -0.0147 0.5970 1.0970
H35 H -0.0952 0.5040 1.0633
H36 H -0.0647 0.6641 1.0519
C33 C 0.0462(6) 0.5062(9) 0.9972(2)
H37 H 0.0262 0.5985 0.9840
H38 H -0.0177 0.4402 0.9908
H39 H 0.1142 0.4686 0.9856
H40 H 0.274(3) 0.841(4) 1.0619(12)
Br2 Br 0.66521(3) 0.60983(5) 0.50650(2)
N4 N 0.4196(3) 0.3246(4) 0.64681(10)
N5 N 0.3125(3) 0.3710(4) 0.62809(11)
N6 N 0.7409(3) 0.2793(4) 0.49136(11)
H41 H 0.7951 0.3426 0.4902
O4 O 0.6060(3) 0.2658(4) 0.63693(10)
O5 O 0.7045(3) 0.0458(3) 0.50713(11)
O6 O 0.8805(2) 0.1488(3) 0.52614(10)
C34 C 0.5148(4) 0.3155(5) 0.62121(14)
C35 C 0.4923(4) 0.3703(4) 0.57602(12)
H42 H 0.4180 0.3999 0.5647
C36 C 0.5808(3) 0.3760(4) 0.55214(12)
H43 H 0.6535 0.3461 0.5652
C37 C 0.5727(3) 0.4270(4) 0.50571(12)
H44 H 0.4910 0.4477 0.4952
C38 C 0.6217(3) 0.3177(4) 0.47500(11)
H45 H 0.5754 0.2292 0.4767
C39 C 0.6090(4) 0.3618(5) 0.42650(12)
H46 H 0.6513 0.4529 0.4238
C40 C 0.6629(5) 0.2479(6) 0.39953(15)
H47 H 0.6319 0.1537 0.4061
H48 H 0.7465 0.2458 0.4078
C41 C 0.6399(7) 0.2749(7) 0.35049(18)
H49 H 0.6811 0.3617 0.3432
H50 H 0.6705 0.1943 0.3350
C42 C 0.5138(7) 0.2922(7) 0.33559(16)
H51 H 0.4733 0.2022 0.3400
H52 H 0.5036 0.3147 0.3046
C43 C 0.4626(6) 0.4116(7) 0.36073(16)
H53 H 0.3795 0.4179 0.3517
H54 H 0.4977 0.5030 0.3538
C44 C 0.4822(4) 0.3868(6) 0.40975(14)
H55 H 0.4539 0.4704 0.4246
H56 H 0.4369 0.3035 0.4171
C45 C 0.4158(4) 0.2842(5) 0.69027(12)
C46 C 0.3042(4) 0.3042(5) 0.69801(14)
H57 H 0.2732 0.2854 0.7242
C47 C 0.2430(4) 0.3587(5) 0.65925(13)
C48 C 0.1202(4) 0.4075(5) 0.65237(14)
C49 C 0.0787(4) 0.4908(6) 0.61682(15)
H58 H 0.1276 0.5121 0.5955
C50 C -0.0338(4) 0.5433(6) 0.61220(16)
H59 H -0.0593 0.5994 0.5879
C51 C -0.1091(4) 0.5141(6) 0.64293(16)
C52 C -0.0687(5) 0.4273(7) 0.67733(18)
H60 H -0.1190 0.4036 0.6980
C53 C 0.0433(4) 0.3734(6) 0.68266(16)
H61 H 0.0674 0.3143 0.7065
C54 C -0.2292(4) 0.5812(8) 0.63976(18)
H62 H -0.2856 0.5080 0.6444
H63 H -0.2475 0.6230 0.6112
H64 H -0.2307 0.6553 0.6616
C55 C 0.5143(4) 0.2356(5) 0.72145(12)
C56 C 0.5063(4) 0.1074(7) 0.74371(12)
H65 H 0.4414 0.0485 0.7371
C57 C 0.5920(5) 0.0647(5) 0.77537(16)
H66 H 0.5841 -0.0233 0.7895
C58 C 0.6879(5) 0.1464(6) 0.78681(15)
C59 C 0.6960(5) 0.2768(7) 0.76556(17)
H67 H 0.7598 0.3367 0.7733
C60 C 0.6107(5) 0.3202(6) 0.73292(16)
H68 H 0.6189 0.4078 0.7186
C61 C 0.7813(5) 0.1021(10) 0.82300(16)
H69 H 0.7458 0.0522 0.8456
H70 H 0.8208 0.1869 0.8351
H71 H 0.8364 0.0392 0.8112
C62 C 0.7689(3) 0.1474(4) 0.50824(13)
C63 C 0.9323(4) 0.0228(5) 0.54951(16)
C64 C 0.8618(5) -0.0179(8) 0.58632(19)
H72 H 0.8521 0.0656 0.6042
H73 H 0.9019 -0.0924 0.6039
H74 H 0.7867 -0.0530 0.5743
C65 C 1.0529(4) 0.0771(7) 0.5666(2)
H75 H 1.0922 0.1110 0.5426
H76 H 1.0969 -0.0005 0.5812
H77 H 1.0458 0.1550 0.5869
C66 C 0.9404(5) -0.0998(6) 0.5178(2)
H78 H 0.8633 -0.1311 0.5069
H79 H 0.9821 -0.1790 0.5325
H80 H 0.9809 -0.0678 0.4938
loop_
_geom_bond_atom_site_label_1
_geom_bond_atom_site_label_2
_geom_bond_site_symmetry_1
_geom_bond_site_symmetry_2
Br1 C4 1_555 1_555
N1 N2 1_555 1_555
N2 C14 1_555 1_555
N3 C5 1_555 1_555
O1 C1 1_555 1_555
O2 C29 1_555 1_555
O3 C29 1_555 1_555
C1 N1 1_555 1_555
C2 C1 1_555 1_555
H1 C2 1_555 1_555
C3 C2 1_555 1_555
H2 C3 1_555 1_555
C4 C3 1_555 1_555
H3 C4 1_555 1_555
C5 C4 1_555 1_555
H4 C5 1_555 1_555
C6 C5 1_555 1_555
H5 C6 1_555 1_555
C7 C6 1_555 1_555
H6 C7 1_555 1_555
H7 C7 1_555 1_555
C8 C7 1_555 1_555
H8 C8 1_555 1_555
H9 C8 1_555 1_555
C9 C8 1_555 1_555
H10 C9 1_555 1_555
H11 C9 1_555 1_555
C10 C9 1_555 1_555
H12 C10 1_555 1_555
H13 C10 1_555 1_555
C11 C6 1_555 1_555
H14 C11 1_555 1_555
H15 C11 1_555 1_555
C12 N1 1_555 1_555
C13 C12 1_555 1_555
H16 C13 1_555 1_555
C14 C13 1_555 1_555
C15 C14 1_555 1_555
C16 C15 1_555 1_555
H17 C16 1_555 1_555
C17 C16 1_555 1_555
H18 C17 1_555 1_555
C18 C17 1_555 1_555
C19 C18 1_555 1_555
H19 C19 1_555 1_555
C20 C15 1_555 1_555
H20 C20 1_555 1_555
C21 C18 1_555 1_555
H21 C21 1_555 1_555
H22 C21 1_555 1_555
H23 C21 1_555 1_555
C22 C12 1_555 1_555
C23 C22 1_555 1_555
H24 C23 1_555 1_555
C24 C23 1_555 1_555
H25 C24 1_555 1_555
C25 C24 1_555 1_555
C26 C25 1_555 1_555
H26 C26 1_555 1_555
C27 C22 1_555 1_555
H27 C27 1_555 1_555
C28 C25 1_555 1_555
H28 C28 1_555 1_555
H29 C28 1_555 1_555
H30 C28 1_555 1_555
C29 N3 1_555 1_555
C30 O3 1_555 1_555
C31 C30 1_555 1_555
H31 C31 1_555 1_555
H32 C31 1_555 1_555
H33 C31 1_555 1_555
C32 C30 1_555 1_555
H34 C32 1_555 1_555
H35 C32 1_555 1_555
H36 C32 1_555 1_555
C33 C30 1_555 1_555
H37 C33 1_555 1_555
H38 C33 1_555 1_555
H39 C33 1_555 1_555
H40 N3 1_555 1_555
Br2 C37 1_555 1_555
N4 N5 1_555 1_555
N5 C47 1_555 1_555
N6 H41 1_555 1_555
O4 C34 1_555 1_555
O5 C62 1_555 1_555
O6 C62 1_555 1_555
C34 N4 1_555 1_555
C35 C34 1_555 1_555
H42 C35 1_555 1_555
C36 C35 1_555 1_555
H43 C36 1_555 1_555
C37 C36 1_555 1_555
H44 C37 1_555 1_555
C38 N6 1_555 1_555
H45 C38 1_555 1_555
C39 C38 1_555 1_555
H46 C39 1_555 1_555
C40 C39 1_555 1_555
H47 C40 1_555 1_555
H48 C40 1_555 1_555
C41 C40 1_555 1_555
H49 C41 1_555 1_555
H50 C41 1_555 1_555
C42 C41 1_555 1_555
H51 C42 1_555 1_555
H52 C42 1_555 1_555
C43 C42 1_555 1_555
H53 C43 1_555 1_555
H54 C43 1_555 1_555
C44 C39 1_555 1_555
H55 C44 1_555 1_555
H56 C44 1_555 1_555
C45 N4 1_555 1_555
C46 C45 1_555 1_555
H57 C46 1_555 1_555
C47 C46 1_555 1_555
C48 C47 1_555 1_555
C49 C48 1_555 1_555
H58 C49 1_555 1_555
C50 C49 1_555 1_555
H59 C50 1_555 1_555
C51 C50 1_555 1_555
C52 C51 1_555 1_555
H60 C52 1_555 1_555
C53 C48 1_555 1_555
H61 C53 1_555 1_555
C54 C51 1_555 1_555
H62 C54 1_555 1_555
H63 C54 1_555 1_555
H64 C54 1_555 1_555
C55 C45 1_555 1_555
C56 C55 1_555 1_555
H65 C56 1_555 1_555
C57 C56 1_555 1_555
H66 C57 1_555 1_555
C58 C57 1_555 1_555
C59 C58 1_555 1_555
H67 C59 1_555 1_555
C60 C55 1_555 1_555
H68 C60 1_555 1_555
C61 C58 1_555 1_555
H69 C61 1_555 1_555
H70 C61 1_555 1_555
H71 C61 1_555 1_555
C62 N6 1_555 1_555
C63 O6 1_555 1_555
C64 C63 1_555 1_555
H72 C64 1_555 1_555
H73 C64 1_555 1_555
H74 C64 1_555 1_555
C65 C63 1_555 1_555
H75 C65 1_555 1_555
H76 C65 1_555 1_555
H77 C65 1_555 1_555
C66 C63 1_555 1_555
H78 C66 1_555 1_555
H79 C66 1_555 1_555
H80 C66 1_555 1_555
C10 C11 1_555 1_555
C19 C20 1_555 1_555
C26 C27 1_555 1_555
C37 C38 1_555 1_555
C43 C44 1_555 1_555
C52 C53 1_555 1_555
C59 C60 1_555 1_555

#END
