
#######################################################################
#
#                 Cambridge Crystallographic Data Centre
#                                CCDC 
#
#######################################################################
#
# If this CIF has been generated from an entry in the Cambridge 
# Structural Database, then it will include bibliographic, chemical, 
# crystal, experimental, refinement or atomic coordinate data resulting 
# from the CCDC's data processing and validation procedures.
#
#######################################################################

data_QIPWIX
_chemical_formula_moiety         
'C84 H80 N6 O4,C16 H36 N1 1+,C2 H3 O2 1-,C5 H12,C4 H8 O2'
_chemical_name_systematic        
'tetrabutylammonium 13,44,59,68-tetra-t-butyl-20,21,36,37-tetramethoxy-2,9,25,32,48,55-hexaazatetradecacyclo[64.4.0.0^3,8^.0^4,70^.0^7,11^.0^10,15^.0^18,23^.0^26,31^.0^34,39^.0^42,47^.0^46,50^.0^49,54^.0^53,57^.0^56,61^]heptaconta-1(70),3,5,7,10,12,14,18,20,22,24,32,34,36,38,42,44,46,49,51,53,56,58,60,66,68-hexacosaene-16,40,62,64-tetrayne acetate pentane ethyl acetate solvate'
_symmetry_cell_setting           orthorhombic
_symmetry_space_group_name_H-M   'P 21 21 21'
_symmetry_Int_Tables_number      19
_space_group_name_Hall           'P 2ac 2ab'
loop_
_symmetry_equiv_pos_site_id
_symmetry_equiv_pos_as_xyz
1 x,y,z
2 1/2-x,-y,1/2+z
3 1/2+x,1/2-y,-z
4 -x,1/2+y,1/2-z
_cell_length_a                   16.0521(4)
_cell_length_b                   16.1874(4)
_cell_length_c                   38.9167(10)
_cell_angle_alpha                90
_cell_angle_beta                 90
_cell_angle_gamma                90
_cell_volume                     10112.2
_exptl_crystal_colour            'light yellow'
_exptl_crystal_description       block
_cell_formula_units_Z            4
loop_
_atom_site_label
_atom_site_type_symbol
_atom_site_fract_x
_atom_site_fract_y
_atom_site_fract_z
N7 N -0.7525(2) -1.5151(2) -0.01557(11)
C85 C -0.8648(3) -1.4531(3) -0.05393(15)
H81 H -0.8707 -1.4062 -0.0378
H82 H -0.8236 -1.4372 -0.0717
C86 C -0.7601(3) -1.4471(3) 0.01046(13)
H83 H -0.7068 -1.4431 0.0232
H84 H -0.7682 -1.3943 -0.0019
C87 C -0.5855(3) -1.5335(4) -0.08772(15)
H85 H -0.5816 -1.4741 -0.0937
H86 H -0.5393 -1.5468 -0.0718
C88 C -0.6837(3) -1.4898(3) -0.04010(13)
H87 H -0.6313 -1.4839 -0.0269
H88 H -0.6975 -1.4350 -0.0498
C89 C -0.8325(3) -1.5281(3) -0.03447(13)
H89 H -0.8756 -1.5455 -0.0178
H90 H -0.8248 -1.5739 -0.0510
C90 C -0.6684(3) -1.5498(4) -0.06979(15)
H91 H -0.6689 -1.6071 -0.0609
H92 H -0.7142 -1.5446 -0.0867
C91 C -0.9788(4) -1.3959(4) -0.0913(2)
H93 H -0.9523 -1.3955 -0.1140
H94 H -0.9645 -1.3450 -0.0790
H95 H -1.0394 -1.3993 -0.0940
C92 C -0.5767(4) -1.5846(4) -0.12005(16)
H96 H -0.6063 -1.5574 -0.1390
H97 H -0.6005 -1.6395 -0.1162
H98 H -0.5176 -1.5899 -0.1259
C93 C -0.7310(3) -1.5983(3) 0.00077(15)
H99 H -0.7246 -1.6396 -0.0178
H100 H -0.7787 -1.6159 0.0151
C94 C -0.8198(4) -1.4001(4) 0.06681(15)
H101 H -0.7610 -1.3998 0.0744
H102 H -0.8349 -1.3431 0.0601
C95 C -0.6643(4) -1.5965(6) 0.06096(17)
H103 H -0.6090 -1.6026 0.0719
H104 H -0.6841 -1.5400 0.0664
C96 C -0.9481(3) -1.4698(4) -0.07102(17)
H105 H -0.9426 -1.5177 -0.0866
H106 H -0.9898 -1.4840 -0.0532
C97 C -0.6513(3) -1.6004(4) 0.02325(16)
H107 H -0.6204 -1.6519 0.0179
H108 H -0.6153 -1.5535 0.0165
C98 C -0.8290(3) -1.4570(4) 0.03587(14)
H109 H -0.8304 -1.5150 0.0439
H110 H -0.8828 -1.4453 0.0244
C99 C -0.8749(5) -1.4274(7) 0.0964(2)
H111 H -0.9313 -1.4383 0.0879
H112 H -0.8768 -1.3837 0.1138
H113 H -0.8520 -1.4779 0.1067
C100 C -0.7189(6) -1.6522(7) 0.0775(2)
H114 H -0.7569 -1.6764 0.0606
H115 H -0.7511 -1.6227 0.0950
H116 H -0.6864 -1.6962 0.0885
O5 O -0.81235(19) -0.9911(2) 0.01154(9)
O6 O -0.7123(3) -1.0872(3) 0.00564(11)
C101 C -0.7399(4) -1.0226(3) 0.01692(14)
C102 C -0.6777(4) -0.9755(4) 0.03958(18)
H117 H -0.6372 -0.9468 0.0250
H118 H -0.6484 -1.0146 0.0546
H119 H -0.7077 -0.9351 0.0537
O1 O -0.78184(19) -0.69932(19) -0.09758(8)
C1 C -0.7461(2) -0.7757(3) -0.10053(11)
O2 O -0.74030(19) -0.76639(19) -0.04046(7)
C2 C -0.7222(2) -0.8130(3) -0.06937(11)
N1 N -0.8833(2) -0.8623(2) 0.05214(9)
H1 H -0.8642 -0.9103 0.0451
N2 N -0.9188(2) -0.8570(2) -0.02926(9)
H2 H -0.8959 -0.9059 -0.0263
O3 O -0.7424(2) -1.3259(2) -0.09929(9)
C3 C -0.6376(3) -1.0124(3) -0.09894(11)
C4 C -0.6729(2) -0.9316(3) -0.10014(11)
C5 C -0.7831(3) -1.2031(3) -0.13092(13)
H3 H -0.7644 -1.2260 -0.1520
C6 C -0.6964(2) -0.8957(3) -0.13142(10)
N3 N -0.7268(2) -0.9235(2) -0.19026(9)
C7 C -0.8028(3) -1.2142(3) -0.06994(12)
C8 C -0.9436(2) -0.8601(2) -0.09266(11)
C9 C -0.7327(3) -0.8171(3) -0.13082(11)
H4 H -0.7484 -0.7917 -0.1519
C10 C -0.7753(3) -1.2481(3) -0.10141(13)
C11 C -0.6115(3) -1.0823(3) -0.09954(11)
C12 C -0.9208(3) -0.7557(3) 0.08695(11)
C13 C -0.8557(3) -0.8734(3) 0.11506(11)
C14 C -0.8452(2) -1.0904(3) -0.09969(12)
O4 O -0.7942(2) -1.2630(2) -0.04112(9)
C15 C -0.8180(3) -1.1238(3) -0.13066(12)
C16 C -0.9076(2) -0.9402(3) -0.09674(11)
N4 N -0.6377(2) -1.2231(2) 0.04073(10)
H5 H -0.6629 -1.1761 0.0361
C17 C -0.5762(3) -1.1628(3) -0.10038(11)
C18 C -0.8785(2) -1.0083(3) -0.09781(11)
N5 N -0.7843(3) -1.0955(2) -0.18959(10)
C19 C -0.5263(3) -1.2864(3) -0.07052(11)
C20 C -0.9455(2) -0.8256(3) -0.05989(11)
C21 C -0.6868(2) -0.8897(3) -0.06905(11)
H6 H -0.6717 -0.9147 -0.0479
C22 C -0.9803(2) -0.7459(2) -0.05444(12)
C23 C -0.8362(3) -1.1361(3) -0.06927(12)
H7 H -0.8534 -1.1128 -0.0480
C24 C -0.6362(3) -1.2631(3) 0.07235(11)
C25 C -0.4939(3) -1.3169(3) -0.10072(12)
H8 H -0.4641 -1.3675 -0.1006
C26 C -0.5147(2) -1.4007(3) 0.01568(11)
H9 H -0.4941 -1.4487 0.0269
C27 C -0.9803(3) -0.6629(3) 0.03756(12)
H10 H -0.9958 -0.6177 0.0517
C28 C -0.8840(3) -0.8335(3) 0.08530(11)
N6 N -0.5977(2) -1.1930(2) -0.03796(9)
H11 H -0.6254 -1.1485 -0.0317
C29 C -0.5692(3) -1.2093(3) -0.07030(11)
C30 C -0.8190(3) -0.9522(3) 0.11393(12)
C31 C -0.9010(3) -0.7519(3) 0.14837(12)
C32 C -0.9186(2) -0.8012(3) 0.03184(11)
C33 C -0.9788(3) -0.8140(3) -0.11947(12)
H12 H -0.9773 -0.8364 -0.1420
C34 C -0.7877(3) -1.0202(3) 0.11118(12)
C35 C -0.9717(2) -0.7287(3) -0.01838(11)
C36 C -0.5048(3) -1.2733(3) -0.13199(11)
C37 C -1.0151(3) -0.7029(3) -0.08177(12)
H13 H -1.0384 -0.6498 -0.0779
C38 C -0.7169(3) -0.9802(3) -0.21962(11)
H14 H -0.6638 -1.0119 -0.2171
C39 C -0.6740(3) -1.2382(3) 0.10319(12)
C40 C -0.8235(3) -1.0755(3) -0.16272(11)
H15 H -0.8578 -1.0277 -0.1632
C41 C -0.5301(3) -1.3178(3) -0.03503(11)
C42 C -0.6642(3) -1.2925(3) 0.13103(12)
H16 H -0.6872 -1.2768 0.1526
C43 C -0.8068(3) -0.6610(3) -0.12944(13)
H17 H -0.8467 -0.6967 -0.1413
H18 H -0.7577 -0.6527 -0.1440
H19 H -0.8328 -0.6075 -0.1246
C44 C -0.5760(3) -1.2578(3) -0.01674(11)
C45 C -0.9336(2) -0.7991(3) -0.00360(11)
C46 C -0.5917(3) -1.3372(3) 0.06949(11)
C47 C -0.6185(3) -1.4222(3) 0.16146(12)
C48 C -0.9430(2) -0.7335(3) 0.05195(12)
C49 C -0.5441(3) -1.1965(3) -0.13047(11)
H20 H -0.5492 -1.1655 -0.1511
C50 C -1.0165(3) -0.7359(3) -0.11467(12)
C51 C -0.6861(3) -0.9419(3) -0.16308(10)
H21 H -0.6483 -0.9870 -0.1636
C52 C -0.4979(2) -1.3877(3) -0.01881(11)
H22 H -0.4647 -1.4259 -0.0313
C53 C -0.5919(3) -1.2709(3) 0.01767(12)
C54 C -0.7491(3) -1.0961(3) 0.10816(11)
C55 C -0.7916(3) -1.0406(3) -0.21933(12)
H23 H -0.8448 -1.0087 -0.2178
C56 C -0.9298(3) -0.7153(3) 0.11773(12)
H24 H -0.9556 -0.6625 0.1184
C57 C -0.7211(3) -0.8054(3) -0.00824(11)
H25 H -0.7434 -0.8618 -0.0082
H26 H -0.7463 -0.7738 0.0106
H27 H -0.6605 -0.8072 -0.0051
C58 C -0.5622(2) -1.3427(3) 0.03402(11)
C59 C -0.6228(3) -1.3683(3) 0.12903(12)
C60 C -0.8642(3) -0.8299(3) 0.14644(12)
H28 H -0.8441 -0.8548 0.1669
C61 C -0.7192(4) -1.3633(3) -0.13069(15)
H29 H -0.7683 -1.3685 -0.1455
H30 H -0.6960 -1.4182 -0.1262
H31 H -0.6773 -1.3290 -0.1422
C62 C -0.4714(3) -1.3055(3) -0.16608(12)
C63 C -0.7126(4) -0.9861(4) -0.28474(13)
H32 H -0.7123 -0.9521 -0.3059
H33 H -0.6614 -1.0202 -0.2845
C64 C -0.7153(3) -1.1622(3) 0.10603(12)
C65 C -0.9941(2) -0.6602(3) 0.00267(12)
H34 H -1.0187 -0.6126 -0.0074
C66 C -0.7921(4) -1.0938(4) -0.25163(13)
H35 H -0.8431 -1.1281 -0.2518
H36 H -0.7435 -1.1315 -0.2511
C67 C -0.7142(4) -0.9295(3) -0.25293(11)
H37 H -0.6640 -0.8941 -0.2529
H38 H -0.7637 -0.8932 -0.2540
C68 C -0.5845(3) -1.3888(3) 0.09827(11)
H39 H -0.5530 -1.4384 0.0967
C69 C -0.7889(4) -1.0420(4) -0.28460(13)
H40 H -0.7871 -1.0791 -0.3048
H41 H -0.8399 -1.0079 -0.2863
C70 C -0.5269(4) -1.2793(4) -0.19622(13)
H42 H -0.5835 -1.3004 -0.1926
H43 H -0.5044 -1.3019 -0.2177
H44 H -0.5284 -1.2189 -0.1976
C71 C -0.9090(4) -0.7055(4) 0.18265(13)
C72 C -0.4680(4) -1.3999(4) -0.16624(15)
H45 H -0.4286 -1.4188 -0.1487
H46 H -0.4498 -1.4192 -0.1889
H47 H -0.5235 -1.4220 -0.1612
C73 C -0.3836(3) -1.2717(4) -0.17167(14)
H48 H -0.3862 -1.2116 -0.1745
H49 H -0.3595 -1.2967 -0.1923
H50 H -0.3488 -1.2852 -0.1517
C74 C -1.0595(3) -0.6923(3) -0.14464(14)
C75 C -0.5770(5) -1.5066(4) 0.15403(15)
H51 H -0.6102 -1.5368 0.1371
H52 H -0.5738 -1.5387 0.1753
H53 H -0.5207 -1.4976 0.1450
C76 C -0.8380(4) -1.2358(4) -0.01151(14)
H54 H -0.8919 -1.2126 -0.0184
H55 H -0.8053 -1.1934 0.0003
H56 H -0.8471 -1.2827 0.0040
C77 C -0.8728(4) -0.7530(5) 0.21263(14)
H57 H -0.9012 -0.8063 0.2148
H58 H -0.8805 -0.7212 0.2338
H59 H -0.8132 -0.7622 0.2087
C78 C -0.8582(5) -0.6252(4) 0.18029(16)
H60 H -0.7990 -0.6386 0.1776
H61 H -0.8662 -0.5929 0.2013
H62 H -0.8771 -0.5930 0.1604
C79 C -1.1356(4) -0.7399(5) -0.1560(2)
H63 H -1.1207 -0.7979 -0.1597
H64 H -1.1569 -0.7163 -0.1775
H65 H -1.1787 -0.7363 -0.1382
C80 C -0.7049(4) -1.4351(5) 0.17617(18)
H66 H -0.7305 -1.3814 0.1809
H67 H -0.7009 -1.4669 0.1975
H68 H -0.7391 -1.4655 0.1596
C81 C -0.5650(5) -1.3772(4) 0.18852(17)
H69 H -0.5074 -1.3733 0.1803
H70 H -0.5664 -1.4081 0.2102
H71 H -0.5873 -1.3215 0.1923
C82 C -1.0810(11) -0.6052(5) -0.1352(2)
H72 H -1.1208 -0.6054 -0.1161
H73 H -1.1060 -0.5774 -0.1551
H74 H -1.0304 -0.5758 -0.1283
C83 C -1.0003(5) -0.6861(6) 0.18905(17)
H75 H -1.0218 -0.6520 0.1702
H76 H -1.0060 -0.6562 0.2108
H77 H -1.0321 -0.7378 0.1902
C84 C -1.0049(5) -0.6855(9) -0.1751(2)
H78 H -0.9603 -0.6457 -0.1704
H79 H -1.0376 -0.6667 -0.1948
H80 H -0.9804 -0.7396 -0.1802
loop_
_geom_bond_atom_site_label_1
_geom_bond_atom_site_label_2
_geom_bond_site_symmetry_1
_geom_bond_site_symmetry_2
O1 C1 1_555 1_555
C1 C2 1_555 1_555
O2 C2 1_555 1_555
C2 C21 1_555 1_555
N1 H1 1_555 1_555
N2 H2 1_555 1_555
O3 C10 1_555 1_555
C3 C4 1_555 1_555
C4 C6 1_555 1_555
C5 H3 1_555 1_555
C6 C9 1_555 1_555
N3 C38 1_555 1_555
C7 C10 1_555 1_555
C8 C16 1_555 1_555
C9 C1 1_555 1_555
H4 C9 1_555 1_555
C10 C5 1_555 1_555
C11 C3 1_555 1_555
C12 C28 1_555 1_555
C13 C28 1_555 1_555
C14 C15 1_555 1_555
O4 C7 1_555 1_555
C15 C5 1_555 1_555
C16 C18 1_555 1_555
N4 H5 1_555 1_555
C17 C11 1_555 1_555
C18 C14 1_555 1_555
N5 C40 1_555 1_555
C19 C25 1_555 1_555
C20 N2 1_555 1_555
C21 C4 1_555 1_555
H6 C21 1_555 1_555
C22 C20 1_555 1_555
C23 C7 1_555 1_555
H7 C23 1_555 1_555
C24 N4 1_555 1_555
C25 H8 1_555 1_555
C26 H9 1_555 1_555
C27 H10 1_555 1_555
C28 N1 1_555 1_555
N6 H11 1_555 1_555
C29 C17 1_555 1_555
C30 C13 1_555 1_555
C31 C56 1_555 1_555
C32 N1 1_555 1_555
C33 C8 1_555 1_555
H12 C33 1_555 1_555
C34 C30 1_555 1_555
C35 C22 1_555 1_555
C36 C25 1_555 1_555
C37 C22 1_555 1_555
H13 C37 1_555 1_555
C38 H14 1_555 1_555
C39 C24 1_555 1_555
C40 C15 1_555 1_555
H15 C40 1_555 1_555
C41 C19 1_555 1_555
C42 C39 1_555 1_555
H16 C42 1_555 1_555
C43 O1 1_555 1_555
H17 C43 1_555 1_555
H18 C43 1_555 1_555
H19 C43 1_555 1_555
C44 N6 1_555 1_555
C45 N2 1_555 1_555
C46 C24 1_555 1_555
C47 C59 1_555 1_555
C48 C12 1_555 1_555
C49 C17 1_555 1_555
H20 C49 1_555 1_555
C50 C33 1_555 1_555
C51 C6 1_555 1_555
H21 C51 1_555 1_555
C52 C26 1_555 1_555
H22 C52 1_555 1_555
C53 N4 1_555 1_555
C54 C34 1_555 1_555
C55 N5 1_555 1_555
H23 C55 1_555 1_555
C56 C12 1_555 1_555
H24 C56 1_555 1_555
C57 O2 1_555 1_555
H25 C57 1_555 1_555
H26 C57 1_555 1_555
H27 C57 1_555 1_555
C58 C26 1_555 1_555
C59 C42 1_555 1_555
C60 C13 1_555 1_555
H28 C60 1_555 1_555
C61 O3 1_555 1_555
H29 C61 1_555 1_555
H30 C61 1_555 1_555
H31 C61 1_555 1_555
C62 C36 1_555 1_555
C63 H32 1_555 1_555
H33 C63 1_555 1_555
C64 C39 1_555 1_555
C65 C27 1_555 1_555
H34 C65 1_555 1_555
C66 C55 1_555 1_555
H35 C66 1_555 1_555
H36 C66 1_555 1_555
C67 C38 1_555 1_555
H37 C67 1_555 1_555
H38 C67 1_555 1_555
C68 C46 1_555 1_555
H39 C68 1_555 1_555
C69 C63 1_555 1_555
H40 C69 1_555 1_555
H41 C69 1_555 1_555
C70 C62 1_555 1_555
H42 C70 1_555 1_555
H43 C70 1_555 1_555
H44 C70 1_555 1_555
C71 C31 1_555 1_555
C72 C62 1_555 1_555
H45 C72 1_555 1_555
H46 C72 1_555 1_555
H47 C72 1_555 1_555
C73 C62 1_555 1_555
H48 C73 1_555 1_555
H49 C73 1_555 1_555
H50 C73 1_555 1_555
C74 C50 1_555 1_555
C75 C47 1_555 1_555
H51 C75 1_555 1_555
H52 C75 1_555 1_555
H53 C75 1_555 1_555
C76 O4 1_555 1_555
H54 C76 1_555 1_555
H55 C76 1_555 1_555
H56 C76 1_555 1_555
C77 C71 1_555 1_555
H57 C77 1_555 1_555
H58 C77 1_555 1_555
H59 C77 1_555 1_555
C78 C71 1_555 1_555
H60 C78 1_555 1_555
H61 C78 1_555 1_555
H62 C78 1_555 1_555
C79 C74 1_555 1_555
H63 C79 1_555 1_555
H64 C79 1_555 1_555
H65 C79 1_555 1_555
C80 C47 1_555 1_555
H66 C80 1_555 1_555
H67 C80 1_555 1_555
H68 C80 1_555 1_555
C81 C47 1_555 1_555
H69 C81 1_555 1_555
H70 C81 1_555 1_555
H71 C81 1_555 1_555
C82 C74 1_555 1_555
H72 C82 1_555 1_555
H73 C82 1_555 1_555
H74 C82 1_555 1_555
C83 C71 1_555 1_555
H75 C83 1_555 1_555
H76 C83 1_555 1_555
H77 C83 1_555 1_555
C84 C74 1_555 1_555
H78 C84 1_555 1_555
H79 C84 1_555 1_555
H80 C84 1_555 1_555
N7 C86 1_555 1_555
C85 H81 1_555 1_555
H82 C85 1_555 1_555
C86 H83 1_555 1_555
H84 C86 1_555 1_555
C87 H85 1_555 1_555
H86 C87 1_555 1_555
C88 N7 1_555 1_555
H87 C88 1_555 1_555
H88 C88 1_555 1_555
C89 N7 1_555 1_555
H89 C89 1_555 1_555
H90 C89 1_555 1_555
C90 C87 1_555 1_555
H91 C90 1_555 1_555
H92 C90 1_555 1_555
C91 H93 1_555 1_555
H94 C91 1_555 1_555
H95 C91 1_555 1_555
C92 C87 1_555 1_555
H96 C92 1_555 1_555
H97 C92 1_555 1_555
H98 C92 1_555 1_555
C93 N7 1_555 1_555
H99 C93 1_555 1_555
H100 C93 1_555 1_555
C94 H101 1_555 1_555
H102 C94 1_555 1_555
C95 H103 1_555 1_555
H104 C95 1_555 1_555
C96 C85 1_555 1_555
H105 C96 1_555 1_555
H106 C96 1_555 1_555
C97 C93 1_555 1_555
H107 C97 1_555 1_555
H108 C97 1_555 1_555
C98 C86 1_555 1_555
H109 C98 1_555 1_555
H110 C98 1_555 1_555
C99 C94 1_555 1_555
H111 C99 1_555 1_555
H112 C99 1_555 1_555
H113 C99 1_555 1_555
C100 C95 1_555 1_555
H114 C100 1_555 1_555
H115 C100 1_555 1_555
H116 C100 1_555 1_555
O5 C101 1_555 1_555
O6 C101 1_555 1_555
C101 C102 1_555 1_555
C102 H117 1_555 1_555
H118 C102 1_555 1_555
H119 C102 1_555 1_555
N3 C51 1_555 1_555
C8 C20 1_555 1_555
C14 C23 1_555 1_555
C19 C29 1_555 1_555
C27 C48 1_555 1_555
N6 C29 1_555 1_555
C31 C60 1_555 1_555
C32 C45 1_555 1_555
C32 C48 1_555 1_555
C35 C45 1_555 1_555
C35 C65 1_555 1_555
C36 C49 1_555 1_555
C37 C50 1_555 1_555
C38 C55 1_555 1_555
C41 C44 1_555 1_555
C41 C52 1_555 1_555
C44 C53 1_555 1_555
C46 C58 1_555 1_555
C53 C58 1_555 1_555
C54 C64 1_555 1_555
C59 C68 1_555 1_555
C63 C67 1_555 1_555
C66 C69 1_555 1_555
C85 C89 1_555 1_555
C88 C90 1_555 1_555
C91 C96 1_555 1_555
C94 C98 1_555 1_555
C95 C97 1_555 1_555

#END
