
#######################################################################
#
#                 Cambridge Crystallographic Data Centre
#                                CCDC 
#
#######################################################################
#
# If this CIF has been generated from an entry in the Cambridge 
# Structural Database, then it will include bibliographic, chemical, 
# crystal, experimental, refinement or atomic coordinate data resulting 
# from the CCDC's data processing and validation procedures.
#
#######################################################################

data_QIPWOE
_chemical_formula_moiety         'C21 H32 O5'
_chemical_name_systematic        
1,5,9-trihydroxy-9-(methoxymethyl)-6,10a-dimethyl-3-isopropyl-4,5,6,6a,7,8,9,10a-octahydrodicyclopenta[a,d][8]annulen-2(1H)-one
_symmetry_cell_setting           monoclinic
_symmetry_space_group_name_H-M   'P 21'
_symmetry_Int_Tables_number      4
_space_group_name_Hall           'P 2yb'
loop_
_symmetry_equiv_pos_site_id
_symmetry_equiv_pos_as_xyz
1 x,y,z
2 -x,1/2+y,-z
_cell_length_a                   6.3056(2)
_cell_length_b                   17.1631(6)
_cell_length_c                   17.9081(7)
_cell_angle_alpha                90
_cell_angle_beta                 92.5190(10)
_cell_angle_gamma                90
_cell_volume                     1936.21
_exptl_crystal_colour            colorless
_exptl_crystal_description       prism
_cell_formula_units_Z            4
loop_
_atom_site_label
_atom_site_type_symbol
_atom_site_fract_x
_atom_site_fract_y
_atom_site_fract_z
O1 O 0.8006(4) -0.15255(17) 0.59938(17)
O2 O 1.0650(5) -0.05804(17) 0.69934(16)
H1 H 1.0791 -0.1067 0.6990
O3 O 0.9079(5) 0.16864(19) 0.84356(16)
H2 H 0.9888 0.1355 0.8643
O4 O 1.0997(5) 0.3187(2) 0.81438(17)
O5 O 0.8951(5) 0.24652(19) 0.44328(16)
H3 H 0.9614 0.2875 0.4337
C1 C 0.9523(8) 0.4370(3) 0.6825(3)
H4 H 0.7996 0.4297 0.6724
H5 H 0.9975 0.4858 0.6597
H6 H 0.9823 0.4392 0.7366
C2 C 1.0742(6) 0.3682(3) 0.6492(2)
H7 H 1.0377 0.3659 0.5943
C3 C 1.0037(6) 0.2928(2) 0.6842(2)
C4 C 0.8871(6) 0.2354(2) 0.6525(2)
C5 C 0.8256(6) 0.1728(2) 0.7072(2)
C6 C 0.8401(6) 0.0890(2) 0.6832(2)
H8 H 0.7498 0.0540 0.7079
C7 C 0.9613(6) 0.0567(3) 0.6323(2)
C8 C 0.9809(6) -0.0324(3) 0.6275(2)
C9 C 0.7701(6) -0.0713(2) 0.6096(2)
H9 H 0.6738 -0.0625 0.6510
H10 H 0.7036 -0.0484 0.5635
C10 C 0.6053(6) -0.1921(3) 0.5831(2)
H11 H 0.5131 -0.1867 0.6255
H12 H 0.6335 -0.2475 0.5745
H13 H 0.5351 -0.1694 0.5383
C11 C 1.1450(6) -0.0455(3) 0.5670(2)
H14 H 1.2356 -0.0913 0.5793
H15 H 1.0736 -0.0535 0.5173
C12 C 1.2763(6) 0.0296(3) 0.5686(2)
H16 H 1.3462 0.0371 0.5207
H17 H 1.3866 0.0282 0.6097
C13 C 1.1150(6) 0.0958(2) 0.5814(2)
H18 H 1.1898 0.1383 0.6101
C14 C 0.5957(6) 0.1892(3) 0.7302(2)
H19 H 0.4984 0.1853 0.6862
H20 H 0.5879 0.2417 0.7514
H21 H 0.5554 0.1508 0.7676
C15 C 0.9850(6) 0.1887(3) 0.7737(2)
H22 H 1.1161 0.1575 0.7660
C16 C 1.0402(6) 0.2750(3) 0.7652(2)
C17 C 0.8004(6) 0.2358(2) 0.5726(2)
H23 H 0.7390 0.2877 0.5611
H24 H 0.6843 0.1971 0.5673
C18 C 0.9683(6) 0.2170(3) 0.5151(2)
H25 H 1.1024 0.2449 0.5305
C19 C 1.0191(6) 0.1309(3) 0.5070(2)
H26 H 1.1339 0.1278 0.4703
C20 C 0.8296(7) 0.0861(3) 0.4718(2)
H27 H 0.7153 0.0842 0.5071
H28 H 0.8736 0.0330 0.4599
H29 H 0.7787 0.1125 0.4259
C21 C 1.3141(7) 0.3801(3) 0.6600(3)
H30 H 1.3525 0.3841 0.7135
H31 H 1.3551 0.4281 0.6348
H32 H 1.3883 0.3358 0.6387
O6 O 0.4206(5) 0.64380(18) 0.69403(17)
O7 O 0.1906(5) 0.77959(19) 0.71120(16)
H33 H 0.2351 0.8256 0.7153
O8 O 0.1569(5) 1.08965(19) 0.94130(16)
O9 O 0.3043(5) 1.03334(18) 0.80049(16)
H34 H 0.2906 1.0798 0.8141
O10 O 0.4189(5) 0.75000(19) 1.09601(16)
H35 H 0.3377 0.7137 1.1079
C22 C 0.3941(7) 0.9600(3) 1.1369(2)
H36 H 0.3671 0.9039 1.1400
H37 H 0.3616 0.9848 1.1844
H38 H 0.5437 0.9688 1.1268
C23 C 0.2538(7) 0.9951(3) 1.0739(2)
H39 H 0.2728 1.0528 1.0778
C24 C 0.3099(6) 0.9736(2) 0.9951(2)
C25 C 0.4177(6) 0.9132(2) 0.9660(2)
C26 C 0.4478(6) 0.9245(2) 0.8824(2)
C27 C 0.4258(6) 0.8534(3) 0.8337(2)
H40 H 0.5144 0.8521 0.7922
C28 C 0.2997(6) 0.7920(2) 0.8406(2)
C29 C 0.2655(6) 0.7347(2) 0.7755(2)
C30 C 0.4695(7) 0.6935(2) 0.7561(2)
H41 H 0.5785 0.7321 0.7430
H42 H 0.5251 0.6625 0.7993
C31 C 0.6007(7) 0.6013(3) 0.6733(2)
H43 H 0.7095 0.6375 0.6568
H44 H 0.5604 0.5656 0.6324
H45 H 0.6573 0.5714 0.7163
C32 C 0.0169(7) 0.9797(3) 1.0851(3)
H46 H -0.0684 1.0047 1.0448
H47 H -0.0221 1.0011 1.1333
H48 H -0.0096 0.9234 1.0843
C33 C 0.2368(6) 1.0260(3) 0.9345(2)
C34 C 0.2694(6) 0.9833(2) 0.8613(2)
H49 H 0.1375 0.9528 0.8487
C35 C 0.5077(6) 0.8434(2) 1.0054(2)
H50 H 0.5972 0.8605 1.0492
H51 H 0.5992 0.8146 0.9714
C36 C 0.3315(6) 0.7888(3) 1.0317(2)
H52 H 0.2108 0.8218 1.0476
C37 C 0.2442(6) 0.7307(3) 0.9727(2)
H53 H 0.1233 0.7035 0.9959
C38 C 0.1462(6) 0.7735(3) 0.9020(2)
H54 H 0.0798 0.8232 0.9184
C39 C -0.0242(6) 0.7243(3) 0.8600(2)
H55 H -0.0923 0.6880 0.8947
H56 H -0.1350 0.7582 0.8364
C40 C 0.0916(7) 0.6792(3) 0.8008(3)
H57 H -0.0068 0.6654 0.7582
H58 H 0.1547 0.6308 0.8221
C41 C 0.4072(7) 0.6676(3) 0.9574(3)
H59 H 0.5237 0.6902 0.9301
H60 H 0.3393 0.6260 0.9273
H61 H 0.4634 0.6460 1.0049
C42 C 0.6686(6) 0.9617(3) 0.8733(2)
H62 H 0.7788 0.9264 0.8936
H63 H 0.6767 1.0113 0.9004
H64 H 0.6902 0.9709 0.8202
loop_
_geom_bond_atom_site_label_1
_geom_bond_atom_site_label_2
_geom_bond_site_symmetry_1
_geom_bond_site_symmetry_2
O1 C9 1_555 1_555
O2 H1 1_555 1_555
O3 H2 1_555 1_555
O4 C16 1_555 1_555
O5 H3 1_555 1_555
C1 H4 1_555 1_555
H5 C1 1_555 1_555
H6 C1 1_555 1_555
C2 C1 1_555 1_555
H7 C2 1_555 1_555
C3 C2 1_555 1_555
C4 C3 1_555 1_555
C5 C4 1_555 1_555
C6 C5 1_555 1_555
H8 C6 1_555 1_555
C7 C6 1_555 1_555
C8 O2 1_555 1_555
C9 C8 1_555 1_555
H9 C9 1_555 1_555
H10 C9 1_555 1_555
C10 O1 1_555 1_555
H11 C10 1_555 1_555
H12 C10 1_555 1_555
H13 C10 1_555 1_555
C11 C8 1_555 1_555
H14 C11 1_555 1_555
H15 C11 1_555 1_555
C12 C11 1_555 1_555
H16 C12 1_555 1_555
H17 C12 1_555 1_555
C13 C7 1_555 1_555
H18 C13 1_555 1_555
C14 C5 1_555 1_555
H19 C14 1_555 1_555
H20 C14 1_555 1_555
H21 C14 1_555 1_555
C15 O3 1_555 1_555
H22 C15 1_555 1_555
C16 C3 1_555 1_555
C17 C4 1_555 1_555
H23 C17 1_555 1_555
H24 C17 1_555 1_555
C18 O5 1_555 1_555
H25 C18 1_555 1_555
C19 C13 1_555 1_555
H26 C19 1_555 1_555
C20 C19 1_555 1_555
H27 C20 1_555 1_555
H28 C20 1_555 1_555
H29 C20 1_555 1_555
C21 C2 1_555 1_555
H30 C21 1_555 1_555
H31 C21 1_555 1_555
H32 C21 1_555 1_555
O6 C30 1_555 1_555
O7 H33 1_555 1_555
O8 C33 1_555 1_555
O9 H34 1_555 1_555
O10 H35 1_555 1_555
C22 H36 1_555 1_555
H37 C22 1_555 1_555
H38 C22 1_555 1_555
C23 C22 1_555 1_555
H39 C23 1_555 1_555
C24 C23 1_555 1_555
C25 C24 1_555 1_555
C26 C25 1_555 1_555
C27 C26 1_555 1_555
H40 C27 1_555 1_555
C28 C27 1_555 1_555
C29 O7 1_555 1_555
C30 C29 1_555 1_555
H41 C30 1_555 1_555
H42 C30 1_555 1_555
C31 O6 1_555 1_555
H43 C31 1_555 1_555
H44 C31 1_555 1_555
H45 C31 1_555 1_555
C32 C23 1_555 1_555
H46 C32 1_555 1_555
H47 C32 1_555 1_555
H48 C32 1_555 1_555
C33 C24 1_555 1_555
C34 O9 1_555 1_555
H49 C34 1_555 1_555
C35 C25 1_555 1_555
H50 C35 1_555 1_555
H51 C35 1_555 1_555
C36 O10 1_555 1_555
H52 C36 1_555 1_555
C37 C36 1_555 1_555
H53 C37 1_555 1_555
C38 C28 1_555 1_555
H54 C38 1_555 1_555
C39 C38 1_555 1_555
H55 C39 1_555 1_555
H56 C39 1_555 1_555
C40 C29 1_555 1_555
H57 C40 1_555 1_555
H58 C40 1_555 1_555
C41 C37 1_555 1_555
H59 C41 1_555 1_555
H60 C41 1_555 1_555
H61 C41 1_555 1_555
C42 C26 1_555 1_555
H62 C42 1_555 1_555
H63 C42 1_555 1_555
H64 C42 1_555 1_555
C5 C15 1_555 1_555
C7 C8 1_555 1_555
C12 C13 1_555 1_555
C15 C16 1_555 1_555
C17 C18 1_555 1_555
C18 C19 1_555 1_555
C26 C34 1_555 1_555
C28 C29 1_555 1_555
C33 C34 1_555 1_555
C35 C36 1_555 1_555
C37 C38 1_555 1_555
C39 C40 1_555 1_555

#END
