
#######################################################################
#
#                 Cambridge Crystallographic Data Centre
#                                CCDC 
#
#######################################################################
#
# If this CIF has been generated from an entry in the Cambridge 
# Structural Database, then it will include bibliographic, chemical, 
# crystal, experimental, refinement or atomic coordinate data resulting 
# from the CCDC's data processing and validation procedures.
#
#######################################################################

data_QIPZAQ
_chemical_formula_moiety         'C32 H22 O4 S4'
_chemical_name_systematic        
1(1,4)-Benzena-3,7-dioxa-2,8-dioxo-5(5,5')(9,10-bis(4-methyl-1,3-dithiol-2-ylidene)-9,10-dihydroanthracena)cyclo-octaphane
_symmetry_cell_setting           monoclinic
_symmetry_space_group_name_H-M   'P 21/c'
_symmetry_Int_Tables_number      14
_space_group_name_Hall           '-P 2ybc'
loop_
_symmetry_equiv_pos_site_id
_symmetry_equiv_pos_as_xyz
1 x,y,z
2 x,1/2-y,1/2+z
3 -x,-y,-z
4 -x,1/2+y,1/2-z
_cell_length_a                   19.957(4)
_cell_length_b                   18.278(4)
_cell_length_c                   16.306(3)
_cell_angle_alpha                90
_cell_angle_beta                 111.15(1)
_cell_angle_gamma                90
_cell_volume                     5547.34
_exptl_crystal_colour            orange
_exptl_crystal_description       prism
_chemical_melting_point          'about 250deg.C'
_cell_formula_units_Z            8
loop_
_atom_site_label
_atom_site_type_symbol
_atom_site_fract_x
_atom_site_fract_y
_atom_site_fract_z
S1 S 0.43828(3) 0.31161(3) 0.94054(4)
S2 S 0.39178(3) 0.45789(3) 0.96900(4)
S3 S 0.51022(3) 0.40303(3) 0.60719(4)
S4 S 0.47341(3) 0.55647(3) 0.61883(4)
O1 O 0.60417(9) 0.31684(9) 1.08269(10)
O2 O 0.58240(10) 0.20978(9) 1.00791(11)
O3 O 0.67414(8) 0.39180(9) 0.69227(10)
O4 O 0.71423(10) 0.48984(10) 0.78120(12)
C1 C 0.34272(12) 0.27170(12) 0.74639(14)
H1 H 0.3307 0.2580 0.7956
C2 C 0.33993(13) 0.21967(12) 0.68272(15)
H2 H 0.3252 0.1711 0.6881
C3 C 0.35870(12) 0.23885(12) 0.61180(15)
H3 H 0.3577 0.2032 0.5690
C4 C 0.37897(12) 0.31034(12) 0.60312(15)
H4 H 0.3920 0.3229 0.5543
C5 C 0.32818(12) 0.56132(12) 0.64558(14)
H5 H 0.3381 0.5749 0.5949
C6 C 0.28939(12) 0.60864(12) 0.67845(15)
H6 H 0.2744 0.6548 0.6514
C7 C 0.27264(12) 0.58823(12) 0.75080(15)
H7 H 0.2459 0.6204 0.7730
C8 C 0.29488(12) 0.52101(12) 0.79072(14)
H8 H 0.2824 0.5071 0.8395
C9 C 0.36310(11) 0.40210(11) 0.80178(14)
C10 C 0.39645(11) 0.44246(11) 0.65592(13)
C11 C 0.38068(11) 0.36417(11) 0.66508(14)
C12 C 0.36296(11) 0.34380(11) 0.73849(14)
C13 C 0.33558(11) 0.47342(12) 0.75992(14)
C14 C 0.35279(11) 0.49398(11) 0.68592(14)
C15 C 0.39122(11) 0.39139(11) 0.89027(14)
C16 C 0.48119(12) 0.35120(12) 1.04609(14)
C17 C 0.45968(12) 0.41769(12) 1.05905(14)
C18 C 0.54241(13) 0.30807(13) 1.10915(15)
H9 H 0.5539 0.3263 1.1699
H10 H 0.5292 0.2557 1.1074
C19 C 0.48307(13) 0.46272(13) 1.14185(15)
H11 H 0.5231 0.4382 1.1873
H12 H 0.4428 0.4681 1.1623
H13 H 0.4986 0.5112 1.1299
C20 C 0.45066(12) 0.46437(12) 0.62950(14)
C21 C 0.57587(12) 0.46862(12) 0.61078(14)
C22 C 0.55949(12) 0.53902(13) 0.61635(14)
C23 C 0.64749(13) 0.43917(13) 0.61526(16)
H14 H 0.6421 0.4111 0.5613
H15 H 0.6816 0.4798 0.6205
C24 C 0.60611(15) 0.60456(14) 0.62111(17)
H16 H 0.6358 0.6143 0.6826
H17 H 0.5757 0.6472 0.5963
H18 H 0.6372 0.5949 0.5875
C25 C 0.60822(13) 0.27035(13) 1.01987(15)
C26 C 0.69488(12) 0.42685(14) 0.77027(16)
C27 C 0.64393(12) 0.30586(12) 0.96363(15)
C28 C 0.67310(12) 0.37596(12) 0.98209(15)
H19 H 0.6789 0.3984 1.0367
C29 C 0.69369(12) 0.41279(13) 0.92089(15)
H20 H 0.7136 0.4605 0.9336
C30 C 0.68535(12) 0.37993(13) 0.84037(15)
C31 C 0.65966(13) 0.30813(13) 0.82408(16)
H21 H 0.6564 0.2845 0.7709
C32 C 0.63894(13) 0.27151(13) 0.88532(16)
H22 H 0.6213 0.2228 0.8740
S5 S 0.10655(3) 0.65670(3) 0.52214(4)
S6 S 0.12421(3) 0.50143(3) 0.56794(4)
S7 S 0.01774(3) 0.58780(3) 0.10809(4)
S8 S 0.02184(3) 0.43194(3) 0.14906(4)
O5 O -0.05776(9) 0.68094(10) 0.50979(12)
O6 O -0.00586(10) 0.78227(9) 0.47857(12)
O7 O -0.13860(9) 0.63790(9) 0.05069(11)
O8 O -0.20507(10) 0.55789(11) 0.09450(13)
C33 C 0.19743(13) 0.68834(13) 0.40803(16)
H23 H 0.2133 0.6983 0.4693
C34 C 0.20106(13) 0.74300(13) 0.35016(16)
H24 H 0.2184 0.7902 0.3720
C35 C 0.17946(13) 0.72876(13) 0.26083(16)
H25 H 0.1817 0.7661 0.2214
C36 C 0.15445(12) 0.65950(13) 0.22918(15)
H26 H 0.1409 0.6495 0.1682
C37 C 0.17061(12) 0.40170(13) 0.29020(17)
H27 H 0.1583 0.3924 0.2292
C38 C 0.20171(13) 0.34667(13) 0.35079(18)
H28 H 0.2096 0.2997 0.3310
C39 C 0.22123(13) 0.36015(13) 0.43970(18)
H29 H 0.2412 0.3220 0.4809
C40 C 0.21164(12) 0.42956(13) 0.46910(16)
H30 H 0.2275 0.4391 0.5304
C41 C 0.16406(12) 0.55951(12) 0.43511(14)
C42 C 0.12190(12) 0.53004(12) 0.25583(15)
C43 C 0.14901(12) 0.60437(12) 0.28572(15)
C44 C 0.17072(12) 0.61924(12) 0.37697(15)
C45 C 0.17900(12) 0.48536(12) 0.40933(15)
C46 C 0.15716(11) 0.47070(12) 0.31805(15)
C47 C 0.13809(12) 0.57123(12) 0.50069(15)
C48 C 0.05517(13) 0.62138(14) 0.58235(15)
C49 C 0.06404(13) 0.55031(14) 0.60401(15)
C50 C 0.00110(14) 0.67255(15) 0.59509(17)
H31 H -0.0174 0.6524 0.6391
H32 H 0.0236 0.7206 0.6163
C51 C 0.02927(14) 0.50607(15) 0.65600(17)
H33 H -0.0091 0.5349 0.6647
H34 H 0.0654 0.4934 0.7134
H35 H 0.0089 0.4611 0.6238
C52 C 0.06365(12) 0.51799(12) 0.18135(15)
C53 C -0.06133(12) 0.53702(13) 0.05403(15)
C54 C -0.05971(13) 0.46568(14) 0.07344(16)
C55 C -0.12351(13) 0.58162(14) -0.00404(16)
H36 H -0.1113 0.6046 -0.0518
H37 H -0.1662 0.5501 -0.0308
C56 C -0.11898(14) 0.41052(14) 0.03813(18)
H38 H -0.1559 0.4297 -0.0154
H39 H -0.1406 0.4007 0.0824
H40 H -0.0995 0.3648 0.0243
C57 C -0.04715(14) 0.73149(13) 0.45500(17)
C58 C -0.16798(13) 0.61234(14) 0.10808(17)
C59 C -0.08813(13) 0.71211(13) 0.36090(17)
C60 C -0.15124(14) 0.67115(14) 0.33575(17)
H41 H -0.1748 0.6627 0.3761
C61 C -0.17950(13) 0.64284(14) 0.25098(17)
H42 H -0.2225 0.6149 0.2335
C62 C -0.14518(13) 0.65505(13) 0.19148(16)
C63 C -0.08375(14) 0.69949(13) 0.21590(17)
H43 H -0.0614 0.7100 0.1748
C64 C -0.05586(14) 0.72791(13) 0.30024(17)
H44 H -0.0145 0.7583 0.3167
loop_
_geom_bond_atom_site_label_1
_geom_bond_atom_site_label_2
_geom_bond_site_symmetry_1
_geom_bond_site_symmetry_2
S1 C15 1_555 1_555
S2 C15 1_555 1_555
S3 C20 1_555 1_555
S4 C20 1_555 1_555
O1 C18 1_555 1_555
O2 C25 1_555 1_555
O3 C23 1_555 1_555
O4 C26 1_555 1_555
C1 H1 1_555 1_555
C2 C1 1_555 1_555
H2 C2 1_555 1_555
C3 C2 1_555 1_555
H3 C3 1_555 1_555
C4 C3 1_555 1_555
H4 C4 1_555 1_555
C5 H5 1_555 1_555
C6 C5 1_555 1_555
H6 C6 1_555 1_555
C7 C6 1_555 1_555
H7 C7 1_555 1_555
C8 C7 1_555 1_555
H8 C8 1_555 1_555
C9 C12 1_555 1_555
C10 C11 1_555 1_555
C11 C4 1_555 1_555
C12 C1 1_555 1_555
C13 C8 1_555 1_555
C14 C5 1_555 1_555
C15 C9 1_555 1_555
C16 S1 1_555 1_555
C17 S2 1_555 1_555
C18 C16 1_555 1_555
H9 C18 1_555 1_555
H10 C18 1_555 1_555
C19 C17 1_555 1_555
H11 C19 1_555 1_555
H12 C19 1_555 1_555
H13 C19 1_555 1_555
C20 C10 1_555 1_555
C21 S3 1_555 1_555
C22 S4 1_555 1_555
C23 C21 1_555 1_555
H14 C23 1_555 1_555
H15 C23 1_555 1_555
C24 C22 1_555 1_555
H16 C24 1_555 1_555
H17 C24 1_555 1_555
H18 C24 1_555 1_555
C25 O1 1_555 1_555
C26 O3 1_555 1_555
C27 C25 1_555 1_555
C28 C27 1_555 1_555
H19 C28 1_555 1_555
C29 C28 1_555 1_555
H20 C29 1_555 1_555
C30 C26 1_555 1_555
C31 C30 1_555 1_555
H21 C31 1_555 1_555
C32 C27 1_555 1_555
H22 C32 1_555 1_555
S5 C47 1_555 1_555
S6 C47 1_555 1_555
S7 C52 1_555 1_555
S8 C52 1_555 1_555
O5 C50 1_555 1_555
O6 C57 1_555 1_555
O7 C55 1_555 1_555
O8 C58 1_555 1_555
C33 H23 1_555 1_555
C34 C33 1_555 1_555
H24 C34 1_555 1_555
C35 C34 1_555 1_555
H25 C35 1_555 1_555
C36 C35 1_555 1_555
H26 C36 1_555 1_555
C37 H27 1_555 1_555
C38 C37 1_555 1_555
H28 C38 1_555 1_555
C39 C38 1_555 1_555
H29 C39 1_555 1_555
C40 C39 1_555 1_555
H30 C40 1_555 1_555
C41 C44 1_555 1_555
C42 C43 1_555 1_555
C43 C36 1_555 1_555
C44 C33 1_555 1_555
C45 C40 1_555 1_555
C46 C37 1_555 1_555
C47 C41 1_555 1_555
C48 S5 1_555 1_555
C49 S6 1_555 1_555
C50 C48 1_555 1_555
H31 C50 1_555 1_555
H32 C50 1_555 1_555
C51 C49 1_555 1_555
H33 C51 1_555 1_555
H34 C51 1_555 1_555
H35 C51 1_555 1_555
C52 C42 1_555 1_555
C53 S7 1_555 1_555
C54 S8 1_555 1_555
C55 C53 1_555 1_555
H36 C55 1_555 1_555
H37 C55 1_555 1_555
C56 C54 1_555 1_555
H38 C56 1_555 1_555
H39 C56 1_555 1_555
H40 C56 1_555 1_555
C57 O5 1_555 1_555
C58 O7 1_555 1_555
C59 C57 1_555 1_555
C60 C59 1_555 1_555
H41 C60 1_555 1_555
C61 C60 1_555 1_555
H42 C61 1_555 1_555
C62 C58 1_555 1_555
C63 C62 1_555 1_555
H43 C63 1_555 1_555
C64 C59 1_555 1_555
H44 C64 1_555 1_555
C9 C13 1_555 1_555
C10 C14 1_555 1_555
C11 C12 1_555 1_555
C13 C14 1_555 1_555
C16 C17 1_555 1_555
C21 C22 1_555 1_555
C29 C30 1_555 1_555
C31 C32 1_555 1_555
C41 C45 1_555 1_555
C42 C46 1_555 1_555
C43 C44 1_555 1_555
C45 C46 1_555 1_555
C48 C49 1_555 1_555
C53 C54 1_555 1_555
C61 C62 1_555 1_555
C63 C64 1_555 1_555

#END
