
#######################################################################
#
#                 Cambridge Crystallographic Data Centre
#                                CCDC 
#
#######################################################################
#
# If this CIF has been generated from an entry in the Cambridge 
# Structural Database, then it will include bibliographic, chemical, 
# crystal, experimental, refinement or atomic coordinate data resulting 
# from the CCDC's data processing and validation procedures.
#
#######################################################################

data_QIPZEU
_chemical_formula_moiety         'C30 H20 O4 S5,C1 H2 Cl2'
_chemical_name_systematic        
"1(2,5)-Thiophena-3,7-dioxa-2,8-dioxo-5(5,5')(9,10-bis(4-methyl-1,3-dithiol-2-ylidene)-9,10-dihydroanthracena)cyclo-octaphane dichloromethane solvate"
_symmetry_cell_setting           monoclinic
_symmetry_space_group_name_H-M   'P 21/c'
_symmetry_Int_Tables_number      14
_space_group_name_Hall           '-P 2ybc'
loop_
_symmetry_equiv_pos_site_id
_symmetry_equiv_pos_as_xyz
1 x,y,z
2 x,1/2-y,1/2+z
3 -x,-y,-z
4 -x,1/2+y,1/2-z
_cell_length_a                   11.407(5)
_cell_length_b                   17.160(8)
_cell_length_c                   15.607(7)
_cell_angle_alpha                90
_cell_angle_beta                 99.83(2)
_cell_angle_gamma                90
_cell_volume                     3010.13
_exptl_crystal_colour            yellow
_exptl_crystal_description       needle
_chemical_melting_point          'about 200deg.C'
_cell_formula_units_Z            4
loop_
_atom_site_label
_atom_site_type_symbol
_atom_site_fract_x
_atom_site_fract_y
_atom_site_fract_z
S1 S 0.77630(14) 0.62733(9) 0.22327(10)
S2 S 0.52682(14) 0.59828(9) 0.15053(10)
S3 S 0.67243(13) 0.66100(9) 0.59286(10)
S4 S 0.42161(13) 0.62358(9) 0.53476(10)
S5 S 0.85498(13) 0.45447(9) 0.46811(9)
O1 O 0.8532(3) 0.4544(2) 0.2901(2)
O2 O 1.0092(4) 0.3743(3) 0.2808(3)
O3 O 0.7729(3) 0.4883(2) 0.6199(2)
O4 O 0.9067(3) 0.4254(2) 0.7195(3)
C1 C 0.7874(5) 0.7874(3) 0.3227(4)
H1 H 0.8068 0.7832 0.2661
C2 C 0.8631(6) 0.8263(4) 0.3864(4)
H2 H 0.9341 0.8489 0.3737
C3 C 0.8352(6) 0.8328(4) 0.4691(4)
H3 H 0.8879 0.8594 0.5132
C4 C 0.7318(6) 0.8003(4) 0.4879(4)
H4 H 0.7134 0.8053 0.5447
C5 C 0.3241(5) 0.7383(4) 0.3806(4)
H5 H 0.3054 0.7392 0.4376
C6 C 0.2350(6) 0.7474(4) 0.3101(4)
H6 H 0.1551 0.7537 0.3183
C7 C 0.2614(6) 0.7472(4) 0.2270(4)
H7 H 0.1998 0.7551 0.1787
C8 C 0.3771(5) 0.7357(4) 0.2138(4)
H8 H 0.3940 0.7344 0.1563
C9 C 0.5948(5) 0.7116(3) 0.2748(4)
C10 C 0.5436(5) 0.7222(3) 0.4421(4)
C11 C 0.6546(5) 0.7607(3) 0.4243(4)
C12 C 0.6802(5) 0.7539(3) 0.3399(4)
C13 C 0.4686(5) 0.7258(3) 0.2841(4)
C14 C 0.4418(5) 0.7279(3) 0.3689(4)
C15 C 0.6271(5) 0.6564(3) 0.2219(4)
C16 C 0.7393(6) 0.5321(3) 0.1829(4)
C17 C 0.6245(5) 0.5182(4) 0.1499(4)
C18 C 0.8374(5) 0.4746(4) 0.1980(4)
H9 H 0.8167 0.4277 0.1617
H10 H 0.9113 0.4973 0.1836
C19 C 0.5685(6) 0.4424(4) 0.1182(4)
H11 H 0.6302 0.4030 0.1163
H12 H 0.5221 0.4493 0.0599
H13 H 0.5160 0.4252 0.1580
C20 C 0.5445(5) 0.6784(3) 0.5131(3)
C21 C 0.6193(5) 0.5746(3) 0.6330(4)
C22 C 0.5036(5) 0.5567(3) 0.6066(3)
C23 C 0.7119(5) 0.5233(4) 0.6846(4)
H14 H 0.7677 0.5542 0.7268
H15 H 0.6748 0.4829 0.7164
C24 C 0.4374(5) 0.4856(3) 0.6297(4)
H16 H 0.4941 0.4484 0.6611
H17 H 0.3955 0.4613 0.5763
H18 H 0.3798 0.5010 0.6664
C25 C 0.9423(5) 0.4066(3) 0.3230(4)
C26 C 0.8662(5) 0.4411(4) 0.6442(4)
C27 C 0.9463(5) 0.3973(3) 0.4168(4)
C28 C 1.0174(5) 0.3503(4) 0.4756(4)
H19 H 1.0740 0.3151 0.4596
C29 C 0.9978(5) 0.3599(3) 0.5612(4)
H20 H 1.0391 0.3318 0.6095
C30 C 0.9121(5) 0.4144(3) 0.5671(4)
Cl1 Cl 0.2515(4) 0.5071(2) 0.0571(3)
Cl2 Cl 0.1489(4) 0.6641(3) 0.0193(3)
C31 C 0.1933(12) 0.5919(7) 0.1004(8)
H21 H 0.2544 0.6139 0.1467
H22 H 0.1240 0.5768 0.1270
Cl3? Cl 0.0433(3) 0.5165(2) 0.0462(3)
Cl4? Cl 0.2101(5) 0.6353(4) 0.0173(3)
C32? C 0.1822(12) 0.5561(9) 0.0842(9)
H23? H 0.2431 0.5152 0.0832
H24? H 0.1863 0.5732 0.1452
loop_
_geom_bond_atom_site_label_1
_geom_bond_atom_site_label_2
_geom_bond_site_symmetry_1
_geom_bond_site_symmetry_2
S1 C15 1_555 1_555
S2 C15 1_555 1_555
S3 C20 1_555 1_555
S4 C20 1_555 1_555
S5 C27 1_555 1_555
O1 C18 1_555 1_555
O2 C25 1_555 1_555
O3 C23 1_555 1_555
O4 C26 1_555 1_555
C1 H1 1_555 1_555
C2 C1 1_555 1_555
H2 C2 1_555 1_555
C3 C2 1_555 1_555
H3 C3 1_555 1_555
C4 C3 1_555 1_555
H4 C4 1_555 1_555
C5 H5 1_555 1_555
C6 C5 1_555 1_555
H6 C6 1_555 1_555
C7 C6 1_555 1_555
H7 C7 1_555 1_555
C8 C7 1_555 1_555
H8 C8 1_555 1_555
C9 C12 1_555 1_555
C10 C11 1_555 1_555
C11 C4 1_555 1_555
C12 C1 1_555 1_555
C13 C8 1_555 1_555
C14 C5 1_555 1_555
C15 C9 1_555 1_555
C16 S1 1_555 1_555
C17 S2 1_555 1_555
C18 C16 1_555 1_555
H9 C18 1_555 1_555
H10 C18 1_555 1_555
C19 C17 1_555 1_555
H11 C19 1_555 1_555
H12 C19 1_555 1_555
H13 C19 1_555 1_555
C20 C10 1_555 1_555
C21 S3 1_555 1_555
C22 S4 1_555 1_555
C23 C21 1_555 1_555
H14 C23 1_555 1_555
H15 C23 1_555 1_555
C24 C22 1_555 1_555
H16 C24 1_555 1_555
H17 C24 1_555 1_555
H18 C24 1_555 1_555
C25 O1 1_555 1_555
C26 O3 1_555 1_555
C27 C25 1_555 1_555
C28 C27 1_555 1_555
H19 C28 1_555 1_555
C29 C28 1_555 1_555
H20 C29 1_555 1_555
C30 S5 1_555 1_555
Cl1 C31 1_555 1_555
Cl2 C31 1_555 1_555
C31 H21 1_555 1_555
H22 C31 1_555 1_555
C9 C13 1_555 1_555
C10 C14 1_555 1_555
C11 C12 1_555 1_555
C13 C14 1_555 1_555
C16 C17 1_555 1_555
C21 C22 1_555 1_555
C26 C30 1_555 1_555
C29 C30 1_555 1_555

#END
