
#######################################################################
#
#                 Cambridge Crystallographic Data Centre
#                                CCDC 
#
#######################################################################
#
# If this CIF has been generated from an entry in the Cambridge 
# Structural Database, then it will include bibliographic, chemical, 
# crystal, experimental, refinement or atomic coordinate data resulting 
# from the CCDC's data processing and validation procedures.
#
#######################################################################

data_QIQCOL
_chemical_name_common            '5-fluorouracil-1-methyl furan-2-carboxylate'
_chemical_formula_moiety         'C10 H7 F1 N2 O5'
_chemical_name_systematic        
'(5-fluoro-2,4-dioxo-3,4-dihydropyrimidin-1(2H)-yl)methyl furan-2-carboxylate'
_symmetry_cell_setting           monoclinic
_symmetry_space_group_name_H-M   'P 21/n'
_symmetry_Int_Tables_number      14
_space_group_name_Hall           '-P 2yn'
loop_
_symmetry_equiv_pos_site_id
_symmetry_equiv_pos_as_xyz
1 x,y,z
2 1/2-x,1/2+y,1/2-z
3 -x,-y,-z
4 1/2+x,1/2-y,1/2+z
_cell_length_a                   8.5781(17)
_cell_length_b                   5.3121(11)
_cell_length_c                   23.578(5)
_cell_angle_alpha                90
_cell_angle_beta                 96.68(3)
_cell_angle_gamma                90
_cell_volume                     1067.1
_exptl_crystal_colour            colorless
_exptl_crystal_description       needle
_cell_formula_units_Z            4
loop_
_atom_site_label
_atom_site_type_symbol
_atom_site_fract_x
_atom_site_fract_y
_atom_site_fract_z
F1 F 0.08872(17) 0.7588(2) 0.03503(6)
O1 O 0.55122(19) 0.3048(3) 0.34117(6)
O2 O 0.35433(19) 0.0187(3) 0.26793(6)
O3 O 0.42085(16) 0.2430(2) 0.19354(5)
O4 O 0.2640(2) 0.5826(3) -0.04734(7)
O5 O 0.45833(18) -0.0507(3) 0.06935(6)
N1 N 0.2859(2) 0.2236(3) 0.10285(6)
N2 N 0.3555(2) 0.2641(3) 0.01112(6)
H1 H 0.4058 0.2067 -0.0156
C1 C 0.6159(3) 0.5609(4) 0.27368(9)
H2 H 0.6232 0.6345 0.2383
C2 C 0.6882(3) 0.6460(5) 0.32696(10)
H3 H 0.7531 0.7858 0.3335
C3 C 0.6460(3) 0.4884(5) 0.36587(11)
H4 H 0.6772 0.5017 0.4049
C4 C 0.5346(2) 0.3534(4) 0.28382(8)
C5 C 0.4287(2) 0.1872(4) 0.24948(8)
C6 C 0.3025(3) 0.1047(4) 0.15796(8)
H5 H 0.3342 -0.0695 0.1547
H6 H 0.2037 0.1088 0.1742
C7 C 0.1909(2) 0.4327(4) 0.09361(9)
H7 H 0.1338 0.4891 0.1223
C8 C 0.1801(3) 0.5531(4) 0.04454(9)
C9 C 0.2663(3) 0.4776(4) -0.00171(8)
C10 C 0.3730(2) 0.1339(4) 0.06143(8)
loop_
_geom_bond_atom_site_label_1
_geom_bond_atom_site_label_2
_geom_bond_site_symmetry_1
_geom_bond_site_symmetry_2
F1 C8 1_555 1_555
O1 C3 1_555 1_555
O2 C5 1_555 1_555
O3 C5 1_555 1_555
O4 C9 1_555 1_555
O5 C10 1_555 1_555
N1 C6 1_555 1_555
N2 H1 1_555 1_555
C1 H2 1_555 1_555
C2 C1 1_555 1_555
H3 C2 1_555 1_555
C3 C2 1_555 1_555
H4 C3 1_555 1_555
C4 O1 1_555 1_555
C5 C4 1_555 1_555
C6 O3 1_555 1_555
H5 C6 1_555 1_555
H6 C6 1_555 1_555
C7 N1 1_555 1_555
H7 C7 1_555 1_555
C8 C7 1_555 1_555
C9 N2 1_555 1_555
C10 N1 1_555 1_555
N2 C10 1_555 1_555
C1 C4 1_555 1_555
C8 C9 1_555 1_555

#END
