
#######################################################################
#
#                 Cambridge Crystallographic Data Centre
#                                CCDC 
#
#######################################################################
#
# If this CIF has been generated from an entry in the Cambridge 
# Structural Database, then it will include bibliographic, chemical, 
# crystal, experimental, refinement or atomic coordinate data resulting 
# from the CCDC's data processing and validation procedures.
#
#######################################################################

data_QIQDIG
_chemical_name_common            
'1,6,7,14,15-pentahydroxy-7,20-epoxykaur-16-en-20-one monohydrate'
_chemical_formula_moiety         'C20 H28 O7,H2 O1'
_chemical_name_systematic        
'ent-7\b,20-epoxykaur-16-en-1\b,6\a,7\a,14\a,15\a-pentaol-20-one monohydrate'
_symmetry_cell_setting           monoclinic
_symmetry_space_group_name_H-M   'C 2'
_symmetry_Int_Tables_number      5
_space_group_name_Hall           'C 2y'
loop_
_symmetry_equiv_pos_site_id
_symmetry_equiv_pos_as_xyz
1 x,y,z
2 -x,y,-z
3 1/2+x,1/2+y,z
4 1/2-x,1/2+y,-z
_cell_length_a                   21.684(13)
_cell_length_b                   7.275(4)
_cell_length_c                   14.320(9)
_cell_angle_alpha                90
_cell_angle_beta                 118.975(11)
_cell_angle_gamma                90
_cell_volume                     1976.24
_exptl_crystal_colour            colorless
_exptl_crystal_description       block
_cell_formula_units_Z            4
loop_
_atom_site_label
_atom_site_type_symbol
_atom_site_fract_x
_atom_site_fract_y
_atom_site_fract_z
O1 O 0.82004(10) 0.1521(3) 0.83061(14)
O2 O 0.70911(11) 0.2527(3) 0.54417(16)
H1 H 0.6972 0.1516 0.5156
O3 O 0.94759(11) 0.0481(3) 0.77058(18)
H2 H 0.9854 0.0062 0.8160
O4 O 0.81147(10) -0.0093(3) 0.68756(16)
H3 H 0.8528 -0.0352 0.7077
O5 O 0.81428(10) 0.4196(3) 0.53502(16)
H4 H 0.7749 0.3795 0.5180
O6 O 0.84642(11) 0.6845(3) 0.95572(17)
H5 H 0.8487 0.6006 0.9956
O7 O 0.83642(12) 0.3135(3) 0.97054(17)
C1 C 0.80727(14) 0.1664(4) 0.7188(2)
C2 C 0.86364(13) 0.2984(4) 0.7232(2)
C3 C 0.79511(13) 0.4740(4) 0.8000(2)
C4 C 0.98124(15) 0.3701(4) 0.7687(2)
H6 H 1.0294 0.3269 0.7922
C5 C 0.72399(13) 0.4222(4) 0.6981(2)
H7 H 0.7180 0.5125 0.6436
C6 C 0.81831(14) 0.3115(4) 0.8752(2)
C7 C 0.78786(14) 0.6534(5) 0.8511(2)
H8 H 0.7873 0.7548 0.8057
C8 C 0.85221(13) 0.4900(4) 0.7619(2)
H9 H 0.8327 0.5719 0.6998
C9 C 0.73157(13) 0.2358(4) 0.6551(2)
H10 H 0.7005 0.1477 0.6638
C10 C 0.92205(14) 0.5767(4) 0.8466(2)
H11 H 0.9143 0.7059 0.8541
H12 H 0.9365 0.5177 0.9148
C11 C 0.86578(14) 0.3079(4) 0.6163(2)
H13 H 0.8615 0.1827 0.5885
C12 C 0.93987(14) 0.2325(4) 0.7985(2)
H14 H 0.9521 0.2427 0.8738
C13 C 0.65640(15) 0.4365(5) 0.7094(3)
C14 C 0.93917(16) 0.3777(5) 0.6494(3)
C15 C 0.98131(16) 0.5588(4) 0.8184(3)
H15 H 1.0262 0.5761 0.8825
H16 H 0.9763 0.6552 0.7684
C16 C 0.72062(17) 0.6673(6) 0.8585(3)
H17 H 0.7226 0.5801 0.9111
H18 H 0.7171 0.7897 0.8825
C17 C 0.65578(18) 0.6292(6) 0.7524(3)
H19 H 0.6529 0.7199 0.7007
H20 H 0.6141 0.6420 0.7606
C18 C 0.6521(2) 0.2901(6) 0.7828(3)
H21 H 0.6485 0.1707 0.7520
H22 H 0.6114 0.3123 0.7910
H23 H 0.6937 0.2954 0.8513
C19 C 0.59212(17) 0.4185(7) 0.5972(3)
H24 H 0.5932 0.5150 0.5523
H25 H 0.5496 0.4279 0.6020
H26 H 0.5935 0.3015 0.5672
C20 C 0.9603(2) 0.4375(8) 0.5836(3)
H27 H 1.0060 0.4816 0.6099
H28 H 0.9296 0.4360 0.5105
O8 O 0.42572(14) 0.4888(4) 0.0620(2)
H29 H 0.3991 0.5821 0.0283
H30 H 0.4037 0.3941 0.0229
loop_
_geom_bond_atom_site_label_1
_geom_bond_atom_site_label_2
_geom_bond_site_symmetry_1
_geom_bond_site_symmetry_2
O1 C1 1_555 1_555
O2 H1 1_555 1_555
O3 H2 1_555 1_555
O4 H3 1_555 1_555
O5 H4 1_555 1_555
O6 H5 1_555 1_555
O7 C6 1_555 1_555
C1 O4 1_555 1_555
C2 C1 1_555 1_555
C3 C5 1_555 1_555
C4 H6 1_555 1_555
C5 H7 1_555 1_555
C6 O1 1_555 1_555
C7 O6 1_555 1_555
H8 C7 1_555 1_555
C8 C2 1_555 1_555
H9 C8 1_555 1_555
C9 O2 1_555 1_555
H10 C9 1_555 1_555
C10 C8 1_555 1_555
H11 C10 1_555 1_555
H12 C10 1_555 1_555
C11 O5 1_555 1_555
H13 C11 1_555 1_555
C12 O3 1_555 1_555
H14 C12 1_555 1_555
C13 C5 1_555 1_555
C14 C4 1_555 1_555
C15 C4 1_555 1_555
H15 C15 1_555 1_555
H16 C15 1_555 1_555
C16 C7 1_555 1_555
H17 C16 1_555 1_555
H18 C16 1_555 1_555
C17 C13 1_555 1_555
H19 C17 1_555 1_555
H20 C17 1_555 1_555
C18 C13 1_555 1_555
H21 C18 1_555 1_555
H22 C18 1_555 1_555
H23 C18 1_555 1_555
C19 C13 1_555 1_555
H24 C19 1_555 1_555
H25 C19 1_555 1_555
H26 C19 1_555 1_555
C20 C14 1_555 1_555
H27 C20 1_555 1_555
H28 C20 1_555 1_555
O8 H29 1_555 1_555
H30 O8 1_555 1_555
C1 C9 1_555 1_555
C2 C11 1_555 1_555
C2 C12 1_555 1_555
C3 C6 1_555 1_555
C3 C7 1_555 1_555
C3 C8 1_555 1_555
C4 C12 1_555 1_555
C5 C9 1_555 1_555
C10 C15 1_555 1_555
C11 C14 1_555 1_555
C16 C17 1_555 1_555

#END
