
#######################################################################
#
#                 Cambridge Crystallographic Data Centre
#                                CCDC 
#
#######################################################################
#
# If this CIF has been generated from an entry in the Cambridge 
# Structural Database, then it will include bibliographic, chemical, 
# crystal, experimental, refinement or atomic coordinate data resulting 
# from the CCDC's data processing and validation procedures.
#
#######################################################################

data_QIQGOP
_chemical_formula_moiety         'C19 H21 N5 O2 S1'
_chemical_name_systematic        
8-isopropyl-4,11,11-trimethyl-11,12-dihydro-9H-pyrano[4'',3'':4',5']pyrido[3',2':4,5]thieno[2,3-e][1,2,4]triazolo[4,3-a]pyrimidin-5(4H)-one
_symmetry_cell_setting           triclinic
_symmetry_space_group_name_H-M   'P -1'
_symmetry_Int_Tables_number      2
_space_group_name_Hall           '-P 1'
loop_
_symmetry_equiv_pos_site_id
_symmetry_equiv_pos_as_xyz
1 x,y,z
2 -x,-y,-z
_cell_length_a                   7.9847(16)
_cell_length_b                   10.556(2)
_cell_length_c                   12.136(2)
_cell_angle_alpha                66.76(3)
_cell_angle_beta                 72.29(3)
_cell_angle_gamma                89.20(3)
_cell_volume                     888.761
_exptl_crystal_colour            colorless
_exptl_crystal_description       prism
_cell_formula_units_Z            2
loop_
_atom_site_label
_atom_site_type_symbol
_atom_site_fract_x
_atom_site_fract_y
_atom_site_fract_z
O1 O 0.66506(17) 0.75785(12) 0.13750(10)
C1 C 0.6015(2) 0.66698(16) 0.27045(14)
C2 C 0.4060(2) 0.67271(19) 0.32878(17)
H1 H 0.3883 0.7644 0.3245
H2 H 0.3655 0.6069 0.4158
H3 H 0.3406 0.6504 0.2829
C3 C 0.6339(3) 0.52309(18) 0.27507(18)
H4 H 0.5599 0.4964 0.2367
H5 H 0.6064 0.4577 0.3617
H6 H 0.7560 0.5242 0.2297
C4 C 0.7155(2) 0.71040(15) 0.33378(14)
H7 H 0.674(2) 0.6573(18) 0.4218(18)
H8 H 0.834(3) 0.6866(19) 0.3065(18)
C5 C 0.72582(19) 0.86360(14) 0.30307(13)
C6 C 0.75583(18) 0.92077(14) 0.38449(12)
C7 C 0.79204(18) 0.86592(14) 0.50328(13)
N1 N 0.85174(17) 0.74064(13) 0.56534(11)
C8 C 0.9261(2) 0.63711(16) 0.53234(16)
H9 H 0.946(3) 0.6322(19) 0.4535(18)
N2 N 0.9750(2) 0.54783(15) 0.62320(14)
N3 N 0.9377(2) 0.59150(15) 0.72157(13)
C9 C 0.8693(2) 0.70691(16) 0.68288(13)
N4 N 0.82862(18) 0.79417(15) 0.74360(12)
C10 C 0.8529(3) 0.7505(2) 0.86807(16)
H10 H 0.7433 0.7037 0.9336
H11 H 0.8890 0.8306 0.8780
H12 H 0.9423 0.6886 0.8739
C11 C 0.7867(2) 0.92581(17) 0.68497(15)
O2 O 0.7645(2) 1.00793(15) 0.73465(13)
C12 C 0.7704(2) 0.95634(15) 0.56102(13)
S1 S 0.72163(5) 1.11594(4) 0.47296(4)
C13 C 0.72612(19) 1.06056(15) 0.35511(13)
N5 N 0.69823(18) 1.14860(13) 0.24975(12)
C14 C 0.6892(2) 1.09713(15) 0.16764(13)
C15 C 0.6782(2) 1.20012(17) 0.04133(15)
H13 H 0.584(3) 1.158(2) 0.023(2)
C16 C 0.6270(3) 1.33889(19) 0.04381(19)
H14 H 0.5224 1.3230 0.1149
H15 H 0.6043 1.3950 -0.0333
H16 H 0.7222 1.3860 0.0514
C17 C 0.8556(3) 1.2226(2) -0.06376(17)
H17 H 0.9467 1.2633 -0.0470
H18 H 0.8457 1.2835 -0.1441
H19 H 0.8854 1.1349 -0.0658
C18 C 0.6920(2) 0.95358(15) 0.19509(13)
C19 C 0.6406(3) 0.89854(17) 0.11122(15)
H20 H 0.715(3) 0.945(2) 0.022(2)
H21 H 0.509(3) 0.913(2) 0.1196(19)
loop_
_geom_bond_atom_site_label_1
_geom_bond_atom_site_label_2
_geom_bond_site_symmetry_1
_geom_bond_site_symmetry_2
O1 C1 1_555 1_555
C1 C2 1_555 1_555
C2 H1 1_555 1_555
H2 C2 1_555 1_555
H3 C2 1_555 1_555
C3 C1 1_555 1_555
H4 C3 1_555 1_555
H5 C3 1_555 1_555
H6 C3 1_555 1_555
C4 C1 1_555 1_555
H7 C4 1_555 1_555
H8 C4 1_555 1_555
C5 C4 1_555 1_555
C6 C5 1_555 1_555
C7 C6 1_555 1_555
N1 C7 1_555 1_555
C8 N1 1_555 1_555
H9 C8 1_555 1_555
N2 C8 1_555 1_555
N3 N2 1_555 1_555
C9 N1 1_555 1_555
N4 C9 1_555 1_555
C10 N4 1_555 1_555
H10 C10 1_555 1_555
H11 C10 1_555 1_555
H12 C10 1_555 1_555
C11 N4 1_555 1_555
O2 C11 1_555 1_555
C12 C7 1_555 1_555
S1 C12 1_555 1_555
C13 C6 1_555 1_555
N5 C13 1_555 1_555
C14 N5 1_555 1_555
C15 C14 1_555 1_555
H13 C15 1_555 1_555
C16 C15 1_555 1_555
H14 C16 1_555 1_555
H15 C16 1_555 1_555
H16 C16 1_555 1_555
C17 C15 1_555 1_555
H17 C17 1_555 1_555
H18 C17 1_555 1_555
H19 C17 1_555 1_555
C18 C5 1_555 1_555
C19 O1 1_555 1_555
H20 C19 1_555 1_555
H21 C19 1_555 1_555
N3 C9 1_555 1_555
C11 C12 1_555 1_555
S1 C13 1_555 1_555
C14 C18 1_555 1_555
C18 C19 1_555 1_555

#END
