
#######################################################################
#
#                 Cambridge Crystallographic Data Centre
#                                CCDC 
#
#######################################################################
#
# If this CIF has been generated from an entry in the Cambridge 
# Structural Database, then it will include bibliographic, chemical, 
# crystal, experimental, refinement or atomic coordinate data resulting 
# from the CCDC's data processing and validation procedures.
#
#######################################################################

data_QIQGAB
_chemical_formula_moiety         'C24 H21 Cl1 N4 O1'
_chemical_name_systematic        
N-[(5-chloro-3-methyl-1-phenyl-1H-pyrazol-4-yl)methyl]-N,N'-diphenylurea
_symmetry_cell_setting           monoclinic
_symmetry_space_group_name_H-M   'P 21/n'
_symmetry_Int_Tables_number      14
_space_group_name_Hall           '-P 2yn'
loop_
_symmetry_equiv_pos_site_id
_symmetry_equiv_pos_as_xyz
1 x,y,z
2 1/2-x,1/2+y,1/2-z
3 -x,-y,-z
4 1/2+x,1/2-y,1/2+z
_cell_length_a                   10.2630(11)
_cell_length_b                   17.8954(16)
_cell_length_c                   12.3517(14)
_cell_angle_alpha                90
_cell_angle_beta                 102.510(11)
_cell_angle_gamma                90
_cell_volume                     2214.66
_exptl_crystal_colour            colorless
_exptl_crystal_description       block
_cell_formula_units_Z            4
loop_
_atom_site_label
_atom_site_type_symbol
_atom_site_fract_x
_atom_site_fract_y
_atom_site_fract_z
Cl1 Cl 0.05912(8) 0.15927(4) 0.02375(7)
N1 N 0.2668(2) 0.07542(12) 0.1289(2)
N2 N 0.1547(2) 0.02605(13) -0.2413(2)
C1 C 0.2845(3) -0.01265(15) 0.0147(3)
N3 N 0.3407(2) 0.01360(13) 0.1140(2)
N4 N 0.1926(3) -0.02079(13) -0.4069(2)
H1 H 0.219642 0.023875 -0.415376
C2 C 0.1668(3) 0.08574(14) 0.0372(2)
C3 C 0.4306(3) 0.12602(17) 0.2826(3)
H2 H 0.497960 0.111412 0.247452
O1 O 0.0973(2) -0.09276(11) -0.2941(2)
C4 C 0.1740(3) 0.03119(15) -0.0374(2)
C5 C 0.2234(3) 0.09440(14) -0.2521(2)
C6 C 0.2987(3) 0.11409(14) 0.2327(2)
C7 C 0.1990(3) 0.13585(15) 0.2842(3)
H3 H 0.110108 0.127363 0.250479
C8 C 0.1654(3) -0.14665(16) -0.4905(3)
H4 H 0.130661 -0.165319 -0.432397
C9 C 0.2019(3) -0.07217(15) -0.4922(3)
C10 C 0.3618(4) 0.18235(17) 0.4375(3)
H5 H 0.383196 0.205338 0.506619
C11 C 0.0838(3) 0.02086(16) -0.1501(2)
H6 H 0.041109 -0.027656 -0.152834
H7 H 0.014388 0.058601 -0.160598
C12 C 0.2504(4) -0.04602(18) -0.5795(3)
H8 H 0.275083 0.003906 -0.581157
C13 C 0.2320(4) 0.17067(16) 0.3872(3)
H9 H 0.164641 0.186054 0.421914
C14 C 0.3599(3) 0.09576(17) -0.2343(3)
H10 H 0.408814 0.051934 -0.217442
C15 C 0.1460(3) -0.03329(17) -0.3131(3)
C16 C 0.3548(5) 0.2271(2) -0.2636(3)
H11 H 0.399226 0.271868 -0.268100
C17 C 0.3367(4) -0.08157(18) -0.0299(3)
H12 H 0.394578 -0.067639 -0.078094
H13 H 0.263440 -0.110380 -0.070739
H14 H 0.385718 -0.110890 0.030449
C18 C 0.2293(4) -0.1668(2) -0.6632(3)
H15 H 0.239081 -0.198639 -0.720421
C19 C 0.4243(4) 0.1627(2) -0.2416(3)
H16 H 0.516748 0.163554 -0.231127
C20 C 0.1813(3) -0.19270(19) -0.5763(3)
H17 H 0.158446 -0.242909 -0.574502
C21 C 0.4618(4) 0.16000(19) 0.3857(3)
H18 H 0.550682 0.167815 0.420299
C22 C 0.2633(4) -0.0928(2) -0.6654(3)
H19 H 0.295076 -0.074003 -0.724992
C23 C 0.1540(4) 0.15958(19) -0.2742(3)
H20 H 0.061367 0.159319 -0.285994
C24 C 0.2208(5) 0.2259(2) -0.2791(4)
H21 H 0.172951 0.270244 -0.293158
loop_
_geom_bond_atom_site_label_1
_geom_bond_atom_site_label_2
_geom_bond_site_symmetry_1
_geom_bond_site_symmetry_2
Cl1 C2 1_555 1_555
N1 N3 1_555 1_555
N2 C5 1_555 1_555
C1 N3 1_555 1_555
N4 H1 1_555 1_555
C2 N1 1_555 1_555
C3 H2 1_555 1_555
O1 C15 1_555 1_555
C4 C1 1_555 1_555
C5 C14 1_555 1_555
C6 N1 1_555 1_555
C7 C6 1_555 1_555
H3 C7 1_555 1_555
C8 H4 1_555 1_555
C9 N4 1_555 1_555
C10 H5 1_555 1_555
C11 N2 1_555 1_555
H6 C11 1_555 1_555
H7 C11 1_555 1_555
C12 C9 1_555 1_555
H8 C12 1_555 1_555
C13 C7 1_555 1_555
H9 C13 1_555 1_555
C14 H10 1_555 1_555
C15 N2 1_555 1_555
C16 H11 1_555 1_555
C17 C1 1_555 1_555
H12 C17 1_555 1_555
H13 C17 1_555 1_555
H14 C17 1_555 1_555
C18 H15 1_555 1_555
C19 C14 1_555 1_555
H16 C19 1_555 1_555
C20 C8 1_555 1_555
H17 C20 1_555 1_555
C21 C3 1_555 1_555
H18 C21 1_555 1_555
C22 C12 1_555 1_555
H19 C22 1_555 1_555
C23 C5 1_555 1_555
H20 C23 1_555 1_555
C24 C16 1_555 1_555
H21 C24 1_555 1_555
N4 C15 1_555 1_555
C2 C4 1_555 1_555
C3 C6 1_555 1_555
C4 C11 1_555 1_555
C8 C9 1_555 1_555
C10 C13 1_555 1_555
C10 C21 1_555 1_555
C16 C19 1_555 1_555
C18 C20 1_555 1_555
C18 C22 1_555 1_555
C23 C24 1_555 1_555

#END
