
#######################################################################
#
#                 Cambridge Crystallographic Data Centre
#                                CCDC 
#
#######################################################################
#
# If this CIF has been generated from an entry in the Cambridge 
# Structural Database, then it will include bibliographic, chemical, 
# crystal, experimental, refinement or atomic coordinate data resulting 
# from the CCDC's data processing and validation procedures.
#
#######################################################################

data_QIQJIL
_chemical_formula_moiety         'C6 H9 N2 O2 1+,C6 H8 N2 O2,H2 O1,Cl1 1-'
_chemical_name_systematic        
'3-(Carboxymethyl)-1-methyl-1H-imidazol-3-ium chloride (1-methyl-1H-imidazol-3-ium-3-yl)acetate monohydrate'
_symmetry_cell_setting           monoclinic
_symmetry_space_group_name_H-M   'C 2/c'
_symmetry_Int_Tables_number      15
_space_group_name_Hall           '-C 2yn'
loop_
_symmetry_equiv_pos_site_id
_symmetry_equiv_pos_as_xyz
1 x,y,z
2 -x,y,1/2-z
3 1/2+x,1/2+y,z
4 1/2-x,1/2+y,1/2-z
5 -x,-y,-z
6 x,-y,1/2+z
7 1/2-x,1/2-y,-z
8 1/2+x,1/2-y,1/2+z
_cell_length_a                   33.661(7)
_cell_length_b                   5.1236(11)
_cell_length_c                   20.232(4)
_cell_angle_alpha                90
_cell_angle_beta                 113.930(2)
_cell_angle_gamma                90
_cell_volume                     3189.39
_exptl_crystal_colour            colorless
_exptl_crystal_description       block
_cell_formula_units_Z            8
loop_
_atom_site_label
_atom_site_type_symbol
_atom_site_fract_x
_atom_site_fract_y
_atom_site_fract_z
C7 C 0.01660(6) 0.5302(4) 0.12712(10)
H9 H 0.0324 0.6735 0.1229
C8 C -0.00161(6) 0.1707(4) 0.16580(11)
H10 H -0.0002 0.0229 0.1933
C9 C -0.03585(6) 0.2497(4) 0.10714(11)
H11 H -0.0627 0.1672 0.0864
C10 C 0.07388(6) 0.3470(4) 0.23750(11)
H12 H 0.0959 0.3601 0.2183
H13 H 0.0780 0.1821 0.2630
C11 C 0.07992(6) 0.5678(4) 0.29037(10)
C12 C -0.05155(8) 0.6277(5) 0.01990(11)
H14 H -0.0745 0.7084 0.0291
H15 H -0.0638 0.5148 -0.0213
H16 H -0.0343 0.7601 0.0105
N3 N 0.03101(5) 0.3492(3) 0.17767(8)
N4 N -0.02401(5) 0.4746(3) 0.08329(8)
O3 O 0.11747(4) 0.5555(3) 0.34433(7)
H17 H 0.1224 0.7169 0.3803
O4 O 0.05268(4) 0.7320(3) 0.28154(8)
Cl1 Cl 0.097469(18) 0.91074(11) 0.11794(3)
O5 O 0.15802(5) 0.4055(3) 0.15370(9)
H18 H 0.1405 0.2782 0.1455
H19 H 0.1421 0.5403 0.1471
C1 C 0.24185(6) 0.3985(4) 0.59072(10)
H1 H 0.2413 0.5252 0.5575
C2 C 0.22334(7) 0.0746(4) 0.64242(11)
H2 H 0.2075 -0.0610 0.6505
C3 C 0.26308(7) 0.1549(4) 0.68765(11)
H3 H 0.2799 0.0858 0.7330
C4 C 0.16904(6) 0.2095(4) 0.51944(11)
H4 H 0.1652 0.3625 0.4892
H5 H 0.1457 0.2071 0.5358
C5 C 0.16604(6) -0.0332(4) 0.47469(10)
C6 C 0.31546(7) 0.5007(5) 0.68390(12)
H6 H 0.3378 0.3965 0.6790
H7 H 0.3232 0.5381 0.7341
H8 H 0.3124 0.6612 0.6578
N1 N 0.21054(5) 0.2299(3) 0.58221(8)
N2 N 0.27420(5) 0.3573(3) 0.65456(8)
O1 O 0.19845(4) -0.1604(3) 0.48322(7)
O2 O 0.12741(4) -0.0774(3) 0.42887(7)
loop_
_geom_bond_atom_site_label_1
_geom_bond_atom_site_label_2
_geom_bond_site_symmetry_1
_geom_bond_site_symmetry_2
C1 H1 1_555 1_555
C2 H2 1_555 1_555
C3 C2 1_555 1_555
H3 C3 1_555 1_555
C4 H4 1_555 1_555
H5 C4 1_555 1_555
C5 C4 1_555 1_555
C6 H6 1_555 1_555
H7 C6 1_555 1_555
H8 C6 1_555 1_555
N1 C1 1_555 1_555
N2 C1 1_555 1_555
O1 C5 1_555 1_555
O2 C5 1_555 1_555
C7 H9 1_555 1_555
C8 H10 1_555 1_555
C9 C8 1_555 1_555
H11 C9 1_555 1_555
C10 H12 1_555 1_555
H13 C10 1_555 1_555
C11 C10 1_555 1_555
C12 H14 1_555 1_555
H15 C12 1_555 1_555
H16 C12 1_555 1_555
N3 C7 1_555 1_555
N4 C7 1_555 1_555
O3 C11 1_555 1_555
H17 O3 1_555 1_555
O4 C11 1_555 1_555
O5 H18 1_555 1_555
H19 O5 1_555 1_555
C2 N1 1_555 1_555
C3 N2 1_555 1_555
C4 N1 1_555 1_555
C6 N2 1_555 1_555
C8 N3 1_555 1_555
C9 N4 1_555 1_555
C10 N3 1_555 1_555
C12 N4 1_555 1_555

#END
