
#######################################################################
#
#                 Cambridge Crystallographic Data Centre
#                                CCDC 
#
#######################################################################
#
# If this CIF has been generated from an entry in the Cambridge 
# Structural Database, then it will include bibliographic, chemical, 
# crystal, experimental, refinement or atomic coordinate data resulting 
# from the CCDC's data processing and validation procedures.
#
#######################################################################

data_QIQNAF
_chemical_formula_moiety         'C20 H26 N2 O4,1.75(H2 O1)'
_chemical_name_systematic        '10(S),11-Dihydroxydihydroquinine hydrate'
_symmetry_cell_setting           monoclinic
_symmetry_space_group_name_H-M   'P 21'
_symmetry_Int_Tables_number      4
_space_group_name_Hall           'P 2yb'
loop_
_symmetry_equiv_pos_site_id
_symmetry_equiv_pos_as_xyz
1 x,y,z
2 -x,1/2+y,-z
_cell_length_a                   17.104(3)
_cell_length_b                   11.5719(16)
_cell_length_c                   21.407(4)
_cell_angle_alpha                90.00
_cell_angle_beta                 110.262(16)
_cell_angle_gamma                90.00
_cell_volume                     3974.81
_chemical_melting_point          138-139.5deg.C
_cell_formula_units_Z            8
_exptl_crystal_recrystallization_method dichloromethane/methanol
loop_
_atom_site_label
_atom_site_type_symbol
_atom_site_fract_x
_atom_site_fract_y
_atom_site_fract_z
N1 N 1.02307(18) 0.7389(2) 1.01997(15)
C1 C 0.9879(2) 0.7022(3) 0.94958(19)
H1 H 0.9782 0.7700 0.9213
H2 H 0.9345 0.6652 0.9420
C2 C 1.0452(2) 0.6177(3) 0.92950(19)
H3 H 1.0599 0.6536 0.8936
C3 C 1.1257(2) 0.6036(3) 0.9901(2)
H4 H 1.1647 0.5529 0.9788
C4 C 1.1646(2) 0.7237(4) 1.0100(2)
H5 H 1.1789 0.7568 0.9738
H6 H 1.2152 0.7172 1.0486
C5 C 1.1014(3) 0.8024(3) 1.0265(2)
H7 H 1.1261 0.8312 1.0717
H8 H 1.0883 0.8682 0.9966
C6 C 1.1042(3) 0.5528(3) 1.04703(19)
H9 H 1.1540 0.5480 1.0864
H10 H 1.0821 0.4754 1.0356
C7 C 1.0382(2) 0.6310(3) 1.06145(19)
H11 H 0.9857 0.5877 1.0475
C8 C 1.0612(2) 0.6555(3) 1.13561(19)
H12 H 1.0219 0.7124 1.1416
O1 O 1.14406(16) 0.7005(2) 1.16464(13)
H13 H 1.1419 0.7670 1.1772
C9 C 0.9999(2) 0.5031(3) 0.90299(19)
H14 H 0.9636 0.4852 0.9284
O2 O 1.05670(18) 0.4067(2) 0.90979(15)
H15 H 1.0998 0.4299 0.9054
C10 C 0.9457(3) 0.5162(4) 0.8303(2)
H16 H 0.9087 0.5816 0.8257
H17 H 0.9810 0.5324 0.8043
O3 O 0.89753(18) 0.4159(3) 0.80437(13)
H18 H 0.8693 0.4266 0.7652
N2 N 1.0464(3) 0.3391(3) 1.23977(19)
C11 C 1.1165(3) 0.3824(4) 1.2420(2)
H19 H 1.1648 0.3431 1.2664
C12 C 1.1250(3) 0.4862(4) 1.2097(2)
H20 H 1.1774 0.5144 1.2138
C13 C 1.0543(3) 0.5438(3) 1.17254(18)
C14 C 0.8974(2) 0.5527(3) 1.13342(19)
H21 H 0.8965 0.6204 1.1097
C15 C 0.8241(2) 0.5065(4) 1.13376(18)
O4 O 0.74757(19) 0.5473(3) 1.10186(15)
C16 C 0.7417(3) 0.6381(5) 1.0555(3)
H22 H 0.6845 0.6613 1.0354
H23 H 0.7622 0.6114 1.0216
H24 H 0.7744 0.7028 1.0782
C17 C 0.8252(3) 0.4032(4) 1.1718(2)
H25 H 0.7755 0.3724 1.1730
C18 C 0.8979(3) 0.3515(4) 1.2055(2)
H26 H 0.8978 0.2852 1.2300
C19 C 0.9746(3) 0.4998(3) 1.16835(18)
C20 C 0.9744(3) 0.3953(3) 1.20447(19)
O5 O 0.9315(2) 0.6970(3) 1.65590(16)
H27 H 0.8963 0.6863 1.6733
O6 O 1.1123(2) 0.6662(3) 1.67097(15)
H28 H 1.1261 0.7195 1.6518
O7 O 1.12693(18) 0.4038(3) 1.40804(14)
H29 H 1.1150 0.3402 1.3904
O8 O 0.75148(18) 0.6499(3) 1.27800(16)
C21 C 1.0522(2) 0.4680(3) 1.39865(18)
H30 H 1.0044 0.4218 1.3718
C22 C 1.0431(3) 0.4943(3) 1.46590(19)
H31 H 0.9977 0.5506 1.4572
C23 C 1.1207(3) 0.5512(4) 1.5161(2)
H32 H 1.1097 0.6320 1.5217
H33 H 1.1670 0.5466 1.4999
C24 C 1.1425(3) 0.4874(4) 1.5830(2)
H34 H 1.1903 0.5247 1.6163
C25 C 1.1643(3) 0.3626(4) 1.5721(2)
H35 H 1.1822 0.3209 1.6140
H36 H 1.2094 0.3613 1.5544
C26 C 1.0857(3) 0.3050(4) 1.5223(2)
H37 H 1.0993 0.2721 1.4856
H38 H 1.0676 0.2428 1.5444
N3 N 1.0172(2) 0.3898(3) 1.49595(17)
C27 C 0.9936(3) 0.4293(4) 1.55143(19)
H39 H 0.9738 0.3639 1.5701
H40 H 0.9481 0.4840 1.5351
C28 C 1.0665(3) 0.4874(4) 1.60699(19)
H41 H 1.0805 0.4386 1.6468
C29 C 1.0433(3) 0.6066(4) 1.6252(2)
H42 H 1.0201 0.6530 1.5846
C30 C 0.9772(3) 0.5928(4) 1.6584(2)
H43 H 0.9389 0.5316 1.6362
H44 H 1.0044 0.5702 1.7046
C31 C 1.0546(3) 0.5807(4) 1.36118(19)
C32 C 1.1290(3) 0.6237(4) 1.3618(2)
H45 H 1.1782 0.5868 1.3868
C33 C 1.1321(3) 0.7233(5) 1.3251(2)
H46 H 1.1843 0.7506 1.3276
N4 N 1.0662(2) 0.7802(3) 1.28751(17)
C34 C 0.9900(3) 0.7374(4) 1.28583(17)
C35 C 0.9180(3) 0.7967(4) 1.24494(19)
H47 H 0.9237 0.8586 1.2192
C36 C 0.8408(3) 0.7648(4) 1.2427(2)
H48 H 0.7943 0.8052 1.2159
C37 C 0.8308(3) 0.6692(4) 1.2815(2)
C38 C 0.9001(3) 0.6080(4) 1.32049(19)
H49 H 0.8935 0.5453 1.3454
C39 C 0.9810(3) 0.6405(3) 1.32275(18)
C40 C 0.7391(3) 0.5684(5) 1.3233(3)
H50 H 0.6807 0.5623 1.3161
H51 H 0.7683 0.5933 1.3681
H52 H 0.7600 0.4943 1.3162
O9 O 0.41091(19) 0.9636(2) 0.80138(13)
H53 H 0.3691 0.9685 0.7679
O10 O 0.58468(18) 1.0222(2) 0.87001(13)
H54 H 0.6090 0.9754 0.8990
O11 O 0.62357(16) 1.2539(2) 1.15608(13)
H55 H 0.6222 1.3184 1.1716
O12 O 0.2229(2) 1.1555(3) 1.10138(19)
C41 C 0.5406(2) 1.2127(3) 1.12452(18)
H56 H 0.5016 1.2723 1.1280
C42 C 0.5229(2) 1.1865(3) 1.04997(18)
H57 H 0.4742 1.1354 1.0354
C43 C 0.5947(2) 1.1208(3) 1.03787(18)
H58 H 0.6426 1.1177 1.0787
H59 H 0.5775 1.0423 1.0239
C44 C 0.6184(2) 1.1835(3) 0.98347(19)
H60 H 0.6636 1.1419 0.9750
C45 C 0.6469(3) 1.3073(3) 1.0075(2)
H61 H 0.6641 1.3476 0.9747
H62 H 0.6938 1.3049 1.0491
C46 C 0.5723(2) 1.3702(3) 1.0175(2)
H63 H 0.5897 1.4017 1.0622
H64 H 0.5554 1.4341 0.9864
N5 N 0.5004(2) 1.2920(3) 1.00737(16)
C47 C 0.4734(2) 1.2519(4) 0.93675(18)
H65 H 0.4537 1.3180 0.9077
H66 H 0.4269 1.1991 0.9288
C48 C 0.5413(2) 1.1917(3) 0.91810(18)
H67 H 0.5562 1.2416 0.8869
C49 C 0.5173(2) 1.0726(3) 0.88531(18)
H68 H 0.5050 1.0220 0.9174
C50 C 0.4411(3) 1.0765(4) 0.8236(2)
H69 H 0.3977 1.1200 0.8327
H70 H 0.4543 1.1161 0.7886
C51 C 0.5263(2) 1.1026(3) 1.15936(18)
C52 C 0.5917(3) 1.0336(4) 1.1929(2)
H71 H 0.6454 1.0544 1.1959
C53 C 0.5785(3) 0.9302(4) 1.2233(2)
H72 H 0.6244 0.8840 1.2449
N6 N 0.5052(2) 0.8961(3) 1.22261(15)
C54 C 0.4381(3) 0.9615(3) 1.18878(18)
C55 C 0.3591(3) 0.9254(3) 1.1874(2)
H73 H 0.3544 0.8558 1.2076
C56 C 0.2888(3) 0.9897(4) 1.1572(2)
H74 H 0.2372 0.9640 1.1572
C57 C 0.2954(3) 1.0977(4) 1.1256(2)
C58 C 0.3715(2) 1.1328(3) 1.12448(18)
H75 H 0.3749 1.2007 1.1023
C59 C 0.4447(2) 1.0684(3) 1.15630(17)
C60 C 0.2235(3) 1.2727(4) 1.0807(3)
H76 H 0.1676 1.3022 1.0648
H77 H 0.2464 1.2764 1.0456
H78 H 0.2570 1.3184 1.1177
O13 O 0.44140(19) 1.2481(3) 1.66912(14)
H79 H 0.4260 1.2861 1.6347
O14 O 0.6136(2) 1.2165(3) 1.66996(14)
H80 H 0.6317 1.1833 1.7060
O15 O 0.63016(18) 0.9378(3) 1.41154(14)
H81 H 0.6195 0.8771 1.3905
O16 O 0.2527(2) 1.1679(3) 1.27920(19)
C61 C 0.5560(2) 1.0006(3) 1.40049(18)
H82 H 0.5086 0.9530 1.3742
C62 C 0.5447(3) 1.0333(3) 1.46673(19)
H83 H 0.4992 1.0897 1.4559
C63 C 0.6223(3) 1.0930(4) 1.51668(19)
H84 H 0.6694 1.0860 1.5016
H85 H 0.6111 1.1745 1.5202
C64 C 0.6421(3) 1.0338(4) 1.58491(18)
H86 H 0.6899 1.0712 1.6182
C65 C 0.6624(3) 0.9063(4) 1.5757(2)
H87 H 0.7081 0.9023 1.5589
H88 H 0.6791 0.8666 1.6183
C66 C 0.5857(3) 0.8482(4) 1.5270(2)
H89 H 0.6004 0.8116 1.4918
H90 H 0.5663 0.7886 1.5500
N7 N 0.5180(2) 0.9323(3) 1.49743(15)
C67 C 0.4921(3) 0.9784(4) 1.55284(19)
H91 H 0.4706 0.9157 1.5723
H92 H 0.4478 1.0346 1.5351
C68 C 0.5667(3) 1.0363(3) 1.60753(18)
H93 H 0.5803 0.9874 1.6473
C69 C 0.5427(2) 1.1550(4) 1.62664(17)
H94 H 0.5191 1.2003 1.5857
C70 C 0.4760(3) 1.1420(4) 1.6578(2)
H95 H 0.4315 1.0942 1.6289
H96 H 0.4998 1.1018 1.6999
C71 C 0.5569(3) 1.1124(4) 1.36171(19)
C72 C 0.6303(3) 1.1578(4) 1.3617(2)
H97 H 0.6802 1.1205 1.3847
C73 C 0.6310(3) 1.2625(5) 1.3264(2)
H98 H 0.6820 1.2911 1.3269
N8 N 0.5640(3) 1.3198(3) 1.29379(18)
C74 C 0.4889(3) 1.2766(3) 1.29237(19)
C75 C 0.4155(4) 1.3385(4) 1.2556(2)
H99 H 0.4193 1.4057 1.2330
C76 C 0.3402(3) 1.2991(4) 1.2536(2)
H100 H 0.2925 1.3402 1.2299
C77 C 0.3329(3) 1.1981(4) 1.2864(2)
C78 C 0.4014(3) 1.1354(4) 1.32220(19)
H101 H 0.3952 1.0683 1.3440
C79 C 0.4818(3) 1.1723(4) 1.32618(19)
C80 C 0.2404(3) 1.0668(6) 1.3156(3)
H102 H 0.1819 1.0552 1.3063
H103 H 0.2678 1.0790 1.3625
H104 H 0.2635 0.9999 1.3020
O17 O 0.77635(19) 0.9342(3) 1.10004(15)
O18 O 0.8577(3) 1.3363(3) 1.40887(19)
O19 O 0.64464(17) 0.8778(2) 0.97750(14)
O20 O 0.6470(2) 1.3772(3) 1.58087(19)
O21 O 0.6837(2) 1.1138(3) 1.79626(15)
O22 O 0.7851(2) 1.1091(4) 1.19734(18)
O24 O 0.7595(11) 1.335(4) 1.4999(12)
O23? O 0.7586(9) 1.408(2) 1.4999(8)
loop_
_geom_bond_atom_site_label_1
_geom_bond_atom_site_label_2
_geom_bond_site_symmetry_1
_geom_bond_site_symmetry_2
N1 C1 1_555 1_555
C1 H1 1_555 1_555
H2 C1 1_555 1_555
C2 C1 1_555 1_555
H3 C2 1_555 1_555
C3 C2 1_555 1_555
H4 C3 1_555 1_555
C4 C3 1_555 1_555
H5 C4 1_555 1_555
H6 C4 1_555 1_555
C5 N1 1_555 1_555
H7 C5 1_555 1_555
H8 C5 1_555 1_555
C6 C3 1_555 1_555
H9 C6 1_555 1_555
H10 C6 1_555 1_555
C7 N1 1_555 1_555
H11 C7 1_555 1_555
C8 C7 1_555 1_555
H12 C8 1_555 1_555
O1 C8 1_555 1_555
H13 O1 1_555 1_555
C9 C2 1_555 1_555
H14 C9 1_555 1_555
O2 C9 1_555 1_555
H15 O2 1_555 1_555
C10 C9 1_555 1_555
H16 C10 1_555 1_555
H17 C10 1_555 1_555
O3 C10 1_555 1_555
H18 O3 1_555 1_555
N2 C11 1_555 1_555
C11 H19 1_555 1_555
C12 C11 1_555 1_555
H20 C12 1_555 1_555
C13 C8 1_555 1_555
C14 H21 1_555 1_555
C15 C14 1_555 1_555
O4 C15 1_555 1_555
C16 O4 1_555 1_555
H22 C16 1_555 1_555
H23 C16 1_555 1_555
H24 C16 1_555 1_555
C17 C15 1_555 1_555
H25 C17 1_555 1_555
C18 C17 1_555 1_555
H26 C18 1_555 1_555
C19 C13 1_555 1_555
C20 N2 1_555 1_555
O5 H27 1_555 1_555
O6 H28 1_555 1_555
O7 H29 1_555 1_555
O8 C37 1_555 1_555
C21 O7 1_555 1_555
H30 C21 1_555 1_555
C22 C21 1_555 1_555
H31 C22 1_555 1_555
C23 C22 1_555 1_555
H32 C23 1_555 1_555
H33 C23 1_555 1_555
C24 C23 1_555 1_555
H34 C24 1_555 1_555
C25 C24 1_555 1_555
H35 C25 1_555 1_555
H36 C25 1_555 1_555
C26 C25 1_555 1_555
H37 C26 1_555 1_555
H38 C26 1_555 1_555
N3 C22 1_555 1_555
C27 N3 1_555 1_555
H39 C27 1_555 1_555
H40 C27 1_555 1_555
C28 C24 1_555 1_555
H41 C28 1_555 1_555
C29 O6 1_555 1_555
H42 C29 1_555 1_555
C30 O5 1_555 1_555
H43 C30 1_555 1_555
H44 C30 1_555 1_555
C31 C21 1_555 1_555
C32 C31 1_555 1_555
H45 C32 1_555 1_555
C33 C32 1_555 1_555
H46 C33 1_555 1_555
N4 C33 1_555 1_555
C34 N4 1_555 1_555
C35 C34 1_555 1_555
H47 C35 1_555 1_555
C36 C35 1_555 1_555
H48 C36 1_555 1_555
C37 C36 1_555 1_555
C38 C37 1_555 1_555
H49 C38 1_555 1_555
C39 C31 1_555 1_555
C40 O8 1_555 1_555
H50 C40 1_555 1_555
H51 C40 1_555 1_555
H52 C40 1_555 1_555
O9 H53 1_555 1_555
O10 H54 1_555 1_555
O11 H55 1_555 1_555
O12 C57 1_555 1_555
C41 O11 1_555 1_555
H56 C41 1_555 1_555
C42 C41 1_555 1_555
H57 C42 1_555 1_555
C43 C42 1_555 1_555
H58 C43 1_555 1_555
H59 C43 1_555 1_555
C44 C43 1_555 1_555
H60 C44 1_555 1_555
C45 C44 1_555 1_555
H61 C45 1_555 1_555
H62 C45 1_555 1_555
C46 C45 1_555 1_555
H63 C46 1_555 1_555
H64 C46 1_555 1_555
N5 C42 1_555 1_555
C47 N5 1_555 1_555
H65 C47 1_555 1_555
H66 C47 1_555 1_555
C48 C44 1_555 1_555
H67 C48 1_555 1_555
C49 O10 1_555 1_555
H68 C49 1_555 1_555
C50 O9 1_555 1_555
H69 C50 1_555 1_555
H70 C50 1_555 1_555
C51 C41 1_555 1_555
C52 C51 1_555 1_555
H71 C52 1_555 1_555
C53 C52 1_555 1_555
H72 C53 1_555 1_555
N6 C53 1_555 1_555
C54 N6 1_555 1_555
C55 C54 1_555 1_555
H73 C55 1_555 1_555
C56 C55 1_555 1_555
H74 C56 1_555 1_555
C57 C56 1_555 1_555
C58 C57 1_555 1_555
H75 C58 1_555 1_555
C59 C51 1_555 1_555
C60 O12 1_555 1_555
H76 C60 1_555 1_555
H77 C60 1_555 1_555
H78 C60 1_555 1_555
O13 H79 1_555 1_555
O14 H80 1_555 1_555
O15 H81 1_555 1_555
O16 C77 1_555 1_555
C61 O15 1_555 1_555
H82 C61 1_555 1_555
C62 C61 1_555 1_555
H83 C62 1_555 1_555
C63 C62 1_555 1_555
H84 C63 1_555 1_555
H85 C63 1_555 1_555
C64 C63 1_555 1_555
H86 C64 1_555 1_555
C65 C64 1_555 1_555
H87 C65 1_555 1_555
H88 C65 1_555 1_555
C66 C65 1_555 1_555
H89 C66 1_555 1_555
H90 C66 1_555 1_555
N7 C62 1_555 1_555
C67 N7 1_555 1_555
H91 C67 1_555 1_555
H92 C67 1_555 1_555
C68 C64 1_555 1_555
H93 C68 1_555 1_555
C69 O14 1_555 1_555
H94 C69 1_555 1_555
C70 O13 1_555 1_555
H95 C70 1_555 1_555
H96 C70 1_555 1_555
C71 C61 1_555 1_555
C72 C71 1_555 1_555
H97 C72 1_555 1_555
C73 C72 1_555 1_555
H98 C73 1_555 1_555
N8 C73 1_555 1_555
C74 N8 1_555 1_555
C75 C74 1_555 1_555
H99 C75 1_555 1_555
C76 C75 1_555 1_555
H100 C76 1_555 1_555
C77 C76 1_555 1_555
C78 C77 1_555 1_555
H101 C78 1_555 1_555
C79 C71 1_555 1_555
C80 O16 1_555 1_555
H102 C80 1_555 1_555
H103 C80 1_555 1_555
H104 C80 1_555 1_555
C4 C5 1_555 1_555
C6 C7 1_555 1_555
C12 C13 1_555 1_555
C14 C19 1_555 1_555
C18 C20 1_555 1_555
C19 C20 1_555 1_555
C26 N3 1_555 1_555
C27 C28 1_555 1_555
C28 C29 1_555 1_555
C29 C30 1_555 1_555
C34 C39 1_555 1_555
C38 C39 1_555 1_555
C46 N5 1_555 1_555
C47 C48 1_555 1_555
C48 C49 1_555 1_555
C49 C50 1_555 1_555
C54 C59 1_555 1_555
C58 C59 1_555 1_555
C66 N7 1_555 1_555
C67 C68 1_555 1_555
C68 C69 1_555 1_555
C69 C70 1_555 1_555
C74 C79 1_555 1_555
C78 C79 1_555 1_555

#END
