
#######################################################################
#
#                 Cambridge Crystallographic Data Centre
#                                CCDC 
#
#######################################################################
#
# If this CIF has been generated from an entry in the Cambridge 
# Structural Database, then it will include bibliographic, chemical, 
# crystal, experimental, refinement or atomic coordinate data resulting 
# from the CCDC's data processing and validation procedures.
#
#######################################################################

data_QIQVUJ
_chemical_formula_moiety         'C42 H48,C3 H6 O1'
_chemical_name_systematic        
'2,7-di-t-butyl-9-(2,7-di-tert-butyl-9H-fluoren-9-ylidene)-9H-fluorene acetone solvate'
_symmetry_cell_setting           triclinic
_symmetry_space_group_name_H-M   'P -1'
_symmetry_Int_Tables_number      2
_space_group_name_Hall           '-P 1'
loop_
_symmetry_equiv_pos_site_id
_symmetry_equiv_pos_as_xyz
1 x,y,z
2 -x,-y,-z
_cell_length_a                   11.586(8)
_cell_length_b                   17.318(12)
_cell_length_c                   19.289(13)
_cell_angle_alpha                79.608(9)
_cell_angle_beta                 77.715(9)
_cell_angle_gamma                88.493(10)
_cell_volume                     3719.32
_exptl_crystal_colour            red
_exptl_crystal_description       plate
_chemical_melting_point          '499 K'
_cell_formula_units_Z            4
loop_
_atom_site_label
_atom_site_type_symbol
_atom_site_fract_x
_atom_site_fract_y
_atom_site_fract_z
C1 C 0.6759(4) 0.1392(3) 0.0321(2)
H1 H 0.6280 0.1848 0.0191
H2 H 0.6520 0.0946 0.0133
H3 H 0.7595 0.1517 0.0112
C2 C 0.6575(3) 0.1181(2) 0.11413(19)
C3 C 0.5280(4) 0.0963(2) 0.1454(2)
H4 H 0.4783 0.1402 0.1304
H5 H 0.5144 0.0849 0.1982
H6 H 0.5078 0.0498 0.1278
C4 C 0.7315(4) 0.0466(2) 0.1335(2)
H7 H 0.7104 0.0034 0.1118
H8 H 0.7161 0.0304 0.1861
H9 H 0.8155 0.0598 0.1153
C5 C 0.6886(4) 0.1889(2) 0.14405(19)
C6 C 0.6235(4) 0.2580(2) 0.1353(2)
H10 H 0.5647 0.2611 0.1073
C7 C 0.6415(4) 0.3212(2) 0.1655(2)
H11 H 0.5932 0.3662 0.1604
C8 C 0.7309(4) 0.3191(2) 0.2036(2)
C9 C 0.7623(4) 0.3729(2) 0.2470(2)
C10 C 0.7249(4) 0.4481(2) 0.2549(2)
H12 H 0.6654 0.4722 0.2315
C11 C 0.7753(5) 0.4872(2) 0.2972(2)
H13 H 0.7475 0.5380 0.3039
C12 C 0.8664(5) 0.4550(2) 0.3310(2)
C13 C 0.9204(5) 0.5032(2) 0.3742(2)
C14 C 0.8264(6) 0.5210(3) 0.4380(3)
H14 H 0.8032 0.4724 0.4725
H15 H 0.7572 0.5437 0.4206
H16 H 0.8587 0.5585 0.4616
C15 C 0.9687(7) 0.5810(3) 0.3269(3)
H17 H 1.0024 0.6122 0.3555
H18 H 0.9045 0.6102 0.3086
H19 H 1.0301 0.5706 0.2863
C16 C 1.0226(6) 0.4607(3) 0.4030(3)
H20 H 1.0797 0.4445 0.3631
H21 H 0.9921 0.4143 0.4389
H22 H 1.0615 0.4961 0.4255
C17 C 0.9020(4) 0.3793(2) 0.32266(19)
H23 H 0.9641 0.3562 0.3442
C18 C 0.8481(4) 0.3370(2) 0.28328(18)
C19 C 0.8784(4) 0.2611(2) 0.26113(18)
C20 C 0.8012(3) 0.2523(2) 0.21054(18)
C21 C 0.7783(3) 0.1878(2) 0.18210(18)
H24 H 0.8245 0.1420 0.1887
C22 C 0.9584(4) 0.2073(2) 0.28383(17)
C23 C 0.9856(4) 0.1901(2) 0.35601(18)
C24 C 0.9275(4) 0.2119(2) 0.42082(19)
H25 H 0.8676 0.2504 0.4204
C25 C 0.9567(4) 0.1776(2) 0.48630(19)
C26 C 0.8946(4) 0.1987(2) 0.55834(19)
C27 C 0.8010(5) 0.2599(3) 0.5500(2)
H26 H 0.8369 0.3072 0.5174
H27 H 0.7656 0.2730 0.5973
H28 H 0.7397 0.2392 0.5300
C28 C 0.9886(5) 0.2314(3) 0.5916(2)
H29 H 1.0496 0.1920 0.5976
H30 H 0.9512 0.2440 0.6387
H31 H 1.0248 0.2790 0.5596
C29 C 0.8418(5) 0.1248(3) 0.6087(2)
H32 H 0.7832 0.1021 0.5881
H33 H 0.8036 0.1378 0.6556
H34 H 0.9045 0.0868 0.6152
C30 C 1.0450(4) 0.1211(2) 0.4848(2)
H35 H 1.0675 0.0987 0.5286
C31 C 1.1008(4) 0.0966(2) 0.42217(19)
H36 H 1.1590 0.0570 0.4231
C32 C 1.0704(4) 0.1308(2) 0.35747(18)
C33 C 1.1036(3) 0.1111(2) 0.28571(18)
C34 C 1.1893(4) 0.0628(2) 0.25615(19)
H37 H 1.2368 0.0327 0.2853
C35 C 1.2059(3) 0.0582(2) 0.18391(18)
H38 H 1.2638 0.0236 0.1646
C36 C 1.1406(3) 0.1026(2) 0.13844(18)
C37 C 1.1599(4) 0.0927(2) 0.05985(18)
C38 C 1.0934(4) 0.1540(2) 0.0160(2)
H39 H 1.0085 0.1488 0.0367
H40 H 1.1084 0.1455 -0.0341
H41 H 1.1207 0.2067 0.0171
C39 C 1.2917(4) 0.0992(3) 0.0251(2)
H42 H 1.3232 0.1493 0.0305
H43 H 1.3029 0.0968 -0.0263
H44 H 1.3336 0.0558 0.0488
C40 C 1.1153(4) 0.0116(2) 0.05758(19)
H45 H 1.1617 -0.0284 0.0818
H46 H 1.1235 0.0054 0.0073
H47 H 1.0319 0.0057 0.0821
C41 C 1.0551(3) 0.1519(2) 0.16821(18)
H48 H 1.0104 0.1837 0.1383
C42 C 1.0342(3) 0.1552(2) 0.24159(18)
C43 C 0.6788(4) 0.9918(2) 0.38706(18)
C44 C 0.7566(4) 0.9417(2) 0.33905(17)
C45 C 0.7166(4) 0.8708(2) 0.32864(19)
C46 C 0.7869(3) 0.82608(19) 0.28381(17)
C47 C 0.7587(4) 0.7542(2) 0.25942(17)
C48 C 0.6638(4) 0.7052(2) 0.28650(18)
C49 C 0.5972(3) 0.6857(2) 0.36222(18)
C50 C 0.6201(3) 0.7042(2) 0.42549(18)
H49 H 0.6819 0.7404 0.4226
C51 C 0.5541(4) 0.6709(2) 0.49252(19)
C52 C 0.5759(4) 0.6904(2) 0.56283(19)
C53 C 0.4699(5) 0.7353(3) 0.5969(2)
H50 H 0.4612 0.7843 0.5639
H51 H 0.4823 0.7474 0.6425
H52 H 0.3982 0.7030 0.6060
C54 C 0.8972(3) 0.8554(2) 0.24427(17)
C55 C 0.8698(4) 0.9670(2) 0.30210(19)
C56 C 0.9395(4) 0.9254(2) 0.25441(19)
C57 C 0.6876(5) 0.7382(3) 0.5517(2)
H53 H 0.7555 0.7086 0.5308
H54 H 0.6977 0.7492 0.5981
H55 H 0.6822 0.7877 0.5188
C58 C 0.5878(5) 0.6147(2) 0.6161(2)
H56 H 0.5151 0.5833 0.6264
H57 H 0.6014 0.6281 0.6610
H58 H 0.6546 0.5845 0.5949
C59 C 0.4640(4) 0.6177(2) 0.4942(2)
H59 H 0.4160 0.5956 0.5395
C60 C 0.4423(4) 0.5962(2) 0.4330(2)
H60 H 0.3820 0.5589 0.4361
C61 C 0.5100(4) 0.6300(2) 0.3665(2)
C62 C 0.4946(9) 0.6192(5) 0.3014(5)
C63 C 0.4198(11) 0.5733(6) 0.2784(6)
C64 C 0.4295(8) 0.5748(4) 0.2063(4)
C65 C 0.5135(7) 0.6235(4) 0.1539(3)
C66 C 0.5185(9) 0.6251(4) 0.0746(5)
C67 C 0.5905(8) 0.6953(4) 0.0263(4)
H61 H 0.5859 0.6962 -0.0240
H62 H 0.6732 0.6904 0.0308
H63 H 0.5584 0.7441 0.0412
C68 C 0.5882(8) 0.6685(4) 0.1785(4)
C69 C 0.5841(8) 0.6627(5) 0.2516(4)
C70 C 0.5715(9) 0.5494(6) 0.0521(4)
H64 H 0.5767 0.5524 0.0003
H65 H 0.5210 0.5047 0.0790
H66 H 0.6506 0.5426 0.0626
C71 C 0.3942(8) 0.6325(5) 0.0597(4)
H67 H 0.3595 0.6817 0.0721
H68 H 0.3452 0.5881 0.0889
H69 H 0.3980 0.6323 0.0085
C72 C 0.6393(8) 0.9439(5) 0.4632(4)
H70 H 0.5974 0.9780 0.4954
H71 H 0.7086 0.9219 0.4808
H72 H 0.5864 0.9011 0.4619
C73 C 0.5799(8) 1.0246(5) 0.3556(4)
H73 H 0.6100 1.0522 0.3062
H74 H 0.5373 1.0616 0.3845
H75 H 0.5262 0.9821 0.3549
C74 C 0.7524(8) 1.0637(5) 0.3992(4)
H76 H 0.7785 1.0994 0.3532
H77 H 0.8215 1.0435 0.4182
H78 H 0.7022 1.0920 0.4337
C75 C 0.9867(9) 0.5416(5) 0.1071(5)
H79 H 1.0198 0.4980 0.0834
H80 H 0.9127 0.5582 0.0923
H81 H 0.9710 0.5244 0.1596
C76 C 1.1876(14) 0.5819(9) 0.1070(8)
H82 H 1.1712 0.5529 0.1567
H83 H 1.2380 0.6276 0.1035
H84 H 1.2281 0.5477 0.0745
C77 C 1.0730(10) 0.6090(6) 0.0860(5)
C78 C 1.1130(10) 0.6341(6) 0.0092(5)
H85 H 1.0978 0.6831 -0.0217
H86 H 1.1262 0.5918 -0.0192
H87 H 1.1832 0.6407 0.0284
C79 C 1.0303(9) 0.6793(5) 0.1245(4)
C80 C 1.1024(11) 0.7416(6) 0.1198(6)
C81 C 0.9179(9) 0.6779(5) 0.1685(5)
C82 C 1.0711(12) 0.8039(7) 0.1558(6)
C83 C 0.9589(10) 0.8017(6) 0.1972(5)
C84 C 0.8787(9) 0.7423(5) 0.2027(5)
H88 H 0.643(3) 0.8526(17) 0.3521(16)
H89 H 0.893(3) 1.013(2) 0.3116(19)
H90 H 1.015(3) 0.9455(18) 0.2277(17)
H91 H 1.166(5) 0.740(3) 0.081(3)
H92 H 0.831(4) 0.639(3) 0.171(2)
H93 H 1.121(5) 0.840(3) 0.147(3)
H94 H 0.426(4) 0.538(3) 0.174(2)
H95 H 0.692(5) 0.691(3) 0.136(3)
H96 H 0.379(5) 0.540(3) 0.304(3)
C85 C 0.4883(17) 0.8641(11) 0.2044(10)
H97 H 0.5448 0.8578 0.1602
H98 H 0.5016 0.8236 0.2444
H99 H 0.4991 0.9162 0.2155
C86 C 0.3930(7) 0.8465(4) 0.1896(3)
C87 C 0.3179(9) 0.7667(5) 0.2244(5)
H100 H 0.2463 0.7675 0.2048
H101 H 0.2958 0.7626 0.2769
H102 H 0.3658 0.7215 0.2126
O1 O 0.3345(8) 0.8939(4) 0.1521(4)
O2 O 0.3492(9) 0.4046(5) 0.1599(5)
C88 C 0.2830(9) 0.3453(5) 0.1726(6)
C89 C 0.1773(8) 0.3537(5) 0.1452(5)
H103 H 0.1105 0.3619 0.1838
H104 H 0.1633 0.3061 0.1273
H105 H 0.1857 0.3989 0.1057
C90 C 0.2997(11) 0.2766(6) 0.2334(6)
H106 H 0.3815 0.2768 0.2396
H107 H 0.2823 0.2267 0.2203
H108 H 0.2459 0.2829 0.2786
C91? C 0.6788(4) 0.9918(2) 0.38706(18)
C92? C 0.9757(8) 0.6804(4) 0.1136(4)
C93? C 0.8682(8) 0.6840(5) 0.1622(4)
C94? C 0.8436(9) 0.7443(5) 0.1999(5)
C95? C 0.9287(10) 0.8030(6) 0.1937(5)
C96? C 1.0406(9) 0.7993(5) 0.1464(5)
C97? C 1.0609(8) 0.7388(5) 0.1067(4)
C98? C 0.7270(9) 0.9978(6) 0.4502(4)
H109? H 0.7285 0.9456 0.4797
H110? H 0.6772 1.0324 0.4788
H111? H 0.8074 1.0196 0.4343
C99? C 0.6615(10) 1.0742(5) 0.3412(5)
H112? H 0.6091 1.1059 0.3716
H113? H 0.6262 1.0672 0.3008
H114? H 0.7382 1.1009 0.3225
C100? C 0.5516(9) 0.9571(5) 0.4111(5)
H115? H 0.5529 0.9046 0.4402
H116? H 0.5202 0.9534 0.3684
H117? H 0.5012 0.9912 0.4398
C101? C 0.6117(10) 0.6022(5) 0.0585(4)
C102? C 0.7126(10) 0.6572(6) 0.0160(4)
H118? H 0.7839 0.6434 0.0350
H119? H 0.6912 0.7114 0.0206
H120? H 0.7277 0.6521 -0.0349
C103? C 0.6461(11) 0.5177(5) 0.0504(5)
H121? H 0.7159 0.5033 0.0707
H122? H 0.6639 0.5137 -0.0009
H123? H 0.5804 0.4820 0.0760
C104? C 0.5030(10) 0.6228(5) 0.0273(6)
H124? H 0.5219 0.6210 -0.0244
H125? H 0.4774 0.6757 0.0343
H126? H 0.4394 0.5849 0.0517
C105? C 1.0687(9) 0.6423(5) -0.0040(4)
H127? H 1.0903 0.5996 -0.0312
H128? H 1.1245 0.6863 -0.0239
H129? H 0.9887 0.6598 -0.0076
C106? C 1.0064(7) 0.6130(4) 0.0716(4)
C107? C 0.8917(8) 0.5775(5) 0.0598(5)
H130? H 0.8446 0.5520 0.1064
H131? H 0.9126 0.5387 0.0281
H132? H 0.8457 0.6194 0.0375
C108? C 1.0601(9) 0.5449(5) 0.1197(5)
H133? H 1.1237 0.5658 0.1376
H134? H 1.0917 0.5049 0.0910
H135? H 0.9983 0.5213 0.1606
O3? O 0.401(2) 0.8932(11) 0.1352(10)
C109? C 0.366(2) 0.7759(13) 0.1894(11)
H136? H 0.2962 0.7547 0.1777
H137? H 0.3770 0.7475 0.2362
H138? H 0.4357 0.7697 0.1521
C110? C 0.350(3) 0.8552(18) 0.1925(12)
C111? C 0.4614(10) 0.8684(6) 0.2416(6)
H139? H 0.5433 0.8811 0.2166
H140? H 0.4601 0.8241 0.2814
H141? H 0.4252 0.9141 0.2608
C112? C 0.3115(12) 0.2669(7) 0.2093(7)
H142? H 0.3178 0.2464 0.1645
H143? H 0.2471 0.2395 0.2462
H144? H 0.3859 0.2585 0.2258
C113? C 0.1725(16) 0.3746(10) 0.2394(9)
H145? H 0.1760 0.4311 0.2392
H146? H 0.1597 0.3459 0.2891
H147? H 0.1074 0.3631 0.2175
C114? C 0.2875(10) 0.3492(6) 0.1966(6)
O4? O 0.3710(8) 0.3908(5) 0.1501(5)
C115? C 0.5826(7) 0.6075(4) 0.1392(3)
C116? C 0.6479(8) 0.6535(4) 0.1682(4)
C117? C 0.4906(8) 0.5641(4) 0.1854(4)
C118? C 0.4593(9) 0.5653(5) 0.2600(5)
C119? C 0.5307(8) 0.6106(5) 0.2872(4)
C120? C 0.6271(8) 0.6532(5) 0.2414(4)
loop_
_geom_bond_atom_site_label_1
_geom_bond_atom_site_label_2
_geom_bond_site_symmetry_1
_geom_bond_site_symmetry_2
C1 H1 1_555 1_555
H2 C1 1_555 1_555
H3 C1 1_555 1_555
C2 C1 1_555 1_555
C3 C2 1_555 1_555
H4 C3 1_555 1_555
H5 C3 1_555 1_555
H6 C3 1_555 1_555
C4 C2 1_555 1_555
H7 C4 1_555 1_555
H8 C4 1_555 1_555
H9 C4 1_555 1_555
C5 C2 1_555 1_555
C6 C5 1_555 1_555
H10 C6 1_555 1_555
C7 C6 1_555 1_555
H11 C7 1_555 1_555
C8 C7 1_555 1_555
C9 C8 1_555 1_555
C10 C9 1_555 1_555
H12 C10 1_555 1_555
C11 C10 1_555 1_555
H13 C11 1_555 1_555
C12 C11 1_555 1_555
C13 C12 1_555 1_555
C14 C13 1_555 1_555
H14 C14 1_555 1_555
H15 C14 1_555 1_555
H16 C14 1_555 1_555
C15 C13 1_555 1_555
H17 C15 1_555 1_555
H18 C15 1_555 1_555
H19 C15 1_555 1_555
C16 C13 1_555 1_555
H20 C16 1_555 1_555
H21 C16 1_555 1_555
H22 C16 1_555 1_555
C17 C12 1_555 1_555
H23 C17 1_555 1_555
C18 C9 1_555 1_555
C19 C18 1_555 1_555
C20 C8 1_555 1_555
C21 C5 1_555 1_555
H24 C21 1_555 1_555
C22 C19 1_555 1_555
C23 C22 1_555 1_555
C24 C23 1_555 1_555
H25 C24 1_555 1_555
C25 C24 1_555 1_555
C26 C25 1_555 1_555
C27 C26 1_555 1_555
H26 C27 1_555 1_555
H27 C27 1_555 1_555
H28 C27 1_555 1_555
C28 C26 1_555 1_555
H29 C28 1_555 1_555
H30 C28 1_555 1_555
H31 C28 1_555 1_555
C29 C26 1_555 1_555
H32 C29 1_555 1_555
H33 C29 1_555 1_555
H34 C29 1_555 1_555
C30 C25 1_555 1_555
H35 C30 1_555 1_555
C31 C30 1_555 1_555
H36 C31 1_555 1_555
C32 C23 1_555 1_555
C33 C32 1_555 1_555
C34 C33 1_555 1_555
H37 C34 1_555 1_555
C35 C34 1_555 1_555
H38 C35 1_555 1_555
C36 C35 1_555 1_555
C37 C36 1_555 1_555
C38 C37 1_555 1_555
H39 C38 1_555 1_555
H40 C38 1_555 1_555
H41 C38 1_555 1_555
C39 C37 1_555 1_555
H42 C39 1_555 1_555
H43 C39 1_555 1_555
H44 C39 1_555 1_555
C40 C37 1_555 1_555
H45 C40 1_555 1_555
H46 C40 1_555 1_555
H47 C40 1_555 1_555
C41 C36 1_555 1_555
H48 C41 1_555 1_555
C42 C22 1_555 1_555
C43 C44 1_555 1_555
C44 C45 1_555 1_555
C45 C46 1_555 1_555
C46 C47 1_555 1_555
C47 C48 1_555 1_555
C48 C49 1_555 1_555
C49 C50 1_555 1_555
C50 H49 1_555 1_555
C51 C50 1_555 1_555
C52 C51 1_555 1_555
C53 C52 1_555 1_555
H50 C53 1_555 1_555
H51 C53 1_555 1_555
H52 C53 1_555 1_555
C54 C46 1_555 1_555
C55 C44 1_555 1_555
C56 C54 1_555 1_555
C57 C52 1_555 1_555
H53 C57 1_555 1_555
H54 C57 1_555 1_555
H55 C57 1_555 1_555
C58 C52 1_555 1_555
H56 C58 1_555 1_555
H57 C58 1_555 1_555
H58 C58 1_555 1_555
C59 C51 1_555 1_555
H59 C59 1_555 1_555
C60 C59 1_555 1_555
H60 C60 1_555 1_555
C61 C49 1_555 1_555
C62 C61 1_555 1_555
C63 C62 1_555 1_555
C64 C63 1_555 1_555
C65 C64 1_555 1_555
C66 C65 1_555 1_555
C67 C66 1_555 1_555
H61 C67 1_555 1_555
H62 C67 1_555 1_555
H63 C67 1_555 1_555
C68 C65 1_555 1_555
C69 C48 1_555 1_555
C70 C66 1_555 1_555
H64 C70 1_555 1_555
H65 C70 1_555 1_555
H66 C70 1_555 1_555
C71 C66 1_555 1_555
H67 C71 1_555 1_555
H68 C71 1_555 1_555
H69 C71 1_555 1_555
C72 C43 1_555 1_555
H70 C72 1_555 1_555
H71 C72 1_555 1_555
H72 C72 1_555 1_555
C73 C43 1_555 1_555
H73 C73 1_555 1_555
H74 C73 1_555 1_555
H75 C73 1_555 1_555
C74 C43 1_555 1_555
H76 C74 1_555 1_555
H77 C74 1_555 1_555
H78 C74 1_555 1_555
C75 H79 1_555 1_555
H80 C75 1_555 1_555
H81 C75 1_555 1_555
C76 H82 1_555 1_555
H83 C76 1_555 1_555
H84 C76 1_555 1_555
C77 C75 1_555 1_555
C78 C77 1_555 1_555
H85 C78 1_555 1_555
H86 C78 1_555 1_555
H87 C78 1_555 1_555
C79 C77 1_555 1_555
C80 C79 1_555 1_555
C81 C79 1_555 1_555
C82 C80 1_555 1_555
C83 C54 1_555 1_555
C84 C47 1_555 1_555
H88 C45 1_555 1_555
H89 C55 1_555 1_555
H90 C56 1_555 1_555
H91 C80 1_555 1_555
H92 C81 1_555 1_555
H93 C82 1_555 1_555
H94 C64 1_555 1_555
H95 C68 1_555 1_555
H96 C63 1_555 1_555
C85 H97 1_555 1_555
H98 C85 1_555 1_555
H99 C85 1_555 1_555
C86 C85 1_555 1_555
C87 C86 1_555 1_555
H100 C87 1_555 1_555
H101 C87 1_555 1_555
H102 C87 1_555 1_555
O1 C86 1_555 1_555
O2 C88 1_555 1_555
C88 C89 1_555 1_555
C89 H103 1_555 1_555
H104 C89 1_555 1_555
H105 C89 1_555 1_555
C90 C88 1_555 1_555
H106 C90 1_555 1_555
H107 C90 1_555 1_555
H108 C90 1_555 1_555
C17 C18 1_555 1_555
C19 C20 1_555 1_555
C20 C21 1_555 1_555
C31 C32 1_555 1_555
C33 C42 1_555 1_555
C41 C42 1_555 1_555
C55 C56 1_555 1_555
C60 C61 1_555 1_555
C62 C69 1_555 1_555
C68 C69 1_555 1_555
C76 C77 1_555 1_555
C81 C84 1_555 1_555
C82 C83 1_555 1_555
C83 C84 1_555 1_555

#END
