
#######################################################################
#
#                 Cambridge Crystallographic Data Centre
#                                CCDC 
#
#######################################################################
#
# If this CIF has been generated from an entry in the Cambridge 
# Structural Database, then it will include bibliographic, chemical, 
# crystal, experimental, refinement or atomic coordinate data resulting 
# from the CCDC's data processing and validation procedures.
#
#######################################################################

data_QIQWOF
_chemical_formula_moiety         'C12 H24 O6,N3 O4 1-,H4 N1 1+'
_chemical_name_systematic        'ammonium dinitramide 18-crown-6'
_symmetry_cell_setting           monoclinic
_symmetry_space_group_name_H-M   'C 2/c'
_symmetry_Int_Tables_number      15
_space_group_name_Hall           '-C 2yn'
loop_
_symmetry_equiv_pos_site_id
_symmetry_equiv_pos_as_xyz
1 x,y,z
2 -x,y,1/2-z
3 1/2+x,1/2+y,z
4 1/2-x,1/2+y,1/2-z
5 -x,-y,-z
6 x,-y,1/2+z
7 1/2-x,1/2-y,-z
8 1/2+x,1/2-y,1/2+z
_cell_length_a                   23.935(3)
_cell_length_b                   8.6327(11)
_cell_length_c                   20.324(3)
_cell_angle_alpha                90
_cell_angle_beta                 112.874(3)
_cell_angle_gamma                90
_cell_volume                     3869.19
_exptl_crystal_colour            yellow
_exptl_crystal_description       prismatic
_cell_formula_units_Z            8
loop_
_atom_site_label
_atom_site_type_symbol
_atom_site_fract_x
_atom_site_fract_y
_atom_site_fract_z
N1 N 0.08734(12) 0.7692(4) 0.39937(17)
N2 N 0.03075(13) 0.7274(4) 0.35580(16)
N3 N 0.09033(14) 0.9043(3) 0.43426(16)
O1 O 0.02797(14) 0.5947(4) 0.3329(2)
O2 O -0.01424(13) 0.8012(4) 0.3401(2)
O3 O 0.13943(14) 0.9482(4) 0.46941(16)
O4 O 0.04585(19) 0.9517(5) 0.4500(2)
N4 N 0.11468(11) 0.5670(3) 0.23765(14)
H1 H 0.0837(10) 0.602(4) 0.2381(17)
H2 H 0.1394(13) 0.633(3) 0.2528(18)
H3 H 0.1254(16) 0.494(3) 0.2628(17)
H4 H 0.1123(16) 0.527(4) 0.2020(13)
O6 O 0.09964(9) 0.2287(2) 0.19436(13)
O7 O 0.07992(9) 0.4629(2) 0.08975(11)
O8 O 0.15586(8) 0.7226(2) 0.12758(9)
O9 O 0.20454(7) 0.81426(19) 0.27478(9)
O10 O 0.22463(8) 0.5781(2) 0.37738(8)
O11 O 0.15151(10) 0.3158(2) 0.34056(12)
C1 C 0.04960(15) 0.2316(5) 0.1266(3)
H5 H 0.0162 0.2892 0.1306
H6 H 0.0358 0.1268 0.1118
C2 C 0.06830(15) 0.3044(4) 0.0737(2)
H7 H 0.1046 0.2542 0.0738
H8 H 0.0365 0.2928 0.0266
C3 C 0.09773(15) 0.5426(5) 0.04044(16)
H9 H 0.0668 0.5317 -0.0074
H10 H 0.1353 0.4993 0.0408
C4 C 0.10627(14) 0.7066(4) 0.06030(15)
H11 H 0.1144 0.7647 0.0241
H12 H 0.0696 0.7476 0.0634
C5 C 0.16400(13) 0.8778(3) 0.15143(15)
H13 H 0.1282 0.9135 0.1583
H14 H 0.1699 0.9434 0.1159
C6 C 0.21779(12) 0.8880(3) 0.21986(15)
H15 H 0.2522 0.8378 0.2149
H16 H 0.2281 0.9957 0.2322
C7 C 0.25497(11) 0.8121(3) 0.34044(14)
H17 H 0.2685 0.9172 0.3549
H18 H 0.2881 0.7559 0.3351
C8 C 0.23831(13) 0.7368(3) 0.39570(14)
H19 H 0.2717 0.7446 0.4419
H20 H 0.2033 0.7881 0.3987
C9 C 0.20830(15) 0.4980(4) 0.42777(15)
H21 H 0.1710 0.5403 0.4284
H22 H 0.2398 0.5096 0.4751
C10 C 0.20002(17) 0.3327(4) 0.40794(18)
H23 H 0.2370 0.2917 0.4058
H24 H 0.1913 0.2749 0.4438
C11 C 0.1401(2) 0.1609(4) 0.3168(3)
H25 H 0.1330 0.0983 0.3524
H26 H 0.1750 0.1191 0.3099
C12 C 0.0871(2) 0.1557(5) 0.2497(3)
H27 H 0.0756 0.0487 0.2369
H28 H 0.0534 0.2076 0.2556
O5? O 0.0602(3) 1.0089(10) 0.3974(6)
loop_
_geom_bond_atom_site_label_1
_geom_bond_atom_site_label_2
_geom_bond_site_symmetry_1
_geom_bond_site_symmetry_2
N1 N2 1_555 1_555
N2 O1 1_555 1_555
N3 N1 1_555 1_555
O2 N2 1_555 1_555
O3 N3 1_555 1_555
O4 N3 1_555 1_555
N4 H1 1_555 1_555
H2 N4 1_555 1_555
H3 N4 1_555 1_555
H4 N4 1_555 1_555
O6 C1 1_555 1_555
O7 C2 1_555 1_555
O8 C4 1_555 1_555
O9 C6 1_555 1_555
O10 C8 1_555 1_555
O11 C10 1_555 1_555
C1 H5 1_555 1_555
H6 C1 1_555 1_555
C2 C1 1_555 1_555
H7 C2 1_555 1_555
H8 C2 1_555 1_555
C3 O7 1_555 1_555
H9 C3 1_555 1_555
H10 C3 1_555 1_555
C4 C3 1_555 1_555
H11 C4 1_555 1_555
H12 C4 1_555 1_555
C5 O8 1_555 1_555
H13 C5 1_555 1_555
H14 C5 1_555 1_555
C6 C5 1_555 1_555
H15 C6 1_555 1_555
H16 C6 1_555 1_555
C7 O9 1_555 1_555
H17 C7 1_555 1_555
H18 C7 1_555 1_555
C8 C7 1_555 1_555
H19 C8 1_555 1_555
H20 C8 1_555 1_555
C9 O10 1_555 1_555
H21 C9 1_555 1_555
H22 C9 1_555 1_555
C10 C9 1_555 1_555
H23 C10 1_555 1_555
H24 C10 1_555 1_555
C11 O11 1_555 1_555
H25 C11 1_555 1_555
H26 C11 1_555 1_555
C12 O6 1_555 1_555
H27 C12 1_555 1_555
H28 C12 1_555 1_555
C11 C12 1_555 1_555

#END
