
#######################################################################
#
#                 Cambridge Crystallographic Data Centre
#                                CCDC 
#
#######################################################################
#
# If this CIF has been generated from an entry in the Cambridge 
# Structural Database, then it will include bibliographic, chemical, 
# crystal, experimental, refinement or atomic coordinate data resulting 
# from the CCDC's data processing and validation procedures.
#
#######################################################################

data_QIQWIW
_chemical_formula_moiety         'C24 H21 Br1 O2'
_chemical_name_systematic        syn-1,3-Dibenzoyl-2-(4-bromophenyl)butane
_symmetry_cell_setting           monoclinic
_symmetry_space_group_name_H-M   'P 21'
_symmetry_Int_Tables_number      4
_space_group_name_Hall           'P 2yb'
loop_
_symmetry_equiv_pos_site_id
_symmetry_equiv_pos_as_xyz
1 x,y,z
2 -x,1/2+y,-z
_cell_length_a                   16.3636(10)
_cell_length_b                   5.9050(3)
_cell_length_c                   21.0007(12)
_cell_angle_alpha                90
_cell_angle_beta                 92.3890(10)
_cell_angle_gamma                90
_cell_volume                     2027.47
_exptl_crystal_colour            colorless
_exptl_crystal_description       needle
_chemical_melting_point          142-144deg.C
_cell_formula_units_Z            4
loop_
_atom_site_label
_atom_site_type_symbol
_atom_site_fract_x
_atom_site_fract_y
_atom_site_fract_z
Br1 Br 0.03149(2) 0.94826(5) 0.453477(13)
O1 O 0.25373(14) 0.0402(3) 0.17446(9)
O2 O 0.35413(11) 0.3755(4) 0.35171(9)
C1 C 0.22702(16) 0.2157(4) 0.15026(11)
C2 C 0.18270(14) 0.3862(4) 0.19071(10)
H1 H 0.1843 0.5361 0.1697
C3 C 0.22531(14) 0.4052(4) 0.25720(10)
H2 H 0.2347 0.2503 0.2740
C4 C 0.30866(15) 0.5198(5) 0.25064(11)
H3 H 0.3370 0.4452 0.2162
H4 H 0.2995 0.6779 0.2381
C5 C 0.36392(16) 0.5152(4) 0.31027(12)
C6 C 0.09317(16) 0.3084(5) 0.19237(13)
H5 H 0.0712 0.2877 0.1492
H6 H 0.0614 0.4222 0.2137
H7 H 0.0905 0.1663 0.2154
C7 C 0.23618(15) 0.2535(4) 0.08046(11)
C8 C 0.27523(19) 0.0892(5) 0.04621(12)
H8 H 0.2942 -0.0432 0.0668
C9 C 0.2868(2) 0.1178(7) -0.01848(14)
H9 H 0.3128 0.0039 -0.0414
C10 C 0.2603(2) 0.3108(7) -0.04886(13)
H10 H 0.2684 0.3297 -0.0926
C11 C 0.2221(2) 0.4767(7) -0.01548(13)
H11 H 0.2050 0.6107 -0.0362
C12 C 0.20854(18) 0.4468(6) 0.04952(12)
H12 H 0.1806 0.5584 0.0720
C13 C 0.17576(15) 0.5353(4) 0.30444(11)
C14 C 0.16223(14) 0.4486(5) 0.36447(10)
H13 H 0.1828 0.3044 0.3753
C15 C 0.11945(17) 0.5673(5) 0.40883(12)
H14 H 0.1112 0.5051 0.4493
C16 C 0.08926(16) 0.7770(5) 0.39312(11)
C17 C 0.10038(18) 0.8704(5) 0.33392(12)
H15 H 0.0790 1.0139 0.3234
C18 C 0.14392(19) 0.7480(4) 0.29008(12)
H16 H 0.1520 0.8108 0.2497
C19 C 0.43393(15) 0.6781(4) 0.31473(11)
C20 C 0.43365(17) 0.8845(5) 0.28234(13)
H17 H 0.3876 0.9278 0.2570
C21 C 0.5005(2) 1.0238(5) 0.28743(16)
H18 H 0.4999 1.1635 0.2659
C22 C 0.5686(2) 0.9607(7) 0.32380(17)
H19 H 0.6147 1.0559 0.3260
C23 C 0.5700(2) 0.7594(7) 0.35697(17)
H20 H 0.6164 0.7185 0.3822
C24 C 0.50258(18) 0.6173(5) 0.35304(14)
H21 H 0.5029 0.4807 0.3760
Br2 Br 1.01322(2) 0.88732(5) 0.064499(14)
O3 O 0.77358(13) 0.0680(3) 0.35290(9)
O4 O 0.69722(14) 0.1234(4) 0.17613(12)
C25 C 0.77881(16) 0.2658(5) 0.36891(11)
C26 C 0.82340(14) 0.4326(5) 0.32720(10)
H22 H 0.8090 0.5894 0.3391
C27 C 0.79807(14) 0.3909(4) 0.25660(10)
H23 H 0.8048 0.2270 0.2484
C28 C 0.70701(14) 0.4484(5) 0.24264(11)
H24 H 0.6768 0.4242 0.2814
H25 H 0.7022 0.6090 0.2313
C29 C 0.66837(17) 0.3064(5) 0.18900(13)
C30 C 0.91525(16) 0.3927(6) 0.34155(13)
H26 H 0.9268 0.4013 0.3872
H27 H 0.9466 0.5077 0.3203
H28 H 0.9303 0.2442 0.3262
C31 C 0.74313(17) 0.3426(4) 0.43014(11)
C32 C 0.75680(19) 0.5567(5) 0.45617(12)
H29 H 0.7901 0.6610 0.4356
C33 C 0.7213(2) 0.6154(5) 0.51230(13)
H30 H 0.7310 0.7596 0.5300
C34 C 0.6721(2) 0.4655(6) 0.54255(13)
H31 H 0.6474 0.5080 0.5803
C35 C 0.6589(3) 0.2515(7) 0.51740(15)
H32 H 0.6263 0.1467 0.5385
C36 C 0.6941(2) 0.1931(5) 0.46085(13)
H33 H 0.6843 0.0488 0.4433
C37 C 0.85033(15) 0.5161(4) 0.21007(11)
C38 C 0.86934(15) 0.4153(4) 0.15251(10)
H34 H 0.8494 0.2693 0.1431
C39 C 0.91655(17) 0.5234(5) 0.10890(12)
H35 H 0.9281 0.4528 0.0702
C40 C 0.94642(17) 0.7363(5) 0.12302(12)
C41 C 0.92847(17) 0.8437(4) 0.17912(12)
H36 H 0.9491 0.9891 0.1882
C42 C 0.87947(17) 0.7340(4) 0.22195(12)
H37 H 0.8658 0.8084 0.2596
C43 C 0.59202(15) 0.3864(5) 0.15405(11)
C44 C 0.55831(19) 0.2460(6) 0.10612(15)
H38 H 0.5834 0.1071 0.0972
C45 C 0.4883(2) 0.3110(7) 0.07183(17)
H39 H 0.4663 0.2168 0.0393
C46 C 0.4510(2) 0.5102(7) 0.08486(16)
H40 H 0.4030 0.5527 0.0618
C47 C 0.4836(2) 0.6498(6) 0.13194(15)
H41 H 0.4576 0.7875 0.1409
C48 C 0.55430(18) 0.5890(6) 0.16623(13)
H42 H 0.5765 0.6863 0.1979
loop_
_geom_bond_atom_site_label_1
_geom_bond_atom_site_label_2
_geom_bond_site_symmetry_1
_geom_bond_site_symmetry_2
Br1 C16 1_555 1_555
O1 C1 1_555 1_555
O2 C5 1_555 1_555
C1 C2 1_555 1_555
C2 H1 1_555 1_555
C3 C2 1_555 1_555
H2 C3 1_555 1_555
C4 C3 1_555 1_555
H3 C4 1_555 1_555
H4 C4 1_555 1_555
C5 C4 1_555 1_555
C6 C2 1_555 1_555
H5 C6 1_555 1_555
H6 C6 1_555 1_555
H7 C6 1_555 1_555
C7 C1 1_555 1_555
C8 C7 1_555 1_555
H8 C8 1_555 1_555
C9 C8 1_555 1_555
H9 C9 1_555 1_555
C10 C9 1_555 1_555
H10 C10 1_555 1_555
C11 C10 1_555 1_555
H11 C11 1_555 1_555
C12 C7 1_555 1_555
H12 C12 1_555 1_555
C13 C3 1_555 1_555
C14 C13 1_555 1_555
H13 C14 1_555 1_555
C15 C14 1_555 1_555
H14 C15 1_555 1_555
C16 C15 1_555 1_555
C17 C16 1_555 1_555
H15 C17 1_555 1_555
C18 C13 1_555 1_555
H16 C18 1_555 1_555
C19 C5 1_555 1_555
C20 C19 1_555 1_555
H17 C20 1_555 1_555
C21 C20 1_555 1_555
H18 C21 1_555 1_555
C22 C21 1_555 1_555
H19 C22 1_555 1_555
C23 C22 1_555 1_555
H20 C23 1_555 1_555
C24 C19 1_555 1_555
H21 C24 1_555 1_555
Br2 C40 1_555 1_555
O3 C25 1_555 1_555
O4 C29 1_555 1_555
C25 C26 1_555 1_555
C26 H22 1_555 1_555
C27 C26 1_555 1_555
H23 C27 1_555 1_555
C28 C27 1_555 1_555
H24 C28 1_555 1_555
H25 C28 1_555 1_555
C29 C28 1_555 1_555
C30 C26 1_555 1_555
H26 C30 1_555 1_555
H27 C30 1_555 1_555
H28 C30 1_555 1_555
C31 C25 1_555 1_555
C32 C31 1_555 1_555
H29 C32 1_555 1_555
C33 C32 1_555 1_555
H30 C33 1_555 1_555
C34 C33 1_555 1_555
H31 C34 1_555 1_555
C35 C34 1_555 1_555
H32 C35 1_555 1_555
C36 C31 1_555 1_555
H33 C36 1_555 1_555
C37 C27 1_555 1_555
C38 C37 1_555 1_555
H34 C38 1_555 1_555
C39 C38 1_555 1_555
H35 C39 1_555 1_555
C40 C39 1_555 1_555
C41 C40 1_555 1_555
H36 C41 1_555 1_555
C42 C37 1_555 1_555
H37 C42 1_555 1_555
C43 C29 1_555 1_555
C44 C43 1_555 1_555
H38 C44 1_555 1_555
C45 C44 1_555 1_555
H39 C45 1_555 1_555
C46 C45 1_555 1_555
H40 C46 1_555 1_555
C47 C46 1_555 1_555
H41 C47 1_555 1_555
C48 C43 1_555 1_555
H42 C48 1_555 1_555
C11 C12 1_555 1_555
C17 C18 1_555 1_555
C23 C24 1_555 1_555
C35 C36 1_555 1_555
C41 C42 1_555 1_555
C47 C48 1_555 1_555

#END
