
#######################################################################
#
#                 Cambridge Crystallographic Data Centre
#                                CCDC 
#
#######################################################################
#
# If this CIF has been generated from an entry in the Cambridge 
# Structural Database, then it will include bibliographic, chemical, 
# crystal, experimental, refinement or atomic coordinate data resulting 
# from the CCDC's data processing and validation procedures.
#
#######################################################################

data_QIRFAY
_chemical_formula_moiety         'C22 H33 N4 O2 1+,Br1 1-,H2 O1'
_chemical_name_systematic        
'15-(2-Ammonioethyl)-1,12,15-triaza-3,4:9,10-dibenzo-5,8-dioxacycloheptadecane bromide monohydrate'
_symmetry_cell_setting           monoclinic
_symmetry_space_group_name_H-M   'P 21/n'
_symmetry_Int_Tables_number      14
_space_group_name_Hall           '-P 2yn'
loop_
_symmetry_equiv_pos_site_id
_symmetry_equiv_pos_as_xyz
1 x,y,z
2 1/2+x,1/2-y,1/2+z
3 -x,-y,-z
4 1/2-x,1/2+y,1/2-z
_cell_length_a                   11.5815(2)
_cell_length_b                   10.6063(2)
_cell_length_c                   19.46010(10)
_cell_angle_alpha                90
_cell_angle_beta                 104.1420(10)
_cell_angle_gamma                90
_cell_volume                     2317.97
_exptl_crystal_colour            yellow
_exptl_crystal_description       plate
_cell_formula_units_Z            4
loop_
_atom_site_label
_atom_site_type_symbol
_atom_site_fract_x
_atom_site_fract_y
_atom_site_fract_z
O1 O 0.27923(14) 0.6523(2) 0.13093(9)
O2 O 0.3469(2) 0.4706(2) 0.03592(9)
N1 N 0.0053(2) 0.6735(2) 0.07921(10)
H1 H 0.0104(2) 0.5996(2) 0.06201(10)
N2 N 0.1624(2) 0.5295(2) -0.09594(10)
H2 H 0.1439(2) 0.5195(2) -0.05609(10)
N3 N 0.0091(2) 0.7252(2) -0.07156(10)
N4 N 0.2709(2) 0.7690(2) -0.03778(13)
H3 H 0.2498(2) 0.7126(2) -0.07017(13)
H4 H 0.3421(2) 0.7691(2) -0.01119(13)
C1 C 0.1569(2) 0.8037(2) 0.16580(11)
C2 C 0.1406(2) 0.9247(2) 0.18855(13)
H5 H 0.0680(2) 0.9461(2) 0.19783(13)
C3 C 0.2302(3) 1.0148(3) 0.19782(14)
H6 H 0.2173(3) 1.0955(3) 0.21305(14)
C4 C 0.3376(2) 0.9843(3) 0.18444(14)
H7 H 0.3968(2) 1.0452(3) 0.18954(14)
C5 C 0.3586(2) 0.8632(3) 0.16331(13)
H8 H 0.4324(2) 0.8422(3) 0.15559(13)
C6 C 0.2683(2) 0.7733(2) 0.15378(11)
C7 C 0.3977(2) 0.6081(3) 0.13460(14)
H9 H 0.4460(2) 0.6152(3) 0.18276(14)
H10 H 0.4340(2) 0.6588(3) 0.10408(14)
C8 C 0.3914(2) 0.4742(3) 0.11150(13)
H11 H 0.4699(2) 0.4362(3) 0.12489(13)
H12 H 0.3389(2) 0.4273(3) 0.13408(13)
C9 C 0.3570(2) 0.3585(2) 0.00263(13)
C10 C 0.4000(2) 0.2481(3) 0.03809(14)
H13 H 0.4250(2) 0.2473(3) 0.08728(14)
C11 C 0.4055(2) 0.1392(3) -0.0001(2)
H14 H 0.4337(2) 0.0652(3) 0.0238(2)
C12 C 0.3700(2) 0.1389(3) -0.0731(2)
H15 H 0.3750(2) 0.0656(3) -0.0984(2)
C13 C 0.3267(2) 0.2493(2) -0.10817(14)
H16 H 0.3022(2) 0.2489(2) -0.15738(14)
C14 C 0.3188(2) 0.3605(2) -0.07168(12)
C15 C 0.2737(2) 0.4774(2) -0.11197(13)
H17 H 0.2579(2) 0.4593(2) -0.16228(13)
H18 H 0.3354(2) 0.5413(2) -0.10119(13)
C16 C 0.0879(2) 0.6002(2) -0.15678(12)
H19 H 0.0642(2) 0.5447(2) -0.19740(12)
H20 H 0.1338(2) 0.6690(2) -0.16954(12)
C17 C -0.0223(2) 0.6522(2) -0.13720(13)
H21 H -0.0658(2) 0.7056(2) -0.17529(13)
H22 H -0.0739(2) 0.5830(2) -0.13157(13)
C18 C 0.0663(2) 0.8464(2) -0.08038(14)
H23 H 0.0138(2) 0.9147(2) -0.07458(14)
H24 H 0.0773(2) 0.8512(2) -0.12816(14)
C19 C 0.1861(2) 0.8642(3) -0.02798(15)
H25 H 0.2170(2) 0.9473(3) -0.03432(15)
H26 H 0.1759(2) 0.8591(3) 0.01995(15)
C20 C -0.0935(2) 0.7420(2) -0.04069(12)
H27 H -0.1386(2) 0.6640(2) -0.04559(12)
H28 H -0.1450(2) 0.8069(2) -0.06687(12)
C21 C -0.0575(2) 0.7784(2) 0.03679(13)
H29 H -0.0060(2) 0.8518(2) 0.04273(13)
H30 H -0.1277(2) 0.8001(2) 0.05303(13)
C22 C 0.0586(2) 0.7058(2) 0.15383(12)
H31 H 0.0905(2) 0.6294(2) 0.17881(12)
H32 H -0.0039(2) 0.7364(2) 0.17479(12)
Br1 Br 0.14229(3) 1.32367(3) -0.299057(15)
O3 O 0.1201(2) 1.0234(3) -0.23414(15)
H33 H 0.1974 0.9786 -0.2183
H34 H 0.1733 1.1015 -0.2409
loop_
_geom_bond_atom_site_label_1
_geom_bond_atom_site_label_2
_geom_bond_site_symmetry_1
_geom_bond_site_symmetry_2
O1 C6 1_555 1_555
O2 C8 1_555 1_555
N1 H1 1_555 1_555
N2 H2 1_555 1_555
N3 C17 1_555 1_555
N4 H3 1_555 1_555
H4 N4 1_555 1_555
C1 C2 1_555 1_555
C2 H5 1_555 1_555
C3 C2 1_555 1_555
H6 C3 1_555 1_555
C4 C3 1_555 1_555
H7 C4 1_555 1_555
C5 C4 1_555 1_555
H8 C5 1_555 1_555
C6 C1 1_555 1_555
C7 O1 1_555 1_555
H9 C7 1_555 1_555
H10 C7 1_555 1_555
C8 C7 1_555 1_555
H11 C8 1_555 1_555
H12 C8 1_555 1_555
C9 O2 1_555 1_555
C10 C9 1_555 1_555
H13 C10 1_555 1_555
C11 C10 1_555 1_555
H14 C11 1_555 1_555
C12 C11 1_555 1_555
H15 C12 1_555 1_555
C13 C12 1_555 1_555
H16 C13 1_555 1_555
C14 C9 1_555 1_555
C15 N2 1_555 1_555
H17 C15 1_555 1_555
H18 C15 1_555 1_555
C16 N2 1_555 1_555
H19 C16 1_555 1_555
H20 C16 1_555 1_555
C17 C16 1_555 1_555
H21 C17 1_555 1_555
H22 C17 1_555 1_555
C18 N3 1_555 1_555
H23 C18 1_555 1_555
H24 C18 1_555 1_555
C19 N4 1_555 1_555
H25 C19 1_555 1_555
H26 C19 1_555 1_555
C20 N3 1_555 1_555
H27 C20 1_555 1_555
H28 C20 1_555 1_555
C21 N1 1_555 1_555
H29 C21 1_555 1_555
H30 C21 1_555 1_555
C22 N1 1_555 1_555
H31 C22 1_555 1_555
H32 C22 1_555 1_555
O3 H33 1_555 1_555
H34 O3 1_555 1_555
C1 C22 1_555 1_555
C5 C6 1_555 1_555
C13 C14 1_555 1_555
C14 C15 1_555 1_555
C18 C19 1_555 1_555
C20 C21 1_555 1_555

#END
