
#######################################################################
#
#                 Cambridge Crystallographic Data Centre
#                                CCDC 
#
#######################################################################
#
# If this CIF has been generated from an entry in the Cambridge 
# Structural Database, then it will include bibliographic, chemical, 
# crystal, experimental, refinement or atomic coordinate data resulting 
# from the CCDC's data processing and validation procedures.
#
#######################################################################

data_QIRFEC
_chemical_formula_moiety         'C21 H27 N2 O4 1+,C1 N1 S1 1-,C1 H4 O1,H2 O1'
_chemical_name_systematic        
'(N-Carboxymethyl-1,12-diaza-3,4:9,10-dibenzo-5,8-dioxacyclopentadecane) thiocyanate methanol solvate monohydrate'
_symmetry_cell_setting           triclinic
_symmetry_space_group_name_H-M   'P -1'
_symmetry_Int_Tables_number      2
_space_group_name_Hall           '-P 1'
loop_
_symmetry_equiv_pos_site_id
_symmetry_equiv_pos_as_xyz
1 x,y,z
2 -x,-y,-z
_cell_length_a                   8.60830(10)
_cell_length_b                   11.9827(3)
_cell_length_c                   12.8734(3)
_cell_angle_alpha                100.621(2)
_cell_angle_beta                 92.360(2)
_cell_angle_gamma                109.520(2)
_cell_volume                     1222.54
_exptl_crystal_colour            yellow
_cell_formula_units_Z            2
loop_
_atom_site_label
_atom_site_type_symbol
_atom_site_fract_x
_atom_site_fract_y
_atom_site_fract_z
N1 N 0.2081(4) 0.6712(3) -0.1913(3)
N2 N -0.2435(4) 0.6029(3) -0.3790(3)
H1 H -0.3068(4) 0.5309(3) -0.4098(3)
O1 O 0.0920(4) 0.9151(3) -0.3427(3)
O2 O 0.3439(3) 0.9265(3) -0.1878(2)
O3 O 0.4037(4) 0.5376(3) -0.3963(3)
O4 O 0.2813(5) 0.6758(4) -0.3823(3)
C1 C -0.3644(7) 0.9012(6) -0.4695(5)
H2 H -0.4679(7) 0.8961(6) -0.4984(5)
C2 C -0.2525(8) 1.0097(6) -0.4208(5)
H3 H -0.2799(8) 1.0790(6) -0.4171(5)
C3 C -0.0971(7) 1.0199(5) -0.3762(4)
H4 H -0.0207(7) 1.0950(5) -0.3430(4)
C4 C -0.0589(5) 0.9150(4) -0.3824(3)
C5 C -0.1719(5) 0.8022(4) -0.4321(3)
C6 C -0.3250(7) 0.7988(6) -0.4762(4)
H5 H -0.4022(7) 0.7248(6) -0.5111(4)
C7 C 0.2083(6) 1.0265(4) -0.2836(4)
H6 H 0.1651(6) 1.0522(4) -0.2186(4)
H7 H 0.2257(6) 1.0886(4) -0.3251(4)
C8 C 0.3679(6) 1.0106(5) -0.2574(4)
H8 H 0.4080(6) 0.9802(5) -0.3221(4)
H9 H 0.4500(6) 1.0880(5) -0.2229(4)
C9 C 0.4829(5) 0.9171(4) -0.1392(3)
C10 C 0.6452(6) 0.9883(5) -0.1460(4)
H10 H 0.6675(6) 1.0470(5) -0.1871(4)
C11 C 0.7721(6) 0.9707(5) -0.0911(5)
H11 H 0.8809(6) 1.0184(5) -0.0953(5)
C12 C 0.7431(6) 0.8854(5) -0.0307(4)
H12 H 0.8313(6) 0.8775(5) 0.0077(4)
C13 C 0.5821(6) 0.8102(5) -0.0261(4)
H13 H 0.5621(6) 0.7497(5) 0.0129(4)
C14 C 0.4505(5) 0.8265(4) -0.0807(3)
C15 C 0.2749(5) 0.7443(4) -0.0806(3)
H14 H 0.2068(5) 0.7921(4) -0.0565(3)
H15 H 0.2717(5) 0.6905(4) -0.0322(3)
C16 C 0.2969(6) 0.5880(4) -0.2343(4)
H16 H 0.2291(6) 0.5050(4) -0.2346(4)
H17 H 0.4000(6) 0.6077(4) -0.1897(4)
C17 C 0.3328(5) 0.6016(5) -0.3474(4)
C18 C 0.0226(5) 0.6080(4) -0.2063(4)
H18 H -0.0108(5) 0.5633(4) -0.1505(4)
H19 H -0.0100(5) 0.5510(4) -0.2742(4)
C19 C -0.0635(5) 0.7016(4) -0.2028(4)
H20 H -0.0702(5) 0.7348(4) -0.1292(4)
H21 H 0.0035(5) 0.7675(4) -0.2335(4)
C20 C -0.2370(5) 0.6495(5) -0.2622(4)
H22 H -0.3036(5) 0.5838(5) -0.2311(4)
H23 H -0.2868(5) 0.7118(5) -0.2519(4)
C21 C -0.1343(5) 0.6878(4) -0.4396(4)
H24 H -0.1483(5) 0.6475(4) -0.5138(4)
H25 H -0.0194(5) 0.7079(4) -0.4123(4)
O5 O 0.1785(6) 0.6109(4) -0.5900(3)
O6 O 1.2969(12) 0.7141(6) 0.2400(6)
S1 S 0.9358(5) 0.6990(3) 0.1203(3)
N3 N 0.7022(21) 0.5080(11) -0.0305(12)
C22 C 0.8063(30) 0.5862(15) 0.0333(15)
O7 O 1.5709(29) 0.6536(21) 0.2453(19)
C23 C 1.4388(50) 0.6142(35) 0.1610(31)
loop_
_geom_bond_atom_site_label_1
_geom_bond_atom_site_label_2
_geom_bond_site_symmetry_1
_geom_bond_site_symmetry_2
N1 C15 1_555 1_555
N2 H1 1_555 1_555
O1 C4 1_555 1_555
O2 C8 1_555 1_555
O3 C17 1_555 1_555
O4 C17 1_555 1_555
C1 H2 1_555 1_555
C2 C1 1_555 1_555
H3 C2 1_555 1_555
C3 C2 1_555 1_555
H4 C3 1_555 1_555
C4 C3 1_555 1_555
C5 C4 1_555 1_555
C6 C1 1_555 1_555
H5 C6 1_555 1_555
C7 O1 1_555 1_555
H6 C7 1_555 1_555
H7 C7 1_555 1_555
C8 C7 1_555 1_555
H8 C8 1_555 1_555
H9 C8 1_555 1_555
C9 O2 1_555 1_555
C10 C9 1_555 1_555
H10 C10 1_555 1_555
C11 C10 1_555 1_555
H11 C11 1_555 1_555
C12 C11 1_555 1_555
H12 C12 1_555 1_555
C13 C12 1_555 1_555
H13 C13 1_555 1_555
C14 C9 1_555 1_555
C15 C14 1_555 1_555
H14 C15 1_555 1_555
H15 C15 1_555 1_555
C16 N1 1_555 1_555
H16 C16 1_555 1_555
H17 C16 1_555 1_555
C17 C16 1_555 1_555
C18 N1 1_555 1_555
H18 C18 1_555 1_555
H19 C18 1_555 1_555
C19 C18 1_555 1_555
H20 C19 1_555 1_555
H21 C19 1_555 1_555
C20 N2 1_555 1_555
H22 C20 1_555 1_555
H23 C20 1_555 1_555
C21 N2 1_555 1_555
H24 C21 1_555 1_555
H25 C21 1_555 1_555
S1 C22 1_555 1_555
N3 C22 1_555 1_555
O7 C23 1_555 1_555
C5 C6 1_555 1_555
C5 C21 1_555 1_555
C13 C14 1_555 1_555
C19 C20 1_555 1_555

#END
