
#######################################################################
#
#                 Cambridge Crystallographic Data Centre
#                                CCDC 
#
#######################################################################
#
# If this CIF has been generated from an entry in the Cambridge 
# Structural Database, then it will include bibliographic, chemical, 
# crystal, experimental, refinement or atomic coordinate data resulting 
# from the CCDC's data processing and validation procedures.
#
#######################################################################

data_QIRGAB
_chemical_formula_moiety         'C33 H28 N2 O3 Se1'
_chemical_name_systematic        
'9H-Fluoren-9-ylmethyl 8-acetyl-3a-(phenylselanyl)-3,3a,8,8a-tetrahydropyrrolo[2,3-b]indole-1(2H)-carboxylate'
_symmetry_cell_setting           orthorhombic
_symmetry_space_group_name_H-M   'P 21 21 21'
_symmetry_Int_Tables_number      19
_space_group_name_Hall           'P 2ac 2ab'
loop_
_symmetry_equiv_pos_site_id
_symmetry_equiv_pos_as_xyz
1 x,y,z
2 1/2-x,-y,1/2+z
3 1/2+x,1/2-y,-z
4 -x,1/2+y,1/2-z
_cell_length_a                   9.3282(3)
_cell_length_b                   16.0584(6)
_cell_length_c                   18.4981(6)
_cell_angle_alpha                90
_cell_angle_beta                 90
_cell_angle_gamma                90
_cell_volume                     2770.94
_cell_formula_units_Z            4
loop_
_atom_site_label
_atom_site_type_symbol
_atom_site_fract_x
_atom_site_fract_y
_atom_site_fract_z
Se1 Se 0.80005(4) 0.20968(3) 0.403828(19)
O1 O 0.9732(2) 0.25680(15) 0.07849(11)
N1 N 0.8886(3) 0.37685(18) 0.27894(14)
O2 O 0.8276(3) 0.35884(18) 0.12036(12)
N2 N 0.9206(3) 0.26042(17) 0.19548(14)
O3 O 0.8530(3) 0.51469(19) 0.2848(2)
C1 C 0.9256(4) 0.1656(3) -0.0635(2)
C2 C 1.0174(3) 0.3748(2) 0.31895(17)
C3 C 0.9412(4) 0.2440(3) -0.16878(19)
C4 C 0.9004(3) 0.2979(3) 0.13138(17)
C5 C 1.1630(3) 0.2760(3) 0.38362(17)
H1 H 1.1801 0.2222 0.4001
C6 C 1.0270(4) 0.2369(2) -0.04792(18)
H2 H 1.1218 0.2157 -0.0343
C7 C 1.1115(4) 0.4392(3) 0.3347(2)
H3 H 1.0946 0.4932 0.3188
C8 C 1.1121(4) 0.3506(3) -0.1398(2)
H4 H 1.1741 0.3755 -0.1070
C9 C 1.0346(3) 0.2818(3) -0.12001(17)
C10 C 0.8054(5) 0.4473(3) 0.2691(2)
C11 C 1.0432(3) 0.2939(3) 0.34250(16)
C12 C 0.9717(4) 0.2975(3) 0.00906(16)
H5 H 1.0321 0.3467 0.0104
H6 H 0.8749 0.3147 -0.0028
C13 C 0.9664(4) 0.1584(2) 0.28282(18)
H7 H 0.8870 0.1195 0.2811
H8 H 1.0467 0.1323 0.3073
C14 C 0.8497(3) 0.2922(2) 0.26114(16)
H9 H 0.7457 0.2840 0.2599
C15 C 1.2576(4) 0.3403(3) 0.3999(2)
H10 H 1.3386 0.3295 0.4276
C16 C 1.0086(4) 0.1867(2) 0.20704(18)
H11 H 1.1098 0.2002 0.2046
H12 H 0.9873 0.1440 0.1715
C17 C 1.2325(4) 0.4193(3) 0.3753(2)
H13 H 1.2982 0.4611 0.3861
C18 C 0.8734(4) 0.1731(3) -0.1336(2)
C19 C 0.9301(5) 0.2760(3) -0.2387(2)
H14 H 0.8705 0.2506 -0.2724
C20 C 0.7841(4) 0.3164(2) 0.44963(18)
C21 C 0.9232(4) 0.2383(2) 0.32028(17)
C22 C 0.8887(4) 0.3441(3) 0.4975(2)
H15 H 0.9704 0.3123 0.5058
C23 C 0.8835(5) 0.1003(3) -0.0202(2)
H16 H 0.9199 0.0944 0.0263
C24 C 0.8703(6) 0.4187(4) 0.5323(2)
H17 H 0.9395 0.4375 0.5646
C25 C 1.0089(5) 0.3462(3) -0.2575(2)
H18 H 1.0007 0.3683 -0.3038
C26 C 0.6560(4) 0.4372(3) 0.2421(2)
H19 H 0.6564 0.4031 0.1994
H20 H 0.6167 0.4909 0.2307
H21 H 0.5985 0.4111 0.2787
C27 C 1.0982(5) 0.3829(3) -0.2087(2)
H22 H 1.1500 0.4300 -0.2218
C28 C 0.7330(5) 0.0513(3) -0.1165(3)
H23 H 0.6679 0.0123 -0.1341
C29 C 0.7853(6) 0.0434(3) -0.0477(3)
H24 H 0.7547 -0.0006 -0.0189
C30 C 0.7758(5) 0.1161(3) -0.1599(3)
H25 H 0.7394 0.1215 -0.2064
C31 C 0.6653(4) 0.3635(3) 0.4371(3)
H26 H 0.5954 0.3450 0.4051
C32 C 0.6490(6) 0.4389(4) 0.4721(4)
H27 H 0.5685 0.4714 0.4630
C33 C 0.7498(8) 0.4657(4) 0.5195(3)
H28 H 0.7373 0.5161 0.5435
loop_
_geom_bond_atom_site_label_1
_geom_bond_atom_site_label_2
_geom_bond_site_symmetry_1
_geom_bond_site_symmetry_2
Se1 C20 1_555 1_555
O1 C4 1_555 1_555
N1 C2 1_555 1_555
O2 C4 1_555 1_555
N2 C4 1_555 1_555
O3 C10 1_555 1_555
C1 C6 1_555 1_555
C2 C7 1_555 1_555
C3 C9 1_555 1_555
C5 H1 1_555 1_555
C6 H2 1_555 1_555
C7 H3 1_555 1_555
C8 H4 1_555 1_555
C9 C6 1_555 1_555
C10 N1 1_555 1_555
C11 C2 1_555 1_555
C12 O1 1_555 1_555
H5 C12 1_555 1_555
H6 C12 1_555 1_555
C13 H7 1_555 1_555
H8 C13 1_555 1_555
C14 N1 1_555 1_555
H9 C14 1_555 1_555
C15 C5 1_555 1_555
H10 C15 1_555 1_555
C16 N2 1_555 1_555
H11 C16 1_555 1_555
H12 C16 1_555 1_555
C17 C7 1_555 1_555
H13 C17 1_555 1_555
C18 C1 1_555 1_555
C19 C3 1_555 1_555
H14 C19 1_555 1_555
C20 C22 1_555 1_555
C21 Se1 1_555 1_555
C22 H15 1_555 1_555
C23 C1 1_555 1_555
H16 C23 1_555 1_555
C24 C22 1_555 1_555
H17 C24 1_555 1_555
C25 C19 1_555 1_555
H18 C25 1_555 1_555
C26 C10 1_555 1_555
H19 C26 1_555 1_555
H20 C26 1_555 1_555
H21 C26 1_555 1_555
C27 C8 1_555 1_555
H22 C27 1_555 1_555
C28 H23 1_555 1_555
C29 C23 1_555 1_555
H24 C29 1_555 1_555
C30 C18 1_555 1_555
H25 C30 1_555 1_555
C31 C20 1_555 1_555
H26 C31 1_555 1_555
C32 C31 1_555 1_555
H27 C32 1_555 1_555
C33 C24 1_555 1_555
H28 C33 1_555 1_555
N2 C14 1_555 1_555
C3 C18 1_555 1_555
C5 C11 1_555 1_555
C6 C12 1_555 1_555
C8 C9 1_555 1_555
C11 C21 1_555 1_555
C13 C16 1_555 1_555
C13 C21 1_555 1_555
C14 C21 1_555 1_555
C15 C17 1_555 1_555
C25 C27 1_555 1_555
C28 C29 1_555 1_555
C28 C30 1_555 1_555
C32 C33 1_555 1_555

#END
