
#######################################################################
#
#                 Cambridge Crystallographic Data Centre
#                                CCDC 
#
#######################################################################
#
# If this CIF has been generated from an entry in the Cambridge 
# Structural Database, then it will include bibliographic, chemical, 
# crystal, experimental, refinement or atomic coordinate data resulting 
# from the CCDC's data processing and validation procedures.
#
#######################################################################

data_QIRGON01
_chemical_formula_moiety         'C17 H19 N3 O2'
_chemical_name_systematic        
'2-((4-(diethylamino)phenyl)diazenyl)benzoic acid'
_symmetry_cell_setting           monoclinic
_symmetry_space_group_name_H-M   'P 21/c'
_symmetry_Int_Tables_number      14
_space_group_name_Hall           '-P 2ybc'
loop_
_symmetry_equiv_pos_site_id
_symmetry_equiv_pos_as_xyz
1 x,y,z
2 -x,1/2+y,1/2-z
3 -x,-y,-z
4 x,1/2-y,1/2+z
_cell_length_a                   10.529(4)
_cell_length_b                   17.052(6)
_cell_length_c                   8.348(3)
_cell_angle_alpha                90
_cell_angle_beta                 92.743(4)
_cell_angle_gamma                90
_cell_volume                     1497.09
_exptl_crystal_colour            red
_exptl_crystal_description       prism
_cell_formula_units_Z            4
loop_
_atom_site_label
_atom_site_type_symbol
_atom_site_fract_x
_atom_site_fract_y
_atom_site_fract_z
C1 C 0.97706(15) 0.12026(9) 0.04232(18)
C2 C 1.02984(16) 0.15811(10) -0.0868(2)
H1 H 1.0954 0.194 -0.068
C3 C 0.98574(16) 0.14298(10) -0.2432(2)
H2 H 1.0204 0.1693 -0.3283
C4 C 0.88972(16) 0.08833(10) -0.27178(19)
H3 H 0.8628 0.0765 -0.3767
C5 C 0.83344(16) 0.05118(10) -0.14577(19)
H4 H 0.7678 0.0155 -0.1661
C6 C 0.87571(15) 0.06756(9) 0.01233(18)
C7 C 1.03395(15) 0.13899(9) 0.20752(19)
C8 C 0.66047(15) -0.03537(9) 0.25103(18)
C9 C 0.73282(16) -0.06448(9) 0.38445(19)
H5 H 0.8199 -0.0552 0.3927
C10 C 0.67681(15) -0.10630(9) 0.50224(19)
H6 H 0.7268 -0.1261 0.5877
C11 C 0.54339(15) -0.11980(9) 0.49585(18)
C12 C 0.47127(15) -0.08922(9) 0.36197(18)
H7 H 0.3836 -0.0962 0.3552
C13 C 0.52925(15) -0.04948(9) 0.24228(19)
H8 H 0.4805 -0.0316 0.1539
C14 C 0.34927(16) -0.16361(10) 0.62505(19)
H9 H 0.3134 -0.1154 0.581
H10 H 0.3305 -0.1656 0.7376
C15 C 0.56155(16) -0.20350(10) 0.73849(19)
H11 H 0.642 -0.2196 0.6971
H12 H 0.5159 -0.2505 0.767
C16 C 0.28525(17) -0.23269(10) 0.5392(2)
H13 H 0.296 -0.2283 0.426
H14 H 0.1962 -0.2327 0.5592
H15 H 0.3231 -0.2807 0.5782
C17 C 0.58737(18) -0.15435(11) 0.8885(2)
H16 H 0.6371 -0.1093 0.8626
H17 H 0.6331 -0.1852 0.9683
H18 H 0.5082 -0.1375 0.9294
N1 N 0.82299(13) 0.03055(8) 0.14651(15)
N2 N 0.70970(12) 0.00533(8) 0.12289(16)
N3 N 0.48738(13) -0.16166(8) 0.61200(16)
O1 O 0.98847(13) 0.10111(8) 0.33229(14)
O2 O 1.11907(12) 0.18605(7) 0.22708(15)
H19 H 0.927(3) 0.0668(16) 0.295(3)
loop_
_geom_bond_atom_site_label_1
_geom_bond_atom_site_label_2
_geom_bond_site_symmetry_1
_geom_bond_site_symmetry_2
C1 C2 1_555 1_555
C2 H1 1_555 1_555
C3 C2 1_555 1_555
H2 C3 1_555 1_555
C4 C3 1_555 1_555
H3 C4 1_555 1_555
C5 C4 1_555 1_555
H4 C5 1_555 1_555
C6 C1 1_555 1_555
C7 C1 1_555 1_555
C8 C9 1_555 1_555
C9 H5 1_555 1_555
C10 C9 1_555 1_555
H6 C10 1_555 1_555
C11 C10 1_555 1_555
C12 C11 1_555 1_555
H7 C12 1_555 1_555
C13 C8 1_555 1_555
H8 C13 1_555 1_555
C14 H9 1_555 1_555
H10 C14 1_555 1_555
C15 H11 1_555 1_555
H12 C15 1_555 1_555
C16 C14 1_555 1_555
H13 C16 1_555 1_555
H14 C16 1_555 1_555
H15 C16 1_555 1_555
C17 C15 1_555 1_555
H16 C17 1_555 1_555
H17 C17 1_555 1_555
H18 C17 1_555 1_555
N1 C6 1_555 1_555
N2 C8 1_555 1_555
N3 C11 1_555 1_555
O1 C7 1_555 1_555
O2 C7 1_555 1_555
H19 O1 1_555 1_555
C5 C6 1_555 1_555
C12 C13 1_555 1_555
C14 N3 1_555 1_555
C15 N3 1_555 1_555
N1 N2 1_555 1_555

#END
