
#######################################################################
#
#                 Cambridge Crystallographic Data Centre
#                                CCDC 
#
#######################################################################
#
# If this CIF has been generated from an entry in the Cambridge 
# Structural Database, then it will include bibliographic, chemical, 
# crystal, experimental, refinement or atomic coordinate data resulting 
# from the CCDC's data processing and validation procedures.
#
#######################################################################

data_QIRJUZ
_chemical_formula_moiety         'C18 H14 O3'
_chemical_name_systematic        
2-(4-hydroxyphenyl)-5-(prop-1-en-1-yl)-1-benzofuran-3-carbaldehyde
_symmetry_cell_setting           monoclinic
_symmetry_space_group_name_H-M   'P 21/n'
_symmetry_Int_Tables_number      14
_space_group_name_Hall           '-P 2yn'
loop_
_symmetry_equiv_pos_site_id
_symmetry_equiv_pos_as_xyz
1 x,y,z
2 1/2-x,1/2+y,1/2-z
3 -x,-y,-z
4 1/2+x,1/2-y,1/2+z
_cell_length_a                   11.115(4)
_cell_length_b                   6.878(3)
_cell_length_c                   18.024(7)
_cell_angle_alpha                90
_cell_angle_beta                 99.964(8)
_cell_angle_gamma                90
_cell_volume                     1357.13
_exptl_crystal_colour            colorless
_exptl_crystal_description       block
_cell_formula_units_Z            4
loop_
_atom_site_label
_atom_site_type_symbol
_atom_site_fract_x
_atom_site_fract_y
_atom_site_fract_z
O1 O 0.64057(15) 0.3006(2) 0.21303(9)
O2 O 0.57456(18) 0.2886(3) 0.45714(10)
O3 O 0.06620(17) 0.3219(3) 0.10210(11)
H1 H 0.0594 0.2713 0.0592
C1 C 0.1855(2) 0.3193(4) 0.13591(14)
C2 C 0.2748(2) 0.2211(4) 0.10617(13)
H2 H 0.2541 0.1538 0.0597
C3 C 0.3935(2) 0.2208(4) 0.14385(13)
H3 H 0.4544 0.1553 0.1223
C4 C 0.4265(2) 0.3147(3) 0.21296(13)
C5 C 0.3341(2) 0.4143(4) 0.24179(13)
H4 H 0.3539 0.4809 0.2885
C6 C 0.2164(2) 0.4172(4) 0.20392(14)
H5 H 0.1556 0.4864 0.2242
C7 C 0.5497(2) 0.3043(3) 0.25449(13)
C8 C 0.5961(2) 0.2961(4) 0.33051(14)
C9 C 0.5270(3) 0.2815(4) 0.39092(14)
H6 H 0.4409 0.2656 0.3787
C10 C 0.7266(2) 0.2877(4) 0.33684(14)
C11 C 0.8253(2) 0.2732(4) 0.39613(15)
H7 H 0.8118 0.2697 0.4467
C12 C 0.9431(2) 0.2641(4) 0.38069(15)
C13 C 0.9606(3) 0.2739(4) 0.30565(16)
H8 H 1.0417 0.2713 0.2957
C14 C 0.8651(2) 0.2874(4) 0.24536(15)
H9 H 0.8782 0.2930 0.1947
C15 C 0.7493(2) 0.2920(4) 0.26365(14)
C16 C 1.0449(3) 0.2451(4) 0.44437(17)
H10 H 1.0227 0.2420 0.4929
C17 C 1.1626(3) 0.2317(4) 0.44294(18)
H11 H 1.1874 0.2348 0.3951
C18 C 1.2598(3) 0.2122(5) 0.5104(2)
H12 H 1.3044 0.0903 0.5073
H13 H 1.2227 0.2113 0.5559
H14 H 1.3165 0.3220 0.5125
loop_
_geom_bond_atom_site_label_1
_geom_bond_atom_site_label_2
_geom_bond_site_symmetry_1
_geom_bond_site_symmetry_2
O1 C7 1_555 1_555
O2 C9 1_555 1_555
O3 H1 1_555 1_555
C1 O3 1_555 1_555
C2 C1 1_555 1_555
H2 C2 1_555 1_555
C3 C2 1_555 1_555
H3 C3 1_555 1_555
C4 C3 1_555 1_555
C5 C4 1_555 1_555
H4 C5 1_555 1_555
C6 C1 1_555 1_555
H5 C6 1_555 1_555
C7 C4 1_555 1_555
C8 C7 1_555 1_555
C9 C8 1_555 1_555
H6 C9 1_555 1_555
C10 C8 1_555 1_555
C11 C10 1_555 1_555
H7 C11 1_555 1_555
C12 C11 1_555 1_555
C13 C12 1_555 1_555
H8 C13 1_555 1_555
C14 C13 1_555 1_555
H9 C14 1_555 1_555
C15 O1 1_555 1_555
C16 C12 1_555 1_555
H10 C16 1_555 1_555
C17 C16 1_555 1_555
H11 C17 1_555 1_555
C18 C17 1_555 1_555
H12 C18 1_555 1_555
H13 C18 1_555 1_555
H14 C18 1_555 1_555
C5 C6 1_555 1_555
C10 C15 1_555 1_555
C14 C15 1_555 1_555

#END
