
#######################################################################
#
#                 Cambridge Crystallographic Data Centre
#                                CCDC 
#
#######################################################################
#
# If this CIF has been generated from an entry in the Cambridge 
# Structural Database, then it will include bibliographic, chemical, 
# crystal, experimental, refinement or atomic coordinate data resulting 
# from the CCDC's data processing and validation procedures.
#
#######################################################################

data_QIRKAG
_chemical_name_common            
2,5-bis(4-(10H-phenothiazin-10-yl)phenyl)-1,3,4-oxadiazole
_chemical_formula_moiety         'C38 H24 N4 O1 S2'
_chemical_name_systematic        
10,10'-[1,3,4-oxadiazole-2,5-diylbis(4,1-phenylene)]bis(10H-phenothiazine)
_symmetry_cell_setting           monoclinic
_symmetry_space_group_name_H-M   'P 21/c'
_symmetry_Int_Tables_number      14
_space_group_name_Hall           '-P 2ybc'
loop_
_symmetry_equiv_pos_site_id
_symmetry_equiv_pos_as_xyz
1 x,y,z
2 -x,1/2+y,1/2-z
3 -x,-y,-z
4 x,1/2-y,1/2+z
_cell_length_a                   10.9621(6)
_cell_length_b                   19.7851(11)
_cell_length_c                   14.1928(9)
_cell_angle_alpha                90
_cell_angle_beta                 100.957(6)
_cell_angle_gamma                90
_cell_volume                     3022.11
_exptl_crystal_colour            yellow
_exptl_crystal_description       block
_cell_formula_units_Z            4
loop_
_atom_site_label
_atom_site_type_symbol
_atom_site_fract_x
_atom_site_fract_y
_atom_site_fract_z
C1 C 0.7162(2) 0.38580(13) 1.42356(19)
C2 C 0.7977(2) 0.40780(13) 1.3659(2)
H1 H 0.767917 0.418188 1.301700
C3 C 0.9240(2) 0.41426(15) 1.4042(2)
H2 H 0.978491 0.428249 1.365307
C4 C 0.9683(3) 0.40004(15) 1.4995(2)
H3 H 1.052236 0.405770 1.525148
C5 C 0.8881(3) 0.37717(14) 1.5574(2)
H4 H 0.918244 0.367301 1.621709
C6 C 0.7630(2) 0.36912(14) 1.5189(2)
C7 C 0.5287(2) 0.38175(13) 1.5449(2)
C8 C 0.4491(3) 0.40110(14) 1.6061(2)
H5 H 0.468951 0.390811 1.671145
C9 C 0.3410(3) 0.43550(14) 1.5698(2)
H6 H 0.287398 0.447925 1.610335
C10 C 0.3120(2) 0.45158(13) 1.4733(2)
H7 H 0.238501 0.474310 1.449022
C11 C 0.3922(2) 0.43393(13) 1.4126(2)
H8 H 0.372812 0.445578 1.348012
C12 C 0.5019(2) 0.39880(13) 1.44781(18)
C13 C 0.5420(2) 0.37780(13) 1.28526(18)
C14 C 0.5317(2) 0.43584(13) 1.22947(18)
H9 H 0.554543 0.477438 1.257930
C15 C 0.4875(2) 0.43197(13) 1.13143(18)
H10 H 0.480551 0.470901 1.094065
C16 C 0.4537(2) 0.36963(12) 1.08915(17)
C17 C 0.4633(2) 0.31145(12) 1.14511(18)
H11 H 0.439913 0.269794 1.117023
C18 C 0.5078(2) 0.31602(13) 1.24291(18)
H12 H 0.514847 0.277173 1.280459
C19 C 0.4109(2) 0.36655(12) 0.98567(18)
C20 C 0.3242(2) 0.32547(12) 0.84963(17)
C21 C 0.2546(2) 0.27805(12) 0.78216(17)
C22 C 0.2052(2) 0.29940(13) 0.68901(18)
H13 H 0.217466 0.343739 0.671176
C23 C 0.1386(2) 0.25585(12) 0.62330(18)
H14 H 0.106363 0.271190 0.561655
C24 C 0.1183(2) 0.18871(12) 0.64760(17)
C25 C 0.1674(2) 0.16756(12) 0.74127(18)
H15 H 0.154608 0.123297 0.759207
C26 C 0.2341(2) 0.21108(12) 0.80731(18)
H16 H 0.265881 0.195913 0.869134
C27 C -0.0329(2) 0.17237(12) 0.49763(18)
C28 C 0.0111(2) 0.19894(13) 0.41983(19)
H17 H 0.095777 0.198084 0.419314
C29 C -0.0702(3) 0.22657(13) 0.3434(2)
H18 H -0.039783 0.245766 0.292625
C30 C -0.1962(3) 0.22585(14) 0.3418(2)
H19 H -0.250781 0.244520 0.290191
C31 C -0.2416(2) 0.19712(14) 0.4177(2)
H20 H -0.326786 0.195591 0.415977
C32 C -0.1604(2) 0.17078(13) 0.49584(18)
C33 C -0.1065(2) 0.06871(13) 0.62035(18)
C34 C -0.1402(3) 0.00601(14) 0.6527(2)
H21 H -0.222158 -0.001967 0.658246
C35 C -0.0530(3) -0.04364(14) 0.6761(2)
H22 H -0.075465 -0.084595 0.700082
C36 C 0.0688(3) -0.03365(14) 0.6644(2)
H23 H 0.127397 -0.067835 0.679979
C37 C 0.1024(3) 0.02801(13) 0.6292(2)
H24 H 0.182730 0.034553 0.618708
C38 C 0.0156(2) 0.07948(13) 0.60999(19)
N1 N 0.58654(18) 0.37879(11) 1.38841(14)
N2 N 0.4197(2) 0.41204(11) 0.92209(15)
N3 N 0.3629(2) 0.38532(11) 0.83247(15)
N4 N 0.05024(18) 0.14469(10) 0.57933(15)
O1 O 0.35213(14) 0.30919(8) 0.94509(11)
S1 S 0.66274(7) 0.33339(4) 1.58931(6)
S2 S -0.21669(6) 0.13454(4) 0.59309(6)
loop_
_geom_bond_atom_site_label_1
_geom_bond_atom_site_label_2
_geom_bond_site_symmetry_1
_geom_bond_site_symmetry_2
C1 C2 1_555 1_555
C2 H1 1_555 1_555
C3 C2 1_555 1_555
H2 C3 1_555 1_555
C4 C3 1_555 1_555
H3 C4 1_555 1_555
C5 C4 1_555 1_555
H4 C5 1_555 1_555
C6 C1 1_555 1_555
C7 C8 1_555 1_555
C8 H5 1_555 1_555
C9 C8 1_555 1_555
H6 C9 1_555 1_555
C10 C9 1_555 1_555
H7 C10 1_555 1_555
C11 C10 1_555 1_555
H8 C11 1_555 1_555
C12 C7 1_555 1_555
C13 C14 1_555 1_555
C14 H9 1_555 1_555
C15 C14 1_555 1_555
H10 C15 1_555 1_555
C16 C15 1_555 1_555
C17 C16 1_555 1_555
H11 C17 1_555 1_555
C18 C13 1_555 1_555
H12 C18 1_555 1_555
C19 C16 1_555 1_555
C20 C21 1_555 1_555
C21 C22 1_555 1_555
C22 H13 1_555 1_555
C23 C22 1_555 1_555
H14 C23 1_555 1_555
C24 C23 1_555 1_555
C25 C24 1_555 1_555
H15 C25 1_555 1_555
C26 C21 1_555 1_555
H16 C26 1_555 1_555
C27 C28 1_555 1_555
C28 H17 1_555 1_555
C29 C28 1_555 1_555
H18 C29 1_555 1_555
C30 C29 1_555 1_555
H19 C30 1_555 1_555
C31 C30 1_555 1_555
H20 C31 1_555 1_555
C32 C27 1_555 1_555
C33 C34 1_555 1_555
C34 H21 1_555 1_555
C35 C34 1_555 1_555
H22 C35 1_555 1_555
C36 C35 1_555 1_555
H23 C36 1_555 1_555
C37 C36 1_555 1_555
H24 C37 1_555 1_555
C38 C33 1_555 1_555
N1 C1 1_555 1_555
N2 C19 1_555 1_555
N3 C20 1_555 1_555
N4 C24 1_555 1_555
O1 C19 1_555 1_555
S1 C6 1_555 1_555
S2 C32 1_555 1_555
C5 C6 1_555 1_555
C7 S1 1_555 1_555
C11 C12 1_555 1_555
C12 N1 1_555 1_555
C13 N1 1_555 1_555
C17 C18 1_555 1_555
C20 O1 1_555 1_555
C25 C26 1_555 1_555
C27 N4 1_555 1_555
C31 C32 1_555 1_555
C33 S2 1_555 1_555
C37 C38 1_555 1_555
C38 N4 1_555 1_555
N2 N3 1_555 1_555

#END
