
#######################################################################
#
#                 Cambridge Crystallographic Data Centre
#                                CCDC 
#
#######################################################################
#
# If this CIF has been generated from an entry in the Cambridge 
# Structural Database, then it will include bibliographic, chemical, 
# crystal, experimental, refinement or atomic coordinate data resulting 
# from the CCDC's data processing and validation procedures.
#
#######################################################################

data_QIRNAJ
_chemical_formula_moiety         'C21 H24 Cl1 N1 O3'
_chemical_name_systematic        
'ethyl 4-(3-chlorophenyl)-2,7,7-trimethyl-5-oxo-1,4,5,6,7,8-hexahydroquinoline-3-carboxylate'
_symmetry_cell_setting           orthorhombic
_symmetry_space_group_name_H-M   'P b c n'
_symmetry_Int_Tables_number      60
_space_group_name_Hall           '-P 2n 2ab'
loop_
_symmetry_equiv_pos_site_id
_symmetry_equiv_pos_as_xyz
1 x,y,z
2 1/2-x,1/2-y,1/2+z
3 -x,y,1/2-z
4 1/2+x,1/2-y,-z
5 -x,-y,-z
6 1/2+x,1/2+y,1/2-z
7 x,-y,1/2+z
8 1/2-x,1/2+y,z
_cell_length_a                   17.215(11)
_cell_length_b                   15.749(11)
_cell_length_c                   14.136(9)
_cell_angle_alpha                90
_cell_angle_beta                 90
_cell_angle_gamma                90
_cell_volume                     3832.54
_exptl_crystal_colour            yellow
_exptl_crystal_description       block
_cell_formula_units_Z            8
loop_
_atom_site_label
_atom_site_type_symbol
_atom_site_fract_x
_atom_site_fract_y
_atom_site_fract_z
N1 N 0.38417(14) 0.07907(15) 0.67038(16)
H1 H 0.382670 0.069075 0.730163
Cl1 Cl 0.07594(6) 0.03553(7) 0.64578(8)
O1 O 0.34465(15) 0.26977(15) 0.42352(19)
O2 O 0.39095(18) 0.32592(16) 0.5537(2)
O3 O 0.38800(14) -0.03147(13) 0.36612(13)
C1 C 0.1287(2) 0.0655(2) 0.5469(3)
C2 C 0.0902(2) 0.0811(2) 0.4651(3)
H2 H 0.036355 0.076576 0.462149
C3 C 0.1322(3) 0.1035(3) 0.3872(3)
H3 H 0.106708 0.113216 0.330203
C4 C 0.2129(2) 0.1120(2) 0.3916(3)
H4 H 0.240465 0.127766 0.337859
C5 C 0.25177(18) 0.09724(17) 0.4751(2)
C6 C 0.20789(17) 0.07292(19) 0.5530(2)
H5 H 0.232581 0.061488 0.610167
C7 C 0.33959(17) 0.10569(18) 0.4830(2)
H6 H 0.360218 0.118024 0.419830
C8 C 0.36302(17) 0.17781(18) 0.5485(2)
C9 C 0.36804(19) 0.2649(2) 0.5126(3)
C10 C 0.3490(3) 0.3533(3) 0.3802(4)
H7 H 0.348447 0.396490 0.429080
H8 H 0.397441 0.358476 0.345519
C11 C 0.2884(3) 0.3660(3) 0.3203(4)
H9 H 0.292420 0.421430 0.292463
H10 H 0.289423 0.323771 0.271296
H11 H 0.240503 0.361728 0.354732
C12 C 0.37905(17) 0.16208(18) 0.6394(2)
C13 C 0.3931(2) 0.2265(2) 0.7154(3)
H12 H 0.397010 0.198357 0.775466
H13 H 0.350662 0.266055 0.716945
H14 H 0.440521 0.256363 0.702563
C14 C 0.39150(15) 0.01270(17) 0.60964(18)
C15 C 0.37588(16) 0.02432(17) 0.51714(18)
C16 C 0.39399(16) -0.04244(18) 0.45158(19)
C17 C 0.42347(18) -0.12548(18) 0.4897(2)
H15 H 0.479701 -0.125556 0.485240
H16 H 0.404362 -0.170761 0.449382
C18 C 0.40105(17) -0.14539(18) 0.5907(2)
C19 C 0.42054(17) -0.06797(18) 0.65033(19)
H17 H 0.398411 -0.075298 0.712900
H18 H 0.476498 -0.064294 0.657312
C20 C 0.3145(2) -0.1664(2) 0.5974(3)
H19 H 0.301358 -0.178886 0.661964
H20 H 0.284591 -0.118732 0.575994
H21 H 0.303248 -0.214905 0.558603
C21 C 0.4485(2) -0.2213(2) 0.6259(3)
H22 H 0.434279 -0.234022 0.690008
H23 H 0.438095 -0.269768 0.586607
H24 H 0.502821 -0.207860 0.623059
loop_
_geom_bond_atom_site_label_1
_geom_bond_atom_site_label_2
_geom_bond_site_symmetry_1
_geom_bond_site_symmetry_2
N1 H1 1_555 1_555
Cl1 C1 1_555 1_555
O1 C9 1_555 1_555
O2 C9 1_555 1_555
O3 C16 1_555 1_555
C1 C2 1_555 1_555
C2 H2 1_555 1_555
C3 C2 1_555 1_555
H3 C3 1_555 1_555
C4 C3 1_555 1_555
H4 C4 1_555 1_555
C5 C4 1_555 1_555
C6 C1 1_555 1_555
H5 C6 1_555 1_555
C7 C5 1_555 1_555
H6 C7 1_555 1_555
C8 C7 1_555 1_555
C9 C8 1_555 1_555
C10 O1 1_555 1_555
H7 C10 1_555 1_555
H8 C10 1_555 1_555
C11 C10 1_555 1_555
H9 C11 1_555 1_555
H10 C11 1_555 1_555
H11 C11 1_555 1_555
C12 N1 1_555 1_555
C13 C12 1_555 1_555
H12 C13 1_555 1_555
H13 C13 1_555 1_555
H14 C13 1_555 1_555
C14 N1 1_555 1_555
C15 C7 1_555 1_555
C16 C15 1_555 1_555
C17 C16 1_555 1_555
H15 C17 1_555 1_555
H16 C17 1_555 1_555
C18 C17 1_555 1_555
C19 C14 1_555 1_555
H17 C19 1_555 1_555
H18 C19 1_555 1_555
C20 C18 1_555 1_555
H19 C20 1_555 1_555
H20 C20 1_555 1_555
H21 C20 1_555 1_555
C21 C18 1_555 1_555
H22 C21 1_555 1_555
H23 C21 1_555 1_555
H24 C21 1_555 1_555
C5 C6 1_555 1_555
C8 C12 1_555 1_555
C14 C15 1_555 1_555
C18 C19 1_555 1_555

#END
