
#######################################################################
#
#                 Cambridge Crystallographic Data Centre
#                                CCDC 
#
#######################################################################
#
# If this CIF has been generated from an entry in the Cambridge 
# Structural Database, then it will include bibliographic, chemical, 
# crystal, experimental, refinement or atomic coordinate data resulting 
# from the CCDC's data processing and validation procedures.
#
#######################################################################

data_QIRNUD
_chemical_formula_moiety         'C12 H5 Cl2 N5 O7'
_chemical_name_systematic        
'2-(4-chloro-2,6-dinitrophenyl)-1-(4-chloro-3-nitrophenyl)diazene 1-oxide'
_symmetry_cell_setting           triclinic
_symmetry_space_group_name_H-M   'P -1'
_symmetry_Int_Tables_number      2
_space_group_name_Hall           '-P 1'
loop_
_symmetry_equiv_pos_site_id
_symmetry_equiv_pos_as_xyz
1 x,y,z
2 -x,-y,-z
_cell_length_a                   8.2425(8)
_cell_length_b                   8.2814(7)
_cell_length_c                   12.4713(12)
_cell_angle_alpha                93.370(4)
_cell_angle_beta                 101.590(4)
_cell_angle_gamma                118.222(3)
_cell_volume                     723.034
_exptl_crystal_colour            colorless
_exptl_crystal_description       sheet
_cell_formula_units_Z            2
loop_
_atom_site_label
_atom_site_type_symbol
_atom_site_fract_x
_atom_site_fract_y
_atom_site_fract_z
C1 C 0.7600(5) 0.7866(4) 0.4462(3)
C2 C 0.8634(5) 0.7049(4) 0.4969(3)
C3 C 0.8398(5) 0.6405(4) 0.5953(3)
H1 H 0.9139 0.5895 0.6306
C4 C 0.7070(5) 0.6520(4) 0.6407(3)
C5 C 0.6029(5) 0.7315(4) 0.5938(3)
H2 H 0.5118 0.7381 0.6273
C6 C 0.6325(5) 0.8017(4) 0.4974(3)
H3 H 0.5646 0.8609 0.4660
C7 C 0.7299(4) 0.2928(4) 1.0799(3)
C8 C 0.7384(4) 0.4634(4) 1.0794(3)
H4 H 0.7338 0.5270 1.1437
C9 C 0.7536(4) 0.5400(4) 0.9837(3)
C10 C 0.7560(4) 0.4492(4) 0.8861(3)
C11 C 0.7494(4) 0.2788(4) 0.8933(3)
C12 C 0.7385(4) 0.2004(4) 0.9877(3)
H5 H 0.7370 0.0851 0.9892
Cl1 Cl 0.79370(13) 0.87469(11) 0.32644(7)
Cl2 Cl 0.70640(13) 0.19242(12) 1.19747(7)
N1 N 0.6725(4) 0.5764(3) 0.7422(2)
N2 N 0.7855(4) 0.5200(4) 0.7871(2)
N3 N 1.0025(4) 0.6857(4) 0.4484(2)
N4 N 0.7751(4) 0.7269(4) 0.9895(2)
N5 N 0.7539(4) 0.1743(4) 0.7954(2)
O1 O 0.5385(3) 0.5729(3) 0.77512(19)
O2 O 0.9566(4) 0.6263(3) 0.34839(19)
O3 O 1.1540(3) 0.7212(3) 0.51273(19)
O4 O 0.6984(4) 0.7694(3) 1.0515(2)
O5 O 0.8703(4) 0.8288(3) 0.93295(19)
O6 O 0.6406(3) 0.1458(3) 0.70681(19)
O7 O 0.8698(4) 0.1203(3) 0.8099(2)
loop_
_geom_bond_atom_site_label_1
_geom_bond_atom_site_label_2
_geom_bond_site_symmetry_1
_geom_bond_site_symmetry_2
C1 C2 1_555 1_555
C2 C3 1_555 1_555
C3 H1 1_555 1_555
C4 C3 1_555 1_555
C5 C4 1_555 1_555
H2 C5 1_555 1_555
C6 C1 1_555 1_555
H3 C6 1_555 1_555
C7 C8 1_555 1_555
C8 H4 1_555 1_555
C9 C8 1_555 1_555
C10 C9 1_555 1_555
C11 C10 1_555 1_555
C12 C7 1_555 1_555
H5 C12 1_555 1_555
Cl1 C1 1_555 1_555
Cl2 C7 1_555 1_555
N1 C4 1_555 1_555
N2 C10 1_555 1_555
N3 C2 1_555 1_555
N4 C9 1_555 1_555
N5 C11 1_555 1_555
O1 N1 1_555 1_555
O2 N3 1_555 1_555
O3 N3 1_555 1_555
O4 N4 1_555 1_555
O5 N4 1_555 1_555
O6 N5 1_555 1_555
O7 N5 1_555 1_555
C5 C6 1_555 1_555
C11 C12 1_555 1_555
N1 N2 1_555 1_555

#END
