
#######################################################################
#
#                 Cambridge Crystallographic Data Centre
#                                CCDC 
#
#######################################################################
#
# If this CIF has been generated from an entry in the Cambridge 
# Structural Database, then it will include bibliographic, chemical, 
# crystal, experimental, refinement or atomic coordinate data resulting 
# from the CCDC's data processing and validation procedures.
#
#######################################################################

data_QIRPOY
_chemical_formula_moiety         'C20 H15 N1'
_chemical_name_systematic        4-Ethynyl-N,N-diphenylaniline
_symmetry_cell_setting           orthorhombic
_symmetry_space_group_name_H-M   'P c a 21'
_symmetry_Int_Tables_number      29
_space_group_name_Hall           'P 2c -2ac'
loop_
_symmetry_equiv_pos_site_id
_symmetry_equiv_pos_as_xyz
1 x,y,z
2 -x,-y,1/2+z
3 1/2-x,y,1/2+z
4 1/2+x,-y,z
_cell_length_a                   9.0532(8)
_cell_length_b                   16.8067(15)
_cell_length_c                   19.2508(18)
_cell_angle_alpha                90
_cell_angle_beta                 90
_cell_angle_gamma                90
_cell_volume                     2929.09
_exptl_crystal_colour            yellow
_exptl_crystal_description       block
_cell_formula_units_Z            8
loop_
_atom_site_label
_atom_site_type_symbol
_atom_site_fract_x
_atom_site_fract_y
_atom_site_fract_z
N1 N 0.97215(10) 0.15515(6) 0.18829(5)
C1 C 1.01994(11) 0.12696(6) 0.25330(6)
C2 C 0.92032(11) 0.11708(6) 0.30842(6)
C3 C 0.96683(12) 0.08555(7) 0.37137(6)
C4 C 1.11491(12) 0.06340(6) 0.38145(6)
C5 C 1.21537(12) 0.07606(7) 0.32717(6)
C6 C 1.16903(11) 0.10742(6) 0.26407(6)
C7 C 1.16134(13) 0.02747(7) 0.44568(6)
C8 C 1.19981(16) -0.00400(9) 0.49830(7)
C9 C 1.07362(11) 0.19681(7) 0.14450(6)
C10 C 1.15056(13) 0.26243(7) 0.16999(6)
C11 C 1.24849(14) 0.30312(7) 0.12685(7)
C12 C 1.26630(12) 0.27978(8) 0.05795(7)
C13 C 1.18980(13) 0.21450(8) 0.03265(7)
C14 C 1.09451(12) 0.17223(7) 0.07592(6)
C15 C 0.82610(11) 0.14234(6) 0.16355(6)
C16 C 0.74983(13) 0.07233(6) 0.17946(6)
C17 C 0.60599(12) 0.06106(7) 0.15513(6)
C18 C 0.53783(12) 0.11803(8) 0.11378(6)
C19 C 0.61546(12) 0.18698(7) 0.09708(7)
C20 C 0.75783(12) 0.19974(6) 0.12192(6)
H1 H 0.81990 0.13210 0.30260
H2 H 0.89770 0.07890 0.40810
H3 H 1.31650 0.06300 0.33360
H4 H 1.23870 0.11570 0.22790
H5 H 1.23040 -0.02900 0.54010
H6 H 1.13630 0.27940 0.21660
H7 H 1.30320 0.34690 0.14450
H8 H 1.33090 0.30860 0.02830
H9 H 1.20230 0.19850 -0.01430
H10 H 1.04390 0.12680 0.05880
H11 H 0.79590 0.03240 0.20680
H12 H 0.55410 0.01380 0.16700
H13 H 0.44010 0.11010 0.09720
H14 H 0.57040 0.22590 0.06830
H15 H 0.80870 0.24750 0.11060
N2 N 0.82287(10) 0.34489(6) 0.44105(5)
C21 C 0.76463(12) 0.37345(6) 0.50402(6)
C22 C 0.61135(12) 0.38236(7) 0.51185(6)
C23 C 0.55195(12) 0.40957(7) 0.57389(6)
C24 C 0.64336(13) 0.42858(7) 0.63045(6)
C25 C 0.79684(13) 0.42029(7) 0.62215(6)
C26 C 0.85630(12) 0.39351(7) 0.56026(6)
C27 C 0.58063(15) 0.45285(8) 0.69544(7)
C28 C 0.52423(19) 0.47117(11) 0.74931(8)
C29 C 0.97123(11) 0.35937(6) 0.41982(6)
C30 C 1.03888(11) 0.43314(7) 0.43085(6)
C31 C 1.18418(12) 0.44555(7) 0.40952(7)
C32 C 1.26298(13) 0.38519(8) 0.37653(7)
C33 C 1.19565(13) 0.31226(8) 0.36518(7)
C34 C 1.05057(13) 0.29914(7) 0.38670(7)
C35 C 0.73086(11) 0.29881(7) 0.39602(6)
C36 C 0.66127(13) 0.23020(7) 0.42044(6)
C37 C 0.56952(13) 0.18673(7) 0.37672(7)
C38 C 0.54757(13) 0.21097(8) 0.30816(7)
C39 C 0.61849(13) 0.27850(8) 0.28360(7)
C40 C 0.70958(13) 0.32294(7) 0.32706(7)
H16 H 0.54760 0.36960 0.47430
H17 H 0.44800 0.41540 0.57820
H18 H 0.86070 0.43330 0.65960
H19 H 0.96040 0.38860 0.55570
H20 H 0.47940 0.48570 0.79210
H21 H 0.98570 0.47480 0.45290
H22 H 1.22990 0.49560 0.41750
H23 H 1.36190 0.39390 0.36200
H24 H 1.24870 0.27090 0.34260
H25 H 1.00550 0.24890 0.37880
H26 H 0.67660 0.21320 0.46690
H27 H 0.52150 0.14030 0.39360
H28 H 0.48430 0.18140 0.27840
H29 H 0.60480 0.29460 0.23670
H30 H 0.75710 0.36940 0.31000
loop_
_geom_bond_atom_site_label_1
_geom_bond_atom_site_label_2
_geom_bond_site_symmetry_1
_geom_bond_site_symmetry_2
N1 C1 1_555 1_555
C1 C2 1_555 1_555
C2 C3 1_555 1_555
C3 C4 1_555 1_555
C4 C5 1_555 1_555
C5 C6 1_555 1_555
C6 C1 1_555 1_555
C7 C4 1_555 1_555
C8 C7 1_555 1_555
C9 N1 1_555 1_555
C10 C9 1_555 1_555
C11 C10 1_555 1_555
C12 C11 1_555 1_555
C13 C12 1_555 1_555
C14 C9 1_555 1_555
C15 N1 1_555 1_555
C16 C15 1_555 1_555
C17 C16 1_555 1_555
C18 C17 1_555 1_555
C19 C18 1_555 1_555
C20 C15 1_555 1_555
H1 C2 1_555 1_555
H2 C3 1_555 1_555
H3 C5 1_555 1_555
H4 C6 1_555 1_555
H5 C8 1_555 1_555
H6 C10 1_555 1_555
H7 C11 1_555 1_555
H8 C12 1_555 1_555
H9 C13 1_555 1_555
H10 C14 1_555 1_555
H11 C16 1_555 1_555
H12 C17 1_555 1_555
H13 C18 1_555 1_555
H14 C19 1_555 1_555
H15 C20 1_555 1_555
N2 C21 1_555 1_555
C21 C22 1_555 1_555
C22 C23 1_555 1_555
C23 C24 1_555 1_555
C24 C25 1_555 1_555
C25 C26 1_555 1_555
C26 C21 1_555 1_555
C27 C24 1_555 1_555
C28 C27 1_555 1_555
C29 N2 1_555 1_555
C30 C29 1_555 1_555
C31 C30 1_555 1_555
C32 C31 1_555 1_555
C33 C32 1_555 1_555
C34 C29 1_555 1_555
C35 N2 1_555 1_555
C36 C35 1_555 1_555
C37 C36 1_555 1_555
C38 C37 1_555 1_555
C39 C38 1_555 1_555
C40 C35 1_555 1_555
H16 C22 1_555 1_555
H17 C23 1_555 1_555
H18 C25 1_555 1_555
H19 C26 1_555 1_555
H20 C28 1_555 1_555
H21 C30 1_555 1_555
H22 C31 1_555 1_555
H23 C32 1_555 1_555
H24 C33 1_555 1_555
H25 C34 1_555 1_555
H26 C36 1_555 1_555
H27 C37 1_555 1_555
H28 C38 1_555 1_555
H29 C39 1_555 1_555
H30 C40 1_555 1_555
C13 C14 1_555 1_555
C19 C20 1_555 1_555
C33 C34 1_555 1_555
C39 C40 1_555 1_555

#END
