
#######################################################################
#
#                 Cambridge Crystallographic Data Centre
#                                CCDC 
#
#######################################################################
#
# If this CIF has been generated from an entry in the Cambridge 
# Structural Database, then it will include bibliographic, chemical, 
# crystal, experimental, refinement or atomic coordinate data resulting 
# from the CCDC's data processing and validation procedures.
#
#######################################################################

data_QIRQEQ
_chemical_formula_moiety         'C17 H13 Br1 N2'
_chemical_name_systematic        2-(4-bromophenyl)-2,3-dihydro-1H-perimidine
_symmetry_cell_setting           orthorhombic
_symmetry_space_group_name_H-M   'P b c a'
_symmetry_Int_Tables_number      61
_space_group_name_Hall           '-P 2ac 2ab'
loop_
_symmetry_equiv_pos_site_id
_symmetry_equiv_pos_as_xyz
1 x,y,z
2 1/2-x,-y,1/2+z
3 1/2+x,1/2-y,-z
4 -x,1/2+y,1/2-z
5 -x,-y,-z
6 1/2+x,y,1/2-z
7 1/2-x,1/2+y,z
8 x,1/2-y,1/2+z
_cell_length_a                   9.995(4)
_cell_length_b                   13.845(5)
_cell_length_c                   20.213(7)
_cell_angle_alpha                90
_cell_angle_beta                 90
_cell_angle_gamma                90
_cell_volume                     2797.09
_exptl_crystal_description       block
_cell_formula_units_Z            8
loop_
_atom_site_label
_atom_site_type_symbol
_atom_site_fract_x
_atom_site_fract_y
_atom_site_fract_z
Br1 Br 0.18042(3) 0.35089(2) 0.33392(2)
C1 C 0.1706(2) 0.44749(18) 0.40048(12)
C2 C 0.3274(3) 0.8936(2) 0.71913(12)
H1 H 0.3371 0.9419 0.7508
C3 C 0.2183(3) 0.89664(18) 0.67493(11)
C4 C 0.3044(2) 0.74847(17) 0.62398(11)
C5 C 0.1555(2) 0.65951(17) 0.55290(12)
H2 H 0.1087 0.6318 0.5911
C6 C 0.1458(3) 0.54151(19) 0.38309(12)
H3 H 0.1326 0.5581 0.3390
C7 C 0.1880(3) 0.42121(18) 0.46551(13)
H4 H 0.2054 0.3573 0.4768
C8 C 0.2059(2) 0.82136(17) 0.62753(11)
C9 C 0.1791(2) 0.49116(18) 0.51340(12)
H5 H 0.1886 0.4737 0.5576
C10 C 0.0979(2) 0.82290(17) 0.58178(12)
N1 N 0.09235(19) 0.74946(14) 0.53505(10)
H6 H 0.0534 0.7572 0.4975
C11 C 0.1564(2) 0.58674(17) 0.49761(12)
C12 C 0.4092(3) 0.74798(19) 0.66788(12)
H7 H 0.4737 0.6997 0.6658
C13 C 0.1405(3) 0.61125(19) 0.43183(12)
H8 H 0.1260 0.6754 0.4203
C14 C 0.0075(3) 0.89749(19) 0.58307(14)
H9 H -0.0631 0.8989 0.5531
C15 C 0.1232(3) 0.97190(19) 0.67458(13)
H10 H 0.1298 1.0219 0.7051
C16 C 0.4185(3) 0.8209(2) 0.71593(13)
H11 H 0.4884 0.8193 0.7462
C17 C 0.0222(3) 0.9715(2) 0.62974(14)
H12 H -0.0393 1.0220 0.6300
N2 N 0.2936(2) 0.68189(15) 0.57191(10)
H13 H 0.3410 0.6309 0.5783
loop_
_geom_bond_atom_site_label_1
_geom_bond_atom_site_label_2
_geom_bond_site_symmetry_1
_geom_bond_site_symmetry_2
Br1 C1 1_555 1_555
C1 C6 1_555 1_555
C2 H1 1_555 1_555
C3 C2 1_555 1_555
C4 C8 1_555 1_555
C5 H2 1_555 1_555
C6 H3 1_555 1_555
C7 C1 1_555 1_555
H4 C7 1_555 1_555
C8 C3 1_555 1_555
C9 C7 1_555 1_555
H5 C9 1_555 1_555
C10 C8 1_555 1_555
N1 C5 1_555 1_555
H6 N1 1_555 1_555
C11 C5 1_555 1_555
C12 C4 1_555 1_555
H7 C12 1_555 1_555
C13 C6 1_555 1_555
H8 C13 1_555 1_555
C14 C10 1_555 1_555
H9 C14 1_555 1_555
C15 C3 1_555 1_555
H10 C15 1_555 1_555
C16 C2 1_555 1_555
H11 C16 1_555 1_555
C17 C14 1_555 1_555
H12 C17 1_555 1_555
N2 C4 1_555 1_555
H13 N2 1_555 1_555
C5 N2 1_555 1_555
C9 C11 1_555 1_555
C10 N1 1_555 1_555
C11 C13 1_555 1_555
C12 C16 1_555 1_555
C15 C17 1_555 1_555

#END
