
#######################################################################
#
#                 Cambridge Crystallographic Data Centre
#                                CCDC 
#
#######################################################################
#
# If this CIF has been generated from an entry in the Cambridge 
# Structural Database, then it will include bibliographic, chemical, 
# crystal, experimental, refinement or atomic coordinate data resulting 
# from the CCDC's data processing and validation procedures.
#
#######################################################################

data_QIRQIU
_chemical_formula_moiety         'C14 H20 O4'
_chemical_name_systematic        
'[5-ethyl-2-(4-methoxyphenyl)-1,3-dioxan-5-yl]methanol'
_symmetry_cell_setting           triclinic
_symmetry_space_group_name_H-M   'P -1'
_symmetry_Int_Tables_number      2
_space_group_name_Hall           '-P 1'
loop_
_symmetry_equiv_pos_site_id
_symmetry_equiv_pos_as_xyz
1 x,y,z
2 -x,-y,-z
_cell_length_a                   6.1028(13)
_cell_length_b                   10.885(2)
_cell_length_c                   20.737(4)
_cell_angle_alpha                100.673(2)
_cell_angle_beta                 92.465(2)
_cell_angle_gamma                98.973(2)
_cell_volume                     1333.47
_exptl_crystal_description       block
_cell_formula_units_Z            4
loop_
_atom_site_label
_atom_site_type_symbol
_atom_site_fract_x
_atom_site_fract_y
_atom_site_fract_z
O1 O 0.44859(17) 0.34516(10) 0.21887(5)
O2 O 0.82794(17) 0.41785(10) 0.22107(5)
O3 O 0.8917(2) 0.09975(11) 0.07063(6)
H1 H 0.8670 0.1112 0.0332
O4 O 0.5588(2) 0.83716(11) 0.43992(6)
C1 C 0.6233(3) 0.51324(15) 0.30519(7)
C2 C 0.6450(3) 0.39293(16) 0.25922(8)
H2 H 0.6744 0.3299 0.2852
C3 C 0.6617(2) 0.23656(14) 0.13540(7)
C4 C 0.4655(3) 0.22577(15) 0.17870(8)
H3 H 0.3289 0.1942 0.1510
H4 H 0.4839 0.1653 0.2066
C5 C 0.4165(3) 0.67435(16) 0.35137(8)
H5 H 0.2868 0.7093 0.3513
C6 C 0.5931(3) 0.73228(15) 0.39629(8)
C7 C 0.4302(3) 0.56577(16) 0.30683(8)
H6 H 0.3088 0.5272 0.2775
C8 C 0.6232(3) 0.31489(15) 0.08293(8)
H7 H 0.5997 0.3980 0.1050
H8 H 0.7578 0.3269 0.0600
C9 C 0.7988(3) 0.57326(17) 0.34948(9)
H9 H 0.9301 0.5398 0.3488
C10 C 0.8667(3) 0.30232(16) 0.18084(8)
H10 H 0.9061 0.2457 0.2088
H11 H 0.9909 0.3208 0.1545
C11 C 0.6938(3) 0.10291(15) 0.10514(8)
H12 H 0.6999 0.0542 0.1397
H13 H 0.5663 0.0627 0.0749
C12 C 0.7862(3) 0.68148(18) 0.39481(9)
H14 H 0.9074 0.7200 0.4242
C13 C 0.4300(3) 0.25958(19) 0.03219(10)
H15 H 0.4576 0.1811 0.0067
H16 H 0.4141 0.3182 0.0036
H17 H 0.2958 0.2443 0.0541
C14 C 0.7448(4) 0.90499(19) 0.48291(10)
H18 H 0.8653 0.9303 0.4573
H19 H 0.7908 0.8515 0.5110
H20 H 0.7035 0.9789 0.5093
O5 O 0.81422(18) -0.08568(11) 0.20359(5)
O6 O 1.1217(2) -0.12335(12) 0.26251(6)
O7 O 1.1052(2) -0.10886(12) 0.06112(6)
H21 H 1.0315 -0.0515 0.0681
O8 O 0.9048(2) 0.36610(14) 0.44044(7)
C15 C 0.7140(4) 0.3921(2) 0.47389(12)
H22 H 0.5942 0.3924 0.4424
H23 H 0.7480 0.4735 0.5027
H24 H 0.6708 0.3280 0.4992
C16 C 1.0409(2) -0.23339(14) 0.14809(8)
C17 C 0.8096(3) -0.19931(16) 0.15622(9)
H25 H 0.7472 -0.1887 0.1142
H26 H 0.7139 -0.2683 0.1699
C18 C 0.9028(3) -0.09792(17) 0.26591(8)
H27 H 0.8091 -0.1669 0.2811
C19 C 0.9009(3) 0.02380(17) 0.31245(8)
C20 C 1.1350(3) -0.23750(17) 0.21695(8)
H28 H 1.0526 -0.3092 0.2320
H29 H 1.2891 -0.2493 0.2153
C21 C 1.1906(3) -0.13095(15) 0.12186(8)
H30 H 1.2104 -0.0525 0.1542
H31 H 1.3357 -0.1556 0.1162
C22 C 0.8904(3) 0.25229(18) 0.39823(9)
C23 C 1.0175(3) -0.36285(16) 0.10254(10)
H32 H 0.9007 -0.4199 0.1174
H33 H 0.9683 -0.3538 0.0588
C24 C 1.0828(3) 0.1214(2) 0.32277(9)
H34 H 1.2101 0.1101 0.3008
C25 C 0.7135(3) 0.04527(18) 0.34414(10)
H35 H 0.5881 -0.0176 0.3365
C26 C 1.0775(3) 0.2342(2) 0.36490(10)
H36 H 1.2004 0.2986 0.3710
C27 C 0.7061(3) 0.15755(19) 0.38699(10)
H37 H 0.5777 0.1694 0.4082
C28 C 1.2224(4) -0.42525(19) 0.09700(12)
H38 H 1.1892 -0.5041 0.0660
H39 H 1.2675 -0.4410 0.1392
H40 H 1.3405 -0.3703 0.0823
loop_
_geom_bond_atom_site_label_1
_geom_bond_atom_site_label_2
_geom_bond_site_symmetry_1
_geom_bond_site_symmetry_2
O1 C2 1_555 1_555
O2 C2 1_555 1_555
O3 H1 1_555 1_555
O4 C6 1_555 1_555
C1 C2 1_555 1_555
C2 H2 1_555 1_555
C3 C4 1_555 1_555
C4 O1 1_555 1_555
H3 C4 1_555 1_555
H4 C4 1_555 1_555
C5 H5 1_555 1_555
C6 C5 1_555 1_555
C7 C1 1_555 1_555
H6 C7 1_555 1_555
C8 C3 1_555 1_555
H7 C8 1_555 1_555
H8 C8 1_555 1_555
C9 C1 1_555 1_555
H9 C9 1_555 1_555
C10 O2 1_555 1_555
H10 C10 1_555 1_555
H11 C10 1_555 1_555
C11 O3 1_555 1_555
H12 C11 1_555 1_555
H13 C11 1_555 1_555
C12 C6 1_555 1_555
H14 C12 1_555 1_555
C13 C8 1_555 1_555
H15 C13 1_555 1_555
H16 C13 1_555 1_555
H17 C13 1_555 1_555
C14 O4 1_555 1_555
H18 C14 1_555 1_555
H19 C14 1_555 1_555
H20 C14 1_555 1_555
O5 C17 1_555 1_555
O6 C18 1_555 1_555
O7 H21 1_555 1_555
O8 C15 1_555 1_555
C15 H22 1_555 1_555
H23 C15 1_555 1_555
H24 C15 1_555 1_555
C16 C17 1_555 1_555
C17 H25 1_555 1_555
H26 C17 1_555 1_555
C18 O5 1_555 1_555
H27 C18 1_555 1_555
C19 C18 1_555 1_555
C20 O6 1_555 1_555
H28 C20 1_555 1_555
H29 C20 1_555 1_555
C21 O7 1_555 1_555
H30 C21 1_555 1_555
H31 C21 1_555 1_555
C22 O8 1_555 1_555
C23 C16 1_555 1_555
H32 C23 1_555 1_555
H33 C23 1_555 1_555
C24 C19 1_555 1_555
H34 C24 1_555 1_555
C25 C19 1_555 1_555
H35 C25 1_555 1_555
C26 C22 1_555 1_555
H36 C26 1_555 1_555
C27 C22 1_555 1_555
H37 C27 1_555 1_555
C28 C23 1_555 1_555
H38 C28 1_555 1_555
H39 C28 1_555 1_555
H40 C28 1_555 1_555
C3 C10 1_555 1_555
C3 C11 1_555 1_555
C5 C7 1_555 1_555
C9 C12 1_555 1_555
C16 C20 1_555 1_555
C16 C21 1_555 1_555
C24 C26 1_555 1_555
C25 C27 1_555 1_555

#END
