
#######################################################################
#
#                 Cambridge Crystallographic Data Centre
#                                CCDC 
#
#######################################################################
#
# If this CIF has been generated from an entry in the Cambridge 
# Structural Database, then it will include bibliographic, chemical, 
# crystal, experimental, refinement or atomic coordinate data resulting 
# from the CCDC's data processing and validation procedures.
#
#######################################################################

data_QIRRIV
_chemical_formula_moiety         'C19 H21 N1 O4'
_chemical_name_systematic        
'methyl 2-methyl-4-(3-methoxyphenyl)-5-oxo-1,4,5,6,7,8-hexahydroquinoline-3-carboxylate'
_symmetry_cell_setting           monoclinic
_symmetry_space_group_name_H-M   'C 2/c'
_symmetry_Int_Tables_number      15
_space_group_name_Hall           '-C 2yn'
loop_
_symmetry_equiv_pos_site_id
_symmetry_equiv_pos_as_xyz
1 x,y,z
2 -x,y,1/2-z
3 1/2+x,1/2+y,z
4 1/2-x,1/2+y,1/2-z
5 -x,-y,-z
6 x,-y,1/2+z
7 1/2-x,1/2-y,-z
8 1/2+x,1/2-y,1/2+z
_cell_length_a                   17.349(5)
_cell_length_b                   7.354(2)
_cell_length_c                   25.757(7)
_cell_angle_alpha                90
_cell_angle_beta                 97.637(5)
_cell_angle_gamma                90
_cell_volume                     3257.05
_exptl_crystal_colour            colorless
_exptl_crystal_description       block
_cell_formula_units_Z            8
loop_
_atom_site_label
_atom_site_type_symbol
_atom_site_fract_x
_atom_site_fract_y
_atom_site_fract_z
N1 N 0.07774(10) 0.7931(2) 0.46712(6)
H1 H 0.087324 0.901129 0.479047
O1 O 0.18249(11) 0.0444(2) 0.29375(6)
O2 O -0.04951(9) 0.4084(2) 0.33962(5)
O3 O -0.06651(11) 0.7004(2) 0.32210(6)
O4 O 0.12282(9) 0.17061(17) 0.48917(5)
C1 C 0.11903(19) -0.0762(3) 0.29398(10)
H2 H 0.126778 -0.180920 0.273022
H3 H 0.115410 -0.113802 0.329272
H4 H 0.071828 -0.015838 0.279813
C2 C 0.18162(14) 0.2019(3) 0.32165(7)
C3 C 0.12708(12) 0.2415(3) 0.35456(7)
H5 H 0.088294 0.157432 0.358683
C4 C 0.12956(12) 0.4049(3) 0.38147(6)
C5 C 0.18748(13) 0.5273(3) 0.37482(8)
H6 H 0.189956 0.637810 0.392508
C6 C 0.24173(14) 0.4869(3) 0.34214(9)
H7 H 0.280625 0.570529 0.337918
C7 C 0.23904(14) 0.3250(4) 0.31578(8)
H8 H 0.276126 0.298677 0.293917
C8 C 0.06953(11) 0.4483(2) 0.41766(6)
H9 H 0.035490 0.342185 0.418314
C9 C 0.01943(12) 0.6091(2) 0.39781(6)
C10 C -0.03583(13) 0.5835(3) 0.35019(8)
C11 C -0.10141(17) 0.3681(4) 0.29265(9)
H10 H -0.107094 0.238777 0.288878
H11 H -0.151279 0.421961 0.294865
H12 H -0.080466 0.416813 0.262898
C12 C 0.02589(11) 0.7715(3) 0.42161(7)
C13 C -0.02040(13) 0.9386(3) 0.40650(8)
H13 H -0.003459 1.035082 0.430427
H14 H -0.013044 0.973916 0.371616
H15 H -0.074494 0.914326 0.407733
C14 C 0.11406(12) 0.6500(2) 0.49364(7)
C15 C 0.10855(11) 0.4815(2) 0.47304(7)
C16 C 0.13686(12) 0.3273(3) 0.50428(7)
C17 C 0.18360(13) 0.3605(3) 0.55689(7)
H16 H 0.225414 0.272197 0.562293
H17 H 0.150472 0.341671 0.583928
C18 C 0.21792(13) 0.5492(3) 0.56270(8)
H18 H 0.239698 0.569231 0.598919
H19 H 0.259648 0.559981 0.541286
C19 C 0.15692(13) 0.6917(3) 0.54631(7)
H20 H 0.120516 0.696713 0.571780
H21 H 0.181601 0.809804 0.545483
loop_
_geom_bond_atom_site_label_1
_geom_bond_atom_site_label_2
_geom_bond_site_symmetry_1
_geom_bond_site_symmetry_2
N1 H1 1_555 1_555
O1 C1 1_555 1_555
O2 C10 1_555 1_555
O3 C10 1_555 1_555
O4 C16 1_555 1_555
C1 H2 1_555 1_555
H3 C1 1_555 1_555
H4 C1 1_555 1_555
C2 O1 1_555 1_555
C3 C2 1_555 1_555
H5 C3 1_555 1_555
C4 C3 1_555 1_555
C5 C4 1_555 1_555
H6 C5 1_555 1_555
C6 C5 1_555 1_555
H7 C6 1_555 1_555
C7 C2 1_555 1_555
H8 C7 1_555 1_555
C8 C4 1_555 1_555
H9 C8 1_555 1_555
C9 C8 1_555 1_555
C10 C9 1_555 1_555
C11 O2 1_555 1_555
H10 C11 1_555 1_555
H11 C11 1_555 1_555
H12 C11 1_555 1_555
C12 N1 1_555 1_555
C13 C12 1_555 1_555
H13 C13 1_555 1_555
H14 C13 1_555 1_555
H15 C13 1_555 1_555
C14 N1 1_555 1_555
C15 C8 1_555 1_555
C16 C15 1_555 1_555
C17 C16 1_555 1_555
H16 C17 1_555 1_555
H17 C17 1_555 1_555
C18 C17 1_555 1_555
H18 C18 1_555 1_555
H19 C18 1_555 1_555
C19 C14 1_555 1_555
H20 C19 1_555 1_555
H21 C19 1_555 1_555
C6 C7 1_555 1_555
C9 C12 1_555 1_555
C14 C15 1_555 1_555
C18 C19 1_555 1_555

#END
