
#######################################################################
#
#                 Cambridge Crystallographic Data Centre
#                                CCDC 
#
#######################################################################
#
# If this CIF has been generated from an entry in the Cambridge 
# Structural Database, then it will include bibliographic, chemical, 
# crystal, experimental, refinement or atomic coordinate data resulting 
# from the CCDC's data processing and validation procedures.
#
#######################################################################

data_QIRSAL
_chemical_formula_moiety         'C21 H25 Cl1 N1 O1 1+,Cl1 1-,C1 H1 Cl3'
_chemical_name_systematic        
"Nor-3-\a-((3'-chlorophenyl)(phenyl)methoxy)tropane hydrochloride chloroform solvate"
_symmetry_cell_setting           monoclinic
_symmetry_space_group_name_H-M   'P 21/n'
_symmetry_Int_Tables_number      14
_space_group_name_Hall           '-P 2yn'
loop_
_symmetry_equiv_pos_site_id
_symmetry_equiv_pos_as_xyz
1 x,y,z
2 1/2+x,1/2-y,1/2+z
3 -x,-y,-z
4 1/2-x,1/2+y,1/2-z
_cell_length_a                   14.705(1)
_cell_length_b                   9.192(1)
_cell_length_c                   18.737(1)
_cell_angle_alpha                90
_cell_angle_beta                 106.89(1)
_cell_angle_gamma                90
_cell_volume                     2423.4
_exptl_crystal_colour            colorless
_exptl_crystal_description       plate
_cell_formula_units_Z            4
loop_
_atom_site_label
_atom_site_type_symbol
_atom_site_fract_x
_atom_site_fract_y
_atom_site_fract_z
C1 C 0.6255(4) 0.3568(5) 0.1591(3)
H1 H 0.5745 0.3538 0.1830
Cl1 Cl 0.6663(15) 0.1831(9) 0.1557(10)
Cl2 Cl 0.5798(9) 0.4273(12) 0.0710(4)
Cl3 Cl 0.7135(9) 0.4669(14) 0.2109(7)
Cl10 Cl 0.44395(9) 0.41182(13) 0.23494(7)
C2 C 0.5213(4) 0.8114(5) 0.2887(3)
H2 H 0.5877 0.7894 0.2923
C3 C 0.4954(4) 0.7496(6) 0.3553(3)
H3 H 0.5371 0.7913 0.4006
H4 H 0.5057 0.6453 0.3572
C4 C 0.3927(3) 0.7799(5) 0.3526(3)
H5 H 0.3739 0.7101 0.3852
C5 C 0.3255(3) 0.7632(5) 0.2739(3)
H6 H 0.3111 0.6608 0.2642
H7 H 0.2663 0.8129 0.2710
C6 C 0.3654(3) 0.8229(5) 0.2140(3)
H8 H 0.3203 0.8094 0.1644
C7 C 0.3989(4) 0.9807(6) 0.2254(3)
H9 H 0.3599 1.0361 0.2495
H10 H 0.3957 1.0262 0.1780
C8 C 0.5018(4) 0.9728(6) 0.2752(3)
H11 H 0.5448 1.0153 0.2503
H12 H 0.5090 1.0237 0.3219
N1 N 0.4563(3) 0.7431(5) 0.2202(2)
H13 H 0.453(4) 0.658(6) 0.228(3)
C9 C 0.4891(5) 0.7558(7) 0.1525(3)
H14 H 0.5474 0.7029 0.1600
H15 H 0.4994 0.8564 0.1435
H16 H 0.4417 0.7163 0.1104
O1 O 0.3921(2) 0.9233(3) 0.38325(16)
C10 C 0.3098(3) 0.9595(5) 0.4045(2)
H17 H 0.2537 0.9492 0.3611
C11 C 0.2982(3) 0.8616(5) 0.4669(2)
C12 C 0.2109(4) 0.7973(5) 0.4591(3)
H18 H 0.1605 0.8130 0.4164
C13 C 0.1997(4) 0.7090(5) 0.5159(3)
Cl11 Cl 0.09186(14) 0.6240(2) 0.50521(14)
C14 C 0.2726(5) 0.6868(6) 0.5797(3)
H19 H 0.2636 0.6292 0.6179
C15 C 0.3592(5) 0.7508(6) 0.5866(3)
H20 H 0.4097 0.7353 0.6292
C16 C 0.3711(4) 0.8384(5) 0.5300(3)
H21 H 0.4297 0.8821 0.5350
C17 C 0.3215(3) 1.1203(5) 0.4274(2)
C18 C 0.2764(4) 1.1763(5) 0.4766(3)
H22 H 0.2417 1.1147 0.4982
C19 C 0.2822(4) 1.3233(6) 0.4941(3)
H23 H 0.2501 1.3602 0.5262
C20 C 0.3351(4) 1.4138(6) 0.4643(3)
H24 H 0.3407 1.5118 0.4771
C21 C 0.3796(4) 1.3604(5) 0.4158(3)
H25 H 0.4150 1.4224 0.3951
C22 C 0.3727(3) 1.2151(5) 0.3970(3)
H26 H 0.4031 1.1804 0.3633
Cl4? Cl 0.6880(15) 0.207(2) 0.2057(18)
Cl5? Cl 0.5689(14) 0.313(4) 0.0696(8)
Cl6? Cl 0.7077(12) 0.4940(14) 0.1627(16)
Cl7? Cl 0.7238(9) 0.408(3) 0.2274(9)
Cl8? Cl 0.6075(18) 0.462(2) 0.0808(8)
Cl9? Cl 0.6314(18) 0.1753(9) 0.1375(13)
loop_
_geom_bond_atom_site_label_1
_geom_bond_atom_site_label_2
_geom_bond_site_symmetry_1
_geom_bond_site_symmetry_2
C1 H1 1_555 1_555
Cl1 C1 1_555 1_555
Cl2 C1 1_555 1_555
Cl3 C1 1_555 1_555
C2 H2 1_555 1_555
C3 C2 1_555 1_555
H3 C3 1_555 1_555
H4 C3 1_555 1_555
C4 C3 1_555 1_555
H5 C4 1_555 1_555
C5 C4 1_555 1_555
H6 C5 1_555 1_555
H7 C5 1_555 1_555
C6 C5 1_555 1_555
H8 C6 1_555 1_555
C7 C6 1_555 1_555
H9 C7 1_555 1_555
H10 C7 1_555 1_555
C8 C2 1_555 1_555
H11 C8 1_555 1_555
H12 C8 1_555 1_555
N1 C2 1_555 1_555
H13 N1 1_555 1_555
C9 N1 1_555 1_555
H14 C9 1_555 1_555
H15 C9 1_555 1_555
H16 C9 1_555 1_555
O1 C4 1_555 1_555
C10 O1 1_555 1_555
H17 C10 1_555 1_555
C11 C10 1_555 1_555
C12 C11 1_555 1_555
H18 C12 1_555 1_555
C13 C12 1_555 1_555
Cl11 C13 1_555 1_555
C14 C13 1_555 1_555
H19 C14 1_555 1_555
C15 C14 1_555 1_555
H20 C15 1_555 1_555
C16 C11 1_555 1_555
H21 C16 1_555 1_555
C17 C10 1_555 1_555
C18 C17 1_555 1_555
H22 C18 1_555 1_555
C19 C18 1_555 1_555
H23 C19 1_555 1_555
C20 C19 1_555 1_555
H24 C20 1_555 1_555
C21 C20 1_555 1_555
H25 C21 1_555 1_555
C22 C17 1_555 1_555
H26 C22 1_555 1_555
C6 N1 1_555 1_555
C7 C8 1_555 1_555
C15 C16 1_555 1_555
C21 C22 1_555 1_555

#END
