
#######################################################################
#
#                 Cambridge Crystallographic Data Centre
#                                CCDC 
#
#######################################################################
#
# If this CIF has been generated from an entry in the Cambridge 
# Structural Database, then it will include bibliographic, chemical, 
# crystal, experimental, refinement or atomic coordinate data resulting 
# from the CCDC's data processing and validation procedures.
#
#######################################################################

data_QIRVIZ
_chemical_formula_moiety         'C20 H18 N2 O2'
_chemical_name_systematic        
3,4'-dimethyl-N-(N-oxypyridinium-2-yl)[1,1'-biphenyl]-2-carboxamide
_symmetry_cell_setting           triclinic
_symmetry_space_group_name_H-M   'P -1'
_symmetry_Int_Tables_number      2
_space_group_name_Hall           '-P 1'
loop_
_symmetry_equiv_pos_site_id
_symmetry_equiv_pos_as_xyz
1 x,y,z
2 -x,-y,-z
_cell_length_a                   7.8748(4)
_cell_length_b                   14.7543(6)
_cell_length_c                   15.7507(6)
_cell_angle_alpha                68.6045(14)
_cell_angle_beta                 85.8107(17)
_cell_angle_gamma                77.4717(17)
_cell_volume                     1663.3
_exptl_crystal_colour            colorless
_exptl_crystal_description       block
_cell_formula_units_Z            4
loop_
_atom_site_label
_atom_site_type_symbol
_atom_site_fract_x
_atom_site_fract_y
_atom_site_fract_z
C1 C 0.7892(5) 0.5261(3) 0.4037(3)
C2 C 0.9246(6) 0.5189(4) 0.3452(3)
H1 H 0.9236 0.5680 0.2877
C3 C 1.0626(6) 0.4386(4) 0.3716(4)
H2 H 1.1536 0.4332 0.3315
C4 C 1.0660(7) 0.3668(4) 0.4565(4)
H3 H 1.1593 0.3129 0.4750
C5 C 0.9300(6) 0.3757(4) 0.5134(4)
H4 H 0.9299 0.3265 0.5707
C6 C 0.6084(5) 0.6847(3) 0.3135(3)
C7 C 0.4225(5) 0.7406(3) 0.3008(2)
C8 C 0.3636(5) 0.8160(3) 0.3356(3)
C9 C 0.1916(6) 0.8680(3) 0.3189(3)
H5 H 0.1501 0.9181 0.3423
C10 C 0.0830(6) 0.8456(4) 0.2681(3)
H6 H -0.0309 0.8814 0.2566
C11 C 0.1417(6) 0.7709(3) 0.2345(3)
H7 H 0.0667 0.7563 0.2006
C12 C 0.3105(5) 0.7168(3) 0.2502(3)
C13 C 0.4769(5) 0.8411(3) 0.3920(3)
C14 C 0.4474(7) 0.8197(4) 0.4836(3)
H8 H 0.3578 0.7872 0.5108
C15 C 0.5479(7) 0.8455(4) 0.5363(3)
H9 H 0.5253 0.8292 0.5983
C16 C 0.6791(6) 0.8942(3) 0.4991(3)
C17 C 0.7073(7) 0.9165(5) 0.4086(4)
H10 H 0.7955 0.9503 0.3815
C18 C 0.6083(7) 0.8904(5) 0.3548(4)
H11 H 0.6317 0.9068 0.2928
C19 C 0.7883(8) 0.9222(4) 0.5569(4)
H12 H 0.7512 0.8987 0.6192
H13 H 0.7748 0.9932 0.5352
H14 H 0.9084 0.8923 0.5531
C20 C 0.3703(7) 0.6319(4) 0.2168(3)
H15 H 0.2839 0.6325 0.1766
H16 H 0.3872 0.5702 0.2679
H17 H 0.4779 0.6387 0.1847
N1 N 0.7946(4) 0.4548(3) 0.4883(3)
N2 N 0.6379(4) 0.5977(2) 0.3861(2)
H18 H 0.5546 0.5862 0.4244
O1 O 0.6699(4) 0.4651(3) 0.5475(2)
O2 O 0.7211(4) 0.7151(2) 0.2606(2)
C21 C 0.1951(5) 0.4811(3) 0.0962(3)
C22 C 0.0307(5) 0.4668(3) 0.1273(3)
H19 H 0.0155 0.4046 0.1668
C23 C -0.1105(6) 0.5447(4) 0.0997(3)
H20 H -0.2212 0.5351 0.1204
C24 C -0.0875(6) 0.6358(4) 0.0419(4)
H21 H -0.1820 0.6889 0.0233
C25 C 0.0750(6) 0.6481(3) 0.0120(3)
H22 H 0.0907 0.7101 -0.0280
C26 C 0.3763(5) 0.3209(3) 0.1862(3)
C27 C 0.5622(5) 0.2657(3) 0.2002(3)
C28 C 0.6214(5) 0.1888(3) 0.1669(3)
C29 C 0.7942(5) 0.1376(3) 0.1841(3)
H23 H 0.8368 0.0871 0.1613
C30 C 0.9023(6) 0.1613(4) 0.2344(3)
H24 H 1.0165 0.1260 0.2462
C31 C 0.8418(6) 0.2368(3) 0.2671(3)
H25 H 0.9160 0.2523 0.3007
C32 C 0.6720(5) 0.2902(3) 0.2509(3)
C33 C 0.5103(5) 0.1618(3) 0.1110(3)
C34 C 0.5402(6) 0.1835(3) 0.0189(3)
H26 H 0.6264 0.2186 -0.0089
C35 C 0.4441(7) 0.1539(4) -0.0327(3)
H27 H 0.4672 0.1696 -0.0946
C36 C 0.3165(6) 0.1024(3) 0.0051(3)
C37 C 0.2867(7) 0.0807(5) 0.0958(4)
H28 H 0.2005 0.0454 0.1231
C38 C 0.3820(7) 0.1098(4) 0.1489(4)
H29 H 0.3583 0.0937 0.2108
C39 C 0.2118(7) 0.0713(4) -0.0522(4)
H30 H 0.0917 0.1030 -0.0523
H31 H 0.2226 0.0004 -0.0273
H32 H 0.2545 0.0906 -0.1136
C40 C 0.6098(6) 0.3726(4) 0.2872(4)
H33 H 0.7014 0.3766 0.3219
H34 H 0.5109 0.3594 0.3256
H35 H 0.5774 0.4344 0.2372
N3 N 0.2151(4) 0.5721(2) 0.0390(2)
N4 N 0.3491(4) 0.4107(2) 0.1165(2)
H36 H 0.4361 0.4250 0.0815
O3 O 0.3711(4) 0.5868(2) 0.0103(2)
O4 O 0.2618(4) 0.2893(2) 0.2365(2)
loop_
_geom_bond_atom_site_label_1
_geom_bond_atom_site_label_2
_geom_bond_site_symmetry_1
_geom_bond_site_symmetry_2
C1 C2 1_555 1_555
C2 H1 1_555 1_555
C3 C2 1_555 1_555
H2 C3 1_555 1_555
C4 C3 1_555 1_555
H3 C4 1_555 1_555
C5 C4 1_555 1_555
H4 C5 1_555 1_555
C6 C7 1_555 1_555
C7 C8 1_555 1_555
C8 C9 1_555 1_555
C9 H5 1_555 1_555
C10 C9 1_555 1_555
H6 C10 1_555 1_555
C11 C10 1_555 1_555
H7 C11 1_555 1_555
C12 C7 1_555 1_555
C13 C8 1_555 1_555
C14 C13 1_555 1_555
H8 C14 1_555 1_555
C15 C14 1_555 1_555
H9 C15 1_555 1_555
C16 C15 1_555 1_555
C17 C16 1_555 1_555
H10 C17 1_555 1_555
C18 C13 1_555 1_555
H11 C18 1_555 1_555
C19 C16 1_555 1_555
H12 C19 1_555 1_555
H13 C19 1_555 1_555
H14 C19 1_555 1_555
C20 C12 1_555 1_555
H15 C20 1_555 1_555
H16 C20 1_555 1_555
H17 C20 1_555 1_555
N1 C1 1_555 1_555
N2 C1 1_555 1_555
H18 N2 1_555 1_555
O1 N1 1_555 1_555
O2 C6 1_555 1_555
C21 C22 1_555 1_555
C22 H19 1_555 1_555
C23 C22 1_555 1_555
H20 C23 1_555 1_555
C24 C23 1_555 1_555
H21 C24 1_555 1_555
C25 C24 1_555 1_555
H22 C25 1_555 1_555
C26 C27 1_555 1_555
C27 C28 1_555 1_555
C28 C29 1_555 1_555
C29 H23 1_555 1_555
C30 C29 1_555 1_555
H24 C30 1_555 1_555
C31 C30 1_555 1_555
H25 C31 1_555 1_555
C32 C27 1_555 1_555
C33 C28 1_555 1_555
C34 C33 1_555 1_555
H26 C34 1_555 1_555
C35 C34 1_555 1_555
H27 C35 1_555 1_555
C36 C35 1_555 1_555
C37 C36 1_555 1_555
H28 C37 1_555 1_555
C38 C33 1_555 1_555
H29 C38 1_555 1_555
C39 C36 1_555 1_555
H30 C39 1_555 1_555
H31 C39 1_555 1_555
H32 C39 1_555 1_555
C40 C32 1_555 1_555
H33 C40 1_555 1_555
H34 C40 1_555 1_555
H35 C40 1_555 1_555
N3 C21 1_555 1_555
N4 C21 1_555 1_555
H36 N4 1_555 1_555
O3 N3 1_555 1_555
O4 C26 1_555 1_555
C5 N1 1_555 1_555
C6 N2 1_555 1_555
C11 C12 1_555 1_555
C17 C18 1_555 1_555
C25 N3 1_555 1_555
C26 N4 1_555 1_555
C31 C32 1_555 1_555
C37 C38 1_555 1_555

#END
