
#######################################################################
#
#                 Cambridge Crystallographic Data Centre
#                                CCDC 
#
#######################################################################
#
# If this CIF has been generated from an entry in the Cambridge 
# Structural Database, then it will include bibliographic, chemical, 
# crystal, experimental, refinement or atomic coordinate data resulting 
# from the CCDC's data processing and validation procedures.
#
#######################################################################

data_QIRXEX
_chemical_formula_moiety         'C20 H21 Cl1 N2 O4'
_chemical_name_systematic        
2-chloro-N-(4-ethyl-3-methyl-2-phenyloxolan-3-yl)-5-nitrobenzamide
_symmetry_cell_setting           orthorhombic
_symmetry_space_group_name_H-M   'P 21 21 21'
_symmetry_Int_Tables_number      19
_space_group_name_Hall           'P 2ac 2ab'
loop_
_symmetry_equiv_pos_site_id
_symmetry_equiv_pos_as_xyz
1 x,y,z
2 1/2-x,-y,1/2+z
3 -x,1/2+y,1/2-z
4 1/2+x,1/2-y,-z
_cell_length_a                   10.4038(4)
_cell_length_b                   20.5233(6)
_cell_length_c                   37.6117(11)
_cell_angle_alpha                90
_cell_angle_beta                 90
_cell_angle_gamma                90
_cell_volume                     8030.86
_exptl_crystal_colour            colorless
_exptl_crystal_description       prismatic
_cell_formula_units_Z            16
loop_
_atom_site_label
_atom_site_type_symbol
_atom_site_fract_x
_atom_site_fract_y
_atom_site_fract_z
Cl1 Cl 0.9537(2) 0.52746(12) 0.86338(6)
N1 N 0.6115(4) 0.56221(16) 0.90657(8)
H1 H 0.6279 0.5497 0.9279
N2 N 0.6751(11) 0.3089(3) 0.93174(18)
O1 O 0.4712(5) 0.71380(19) 0.87325(12)
O2 O 0.6609(4) 0.54497(16) 0.84870(7)
O3 O 0.5637(9) 0.3176(3) 0.94057(19)
O4 O 0.7356(9) 0.2593(2) 0.93847(15)
C1 C 0.3646(8) 0.6722(4) 0.8686(2)
H2 H 0.3355 0.6737 0.8441
H3 H 0.2943 0.6858 0.8838
C2 C 0.4064(6) 0.6033(3) 0.87809(15)
H4 H 0.4399 0.5830 0.8564
C3 C 0.5217(5) 0.6173(2) 0.90261(11)
C4 C 0.5816(6) 0.6751(2) 0.88134(14)
H5 H 0.6163 0.6580 0.8590
C5 C 0.6816(9) 0.7152(3) 0.89842(15)
C6 C 0.8062(10) 0.7016(4) 0.89225(17)
H6 H 0.8277 0.6658 0.8783
C7 C 0.9053(11) 0.7411(6) 0.9066(2)
H7 H 0.9911 0.7303 0.9030
C8 C 0.8734(16) 0.7946(6) 0.9257(3)
H8 H 0.9373 0.8225 0.9338
C9 C 0.7503(16) 0.8073(4) 0.9328(3)
H9 H 0.7301 0.8423 0.9475
C10 C 0.6521(10) 0.7698(3) 0.9189(2)
H10 H 0.5669 0.7808 0.9232
C11 C 0.4837(7) 0.6363(3) 0.94032(13)
H11 H 0.4469 0.5994 0.9522
H12 H 0.4218 0.6710 0.9395
H13 H 0.5585 0.6507 0.9531
C12 C 0.2948(8) 0.5607(4) 0.8915(2)
H14 H 0.2687 0.5759 0.9149
H15 H 0.2220 0.5658 0.8756
C13 C 0.3288(10) 0.4893(4) 0.8939(2)
H16 H 0.3692 0.4757 0.8722
H17 H 0.2520 0.4643 0.8977
H18 H 0.3868 0.4826 0.9134
C14 C 0.6699(5) 0.5298(2) 0.88041(11)
C15 C 0.7417(6) 0.4704(2) 0.89115(11)
C16 C 0.8711(8) 0.4642(3) 0.88234(15)
C17 C 0.9361(9) 0.4050(5) 0.8888(2)
H19 H 1.0220 0.4003 0.8825
C18 C 0.8716(11) 0.3552(4) 0.90436(19)
H20 H 0.9135 0.3159 0.9086
C19 C 0.7449(9) 0.3621(3) 0.91396(14)
C20 C 0.6801(6) 0.4193(2) 0.90750(12)
H21 H 0.5944 0.4234 0.9142
Cl2 Cl 0.48031(15) 0.66010(7) 0.76249(4)
N3 N 0.6722(4) 0.50021(15) 0.77717(8)
H22 H 0.6825 0.5092 0.7993
N4 N 1.0197(5) 0.6849(2) 0.80960(14)
O5 O 0.5428(4) 0.35446(14) 0.73305(8)
O6 O 0.6613(4) 0.54650(14) 0.72252(7)
O7 O 1.0839(5) 0.6360(2) 0.81102(18)
O8 O 1.0590(5) 0.7368(2) 0.81883(19)
C21 C 0.6776(6) 0.3418(2) 0.73026(13)
H23 H 0.7002 0.3310 0.7059
H24 H 0.7016 0.3057 0.7455
C22 C 0.7464(5) 0.4040(2) 0.74195(12)
H25 H 0.7474 0.4335 0.7215
C23 C 0.6487(5) 0.43111(17) 0.76848(10)
C24 C 0.5244(5) 0.41903(19) 0.74686(11)
H26 H 0.5225 0.4497 0.7269
C25 C 0.4000(5) 0.4242(2) 0.76654(11)
C26 C 0.3466(6) 0.4850(2) 0.77135(17)
H27 H 0.3859 0.5213 0.7613
C27 C 0.2354(8) 0.4927(3) 0.7909(2)
H28 H 0.2025 0.5342 0.7950
C28 C 0.1740(7) 0.4395(3) 0.80410(18)
H29 H 0.0972 0.4444 0.8165
C29 C 0.2237(7) 0.3807(3) 0.7994(2)
H30 H 0.1820 0.3447 0.8091
C30 C 0.3351(6) 0.3716(2) 0.78053(16)
H31 H 0.3670 0.3298 0.7772
C31 C 0.6481(6) 0.3950(2) 0.80374(12)
H32 H 0.7314 0.3983 0.8146
H33 H 0.6277 0.3500 0.7997
H34 H 0.5848 0.4140 0.8192
C32 C 0.8849(6) 0.3962(3) 0.75437(18)
H35 H 0.8903 0.3587 0.7700
H36 H 0.9091 0.4343 0.7680
C33 C 0.9801(9) 0.3874(5) 0.7241(3)
H37 H 0.9674 0.3455 0.7133
H38 H 1.0662 0.3902 0.7332
H39 H 0.9670 0.4209 0.7067
C34 C 0.6792(5) 0.55018(18) 0.75478(10)
C35 C 0.7201(5) 0.61342(17) 0.77180(10)
C36 C 0.8452(6) 0.62049(19) 0.78274(11)
H40 H 0.9021 0.5858 0.7807
C37 C 0.8867(5) 0.6791(2) 0.79674(12)
C38 C 0.8072(6) 0.7321(2) 0.79974(13)
H41 H 0.8373 0.7713 0.8089
C39 C 0.6826(6) 0.7256(2) 0.78896(12)
H42 H 0.6264 0.7606 0.7910
C40 C 0.6393(5) 0.66644(19) 0.77490(11)
Cl3 Cl 0.8884(2) 0.43882(8) 0.61955(5)
N5 N 0.7094(4) 0.59886(15) 0.65296(8)
H43 H 0.6890 0.5846 0.6737
N6 N 0.3453(6) 0.4153(3) 0.66424(13)
O9 O 0.8894(6) 0.7424(2) 0.62437(11)
O10 O 0.7345(4) 0.56778(16) 0.59553(7)
O11 O 0.2910(6) 0.4635(3) 0.67393(19)
O12 O 0.2963(6) 0.3617(2) 0.66418(15)
C41 C 0.7663(11) 0.7614(3) 0.61329(18)
H44 H 0.7659 0.7686 0.5878
H45 H 0.7420 0.8017 0.6249
C42 C 0.6707(8) 0.7077(3) 0.62284(15)
H46 H 0.6584 0.6803 0.6018
C43 C 0.7461(5) 0.6682(2) 0.65053(11)
C44 C 0.8841(7) 0.6765(2) 0.63653(14)
H47 H 0.8964 0.6474 0.6162
C45 C 0.9888(6) 0.6643(3) 0.66287(17)
C46 C 1.0248(8) 0.6010(3) 0.6706(2)
H48 H 0.9888 0.5671 0.6575
C47 C 1.1135(9) 0.5862(4) 0.6973(3)
H49 H 1.1369 0.5431 0.7015
C48 C 1.1658(10) 0.6352(6) 0.7173(4)
H50 H 1.2208 0.6257 0.7361
C49 C 1.1360(11) 0.6979(5) 0.7094(4)
H51 H 1.1751 0.7316 0.7220
C50 C 1.0473(9) 0.7129(3) 0.6825(2)
H52 H 1.0276 0.7562 0.6778
C51 C 0.7332(6) 0.6959(2) 0.68807(12)
H53 H 0.6444 0.6956 0.6950
H54 H 0.7648 0.7399 0.6884
H55 H 0.7821 0.6698 0.7043
C52 C 0.5401(10) 0.7347(4) 0.6337(3)
H56 H 0.5494 0.7583 0.6560
H57 H 0.5113 0.7654 0.6158
C53 C 0.4394(11) 0.6828(6) 0.6383(4)
H58 H 0.4389 0.6550 0.6178
H59 H 0.3566 0.7029 0.6409
H60 H 0.4584 0.6575 0.6591
C54 C 0.7047(5) 0.5563(2) 0.62644(10)
C55 C 0.6551(6) 0.4896(2) 0.63630(10)
C56 C 0.5298(6) 0.4829(2) 0.64733(11)
H61 H 0.4797 0.5196 0.6517
C57 C 0.4790(6) 0.4214(2) 0.65184(12)
C58 C 0.5491(8) 0.3662(2) 0.64569(13)
H62 H 0.5122 0.3252 0.6484
C59 C 0.6748(8) 0.3725(2) 0.63549(14)
H63 H 0.7240 0.3354 0.6314
C60 C 0.7294(6) 0.4333(2) 0.63129(11)
Cl4 Cl 0.8027(2) 0.66531(7) 0.51825(5)
N7 N 0.7285(5) 0.50185(19) 0.52721(9)
H64 H 0.7205 0.5193 0.5479
N8 N 1.2278(7) 0.5185(3) 0.58371(17)
O13 O 0.5001(7) 0.4243(4) 0.46734(15)
O14 O 0.8645(4) 0.49701(17) 0.47950(8)
O15 O 1.2227(6) 0.4597(3) 0.5840(2)
O16 O 1.3154(6) 0.5493(3) 0.59701(18)
C61 C 0.5594(11) 0.3698(5) 0.4819(2)
H65 H 0.5923 0.3422 0.4630
H66 H 0.4978 0.3449 0.4956
C62 C 0.6672(7) 0.3916(3) 0.50522(15)
H67 H 0.7437 0.3962 0.4902
C63 C 0.6219(6) 0.4614(3) 0.51551(12)
C64 C 0.5597(7) 0.4829(4) 0.48019(14)
H68 H 0.6282 0.4952 0.4636
C65 C 0.4649(9) 0.5373(4) 0.48192(14)
C66 C 0.5031(10) 0.6013(6) 0.4878(3)
H69 H 0.5904 0.6099 0.4902
C67 C 0.4190(14) 0.6523(6) 0.4900(3)
H70 H 0.4499 0.6940 0.4946
C68 C 0.2938(14) 0.6429(6) 0.4858(3)
H71 H 0.2377 0.6781 0.4870
C69 C 0.2475(10) 0.5826(7) 0.4797(2)
H72 H 0.1596 0.5765 0.4767
C70 C 0.3332(11) 0.5272(5) 0.47784(18)
H73 H 0.3010 0.4856 0.4740
C71 C 0.5251(6) 0.4607(3) 0.54537(13)
H74 H 0.5610 0.4387 0.5656
H75 H 0.4488 0.4384 0.5377
H76 H 0.5038 0.5047 0.5518
C72 C 0.7028(9) 0.3456(3) 0.53612(18)
H77 H 0.7631 0.3678 0.5517
H78 H 0.6260 0.3363 0.5498
C73 C 0.7620(12) 0.2818(4) 0.5240(2)
H79 H 0.7009 0.2582 0.5099
H80 H 0.7851 0.2563 0.5444
H81 H 0.8374 0.2906 0.5101
C74 C 0.8374(6) 0.5153(2) 0.50995(12)
C75 C 0.9345(6) 0.5537(2) 0.53093(11)
C76 C 1.0342(6) 0.5204(2) 0.54695(14)
H82 H 1.0404 0.4753 0.5449
C77 C 1.1248(6) 0.5551(3) 0.56609(14)
C78 C 1.1226(7) 0.6217(3) 0.56927(15)
H83 H 1.1862 0.6437 0.5818
C79 C 1.0246(7) 0.6542(3) 0.55354(15)
H84 H 1.0212 0.6994 0.5550
C80 C 0.9295(6) 0.6211(2) 0.53531(13)
loop_
_geom_bond_atom_site_label_1
_geom_bond_atom_site_label_2
_geom_bond_site_symmetry_1
_geom_bond_site_symmetry_2
Cl1 C16 1_555 1_555
N1 H1 1_555 1_555
N2 O3 1_555 1_555
O1 C1 1_555 1_555
O2 C14 1_555 1_555
O4 N2 1_555 1_555
C1 H2 1_555 1_555
H3 C1 1_555 1_555
C2 C1 1_555 1_555
H4 C2 1_555 1_555
C3 N1 1_555 1_555
C4 O1 1_555 1_555
H5 C4 1_555 1_555
C5 C4 1_555 1_555
C6 C5 1_555 1_555
H6 C6 1_555 1_555
C7 C6 1_555 1_555
H7 C7 1_555 1_555
C8 C7 1_555 1_555
H8 C8 1_555 1_555
C9 C8 1_555 1_555
H9 C9 1_555 1_555
C10 C5 1_555 1_555
H10 C10 1_555 1_555
C11 C3 1_555 1_555
H11 C11 1_555 1_555
H12 C11 1_555 1_555
H13 C11 1_555 1_555
C12 C2 1_555 1_555
H14 C12 1_555 1_555
H15 C12 1_555 1_555
C13 C12 1_555 1_555
H16 C13 1_555 1_555
H17 C13 1_555 1_555
H18 C13 1_555 1_555
C14 N1 1_555 1_555
C15 C14 1_555 1_555
C16 C15 1_555 1_555
C17 C16 1_555 1_555
H19 C17 1_555 1_555
C18 C17 1_555 1_555
H20 C18 1_555 1_555
C19 N2 1_555 1_555
C20 C15 1_555 1_555
H21 C20 1_555 1_555
Cl2 C40 1_555 1_555
N3 H22 1_555 1_555
N4 O7 1_555 1_555
O5 C21 1_555 1_555
O6 C34 1_555 1_555
O8 N4 1_555 1_555
C21 H23 1_555 1_555
H24 C21 1_555 1_555
C22 C21 1_555 1_555
H25 C22 1_555 1_555
C23 N3 1_555 1_555
C24 O5 1_555 1_555
H26 C24 1_555 1_555
C25 C24 1_555 1_555
C26 C25 1_555 1_555
H27 C26 1_555 1_555
C27 C26 1_555 1_555
H28 C27 1_555 1_555
C28 C27 1_555 1_555
H29 C28 1_555 1_555
C29 C28 1_555 1_555
H30 C29 1_555 1_555
C30 C25 1_555 1_555
H31 C30 1_555 1_555
C31 C23 1_555 1_555
H32 C31 1_555 1_555
H33 C31 1_555 1_555
H34 C31 1_555 1_555
C32 C22 1_555 1_555
H35 C32 1_555 1_555
H36 C32 1_555 1_555
C33 C32 1_555 1_555
H37 C33 1_555 1_555
H38 C33 1_555 1_555
H39 C33 1_555 1_555
C34 N3 1_555 1_555
C35 C34 1_555 1_555
C36 C35 1_555 1_555
H40 C36 1_555 1_555
C37 N4 1_555 1_555
C38 C37 1_555 1_555
H41 C38 1_555 1_555
C39 C38 1_555 1_555
H42 C39 1_555 1_555
C40 C35 1_555 1_555
Cl3 C60 1_555 1_555
N5 H43 1_555 1_555
N6 O11 1_555 1_555
O9 C41 1_555 1_555
O10 C54 1_555 1_555
O12 N6 1_555 1_555
C41 H44 1_555 1_555
H45 C41 1_555 1_555
C42 C41 1_555 1_555
H46 C42 1_555 1_555
C43 N5 1_555 1_555
C44 O9 1_555 1_555
H47 C44 1_555 1_555
C45 C44 1_555 1_555
C46 C45 1_555 1_555
H48 C46 1_555 1_555
C47 C46 1_555 1_555
H49 C47 1_555 1_555
C48 C47 1_555 1_555
H50 C48 1_555 1_555
C49 C48 1_555 1_555
H51 C49 1_555 1_555
C50 C45 1_555 1_555
H52 C50 1_555 1_555
C51 C43 1_555 1_555
H53 C51 1_555 1_555
H54 C51 1_555 1_555
H55 C51 1_555 1_555
C52 C42 1_555 1_555
H56 C52 1_555 1_555
H57 C52 1_555 1_555
C53 C52 1_555 1_555
H58 C53 1_555 1_555
H59 C53 1_555 1_555
H60 C53 1_555 1_555
C54 N5 1_555 1_555
C55 C54 1_555 1_555
C56 C55 1_555 1_555
H61 C56 1_555 1_555
C57 N6 1_555 1_555
C58 C57 1_555 1_555
H62 C58 1_555 1_555
C59 C58 1_555 1_555
H63 C59 1_555 1_555
C60 C55 1_555 1_555
Cl4 C80 1_555 1_555
N7 H64 1_555 1_555
N8 O15 1_555 1_555
O13 C61 1_555 1_555
O14 C74 1_555 1_555
O16 N8 1_555 1_555
C61 H65 1_555 1_555
H66 C61 1_555 1_555
C62 C61 1_555 1_555
H67 C62 1_555 1_555
C63 N7 1_555 1_555
C64 O13 1_555 1_555
H68 C64 1_555 1_555
C65 C64 1_555 1_555
C66 C65 1_555 1_555
H69 C66 1_555 1_555
C67 C66 1_555 1_555
H70 C67 1_555 1_555
C68 C67 1_555 1_555
H71 C68 1_555 1_555
C69 C68 1_555 1_555
H72 C69 1_555 1_555
C70 C65 1_555 1_555
H73 C70 1_555 1_555
C71 C63 1_555 1_555
H74 C71 1_555 1_555
H75 C71 1_555 1_555
H76 C71 1_555 1_555
C72 C62 1_555 1_555
H77 C72 1_555 1_555
H78 C72 1_555 1_555
C73 C72 1_555 1_555
H79 C73 1_555 1_555
H80 C73 1_555 1_555
H81 C73 1_555 1_555
C74 N7 1_555 1_555
C75 C74 1_555 1_555
C76 C75 1_555 1_555
H82 C76 1_555 1_555
C77 N8 1_555 1_555
C78 C77 1_555 1_555
H83 C78 1_555 1_555
C79 C78 1_555 1_555
H84 C79 1_555 1_555
C80 C75 1_555 1_555
C2 C3 1_555 1_555
C3 C4 1_555 1_555
C9 C10 1_555 1_555
C18 C19 1_555 1_555
C19 C20 1_555 1_555
C22 C23 1_555 1_555
C23 C24 1_555 1_555
C29 C30 1_555 1_555
C36 C37 1_555 1_555
C39 C40 1_555 1_555
C42 C43 1_555 1_555
C43 C44 1_555 1_555
C49 C50 1_555 1_555
C56 C57 1_555 1_555
C59 C60 1_555 1_555
C62 C63 1_555 1_555
C63 C64 1_555 1_555
C69 C70 1_555 1_555
C76 C77 1_555 1_555
C79 C80 1_555 1_555

#END
