
#######################################################################
#
#                 Cambridge Crystallographic Data Centre
#                                CCDC 
#
#######################################################################
#
# If this CIF has been generated from an entry in the Cambridge 
# Structural Database, then it will include bibliographic, chemical, 
# crystal, experimental, refinement or atomic coordinate data resulting 
# from the CCDC's data processing and validation procedures.
#
#######################################################################

data_QISCIH
_chemical_name_common            2-(4-methoxyphenyl)-chromane
_chemical_formula_moiety         'C16 H16 O2'
_chemical_name_systematic        
2-(4-methoxyphenyl)-3,4-dihydro-2H-1-benzopyran
_symmetry_cell_setting           monoclinic
_symmetry_space_group_name_H-M   'P 21/c'
_symmetry_Int_Tables_number      14
_space_group_name_Hall           '-P 2ybc'
loop_
_symmetry_equiv_pos_site_id
_symmetry_equiv_pos_as_xyz
1 x,y,z
2 -x,1/2+y,1/2-z
3 -x,-y,-z
4 x,1/2-y,1/2+z
_cell_length_a                   13.685(10)
_cell_length_b                   6.461(5)
_cell_length_c                   15.717(12)
_cell_angle_alpha                90
_cell_angle_beta                 112.262(8)
_cell_angle_gamma                90
_cell_volume                     1286.09
_exptl_crystal_description       block
_cell_formula_units_Z            4
loop_
_atom_site_label
_atom_site_type_symbol
_atom_site_fract_x
_atom_site_fract_y
_atom_site_fract_z
O1 O 0.04188(7) 0.12518(17) 0.14809(7)
O2 O -0.42245(7) -0.19677(16) -0.04820(8)
C1 C -0.23688(10) -0.2092(2) 0.02891(9)
C2 C -0.51736(10) -0.2717(2) -0.10817(9)
C3 C -0.05135(10) 0.0223(2) 0.10492(9)
C4 C -0.33509(10) -0.3388(2) -0.01291(10)
H1 H -0.3440 -0.4221 0.0357
C5 C -0.22127(11) -0.0323(2) -0.01388(10)
H2 H -0.2737 0.0100 -0.0688
C6 C -0.52851(11) -0.4658(2) -0.14916(9)
C7 C -0.12953(11) 0.0837(2) 0.02302(10)
H3 H -0.1206 0.2018 -0.0071
C8 C -0.06555(11) -0.1550(3) 0.14793(10)
H4 H -0.0128 -0.1983 0.2025
C9 C -0.33305(11) -0.4818(2) -0.08810(11)
H5 H -0.2735 -0.5754 -0.0636
H6 H -0.3241 -0.4012 -0.1367
C10 C -0.15729(11) -0.2684(2) 0.11056(10)
H7 H -0.1659 -0.3867 0.1407
C11 C -0.43445(12) -0.6064(2) -0.12749(11)
H8 H -0.4375 -0.6765 -0.1830
H9 H -0.4356 -0.7105 -0.0834
C12 C -0.60281(11) -0.1406(3) -0.12712(11)
H10 H -0.5940 -0.0121 -0.0985
C13 C -0.62857(12) -0.5195(3) -0.21080(10)
H11 H -0.6381 -0.6479 -0.2396
C14 C -0.71392(13) -0.3899(3) -0.23078(11)
H12 H -0.7798 -0.4301 -0.2727
C15 C -0.70096(12) -0.2000(3) -0.18823(11)
H13 H -0.7584 -0.1118 -0.2007
C16 C 0.05811(13) 0.3144(3) 0.10910(13)
H14 H 0.0568 0.2890 0.0485
H15 H 0.1253 0.3716 0.1469
H16 H 0.0031 0.4104 0.1056
loop_
_geom_bond_atom_site_label_1
_geom_bond_atom_site_label_2
_geom_bond_site_symmetry_1
_geom_bond_site_symmetry_2
O1 C3 1_555 1_555
O2 C2 1_555 1_555
C1 C4 1_555 1_555
C2 C6 1_555 1_555
C3 C7 1_555 1_555
C4 O2 1_555 1_555
H1 C4 1_555 1_555
C5 C1 1_555 1_555
H2 C5 1_555 1_555
C6 C11 1_555 1_555
C7 C5 1_555 1_555
H3 C7 1_555 1_555
C8 C3 1_555 1_555
H4 C8 1_555 1_555
C9 C4 1_555 1_555
H5 C9 1_555 1_555
H6 C9 1_555 1_555
C10 C1 1_555 1_555
H7 C10 1_555 1_555
C11 C9 1_555 1_555
H8 C11 1_555 1_555
H9 C11 1_555 1_555
C12 C2 1_555 1_555
H10 C12 1_555 1_555
C13 C6 1_555 1_555
H11 C13 1_555 1_555
C14 C13 1_555 1_555
H12 C14 1_555 1_555
C15 C12 1_555 1_555
H13 C15 1_555 1_555
C16 O1 1_555 1_555
H14 C16 1_555 1_555
H15 C16 1_555 1_555
H16 C16 1_555 1_555
C8 C10 1_555 1_555
C14 C15 1_555 1_555

#END
