
#######################################################################
#
#                 Cambridge Crystallographic Data Centre
#                                CCDC 
#
#######################################################################
#
# If this CIF has been generated from an entry in the Cambridge 
# Structural Database, then it will include bibliographic, chemical, 
# crystal, experimental, refinement or atomic coordinate data resulting 
# from the CCDC's data processing and validation procedures.
#
#######################################################################

data_QISCED
_chemical_formula_moiety         'C18 H24 N6 Na2 O10'
_chemical_name_systematic        
bis(\m~2~-aqua)-tetra-aqua-bis(4-(1H-1,2,4-triazol-1-yl)benzoato)-di-sodium(i)
_symmetry_cell_setting           triclinic
_symmetry_space_group_name_H-M   'P -1'
_symmetry_Int_Tables_number      2
_space_group_name_Hall           '-P 1'
loop_
_symmetry_equiv_pos_site_id
_symmetry_equiv_pos_as_xyz
1 x,y,z
2 -x,-y,-z
_cell_length_a                   6.223(2)
_cell_length_b                   7.385(2)
_cell_length_c                   14.295(5)
_cell_angle_alpha                75.491(6)
_cell_angle_beta                 77.953(6)
_cell_angle_gamma                70.523(6)
_cell_volume                     593.941
_exptl_crystal_colour            colorless
_exptl_crystal_description       block
_cell_formula_units_Z            1
loop_
_atom_site_label
_atom_site_type_symbol
_atom_site_fract_x
_atom_site_fract_y
_atom_site_fract_z
Na1 Na 0.32484(14) 0.71525(15) 0.94416(6)
O1 O 0.7263(9) 0.822(4) 0.1605(3)
N1 N 0.3680(3) 0.7611(2) 0.61720(11)
C1 C 0.8401(4) 0.7252(4) 0.23146(15)
O2 O 1.0516(3) 0.6408(2) 0.22396(11)
C2 C 0.7111(3) 0.7384(3) 0.33250(13)
N2 N 0.1350(3) 0.8255(3) 0.63609(13)
O3 O -0.0731(2) 0.8101(2) 0.97557(10)
H1 H -0.140118 0.795045 1.034305
H2 H -0.166769 0.919138 0.954986
C3 C 0.4739(4) 0.7912(4) 0.35125(16)
H3 H 0.389219 0.821522 0.299984
N3 N 0.2907(4) 0.7324(3) 0.77516(13)
O4 O 0.7205(2) 0.5765(2) 0.92465(11)
H4 H 0.817056 0.518382 0.882099
H5 H 0.799986 0.637838 0.936953
C4 C 0.4833(3) 0.7568(3) 0.52000(13)
O5 O 0.3425(3) 0.8182(2) 1.09180(11)
H6 H 0.445678 0.811179 1.122965
H7 H 0.262266 0.759502 1.135456
C5 C 0.3594(4) 0.7997(4) 0.44502(16)
H8 H 0.199576 0.834476 0.456618
C6 C 0.8308(4) 0.7001(4) 0.40855(15)
H9 H 0.990610 0.665192 0.397209
C7 C 0.7191(4) 0.7120(4) 0.50228(16)
H10 H 0.802947 0.689908 0.552922
C8 C 0.4557(4) 0.7055(4) 0.70096(15)
H11 H 0.611895 0.654778 0.706254
C9 C 0.1001(4) 0.8050(4) 0.73174(16)
H12 H -0.046506 0.838691 0.766712
Na1A Na 0.67516(14) 0.28475(15) 1.05584(6)
O1A O 0.2737(9) 0.178(4) 1.8395(3)
N1A N 0.6320(3) 0.2389(2) 1.38280(11)
C1A C 0.1599(4) 0.2748(4) 1.76854(15)
O2A O -0.0516(3) 0.3592(2) 1.77604(11)
C2A C 0.2889(3) 0.2616(3) 1.66750(13)
N2A N 0.8650(3) 0.1745(3) 1.36391(13)
O3A O 1.0731(2) 0.1899(2) 1.02443(10)
H1A H 1.140118 0.204955 0.965695
H2A H 1.166769 0.080862 1.045014
C3A C 0.5261(4) 0.2088(4) 1.64875(16)
H3A H 0.610781 0.178478 1.700016
N3A N 0.7093(4) 0.2676(3) 1.22484(13)
O4A O 0.2795(2) 0.4235(2) 1.07535(11)
H4A H 0.182944 0.481618 1.117901
H5A H 0.200014 0.362162 1.063047
C4A C 0.5167(3) 0.2432(3) 1.48000(13)
O5A O 0.6575(3) 0.1818(2) 0.90820(11)
H6A H 0.554322 0.188821 0.877035
H7A H 0.737734 0.240498 0.864544
C5A C 0.6406(4) 0.2003(4) 1.55498(16)
H8A H 0.800424 0.165524 1.543382
C6A C 0.1692(4) 0.2999(4) 1.59145(15)
H9A H 0.009390 0.334808 1.602791
C7A C 0.2809(4) 0.2880(4) 1.49772(16)
H10A H 0.197053 0.310092 1.447078
C8A C 0.5443(4) 0.2945(4) 1.29904(15)
H11A H 0.388105 0.345222 1.293746
C9A C 0.8999(4) 0.1950(4) 1.26826(16)
H12A H 1.046506 0.161309 1.233288
O6? O 0.736(3) 0.733(8) 0.1628(14)
loop_
_geom_bond_atom_site_label_1
_geom_bond_atom_site_label_2
_geom_bond_site_symmetry_1
_geom_bond_site_symmetry_2
Na1 O3 1_555 1_555
O1 C1 1_555 1_555
N1 N2 1_555 1_555
C1 O2 1_555 1_555
C2 C1 1_555 1_555
N2 C9 1_555 1_555
O3 H1 1_555 1_555
H2 O3 1_555 1_555
C3 C2 1_555 1_555
H3 C3 1_555 1_555
N3 Na1 1_555 1_555
O4 Na1 1_555 1_555
H4 O4 1_555 1_555
H5 O4 1_555 1_555
C4 N1 1_555 1_555
O5 Na1 1_555 1_555
H6 O5 1_555 1_555
H7 O5 1_555 1_555
C5 C3 1_555 1_555
H8 C5 1_555 1_555
C6 C2 1_555 1_555
H9 C6 1_555 1_555
C7 C4 1_555 1_555
H10 C7 1_555 1_555
C8 N1 1_555 1_555
H11 C8 1_555 1_555
C9 N3 1_555 1_555
H12 C9 1_555 1_555
Na1A O4 1_555 1_555
O1A C1A 1_555 1_555
N1A N2A 1_555 1_555
C1A O2A 1_555 1_555
C2A C1A 1_555 1_555
N2A C9A 1_555 1_555
O3A Na1A 1_555 1_555
H1A O3A 1_555 1_555
H2A O3A 1_555 1_555
C3A C2A 1_555 1_555
H3A C3A 1_555 1_555
N3A Na1A 1_555 1_555
O4A Na1 1_555 1_555
H4A O4A 1_555 1_555
H5A O4A 1_555 1_555
C4A N1A 1_555 1_555
O5A Na1A 1_555 1_555
H6A O5A 1_555 1_555
H7A O5A 1_555 1_555
C5A C3A 1_555 1_555
H8A C5A 1_555 1_555
C6A C2A 1_555 1_555
H9A C6A 1_555 1_555
C7A C4A 1_555 1_555
H10A C7A 1_555 1_555
C8A N1A 1_555 1_555
H11A C8A 1_555 1_555
C9A N3A 1_555 1_555
H12A C9A 1_555 1_555
N3 C8 1_555 1_555
C4 C5 1_555 1_555
C6 C7 1_555 1_555
Na1A O4A 1_555 1_555
N3A C8A 1_555 1_555
C4A C5A 1_555 1_555
C6A C7A 1_555 1_555

#END
