
#######################################################################
#
#                 Cambridge Crystallographic Data Centre
#                                CCDC 
#
#######################################################################
#
# If this CIF has been generated from an entry in the Cambridge 
# Structural Database, then it will include bibliographic, chemical, 
# crystal, experimental, refinement or atomic coordinate data resulting 
# from the CCDC's data processing and validation procedures.
#
#######################################################################

data_QISDEE
_chemical_name_common            
4,4'-(4,10-diphenyl-4,10-dihydropyreno[4,5-d:9,10-d']diimidazole-5,11-diyl)bis(N,N-diphenylaniline)
_chemical_formula_moiety         'C66 H44 N6'
_chemical_name_systematic        
N,N'-[(4,10-diphenyl-4,10-dihydropyreno[10,9-d:4,5-d']diimidazole-5,11-diyl)bis(4,1-phenylene)]bis(N-phenylaniline)
_symmetry_cell_setting           triclinic
_symmetry_space_group_name_H-M   'P -1'
_symmetry_Int_Tables_number      2
_space_group_name_Hall           '-P 1'
loop_
_symmetry_equiv_pos_site_id
_symmetry_equiv_pos_as_xyz
1 x,y,z
2 -x,-y,-z
_cell_length_a                   9.773(2)
_cell_length_b                   14.406(3)
_cell_length_c                   18.385(4)
_cell_angle_alpha                72.64(3)
_cell_angle_beta                 82.10(3)
_cell_angle_gamma                76.90(3)
_cell_volume                     2399.43
_exptl_crystal_colour            yellow
_exptl_crystal_description       block
_cell_formula_units_Z            2
loop_
_atom_site_label
_atom_site_type_symbol
_atom_site_fract_x
_atom_site_fract_y
_atom_site_fract_z
C1 C -0.6125(3) 0.8471(2) 0.5936(2)
H1 H -0.5932 0.8429 0.5425
C2 C -0.7394(4) 0.8307(3) 0.6327(2)
H2 H -0.8062 0.8132 0.6087
C3 C -0.7711(4) 0.8392(3) 0.7068(2)
H3 H -0.8603 0.8306 0.7326
C4 C -0.6717(4) 0.8602(3) 0.7418(2)
H4 H -0.6914 0.8648 0.7928
C5 C -0.5423(3) 0.8749(2) 0.7036(2)
H5 H -0.4737 0.8885 0.7288
C6 C -0.5128(3) 0.8698(2) 0.62919(19)
C7 C -0.3199(3) 0.9646(2) 0.59748(19)
C8 C -0.4014(3) 1.0502(2) 0.61258(19)
H6 H -0.5012 1.0588 0.6178
C9 C -0.3372(3) 1.1229(2) 0.6200(2)
H7 H -0.3939 1.1809 0.6308
C10 C -0.1921(4) 1.1128(3) 0.6120(2)
H8 H -0.1490 1.1635 0.6165
C11 C -0.1114(3) 1.0276(3) 0.5975(2)
H9 H -0.0116 1.0195 0.5917
C12 C -0.1744(3) 0.9537(2) 0.5913(2)
H10 H -0.1172 0.8947 0.5827
C13 C -0.3149(3) 0.8327(2) 0.53696(19)
C14 C -0.2555(3) 0.8786(2) 0.46545(19)
H11 H -0.2655 0.9487 0.4492
C15 C -0.1827(3) 0.8226(2) 0.41845(19)
H12 H -0.1413 0.8547 0.3703
C16 C -0.1683(3) 0.7192(2) 0.44014(19)
C17 C -0.2317(3) 0.6751(2) 0.51075(19)
H13 H -0.2259 0.6053 0.5261
C18 C -0.3031(3) 0.7305(2) 0.55899(19)
H14 H -0.3441 0.6986 0.6073
C19 C -0.0729(3) 0.6641(2) 0.39213(18)
C20 C -0.1996(3) 0.5217(2) 0.41042(19)
C21 C -0.1862(3) 0.4434(2) 0.4754(2)
H15 H -0.1063 0.4278 0.5041
C22 C -0.2905(4) 0.3871(3) 0.4985(2)
H16 H -0.2825 0.3333 0.5436
C23 C -0.4051(4) 0.4089(3) 0.4564(3)
H17 H -0.4751 0.3692 0.4718
C24 C -0.4187(3) 0.4885(3) 0.3917(2)
H18 H -0.4989 0.5041 0.3631
C25 C -0.3153(3) 0.5457(3) 0.3681(2)
H19 H -0.3241 0.6005 0.3236
C26 C 0.0331(3) 0.5460(2) 0.33697(18)
C27 C 0.1086(3) 0.6205(2) 0.32081(18)
C28 C 0.2402(3) 0.6182(2) 0.27494(18)
C29 C 0.3151(3) 0.6942(2) 0.25954(19)
H20 H 0.2803 0.7493 0.2798
C30 C 0.4408(3) 0.6888(2) 0.21441(19)
H21 H 0.4911 0.7412 0.2033
C31 C 0.4945(3) 0.6093(2) 0.18538(18)
H22 H 0.5816 0.6071 0.1552
C32 C 0.4218(3) 0.5312(2) 0.19995(18)
C33 C 0.2900(3) 0.5356(2) 0.24494(18)
C34 C 0.4658(3) 0.4458(2) 0.16994(18)
C35 C 0.3846(3) 0.3765(2) 0.18045(18)
C36 C 0.2546(3) 0.3778(2) 0.22731(18)
C37 C 0.1776(3) 0.3022(2) 0.24174(19)
H23 H 0.2103 0.2485 0.2198
C38 C 0.0539(3) 0.3065(2) 0.2882(2)
H24 H 0.0023 0.2549 0.2984
C39 C 0.0041(3) 0.3841(2) 0.31987(19)
H25 H -0.0815 0.3854 0.3514
C40 C 0.0775(3) 0.4613(2) 0.30641(18)
C41 C 0.2072(3) 0.4587(2) 0.25987(18)
C42 C 0.5632(3) 0.3342(2) 0.10661(18)
C43 C 0.6985(3) 0.4692(2) 0.09590(19)
C44 C 0.7011(3) 0.5326(2) 0.0234(2)
H26 H 0.6321 0.5380 -0.0101
C45 C 0.8057(3) 0.5889(3) -0.0005(2)
H27 H 0.8083 0.6331 -0.0505
C46 C 0.9058(4) 0.5803(3) 0.0485(3)
H28 H 0.9756 0.6202 0.0328
C47 C 0.9048(3) 0.5140(3) 0.1205(2)
H29 H 0.9758 0.5067 0.1533
C48 C 0.8002(3) 0.4581(2) 0.1448(2)
H30 H 0.7985 0.4129 0.1943
C49 C 0.6560(3) 0.2814(2) 0.05629(19)
C50 C 0.8026(3) 0.2608(2) 0.05222(19)
H31 H 0.8497 0.2858 0.0820
C51 C 0.8814(3) 0.2050(2) 0.00577(19)
H32 H 0.9814 0.1912 0.0046
C52 C 0.8150(3) 0.1689(2) -0.03919(19)
C53 C 0.6687(3) 0.1887(2) -0.03536(19)
H33 H 0.6218 0.1643 -0.0656
C54 C 0.5912(3) 0.2429(2) 0.0114(2)
H34 H 0.4913 0.2547 0.0134
C55 C 1.0173(3) 0.1357(2) -0.13101(19)
C56 C 1.0379(3) 0.2326(2) -0.1547(2)
H35 H 0.9678 0.2836 -0.1413
C57 C 1.1596(4) 0.2560(3) -0.1978(2)
H36 H 1.1730 0.3226 -0.2129
C58 C 1.2619(4) 0.1830(3) -0.2188(2)
H37 H 1.3447 0.1990 -0.2490
C59 C 1.2414(4) 0.0865(3) -0.1951(2)
H38 H 1.3112 0.0359 -0.2092
C60 C 1.1216(3) 0.0620(3) -0.1513(2)
H39 H 1.1101 -0.0050 -0.1350
C61 C 0.8316(3) 0.0361(2) -0.1003(2)
C62 C 0.8267(4) 0.0293(3) -0.1732(2)
H40 H 0.8658 0.0740 -0.2159
C63 C 0.7649(4) -0.0426(3) -0.1843(2)
H41 H 0.7634 -0.0479 -0.2345
C64 C 0.7056(4) -0.1063(3) -0.1231(2)
H42 H 0.6619 -0.1549 -0.1309
C65 C 0.7102(4) -0.0991(3) -0.0502(2)
H43 H 0.6692 -0.1428 -0.0077
C66 C 0.7737(3) -0.0291(2) -0.0386(2)
H44 H 0.7777 -0.0255 0.0118
N1 N -0.3835(2) 0.88995(19) 0.58798(16)
N2 N 0.0424(2) 0.69369(18) 0.35504(15)
N3 N -0.0845(2) 0.57386(17) 0.38299(15)
N4 N 0.5826(2) 0.41811(17) 0.12294(15)
N5 N 0.4438(2) 0.30767(18) 0.14101(15)
N6 N 0.8930(3) 0.11087(19) -0.08717(16)
loop_
_geom_bond_atom_site_label_1
_geom_bond_atom_site_label_2
_geom_bond_site_symmetry_1
_geom_bond_site_symmetry_2
C1 H1 1_555 1_555
C2 C1 1_555 1_555
H2 C2 1_555 1_555
C3 C2 1_555 1_555
H3 C3 1_555 1_555
C4 C3 1_555 1_555
H4 C4 1_555 1_555
C5 C4 1_555 1_555
H5 C5 1_555 1_555
C6 C1 1_555 1_555
C7 C8 1_555 1_555
C8 H6 1_555 1_555
C9 C8 1_555 1_555
H7 C9 1_555 1_555
C10 C9 1_555 1_555
H8 C10 1_555 1_555
C11 C10 1_555 1_555
H9 C11 1_555 1_555
C12 C7 1_555 1_555
H10 C12 1_555 1_555
C13 C14 1_555 1_555
C14 H11 1_555 1_555
C15 C14 1_555 1_555
H12 C15 1_555 1_555
C16 C15 1_555 1_555
C17 C16 1_555 1_555
H13 C17 1_555 1_555
C18 C13 1_555 1_555
H14 C18 1_555 1_555
C19 C16 1_555 1_555
C20 C21 1_555 1_555
C21 H15 1_555 1_555
C22 C21 1_555 1_555
H16 C22 1_555 1_555
C23 C22 1_555 1_555
H17 C23 1_555 1_555
C24 C23 1_555 1_555
H18 C24 1_555 1_555
C25 C20 1_555 1_555
H19 C25 1_555 1_555
C26 C27 1_555 1_555
C27 C28 1_555 1_555
C28 C29 1_555 1_555
C29 H20 1_555 1_555
C30 C29 1_555 1_555
H21 C30 1_555 1_555
C31 C30 1_555 1_555
H22 C31 1_555 1_555
C32 C31 1_555 1_555
C33 C28 1_555 1_555
C34 C32 1_555 1_555
C35 C34 1_555 1_555
C36 C35 1_555 1_555
C37 C36 1_555 1_555
H23 C37 1_555 1_555
C38 C37 1_555 1_555
H24 C38 1_555 1_555
C39 C38 1_555 1_555
H25 C39 1_555 1_555
C40 C26 1_555 1_555
C41 C33 1_555 1_555
C42 C49 1_555 1_555
C43 C44 1_555 1_555
C44 H26 1_555 1_555
C45 C44 1_555 1_555
H27 C45 1_555 1_555
C46 C45 1_555 1_555
H28 C46 1_555 1_555
C47 C46 1_555 1_555
H29 C47 1_555 1_555
C48 C43 1_555 1_555
H30 C48 1_555 1_555
C49 C50 1_555 1_555
C50 H31 1_555 1_555
C51 C50 1_555 1_555
H32 C51 1_555 1_555
C52 C51 1_555 1_555
C53 C52 1_555 1_555
H33 C53 1_555 1_555
C54 C49 1_555 1_555
H34 C54 1_555 1_555
C55 C56 1_555 1_555
C56 H35 1_555 1_555
C57 C56 1_555 1_555
H36 C57 1_555 1_555
C58 C57 1_555 1_555
H37 C58 1_555 1_555
C59 C58 1_555 1_555
H38 C59 1_555 1_555
C60 C55 1_555 1_555
H39 C60 1_555 1_555
C61 C62 1_555 1_555
C62 H40 1_555 1_555
C63 C62 1_555 1_555
H41 C63 1_555 1_555
C64 C63 1_555 1_555
H42 C64 1_555 1_555
C65 C64 1_555 1_555
H43 C65 1_555 1_555
C66 C61 1_555 1_555
H44 C66 1_555 1_555
N1 C6 1_555 1_555
N2 C19 1_555 1_555
N3 C19 1_555 1_555
N4 C34 1_555 1_555
N5 C35 1_555 1_555
N6 C52 1_555 1_555
C5 C6 1_555 1_555
C7 N1 1_555 1_555
C11 C12 1_555 1_555
C13 N1 1_555 1_555
C17 C18 1_555 1_555
C20 N3 1_555 1_555
C24 C25 1_555 1_555
C26 N3 1_555 1_555
C27 N2 1_555 1_555
C32 C33 1_555 1_555
C36 C41 1_555 1_555
C39 C40 1_555 1_555
C40 C41 1_555 1_555
C42 N4 1_555 1_555
C42 N5 1_555 1_555
C43 N4 1_555 1_555
C47 C48 1_555 1_555
C53 C54 1_555 1_555
C55 N6 1_555 1_555
C59 C60 1_555 1_555
C61 N6 1_555 1_555
C65 C66 1_555 1_555

#END
