
#######################################################################
#
#                 Cambridge Crystallographic Data Centre
#                                CCDC 
#
#######################################################################
#
# If this CIF has been generated from an entry in the Cambridge 
# Structural Database, then it will include bibliographic, chemical, 
# crystal, experimental, refinement or atomic coordinate data resulting 
# from the CCDC's data processing and validation procedures.
#
#######################################################################

data_QISFOQ
_chemical_name_common            
'methyl 2-((1-(2-(methoxycarbonyl)benzyl)-1H-1,2,3-triazol-4-yl)methoxy)-1-naphthoate'
_chemical_formula_moiety         'C24 H21 N3 O5'
_chemical_name_systematic        
'methyl 2-[(1-{[2-(methoxycarbonyl)phenyl]methyl}-1H-1,2,3-triazol-4-yl)methoxy]naphthalene-1-carboxylate'
_symmetry_cell_setting           orthorhombic
_symmetry_space_group_name_H-M   'P b c a'
_symmetry_Int_Tables_number      61
_space_group_name_Hall           '-P 2ac 2ab'
loop_
_symmetry_equiv_pos_site_id
_symmetry_equiv_pos_as_xyz
1 x,y,z
2 1/2-x,-y,1/2+z
3 1/2+x,1/2-y,-z
4 -x,1/2+y,1/2-z
5 -x,-y,-z
6 1/2+x,y,1/2-z
7 1/2-x,1/2+y,z
8 x,1/2-y,1/2+z
_cell_length_a                   8.4167(7)
_cell_length_b                   14.0370(10)
_cell_length_c                   34.664(3)
_cell_angle_alpha                90
_cell_angle_beta                 90
_cell_angle_gamma                90
_cell_volume                     4095.39
_exptl_crystal_colour            colorless
_exptl_crystal_description       block
_cell_formula_units_Z            8
loop_
_atom_site_label
_atom_site_type_symbol
_atom_site_fract_x
_atom_site_fract_y
_atom_site_fract_z
O1 O 0.33380(16) 0.51874(9) 0.34033(4)
O2 O 0.51320(18) 0.93696(10) 0.33939(4)
O3 O 0.49816(18) 0.50273(10) 0.28999(4)
O4 O 0.36574(18) 0.81591(10) 0.36067(4)
O5 O 0.55205(17) 0.50811(10) 0.39811(4)
N1 N 0.35294(19) 0.74176(11) 0.44629(4)
N2 N 0.4973(2) 0.65466(12) 0.48293(5)
N3 N 0.4092(2) 0.73249(12) 0.48247(5)
C1 C 0.4945(2) 0.61497(14) 0.44724(5)
C2 C 0.4024(2) 0.66959(13) 0.42383(5)
H1 H 0.378229 0.659055 0.397405
C3 C 0.4576(2) 0.47959(14) 0.32212(5)
C4 C 0.5886(2) 0.42117(14) 0.38275(5)
C5 C 0.4191(2) 0.94782(14) 0.40299(5)
C6 C 0.3304(2) 0.91565(14) 0.43486(5)
C7 C 0.4279(2) 0.89182(15) 0.36639(5)
C8 C 0.5800(2) 0.31595(14) 0.32715(5)
C9 C 0.5396(2) 0.40414(14) 0.34538(5)
C10 C 0.3197(2) 0.97368(14) 0.46721(6)
H2 H 0.259411 0.952612 0.488751
C11 C 0.6760(2) 0.24937(15) 0.34740(6)
C12 C 0.3947(2) 1.06165(15) 0.46888(6)
H3 H 0.384625 1.100397 0.491217
C13 C 0.6789(2) 0.35339(14) 0.40330(6)
H4 H 0.709305 0.365288 0.429247
C14 C 0.2446(2) 0.82078(14) 0.43689(6)
H5 H 0.160331 0.824392 0.456752
H6 H 0.193055 0.807876 0.411758
C15 C 0.5779(2) 0.52400(14) 0.43830(5)
H7 H 0.692841 0.529466 0.443924
H8 H 0.533329 0.471037 0.453753
C16 C 0.4949(2) 1.03615(15) 0.40526(6)
H9 H 0.555444 1.058107 0.383906
C17 C 0.7220(2) 0.27074(15) 0.38558(6)
H10 H 0.785107 0.226093 0.399358
C18 C 0.4838(2) 1.09244(15) 0.43798(6)
H11 H 0.537421 1.151950 0.439097
C19 C 0.5269(3) 0.29033(15) 0.28966(6)
H12 H 0.458115 0.331994 0.275984
C20 C 0.2563(3) 0.59621(15) 0.32001(6)
H13 H 0.219097 0.573600 0.294833
H14 H 0.331934 0.648504 0.316298
H15 H 0.165584 0.618868 0.335163
C21 C 0.7244(3) 0.16428(15) 0.32876(7)
H16 H 0.792157 0.121058 0.341961
C22 C 0.5734(3) 0.20661(16) 0.27298(6)
H17 H 0.536076 0.190834 0.247919
C23 C 0.6757(3) 0.14346(16) 0.29239(7)
H18 H 0.710424 0.086634 0.280124
C24 C 0.5165(3) 0.89175(16) 0.30203(6)
H19 H 0.581389 0.929776 0.284321
H20 H 0.408001 0.886928 0.291932
H21 H 0.562201 0.827825 0.304453
loop_
_geom_bond_atom_site_label_1
_geom_bond_atom_site_label_2
_geom_bond_site_symmetry_1
_geom_bond_site_symmetry_2
O1 C3 1_555 1_555
O2 C7 1_555 1_555
O3 C3 1_555 1_555
O4 C7 1_555 1_555
O5 C4 1_555 1_555
N1 N3 1_555 1_555
N2 N3 1_555 1_555
C1 N2 1_555 1_555
C2 N1 1_555 1_555
H1 C2 1_555 1_555
C3 C9 1_555 1_555
C4 C9 1_555 1_555
C5 C6 1_555 1_555
C6 C10 1_555 1_555
C7 C5 1_555 1_555
C8 C9 1_555 1_555
C10 H2 1_555 1_555
C11 C8 1_555 1_555
C12 C10 1_555 1_555
H3 C12 1_555 1_555
C13 C4 1_555 1_555
H4 C13 1_555 1_555
C14 N1 1_555 1_555
H5 C14 1_555 1_555
H6 C14 1_555 1_555
C15 O5 1_555 1_555
H7 C15 1_555 1_555
H8 C15 1_555 1_555
C16 C5 1_555 1_555
H9 C16 1_555 1_555
C17 C11 1_555 1_555
H10 C17 1_555 1_555
C18 C12 1_555 1_555
H11 C18 1_555 1_555
C19 C8 1_555 1_555
H12 C19 1_555 1_555
C20 O1 1_555 1_555
H13 C20 1_555 1_555
H14 C20 1_555 1_555
H15 C20 1_555 1_555
C21 C11 1_555 1_555
H16 C21 1_555 1_555
C22 C19 1_555 1_555
H17 C22 1_555 1_555
C23 C21 1_555 1_555
H18 C23 1_555 1_555
C24 O2 1_555 1_555
H19 C24 1_555 1_555
H20 C24 1_555 1_555
H21 C24 1_555 1_555
C1 C2 1_555 1_555
C1 C15 1_555 1_555
C6 C14 1_555 1_555
C13 C17 1_555 1_555
C16 C18 1_555 1_555
C22 C23 1_555 1_555

#END
