
#######################################################################
#
#                 Cambridge Crystallographic Data Centre
#                                CCDC 
#
#######################################################################
#
# If this CIF has been generated from an entry in the Cambridge 
# Structural Database, then it will include bibliographic, chemical, 
# crystal, experimental, refinement or atomic coordinate data resulting 
# from the CCDC's data processing and validation procedures.
#
#######################################################################

data_QISGIL
_chemical_formula_moiety         'C12 H12 N4 2+,2(C9 H7 O4 1-)'
_chemical_name_systematic        
"5,5'-(1,4-phenylene)bis(1H-imidazol-3-ium) bis(2-carboxy-5-methylbenzoate)"
_symmetry_cell_setting           monoclinic
_symmetry_space_group_name_H-M   'P 21/n'
_symmetry_Int_Tables_number      14
_space_group_name_Hall           '-P 2yn'
loop_
_symmetry_equiv_pos_site_id
_symmetry_equiv_pos_as_xyz
1 x,y,z
2 1/2-x,1/2+y,1/2-z
3 -x,-y,-z
4 1/2+x,1/2-y,1/2+z
_cell_length_a                   6.6363(7)
_cell_length_b                   9.0231(9)
_cell_length_c                   22.082(2)
_cell_angle_alpha                90
_cell_angle_beta                 92.765(2)
_cell_angle_gamma                90
_cell_volume                     1320.73
_exptl_crystal_colour            colorless
_exptl_crystal_description       block
_cell_formula_units_Z            2
loop_
_atom_site_label
_atom_site_type_symbol
_atom_site_fract_x
_atom_site_fract_y
_atom_site_fract_z
C1 C -0.2627(4) 0.4076(3) 0.29001(12)
H1 H -0.348507 0.322246 0.285404
H2 H -0.336858 0.494691 0.277660
H3 H -0.216756 0.417168 0.331717
C2 C -0.0847(3) 0.3897(3) 0.25135(10)
C3 C 0.0631(3) 0.2869(3) 0.26601(11)
H4 H 0.053044 0.228363 0.300389
C4 C 0.2260(3) 0.2701(3) 0.23010(11)
H5 H 0.321886 0.198302 0.240604
C5 C 0.2527(3) 0.3563(2) 0.17876(10)
C6 C 0.1025(3) 0.4622(2) 0.16302(10)
C7 C -0.0619(3) 0.4741(2) 0.19960(10)
H6 H -0.162115 0.542429 0.188724
C8 C 0.0945(4) 0.5663(3) 0.10941(11)
C9 C 0.4410(3) 0.3189(3) 0.14589(11)
O1 O 0.2445(3) 0.5781(2) 0.07602(9)
O2 O -0.0588(3) 0.6400(2) 0.09838(9)
O3 O 0.4922(3) 0.3959(2) 0.10041(9)
H7 H 0.377273 0.490218 0.092488
O4 O 0.5442(2) 0.2134(2) 0.16348(8)
C10 C 0.4133(3) -0.0578(2) 0.04994(10)
H8 H 0.355484 -0.097786 0.083839
C11 C 0.3224(3) 0.0623(2) 0.02077(9)
C12 C 0.4120(3) 0.1194(2) -0.02970(10)
H9 H 0.353701 0.200054 -0.050076
C13 C 0.1355(3) 0.1243(2) 0.04295(9)
C14 C 0.0330(3) 0.0930(3) 0.09295(10)
H10 H 0.069535 0.023308 0.122493
C15 C -0.1350(3) 0.2652(3) 0.04348(10)
H11 H -0.232934 0.335024 0.032212
N1 N 0.0256(2) 0.23360(19) 0.01276(8)
H12 H 0.047638 0.274144 -0.024163
N2 N -0.1346(3) 0.1828(2) 0.09228(8)
H13 H -0.243234 0.189637 0.122182
C10B C 0.5867(3) 0.0578(2) -0.04994(10)
H8B H 0.644516 0.097786 -0.083839
C11B C 0.6776(3) -0.0623(2) -0.02077(9)
C12B C 0.5880(3) -0.1194(2) 0.02970(10)
H9B H 0.646299 -0.200054 0.050076
C13B C 0.8645(3) -0.1243(2) -0.04295(9)
C14B C 0.9670(3) -0.0930(3) -0.09295(10)
H10B H 0.930465 -0.023308 -0.122493
C15B C 1.1350(3) -0.2652(3) -0.04348(10)
H11B H 1.232934 -0.335024 -0.032212
N1B N 0.9744(2) -0.23360(19) -0.01276(8)
H12B H 0.952362 -0.274144 0.024163
N2B N 1.1346(3) -0.1828(2) -0.09228(8)
H13B H 1.243234 -0.189637 -0.122182
loop_
_geom_bond_atom_site_label_1
_geom_bond_atom_site_label_2
_geom_bond_site_symmetry_1
_geom_bond_site_symmetry_2
C1 H1 1_555 1_555
H2 C1 1_555 1_555
H3 C1 1_555 1_555
C2 C1 1_555 1_555
C3 C2 1_555 1_555
H4 C3 1_555 1_555
C4 C3 1_555 1_555
H5 C4 1_555 1_555
C5 C4 1_555 1_555
C6 C5 1_555 1_555
C7 C2 1_555 1_555
H6 C7 1_555 1_555
C8 C6 1_555 1_555
C9 C5 1_555 1_555
O1 C8 1_555 1_555
O2 C8 1_555 1_555
O3 C9 1_555 1_555
H7 O3 1_555 1_555
O4 C9 1_555 1_555
C10 H8 1_555 1_555
C11 C10 1_555 1_555
C12 C11 1_555 1_555
H9 C12 1_555 1_555
C13 C11 1_555 1_555
C14 C13 1_555 1_555
H10 C14 1_555 1_555
C15 H11 1_555 1_555
N1 C13 1_555 1_555
H12 N1 1_555 1_555
N2 C14 1_555 1_555
H13 N2 1_555 1_555
C10B C12 1_555 1_555
H8B C10B 1_555 1_555
C11B C10B 1_555 1_555
C12B C10 1_555 1_555
H9B C12B 1_555 1_555
C13B C11B 1_555 1_555
C14B C13B 1_555 1_555
H10B C14B 1_555 1_555
C15B H11B 1_555 1_555
N1B C13B 1_555 1_555
H12B N1B 1_555 1_555
N2B C14B 1_555 1_555
H13B N2B 1_555 1_555
C6 C7 1_555 1_555
C15 N1 1_555 1_555
C15 N2 1_555 1_555
C11B C12B 1_555 1_555
C15B N1B 1_555 1_555
C15B N2B 1_555 1_555

#END
