
#######################################################################
#
#                 Cambridge Crystallographic Data Centre
#                                CCDC 
#
#######################################################################
#
# If this CIF has been generated from an entry in the Cambridge 
# Structural Database, then it will include bibliographic, chemical, 
# crystal, experimental, refinement or atomic coordinate data resulting 
# from the CCDC's data processing and validation procedures.
#
#######################################################################

data_QISHIM
_chemical_formula_moiety         'C27 H24 N4 O2'
_chemical_name_systematic        
N,N-diethyl-4,6-bis[(naphthalen-2-yl)oxy]-1,3,5-triazin-2-amine
_symmetry_cell_setting           monoclinic
_symmetry_space_group_name_H-M   'P 21/c'
_symmetry_Int_Tables_number      14
_space_group_name_Hall           '-P 2ybc'
loop_
_symmetry_equiv_pos_site_id
_symmetry_equiv_pos_as_xyz
1 x,y,z
2 -x,1/2+y,1/2-z
3 -x,-y,-z
4 x,1/2-y,1/2+z
_cell_length_a                   5.8073(2)
_cell_length_b                   31.2564(9)
_cell_length_c                   24.8105(8)
_cell_angle_alpha                90
_cell_angle_beta                 90.13
_cell_angle_gamma                90
_cell_volume                     4503.47
_exptl_crystal_description       block
_cell_formula_units_Z            8
loop_
_atom_site_label
_atom_site_type_symbol
_atom_site_fract_x
_atom_site_fract_y
_atom_site_fract_z
C1 C 1.5751(6) 0.07623(12) 0.34842(16)
H1 H 1.6264 0.0761 0.3121
C2 C 1.7076(6) 0.05881(11) 0.38842(16)
H2 H 1.8522 0.0464 0.3798
C3 C 1.6317(6) 0.05909(11) 0.44264(16)
C4 C 1.7662(7) 0.04089(12) 0.48427(17)
H3 H 1.9108 0.0283 0.4761
C5 C 1.6897(8) 0.04135(14) 0.5358(2)
H4 H 1.7809 0.0287 0.5634
C6 C 1.4750(8) 0.06052(13) 0.54948(18)
H5 H 1.4252 0.0610 0.5859
C7 C 1.3397(7) 0.07839(12) 0.50970(17)
H6 H 1.1956 0.0909 0.5186
C8 C 1.4162(6) 0.07808(10) 0.45559(16)
C9 C 1.2810(6) 0.09590(10) 0.41331(15)
H7 H 1.1364 0.1088 0.4208
C10 C 1.3619(6) 0.09421(11) 0.36213(15)
C11 C 1.1321(6) 0.09058(10) 0.28290(15)
C12 C 0.9434(6) 0.08907(10) 0.20643(15)
C13 C 0.7102(6) 0.09100(11) 0.12761(16)
C14 C 0.7709(6) 0.09341(11) 0.07486(16)
H8 H 0.9132 0.1060 0.0647
C15 C 0.6197(7) 0.07690(11) 0.03513(16)
C16 C 0.6779(8) 0.07841(13) -0.02049(17)
H9 H 0.8179 0.0912 -0.0319
C17 C 0.5286(10) 0.06103(14) -0.0574(2)
H10 H 0.5672 0.0617 -0.0945
C18 C 0.3182(10) 0.04211(14) -0.0413(2)
H11 H 0.2179 0.0303 -0.0676
C19 C 0.2588(8) 0.04078(13) 0.01185(19)
H12 H 0.1169 0.0282 0.0224
C20 C 0.3554(7) 0.05669(12) 0.10643(18)
H13 H 0.2137 0.0443 0.1175
C21 C 0.4092(7) 0.05827(12) 0.05161(17)
C22 C 0.5038(7) 0.07274(12) 0.14474(17)
H14 H 0.4665 0.0714 0.1820
C23 C 1.0287(6) 0.02736(11) 0.24803(14)
C24 C 1.1161(8) -0.03971(12) 0.29590(18)
H15 H 1.1979 -0.0652 0.2819
H16 H 1.2300 -0.0217 0.3152
C25 C 0.9380(10) -0.05380(15) 0.3344(2)
H17 H 0.8307 -0.0733 0.3162
H18 H 0.8536 -0.0288 0.3478
H19 H 1.0113 -0.0686 0.3647
C26 C 0.9123(8) -0.04028(13) 0.20664(19)
H20 H 0.8312 -0.0650 0.2227
H21 H 0.7960 -0.0223 0.1882
C27 C 1.076(2) -0.0557(3) 0.1673(4)
H22 H 1.1447 -0.0313 0.1484
H23 H 0.9969 -0.0741 0.1412
H24 H 1.1972 -0.0720 0.1856
N1 N 1.0425(5) 0.11384(9) 0.24328(13)
N2 N 1.1338(5) 0.04868(8) 0.28875(12)
N3 N 0.9303(5) 0.04699(9) 0.20495(12)
N4 N 1.0215(5) -0.01517(9) 0.25004(13)
O1 O 1.2335(5) 0.11476(8) 0.32150(11)
O2 O 0.8532(5) 0.11169(7) 0.16529(11)
C29 C 0.2088(6) 0.34473(11) 0.31667(16)
C30 C 0.2708(6) 0.34842(11) 0.36882(16)
H30 H 0.4130 0.3616 0.3781
C31 C 0.1234(7) 0.33262(11) 0.41012(16)
C32 C 0.1821(7) 0.33443(12) 0.46515(16)
H31 H 0.3229 0.3473 0.4759
C33 C 0.0373(8) 0.31770(13) 0.50331(18)
H32 H 0.0783 0.3192 0.5403
C34 C -0.1677(8) 0.29871(13) 0.48833(19)
H33 H -0.2659 0.2869 0.5151
C35 C -0.2295(7) 0.29683(12) 0.43564(19)
H34 H -0.3716 0.2838 0.4260
C36 C -0.0875(6) 0.31378(11) 0.39474(16)
C37 C -0.1483(7) 0.31129(12) 0.33946(16)
H35 H -0.2907 0.2987 0.3292
C38 C -0.0035(6) 0.32677(12) 0.30109(16)
H36 H -0.0453 0.3255 0.2641
C39 C 0.4394(6) 0.33986(10) 0.23771(15)
C40 C 0.6280(6) 0.33865(11) 0.16087(15)
C41 C 0.8579(6) 0.33952(10) 0.08214(15)
C42 C 1.0685(6) 0.32137(11) 0.09718(16)
H37 H 1.1169 0.3216 0.1338
C43 C 1.2034(6) 0.30331(11) 0.05835(16)
H38 H 1.3464 0.2908 0.0684
C44 C 1.1358(6) 0.30275(11) 0.00397(16)
C45 C 1.2720(7) 0.28453(11) -0.03711(17)
H39 H 1.4157 0.2718 -0.0281
C46 C 1.2006(7) 0.28486(13) -0.08966(18)
H40 H 1.2947 0.2723 -0.1166
C47 C 0.9911(8) 0.30346(13) -0.10412(18)
H41 H 0.9425 0.3034 -0.1407
C48 C 0.8562(6) 0.32180(12) -0.06549(16)
H42 H 0.7148 0.3349 -0.0756
C49 C 0.9234(6) 0.32168(10) -0.01065(15)
C50 C 0.7856(6) 0.34034(11) 0.03025(15)
H43 H 0.6428 0.3534 0.0212
C51 C 0.5183(6) 0.27707(10) 0.19906(15)
C52 C 0.4014(7) 0.21090(12) 0.24350(18)
H44 H 0.3243 0.1849 0.2296
H45 H 0.2838 0.2291 0.2610
C53 C 0.5881(9) 0.19825(14) 0.2850(2)
H46 H 0.7056 0.1807 0.2674
H47 H 0.5172 0.1819 0.3143
H48 H 0.6597 0.2241 0.2997
C54 C 0.6119(8) 0.20937(12) 0.15564(18)
H49 H 0.7001 0.1852 0.1711
H50 H 0.7194 0.2275 0.1348
C55 C 0.4187(12) 0.19216(17) 0.1181(2)
H51 H 0.4861 0.1733 0.0908
H52 H 0.3417 0.2162 0.1002
H53 H 0.3063 0.1761 0.1395
N5 N 0.5394(5) 0.36321(9) 0.19920(13)
N6 N 0.4232(5) 0.29812(8) 0.24128(12)
N7 N 0.6241(5) 0.29671(8) 0.15714(12)
N8 N 0.5073(6) 0.23435(9) 0.19873(13)
O3 O 0.3489(5) 0.36429(7) 0.27750(11)
O4 O 0.7292(5) 0.36153(8) 0.12125(11)
H25? H 0.9740 -0.0310 0.1714
H26? H 0.9500 -0.0709 0.2114
C28? C 0.6726(18) -0.0350(3) 0.2070(4)
H27? H 0.6130 -0.0418 0.2429
H28? H 0.6026 -0.0542 0.1804
H29? H 0.6346 -0.0053 0.1979
loop_
_geom_bond_atom_site_label_1
_geom_bond_atom_site_label_2
_geom_bond_site_symmetry_1
_geom_bond_site_symmetry_2
C1 H1 1_555 1_555
C2 C1 1_555 1_555
H2 C2 1_555 1_555
C3 C2 1_555 1_555
C4 C3 1_555 1_555
H3 C4 1_555 1_555
C5 C4 1_555 1_555
H4 C5 1_555 1_555
C6 C5 1_555 1_555
H5 C6 1_555 1_555
C7 C6 1_555 1_555
H6 C7 1_555 1_555
C8 C3 1_555 1_555
C9 C8 1_555 1_555
H7 C9 1_555 1_555
C10 C1 1_555 1_555
C11 N1 1_555 1_555
C12 N1 1_555 1_555
C13 C14 1_555 1_555
C14 H8 1_555 1_555
C15 C14 1_555 1_555
C16 C15 1_555 1_555
H9 C16 1_555 1_555
C17 C16 1_555 1_555
H10 C17 1_555 1_555
C18 C17 1_555 1_555
H11 C18 1_555 1_555
C19 C18 1_555 1_555
H12 C19 1_555 1_555
C20 H13 1_555 1_555
C21 C15 1_555 1_555
C22 C13 1_555 1_555
H14 C22 1_555 1_555
C23 N2 1_555 1_555
C24 H15 1_555 1_555
H16 C24 1_555 1_555
C25 C24 1_555 1_555
H17 C25 1_555 1_555
H18 C25 1_555 1_555
H19 C25 1_555 1_555
C26 H20 1_555 1_555
H21 C26 1_555 1_555
C27 C26 1_555 1_555
H22 C27 1_555 1_555
H23 C27 1_555 1_555
H24 C27 1_555 1_555
N2 C11 1_555 1_555
N3 C12 1_555 1_555
N4 C23 1_555 1_555
O1 C10 1_555 1_555
O2 C12 1_555 1_555
C29 C30 1_555 1_555
C30 H30 1_555 1_555
C31 C30 1_555 1_555
C32 C31 1_555 1_555
H31 C32 1_555 1_555
C33 C32 1_555 1_555
H32 C33 1_555 1_555
C34 C33 1_555 1_555
H33 C34 1_555 1_555
C35 C34 1_555 1_555
H34 C35 1_555 1_555
C36 C31 1_555 1_555
C37 C36 1_555 1_555
H35 C37 1_555 1_555
C38 C29 1_555 1_555
H36 C38 1_555 1_555
C39 N5 1_555 1_555
C40 N5 1_555 1_555
C41 C42 1_555 1_555
C42 H37 1_555 1_555
C43 C42 1_555 1_555
H38 C43 1_555 1_555
C44 C43 1_555 1_555
C45 C44 1_555 1_555
H39 C45 1_555 1_555
C46 C45 1_555 1_555
H40 C46 1_555 1_555
C47 C46 1_555 1_555
H41 C47 1_555 1_555
C48 C47 1_555 1_555
H42 C48 1_555 1_555
C49 C44 1_555 1_555
C50 C41 1_555 1_555
H43 C50 1_555 1_555
C51 N6 1_555 1_555
C52 H44 1_555 1_555
H45 C52 1_555 1_555
C53 C52 1_555 1_555
H46 C53 1_555 1_555
H47 C53 1_555 1_555
H48 C53 1_555 1_555
C54 H49 1_555 1_555
H50 C54 1_555 1_555
C55 C54 1_555 1_555
H51 C55 1_555 1_555
H52 C55 1_555 1_555
H53 C55 1_555 1_555
N6 C39 1_555 1_555
N7 C40 1_555 1_555
N8 C51 1_555 1_555
O3 C29 1_555 1_555
O4 C40 1_555 1_555
C7 C8 1_555 1_555
C9 C10 1_555 1_555
C11 O1 1_555 1_555
C13 O2 1_555 1_555
C19 C21 1_555 1_555
C20 C21 1_555 1_555
C20 C22 1_555 1_555
C23 N3 1_555 1_555
C24 N4 1_555 1_555
C26 N4 1_555 1_555
C35 C36 1_555 1_555
C37 C38 1_555 1_555
C39 O3 1_555 1_555
C41 O4 1_555 1_555
C48 C49 1_555 1_555
C49 C50 1_555 1_555
C51 N7 1_555 1_555
C52 N8 1_555 1_555
C54 N8 1_555 1_555

#END
