
#######################################################################
#
#                 Cambridge Crystallographic Data Centre
#                                CCDC 
#
#######################################################################
#
# If this CIF has been generated from an entry in the Cambridge 
# Structural Database, then it will include bibliographic, chemical, 
# crystal, experimental, refinement or atomic coordinate data resulting 
# from the CCDC's data processing and validation procedures.
#
#######################################################################

data_QISMIQ
_chemical_formula_moiety         'C15 H12 O5,C13 H14 N2'
_chemical_name_systematic        
"3-((4-Carboxyphenoxy)methyl)benzoic acid 4,4'-propane-1,3-diyldipyridine"
_symmetry_cell_setting           monoclinic
_symmetry_space_group_name_H-M   'P 21/c'
_symmetry_Int_Tables_number      14
_space_group_name_Hall           '-P 2ybc'
loop_
_symmetry_equiv_pos_site_id
_symmetry_equiv_pos_as_xyz
1 x,y,z
2 -x,1/2+y,1/2-z
3 -x,-y,-z
4 x,1/2-y,1/2+z
_cell_length_a                   11.639(4)
_cell_length_b                   9.808(3)
_cell_length_c                   20.854(6)
_cell_angle_alpha                90
_cell_angle_beta                 91.242(7)
_cell_angle_gamma                90
_cell_volume                     2380.04
_exptl_crystal_colour            colorless
_exptl_crystal_description       block
_cell_formula_units_Z            4
loop_
_atom_site_label
_atom_site_type_symbol
_atom_site_fract_x
_atom_site_fract_y
_atom_site_fract_z
C1 C 0.5931(4) 0.6137(5) 0.7796(2)
C2 C 0.6170(4) 0.5232(5) 0.7315(2)
H1 H 0.5836 0.4371 0.7321
C3 C 0.6892(4) 0.5568(5) 0.6824(2)
C4 C 0.7375(4) 0.6849(5) 0.6812(2)
H2 H 0.7873 0.7087 0.6488
C5 C 0.7113(4) 0.7775(5) 0.7284(2)
H3 H 0.7418 0.8651 0.7270
C6 C 0.5155(4) 0.5776(5) 0.8329(2)
H4 H 0.5250 0.6424 0.8678
H5 H 0.4361 0.5803 0.8180
C7 C 0.4798(4) 0.3877(5) 0.9014(2)
C8 C 0.3908(4) 0.4507(5) 0.9317(2)
H6 H 0.3701 0.5396 0.9211
C9 C 0.3326(4) 0.3806(5) 0.9780(2)
H7 H 0.2716 0.4229 0.9981
C10 C 0.3620(4) 0.2496(5) 0.9953(2)
C11 C 0.4514(4) 0.1864(5) 0.9642(2)
H8 H 0.4726 0.0978 0.9748
C12 C 0.5087(4) 0.2565(5) 0.9171(2)
H9 H 0.5680 0.2137 0.8957
C13 C 0.7171(4) 0.4545(5) 0.6319(2)
C14 C 0.2964(4) 0.1800(5) 1.0461(2)
C15 C 0.6406(4) 0.7417(5) 0.7776(2)
H10 H 0.6249 0.8045 0.8096
O1 O 0.6642(3) 0.3496(4) 0.62444(15)
O2 O 0.8048(3) 0.4898(4) 0.59735(18)
H11 H 0.818(4) 0.431(4) 0.5699(18)
O3 O 0.2146(3) 0.2275(4) 1.07096(16)
O4 O 0.3383(3) 0.0588(4) 1.06099(16)
H12 H 0.305(3) 0.029(4) 1.0946(15)
O5 O 0.5437(3) 0.4453(3) 0.85456(14)
N1 N 0.8670(4) 0.3144(4) 0.51041(19)
N2 N 1.2224(4) -0.0519(4) 0.15810(19)
C16 C 0.7895(5) 0.2366(6) 0.4810(3)
H13 H 0.7139 0.2408 0.4945
C17 C 0.8149(5) 0.1503(5) 0.4318(3)
H14 H 0.7570 0.0987 0.4123
C18 C 0.9240(6) 0.1403(5) 0.4117(3)
C19 C 1.0064(5) 0.2195(6) 0.4428(3)
H15 H 1.0830 0.2155 0.4310
C20 C 0.9729(5) 0.3041(5) 0.4912(2)
H16 H 1.0287 0.3573 0.5117
C21 C 0.9490(6) 0.0495(6) 0.3540(3)
H17 H 0.8769 0.0245 0.3330
H18 H 0.9936 0.1010 0.3236
C22 C 1.0088(5) -0.0685(6) 0.3707(3)
H19 H 0.9725 -0.1088 0.4076
H20 H 1.0864 -0.0432 0.3838
C23 C 1.0161(4) -0.1806(5) 0.3164(2)
H21 H 1.0489 -0.2631 0.3347
H22 H 0.9389 -0.2020 0.3009
C24 C 1.1113(5) -0.0219(5) 0.1610(2)
H23 H 1.0786 0.0295 0.1279
C25 C 1.0419(4) -0.0621(5) 0.2098(2)
H24 H 0.9644 -0.0390 0.2086
C26 C 1.0867(4) -0.1370(4) 0.2608(2)
C27 C 1.2006(5) -0.1674(5) 0.2582(2)
H25 H 1.2357 -0.2176 0.2910
C28 C 1.2640(4) -0.1240(5) 0.2071(3)
H26 H 1.3416 -0.1469 0.2069
loop_
_geom_bond_atom_site_label_1
_geom_bond_atom_site_label_2
_geom_bond_site_symmetry_1
_geom_bond_site_symmetry_2
C1 C2 1_555 1_555
C2 H1 1_555 1_555
C3 C2 1_555 1_555
C4 C3 1_555 1_555
H2 C4 1_555 1_555
C5 C4 1_555 1_555
H3 C5 1_555 1_555
C6 C1 1_555 1_555
H4 C6 1_555 1_555
H5 C6 1_555 1_555
C7 C8 1_555 1_555
C8 H6 1_555 1_555
C9 C8 1_555 1_555
H7 C9 1_555 1_555
C10 C9 1_555 1_555
C11 C10 1_555 1_555
H8 C11 1_555 1_555
C12 C7 1_555 1_555
H9 C12 1_555 1_555
C13 C3 1_555 1_555
C14 C10 1_555 1_555
C15 C1 1_555 1_555
H10 C15 1_555 1_555
O1 C13 1_555 1_555
O2 C13 1_555 1_555
H11 O2 1_555 1_555
O3 C14 1_555 1_555
O4 C14 1_555 1_555
H12 O4 1_555 1_555
O5 C6 1_555 1_555
N1 C16 1_555 1_555
N2 C24 1_555 1_555
C16 H13 1_555 1_555
C17 C16 1_555 1_555
H14 C17 1_555 1_555
C18 C17 1_555 1_555
C19 C18 1_555 1_555
H15 C19 1_555 1_555
C20 N1 1_555 1_555
H16 C20 1_555 1_555
C21 C18 1_555 1_555
H17 C21 1_555 1_555
H18 C21 1_555 1_555
C22 C21 1_555 1_555
H19 C22 1_555 1_555
H20 C22 1_555 1_555
C23 C22 1_555 1_555
H21 C23 1_555 1_555
H22 C23 1_555 1_555
C24 H23 1_555 1_555
C25 C24 1_555 1_555
H24 C25 1_555 1_555
C26 C23 1_555 1_555
C27 C26 1_555 1_555
H25 C27 1_555 1_555
C28 N2 1_555 1_555
H26 C28 1_555 1_555
C5 C15 1_555 1_555
C7 O5 1_555 1_555
C11 C12 1_555 1_555
C19 C20 1_555 1_555
C25 C26 1_555 1_555
C27 C28 1_555 1_555

#END
