
#######################################################################
#
#                 Cambridge Crystallographic Data Centre
#                                CCDC 
#
#######################################################################
#
# If this CIF has been generated from an entry in the Cambridge 
# Structural Database, then it will include bibliographic, chemical, 
# crystal, experimental, refinement or atomic coordinate data resulting 
# from the CCDC's data processing and validation procedures.
#
#######################################################################

data_QITHAD
_chemical_formula_moiety         'C18 H28 O7,C19 H24 N1 O2 1+,F6 P1 1-'
_chemical_name_systematic        
'(2)-(5-(Benzoyloxy)-N-benzylpentane-1-ammonium)-(benzo-21-crown-7)-pseudorotaxane hexafluorophosphate'
_symmetry_cell_setting           triclinic
_symmetry_space_group_name_H-M   'P -1'
_symmetry_Int_Tables_number      2
_space_group_name_Hall           '-P 1'
loop_
_symmetry_equiv_pos_site_id
_symmetry_equiv_pos_as_xyz
1 x,y,z
2 -x,-y,-z
_cell_length_a                   11.775(2)
_cell_length_b                   14.080(3)
_cell_length_c                   14.801(3)
_cell_angle_alpha                117.56(3)
_cell_angle_beta                 109.34(3)
_cell_angle_gamma                92.84(3)
_cell_volume                     1991.46
_exptl_crystal_colour            colorless
_exptl_crystal_description       block
_cell_formula_units_Z            2
_exptl_crystal_recrystallization_method 'petroleum ether/ethyl acetate'
loop_
_atom_site_label
_atom_site_type_symbol
_atom_site_fract_x
_atom_site_fract_y
_atom_site_fract_z
P1 P 0.47576(14) 0.20394(16) 0.47347(12)
F1 F 0.4616(8) 0.1689(10) 0.5549(6)
F2 F 0.4320(7) 0.0765(5) 0.3811(6)
F3 F 0.4833(6) 0.2185(7) 0.3800(5)
F4 F 0.6111(6) 0.2082(10) 0.5112(6)
F5 F 0.3349(4) 0.1949(5) 0.4333(4)
F6 F 0.5058(8) 0.3158(7) 0.5635(9)
N1 N 0.2118(3) 0.1832(3) -0.0753(3)
H1 H 0.2660 0.2287 -0.0046
H2 H 0.2477 0.1294 -0.1075
O1 O 0.2229(6) 0.5822(6) -0.2825(5)
O2 O 0.1314(4) 0.4036(5) -0.3720(4)
C1 C -0.1218(13) 0.6534(9) -0.3587(8)
H3 H -0.1287 0.7254 -0.3381
C2 C -0.0087(8) 0.6320(6) -0.3353(5)
H4 H 0.0613 0.6898 -0.2991
C3 C 0.0058(5) 0.5282(5) -0.3632(4)
C4 C -0.0976(6) 0.4443(5) -0.4186(5)
H5 H -0.0894 0.3726 -0.4392
C5 C -0.2143(7) 0.4637(8) -0.4444(6)
H6 H -0.2848 0.4061 -0.4830
C6 C -0.2240(10) 0.5724(11) -0.4112(8)
H7 H -0.3017 0.5882 -0.4257
C7 C 0.1322(6) 0.5094(7) -0.3338(5)
C8 C 0.2496(7) 0.3688(9) -0.3593(7)
H8 H 0.3185 0.4331 -0.3191
H9 H 0.2498 0.3213 -0.4320
C9 C 0.2644(8) 0.3070(9) -0.2963(6)
H10 H 0.1887 0.2500 -0.3326
H11 H 0.3307 0.2701 -0.3048
C10 C 0.2893(8) 0.3662(6) -0.1841(6)
H12 H 0.2212 0.4006 -0.1756
H13 H 0.3631 0.4251 -0.1481
C11 C 0.3085(6) 0.3052(6) -0.1223(6)
H14 H 0.3559 0.2521 -0.1489
H15 H 0.3576 0.3574 -0.0442
C12 C 0.1919(4) 0.2458(4) -0.1331(4)
H16 H 0.1458 0.2992 -0.1040
H17 H 0.1413 0.1954 -0.2114
C13 C 0.1010(4) 0.1323(3) -0.0733(4)
H18 H 0.0394 0.0859 -0.1487
H19 H 0.0654 0.1896 -0.0325
C14 C 0.1338(3) 0.0636(3) -0.0190(3)
C15 C 0.1271(4) -0.0464(4) -0.0799(4)
H20 H 0.0990 -0.0805 -0.1568
C16 C 0.1608(5) -0.1074(5) -0.0298(5)
H21 H 0.1548 -0.1823 -0.0731
C17 C 0.2023(5) -0.0604(6) 0.0807(6)
H22 H 0.2262 -0.1023 0.1141
C18 C 0.2096(5) 0.0497(6) 0.1449(5)
H23 H 0.2380 0.0823 0.2217
C19 C 0.1747(4) 0.1126(4) 0.0955(4)
H24 H 0.1786 0.1870 0.1388
O3 O -0.0809(3) 0.2672(3) -0.2041(2)
O4 O -0.0450(3) 0.0532(3) -0.3583(3)
O5 O 0.1628(4) -0.0329(3) -0.3006(3)
O6 O 0.3896(3) 0.0522(3) -0.1097(3)
O7 O 0.4546(3) 0.2652(3) 0.0982(3)
O8 O 0.2775(3) 0.3881(2) 0.1530(2)
O9 O 0.0251(3) 0.3795(2) 0.0102(2)
C20 C -0.1731(5) 0.3766(4) 0.0275(4)
H25 H -0.1351 0.4173 0.1047
C21 C -0.3008(5) 0.3437(4) -0.0248(5)
H26 H -0.3487 0.3633 0.0170
C22 C -0.3568(5) 0.2821(4) -0.1382(5)
H27 H -0.4429 0.2593 -0.1733
C23 C -0.2865(4) 0.2536(4) -0.2011(4)
H28 H -0.3253 0.2114 -0.2782
C24 C -0.1595(4) 0.2874(3) -0.1498(3)
C25 C -0.1016(4) 0.3495(3) -0.0339(3)
C26 C -0.1318(5) 0.2059(4) -0.3219(4)
H29 H -0.0741 0.2259 -0.3478
H30 H -0.2080 0.2258 -0.3498
C27 C -0.1582(5) 0.0859(5) -0.3678(4)
H31 H -0.1956 0.0669 -0.3271
H32 H -0.2157 0.0482 -0.4452
C28 C -0.0557(7) -0.0573(5) -0.3913(6)
H33 H -0.1246 -0.1015 -0.4630
H34 H -0.0735 -0.0708 -0.3382
C29 C 0.0585(7) -0.0919(6) -0.3995(5)
H35 H 0.0464 -0.1697 -0.4230
H36 H 0.0728 -0.0830 -0.4563
C30 C 0.2657(8) -0.0832(6) -0.2986(6)
H37 H 0.2659 -0.1203 -0.3725
H38 H 0.2566 -0.1382 -0.2779
C31 C 0.3846(7) -0.0007(6) -0.2193(6)
H39 H 0.4525 -0.0369 -0.2220
H40 H 0.3943 0.0539 -0.2404
C32 C 0.5114(5) 0.1162(5) -0.0275(7)
H41 H 0.5410 0.1690 -0.0444
H42 H 0.5676 0.0679 -0.0295
C33 C 0.5113(5) 0.1758(5) 0.0852(6)
H43 H 0.4664 0.1255 0.0965
H44 H 0.5959 0.2034 0.1405
C34 C 0.4619(5) 0.3321(5) 0.2084(5)
H45 H 0.5480 0.3593 0.2609
H46 H 0.4177 0.2886 0.2271
C35 C 0.4072(5) 0.4251(4) 0.2157(5)
H47 H 0.4242 0.4773 0.2929
H48 H 0.4445 0.4628 0.1880
C36 C 0.2221(4) 0.4784(4) 0.1611(4)
H49 H 0.2378 0.5022 0.1135
H50 H 0.2602 0.5399 0.2370
C37 C 0.0877(4) 0.4479(4) 0.1284(3)
H51 H 0.0706 0.4087 0.1636
H52 H 0.0570 0.5142 0.1536
loop_
_geom_bond_atom_site_label_1
_geom_bond_atom_site_label_2
_geom_bond_site_symmetry_1
_geom_bond_site_symmetry_2
P1 F1 1_555 1_555
F2 P1 1_555 1_555
F3 P1 1_555 1_555
F4 P1 1_555 1_555
F5 P1 1_555 1_555
F6 P1 1_555 1_555
N1 H1 1_555 1_555
H2 N1 1_555 1_555
O1 C7 1_555 1_555
O2 C7 1_555 1_555
O3 C24 1_555 1_555
O4 C27 1_555 1_555
O5 C29 1_555 1_555
O6 C31 1_555 1_555
O7 C33 1_555 1_555
O8 C35 1_555 1_555
O9 C25 1_555 1_555
C1 H3 1_555 1_555
C2 C1 1_555 1_555
H4 C2 1_555 1_555
C3 C2 1_555 1_555
C4 C3 1_555 1_555
H5 C4 1_555 1_555
C5 C4 1_555 1_555
H6 C5 1_555 1_555
C6 C1 1_555 1_555
H7 C6 1_555 1_555
C7 C3 1_555 1_555
C8 O2 1_555 1_555
H8 C8 1_555 1_555
H9 C8 1_555 1_555
C9 C8 1_555 1_555
H10 C9 1_555 1_555
H11 C9 1_555 1_555
C10 C9 1_555 1_555
H12 C10 1_555 1_555
H13 C10 1_555 1_555
C11 C10 1_555 1_555
H14 C11 1_555 1_555
H15 C11 1_555 1_555
C12 N1 1_555 1_555
H16 C12 1_555 1_555
H17 C12 1_555 1_555
C13 N1 1_555 1_555
H18 C13 1_555 1_555
H19 C13 1_555 1_555
C14 C13 1_555 1_555
C15 C14 1_555 1_555
H20 C15 1_555 1_555
C16 C15 1_555 1_555
H21 C16 1_555 1_555
C17 C16 1_555 1_555
H22 C17 1_555 1_555
C18 C17 1_555 1_555
H23 C18 1_555 1_555
C19 C14 1_555 1_555
H24 C19 1_555 1_555
C20 H25 1_555 1_555
C21 C20 1_555 1_555
H26 C21 1_555 1_555
C22 C21 1_555 1_555
H27 C22 1_555 1_555
C23 C22 1_555 1_555
H28 C23 1_555 1_555
C24 C23 1_555 1_555
C25 C20 1_555 1_555
C26 O3 1_555 1_555
H29 C26 1_555 1_555
H30 C26 1_555 1_555
C27 C26 1_555 1_555
H31 C27 1_555 1_555
H32 C27 1_555 1_555
C28 O4 1_555 1_555
H33 C28 1_555 1_555
H34 C28 1_555 1_555
C29 C28 1_555 1_555
H35 C29 1_555 1_555
H36 C29 1_555 1_555
C30 O5 1_555 1_555
H37 C30 1_555 1_555
H38 C30 1_555 1_555
C31 C30 1_555 1_555
H39 C31 1_555 1_555
H40 C31 1_555 1_555
C32 O6 1_555 1_555
H41 C32 1_555 1_555
H42 C32 1_555 1_555
C33 C32 1_555 1_555
H43 C33 1_555 1_555
H44 C33 1_555 1_555
C34 O7 1_555 1_555
H45 C34 1_555 1_555
H46 C34 1_555 1_555
C35 C34 1_555 1_555
H47 C35 1_555 1_555
H48 C35 1_555 1_555
C36 O8 1_555 1_555
H49 C36 1_555 1_555
H50 C36 1_555 1_555
C37 O9 1_555 1_555
H51 C37 1_555 1_555
H52 C37 1_555 1_555
C5 C6 1_555 1_555
C11 C12 1_555 1_555
C18 C19 1_555 1_555
C24 C25 1_555 1_555
C36 C37 1_555 1_555

#END
