
#######################################################################
#
#                 Cambridge Crystallographic Data Centre
#                                CCDC 
#
#######################################################################
#
# If this CIF has been generated from an entry in the Cambridge 
# Structural Database, then it will include bibliographic, chemical, 
# crystal, experimental, refinement or atomic coordinate data resulting 
# from the CCDC's data processing and validation procedures.
#
#######################################################################

data_QITJIN
_chemical_formula_moiety         'C30 H25 Cl1 O4,0.5(C2 H6 O1)'
_chemical_name_systematic        
'Diethyl 5-benzyl-7-chloro-11H-benzo(b)fluorene-11,11-dicarboxylate ethanol solvate'
_symmetry_cell_setting           triclinic
_symmetry_space_group_name_H-M   'P -1'
_symmetry_Int_Tables_number      2
_space_group_name_Hall           '-P 1'
loop_
_symmetry_equiv_pos_site_id
_symmetry_equiv_pos_as_xyz
1 x,y,z
2 -x,-y,-z
_cell_length_a                   11.9038(10)
_cell_length_b                   14.2082(12)
_cell_length_c                   16.4475(13)
_cell_angle_alpha                73.5420(10)
_cell_angle_beta                 80.3940(10)
_cell_angle_gamma                87.3350(10)
_cell_volume                     2630.41
_cell_formula_units_Z            4
loop_
_atom_site_label
_atom_site_type_symbol
_atom_site_fract_x
_atom_site_fract_y
_atom_site_fract_z
C1 C 0.4642(3) 0.4953(2) 0.27091(18)
C2 C 0.3677(3) 0.4503(2) 0.26231(19)
H1 H 0.3224 0.4122 0.3111
C3 C 0.5292(3) 0.5514(2) 0.1969(2)
H2 H 0.5937 0.5834 0.2008
C4 C 0.3376(3) 0.4609(2) 0.1829(2)
H3 H 0.2717 0.4311 0.1787
C5 C 0.4049(3) 0.5154(3) 0.1097(2)
H4 H 0.3859 0.5214 0.0559
C6 C 0.4997(3) 0.5606(3) 0.1173(2)
H5 H 0.5450 0.5981 0.0683
C7 C 0.3641(2) 0.2902(2) 0.47982(17)
C8 C 0.2830(2) 0.2326(2) 0.54383(17)
C9 C 0.4379(3) 0.2442(3) 0.42784(18)
H6 H 0.4917 0.2809 0.3840
C10 C 0.2753(3) 0.1327(2) 0.55691(18)
H7 H 0.2209 0.0959 0.6001
C11 C 0.4312(3) 0.1440(3) 0.4414(2)
H8 H 0.4821 0.1136 0.4075
C12 C 0.3497(3) 0.0879(2) 0.5050(2)
H9 H 0.3450 0.0207 0.5126
C13 C 0.4056(2) 0.4795(2) 0.43102(17)
C14 C 0.3508(2) 0.3934(2) 0.48129(17)
C15 C 0.2801(3) 0.5709(2) 0.51782(18)
C16 C 0.2270(2) 0.4814(2) 0.56741(17)
H10 H 0.1683 0.4811 0.6126
C17 C 0.3694(3) 0.5699(2) 0.44879(18)
C18 C 0.4195(3) 0.6626(3) 0.39988(18)
H11 H 0.4775 0.6652 0.3537
C19 C 0.3844(3) 0.7459(3) 0.4195(2)
C20 C 0.2981(3) 0.7470(3) 0.4882(2)
H12 H 0.2761 0.8054 0.5013
C21 C 0.2473(3) 0.6605(3) 0.5355(2)
H13 H 0.1891 0.6606 0.5809
C47 C 0.0858(3) 0.2956(3) 0.5862(2)
C48 C 0.5020(2) 0.4802(2) 0.35753(16)
H27 H 0.5551 0.5320 0.3528
H28 H 0.5426 0.4183 0.3714
C50 C 0.2611(2) 0.3965(2) 0.54965(17)
C51 C 0.2262(3) 0.2594(2) 0.68895(19)
C52 C 0.2124(2) 0.2944(2) 0.59436(17)
C54 C 0.1676(3) 0.1341(2) 0.81912(19)
H33 H 0.1400 0.1823 0.8493
H34 H 0.2440 0.1150 0.8305
C56 C 0.0925(3) 0.0483(3) 0.8489(2)
H37 H 0.0187 0.0669 0.8334
H38 H 0.0855 0.0231 0.9102
H39 H 0.1241 -0.0014 0.8225
C59 C -0.0968(3) 0.3459(4) 0.6442(3)
H46 H -0.1101 0.4081 0.6035
H47 H -0.1232 0.2942 0.6242
C60 C -0.1552(5) 0.3436(7) 0.7167(4)
H48 H -0.1238 0.2956 0.7610
H49 H -0.2325 0.3265 0.7175
H50 H -0.1534 0.4070 0.7264
Cl2 Cl 0.44801(9) 0.85717(7) 0.35931(6)
O2 O 0.28335(18) 0.29775(15) 0.72380(12)
O4 O 0.04721(19) 0.26968(19) 0.53375(15)
O5 O 0.02519(18) 0.33421(18) 0.64488(13)
O6 O 0.16901(18) 0.17593(16) 0.72683(13)
C22 C 0.4376(2) 0.8585(2) 0.78620(17)
C23 C 0.3543(3) 0.9100(2) 0.74221(18)
H14 H 0.3522 0.9781 0.7298
C24 C 0.4385(3) 0.7580(2) 0.80449(18)
H15 H 0.4932 0.7219 0.8346
C25 C 0.2763(3) 0.7630(4) 0.7341(2)
H16 H 0.2225 0.7309 0.7164
C26 C 0.3581(3) 0.7100(3) 0.7782(2)
H17 H 0.3595 0.6419 0.7904
C27 C 0.2746(3) 0.8624(3) 0.7164(2)
H18 H 0.2195 0.8984 0.6868
C28 C 0.5208(2) 0.8618(2) 0.97179(18)
C29 C 0.5725(2) 0.8190(2) 1.04577(18)
C30 C 0.4121(2) 0.9047(2) 0.98395(19)
H19 H 0.3766 0.9334 0.9366
C31 C 0.3589(2) 0.9046(2) 1.0633(2)
C32 C 0.4085(3) 0.8621(2) 1.1365(2)
H20 H 0.3703 0.8621 1.1906
C33 C 0.5135(3) 0.8207(2) 1.12736(18)
H21 H 0.5472 0.7930 1.1758
C34 C 0.6823(2) 0.8128(2) 0.88275(17)
C35 C 0.5792(2) 0.8603(2) 0.88806(18)
C36 C 0.6809(2) 0.7755(2) 1.03637(18)
H22 H 0.7160 0.7490 1.0843
C37 C 0.7344(2) 0.7722(2) 0.95709(18)
C38 C 0.7594(2) 0.7925(2) 0.80943(18)
C39 C 0.8576(2) 0.7468(2) 0.83693(17)
C40 C 0.7460(3) 0.8067(2) 0.72390(18)
H23 H 0.6801 0.8353 0.7043
C41 C 0.9451(3) 0.7183(2) 0.78175(19)
H24 H 1.0110 0.6893 0.8009
C42 C 0.8328(3) 0.7773(2) 0.6687(2)
H25 H 0.8245 0.7865 0.6118
C43 C 0.9305(3) 0.7348(3) 0.6965(2)
H26 H 0.9878 0.7167 0.6580
C44 C 0.8503(2) 0.7292(2) 0.93321(17)
C45 C 0.8530(2) 0.6201(2) 0.9815(2)
C46 C 0.9481(3) 0.7806(2) 0.95457(18)
C49 C 0.5275(2) 0.9141(2) 0.80946(17)
H29 H 0.5885 0.9319 0.7608
H30 H 0.4938 0.9746 0.8185
C53 C 1.1472(3) 0.7664(3) 0.9638(2)
H31 H 1.2103 0.7728 0.9170
H32 H 1.1330 0.8303 0.9739
C55 C 0.8646(3) 0.5105(2) 1.1182(2)
H35 H 0.9260 0.4743 1.0939
H36 H 0.7934 0.4772 1.1232
C57 C 0.8830(4) 0.5152(3) 1.2026(2)
H40 H 0.9579 0.5403 1.1982
H41 H 0.8759 0.4506 1.2421
H42 H 0.8272 0.5577 1.2230
C58 C 1.1761(4) 0.6994(3) 1.0381(3)
H43 H 1.2204 0.7321 1.0657
H44 H 1.2197 0.6467 1.0228
H45 H 1.1078 0.6735 1.0768
Cl1 Cl 0.22546(7) 0.95920(7) 1.07529(6)
O1 O 0.8469(2) 0.55386(16) 0.95160(13)
O3 O 0.93856(18) 0.85079(17) 0.98166(14)
O7 O 0.86129(17) 0.60957(15) 1.06357(13)
O8 O 1.04515(18) 0.73361(16) 0.94006(12)
C61 C 0.9506(11) 0.0291(9) 0.5661(7)
C62 C 0.9279(11) 0.0246(7) 0.6420(8)
H51 H 0.9473 -0.0393 0.6756
H52 H 0.8479 0.0359 0.6565
H53 H 0.9705 0.0736 0.6538
O9 O 1.0575(11) -0.0343(7) 0.5479(5)
loop_
_geom_bond_atom_site_label_1
_geom_bond_atom_site_label_2
_geom_bond_site_symmetry_1
_geom_bond_site_symmetry_2
C1 C2 1_555 1_555
C2 H1 1_555 1_555
C3 C1 1_555 1_555
H2 C3 1_555 1_555
C4 C2 1_555 1_555
H3 C4 1_555 1_555
C5 C4 1_555 1_555
H4 C5 1_555 1_555
C6 C3 1_555 1_555
H5 C6 1_555 1_555
C7 C8 1_555 1_555
C8 C10 1_555 1_555
C9 C7 1_555 1_555
H6 C9 1_555 1_555
C10 H7 1_555 1_555
C11 C9 1_555 1_555
H8 C11 1_555 1_555
C12 C10 1_555 1_555
H9 C12 1_555 1_555
C13 C14 1_555 1_555
C14 C7 1_555 1_555
C15 C16 1_555 1_555
C16 H10 1_555 1_555
C17 C13 1_555 1_555
C18 C17 1_555 1_555
H11 C18 1_555 1_555
C19 C18 1_555 1_555
C20 C19 1_555 1_555
H12 C20 1_555 1_555
C21 C15 1_555 1_555
H13 C21 1_555 1_555
C22 C23 1_555 1_555
C23 H14 1_555 1_555
C24 C22 1_555 1_555
H15 C24 1_555 1_555
C25 H16 1_555 1_555
C26 C24 1_555 1_555
H17 C26 1_555 1_555
C27 C23 1_555 1_555
H18 C27 1_555 1_555
C28 C29 1_555 1_555
C29 C33 1_555 1_555
C30 C28 1_555 1_555
H19 C30 1_555 1_555
C31 C30 1_555 1_555
C32 C31 1_555 1_555
H20 C32 1_555 1_555
C33 C32 1_555 1_555
H21 C33 1_555 1_555
C34 C35 1_555 1_555
C35 C28 1_555 1_555
C36 C29 1_555 1_555
H22 C36 1_555 1_555
C37 C34 1_555 1_555
C38 C34 1_555 1_555
C39 C38 1_555 1_555
C40 C38 1_555 1_555
H23 C40 1_555 1_555
C41 C39 1_555 1_555
H24 C41 1_555 1_555
C42 C40 1_555 1_555
H25 C42 1_555 1_555
C43 C41 1_555 1_555
H26 C43 1_555 1_555
C44 C37 1_555 1_555
C45 C44 1_555 1_555
C46 C44 1_555 1_555
C47 C52 1_555 1_555
C48 C1 1_555 1_555
H27 C48 1_555 1_555
H28 C48 1_555 1_555
C49 C22 1_555 1_555
H29 C49 1_555 1_555
H30 C49 1_555 1_555
C50 C14 1_555 1_555
C51 C52 1_555 1_555
C52 C8 1_555 1_555
C53 H31 1_555 1_555
H32 C53 1_555 1_555
C54 H33 1_555 1_555
H34 C54 1_555 1_555
C55 H35 1_555 1_555
H36 C55 1_555 1_555
C56 C54 1_555 1_555
H37 C56 1_555 1_555
H38 C56 1_555 1_555
H39 C56 1_555 1_555
C57 C55 1_555 1_555
H40 C57 1_555 1_555
H41 C57 1_555 1_555
H42 C57 1_555 1_555
C58 C53 1_555 1_555
H43 C58 1_555 1_555
H44 C58 1_555 1_555
H45 C58 1_555 1_555
C59 H46 1_555 1_555
H47 C59 1_555 1_555
C60 C59 1_555 1_555
H48 C60 1_555 1_555
H49 C60 1_555 1_555
H50 C60 1_555 1_555
C61 C62 1_555 1_555
C62 H51 1_555 1_555
H52 C62 1_555 1_555
H53 C62 1_555 1_555
Cl1 C31 1_555 1_555
Cl2 C19 1_555 1_555
O1 C45 1_555 1_555
O2 C51 1_555 1_555
O3 C46 1_555 1_555
O4 C47 1_555 1_555
O5 C47 1_555 1_555
O6 C51 1_555 1_555
O7 C45 1_555 1_555
O8 C46 1_555 1_555
O9 C61 1_555 1_555
C5 C6 1_555 1_555
C11 C12 1_555 1_555
C13 C48 1_555 1_555
C15 C17 1_555 1_555
C16 C50 1_555 1_555
C20 C21 1_555 1_555
C25 C26 1_555 1_555
C25 C27 1_555 1_555
C35 C49 1_555 1_555
C36 C37 1_555 1_555
C39 C44 1_555 1_555
C42 C43 1_555 1_555
C50 C52 1_555 1_555
C53 O8 1_555 1_555
C54 O6 1_555 1_555
C55 O7 1_555 1_555
C59 O5 1_555 1_555

#END
