
#######################################################################
#
#                 Cambridge Crystallographic Data Centre
#                                CCDC 
#
#######################################################################
#
# If this CIF has been generated from an entry in the Cambridge 
# Structural Database, then it will include bibliographic, chemical, 
# crystal, experimental, refinement or atomic coordinate data resulting 
# from the CCDC's data processing and validation procedures.
#
#######################################################################

data_QITKOT
_chemical_formula_moiety         'C12 H14 O6'
_chemical_name_systematic        
'Dimethyl 2,5-dioxobicyclo(2.2.2)octane-1,4-dicarboxylate'
_symmetry_cell_setting           triclinic
_symmetry_space_group_name_H-M   'P -1'
_symmetry_Int_Tables_number      2
_space_group_name_Hall           '-P 1'
loop_
_symmetry_equiv_pos_site_id
_symmetry_equiv_pos_as_xyz
1 x,y,z
2 -x,-y,-z
_cell_length_a                   8.040(1)
_cell_length_b                   8.225(1)
_cell_length_c                   9.309(1)
_cell_angle_alpha                80.91(1)
_cell_angle_beta                 82.15(1)
_cell_angle_gamma                78.42(1)
_cell_volume                     591.982
_exptl_crystal_colour            colorless
_exptl_crystal_description       plates
_cell_formula_units_Z            2
loop_
_atom_site_label
_atom_site_type_symbol
_atom_site_fract_x
_atom_site_fract_y
_atom_site_fract_z
O1 O 0.1793(2) 0.8372(2) -0.00386(19)
O2 O 0.2406(2) 0.5578(2) 0.0302(2)
O3 O 0.6860(2) 0.4428(2) 0.39375(19)
O4 O 0.5449(2) 0.8067(2) -0.07757(19)
O5 O 0.9283(2) 0.7488(3) 0.3308(2)
O6 O 0.7371(2) 0.7434(2) 0.52876(19)
C1 C 0.0828(3) 0.8293(4) -0.1218(3)
H1 H 0.0281 0.9426 -0.1596
H2 H -0.0050 0.7611 -0.0853
H3 H 0.1597 0.7787 -0.2004
C2 C 0.2608(3) 0.6904(3) 0.0566(3)
C3 C 0.3911(3) 0.7107(3) 0.1526(3)
C4 C 0.4552(3) 0.5447(3) 0.2463(3)
H4 H 0.3611 0.5136 0.3191
H5 H 0.4919 0.4550 0.1830
C5 C 0.6032(3) 0.5594(3) 0.3244(3)
C6 C 0.6381(3) 0.7384(3) 0.3022(3)
C7 C 0.6862(3) 0.7807(3) 0.1371(3)
H6 H 0.7117 0.8954 0.1156
H7 H 0.7900 0.7018 0.1054
C8 C 0.5422(3) 0.7689(3) 0.0542(3)
C9 C 0.3270(3) 0.8458(3) 0.2567(3)
H8 H 0.2918 0.9560 0.1985
H9 H 0.2262 0.8173 0.3224
C10 C 0.4695(3) 0.8558(3) 0.3489(3)
H10 H 0.4332 0.8233 0.4538
H11 H 0.4890 0.9725 0.3363
C11 C 0.7852(3) 0.7455(3) 0.3853(3)
C12 C 0.8709(4) 0.7368(4) 0.6197(3)
H12 H 0.8218 0.7366 0.7220
H13 H 0.9256 0.8348 0.5886
H14 H 0.9560 0.6345 0.6101
loop_
_geom_bond_atom_site_label_1
_geom_bond_atom_site_label_2
_geom_bond_site_symmetry_1
_geom_bond_site_symmetry_2
O1 C1 1_555 1_555
O2 C2 1_555 1_555
O3 C5 1_555 1_555
O4 C8 1_555 1_555
O5 C11 1_555 1_555
O6 C11 1_555 1_555
C1 H1 1_555 1_555
H2 C1 1_555 1_555
H3 C1 1_555 1_555
C2 O1 1_555 1_555
C3 C2 1_555 1_555
C4 C3 1_555 1_555
H4 C4 1_555 1_555
H5 C4 1_555 1_555
C5 C4 1_555 1_555
C6 C5 1_555 1_555
C7 C6 1_555 1_555
H6 C7 1_555 1_555
H7 C7 1_555 1_555
C8 C3 1_555 1_555
C9 C3 1_555 1_555
H8 C9 1_555 1_555
H9 C9 1_555 1_555
C10 C6 1_555 1_555
H10 C10 1_555 1_555
H11 C10 1_555 1_555
C11 C6 1_555 1_555
C12 O6 1_555 1_555
H12 C12 1_555 1_555
H13 C12 1_555 1_555
H14 C12 1_555 1_555
C7 C8 1_555 1_555
C9 C10 1_555 1_555

#END
