
#######################################################################
#
#                 Cambridge Crystallographic Data Centre
#                                CCDC 
#
#######################################################################
#
# If this CIF has been generated from an entry in the Cambridge 
# Structural Database, then it will include bibliographic, chemical, 
# crystal, experimental, refinement or atomic coordinate data resulting 
# from the CCDC's data processing and validation procedures.
#
#######################################################################

data_QITKIN
_chemical_formula_moiety         'C22 H24 O4'
_chemical_name_systematic        
6,15-bis(Methoxymethyl)-(3.3)metacyclophane-2,11-dione
_symmetry_cell_setting           monoclinic
_symmetry_space_group_name_H-M   'P 21/c'
_symmetry_Int_Tables_number      14
_space_group_name_Hall           '-P 2ybc'
loop_
_symmetry_equiv_pos_site_id
_symmetry_equiv_pos_as_xyz
1 x,y,z
2 x,1/2-y,1/2+z
3 -x,-y,-z
4 -x,1/2+y,1/2-z
_cell_length_a                   9.825(1)
_cell_length_b                   10.286(2)
_cell_length_c                   9.048(1)
_cell_angle_alpha                90
_cell_angle_beta                 94.27(1)
_cell_angle_gamma                90
_cell_volume                     911.852
_exptl_crystal_colour            colorless
_exptl_crystal_description       prisms
_cell_formula_units_Z            2
loop_
_atom_site_label
_atom_site_type_symbol
_atom_site_fract_x
_atom_site_fract_y
_atom_site_fract_z
C1 C 0.32989(19) 0.4800(2) 0.7504(2)
H1 H 0.3254 0.4850 0.8592
H2 H 0.2797 0.4007 0.7165
C2 C 0.25373(19) 0.5958(2) 0.6828(2)
O1 O 0.13898(19) 0.6124(3) 0.7127(3)
C3 C 0.3195(2) 0.68862(19) 0.5800(2)
H3 H 0.4037 0.7246 0.6312
H4 H 0.2564 0.7619 0.5556
C4 C 0.35458(18) 0.62276(17) 0.43780(19)
C5 C 0.25210(17) 0.56266(18) 0.34747(19)
H5 H 0.1598 0.5709 0.3706
C6 C 0.28259(17) 0.49089(18) 0.22411(19)
C7 C 0.41875(17) 0.47727(18) 0.19308(19)
H6 H 0.4411 0.4256 0.1113
C8 C 0.47781(17) 0.46169(19) 0.71971(19)
C9 C 0.48864(18) 0.61372(18) 0.39985(19)
H7 H 0.5584 0.6597 0.4564
C10 C 0.16840(17) 0.43438(19) 0.1251(2)
H8 H 0.0875 0.4209 0.1823
H9 H 0.1429 0.4958 0.0434
O2 O 0.20843(14) 0.31508(14) 0.06594(17)
C11 C 0.0997(2) 0.2580(3) -0.0243(3)
H10 H 0.0209 0.2454 0.0345
H11 H 0.1291 0.1737 -0.0613
H12 H 0.0742 0.3154 -0.1082
C8B C 0.52219(17) 0.53831(19) 0.28029(19)
C1B C 0.67011(19) 0.5200(2) 0.2496(2)
H1B H 0.6746 0.5150 0.1408
H2B H 0.7203 0.5993 0.2835
C2B C 0.74627(19) 0.4042(2) 0.3172(2)
O1B O 0.86102(19) 0.3876(3) 0.2873(3)
C3B C 0.6805(2) 0.31138(19) 0.4200(2)
H3B H 0.5963 0.2754 0.3688
H4B H 0.7436 0.2381 0.4444
C4B C 0.64542(18) 0.37724(17) 0.56220(19)
C5B C 0.74790(17) 0.43734(18) 0.65253(19)
H5B H 0.8402 0.4291 0.6294
C6B C 0.71741(17) 0.50911(18) 0.77589(19)
C7B C 0.58125(17) 0.52273(18) 0.80692(19)
H6B H 0.5589 0.5744 0.8887
C9B C 0.51136(18) 0.38628(18) 0.60015(19)
H7B H 0.4416 0.3403 0.5436
C10B C 0.83160(17) 0.56562(19) 0.8749(2)
H8B H 0.9125 0.5791 0.8177
H9B H 0.8571 0.5042 0.9566
O2B O 0.79157(14) 0.68492(14) 0.93406(17)
C11B C 0.9003(2) 0.7420(3) 1.0243(3)
H10B H 0.9791 0.7546 0.9655
H11B H 0.8709 0.8263 1.0613
H12B H 0.9258 0.6846 1.1082
loop_
_geom_bond_atom_site_label_1
_geom_bond_atom_site_label_2
_geom_bond_site_symmetry_1
_geom_bond_site_symmetry_2
C1 H1 1_555 1_555
H2 C1 1_555 1_555
C2 C1 1_555 1_555
O1 C2 1_555 1_555
C3 C2 1_555 1_555
H3 C3 1_555 1_555
H4 C3 1_555 1_555
C4 C3 1_555 1_555
C5 C4 1_555 1_555
H5 C5 1_555 1_555
C6 C5 1_555 1_555
C7 C6 1_555 1_555
H6 C7 1_555 1_555
C8 C1 1_555 1_555
C9 C4 1_555 1_555
H7 C9 1_555 1_555
C10 C6 1_555 1_555
H8 C10 1_555 1_555
H9 C10 1_555 1_555
O2 C10 1_555 1_555
C11 O2 1_555 1_555
H10 C11 1_555 1_555
H11 C11 1_555 1_555
H12 C11 1_555 1_555
C8B C7 1_555 1_555
C1B C8B 1_555 1_555
H1B C1B 1_555 1_555
H2B C1B 1_555 1_555
C2B C1B 1_555 1_555
O1B C2B 1_555 1_555
C3B C2B 1_555 1_555
H3B C3B 1_555 1_555
H4B C3B 1_555 1_555
C4B C3B 1_555 1_555
C5B C4B 1_555 1_555
H5B C5B 1_555 1_555
C6B C5B 1_555 1_555
C7B C8 1_555 1_555
H6B C7B 1_555 1_555
C9B C8 1_555 1_555
H7B C9B 1_555 1_555
C10B C6B 1_555 1_555
H8B C10B 1_555 1_555
H9B C10B 1_555 1_555
O2B C10B 1_555 1_555
C11B O2B 1_555 1_555
H10B C11B 1_555 1_555
H11B C11B 1_555 1_555
H12B C11B 1_555 1_555
C9 C8B 1_555 1_555
C4B C9B 1_555 1_555
C6B C7B 1_555 1_555

#END
