
#######################################################################
#
#                 Cambridge Crystallographic Data Centre
#                                CCDC 
#
#######################################################################
#
# If this CIF has been generated from an entry in the Cambridge 
# Structural Database, then it will include bibliographic, chemical, 
# crystal, experimental, refinement or atomic coordinate data resulting 
# from the CCDC's data processing and validation procedures.
#
#######################################################################

data_QITKEJ
_chemical_formula_moiety         'C20 H24 O2'
_chemical_name_systematic        5,13-bis(Methoxymethyl)-(2.2)metacyclophane
_symmetry_cell_setting           monoclinic
_symmetry_space_group_name_H-M   'P 21/c'
_symmetry_Int_Tables_number      14
_space_group_name_Hall           '-P 2ybc'
loop_
_symmetry_equiv_pos_site_id
_symmetry_equiv_pos_as_xyz
1 x,y,z
2 x,1/2-y,1/2+z
3 -x,-y,-z
4 -x,1/2+y,1/2-z
_cell_length_a                   9.201(1)
_cell_length_b                   8.346(1)
_cell_length_c                   11.328(1)
_cell_angle_alpha                90
_cell_angle_beta                 107.81(1)
_cell_angle_gamma                90
_cell_volume                     828.206
_exptl_crystal_colour            colorless
_exptl_crystal_description       plates
_cell_formula_units_Z            2
loop_
_atom_site_label
_atom_site_type_symbol
_atom_site_fract_x
_atom_site_fract_y
_atom_site_fract_z
C1 C 0.1251(6) -0.2400(5) 0.1351(4)
H1 H 0.2273 -0.2260 0.1293
H2 H 0.1196 -0.3450 0.1703
C2 C 0.0922(6) -0.1073(5) 0.2220(4)
H3 H -0.0079 -0.1251 0.2314
H4 H 0.1672 -0.1149 0.3034
C3 C 0.0980(5) 0.0571(5) 0.1699(4)
C4 C 0.2318(5) 0.1432(6) 0.1953(4)
H5 H 0.3154 0.1111 0.2608
C5 C 0.2459(6) 0.2778(6) 0.1254(5)
C6 C 0.1245(6) 0.3146(5) 0.0219(4)
H6 H 0.1348 0.3985 -0.0290
C7 C 0.0117(6) -0.2304(5) 0.0083(4)
C8 C -0.0260(5) 0.1109(5) 0.0735(4)
H7 H -0.1215 0.0657 0.0633
C9 C 0.3910(7) 0.3727(7) 0.1574(6)
H8 H 0.3834 0.4513 0.0927
H9 H 0.4020 0.4306 0.2339
O1 O 0.5192(7) 0.2818(8) 0.1713(7)
C10 C 0.532(3) 0.229(3) 0.054(2)
H12 H 0.6229 0.1662 0.0679
H13 H 0.5368 0.3206 0.0043
H14 H 0.4445 0.1654 0.0125
C7B C -0.0117(6) 0.2304(5) -0.0083(4)
C1B C -0.1251(6) 0.2400(5) -0.1351(4)
H1B H -0.2273 0.2260 -0.1293
H2B H -0.1196 0.3450 -0.1703
C2B C -0.0922(6) 0.1073(5) -0.2220(4)
H3B H 0.0079 0.1251 -0.2314
H4B H -0.1672 0.1149 -0.3034
C3B C -0.0980(5) -0.0571(5) -0.1699(4)
C4B C -0.2318(5) -0.1432(6) -0.1953(4)
H5B H -0.3154 -0.1111 -0.2608
C5B C -0.2459(6) -0.2778(6) -0.1254(5)
C6B C -0.1245(6) -0.3146(5) -0.0219(4)
H6B H -0.1348 -0.3985 0.0290
C8B C 0.0260(5) -0.1109(5) -0.0735(4)
H7B H 0.1215 -0.0657 -0.0633
C9B C -0.3910(7) -0.3727(7) -0.1574(6)
H8B H -0.3834 -0.4513 -0.0927
H9B H -0.4020 -0.4306 -0.2339
O1B O -0.5192(7) -0.2818(8) -0.1713(7)
C10B C -0.532(3) -0.229(3) -0.054(2)
H12B H -0.6229 -0.1662 -0.0679
H13B H -0.5368 -0.3206 -0.0043
H14B H -0.4445 -0.1654 -0.0125
H10? H 0.3679 0.4829 0.1723
H11? H 0.4598 0.3312 0.2342
O2? O 0.4663(10) 0.3717(12) 0.0678(9)
C11? C 0.500(4) 0.211(3) 0.039(4)
H15? H 0.5512 0.2133 -0.0225
H16? H 0.4062 0.1519 0.0088
H17? H 0.5638 0.1605 0.1131
loop_
_geom_bond_atom_site_label_1
_geom_bond_atom_site_label_2
_geom_bond_site_symmetry_1
_geom_bond_site_symmetry_2
C1 H1 1_555 1_555
H2 C1 1_555 1_555
C2 C1 1_555 1_555
H3 C2 1_555 1_555
H4 C2 1_555 1_555
C3 C2 1_555 1_555
C4 C3 1_555 1_555
H5 C4 1_555 1_555
C5 C4 1_555 1_555
C6 C5 1_555 1_555
H6 C6 1_555 1_555
C7 C1 1_555 1_555
C8 C3 1_555 1_555
H7 C8 1_555 1_555
C9 C5 1_555 1_555
H8 C9 1_555 1_555
H9 C9 1_555 1_555
O1 C9 1_555 1_555
C10 O1 1_555 1_555
H12 C10 1_555 1_555
H13 C10 1_555 1_555
H14 C10 1_555 1_555
C7B C6 1_555 1_555
C1B C7B 1_555 1_555
H1B C1B 1_555 1_555
H2B C1B 1_555 1_555
C2B C1B 1_555 1_555
H3B C2B 1_555 1_555
H4B C2B 1_555 1_555
C3B C2B 1_555 1_555
C4B C3B 1_555 1_555
H5B C4B 1_555 1_555
C5B C4B 1_555 1_555
C6B C7 1_555 1_555
H6B C6B 1_555 1_555
C8B C7 1_555 1_555
H7B C8B 1_555 1_555
C9B C5B 1_555 1_555
H8B C9B 1_555 1_555
H9B C9B 1_555 1_555
O1B C9B 1_555 1_555
C10B O1B 1_555 1_555
H12B C10B 1_555 1_555
H13B C10B 1_555 1_555
H14B C10B 1_555 1_555
C8 C7B 1_555 1_555
C3B C8B 1_555 1_555
C5B C6B 1_555 1_555

#END
