
#######################################################################
#
#                 Cambridge Crystallographic Data Centre
#                                CCDC 
#
#######################################################################
#
# If this CIF has been generated from an entry in the Cambridge 
# Structural Database, then it will include bibliographic, chemical, 
# crystal, experimental, refinement or atomic coordinate data resulting 
# from the CCDC's data processing and validation procedures.
#
#######################################################################

data_QITLOU
_chemical_formula_moiety         'C28 H36'
_chemical_name_systematic        
2,11-Dimethylene-6,15-di-t-butyl-(3.3)metacyclophane
_symmetry_cell_setting           tetragonal
_symmetry_space_group_name_H-M   'P -4 21 m'
_symmetry_Int_Tables_number      113
_space_group_name_Hall           'P -4 2ab'
loop_
_symmetry_equiv_pos_site_id
_symmetry_equiv_pos_as_xyz
1 x,y,z
2 -x,-y,z
3 y,-x,-z
4 -y,x,-z
5 1/2-x,1/2+y,-z
6 1/2+x,1/2-y,-z
7 1/2-y,1/2-x,z
8 1/2+y,1/2+x,z
_cell_length_a                   8.759(1)
_cell_length_b                   8.759(1)
_cell_length_c                   15.596(1)
_cell_angle_alpha                90
_cell_angle_beta                 90
_cell_angle_gamma                90
_cell_volume                     1196.53
_exptl_crystal_colour            colorless
_exptl_crystal_description       plates
_cell_formula_units_Z            2
loop_
_atom_site_label
_atom_site_type_symbol
_atom_site_fract_x
_atom_site_fract_y
_atom_site_fract_z
C1 C 0.8457(4) 0.3457(4) 0.1615(2)
H1 H 0.8146 0.4445 0.1746
H2 H 0.9416 0.3117 0.1785
C2 C 0.7538(2) 0.2538(2) 0.11886(16)
C3 C 0.8056(3) 0.0985(3) 0.09064(19)
H3 H 0.9148 0.0908 0.0999
H4 H 0.7876 0.0889 0.0295
C4 C 0.7285(2) -0.0334(2) 0.13572(13)
C5 C 0.6194(2) -0.1194(2) 0.09297(19)
H5 H 0.6037 -0.1037 0.0347
C6 C 0.7588(2) -0.0672(2) 0.22011(13)
H6 H 0.8332 -0.0113 0.2488
C7 C 0.6822(2) -0.1822(2) 0.26426(17)
C8 C 0.7231(3) -0.2231(3) 0.35645(19)
C10 C 0.8839(7) -0.2950(8) 0.3571(3)
H10 H 0.9550 -0.2262 0.3307
H12 H 0.9145 -0.3142 0.4152
C11 C 0.6129(11) -0.3303(12) 0.3979(6)
H13 H 0.6452 -0.3509 0.4556
H14 H 0.6096 -0.4241 0.3661
H15 H 0.5132 -0.2849 0.3987
C4F C 0.5334(2) -0.2285(2) 0.13572(13)
C3F C 0.4015(3) -0.3056(3) 0.09064(19)
C2F C 0.2462(2) -0.2538(2) 0.11886(16)
C1F C 0.1543(4) -0.3457(4) 0.1615(2)
H1F H 0.0555 -0.3146 0.1746
H1A H 0.1854 -0.4445 0.1746
C3A C 0.1944(3) -0.0985(3) 0.09064(19)
H3A H 0.0852 -0.0908 0.0999
H4A H 0.2124 -0.0889 0.0295
C4A C 0.2715(2) 0.0334(2) 0.13572(13)
C5A C 0.3806(2) 0.1194(2) 0.09297(19)
C4G C 0.4666(2) 0.2285(2) 0.13572(13)
C3G C 0.5985(3) 0.3056(3) 0.09064(19)
H3G H 0.5908 0.4148 0.0999
H4G H 0.5889 0.2876 0.0295
C6G C 0.4328(2) 0.2588(2) 0.22011(13)
H6G H 0.4887 0.3332 0.2488
C7G C 0.3178(2) 0.1822(2) 0.26426(17)
C6A C 0.2412(2) 0.0672(2) 0.22011(13)
H6A H 0.1668 0.0113 0.2488
C8G C 0.2769(3) 0.2231(3) 0.35645(19)
C10G C 0.2050(8) 0.3839(7) 0.3571(3)
C10A C 0.1161(7) 0.2950(8) 0.3571(3)
C11G C 0.1697(12) 0.1129(11) 0.3979(6)
H13G H 0.1491 0.1452 0.4556
H14G H 0.0759 0.1096 0.3661
H15G H 0.2151 0.0132 0.3987
C11A C 0.3871(11) 0.3303(12) 0.3979(6)
H13A H 0.3548 0.3509 0.4556
H14A H 0.3904 0.4241 0.3661
H15A H 0.4868 0.2849 0.3987
H10A H 0.0450 0.2262 0.3307
H12A H 0.0855 0.3142 0.4152
H10G H 0.2738 0.4550 0.3307
H12G H 0.1858 0.4145 0.4152
H5A H 0.3963 0.1037 0.0347
H3F H 0.4092 -0.4148 0.0999
H4F H 0.4111 -0.2876 0.0295
C6F C 0.5672(2) -0.2588(2) 0.22011(13)
H6F H 0.5113 -0.3332 0.2488
C10F C 0.7950(8) -0.3839(7) 0.3571(3)
H10F H 0.7262 -0.4550 0.3307
H12F H 0.8142 -0.4145 0.4152
C11F C 0.8303(12) -0.1129(11) 0.3979(6)
H13F H 0.8509 -0.1452 0.4556
H14F H 0.9241 -0.1096 0.3661
H15F H 0.7849 -0.0132 0.3987
C9? C 0.7342(11) -0.0784(10) 0.4097(6)
H7? H 0.8062 -0.0099 0.3838
H8? H 0.7675 -0.1036 0.4666
H9? H 0.6358 -0.0302 0.4124
H11? H 0.8821 -0.3894 0.3258
loop_
_geom_bond_atom_site_label_1
_geom_bond_atom_site_label_2
_geom_bond_site_symmetry_1
_geom_bond_site_symmetry_2
C1 H1 1_555 1_555
H2 C1 1_555 1_555
C2 C1 1_555 1_555
C3 C2 1_555 1_555
H3 C3 1_555 1_555
H4 C3 1_555 1_555
C4 C3 1_555 1_555
C5 C4 1_555 1_555
H5 C5 1_555 1_555
C6 C4 1_555 1_555
H6 C6 1_555 1_555
C7 C6 1_555 1_555
C8 C7 1_555 1_555
C10 C8 1_555 1_555
H10 C10 1_555 1_555
H12 C10 1_555 1_555
C11 C8 1_555 1_555
H13 C11 1_555 1_555
H14 C11 1_555 1_555
H15 C11 1_555 1_555
C4F C5 1_555 1_555
C3F C4F 1_555 1_555
C2F C3F 1_555 1_555
C1F C2F 1_555 1_555
H1F C1F 1_555 1_555
H1A C1F 1_555 1_555
C3A C2F 1_555 1_555
H3A C3A 1_555 1_555
H4A C3A 1_555 1_555
C4A C3A 1_555 1_555
C5A C4A 1_555 1_555
C4G C5A 1_555 1_555
C3G C2 1_555 1_555
H3G C3G 1_555 1_555
H4G C3G 1_555 1_555
C6G C4G 1_555 1_555
H6G C6G 1_555 1_555
C7G C6G 1_555 1_555
C6A C4A 1_555 1_555
H6A C6A 1_555 1_555
C8G C7G 1_555 1_555
C10G C8G 1_555 1_555
C10A C8G 1_555 1_555
C11G C8G 1_555 1_555
H13G C11G 1_555 1_555
H14G C11G 1_555 1_555
H15G C11G 1_555 1_555
C11A C8G 1_555 1_555
H13A C11A 1_555 1_555
H14A C11A 1_555 1_555
H15A C11A 1_555 1_555
H10A C10A 1_555 1_555
H12A C10A 1_555 1_555
H10G C10G 1_555 1_555
H12G C10G 1_555 1_555
H5A C5A 1_555 1_555
H3F C3F 1_555 1_555
H4F C3F 1_555 1_555
C6F C7 1_555 1_555
H6F C6F 1_555 1_555
C10F C8 1_555 1_555
H10F C10F 1_555 1_555
H12F C10F 1_555 1_555
C11F C8 1_555 1_555
H13F C11F 1_555 1_555
H14F C11F 1_555 1_555
H15F C11F 1_555 1_555
C10 C10F 1_555 1_555
C4F C6F 1_555 1_555
C4G C3G 1_555 1_555
C7G C6A 1_555 1_555
C10G C10A 1_555 1_555

#END
