
#######################################################################
#
#                 Cambridge Crystallographic Data Centre
#                                CCDC 
#
#######################################################################
#
# If this CIF has been generated from an entry in the Cambridge 
# Structural Database, then it will include bibliographic, chemical, 
# crystal, experimental, refinement or atomic coordinate data resulting 
# from the CCDC's data processing and validation procedures.
#
#######################################################################

data_QITNOW
_chemical_formula_moiety         'C26 H42 N2 P2'
_chemical_name_systematic        
'P,P-Di-t-butyl-N-(2,2-di-t-butyl-2\l^5^-indeno(1,2-d)(1,2)azaphosphol-3(8H)-ylidene)phosphinous amide'
_symmetry_cell_setting           monoclinic
_symmetry_space_group_name_H-M   'P 21/n'
_symmetry_Int_Tables_number      14
_space_group_name_Hall           '-P 2yn'
loop_
_symmetry_equiv_pos_site_id
_symmetry_equiv_pos_as_xyz
1 x,y,z
2 1/2-x,1/2+y,1/2-z
3 -x,-y,-z
4 1/2+x,1/2-y,1/2+z
_cell_length_a                   11.008(2)
_cell_length_b                   12.2100(10)
_cell_length_c                   19.816(3)
_cell_angle_alpha                90
_cell_angle_beta                 104.310(10)
_cell_angle_gamma                90
_cell_volume                     2580.78
_exptl_crystal_colour            orange
_exptl_crystal_description       prism
_cell_formula_units_Z            4
loop_
_atom_site_label
_atom_site_type_symbol
_atom_site_fract_x
_atom_site_fract_y
_atom_site_fract_z
C1 C 0.1620(2) 0.6543(2) 0.40881(11)
C2 C 0.0557(3) 0.7200(2) 0.39959(11)
H1 H -0.0226 0.6951 0.3719
C3 C 0.0651(3) 0.8218(2) 0.43114(12)
H2 H -0.0079 0.8658 0.4254
C4 C 0.1775(3) 0.8609(2) 0.47062(12)
H3 H 0.1816 0.9308 0.4921
C5 C 0.2847(3) 0.7976(2) 0.47893(12)
H4 H 0.3629 0.8246 0.5054
C6 C 0.2777(2) 0.6957(2) 0.44885(11)
C7 C 0.3804(2) 0.6130(2) 0.45186(12)
H5 H 0.4455 0.6419 0.4300
H6 H 0.4202 0.5917 0.5005
C8 C 0.3131(2) 0.5187(2) 0.41164(11)
C9 C 0.1841(2) 0.5429(2) 0.38495(11)
C10 C 0.1178(2) 0.4532(2) 0.34691(11)
N1 N 0.36505(19) 0.42180(18) 0.40192(9)
N2 N 0.00526(19) 0.42473(17) 0.31062(9)
P1 P 0.24597(7) 0.35047(6) 0.35633(3)
C11 C 0.2739(3) 0.3188(2) 0.27044(12)
C12 C 0.1622(3) 0.2602(3) 0.22247(13)
H7 H 0.0851 0.3010 0.2214
H8 H 0.1552 0.1860 0.2400
H9 H 0.1750 0.2561 0.1753
C13 C 0.2930(3) 0.4302(2) 0.23880(13)
H10 H 0.3077 0.4193 0.1925
H11 H 0.3656 0.4671 0.2688
H12 H 0.2180 0.4753 0.2349
C14 C 0.3934(3) 0.2508(3) 0.27936(13)
H13 H 0.3783 0.1764 0.2940
H14 H 0.4611 0.2847 0.3148
H15 H 0.4175 0.2477 0.2350
C15 C 0.2187(3) 0.2328(2) 0.40911(12)
C16 C 0.3345(3) 0.1606(3) 0.42886(15)
H16 H 0.3243 0.1071 0.4639
H17 H 0.4083 0.2061 0.4480
H18 H 0.3455 0.1220 0.3874
C17 C 0.1053(3) 0.1675(3) 0.37319(13)
H19 H 0.1221 0.1298 0.3328
H20 H 0.0335 0.2167 0.3577
H21 H 0.0863 0.1133 0.4056
C18 C 0.1971(3) 0.2830(2) 0.47620(13)
H22 H 0.1814 0.2245 0.5068
H23 H 0.1245 0.3322 0.4646
H24 H 0.2716 0.3245 0.5000
P2 P -0.12085(7) 0.51344(6) 0.29253(3)
C19 C -0.1941(2) 0.4665(2) 0.20086(12)
C20 C -0.1074(3) 0.5139(2) 0.15852(12)
H25 H -0.1409 0.4966 0.1091
H26 H -0.0236 0.4819 0.1747
H27 H -0.1021 0.5936 0.1646
C21 C -0.2056(3) 0.3433(2) 0.18816(12)
H28 H -0.2754 0.3147 0.2054
H29 H -0.1276 0.3073 0.2127
H30 H -0.2210 0.3286 0.1381
C22 C -0.3223(3) 0.5219(2) 0.17597(13)
H31 H -0.3484 0.5200 0.1250
H32 H -0.3165 0.5981 0.1919
H33 H -0.3841 0.4829 0.1951
C23 C -0.2141(2) 0.4575(2) 0.35339(12)
C24 C -0.1282(3) 0.4746(3) 0.42679(12)
H34 H -0.1746 0.4576 0.4618
H35 H -0.1000 0.5510 0.4320
H36 H -0.0553 0.4261 0.4332
C25 C -0.2504(3) 0.3381(3) 0.34530(14)
H37 H -0.2794 0.3140 0.3858
H38 H -0.1775 0.2944 0.3418
H39 H -0.3178 0.3283 0.3030
C26 C -0.3311(3) 0.5294(3) 0.34737(15)
H40 H -0.3885 0.5190 0.3014
H41 H -0.3061 0.6065 0.3533
H42 H -0.3733 0.5083 0.3835
loop_
_geom_bond_atom_site_label_1
_geom_bond_atom_site_label_2
_geom_bond_site_symmetry_1
_geom_bond_site_symmetry_2
C1 C2 1_555 1_555
C2 H1 1_555 1_555
C3 C2 1_555 1_555
H2 C3 1_555 1_555
C4 C3 1_555 1_555
H3 C4 1_555 1_555
C5 C4 1_555 1_555
H4 C5 1_555 1_555
C6 C1 1_555 1_555
C7 C6 1_555 1_555
H5 C7 1_555 1_555
H6 C7 1_555 1_555
C8 C7 1_555 1_555
C9 C1 1_555 1_555
C10 C9 1_555 1_555
N1 C8 1_555 1_555
N2 C10 1_555 1_555
P1 C10 1_555 1_555
C11 P1 1_555 1_555
C12 C11 1_555 1_555
H7 C12 1_555 1_555
H8 C12 1_555 1_555
H9 C12 1_555 1_555
C13 C11 1_555 1_555
H10 C13 1_555 1_555
H11 C13 1_555 1_555
H12 C13 1_555 1_555
C14 C11 1_555 1_555
H13 C14 1_555 1_555
H14 C14 1_555 1_555
H15 C14 1_555 1_555
C15 P1 1_555 1_555
C16 C15 1_555 1_555
H16 C16 1_555 1_555
H17 C16 1_555 1_555
H18 C16 1_555 1_555
C17 C15 1_555 1_555
H19 C17 1_555 1_555
H20 C17 1_555 1_555
H21 C17 1_555 1_555
C18 C15 1_555 1_555
H22 C18 1_555 1_555
H23 C18 1_555 1_555
H24 C18 1_555 1_555
P2 N2 1_555 1_555
C19 P2 1_555 1_555
C20 C19 1_555 1_555
H25 C20 1_555 1_555
H26 C20 1_555 1_555
H27 C20 1_555 1_555
C21 C19 1_555 1_555
H28 C21 1_555 1_555
H29 C21 1_555 1_555
H30 C21 1_555 1_555
C22 C19 1_555 1_555
H31 C22 1_555 1_555
H32 C22 1_555 1_555
H33 C22 1_555 1_555
C23 P2 1_555 1_555
C24 C23 1_555 1_555
H34 C24 1_555 1_555
H35 C24 1_555 1_555
H36 C24 1_555 1_555
C25 C23 1_555 1_555
H37 C25 1_555 1_555
H38 C25 1_555 1_555
H39 C25 1_555 1_555
C26 C23 1_555 1_555
H40 C26 1_555 1_555
H41 C26 1_555 1_555
H42 C26 1_555 1_555
C5 C6 1_555 1_555
C8 C9 1_555 1_555
N1 P1 1_555 1_555

#END
