
#######################################################################
#
#                 Cambridge Crystallographic Data Centre
#                                CCDC 
#
#######################################################################
#
# If this CIF has been generated from an entry in the Cambridge 
# Structural Database, then it will include bibliographic, chemical, 
# crystal, experimental, refinement or atomic coordinate data resulting 
# from the CCDC's data processing and validation procedures.
#
#######################################################################

data_QIVBII
_chemical_formula_moiety         'C24 H20 B1 1-,C7 H16 N1 O1 1+,C2 H3 N1'
_chemical_name_systematic        
'butoxy-N,N-dimethylmethaniminium tetraphenylborate acetonitrile solvate'
_symmetry_cell_setting           monoclinic
_symmetry_space_group_name_H-M   'P 21/n'
_symmetry_Int_Tables_number      14
_space_group_name_Hall           '-P 2yn'
loop_
_symmetry_equiv_pos_site_id
_symmetry_equiv_pos_as_xyz
1 x,y,z
2 1/2-x,1/2+y,1/2-z
3 -x,-y,-z
4 1/2+x,1/2-y,1/2+z
_cell_length_a                   11.2463(4)
_cell_length_b                   17.7975(9)
_cell_length_c                   14.6666(7)
_cell_angle_alpha                90
_cell_angle_beta                 100.821(3)
_cell_angle_gamma                90
_cell_volume                     2883.41
_exptl_crystal_colour            colorless
_exptl_crystal_description       block
_cell_formula_units_Z            4
_exptl_crystal_recrystallization_method acetonitrile
loop_
_atom_site_label
_atom_site_type_symbol
_atom_site_fract_x
_atom_site_fract_y
_atom_site_fract_z
N1 N 1.05819(11) 0.19695(7) 1.00987(8)
C1 C 1.14020(14) 0.25442(10) 1.05776(12)
H1 H 1.0929 0.2939 1.0810
H2 H 1.1870 0.2763 1.0144
H3 H 1.1955 0.2315 1.1099
C2 C 1.11443(15) 0.13197(10) 0.97325(12)
H4 H 1.0513 0.0972 0.9437
H5 H 1.1680 0.1063 1.0242
H6 H 1.1616 0.1490 0.9274
C3 C 0.94283(13) 0.20482(9) 0.99683(10)
H7 H 0.9082(15) 0.2476(10) 1.0209(11)
O1 O 0.87394(9) 0.15411(6) 0.95062(7)
C4 C 0.74205(13) 0.16696(9) 0.93430(11)
H8 H 0.7242 0.2209 0.9218
H9 H 0.7093 0.1521 0.9898
C5 C 0.68533(15) 0.12077(10) 0.85260(13)
H10 H 0.7175 0.1374 0.7976
H11 H 0.5969 0.1300 0.8398
C6 C 0.70789(17) 0.03642(10) 0.86623(14)
H12 H 0.7962 0.0271 0.8814
H13 H 0.6722 0.0190 0.9193
C7 C 0.65349(17) -0.00822(11) 0.78020(14)
H14 H 0.6697 -0.0618 0.7917
H15 H 0.6898 0.0082 0.7278
H16 H 0.5659 0.0002 0.7656
B1 B 0.29162(15) 0.22427(9) 0.73749(11)
C10 C 0.35342(12) 0.18276(8) 0.83517(10)
C11 C 0.35346(13) 0.10426(8) 0.84668(10)
H21 H 0.3228 0.0737 0.7945
C12 C 0.39659(13) 0.06971(9) 0.93151(11)
H22 H 0.3966 0.0165 0.9361
C13 C 0.43964(13) 0.11303(9) 1.00947(11)
H23 H 0.4693 0.0897 1.0675
C14 C 0.43886(13) 0.19056(9) 1.00171(10)
H24 H 0.4663 0.2207 1.0549
C15 C 0.39780(13) 0.22429(8) 0.91588(10)
H25 H 0.3999 0.2775 0.9117
C16 C 0.29953(13) 0.17201(8) 0.64632(10)
C17 C 0.40218(14) 0.12851(8) 0.64120(11)
H26 H 0.4655 0.1264 0.6941
C18 C 0.41546(15) 0.08837(9) 0.56222(11)
H27 H 0.4866 0.0596 0.5622
C19 C 0.32541(15) 0.09030(9) 0.48393(11)
H28 H 0.3336 0.0627 0.4300
C20 C 0.22291(15) 0.13319(9) 0.48557(10)
H29 H 0.1604 0.1354 0.4322
C21 C 0.21100(14) 0.17302(8) 0.56495(10)
H30 H 0.1400 0.2021 0.5641
C22 C 0.15186(13) 0.24097(8) 0.75026(9)
C23 C 0.05601(13) 0.19093(9) 0.72214(10)
H31 H 0.0714 0.1458 0.6919
C24 C -0.06111(14) 0.20452(10) 0.73668(11)
H32 H -0.1240 0.1695 0.7153
C25 C -0.08547(14) 0.26923(10) 0.78234(11)
H33 H -0.1653 0.2793 0.7916
C26 C 0.00722(15) 0.31904(10) 0.81425(11)
H34 H -0.0082 0.3629 0.8470
C27 C 0.12320(14) 0.30481(9) 0.79832(11)
H35 H 0.1857 0.3397 0.8209
C28 C 0.36367(13) 0.30231(8) 0.72107(10)
C29 C 0.30508(14) 0.36477(8) 0.67425(10)
H36 H 0.2197 0.3630 0.6544
C30 C 0.36669(15) 0.42920(9) 0.65570(11)
H37 H 0.3233 0.4700 0.6235
C31 C 0.49117(15) 0.43391(9) 0.68403(11)
H38 H 0.5335 0.4780 0.6723
C32 C 0.55292(14) 0.37329(9) 0.72968(11)
H39 H 0.6383 0.3756 0.7492
C33 C 0.49002(14) 0.30897(8) 0.74708(10)
H40 H 0.5345 0.2679 0.7778
N2 N 0.8185(2) 0.08990(10) 0.54785(13)
C34 C 0.83893(19) 0.06303(10) 0.48185(14)
C35 C 0.86399(19) 0.02888(10) 0.39784(13)
H41 H 0.7999 -0.0072 0.3738
H42 H 0.9420 0.0028 0.4116
H43 H 0.8670 0.0680 0.3512
C8? C 0.6903(11) 0.0909(7) 0.8972(10)
H17? H 0.7235 0.0513 0.9422
H18? H 0.6014 0.0917 0.8928
C9? C 0.7178(10) 0.0710(6) 0.8041(8)
H19? H 0.8062 0.0669 0.8069
H20? H 0.6845 0.1091 0.7570
loop_
_geom_bond_atom_site_label_1
_geom_bond_atom_site_label_2
_geom_bond_site_symmetry_1
_geom_bond_site_symmetry_2
N1 C1 1_555 1_555
C1 H1 1_555 1_555
H2 C1 1_555 1_555
H3 C1 1_555 1_555
C2 N1 1_555 1_555
H4 C2 1_555 1_555
H5 C2 1_555 1_555
H6 C2 1_555 1_555
C3 N1 1_555 1_555
H7 C3 1_555 1_555
O1 C3 1_555 1_555
C4 O1 1_555 1_555
H8 C4 1_555 1_555
H9 C4 1_555 1_555
C5 C4 1_555 1_555
H10 C5 1_555 1_555
H11 C5 1_555 1_555
C6 C5 1_555 1_555
H12 C6 1_555 1_555
H13 C6 1_555 1_555
C7 C6 1_555 1_555
H14 C7 1_555 1_555
H15 C7 1_555 1_555
H16 C7 1_555 1_555
B1 C10 1_555 1_555
C10 C11 1_555 1_555
C11 H21 1_555 1_555
C12 C11 1_555 1_555
H22 C12 1_555 1_555
C13 C12 1_555 1_555
H23 C13 1_555 1_555
C14 C13 1_555 1_555
H24 C14 1_555 1_555
C15 C10 1_555 1_555
H25 C15 1_555 1_555
C16 B1 1_555 1_555
C17 C16 1_555 1_555
H26 C17 1_555 1_555
C18 C17 1_555 1_555
H27 C18 1_555 1_555
C19 C18 1_555 1_555
H28 C19 1_555 1_555
C20 C19 1_555 1_555
H29 C20 1_555 1_555
C21 C16 1_555 1_555
H30 C21 1_555 1_555
C22 B1 1_555 1_555
C23 C22 1_555 1_555
H31 C23 1_555 1_555
C24 C23 1_555 1_555
H32 C24 1_555 1_555
C25 C24 1_555 1_555
H33 C25 1_555 1_555
C26 C25 1_555 1_555
H34 C26 1_555 1_555
C27 C22 1_555 1_555
H35 C27 1_555 1_555
C28 B1 1_555 1_555
C29 C28 1_555 1_555
H36 C29 1_555 1_555
C30 C29 1_555 1_555
H37 C30 1_555 1_555
C31 C30 1_555 1_555
H38 C31 1_555 1_555
C32 C31 1_555 1_555
H39 C32 1_555 1_555
C33 C28 1_555 1_555
H40 C33 1_555 1_555
N2 C34 1_555 1_555
C34 C35 1_555 1_555
C35 H41 1_555 1_555
H42 C35 1_555 1_555
H43 C35 1_555 1_555
C14 C15 1_555 1_555
C20 C21 1_555 1_555
C26 C27 1_555 1_555
C32 C33 1_555 1_555

#END
