
#######################################################################
#
#                 Cambridge Crystallographic Data Centre
#                                CCDC 
#
#######################################################################
#
# If this CIF has been generated from an entry in the Cambridge 
# Structural Database, then it will include bibliographic, chemical, 
# crystal, experimental, refinement or atomic coordinate data resulting 
# from the CCDC's data processing and validation procedures.
#
#######################################################################

data_QIWCEF
_chemical_formula_moiety         'C18 H21 N1 O2'
_chemical_name_systematic        
(1'R,2R,3R)-1-(1'-Phenylethyl)-2-(3-methoxyphenyl)-3-hydroxyazetidine
_symmetry_cell_setting           monoclinic
_symmetry_space_group_name_H-M   'P 21'
_symmetry_Int_Tables_number      4
_space_group_name_Hall           'P 2yb'
loop_
_symmetry_equiv_pos_site_id
_symmetry_equiv_pos_as_xyz
1 x,y,z
2 -x,1/2+y,-z
_cell_length_a                   9.1306(12)
_cell_length_b                   7.0797(9)
_cell_length_c                   12.5002(14)
_cell_angle_alpha                90
_cell_angle_beta                 95.645(8)
_cell_angle_gamma                90
_cell_volume                     804.118
_exptl_crystal_colour            colorless
_exptl_crystal_description       prism
_chemical_melting_point          75-77deg.C
_cell_formula_units_Z            2
loop_
_atom_site_label
_atom_site_type_symbol
_atom_site_fract_x
_atom_site_fract_y
_atom_site_fract_z
O1 O 0.5249(2) 0.3968(3) 0.47088(16)
H1 H 0.567(4) 0.284(6) 0.446(3)
O2 O 0.8541(2) 0.1221(3) 0.80396(17)
N1 N 0.3242(3) 0.5864(3) 0.60290(17)
C1 C 0.2733(3) 0.4771(5) 0.5031(2)
H2 H 0.2758 0.5508 0.4360
H3 H 0.1763 0.4157 0.5059
C2 C 0.4035(3) 0.3425(4) 0.5255(2)
H4 H 0.3771 0.2057 0.5178
C3 C 0.4117(3) 0.4176(4) 0.6435(2)
H5 H 0.3505 0.3359 0.6868
C4 C 0.2041(3) 0.6480(4) 0.6662(2)
H6 H 0.1456 0.5339 0.6823
C5 C 0.2652(3) 0.7346(4) 0.7721(2)
C6 C 0.2616(3) 0.6333(5) 0.8675(2)
H7 H 0.2225 0.5089 0.8651
C7 C 0.3143(3) 0.7109(5) 0.9659(2)
H8 H 0.3108 0.6397 1.0300
C8 C 0.3718(3) 0.8922(5) 0.9706(3)
H9 H 0.4067 0.9462 1.0379
C9 C 0.3782(3) 0.9947(5) 0.8758(2)
H10 H 0.4182 1.1187 0.8782
C10 C 0.3255(3) 0.9140(4) 0.7776(2)
H11 H 0.3311 0.9838 0.7132
C11 C 0.1027(4) 0.7823(5) 0.5985(2)
H12 H 0.0622 0.7178 0.5328
H13 H 0.1587 0.8935 0.5795
H14 H 0.0221 0.8220 0.6397
C12 C 0.5626(3) 0.4446(4) 0.70297(19)
C13 C 0.6434(3) 0.2807(4) 0.7307(2)
H15 H 0.6008 0.1603 0.7148
C14 C 0.7856(3) 0.2931(4) 0.7813(2)
C15 C 0.8491(3) 0.4673(5) 0.8054(2)
H16 H 0.9464 0.4761 0.8397
C16 C 0.7675(3) 0.6294(5) 0.7783(2)
H17 H 0.8098 0.7495 0.7954
C17 C 0.6262(3) 0.6199(4) 0.7272(2)
H18 H 0.5730 0.7325 0.7087
C18 C 0.9987(3) 0.1274(6) 0.8604(3)
H19 H 0.9953 0.1953 0.9285
H20 H 1.0661 0.1923 0.8163
H21 H 1.0335 -0.0019 0.8751
loop_
_geom_bond_atom_site_label_1
_geom_bond_atom_site_label_2
_geom_bond_site_symmetry_1
_geom_bond_site_symmetry_2
O1 H1 1_555 1_555
O2 C14 1_555 1_555
N1 C1 1_555 1_555
C1 H2 1_555 1_555
H3 C1 1_555 1_555
C2 O1 1_555 1_555
H4 C2 1_555 1_555
C3 N1 1_555 1_555
H5 C3 1_555 1_555
C4 N1 1_555 1_555
H6 C4 1_555 1_555
C5 C4 1_555 1_555
C6 C5 1_555 1_555
H7 C6 1_555 1_555
C7 C6 1_555 1_555
H8 C7 1_555 1_555
C8 C7 1_555 1_555
H9 C8 1_555 1_555
C9 C8 1_555 1_555
H10 C9 1_555 1_555
C10 C5 1_555 1_555
H11 C10 1_555 1_555
C11 C4 1_555 1_555
H12 C11 1_555 1_555
H13 C11 1_555 1_555
H14 C11 1_555 1_555
C12 C3 1_555 1_555
C13 C12 1_555 1_555
H15 C13 1_555 1_555
C14 C13 1_555 1_555
C15 C14 1_555 1_555
H16 C15 1_555 1_555
C16 C15 1_555 1_555
H17 C16 1_555 1_555
C17 C12 1_555 1_555
H18 C17 1_555 1_555
C18 O2 1_555 1_555
H19 C18 1_555 1_555
H20 C18 1_555 1_555
H21 C18 1_555 1_555
C1 C2 1_555 1_555
C2 C3 1_555 1_555
C9 C10 1_555 1_555
C16 C17 1_555 1_555

#END
