
#######################################################################
#
#                 Cambridge Crystallographic Data Centre
#                                CCDC 
#
#######################################################################
#
# If this CIF has been generated from an entry in the Cambridge 
# Structural Database, then it will include bibliographic, chemical, 
# crystal, experimental, refinement or atomic coordinate data resulting 
# from the CCDC's data processing and validation procedures.
#
#######################################################################

data_QIWCIJ
_chemical_formula_moiety         'C18 H21 N1 O2'
_chemical_name_systematic        
(1'R,2S,3S)-1-(1'-Phenylethyl)-2-(4-methoxyphenyl)-3-hydroxyazetidine
_symmetry_cell_setting           monoclinic
_symmetry_space_group_name_H-M   'P 21'
_symmetry_Int_Tables_number      4
_space_group_name_Hall           'P 2yb'
loop_
_symmetry_equiv_pos_site_id
_symmetry_equiv_pos_as_xyz
1 x,y,z
2 -x,1/2+y,-z
_cell_length_a                   12.226(3)
_cell_length_b                   5.8444(16)
_cell_length_c                   12.296(3)
_cell_angle_alpha                90
_cell_angle_beta                 114.222(4)
_cell_angle_gamma                90
_cell_volume                     801.245
_exptl_crystal_colour            colorless
_exptl_crystal_description       block
_chemical_melting_point          81-83deg.C
_cell_formula_units_Z            2
loop_
_atom_site_label
_atom_site_type_symbol
_atom_site_fract_x
_atom_site_fract_y
_atom_site_fract_z
O1 O 0.01460(17) 0.5896(3) 0.81117(16)
H1 H -0.046(3) 0.605(6) 0.738(3)
O2 O 0.17925(15) 0.9453(4) 0.41605(14)
N1 N 0.20575(18) 0.9094(4) 0.95918(16)
C1 C 0.4303(3) 0.7962(6) 1.1571(3)
H2 H 0.4132 0.7173 1.0863
C2 C 0.5182(3) 0.7120(8) 1.2613(3)
H3 H 0.5597 0.5795 1.2598
C3 C 0.5439(3) 0.8231(9) 1.3660(3)
H4 H 0.6042 0.7701 1.4364
C4 C 0.4805(3) 1.0108(9) 1.3661(3)
H5 H 0.4952 1.0834 1.4380
C5 C 0.3930(3) 1.0997(7) 1.2606(3)
H6 H 0.3523 1.2328 1.2628
C6 C 0.3674(2) 0.9918(5) 1.1544(2)
C7 C 0.2788(3) 1.0910(5) 1.0374(2)
H7 H 0.2261 1.1990 1.0537
C8 C 0.3460(3) 1.2180(6) 0.9744(3)
H8 H 0.3905 1.1102 0.9497
H9 H 0.4001 1.3269 1.0282
H10 H 0.2894 1.2965 0.9058
C9 C 0.1172(2) 0.7978(6) 0.9955(2)
H11 H 0.0956 0.8895 1.0496
H12 H 0.1396 0.6441 1.0263
C10 C 0.0240(2) 0.8049(5) 0.8663(2)
H13 H -0.0534 0.8683 0.8574
C11 C 0.1078(2) 0.9838(5) 0.8443(2)
H14 H 0.0818 1.1388 0.8529
C12 C 0.1330(2) 0.9713(4) 0.73481(19)
C13 C 0.0946(2) 1.1448(4) 0.6503(2)
H15 H 0.0565 1.2722 0.6641
C14 C 0.1118(2) 1.1324(4) 0.5455(2)
H16 H 0.0849 1.2501 0.4898
C15 C 0.16914(19) 0.9446(5) 0.52413(19)
C16 C 0.2114(2) 0.7724(5) 0.6079(2)
H17 H 0.2517 0.6477 0.5949
C17 C 0.1930(2) 0.7875(5) 0.7124(2)
H18 H 0.2218 0.6712 0.7687
C18 C 0.2198(3) 0.7401(6) 0.3816(3)
H19 H 0.3015 0.7111 0.4354
H20 H 0.2148 0.7567 0.3020
H21 H 0.1704 0.6143 0.3841
loop_
_geom_bond_atom_site_label_1
_geom_bond_atom_site_label_2
_geom_bond_site_symmetry_1
_geom_bond_site_symmetry_2
O1 H1 1_555 1_555
O2 C15 1_555 1_555
N1 C7 1_555 1_555
C1 H2 1_555 1_555
C2 C1 1_555 1_555
H3 C2 1_555 1_555
C3 C2 1_555 1_555
H4 C3 1_555 1_555
C4 C3 1_555 1_555
H5 C4 1_555 1_555
C5 C4 1_555 1_555
H6 C5 1_555 1_555
C6 C1 1_555 1_555
C7 C6 1_555 1_555
H7 C7 1_555 1_555
C8 C7 1_555 1_555
H8 C8 1_555 1_555
H9 C8 1_555 1_555
H10 C8 1_555 1_555
C9 N1 1_555 1_555
H11 C9 1_555 1_555
H12 C9 1_555 1_555
C10 O1 1_555 1_555
H13 C10 1_555 1_555
C11 N1 1_555 1_555
H14 C11 1_555 1_555
C12 C11 1_555 1_555
C13 C12 1_555 1_555
H15 C13 1_555 1_555
C14 C13 1_555 1_555
H16 C14 1_555 1_555
C15 C14 1_555 1_555
C16 C15 1_555 1_555
H17 C16 1_555 1_555
C17 C12 1_555 1_555
H18 C17 1_555 1_555
C18 O2 1_555 1_555
H19 C18 1_555 1_555
H20 C18 1_555 1_555
H21 C18 1_555 1_555
C5 C6 1_555 1_555
C9 C10 1_555 1_555
C10 C11 1_555 1_555
C16 C17 1_555 1_555

#END
