
#######################################################################
#
#                 Cambridge Crystallographic Data Centre
#                                CCDC 
#
#######################################################################
#
# If this CIF has been generated from an entry in the Cambridge 
# Structural Database, then it will include bibliographic, chemical, 
# crystal, experimental, refinement or atomic coordinate data resulting 
# from the CCDC's data processing and validation procedures.
#
#######################################################################

data_QIWDAC
_chemical_formula_moiety         'C27 H18 N4'
_chemical_name_systematic        tris(4-(2-Cyanoethenyl)phenyl)amine
_symmetry_cell_setting           rhombohedral
_symmetry_space_group_name_H-M   'R -3'
_symmetry_Int_Tables_number      148
_space_group_name_Hall           '-R 3'
loop_
_symmetry_equiv_pos_site_id
_symmetry_equiv_pos_as_xyz
1 x,y,z
2 -y,x-y,z
3 -x+y,-x,z
4 2/3+x,1/3+y,1/3+z
5 2/3-y,1/3+x-y,1/3+z
6 2/3-x+y,1/3-x,1/3+z
7 1/3+x,2/3+y,2/3+z
8 1/3-y,2/3+x-y,2/3+z
9 1/3-x+y,2/3-x,2/3+z
10 -x,-y,-z
11 y,-x+y,-z
12 x-y,x,-z
13 1/3-x,2/3-y,2/3-z
14 1/3+y,2/3-x+y,2/3-z
15 1/3+x-y,2/3+x,2/3-z
16 2/3-x,1/3-y,1/3-z
17 2/3+y,1/3-x+y,1/3-z
18 2/3+x-y,1/3+x,1/3-z
_cell_length_a                   15.244(5)
_cell_length_b                   15.244(5)
_cell_length_c                   16.059(5)
_cell_angle_alpha                90
_cell_angle_beta                 90
_cell_angle_gamma                120.000(5)
_cell_volume                     3231.82
_exptl_crystal_colour            green-yellow
_exptl_crystal_description       cubic
_cell_formula_units_Z            6
_exptl_crystal_recrystallization_method acetone
loop_
_atom_site_label
_atom_site_type_symbol
_atom_site_fract_x
_atom_site_fract_y
_atom_site_fract_z
N1 N 1.0000 1.0000 0.3515(3)
C1 C 0.9201(2) 0.8981(2) 0.3601(2)
C2 C 0.9301(3) 0.8298(2) 0.4100(2)
H1 H 0.9914 0.8488 0.4363
C3 C 0.8483(3) 0.7326(3) 0.4208(2)
H2 H 0.8559 0.6870 0.4541
C4 C 0.7483(3) 0.7700(3) 0.3328(3)
H3 H 0.6870 0.7508 0.3064
C5 C 0.8284(3) 0.8657(3) 0.3198(2)
H4 H 0.8211 0.9093 0.2836
C6 C 0.7558(3) 0.7022(3) 0.3833(2)
C7 C 0.6636(3) 0.6016(3) 0.3988(3)
H5 H 0.6026 0.5924 0.3782
C8 C 0.6606(4) 0.5292(3) 0.4367(3)
H6 H 0.7216 0.5348 0.4535
C9 C 0.5674(4) 0.4358(4) 0.4565(3)
N2 N 0.4961(3) 0.3616(3) 0.4757(3)
C1A C 1.1019(2) 1.0220(3) 0.3601(2)
C1B C 0.9780(3) 1.0799(2) 0.3601(2)
C2A C 1.1702(2) 1.1003(4) 0.4100(2)
C2B C 0.8997(4) 1.0699(3) 0.4100(2)
H1A H 1.1512 1.1426 0.4363
H1B H 0.8574 1.0086 0.4363
C3A C 1.2674(3) 1.1157(4) 0.4208(2)
C3B C 0.8843(4) 1.1517(3) 0.4208(2)
H2A H 1.3130 1.1689 0.4541
H2B H 0.8311 1.1441 0.4541
C4A C 1.2300(3) 0.9783(4) 0.3328(3)
C4B C 1.0217(4) 1.2517(3) 0.3328(3)
H3A H 1.2492 0.9362 0.3064
H3B H 1.0638 1.3130 0.3064
C5A C 1.1343(3) 0.9627(4) 0.3198(2)
C5B C 1.0373(4) 1.1716(3) 0.3198(2)
H4A H 1.0907 0.9118 0.2836
H4B H 1.0882 1.1789 0.2836
C6A C 1.2978(3) 1.0536(4) 0.3833(2)
C6B C 0.9464(4) 1.2442(3) 0.3833(2)
C7A C 1.3984(3) 1.0620(4) 0.3988(3)
C7B C 0.9380(4) 1.3364(3) 0.3988(3)
H5A H 1.4076 1.0102 0.3782
H5B H 0.9898 1.3974 0.3782
C8A C 1.4708(3) 1.1314(5) 0.4367(3)
C8B C 0.8686(5) 1.3394(4) 0.4367(3)
H6A H 1.4652 1.1868 0.4535
H6B H 0.8132 1.2784 0.4535
C9A C 1.5642(4) 1.1316(6) 0.4565(3)
C9B C 0.8684(6) 1.4326(4) 0.4565(3)
N2A N 1.6384(3) 1.1345(4) 0.4757(3)
N2B N 0.8655(4) 1.5039(3) 0.4757(3)
loop_
_geom_bond_atom_site_label_1
_geom_bond_atom_site_label_2
_geom_bond_site_symmetry_1
_geom_bond_site_symmetry_2
N1 C1 1_555 1_555
C1 C2 1_555 1_555
C2 H1 1_555 1_555
C3 C2 1_555 1_555
H2 C3 1_555 1_555
C4 H3 1_555 1_555
C5 C1 1_555 1_555
H4 C5 1_555 1_555
C6 C3 1_555 1_555
C7 C6 1_555 1_555
H5 C7 1_555 1_555
C8 C7 1_555 1_555
H6 C8 1_555 1_555
C9 C8 1_555 1_555
N2 C9 1_555 1_555
C1A N1 1_555 1_555
C1B N1 1_555 1_555
C2A C1A 1_555 1_555
C2B C1B 1_555 1_555
H1A C2A 1_555 1_555
H1B C2B 1_555 1_555
C3A C2A 1_555 1_555
C3B C2B 1_555 1_555
H2A C3A 1_555 1_555
H2B C3B 1_555 1_555
C4A H3A 1_555 1_555
C4B H3B 1_555 1_555
C5A C1A 1_555 1_555
C5B C1B 1_555 1_555
H4A C5A 1_555 1_555
H4B C5B 1_555 1_555
C6A C3A 1_555 1_555
C6B C3B 1_555 1_555
C7A C6A 1_555 1_555
C7B C6B 1_555 1_555
H5A C7A 1_555 1_555
H5B C7B 1_555 1_555
C8A C7A 1_555 1_555
C8B C7B 1_555 1_555
H6A C8A 1_555 1_555
H6B C8B 1_555 1_555
C9A C8A 1_555 1_555
C9B C8B 1_555 1_555
N2A C9A 1_555 1_555
N2B C9B 1_555 1_555
C4 C5 1_555 1_555
C4 C6 1_555 1_555
C4A C5A 1_555 1_555
C4A C6A 1_555 1_555
C4B C5B 1_555 1_555
C4B C6B 1_555 1_555

#END
