
#######################################################################
#
#                 Cambridge Crystallographic Data Centre
#                                CCDC 
#
#######################################################################
#
# If this CIF has been generated from an entry in the Cambridge 
# Structural Database, then it will include bibliographic, chemical, 
# crystal, experimental, refinement or atomic coordinate data resulting 
# from the CCDC's data processing and validation procedures.
#
#######################################################################

data_QIWFIM
_chemical_formula_moiety         'C12 H8 Cl1 N1 O2'
_chemical_name_systematic        
4-Chloro-6-oxo-1-phenyl-1,6-dihydropyridine-3-carbaldehyde
_symmetry_cell_setting           monoclinic
_symmetry_space_group_name_H-M   'P 21/c'
_symmetry_Int_Tables_number      14
_space_group_name_Hall           '-P 2ybc'
loop_
_symmetry_equiv_pos_site_id
_symmetry_equiv_pos_as_xyz
1 x,y,z
2 -x,1/2+y,1/2-z
3 -x,-y,-z
4 x,1/2-y,1/2+z
_cell_length_a                   11.067(5)
_cell_length_b                   12.890(5)
_cell_length_c                   7.536(5)
_cell_angle_alpha                90
_cell_angle_beta                 103.019(5)
_cell_angle_gamma                90
_cell_volume                     1047.4
_exptl_crystal_colour            colorless
_exptl_crystal_description       block
_chemical_melting_point          '149-151 deg.C'
_cell_formula_units_Z            4
loop_
_atom_site_label
_atom_site_type_symbol
_atom_site_fract_x
_atom_site_fract_y
_atom_site_fract_z
Cl1 Cl -0.15492(3) 0.13994(4) -0.09191(6)
N1 N 0.25908(11) 0.12127(9) 0.08723(17)
O1 O 0.24251(10) 0.13938(9) 0.38353(15)
C1 C 0.07803(14) 0.11789(11) -0.1571(2)
C2 C 0.39360(13) 0.11894(12) 0.1430(2)
O2 O -0.07038(12) 0.10545(12) -0.44131(17)
C3 C 0.05754(14) 0.13601(11) 0.1547(2)
H1 H 0.0069 0.1426 0.2372
C4 C 0.00439(14) 0.13046(10) -0.0250(2)
C5 C 0.18923(14) 0.13202(11) 0.2224(2)
C6 C 0.20352(14) 0.11486(12) -0.0911(2)
H2 H 0.2537 0.1080 -0.1742
C7 C 0.46123(14) 0.19849(13) 0.0904(2)
H3 H 0.4215 0.2528 0.0192
C8 C 0.45117(15) 0.03782(14) 0.2481(2)
H4 H 0.4048 -0.0161 0.2809
C9 C 0.64767(16) 0.11684(16) 0.2529(2)
H5 H 0.7336 0.1164 0.2912
C10 C 0.03515(15) 0.10655(14) -0.3547(2)
H6 H 0.0964 0.0994 -0.4205
C11 C 0.58957(15) 0.19614(16) 0.1455(3)
H7 H 0.6364 0.2487 0.1094
C12 C 0.57934(16) 0.03803(16) 0.3041(2)
H8 H 0.6193 -0.0156 0.3768
loop_
_geom_bond_atom_site_label_1
_geom_bond_atom_site_label_2
_geom_bond_site_symmetry_1
_geom_bond_site_symmetry_2
Cl1 C4 1_555 1_555
N1 C2 1_555 1_555
O1 C5 1_555 1_555
C1 C4 1_555 1_555
C2 C7 1_555 1_555
O2 C10 1_555 1_555
C3 H1 1_555 1_555
C4 C3 1_555 1_555
C5 N1 1_555 1_555
C6 N1 1_555 1_555
H2 C6 1_555 1_555
C7 H3 1_555 1_555
C8 C2 1_555 1_555
H4 C8 1_555 1_555
C9 H5 1_555 1_555
C10 C1 1_555 1_555
H6 C10 1_555 1_555
C11 C7 1_555 1_555
H7 C11 1_555 1_555
C12 C8 1_555 1_555
H8 C12 1_555 1_555
C1 C6 1_555 1_555
C3 C5 1_555 1_555
C9 C11 1_555 1_555
C9 C12 1_555 1_555

#END
