
#######################################################################
#
#                 Cambridge Crystallographic Data Centre
#                                CCDC 
#
#######################################################################
#
# If this CIF has been generated from an entry in the Cambridge 
# Structural Database, then it will include bibliographic, chemical, 
# crystal, experimental, refinement or atomic coordinate data resulting 
# from the CCDC's data processing and validation procedures.
#
#######################################################################

data_QIWTUN
_chemical_formula_moiety         'C48 H54 O2 Si2'
_chemical_name_systematic        
(furo[2',3':9,10]pentaceno[2,3-b]furan-6,14-diyldiethyne-2,1-diyl)bis(triisopropylsilane)
_symmetry_cell_setting           monoclinic
_symmetry_space_group_name_H-M   'P 21/n'
_symmetry_Int_Tables_number      14
_space_group_name_Hall           '-P 2yn'
loop_
_symmetry_equiv_pos_site_id
_symmetry_equiv_pos_as_xyz
1 x,y,z
2 1/2-x,1/2+y,1/2-z
3 -x,-y,-z
4 1/2+x,1/2-y,1/2+z
_cell_length_a                   15.1516(6)
_cell_length_b                   18.8603(8)
_cell_length_c                   15.6450(5)
_cell_angle_alpha                90
_cell_angle_beta                 112.5020(10)
_cell_angle_gamma                90
_cell_volume                     4130.4
_exptl_crystal_colour            black
_exptl_crystal_description       prism
_cell_formula_units_Z            4
_chemical_properties_physical    'Oxygen-sensitive, Photo-sensitive'
loop_
_atom_site_label
_atom_site_type_symbol
_atom_site_fract_x
_atom_site_fract_y
_atom_site_fract_z
Si1 Si 0.57103(6) 0.19302(5) 0.30112(6)
Si2 Si 0.47699(7) 0.80878(5) 0.19044(6)
C1 C 0.5421(2) 0.42531(16) 0.24029(19)
C2 C 0.4593(2) 0.42941(16) 0.3486(2)
H1 H 0.4686 0.3798 0.3581
C3 C 0.3790(2) 0.43084(18) 0.4579(2)
H2 H 0.3885 0.3813 0.4685
C4 C 0.2609(3) 0.5103(3) 0.5895(2)
H3 H 0.2306 0.5121 0.6326
C5 C 0.3513(2) 0.57969(18) 0.4308(2)
H4 H 0.3418 0.6295 0.4235
C6 C 0.4322(2) 0.57512(16) 0.32116(19)
H5 H 0.4234 0.6248 0.3124
C7 C 0.5121(2) 0.57340(16) 0.21038(19)
C8 C 0.5829(2) 0.56742(16) 0.09209(19)
H6 H 0.5701 0.6165 0.0795
C9 C 0.6521(2) 0.56291(18) -0.0267(2)
H7 H 0.6369 0.6113 -0.0426
C10 C 0.7736(3) 0.4835(2) -0.1557(2)
H8 H 0.8031 0.4815 -0.1994
C11 C 0.6991(2) 0.41772(18) 0.0171(2)
H9 H 0.7148 0.3691 0.0301
C12 C 0.6224(2) 0.42330(16) 0.12973(19)
H10 H 0.6363 0.3744 0.1427
C13 C 0.4937(2) 0.46310(16) 0.28745(19)
C14 C 0.4122(2) 0.46601(16) 0.39565(19)
C15 C 0.3338(2) 0.46916(18) 0.5018(2)
C16 C 0.3208(2) 0.54257(18) 0.4881(2)
C17 C 0.3983(2) 0.54143(17) 0.38141(19)
C18 C 0.4791(2) 0.53863(16) 0.27280(19)
C19 C 0.5565(2) 0.53474(16) 0.15992(19)
C20 C 0.6271(2) 0.52992(17) 0.04331(19)
C21 C 0.6978(2) 0.52385(19) -0.0700(2)
C22 C 0.7225(2) 0.4525(2) -0.0466(2)
C23 C 0.6503(2) 0.45587(16) 0.06461(19)
C24 C 0.5743(2) 0.45983(16) 0.17732(19)
C25 C 0.5566(2) 0.35046(18) 0.2562(2)
C26 C 0.5656(2) 0.28764(17) 0.2717(2)
C27 C 0.5015(2) 0.64867(17) 0.20018(19)
C28 C 0.4935(2) 0.71251(17) 0.1964(2)
C29 C 0.5833(2) 0.18938(17) 0.4257(2)
H11 H 0.53 0.2186 0.43
C30 C 0.5712(3) 0.11455(18) 0.4574(2)
H12 H 0.5093 0.0953 0.4166
H13 H 0.5739 0.1164 0.521
H14 H 0.6226 0.0841 0.4551
C31 C 0.6765(3) 0.22329(19) 0.4911(2)
H15 H 0.7308 0.1951 0.4912
H16 H 0.6769 0.2249 0.5539
H17 H 0.6814 0.2716 0.4702
C32 C 0.4538(2) 0.15299(19) 0.2261(2)
H18 H 0.4562 0.1013 0.2408
C33 C 0.4341(3) 0.1602(2) 0.1239(2)
H19 H 0.3737 0.1366 0.0876
H20 H 0.4861 0.1381 0.1108
H21 H 0.4298 0.2105 0.1072
C34 C 0.3703(3) 0.1858(2) 0.2458(3)
H22 H 0.3648 0.2362 0.2296
H23 H 0.3823 0.1805 0.3117
H24 H 0.3108 0.1614 0.2088
C35 C 0.6757(2) 0.15151(16) 0.2834(2)
H25 H 0.7328 0.1602 0.3415
C36 C 0.6662(2) 0.07065(17) 0.2713(2)
H26 H 0.6115 0.0594 0.2144
H27 H 0.6566 0.0497 0.3243
H28 H 0.7246 0.0513 0.2674
C37 C 0.6982(2) 0.18463(18) 0.2043(2)
H29 H 0.6464 0.1738 0.145
H30 H 0.7583 0.165 0.2048
H31 H 0.7043 0.2361 0.2127
C38 C 0.5254(2) 0.84103(17) 0.1034(2)
H32 H 0.4894 0.815 0.0447
C39 C 0.6312(3) 0.8211(2) 0.1311(3)
H33 H 0.6394 0.7702 0.1441
H34 H 0.6701 0.8477 0.1866
H35 H 0.6515 0.8327 0.0804
C40 C 0.5086(3) 0.91977(18) 0.0807(2)
H36 H 0.5262 0.9311 0.0282
H37 H 0.5478 0.9478 0.1346
H38 H 0.441 0.9309 0.0648
C41 C 0.5462(3) 0.84697(18) 0.3086(2)
H39 H 0.6129 0.8545 0.3124
C42 C 0.5534(3) 0.79790(19) 0.3883(2)
H40 H 0.4893 0.7891 0.3876
H41 H 0.5931 0.8202 0.447
H42 H 0.5822 0.7528 0.3815
C43 C 0.5087(3) 0.92022(18) 0.3224(2)
H43 H 0.5082 0.9522 0.2728
H44 H 0.5504 0.9397 0.3823
H45 H 0.4437 0.9154 0.3208
C44 C 0.3447(2) 0.82441(17) 0.1483(2)
H46 H 0.3332 0.8766 0.1392
C45 C 0.3009(3) 0.79922(19) 0.2166(2)
H47 H 0.232 0.8082 0.1905
H48 H 0.3303 0.8251 0.275
H49 H 0.3126 0.7483 0.2279
C46 C 0.2937(3) 0.78806(19) 0.0548(2)
H50 H 0.2249 0.7972 0.0331
H51 H 0.3052 0.7369 0.0617
H52 H 0.3183 0.8068 0.0098
C47 C 0.2949(2) 0.44763(19) 0.5663(2)
H53 H 0.2924 0.4012 0.5888
O1 O 0.27489(19) 0.56987(16) 0.54454(18)
C48 C 0.7304(2) 0.54395(18) -0.13993(19)
H54 H 0.724 0.5888 -0.1694
O2 O 0.7698(2) 0.42612(16) -0.10215(19)
O3? O 0.2949(2) 0.44763(19) 0.5663(2)
C49? C 0.27489(19) 0.56987(16) 0.54454(18)
H55? H 0.2578 0.6176 0.5502
O4? O 0.7304(2) 0.54395(18) -0.13993(19)
C50? C 0.7698(2) 0.42612(16) -0.10215(19)
H56? H 0.7937 0.3796 -0.1026
loop_
_geom_bond_atom_site_label_1
_geom_bond_atom_site_label_2
_geom_bond_site_symmetry_1
_geom_bond_site_symmetry_2
Si1 C26 1_555 1_555
Si2 C28 1_555 1_555
C1 C13 1_555 1_555
C2 H1 1_555 1_555
C3 H2 1_555 1_555
C4 H3 1_555 1_555
C5 H4 1_555 1_555
C6 H5 1_555 1_555
C7 C18 1_555 1_555
C8 H6 1_555 1_555
C9 H7 1_555 1_555
C10 H8 1_555 1_555
C11 H9 1_555 1_555
C12 H10 1_555 1_555
C13 C2 1_555 1_555
C14 C2 1_555 1_555
C15 C3 1_555 1_555
C16 C5 1_555 1_555
C17 C5 1_555 1_555
C18 C6 1_555 1_555
C19 C7 1_555 1_555
C20 C8 1_555 1_555
C21 C9 1_555 1_555
C22 C11 1_555 1_555
C23 C11 1_555 1_555
C24 C1 1_555 1_555
C25 C1 1_555 1_555
C26 C25 1_555 1_555
C27 C7 1_555 1_555
C28 C27 1_555 1_555
C29 Si1 1_555 1_555
H11 C29 1_555 1_555
C30 C29 1_555 1_555
H12 C30 1_555 1_555
H13 C30 1_555 1_555
H14 C30 1_555 1_555
C31 C29 1_555 1_555
H15 C31 1_555 1_555
H16 C31 1_555 1_555
H17 C31 1_555 1_555
C32 Si1 1_555 1_555
H18 C32 1_555 1_555
C33 C32 1_555 1_555
H19 C33 1_555 1_555
H20 C33 1_555 1_555
H21 C33 1_555 1_555
C34 C32 1_555 1_555
H22 C34 1_555 1_555
H23 C34 1_555 1_555
H24 C34 1_555 1_555
C35 Si1 1_555 1_555
H25 C35 1_555 1_555
C36 C35 1_555 1_555
H26 C36 1_555 1_555
H27 C36 1_555 1_555
H28 C36 1_555 1_555
C37 C35 1_555 1_555
H29 C37 1_555 1_555
H30 C37 1_555 1_555
H31 C37 1_555 1_555
C38 Si2 1_555 1_555
H32 C38 1_555 1_555
C39 C38 1_555 1_555
H33 C39 1_555 1_555
H34 C39 1_555 1_555
H35 C39 1_555 1_555
C40 C38 1_555 1_555
H36 C40 1_555 1_555
H37 C40 1_555 1_555
H38 C40 1_555 1_555
C41 Si2 1_555 1_555
H39 C41 1_555 1_555
C42 C41 1_555 1_555
H40 C42 1_555 1_555
H41 C42 1_555 1_555
H42 C42 1_555 1_555
C43 C41 1_555 1_555
H43 C43 1_555 1_555
H44 C43 1_555 1_555
H45 C43 1_555 1_555
C44 Si2 1_555 1_555
H46 C44 1_555 1_555
C45 C44 1_555 1_555
H47 C45 1_555 1_555
H48 C45 1_555 1_555
H49 C45 1_555 1_555
C46 C44 1_555 1_555
H50 C46 1_555 1_555
H51 C46 1_555 1_555
H52 C46 1_555 1_555
C47 C4 1_555 1_555
H53 C47 1_555 1_555
O1 C4 1_555 1_555
C48 C10 1_555 1_555
H54 C48 1_555 1_555
O2 C10 1_555 1_555
C3 C14 1_555 1_555
C6 C17 1_555 1_555
C8 C19 1_555 1_555
C9 C20 1_555 1_555
C12 C23 1_555 1_555
C12 C24 1_555 1_555
C13 C18 1_555 1_555
C14 C17 1_555 1_555
C15 C16 1_555 1_555
C15 C47 1_555 1_555
C16 O1 1_555 1_555
C19 C24 1_555 1_555
C20 C23 1_555 1_555
C21 C22 1_555 1_555
C21 C48 1_555 1_555
C22 O2 1_555 1_555

#END
