
#######################################################################
#
#                 Cambridge Crystallographic Data Centre
#                                CCDC 
#
#######################################################################
#
# If this CIF has been generated from an entry in the Cambridge 
# Structural Database, then it will include bibliographic, chemical, 
# crystal, experimental, refinement or atomic coordinate data resulting 
# from the CCDC's data processing and validation procedures.
#
#######################################################################

data_QIWXUR
_chemical_formula_moiety         'C26 H20 N4 2+,2(F6 P1 1-),C6 H6'
_chemical_name_systematic        
"2,2'-Biphenyl-4,4'-diylbis(imidazo[1,5-a]pyridin-2-ium) bis(hexafluorophosphate) benzene solvate"
_symmetry_cell_setting           monoclinic
_symmetry_space_group_name_H-M   'C 2/m'
_symmetry_Int_Tables_number      12
_space_group_name_Hall           '-C 2y'
loop_
_symmetry_equiv_pos_site_id
_symmetry_equiv_pos_as_xyz
1 x,y,z
2 -x,y,-z
3 1/2+x,1/2+y,z
4 1/2-x,1/2+y,-z
5 -x,-y,-z
6 x,-y,z
7 1/2-x,1/2-y,-z
8 1/2+x,1/2-y,z
_cell_length_a                   25.90(2)
_cell_length_b                   9.631(9)
_cell_length_c                   6.371(6)
_cell_angle_alpha                90
_cell_angle_beta                 95.26(2)
_cell_angle_gamma                90
_cell_volume                     1582.51
_exptl_crystal_colour            yellow
_exptl_crystal_description       rod
_cell_formula_units_Z            2
loop_
_atom_site_label
_atom_site_type_symbol
_atom_site_fract_x
_atom_site_fract_y
_atom_site_fract_z
C1 C 0.0169(2) 0.0000 0.9115(10)
C2 C 0.0331(3) -0.1179(6) 0.8258(11)
H1 H 0.0230 -0.2024 0.8798
C3 C 0.0643(3) -0.1189(6) 0.6603(11)
H2 H 0.0748 -0.2029 0.6058
C4 C 0.0793(2) 0.0000 0.5796(10)
C5 C 0.1287(2) 0.1136(5) 0.3095(8)
H3 H 0.1222 0.2053 0.3447
C6 C 0.1831(2) 0.1451(7) 0.0047(10)
H4 H 0.1835 0.2417 0.0040
C7 C 0.2074(2) 0.0720(6) -0.1364(9)
H5 H 0.2247 0.1191 -0.2365
N1 N 0.1116(2) 0.0000 0.4046(8)
C8 C 0.15692(16) 0.0710(4) 0.1541(7)
C1A C -0.0169(2) 0.0000 1.0885(10)
C2A C -0.0331(3) -0.1179(6) 1.1742(11)
H1A H -0.0230 -0.2024 1.1202
C3A C -0.0643(3) -0.1189(6) 1.3397(11)
H2A H -0.0748 -0.2029 1.3942
C4A C -0.0793(2) 0.0000 1.4204(10)
C5A C -0.1287(2) 0.1136(5) 1.6905(8)
H3A H -0.1222 0.2053 1.6553
C6A C -0.1831(2) 0.1451(7) 1.9953(10)
H4A H -0.1835 0.2417 1.9960
C7A C -0.2074(2) 0.0720(6) 2.1364(9)
H5A H -0.2247 0.1191 2.2365
N1A N -0.1116(2) 0.0000 1.5954(8)
C8A C -0.15692(16) 0.0710(4) 1.8459(7)
C2D C -0.0331(3) 0.1179(6) 1.1742(11)
H1D H -0.0230 0.2024 1.1202
C3D C -0.0643(3) 0.1189(6) 1.3397(11)
H2D H -0.0748 0.2029 1.3942
C5D C -0.1287(2) -0.1136(5) 1.6905(8)
H3D H -0.1222 -0.2053 1.6553
C6D C -0.1831(2) -0.1451(7) 1.9953(10)
H4D H -0.1835 -0.2417 1.9960
C7D C -0.2074(2) -0.0720(6) 2.1364(9)
H5D H -0.2247 -0.1191 2.2365
C8D C -0.15692(16) -0.0710(4) 1.8459(7)
C2E C 0.0331(3) 0.1179(6) 0.8258(11)
H1E H 0.0230 0.2024 0.8798
C3E C 0.0643(3) 0.1189(6) 0.6603(11)
H2E H 0.0748 0.2029 0.6058
C5E C 0.1287(2) -0.1136(5) 0.3095(8)
H3E H 0.1222 -0.2053 0.3447
C6E C 0.1831(2) -0.1451(7) 0.0047(10)
H4E H 0.1835 -0.2417 0.0040
C7E C 0.2074(2) -0.0720(6) -0.1364(9)
H5E H 0.2247 -0.1191 -0.2365
C8E C 0.15692(16) -0.0710(4) 0.1541(7)
C9 C -0.0244(7) 0.5000 0.180(2)
H6 H -0.0406 0.5000 0.3043
C10 C 0.0300(6) 0.5000 0.191(2)
H7 H 0.0493 0.5000 0.3211
C11 C 0.0545(5) 0.5000 0.012(3)
H8 H 0.0905 0.5000 0.0169
C9A C 0.0244(7) 0.5000 -0.180(2)
H6A H 0.0406 0.5000 -0.3043
C10A C -0.0300(6) 0.5000 -0.191(2)
H7A H -0.0493 0.5000 -0.3211
C11A C -0.0545(5) 0.5000 -0.012(3)
H8A H -0.0905 0.5000 -0.0169
P1 P 0.17924(9) 0.5000 0.5714(4)
F1 F 0.2218(2) 0.3924(6) 0.5706(9)
F2 F 0.1742(3) 0.5000 0.3328(8)
F3 F 0.1848(3) 0.5000 0.8159(9)
F4 F 0.13609(19) 0.3904(4) 0.5804(8)
F1E F 0.2218(2) 0.6076(6) 0.5706(9)
F4E F 0.13609(19) 0.6096(4) 0.5804(8)
N2? N 0.15692(16) 0.0710(4) 0.1541(7)
loop_
_geom_bond_atom_site_label_1
_geom_bond_atom_site_label_2
_geom_bond_site_symmetry_1
_geom_bond_site_symmetry_2
P1 F1 1_555 1_555
F2 P1 1_555 1_555
F3 P1 1_555 1_555
F4 P1 1_555 1_555
C1 C2 1_555 1_555
C2 H1 1_555 1_555
C3 C2 1_555 1_555
H2 C3 1_555 1_555
C4 C3 1_555 1_555
C5 H3 1_555 1_555
C6 H4 1_555 1_555
C7 C6 1_555 1_555
H5 C7 1_555 1_555
N1 C4 1_555 1_555
C8 C5 1_555 1_555
C9 H6 1_555 1_555
C10 C9 1_555 1_555
H7 C10 1_555 1_555
C11 C10 1_555 1_555
H8 C11 1_555 1_555
F1E P1 1_555 1_555
F4E P1 1_555 1_555
C1A C1 1_555 1_555
C2A C1A 1_555 1_555
H1A C2A 1_555 1_555
C3A C2A 1_555 1_555
H2A C3A 1_555 1_555
C4A C3A 1_555 1_555
C5A H3A 1_555 1_555
C6A H4A 1_555 1_555
C7A C6A 1_555 1_555
H5A C7A 1_555 1_555
N1A C4A 1_555 1_555
C8A C5A 1_555 1_555
C2D C1A 1_555 1_555
H1D C2D 1_555 1_555
C3D C4A 1_555 1_555
H2D C3D 1_555 1_555
C5D N1A 1_555 1_555
H3D C5D 1_555 1_555
C6D H4D 1_555 1_555
C7D C7A 1_555 1_555
H5D C7D 1_555 1_555
C8D C8A 1_555 1_555
C2E C1 1_555 1_555
H1E C2E 1_555 1_555
C3E C4 1_555 1_555
H2E C3E 1_555 1_555
C5E N1 1_555 1_555
H3E C5E 1_555 1_555
C6E H4E 1_555 1_555
C7E C7 1_555 1_555
H5E C7E 1_555 1_555
C8E C8 1_555 1_555
C9A C11 1_555 1_555
H6A C9A 1_555 1_555
C10A C9A 1_555 1_555
H7A C10A 1_555 1_555
C11A C9 1_555 1_555
H8A C11A 1_555 1_555
C5 N1 1_555 1_555
C6 C8 1_555 1_555
C5A N1A 1_555 1_555
C6A C8A 1_555 1_555
C2D C3D 1_555 1_555
C5D C8D 1_555 1_555
C6D C7D 1_555 1_555
C6D C8D 1_555 1_555
C2E C3E 1_555 1_555
C5E C8E 1_555 1_555
C6E C7E 1_555 1_555
C6E C8E 1_555 1_555
C10A C11A 1_555 1_555

#END
