
#######################################################################
#
#                 Cambridge Crystallographic Data Centre
#                                CCDC 
#
#######################################################################
#
# If this CIF has been generated from an entry in the Cambridge 
# Structural Database, then it will include bibliographic, chemical, 
# crystal, experimental, refinement or atomic coordinate data resulting 
# from the CCDC's data processing and validation procedures.
#
#######################################################################

data_QIXDIL
_chemical_formula_moiety         'C19 H18 Cl2 N2 O4,C3 H7 N1 O1'
_chemical_name_systematic        
'(4R*,5S*,6R*)-5-Benzoyl-4-hydroxy-4-dichloromethyl-6-(4-methoxyphenyl)perhydropyrimidin-2-one dimethylformamide solvate'
_symmetry_cell_setting           triclinic
_symmetry_space_group_name_H-M   'P -1'
_symmetry_Int_Tables_number      2
_space_group_name_Hall           '-P 1'
loop_
_symmetry_equiv_pos_site_id
_symmetry_equiv_pos_as_xyz
1 x,y,z
2 -x,-y,-z
_cell_length_a                   9.836(2)
_cell_length_b                   10.023(7)
_cell_length_c                   13.51(1)
_cell_angle_alpha                91.95(6)
_cell_angle_beta                 103.48(8)
_cell_angle_gamma                113.47(8)
_cell_volume                     1175.98
_exptl_crystal_colour            colorless
_exptl_crystal_description       prism
_chemical_melting_point          '181-183 deg.C'
_cell_formula_units_Z            2
loop_
_atom_site_label
_atom_site_type_symbol
_atom_site_fract_x
_atom_site_fract_y
_atom_site_fract_z
C1 C 0.6277(4) 0.1046(4) 0.6436(3)
C2 C 0.6760(4) 0.2616(4) 0.8066(3)
C3 C 0.5573(4) 0.3122(4) 0.7437(3)
C4 C 0.4250(4) 0.1760(4) 0.6689(3)
H1 H 0.3761 0.1007 0.7210
C5 C 0.3045(4) 0.2157(4) 0.6024(3)
C6 C 0.3337(5) 0.2993(6) 0.5254(3)
H2 H 0.4290 0.3301 0.5115
C7 C 0.2224(6) 0.3386(6) 0.4679(4)
H3 H 0.2439 0.3964 0.4163
C8 C 0.0797(5) 0.2919(6) 0.4870(3)
C9 C 0.0499(5) 0.2106(5) 0.5642(4)
H4 H -0.0448 0.1809 0.5788
C10 C 0.1626(5) 0.1725(5) 0.6207(4)
H5 H 0.1414 0.1158 0.6729
C11 C -0.1626(6) 0.3073(7) 0.4499(5)
H6 H -0.2221 0.2030 0.4417
H7 H -0.2194 0.3504 0.4048
H8 H -0.1417 0.3487 0.5198
C12 C 0.8322(5) 0.3912(5) 0.8584(3)
C13 C 0.4811(4) 0.3710(4) 0.8094(3)
C14 C 0.4758(5) 0.5159(4) 0.7990(3)
C15 C 0.3889(7) 0.5544(6) 0.8514(5)
H9 H 0.3315 0.4880 0.8883
C16 C 0.3873(9) 0.6902(8) 0.8491(6)
H10 H 0.3307 0.7163 0.8862
C17 C 0.4669(7) 0.7872(6) 0.7937(5)
H11 H 0.4665 0.8798 0.7938
C18 C 0.5473(7) 0.7488(5) 0.7380(5)
H12 H 0.5989 0.8136 0.6978
C19 C 0.5523(6) 0.6133(5) 0.7411(4)
H13 H 0.6084 0.5878 0.7033
Cl1 Cl 0.91919(13) 0.49251(14) 0.76821(10)
Cl2 Cl 0.81642(14) 0.51110(14) 0.94960(9)
N1 N 0.4964(4) 0.1189(4) 0.6054(3)
H21 H 0.4524 0.0819 0.5435
N2 N 0.7082(4) 0.1698(4) 0.7409(3)
O1 O 0.6754(3) 0.0349(3) 0.5947(2)
O2 O 0.6253(4) 0.1819(3) 0.8851(2)
O3 O -0.0210(4) 0.3365(5) 0.4252(3)
O4 O 0.4213(3) 0.2965(3) 0.8700(2)
H22 H 0.784(4) 0.167(4) 0.759(3)
H23 H 0.562(6) 0.201(6) 0.899(4)
H24 H 0.601(4) 0.388(4) 0.697(3)
H25 H 0.899(5) 0.354(5) 0.895(3)
C20 C 0.0892(7) 0.1276(7) 0.9050(5)
H14 H 0.1692 0.1917 0.9592
C21 C 0.2026(10) -0.0477(10) 0.9302(8)
H15 H 0.1523 -0.1389 0.9543
H16 H 0.2759 0.0240 0.9873
H17 H 0.2547 -0.0624 0.8819
C22 C -0.0274(11) -0.1003(9) 0.7955(7)
H18 H 0.0189 -0.1345 0.7511
H19 H -0.0853 -0.0518 0.7578
H20 H -0.0948 -0.1824 0.8207
N3 N 0.0925(5) 0.0025(5) 0.8820(4)
O5 O -0.0061(4) 0.1705(5) 0.8639(3)
loop_
_geom_bond_atom_site_label_1
_geom_bond_atom_site_label_2
_geom_bond_site_symmetry_1
_geom_bond_site_symmetry_2
C1 N1 1_555 1_555
C2 C3 1_555 1_555
C3 C4 1_555 1_555
C4 H1 1_555 1_555
C5 C4 1_555 1_555
C6 C5 1_555 1_555
H2 C6 1_555 1_555
C7 C6 1_555 1_555
H3 C7 1_555 1_555
C8 C7 1_555 1_555
C9 C8 1_555 1_555
H4 C9 1_555 1_555
C10 C5 1_555 1_555
H5 C10 1_555 1_555
C11 H6 1_555 1_555
H7 C11 1_555 1_555
H8 C11 1_555 1_555
C12 C2 1_555 1_555
C13 C3 1_555 1_555
C14 C13 1_555 1_555
C15 C14 1_555 1_555
H9 C15 1_555 1_555
C16 C15 1_555 1_555
H10 C16 1_555 1_555
C17 C16 1_555 1_555
H11 C17 1_555 1_555
C18 C17 1_555 1_555
H12 C18 1_555 1_555
C19 C14 1_555 1_555
H13 C19 1_555 1_555
C20 H14 1_555 1_555
C21 H15 1_555 1_555
H16 C21 1_555 1_555
H17 C21 1_555 1_555
C22 H18 1_555 1_555
H19 C22 1_555 1_555
H20 C22 1_555 1_555
Cl1 C12 1_555 1_555
Cl2 C12 1_555 1_555
N1 C4 1_555 1_555
H21 N1 1_555 1_555
N2 C1 1_555 1_555
N3 C20 1_555 1_555
O1 C1 1_555 1_555
O2 C2 1_555 1_555
O3 C8 1_555 1_555
O4 C13 1_555 1_555
O5 C20 1_555 1_555
H22 N2 1_555 1_555
H23 O2 1_555 1_555
H24 C3 1_555 1_555
H25 C12 1_555 1_555
C2 N2 1_555 1_555
C9 C10 1_555 1_555
C11 O3 1_555 1_555
C18 C19 1_555 1_555
C21 N3 1_555 1_555
C22 N3 1_555 1_555

#END
