
#######################################################################
#
#                 Cambridge Crystallographic Data Centre
#                                CCDC 
#
#######################################################################
#
# If this CIF has been generated from an entry in the Cambridge 
# Structural Database, then it will include bibliographic, chemical, 
# crystal, experimental, refinement or atomic coordinate data resulting 
# from the CCDC's data processing and validation procedures.
#
#######################################################################

data_QIXPIW
_chemical_formula_moiety         'C36 H60 N8 6+,O3 S2 2-,4(Cl1 O4 1-),11(H2 O1)'
_chemical_name_systematic        
'4,12,18,26,31,39-Hexa-azonia-1,15-diazapentacyclo(13.13.13.1^6,10^.1^20,24^.1^33,37^)tetratetraconta-6(42),7,9,20(43),21,23,33(44),34,36-nonaene thiosulfate clathrate tetraperchlorate undecahydrate'
_symmetry_cell_setting           monoclinic
_symmetry_space_group_name_H-M   'P 21/n'
_symmetry_Int_Tables_number      14
_space_group_name_Hall           '-P 2yn'
loop_
_symmetry_equiv_pos_site_id
_symmetry_equiv_pos_as_xyz
1 x,y,z
2 1/2+x,1/2-y,1/2+z
3 -x,-y,-z
4 1/2-x,1/2+y,1/2-z
_cell_length_a                   14.6926(4)
_cell_length_b                   13.7829(4)
_cell_length_c                   28.5979(2)
_cell_angle_alpha                90
_cell_angle_beta                 91.1400(10)
_cell_angle_gamma                90
_cell_volume                     5790.12
_exptl_crystal_colour            colorless
_exptl_crystal_description       block
_cell_formula_units_Z            4
loop_
_atom_site_label
_atom_site_type_symbol
_atom_site_fract_x
_atom_site_fract_y
_atom_site_fract_z
N1 N -0.20150(19) 0.2795(2) 0.19968(11)
C1 C -0.2415(3) 0.1946(3) 0.17550(15)
H1 H -0.3086 0.1969 0.1781
H2 H -0.2198 0.1347 0.1912
C2 C -0.2173(3) 0.1903(3) 0.12454(15)
H3 H -0.2668 0.1572 0.1068
H4 H -0.2122 0.2572 0.1122
N2 N -0.1301(2) 0.1379(3) 0.11704(12)
H5 H -0.0848 0.1664 0.1349
H6 H -0.1361 0.0747 0.1268
C3 C -0.1033(3) 0.1387(4) 0.06717(16)
H7 H -0.1011 0.2067 0.0561
H8 H -0.1503 0.1043 0.0482
C4 C -0.0125(3) 0.0919(3) 0.05953(13)
C5 C 0.0007(3) -0.0080(3) 0.06473(14)
H9 H -0.0486 -0.0479 0.0738
C6 C 0.0835(3) -0.0486(3) 0.05693(14)
H10 H 0.0922 -0.1162 0.0617
C7 C 0.1557(3) 0.0086(3) 0.04201(14)
H11 H 0.2131 -0.0200 0.0359
C8 C 0.1432(3) 0.1074(3) 0.03613(13)
C9 C 0.0598(3) 0.1489(3) 0.04574(13)
H12 H 0.0520 0.2171 0.0428
C10 C 0.2189(3) 0.1700(4) 0.01746(15)
H13 H 0.2520 0.1330 -0.0065
H14 H 0.1919 0.2279 0.0021
N3 N 0.2847(2) 0.2020(3) 0.05473(10)
H15 H 0.2553 0.2415 0.0755
H16 H 0.3060 0.1486 0.0709
C11 C 0.3620(3) 0.2548(3) 0.03491(14)
H17 H 0.3397 0.3156 0.0202
H18 H 0.3897 0.2147 0.0102
C12 C 0.4344(3) 0.2793(3) 0.07209(15)
H19 H 0.4487 0.2200 0.0904
H20 H 0.4907 0.2998 0.0564
N4 N 0.4067(2) 0.3561(2) 0.10423(10)
C13 C -0.2594(2) 0.3643(3) 0.18963(14)
H21 H -0.3156 0.3589 0.2080
H22 H -0.2773 0.3635 0.1561
C14 C -0.2136(3) 0.4609(3) 0.20092(14)
H23 H -0.2602 0.5128 0.2010
H24 H -0.1855 0.4577 0.2326
N5 N -0.1423(2) 0.4860(2) 0.16656(11)
H25 H -0.0956 0.4418 0.1690
H26 H -0.1668 0.4820 0.1368
C15 C -0.1053(3) 0.5855(3) 0.17441(15)
H27 H -0.0746 0.5884 0.2055
H28 H -0.1561 0.6327 0.1742
C16 C -0.0383(3) 0.6130(3) 0.13711(13)
C17 C -0.0696(3) 0.6573(3) 0.09668(15)
H29 H -0.1327 0.6702 0.0923
C18 C -0.0087(3) 0.6829(3) 0.06236(16)
H30 H -0.0307 0.7116 0.0341
C19 C 0.0843(3) 0.6669(3) 0.06877(14)
H31 H 0.1256 0.6854 0.0452
C20 C 0.1168(3) 0.6235(3) 0.11005(14)
C21 C 0.0541(3) 0.5972(3) 0.14374(13)
H32 H 0.0753 0.5678 0.1719
C22 C 0.2170(3) 0.6148(3) 0.11898(16)
H33 H 0.2286 0.6139 0.1532
H34 H 0.2472 0.6731 0.1063
N6 N 0.2599(2) 0.5265(2) 0.09808(11)
H35 H 0.2455 0.5233 0.0667
H36 H 0.2379 0.4716 0.1122
C23 C 0.3615(3) 0.5313(3) 0.10485(14)
H37 H 0.3767 0.5274 0.1387
H38 H 0.3836 0.5945 0.0932
C24 C 0.4100(3) 0.4507(3) 0.07969(14)
H39 H 0.3822 0.4431 0.0481
H40 H 0.4744 0.4694 0.0758
C25 C -0.2006(2) 0.2602(3) 0.25022(13)
H41 H -0.2585 0.2286 0.2587
H42 H -0.1962 0.3224 0.2674
C26 C -0.1220(2) 0.1956(3) 0.26506(14)
H43 H -0.1368 0.1632 0.2949
H44 H -0.1138 0.1446 0.2411
N7 N -0.03481(19) 0.2504(2) 0.27139(11)
H45 H -0.0407 0.2947 0.2952
H46 H -0.0227 0.2839 0.2444
C27 C 0.0431(2) 0.1834(3) 0.28278(14)
H47 H 0.0524 0.1396 0.2559
H48 H 0.0269 0.1428 0.3099
C28 C 0.1307(2) 0.2355(2) 0.29384(12)
C29 C 0.1399(3) 0.2958(3) 0.33270(13)
H49 H 0.0890 0.3075 0.3518
C30 C 0.2230(3) 0.3389(3) 0.34376(13)
H50 H 0.2282 0.3818 0.3697
C31 C 0.2989(3) 0.3193(2) 0.31678(13)
H51 H 0.3561 0.3472 0.3250
C32 C 0.2914(2) 0.2594(2) 0.27818(12)
C33 C 0.2067(2) 0.2192(2) 0.26625(12)
H52 H 0.2007 0.1802 0.2390
C34 C 0.3734(2) 0.2360(3) 0.25000(13)
H53 H 0.3747 0.1655 0.2436
H54 H 0.4290 0.2527 0.2684
N8 N 0.37384(18) 0.2902(2) 0.20446(10)
H55 H 0.3272 0.2677 0.1855
H56 H 0.3635 0.3550 0.2101
C35 C 0.4618(2) 0.2794(3) 0.17964(13)
H57 H 0.4632 0.2156 0.1638
H58 H 0.5129 0.2814 0.2027
C36 C 0.4739(2) 0.3596(3) 0.14372(13)
H59 H 0.4688 0.4232 0.1596
H60 H 0.5360 0.3551 0.1310
S1 S 0.04051(6) 0.31213(6) 0.15680(3)
S2 S 0.17134(6) 0.32621(7) 0.14088(3)
O1 O -0.02019(18) 0.3396(2) 0.11757(10)
O2 O 0.02012(17) 0.37484(18) 0.19746(9)
O3 O 0.02253(17) 0.21051(18) 0.16993(9)
Cl1 Cl 0.55226(6) 1.00993(7) 0.17131(3)
O4 O 0.5955(3) 0.9167(3) 0.16985(15)
O5 O 0.5731(3) 1.0601(3) 0.21360(12)
O6 O 0.4548(2) 0.9940(2) 0.16856(13)
O7 O 0.5778(2) 1.0676(2) 0.13249(11)
Cl2 Cl 0.92383(6) 0.91740(7) 0.20662(3)
O8 O 0.9729(3) 0.9390(4) 0.16589(12)
O9 O 0.9106(2) 0.8151(2) 0.21014(13)
O10 O 0.9741(2) 0.9490(3) 0.24737(11)
O11 O 0.8372(3) 0.9635(3) 0.20522(15)
Cl3 Cl 0.32748(9) 0.73538(11) 0.00335(5)
O12 O 0.3592(4) 0.7830(5) -0.03582(19)
O13 O 0.2822(6) 0.6447(6) 0.0036(3)
O14 O 0.4117(6) 0.7248(7) 0.0301(3)
O15 O 0.2689(8) 0.8041(7) 0.0279(4)
O20 O -0.0546(6) 0.1886(9) 0.3799(3)
O21 O -0.1197(5) 0.0835(7) 0.4390(3)
O22 O -0.1922(7) 0.1065(8) 0.3657(2)
O23 O -0.1873(5) 0.2331(6) 0.4185(3)
Cl6 Cl -0.13338(10) 0.15265(12) 0.39986(5)
O28 O 0.33017(18) 0.48054(19) 0.22471(10)
H61 H 0.2739 0.4832 0.2309
H62 H 0.3598 0.4991 0.2489
O29 O 0.15055(18) 0.48792(19) 0.24347(10)
H63 H 0.1189 0.4460 0.2287
H64 H 0.1254 0.4862 0.2700
O30 O 0.13702(19) 0.05658(19) 0.17653(10)
H65 H 0.1024 0.1052 0.1716
H66 H 0.0975 0.0138 0.1694
O31 O 0.3063(2) 0.1223(2) 0.14944(12)
H67 H 0.3390 0.0736 0.1568
H68 H 0.2534 0.1012 0.1555
O32 O -0.2213(3) -0.0433(3) 0.10003(13)
H69 H -0.2628 -0.0283 0.0805
H70 H -0.2512 -0.0618 0.1237
O33 O 0.0165(3) 0.4325(3) 0.03777(11)
H71 H 0.0052 0.4030 0.0631
H72 H 0.0726 0.4336 0.0311
O34 O 0.1956(3) 0.4358(3) 0.01616(12)
H74 H 0.1395 0.4352 0.0228
H75 H 0.2222 0.4648 -0.0059
O35 O 0.2218(3) 0.5418(3) -0.07374(13)
H77 H 0.2405 0.5138 -0.0488
H78 H 0.2471 0.4995 -0.0909
O36 O 0.3880(3) 0.0317(3) 0.06289(16)
H79 H 0.3936 0.0185 0.0340
H80 H 0.4177 -0.0131 0.0767
O37 O 0.5147(4) 0.8757(3) 0.06646(18)
H81 H 0.5277 0.8248 0.0820
H82 H 0.4643 0.8471 0.0610
O38 O -0.3660(3) 0.0060(4) 0.03240(16)
H83 H -0.4046 -0.0357 0.0413
H84 H -0.3746 0.0664 0.0281
Cl4? Cl 0.32748(9) 0.73538(11) 0.00335(5)
O16? O 0.3592(4) 0.7830(5) -0.03582(19)
O17? O 0.2358(5) 0.7110(8) -0.0175(3)
O18? O 0.3731(9) 0.6394(8) 0.0020(5)
O19? O 0.3252(15) 0.7731(12) 0.0461(3)
Cl5? Cl -0.13338(10) 0.15265(12) 0.39986(5)
O24? O -0.1179(11) 0.0625(8) 0.3731(4)
O25? O -0.2065(10) 0.2055(19) 0.3838(11)
O26? O -0.0578(16) 0.2151(17) 0.3860(9)
O27? O -0.107(2) 0.1198(14) 0.4455(4)
H73? H 0.0066 0.4722 0.0156
H76? H 0.2122 0.3764 0.0162
loop_
_geom_bond_atom_site_label_1
_geom_bond_atom_site_label_2
_geom_bond_site_symmetry_1
_geom_bond_site_symmetry_2
N1 C1 1_555 1_555
C1 H1 1_555 1_555
H2 C1 1_555 1_555
C2 C1 1_555 1_555
H3 C2 1_555 1_555
H4 C2 1_555 1_555
N2 C2 1_555 1_555
H5 N2 1_555 1_555
H6 N2 1_555 1_555
C3 N2 1_555 1_555
H7 C3 1_555 1_555
H8 C3 1_555 1_555
C4 C3 1_555 1_555
C5 C4 1_555 1_555
H9 C5 1_555 1_555
C6 C5 1_555 1_555
H10 C6 1_555 1_555
C7 C6 1_555 1_555
H11 C7 1_555 1_555
C8 C7 1_555 1_555
C9 C4 1_555 1_555
H12 C9 1_555 1_555
C10 C8 1_555 1_555
H13 C10 1_555 1_555
H14 C10 1_555 1_555
N3 C10 1_555 1_555
H15 N3 1_555 1_555
H16 N3 1_555 1_555
C11 N3 1_555 1_555
H17 C11 1_555 1_555
H18 C11 1_555 1_555
C12 C11 1_555 1_555
H19 C12 1_555 1_555
H20 C12 1_555 1_555
N4 C12 1_555 1_555
C13 N1 1_555 1_555
H21 C13 1_555 1_555
H22 C13 1_555 1_555
C14 C13 1_555 1_555
H23 C14 1_555 1_555
H24 C14 1_555 1_555
N5 C14 1_555 1_555
H25 N5 1_555 1_555
H26 N5 1_555 1_555
C15 N5 1_555 1_555
H27 C15 1_555 1_555
H28 C15 1_555 1_555
C16 C15 1_555 1_555
C17 C16 1_555 1_555
H29 C17 1_555 1_555
C18 C17 1_555 1_555
H30 C18 1_555 1_555
C19 C18 1_555 1_555
H31 C19 1_555 1_555
C20 C19 1_555 1_555
C21 C16 1_555 1_555
H32 C21 1_555 1_555
C22 C20 1_555 1_555
H33 C22 1_555 1_555
H34 C22 1_555 1_555
N6 C22 1_555 1_555
H35 N6 1_555 1_555
H36 N6 1_555 1_555
C23 N6 1_555 1_555
H37 C23 1_555 1_555
H38 C23 1_555 1_555
C24 N4 1_555 1_555
H39 C24 1_555 1_555
H40 C24 1_555 1_555
C25 N1 1_555 1_555
H41 C25 1_555 1_555
H42 C25 1_555 1_555
C26 C25 1_555 1_555
H43 C26 1_555 1_555
H44 C26 1_555 1_555
N7 C26 1_555 1_555
H45 N7 1_555 1_555
H46 N7 1_555 1_555
C27 N7 1_555 1_555
H47 C27 1_555 1_555
H48 C27 1_555 1_555
C28 C27 1_555 1_555
C29 C28 1_555 1_555
H49 C29 1_555 1_555
C30 C29 1_555 1_555
H50 C30 1_555 1_555
C31 C30 1_555 1_555
H51 C31 1_555 1_555
C32 C31 1_555 1_555
C33 C28 1_555 1_555
H52 C33 1_555 1_555
C34 C32 1_555 1_555
H53 C34 1_555 1_555
H54 C34 1_555 1_555
N8 C34 1_555 1_555
H55 N8 1_555 1_555
H56 N8 1_555 1_555
C35 N8 1_555 1_555
H57 C35 1_555 1_555
H58 C35 1_555 1_555
C36 N4 1_555 1_555
H59 C36 1_555 1_555
H60 C36 1_555 1_555
S1 S2 1_555 1_555
O1 S1 1_555 1_555
O2 S1 1_555 1_555
O3 S1 1_555 1_555
Cl1 O4 1_555 1_555
O5 Cl1 1_555 1_555
O6 Cl1 1_555 1_555
O7 Cl1 1_555 1_555
Cl2 O8 1_555 1_555
O9 Cl2 1_555 1_555
O10 Cl2 1_555 1_555
O11 Cl2 1_555 1_555
Cl3 O12 1_555 1_555
O13 Cl3 1_555 1_555
O14 Cl3 1_555 1_555
O15 Cl3 1_555 1_555
O20 Cl6 1_555 1_555
O21 Cl6 1_555 1_555
O22 Cl6 1_555 1_555
O23 Cl6 1_555 1_555
O28 H61 1_555 1_555
O29 H63 1_555 1_555
O30 H65 1_555 1_555
O31 H67 1_555 1_555
O32 H69 1_555 1_555
O33 H71 1_555 1_555
O34 H74 1_555 1_555
O35 H77 1_555 1_555
O36 H79 1_555 1_555
O37 H81 1_555 1_555
O38 H83 1_555 1_555
H62 O28 1_555 1_555
H64 O29 1_555 1_555
H66 O30 1_555 1_555
H68 O31 1_555 1_555
H70 O32 1_555 1_555
H72 O33 1_555 1_555
H75 O34 1_555 1_555
H78 O35 1_555 1_555
H80 O36 1_555 1_555
H82 O37 1_555 1_555
H84 O38 1_555 1_555
C8 C9 1_555 1_555
C20 C21 1_555 1_555
C23 C24 1_555 1_555
C32 C33 1_555 1_555
C35 C36 1_555 1_555

#END
