
#######################################################################
#
#                 Cambridge Crystallographic Data Centre
#                                CCDC 
#
#######################################################################
#
# If this CIF has been generated from an entry in the Cambridge 
# Structural Database, then it will include bibliographic, chemical, 
# crystal, experimental, refinement or atomic coordinate data resulting 
# from the CCDC's data processing and validation procedures.
#
#######################################################################

data_QIXRIZ
_chemical_formula_moiety         'C19 H20 Cl2 O10'
_chemical_name_systematic        
'2,3,4-Tri-O-acetyl-\b-D-xylosyl 2,4-dichlorophenoxyacetate'
_symmetry_cell_setting           monoclinic
_symmetry_space_group_name_H-M   'P 21'
_symmetry_Int_Tables_number      4
_space_group_name_Hall           'P 2yb'
loop_
_symmetry_equiv_pos_site_id
_symmetry_equiv_pos_as_xyz
1 x,y,z
2 -x,1/2+y,-z
_cell_length_a                   5.6601(8)
_cell_length_b                   23.129(3)
_cell_length_c                   8.7456(13)
_cell_angle_alpha                90
_cell_angle_beta                 104.281(2)
_cell_angle_gamma                90
_cell_volume                     1109.53
_exptl_crystal_colour            colorless
_exptl_crystal_description       block
_cell_formula_units_Z            2
_exptl_crystal_recrystallization_method 'ethyl acetate'
loop_
_atom_site_label
_atom_site_type_symbol
_atom_site_fract_x
_atom_site_fract_y
_atom_site_fract_z
Cl1 Cl 0.39620(7) 0.411817(16) 0.40861(5)
Cl2 Cl -0.43050(11) 0.37315(3) -0.03228(7)
O1 O 0.26622(18) 0.31050(4) 0.55683(11)
O2 O 0.19918(18) 0.16518(4) 0.67880(10)
O3 O 0.34201(15) 0.20235(4) 0.48059(9)
O4 O 0.63491(15) 0.13399(4) 0.52704(9)
O5 O 0.14305(13) 0.15292(4) 0.17425(9)
O6 O 0.26161(19) 0.22412(5) 0.03647(12)
O7 O 0.48217(14) 0.08031(4) 0.06694(8)
O8 O 0.1653(2) 0.01968(5) 0.00391(13)
O9 O 0.74852(13) 0.00741(3) 0.29847(9)
O10 O 1.13798(15) 0.01312(4) 0.43086(10)
C1 C -0.0204(3) 0.38595(7) 0.19664(17)
H1 H 0.0106 0.4181 0.1407
C2 C -0.2255(3) 0.35335(7) 0.1429(2)
C3 C -0.2762(3) 0.30615(7) 0.2235(2)
H2 H -0.4170 0.2847 0.1841
C4 C -0.1159(2) 0.29063(6) 0.36396(17)
H3 H -0.1507 0.2590 0.4204
C5 C 0.0967(2) 0.32196(5) 0.42117(14)
C6 C 0.1387(2) 0.36984(6) 0.33584(14)
C7 C 0.2152(3) 0.26725(6) 0.65711(15)
H4 H 0.0481 0.2720 0.6644
H5 H 0.3197 0.2734 0.7618
C8 C 0.2475(2) 0.20570(5) 0.60887(13)
C9 C 0.39591(19) 0.14524(5) 0.43916(12)
H6 H 0.2809 0.1173 0.4644
C10 C 0.39027(18) 0.14350(5) 0.26397(12)
H7 H 0.5001 0.1726 0.2381
C11 C 0.46556(18) 0.08294(5) 0.22705(11)
H8 H 0.3437 0.0550 0.2432
C12 C 0.71071(18) 0.06760(5) 0.33225(13)
H9 H 0.8381 0.0917 0.3066
C13 C 0.7071(2) 0.07586(5) 0.50429(13)
H10 H 0.5934 0.0489 0.5322
H11 H 0.8679 0.0684 0.5717
C14 C 0.1044(2) 0.19251(6) 0.05765(13)
C15 C -0.1476(2) 0.18980(7) -0.04172(16)
H12 H -0.2242 0.2269 -0.0420
H13 H -0.2379 0.1612 -0.0002
H14 H -0.1446 0.1796 -0.1476
C16 C 0.3331(3) 0.04311(6) -0.02966(14)
C17 C 0.4133(4) 0.03532(8) -0.17852(16)
H15 H 0.5411 0.0070 -0.1622
H16 H 0.4725 0.0714 -0.2083
H17 H 0.2779 0.0225 -0.2608
C18 C 0.97377(19) -0.01398(5) 0.34857(12)
C19 C 0.9926(2) -0.07335(6) 0.28873(18)
H18 H 1.0262 -0.0714 0.1865
H19 H 0.8416 -0.0934 0.2809
H20 H 1.1221 -0.0936 0.3601
loop_
_geom_bond_atom_site_label_1
_geom_bond_atom_site_label_2
_geom_bond_site_symmetry_1
_geom_bond_site_symmetry_2
Cl1 C6 1_555 1_555
Cl2 C2 1_555 1_555
O1 C5 1_555 1_555
O2 C8 1_555 1_555
O3 C8 1_555 1_555
O4 C9 1_555 1_555
O5 C10 1_555 1_555
O6 C14 1_555 1_555
O7 C11 1_555 1_555
O8 C16 1_555 1_555
O9 C12 1_555 1_555
O10 C18 1_555 1_555
C1 H1 1_555 1_555
C2 C1 1_555 1_555
C3 C2 1_555 1_555
H2 C3 1_555 1_555
C4 C3 1_555 1_555
H3 C4 1_555 1_555
C5 C4 1_555 1_555
C6 C1 1_555 1_555
C7 O1 1_555 1_555
H4 C7 1_555 1_555
H5 C7 1_555 1_555
C8 C7 1_555 1_555
C9 O3 1_555 1_555
H6 C9 1_555 1_555
C10 C9 1_555 1_555
H7 C10 1_555 1_555
C11 C10 1_555 1_555
H8 C11 1_555 1_555
C12 C11 1_555 1_555
H9 C12 1_555 1_555
C13 O4 1_555 1_555
H10 C13 1_555 1_555
H11 C13 1_555 1_555
C14 O5 1_555 1_555
C15 C14 1_555 1_555
H12 C15 1_555 1_555
H13 C15 1_555 1_555
H14 C15 1_555 1_555
C16 O7 1_555 1_555
C17 C16 1_555 1_555
H15 C17 1_555 1_555
H16 C17 1_555 1_555
H17 C17 1_555 1_555
C18 O9 1_555 1_555
C19 C18 1_555 1_555
H18 C19 1_555 1_555
H19 C19 1_555 1_555
H20 C19 1_555 1_555
C5 C6 1_555 1_555
C12 C13 1_555 1_555

#END
