
#######################################################################
#
#                 Cambridge Crystallographic Data Centre
#                                CCDC 
#
#######################################################################
#
# If this CIF has been generated from an entry in the Cambridge 
# Structural Database, then it will include bibliographic, chemical, 
# crystal, experimental, refinement or atomic coordinate data resulting 
# from the CCDC's data processing and validation procedures.
#
#######################################################################

data_QIXSAS
_chemical_formula_moiety         'C7 H6 N4 O4'
_chemical_name_systematic        '2,4-Dinitrobenzaldehyde hydrazone'
_symmetry_cell_setting           triclinic
_symmetry_space_group_name_H-M   'P -1'
_symmetry_Int_Tables_number      2
_space_group_name_Hall           '-P 1'
loop_
_symmetry_equiv_pos_site_id
_symmetry_equiv_pos_as_xyz
1 x,y,z
2 -x,-y,-z
_cell_length_a                   4.5839(7)
_cell_length_b                   9.6840(16)
_cell_length_c                   9.9287(15)
_cell_angle_alpha                90.785(12)
_cell_angle_beta                 96.149(11)
_cell_angle_gamma                98.955(13)
_cell_volume                     432.656
_exptl_crystal_colour            yellow
_exptl_crystal_description       prism
_cell_formula_units_Z            2
_exptl_crystal_recrystallization_method ethanol
loop_
_atom_site_label
_atom_site_type_symbol
_atom_site_fract_x
_atom_site_fract_y
_atom_site_fract_z
O1 O 0.7840(6) 0.1234(3) 0.5319(2)
O2 O 0.4576(6) 0.2314(2) 0.6030(2)
O3 O 0.0003(6) 0.5548(2) 0.3362(3)
O4 O 0.1241(6) 0.5961(3) 0.1351(3)
N1 N 0.9783(6) -0.0870(3) 0.1463(3)
H1 H 1.0167 -0.1364 0.2204
H2 H 1.0581 -0.1043 0.0700
N2 N 0.8489(5) 0.0275(2) 0.1456(2)
N3 N 0.5907(6) 0.1955(2) 0.5116(2)
N4 N 0.1273(6) 0.5291(3) 0.2381(3)
C1 C 0.7626(6) 0.0654(3) 0.2571(3)
H3 H 0.7984 0.0169 0.3358
C2 C 0.6075(6) 0.1858(3) 0.2585(3)
C3 C 0.5165(6) 0.2445(3) 0.3752(3)
C4 C 0.3552(6) 0.3540(3) 0.3687(3)
H4 H 0.2918 0.3885 0.4466
C5 C 0.2906(6) 0.4105(3) 0.2464(3)
C6 C 0.3755(6) 0.3582(3) 0.1277(3)
H5 H 0.3302 0.3978 0.0448
C7 C 0.5269(6) 0.2473(3) 0.1360(3)
H6 H 0.5791 0.2108 0.0565
loop_
_geom_bond_atom_site_label_1
_geom_bond_atom_site_label_2
_geom_bond_site_symmetry_1
_geom_bond_site_symmetry_2
O1 N3 1_555 1_555
O2 N3 1_555 1_555
O3 N4 1_555 1_555
O4 N4 1_555 1_555
N1 H1 1_555 1_555
H2 N1 1_555 1_555
N2 N1 1_555 1_555
N3 C3 1_555 1_555
N4 C5 1_555 1_555
C1 N2 1_555 1_555
H3 C1 1_555 1_555
C2 C1 1_555 1_555
C3 C2 1_555 1_555
C4 C3 1_555 1_555
H4 C4 1_555 1_555
C5 C4 1_555 1_555
C6 C5 1_555 1_555
H5 C6 1_555 1_555
C7 C2 1_555 1_555
H6 C7 1_555 1_555
C6 C7 1_555 1_555

#END
