
#######################################################################
#
#                 Cambridge Crystallographic Data Centre
#                                CCDC 
#
#######################################################################
#
# If this CIF has been generated from an entry in the Cambridge 
# Structural Database, then it will include bibliographic, chemical, 
# crystal, experimental, refinement or atomic coordinate data resulting 
# from the CCDC's data processing and validation procedures.
#
#######################################################################

data_QIXVEZ
_chemical_formula_moiety         'C62 H52'
_chemical_name_systematic        
1,2-bis(4'-t-butylphenyl)-1,2-bis(4'-(anthracene-9-yl)phenyl)ethene
_symmetry_cell_setting           orthorhombic
_symmetry_space_group_name_H-M   'P b c a'
_symmetry_Int_Tables_number      61
_space_group_name_Hall           '-P 2ac 2ab'
loop_
_symmetry_equiv_pos_site_id
_symmetry_equiv_pos_as_xyz
1 x,y,z
2 1/2-x,-y,1/2+z
3 -x,1/2+y,1/2-z
4 1/2+x,1/2-y,-z
5 -x,-y,-z
6 1/2+x,y,1/2-z
7 x,1/2-y,1/2+z
8 1/2-x,1/2+y,z
_cell_length_a                   20.268(3)
_cell_length_b                   10.0519(13)
_cell_length_c                   22.389(3)
_cell_angle_alpha                90
_cell_angle_beta                 90
_cell_angle_gamma                90
_cell_volume                     4561.35
_exptl_crystal_colour            colorless
_exptl_crystal_description       block
_cell_formula_units_Z            4
_exptl_crystal_preparation       luminescent
loop_
_atom_site_label
_atom_site_type_symbol
_atom_site_fract_x
_atom_site_fract_y
_atom_site_fract_z
C1 C -0.0894(3) 0.2585(7) 0.2492(3)
H1 H -0.1052 0.1770 0.2357
C2 C -0.0510(4) 0.3312(8) 0.2139(3)
H2 H -0.0405 0.2994 0.1760
C3 C -0.0260(4) 0.4543(7) 0.2321(3)
H3 H -0.0002 0.5041 0.2061
C4 C -0.0394(3) 0.5014(6) 0.2876(3)
H4 H -0.0212 0.5821 0.2996
C5 C -0.0803(3) 0.4303(6) 0.3276(3)
C6 C -0.0963(3) 0.4773(5) 0.3852(3)
C7 C -0.1394(3) 0.4040(6) 0.4221(3)
C8 C -0.1583(3) 0.4510(7) 0.4798(3)
H5 H -0.1411 0.5303 0.4944
C9 C -0.2018(4) 0.3792(8) 0.5134(3)
H6 H -0.2155 0.4127 0.5500
C10 C -0.2261(4) 0.2562(8) 0.4939(4)
H7 H -0.2546 0.2077 0.5181
C11 C -0.2085(4) 0.2081(7) 0.4404(4)
H8 H -0.2247 0.1260 0.4281
C12 C -0.1656(3) 0.2802(6) 0.4023(3)
C13 C -0.1479(3) 0.2318(7) 0.3463(3)
H9 H -0.1639 0.1495 0.3339
C14 C -0.1068(3) 0.3042(6) 0.3084(3)
C15 C -0.0685(3) 0.6057(5) 0.4063(3)
C16 C -0.1051(3) 0.7221(6) 0.4037(3)
H10 H -0.1472 0.7203 0.3872
C17 C -0.0800(3) 0.8407(6) 0.4253(3)
H11 H -0.1057 0.9172 0.4231
C18 C -0.0172(3) 0.8481(5) 0.4501(3)
C19 C 0.0197(3) 0.7319(5) 0.4517(3)
H12 H 0.0622 0.7338 0.4672
C20 C -0.0061(3) 0.6120(6) 0.4305(3)
H13 H 0.0194 0.5351 0.4327
C21 C 0.0081(3) 0.9777(5) 0.4728(2)
C22 C 0.0509(3) 1.0546(5) 0.4318(2)
C23 C 0.0300(3) 1.1708(6) 0.4053(3)
H14 H -0.0120 1.2023 0.4141
C24 C 0.0691(3) 1.2427(6) 0.3658(3)
H15 H 0.0524 1.3202 0.3489
C25 C 0.1323(3) 1.2019(6) 0.3511(3)
C26 C 0.1528(3) 1.0846(6) 0.3772(3)
H16 H 0.1947 1.0527 0.3682
C27 C 0.1136(3) 1.0122(6) 0.4163(3)
H17 H 0.1298 0.9334 0.4325
C28 C 0.1765(3) 1.2775(7) 0.3077(3)
C29 C 0.2453(4) 1.2856(10) 0.3305(4)
H18 H 0.2702 1.3461 0.3062
H19 H 0.2652 1.1991 0.3291
H20 H 0.2448 1.3170 0.3710
C30 C 0.1534(6) 1.4136(13) 0.2983(8)
H21 H 0.1321 1.4452 0.3339
H22 H 0.1226 1.4151 0.2657
H23 H 0.1903 1.4699 0.2891
C31 C 0.1826(8) 1.1996(15) 0.2509(4)
H24 H 0.1409 1.1992 0.2305
H25 H 0.1954 1.1099 0.2599
H26 H 0.2154 1.2399 0.2258
C1D C 0.0894(3) 1.7415(7) 0.7508(3)
H1D H 0.1052 1.8230 0.7643
C2D C 0.0510(4) 1.6688(8) 0.7861(3)
H2D H 0.0405 1.7006 0.8240
C3D C 0.0260(4) 1.5457(7) 0.7679(3)
H3D H 0.0002 1.4959 0.7939
C4D C 0.0394(3) 1.4986(6) 0.7124(3)
H4D H 0.0212 1.4179 0.7004
C5D C 0.0803(3) 1.5697(6) 0.6724(3)
C6D C 0.0963(3) 1.5227(5) 0.6148(3)
C7D C 0.1394(3) 1.5960(6) 0.5779(3)
C8D C 0.1583(3) 1.5490(7) 0.5202(3)
H5D H 0.1411 1.4697 0.5056
C9D C 0.2018(4) 1.6208(8) 0.4866(3)
H6D H 0.2155 1.5873 0.4500
C10D C 0.2261(4) 1.7438(8) 0.5061(4)
H7D H 0.2546 1.7923 0.4819
C11D C 0.2085(4) 1.7919(7) 0.5596(4)
H8D H 0.2247 1.8740 0.5719
C12D C 0.1656(3) 1.7198(6) 0.5977(3)
C13D C 0.1479(3) 1.7682(7) 0.6537(3)
H9D H 0.1639 1.8505 0.6661
C14D C 0.1068(3) 1.6958(6) 0.6916(3)
C15D C 0.0685(3) 1.3943(5) 0.5937(3)
C16D C 0.1051(3) 1.2779(6) 0.5963(3)
H10D H 0.1472 1.2797 0.6128
C17D C 0.0800(3) 1.1593(6) 0.5747(3)
H11D H 0.1057 1.0828 0.5769
C18D C 0.0172(3) 1.1519(5) 0.5499(3)
C19D C -0.0197(3) 1.2681(5) 0.5483(3)
H12D H -0.0622 1.2662 0.5328
C20D C 0.0061(3) 1.3880(6) 0.5695(3)
H13D H -0.0194 1.4649 0.5673
C21D C -0.0081(3) 1.0223(5) 0.5272(2)
C22D C -0.0509(3) 0.9454(5) 0.5682(2)
C23D C -0.0300(3) 0.8292(6) 0.5947(3)
H14D H 0.0120 0.7977 0.5859
C24D C -0.0691(3) 0.7573(6) 0.6342(3)
H15D H -0.0524 0.6798 0.6511
C25D C -0.1323(3) 0.7981(6) 0.6489(3)
C26D C -0.1528(3) 0.9154(6) 0.6228(3)
H16D H -0.1947 0.9473 0.6318
C27D C -0.1136(3) 0.9878(6) 0.5837(3)
H17D H -0.1298 1.0666 0.5675
C28D C -0.1765(3) 0.7225(7) 0.6923(3)
C29D C -0.2453(4) 0.7144(10) 0.6695(4)
H18D H -0.2702 0.6539 0.6938
H19D H -0.2652 0.8009 0.6709
H20D H -0.2448 0.6830 0.6290
C30D C -0.1534(6) 0.5864(13) 0.7017(8)
H21D H -0.1321 0.5548 0.6661
H22D H -0.1226 0.5849 0.7343
H23D H -0.1903 0.5301 0.7109
C31D C -0.1826(8) 0.8004(15) 0.7491(4)
H24D H -0.1409 0.8008 0.7695
H25D H -0.1954 0.8901 0.7401
H26D H -0.2154 0.7601 0.7742
loop_
_geom_bond_atom_site_label_1
_geom_bond_atom_site_label_2
_geom_bond_site_symmetry_1
_geom_bond_site_symmetry_2
C1 H1 1_555 1_555
C2 C1 1_555 1_555
H2 C2 1_555 1_555
C3 C2 1_555 1_555
H3 C3 1_555 1_555
C4 C3 1_555 1_555
H4 C4 1_555 1_555
C5 C4 1_555 1_555
C6 C5 1_555 1_555
C7 C6 1_555 1_555
C8 C7 1_555 1_555
H5 C8 1_555 1_555
C9 C8 1_555 1_555
H6 C9 1_555 1_555
C10 C9 1_555 1_555
H7 C10 1_555 1_555
C11 C10 1_555 1_555
H8 C11 1_555 1_555
C12 C7 1_555 1_555
C13 C12 1_555 1_555
H9 C13 1_555 1_555
C14 C1 1_555 1_555
C15 C6 1_555 1_555
C16 C15 1_555 1_555
H10 C16 1_555 1_555
C17 C16 1_555 1_555
H11 C17 1_555 1_555
C18 C17 1_555 1_555
C19 C18 1_555 1_555
H12 C19 1_555 1_555
C20 C15 1_555 1_555
H13 C20 1_555 1_555
C21 C18 1_555 1_555
C22 C21 1_555 1_555
C23 C22 1_555 1_555
H14 C23 1_555 1_555
C24 C23 1_555 1_555
H15 C24 1_555 1_555
C25 C24 1_555 1_555
C26 C25 1_555 1_555
H16 C26 1_555 1_555
C27 C22 1_555 1_555
H17 C27 1_555 1_555
C28 C25 1_555 1_555
C29 C28 1_555 1_555
H18 C29 1_555 1_555
H19 C29 1_555 1_555
H20 C29 1_555 1_555
C30 C28 1_555 1_555
H21 C30 1_555 1_555
H22 C30 1_555 1_555
H23 C30 1_555 1_555
C31 C28 1_555 1_555
H24 C31 1_555 1_555
H25 C31 1_555 1_555
H26 C31 1_555 1_555
C1D H1D 1_555 1_555
C2D C1D 1_555 1_555
H2D C2D 1_555 1_555
C3D C2D 1_555 1_555
H3D C3D 1_555 1_555
C4D C3D 1_555 1_555
H4D C4D 1_555 1_555
C5D C4D 1_555 1_555
C6D C5D 1_555 1_555
C7D C6D 1_555 1_555
C8D C7D 1_555 1_555
H5D C8D 1_555 1_555
C9D C8D 1_555 1_555
H6D C9D 1_555 1_555
C10D C9D 1_555 1_555
H7D C10D 1_555 1_555
C11D C10D 1_555 1_555
H8D C11D 1_555 1_555
C12D C7D 1_555 1_555
C13D C12D 1_555 1_555
H9D C13D 1_555 1_555
C14D C1D 1_555 1_555
C15D C6D 1_555 1_555
C16D C15D 1_555 1_555
H10D C16D 1_555 1_555
C17D C16D 1_555 1_555
H11D C17D 1_555 1_555
C18D C17D 1_555 1_555
C19D C18D 1_555 1_555
H12D C19D 1_555 1_555
C20D C15D 1_555 1_555
H13D C20D 1_555 1_555
C21D C21 1_555 1_555
C22D C21D 1_555 1_555
C23D C22D 1_555 1_555
H14D C23D 1_555 1_555
C24D C23D 1_555 1_555
H15D C24D 1_555 1_555
C25D C24D 1_555 1_555
C26D C25D 1_555 1_555
H16D C26D 1_555 1_555
C27D C22D 1_555 1_555
H17D C27D 1_555 1_555
C28D C25D 1_555 1_555
C29D C28D 1_555 1_555
H18D C29D 1_555 1_555
H19D C29D 1_555 1_555
H20D C29D 1_555 1_555
C30D C28D 1_555 1_555
H21D C30D 1_555 1_555
H22D C30D 1_555 1_555
H23D C30D 1_555 1_555
C31D C28D 1_555 1_555
H24D C31D 1_555 1_555
H25D C31D 1_555 1_555
H26D C31D 1_555 1_555
C5 C14 1_555 1_555
C11 C12 1_555 1_555
C13 C14 1_555 1_555
C19 C20 1_555 1_555
C26 C27 1_555 1_555
C5D C14D 1_555 1_555
C11D C12D 1_555 1_555
C13D C14D 1_555 1_555
C18D C21D 1_555 1_555
C19D C20D 1_555 1_555
C26D C27D 1_555 1_555

#END
