
#######################################################################
#
#                 Cambridge Crystallographic Data Centre
#                                CCDC 
#
#######################################################################
#
# If this CIF has been generated from an entry in the Cambridge 
# Structural Database, then it will include bibliographic, chemical, 
# crystal, experimental, refinement or atomic coordinate data resulting 
# from the CCDC's data processing and validation procedures.
#
#######################################################################

data_QIXWUP
_chemical_formula_moiety         'C23 H23 O1 P1 Se2'
_chemical_name_systematic        
5-Phenyl-5,13,14,16-tetrahydro-10H,12H-5\l^5^-dibenzo(g,j)(1,5,9)diselenaphosphacyclododeca-7,10-diene-5-one
_symmetry_cell_setting           monoclinic
_symmetry_space_group_name_H-M   'P 21/n'
_symmetry_Int_Tables_number      14
_space_group_name_Hall           '-P 2yn'
loop_
_symmetry_equiv_pos_site_id
_symmetry_equiv_pos_as_xyz
1 x,y,z
2 1/2+x,1/2-y,1/2+z
3 -x,-y,-z
4 1/2-x,1/2+y,1/2-z
_cell_length_a                   13.524(3)
_cell_length_b                   22.784(5)
_cell_length_c                   14.838(3)
_cell_angle_alpha                90.00
_cell_angle_beta                 112.98(3)
_cell_angle_gamma                90.00
_cell_volume                     4209.21
_exptl_crystal_colour            colorless
_chemical_melting_point          206-208deg.C
_cell_formula_units_Z            8
_exptl_crystal_recrystallization_method dichloromethane
loop_
_atom_site_label
_atom_site_type_symbol
_atom_site_fract_x
_atom_site_fract_y
_atom_site_fract_z
Se1 Se 0.93561(9) 0.22629(5) 0.55469(7)
Se2 Se 0.89389(8) 0.09524(5) 0.81872(8)
P1 P 0.75002(17) 0.24290(10) 0.75230(15)
O1 O 0.7059(4) 0.2085(2) 0.6611(4)
C1 C 0.8769(7) 0.2839(4) 0.6222(6)
H1 H 0.8024 0.2755 0.6062
H2 H 0.8818 0.3226 0.5987
C2 C 0.9590(8) 0.1591(4) 0.6398(7)
H3 H 0.9756 0.1731 0.7051
H4 H 1.0204 0.1379 0.6399
C3 C 0.8637(9) 0.1163(5) 0.6130(8)
H5 H 0.8524 0.0978 0.5517
H6 H 0.7998 0.1377 0.6057
C4 C 0.8845(9) 0.0717(5) 0.6913(8)
H7 H 0.8294 0.0423 0.6670
H8 H 0.9513 0.0530 0.7000
C5 C 0.7421(8) 0.1063(5) 0.7888(8)
H9 H 0.7099 0.0688 0.7888
H10 H 0.7088 0.1226 0.7242
C6 C 0.6829(7) 0.3131(4) 0.7336(6)
C7 C 0.5766(7) 0.3163(5) 0.6630(6)
H11 H 0.5426 0.2815 0.6282
C8 C 0.5210(8) 0.3682(5) 0.6427(7)
H12 H 0.4475 0.3702 0.5972
C9 C 0.5754(10) 0.4185(5) 0.6920(9)
H13 H 0.5401 0.4560 0.6759
C10 C 0.6772(9) 0.4163(5) 0.7585(9)
H14 H 0.7122 0.4509 0.7934
C11 C 0.7300(8) 0.3643(4) 0.7783(7)
H15 H 0.8028 0.3630 0.8254
C12 C 0.8917(6) 0.2615(4) 0.7950(6)
C13 C 0.9534(7) 0.2640(5) 0.8976(6)
H16 H 0.9223 0.2506 0.9420
C14 C 1.0582(7) 0.2841(5) 0.9328(6)
H17 H 1.0994 0.2850 1.0022
C15 C 1.1016(7) 0.3041(5) 0.8698(7)
H18 H 1.1748 0.3173 0.8946
C16 C 1.0418(7) 0.3023(5) 0.7699(6)
H19 H 1.0737 0.3157 0.7260
C17 C 0.9358(7) 0.2828(4) 0.7305(6)
C18 C 0.7257(6) 0.2054(5) 0.8500(6)
C19 C 0.7079(7) 0.2417(5) 0.9193(6)
H20 H 0.7121 0.2836 0.9150
C20 C 0.6832(8) 0.2156(6) 0.9945(7)
H21 H 0.6696 0.2392 1.0420
C21 C 0.6780(8) 0.1554(6) 0.9983(8)
H22 H 0.6619 0.1373 1.0495
C22 C 0.6968(8) 0.1216(6) 0.9319(8)
H23 H 0.6919 0.0797 0.9358
C23 C 0.7223(7) 0.1448(5) 0.8574(6)
Se3 Se 0.94420(10) 0.43672(6) 0.03747(8)
Se4 Se 0.89853(8) 0.33871(5) 0.33090(8)
P2 P 0.73004(18) 0.47992(11) 0.21211(16)
O2 O 0.6910(5) 0.4388(3) 0.1296(4)
C24 C 0.8687(6) 0.4983(5) 0.0778(6)
H24 H 0.7958 0.4861 0.0616
H25 H 0.8672 0.5336 0.0420
C25 C 0.9688(8) 0.3796(5) 0.1419(8)
H26 H 0.9809 0.4008 0.2012
H27 H 1.0333 0.3583 0.1512
C26 C 0.8816(9) 0.3373(5) 0.1266(9)
H28 H 0.8736 0.3130 0.0713
H29 H 0.8154 0.3580 0.1124
C27 C 0.9065(10) 0.3009(5) 0.2172(9)
H30 H 0.8564 0.2689 0.2003
H31 H 0.9771 0.2845 0.2356
C28 C 0.7437(7) 0.3469(4) 0.2855(7)
H32 H 0.7132 0.3101 0.2930
H33 H 0.7148 0.3568 0.2172
C29 C 0.6581(6) 0.5482(4) 0.1809(6)
C30 C 0.7043(7) 0.6017(5) 0.2184(7)
H34 H 0.7788 0.6031 0.2615
C31 C 0.6418(9) 0.6520(5) 0.1915(8)
H35 H 0.6734 0.6891 0.2184
C32 C 0.5361(10) 0.6503(5) 0.1296(8)
H36 H 0.4940 0.6855 0.1108
C33 C 0.4907(9) 0.5972(6) 0.0937(7)
H37 H 0.4161 0.5957 0.0510
C34 C 0.5520(8) 0.5463(5) 0.1179(6)
H38 H 0.5201 0.5093 0.0913
C35 C 0.8684(7) 0.5017(3) 0.2501(6)
C36 C 0.9289(7) 0.5166(4) 0.3505(6)
H39 H 0.8970 0.5109 0.3973
C37 C 1.0292(7) 0.5399(5) 0.3811(6)
H40 H 1.0682 0.5486 0.4491
C38 C 1.0741(7) 0.5493(4) 0.3153(7)
H41 H 1.1447 0.5662 0.3376
C39 C 1.0222(7) 0.5361(4) 0.2202(7)
H42 H 1.0566 0.5434 0.1756
C40 C 0.9172(6) 0.5110(4) 0.1844(6)
C41 C 0.7111(6) 0.4530(5) 0.3196(6)
C42 C 0.6849(6) 0.4904(4) 0.3775(6)
H43 H 0.6806 0.5315 0.3622
C43 C 0.6640(7) 0.4707(7) 0.4583(7)
H44 H 0.6454 0.4988 0.4973
C44 C 0.6680(8) 0.4122(6) 0.4790(8)
H45 H 0.6551 0.3994 0.5351
C45 C 0.6920(8) 0.3756(5) 0.4206(8)
H46 H 0.6941 0.3346 0.4362
C46 C 0.7147(6) 0.3919(4) 0.3397(6)
loop_
_geom_bond_atom_site_label_1
_geom_bond_atom_site_label_2
_geom_bond_site_symmetry_1
_geom_bond_site_symmetry_2
Se1 C1 1_555 1_555
Se2 C4 1_555 1_555
P1 O1 1_555 1_555
C1 H1 1_555 1_555
H2 C1 1_555 1_555
C2 Se1 1_555 1_555
H3 C2 1_555 1_555
H4 C2 1_555 1_555
C3 C2 1_555 1_555
H5 C3 1_555 1_555
H6 C3 1_555 1_555
C4 C3 1_555 1_555
H7 C4 1_555 1_555
H8 C4 1_555 1_555
C5 Se2 1_555 1_555
H9 C5 1_555 1_555
H10 C5 1_555 1_555
C6 P1 1_555 1_555
C7 C6 1_555 1_555
H11 C7 1_555 1_555
C8 C7 1_555 1_555
H12 C8 1_555 1_555
C9 C8 1_555 1_555
H13 C9 1_555 1_555
C10 C9 1_555 1_555
H14 C10 1_555 1_555
C11 C6 1_555 1_555
H15 C11 1_555 1_555
C12 P1 1_555 1_555
C13 C12 1_555 1_555
H16 C13 1_555 1_555
C14 C13 1_555 1_555
H17 C14 1_555 1_555
C15 C14 1_555 1_555
H18 C15 1_555 1_555
C16 C15 1_555 1_555
H19 C16 1_555 1_555
C17 C1 1_555 1_555
C18 P1 1_555 1_555
C19 C18 1_555 1_555
H20 C19 1_555 1_555
C20 C19 1_555 1_555
H21 C20 1_555 1_555
C21 C20 1_555 1_555
H22 C21 1_555 1_555
C22 C21 1_555 1_555
H23 C22 1_555 1_555
C23 C5 1_555 1_555
Se3 C24 1_555 1_555
Se4 C27 1_555 1_555
P2 O2 1_555 1_555
C24 H24 1_555 1_555
H25 C24 1_555 1_555
C25 Se3 1_555 1_555
H26 C25 1_555 1_555
H27 C25 1_555 1_555
C26 C25 1_555 1_555
H28 C26 1_555 1_555
H29 C26 1_555 1_555
C27 C26 1_555 1_555
H30 C27 1_555 1_555
H31 C27 1_555 1_555
C28 Se4 1_555 1_555
H32 C28 1_555 1_555
H33 C28 1_555 1_555
C29 P2 1_555 1_555
C30 C29 1_555 1_555
H34 C30 1_555 1_555
C31 C30 1_555 1_555
H35 C31 1_555 1_555
C32 C31 1_555 1_555
H36 C32 1_555 1_555
C33 C32 1_555 1_555
H37 C33 1_555 1_555
C34 C29 1_555 1_555
H38 C34 1_555 1_555
C35 P2 1_555 1_555
C36 C35 1_555 1_555
H39 C36 1_555 1_555
C37 C36 1_555 1_555
H40 C37 1_555 1_555
C38 C37 1_555 1_555
H41 C38 1_555 1_555
C39 C38 1_555 1_555
H42 C39 1_555 1_555
C40 C24 1_555 1_555
C41 P2 1_555 1_555
C42 C41 1_555 1_555
H43 C42 1_555 1_555
C43 C42 1_555 1_555
H44 C43 1_555 1_555
C44 C43 1_555 1_555
H45 C44 1_555 1_555
C45 C44 1_555 1_555
H46 C45 1_555 1_555
C46 C28 1_555 1_555
C10 C11 1_555 1_555
C12 C17 1_555 1_555
C16 C17 1_555 1_555
C18 C23 1_555 1_555
C22 C23 1_555 1_555
C33 C34 1_555 1_555
C35 C40 1_555 1_555
C39 C40 1_555 1_555
C41 C46 1_555 1_555
C45 C46 1_555 1_555

#END
