
#######################################################################
#
#                 Cambridge Crystallographic Data Centre
#                                CCDC 
#
#######################################################################
#
# If this CIF has been generated from an entry in the Cambridge 
# Structural Database, then it will include bibliographic, chemical, 
# crystal, experimental, refinement or atomic coordinate data resulting 
# from the CCDC's data processing and validation procedures.
#
#######################################################################

data_QIXXEC
_chemical_formula_moiety         'C8 H13 N4 1+,C4 H5 O6 1-,H2 O1'
_chemical_name_systematic        
'4-(Pyrimidin-2-yl)piperazin-1-ium hydrogen (D)-tartrate monohydrate'
_symmetry_cell_setting           orthorhombic
_symmetry_space_group_name_H-M   'P 21 21 21'
_symmetry_Int_Tables_number      19
_space_group_name_Hall           'P 2ac 2ab'
loop_
_symmetry_equiv_pos_site_id
_symmetry_equiv_pos_as_xyz
1 x,y,z
2 1/2-x,-y,1/2+z
3 1/2+x,1/2-y,-z
4 -x,1/2+y,1/2-z
_cell_length_a                   7.0637(2)
_cell_length_b                   7.5139(3)
_cell_length_c                   29.3194(11)
_cell_angle_alpha                90
_cell_angle_beta                 90
_cell_angle_gamma                90
_cell_volume                     1556.15
_exptl_crystal_colour            colorless
_exptl_crystal_description       rod
_cell_formula_units_Z            4
loop_
_atom_site_label
_atom_site_type_symbol
_atom_site_fract_x
_atom_site_fract_y
_atom_site_fract_z
N1 N 0.9661(3) 0.6835(4) 0.38906(8)
H1 H 0.9639 0.7972 0.3987
H2 H 1.0306 0.6189 0.4097
C1 C 1.0632(4) 0.6742(7) 0.34482(11)
H3 H 1.1865 0.7302 0.3474
H4 H 1.0829 0.5504 0.3367
C2 C 0.9559(4) 0.7617(7) 0.30861(12)
H5 H 1.0194 0.7439 0.2796
H6 H 0.9501 0.8886 0.3145
N2 N 0.7626(4) 0.6887(6) 0.30617(9)
C3 C 0.6617(4) 0.6987(7) 0.34904(10)
H7 H 0.5404 0.6395 0.3460
H8 H 0.6382 0.8224 0.3566
C4 C 0.7694(5) 0.6154(7) 0.38581(12)
H9 H 0.7730 0.4878 0.3808
H10 H 0.7050 0.6367 0.4145
C5 C 0.6691(5) 0.6914(6) 0.26539(11)
N3 N 0.7747(5) 0.7088(6) 0.22816(9)
C6 C 0.6783(7) 0.7068(8) 0.18905(13)
H11 H 0.7456 0.7203 0.1620
C7 C 0.4886(7) 0.6864(7) 0.18647(13)
H12 H 0.4253 0.6841 0.1587
C8 C 0.3952(6) 0.6692(7) 0.22684(12)
H13 H 0.2643 0.6563 0.2260
N4 N 0.4793(4) 0.6698(5) 0.26734(10)
C9 C 0.8525(4) 0.6513(4) 0.52011(9)
C10 C 0.7833(4) 0.4598(4) 0.52246(9)
C11 C 0.8739(4) 0.3666(4) 0.56326(10)
C12 C 0.8046(4) 0.1750(4) 0.56655(10)
O1 O 0.9275(3) 0.7128(3) 0.48693(7)
O2 O 0.8226(3) 0.7356(2) 0.55864(7)
H14 H 0.8630 0.8376 0.5566
O3 O 0.8194(3) 0.3662(3) 0.48181(7)
O4 O 1.0737(3) 0.3736(3) 0.55926(8)
O5 O 0.9238(3) 0.0558(3) 0.55973(9)
O6 O 0.6325(3) 0.1506(3) 0.57607(7)
H15 H 0.840(3) 0.435(4) 0.5914(9)
H16 H 0.643(3) 0.470(4) 0.5269(8)
H17 H 0.920(5) 0.389(5) 0.4742(11)
H18 H 1.114(6) 0.273(7) 0.5452(15)
O7 O 0.4116(4) 0.4415(4) 0.60451(10)
H19 H 0.482(7) 0.354(8) 0.5945(16)
H20 H 0.301(7) 0.445(7) 0.5923(16)
loop_
_geom_bond_atom_site_label_1
_geom_bond_atom_site_label_2
_geom_bond_site_symmetry_1
_geom_bond_site_symmetry_2
N1 H1 1_555 1_555
H2 N1 1_555 1_555
C1 N1 1_555 1_555
H3 C1 1_555 1_555
H4 C1 1_555 1_555
C2 C1 1_555 1_555
H5 C2 1_555 1_555
H6 C2 1_555 1_555
N2 C2 1_555 1_555
C3 N2 1_555 1_555
H7 C3 1_555 1_555
H8 C3 1_555 1_555
C4 N1 1_555 1_555
H9 C4 1_555 1_555
H10 C4 1_555 1_555
C5 N2 1_555 1_555
N3 C5 1_555 1_555
C6 N3 1_555 1_555
H11 C6 1_555 1_555
C7 C6 1_555 1_555
H12 C7 1_555 1_555
C8 C7 1_555 1_555
H13 C8 1_555 1_555
N4 C5 1_555 1_555
C9 C10 1_555 1_555
C10 C11 1_555 1_555
C11 C12 1_555 1_555
C12 O5 1_555 1_555
O1 C9 1_555 1_555
O2 C9 1_555 1_555
H14 O2 1_555 1_555
O3 C10 1_555 1_555
O4 C11 1_555 1_555
O6 C12 1_555 1_555
H15 C11 1_555 1_555
H16 C10 1_555 1_555
H17 O3 1_555 1_555
H18 O4 1_555 1_555
O7 H19 1_555 1_555
H20 O7 1_555 1_555
C3 C4 1_555 1_555
C8 N4 1_555 1_555

#END
