
#######################################################################
#
#                 Cambridge Crystallographic Data Centre
#                                CCDC 
#
#######################################################################
#
# If this CIF has been generated from an entry in the Cambridge 
# Structural Database, then it will include bibliographic, chemical, 
# crystal, experimental, refinement or atomic coordinate data resulting 
# from the CCDC's data processing and validation procedures.
#
#######################################################################

data_QIXXEA
_chemical_formula_moiety         'C26 H29 O1 P1 Se2'
_chemical_name_systematic        
5-Phenyl-5,12,13,14,15,16,17,19-octahydro-10H-5\l^5^-dibenzo(c,f)(1,9,5)diselenaphosphacyclopentadeca-3,6-diene-5-one
_symmetry_cell_setting           triclinic
_symmetry_space_group_name_H-M   'P -1'
_symmetry_Int_Tables_number      2
_space_group_name_Hall           '-P 1'
loop_
_symmetry_equiv_pos_site_id
_symmetry_equiv_pos_as_xyz
1 x,y,z
2 -x,-y,-z
_cell_length_a                   8.294(2)
_cell_length_b                   8.305(2)
_cell_length_c                   18.438(4)
_cell_angle_alpha                100.38(3)
_cell_angle_beta                 96.14(3)
_cell_angle_gamma                102.78(3)
_cell_volume                     1203.95
_exptl_crystal_colour            'light yellow'
_chemical_melting_point          135-136deg.C
_cell_formula_units_Z            2
_exptl_crystal_recrystallization_method dichloromethane
loop_
_atom_site_label
_atom_site_type_symbol
_atom_site_fract_x
_atom_site_fract_y
_atom_site_fract_z
Se1 Se 0.17599(8) 1.41967(9) 0.95037(4)
Se2 Se 0.28068(9) 0.75490(9) 0.65884(5)
P1 P -0.06427(13) 1.14926(14) 0.70388(7)
O1 O 0.1102(4) 1.2588(4) 0.7172(2)
C1 C -0.0245(7) 1.3369(7) 0.8743(3)
H1 H 0.0085 1.3724 0.8302
H2 H -0.1127 1.3884 0.8880
C2 C 0.3486(8) 1.3766(10) 0.8918(4)
H3 H 0.4210 1.4843 0.8920
H4 H 0.2940 1.3293 0.8414
C3 C 0.4499(9) 1.2579(13) 0.9177(5)
H5 H 0.5038 1.3071 0.9680
H6 H 0.5364 1.2620 0.8869
C4 C 0.3700(13) 1.0736(15) 0.9110(6)
H7 H 0.2791 1.0615 0.9393
H8 H 0.4510 1.0188 0.9298
C5 C 0.3163(9) 0.9924(12) 0.8326(6)
H9 H 0.3975 1.0406 0.8042
H10 H 0.2142 1.0232 0.8188
C6 C 0.2725(12) 0.7935(11) 0.8201(5)
H11 H 0.2122 0.7451 0.8558
H12 H 0.3771 0.7618 0.8214
C7 C 0.1821(9) 0.7120(10) 0.7429(6)
H13 H 0.1376 0.5927 0.7373
H14 H 0.0883 0.7621 0.7421
C8 C 0.1959(6) 0.9444(7) 0.6373(4)
H15 H 0.2738 1.0156 0.6145
H16 H 0.1888 1.0076 0.6853
C9 C -0.2143(5) 1.2683(6) 0.6867(3)
C10 C -0.3694(6) 1.2456(7) 0.7131(3)
H17 H -0.4018 1.1550 0.7385
C11 C -0.4781(6) 1.3403(8) 0.6966(4)
H18 H -0.5737 1.3358 0.7220
C12 C -0.4358(7) 1.4604(7) 0.6541(4)
H19 H -0.5114 1.5289 0.6442
C13 C -0.2867(7) 1.4826(7) 0.6269(4)
H20 H -0.2620 1.5637 0.5960
C14 C -0.1776(6) 1.3895(7) 0.6439(3)
H21 H -0.0786 1.3964 0.6208
C15 C -0.1200(5) 1.0552(6) 0.7820(3)
C16 C -0.1912(6) 0.8795(7) 0.7680(3)
H22 H -0.2136 0.8154 0.7177
C17 C -0.2270(8) 0.7997(8) 0.8264(4)
H23 H -0.2779 0.6807 0.8157
C18 C -0.1967(10) 0.8919(11) 0.8972(4)
H24 H -0.2147 0.8302 0.9362
C19 C -0.1318(8) 1.0680(10) 0.9129(4)
H25 H -0.1171 1.1320 0.9631
C20 C -0.0902(6) 1.1481(7) 0.8543(3)
C21 C -0.1045(5) 0.9805(6) 0.6221(3)
C22 C -0.2647(6) 0.9333(7) 0.5791(3)
H26 H -0.3518 0.9821 0.5965
C23 C -0.2990(8) 0.8141(8) 0.5122(3)
H27 H -0.4111 0.7854 0.4857
C24 C -0.1774(8) 0.7459(8) 0.4867(4)
H28 H -0.2011 0.6686 0.4392
C25 C -0.0209(7) 0.7864(8) 0.5292(3)
H29 H 0.0648 0.7342 0.5127
C26 C 0.0207(6) 0.9035(6) 0.5970(3)
loop_
_geom_bond_atom_site_label_1
_geom_bond_atom_site_label_2
_geom_bond_site_symmetry_1
_geom_bond_site_symmetry_2
Se1 C1 1_555 1_555
Se2 C7 1_555 1_555
P1 O1 1_555 1_555
C1 H1 1_555 1_555
H2 C1 1_555 1_555
C2 Se1 1_555 1_555
H3 C2 1_555 1_555
H4 C2 1_555 1_555
C3 C2 1_555 1_555
H5 C3 1_555 1_555
H6 C3 1_555 1_555
C4 C3 1_555 1_555
H7 C4 1_555 1_555
H8 C4 1_555 1_555
C5 C4 1_555 1_555
H9 C5 1_555 1_555
H10 C5 1_555 1_555
C6 C5 1_555 1_555
H11 C6 1_555 1_555
H12 C6 1_555 1_555
C7 C6 1_555 1_555
H13 C7 1_555 1_555
H14 C7 1_555 1_555
C8 Se2 1_555 1_555
H15 C8 1_555 1_555
H16 C8 1_555 1_555
C9 P1 1_555 1_555
C10 C9 1_555 1_555
H17 C10 1_555 1_555
C11 C10 1_555 1_555
H18 C11 1_555 1_555
C12 C11 1_555 1_555
H19 C12 1_555 1_555
C13 C12 1_555 1_555
H20 C13 1_555 1_555
C14 C9 1_555 1_555
H21 C14 1_555 1_555
C15 P1 1_555 1_555
C16 C15 1_555 1_555
H22 C16 1_555 1_555
C17 C16 1_555 1_555
H23 C17 1_555 1_555
C18 C17 1_555 1_555
H24 C18 1_555 1_555
C19 C18 1_555 1_555
H25 C19 1_555 1_555
C20 C1 1_555 1_555
C21 P1 1_555 1_555
C22 C21 1_555 1_555
H26 C22 1_555 1_555
C23 C22 1_555 1_555
H27 C23 1_555 1_555
C24 C23 1_555 1_555
H28 C24 1_555 1_555
C25 C24 1_555 1_555
H29 C25 1_555 1_555
C26 C8 1_555 1_555
C13 C14 1_555 1_555
C15 C20 1_555 1_555
C19 C20 1_555 1_555
C21 C26 1_555 1_555
C25 C26 1_555 1_555

#END
