
#######################################################################
#
#                 Cambridge Crystallographic Data Centre
#                                CCDC 
#
#######################################################################
#
# If this CIF has been generated from an entry in the Cambridge 
# Structural Database, then it will include bibliographic, chemical, 
# crystal, experimental, refinement or atomic coordinate data resulting 
# from the CCDC's data processing and validation procedures.
#
#######################################################################

data_QIYFUZ
_chemical_formula_moiety         'C41 H42'
_chemical_name_systematic        
17,19-Dimethylhexacyclo(28.2.2.2^3,6^.1^9,13^.1^16,20^.1^23,27^)nonatriaconta-3,5,9,11,13(37),16,18,20(36),23,25,27(35),30,32,33,38-pentadecaene
_symmetry_cell_setting           monoclinic
_symmetry_space_group_name_H-M   'P 21'
_symmetry_Int_Tables_number      4
_space_group_name_Hall           'P 2yb'
loop_
_symmetry_equiv_pos_site_id
_symmetry_equiv_pos_as_xyz
1 x,y,z
2 -x,1/2+y,-z
_cell_length_a                   13.2137(3)
_cell_length_b                   17.1741(6)
_cell_length_c                   14.6429(5)
_cell_angle_alpha                90
_cell_angle_beta                 111.072(2)
_cell_angle_gamma                90
_cell_volume                     3100.75
_exptl_crystal_colour            colorless
_exptl_crystal_description       prisms
_chemical_melting_point          143-145deg.C
_cell_formula_units_Z            4
_exptl_crystal_recrystallization_method trichloromethane
loop_
_atom_site_label
_atom_site_type_symbol
_atom_site_fract_x
_atom_site_fract_y
_atom_site_fract_z
C1 C 0.92873(11) 0.40350(9) 0.75241(12)
H1 H 0.9785 0.3624 0.7907
H2 H 0.9465 0.4140 0.6934
C2 C 0.81153(11) 0.37360(8) 0.72053(12)
H3 H 0.7892 0.3717 0.7782
H4 H 0.7628 0.4104 0.6727
C3 C 0.79935(10) 0.29380(8) 0.67504(12)
C4 C 0.78840(10) 0.28413(9) 0.57756(12)
H5 H 0.7839 0.3286 0.5378
C5 C 0.78402(11) 0.21058(9) 0.53788(12)
H6 H 0.7754 0.2047 0.4710
C6 C 0.79221(11) 0.14567(9) 0.59596(12)
H7 H 0.7900 0.0953 0.5685
C7 C 0.80364(10) 0.15265(9) 0.69349(12)
C8 C 0.80665(10) 0.22715(9) 0.73137(11)
H8 H 0.8139 0.2329 0.7980
C9 C 0.81462(12) 0.08062(9) 0.75584(13)
H9 H 0.8643 0.0924 0.8232
H10 H 0.8483 0.0388 0.7299
C10 C 0.70704(12) 0.05031(10) 0.76014(13)
H11 H 0.6545 0.0438 0.6925
H12 H 0.7195 -0.0016 0.7917
C11 C 0.65832(11) 0.10316(9) 0.81537(12)
C12 C 0.57005(12) 0.14986(9) 0.76625(13)
H13 H 0.5380 0.1470 0.6970
C13 C 0.52777(11) 0.20084(10) 0.81691(12)
H14 H 0.4668 0.2319 0.7815
C14 C 0.57225(11) 0.20748(9) 0.91773(12)
C15 C 0.65971(12) 0.16030(10) 0.96678(12)
H15 H 0.6914 0.1631 1.0361
C16 C 0.70220(12) 0.10892(10) 0.91688(13)
H16 H 0.7622 0.0771 0.9526
C17 C 0.52994(12) 0.26660(9) 0.97102(13)
H17 H 0.5552 0.2521 1.0411
H18 H 0.4497 0.2640 0.9451
C18 C 0.56407(11) 0.35048(9) 0.96315(11)
C19 C 0.51635(12) 0.41110(10) 0.99539(13)
H19 H 0.4616 0.3997 1.0213
C20 C 0.54612(12) 0.48773(10) 0.99097(13)
H20 H 0.5114 0.5279 1.0135
C21 C 0.62629(11) 0.50677(9) 0.95399(12)
C22 C 0.67328(11) 0.44633(9) 0.92096(11)
H21 H 0.7275 0.4578 0.8945
C23 C 0.64342(11) 0.36940(9) 0.92535(11)
H22 H 0.6776 0.3293 0.9023
C24 C 0.65818(12) 0.58954(9) 0.94387(12)
H23 H 0.7356 0.5910 0.9512
H24 H 0.6496 0.6213 0.9971
C25 C 0.58953(11) 0.62549(9) 0.84447(12)
H25 H 0.5747 0.5853 0.7928
H26 H 0.5191 0.6430 0.8468
C26 C 0.64630(11) 0.69355(9) 0.81899(11)
C27 C 0.63695(11) 0.76874(9) 0.84863(12)
H27 H 0.5894 0.7796 0.8826
C28 C 0.69685(12) 0.82857(9) 0.82894(11)
H28 H 0.6893 0.8802 0.8488
C29 C 0.76727(12) 0.81336(9) 0.78078(11)
H29 H 0.8094 0.8545 0.7694
C30 C 0.77731(11) 0.73853(9) 0.74866(11)
C31 C 0.71567(11) 0.67956(9) 0.76794(11)
H30 H 0.7209 0.6283 0.7457
C32 C 0.85460(11) 0.71977(9) 0.69742(11)
H31 H 0.8633 0.7663 0.6610
H32 H 0.8233 0.6777 0.6493
C33 C 0.96662(11) 0.69405(8) 0.76838(11)
H33 H 1.0156 0.6875 0.7312
H34 H 0.9970 0.7358 0.8172
C34 C 0.96456(10) 0.61891(9) 0.82172(11)
C35 C 0.97561(11) 0.61696(9) 0.92044(11)
C36 C 0.97458(11) 0.54453(10) 0.96305(11)
H35 H 0.9827 0.5429 1.0302
C37 C 0.96230(11) 0.47448(9) 0.91257(11)
C38 C 0.94732(10) 0.47659(9) 0.81332(11)
C39 C 0.94967(10) 0.54898(9) 0.77072(11)
H36 H 0.9406 0.5505 0.7034
C40 C 0.98876(14) 0.69005(10) 0.98151(12)
H37 H 0.9885 0.6763 1.0464
H38 H 0.9287 0.7258 0.9492
H39 H 1.0576 0.7153 0.9884
C41 C 0.96796(12) 0.39839(9) 0.96581(12)
H40 H 0.8966 0.3732 0.9417
H41 H 0.9895 0.4084 1.0362
H42 H 1.0214 0.3642 0.9541
C42 C 0.04458(11) -0.09257(9) 0.75999(11)
H43 H 0.0138 -0.1392 0.7198
H44 H -0.0048 -0.0780 0.7945
C43 C 0.15606(11) -0.11381(9) 0.83646(11)
H45 H 0.1876 -0.0671 0.8762
H46 H 0.1462 -0.1541 0.8809
C44 C 0.23391(11) -0.14368(9) 0.79087(11)
C45 C 0.24593(11) -0.22263(9) 0.77843(12)
H47 H 0.2057 -0.2589 0.8007
C46 C 0.31563(12) -0.24937(9) 0.73401(12)
H48 H 0.3238 -0.3037 0.7268
C47 C 0.37364(12) -0.19670(9) 0.69991(12)
H49 H 0.4208 -0.2153 0.6688
C48 C 0.36323(11) -0.11720(9) 0.71096(11)
C49 C 0.29395(11) -0.09188(9) 0.75690(11)
H50 H 0.2871 -0.0376 0.7656
C50 C 0.42004(11) -0.05782(9) 0.67024(12)
H51 H 0.4905 -0.0793 0.6726
H52 H 0.4349 -0.0106 0.7117
C51 C 0.35199(11) -0.03528(9) 0.56385(11)
H53 H 0.3644 -0.0741 0.5190
H54 H 0.2742 -0.0370 0.5551
C52 C 0.37885(10) 0.04477(9) 0.53621(11)
C53 C 0.45680(11) 0.05661(9) 0.49443(11)
H55 H 0.4915 0.0131 0.4783
C54 C 0.48442(11) 0.13155(9) 0.47601(11)
H56 H 0.5379 0.1385 0.4474
C55 C 0.43538(11) 0.19642(9) 0.49859(11)
C56 C 0.35620(11) 0.18428(9) 0.53846(11)
H57 H 0.3201 0.2277 0.5531
C57 C 0.32884(11) 0.10960(9) 0.55728(11)
H58 H 0.2747 0.1028 0.5852
C58 C 0.46808(11) 0.27759(8) 0.47778(12)
H59 H 0.5480 0.2795 0.4981
H60 H 0.4371 0.2869 0.4063
C59 C 0.43198(11) 0.34227(9) 0.52868(12)
C60 C 0.48879(11) 0.36035(9) 0.62604(12)
H61 H 0.5536 0.3329 0.6610
C61 C 0.45231(12) 0.41806(9) 0.67327(12)
H62 H 0.4927 0.4292 0.7401
C62 C 0.35841(11) 0.45971(8) 0.62514(11)
C63 C 0.30109(12) 0.44103(9) 0.52771(11)
H63 H 0.2358 0.4680 0.4930
C64 C 0.33761(11) 0.38377(9) 0.48035(12)
H64 H 0.2973 0.3727 0.4135
C65 C 0.31946(12) 0.52348(9) 0.67546(13)
H65 H 0.3145 0.5726 0.6387
H66 H 0.3741 0.5312 0.7419
C66 C 0.20893(12) 0.50731(9) 0.68424(13)
H67 H 0.1830 0.5555 0.7057
H68 H 0.1561 0.4934 0.6189
C67 C 0.21212(11) 0.44288(9) 0.75492(12)
C68 C 0.21922(11) 0.45970(10) 0.84954(12)
H69 H 0.2216 0.5124 0.8698
C69 C 0.22289(12) 0.40057(11) 0.91488(13)
H70 H 0.2276 0.4130 0.9795
C70 C 0.21981(11) 0.32387(10) 0.88675(13)
H71 H 0.2227 0.2838 0.9323
C71 C 0.21243(11) 0.30439(9) 0.79225(12)
C72 C 0.20844(10) 0.36444(9) 0.72780(12)
H72 H 0.2030 0.3520 0.6630
C73 C 0.20168(11) 0.22108(9) 0.75846(12)
H73 H 0.2449 0.1873 0.8135
H74 H 0.2312 0.2156 0.7055
C74 C 0.08258(11) 0.19410(9) 0.72083(12)
H75 H 0.0561 0.1938 0.7761
H76 H 0.0382 0.2319 0.6717
C75 C 0.06687(10) 0.11423(9) 0.67524(12)
C76 C 0.05446(10) 0.10299(9) 0.57711(12)
C77 C 0.04237(10) 0.02739(9) 0.54062(11)
H77 H 0.0365 0.0198 0.4746
C78 C 0.03847(10) -0.03774(9) 0.59598(11)
C79 C 0.04830(10) -0.02684(9) 0.69329(11)
C80 C 0.06366(10) 0.04926(9) 0.73029(11)
H78 H 0.0724 0.0568 0.7970
C81 C 0.05040(12) 0.17079(10) 0.50984(13)
H79 H 0.1155 0.2029 0.5385
H80 H -0.0141 0.2023 0.5014
H81 H 0.0472 0.1510 0.4461
C82 C 0.02396(12) -0.11786(9) 0.55009(12)
H82 H 0.0857 -0.1508 0.5870
H83 H 0.0200 -0.1135 0.4822
H84 H -0.0432 -0.1411 0.5514
loop_
_geom_bond_atom_site_label_1
_geom_bond_atom_site_label_2
_geom_bond_site_symmetry_1
_geom_bond_site_symmetry_2
C1 H1 1_555 1_555
H2 C1 1_555 1_555
C2 C1 1_555 1_555
H3 C2 1_555 1_555
H4 C2 1_555 1_555
C3 C2 1_555 1_555
C4 C3 1_555 1_555
H5 C4 1_555 1_555
C5 C4 1_555 1_555
H6 C5 1_555 1_555
C6 C5 1_555 1_555
H7 C6 1_555 1_555
C7 C6 1_555 1_555
C8 C3 1_555 1_555
H8 C8 1_555 1_555
C9 C7 1_555 1_555
H9 C9 1_555 1_555
H10 C9 1_555 1_555
C10 C9 1_555 1_555
H11 C10 1_555 1_555
H12 C10 1_555 1_555
C11 C10 1_555 1_555
C12 C11 1_555 1_555
H13 C12 1_555 1_555
C13 C12 1_555 1_555
H14 C13 1_555 1_555
C14 C13 1_555 1_555
C15 C14 1_555 1_555
H15 C15 1_555 1_555
C16 C11 1_555 1_555
H16 C16 1_555 1_555
C17 C14 1_555 1_555
H17 C17 1_555 1_555
H18 C17 1_555 1_555
C18 C17 1_555 1_555
C19 C18 1_555 1_555
H19 C19 1_555 1_555
C20 C19 1_555 1_555
H20 C20 1_555 1_555
C21 C20 1_555 1_555
C22 C21 1_555 1_555
H21 C22 1_555 1_555
C23 C18 1_555 1_555
H22 C23 1_555 1_555
C24 C21 1_555 1_555
H23 C24 1_555 1_555
H24 C24 1_555 1_555
C25 C24 1_555 1_555
H25 C25 1_555 1_555
H26 C25 1_555 1_555
C26 C25 1_555 1_555
C27 C26 1_555 1_555
H27 C27 1_555 1_555
C28 C27 1_555 1_555
H28 C28 1_555 1_555
C29 C28 1_555 1_555
H29 C29 1_555 1_555
C30 C29 1_555 1_555
C31 C26 1_555 1_555
H30 C31 1_555 1_555
C32 C30 1_555 1_555
H31 C32 1_555 1_555
H32 C32 1_555 1_555
C33 C32 1_555 1_555
H33 C33 1_555 1_555
H34 C33 1_555 1_555
C34 C33 1_555 1_555
C35 C34 1_555 1_555
C36 C35 1_555 1_555
H35 C36 1_555 1_555
C37 C36 1_555 1_555
C38 C1 1_555 1_555
C39 C34 1_555 1_555
H36 C39 1_555 1_555
C40 C35 1_555 1_555
H37 C40 1_555 1_555
H38 C40 1_555 1_555
H39 C40 1_555 1_555
C41 C37 1_555 1_555
H40 C41 1_555 1_555
H41 C41 1_555 1_555
H42 C41 1_555 1_555
C42 H43 1_555 1_555
H44 C42 1_555 1_555
C43 C42 1_555 1_555
H45 C43 1_555 1_555
H46 C43 1_555 1_555
C44 C43 1_555 1_555
C45 C44 1_555 1_555
H47 C45 1_555 1_555
C46 C45 1_555 1_555
H48 C46 1_555 1_555
C47 C46 1_555 1_555
H49 C47 1_555 1_555
C48 C47 1_555 1_555
C49 C44 1_555 1_555
H50 C49 1_555 1_555
C50 C48 1_555 1_555
H51 C50 1_555 1_555
H52 C50 1_555 1_555
C51 C50 1_555 1_555
H53 C51 1_555 1_555
H54 C51 1_555 1_555
C52 C51 1_555 1_555
C53 C52 1_555 1_555
H55 C53 1_555 1_555
C54 C53 1_555 1_555
H56 C54 1_555 1_555
C55 C54 1_555 1_555
C56 C55 1_555 1_555
H57 C56 1_555 1_555
C57 C52 1_555 1_555
H58 C57 1_555 1_555
C58 C55 1_555 1_555
H59 C58 1_555 1_555
H60 C58 1_555 1_555
C59 C58 1_555 1_555
C60 C59 1_555 1_555
H61 C60 1_555 1_555
C61 C60 1_555 1_555
H62 C61 1_555 1_555
C62 C61 1_555 1_555
C63 C62 1_555 1_555
H63 C63 1_555 1_555
C64 C59 1_555 1_555
H64 C64 1_555 1_555
C65 C62 1_555 1_555
H65 C65 1_555 1_555
H66 C65 1_555 1_555
C66 C65 1_555 1_555
H67 C66 1_555 1_555
H68 C66 1_555 1_555
C67 C66 1_555 1_555
C68 C67 1_555 1_555
H69 C68 1_555 1_555
C69 C68 1_555 1_555
H70 C69 1_555 1_555
C70 C69 1_555 1_555
H71 C70 1_555 1_555
C71 C70 1_555 1_555
C72 C67 1_555 1_555
H72 C72 1_555 1_555
C73 C71 1_555 1_555
H73 C73 1_555 1_555
H74 C73 1_555 1_555
C74 C73 1_555 1_555
H75 C74 1_555 1_555
H76 C74 1_555 1_555
C75 C74 1_555 1_555
C76 C75 1_555 1_555
C77 C76 1_555 1_555
H77 C77 1_555 1_555
C78 C77 1_555 1_555
C79 C42 1_555 1_555
C80 C75 1_555 1_555
H78 C80 1_555 1_555
C81 C76 1_555 1_555
H79 C81 1_555 1_555
H80 C81 1_555 1_555
H81 C81 1_555 1_555
C82 C78 1_555 1_555
H82 C82 1_555 1_555
H83 C82 1_555 1_555
H84 C82 1_555 1_555
C7 C8 1_555 1_555
C15 C16 1_555 1_555
C22 C23 1_555 1_555
C30 C31 1_555 1_555
C37 C38 1_555 1_555
C38 C39 1_555 1_555
C48 C49 1_555 1_555
C56 C57 1_555 1_555
C63 C64 1_555 1_555
C71 C72 1_555 1_555
C78 C79 1_555 1_555
C79 C80 1_555 1_555

#END
