
#######################################################################
#
#                 Cambridge Crystallographic Data Centre
#                                CCDC 
#
#######################################################################
#
# If this CIF has been generated from an entry in the Cambridge 
# Structural Database, then it will include bibliographic, chemical, 
# crystal, experimental, refinement or atomic coordinate data resulting 
# from the CCDC's data processing and validation procedures.
#
#######################################################################

data_QIYLER
_chemical_formula_moiety         'C36 H35 N5 O2 S1'
_chemical_name_systematic        
3',6'-bis(diethylamino)-2-(5-phenyl-1,3,4-thiadiazol-2-yl)spiro[isoindole-1,9'-xanthen]-3(2H)-one
_symmetry_cell_setting           monoclinic
_symmetry_space_group_name_H-M   'P 21/n'
_symmetry_Int_Tables_number      14
_space_group_name_Hall           '-P 2yn'
loop_
_symmetry_equiv_pos_site_id
_symmetry_equiv_pos_as_xyz
1 x,y,z
2 1/2-x,1/2+y,1/2-z
3 -x,-y,-z
4 1/2+x,1/2-y,1/2+z
_cell_length_a                   16.334(3)
_cell_length_b                   12.039(2)
_cell_length_c                   16.574(3)
_cell_angle_alpha                90
_cell_angle_beta                 109.258(3)
_cell_angle_gamma                90
_cell_volume                     3076.82
_cell_formula_units_Z            4
loop_
_atom_site_label
_atom_site_type_symbol
_atom_site_fract_x
_atom_site_fract_y
_atom_site_fract_z
S1 S 0.14536(5) 0.46055(6) 1.03054(4)
N1 N 0.26827(15) 0.3252(2) 1.09836(14)
N2 N 0.23957(14) 0.29968(19) 1.01286(13)
N3 N 0.13746(12) 0.35452(16) 0.88333(13)
N4 N 0.11351(16) -0.17325(19) 0.92042(17)
N5 N 0.51516(16) 0.3430(2) 0.8416(2)
O1 O 0.03478(13) 0.48856(18) 0.86838(14)
O2 O 0.30348(11) 0.10546(15) 0.88782(12)
C1 C 0.2030(3) 0.5412(3) 1.2198(2)
H1 H 0.1600 0.5752 1.1753
C2 C 0.2242(3) 0.5825(4) 1.3028(3)
H2 H 0.1956 0.6449 1.3131
C3 C 0.2858(3) 0.5331(5) 1.3686(3)
H3 H 0.2991 0.5607 1.4238
C4 C 0.3277(3) 0.4434(5) 1.3531(2)
H4 H 0.3698 0.4091 1.3983
C5 C 0.3094(2) 0.4013(3) 1.2713(2)
H5 H 0.3397 0.3401 1.2618
C6 C 0.24610(19) 0.4501(3) 1.20419(18)
C7 C 0.22598(17) 0.4070(2) 1.11664(16)
C8 C 0.17665(16) 0.3639(2) 0.97056(16)
C9 C 0.06841(17) 0.4187(2) 0.83708(18)
C10 C 0.04693(17) 0.3827(2) 0.74863(17)
C11 C -0.0191(2) 0.4199(3) 0.6774(2)
H6 H -0.0556 0.4774 0.6815
C12 C -0.0291(2) 0.3694(4) 0.6005(2)
H7 H -0.0728 0.3926 0.5514
C13 C 0.0253(2) 0.2850(4) 0.5959(2)
H8 H 0.0173 0.2510 0.5435
C14 C 0.09152(19) 0.2488(3) 0.66643(17)
H9 H 0.1286 0.1922 0.6622
C15 C 0.10086(16) 0.2992(2) 0.74322(16)
C16 C 0.16535(15) 0.2710(2) 0.82987(15)
C17 C 0.15305(15) 0.1541(2) 0.85560(15)
C18 C 0.07221(17) 0.1157(2) 0.85146(18)
H10 H 0.0251 0.1637 0.8331
C19 C 0.05915(18) 0.0093(2) 0.87351(19)
H11 H 0.0038 -0.0129 0.8708
C20 C 0.12750(18) -0.0665(2) 0.89997(17)
C21 C 0.20923(17) -0.0277(2) 0.90476(16)
H12 H 0.2568 -0.0749 0.9231
C22 C 0.22014(15) 0.0800(2) 0.88256(15)
C23 C 0.31960(16) 0.2090(2) 0.86155(15)
C24 C 0.40481(16) 0.2247(2) 0.86503(16)
H13 H 0.4446 0.1670 0.8829
C25 C 0.43099(17) 0.3258(2) 0.84201(17)
C26 C 0.36889(18) 0.4086(2) 0.81564(18)
H14 H 0.3845 0.4778 0.8005
C27 C 0.28488(17) 0.3901(2) 0.81159(16)
H15 H 0.2446 0.4469 0.7924
C28 C 0.25790(15) 0.2900(2) 0.83502(15)
C29 C 0.0258(2) -0.2184(3) 0.8973(2)
H16 H 0.0272 -0.2965 0.8836
H17 H -0.0109 -0.1807 0.8466
C30 C -0.0127(3) -0.2061(4) 0.9666(3)
H18 H 0.0209 -0.2478 1.0158
H19 H -0.0712 -0.2336 0.9471
H20 H -0.0128 -0.1292 0.9817
C31 C 0.1826(2) -0.2530(3) 0.9467(2)
H21 H 0.1685 -0.3081 0.9827
H22 H 0.2352 -0.2155 0.9809
C32 C 0.2000(3) -0.3112(3) 0.8741(3)
H23 H 0.1478 -0.3463 0.8386
H24 H 0.2441 -0.3664 0.8963
H25 H 0.2192 -0.2582 0.8409
C33 C 0.5532(2) 0.4514(3) 0.8566(3)
H26 H 0.5095 0.5053 0.8269
H27 H 0.5993 0.4548 0.8318
C34 C 0.5894(3) 0.4841(5) 0.9486(3)
H28 H 0.5488 0.4651 0.9771
H29 H 0.5997 0.5627 0.9527
H30 H 0.6430 0.4455 0.9751
C35 C 0.5747(2) 0.2489(4) 0.8597(4)
H31 H 0.6013 0.2434 0.9213
H32 H 0.5407 0.1820 0.8407
C36 C 0.6409(4) 0.2491(6) 0.8241(4)
H33 H 0.6171 0.2653 0.7641
H34 H 0.6684 0.1776 0.8319
H35 H 0.6829 0.3048 0.8516
loop_
_geom_bond_atom_site_label_1
_geom_bond_atom_site_label_2
_geom_bond_site_symmetry_1
_geom_bond_site_symmetry_2
S1 C7 1_555 1_555
N1 N2 1_555 1_555
N2 C8 1_555 1_555
N3 C8 1_555 1_555
N4 C20 1_555 1_555
N5 C25 1_555 1_555
O1 C9 1_555 1_555
O2 C22 1_555 1_555
C1 H1 1_555 1_555
C2 C1 1_555 1_555
H2 C2 1_555 1_555
C3 C2 1_555 1_555
H3 C3 1_555 1_555
C4 C3 1_555 1_555
H4 C4 1_555 1_555
C5 C4 1_555 1_555
H5 C5 1_555 1_555
C6 C1 1_555 1_555
C7 N1 1_555 1_555
C8 S1 1_555 1_555
C9 N3 1_555 1_555
C10 C9 1_555 1_555
C11 C10 1_555 1_555
H6 C11 1_555 1_555
C12 C11 1_555 1_555
H7 C12 1_555 1_555
C13 C12 1_555 1_555
H8 C13 1_555 1_555
C14 C13 1_555 1_555
H9 C14 1_555 1_555
C15 C10 1_555 1_555
C16 N3 1_555 1_555
C17 C16 1_555 1_555
C18 C17 1_555 1_555
H10 C18 1_555 1_555
C19 C18 1_555 1_555
H11 C19 1_555 1_555
C20 C19 1_555 1_555
C21 C20 1_555 1_555
H12 C21 1_555 1_555
C22 C17 1_555 1_555
C23 O2 1_555 1_555
C24 C23 1_555 1_555
H13 C24 1_555 1_555
C25 C24 1_555 1_555
C26 C25 1_555 1_555
H14 C26 1_555 1_555
C27 C26 1_555 1_555
H15 C27 1_555 1_555
C28 C16 1_555 1_555
C29 N4 1_555 1_555
H16 C29 1_555 1_555
H17 C29 1_555 1_555
C30 C29 1_555 1_555
H18 C30 1_555 1_555
H19 C30 1_555 1_555
H20 C30 1_555 1_555
C31 N4 1_555 1_555
H21 C31 1_555 1_555
H22 C31 1_555 1_555
C32 C31 1_555 1_555
H23 C32 1_555 1_555
H24 C32 1_555 1_555
H25 C32 1_555 1_555
C33 N5 1_555 1_555
H26 C33 1_555 1_555
H27 C33 1_555 1_555
C34 C33 1_555 1_555
H28 C34 1_555 1_555
H29 C34 1_555 1_555
H30 C34 1_555 1_555
C35 N5 1_555 1_555
H31 C35 1_555 1_555
H32 C35 1_555 1_555
C36 C35 1_555 1_555
H33 C36 1_555 1_555
H34 C36 1_555 1_555
H35 C36 1_555 1_555
C5 C6 1_555 1_555
C6 C7 1_555 1_555
C14 C15 1_555 1_555
C15 C16 1_555 1_555
C21 C22 1_555 1_555
C23 C28 1_555 1_555
C27 C28 1_555 1_555

#END
