
#######################################################################
#
#                 Cambridge Crystallographic Data Centre
#                                CCDC 
#
#######################################################################
#
# If this CIF has been generated from an entry in the Cambridge 
# Structural Database, then it will include bibliographic, chemical, 
# crystal, experimental, refinement or atomic coordinate data resulting 
# from the CCDC's data processing and validation procedures.
#
#######################################################################

data_QIYLOB
_chemical_formula_moiety         'C37 H37 N5 O3 S1'
_chemical_name_systematic        
3',6'-bis(diethylamino)-2-(5-(4-methoxyphenyl)-1,3,4-thiadiazol-2-yl)spiro[isoindole-1,9'-xanthen]-3(2H)-one
_symmetry_cell_setting           monoclinic
_symmetry_space_group_name_H-M   'C 2/c'
_symmetry_Int_Tables_number      15
_space_group_name_Hall           '-C 2yn'
loop_
_symmetry_equiv_pos_site_id
_symmetry_equiv_pos_as_xyz
1 x,y,z
2 -x,y,1/2-z
3 1/2+x,1/2+y,z
4 1/2-x,1/2+y,1/2-z
5 -x,-y,-z
6 x,-y,1/2+z
7 1/2-x,1/2-y,-z
8 1/2+x,1/2-y,1/2+z
_cell_length_a                   28.380(6)
_cell_length_b                   17.275(6)
_cell_length_c                   19.574(7)
_cell_angle_alpha                90
_cell_angle_beta                 129.802(10)
_cell_angle_gamma                90
_cell_volume                     7372.57
_cell_formula_units_Z            8
loop_
_atom_site_label
_atom_site_type_symbol
_atom_site_fract_x
_atom_site_fract_y
_atom_site_fract_z
S1 S 0.28211(12) -0.03433(12) 0.06488(16)
N1 N 0.3111(3) -0.1196(4) 0.1928(5)
N2 N 0.2946(3) -0.0492(4) 0.2062(5)
N3 N 0.2610(3) 0.0755(3) 0.1434(4)
N4 N 0.5043(5) 0.1052(6) 0.5499(7)
N5 N 0.0895(4) -0.0313(5) 0.2351(6)
O1 O 0.3657(4) -0.3781(4) 0.0139(6)
O2 O 0.2409(3) 0.1103(3) 0.0139(4)
O3 O 0.2961(3) 0.0242(3) 0.3697(4)
C1 C 0.3640(6) -0.3754(7) -0.0580(9)
H1 H 0.3263 -0.3519 -0.1075
H2 H 0.3665 -0.4270 -0.0736
H3 H 0.3980 -0.3455 -0.0429
C2 C 0.3523(4) -0.3122(6) 0.0400(8)
C3 C 0.3505(5) -0.3207(5) 0.1063(8)
H4 H 0.3589 -0.3687 0.1334
C4 C 0.3361(5) -0.2586(5) 0.1349(7)
H5 H 0.3354 -0.2650 0.1814
C5 C 0.3231(4) -0.1887(5) 0.0952(6)
C6 C 0.3253(4) -0.1802(5) 0.0275(6)
H6 H 0.3170 -0.1318 0.0011
C7 C 0.3396(5) -0.2421(6) -0.0037(7)
H7 H 0.3404 -0.2364 -0.0501
C8 C 0.3078(4) -0.1210(4) 0.1240(6)
C9 C 0.2787(4) -0.0013(5) 0.1445(6)
C10 C 0.2431(4) 0.1263(4) 0.0765(6)
C11 C 0.2306(4) 0.1992(4) 0.0988(6)
C12 C 0.2107(4) 0.2687(5) 0.0526(6)
H8 H 0.2027 0.2730 -0.0013
C13 C 0.2029(4) 0.3320(5) 0.0888(6)
H9 H 0.1895 0.3791 0.0589
C14 C 0.2153(4) 0.3242(5) 0.1693(7)
H10 H 0.2113 0.3672 0.1939
C15 C 0.2335(4) 0.2542(5) 0.2143(6)
H11 H 0.2402 0.2494 0.2672
C16 C 0.2417(3) 0.1915(4) 0.1785(5)
C17 C 0.2622(4) 0.1104(4) 0.2152(5)
C18 C 0.3252(4) 0.1083(4) 0.3040(6)
C19 C 0.3724(5) 0.1519(5) 0.3192(7)
H12 H 0.3641 0.1828 0.2736
C20 C 0.4315(5) 0.1506(6) 0.4005(7)
H13 H 0.4618 0.1801 0.4076
C21 C 0.4467(5) 0.1066(5) 0.4715(7)
C22 C 0.3978(4) 0.0650(5) 0.4577(6)
H14 H 0.4049 0.0366 0.5039
C23 C 0.3402(4) 0.0671(4) 0.3759(6)
C24 C 0.2355(4) 0.0322(4) 0.2952(6)
C25 C 0.1938(5) -0.0024(5) 0.2997(6)
H15 H 0.2081 -0.0296 0.3507
C26 C 0.1320(5) 0.0022(5) 0.2312(7)
C27 C 0.1127(4) 0.0428(5) 0.1558(7)
H16 H 0.0710 0.0472 0.1076
C28 C 0.1554(4) 0.0767(5) 0.1525(6)
H17 H 0.1416 0.1040 0.1017
C29 C 0.2176(4) 0.0715(4) 0.2218(6)
C30 C 0.5542(5) 0.1519(9) 0.5665(9)
H18 H 0.5526 0.1464 0.5158
H19 H 0.5930 0.1304 0.6177
C31 C 0.5538(7) 0.2361(10) 0.5828(11)
H20 H 0.5235 0.2618 0.5272
H21 H 0.5935 0.2578 0.6103
H22 H 0.5441 0.2430 0.6212
C32 C 0.5273(7) 0.0426(12) 0.6317(15)
H23 H 0.5029 -0.0043 0.6107
H24 H 0.5707 0.0304 0.6695
C33 C 0.5139(7) 0.0918(11) 0.6673(11)
H25 H 0.5310 0.1414 0.6722
H26 H 0.5306 0.0740 0.7254
H27 H 0.4701 0.0962 0.6306
C34 C 0.0247(7) -0.0219(10) 0.1656(10)
H28 H 0.0063 -0.0265 0.1935
H29 H 0.0185 0.0313 0.1455
C35 C -0.0088(13) -0.066(2) 0.0928(16)
H30 H 0.0049 -0.0585 0.0593
H31 H -0.0512 -0.0511 0.0571
H32 H -0.0043 -0.1191 0.1095
C36 C 0.1087(5) -0.0811(8) 0.3093(8)
H33 H 0.1446 -0.0588 0.3643
H34 H 0.0762 -0.0833 0.3129
C37 C 0.1229(6) -0.1587(9) 0.2998(11)
H35 H 0.0902 -0.1776 0.2412
H36 H 0.1276 -0.1919 0.3432
H37 H 0.1603 -0.1581 0.3088
loop_
_geom_bond_atom_site_label_1
_geom_bond_atom_site_label_2
_geom_bond_site_symmetry_1
_geom_bond_site_symmetry_2
S1 C8 1_555 1_555
N1 N2 1_555 1_555
N2 C9 1_555 1_555
N3 C9 1_555 1_555
N4 C21 1_555 1_555
N5 C26 1_555 1_555
O1 C1 1_555 1_555
O2 C10 1_555 1_555
O3 C23 1_555 1_555
C1 H1 1_555 1_555
H2 C1 1_555 1_555
H3 C1 1_555 1_555
C2 O1 1_555 1_555
C3 C2 1_555 1_555
H4 C3 1_555 1_555
C4 C3 1_555 1_555
H5 C4 1_555 1_555
C5 C4 1_555 1_555
C6 C5 1_555 1_555
H6 C6 1_555 1_555
C7 C2 1_555 1_555
H7 C7 1_555 1_555
C8 N1 1_555 1_555
C9 S1 1_555 1_555
C10 N3 1_555 1_555
C11 C10 1_555 1_555
C12 C11 1_555 1_555
H8 C12 1_555 1_555
C13 C12 1_555 1_555
H9 C13 1_555 1_555
C14 C13 1_555 1_555
H10 C14 1_555 1_555
C15 C14 1_555 1_555
H11 C15 1_555 1_555
C16 C11 1_555 1_555
C17 N3 1_555 1_555
C18 C17 1_555 1_555
C19 C18 1_555 1_555
H12 C19 1_555 1_555
C20 C19 1_555 1_555
H13 C20 1_555 1_555
C21 C20 1_555 1_555
C22 C21 1_555 1_555
H14 C22 1_555 1_555
C23 C18 1_555 1_555
C24 O3 1_555 1_555
C25 C24 1_555 1_555
H15 C25 1_555 1_555
C26 C25 1_555 1_555
C27 C26 1_555 1_555
H16 C27 1_555 1_555
C28 C27 1_555 1_555
H17 C28 1_555 1_555
C29 C17 1_555 1_555
C30 N4 1_555 1_555
H18 C30 1_555 1_555
H19 C30 1_555 1_555
C31 C30 1_555 1_555
H20 C31 1_555 1_555
H21 C31 1_555 1_555
H22 C31 1_555 1_555
C32 N4 1_555 1_555
H23 C32 1_555 1_555
H24 C32 1_555 1_555
C33 C32 1_555 1_555
H25 C33 1_555 1_555
H26 C33 1_555 1_555
H27 C33 1_555 1_555
C34 N5 1_555 1_555
H28 C34 1_555 1_555
H29 C34 1_555 1_555
C35 C34 1_555 1_555
H30 C35 1_555 1_555
H31 C35 1_555 1_555
H32 C35 1_555 1_555
C36 N5 1_555 1_555
H33 C36 1_555 1_555
H34 C36 1_555 1_555
C37 C36 1_555 1_555
H35 C37 1_555 1_555
H36 C37 1_555 1_555
H37 C37 1_555 1_555
C5 C8 1_555 1_555
C6 C7 1_555 1_555
C15 C16 1_555 1_555
C16 C17 1_555 1_555
C22 C23 1_555 1_555
C24 C29 1_555 1_555
C28 C29 1_555 1_555

#END
