
#######################################################################
#
#                 Cambridge Crystallographic Data Centre
#                                CCDC 
#
#######################################################################
#
# If this CIF has been generated from an entry in the Cambridge 
# Structural Database, then it will include bibliographic, chemical, 
# crystal, experimental, refinement or atomic coordinate data resulting 
# from the CCDC's data processing and validation procedures.
#
#######################################################################

data_QIYLAN
_chemical_formula_moiety         'C13 H16 Br1 N1 O2'
_chemical_name_systematic        
'1-(4-bromophenyl)prop-2-en-1-yl isopropylcarbamate'
_symmetry_cell_setting           orthorhombic
_symmetry_space_group_name_H-M   'P 21 21 21'
_symmetry_Int_Tables_number      19
_space_group_name_Hall           'P 2ac 2ab'
loop_
_symmetry_equiv_pos_site_id
_symmetry_equiv_pos_as_xyz
1 x,y,z
2 1/2-x,-y,1/2+z
3 -x,1/2+y,1/2-z
4 1/2+x,1/2-y,-z
_cell_length_a                   9.4480(7)
_cell_length_b                   14.9400(10)
_cell_length_c                   28.8691(15)
_cell_angle_alpha                90
_cell_angle_beta                 90
_cell_angle_gamma                90
_cell_volume                     4074.96
_exptl_crystal_colour            colorless
_exptl_crystal_description       rod
_cell_formula_units_Z            12
loop_
_atom_site_label
_atom_site_type_symbol
_atom_site_fract_x
_atom_site_fract_y
_atom_site_fract_z
Br1 Br 0.4315(2) 0.04817(15) 0.15032(7)
N1 N 0.3975(12) 0.0064(8) 0.4395(4)
H1 H 0.3729 -0.0480 0.4343
O1 O 0.2632(11) 0.0395(6) 0.3786(3)
O2 O 0.3675(14) 0.1522(7) 0.4184(4)
C1 C 0.2490(15) 0.0891(9) 0.2998(5)
C2 C 0.177(2) 0.1183(12) 0.2616(5)
H2 H 0.0898 0.1455 0.2658
C3 C 0.2292(17) 0.1092(12) 0.2171(6)
H3 H 0.1788 0.1328 0.1923
C4 C 0.3576(14) 0.0646(10) 0.2092(6)
C5 C 0.4324(16) 0.0346(11) 0.2478(5)
H4 H 0.5186 0.0057 0.2437
C6 C 0.3819(19) 0.0469(11) 0.2916(5)
H5 H 0.4353 0.0272 0.3166
C7 C 0.1913(17) 0.1018(9) 0.3482(5)
H6 H 0.2188 0.1621 0.3581
C8 C 0.0342(16) 0.0961(11) 0.3529(6)
H7 H -0.0212 0.1368 0.3366
C9 C -0.0292(18) 0.0370(15) 0.3786(7)
H8 H 0.0238 -0.0045 0.3953
H9 H -0.1274 0.0362 0.3804
C10 C 0.3420(16) 0.0735(8) 0.4136(4)
C11 C 0.4982(16) 0.0260(10) 0.4761(5)
H10 H 0.4641 0.0780 0.4935
C12 C 0.509(2) -0.0523(13) 0.5086(7)
H11 H 0.4195 -0.0620 0.5233
H12 H 0.5799 -0.0402 0.5316
H13 H 0.5354 -0.1049 0.4914
C13 C 0.646(2) 0.0476(14) 0.4569(7)
H14 H 0.6758 0.0000 0.4368
H15 H 0.7113 0.0535 0.4820
H16 H 0.6419 0.1026 0.4398
Br2 Br 0.8120(2) 0.77103(16) 0.85462(7)
N2 N 0.8755(13) 0.8291(8) 0.5569(4)
H17 H 0.8506 0.8832 0.5629
O3 O 0.7484(12) 0.7927(6) 0.6196(3)
O4 O 0.8457(12) 0.6820(7) 0.5745(3)
C14 C 0.7087(15) 0.7390(9) 0.6980(5)
C15 C 0.705(2) 0.6643(11) 0.7270(6)
H18 H 0.6814 0.6083 0.7152
C16 C 0.737(2) 0.6746(11) 0.7738(6)
H19 H 0.7385 0.6246 0.7929
C17 C 0.7661(17) 0.7591(11) 0.7924(5)
C18 C 0.7690(19) 0.8311(12) 0.7626(6)
H20 H 0.7938 0.8871 0.7741
C19 C 0.736(2) 0.8227(10) 0.7160(6)
H21 H 0.7322 0.8730 0.6971
C20 C 0.6736(16) 0.7252(9) 0.6466(5)
H22 H 0.7046 0.6654 0.6369
C21 C 0.5217(15) 0.7347(11) 0.6381(5)
H23 H 0.4627 0.6992 0.6562
C22 C 0.459(2) 0.7866(15) 0.6082(6)
H24 H 0.5121 0.8237 0.5891
H25 H 0.3606 0.7866 0.6061
C23 C 0.8270(13) 0.7615(8) 0.5826(4)
C24 C 0.9722(17) 0.8099(10) 0.5184(5)
H26 H 0.9441 0.7534 0.5038
C25 C 1.1269(17) 0.8015(14) 0.5359(7)
H27 H 1.1585 0.8584 0.5473
H28 H 1.1868 0.7829 0.5108
H29 H 1.1312 0.7580 0.5603
C26 C 0.959(3) 0.8848(12) 0.4832(6)
H30 H 0.8672 0.8827 0.4691
H31 H 1.0304 0.8777 0.4598
H32 H 0.9715 0.9414 0.4984
Br3 Br 0.6171(2) 0.84274(17) 0.34440(8)
N3 N 0.5943(13) 0.8331(8) 0.0500(4)
H33 H 0.6068 0.7773 0.0562
O5 O 0.7291(11) 0.8545(7) 0.1116(4)
O6 O 0.6555(11) 0.9756(6) 0.0704(4)
C27 C 0.7649(17) 0.8891(10) 0.1915(5)
C28 C 0.8368(16) 0.9288(10) 0.2277(6)
H34 H 0.9151 0.9645 0.2213
C29 C 0.7953(15) 0.9169(10) 0.2737(6)
H35 H 0.8433 0.9466 0.2972
C30 C 0.6778(14) 0.8586(10) 0.2847(6)
C31 C 0.6130(18) 0.8150(11) 0.2470(5)
H36 H 0.5391 0.7753 0.2523
C32 C 0.6583(16) 0.8308(11) 0.2015(6)
H37 H 0.6142 0.8004 0.1774
C33 C 0.8100(15) 0.9104(9) 0.1424(5)
H38 H 0.7906 0.9735 0.1357
C34 C 0.9589(18) 0.8910(12) 0.1336(6)
H39 H 0.9863 0.8312 0.1340
C35 C 1.059(3) 0.9517(19) 0.1249(8)
H40 H 1.0364 1.0122 0.1242
H41 H 1.1519 0.9334 0.1196
C36 C 0.6605(13) 0.8952(8) 0.0763(4)
C37 C 0.5035(16) 0.8576(9) 0.0120(5)
H42 H 0.5462 0.9083 -0.0043
C38 C 0.485(3) 0.7811(13) -0.0218(7)
H43 H 0.5757 0.7656 -0.0347
H44 H 0.4224 0.7990 -0.0462
H45 H 0.4466 0.7302 -0.0059
C39 C 0.365(3) 0.8854(17) 0.0301(8)
H46 H 0.3201 0.8356 0.0452
H47 H 0.3064 0.9055 0.0049
H48 H 0.3772 0.9333 0.0519
loop_
_geom_bond_atom_site_label_1
_geom_bond_atom_site_label_2
_geom_bond_site_symmetry_1
_geom_bond_site_symmetry_2
Br1 C4 1_555 1_555
N1 H1 1_555 1_555
O1 C7 1_555 1_555
O2 C10 1_555 1_555
C1 C2 1_555 1_555
C2 H2 1_555 1_555
C3 C2 1_555 1_555
H3 C3 1_555 1_555
C4 C3 1_555 1_555
C5 C4 1_555 1_555
H4 C5 1_555 1_555
C6 C1 1_555 1_555
H5 C6 1_555 1_555
C7 C1 1_555 1_555
H6 C7 1_555 1_555
C8 C7 1_555 1_555
H7 C8 1_555 1_555
C9 C8 1_555 1_555
H8 C9 1_555 1_555
H9 C9 1_555 1_555
C10 N1 1_555 1_555
C11 N1 1_555 1_555
H10 C11 1_555 1_555
C12 C11 1_555 1_555
H11 C12 1_555 1_555
H12 C12 1_555 1_555
H13 C12 1_555 1_555
C13 C11 1_555 1_555
H14 C13 1_555 1_555
H15 C13 1_555 1_555
H16 C13 1_555 1_555
Br2 C17 1_555 1_555
N2 H17 1_555 1_555
O3 C20 1_555 1_555
O4 C23 1_555 1_555
C14 C15 1_555 1_555
C15 H18 1_555 1_555
C16 C15 1_555 1_555
H19 C16 1_555 1_555
C17 C16 1_555 1_555
C18 C17 1_555 1_555
H20 C18 1_555 1_555
C19 C14 1_555 1_555
H21 C19 1_555 1_555
C20 C14 1_555 1_555
H22 C20 1_555 1_555
C21 C20 1_555 1_555
H23 C21 1_555 1_555
C22 C21 1_555 1_555
H24 C22 1_555 1_555
H25 C22 1_555 1_555
C23 N2 1_555 1_555
C24 N2 1_555 1_555
H26 C24 1_555 1_555
C25 C24 1_555 1_555
H27 C25 1_555 1_555
H28 C25 1_555 1_555
H29 C25 1_555 1_555
C26 C24 1_555 1_555
H30 C26 1_555 1_555
H31 C26 1_555 1_555
H32 C26 1_555 1_555
Br3 C30 1_555 1_555
N3 H33 1_555 1_555
O5 C33 1_555 1_555
O6 C36 1_555 1_555
C27 C28 1_555 1_555
C28 H34 1_555 1_555
C29 C28 1_555 1_555
H35 C29 1_555 1_555
C30 C29 1_555 1_555
C31 C30 1_555 1_555
H36 C31 1_555 1_555
C32 C27 1_555 1_555
H37 C32 1_555 1_555
C33 C27 1_555 1_555
H38 C33 1_555 1_555
C34 C33 1_555 1_555
H39 C34 1_555 1_555
C35 C34 1_555 1_555
H40 C35 1_555 1_555
H41 C35 1_555 1_555
C36 N3 1_555 1_555
C37 N3 1_555 1_555
H42 C37 1_555 1_555
C38 C37 1_555 1_555
H43 C38 1_555 1_555
H44 C38 1_555 1_555
H45 C38 1_555 1_555
C39 C37 1_555 1_555
H46 C39 1_555 1_555
H47 C39 1_555 1_555
H48 C39 1_555 1_555
O1 C10 1_555 1_555
C5 C6 1_555 1_555
O3 C23 1_555 1_555
C18 C19 1_555 1_555
O5 C36 1_555 1_555
C31 C32 1_555 1_555

#END
