
#######################################################################
#
#                 Cambridge Crystallographic Data Centre
#                                CCDC 
#
#######################################################################
#
# If this CIF has been generated from an entry in the Cambridge 
# Structural Database, then it will include bibliographic, chemical, 
# crystal, experimental, refinement or atomic coordinate data resulting 
# from the CCDC's data processing and validation procedures.
#
#######################################################################

data_QIYLIV
_chemical_formula_moiety         'C36 H34 N6 O4 S1'
_chemical_name_systematic        
3',6'-bis(diethylamino)-2-(5-(3-nitrophenyl)-1,3,4-thiadiazol-2-yl)spiro[isoindole-1,9'-xanthen]-3(2H)-one
_symmetry_cell_setting           triclinic
_symmetry_space_group_name_H-M   'P -1'
_symmetry_Int_Tables_number      2
_space_group_name_Hall           '-P 1'
loop_
_symmetry_equiv_pos_site_id
_symmetry_equiv_pos_as_xyz
1 x,y,z
2 -x,-y,-z
_cell_length_a                   9.558(2)
_cell_length_b                   12.296(3)
_cell_length_c                   14.954(4)
_cell_angle_alpha                74.955(5)
_cell_angle_beta                 82.177(5)
_cell_angle_gamma                72.016(5)
_cell_volume                     1611.31
_cell_formula_units_Z            2
loop_
_atom_site_label
_atom_site_type_symbol
_atom_site_fract_x
_atom_site_fract_y
_atom_site_fract_z
S1 S 0.84616(11) 0.52393(9) 0.10597(8)
N1 N 0.5000(5) 0.9203(4) -0.0904(3)
N2 N 0.6311(3) 0.4437(3) 0.1798(3)
N3 N 0.7526(3) 0.3650(3) 0.2250(2)
N4 N 1.0071(3) 0.3347(3) 0.2266(2)
N5 N 0.9086(5) -0.1628(4) 0.2298(3)
N6 N 0.6901(5) 0.3592(4) 0.6283(3)
O1 O 0.4054(5) 0.9928(3) -0.1393(3)
O2 O 0.6163(5) 0.9350(3) -0.0821(3)
O3 O 1.1412(3) 0.4503(3) 0.1320(2)
O4 O 0.8349(3) 0.0999(3) 0.4252(2)
C1 C 0.5764(4) 0.7263(4) 0.0121(3)
H1 H 0.6667 0.7393 0.0141
C2 C 0.4677(5) 0.8108(4) -0.0404(3)
C3 C 0.3336(5) 0.7951(4) -0.0471(3)
H2 H 0.2624 0.8527 -0.0835
C4 C 0.3089(5) 0.6907(4) 0.0024(4)
H3 H 0.2192 0.6778 -0.0012
C5 C 0.4129(4) 0.6048(4) 0.0573(3)
H4 H 0.3920 0.5360 0.0909
C6 C 0.5490(4) 0.6208(4) 0.0622(3)
C7 C 0.6622(4) 0.5297(3) 0.1173(3)
C8 C 0.8711(4) 0.3974(3) 0.1921(3)
C9 C 1.1364(4) 0.3653(4) 0.1938(3)
C10 C 1.2532(4) 0.2788(3) 0.2497(3)
C11 C 1.4014(4) 0.2710(4) 0.2422(3)
H5 H 1.4404 0.3242 0.1977
C12 C 1.4897(5) 0.1786(4) 0.3054(4)
H6 H 1.5899 0.1707 0.3043
C13 C 1.4309(5) 0.1008(4) 0.3680(3)
H7 H 1.4931 0.0387 0.4073
C14 C 1.2831(5) 0.1097(4) 0.3759(3)
H8 H 1.2450 0.0557 0.4201
C15 C 1.1936(4) 0.2009(3) 0.3161(3)
C16 C 1.0287(4) 0.2284(3) 0.3078(3)
C17 C 0.9903(4) 0.1292(3) 0.2854(3)
C18 C 1.0498(5) 0.0884(4) 0.2068(3)
H9 H 1.1115 0.1263 0.1657
C19 C 1.0226(5) -0.0048(4) 0.1867(3)
H10 H 1.0638 -0.0274 0.1320
C20 C 0.9338(5) -0.0670(4) 0.2469(3)
C21 C 0.8734(5) -0.0277(4) 0.3283(3)
H11 H 0.8142 -0.0667 0.3707
C22 C 0.9018(4) 0.0685(4) 0.3451(3)
C23 C 0.8513(4) 0.1975(3) 0.4456(3)
C24 C 0.7689(5) 0.2269(4) 0.5257(3)
H12 H 0.7123 0.1796 0.5608
C25 C 0.7712(5) 0.3263(4) 0.5530(3)
C26 C 0.8598(5) 0.3944(4) 0.4959(3)
H13 H 0.8617 0.4633 0.5098
C27 C 0.9410(5) 0.3601(4) 0.4217(3)
H14 H 1.0009 0.4051 0.3873
C28 C 0.9397(4) 0.2617(3) 0.3945(3)
C29 C 0.9863(6) -0.2167(5) 0.1544(4)
H15 H 0.9940 -0.2999 0.1718
H16 H 1.0854 -0.2087 0.1451
C30 C 0.9104(7) -0.1623(5) 0.0643(4)
H17 H 0.8107 -0.1666 0.0737
H18 H 0.9620 -0.2043 0.0181
H19 H 0.9105 -0.0816 0.0437
C31 C 0.7884(7) -0.2108(5) 0.2822(5)
H20 H 0.7138 -0.1494 0.3058
H21 H 0.7425 -0.2368 0.2408
C32 C 0.8434(9) -0.3066(6) 0.3574(6)
H22 H 0.8874 -0.3766 0.3347
H23 H 0.7638 -0.3177 0.4020
H24 H 0.9160 -0.2901 0.3861
C33 C 0.5669(8) 0.3001(6) 0.6782(5)
H25 H 0.4870 0.3561 0.7041
H26 H 0.5275 0.2729 0.6344
C34 C 0.6310(9) 0.2078(7) 0.7468(5)
H27 H 0.6749 0.1395 0.7219
H28 H 0.5576 0.1923 0.7950
H29 H 0.7056 0.2265 0.7719
C35 C 0.6721(6) 0.4731(5) 0.6470(4)
H30 H 0.7671 0.4888 0.6374
H31 H 0.6390 0.4703 0.7116
C36 C 0.5653(8) 0.5714(5) 0.5878(4)
H32 H 0.6042 0.5823 0.5245
H33 H 0.5491 0.6422 0.6085
H34 H 0.4736 0.5530 0.5922
loop_
_geom_bond_atom_site_label_1
_geom_bond_atom_site_label_2
_geom_bond_site_symmetry_1
_geom_bond_site_symmetry_2
S1 C7 1_555 1_555
N1 O1 1_555 1_555
N2 N3 1_555 1_555
N3 C8 1_555 1_555
N4 C8 1_555 1_555
N5 C20 1_555 1_555
N6 C25 1_555 1_555
O2 N1 1_555 1_555
O3 C9 1_555 1_555
O4 C22 1_555 1_555
C1 H1 1_555 1_555
C2 N1 1_555 1_555
C3 C2 1_555 1_555
H2 C3 1_555 1_555
C4 C3 1_555 1_555
H3 C4 1_555 1_555
C5 C4 1_555 1_555
H4 C5 1_555 1_555
C6 C1 1_555 1_555
C7 N2 1_555 1_555
C8 S1 1_555 1_555
C9 N4 1_555 1_555
C10 C9 1_555 1_555
C11 C10 1_555 1_555
H5 C11 1_555 1_555
C12 C11 1_555 1_555
H6 C12 1_555 1_555
C13 C12 1_555 1_555
H7 C13 1_555 1_555
C14 C13 1_555 1_555
H8 C14 1_555 1_555
C15 C10 1_555 1_555
C16 N4 1_555 1_555
C17 C16 1_555 1_555
C18 C17 1_555 1_555
H9 C18 1_555 1_555
C19 C18 1_555 1_555
H10 C19 1_555 1_555
C20 C19 1_555 1_555
C21 C20 1_555 1_555
H11 C21 1_555 1_555
C22 C17 1_555 1_555
C23 O4 1_555 1_555
C24 C23 1_555 1_555
H12 C24 1_555 1_555
C25 C24 1_555 1_555
C26 C25 1_555 1_555
H13 C26 1_555 1_555
C27 C26 1_555 1_555
H14 C27 1_555 1_555
C28 C16 1_555 1_555
C29 N5 1_555 1_555
H15 C29 1_555 1_555
H16 C29 1_555 1_555
C30 C29 1_555 1_555
H17 C30 1_555 1_555
H18 C30 1_555 1_555
H19 C30 1_555 1_555
C31 N5 1_555 1_555
H20 C31 1_555 1_555
H21 C31 1_555 1_555
C32 C31 1_555 1_555
H22 C32 1_555 1_555
H23 C32 1_555 1_555
H24 C32 1_555 1_555
C33 N6 1_555 1_555
H25 C33 1_555 1_555
H26 C33 1_555 1_555
C34 C33 1_555 1_555
H27 C34 1_555 1_555
H28 C34 1_555 1_555
H29 C34 1_555 1_555
C35 N6 1_555 1_555
H30 C35 1_555 1_555
H31 C35 1_555 1_555
C36 C35 1_555 1_555
H32 C36 1_555 1_555
H33 C36 1_555 1_555
H34 C36 1_555 1_555
C1 C2 1_555 1_555
C5 C6 1_555 1_555
C6 C7 1_555 1_555
C14 C15 1_555 1_555
C15 C16 1_555 1_555
C21 C22 1_555 1_555
C23 C28 1_555 1_555
C27 C28 1_555 1_555

#END
