
#######################################################################
#
#                 Cambridge Crystallographic Data Centre
#                                CCDC 
#
#######################################################################
#
# If this CIF has been generated from an entry in the Cambridge 
# Structural Database, then it will include bibliographic, chemical, 
# crystal, experimental, refinement or atomic coordinate data resulting 
# from the CCDC's data processing and validation procedures.
#
#######################################################################

data_QIYZOP
_chemical_name_common            
'(+-)-4-Fluorophenyl 2-((5R*,11R*)-8-iodo-6,12-dihydro-5,11-methanodibenzo[b,f][1,5]diazocin-2-yl)-3-methylbenzene'
_chemical_formula_moiety         'C29 H22 F1 I1 N2 O2'
_chemical_name_systematic        
'4-Fluorophenyl 2-(13-iodo-1,9-diazatetracyclo[7.7.1.0^2,7^.0^10,15^]heptadeca-2,4,6,10,12,14-hexaen-5-yl)-3-methylbenzoate'
_symmetry_cell_setting           monoclinic
_symmetry_space_group_name_H-M   'P 21/c'
_symmetry_Int_Tables_number      14
_space_group_name_Hall           '-P 2ybc'
loop_
_symmetry_equiv_pos_site_id
_symmetry_equiv_pos_as_xyz
1 x,y,z
2 -x,1/2+y,1/2-z
3 -x,-y,-z
4 x,1/2-y,1/2+z
_cell_length_a                   10.7741(6)
_cell_length_b                   49.416(3)
_cell_length_c                   10.0545(6)
_cell_angle_alpha                90
_cell_angle_beta                 115.868(3)
_cell_angle_gamma                90
_cell_volume                     4816.77
_exptl_crystal_colour            yellow
_exptl_crystal_description       prism
_chemical_melting_point          '369-372 K'
_cell_formula_units_Z            8
_exptl_crystal_recrystallization_method dichloromethane/n-pentane
loop_
_atom_site_label
_atom_site_type_symbol
_atom_site_fract_x
_atom_site_fract_y
_atom_site_fract_z
I1 I 0.39768(2) 0.265020(5) 0.15753(3)
O1 O 0.1182(2) 0.34581(5) 0.5873(3)
F1 F 0.5744(3) 0.29931(5) 0.5746(3)
O2 O 0.1416(2) 0.32055(5) 0.7828(3)
N1 N -0.2090(3) 0.26396(6) 0.1016(3)
N2 N -0.2465(3) 0.30909(6) -0.0028(3)
C1 C 0.1928(3) 0.26392(7) 0.1322(4)
C2 C 0.2185(4) 0.31199(8) 0.4926(4)
H1 H 0.1288 0.3052 0.4324
C3 C 0.2362(3) 0.33333(7) 0.5874(4)
C4 C -0.2072(3) 0.30313(7) 0.2565(4)
C5 C -0.2163(3) 0.31984(7) 0.1409(4)
C6 C -0.0446(3) 0.35222(6) 0.6835(4)
C7 C -0.1782(3) 0.34288(7) 0.4104(4)
C8 C 0.0200(4) 0.24416(7) 0.1884(4)
H2 H -0.0089 0.2302 0.2338
C9 C -0.1797(3) 0.35928(7) 0.2954(4)
H3 H -0.1669 0.3783 0.3094
C10 C 0.0788(3) 0.33733(7) 0.6915(4)
C11 C 0.1030(4) 0.28434(7) 0.0530(4)
H4 H 0.1318 0.2978 0.0051
C12 C -0.2749(4) 0.36986(7) 0.5563(4)
C13 C -0.1645(3) 0.35535(6) 0.5519(4)
C14 C -0.1997(3) 0.34785(7) 0.1626(4)
H5 H -0.2024 0.3591 0.0848
C15 C -0.0720(4) 0.26457(7) 0.1117(4)
C16 C -0.1911(3) 0.31510(7) 0.3897(4)
H6 H -0.1889 0.3039 0.4675
C17 C 0.4803(4) 0.33187(8) 0.6726(4)
H7 H 0.5703 0.3384 0.7341
C18 C 0.1534(4) 0.24361(7) 0.2004(4)
H8 H 0.2159 0.2297 0.2540
C19 C -0.1400(4) 0.37846(7) 0.8166(4)
H9 H -0.1311 0.3868 0.9055
C20 C -0.0330(3) 0.36327(7) 0.8159(4)
H10 H 0.0480 0.3604 0.9050
C21 C 0.3645(3) 0.34368(7) 0.6769(4)
H11 H 0.3740 0.3586 0.7403
C22 C -0.3018(4) 0.28184(8) -0.0173(4)
H12 H -0.3161 0.2743 -0.1140
H13 H -0.3926 0.2826 -0.0147
C23 C 0.4615(4) 0.31075(8) 0.5780(4)
C24 C -0.2145(4) 0.27271(7) 0.2388(4)
H14 H -0.1366 0.2644 0.3243
H15 H -0.3012 0.2661 0.2388
C25 C -0.1263(4) 0.30817(7) -0.0355(4)
H16 H -0.0752 0.3255 -0.0050
H17 H -0.1583 0.3061 -0.1434
C26 C -0.0301(4) 0.28500(7) 0.0437(4)
C27 C -0.4113(4) 0.37178(9) 0.4213(4)
H18 H -0.3989 0.3815 0.3430
H19 H -0.4776 0.3815 0.4462
H20 H -0.4462 0.3535 0.3868
C28 C -0.2604(4) 0.38163(7) 0.6879(4)
H21 H -0.3341 0.3920 0.6896
C29 C 0.3330(4) 0.30066(8) 0.4865(4)
H22 H 0.3235 0.2862 0.4204
I2 I 0.22503(3) 0.559460(5) 0.49505(4)
F2 F 0.2043(3) 0.55099(4) 0.8922(3)
O3 O 0.2782(2) 0.44633(5) 1.0919(3)
N3 N 0.2219(3) 0.43248(6) 0.4502(3)
N4 N 0.4604(3) 0.42968(6) 0.6316(3)
C30 C 0.2250(4) 0.51689(7) 0.4895(4)
O4 O 0.0488(3) 0.43875(5) 0.9870(3)
C31 C 0.2012(3) 0.40196(7) 1.0974(4)
C32 C 0.2786(3) 0.41413(6) 0.6998(3)
C33 C 0.3598(4) 0.42216(7) 0.4832(4)
H23 H 0.3561 0.4022 0.4741
H24 H 0.3895 0.4295 0.4100
C34 C 0.2424(3) 0.40398(6) 0.8072(3)
H25 H 0.1486 0.3998 0.7808
C35 C 0.1377(4) 0.38972(7) 1.1765(4)
H26 H 0.0723 0.3994 1.1978
C36 C 0.3403(3) 0.39983(6) 0.9528(4)
C37 C 0.1694(3) 0.41732(7) 0.5413(4)
H27 H 0.1384 0.3992 0.4975
H28 H 0.0887 0.4269 0.5411
C38 C 0.4165(3) 0.42053(6) 0.7395(4)
C39 C 0.2579(4) 0.47321(7) 1.0419(4)
C40 C 0.2250(4) 0.46105(7) 0.4715(4)
C41 C 0.4231(4) 0.34381(7) 1.0694(4)
H29 H 0.3709 0.3347 0.9746
H30 H 0.4679 0.3303 1.1469
H31 H 0.4935 0.3555 1.0622
C42 C 0.4773(3) 0.40704(7) 0.9908(4)
H32 H 0.5452 0.4049 1.0899
C43 C 0.3265(3) 0.36072(7) 1.1071(4)
C44 C 0.1009(4) 0.50355(8) 0.4110(4)
H33 H 0.0172 0.5134 0.3638
C45 C 0.2025(4) 0.49187(7) 1.1019(4)
H34 H 0.1765 0.4867 1.1772
C46 C 0.2935(3) 0.38768(7) 1.0587(3)
C47 C 0.3477(4) 0.50285(7) 0.5616(4)
H35 H 0.4312 0.5124 0.6158
C48 C 0.1713(4) 0.36316(8) 1.2236(4)
H36 H 0.1297 0.3546 1.2787
C49 C 0.3489(4) 0.47467(7) 0.5546(4)
C50 C 0.4831(4) 0.45910(7) 0.6358(4)
H37 H 0.5459 0.4632 0.5903
H38 H 0.5283 0.4652 0.7401
C51 C 0.5143(3) 0.41718(7) 0.8855(4)
H39 H 0.6077 0.4219 0.9128
C52 C 0.1634(4) 0.43042(7) 1.0502(4)
C53 C 0.2990(5) 0.48018(8) 0.9349(4)
H40 H 0.3382 0.4671 0.8954
C54 C 0.1016(4) 0.47552(7) 0.4027(4)
H41 H 0.0174 0.4661 0.3499
C55 C 0.2650(4) 0.34919(7) 1.1904(4)
H42 H 0.2885 0.3312 1.2253
C56 C 0.2821(5) 0.50694(8) 0.8856(5)
H43 H 0.3100 0.5125 0.8122
C57 C 0.1848(4) 0.51847(8) 1.0513(4)
H44 H 0.1458 0.5317 1.0904
C58 C 0.2244(4) 0.52500(7) 0.9454(4)
loop_
_geom_bond_atom_site_label_1
_geom_bond_atom_site_label_2
_geom_bond_site_symmetry_1
_geom_bond_site_symmetry_2
I1 C1 1_555 1_555
O1 C3 1_555 1_555
F1 C23 1_555 1_555
O2 C10 1_555 1_555
N1 C15 1_555 1_555
N2 C5 1_555 1_555
C1 C11 1_555 1_555
C2 H1 1_555 1_555
C3 C2 1_555 1_555
C4 C5 1_555 1_555
C5 C14 1_555 1_555
C6 C10 1_555 1_555
C7 C9 1_555 1_555
C8 H2 1_555 1_555
C9 H3 1_555 1_555
C10 O1 1_555 1_555
C11 H4 1_555 1_555
C12 C13 1_555 1_555
C13 C6 1_555 1_555
C14 C9 1_555 1_555
H5 C14 1_555 1_555
C15 C8 1_555 1_555
C16 C4 1_555 1_555
H6 C16 1_555 1_555
C17 H7 1_555 1_555
C18 C1 1_555 1_555
H8 C18 1_555 1_555
C19 H9 1_555 1_555
C20 C6 1_555 1_555
H10 C20 1_555 1_555
C21 C3 1_555 1_555
H11 C21 1_555 1_555
C22 N1 1_555 1_555
H12 C22 1_555 1_555
H13 C22 1_555 1_555
C23 C17 1_555 1_555
C24 N1 1_555 1_555
H14 C24 1_555 1_555
H15 C24 1_555 1_555
C25 N2 1_555 1_555
H16 C25 1_555 1_555
H17 C25 1_555 1_555
C26 C11 1_555 1_555
C27 C12 1_555 1_555
H18 C27 1_555 1_555
H19 C27 1_555 1_555
H20 C27 1_555 1_555
C28 C12 1_555 1_555
H21 C28 1_555 1_555
C29 C2 1_555 1_555
H22 C29 1_555 1_555
I2 C30 1_555 1_555
F2 C58 1_555 1_555
O3 C39 1_555 1_555
N3 C33 1_555 1_555
N4 C33 1_555 1_555
C30 C44 1_555 1_555
O4 C52 1_555 1_555
C31 C35 1_555 1_555
C32 C34 1_555 1_555
C33 H23 1_555 1_555
H24 C33 1_555 1_555
C34 H25 1_555 1_555
C35 H26 1_555 1_555
C36 C34 1_555 1_555
C37 N3 1_555 1_555
H27 C37 1_555 1_555
H28 C37 1_555 1_555
C38 N4 1_555 1_555
C39 C45 1_555 1_555
C40 N3 1_555 1_555
C41 H29 1_555 1_555
H30 C41 1_555 1_555
H31 C41 1_555 1_555
C42 C36 1_555 1_555
H32 C42 1_555 1_555
C43 C41 1_555 1_555
C44 H33 1_555 1_555
C45 H34 1_555 1_555
C46 C31 1_555 1_555
C47 C30 1_555 1_555
H35 C47 1_555 1_555
C48 C35 1_555 1_555
H36 C48 1_555 1_555
C49 C40 1_555 1_555
C50 N4 1_555 1_555
H37 C50 1_555 1_555
H38 C50 1_555 1_555
C51 C38 1_555 1_555
H39 C51 1_555 1_555
C52 O3 1_555 1_555
C53 C39 1_555 1_555
H40 C53 1_555 1_555
C54 C40 1_555 1_555
H41 C54 1_555 1_555
C55 C43 1_555 1_555
H42 C55 1_555 1_555
C56 C53 1_555 1_555
H43 C56 1_555 1_555
C57 C45 1_555 1_555
H44 C57 1_555 1_555
C58 C56 1_555 1_555
N2 C22 1_555 1_555
C4 C24 1_555 1_555
C7 C13 1_555 1_555
C7 C16 1_555 1_555
C8 C18 1_555 1_555
C15 C26 1_555 1_555
C17 C21 1_555 1_555
C19 C20 1_555 1_555
C19 C28 1_555 1_555
C23 C29 1_555 1_555
C25 C26 1_555 1_555
C31 C52 1_555 1_555
C32 C37 1_555 1_555
C32 C38 1_555 1_555
C36 C46 1_555 1_555
C42 C51 1_555 1_555
C43 C46 1_555 1_555
C44 C54 1_555 1_555
C47 C49 1_555 1_555
C48 C55 1_555 1_555
C49 C50 1_555 1_555
C57 C58 1_555 1_555

#END
