
#######################################################################
#
#                 Cambridge Crystallographic Data Centre
#                                CCDC 
#
#######################################################################
#
# If this CIF has been generated from an entry in the Cambridge 
# Structural Database, then it will include bibliographic, chemical, 
# crystal, experimental, refinement or atomic coordinate data resulting 
# from the CCDC's data processing and validation procedures.
#
#######################################################################

data_QIZDIO
_chemical_formula_moiety         'C29 H22 F1 N3 O4'
_chemical_name_systematic        
'3-fluorophenyl 3-methyl-2-(13-nitro-1,9-diazatetracyclo[7.7.1.0^2,7^.0^10,15^]heptadeca-2,4,6,10,12,14-hexaen-5-yl)benzoate'
_symmetry_cell_setting           triclinic
_symmetry_space_group_name_H-M   'P -1'
_symmetry_Int_Tables_number      2
_space_group_name_Hall           '-P 1'
loop_
_symmetry_equiv_pos_site_id
_symmetry_equiv_pos_as_xyz
1 x,y,z
2 -x,-y,-z
_cell_length_a                   10.1948(7)
_cell_length_b                   10.7586(8)
_cell_length_c                   11.7804(8)
_cell_angle_alpha                91.381(2)
_cell_angle_beta                 90.362(2)
_cell_angle_gamma                116.932(2)
_cell_volume                     1151.41
_exptl_crystal_colour            yellow
_exptl_crystal_description       prism
_chemical_melting_point          '438-439 K'
_cell_formula_units_Z            2
_exptl_crystal_recrystallization_method n-pentane/dichloromethane
loop_
_atom_site_label
_atom_site_type_symbol
_atom_site_fract_x
_atom_site_fract_y
_atom_site_fract_z
F1 F 1.1796(3) 0.9279(3) 0.6583(3)
O1 O 1.06708(19) 0.84409(19) 0.05270(16)
O2 O 0.9813(2) 0.6309(2) 0.10390(18)
O3 O 0.6303(3) 0.9087(5) 0.5730(2)
O4 O 0.7201(10) 0.9323(10) 0.7531(8)
N1 N 0.31524(19) 0.4910(2) 0.22212(15)
N2 N 0.4113(2) 0.7193(2) 0.14247(15)
N3 N 0.9679(2) 0.7365(2) 0.08544(16)
C1 C 0.4402(2) 0.4678(2) 0.18667(18)
H1 H 0.4054 0.3914 0.1163
H2 H 0.4755 0.4253 0.2569
C2 C 0.5681(2) 0.6007(2) 0.15024(16)
C3 C 0.5526(2) 0.7216(2) 0.13334(17)
C4 C 0.3924(3) 0.7872(3) 0.24513(19)
H3 H 0.3023 0.8137 0.2318
H4 H 0.4923 0.8838 0.2626
C5 C 0.3600(2) 0.6948(2) 0.34608(17)
C6 C 0.3350(2) 0.5574(2) 0.33277(17)
C7 C 0.2948(2) 0.5782(3) 0.13591(18)
H5 H 0.2924 0.5331 0.0516
H6 H 0.1895 0.5793 0.1484
C8 C 0.7071(2) 0.6066(2) 0.13507(17)
H7 H 0.7231 0.5153 0.1482
C9 C 0.8237(2) 0.7299(2) 0.10315(17)
C10 C 0.8070(3) 0.8492(3) 0.08743(18)
H8 H 0.8993 0.9443 0.0623
C11 C 0.6716(3) 0.8453(3) 0.10407(18)
H9 H 0.6580 0.9384 0.0944
C12 C 0.3219(2) 0.4773(2) 0.42755(18)
H10 H 0.3071 0.3718 0.4168
C13 C 0.3280(2) 0.5337(2) 0.53483(18)
H11 H 0.3207 0.4727 0.6081
C14 C 0.3436(2) 0.6696(2) 0.55016(17)
C15 C 0.3599(2) 0.7483(2) 0.45608(18)
H12 H 0.3729 0.8532 0.4670
C16 C 0.3383(2) 0.7201(2) 0.66848(16)
C17 C 0.2021(2) 0.6703(2) 0.72151(18)
C18 C 0.1966(3) 0.7094(2) 0.83418(18)
H13 H 0.0914 0.6712 0.8748
C19 C 0.3225(3) 0.7956(2) 0.89505(18)
H14 H 0.3154 0.8242 0.9825
C20 C 0.4578(3) 0.8454(2) 0.84389(18)
H15 H 0.5568 0.9124 0.8914
C21 C 0.4661(2) 0.8091(2) 0.73090(17)
C22 C 0.0618(3) 0.5767(3) 0.6589(2)
H16 H 0.060(3) 0.607(3) 0.581(3)
H17 H -0.018(3) 0.578(3) 0.700(3)
H18 H 0.047(3) 0.479(3) 0.650(3)
C23 C 0.6109(2) 0.8643(3) 0.6766(2)
C24 C 0.8638(5) 0.9914(6) 0.6957(5)
C25 C 0.9150(5) 1.1217(6) 0.6479(5)
H19 H 0.8455 1.1732 0.6449
C26 C 1.0558(5) 1.1857(4) 0.6041(4)
H20 H 1.0957 1.2869 0.5669
C27 C 1.1453(4) 1.1195(5) 0.6080(3)
H21 H 1.2547 1.1692 0.5739
C28 C 1.0940(5) 0.9892(5) 0.6558(3)
C29 C 0.9533(5) 0.9252(5) 0.6996(4)
H22 H 0.9134 0.8240 0.7368
F2? F 1.1155(5) 1.2568(4) 0.5774(4)
O5? O 0.6365(4) 0.8085(5) 0.5969(4)
O6? O 0.7272(14) 0.8953(12) 0.7394(9)
C30? C 0.8678(11) 0.9548(12) 0.7127(9)
C31? C 0.9195(11) 1.0823(11) 0.6661(7)
H23? H 0.8554 1.1391 0.6621
C32? C 1.0586(9) 1.1333(8) 0.6246(7)
C33? C 1.1382(8) 1.0591(10) 0.6319(7)
H24? H 1.2489 1.1016 0.6004
C34? C 1.0739(10) 0.9278(9) 0.6805(8)
H25? H 1.1347 0.8679 0.6850
C35? C 0.9378(10) 0.8758(9) 0.7216(8)
H26? H 0.8868 0.7751 0.7600
loop_
_geom_bond_atom_site_label_1
_geom_bond_atom_site_label_2
_geom_bond_site_symmetry_1
_geom_bond_site_symmetry_2
F1 C28 1_555 1_555
O1 N3 1_555 1_555
O2 N3 1_555 1_555
O3 C23 1_555 1_555
O4 C23 1_555 1_555
N1 C1 1_555 1_555
N2 C3 1_555 1_555
N3 C9 1_555 1_555
C1 H1 1_555 1_555
H2 C1 1_555 1_555
C2 C1 1_555 1_555
C3 C2 1_555 1_555
C4 N2 1_555 1_555
H3 C4 1_555 1_555
H4 C4 1_555 1_555
C5 C4 1_555 1_555
C6 N1 1_555 1_555
C7 N1 1_555 1_555
H5 C7 1_555 1_555
H6 C7 1_555 1_555
C8 C2 1_555 1_555
H7 C8 1_555 1_555
C9 C8 1_555 1_555
C10 C9 1_555 1_555
H8 C10 1_555 1_555
C11 C3 1_555 1_555
H9 C11 1_555 1_555
C12 C6 1_555 1_555
H10 C12 1_555 1_555
C13 C12 1_555 1_555
H11 C13 1_555 1_555
C14 C13 1_555 1_555
C15 C5 1_555 1_555
H12 C15 1_555 1_555
C16 C14 1_555 1_555
C17 C16 1_555 1_555
C18 C17 1_555 1_555
H13 C18 1_555 1_555
C19 C18 1_555 1_555
H14 C19 1_555 1_555
C20 C19 1_555 1_555
H15 C20 1_555 1_555
C21 C16 1_555 1_555
C22 C17 1_555 1_555
H16 C22 1_555 1_555
H17 C22 1_555 1_555
H18 C22 1_555 1_555
C23 C21 1_555 1_555
C24 O4 1_555 1_555
C25 C24 1_555 1_555
H19 C25 1_555 1_555
C26 C25 1_555 1_555
H20 C26 1_555 1_555
C27 C26 1_555 1_555
H21 C27 1_555 1_555
C28 C27 1_555 1_555
C29 C24 1_555 1_555
H22 C29 1_555 1_555
N2 C7 1_555 1_555
C5 C6 1_555 1_555
C10 C11 1_555 1_555
C14 C15 1_555 1_555
C20 C21 1_555 1_555
C28 C29 1_555 1_555

#END
