
#######################################################################
#
#                 Cambridge Crystallographic Data Centre
#                                CCDC 
#
#######################################################################
#
# If this CIF has been generated from an entry in the Cambridge 
# Structural Database, then it will include bibliographic, chemical, 
# crystal, experimental, refinement or atomic coordinate data resulting 
# from the CCDC's data processing and validation procedures.
#
#######################################################################

data_QIZGUD
_chemical_formula_moiety         'C33 H32 N1 O1 P1 S1'
_chemical_name_systematic        
N-((2-(Diphenylphosphino)phenyl)(1-naphthyl)methyl)-2-methylpropane-2-sulfinamide
_symmetry_cell_setting           orthorhombic
_symmetry_space_group_name_H-M   'P 21 21 21'
_symmetry_Int_Tables_number      19
_space_group_name_Hall           'P 2ac 2ab'
loop_
_symmetry_equiv_pos_site_id
_symmetry_equiv_pos_as_xyz
1 x,y,z
2 1/2-x,-y,1/2+z
3 -x,1/2+y,1/2-z
4 1/2+x,1/2-y,-z
_cell_length_a                   8.0698(3)
_cell_length_b                   14.7752(5)
_cell_length_c                   23.4843(8)
_cell_angle_alpha                90
_cell_angle_beta                 90
_cell_angle_gamma                90
_cell_volume                     2800.1
_exptl_crystal_colour            colorless
_exptl_crystal_description       block
_cell_formula_units_Z            4
loop_
_atom_site_label
_atom_site_type_symbol
_atom_site_fract_x
_atom_site_fract_y
_atom_site_fract_z
S1 S 0.21861(10) 0.55039(5) 0.92201(3)
P1 P 0.26333(9) 0.41655(5) 0.77594(3)
O1 O 0.3967(3) 0.56300(16) 0.90974(10)
N1 N 0.1854(3) 0.44764(14) 0.94799(9)
H1 H 0.1800 0.4377 0.9840
C1 C 0.1345(3) 0.28557(18) 0.93732(11)
C2 C 0.0680(4) 0.2846(2) 0.99120(12)
H2 H 0.0364 0.3391 1.0078
C3 C 0.0464(4) 0.2038(2) 1.02188(13)
H3 H 0.0035 0.2057 1.0586
C4 C 0.0871(4) 0.1239(2) 0.99847(13)
H4 H 0.0709 0.0708 1.0190
C5 C 0.1547(3) 0.11976(18) 0.94291(12)
C6 C 0.1784(3) 0.20042(18) 0.91182(11)
C7 C 0.2480(4) 0.19384(18) 0.85662(11)
H5 H 0.2643 0.2461 0.8353
C8 C 0.2912(5) 0.1120(2) 0.83430(14)
H6 H 0.3370 0.1094 0.7980
C9 C 0.2683(5) 0.0327(2) 0.86474(16)
H7 H 0.2994 -0.0226 0.8491
C10 C 0.2000(4) 0.03622(19) 0.91772(15)
H8 H 0.1828 -0.0172 0.9378
C11 C 0.1657(3) 0.37372(17) 0.90573(11)
H9 H 0.2690 0.3679 0.8841
C12 C 0.0260(3) 0.39934(17) 0.86434(11)
C13 C 0.0531(3) 0.41852(18) 0.80680(11)
C14 C -0.0824(4) 0.4444(2) 0.77360(13)
H10 H -0.0663 0.4574 0.7353
C15 C -0.2395(4) 0.45105(19) 0.79631(12)
H11 H -0.3280 0.4680 0.7733
C16 C -0.2654(4) 0.43265(17) 0.85313(12)
H12 H -0.3708 0.4378 0.8688
C17 C -0.1332(3) 0.40654(19) 0.88647(12)
H13 H -0.1509 0.3934 0.9247
C18 C 0.2488(4) 0.32714(17) 0.72214(11)
C19 C 0.1196(5) 0.2668(2) 0.71666(14)
H14 H 0.0246 0.2743 0.7386
C20 C 0.1297(6) 0.1948(3) 0.67885(17)
H15 H 0.0421 0.1541 0.6761
C21 C 0.2651(7) 0.1833(2) 0.64602(15)
H16 H 0.2703 0.1352 0.6205
C22 C 0.3943(6) 0.2422(3) 0.65025(15)
H17 H 0.4878 0.2343 0.6276
C23 C 0.3864(4) 0.3139(2) 0.68829(14)
H18 H 0.4754 0.3536 0.6910
C24 C 0.2601(4) 0.51973(16) 0.73263(11)
C25 C 0.2129(4) 0.52418(19) 0.67613(13)
H19 H 0.1804 0.4717 0.6573
C26 C 0.2133(5) 0.6056(2) 0.64747(14)
H20 H 0.1820 0.6074 0.6094
C27 C 0.2588(5) 0.6831(2) 0.67414(17)
H21 H 0.2573 0.7379 0.6547
C28 C 0.3072(5) 0.6799(2) 0.73006(17)
H22 H 0.3385 0.7329 0.7485
C29 C 0.3099(4) 0.5994(2) 0.75903(13)
H23 H 0.3454 0.5980 0.7967
C30 C 0.1785(4) 0.6152(2) 0.98756(14)
C31 C 0.0040(6) 0.5939(3) 1.0078(2)
H24 H -0.0187 0.6270 1.0421
H25 H -0.0055 0.5302 1.0152
H26 H -0.0742 0.6110 0.9789
C32 C 0.1916(6) 0.7132(2) 0.96911(16)
H27 H 0.1726 0.7520 1.0013
H28 H 0.1103 0.7255 0.9403
H29 H 0.3003 0.7244 0.9541
C33 C 0.3078(6) 0.5944(3) 1.03164(15)
H30 H 0.2855 0.6285 1.0656
H31 H 0.4152 0.6103 1.0172
H32 H 0.3054 0.5309 1.0404
loop_
_geom_bond_atom_site_label_1
_geom_bond_atom_site_label_2
_geom_bond_site_symmetry_1
_geom_bond_site_symmetry_2
S1 O1 1_555 1_555
P1 C13 1_555 1_555
N1 S1 1_555 1_555
H1 N1 1_555 1_555
C1 C2 1_555 1_555
C2 H2 1_555 1_555
C3 C2 1_555 1_555
H3 C3 1_555 1_555
C4 C3 1_555 1_555
H4 C4 1_555 1_555
C5 C4 1_555 1_555
C6 C1 1_555 1_555
C7 C6 1_555 1_555
H5 C7 1_555 1_555
C8 C7 1_555 1_555
H6 C8 1_555 1_555
C9 C8 1_555 1_555
H7 C9 1_555 1_555
C10 C5 1_555 1_555
H8 C10 1_555 1_555
C11 N1 1_555 1_555
H9 C11 1_555 1_555
C12 C11 1_555 1_555
C13 C12 1_555 1_555
C14 C13 1_555 1_555
H10 C14 1_555 1_555
C15 C14 1_555 1_555
H11 C15 1_555 1_555
C16 C15 1_555 1_555
H12 C16 1_555 1_555
C17 C12 1_555 1_555
H13 C17 1_555 1_555
C18 P1 1_555 1_555
C19 C18 1_555 1_555
H14 C19 1_555 1_555
C20 C19 1_555 1_555
H15 C20 1_555 1_555
C21 C20 1_555 1_555
H16 C21 1_555 1_555
C22 C21 1_555 1_555
H17 C22 1_555 1_555
C23 C18 1_555 1_555
H18 C23 1_555 1_555
C24 P1 1_555 1_555
C25 C24 1_555 1_555
H19 C25 1_555 1_555
C26 C25 1_555 1_555
H20 C26 1_555 1_555
C27 C26 1_555 1_555
H21 C27 1_555 1_555
C28 C27 1_555 1_555
H22 C28 1_555 1_555
C29 C24 1_555 1_555
H23 C29 1_555 1_555
C30 S1 1_555 1_555
C31 C30 1_555 1_555
H24 C31 1_555 1_555
H25 C31 1_555 1_555
H26 C31 1_555 1_555
C32 C30 1_555 1_555
H27 C32 1_555 1_555
H28 C32 1_555 1_555
H29 C32 1_555 1_555
C33 C30 1_555 1_555
H30 C33 1_555 1_555
H31 C33 1_555 1_555
H32 C33 1_555 1_555
C1 C11 1_555 1_555
C5 C6 1_555 1_555
C9 C10 1_555 1_555
C16 C17 1_555 1_555
C22 C23 1_555 1_555
C28 C29 1_555 1_555

#END
