
#######################################################################
#
#                 Cambridge Crystallographic Data Centre
#                                CCDC 
#
#######################################################################
#
# If this CIF has been generated from an entry in the Cambridge 
# Structural Database, then it will include bibliographic, chemical, 
# crystal, experimental, refinement or atomic coordinate data resulting 
# from the CCDC's data processing and validation procedures.
#
#######################################################################

data_QIZKIV
_chemical_name_common            
'4-(Trifluoromethyl)phenyl 2-(6,12-dihydro-5,11-methanodibenzo[b,f][1,5]diazocin-2-yl)-3-methylbenzoate'
_chemical_formula_moiety         'C30 H23 F3 N2 O2'
_chemical_name_systematic        
'4-(Trifluoromethyl)phenyl 2-(1,9-diazatetracyclo[7.7.1.0^2,7^.0^10,15^]heptadeca-2,4,6,10,12,14-hexaen-5-yl)-3-methylbenzoate'
_symmetry_cell_setting           monoclinic
_symmetry_space_group_name_H-M   'P 21/c'
_symmetry_Int_Tables_number      14
_space_group_name_Hall           '-P 2ybc'
loop_
_symmetry_equiv_pos_site_id
_symmetry_equiv_pos_as_xyz
1 x,y,z
2 -x,1/2+y,1/2-z
3 -x,-y,-z
4 x,1/2-y,1/2+z
_cell_length_a                   11.0837(4)
_cell_length_b                   48.3124(15)
_cell_length_c                   10.0383(3)
_cell_angle_alpha                90
_cell_angle_beta                 115.807(2)
_cell_angle_gamma                90
_cell_volume                     4839.21
_exptl_crystal_colour            yellow
_exptl_crystal_description       prism
_chemical_melting_point          '418-421 K'
_cell_formula_units_Z            8
loop_
_atom_site_label
_atom_site_type_symbol
_atom_site_fract_x
_atom_site_fract_y
_atom_site_fract_z
F1 F 0.09451(15) 0.44114(3) 0.08856(19)
F2 F 0.22693(17) 0.42819(3) -0.0026(2)
F3 F 0.30326(17) 0.43910(3) 0.22649(19)
O1 O 0.27287(15) 0.55755(3) -0.02890(17)
N1 N 0.12919(18) 0.57516(4) 0.4590(2)
O2 O 0.49907(16) 0.55634(3) 0.08932(19)
N2 N 0.35335(18) 0.55977(4) 0.6197(2)
C1 C 0.0824(2) 0.59422(4) 0.2171(2)
H1 H -0.0102 0.5941 0.1946
C2 C 0.4543(2) 0.60967(5) -0.0811(2)
H2 H 0.5100 0.5980 -0.1064
C3 C 0.3137(2) 0.53185(5) 0.5738(2)
C4 C 0.3748(3) 0.48389(5) 0.5900(3)
H3 H 0.4416 0.4699 0.6238
C5 C 0.2388(2) 0.57608(5) 0.6076(2)
H4 H 0.2671 0.5955 0.6340
H5 H 0.2067 0.5690 0.6791
C6 C 0.2419(3) 0.47676(5) 0.5092(3)
H6 H 0.2170 0.4579 0.4888
C7 C 0.2581(2) 0.60499(4) 0.1459(2)
C8 C 0.4108(3) 0.51114(5) 0.6219(3)
H7 H 0.5025 0.5159 0.6770
C9 C 0.3113(2) 0.58405(4) 0.3856(2)
C10 C 0.4395(2) 0.63725(5) -0.1203(2)
H8 H 0.4859 0.6448 -0.1723
C11 C 0.3076(2) 0.61620(4) 0.0404(2)
C12 C 0.1226(2) 0.60458(4) 0.1152(2)
H9 H 0.0577 0.6115 0.0232
C13 C 0.4144(2) 0.57372(5) 0.5337(2)
H10 H 0.4755 0.5607 0.5174
H11 H 0.4686 0.5896 0.5915
C14 C 0.1751(2) 0.58401(4) 0.3525(2)
C15 C 0.1451(3) 0.49721(5) 0.4582(3)
H12 H 0.0539 0.4922 0.4016
C16 C 0.3010(3) 0.50930(5) -0.0684(3)
H13 H 0.3386 0.5140 -0.1344
C17 C 0.2832(3) 0.48198(5) -0.0417(3)
H14 H 0.3084 0.4677 -0.0893
C18 C 0.2639(2) 0.52964(4) 0.0015(2)
C19 C 0.3861(2) 0.59925(4) -0.0039(2)
C20 C 0.3499(2) 0.59452(4) 0.2810(2)
H15 H 0.4423 0.5945 0.3026
C21 C 0.3979(2) 0.56923(5) 0.0278(2)
C22 C 0.1793(2) 0.52500(5) 0.4884(3)
C23 C 0.2908(2) 0.64414(4) -0.0026(2)
C24 C 0.3572(2) 0.65388(5) -0.0837(2)
H16 H 0.3452 0.6727 -0.1149
C25 C 0.2132(2) 0.44633(5) 0.0908(3)
C26 C 0.2083(2) 0.52358(4) 0.0963(3)
H17 H 0.1826 0.5380 0.1429
C27 C 0.0725(2) 0.54729(5) 0.4317(3)
H18 H 0.0180 0.5448 0.3240
H19 H 0.0123 0.5452 0.4806
C28 C 0.2285(2) 0.47545(4) 0.0544(3)
C29 C 0.1903(3) 0.49622(5) 0.1228(3)
H20 H 0.1517 0.4917 0.1880
C30 C 0.2071(2) 0.66379(5) 0.0383(3)
H21 H 0.1119 0.6603 -0.0245
H22 H 0.2288 0.6829 0.0238
H23 H 0.2260 0.6610 0.1423
F4 F -0.03260(15) 0.70445(4) 0.50371(18)
F5 F 0.1002(2) 0.73856(4) 0.5666(3)
F6 F 0.10472(18) 0.71019(5) 0.72791(18)
O3 O 0.49289(14) 0.65058(3) 0.52247(16)
O4 O 0.47892(16) 0.67692(3) 0.33224(17)
C31 C 0.6387(2) 0.63180(4) 0.2948(2)
H24 H 0.5616 0.6357 0.2055
N3 N 0.8555(2) 0.68715(4) 1.1149(2)
C32 C 0.4431(3) 0.73848(5) 1.0007(3)
H25 H 0.3582 0.7404 1.0018
C33 C 0.7650(2) 0.63818(4) 0.5597(2)
C34 C 0.6927(2) 0.73379(4) 1.0018(2)
C35 C 0.1606(2) 0.67245(5) 0.4770(3)
H26 H 0.0697 0.6668 0.4271
C36 C 0.8528(2) 0.61069(5) 0.4222(3)
H27 H 0.9223 0.5995 0.4201
C37 C 0.4265(2) 0.68922(4) 0.6237(2)
H28 H 0.5176 0.6948 0.6733
C38 C 0.3273(2) 0.70396(4) 0.6409(2)
H29 H 0.3497 0.7199 0.7025
C39 C 0.3905(2) 0.66636(4) 0.5333(2)
C40 C 0.4843(3) 0.75772(5) 0.9274(3)
H30 H 0.4266 0.7726 0.8758
C41 C 0.7959(2) 0.67965(5) 0.7205(2)
H31 H 0.7925 0.6908 0.6410
C42 C 0.6074(3) 0.75545(5) 0.9291(3)
H32 H 0.6353 0.7689 0.8795
C43 C 0.7394(3) 0.68922(5) 1.1471(3)
H33 H 0.7708 0.6909 1.2554
H34 H 0.6859 0.6720 1.1143
N4 N 0.8248(2) 0.73304(4) 1.0075(2)
C44 C 0.0918(3) 0.71177(5) 0.5914(3)
C45 C 0.7839(2) 0.63539(5) 0.8185(2)
H35 H 0.7707 0.6160 0.8063
C46 C 0.1950(2) 0.69544(5) 0.5680(2)
C47 C 0.9981(3) 0.61755(7) 0.6918(3)
H36 H 1.0251 0.6348 0.7487
H37 H 1.0680 0.6119 0.6626
H38 H 0.9855 0.6031 0.7529
C48 C 0.5255(3) 0.71649(5) 1.0726(3)
H39 H 0.4967 0.7032 1.1225
C49 C 0.8686(2) 0.62210(5) 0.5554(3)
C50 C 0.6506(2) 0.64271(4) 0.4274(2)
C51 C 0.2599(2) 0.65774(5) 0.4591(2)
H40 H 0.2379 0.6419 0.3965
C52 C 0.9127(3) 0.71471(5) 1.1271(3)
H41 H 1.0006 0.7132 1.1241
H42 H 0.9279 0.7229 1.2236
C53 C 0.6516(3) 0.71355(4) 1.0724(2)
C54 C 0.7393(2) 0.61516(5) 0.2928(3)
H43 H 0.7302 0.6069 0.2030
C55 C 0.8236(2) 0.67589(5) 0.9705(2)
C56 C 0.7813(2) 0.65150(5) 0.7009(2)
C57 C 0.8268(3) 0.72355(5) 0.8693(3)
H44 H 0.9112 0.7297 0.8673
H45 H 0.7513 0.7322 0.7842
C58 C 0.5349(2) 0.65908(4) 0.4207(2)
C59 C 0.8054(2) 0.64738(5) 0.9513(2)
H46 H 0.8078 0.6362 1.0302
C60 C 0.8157(2) 0.69247(5) 0.8538(2)
loop_
_geom_bond_atom_site_label_1
_geom_bond_atom_site_label_2
_geom_bond_site_symmetry_1
_geom_bond_site_symmetry_2
F1 C25 1_555 1_555
F2 C25 1_555 1_555
F3 C25 1_555 1_555
O1 C18 1_555 1_555
N1 C5 1_555 1_555
O2 C21 1_555 1_555
N2 C3 1_555 1_555
C1 H1 1_555 1_555
C2 H2 1_555 1_555
C3 C8 1_555 1_555
C4 H3 1_555 1_555
C5 N2 1_555 1_555
H4 C5 1_555 1_555
H5 C5 1_555 1_555
C6 C4 1_555 1_555
H6 C6 1_555 1_555
C7 C11 1_555 1_555
C8 C4 1_555 1_555
H7 C8 1_555 1_555
C9 C13 1_555 1_555
C10 C2 1_555 1_555
H8 C10 1_555 1_555
C11 C19 1_555 1_555
C12 C1 1_555 1_555
H9 C12 1_555 1_555
C13 N2 1_555 1_555
H10 C13 1_555 1_555
H11 C13 1_555 1_555
C14 N1 1_555 1_555
C15 C6 1_555 1_555
H12 C15 1_555 1_555
C16 H13 1_555 1_555
C17 C16 1_555 1_555
H14 C17 1_555 1_555
C18 C16 1_555 1_555
C19 C2 1_555 1_555
C20 C7 1_555 1_555
H15 C20 1_555 1_555
C21 O1 1_555 1_555
C22 C3 1_555 1_555
C23 C11 1_555 1_555
C24 C10 1_555 1_555
H16 C24 1_555 1_555
C25 C28 1_555 1_555
C26 C18 1_555 1_555
H17 C26 1_555 1_555
C27 N1 1_555 1_555
H18 C27 1_555 1_555
H19 C27 1_555 1_555
C28 C17 1_555 1_555
C29 C26 1_555 1_555
H20 C29 1_555 1_555
C30 C23 1_555 1_555
H21 C30 1_555 1_555
H22 C30 1_555 1_555
H23 C30 1_555 1_555
F4 C44 1_555 1_555
F5 C44 1_555 1_555
F6 C44 1_555 1_555
O3 C39 1_555 1_555
O4 C58 1_555 1_555
C31 H24 1_555 1_555
N3 C43 1_555 1_555
C32 H25 1_555 1_555
C33 C49 1_555 1_555
C34 C42 1_555 1_555
C35 H26 1_555 1_555
C36 H27 1_555 1_555
C37 H28 1_555 1_555
C38 C37 1_555 1_555
H29 C38 1_555 1_555
C39 C37 1_555 1_555
C40 C32 1_555 1_555
H30 C40 1_555 1_555
C41 H31 1_555 1_555
C42 C40 1_555 1_555
H32 C42 1_555 1_555
C43 H33 1_555 1_555
H34 C43 1_555 1_555
N4 C34 1_555 1_555
C44 C46 1_555 1_555
C45 H35 1_555 1_555
C46 C35 1_555 1_555
C47 H36 1_555 1_555
H37 C47 1_555 1_555
H38 C47 1_555 1_555
C48 C32 1_555 1_555
H39 C48 1_555 1_555
C49 C36 1_555 1_555
C50 C31 1_555 1_555
C51 C35 1_555 1_555
H40 C51 1_555 1_555
C52 N3 1_555 1_555
H41 C52 1_555 1_555
H42 C52 1_555 1_555
C53 C34 1_555 1_555
C54 C31 1_555 1_555
H43 C54 1_555 1_555
C55 N3 1_555 1_555
C56 C33 1_555 1_555
C57 N4 1_555 1_555
H44 C57 1_555 1_555
H45 C57 1_555 1_555
C58 O3 1_555 1_555
C59 C45 1_555 1_555
H46 C59 1_555 1_555
C60 C41 1_555 1_555
C1 C14 1_555 1_555
C7 C12 1_555 1_555
C9 C14 1_555 1_555
C9 C20 1_555 1_555
C15 C22 1_555 1_555
C19 C21 1_555 1_555
C22 C27 1_555 1_555
C23 C24 1_555 1_555
C28 C29 1_555 1_555
C33 C50 1_555 1_555
C36 C54 1_555 1_555
C38 C46 1_555 1_555
C39 C51 1_555 1_555
C41 C56 1_555 1_555
C43 C53 1_555 1_555
N4 C52 1_555 1_555
C45 C56 1_555 1_555
C47 C49 1_555 1_555
C48 C53 1_555 1_555
C50 C58 1_555 1_555
C55 C59 1_555 1_555
C55 C60 1_555 1_555
C57 C60 1_555 1_555

#END
