
#######################################################################
#
#                 Cambridge Crystallographic Data Centre
#                                CCDC 
#
#######################################################################
#
# If this CIF has been generated from an entry in the Cambridge 
# Structural Database, then it will include bibliographic, chemical, 
# crystal, experimental, refinement or atomic coordinate data resulting 
# from the CCDC's data processing and validation procedures.
#
#######################################################################

data_QIZKOB
_chemical_name_common            
'4-(Trifluoromethyl)phenyl 2-(8-amino-6,12-dihydro-5,11-methanodibenzo[b,f][1,5]diazocin-2-yl)-3-methylbenzoate dichloromethane solvate'
_chemical_formula_moiety         'C30 H24 F3 N3 O2,C1 H2 Cl2'
_chemical_name_systematic        
'4-(Trifluoromethyl)phenyl 2-(13-amino-1,9-diazatetracyclo[7.7.1.0^2,7^.0^10,15^]heptadeca-2,4,6,10,12,14-hexaen-5-yl)-3-methylbenzoate dichloromethane solvate'
_symmetry_cell_setting           triclinic
_symmetry_space_group_name_H-M   'P -1'
_symmetry_Int_Tables_number      2
_space_group_name_Hall           '-P 1'
loop_
_symmetry_equiv_pos_site_id
_symmetry_equiv_pos_as_xyz
1 x,y,z
2 -x,-y,-z
_cell_length_a                   9.3320(10)
_cell_length_b                   14.1489(14)
_cell_length_c                   21.957(2)
_cell_angle_alpha                90.045(3)
_cell_angle_beta                 100.591(2)
_cell_angle_gamma                103.824(2)
_cell_volume                     2764.18
_exptl_crystal_colour            yellow
_exptl_crystal_description       prism
_chemical_melting_point          '424-427 K'
_cell_formula_units_Z            4
loop_
_atom_site_label
_atom_site_type_symbol
_atom_site_fract_x
_atom_site_fract_y
_atom_site_fract_z
Cl1 Cl 0.02318(11) 0.00218(7) 0.92022(4)
Cl2 Cl -0.29488(13) -0.00911(10) 0.91142(5)
C1 C -0.1563(4) -0.0749(3) 0.91713(18)
H1 H -0.157(4) -0.110(3) 0.9539(19)
H2 H -0.176(6) -0.106(4) 0.875(3)
O1 O 0.1931(2) 0.37116(15) 0.90842(9)
N1 N -0.2146(3) 0.35356(18) 0.69517(11)
N2 N -0.3956(3) 0.29411(17) 0.76180(11)
N3 N -0.3230(4) 0.6764(2) 0.85688(14)
C2 C -0.2808(3) 0.4711(2) 0.76222(12)
O2 O 0.2757(3) 0.32351(19) 1.00246(11)
C3 C -0.1420(3) 0.25890(19) 0.78549(13)
C4 C 0.2290(3) 0.1985(2) 0.85099(12)
F1 F 0.0118(3) 0.76332(17) 0.94446(13)
C5 C -0.4280(3) 0.4079(2) 0.83921(14)
H3 H -0.4824 0.3540 0.8580
F2 F 0.2477(3) 0.80823(16) 0.97153(15)
C6 C -0.0322(3) 0.22046(19) 0.82161(12)
H4 H -0.0582 0.1795 0.8541
C7 C 0.3734(3) 0.1769(2) 0.95223(14)
H5 H 0.4045 0.1944 0.9952
C8 C -0.3658(3) 0.3915(2) 0.78814(13)
C9 C 0.1744(3) 0.4589(2) 0.93194(12)
C10 C -0.2077(3) 0.4569(2) 0.70807(13)
H6 H -0.2586 0.4833 0.6707
H7 H -0.1012 0.4940 0.7171
C11 C 0.1143(3) 0.24057(19) 0.81125(12)
C12 C 0.2486(3) 0.3093(2) 0.94715(13)
C13 C 0.0208(3) 0.5719(2) 0.92905(14)
H8 H -0.0729 0.5882 0.9165
C14 C 0.0428(3) 0.3385(2) 0.72633(13)
H9 H 0.0690 0.3794 0.6938
C15 C -0.2641(3) 0.5647(2) 0.78658(12)
H10 H -0.2057 0.6184 0.7690
C16 C 0.2792(3) 0.2258(2) 0.91479(13)
C17 C -0.1043(3) 0.3178(2) 0.73692(12)
C18 C -0.3023(3) 0.2346(2) 0.79782(14)
H11 H -0.3492 0.1648 0.7869
H12 H -0.2991 0.2459 0.8426
C19 C 0.1425(3) 0.6394(2) 0.96348(13)
C20 C -0.3662(3) 0.2960(2) 0.69868(14)
H13 H -0.4413 0.3238 0.6716
H14 H -0.3780 0.2284 0.6830
F3 F 0.1134(4) 0.74939(19) 1.03781(11)
C21 C 0.1510(3) 0.3003(2) 0.76272(13)
H15 H 0.2504 0.3146 0.7548
C22 C 0.2828(3) 0.1257(2) 0.82532(14)
C23 C 0.4216(4) 0.1034(2) 0.92717(16)
H16 H 0.4843 0.0695 0.9528
C24 C -0.4116(3) 0.5014(2) 0.86276(13)
H17 H -0.4555 0.5112 0.8973
C25 C 0.2424(4) 0.0963(2) 0.75714(14)
H18 H 0.1393 0.1007 0.7409
H19 H 0.2500 0.0291 0.7513
H20 H 0.3116 0.1398 0.7350
C26 C 0.0374(3) 0.4806(2) 0.91317(14)
H21 H -0.0447 0.4338 0.8897
C27 C 0.1284(4) 0.7392(2) 0.97958(15)
C28 C 0.2947(3) 0.5252(2) 0.96764(14)
H22 H 0.3877 0.5083 0.9812
C29 C -0.3305(3) 0.5819(2) 0.83594(13)
C30 C 0.2782(3) 0.6155(2) 0.98325(15)
H23 H 0.3600 0.6614 1.0076
C31 C 0.3776(3) 0.0791(2) 0.86405(16)
H24 H 0.4130 0.0295 0.8468
H25 H -0.326(5) 0.683(3) 0.890(2)
H26 H -0.257(5) 0.714(3) 0.846(2)
Cl3 Cl 0.00390(10) 0.48631(7) 0.58125(4)
Cl4 Cl -0.29803(12) 0.51005(8) 0.53188(5)
C32 C -0.1826(4) 0.4281(3) 0.54735(16)
H27 H -0.1830 0.3934 0.5081
H28 H -0.2245 0.3790 0.5756
O3 O 0.2888(2) 0.85917(14) 0.64692(9)
O4 O 0.2509(3) 0.78278(16) 0.55325(9)
N4 N -0.2091(3) 0.85302(17) 0.76043(10)
N5 N -0.3540(2) 0.80803(16) 0.65586(11)
F4 F 0.3442(3) 1.27173(15) 0.53275(11)
C33 C 0.2414(3) 0.67341(19) 0.70110(12)
C34 C 0.3972(3) 1.0195(2) 0.61910(12)
H29 H 0.4940 1.0094 0.6346
F5 F 0.1062(3) 1.21598(17) 0.50696(10)
C35 C 0.3607(3) 0.5390(2) 0.71104(13)
H30 H 0.3887 0.4876 0.7344
C36 C -0.2230(3) 0.9812(2) 0.68283(12)
F6 F 0.2026(3) 1.27629(17) 0.59920(11)
C37 C -0.2921(3) 1.0231(2) 0.55804(12)
H31 H -0.3133 1.0366 0.5154
C38 C 0.1313(3) 0.72441(19) 0.71834(12)
C39 C 0.3666(3) 0.6322(2) 0.62007(13)
H32 H 0.3949 0.6441 0.5808
C40 C 0.2715(3) 0.7799(2) 0.60890(13)
N6 N -0.1950(4) 1.1949(2) 0.58476(14)
C41 C -0.0040(3) 0.71387(19) 0.67698(12)
H33 H -0.0207 0.6755 0.6396
C42 C -0.1161(3) 0.75752(18) 0.68832(12)
C43 C -0.3303(3) 0.9282(2) 0.57629(12)
H34 H -0.3783 0.8771 0.5459
C44 C 0.1552(3) 0.7820(2) 0.77304(12)
H35 H 0.2473 0.7909 0.8018
C45 C -0.2219(3) 1.0995(2) 0.60242(13)
C46 C 0.2915(3) 0.69274(19) 0.64453(12)
C47 C 0.0447(3) 0.8259(2) 0.78521(12)
H36 H 0.0622 0.8652 0.8222
C48 C -0.0926(3) 0.81304(19) 0.74356(12)
C49 C -0.3569(3) 0.8055(2) 0.72207(13)
H37 H -0.3869 0.7369 0.7335
H38 H -0.4332 0.8389 0.7310
C50 C 0.3997(3) 0.5547(2) 0.65319(14)
H39 H 0.4491 0.5123 0.6364
C51 C 0.3819(3) 1.1082(2) 0.59544(13)
H40 H 0.4686 1.1587 0.5935
C52 C -0.2996(3) 0.90622(19) 0.63860(12)
C53 C 0.2697(3) 0.9461(2) 0.61979(12)
C54 C 0.2375(3) 0.5740(2) 0.79786(14)
H41 H 0.3013 0.6228 0.8294
H42 H 0.2505 0.5092 0.8092
H43 H 0.1321 0.5754 0.7954
C55 C 0.2815(3) 0.5967(2) 0.73582(13)
C56 C -0.2623(3) 0.74260(19) 0.64187(13)
H44 H -0.2398 0.7544 0.5998
H45 H -0.3202 0.6742 0.6421
C57 C 0.1122(3) 1.0487(2) 0.57594(15)
H46 H 0.0151 1.0593 0.5616
C58 C 0.1265(3) 0.9589(2) 0.59832(14)
H47 H 0.0403 0.9074 0.5989
C59 C -0.1836(3) 0.9590(2) 0.75063(12)
H48 H -0.0766 0.9909 0.7668
H49 H -0.2451 0.9869 0.7746
C60 C 0.2393(3) 1.1228(2) 0.57455(13)
C61 C -0.1858(3) 1.0765(2) 0.66450(12)
H50 H -0.1348 1.1272 0.6947
C62 C 0.2228(4) 1.2210(2) 0.55321(15)
H51 H -0.196(4) 1.205(3) 0.549(2)
H52 H -0.147(5) 1.230(3) 0.602(2)
loop_
_geom_bond_atom_site_label_1
_geom_bond_atom_site_label_2
_geom_bond_site_symmetry_1
_geom_bond_site_symmetry_2
Cl1 C1 1_555 1_555
Cl2 C1 1_555 1_555
C1 H1 1_555 1_555
H2 C1 1_555 1_555
O1 C9 1_555 1_555
N1 C10 1_555 1_555
N2 C8 1_555 1_555
N3 C29 1_555 1_555
C2 C8 1_555 1_555
O2 C12 1_555 1_555
C3 C6 1_555 1_555
C4 C11 1_555 1_555
F1 C27 1_555 1_555
C5 H3 1_555 1_555
F2 C27 1_555 1_555
C6 H4 1_555 1_555
C7 H5 1_555 1_555
C8 C5 1_555 1_555
C9 C26 1_555 1_555
C10 C2 1_555 1_555
H6 C10 1_555 1_555
H7 C10 1_555 1_555
C11 C6 1_555 1_555
C12 O1 1_555 1_555
C13 H8 1_555 1_555
C14 H9 1_555 1_555
C15 C2 1_555 1_555
H10 C15 1_555 1_555
C16 C4 1_555 1_555
C17 N1 1_555 1_555
C18 N2 1_555 1_555
H11 C18 1_555 1_555
H12 C18 1_555 1_555
C19 C13 1_555 1_555
C20 N1 1_555 1_555
H13 C20 1_555 1_555
H14 C20 1_555 1_555
F3 C27 1_555 1_555
C21 C11 1_555 1_555
H15 C21 1_555 1_555
C22 C4 1_555 1_555
C23 C7 1_555 1_555
H16 C23 1_555 1_555
C24 C5 1_555 1_555
H17 C24 1_555 1_555
C25 C22 1_555 1_555
H18 C25 1_555 1_555
H19 C25 1_555 1_555
H20 C25 1_555 1_555
C26 C13 1_555 1_555
H21 C26 1_555 1_555
C27 C19 1_555 1_555
C28 C9 1_555 1_555
H22 C28 1_555 1_555
C29 C15 1_555 1_555
C30 C19 1_555 1_555
H23 C30 1_555 1_555
C31 C22 1_555 1_555
H24 C31 1_555 1_555
H25 N3 1_555 1_555
H26 N3 1_555 1_555
Cl3 C32 1_555 1_555
Cl4 C32 1_555 1_555
C32 H27 1_555 1_555
H28 C32 1_555 1_555
O3 C40 1_555 1_555
O4 C40 1_555 1_555
N4 C48 1_555 1_555
N5 C49 1_555 1_555
F4 C62 1_555 1_555
C33 C38 1_555 1_555
C34 H29 1_555 1_555
F5 C62 1_555 1_555
C35 H30 1_555 1_555
C36 C52 1_555 1_555
F6 C62 1_555 1_555
C37 H31 1_555 1_555
C38 C41 1_555 1_555
C39 H32 1_555 1_555
C40 C46 1_555 1_555
N6 C45 1_555 1_555
C41 H33 1_555 1_555
C42 C41 1_555 1_555
C43 C37 1_555 1_555
H34 C43 1_555 1_555
C44 C38 1_555 1_555
H35 C44 1_555 1_555
C45 C37 1_555 1_555
C46 C33 1_555 1_555
C47 C44 1_555 1_555
H36 C47 1_555 1_555
C48 C42 1_555 1_555
C49 N4 1_555 1_555
H37 C49 1_555 1_555
H38 C49 1_555 1_555
C50 C35 1_555 1_555
H39 C50 1_555 1_555
C51 C34 1_555 1_555
H40 C51 1_555 1_555
C52 N5 1_555 1_555
C53 O3 1_555 1_555
C54 H41 1_555 1_555
H42 C54 1_555 1_555
H43 C54 1_555 1_555
C55 C33 1_555 1_555
C56 N5 1_555 1_555
H44 C56 1_555 1_555
H45 C56 1_555 1_555
C57 H46 1_555 1_555
C58 C53 1_555 1_555
H47 C58 1_555 1_555
C59 N4 1_555 1_555
H48 C59 1_555 1_555
H49 C59 1_555 1_555
C60 C51 1_555 1_555
C61 C36 1_555 1_555
H50 C61 1_555 1_555
C62 C60 1_555 1_555
H51 N6 1_555 1_555
H52 N6 1_555 1_555
N2 C20 1_555 1_555
C3 C17 1_555 1_555
C3 C18 1_555 1_555
C7 C16 1_555 1_555
C12 C16 1_555 1_555
C14 C17 1_555 1_555
C14 C21 1_555 1_555
C23 C31 1_555 1_555
C24 C29 1_555 1_555
C28 C30 1_555 1_555
C34 C53 1_555 1_555
C35 C55 1_555 1_555
C36 C59 1_555 1_555
C39 C46 1_555 1_555
C39 C50 1_555 1_555
C42 C56 1_555 1_555
C43 C52 1_555 1_555
C45 C61 1_555 1_555
C47 C48 1_555 1_555
C54 C55 1_555 1_555
C57 C58 1_555 1_555
C57 C60 1_555 1_555

#END
