
#######################################################################
#
#                 Cambridge Crystallographic Data Centre
#                                CCDC 
#
#######################################################################
#
# If this CIF has been generated from an entry in the Cambridge 
# Structural Database, then it will include bibliographic, chemical, 
# crystal, experimental, refinement or atomic coordinate data resulting 
# from the CCDC's data processing and validation procedures.
#
#######################################################################

data_QIZPUM
_chemical_formula_moiety         'C17 H21 N3 O1'
_chemical_name_systematic        
2-(4-methoxyphenyl)-1,1,3-trimethyl-3-phenylguanidine
_symmetry_cell_setting           monoclinic
_symmetry_space_group_name_H-M   'C 2/c'
_symmetry_Int_Tables_number      15
_space_group_name_Hall           '-C 2yn'
loop_
_symmetry_equiv_pos_site_id
_symmetry_equiv_pos_as_xyz
1 x,y,z
2 -x,y,1/2-z
3 1/2+x,1/2+y,z
4 1/2-x,1/2+y,1/2-z
5 -x,-y,-z
6 x,-y,1/2+z
7 1/2-x,1/2-y,-z
8 1/2+x,1/2-y,1/2+z
_cell_length_a                   26.691(4)
_cell_length_b                   7.5135(7)
_cell_length_c                   19.361(2)
_cell_angle_alpha                90
_cell_angle_beta                 125.412(8)
_cell_angle_gamma                90
_cell_volume                     3164.43
_exptl_crystal_colour            colorless
_exptl_crystal_description       block
_cell_formula_units_Z            8
loop_
_atom_site_label
_atom_site_type_symbol
_atom_site_fract_x
_atom_site_fract_y
_atom_site_fract_z
N1 N 0.08203(6) 0.45184(19) 0.19928(10)
N2 N 0.05887(6) 0.71681(18) 0.12254(7)
N3 N -0.01532(6) 0.56477(18) 0.13348(9)
C1 C 0.03887(6) 0.5790(2) 0.15042(9)
C2 C 0.07023(9) 0.3255(3) 0.24493(16)
H1 H 0.0506 0.3854 0.2671
H2 H 0.1084 0.2751 0.2908
H3 H 0.0439 0.2325 0.2071
C3 C 0.12795(8) 0.4022(3) 0.18495(13)
H4 H 0.1185 0.2864 0.1593
H5 H 0.1678 0.3999 0.2381
H6 H 0.1279 0.4875 0.1480
C4 C 0.02692(9) 0.7432(3) 0.03201(10)
H7 H 0.0262 0.8677 0.0204
H8 H -0.0145 0.7000 0.0029
H9 H 0.0478 0.6793 0.0128
C5 C 0.11327(6) 0.8100(2) 0.18048(9)
C6 C 0.13389(7) 0.8259(2) 0.26485(9)
H10 H 0.1117 0.7736 0.2828
C7 C 0.18709(7) 0.9188(2) 0.32194(10)
H11 H 0.2004 0.9275 0.3781
C8 C 0.22101(8) 0.9991(3) 0.29729(13)
H12 H 0.2570 1.0604 0.3363
C9 C 0.20037(8) 0.9863(3) 0.21424(13)
H13 H 0.2225 1.0410 0.1967
C10 C 0.14755(8) 0.8943(2) 0.15616(11)
H14 H 0.1345 0.8879 0.1000
C11 C -0.05759(6) 0.7075(2) 0.09794(9)
C12 C -0.11896(7) 0.6672(2) 0.03552(11)
H15 H -0.1300 0.5498 0.0180
C13 C -0.16389(7) 0.7981(3) -0.00107(11)
H16 H -0.2044 0.7684 -0.0438
C14 C -0.14870(7) 0.9715(2) 0.02570(10)
C15 C -0.08802(7) 1.0149(2) 0.08889(10)
H17 H -0.0774 1.1321 0.1072
C16 C -0.04339(7) 0.8840(2) 0.12449(10)
H18 H -0.0030 0.9144 0.1671
O1 O -0.19000(6) 1.11075(18) -0.00565(8)
C17 C -0.25343(8) 1.0690(3) -0.06419(12)
H19 H -0.2772 1.1766 -0.0817
H20 H -0.2661 0.9915 -0.0376
H21 H -0.2597 1.0108 -0.1128
loop_
_geom_bond_atom_site_label_1
_geom_bond_atom_site_label_2
_geom_bond_site_symmetry_1
_geom_bond_site_symmetry_2
N1 C1 1_555 1_555
N2 C1 1_555 1_555
N3 C1 1_555 1_555
C2 N1 1_555 1_555
H1 C2 1_555 1_555
H2 C2 1_555 1_555
H3 C2 1_555 1_555
C3 N1 1_555 1_555
H4 C3 1_555 1_555
H5 C3 1_555 1_555
H6 C3 1_555 1_555
C4 N2 1_555 1_555
H7 C4 1_555 1_555
H8 C4 1_555 1_555
H9 C4 1_555 1_555
C5 N2 1_555 1_555
C6 C5 1_555 1_555
H10 C6 1_555 1_555
C7 C6 1_555 1_555
H11 C7 1_555 1_555
C8 C7 1_555 1_555
H12 C8 1_555 1_555
C9 C8 1_555 1_555
H13 C9 1_555 1_555
C10 C5 1_555 1_555
H14 C10 1_555 1_555
C11 N3 1_555 1_555
C12 C11 1_555 1_555
H15 C12 1_555 1_555
C13 C12 1_555 1_555
H16 C13 1_555 1_555
C14 C13 1_555 1_555
C15 C14 1_555 1_555
H17 C15 1_555 1_555
C16 C11 1_555 1_555
H18 C16 1_555 1_555
O1 C14 1_555 1_555
C17 O1 1_555 1_555
H19 C17 1_555 1_555
H20 C17 1_555 1_555
H21 C17 1_555 1_555
C9 C10 1_555 1_555
C15 C16 1_555 1_555

#END
