
#######################################################################
#
#                 Cambridge Crystallographic Data Centre
#                                CCDC 
#
#######################################################################
#
# If this CIF has been generated from an entry in the Cambridge 
# Structural Database, then it will include bibliographic, chemical, 
# crystal, experimental, refinement or atomic coordinate data resulting 
# from the CCDC's data processing and validation procedures.
#
#######################################################################

data_QIZTIC
_chemical_formula_moiety         'C32 H64 Si7'
_chemical_name_systematic        
1-(2,4,6-tris(bis(trimethylsilyl)methyl)phenyl)-1-silabenzene
_symmetry_cell_setting           monoclinic
_symmetry_space_group_name_H-M   'P 21/a'
_symmetry_Int_Tables_number      14
_space_group_name_Hall           '-P 2yab'
loop_
_symmetry_equiv_pos_site_id
_symmetry_equiv_pos_as_xyz
1 x,y,z
2 1/2-x,1/2+y,-z
3 -x,-y,-z
4 1/2+x,1/2-y,z
_cell_length_a                   18.9186(3)
_cell_length_b                   10.9969(2)
_cell_length_c                   20.0757(4)
_cell_angle_alpha                90
_cell_angle_beta                 99.2711(6)
_cell_angle_gamma                90
_cell_volume                     4122.11
_exptl_crystal_colour            colorless
_exptl_crystal_description       prismatic
_cell_formula_units_Z            4
loop_
_atom_site_label
_atom_site_type_symbol
_atom_site_fract_x
_atom_site_fract_y
_atom_site_fract_z
Si1 Si 0.06759(5) 0.25664(9) 0.34030(5)
Si2 Si 0.02011(7) 0.6494(1) 0.35552(8)
Si3 Si 0.17945(7) 0.5762(1) 0.43501(6)
Si4 Si 0.1518(1) 0.6317(1) 0.07462(7)
Si5 Si 0.30450(7) 0.6014(1) 0.1715(1)
Si6 Si 0.06368(8) 0.1599(1) 0.13070(6)
Si7 Si 0.22120(6) 0.11399(9) 0.22417(6)
C1 C 0.1107(2) 0.1545(4) 0.4015(2)
C2 C 0.0681(2) 0.0720(4) 0.4296(2)
C3 C -0.0065(2) 0.0626(4) 0.4149(2)
C4 C -0.0492(2) 0.1365(5) 0.3695(2)
C5 C -0.0256(2) 0.2283(4) 0.3305(2)
C6 C 0.1107(2) 0.3656(3) 0.2889(2)
C7 C 0.1183(2) 0.4893(3) 0.3066(2)
C8 C 0.1489(2) 0.5682(3) 0.2643(2)
C9 C 0.1720(2) 0.5285(3) 0.2057(2)
C10 C 0.1652(2) 0.4048(3) 0.1893(2)
C11 C 0.1350(2) 0.3226(3) 0.2298(2)
C12 C 0.0966(2) 0.5379(4) 0.3708(2)
C13 C 0.2041(2) 0.6182(3) 0.1617(2)
C14 C 0.1299(2) 0.1893(3) 0.2104(2)
C15 C 0.0406(3) 0.7899(5) 0.3093(3)
C16 C -0.0569(3) 0.5686(6) 0.3054(4)
C17 C -0.0058(4) 0.6951(6) 0.4382(4)
C18 C 0.2148(3) 0.7318(5) 0.4228(3)
C19 C 0.2503(3) 0.4618(5) 0.4261(3)
C20 C 0.1587(4) 0.5604(8) 0.5224(3)
C21 C 0.1722(3) 0.7807(5) 0.0373(3)
C22 C 0.173(1) 0.5114(7) 0.0161(4)
C23 C 0.0569(4) 0.626(1) 0.0801(5)
C24 C 0.3474(3) 0.7350(6) 0.1403(4)
C25 C 0.3323(5) 0.461(1) 0.138(1)
C26 C 0.3365(4) 0.599(1) 0.2637(6)
C27 C 0.0981(5) 0.1898(10) 0.0513(3)
C28 C 0.0349(3) -0.0016(4) 0.1306(3)
C29 C -0.0156(4) 0.2612(6) 0.1340(4)
C30 C 0.2680(5) 0.1215(8) 0.1515(4)
C31 C 0.2083(4) -0.0479(5) 0.2447(5)
C32 C 0.2753(2) 0.1868(6) 0.2984(3)
H1 H 0.165(2) 0.135(4) 0.415(2)
H2 H 0.094(3) 0.020(5) 0.467(3)
H3 H -0.033(3) -0.001(5) 0.438(2)
H4 H -0.097(4) 0.128(6) 0.361(3)
H5 H -0.064(3) 0.277(6) 0.301(3)
H6 H 0.152(3) 0.652(5) 0.277(2)
H7 H 0.182(2) 0.374(4) 0.149(2)
H8 H 0.076(2) 0.472(4) 0.398(2)
H9 H 0.198(2) 0.702(4) 0.180(2)
H10 H 0.110(3) 0.151(5) 0.240(3)
H11 H 0.0426 0.7700 0.2631
H12 H 0.0860 0.8223 0.3301
H13 H 0.0038 0.8494 0.3112
H14 H -0.0615 0.4893 0.3243
H15 H -0.0489 0.5605 0.2595
H16 H -0.1000 0.6141 0.3064
H17 H 0.0301 0.7483 0.4617
H18 H -0.0096 0.6239 0.4651
H19 H -0.0510 0.7365 0.4303
H20 H 0.2210 0.7417 0.3765
H21 H 0.2601 0.7422 0.4516
H22 H 0.1815 0.7915 0.4339
H23 H 0.2336 0.3821 0.4351
H24 H 0.2611 0.4647 0.3810
H25 H 0.2928 0.4801 0.4576
H26 H 0.1304 0.6285 0.5325
H27 H 0.1324 0.4866 0.5258
H28 H 0.2025 0.5581 0.5541
H29 H 0.1649 0.8452 0.0677
H30 H 0.1411 0.7923 -0.0049
H31 H 0.2211 0.7813 0.0300
H32 H 0.1349 0.4520 0.0103
H33 H 0.2170 0.4729 0.0345
H34 H 0.1767 0.5470 -0.0268
H35 H 0.0466 0.6825 0.1137
H36 H 0.0294 0.6472 0.0372
H37 H 0.0444 0.5453 0.0922
H38 H 0.3290 0.8076 0.1578
H39 H 0.3375 0.7365 0.0919
H40 H 0.3983 0.7308 0.1549
H41 H 0.3069 0.3945 0.1543
H42 H 0.3220 0.4630 0.0896
H43 H 0.3828 0.4499 0.1522
H44 H 0.3376 0.6807 0.2810
H45 H 0.3837 0.5650 0.2725
H46 H 0.3046 0.5507 0.2855
H47 H 0.1097 0.2745 0.0488
H48 H 0.1403 0.1419 0.0501
H49 H 0.0622 0.1686 0.0136
H50 H 0.0749 -0.0535 0.1270
H51 H -0.0025 -0.0157 0.0929
H52 H 0.0173 -0.0191 0.1718
H53 H -0.0335 0.2477 0.1755
H54 H -0.0525 0.2430 0.0966
H55 H -0.0014 0.3447 0.1315
H56 H 0.3071 0.0648 0.1575
H57 H 0.2354 0.1014 0.1113
H58 H 0.2861 0.2023 0.1476
H59 H 0.1631 -0.0756 0.2209
H60 H 0.2462 -0.0957 0.2315
H61 H 0.2090 -0.0562 0.2924
H62 H 0.2457 0.2019 0.3322
H63 H 0.2943 0.2623 0.2851
H64 H 0.3140 0.1339 0.3166
loop_
_geom_bond_atom_site_label_1
_geom_bond_atom_site_label_2
_geom_bond_site_symmetry_1
_geom_bond_site_symmetry_2
Si1 C1 1_555 1_555
Si2 C12 1_555 1_555
Si3 C12 1_555 1_555
Si4 C13 1_555 1_555
Si5 C13 1_555 1_555
Si6 C14 1_555 1_555
Si7 C14 1_555 1_555
C1 C2 1_555 1_555
C2 C3 1_555 1_555
C3 C4 1_555 1_555
C4 C5 1_555 1_555
C5 Si1 1_555 1_555
C6 Si1 1_555 1_555
C7 C6 1_555 1_555
C8 C7 1_555 1_555
C9 C8 1_555 1_555
C10 C9 1_555 1_555
C11 C6 1_555 1_555
C12 C7 1_555 1_555
C13 C9 1_555 1_555
C14 C11 1_555 1_555
C15 Si2 1_555 1_555
C16 Si2 1_555 1_555
C17 Si2 1_555 1_555
C18 Si3 1_555 1_555
C19 Si3 1_555 1_555
C20 Si3 1_555 1_555
C21 Si4 1_555 1_555
C22 Si4 1_555 1_555
C23 Si4 1_555 1_555
C24 Si5 1_555 1_555
C25 Si5 1_555 1_555
C26 Si5 1_555 1_555
C27 Si6 1_555 1_555
C28 Si6 1_555 1_555
C29 Si6 1_555 1_555
C30 Si7 1_555 1_555
C31 Si7 1_555 1_555
C32 Si7 1_555 1_555
H1 C1 1_555 1_555
H2 C2 1_555 1_555
H3 C3 1_555 1_555
H4 C4 1_555 1_555
H5 C5 1_555 1_555
H6 C8 1_555 1_555
H7 C10 1_555 1_555
H8 C12 1_555 1_555
H9 C13 1_555 1_555
H10 C14 1_555 1_555
H11 C15 1_555 1_555
H12 C15 1_555 1_555
H13 C15 1_555 1_555
H14 C16 1_555 1_555
H15 C16 1_555 1_555
H16 C16 1_555 1_555
H17 C17 1_555 1_555
H18 C17 1_555 1_555
H19 C17 1_555 1_555
H20 C18 1_555 1_555
H21 C18 1_555 1_555
H22 C18 1_555 1_555
H23 C19 1_555 1_555
H24 C19 1_555 1_555
H25 C19 1_555 1_555
H26 C20 1_555 1_555
H27 C20 1_555 1_555
H28 C20 1_555 1_555
H29 C21 1_555 1_555
H30 C21 1_555 1_555
H31 C21 1_555 1_555
H32 C22 1_555 1_555
H33 C22 1_555 1_555
H34 C22 1_555 1_555
H35 C23 1_555 1_555
H36 C23 1_555 1_555
H37 C23 1_555 1_555
H38 C24 1_555 1_555
H39 C24 1_555 1_555
H40 C24 1_555 1_555
H41 C25 1_555 1_555
H42 C25 1_555 1_555
H43 C25 1_555 1_555
H44 C26 1_555 1_555
H45 C26 1_555 1_555
H46 C26 1_555 1_555
H47 C27 1_555 1_555
H48 C27 1_555 1_555
H49 C27 1_555 1_555
H50 C28 1_555 1_555
H51 C28 1_555 1_555
H52 C28 1_555 1_555
H53 C29 1_555 1_555
H54 C29 1_555 1_555
H55 C29 1_555 1_555
H56 C30 1_555 1_555
H57 C30 1_555 1_555
H58 C30 1_555 1_555
H59 C31 1_555 1_555
H60 C31 1_555 1_555
H61 C31 1_555 1_555
H62 C32 1_555 1_555
H63 C32 1_555 1_555
H64 C32 1_555 1_555
C10 C11 1_555 1_555

#END
