
#######################################################################
#
#                 Cambridge Crystallographic Data Centre
#                                CCDC 
#
#######################################################################
#
# If this CIF has been generated from an entry in the Cambridge 
# Structural Database, then it will include bibliographic, chemical, 
# crystal, experimental, refinement or atomic coordinate data resulting 
# from the CCDC's data processing and validation procedures.
#
#######################################################################

data_QIZVAY
_chemical_formula_moiety         'C18 H21 B1 N4 O2'
_chemical_name_systematic        
1-benzyl-10,10-diethyl-6,8-dioxo-7,8-dihydro-6H,10H-10-imidazo[2',1':3,4][1,4,2]diazaborata[1,5-c]pyrimidin-1-ium
_symmetry_cell_setting           orthorhombic
_symmetry_space_group_name_H-M   'P n a 21'
_symmetry_Int_Tables_number      33
_space_group_name_Hall           'P 2c -2n'
loop_
_symmetry_equiv_pos_site_id
_symmetry_equiv_pos_as_xyz
1 x,y,z
2 -x,-y,1/2+z
3 1/2+x,1/2-y,z
4 1/2-x,1/2+y,1/2+z
_cell_length_a                   35.612(3)
_cell_length_b                   8.829(1)
_cell_length_c                   11.287(1)
_cell_angle_alpha                90
_cell_angle_beta                 90
_cell_angle_gamma                90
_cell_volume                     3548.84
_exptl_crystal_colour            colorless
_exptl_crystal_description       blocks
_cell_formula_units_Z            8
loop_
_atom_site_label
_atom_site_type_symbol
_atom_site_fract_x
_atom_site_fract_y
_atom_site_fract_z
B1 B 0.74525(9) 0.2835(4) 0.8398(3)
N1 N 0.70667(7) 0.2569(3) 0.7652(2)
C1 C 0.69154(9) 0.1194(3) 0.7366(3)
O1 O 0.70596(7) -0.0007(3) 0.7614(2)
N2 N 0.65788(7) 0.1253(3) 0.6749(2)
H1 H 0.6500(9) 0.039(3) 0.649(3)
C2 C 0.63853(9) 0.2531(4) 0.6402(3)
O2 O 0.60861(6) 0.2405(3) 0.5846(2)
C3 C 0.65578(8) 0.3934(4) 0.6732(3)
H2 H 0.6447 0.4881 0.6542
C4 C 0.68851(8) 0.3846(3) 0.7325(3)
N3 N 0.71001(6) 0.5080(3) 0.7714(2)
C5 C 0.70692(8) 0.6629(3) 0.7652(3)
H3 H 0.6876 0.7198 0.7278
C6 C 0.73710(8) 0.7171(3) 0.8233(3)
H4 H 0.7432 0.8207 0.8347
N4 N 0.75766(6) 0.5930(3) 0.8636(2)
C7 C 0.74127(7) 0.4645(3) 0.8316(3)
C8 C 0.79286(8) 0.6039(4) 0.9325(3)
H5 H 0.8007 0.5012 0.9576
H6 H 0.7884 0.6650 1.0046
C9 C 0.82389(8) 0.6759(4) 0.8601(3)
C10 C 0.84797(8) 0.5856(4) 0.7948(3)
H7 H 0.8454 0.4785 0.7970
C11 C 0.87587(9) 0.6508(5) 0.7262(4)
H8 H 0.8926 0.5882 0.6826
C12 C 0.87942(10) 0.8058(5) 0.7211(4)
H9 H 0.8983 0.8501 0.6730
C13 C 0.85545(9) 0.8973(4) 0.7860(4)
H10 H 0.8578 1.0043 0.7822
C14 C 0.82802(9) 0.8316(4) 0.8565(3)
H11 H 0.8120 0.8940 0.9027
C15 C 0.78100(9) 0.2183(4) 0.7689(3)
H12 H 0.8039 0.2409 0.8155
H13 H 0.7786 0.1067 0.7643
C16 C 0.78661(11) 0.2793(6) 0.6435(4)
H14 H 0.8091 0.2333 0.6085
H15 H 0.7897 0.3896 0.6464
H16 H 0.7646 0.2543 0.5950
C17 C 0.74115(10) 0.2207(4) 0.9735(3)
H17 H 0.7398 0.1088 0.9705
H18 H 0.7642 0.2479 1.0180
C18 C 0.70753(12) 0.2785(6) 1.0418(4)
H19 H 0.7076 0.2348 1.1216
H20 H 0.6844 0.2489 1.0006
H21 H 0.7088 0.3891 1.0473
B2 B 0.50278(10) 0.7793(4) 0.3247(3)
N5 N 0.54180(7) 0.8068(3) 0.3939(2)
C19 C 0.55577(9) 0.9456(3) 0.4267(3)
O3 O 0.54006(6) 1.0635(3) 0.4033(2)
N6 N 0.58910(7) 0.9433(3) 0.4898(2)
H22 H 0.5974(9) 1.032(3) 0.511(3)
C20 C 0.61050(8) 0.8173(3) 0.5171(3)
O4 O 0.64058(6) 0.8335(3) 0.5706(2)
C21 C 0.59455(8) 0.6762(3) 0.4812(3)
H23 H 0.6069 0.5829 0.4970
C22 C 0.56148(8) 0.6806(3) 0.4242(3)
N7 N 0.54031(6) 0.5557(3) 0.3859(2)
C23 C 0.54333(8) 0.4003(3) 0.3939(3)
H24 H 0.5630 0.3440 0.4297
C24 C 0.51248(8) 0.3453(3) 0.3400(3)
H25 H 0.5063 0.2414 0.3301
N8 N 0.49131(6) 0.4687(3) 0.3013(2)
C25 C 0.50814(8) 0.5971(3) 0.3298(2)
C26 C 0.45551(9) 0.4571(4) 0.2366(3)
H26 H 0.4599 0.4050 0.1601
H27 H 0.4460 0.5601 0.2192
C27 C 0.42635(8) 0.3715(4) 0.3060(3)
C28 C 0.42243(9) 0.2165(4) 0.2920(3)
H28 H 0.4379 0.1640 0.2372
C29 C 0.39573(9) 0.1372(4) 0.3581(4)
H29 H 0.3933 0.0306 0.3494
C30 C 0.37310(9) 0.2142(5) 0.4356(4)
H30 H 0.3546 0.1608 0.4796
C31 C 0.37690(9) 0.3672(5) 0.4504(4)
H31 H 0.3612 0.4192 0.5050
C32 C 0.40337(9) 0.4463(4) 0.3863(4)
H32 H 0.4059 0.5525 0.3972
C33 C 0.46770(9) 0.8319(4) 0.4039(4)
H33 H 0.4671 0.9440 0.4052
H34 H 0.4444 0.7969 0.3648
C34 C 0.46753(12) 0.7751(5) 0.5313(4)
H35 H 0.4452 0.8137 0.5722
H36 H 0.4902 0.8108 0.5720
H37 H 0.4671 0.6641 0.5316
C35 C 0.50425(11) 0.8440(4) 0.1923(3)
H38 H 0.4807 0.8149 0.1515
H39 H 0.5048 0.9560 0.1964
C36 C 0.53684(14) 0.7920(6) 0.1178(4)
H40 H 0.5351 0.8376 0.0388
H41 H 0.5363 0.6814 0.1106
H42 H 0.5604 0.8231 0.1553
loop_
_geom_bond_atom_site_label_1
_geom_bond_atom_site_label_2
_geom_bond_site_symmetry_1
_geom_bond_site_symmetry_2
B1 N1 1_555 1_555
N1 C1 1_555 1_555
C1 O1 1_555 1_555
N2 C1 1_555 1_555
H1 N2 1_555 1_555
C2 N2 1_555 1_555
O2 C2 1_555 1_555
C3 C2 1_555 1_555
H2 C3 1_555 1_555
C4 N1 1_555 1_555
N3 C4 1_555 1_555
C5 N3 1_555 1_555
H3 C5 1_555 1_555
C6 C5 1_555 1_555
H4 C6 1_555 1_555
N4 C6 1_555 1_555
C7 B1 1_555 1_555
C8 N4 1_555 1_555
H5 C8 1_555 1_555
H6 C8 1_555 1_555
C9 C8 1_555 1_555
C10 C9 1_555 1_555
H7 C10 1_555 1_555
C11 C10 1_555 1_555
H8 C11 1_555 1_555
C12 C11 1_555 1_555
H9 C12 1_555 1_555
C13 C12 1_555 1_555
H10 C13 1_555 1_555
C14 C9 1_555 1_555
H11 C14 1_555 1_555
C15 B1 1_555 1_555
H12 C15 1_555 1_555
H13 C15 1_555 1_555
C16 C15 1_555 1_555
H14 C16 1_555 1_555
H15 C16 1_555 1_555
H16 C16 1_555 1_555
C17 B1 1_555 1_555
H17 C17 1_555 1_555
H18 C17 1_555 1_555
C18 C17 1_555 1_555
H19 C18 1_555 1_555
H20 C18 1_555 1_555
H21 C18 1_555 1_555
B2 N5 1_555 1_555
N5 C19 1_555 1_555
C19 O3 1_555 1_555
N6 C19 1_555 1_555
H22 N6 1_555 1_555
C20 N6 1_555 1_555
O4 C20 1_555 1_555
C21 C20 1_555 1_555
H23 C21 1_555 1_555
C22 N5 1_555 1_555
N7 C22 1_555 1_555
C23 N7 1_555 1_555
H24 C23 1_555 1_555
C24 C23 1_555 1_555
H25 C24 1_555 1_555
N8 C24 1_555 1_555
C25 B2 1_555 1_555
C26 N8 1_555 1_555
H26 C26 1_555 1_555
H27 C26 1_555 1_555
C27 C26 1_555 1_555
C28 C27 1_555 1_555
H28 C28 1_555 1_555
C29 C28 1_555 1_555
H29 C29 1_555 1_555
C30 C29 1_555 1_555
H30 C30 1_555 1_555
C31 C30 1_555 1_555
H31 C31 1_555 1_555
C32 C27 1_555 1_555
H32 C32 1_555 1_555
C33 B2 1_555 1_555
H33 C33 1_555 1_555
H34 C33 1_555 1_555
C34 C33 1_555 1_555
H35 C34 1_555 1_555
H36 C34 1_555 1_555
H37 C34 1_555 1_555
C35 B2 1_555 1_555
H38 C35 1_555 1_555
H39 C35 1_555 1_555
C36 C35 1_555 1_555
H40 C36 1_555 1_555
H41 C36 1_555 1_555
H42 C36 1_555 1_555
C3 C4 1_555 1_555
N3 C7 1_555 1_555
N4 C7 1_555 1_555
C13 C14 1_555 1_555
C21 C22 1_555 1_555
N7 C25 1_555 1_555
N8 C25 1_555 1_555
C31 C32 1_555 1_555

#END
