
#######################################################################
#
#                 Cambridge Crystallographic Data Centre
#                                CCDC 
#
#######################################################################
#
# If this CIF has been generated from an entry in the Cambridge 
# Structural Database, then it will include bibliographic, chemical, 
# crystal, experimental, refinement or atomic coordinate data resulting 
# from the CCDC's data processing and validation procedures.
#
#######################################################################

data_QIZWOL
_chemical_formula_moiety         'C24 H28 N2 O12 S2'
_chemical_name_systematic        
'bis(2-nitro-4,5-(1,4,7,10-tetraoxadecamethylene)phenyl) disulfide'
_symmetry_cell_setting           monoclinic
_symmetry_space_group_name_H-M   'P 2/n'
_symmetry_Int_Tables_number      13
_space_group_name_Hall           '-P 2yac'
loop_
_symmetry_equiv_pos_site_id
_symmetry_equiv_pos_as_xyz
1 x,y,z
2 1/2-x,y,1/2-z
3 -x,-y,-z
4 1/2+x,-y,1/2+z
_cell_length_a                   18.0838(18)
_cell_length_b                   5.5517(5)
_cell_length_c                   27.489(3)
_cell_angle_alpha                90
_cell_angle_beta                 100.612(2)
_cell_angle_gamma                90
_cell_volume                     2712.58
_exptl_crystal_colour            yellow
_chemical_melting_point          193.5-194.5deg.C
_cell_formula_units_Z            4
_exptl_crystal_recrystallization_method acetonitrile
loop_
_atom_site_label
_atom_site_type_symbol
_atom_site_fract_x
_atom_site_fract_y
_atom_site_fract_z
S1 S 0.8052(1) 1.2161(2) 0.7466(1)
C1 C 0.8462(2) 0.9841(5) 0.7878(1)
C2 C 0.8021(2) 0.8298(5) 0.8100(1)
C3 C 0.8333(2) 0.6398(6) 0.8390(1)
C4 C 0.9110(2) 0.5989(6) 0.8465(1)
C5 C 0.9559(2) 0.7536(6) 0.8268(1)
C6 C 0.9237(2) 0.9453(5) 0.7980(1)
O1 O 0.7934(1) 0.4790(4) 0.8604(1)
C7 C 0.7209(2) 0.5433(6) 0.8704(1)
C8 C 0.7055(2) 0.3702(7) 0.9085(2)
O2 O 0.7548(2) 0.4163(7) 0.9531(1)
C9 C 0.7933(3) 0.2131(13) 0.9765(2)
C10 C 0.8594(3) 0.1365(10) 0.9569(2)
O3 O 0.9199(2) 0.2947(7) 0.9713(1)
C11 C 0.9847(3) 0.2423(8) 0.9519(2)
C12 C 0.9968(2) 0.4217(7) 0.9136(1)
O4 O 0.9367(1) 0.3951(4) 0.8724(1)
N1 N 0.9743(2) 1.1017(5) 0.7776(1)
O5 O 0.9464(1) 1.2467(5) 0.7461(1)
O6 O 1.0417(1) 1.0860(5) 0.7918(1)
H1 H 0.7504 0.8549 0.8052
H2 H 1.0078 0.7312 0.8326
H3 H 0.6829 0.5302 0.8406
H4 H 0.7213 0.7072 0.8826
H5 H 0.6539 0.3874 0.9132
H6 H 0.7124 0.2066 0.8978
H7 H 0.7583 0.0793 0.9738
H8 H 0.8089 0.2489 1.0114
H9 H 0.8739 -0.0243 0.9688
H10 H 0.8470 0.1305 0.9210
H11 H 0.9800 0.0828 0.9373
H12 H 1.0281 0.2420 0.9785
H13 H 0.9970 0.5837 0.9269
H14 H 1.0446 0.3929 0.9035
S1A S 0.6948(1) 1.2161(2) 0.7534(1)
C1A C 0.6538(2) 0.9841(5) 0.7122(1)
C2A C 0.6979(2) 0.8298(5) 0.6900(1)
C3A C 0.6667(2) 0.6398(6) 0.6610(1)
C4A C 0.5890(2) 0.5989(6) 0.6535(1)
C5A C 0.5441(2) 0.7536(6) 0.6732(1)
C6A C 0.5763(2) 0.9453(5) 0.7020(1)
N1A N 0.5257(2) 1.1017(5) 0.7224(1)
O5A O 0.5536(1) 1.2467(5) 0.7539(1)
O6A O 0.4583(1) 1.0860(5) 0.7082(1)
H2A H 0.4922 0.7312 0.6674
O4A O 0.5633(1) 0.3951(4) 0.6276(1)
C12A C 0.5032(2) 0.4217(7) 0.5864(1)
C11A C 0.5153(3) 0.2423(8) 0.5481(2)
O3A O 0.5801(2) 0.2947(7) 0.5287(1)
C10A C 0.6406(3) 0.1365(10) 0.5431(2)
C9A C 0.7067(3) 0.2131(13) 0.5235(2)
O2A O 0.7452(2) 0.4163(7) 0.5469(1)
C8A C 0.7945(2) 0.3702(7) 0.5915(2)
C7A C 0.7791(2) 0.5433(6) 0.6296(1)
O1A O 0.7066(1) 0.4790(4) 0.6396(1)
H3A H 0.8171 0.5302 0.6594
H4A H 0.7787 0.7072 0.6174
H5A H 0.8461 0.3874 0.5868
H6A H 0.7876 0.2066 0.6022
H7A H 0.7417 0.0793 0.5262
H8A H 0.6911 0.2489 0.4886
H9A H 0.6261 -0.0243 0.5312
H10A H 0.6530 0.1305 0.5790
H11A H 0.5200 0.0828 0.5627
H12A H 0.4719 0.2420 0.5215
H13A H 0.5030 0.5837 0.5731
H14A H 0.4554 0.3929 0.5965
H1A H 0.7496 0.8549 0.6948
S2 S 0.2150(1) 0.7841(2) 0.7751(1)
C13 C 0.2499(2) 1.0145(5) 0.8191(1)
C14 C 0.3059(2) 1.1718(5) 0.8117(1)
C15 C 0.3299(2) 1.3568(6) 0.8448(1)
C16 C 0.2964(2) 1.3886(6) 0.8863(1)
C17 C 0.2408(2) 1.2348(7) 0.8942(1)
C18 C 0.2174(2) 1.0485(6) 0.8613(1)
O7 O 0.3833(1) 1.5189(4) 0.8400(1)
C19 C 0.4343(2) 1.4733(6) 0.8071(1)
C20 C 0.4912(2) 1.6725(6) 0.8157(1)
O8 O 0.5364(1) 1.6559(4) 0.8636(1)
C21 C 0.5381(2) 1.8684(7) 0.8929(2)
C22 C 0.4720(2) 1.8989(7) 0.9178(2)
O9 O 0.4792(2) 1.7321(5) 0.9573(1)
C23 C 0.4164(2) 1.7204(8) 0.9818(2)
C24 C 0.3648(2) 1.5195(8) 0.9628(1)
O10 O 0.3194(1) 1.5815(4) 0.9165(1)
N2 N 0.1599(2) 0.8896(7) 0.8729(1)
O11 O 0.1444(1) 0.7086(5) 0.8474(1)
O12 O 0.1288(2) 0.9394(6) 0.9078(1)
H15 H 0.3281 1.1532 0.7840
H16 H 0.2185 1.2551 0.9218
H17 H 0.4079 1.4739 0.7730
H18 H 0.4586 1.3182 0.8142
H19 H 0.5231 1.6641 0.7909
H20 H 0.4655 1.8266 0.8122
H21 H 0.5410 2.0071 0.8718
H22 H 0.5835 1.8664 0.9179
H23 H 0.4707 2.0619 0.9304
H24 H 0.4257 1.8695 0.8945
H25 H 0.3890 1.8714 0.9772
H26 H 0.4343 1.6985 1.0171
H27 H 0.3940 1.3767 0.9588
H28 H 0.3328 1.4829 0.9865
S2A S 0.2850(1) 0.7841(2) 0.7249(1)
C13A C 0.2501(2) 1.0145(5) 0.6809(1)
C14A C 0.1941(2) 1.1718(5) 0.6883(1)
C15A C 0.1701(2) 1.3568(6) 0.6552(1)
C16A C 0.2036(2) 1.3886(6) 0.6137(1)
C17A C 0.2592(2) 1.2348(7) 0.6058(1)
C18A C 0.2826(2) 1.0485(6) 0.6387(1)
N2A N 0.3401(2) 0.8896(7) 0.6271(1)
O11A O 0.3556(1) 0.7086(5) 0.6526(1)
O12A O 0.3712(2) 0.9394(6) 0.5922(1)
H16A H 0.2815 1.2551 0.5782
O10A O 0.1806(1) 1.5815(4) 0.5835(1)
C24A C 0.1352(2) 1.5195(8) 0.5372(1)
C23A C 0.0836(2) 1.7204(8) 0.5182(2)
O9A O 0.0208(2) 1.7321(5) 0.5427(1)
C22A C 0.0280(2) 1.8989(7) 0.5822(2)
C21A C -0.0381(2) 1.8684(7) 0.6071(2)
O8A O -0.0364(1) 1.6559(4) 0.6364(1)
C20A C 0.0088(2) 1.6725(6) 0.6843(1)
C19A C 0.0657(2) 1.4733(6) 0.6929(1)
O7A O 0.1167(1) 1.5189(4) 0.6600(1)
H17A H 0.0921 1.4739 0.7270
H18A H 0.0414 1.3182 0.6858
H19A H -0.0231 1.6641 0.7091
H20A H 0.0345 1.8266 0.6878
H21A H -0.0410 2.0071 0.6282
H22A H -0.0835 1.8664 0.5821
H23A H 0.0293 2.0619 0.5696
H24A H 0.0743 1.8695 0.6055
H25A H 0.1110 1.8714 0.5228
H26A H 0.0657 1.6985 0.4829
H27A H 0.1060 1.3767 0.5412
H28A H 0.1672 1.4829 0.5135
H15A H 0.1719 1.1532 0.7160
loop_
_geom_bond_atom_site_label_1
_geom_bond_atom_site_label_2
_geom_bond_site_symmetry_1
_geom_bond_site_symmetry_2
S1 C1 1_555 1_555
C1 C2 1_555 1_555
C2 C3 1_555 1_555
C3 C4 1_555 1_555
C4 C5 1_555 1_555
C5 C6 1_555 1_555
C6 C1 1_555 1_555
O1 C3 1_555 1_555
C7 O1 1_555 1_555
C8 C7 1_555 1_555
O2 C8 1_555 1_555
C9 O2 1_555 1_555
C10 C9 1_555 1_555
O3 C10 1_555 1_555
C11 O3 1_555 1_555
C12 C11 1_555 1_555
O4 C4 1_555 1_555
N1 C6 1_555 1_555
O5 N1 1_555 1_555
O6 N1 1_555 1_555
S2 C13 1_555 1_555
C13 C14 1_555 1_555
C14 C15 1_555 1_555
C15 C16 1_555 1_555
C16 C17 1_555 1_555
C17 C18 1_555 1_555
C18 C13 1_555 1_555
O7 C15 1_555 1_555
C19 O7 1_555 1_555
C20 C19 1_555 1_555
O8 C20 1_555 1_555
C21 O8 1_555 1_555
C22 C21 1_555 1_555
O9 C22 1_555 1_555
C23 O9 1_555 1_555
C24 C23 1_555 1_555
O10 C16 1_555 1_555
N2 C18 1_555 1_555
O11 N2 1_555 1_555
O12 N2 1_555 1_555
H1 C2 1_555 1_555
H2 C5 1_555 1_555
H3 C7 1_555 1_555
H4 C7 1_555 1_555
H5 C8 1_555 1_555
H6 C8 1_555 1_555
H7 C9 1_555 1_555
H8 C9 1_555 1_555
H9 C10 1_555 1_555
H10 C10 1_555 1_555
H11 C11 1_555 1_555
H12 C11 1_555 1_555
H13 C12 1_555 1_555
H14 C12 1_555 1_555
H15 C14 1_555 1_555
H16 C17 1_555 1_555
H17 C19 1_555 1_555
H18 C19 1_555 1_555
H19 C20 1_555 1_555
H20 C20 1_555 1_555
H21 C21 1_555 1_555
H22 C21 1_555 1_555
H23 C22 1_555 1_555
H24 C22 1_555 1_555
H25 C23 1_555 1_555
H26 C23 1_555 1_555
H27 C24 1_555 1_555
H28 C24 1_555 1_555
S1A S1 1_555 1_555
C1A S1A 1_555 1_555
C2A C1A 1_555 1_555
C3A C2A 1_555 1_555
C4A C3A 1_555 1_555
C5A C4A 1_555 1_555
C6A C1A 1_555 1_555
N1A C6A 1_555 1_555
O5A N1A 1_555 1_555
O6A N1A 1_555 1_555
H2A C5A 1_555 1_555
O4A C4A 1_555 1_555
C12A O4A 1_555 1_555
C11A C12A 1_555 1_555
O3A C11A 1_555 1_555
C10A O3A 1_555 1_555
C9A C10A 1_555 1_555
O2A C9A 1_555 1_555
C8A O2A 1_555 1_555
C7A C8A 1_555 1_555
O1A C3A 1_555 1_555
H3A C7A 1_555 1_555
H4A C7A 1_555 1_555
H5A C8A 1_555 1_555
H6A C8A 1_555 1_555
H7A C9A 1_555 1_555
H8A C9A 1_555 1_555
H9A C10A 1_555 1_555
H10A C10A 1_555 1_555
H11A C11A 1_555 1_555
H12A C11A 1_555 1_555
H13A C12A 1_555 1_555
H14A C12A 1_555 1_555
H1A C2A 1_555 1_555
S2A S2 1_555 1_555
C13A S2A 1_555 1_555
C14A C13A 1_555 1_555
C15A C14A 1_555 1_555
C16A C15A 1_555 1_555
C17A C16A 1_555 1_555
C18A C13A 1_555 1_555
N2A C18A 1_555 1_555
O11A N2A 1_555 1_555
O12A N2A 1_555 1_555
H16A C17A 1_555 1_555
O10A C16A 1_555 1_555
C24A O10A 1_555 1_555
C23A C24A 1_555 1_555
O9A C23A 1_555 1_555
C22A O9A 1_555 1_555
C21A C22A 1_555 1_555
O8A C21A 1_555 1_555
C20A O8A 1_555 1_555
C19A C20A 1_555 1_555
O7A C15A 1_555 1_555
H17A C19A 1_555 1_555
H18A C19A 1_555 1_555
H19A C20A 1_555 1_555
H20A C20A 1_555 1_555
H21A C21A 1_555 1_555
H22A C21A 1_555 1_555
H23A C22A 1_555 1_555
H24A C22A 1_555 1_555
H25A C23A 1_555 1_555
H26A C23A 1_555 1_555
H27A C24A 1_555 1_555
H28A C24A 1_555 1_555
H15A C14A 1_555 1_555
C12 O4 1_555 1_555
C24 O10 1_555 1_555
C5A C6A 1_555 1_555
C7A O1A 1_555 1_555
C17A C18A 1_555 1_555
C19A O7A 1_555 1_555

#END
