
#######################################################################
#
#                 Cambridge Crystallographic Data Centre
#                                CCDC 
#
#######################################################################
#
# If this CIF has been generated from an entry in the Cambridge 
# Structural Database, then it will include bibliographic, chemical, 
# crystal, experimental, refinement or atomic coordinate data resulting 
# from the CCDC's data processing and validation procedures.
#
#######################################################################

data_QIZXAZ
_chemical_formula_moiety         'C20 H32 Br1 N1 O6 P2'
_chemical_name_systematic        
trans-2-(1-(diethoxyphosphorylamino)cyclopentyl)-4-(p-bromophenyl)-5,5-dimethyl-1,3,2\l^5^-dioxaphosphorinane-2-oxide
_symmetry_cell_setting           monoclinic
_symmetry_space_group_name_H-M   'P 21/c'
_symmetry_Int_Tables_number      14
_space_group_name_Hall           '-P 2ybc'
loop_
_symmetry_equiv_pos_site_id
_symmetry_equiv_pos_as_xyz
1 x,y,z
2 -x,1/2+y,1/2-z
3 -x,-y,-z
4 x,1/2-y,1/2+z
_cell_length_a                   11.757(4)
_cell_length_b                   14.706(5)
_cell_length_c                   15.308(5)
_cell_angle_alpha                90
_cell_angle_beta                 108.864(7)
_cell_angle_gamma                90
_cell_volume                     2504.57
_chemical_melting_point          '149-151 deg.C'
_cell_formula_units_Z            4
_exptl_crystal_recrystallization_method 'ethyl acetate'
loop_
_atom_site_label
_atom_site_type_symbol
_atom_site_fract_x
_atom_site_fract_y
_atom_site_fract_z
Br1 Br 0.86001(8) 1.10695(5) 0.16895(6)
P1 P 0.71678(15) 0.56734(12) 0.01582(12)
P2 P 0.59491(19) 0.63368(13) 0.20030(15)
O1 O 0.7519(3) 0.6683(3) 0.0466(3)
O2 O 0.8333(4) 0.5287(3) -0.0021(3)
O3 O 0.6080(4) 0.5592(3) -0.0639(3)
O4 O 0.7022(5) 0.6785(3) 0.2544(3)
N1 N 0.6078(4) 0.5460(3) 0.1427(3)
H1 H 0.5435 0.5139 0.1221
C1 C 0.8263(6) 0.8303(5) 0.1274(4)
H2 H 0.8208 0.7798 0.1624
C2 C 0.8402(6) 0.9155(5) 0.1674(5)
H3 H 0.8449 0.9222 0.2289
C3 C 0.8469(6) 0.9897(4) 0.1158(4)
C4 C 0.8410(6) 0.9807(5) 0.0245(5)
H4 H 0.8463 1.0314 -0.0103
C5 C 0.8273(6) 0.8959(5) -0.0135(4)
H5 H 0.8223 0.8895 -0.0751
C6 C 0.8205(5) 0.8184(4) 0.0371(4)
C7 C 0.8045(5) 0.7265(4) -0.0080(4)
H6 H 0.7465 0.7321 -0.0703
C8 C 0.9187(5) 0.6801(4) -0.0153(4)
C9 C 1.0158(5) 0.6719(5) 0.0784(5)
H7 H 0.9846 0.6392 0.1200
H8 H 1.0405 0.7315 0.1027
H9 H 1.0835 0.6397 0.0717
C10 C 0.9680(6) 0.7322(5) -0.0820(5)
H10 H 0.9068 0.7365 -0.1412
H11 H 1.0363 0.7006 -0.0882
H12 H 0.9916 0.7922 -0.0583
C11 C 0.8825(6) 0.5865(5) -0.0581(5)
H13 H 0.8231 0.5938 -0.1187
H14 H 0.9524 0.5571 -0.0660
C12 C 0.7120(5) 0.5107(4) 0.1188(4)
C13 C 0.8285(6) 0.5129(5) 0.2023(5)
H15 H 0.8986 0.5034 0.1832
H16 H 0.8368 0.5703 0.2349
C14 C 0.8122(7) 0.4351(6) 0.2620(6)
H17 H 0.8895 0.4091 0.2967
H18 H 0.7729 0.4561 0.3051
C15 C 0.7351(10) 0.3654(5) 0.1966(7)
H19 H 0.6666 0.3493 0.2156
H20 H 0.7813 0.3108 0.1966
C16 C 0.6930(7) 0.4077(5) 0.1008(6)
H21 H 0.6090 0.3941 0.0693
H22 H 0.7403 0.3855 0.0638
O5 O 0.4839(8) 0.6187(7) 0.2281(7)
O6 O 0.5289(9) 0.6992(6) 0.1138(6)
C17 C 0.4937(17) 0.5560(10) 0.3052(10)
H23 H 0.5655 0.5190 0.3184
H24 H 0.4241 0.5164 0.2911
C18 C 0.500(3) 0.6182(18) 0.3873(9)
H25 H 0.5053 0.5817 0.4405
H26 H 0.4293 0.6553 0.3723
H27 H 0.5699 0.6564 0.4005
C19 C 0.4960(13) 0.7912(9) 0.1265(13)
H28 H 0.5388 0.8337 0.0999
H29 H 0.5149 0.8048 0.1916
C20 C 0.3608(14) 0.7980(13) 0.0773(13)
H30 H 0.3349 0.8595 0.0804
H31 H 0.3195 0.7582 0.1067
H32 H 0.3430 0.7805 0.0139
O7? O 0.5672(15) 0.5840(9) 0.2837(9)
O8? O 0.4755(9) 0.6824(8) 0.1615(9)
C21? C 0.475(4) 0.607(3) 0.323(3)
H33? H 0.3964 0.6069 0.2760
H34? H 0.4894 0.6667 0.3515
C22? C 0.482(3) 0.5340(19) 0.3948(19)
H35? H 0.4268 0.5481 0.4273
H36? H 0.5624 0.5318 0.4378
H37? H 0.4619 0.4762 0.3649
C23? C 0.4642(18) 0.7482(14) 0.0873(13)
H38? H 0.4318 0.7189 0.0276
H39? H 0.5423 0.7735 0.0922
C24? C 0.380(5) 0.823(2) 0.097(3)
H40? H 0.3737 0.8686 0.0516
H41? H 0.4114 0.8492 0.1578
H42? H 0.3022 0.7973 0.0894
loop_
_geom_bond_atom_site_label_1
_geom_bond_atom_site_label_2
_geom_bond_site_symmetry_1
_geom_bond_site_symmetry_2
Br1 C3 1_555 1_555
P1 O1 1_555 1_555
P2 O4 1_555 1_555
O1 C7 1_555 1_555
O2 P1 1_555 1_555
O3 P1 1_555 1_555
N1 P2 1_555 1_555
H1 N1 1_555 1_555
C1 H2 1_555 1_555
C2 C1 1_555 1_555
H3 C2 1_555 1_555
C3 C2 1_555 1_555
C4 C3 1_555 1_555
H4 C4 1_555 1_555
C5 C4 1_555 1_555
H5 C5 1_555 1_555
C6 C1 1_555 1_555
C7 C6 1_555 1_555
H6 C7 1_555 1_555
C8 C7 1_555 1_555
C9 C8 1_555 1_555
H7 C9 1_555 1_555
H8 C9 1_555 1_555
H9 C9 1_555 1_555
C10 C8 1_555 1_555
H10 C10 1_555 1_555
H11 C10 1_555 1_555
H12 C10 1_555 1_555
C11 O2 1_555 1_555
H13 C11 1_555 1_555
H14 C11 1_555 1_555
C12 P1 1_555 1_555
C13 C12 1_555 1_555
H15 C13 1_555 1_555
H16 C13 1_555 1_555
C14 C13 1_555 1_555
H17 C14 1_555 1_555
H18 C14 1_555 1_555
C15 C14 1_555 1_555
H19 C15 1_555 1_555
H20 C15 1_555 1_555
C16 C12 1_555 1_555
H21 C16 1_555 1_555
H22 C16 1_555 1_555
O5 P2 1_555 1_555
O6 P2 1_555 1_555
C17 O5 1_555 1_555
H23 C17 1_555 1_555
H24 C17 1_555 1_555
C18 C17 1_555 1_555
H25 C18 1_555 1_555
H26 C18 1_555 1_555
H27 C18 1_555 1_555
C19 O6 1_555 1_555
H28 C19 1_555 1_555
H29 C19 1_555 1_555
C20 C19 1_555 1_555
H30 C20 1_555 1_555
H31 C20 1_555 1_555
H32 C20 1_555 1_555
N1 C12 1_555 1_555
C5 C6 1_555 1_555
C8 C11 1_555 1_555
C15 C16 1_555 1_555

#END
