
#######################################################################
#
#                 Cambridge Crystallographic Data Centre
#                                CCDC 
#
#######################################################################
#
# If this CIF has been generated from an entry in the Cambridge 
# Structural Database, then it will include bibliographic, chemical, 
# crystal, experimental, refinement or atomic coordinate data resulting 
# from the CCDC's data processing and validation procedures.
#
#######################################################################

data_QOBBUG
_chemical_formula_moiety         'C16 H16 O4'
_chemical_name_systematic        
'ethyl 3-(2,6-dimethyl-4-oxo-4H-chromen-3-yl)acrylate'
_symmetry_cell_setting           triclinic
_symmetry_space_group_name_H-M   'P -1'
_symmetry_Int_Tables_number      2
_space_group_name_Hall           '-P 1'
loop_
_symmetry_equiv_pos_site_id
_symmetry_equiv_pos_as_xyz
1 x,y,z
2 -x,-y,-z
_cell_length_a                   7.326(4)
_cell_length_b                   7.814(4)
_cell_length_c                   12.700(7)
_cell_angle_alpha                75.280(6)
_cell_angle_beta                 84.078(6)
_cell_angle_gamma                88.663(6)
_cell_volume                     699.399
_exptl_crystal_colour            colorless
_exptl_crystal_description       block
_cell_formula_units_Z            2
loop_
_atom_site_label
_atom_site_type_symbol
_atom_site_fract_x
_atom_site_fract_y
_atom_site_fract_z
C1 C 1.17315(19) 0.25372(18) 0.42346(11)
C2 C 1.03165(18) 0.23526(17) 0.50466(11)
C3 C 0.85896(19) 0.32840(18) 0.48191(11)
C4 C 0.85332(19) 0.43917(17) 0.36931(11)
C5 C 0.69849(19) 0.53755(18) 0.33550(11)
H1 H 0.5959 0.5343 0.3856
C6 C 0.6939(2) 0.63993(19) 0.22918(12)
C7 C 0.8514(2) 0.6446(2) 0.15527(12)
H2 H 0.8512 0.7132 0.0838
C8 C 1.0062(2) 0.5497(2) 0.18641(12)
H3 H 1.1094 0.5539 0.1366
C9 C 1.00572(19) 0.44752(18) 0.29346(11)
C10 C 1.3566(2) 0.1671(2) 0.43212(14)
H4 H 1.4297 0.2028 0.3629
H5 H 1.3413 0.0409 0.4520
H6 H 1.4170 0.2019 0.4870
C11 C 1.0604(2) 0.12171(18) 0.61323(11)
H7 H 1.1774 0.0742 0.6208
C12 C 0.9410(2) 0.0783(2) 0.70174(12)
H8 H 0.8221 0.1220 0.6968
C13 C 0.9863(2) -0.0352(2) 0.80737(12)
C14 C 1.2158(3) -0.1994(2) 0.90944(13)
H9 H 1.1337 -0.3001 0.9364
H10 H 1.2101 -0.1316 0.9640
C15 C 1.4079(3) -0.2610(2) 0.88825(16)
H11 H 1.4132 -0.3227 0.8316
H12 H 1.4448 -0.3390 0.9540
H13 H 1.4890 -0.1607 0.8656
C16 C 0.5260(2) 0.7440(2) 0.19419(15)
H14 H 0.4231 0.6652 0.2058
H15 H 0.5463 0.8039 0.1180
H16 H 0.5012 0.8293 0.2364
O1 O 1.16348(13) 0.35520(13) 0.32014(8)
O2 O 0.72438(15) 0.31781(16) 0.55049(8)
O3 O 1.16173(15) -0.08966(14) 0.80674(8)
O4 O 0.87659(18) -0.07585(18) 0.88759(9)
loop_
_geom_bond_atom_site_label_1
_geom_bond_atom_site_label_2
_geom_bond_site_symmetry_1
_geom_bond_site_symmetry_2
C1 C2 1_555 1_555
C2 C3 1_555 1_555
C3 C4 1_555 1_555
C4 C5 1_555 1_555
C5 H1 1_555 1_555
C6 C5 1_555 1_555
C7 C6 1_555 1_555
H2 C7 1_555 1_555
C8 C7 1_555 1_555
H3 C8 1_555 1_555
C9 C4 1_555 1_555
C10 C1 1_555 1_555
H4 C10 1_555 1_555
H5 C10 1_555 1_555
H6 C10 1_555 1_555
C11 C2 1_555 1_555
H7 C11 1_555 1_555
C12 C11 1_555 1_555
H8 C12 1_555 1_555
C13 C12 1_555 1_555
C14 H9 1_555 1_555
H10 C14 1_555 1_555
C15 C14 1_555 1_555
H11 C15 1_555 1_555
H12 C15 1_555 1_555
H13 C15 1_555 1_555
C16 C6 1_555 1_555
H14 C16 1_555 1_555
H15 C16 1_555 1_555
H16 C16 1_555 1_555
O1 C1 1_555 1_555
O2 C3 1_555 1_555
O3 C13 1_555 1_555
O4 C13 1_555 1_555
C8 C9 1_555 1_555
C9 O1 1_555 1_555
C14 O3 1_555 1_555

#END
