
#######################################################################
#
#                 Cambridge Crystallographic Data Centre
#                                CCDC 
#
#######################################################################
#
# If this CIF has been generated from an entry in the Cambridge 
# Structural Database, then it will include bibliographic, chemical, 
# crystal, experimental, refinement or atomic coordinate data resulting 
# from the CCDC's data processing and validation procedures.
#
#######################################################################

data_QOBDEQ
_chemical_formula_moiety         'C16 H19 N2 1+,C24 H20 B1 1-'
_chemical_name_systematic        
'4-(2-(4-Dimethylaminophenyl)ethenyl)-1-methylpyridinium tetraphenylborate'
_symmetry_cell_setting           monoclinic
_symmetry_space_group_name_H-M   'P 21/c'
_symmetry_Int_Tables_number      14
_space_group_name_Hall           '-P 2ybc'
loop_
_symmetry_equiv_pos_site_id
_symmetry_equiv_pos_as_xyz
1 x,y,z
2 -x,1/2+y,1/2-z
3 -x,-y,-z
4 x,1/2-y,1/2+z
_cell_length_a                   18.013(3)
_cell_length_b                   10.821(2)
_cell_length_c                   17.321(3)
_cell_angle_alpha                90
_cell_angle_beta                 112.20(1)
_cell_angle_gamma                90
_cell_volume                     3125.91
_exptl_crystal_colour            brown-red
_chemical_melting_point          '224.5-225.4 deg.C'
_cell_formula_units_Z            4
_exptl_crystal_recrystallization_method dimethylformamide
loop_
_atom_site_label
_atom_site_type_symbol
_atom_site_fract_x
_atom_site_fract_y
_atom_site_fract_z
N1 N -0.1689(2) 0.5331(3) 0.2997(2)
N2 N -0.6313(2) 1.0334(2) 0.4074(2)
C1 C -0.0998(2) 0.4588(3) 0.3019(2)
C2 C -0.2310(2) 0.4812(3) 0.3117(2)
C3 C -0.2937(2) 0.5523(4) 0.3114(2)
C4 C -0.2947(2) 0.6787(3) 0.2985(2)
C5 C -0.2305(2) 0.7263(3) 0.2847(2)
C6 C -0.1694(2) 0.6543(3) 0.2856(2)
C7 C -0.3568(2) 0.7719(3) 0.3056(2)
C8 C -0.4162(2) 0.7392(4) 0.3186(2)
C9 C -0.4747(2) 0.8240(3) 0.3362(2)
C10 C -0.5388(2) 0.7725(3) 0.3470(2)
C11 C -0.5896(2) 0.8393(3) 0.3694(2)
C12 C -0.5794(2) 0.9666(2) 0.3842(2)
C13 C -0.5141(2) 1.0210(3) 0.3731(2)
C14 C -0.4622(2) 0.9520(3) 0.3490(2)
C15 C -0.6956(2) 0.9743(3) 0.4231(2)
C16 C -0.6175(2) 1.1626(2) 0.4290(2)
B1 B 0.1955(2) 0.5333(2) 0.4004(2)
C17 C 0.1704(1) 0.3888(2) 0.4109(2)
C18 C 0.2073(2) 0.3185(2) 0.4812(2)
C19 C 0.1807(2) 0.2024(2) 0.4938(2)
C20 C 0.1150(2) 0.1513(2) 0.4346(2)
C21 C 0.0769(2) 0.2159(3) 0.3637(2)
C22 C 0.1040(2) 0.3318(2) 0.3526(2)
C23 C 0.2829(1) 0.5664(2) 0.4733(1)
C24 C 0.2963(2) 0.6648(2) 0.5279(2)
C25 C 0.3705(2) 0.6904(3) 0.5889(2)
C26 C 0.4350(2) 0.6184(3) 0.5980(2)
C27 C 0.4254(2) 0.5202(3) 0.5459(2)
C28 C 0.3509(2) 0.4950(2) 0.4849(2)
C29 C 0.1269(1) 0.6230(2) 0.4116(1)
C30 C 0.0868(1) 0.5954(2) 0.4639(2)
C31 C 0.0304(2) 0.6726(3) 0.4754(2)
C32 C 0.0116(2) 0.7829(2) 0.4343(2)
C33 C 0.0495(2) 0.8153(2) 0.3824(2)
C34 C 0.1060(2) 0.7371(2) 0.3718(2)
C35 C 0.1985(1) 0.5549(2) 0.3070(2)
C36 C 0.1293(2) 0.5565(2) 0.2347(2)
C37 C 0.1280(2) 0.5763(2) 0.1556(2)
C38 C 0.1979(2) 0.5978(2) 0.1447(2)
C39 C 0.2676(2) 0.5992(2) 0.2130(2)
C40 C 0.2678(2) 0.5778(2) 0.2923(2)
loop_
_geom_bond_atom_site_label_1
_geom_bond_atom_site_label_2
_geom_bond_site_symmetry_1
_geom_bond_site_symmetry_2
N1 C1 1_555 1_555
N2 C12 1_555 1_555
C2 N1 1_555 1_555
C3 C2 1_555 1_555
C4 C3 1_555 1_555
C5 C4 1_555 1_555
C6 N1 1_555 1_555
C7 C4 1_555 1_555
C8 C7 1_555 1_555
C9 C8 1_555 1_555
C10 C9 1_555 1_555
C11 C10 1_555 1_555
C12 C11 1_555 1_555
C13 C12 1_555 1_555
C14 C9 1_555 1_555
C15 N2 1_555 1_555
C16 N2 1_555 1_555
B1 C17 1_555 1_555
C17 C18 1_555 1_555
C18 C19 1_555 1_555
C19 C20 1_555 1_555
C20 C21 1_555 1_555
C21 C22 1_555 1_555
C22 C17 1_555 1_555
C23 B1 1_555 1_555
C24 C23 1_555 1_555
C25 C24 1_555 1_555
C26 C25 1_555 1_555
C27 C26 1_555 1_555
C28 C23 1_555 1_555
C29 B1 1_555 1_555
C30 C29 1_555 1_555
C31 C30 1_555 1_555
C32 C31 1_555 1_555
C33 C32 1_555 1_555
C34 C29 1_555 1_555
C35 B1 1_555 1_555
C36 C35 1_555 1_555
C37 C36 1_555 1_555
C38 C37 1_555 1_555
C39 C38 1_555 1_555
C40 C35 1_555 1_555
C5 C6 1_555 1_555
C13 C14 1_555 1_555
C27 C28 1_555 1_555
C33 C34 1_555 1_555
C39 C40 1_555 1_555

#END
