
#######################################################################
#
#                 Cambridge Crystallographic Data Centre
#                                CCDC 
#
#######################################################################
#
# If this CIF has been generated from an entry in the Cambridge 
# Structural Database, then it will include bibliographic, chemical, 
# crystal, experimental, refinement or atomic coordinate data resulting 
# from the CCDC's data processing and validation procedures.
#
#######################################################################

data_QOBGIX
_chemical_formula_moiety         'Cl4 F1 N3 O1 P2 S1'
_chemical_name_systematic        
'3,3,5,5-Tetrachloro-1-fluoro-1,2,4,6,3,5-thiatriazadiphosphinine 1-oxide'
_symmetry_cell_setting           triclinic
_symmetry_space_group_name_H-M   'P -1'
_symmetry_Int_Tables_number      2
_space_group_name_Hall           '-P 1'
loop_
_symmetry_equiv_pos_site_id
_symmetry_equiv_pos_as_xyz
1 x,y,z
2 -x,-y,-z
_cell_length_a                   6.104(1)
_cell_length_b                   11.239(5)
_cell_length_c                   14.848(7)
_cell_angle_alpha                95.25(3)
_cell_angle_beta                 95.72(3)
_cell_angle_gamma                96.39(3)
_cell_volume                     1001.81
_exptl_crystal_colour            colorless
_cell_formula_units_Z            4
loop_
_atom_site_label
_atom_site_type_symbol
_atom_site_fract_x
_atom_site_fract_y
_atom_site_fract_z
S1 S -0.1250(3) 0.3319(1) 0.8720(1)
P2 P -0.3288(2) 0.1057(1) 0.8887(1)
P3 P -0.2970(2) 0.2828(1) 1.0296(1)
Cl1 Cl -0.6133(4) 0.0513(2) 0.8149(1)
Cl2 Cl -0.1832(4) -0.0415(2) 0.8869(1)
Cl3 Cl -0.1249(3) 0.2856(1) 1.1497(1)
Cl4 Cl -0.5596(3) 0.3587(2) 1.0596(1)
N1 N -0.1855(8) 0.1990(4) 0.8361(3)
N2 N -0.3664(7) 0.1486(4) 0.9880(3)
N3 N -0.1550(8) 0.3667(4) 0.9713(3)
O2 O 0.0700(10) 0.3850(5) 0.8450(4)
F2 F -0.2999(10) 0.3928(4) 0.8200(3)
P1 P 0.2890(2) 0.3540(1) 0.3946(1)
S2 S 0.0582(3) 0.1294(1) 0.3891(1)
P4 P 0.3182(2) 0.2303(1) 0.5444(1)
Cl5 Cl 0.5369(3) 0.3893(2) 0.3225(1)
Cl6 Cl 0.1341(3) 0.4971(2) 0.3836(1)
F1 F -0.1807(8) 0.1289(6) 0.3914(4)
O1 O 0.0833(12) 0.0236(4) 0.3360(3)
Cl7 Cl 0.1986(3) 0.2746(1) 0.6591(1)
Cl8 Cl 0.5871(3) 0.1621(2) 0.5873(1)
N4 N 0.1301(10) 0.2413(4) 0.3442(3)
N5 N 0.3760(7) 0.3464(4) 0.4960(3)
N6 N 0.1538(10) 0.1258(4) 0.4865(3)
loop_
_geom_bond_atom_site_label_1
_geom_bond_atom_site_label_2
_geom_bond_site_symmetry_1
_geom_bond_site_symmetry_2
S1 N1 1_555 1_555
P1 Cl5 1_555 1_555
P2 Cl1 1_555 1_555
P3 Cl3 1_555 1_555
S2 F1 1_555 1_555
P4 Cl7 1_555 1_555
Cl2 P2 1_555 1_555
Cl4 P3 1_555 1_555
Cl6 P1 1_555 1_555
O1 S2 1_555 1_555
Cl8 P4 1_555 1_555
N1 P2 1_555 1_555
N2 P2 1_555 1_555
N3 S1 1_555 1_555
N4 P1 1_555 1_555
N5 P1 1_555 1_555
N6 S2 1_555 1_555
O2 S1 1_555 1_555
F2 S1 1_555 1_555
P3 N2 1_555 1_555
P3 N3 1_555 1_555
S2 N4 1_555 1_555
P4 N6 1_555 1_555
P4 N5 1_555 1_555

#END
