
#######################################################################
#
#                 Cambridge Crystallographic Data Centre
#                                CCDC 
#
#######################################################################
#
# If this CIF has been generated from an entry in the Cambridge 
# Structural Database, then it will include bibliographic, chemical, 
# crystal, experimental, refinement or atomic coordinate data resulting 
# from the CCDC's data processing and validation procedures.
#
#######################################################################

data_QOBKOI01
_chemical_formula_moiety         'C10 H7 Cl2 N1'
_chemical_name_systematic        2,4-Dichloro-6-methylquinoline
_symmetry_cell_setting           triclinic
_symmetry_space_group_name_H-M   'P -1'
_symmetry_Int_Tables_number      2
_space_group_name_Hall           '-P 1'
loop_
_symmetry_equiv_pos_site_id
_symmetry_equiv_pos_as_xyz
1 x,y,z
2 -x,-y,-z
_cell_length_a                   7.1525(2)
_cell_length_b                   11.5551(3)
_cell_length_c                   11.9852(3)
_cell_angle_alpha                90.168(2)
_cell_angle_beta                 106.152(3)
_cell_angle_gamma                91.090(2)
_cell_volume                     951.244
_exptl_crystal_colour            colorless
_exptl_crystal_description       block
_cell_formula_units_Z            4
loop_
_atom_site_label
_atom_site_type_symbol
_atom_site_fract_x
_atom_site_fract_y
_atom_site_fract_z
Cl1 Cl 0.23273(11) 0.81446(5) 0.49604(7)
Cl2 Cl 0.25028(12) 0.46017(6) 0.78381(5)
N2 N 0.2434(3) 0.60037(16) 0.43142(17)
C1 C 0.2519(3) 0.43340(18) 0.55823(18)
C2 C 0.2596(3) 0.24155(19) 0.47838(19)
C3 C 0.2492(3) 0.48367(18) 0.45010(18)
C5 C 0.2534(3) 0.4092(2) 0.35748(19)
H1 H 0.2534 0.4404 0.2860
C6 C 0.2574(3) 0.2921(2) 0.3711(2)
H2 H 0.2588 0.2447 0.3085
C7 C 0.2429(3) 0.6285(2) 0.6301(2)
H3 H 0.2413 0.6807 0.6891
C8 C 0.2568(3) 0.31221(19) 0.56888(19)
H4 H 0.2583 0.2794 0.6399
C9 C 0.2405(3) 0.66562(19) 0.5192(2)
C11 C 0.2476(3) 0.5122(2) 0.64797(19)
C18 C 0.2631(4) 0.11213(19) 0.4907(2)
H10 H 0.3171 0.0927 0.5709
H11 H 0.3415 0.0801 0.4455
H12 H 0.1328 0.0809 0.4636
Cl3 Cl 0.15618(12) 0.96633(7) -0.23772(5)
Cl4 Cl 0.34592(13) 1.31801(6) 0.06620(7)
N1 N 0.3232(3) 1.10501(17) 0.12939(16)
C4 C 0.2367(3) 0.93917(19) -0.00405(18)
C10 C 0.3133(4) 0.9146(2) 0.2042(2)
H5 H 0.3477 0.9452 0.2791
C12 C 0.2504(3) 1.1335(2) -0.0766(2)
H6 H 0.2385 1.1856 -0.1371
C13 C 0.1983(5) 0.6189(2) 0.0627(3)
H7 H 0.1389 0.6007 -0.0177
H8 H 0.1148 0.5923 0.1081
H9 H 0.3214 0.5814 0.0883
C14 C 0.2294(4) 0.7479(2) 0.0776(2)
C15 C 0.3027(4) 1.1703(2) 0.0394(2)
C16 C 0.2914(3) 0.9888(2) 0.10898(18)
C17 C 0.2179(3) 1.0185(2) -0.09647(18)
C19 C 0.2846(4) 0.7983(2) 0.1878(2)
H13 H 0.3024 0.7510 0.2523
C20 C 0.2061(3) 0.8191(2) -0.0168(2)
H14 H 0.1692 0.7867 -0.0911
loop_
_geom_bond_atom_site_label_1
_geom_bond_atom_site_label_2
_geom_bond_site_symmetry_1
_geom_bond_site_symmetry_2
Cl1 C9 1_555 1_555
Cl2 C11 1_555 1_555
Cl3 C17 1_555 1_555
Cl4 C15 1_555 1_555
N1 C15 1_555 1_555
N2 C3 1_555 1_555
C1 C3 1_555 1_555
C2 C6 1_555 1_555
C3 C5 1_555 1_555
C4 C16 1_555 1_555
C5 H1 1_555 1_555
C6 C5 1_555 1_555
H2 C6 1_555 1_555
C7 H3 1_555 1_555
C8 C1 1_555 1_555
H4 C8 1_555 1_555
C9 N2 1_555 1_555
C10 H5 1_555 1_555
C11 C1 1_555 1_555
C12 H6 1_555 1_555
C13 H7 1_555 1_555
H8 C13 1_555 1_555
H9 C13 1_555 1_555
C14 C13 1_555 1_555
C15 C12 1_555 1_555
C16 N1 1_555 1_555
C17 C4 1_555 1_555
C18 C2 1_555 1_555
H10 C18 1_555 1_555
H11 C18 1_555 1_555
H12 C18 1_555 1_555
C19 C10 1_555 1_555
H13 C19 1_555 1_555
C20 C4 1_555 1_555
H14 C20 1_555 1_555
C2 C8 1_555 1_555
C7 C9 1_555 1_555
C7 C11 1_555 1_555
C10 C16 1_555 1_555
C12 C17 1_555 1_555
C14 C19 1_555 1_555
C14 C20 1_555 1_555

#END
