
#######################################################################
#
#                 Cambridge Crystallographic Data Centre
#                                CCDC 
#
#######################################################################
#
# If this CIF has been generated from an entry in the Cambridge 
# Structural Database, then it will include bibliographic, chemical, 
# crystal, experimental, refinement or atomic coordinate data resulting 
# from the CCDC's data processing and validation procedures.
#
#######################################################################

data_QOBPOO
_chemical_formula_moiety         'C14 H13 Br1 O1'
_chemical_name_systematic        
4-Bromo-9-methyl-12-methylene-8-oxatricyclo[7.3.1.0^2,7^]trideca-2,4,6,10-tetraene
_symmetry_cell_setting           orthorhombic
_symmetry_space_group_name_H-M   'P 21 21 21'
_symmetry_Int_Tables_number      19
_space_group_name_Hall           'P 2ac 2ab'
loop_
_symmetry_equiv_pos_site_id
_symmetry_equiv_pos_as_xyz
1 x,y,z
2 1/2+x,1/2-y,-z
3 -x,1/2+y,1/2-z
4 1/2-x,-y,1/2+z
_cell_length_a                   5.8219(2)
_cell_length_b                   9.4750(2)
_cell_length_c                   20.7950(6)
_cell_angle_alpha                90
_cell_angle_beta                 90
_cell_angle_gamma                90
_cell_volume                     1147.1
_exptl_crystal_colour            colorless
_exptl_crystal_description       block
_cell_formula_units_Z            4
loop_
_atom_site_label
_atom_site_type_symbol
_atom_site_fract_x
_atom_site_fract_y
_atom_site_fract_z
Br1 Br 0.52583(4) 1.01882(3) 0.20434(2)
O1 O 0.0387(3) 0.47219(16) 0.14657(7)
C1 C 0.3667(4) 0.8501(3) 0.18238(11)
C2 C 0.1540(4) 0.8220(3) 0.20966(12)
H1 H 0.0838 0.8883 0.2377
C3 C 0.0457(4) 0.6954(2) 0.19531(10)
H2 H -0.1006 0.6750 0.2133
C4 C 0.1514(4) 0.5976(3) 0.15441(11)
C5 C 0.1374(4) 0.3707(3) 0.10069(11)
C6 C 0.0357(5) 0.2301(2) 0.11997(11)
H3 H 0.0831 0.2070 0.1640
H4 H 0.0903 0.1566 0.0905
H5 H -0.1323 0.2355 0.1179
C7 C 0.0637(4) 0.4131(3) 0.03371(11)
H6 H -0.0830 0.3842 0.0187
C8 C 0.1974(4) 0.4900(3) -0.00523(11)
H7 H 0.1443 0.5099 -0.0475
C9 C 0.4208(4) 0.5444(2) 0.01429(11)
C10 C 0.5587(5) 0.6152(3) -0.02550(12)
H8 H 0.5126 0.6320 -0.0686
H9 H 0.7031 0.6488 -0.0107
C11 C 0.4815(4) 0.5196(2) 0.08467(10)
H10 H 0.6517 0.5259 0.0905
C12 C 0.3973(4) 0.3738(3) 0.10602(11)
H11 H 0.4653 0.2998 0.0783
H12 H 0.4446 0.3555 0.1510
C13 C 0.3643(4) 0.6279(3) 0.12684(11)
C14 C 0.4697(4) 0.7554(2) 0.14102(10)
H13 H 0.6138 0.7778 0.1221
loop_
_geom_bond_atom_site_label_1
_geom_bond_atom_site_label_2
_geom_bond_site_symmetry_1
_geom_bond_site_symmetry_2
Br1 C1 1_555 1_555
O1 C4 1_555 1_555
C1 C2 1_555 1_555
C2 H1 1_555 1_555
C3 C2 1_555 1_555
H2 C3 1_555 1_555
C4 C3 1_555 1_555
C5 O1 1_555 1_555
C6 C5 1_555 1_555
H3 C6 1_555 1_555
H4 C6 1_555 1_555
H5 C6 1_555 1_555
C7 C5 1_555 1_555
H6 C7 1_555 1_555
C8 C7 1_555 1_555
H7 C8 1_555 1_555
C9 C8 1_555 1_555
C10 C9 1_555 1_555
H8 C10 1_555 1_555
H9 C10 1_555 1_555
C11 C9 1_555 1_555
H10 C11 1_555 1_555
C12 C5 1_555 1_555
H11 C12 1_555 1_555
H12 C12 1_555 1_555
C13 C4 1_555 1_555
C14 C1 1_555 1_555
H13 C14 1_555 1_555
C11 C12 1_555 1_555
C11 C13 1_555 1_555
C13 C14 1_555 1_555

#END
