
#######################################################################
#
#                 Cambridge Crystallographic Data Centre
#                                CCDC 
#
#######################################################################
#
# If this CIF has been generated from an entry in the Cambridge 
# Structural Database, then it will include bibliographic, chemical, 
# crystal, experimental, refinement or atomic coordinate data resulting 
# from the CCDC's data processing and validation procedures.
#
#######################################################################

data_QOBRIJ
_chemical_formula_moiety         'C19 H20 F3 N1 O7 S1'
_chemical_name_systematic        
'4-(2-(Methoxycarbonyl)-1-(4-methoxyphenylamino)ethyl)-2-methoxyphenyl trifluoromethanesulfonate'
_symmetry_cell_setting           triclinic
_symmetry_space_group_name_H-M   'P -1'
_symmetry_Int_Tables_number      2
_space_group_name_Hall           '-P 1'
loop_
_symmetry_equiv_pos_site_id
_symmetry_equiv_pos_as_xyz
1 x,y,z
2 -x,-y,-z
_cell_length_a                   6.0822(10)
_cell_length_b                   11.4054(18)
_cell_length_c                   16.008(3)
_cell_angle_alpha                69.877(3)
_cell_angle_beta                 85.336(3)
_cell_angle_gamma                89.285(3)
_cell_volume                     1039.09
_cell_formula_units_Z            2
loop_
_atom_site_label
_atom_site_type_symbol
_atom_site_fract_x
_atom_site_fract_y
_atom_site_fract_z
S1 S 0.6343(1) -0.2241(1) 0.4372(1)
O1 O 0.4756(4) -0.1131(2) 0.4282(1)
O2 O 0.8255(4) -0.1891(2) 0.3784(2)
O3 O 0.6413(5) -0.2889(2) 0.5287(2)
O4 O 0.7902(4) 0.0573(2) 0.4105(1)
O5 O 0.0796(3) 0.4067(2) 0.1909(2)
O6 O 0.2297(4) 0.5203(2) 0.2592(2)
O7 O 0.9341(5) 0.0922(4) -0.1499(2)
N1 N 0.7089(4) 0.3664(2) 0.0752(2)
F1 F 0.4324(5) -0.2618(2) 0.3124(2)
F2 F 0.5695(4) -0.4238(2) 0.4016(2)
F3 F 0.2779(4) -0.3495(2) 0.4431(2)
C1 C 0.5051(4) 0.3428(3) 0.1322(2)
C2 C 0.4988(4) 0.2193(2) 0.2103(2)
C3 C 0.3413(5) 0.1287(3) 0.2198(2)
C4 C 0.3374(5) 0.0171(3) 0.2907(2)
C5 C 0.4900(5) -0.0027(2) 0.3515(2)
C6 C 0.6509(4) 0.0867(2) 0.3451(2)
C7 C 0.6528(4) 0.1973(2) 0.2732(2)
C8 C 0.4672(7) -0.3202(3) 0.3953(3)
C9 C 0.9344(6) 0.1524(3) 0.4132(2)
C10 C 0.4662(5) 0.4532(3) 0.1642(2)
C11 C 0.2384(5) 0.4553(2) 0.2060(2)
C12 C 0.0151(7) 0.5344(5) 0.3008(4)
C13 C 0.7659(5) 0.2935(3) 0.0223(2)
C14 C 0.6166(5) 0.2215(3) -0.0004(2)
C15 C 0.6766(6) 0.1579(4) -0.0578(3)
C16 C 0.8887(7) 0.1613(4) -0.0928(3)
C17 C 1.0381(6) 0.2303(5) -0.0709(3)
C18 C 0.9807(5) 0.2979(4) -0.0149(2)
C19 C 1.1368(8) 0.0536(5) -0.1594(3)
H1 H 0.3849 0.3404 0.0956
H2 H 0.2369 0.1428 0.1782
H3 H 0.2313 -0.0439 0.2968
H4 H 0.7594 0.2582 0.2669
H5 H 1.0323 0.1791 0.3597
H6 H 1.0189 0.1205 0.4641
H7 H 0.8497 0.2219 0.4174
H8 H 0.5713 0.4504 0.2073
H9 H 0.4935 0.5300 0.1138
H10 H -0.0915 0.5539 0.2572
H11 H 0.0221 0.6006 0.3247
H12 H -0.0275 0.4578 0.3481
H13 H 0.4711 0.2159 0.0237
H14 H 0.5707 0.1121 -0.0728
H15 H 1.1840 0.2328 -0.0940
H16 H 1.0868 0.3462 -0.0024
H17 H 1.2369 0.1240 -0.1796
H18 H 1.1443 0.0119 -0.2023
H19 H 1.1768 -0.0032 -0.1030
H20 H 0.8200(60) 0.3820(30) 0.1030(20)
loop_
_geom_bond_atom_site_label_1
_geom_bond_atom_site_label_2
_geom_bond_site_symmetry_1
_geom_bond_site_symmetry_2
S1 O1 1_555 1_555
O1 C5 1_555 1_555
O2 S1 1_555 1_555
O3 S1 1_555 1_555
O4 C6 1_555 1_555
O5 C11 1_555 1_555
O6 C11 1_555 1_555
O7 C16 1_555 1_555
N1 C1 1_555 1_555
F1 C8 1_555 1_555
F2 C8 1_555 1_555
F3 C8 1_555 1_555
C1 C2 1_555 1_555
C2 C3 1_555 1_555
C3 C4 1_555 1_555
C4 C5 1_555 1_555
C5 C6 1_555 1_555
C6 C7 1_555 1_555
C7 C2 1_555 1_555
C8 S1 1_555 1_555
C9 O4 1_555 1_555
C10 C1 1_555 1_555
C11 C10 1_555 1_555
C12 O6 1_555 1_555
C13 N1 1_555 1_555
C14 C13 1_555 1_555
C15 C14 1_555 1_555
C16 C15 1_555 1_555
C17 C16 1_555 1_555
C18 C13 1_555 1_555
C19 O7 1_555 1_555
H1 C1 1_555 1_555
H2 C3 1_555 1_555
H3 C4 1_555 1_555
H4 C7 1_555 1_555
H5 C9 1_555 1_555
H6 C9 1_555 1_555
H7 C9 1_555 1_555
H8 C10 1_555 1_555
H9 C10 1_555 1_555
H10 C12 1_555 1_555
H11 C12 1_555 1_555
H12 C12 1_555 1_555
H13 C14 1_555 1_555
H14 C15 1_555 1_555
H15 C17 1_555 1_555
H16 C18 1_555 1_555
H17 C19 1_555 1_555
H18 C19 1_555 1_555
H19 C19 1_555 1_555
H20 N1 1_555 1_555
C17 C18 1_555 1_555

#END
