
#######################################################################
#
#                 Cambridge Crystallographic Data Centre
#                                CCDC 
#
#######################################################################
#
# If this CIF has been generated from an entry in the Cambridge 
# Structural Database, then it will include bibliographic, chemical, 
# crystal, experimental, refinement or atomic coordinate data resulting 
# from the CCDC's data processing and validation procedures.
#
#######################################################################

data_QOBXEK
_chemical_formula_moiety         'C18 H27 O1 Te1 1+,Br1 1-'
_chemical_name_systematic        
'Benzyl(((1S,2R,4R)-2-hydroxy-7,7-dimethylbicyclo(2.2.1)heptan-1-yl)methyl)methyltelluronium bromide'
_symmetry_cell_setting           orthorhombic
_symmetry_space_group_name_H-M   'P 21 21 21'
_symmetry_Int_Tables_number      19
_space_group_name_Hall           'P 2ac 2ab'
loop_
_symmetry_equiv_pos_site_id
_symmetry_equiv_pos_as_xyz
1 x,y,z
2 1/2-x,-y,1/2+z
3 1/2+x,1/2-y,-z
4 -x,1/2+y,1/2-z
_cell_length_a                   13.460(3)
_cell_length_b                   21.058(3)
_cell_length_c                   6.749(3)
_cell_angle_alpha                90
_cell_angle_beta                 90
_cell_angle_gamma                90
_cell_volume                     1912.94
_exptl_crystal_colour            colorless
_exptl_crystal_description       prismatic
_chemical_melting_point          142-143deg.C
_cell_formula_units_Z            4
_exptl_crystal_recrystallization_method hexane/dichloromethane
loop_
_atom_site_label
_atom_site_type_symbol
_atom_site_fract_x
_atom_site_fract_y
_atom_site_fract_z
Te1 Te 0.33161(8) 0.10878(5) 0.5308(2)
O1 O 0.4618(7) 0.0074(5) 0.503(2)
C1 C 0.398(1) 0.1107(9) 0.243(2)
C2 C 0.249(1) 0.1957(7) 0.484(3)
C3 C 0.215(1) 0.0448(7) 0.465(3)
C4 C 0.500(1) 0.0797(8) 0.215(2)
C5 C 0.509(1) 0.0133(7) 0.322(3)
C6 C 0.594(1) 0.1175(9) 0.289(3)
C7 C 0.596(1) 0.1301(9) 0.513(3)
C8 C 0.522(1) 0.0701(9) -0.007(3)
C9 C 0.664(1) 0.0645(10) 0.219(3)
C10 C 0.323(1) 0.2494(7) 0.501(3)
C11 C 0.625(1) 0.0062(9) 0.329(4)
C12 C 0.364(2) 0.261(1) 0.677(4)
C13 C 0.637(1) 0.057(1) -0.005(4)
C14 C 0.467(3) 0.343(2) 0.551(10)
C15 C 0.607(2) 0.181(1) 0.178(4)
C16 C 0.351(2) 0.2848(10) 0.333(4)
C17 C 0.426(3) 0.333(1) 0.366(8)
C18 C 0.433(2) 0.311(1) 0.696(6)
H1 H 0.3529 0.0901 0.1556
H2 H 0.4040 0.1541 0.2065
H3 H 0.2199 0.1956 0.3554
H4 H 0.1988 0.2001 0.5809
H5 H 0.1760 0.0380 0.5801
H6 H 0.1744 0.0623 0.3631
H7 H 0.2421 0.0056 0.4212
H8 H 0.4841 -0.0184 0.2351
H9 H 0.6584 0.1484 0.5482
H10 H 0.5442 0.1584 0.5468
H11 H 0.5879 0.0911 0.5817
H12 H 0.4869 0.0348 -0.0590
H13 H 0.5068 0.1070 -0.0814
H14 H 0.7324 0.0728 0.2425
H15 H 0.6473 0.0059 0.4620
H16 H 0.6448 -0.0317 0.2645
H17 H 0.3474 0.2361 0.7897
H18 H 0.6517 0.0157 -0.0510
H19 H 0.6715 0.0875 -0.0830
H20 H 0.5195 0.3727 0.5713
H21 H 0.6693 0.1993 0.2136
H22 H 0.6058 0.1733 0.0396
H23 H 0.5550 0.2088 0.2136
H24 H 0.3226 0.2776 0.2066
H25 H 0.4472 0.3583 0.2578
H26 H 0.4565 0.3206 0.8255
Br1 Br 0.1622(2) 0.12279(7) 0.9476(3)
loop_
_geom_bond_atom_site_label_1
_geom_bond_atom_site_label_2
_geom_bond_site_symmetry_1
_geom_bond_site_symmetry_2
Te1 C1 1_555 1_555
O1 C5 1_555 1_555
C1 C4 1_555 1_555
C2 Te1 1_555 1_555
C3 Te1 1_555 1_555
C4 C5 1_555 1_555
C5 C11 1_555 1_555
C6 C4 1_555 1_555
C7 C6 1_555 1_555
C8 C4 1_555 1_555
C9 C6 1_555 1_555
C10 C2 1_555 1_555
C11 C9 1_555 1_555
C12 C10 1_555 1_555
C13 C8 1_555 1_555
C14 C17 1_555 1_555
C15 C6 1_555 1_555
C16 C10 1_555 1_555
C17 C16 1_555 1_555
C18 C12 1_555 1_555
H1 C1 1_555 1_555
H2 C1 1_555 1_555
H3 C2 1_555 1_555
H4 C2 1_555 1_555
H5 C3 1_555 1_555
H6 C3 1_555 1_555
H7 C3 1_555 1_555
H8 C5 1_555 1_555
H9 C7 1_555 1_555
H10 C7 1_555 1_555
H11 C7 1_555 1_555
H12 C8 1_555 1_555
H13 C8 1_555 1_555
H14 C9 1_555 1_555
H15 C11 1_555 1_555
H16 C11 1_555 1_555
H17 C12 1_555 1_555
H18 C13 1_555 1_555
H19 C13 1_555 1_555
H20 C14 1_555 1_555
H21 C15 1_555 1_555
H22 C15 1_555 1_555
H23 C15 1_555 1_555
H24 C16 1_555 1_555
H25 C17 1_555 1_555
H26 C18 1_555 1_555
C9 C13 1_555 1_555
C14 C18 1_555 1_555

#END
