
#######################################################################
#
#                 Cambridge Crystallographic Data Centre
#                                CCDC 
#
#######################################################################
#
# If this CIF has been generated from an entry in the Cambridge 
# Structural Database, then it will include bibliographic, chemical, 
# crystal, experimental, refinement or atomic coordinate data resulting 
# from the CCDC's data processing and validation procedures.
#
#######################################################################

data_QOCGIZ
_chemical_formula_moiety         'C29 H42 N2 O5 S1,0.14(C2 H3 N1)'
_chemical_name_systematic        
't-Butyl (4S,5R)-1-((4-(t-butyl)-3-methoxyphenyl)carbonyl)-4-(hydroxymethyl)-2-(isobutyl)-5-(1,3-thiazol-2-yl)-1-prolinate acetonitrile solvate'
_symmetry_cell_setting           tetragonal
_symmetry_space_group_name_H-M   'P 43 21 2'
_symmetry_Int_Tables_number      96
_space_group_name_Hall           'P 4nw 2abw'
loop_
_symmetry_equiv_pos_site_id
_symmetry_equiv_pos_as_xyz
1 x,y,z
2 -x,-y,1/2+z
3 1/2-y,1/2+x,3/4+z
4 1/2+y,1/2-x,1/4+z
5 1/2-x,1/2+y,3/4-z
6 1/2+x,1/2-y,1/4-z
7 y,x,-z
8 -y,-x,1/2-z
_cell_length_a                   14.5527(12)
_cell_length_b                   14.5527(12)
_cell_length_c                   29.858(3)
_cell_angle_alpha                90
_cell_angle_beta                 90
_cell_angle_gamma                90
_cell_volume                     6323.36
_exptl_crystal_colour            colorless
_exptl_crystal_description       'irregular block'
_cell_formula_units_Z            8
loop_
_atom_site_label
_atom_site_type_symbol
_atom_site_fract_x
_atom_site_fract_y
_atom_site_fract_z
N1 N 0.03813(11) 0.68470(11) 0.06714(5)
C1 C -0.01940(14) 0.62684(15) 0.03712(6)
H1 H 0.0211 0.5800 0.0226
C2 C -0.05049(15) 0.69637(14) 0.00100(7)
H2 H -0.0018 0.6995 -0.0226
C3 C -0.05121(14) 0.78769(14) 0.02643(6)
H3 H -0.1066 0.7930 0.0455
H4 H -0.0493 0.8403 0.0055
C4 C 0.03635(14) 0.78387(14) 0.05515(6)
C5 C 0.09284(14) 0.65335(14) 0.10032(7)
O1 O 0.14170(10) 0.70741(10) 0.12175(5)
C6 C 0.09017(14) 0.55273(15) 0.11099(7)
C7 C 0.03961(14) 0.52356(14) 0.14784(7)
H5 H 0.0059 0.5672 0.1649
C8 C 0.03767(15) 0.43120(14) 0.16012(7)
C9 C 0.08635(17) 0.36454(16) 0.13585(7)
C10 C 0.13631(18) 0.39619(17) 0.09928(8)
H6 H 0.1703 0.3530 0.0821
C11 C 0.13880(16) 0.48840(17) 0.08662(8)
H7 H 0.1738 0.5069 0.0613
O2 O -0.00955(11) 0.40189(10) 0.19728(5)
C12 C -0.08593(17) 0.45668(18) 0.21215(8)
H8 H -0.0630 0.5127 0.2266
H9 H -0.1226 0.4214 0.2337
H10 H -0.1242 0.4733 0.1864
C13 C 0.0800(2) 0.26136(16) 0.14723(9)
C14 C -0.0218(2) 0.23073(19) 0.14482(11)
H11 H -0.0464 0.2444 0.1150
H12 H -0.0575 0.2639 0.1675
H13 H -0.0259 0.1645 0.1504
C15 C 0.1187(2) 0.24300(18) 0.19449(8)
H14 H 0.1142 0.1773 0.2013
H15 H 0.0833 0.2780 0.2166
H16 H 0.1833 0.2620 0.1956
C16 C 0.1350(3) 0.20174(19) 0.11427(9)
H17 H 0.1118 0.2114 0.0838
H18 H 0.1284 0.1368 0.1224
H19 H 0.2001 0.2190 0.1156
C17 C -0.09745(14) 0.57771(15) 0.05986(7)
S1 S -0.16972(4) 0.62809(4) 0.099099(19)
C18 C -0.23421(16) 0.52977(17) 0.09977(8)
H20 H -0.2877 0.5206 0.1175
C19 C -0.19821(18) 0.46769(19) 0.07167(9)
H21 H -0.2248 0.4086 0.0678
N2 N -0.12032(14) 0.49432(13) 0.04867(7)
C20 C -0.14147(15) 0.67578(16) -0.02165(7)
H22 H -0.1408 0.6130 -0.0344
H23 H -0.1923 0.6799 0.0003
O3 O -0.15400(13) 0.74177(11) -0.05635(6)
H24 H -0.1704(18) 0.7169(18) -0.0790(9)
C21 C 0.12431(15) 0.81097(16) 0.02970(7)
H25 H 0.1400 0.7606 0.0087
H26 H 0.1751 0.8159 0.0516
C22 C 0.11962(18) 0.90164(18) 0.00283(8)
H27 H 0.0701 0.9404 0.0163
C23 C 0.2094(2) 0.9539(2) 0.00693(11)
H28 H 0.2218 0.9668 0.0386
H29 H 0.2048 1.0119 -0.0096
H30 H 0.2594 0.9168 -0.0055
C24 C 0.0957(2) 0.8867(2) -0.04665(8)
H31 H 0.0895 0.9464 -0.0616
H32 H 0.0376 0.8530 -0.0489
H33 H 0.1447 0.8513 -0.0611
C25 C 0.02534(14) 0.84409(14) 0.09737(7)
O4 O 0.06433(10) 0.91668(11) 0.10202(5)
O5 O -0.03599(9) 0.80802(9) 0.12575(4)
C26 C -0.06038(15) 0.85647(16) 0.16807(7)
C27 C -0.1067(2) 0.94646(19) 0.15661(9)
H34 H -0.0620 0.9881 0.1428
H35 H -0.1311 0.9745 0.1840
H36 H -0.1572 0.9351 0.1356
C28 C 0.02483(19) 0.8681(2) 0.19696(8)
H37 H 0.0602 0.8108 0.1970
H38 H 0.0065 0.8832 0.2277
H39 H 0.0628 0.9179 0.1849
C29 C -0.1275(2) 0.7902(2) 0.18932(8)
H40 H -0.1808 0.7825 0.1697
H41 H -0.1476 0.8146 0.2183
H42 H -0.0974 0.7306 0.1938
N3 N 0.2378(11) 0.2378(11) 0.0000
C30 C 0.2925(10) 0.2925(10) 0.0000
C31 C 0.3631(13) 0.3631(13) 0.0000
loop_
_geom_bond_atom_site_label_1
_geom_bond_atom_site_label_2
_geom_bond_site_symmetry_1
_geom_bond_site_symmetry_2
N1 C1 1_555 1_555
C1 H1 1_555 1_555
C2 C1 1_555 1_555
H2 C2 1_555 1_555
C3 C2 1_555 1_555
H3 C3 1_555 1_555
H4 C3 1_555 1_555
C4 N1 1_555 1_555
C5 N1 1_555 1_555
O1 C5 1_555 1_555
C6 C5 1_555 1_555
C7 C6 1_555 1_555
H5 C7 1_555 1_555
C8 C7 1_555 1_555
C9 C8 1_555 1_555
C10 C9 1_555 1_555
H6 C10 1_555 1_555
C11 C6 1_555 1_555
H7 C11 1_555 1_555
O2 C8 1_555 1_555
C12 O2 1_555 1_555
H8 C12 1_555 1_555
H9 C12 1_555 1_555
H10 C12 1_555 1_555
C13 C9 1_555 1_555
C14 C13 1_555 1_555
H11 C14 1_555 1_555
H12 C14 1_555 1_555
H13 C14 1_555 1_555
C15 C13 1_555 1_555
H14 C15 1_555 1_555
H15 C15 1_555 1_555
H16 C15 1_555 1_555
C16 C13 1_555 1_555
H17 C16 1_555 1_555
H18 C16 1_555 1_555
H19 C16 1_555 1_555
C17 C1 1_555 1_555
S1 C17 1_555 1_555
C18 S1 1_555 1_555
H20 C18 1_555 1_555
C19 C18 1_555 1_555
H21 C19 1_555 1_555
N2 C17 1_555 1_555
C20 C2 1_555 1_555
H22 C20 1_555 1_555
H23 C20 1_555 1_555
O3 C20 1_555 1_555
H24 O3 1_555 1_555
C21 C4 1_555 1_555
H25 C21 1_555 1_555
H26 C21 1_555 1_555
C22 C21 1_555 1_555
H27 C22 1_555 1_555
C23 C22 1_555 1_555
H28 C23 1_555 1_555
H29 C23 1_555 1_555
H30 C23 1_555 1_555
C24 C22 1_555 1_555
H31 C24 1_555 1_555
H32 C24 1_555 1_555
H33 C24 1_555 1_555
C25 C4 1_555 1_555
O4 C25 1_555 1_555
O5 C25 1_555 1_555
C26 O5 1_555 1_555
C27 C26 1_555 1_555
H34 C27 1_555 1_555
H35 C27 1_555 1_555
H36 C27 1_555 1_555
C28 C26 1_555 1_555
H37 C28 1_555 1_555
H38 C28 1_555 1_555
H39 C28 1_555 1_555
C29 C26 1_555 1_555
H40 C29 1_555 1_555
H41 C29 1_555 1_555
H42 C29 1_555 1_555
N3 C30 1_555 1_555
C30 C31 1_555 1_555
C3 C4 1_555 1_555
C10 C11 1_555 1_555
C19 N2 1_555 1_555

#END
