
#######################################################################
#
#                 Cambridge Crystallographic Data Centre
#                                CCDC 
#
#######################################################################
#
# If this CIF has been generated from an entry in the Cambridge 
# Structural Database, then it will include bibliographic, chemical, 
# crystal, experimental, refinement or atomic coordinate data resulting 
# from the CCDC's data processing and validation procedures.
#
#######################################################################

data_QOCJOJ
_chemical_formula_moiety         'C25 H22 Br1 N3 O1'
_chemical_name_systematic        
((4aS,9aS)-3-(4-Bromophenyl)-4a,9-dimethyl-4,4a,9,9a-tetrahydro-1H-pyridazino[3,4-b]indol-1-yl)(phenyl)methanone
_symmetry_cell_setting           monoclinic
_symmetry_space_group_name_H-M   'C 2'
_symmetry_Int_Tables_number      5
_space_group_name_Hall           'C 2y'
loop_
_symmetry_equiv_pos_site_id
_symmetry_equiv_pos_as_xyz
1 x,y,z
2 -x,y,-z
3 1/2+x,1/2+y,z
4 1/2-x,1/2+y,-z
_cell_length_a                   16.817(2)
_cell_length_b                   8.0286(10)
_cell_length_c                   15.851(2)
_cell_angle_alpha                90
_cell_angle_beta                 93.597(2)
_cell_angle_gamma                90
_cell_volume                     2135.94
_exptl_crystal_description       block
_cell_formula_units_Z            4
loop_
_atom_site_label
_atom_site_type_symbol
_atom_site_fract_x
_atom_site_fract_y
_atom_site_fract_z
Br1 Br 0.281918(18) 0.33399(6) 0.288374(15)
C1 C 0.31210(15) 0.3327(6) 0.40557(14)
C2 C 0.2711(2) 0.2377(4) 0.45914(19)
H1 H 0.2288 0.1720 0.4381
C3 C 0.2925(2) 0.2388(4) 0.54513(19)
H2 H 0.2643 0.1738 0.5815
C4 C 0.35585(14) 0.3364(5) 0.57756(14)
C5 C 0.39683(18) 0.4302(4) 0.52122(18)
H3 H 0.4393 0.4961 0.5415
C6 C 0.37592(19) 0.4281(5) 0.43556(18)
H4 H 0.4046 0.4905 0.3985
C7 C 0.37860(14) 0.3413(5) 0.66945(14)
C8 C 0.33330(18) 0.2408(4) 0.72920(17)
H5 H 0.3474 0.1244 0.7231
H6 H 0.2768 0.2517 0.7136
C9 C 0.34832(17) 0.2907(3) 0.82311(17)
C10 C 0.43636(14) 0.3332(5) 0.83864(14)
H7 H 0.4447 0.3860 0.8942
C11 C 0.2952(2) 0.4325(4) 0.8479(2)
H8 H 0.2404 0.4019 0.8365
H9 H 0.3068 0.5300 0.8158
H10 H 0.3048 0.4556 0.9071
C12 C 0.34440(19) 0.1312(4) 0.87333(16)
C13 C 0.2811(2) 0.0449(4) 0.90311(18)
H11 H 0.2301 0.0900 0.8988
C14 C 0.2947(3) -0.1100(4) 0.9396(2)
H12 H 0.2527 -0.1698 0.9601
C15 C 0.3710(3) -0.1759(7) 0.94545(19)
H13 H 0.3794 -0.2792 0.9710
C16 C 0.4349(2) -0.0931(4) 0.91455(19)
H14 H 0.4855 -0.1404 0.9174
C17 C 0.4212(2) 0.0639(4) 0.87886(17)
C18 C 0.5588(2) 0.1608(6) 0.8704(3)
H15 H 0.5645 0.1901 0.9292
H16 H 0.5887 0.2375 0.8383
H17 H 0.5785 0.0499 0.8628
C19 C 0.51713(18) 0.5722(4) 0.79661(19)
C20 C 0.52445(18) 0.7101(4) 0.73351(19)
C21 C 0.4595(2) 0.7838(4) 0.6904(2)
H18 H 0.4084 0.7449 0.6979
C22 C 0.4709(2) 0.9146(5) 0.6366(3)
H19 H 0.4272 0.9651 0.6082
C23 C 0.5466(3) 0.9713(5) 0.6246(3)
H20 H 0.5542 1.0566 0.5863
C24 C 0.6101(2) 0.9027(5) 0.6687(3)
H21 H 0.6610 0.9439 0.6619
C25 C 0.5997(2) 0.7724(4) 0.7234(2)
H22 H 0.6435 0.7263 0.7537
N1 N 0.43851(14) 0.4342(3) 0.69072(14)
N2 N 0.46428(15) 0.4452(3) 0.77480(14)
N3 N 0.47521(16) 0.1685(3) 0.84127(16)
O1 O 0.55376(15) 0.5744(3) 0.86461(15)
loop_
_geom_bond_atom_site_label_1
_geom_bond_atom_site_label_2
_geom_bond_site_symmetry_1
_geom_bond_site_symmetry_2
Br1 C1 1_555 1_555
C1 C2 1_555 1_555
C2 H1 1_555 1_555
C3 C2 1_555 1_555
H2 C3 1_555 1_555
C4 C3 1_555 1_555
C5 C4 1_555 1_555
H3 C5 1_555 1_555
C6 C1 1_555 1_555
H4 C6 1_555 1_555
C7 C4 1_555 1_555
C8 C7 1_555 1_555
H5 C8 1_555 1_555
H6 C8 1_555 1_555
C9 C8 1_555 1_555
C10 C9 1_555 1_555
H7 C10 1_555 1_555
C11 C9 1_555 1_555
H8 C11 1_555 1_555
H9 C11 1_555 1_555
H10 C11 1_555 1_555
C12 C9 1_555 1_555
C13 C12 1_555 1_555
H11 C13 1_555 1_555
C14 C13 1_555 1_555
H12 C14 1_555 1_555
C15 C14 1_555 1_555
H13 C15 1_555 1_555
C16 C15 1_555 1_555
H14 C16 1_555 1_555
C17 C12 1_555 1_555
C18 H15 1_555 1_555
H16 C18 1_555 1_555
H17 C18 1_555 1_555
C19 C20 1_555 1_555
C20 C21 1_555 1_555
C21 H18 1_555 1_555
C22 C21 1_555 1_555
H19 C22 1_555 1_555
C23 C22 1_555 1_555
H20 C23 1_555 1_555
C24 C23 1_555 1_555
H21 C24 1_555 1_555
C25 C20 1_555 1_555
H22 C25 1_555 1_555
N1 C7 1_555 1_555
N2 C10 1_555 1_555
N3 C10 1_555 1_555
O1 C19 1_555 1_555
C5 C6 1_555 1_555
C16 C17 1_555 1_555
C17 N3 1_555 1_555
C18 N3 1_555 1_555
C19 N2 1_555 1_555
C24 C25 1_555 1_555
N1 N2 1_555 1_555

#END
