
#######################################################################
#
#                 Cambridge Crystallographic Data Centre
#                                CCDC 
#
#######################################################################
#
# If this CIF has been generated from an entry in the Cambridge 
# Structural Database, then it will include bibliographic, chemical, 
# crystal, experimental, refinement or atomic coordinate data resulting 
# from the CCDC's data processing and validation procedures.
#
#######################################################################

data_QOCKAW
_chemical_formula_moiety         'C25 H22 Cl1 N3 O1'
_chemical_name_systematic        
((4S,4aS,9aS)-4-Chloro-4a,9-dimethyl-3-phenyl-4,4a,9,9a-tetrahydro-1H-pyridazino[3,4-b]indol-1-yl)(phenyl)methanone
_symmetry_cell_setting           rhombohedral
_symmetry_space_group_name_H-M   'R 3'
_symmetry_Int_Tables_number      146
_space_group_name_Hall           'R 3'
loop_
_symmetry_equiv_pos_site_id
_symmetry_equiv_pos_as_xyz
1 x,y,z
2 -y,x-y,z
3 -x+y,-x,z
4 2/3+x,1/3+y,1/3+z
5 2/3-y,1/3+x-y,1/3+z
6 2/3-x+y,1/3-x,1/3+z
7 1/3+x,2/3+y,2/3+z
8 1/3-y,2/3+x-y,2/3+z
9 1/3-x+y,2/3-x,2/3+z
_cell_length_a                   30.874(4)
_cell_length_b                   30.874(4)
_cell_length_c                   6.4452(9)
_cell_angle_alpha                90
_cell_angle_beta                 90
_cell_angle_gamma                120
_cell_volume                     5320.5
_exptl_crystal_description       block
_cell_formula_units_Z            9
loop_
_atom_site_label
_atom_site_type_symbol
_atom_site_fract_x
_atom_site_fract_y
_atom_site_fract_z
C1 C 1.07476(13) 0.22946(11) 0.6832(5)
H1 H 1.0512 0.2259 0.5849
C2 C 1.12517(14) 0.26268(13) 0.6471(7)
H2 H 1.1350 0.2819 0.5268
C3 C 1.16017(14) 0.26718(15) 0.7874(9)
H3 H 1.1940 0.2887 0.7614
C4 C 1.14520(15) 0.23974(17) 0.9676(9)
H4 H 1.1691 0.2433 1.0645
C5 C 1.09564(13) 0.20728(14) 1.0063(8)
H5 H 1.0862 0.1889 1.1288
C6 C 1.05935(11) 0.20161(10) 0.8638(5)
C7 C 1.00575(10) 0.16620(10) 0.9040(4)
C8 C 0.99005(10) 0.12429(10) 1.0560(4)
H6 H 1.0176 0.1173 1.0708
C9 C 0.94428(10) 0.07692(10) 0.9743(4)
C10 C 0.90326(11) 0.08815(10) 0.9079(5)
H7 H 0.8819 0.0634 0.8043
C11 C 0.96235(14) 0.05800(13) 0.7935(5)
H8 H 0.9893 0.0532 0.8394
H9 H 0.9739 0.0821 0.6831
H10 H 0.9353 0.0268 0.7445
C12 C 0.91713(11) 0.03895(10) 1.1432(5)
C13 C 0.87626(11) 0.04294(11) 1.2071(5)
C14 C 0.84507(13) 0.01239(13) 1.3639(6)
H11 H 0.8181 0.0153 1.4103
C15 C 0.85555(16) -0.02289(13) 1.4495(6)
H12 H 0.8347 -0.0442 1.5525
C16 C 0.89579(16) -0.02700(12) 1.3860(6)
H13 H 0.9020 -0.0507 1.4462
C17 C 0.92728(13) 0.00436(11) 1.2314(5)
H14 H 0.9548 0.0020 1.1883
C18 C 0.82695(15) 0.08020(18) 1.0876(7)
H15 H 0.8035 0.0521 1.0066
H16 H 0.8321 0.1106 1.0245
H17 H 0.8140 0.0776 1.2254
C19 C 0.89303(11) 0.14682(12) 0.6830(5)
C20 C 0.90922(11) 0.19980(12) 0.6298(5)
C21 C 0.89936(14) 0.21029(16) 0.4330(6)
H18 H 0.8874 0.1858 0.3306
C22 C 0.90750(17) 0.25781(19) 0.3900(7)
H19 H 0.9014 0.2652 0.2570
C23 C 0.92412(16) 0.29365(17) 0.5385(8)
H20 H 0.9290 0.3252 0.5075
C24 C 0.93377(15) 0.28321(14) 0.7363(7)
H21 H 0.9446 0.3075 0.8393
C25 C 0.92724(12) 0.23644(12) 0.7805(5)
H22 H 0.9350 0.2297 0.9117
Cl1 Cl 0.98077(3) 0.14614(3) 1.30403(12)
N1 N 0.92342(9) 0.13852(9) 0.8188(4)
N2 N 0.97384(9) 0.17265(9) 0.8000(4)
N3 N 0.87396(9) 0.08066(10) 1.0973(4)
O1 O 0.85334(10) 0.11228(9) 0.6251(4)
loop_
_geom_bond_atom_site_label_1
_geom_bond_atom_site_label_2
_geom_bond_site_symmetry_1
_geom_bond_site_symmetry_2
C1 H1 1_555 1_555
C2 C1 1_555 1_555
H2 C2 1_555 1_555
C3 C2 1_555 1_555
H3 C3 1_555 1_555
C4 C3 1_555 1_555
H4 C4 1_555 1_555
C5 C4 1_555 1_555
H5 C5 1_555 1_555
C6 C1 1_555 1_555
C7 C6 1_555 1_555
C8 C7 1_555 1_555
H6 C8 1_555 1_555
C9 C8 1_555 1_555
C10 C9 1_555 1_555
H7 C10 1_555 1_555
C11 C9 1_555 1_555
H8 C11 1_555 1_555
H9 C11 1_555 1_555
H10 C11 1_555 1_555
C12 C9 1_555 1_555
C13 C12 1_555 1_555
C14 C13 1_555 1_555
H11 C14 1_555 1_555
C15 C14 1_555 1_555
H12 C15 1_555 1_555
C16 C15 1_555 1_555
H13 C16 1_555 1_555
C17 C12 1_555 1_555
H14 C17 1_555 1_555
C18 H15 1_555 1_555
H16 C18 1_555 1_555
H17 C18 1_555 1_555
C19 C20 1_555 1_555
C20 C21 1_555 1_555
C21 H18 1_555 1_555
C22 C21 1_555 1_555
H19 C22 1_555 1_555
C23 C22 1_555 1_555
H20 C23 1_555 1_555
C24 C23 1_555 1_555
H21 C24 1_555 1_555
C25 C20 1_555 1_555
H22 C25 1_555 1_555
Cl1 C8 1_555 1_555
N1 C10 1_555 1_555
N2 C7 1_555 1_555
N3 C10 1_555 1_555
O1 C19 1_555 1_555
C5 C6 1_555 1_555
C13 N3 1_555 1_555
C16 C17 1_555 1_555
C18 N3 1_555 1_555
C19 N1 1_555 1_555
C24 C25 1_555 1_555
N1 N2 1_555 1_555

#END
