
#######################################################################
#
#                 Cambridge Crystallographic Data Centre
#                                CCDC 
#
#######################################################################
#
# If this CIF has been generated from an entry in the Cambridge 
# Structural Database, then it will include bibliographic, chemical, 
# crystal, experimental, refinement or atomic coordinate data resulting 
# from the CCDC's data processing and validation procedures.
#
#######################################################################

data_QOCKIE
_chemical_formula_moiety         'C16 H32 Li1 O4 1+,C36 H24 B2 1-,0.5(C10 H8)'
_chemical_name_systematic        
"tetrakis(Tetrahydrofuran)-lithium 5,5'-biphenyl-2,2'-diylbis(5H-dibenzo[b,d]borole) radical anion naphthalene solvate"
_symmetry_cell_setting           monoclinic
_symmetry_space_group_name_H-M   'P 21/c'
_symmetry_Int_Tables_number      14
_space_group_name_Hall           '-P 2ybc'
loop_
_symmetry_equiv_pos_site_id
_symmetry_equiv_pos_as_xyz
1 x,y,z
2 -x,1/2+y,1/2-z
3 -x,-y,-z
4 x,1/2-y,1/2+z
_cell_length_a                   14.8072(6)
_cell_length_b                   10.7528(4)
_cell_length_c                   29.2917(13)
_cell_angle_alpha                90
_cell_angle_beta                 90.304(3)
_cell_angle_gamma                90
_cell_volume                     4663.73
_exptl_crystal_colour            black
_exptl_crystal_description       needle
_cell_formula_units_Z            4
loop_
_atom_site_label
_atom_site_type_symbol
_atom_site_fract_x
_atom_site_fract_y
_atom_site_fract_z
B1 B 0.70161(17) 0.8047(2) 0.68315(9)
B2 B 0.75446(18) 0.8399(2) 0.61188(9)
C1 C 0.59795(15) 0.8377(2) 0.67918(8)
C2 C 0.58334(16) 0.9547(2) 0.69953(8)
C3 C 0.49776(19) 1.0082(3) 0.70076(10)
H1 H 0.4892 1.0873 0.7145
C4 C 0.42578(19) 0.9453(3) 0.68191(11)
H2 H 0.3672 0.9811 0.6827
C5 C 0.43822(18) 0.8304(3) 0.66184(10)
H3 H 0.3880 0.7875 0.6490
C6 C 0.52378(16) 0.7769(2) 0.66022(9)
H4 H 0.5316 0.6982 0.6460
C7 C 0.74065(15) 0.9205(2) 0.71013(8)
C8 C 0.66831(17) 1.0039(2) 0.71887(8)
C9 C 0.6802(2) 1.1109(2) 0.74461(9)
H5 H 0.6309 1.1654 0.7500
C10 C 0.7645(2) 1.1372(3) 0.76233(9)
H6 H 0.7733 1.2099 0.7802
C11 C 0.8359(2) 1.0585(3) 0.75418(9)
H7 H 0.8937 1.0778 0.7665
C12 C 0.82473(17) 0.9504(2) 0.72810(8)
H8 H 0.8749 0.8974 0.7227
C13 C 0.73777(15) 0.6663(2) 0.68566(8)
C14 C 0.82406(16) 0.6272(2) 0.67111(8)
C15 C 0.84794(19) 0.5016(2) 0.67461(9)
H9 H 0.9058 0.4757 0.6644
C16 C 0.7895(2) 0.4145(3) 0.69249(10)
H10 H 0.8071 0.3296 0.6945
C17 C 0.7058(2) 0.4513(2) 0.70741(10)
H11 H 0.6655 0.3923 0.7202
C18 C 0.68045(17) 0.5746(2) 0.70370(9)
H12 H 0.6220 0.5983 0.7137
C19 C 0.85678(15) 0.8182(2) 0.62469(8)
C20 C 0.88835(16) 0.7177(2) 0.65132(8)
C21 C 0.98074(17) 0.7059(3) 0.66035(9)
H13 H 1.0014 0.6380 0.6783
C22 C 1.04249(18) 0.7902(3) 0.64394(11)
H14 H 1.1050 0.7804 0.6506
C23 C 1.01312(18) 0.8885(3) 0.61787(11)
H15 H 1.0553 0.9468 0.6062
C24 C 0.92231(17) 0.9025(3) 0.60859(9)
H16 H 0.9032 0.9714 0.5907
C25 C 0.68941(15) 0.7490(2) 0.58489(7)
C26 C 0.62225(15) 0.8215(2) 0.56304(7)
C27 C 0.55317(17) 0.7672(2) 0.53775(8)
H17 H 0.5084 0.8175 0.5235
C28 C 0.55011(18) 0.6393(2) 0.53354(9)
H18 H 0.5028 0.6014 0.5165
C29 C 0.61572(18) 0.5658(2) 0.55409(8)
H19 H 0.6134 0.4780 0.5508
C30 C 0.68445(17) 0.6195(2) 0.57935(8)
H20 H 0.7290 0.5681 0.5932
C31 C 0.71494(15) 0.9721(2) 0.59953(8)
C32 C 0.63821(15) 0.9550(2) 0.57135(7)
C33 C 0.59049(17) 1.0558(2) 0.55419(8)
H21 H 0.5386 1.0429 0.5356
C34 C 0.61898(18) 1.1754(2) 0.56432(9)
H22 H 0.5880 1.2448 0.5517
C35 C 0.69251(18) 1.1941(2) 0.59283(9)
H23 H 0.7108 1.2764 0.6003
C36 C 0.73971(16) 1.0934(2) 0.61063(8)
H24 H 0.7894 1.1075 0.6306
Li1 Li 0.7593(3) 0.7421(4) 0.38747(16)
O1 O 0.75031(18) 0.8562(2) 0.43685(8)
C37 C 0.6863(13) 0.9561(15) 0.4415(4)
H25 H 0.6479 0.9608 0.4138
H26 H 0.6468 0.9400 0.4680
C38 C 0.7319(14) 1.0688(12) 0.4477(6)
H27 H 0.6930 1.1334 0.4615
H28 H 0.7586 1.1003 0.4190
C39 C 0.8047(15) 1.0195(15) 0.4817(5)
H29 H 0.7863 1.0367 0.5135
H30 H 0.8633 1.0607 0.4761
C40 C 0.8137(3) 0.8652(5) 0.47317(16)
H31 H 0.8753 0.8404 0.4638
H32 H 0.7952 0.8165 0.5002
O2 O 0.78940(16) 0.5863(2) 0.41562(7)
C41 C 0.8189(3) 0.4787(3) 0.39159(13)
H33 H 0.8856 0.4738 0.3921
H34 H 0.7984 0.4825 0.3594
C42 C 0.7789(11) 0.3659(13) 0.4149(6)
H35 H 0.7450 0.3137 0.3928
H36 H 0.8267 0.3148 0.4294
C43 C 0.7168(3) 0.4201(4) 0.45011(19)
H37 H 0.6537 0.4219 0.4387
H38 H 0.7190 0.3708 0.4787
C44 C 0.7511(3) 0.5478(3) 0.45794(12)
H39 H 0.7012 0.6040 0.4668
H40 H 0.7974 0.5482 0.4824
O3 O 0.64714(13) 0.7321(2) 0.35599(7)
C45 C 0.63617(19) 0.6672(3) 0.31376(10)
H41 H 0.6922 0.6225 0.3054
H42 H 0.6197 0.7251 0.2888
C46 C 0.5604(12) 0.5773(15) 0.3233(6)
H43 H 0.5822 0.5035 0.3403
H44 H 0.5301 0.5501 0.2948
C47 C 0.4976(7) 0.6581(12) 0.3528(3)
H45 H 0.4586 0.7120 0.3336
H46 H 0.4591 0.6063 0.3728
C48 C 0.5628(2) 0.7326(4) 0.37987(12)
H47 H 0.5406 0.8189 0.3833
H48 H 0.5706 0.6960 0.4106
O4 O 0.85147(13) 0.7810(2) 0.34526(8)
C49 C 0.9336(7) 0.7126(12) 0.3376(5)
H49 H 0.9209 0.6354 0.3203
H50 H 0.9624 0.6900 0.3670
C50 C 0.9913(3) 0.7940(4) 0.31181(17)
H51 H 1.0267 0.7457 0.2893
H52 H 1.0339 0.8379 0.3324
C51 C 0.9315(2) 0.8848(3) 0.28802(11)
H53 H 0.9521 0.9711 0.2935
H54 H 0.9304 0.8691 0.2547
C52 C 0.8417(2) 0.8639(4) 0.30802(12)
H55 H 0.8160 0.9438 0.3186
H56 H 0.8004 0.8280 0.2848
C60 C 0.9854(5) 0.3352(8) 0.4893(3)
H81 H 0.9996 0.2701 0.4687
C61 C 0.9350(6) 0.3174(10) 0.5271(3)
H82 H 0.9175 0.2337 0.5326
C62 C 0.9074(5) 0.3958(10) 0.5562(3)
H83 H 0.8682 0.3748 0.5806
C63 C 0.9393(4) 0.5118(9) 0.5492(3)
H84 H 0.9242 0.5720 0.5717
C64 C 0.9866(4) 0.5495(6) 0.5165(2)
C60B C 1.0146(5) 0.6648(8) 0.5107(3)
H81B H 1.0004 0.7299 0.5313
C61B C 1.0650(6) 0.6826(10) 0.4729(3)
H82B H 1.0825 0.7663 0.4674
C62B C 1.0926(5) 0.6042(10) 0.4438(3)
H83B H 1.1318 0.6252 0.4194
C63B C 1.0607(4) 0.4882(9) 0.4508(3)
H84B H 1.0758 0.4280 0.4283
C64B C 1.0134(4) 0.4505(6) 0.4835(2)
C53? C 0.709(2) 0.972(2) 0.4393(8)
H57? H 0.6513 0.9669 0.4559
H58? H 0.6979 1.0061 0.4084
C54? C 0.7808(15) 1.0535(14) 0.4664(7)
H59? H 0.8109 1.1126 0.4455
H60? H 0.7506 1.1015 0.4908
C55? C 0.8513(17) 0.962(2) 0.4875(5)
H61? H 0.9126 0.9738 0.4748
H62? H 0.8535 0.9664 0.5213
H63? H 0.7835 0.8282 0.5000
H64? H 0.8634 0.8077 0.4651
H65? H 0.8786 0.4500 0.4026
H66? H 0.8215 0.4937 0.3583
C56? C 0.7453(14) 0.3876(18) 0.4035(7)
H67? H 0.6940 0.3950 0.3819
H68? H 0.7684 0.3012 0.4025
H69? H 0.7430 0.3615 0.4726
H70? H 0.6501 0.4177 0.4526
H71? H 0.6814 0.5997 0.3115
H72? H 0.6451 0.7249 0.2878
C57? C 0.5430(16) 0.614(2) 0.3122(9)
H73? H 0.5425 0.5293 0.2991
H74? H 0.5012 0.6679 0.2946
C58? C 0.5195(18) 0.6134(18) 0.3648(9)
H75? H 0.4535 0.6143 0.3699
H76? H 0.5464 0.5406 0.3806
C59? C 0.9480(6) 0.7639(17) 0.3540(5)
H77? H 0.9690 0.8200 0.3787
H78? H 0.9611 0.6769 0.3630
H79? H 0.9991 0.7183 0.2930
H80? H 1.0515 0.8311 0.3176
loop_
_geom_bond_atom_site_label_1
_geom_bond_atom_site_label_2
_geom_bond_site_symmetry_1
_geom_bond_site_symmetry_2
B1 C1 1_555 1_555
B2 C19 1_555 1_555
C1 C2 1_555 1_555
C2 C3 1_555 1_555
C3 H1 1_555 1_555
C4 C3 1_555 1_555
H2 C4 1_555 1_555
C5 C4 1_555 1_555
H3 C5 1_555 1_555
C6 C1 1_555 1_555
H4 C6 1_555 1_555
C7 B1 1_555 1_555
C8 C2 1_555 1_555
C9 C8 1_555 1_555
H5 C9 1_555 1_555
C10 C9 1_555 1_555
H6 C10 1_555 1_555
C11 C10 1_555 1_555
H7 C11 1_555 1_555
C12 C7 1_555 1_555
H8 C12 1_555 1_555
C13 B1 1_555 1_555
C14 C13 1_555 1_555
C15 C14 1_555 1_555
H9 C15 1_555 1_555
C16 C15 1_555 1_555
H10 C16 1_555 1_555
C17 C16 1_555 1_555
H11 C17 1_555 1_555
C18 C13 1_555 1_555
H12 C18 1_555 1_555
C19 C20 1_555 1_555
C20 C14 1_555 1_555
C21 C20 1_555 1_555
H13 C21 1_555 1_555
C22 C21 1_555 1_555
H14 C22 1_555 1_555
C23 C22 1_555 1_555
H15 C23 1_555 1_555
C24 C19 1_555 1_555
H16 C24 1_555 1_555
C25 B2 1_555 1_555
C26 C25 1_555 1_555
C27 C26 1_555 1_555
H17 C27 1_555 1_555
C28 C27 1_555 1_555
H18 C28 1_555 1_555
C29 C28 1_555 1_555
H19 C29 1_555 1_555
C30 C25 1_555 1_555
H20 C30 1_555 1_555
C31 B2 1_555 1_555
C32 C26 1_555 1_555
C33 C32 1_555 1_555
H21 C33 1_555 1_555
C34 C33 1_555 1_555
H22 C34 1_555 1_555
C35 C34 1_555 1_555
H23 C35 1_555 1_555
C36 C31 1_555 1_555
H24 C36 1_555 1_555
Li1 O1 1_555 1_555
O1 C37 1_555 1_555
C37 H25 1_555 1_555
H26 C37 1_555 1_555
C38 C37 1_555 1_555
H27 C38 1_555 1_555
H28 C38 1_555 1_555
C39 C38 1_555 1_555
H29 C39 1_555 1_555
H30 C39 1_555 1_555
C40 O1 1_555 1_555
H31 C40 1_555 1_555
H32 C40 1_555 1_555
O2 Li1 1_555 1_555
C41 O2 1_555 1_555
H33 C41 1_555 1_555
H34 C41 1_555 1_555
C42 C41 1_555 1_555
H35 C42 1_555 1_555
H36 C42 1_555 1_555
C43 C42 1_555 1_555
H37 C43 1_555 1_555
H38 C43 1_555 1_555
C44 O2 1_555 1_555
H39 C44 1_555 1_555
H40 C44 1_555 1_555
O3 Li1 1_555 1_555
C45 O3 1_555 1_555
H41 C45 1_555 1_555
H42 C45 1_555 1_555
C46 C45 1_555 1_555
H43 C46 1_555 1_555
H44 C46 1_555 1_555
C47 C46 1_555 1_555
H45 C47 1_555 1_555
H46 C47 1_555 1_555
C48 O3 1_555 1_555
H47 C48 1_555 1_555
H48 C48 1_555 1_555
O4 Li1 1_555 1_555
C49 O4 1_555 1_555
H49 C49 1_555 1_555
H50 C49 1_555 1_555
C50 C49 1_555 1_555
H51 C50 1_555 1_555
H52 C50 1_555 1_555
C51 C50 1_555 1_555
H53 C51 1_555 1_555
H54 C51 1_555 1_555
C52 O4 1_555 1_555
H55 C52 1_555 1_555
H56 C52 1_555 1_555
C60 H81 1_555 1_555
C61 C60 1_555 1_555
H82 C61 1_555 1_555
C62 C61 1_555 1_555
H83 C62 1_555 1_555
C63 C62 1_555 1_555
H84 C63 1_555 1_555
C64 C63 1_555 1_555
C60B C64 1_555 1_555
H81B C60B 1_555 1_555
C61B C60B 1_555 1_555
H82B C61B 1_555 1_555
C62B C61B 1_555 1_555
H83B C62B 1_555 1_555
C63B C62B 1_555 1_555
H84B C63B 1_555 1_555
C64B C60 1_555 1_555
C5 C6 1_555 1_555
C7 C8 1_555 1_555
C11 C12 1_555 1_555
C17 C18 1_555 1_555
C23 C24 1_555 1_555
C29 C30 1_555 1_555
C31 C32 1_555 1_555
C35 C36 1_555 1_555
C39 C40 1_555 1_555
C43 C44 1_555 1_555
C47 C48 1_555 1_555
C51 C52 1_555 1_555
C64 C64B 1_555 1_555
C63B C64B 1_555 1_555

#END
