
#######################################################################
#
#                 Cambridge Crystallographic Data Centre
#                                CCDC 
#
#######################################################################
#
# If this CIF has been generated from an entry in the Cambridge 
# Structural Database, then it will include bibliographic, chemical, 
# crystal, experimental, refinement or atomic coordinate data resulting 
# from the CCDC's data processing and validation procedures.
#
#######################################################################

data_QOCNIF
_chemical_formula_moiety         'C36 H40 N8 O8'
_chemical_name_systematic        
1,4,7,10-tetrakis(4-Nitrobenzyl)-1,4,7,10-tetra-azacyclododecane
_symmetry_cell_setting           monoclinic
_symmetry_space_group_name_H-M   'P 21/n'
_symmetry_Int_Tables_number      14
_space_group_name_Hall           '-P 2yn'
loop_
_symmetry_equiv_pos_site_id
_symmetry_equiv_pos_as_xyz
1 x,y,z
2 1/2-x,1/2+y,1/2-z
3 -x,-y,-z
4 1/2+x,1/2-y,1/2+z
_cell_length_a                   7.834(2)
_cell_length_b                   22.902(6)
_cell_length_c                   10.147(3)
_cell_angle_alpha                90
_cell_angle_beta                 106.53(2)
_cell_angle_gamma                90
_cell_volume                     1745.28
_exptl_crystal_colour            yellow
_chemical_melting_point          185deg.C
_cell_formula_units_Z            2
loop_
_atom_site_label
_atom_site_type_symbol
_atom_site_fract_x
_atom_site_fract_y
_atom_site_fract_z
O1 O 0.2318(7) 0.1239(2) 0.1562(5)
O2 O -0.0184(7) 0.1288(2) -0.0015(5)
O3 O 0.7925(5) 0.2010(1) 0.2492(4)
O4 O 1.0374(5) 0.2116(1) 0.4072(4)
N1 N 0.2730(5) 0.4289(1) 0.0468(4)
N2 N 0.6349(5) 0.4983(1) 0.2055(3)
N3 N 0.1118(8) 0.1513(2) 0.0778(6)
N4 N 0.9033(6) 0.2315(2) 0.3290(4)
C1 C 0.3116(6) 0.4884(2) 0.1004(5)
C2 C 0.4618(7) 0.4900(2) 0.2324(5)
C3 C 0.2030(6) 0.4269(2) -0.1025(5)
C4 C 0.6626(6) 0.5603(2) 0.1805(5)
C5 C 0.1474(6) 0.4005(2) 0.1092(5)
C6 C 0.7809(6) 0.4773(2) 0.3194(5)
C7 C 0.1384(6) 0.3354(2) 0.0927(5)
C8 C 0.2810(6) 0.3011(2) 0.1619(5)
C9 C 0.2749(7) 0.2416(2) 0.1571(6)
C10 C 0.1224(8) 0.2153(2) 0.0788(5)
C11 C -0.0214(7) 0.2472(3) 0.0080(6)
C12 C -0.0114(6) 0.3072(2) 0.0143(5)
C13 C 0.8115(6) 0.4124(2) 0.3197(4)
C14 C 0.7102(6) 0.3761(2) 0.2189(4)
C15 C 0.7381(6) 0.3177(2) 0.2222(4)
C16 C 0.8736(5) 0.2942(2) 0.3275(4)
C17 C 0.9798(6) 0.3292(2) 0.4272(5)
C18 C 0.9482(6) 0.3876(2) 0.4244(5)
H1 H 0.20944 0.50216 0.10428
H2 H 0.34813 0.51699 0.03210
H3 H 0.45157 0.52164 0.29583
H4 H 0.46646 0.45168 0.28496
H5 H 0.15820 0.38775 -0.13139
H6 H 0.10082 0.45314 -0.14016
H7 H 0.55843 0.57280 0.13942
H8 H 0.69586 0.58482 0.27268
H9 H 0.19115 0.41363 0.20966
H10 H 0.02204 0.41887 0.07188
H11 H 0.75382 0.49155 0.41216
H12 H 0.88029 0.50014 0.32270
H13 H 0.38164 0.31638 0.21618
H14 H 0.38641 0.21880 0.21169
H15 H -0.13839 0.23104 -0.04925
H16 H -0.10272 0.32912 -0.03511
H17 H 0.61219 0.39103 0.15704
H18 H 0.67054 0.28958 0.15575
H19 H 1.06493 0.31317 0.49915
H20 H 1.01640 0.41398 0.49009
C3B C 0.7970(6) 0.5731(2) 0.1025(5)
N1B N 0.7270(5) 0.5711(1) -0.0468(4)
C1B C 0.6884(6) 0.5116(2) -0.1004(5)
C2B C 0.5382(7) 0.5100(2) -0.2324(5)
N2B N 0.3651(5) 0.5017(1) -0.2055(3)
C4B C 0.3374(6) 0.4397(2) -0.1805(5)
H7B H 0.44157 0.42720 -0.13942
H8B H 0.30414 0.41518 -0.27268
C6B C 0.2191(6) 0.5227(2) -0.3194(5)
C13B C 0.1885(6) 0.5876(2) -0.3197(4)
C14B C 0.2898(6) 0.6239(2) -0.2189(4)
C15B C 0.2619(6) 0.6823(2) -0.2222(4)
C16B C 0.1264(5) 0.7058(2) -0.3275(4)
N4B N 0.0967(6) 0.7685(2) -0.3290(4)
O3B O 0.2075(5) 0.7990(1) -0.2492(4)
O4B O -0.0374(5) 0.7884(1) -0.4072(4)
C17B C 0.0202(6) 0.6708(2) -0.4272(5)
C18B C 0.0518(6) 0.6124(2) -0.4244(5)
H20B H -0.01640 0.58602 -0.49009
H19B H -0.06493 0.68683 -0.49915
H18B H 0.32946 0.71042 -0.15575
H17B H 0.38781 0.60897 -0.15704
H11B H 0.24618 0.50845 -0.41216
H12B H 0.11971 0.49986 -0.32270
H3B H 0.54843 0.47836 -0.29583
H4B H 0.53354 0.54832 -0.28496
H1B H 0.79056 0.49784 -0.10428
H2B H 0.65187 0.48301 -0.03210
C5B C 0.8526(6) 0.5995(2) -0.1092(5)
C7B C 0.8616(6) 0.6646(2) -0.0927(5)
C8B C 0.7190(6) 0.6989(2) -0.1619(5)
C9B C 0.7251(7) 0.7584(2) -0.1571(6)
C10B C 0.8776(8) 0.7847(2) -0.0788(5)
N3B N 0.8882(8) 0.8487(2) -0.0778(6)
O1B O 0.7682(7) 0.8761(2) -0.1562(5)
O2B O 1.0184(7) 0.8712(2) 0.0015(5)
C11B C 1.0214(7) 0.7528(3) -0.0080(6)
C12B C 1.0114(6) 0.6928(2) -0.0143(5)
H16B H 1.10272 0.67088 0.03511
H15B H 1.13839 0.76896 0.04925
H14B H 0.61359 0.78120 -0.21169
H13B H 0.61836 0.68362 -0.21618
H9B H 0.80885 0.58637 -0.20966
H10B H 0.97796 0.58113 -0.07188
H5B H 0.84180 0.61225 0.13139
H6B H 0.89918 0.54686 0.14016
loop_
_geom_bond_atom_site_label_1
_geom_bond_atom_site_label_2
_geom_bond_site_symmetry_1
_geom_bond_site_symmetry_2
O1 N3 1_555 1_555
O2 N3 1_555 1_555
O3 N4 1_555 1_555
O4 N4 1_555 1_555
N1 C1 1_555 1_555
N2 C2 1_555 1_555
N3 C10 1_555 1_555
N4 C16 1_555 1_555
C1 C2 1_555 1_555
C2 H3 1_555 1_555
C3 N1 1_555 1_555
C4 N2 1_555 1_555
C5 N1 1_555 1_555
C6 N2 1_555 1_555
C7 C5 1_555 1_555
C8 C7 1_555 1_555
C9 C8 1_555 1_555
C10 C9 1_555 1_555
C11 C10 1_555 1_555
C12 C7 1_555 1_555
C13 C6 1_555 1_555
C14 C13 1_555 1_555
C15 C14 1_555 1_555
C16 C15 1_555 1_555
C17 C16 1_555 1_555
C18 C13 1_555 1_555
H1 C1 1_555 1_555
H2 C1 1_555 1_555
H4 C2 1_555 1_555
H5 C3 1_555 1_555
H6 C3 1_555 1_555
H7 C4 1_555 1_555
H8 C4 1_555 1_555
H9 C5 1_555 1_555
H10 C5 1_555 1_555
H11 C6 1_555 1_555
H12 C6 1_555 1_555
H13 C8 1_555 1_555
H14 C9 1_555 1_555
H15 C11 1_555 1_555
H16 C12 1_555 1_555
H17 C14 1_555 1_555
H18 C15 1_555 1_555
H19 C17 1_555 1_555
H20 C18 1_555 1_555
C3B C4 1_555 1_555
N1B C3B 1_555 1_555
C1B N1B 1_555 1_555
C2B C1B 1_555 1_555
N2B C2B 1_555 1_555
C4B C3 1_555 1_555
H7B C4B 1_555 1_555
H8B C4B 1_555 1_555
C6B N2B 1_555 1_555
C13B C6B 1_555 1_555
C14B C13B 1_555 1_555
C15B C14B 1_555 1_555
C16B C15B 1_555 1_555
N4B C16B 1_555 1_555
O3B N4B 1_555 1_555
O4B N4B 1_555 1_555
C17B C16B 1_555 1_555
C18B C13B 1_555 1_555
H20B C18B 1_555 1_555
H19B C17B 1_555 1_555
H18B C15B 1_555 1_555
H17B C14B 1_555 1_555
H11B C6B 1_555 1_555
H12B C6B 1_555 1_555
H3B C2B 1_555 1_555
H4B C2B 1_555 1_555
H1B C1B 1_555 1_555
H2B C1B 1_555 1_555
C5B N1B 1_555 1_555
C7B C5B 1_555 1_555
C8B C7B 1_555 1_555
C9B C8B 1_555 1_555
C10B C9B 1_555 1_555
N3B C10B 1_555 1_555
O1B N3B 1_555 1_555
O2B N3B 1_555 1_555
C11B C10B 1_555 1_555
C12B C7B 1_555 1_555
H16B C12B 1_555 1_555
H15B C11B 1_555 1_555
H14B C9B 1_555 1_555
H13B C8B 1_555 1_555
H9B C5B 1_555 1_555
H10B C5B 1_555 1_555
H5B C3B 1_555 1_555
H6B C3B 1_555 1_555
C11 C12 1_555 1_555
C17 C18 1_555 1_555
N2B C4B 1_555 1_555
C17B C18B 1_555 1_555
C11B C12B 1_555 1_555

#END
