
#######################################################################
#
#                 Cambridge Crystallographic Data Centre
#                                CCDC 
#
#######################################################################
#
# If this CIF has been generated from an entry in the Cambridge 
# Structural Database, then it will include bibliographic, chemical, 
# crystal, experimental, refinement or atomic coordinate data resulting 
# from the CCDC's data processing and validation procedures.
#
#######################################################################

data_QOCROR
_chemical_formula_moiety         'C36 H30 N1 P2 1+,C72 F36 1-'
_chemical_name_systematic        
'bis(Triphenylphosphine)iminium dodecakis(trifluoromethyl)-S~6~-C60fullerene radical anion'
_symmetry_cell_setting           triclinic
_symmetry_space_group_name_H-M   'P -1'
_symmetry_Int_Tables_number      2
_space_group_name_Hall           '-P 1'
loop_
_symmetry_equiv_pos_site_id
_symmetry_equiv_pos_as_xyz
1 x,y,z
2 -x,-y,-z
_cell_length_a                   11.8097(5)
_cell_length_b                   14.5028(6)
_cell_length_c                   24.3936(10)
_cell_angle_alpha                79.243(3)
_cell_angle_beta                 77.960(4)
_cell_angle_gamma                80.462(4)
_cell_volume                     3979.18
_exptl_crystal_colour            black
_exptl_crystal_description       block
_cell_formula_units_Z            2
loop_
_atom_site_label
_atom_site_type_symbol
_atom_site_fract_x
_atom_site_fract_y
_atom_site_fract_z
C1 C 0.75958(17) 0.52818(16) 0.40196(9)
C2 C 0.72855(17) 0.61822(15) 0.41700(8)
C3 C 0.62798(18) 0.67880(16) 0.39938(9)
C4 C 0.5602(2) 0.64617(18) 0.36835(9)
C5 C 0.5918(2) 0.5538(2) 0.35244(9)
C6 C 0.6893(2) 0.49531(18) 0.36930(9)
C7 C 0.68676(19) 0.39720(18) 0.38811(11)
C8 C 0.77514(19) 0.35839(17) 0.42677(12)
C9 C 0.80113(17) 0.45101(15) 0.44133(10)
C10 C 0.80369(17) 0.46553(15) 0.49465(10)
C11 C 0.76759(16) 0.55743(15) 0.51106(9)
C12 C 0.73684(16) 0.63389(14) 0.47178(8)
C13 C 0.65127(17) 0.72082(14) 0.48764(9)
C14 C 0.57244(18) 0.73226(14) 0.44345(10)
C15 C 0.45256(19) 0.74627(15) 0.45682(11)
C16 C 0.3837(2) 0.71074(16) 0.42664(11)
C17 C 0.4349(2) 0.66657(19) 0.38098(11)
C18 C 0.3809(2) 0.5911(2) 0.36153(10)
C19 C 0.4872(2) 0.5145(2) 0.35411(9)
C20 C 0.4843(2) 0.42029(19) 0.37455(10)
C21 C 0.3739(2) 0.38054(17) 0.40701(11)
C22 C 0.41952(18) 0.30448(16) 0.45310(10)
C23 C 0.5359(3) 0.2961(3) 0.43919(16)
C24 C 0.6138(4) 0.2456(3) 0.48018(19)
C25 C 0.71795(19) 0.30038(17) 0.48085(13)
C26 C 0.7200(3) 0.3179(2) 0.52975(16)
C27 C 0.7893(3) 0.3868(3) 0.54289(17)
C28 C 0.7115(2) 0.44768(18) 0.59095(10)
C29 C 0.71308(18) 0.5433(2) 0.57064(10)
C30 C 0.5818(2) 0.36195(18) 0.39332(10)
C31 C 0.8814(3) 0.3085(3) 0.3894(2)
C32 C 0.7175(2) 0.80635(17) 0.47957(13)
C33 C 0.3358(3) 0.6372(3) 0.30616(13)
C34 C 0.3132(3) 0.3408(2) 0.36516(13)
C35 C 0.6562(2) 0.1423(2) 0.47130(13)
C36 C 0.9062(2) 0.3403(2) 0.55909(12)
F1 F 0.85246(16) 0.24109(14) 0.36696(9)
F2 F 0.9606(2) 0.26828(18) 0.42088(12)
F3 F 0.9329(3) 0.3677(2) 0.34625(13)
F4 F 0.7711(4) 0.8252(4) 0.4252(3)
F5 F 0.7989(3) 0.7887(2) 0.51476(17)
F6 F 0.6507(2) 0.88229(17) 0.49521(16)
F7 F 0.42886(14) 0.65431(14) 0.26407(6)
F8 F 0.2780(4) 0.5796(2) 0.28970(18)
F9 F 0.26502(17) 0.71897(14) 0.30921(8)
F10 F 0.37105(16) 0.25659(14) 0.35512(9)
F11 F 0.3138(3) 0.39434(18) 0.31526(11)
F12 F 0.2039(2) 0.3277(3) 0.38700(13)
F13 F 0.69373(14) 0.13576(10) 0.41497(7)
F14 F 0.57241(15) 0.08955(10) 0.48752(8)
F15 F 0.7435(2) 0.10460(14) 0.49839(12)
F16 F 0.89570(19) 0.26691(15) 0.60095(11)
F17 F 0.95937(15) 0.40208(13) 0.57573(9)
F18 F 0.97843(15) 0.30844(16) 0.51522(8)
C1A C 0.24042(17) 0.47182(16) 0.59804(9)
C2A C 0.27145(17) 0.38178(15) 0.58300(8)
C3A C 0.37202(18) 0.32120(16) 0.60062(9)
C4A C 0.4398(2) 0.35383(18) 0.63165(9)
C5A C 0.4082(2) 0.4462(2) 0.64756(9)
C6A C 0.3107(2) 0.50469(18) 0.63070(9)
C7A C 0.31324(19) 0.60280(18) 0.61189(11)
C8A C 0.22486(19) 0.64161(17) 0.57323(12)
C9A C 0.19887(17) 0.54899(15) 0.55867(10)
C10A C 0.19631(17) 0.53447(15) 0.50535(10)
C11A C 0.23241(16) 0.44257(15) 0.48894(9)
C12A C 0.26316(16) 0.36611(14) 0.52822(8)
C13A C 0.34873(17) 0.27918(14) 0.51236(9)
C14A C 0.42756(18) 0.26774(14) 0.55655(10)
C15A C 0.54744(19) 0.25373(15) 0.54318(11)
C16A C 0.6163(2) 0.28926(16) 0.57336(11)
C17A C 0.5651(2) 0.33343(19) 0.61902(11)
C18A C 0.6191(2) 0.4089(2) 0.63847(10)
C19A C 0.5128(2) 0.4855(2) 0.64589(9)
C20A C 0.5157(2) 0.57971(19) 0.62545(10)
C21A C 0.6261(2) 0.61946(17) 0.59299(11)
C22A C 0.58048(18) 0.69552(16) 0.54690(10)
C23A C 0.4641(3) 0.7039(3) 0.56081(16)
C24A C 0.3862(4) 0.7544(3) 0.51982(19)
C25A C 0.28205(19) 0.69962(17) 0.51915(13)
C26A C 0.2800(3) 0.6821(2) 0.47025(16)
C27A C 0.2107(3) 0.6132(3) 0.45711(17)
C28A C 0.2885(2) 0.55232(18) 0.40905(10)
C29A C 0.28692(18) 0.4567(2) 0.42936(10)
C30A C 0.4182(2) 0.63805(18) 0.60668(10)
C31A C 0.1186(3) 0.6915(3) 0.6106(2)
C32A C 0.2825(2) 0.19365(17) 0.52043(13)
C33A C 0.6642(3) 0.3628(3) 0.69384(13)
C34A C 0.6868(3) 0.6592(2) 0.63484(13)
C35A C 0.3438(2) 0.8577(2) 0.52870(13)
C36A C 0.0938(2) 0.6597(2) 0.44091(12)
F1A F 0.14754(16) 0.75891(14) 0.63304(9)
F2A F 0.0394(2) 0.73172(18) 0.57912(12)
F3A F 0.0671(3) 0.6323(2) 0.65375(13)
F4A F 0.2289(4) 0.1748(4) 0.5748(3)
F5A F 0.2011(3) 0.2113(2) 0.48524(17)
F6A F 0.3493(2) 0.11771(17) 0.50479(16)
F7A F 0.57114(14) 0.34569(14) 0.73593(6)
F8A F 0.7220(4) 0.4204(2) 0.71030(18)
F9A F 0.73498(17) 0.28103(14) 0.69079(8)
F10A F 0.62895(16) 0.74341(14) 0.64488(9)
F11A F 0.6862(3) 0.60566(18) 0.68474(11)
F12A F 0.7961(2) 0.6723(3) 0.61300(13)
F13A F 0.30627(14) 0.86424(10) 0.58503(7)
F14A F 0.42759(15) 0.91045(10) 0.51248(8)
F15A F 0.2565(2) 0.89540(14) 0.50161(12)
F16A F 0.10430(19) 0.73309(15) 0.39905(11)
F17A F 0.04063(15) 0.59792(13) 0.42427(9)
F18A F 0.02157(15) 0.69156(16) 0.48478(8)
F34 F 0.37517(14) 0.32541(11) 0.82265(6)
F35 F 0.33570(14) 0.21722(11) 0.89374(6)
F36 F 0.50926(14) 0.21569(11) 0.84524(7)
F37 F 0.72396(13) 0.25966(10) 0.82510(6)
F38 F 0.83781(13) 0.21510(11) 0.88480(7)
F39 F 0.86305(16) 0.33817(13) 0.82161(8)
F40 F 0.36735(14) 0.12313(10) 0.99377(7)
F41 F 0.43780(14) 0.09513(9) 1.06990(6)
F42 F 0.55293(14) 0.08997(9) 0.99017(8)
F43 F 1.0215(2) 0.3943(3) 0.9302(2)
F44 F 0.9619(4) 0.2586(4) 0.9487(3)
F45 F 0.9879(3) 0.3241(3) 1.01550(18)
F46 F 0.89056(15) 0.62902(14) 0.82353(6)
F47 F 0.98267(13) 0.56523(14) 0.88965(9)
F48 F 0.90461(14) 0.70836(11) 0.88697(8)
F49 F 0.53549(17) 0.79810(15) 0.79409(8)
F50 F 0.7099(2) 0.73444(12) 0.78360(8)
F51 F 0.6550(2) 0.84206(12) 0.83373(7)
C46 C 0.50522(18) 0.41820(14) 0.87011(8)
C47 C 0.42136(18) 0.50184(14) 0.86843(8)
C48 C 0.31579(17) 0.48122(14) 0.90776(9)
C49 C 0.33285(17) 0.38563(14) 0.93522(9)
C50 C 0.44618(17) 0.33361(14) 0.90519(8)
C51 C 0.51936(18) 0.28225(14) 0.94868(9)
C52 C 0.63134(17) 0.29595(13) 0.94614(8)
C53 C 0.70292(17) 0.35361(14) 0.89725(8)
C54 C 0.61995(17) 0.42718(14) 0.86700(8)
C55 C 0.65494(18) 0.51866(14) 0.86201(8)
C56 C 0.57721(18) 0.59974(14) 0.85521(8)
C57 C 0.45732(18) 0.59092(14) 0.86069(8)
C58 C 0.38813(19) 0.66362(15) 0.89117(9)
C59 C 0.28602(18) 0.64295(14) 0.92974(9)
C60 C 0.24849(17) 0.55084(15) 0.93781(9)
C61 C 0.19629(16) 0.52580(15) 0.99595(9)
C62 C 0.21654(16) 0.43468(14) 1.02247(9)
C63 C 0.28995(17) 0.36436(14) 0.99232(9)
C64 C 0.35473(17) 0.30057(13) 1.03203(9)
C65 C 0.46728(17) 0.24196(13) 1.01035(9)
C66 C 0.55951(18) 0.25511(13) 1.04229(9)
C67 C 0.66112(17) 0.27899(13) 1.00218(9)
C68 C 0.74258(19) 0.32326(15) 1.01718(9)
C69 C 0.82135(17) 0.38756(14) 0.97349(9)
C70 C 0.77163(17) 0.41661(14) 0.91929(9)
C71 C 0.74724(17) 0.50741(14) 0.89522(8)
C72 C 0.77663(17) 0.59189(14) 0.91473(9)
C73 C 0.67401(18) 0.67344(14) 0.91533(9)
C74 C 0.59036(19) 0.69306(14) 0.87349(9)
C75 C 0.46532(18) 0.71804(13) 0.90549(8)
C76 C 0.4168(2) 0.27178(16) 0.86670(10)
C77 C 0.78278(19) 0.29130(16) 0.85659(10)
C78 C 0.4556(2) 0.13661(15) 1.01619(10)
C79 C 0.94898(19) 0.34051(17) 0.96583(11)
C80 C 0.8897(2) 0.62429(17) 0.87854(10)
C81 C 0.6234(2) 0.76777(16) 0.82116(10)
F34A F 0.62483(14) 0.67459(11) 1.17735(6)
F35A F 0.66430(14) 0.78278(11) 1.10626(6)
F36A F 0.49074(14) 0.78431(11) 1.15476(7)
F37A F 0.27604(13) 0.74034(10) 1.17490(6)
F38A F 0.16219(13) 0.78490(11) 1.11520(7)
F39A F 0.13695(16) 0.66183(13) 1.17839(8)
F40A F 0.63265(14) 0.87687(10) 1.00623(7)
F41A F 0.56220(14) 0.90487(9) 0.93010(6)
F42A F 0.44707(14) 0.91003(9) 1.00983(8)
F43A F -0.0215(2) 0.6057(3) 1.0698(2)
F44A F 0.0381(4) 0.7414(4) 1.0513(3)
F45A F 0.0121(3) 0.6759(3) 0.98450(18)
F46A F 0.10944(15) 0.37098(14) 1.17647(6)
F47A F 0.01733(13) 0.43477(14) 1.11035(9)
F48A F 0.09539(14) 0.29164(11) 1.11303(8)
F49A F 0.46451(17) 0.20190(15) 1.20591(8)
F50A F 0.2901(2) 0.26556(12) 1.21640(8)
F51A F 0.3450(2) 0.15794(12) 1.16627(7)
C46A C 0.49478(18) 0.58180(14) 1.12989(8)
C47A C 0.57864(18) 0.49816(14) 1.13157(8)
C48A C 0.68421(17) 0.51878(14) 1.09224(9)
C49A C 0.66715(17) 0.61437(14) 1.06478(9)
C50A C 0.55382(17) 0.66639(14) 1.09481(8)
C51A C 0.48064(18) 0.71775(14) 1.05132(9)
C52A C 0.36866(17) 0.70405(13) 1.05386(8)
C53A C 0.29708(17) 0.64639(14) 1.10275(8)
C54A C 0.38005(17) 0.57282(14) 1.13300(8)
C55A C 0.34506(18) 0.48134(14) 1.13799(8)
C56A C 0.42279(18) 0.40026(14) 1.14479(8)
C57A C 0.54268(18) 0.40908(14) 1.13931(8)
C58A C 0.61187(19) 0.33638(15) 1.10883(9)
C59A C 0.71398(18) 0.35705(14) 1.07026(9)
C60A C 0.75151(17) 0.44916(15) 1.06219(9)
C61A C 0.80371(16) 0.47420(15) 1.00405(9)
C62A C 0.78346(16) 0.56532(14) 0.97753(9)
C63A C 0.71005(17) 0.63564(14) 1.00768(9)
C64A C 0.64527(17) 0.69943(13) 0.96797(9)
C65A C 0.53272(17) 0.75804(13) 0.98965(9)
C66A C 0.44049(18) 0.74489(13) 0.95771(9)
C67A C 0.33888(17) 0.72101(13) 0.99782(9)
C68A C 0.25742(19) 0.67674(15) 0.98282(9)
C69A C 0.17865(17) 0.61244(14) 1.02651(9)
C70A C 0.22837(17) 0.58339(14) 1.08071(9)
C71A C 0.25276(17) 0.49259(14) 1.10478(8)
C72A C 0.22337(17) 0.40811(14) 1.08527(9)
C73A C 0.32599(18) 0.32656(14) 1.08467(9)
C74A C 0.40964(19) 0.30694(14) 1.12651(9)
C75A C 0.53468(18) 0.28196(13) 1.09451(8)
C76A C 0.5832(2) 0.72822(16) 1.13330(10)
C77A C 0.21722(19) 0.70870(16) 1.14341(10)
C78A C 0.5444(2) 0.86339(15) 0.98381(10)
C79A C 0.05102(19) 0.65949(17) 1.03417(11)
C80A C 0.1103(2) 0.37571(17) 1.12146(10)
C81A C 0.3766(2) 0.23223(16) 1.17884(10)
N1 N 0.15830(17) 0.02263(14) 0.71689(8)
P1 P 0.21667(5) 0.08470(4) 0.74723(2)
P2 P 0.07891(5) -0.05948(4) 0.73560(2)
C82 C 0.15605(18) 0.20672(15) 0.73390(9)
C83 C 0.0622(2) 0.23471(19) 0.70656(11)
H1 H 0.0304 0.1897 0.6925
C84 C 0.0146(2) 0.3296(2) 0.69973(13)
H2 H -0.0508 0.3491 0.6813
C85 C 0.0600(2) 0.39476(19) 0.71906(12)
H3 H 0.0262 0.4592 0.7143
C86 C 0.1541(2) 0.36787(18) 0.74526(12)
H4 H 0.1864 0.4137 0.7584
C87 C 0.2025(2) 0.27404(17) 0.75277(11)
H5 H 0.2682 0.2555 0.7710
C88 C 0.20133(19) 0.05143(14) 0.82314(9)
C89 C 0.1164(2) 0.09900(16) 0.85996(10)
H6 H 0.0687 0.1537 0.8455
C90 C 0.1008(3) 0.06723(18) 0.91785(11)
H7 H 0.0423 0.1001 0.9429
C91 C 0.1695(3) -0.0116(2) 0.93921(12)
H8 H 0.1587 -0.0331 0.9790
C92 C 0.2541(3) -0.0595(2) 0.90286(13)
H9 H 0.3015 -0.1142 0.9177
C93 C 0.2707(2) -0.02854(18) 0.84498(11)
H10 H 0.3293 -0.0618 0.8201
C94 C 0.37076(19) 0.07553(15) 0.71952(10)
C95 C 0.4476(2) 0.09938(19) 0.74946(13)
H11 H 0.4189 0.1179 0.7857
C96 C 0.5650(2) 0.0961(2) 0.72646(17)
H12 H 0.6170 0.1132 0.7466
C97 C 0.6065(2) 0.0683(2) 0.67486(16)
H13 H 0.6875 0.0659 0.6593
C98 C 0.5330(3) 0.0437(2) 0.64508(13)
H14 H 0.5635 0.0237 0.6093
C99 C 0.4132(2) 0.04772(18) 0.66683(11)
H15 H 0.3619 0.0317 0.6459
C100 C -0.0269(2) -0.05044(16) 0.80001(10)
C101 C -0.1279(2) 0.01378(18) 0.79718(13)
H16 H -0.1427 0.0481 0.7616
C102 C -0.2071(3) 0.0273(2) 0.84689(15)
H17 H -0.2767 0.0705 0.8453
C103 C -0.1845(3) -0.0217(2) 0.89829(14)
H18 H -0.2386 -0.0116 0.9321
C104 C -0.0857(3) -0.0849(2) 0.90151(13)
H19 H -0.0713 -0.1184 0.9373
C105 C -0.0055(3) -0.10002(19) 0.85199(11)
H20 H 0.0632 -0.1441 0.8540
C106 C -0.00059(19) -0.05433(15) 0.67949(10)
C107 C 0.0296(2) 0.0024(2) 0.62777(11)
H21 H 0.0903 0.0405 0.6225
C108 C -0.0288(3) 0.0039(3) 0.58352(14)
H22 H -0.0085 0.0433 0.5482
C109 C -0.1160(3) -0.0519(2) 0.59109(16)
H23 H -0.1554 -0.0513 0.5608
C110 C -0.1463(2) -0.1082(2) 0.64195(16)
H24 H -0.2062 -0.1470 0.6466
C111 C -0.0905(2) -0.10941(17) 0.68696(13)
H25 H -0.1134 -0.1474 0.7225
C112 C 0.16441(19) -0.17415(16) 0.74489(9)
C113 C 0.2850(2) -0.18326(18) 0.72942(10)
H26 H 0.3229 -0.1284 0.7158
C114 C 0.3504(2) -0.2720(2) 0.73364(11)
H27 H 0.4330 -0.2776 0.7230
C115 C 0.2966(2) -0.35215(19) 0.75312(10)
H28 H 0.3418 -0.4129 0.7554
C116 C 0.1770(2) -0.34379(19) 0.76923(12)
H29 H 0.1396 -0.3989 0.7831
C117 C 0.1111(2) -0.25554(18) 0.76525(12)
H30 H 0.0286 -0.2504 0.7765
C37? C 0.5634(10) 0.2601(8) 0.4510(6)
C38? C 0.6180(11) 0.2614(8) 0.5001(6)
C39? C 0.7247(9) 0.3096(7) 0.5573(5)
C40? C 0.7521(10) 0.4081(7) 0.5579(4)
C41? C 0.8981(12) 0.2920(10) 0.4194(8)
C42? C 0.3782(10) 0.5850(8) 0.2926(4)
C43? C 0.5889(8) 0.1614(6) 0.4319(4)
C44? C 0.8161(8) 0.2387(7) 0.5852(4)
F19? F 0.9486(8) 0.3389(8) 0.3711(4)
F20? F 0.8857(6) 0.2073(5) 0.4112(5)
F21? F 0.9759(5) 0.2779(5) 0.4535(4)
F22? F 0.7609(11) 0.8218(8) 0.5095(6)
F23? F 0.6386(9) 0.8904(6) 0.4609(4)
F24? F 0.7992(13) 0.8121(13) 0.4347(8)
F25? F 0.2690(15) 0.6264(12) 0.2935(6)
F26? F 0.3897(8) 0.5106(5) 0.2696(3)
F27? F 0.5238(6) 0.1538(5) 0.3956(4)
F28? F 0.9241(6) 0.2585(6) 0.5662(4)
F29? F 0.8118(6) 0.1519(4) 0.5749(4)
F30? F 0.7985(5) 0.2325(5) 0.6418(3)
C45? C 0.2023(8) 0.3997(7) 0.3922(4)
F31? F 0.1035(5) 0.4588(5) 0.3932(3)
F32? F 0.1764(8) 0.3133(6) 0.4142(4)
F33? F 0.2486(7) 0.3989(7) 0.3365(3)
F52? F 0.9536(15) 0.2456(12) 0.9798(12)
F53? F 1.0084(12) 0.3667(19) 0.9921(11)
F54? F 0.9989(10) 0.3504(15) 0.9109(5)
loop_
_geom_bond_atom_site_label_1
_geom_bond_atom_site_label_2
_geom_bond_site_symmetry_1
_geom_bond_site_symmetry_2
C1 C2 1_555 1_555
C2 C3 1_555 1_555
C3 C4 1_555 1_555
C4 C5 1_555 1_555
C5 C6 1_555 1_555
C6 C1 1_555 1_555
C7 C6 1_555 1_555
C8 C7 1_555 1_555
C9 C1 1_555 1_555
C10 C9 1_555 1_555
C11 C10 1_555 1_555
C12 C2 1_555 1_555
C13 C12 1_555 1_555
C14 C3 1_555 1_555
C15 C14 1_555 1_555
C16 C15 1_555 1_555
C17 C4 1_555 1_555
C18 C17 1_555 1_555
C19 C5 1_555 1_555
C20 C19 1_555 1_555
C21 C20 1_555 1_555
C22 C21 1_555 1_555
C23 C22 1_555 1_555
C24 C23 1_555 1_555
C25 C8 1_555 1_555
C26 C25 1_555 1_555
C27 C10 1_555 1_555
C28 C27 1_555 1_555
C29 C11 1_555 1_555
C30 C7 1_555 1_555
C31 C8 1_555 1_555
C32 C13 1_555 1_555
C33 C18 1_555 1_555
C34 C21 1_555 1_555
C35 C24 1_555 1_555
C36 C27 1_555 1_555
F1 C31 1_555 1_555
F2 C31 1_555 1_555
F3 C31 1_555 1_555
F4 C32 1_555 1_555
F5 C32 1_555 1_555
F6 C32 1_555 1_555
F7 C33 1_555 1_555
F8 C33 1_555 1_555
F9 C33 1_555 1_555
F10 C34 1_555 1_555
F11 C34 1_555 1_555
F12 C34 1_555 1_555
F13 C35 1_555 1_555
F14 C35 1_555 1_555
F15 C35 1_555 1_555
F16 C36 1_555 1_555
F17 C36 1_555 1_555
F18 C36 1_555 1_555
F34 C76 1_555 1_555
F35 C76 1_555 1_555
F36 C76 1_555 1_555
F37 C77 1_555 1_555
F38 C77 1_555 1_555
F39 C77 1_555 1_555
F40 C78 1_555 1_555
F41 C78 1_555 1_555
F42 C78 1_555 1_555
F43 C79 1_555 1_555
F44 C79 1_555 1_555
F45 C79 1_555 1_555
F46 C80 1_555 1_555
F47 C80 1_555 1_555
F48 C80 1_555 1_555
F49 C81 1_555 1_555
F50 C81 1_555 1_555
F51 C81 1_555 1_555
C46 C47 1_555 1_555
C47 C48 1_555 1_555
C48 C49 1_555 1_555
C49 C50 1_555 1_555
C50 C46 1_555 1_555
C51 C50 1_555 1_555
C52 C51 1_555 1_555
C53 C52 1_555 1_555
C54 C46 1_555 1_555
C55 C54 1_555 1_555
C56 C55 1_555 1_555
C57 C47 1_555 1_555
C58 C57 1_555 1_555
C59 C58 1_555 1_555
C60 C48 1_555 1_555
C61 C60 1_555 1_555
C62 C61 1_555 1_555
C63 C49 1_555 1_555
C64 C63 1_555 1_555
C65 C51 1_555 1_555
C66 C65 1_555 1_555
C67 C52 1_555 1_555
C68 C67 1_555 1_555
C69 C68 1_555 1_555
C70 C53 1_555 1_555
C71 C55 1_555 1_555
C72 C71 1_555 1_555
C73 C72 1_555 1_555
C74 C56 1_555 1_555
C75 C58 1_555 1_555
C76 C50 1_555 1_555
C77 C53 1_555 1_555
C78 C65 1_555 1_555
C79 C69 1_555 1_555
C80 C72 1_555 1_555
C81 C74 1_555 1_555
N1 P1 1_555 1_555
P1 C82 1_555 1_555
P2 N1 1_555 1_555
C82 C83 1_555 1_555
C83 H1 1_555 1_555
C84 C83 1_555 1_555
H2 C84 1_555 1_555
C85 C84 1_555 1_555
H3 C85 1_555 1_555
C86 C85 1_555 1_555
H4 C86 1_555 1_555
C87 C82 1_555 1_555
H5 C87 1_555 1_555
C88 P1 1_555 1_555
C89 C88 1_555 1_555
H6 C89 1_555 1_555
C90 C89 1_555 1_555
H7 C90 1_555 1_555
C91 C90 1_555 1_555
H8 C91 1_555 1_555
C92 C91 1_555 1_555
H9 C92 1_555 1_555
C93 C88 1_555 1_555
H10 C93 1_555 1_555
C94 P1 1_555 1_555
C95 C94 1_555 1_555
H11 C95 1_555 1_555
C96 C95 1_555 1_555
H12 C96 1_555 1_555
C97 C96 1_555 1_555
H13 C97 1_555 1_555
C98 C97 1_555 1_555
H14 C98 1_555 1_555
C99 C94 1_555 1_555
H15 C99 1_555 1_555
C100 P2 1_555 1_555
C101 C100 1_555 1_555
H16 C101 1_555 1_555
C102 C101 1_555 1_555
H17 C102 1_555 1_555
C103 C102 1_555 1_555
H18 C103 1_555 1_555
C104 C103 1_555 1_555
H19 C104 1_555 1_555
C105 C100 1_555 1_555
H20 C105 1_555 1_555
C106 P2 1_555 1_555
C107 C106 1_555 1_555
H21 C107 1_555 1_555
C108 C107 1_555 1_555
H22 C108 1_555 1_555
C109 C108 1_555 1_555
H23 C109 1_555 1_555
C110 C109 1_555 1_555
H24 C110 1_555 1_555
C111 C106 1_555 1_555
H25 C111 1_555 1_555
C112 P2 1_555 1_555
C113 C112 1_555 1_555
H26 C113 1_555 1_555
C114 C113 1_555 1_555
H27 C114 1_555 1_555
C115 C114 1_555 1_555
H28 C115 1_555 1_555
C116 C115 1_555 1_555
H29 C116 1_555 1_555
C117 C112 1_555 1_555
H30 C117 1_555 1_555
C1A C2A 1_555 1_555
C2A C3A 1_555 1_555
C3A C4A 1_555 1_555
C4A C5A 1_555 1_555
C5A C6A 1_555 1_555
C6A C1A 1_555 1_555
C7A C6A 1_555 1_555
C8A C7A 1_555 1_555
C9A C1A 1_555 1_555
C10A C9A 1_555 1_555
C11A C10A 1_555 1_555
C12A C2A 1_555 1_555
C13A C22 1_555 1_555
C14A C3A 1_555 1_555
C15A C24 1_555 1_555
C16A C26 1_555 1_555
C17A C4A 1_555 1_555
C18A C28 1_555 1_555
C19A C5A 1_555 1_555
C20A C19A 1_555 1_555
C21A C29 1_555 1_555
C22A C13 1_555 1_555
C23A C22A 1_555 1_555
C24A C15 1_555 1_555
C25A C8A 1_555 1_555
C26A C16 1_555 1_555
C27A C10A 1_555 1_555
C28A C18 1_555 1_555
C29A C21 1_555 1_555
C30A C7A 1_555 1_555
C31A C8A 1_555 1_555
C32A C13A 1_555 1_555
C33A C18A 1_555 1_555
C34A C21A 1_555 1_555
C35A C24A 1_555 1_555
C36A C27A 1_555 1_555
F1A C31A 1_555 1_555
F2A C31A 1_555 1_555
F3A C31A 1_555 1_555
F4A C32A 1_555 1_555
F5A C32A 1_555 1_555
F6A C32A 1_555 1_555
F7A C33A 1_555 1_555
F8A C33A 1_555 1_555
F9A C33A 1_555 1_555
F10A C34A 1_555 1_555
F11A C34A 1_555 1_555
F12A C34A 1_555 1_555
F13A C35A 1_555 1_555
F14A C35A 1_555 1_555
F15A C35A 1_555 1_555
F16A C36A 1_555 1_555
F17A C36A 1_555 1_555
F18A C36A 1_555 1_555
F34A C76A 1_555 1_555
F35A C76A 1_555 1_555
F36A C76A 1_555 1_555
F37A C77A 1_555 1_555
F38A C77A 1_555 1_555
F39A C77A 1_555 1_555
F40A C78A 1_555 1_555
F41A C78A 1_555 1_555
F42A C78A 1_555 1_555
F43A C79A 1_555 1_555
F44A C79A 1_555 1_555
F45A C79A 1_555 1_555
F46A C80A 1_555 1_555
F47A C80A 1_555 1_555
F48A C80A 1_555 1_555
F49A C81A 1_555 1_555
F50A C81A 1_555 1_555
F51A C81A 1_555 1_555
C46A C47A 1_555 1_555
C47A C48A 1_555 1_555
C48A C49A 1_555 1_555
C49A C50A 1_555 1_555
C50A C46A 1_555 1_555
C51A C50A 1_555 1_555
C52A C51A 1_555 1_555
C53A C52A 1_555 1_555
C54A C46A 1_555 1_555
C55A C54A 1_555 1_555
C56A C55A 1_555 1_555
C57A C47A 1_555 1_555
C58A C57A 1_555 1_555
C59A C68 1_555 1_555
C60A C48A 1_555 1_555
C61A C69 1_555 1_555
C62A C72 1_555 1_555
C63A C49A 1_555 1_555
C64A C73 1_555 1_555
C65A C51A 1_555 1_555
C66A C75 1_555 1_555
C67A C52A 1_555 1_555
C68A C59 1_555 1_555
C69A C61 1_555 1_555
C70A C53A 1_555 1_555
C71A C55A 1_555 1_555
C72A C62 1_555 1_555
C73A C64 1_555 1_555
C74A C56A 1_555 1_555
C75A C66 1_555 1_555
C76A C50A 1_555 1_555
C77A C53A 1_555 1_555
C78A C65A 1_555 1_555
C79A C69A 1_555 1_555
C80A C72A 1_555 1_555
C81A C74A 1_555 1_555
C8 C9 1_555 1_555
C11 C12 1_555 1_555
C13 C14 1_555 1_555
C16 C17 1_555 1_555
C18 C19 1_555 1_555
C20 C30 1_555 1_555
C23 C30 1_555 1_555
C24 C25 1_555 1_555
C26 C27 1_555 1_555
C28 C29 1_555 1_555
C53 C54 1_555 1_555
C56 C57 1_555 1_555
C59 C60 1_555 1_555
C62 C63 1_555 1_555
C64 C65 1_555 1_555
C66 C67 1_555 1_555
C69 C70 1_555 1_555
C70 C71 1_555 1_555
C73 C74 1_555 1_555
C74 C75 1_555 1_555
C86 C87 1_555 1_555
C92 C93 1_555 1_555
C98 C99 1_555 1_555
C104 C105 1_555 1_555
C110 C111 1_555 1_555
C116 C117 1_555 1_555
C8A C9A 1_555 1_555
C11A C12A 1_555 1_555
C11A C29A 1_555 1_555
C12A C13A 1_555 1_555
C13A C14A 1_555 1_555
C14A C15A 1_555 1_555
C15A C16A 1_555 1_555
C16A C17A 1_555 1_555
C17A C18A 1_555 1_555
C18A C19A 1_555 1_555
C20A C21A 1_555 1_555
C20A C30A 1_555 1_555
C21A C22A 1_555 1_555
C23A C24A 1_555 1_555
C23A C30A 1_555 1_555
C24A C25A 1_555 1_555
C25A C26A 1_555 1_555
C26A C27A 1_555 1_555
C27A C28A 1_555 1_555
C28A C29A 1_555 1_555
C53A C54A 1_555 1_555
C56A C57A 1_555 1_555
C58A C59A 1_555 1_555
C58A C75A 1_555 1_555
C59A C60A 1_555 1_555
C60A C61A 1_555 1_555
C61A C62A 1_555 1_555
C62A C63A 1_555 1_555
C63A C64A 1_555 1_555
C64A C65A 1_555 1_555
C65A C66A 1_555 1_555
C66A C67A 1_555 1_555
C67A C68A 1_555 1_555
C68A C69A 1_555 1_555
C69A C70A 1_555 1_555
C70A C71A 1_555 1_555
C71A C72A 1_555 1_555
C72A C73A 1_555 1_555
C73A C74A 1_555 1_555
C74A C75A 1_555 1_555

#END
