
#######################################################################
#
#                 Cambridge Crystallographic Data Centre
#                                CCDC 
#
#######################################################################
#
# If this CIF has been generated from an entry in the Cambridge 
# Structural Database, then it will include bibliographic, chemical, 
# crystal, experimental, refinement or atomic coordinate data resulting 
# from the CCDC's data processing and validation procedures.
#
#######################################################################

data_QOCZUF
_chemical_formula_moiety         'C13 H8 B1 F2 N3 O1'
_chemical_name_systematic        
6,6-difluoro-6H,8H-5\l^5^,6\l^5^-pyrido[1',2':3,4][1,3,5,2]triazaborinino[6,1-a]isoindol-8-one
_symmetry_cell_setting           monoclinic
_symmetry_space_group_name_H-M   'P 21/c'
_symmetry_Int_Tables_number      14
_space_group_name_Hall           '-P 2ybc'
loop_
_symmetry_equiv_pos_site_id
_symmetry_equiv_pos_as_xyz
1 x,y,z
2 -x,1/2+y,1/2-z
3 -x,-y,-z
4 x,1/2-y,1/2+z
_cell_length_a                   7.1363(8)
_cell_length_b                   8.4833(9)
_cell_length_c                   19.643(2)
_cell_angle_alpha                90
_cell_angle_beta                 99.4140(10)
_cell_angle_gamma                90
_cell_volume                     1173.16
_exptl_crystal_colour            colorless
_exptl_crystal_description       block
_cell_formula_units_Z            4
loop_
_atom_site_label
_atom_site_type_symbol
_atom_site_fract_x
_atom_site_fract_y
_atom_site_fract_z
B1 B 0.0219(2) 0.64187(17) 0.16937(7)
C1 C -0.18740(19) 0.80346(16) 0.07213(6)
C2 C -0.17225(18) 0.84134(15) -0.00083(6)
C3 C -0.2826(2) 0.93603(18) -0.04844(7)
H1 H -0.3880 0.9890 -0.0376
C4 C -0.2303(2) 0.94920(18) -0.11307(7)
H2 H -0.3016 1.0127 -0.1462
C5 C -0.0748(2) 0.87009(18) -0.12922(7)
H3 H -0.0441 0.8803 -0.1732
C6 C 0.0367(2) 0.77580(16) -0.08127(7)
H4 H 0.1419 0.7226 -0.0921
C7 C -0.01505(18) 0.76396(14) -0.01663(6)
C8 C 0.07425(17) 0.67898(14) 0.04561(6)
C9 C 0.29567(17) 0.52444(14) 0.11252(6)
C10 C 0.4620(2) 0.43649(18) 0.11790(8)
H5 H 0.5280 0.4317 0.0809
C11 C 0.5284(2) 0.3571(2) 0.17762(8)
H6 H 0.6402 0.2991 0.1814
C12 C 0.4288(2) 0.36332(18) 0.23227(8)
H7 H 0.4703 0.3073 0.2726
C13 C 0.2689(2) 0.45286(15) 0.22598(6)
H8 H 0.2025 0.4585 0.2629
F1 F 0.07683(13) 0.76118(10) 0.21591(4)
F2 F -0.11669(11) 0.55263(11) 0.19075(4)
N1 N -0.03383(15) 0.70327(12) 0.09628(5)
N2 N 0.22909(15) 0.59862(13) 0.05043(5)
N3 N 0.20315(14) 0.53419(12) 0.16743(5)
O1 O -0.30359(15) 0.84806(15) 0.10607(5)
loop_
_geom_bond_atom_site_label_1
_geom_bond_atom_site_label_2
_geom_bond_site_symmetry_1
_geom_bond_site_symmetry_2
B1 F1 1_555 1_555
C1 C2 1_555 1_555
C2 C3 1_555 1_555
C3 H1 1_555 1_555
C4 C3 1_555 1_555
H2 C4 1_555 1_555
C5 C4 1_555 1_555
H3 C5 1_555 1_555
C6 C5 1_555 1_555
H4 C6 1_555 1_555
C7 C2 1_555 1_555
C8 C7 1_555 1_555
C9 C10 1_555 1_555
C10 H5 1_555 1_555
C11 C10 1_555 1_555
H6 C11 1_555 1_555
C12 C11 1_555 1_555
H7 C12 1_555 1_555
C13 C12 1_555 1_555
H8 C13 1_555 1_555
F2 B1 1_555 1_555
N1 B1 1_555 1_555
N2 C8 1_555 1_555
N3 B1 1_555 1_555
O1 C1 1_555 1_555
C1 N1 1_555 1_555
C6 C7 1_555 1_555
C8 N1 1_555 1_555
C9 N2 1_555 1_555
C9 N3 1_555 1_555
C13 N3 1_555 1_555

#END
