
#######################################################################
#
#                 Cambridge Crystallographic Data Centre
#                                CCDC 
#
#######################################################################
#
# If this CIF has been generated from an entry in the Cambridge 
# Structural Database, then it will include bibliographic, chemical, 
# crystal, experimental, refinement or atomic coordinate data resulting 
# from the CCDC's data processing and validation procedures.
#
#######################################################################

data_QODTUZ
_chemical_formula_moiety         'C17 H24 O5 S2'
_chemical_name_systematic        
18-Formyl-2,3,5,6,8,9,11,12,14,15-decahydro-1,7,10,16,4,13-benzotetraoxadithiacyclooctadecine
_symmetry_cell_setting           orthorhombic
_symmetry_space_group_name_H-M   'P n a 21'
_symmetry_Int_Tables_number      33
_space_group_name_Hall           'P 2c -2n'
loop_
_symmetry_equiv_pos_site_id
_symmetry_equiv_pos_as_xyz
1 x,y,z
2 -x,-y,1/2+z
3 1/2+x,1/2-y,z
4 1/2-x,1/2+y,1/2+z
_cell_length_a                   16.5800(14)
_cell_length_b                   12.2753(10)
_cell_length_c                   8.9266(7)
_cell_angle_alpha                90
_cell_angle_beta                 90
_cell_angle_gamma                90
_cell_volume                     1816.78
_exptl_crystal_colour            colorless
_exptl_crystal_description       block
_cell_formula_units_Z            4
_exptl_crystal_recrystallization_method dichloromethane/hexane
loop_
_atom_site_label
_atom_site_type_symbol
_atom_site_fract_x
_atom_site_fract_y
_atom_site_fract_z
S1 S 0.31521(5) 0.62398(7) 1.53558(10)
S2 S 0.10317(4) 0.49630(6) 0.83623(9)
O1 O 0.06411(11) 0.37141(15) 1.1349(2)
O2 O 0.16275(10) 0.41804(15) 1.3387(2)
O3 O 0.16516(13) 0.78316(18) 1.4414(2)
O4 O 0.15883(11) 0.72670(16) 1.1382(2)
O5 O -0.05902(19) -0.0006(2) 1.2956(3)
C1 C -0.0120(2) 0.0318(3) 1.3914(5)
H1 H -0.0049 -0.0120 1.4781
C3 C 0.01263(17) 0.3493(3) 1.0102(3)
C4 C 0.06688(15) 0.2975(2) 1.2470(3)
C5 C 0.02439(17) 0.2016(2) 1.2557(3)
C6 C 0.03420(18) 0.1336(2) 1.3817(4)
C7 C 0.08515(18) 0.1624(3) 1.4958(4)
C8 C 0.12960(18) 0.2587(3) 1.4886(3)
C9 C 0.12107(15) 0.3257(2) 1.3639(3)
C10 C 0.21706(18) 0.4548(3) 1.4539(3)
C11 C 0.25513(19) 0.5578(3) 1.3933(4)
C12 C 0.2394(2) 0.6998(3) 1.6383(4)
C13 C 0.2155(2) 0.8059(3) 1.5671(4)
C14 C 0.16990(18) 0.8608(2) 1.3268(4)
C15 C 0.12019(18) 0.8211(3) 1.1963(3)
C16 C 0.11548(18) 0.6789(2) 1.0176(3)
C17 C 0.15250(18) 0.5685(2) 0.9876(3)
C18 C 0.00855(18) 0.4519(3) 0.9186(3)
H5 H -0.0416(18) 0.330(2) 1.031(4)
H6 H 0.0350(17) 0.295(2) 0.958(3)
H7 H -0.0086(19) 0.187(2) 1.178(4)
H8 H 0.166(2) 0.282(3) 1.570(5)
H9 H 0.2564(18) 0.398(2) 1.474(3)
H10 H 0.1856(18) 0.464(2) 1.545(4)
H11 H 0.2908(18) 0.543(2) 1.316(4)
H12 H 0.219(2) 0.608(3) 1.355(4)
H13 H 0.267(2) 0.709(3) 1.737(5)
H14 H 0.194(2) 0.652(3) 1.660(4)
H15 H 0.186(3) 0.861(4) 1.618(5)
H16 H 0.261(2) 0.842(3) 1.539(4)
H17 H 0.228(2) 0.875(3) 1.302(4)
H18 H 0.150(2) 0.921(3) 1.353(5)
H19 H 0.069(2) 0.803(3) 1.235(4)
H20 H 0.123(2) 0.881(3) 1.117(4)
H21 H 0.118(2) 0.727(3) 0.932(4)
H22 H 0.0545(19) 0.678(2) 1.050(4)
H23 H 0.2051(18) 0.576(2) 0.950(3)
H24 H 0.151(2) 0.518(3) 1.079(4)
H25 H -0.033(2) 0.439(3) 0.844(5)
H26 H -0.0176(19) 0.508(3) 0.978(4)
O6? O 0.0688(13) 0.0128(15) 1.638(2)
C2? C 0.0971(13) 0.1039(16) 1.620(2)
H2? H 0.1290 0.1343 1.6975
H3? H 0.0051 0.0671 1.3876
H4? H 0.0903 0.1163 1.5807
loop_
_geom_bond_atom_site_label_1
_geom_bond_atom_site_label_2
_geom_bond_site_symmetry_1
_geom_bond_site_symmetry_2
S1 C11 1_555 1_555
S2 C17 1_555 1_555
O1 C3 1_555 1_555
O2 C9 1_555 1_555
O3 C13 1_555 1_555
O4 C15 1_555 1_555
O5 C1 1_555 1_555
C1 H1 1_555 1_555
C3 C18 1_555 1_555
C4 O1 1_555 1_555
C5 C4 1_555 1_555
C6 C1 1_555 1_555
C7 C6 1_555 1_555
C8 C7 1_555 1_555
C9 C4 1_555 1_555
C10 O2 1_555 1_555
C11 C10 1_555 1_555
C12 S1 1_555 1_555
C13 C12 1_555 1_555
C14 O3 1_555 1_555
C15 C14 1_555 1_555
C16 O4 1_555 1_555
C17 C16 1_555 1_555
C18 S2 1_555 1_555
H5 C3 1_555 1_555
H6 C3 1_555 1_555
H7 C5 1_555 1_555
H8 C8 1_555 1_555
H9 C10 1_555 1_555
H10 C10 1_555 1_555
H11 C11 1_555 1_555
H12 C11 1_555 1_555
H13 C12 1_555 1_555
H14 C12 1_555 1_555
H15 C13 1_555 1_555
H16 C13 1_555 1_555
H17 C14 1_555 1_555
H18 C14 1_555 1_555
H19 C15 1_555 1_555
H20 C15 1_555 1_555
H21 C16 1_555 1_555
H22 C16 1_555 1_555
H23 C17 1_555 1_555
H24 C17 1_555 1_555
H25 C18 1_555 1_555
H26 C18 1_555 1_555
C5 C6 1_555 1_555
C8 C9 1_555 1_555

#END
