
#######################################################################
#
#                 Cambridge Crystallographic Data Centre
#                                CCDC 
#
#######################################################################
#
# If this CIF has been generated from an entry in the Cambridge 
# Structural Database, then it will include bibliographic, chemical, 
# crystal, experimental, refinement or atomic coordinate data resulting 
# from the CCDC's data processing and validation procedures.
#
#######################################################################

data_QODTEJ
_chemical_formula_moiety         'C14 H19 Br1 O3 S2'
_chemical_name_systematic        
15-Bromo-2,3,5,6,8,9,11,12-octahydro-1,7,13,4,10-benzotrioxadithiacyclopentadecine
_symmetry_cell_setting           triclinic
_symmetry_space_group_name_H-M   'P -1'
_symmetry_Int_Tables_number      2
_space_group_name_Hall           '-P 1'
loop_
_symmetry_equiv_pos_site_id
_symmetry_equiv_pos_as_xyz
1 x,y,z
2 -x,-y,-z
_cell_length_a                   8.8100(5)
_cell_length_b                   12.5927(7)
_cell_length_c                   15.3724(9)
_cell_angle_alpha                102.005(2)
_cell_angle_beta                 90.302(2)
_cell_angle_gamma                105.615(2)
_cell_volume                     1603.17
_cell_formula_units_Z            4
_exptl_crystal_recrystallization_method dichloromethane/hexane
loop_
_atom_site_label
_atom_site_type_symbol
_atom_site_fract_x
_atom_site_fract_y
_atom_site_fract_z
Br1 Br 0.97479(7) 0.88068(4) 0.39684(3)
S1 S 1.08204(14) 0.16341(10) 0.27399(8)
S2 S 0.49130(13) 0.30798(9) 0.47927(8)
O1 O 0.8277(3) 0.4541(2) 0.42573(18)
O2 O 0.9714(3) 0.3926(2) 0.28801(18)
O3 O 0.7037(4) 0.1427(3) 0.4201(2)
C1 C 0.7592(5) 0.4861(4) 0.5085(3)
C2 C 0.9024(5) 0.5393(3) 0.3855(3)
C3 C 0.9018(5) 0.6505(4) 0.4112(3)
C4 C 0.9818(5) 0.7274(3) 0.3616(3)
C5 C 1.0611(5) 0.6970(4) 0.2895(3)
C6 C 1.0625(5) 0.5843(4) 0.2636(3)
C7 C 0.9830(5) 0.5050(3) 0.3098(3)
C8 C 1.0505(6) 0.3521(4) 0.2116(3)
C9 C 1.0076(6) 0.2270(4) 0.1936(3)
C10 C 0.9569(6) 0.1814(4) 0.3656(3)
C11 C 0.7863(6) 0.1111(4) 0.3445(3)
C12 C 0.5375(6) 0.0985(4) 0.4080(3)
C13 C 0.4644(7) 0.1615(4) 0.4835(4)
C14 C 0.6829(5) 0.3785(4) 0.5398(3)
H1 H 0.680(7) 0.541(4) 0.506(4)
H2 H 0.860(6) 0.544(4) 0.559(3)
H3 H 0.858(5) 0.675(3) 0.460(3)
H4 H 1.115(7) 0.761(4) 0.263(4)
H5 H 1.125(6) 0.569(4) 0.219(3)
H6 H 1.143(6) 0.380(4) 0.220(3)
H7 H 1.015(5) 0.372(3) 0.160(2)
H8 H 1.045(6) 0.201(4) 0.141(3)
H9 H 0.884(7) 0.186(4) 0.189(3)
H10 H 0.995(8) 0.151(5) 0.413(4)
H11 H 0.964(5) 0.260(4) 0.384(3)
H12 H 0.736(6) 0.120(4) 0.288(3)
H13 H 0.792(6) 0.038(4) 0.332(3)
H14 H 0.493(6) 0.019(4) 0.411(3)
H15 H 0.484(6) 0.102(4) 0.343(3)
H16 H 0.509(9) 0.158(6) 0.547(5)
H17 H 0.355(7) 0.133(4) 0.484(3)
H18 H 0.658(6) 0.398(4) 0.604(3)
H19 H 0.744(7) 0.324(5) 0.522(4)
Br2 Br 0.42939(6) 0.90915(4) 0.17357(3)
S3 S 0.61106(13) 0.24242(10) 0.13021(8)
S4 S 0.02171(12) 0.27684(9) -0.04039(7)
O4 O 0.3126(3) 0.4686(2) 0.05887(18)
O5 O 0.4653(3) 0.4438(2) 0.19234(19)
O6 O 0.1637(3) 0.1004(2) 0.02057(19)
C15 C 0.2453(5) 0.4786(4) -0.0228(3)
C16 C 0.3809(5) 0.5654(3) 0.1203(3)
C17 C 0.3680(5) 0.6721(3) 0.1166(3)
C18 C 0.4470(5) 0.7640(3) 0.1827(3)
C19 C 0.5342(5) 0.7544(4) 0.2526(3)
C20 C 0.5433(5) 0.6463(4) 0.2579(3)
C21 C 0.4664(5) 0.5534(3) 0.1936(3)
C22 C 0.5700(6) 0.4254(4) 0.2561(3)
C23 C 0.5531(6) 0.3004(4) 0.2384(3)
C24 C 0.4326(6) 0.2178(4) 0.0609(3)
C25 C 0.3143(5) 0.1058(4) 0.0589(3)
C26 C 0.1582(6) 0.0956(4) -0.0728(3)
C27 C 0.0185(5) 0.1350(3) -0.0973(3)
C28 C 0.1935(5) 0.3631(3) -0.0820(3)
H20 H 0.300(5) 0.517(3) -0.045(3)
H21 H 0.160(5) 0.511(3) -0.010(3)
H22 H 0.318(6) 0.676(4) 0.066(3)
H23 H 0.594(5) 0.834(3) 0.302(2)
H24 H 0.600(4) 0.635(3) 0.304(2)
H25 H 0.542(6) 0.456(4) 0.319(3)
H26 H 0.676(7) 0.474(4) 0.257(3)
H27 H 0.436(7) 0.249(4) 0.243(4)
H28 H 0.621(6) 0.294(4) 0.282(3)
H29 H 0.399(6) 0.282(4) 0.081(3)
H30 H 0.460(6) 0.228(4) 0.012(4)
H31 H 0.340(5) 0.040(3) 0.022(3)
H32 H 0.288(5) 0.091(3) 0.121(3)
H33 H 0.154(6) 0.025(4) -0.108(3)
H34 H 0.265(5) 0.146(3) -0.092(2)
H35 H -0.076(7) 0.088(4) -0.080(3)
H36 H 0.012(7) 0.134(4) -0.166(4)
H37 H 0.279(6) 0.323(4) -0.082(3)
H38 H 0.159(5) 0.369(3) -0.141(3)
loop_
_geom_bond_atom_site_label_1
_geom_bond_atom_site_label_2
_geom_bond_site_symmetry_1
_geom_bond_site_symmetry_2
Br1 C4 1_555 1_555
Br2 C18 1_555 1_555
S1 C9 1_555 1_555
S2 C13 1_555 1_555
S3 C23 1_555 1_555
S4 C27 1_555 1_555
O1 C1 1_555 1_555
O2 C7 1_555 1_555
O3 C11 1_555 1_555
O4 C15 1_555 1_555
O5 C21 1_555 1_555
O6 C25 1_555 1_555
C1 C14 1_555 1_555
C2 O1 1_555 1_555
C3 C2 1_555 1_555
C4 C3 1_555 1_555
C5 C4 1_555 1_555
C6 C5 1_555 1_555
C7 C2 1_555 1_555
C8 O2 1_555 1_555
C9 C8 1_555 1_555
C10 S1 1_555 1_555
C11 C10 1_555 1_555
C12 O3 1_555 1_555
C13 C12 1_555 1_555
C14 S2 1_555 1_555
C15 C28 1_555 1_555
C16 O4 1_555 1_555
C17 C16 1_555 1_555
C18 C17 1_555 1_555
C19 C18 1_555 1_555
C20 C19 1_555 1_555
C21 C16 1_555 1_555
C22 O5 1_555 1_555
C23 C22 1_555 1_555
C24 S3 1_555 1_555
C25 C24 1_555 1_555
C26 O6 1_555 1_555
C27 C26 1_555 1_555
C28 S4 1_555 1_555
H1 C1 1_555 1_555
H2 C1 1_555 1_555
H3 C3 1_555 1_555
H4 C5 1_555 1_555
H5 C6 1_555 1_555
H6 C8 1_555 1_555
H7 C8 1_555 1_555
H8 C9 1_555 1_555
H9 C9 1_555 1_555
H10 C10 1_555 1_555
H11 C10 1_555 1_555
H12 C11 1_555 1_555
H13 C11 1_555 1_555
H14 C12 1_555 1_555
H15 C12 1_555 1_555
H16 C13 1_555 1_555
H17 C13 1_555 1_555
H18 C14 1_555 1_555
H19 C14 1_555 1_555
H20 C15 1_555 1_555
H21 C15 1_555 1_555
H22 C17 1_555 1_555
H23 C19 1_555 1_555
H24 C20 1_555 1_555
H25 C22 1_555 1_555
H26 C22 1_555 1_555
H27 C23 1_555 1_555
H28 C23 1_555 1_555
H29 C24 1_555 1_555
H30 C24 1_555 1_555
H31 C25 1_555 1_555
H32 C25 1_555 1_555
H33 C26 1_555 1_555
H34 C26 1_555 1_555
H35 C27 1_555 1_555
H36 C27 1_555 1_555
H37 C28 1_555 1_555
H38 C28 1_555 1_555
C6 C7 1_555 1_555
C20 C21 1_555 1_555

#END
