
#######################################################################
#
#                 Cambridge Crystallographic Data Centre
#                                CCDC 
#
#######################################################################
#
# If this CIF has been generated from an entry in the Cambridge 
# Structural Database, then it will include bibliographic, chemical, 
# crystal, experimental, refinement or atomic coordinate data resulting 
# from the CCDC's data processing and validation procedures.
#
#######################################################################

data_QODTIN
_chemical_formula_moiety         'C16 H23 Br1 O4 S2'
_chemical_name_systematic        
18-Bromo-2,3,5,6,8,9,11,12,14,15-decahydro-1,7,10,16,4,13-benzotetraoxadithiacyclooctadecine
_symmetry_cell_setting           orthorhombic
_symmetry_space_group_name_H-M   'P n a 21'
_symmetry_Int_Tables_number      33
_space_group_name_Hall           'P 2c -2n'
loop_
_symmetry_equiv_pos_site_id
_symmetry_equiv_pos_as_xyz
1 x,y,z
2 -x,-y,1/2+z
3 1/2+x,1/2-y,z
4 1/2-x,1/2+y,1/2+z
_cell_length_a                   16.772(2)
_cell_length_b                   12.2412(13)
_cell_length_c                   8.9805(12)
_cell_angle_alpha                90
_cell_angle_beta                 90
_cell_angle_gamma                90
_cell_volume                     1843.78
_cell_formula_units_Z            4
_exptl_crystal_recrystallization_method dichloromethane/hexane
loop_
_atom_site_label
_atom_site_type_symbol
_atom_site_fract_x
_atom_site_fract_y
_atom_site_fract_z
Br1 Br -0.02970(6) 0.00214(7) -0.69693(16)
S1 S 0.30727(12) -0.61725(17) -0.5284(3)
S2 S 0.10124(11) -0.49311(16) -1.24287(19)
O1 O 0.0626(3) -0.3685(4) -0.9452(5)
O2 O 0.1604(3) -0.4134(4) -0.7411(5)
O3 O 0.1661(3) -0.7831(4) -0.6394(5)
O4 O 0.1605(3) -0.7226(4) -0.9426(6)
C1 C 0.0119(5) -0.3458(6) -1.0723(9)
H1 H 0.0347 -0.2861 -1.1332
H2 H -0.0420 -0.3239 -1.0389
C2 C 0.0648(4) -0.2932(5) -0.8338(9)
C3 C 0.0220(4) -0.1981(6) -0.8322(9)
H3 H -0.0125 -0.1795 -0.9123
C4 C 0.0305(4) -0.1293(5) -0.7093(10)
C5 C 0.0808(5) -0.1535(6) -0.5947(10)
H5 H 0.0857 -0.1038 -0.5139
C6 C 0.1265(4) -0.2525(6) -0.5941(9)
H6 H 0.1605 -0.2710 -0.5134
C7 C 0.1185(4) -0.3198(5) -0.7174(8)
C8 C 0.2102(4) -0.4507(7) -0.6193(8)
H7 H 0.1777 -0.4662 -0.5298
H8 H 0.2509 -0.3952 -0.5939
C9 C 0.2490(4) -0.5537(5) -0.6769(10)
H9 H 0.2842 -0.5360 -0.7620
H10 H 0.2075 -0.6052 -0.7120
C10 C 0.2320(5) -0.7013(6) -0.4369(9)
H11 H 0.2501 -0.7176 -0.3343
H12 H 0.1819 -0.6589 -0.4296
C11 C 0.2152(5) -0.8060(6) -0.5146(10)
H13 H 0.2656 -0.8403 -0.5475
H14 H 0.1876 -0.8571 -0.4463
C12 C 0.1719(4) -0.8609(7) -0.7561(8)
H15 H 0.1511 -0.9326 -0.7229
H16 H 0.2282 -0.8701 -0.7870
C13 C 0.1235(4) -0.8181(6) -0.8816(8)
H17 H 0.1185 -0.8748 -0.9597
H18 H 0.0693 -0.7998 -0.8459
C14 C 0.1170(4) -0.6748(6) -1.0576(8)
H19 H 0.0606 -0.6663 -1.0270
H20 H 0.1186 -0.7222 -1.1468
C15 C 0.1521(4) -0.5642(6) -1.0942(7)
H21 H 0.2087 -0.5740 -1.1225
H22 H 0.1506 -0.5182 -1.0036
C16 C 0.0080(4) -0.4502(6) -1.1614(9)
H23 H -0.0315 -0.4406 -1.2423
H24 H -0.0117 -0.5093 -1.0957
Br2? Br 0.0797(3) -0.0659(4) -0.4527(6)
H4? H 0.0003 -0.0637 -0.7053
loop_
_geom_bond_atom_site_label_1
_geom_bond_atom_site_label_2
_geom_bond_site_symmetry_1
_geom_bond_site_symmetry_2
Br1 C4 1_555 1_555
S1 C9 1_555 1_555
S2 C15 1_555 1_555
O1 C1 1_555 1_555
O2 C7 1_555 1_555
O3 C11 1_555 1_555
O4 C13 1_555 1_555
C1 H1 1_555 1_555
H2 C1 1_555 1_555
C2 O1 1_555 1_555
C3 C2 1_555 1_555
H3 C3 1_555 1_555
C4 C3 1_555 1_555
C5 C4 1_555 1_555
H5 C5 1_555 1_555
C6 C5 1_555 1_555
H6 C6 1_555 1_555
C7 C2 1_555 1_555
C8 O2 1_555 1_555
H7 C8 1_555 1_555
H8 C8 1_555 1_555
C9 C8 1_555 1_555
H9 C9 1_555 1_555
H10 C9 1_555 1_555
C10 S1 1_555 1_555
H11 C10 1_555 1_555
H12 C10 1_555 1_555
C11 C10 1_555 1_555
H13 C11 1_555 1_555
H14 C11 1_555 1_555
C12 O3 1_555 1_555
H15 C12 1_555 1_555
H16 C12 1_555 1_555
C13 C12 1_555 1_555
H17 C13 1_555 1_555
H18 C13 1_555 1_555
C14 O4 1_555 1_555
H19 C14 1_555 1_555
H20 C14 1_555 1_555
C15 C14 1_555 1_555
H21 C15 1_555 1_555
H22 C15 1_555 1_555
C16 S2 1_555 1_555
H23 C16 1_555 1_555
H24 C16 1_555 1_555
C1 C16 1_555 1_555
C6 C7 1_555 1_555

#END
