
#######################################################################
#
#                 Cambridge Crystallographic Data Centre
#                                CCDC 
#
#######################################################################
#
# If this CIF has been generated from an entry in the Cambridge 
# Structural Database, then it will include bibliographic, chemical, 
# crystal, experimental, refinement or atomic coordinate data resulting 
# from the CCDC's data processing and validation procedures.
#
#######################################################################

data_QODWEM
_chemical_formula_moiety         'C18 H27 N1 O7 S2'
_chemical_name_systematic        
21-Nitro-2,3,5,6,8,9,11,12,14,15,17,18-dodecahydro-1,7,10,13,19,4,16-benzopentaoxadithiacyclohenicosine
_symmetry_cell_setting           orthorhombic
_symmetry_space_group_name_H-M   'P b c a'
_symmetry_Int_Tables_number      61
_space_group_name_Hall           '-P 2ac 2ab'
loop_
_symmetry_equiv_pos_site_id
_symmetry_equiv_pos_as_xyz
1 x,y,z
2 1/2-x,-y,1/2+z
3 -x,1/2+y,1/2-z
4 1/2+x,1/2-y,-z
5 -x,-y,-z
6 1/2+x,y,1/2-z
7 x,1/2-y,1/2+z
8 1/2-x,1/2+y,z
_cell_length_a                   8.1101(2)
_cell_length_b                   18.5248(5)
_cell_length_c                   27.3007(8)
_cell_angle_alpha                90
_cell_angle_beta                 90
_cell_angle_gamma                90
_cell_volume                     4101.6
_exptl_crystal_colour            yellow
_exptl_crystal_description       plate
_chemical_melting_point          69-71deg.C
_cell_formula_units_Z            8
_exptl_crystal_recrystallization_method dichloromethane/hexane
loop_
_atom_site_label
_atom_site_type_symbol
_atom_site_fract_x
_atom_site_fract_y
_atom_site_fract_z
S1 S 0.05419(7) 0.42794(3) 0.183196(19)
S2 S 0.32558(7) 0.05941(3) 0.052324(17)
O1 O 0.18880(18) 0.15931(7) 0.17662(5)
O2 O 0.04562(17) 0.26216(7) 0.22596(4)
O3 O 0.34788(18) 0.33392(8) 0.13061(5)
O4 O 0.67703(18) 0.31065(7) 0.09377(5)
O5 O 0.62466(18) 0.17300(7) 0.04894(5)
O6 O 0.3923(2) 0.05116(8) 0.37330(5)
O7 O 0.4463(2) -0.00119(8) 0.30378(5)
N1 N 0.3806(2) 0.04725(9) 0.32814(6)
C1 C 0.2733(3) 0.10465(10) 0.14824(7)
C2 C 0.1995(2) 0.15455(10) 0.22662(6)
C3 C 0.2812(3) 0.09994(10) 0.25136(7)
C4 C 0.2880(2) 0.10343(10) 0.30234(7)
C5 C 0.2136(3) 0.15733(11) 0.32917(7)
C6 C 0.1273(3) 0.21104(10) 0.30429(7)
C7 C 0.1215(2) 0.21065(10) 0.25336(7)
C8 C -0.0316(3) 0.32119(10) 0.25222(7)
C9 C -0.0984(3) 0.37378(11) 0.21529(8)
C10 C 0.0667(3) 0.38454(11) 0.12367(7)
C11 C 0.1800(3) 0.31967(11) 0.11992(8)
C12 C 0.4226(3) 0.38295(11) 0.09693(8)
C13 C 0.6066(3) 0.37979(11) 0.10363(8)
C14 C 0.6979(3) 0.29778(11) 0.04304(7)
C15 C 0.7531(3) 0.22102(12) 0.03515(8)
C16 C 0.6547(3) 0.10090(11) 0.03305(8)
C17 C 0.5470(3) 0.04931(11) 0.06135(7)
C18 C 0.2675(3) 0.13008(11) 0.09524(7)
H1 H 0.217(2) 0.0588(11) 0.1525(7)
H2 H 0.389(3) 0.1004(12) 0.1600(8)
H3 H 0.334(3) 0.0625(11) 0.2350(8)
H4 H 0.221(3) 0.1587(11) 0.3613(8)
H5 H 0.076(3) 0.2469(12) 0.3219(8)
H6 H 0.048(3) 0.3442(12) 0.2729(8)
H7 H -0.121(3) 0.3030(12) 0.2718(8)
H8 H -0.166(3) 0.3491(12) 0.1924(8)
H9 H -0.165(3) 0.4063(12) 0.2310(8)
H10 H 0.106(3) 0.4228(12) 0.1027(8)
H11 H -0.045(3) 0.3716(11) 0.1140(7)
H12 H 0.147(3) 0.2836(12) 0.1438(8)
H13 H 0.168(3) 0.2995(12) 0.0846(9)
H14 H 0.386(3) 0.4325(12) 0.1031(8)
H15 H 0.396(3) 0.3709(11) 0.0632(8)
H16 H 0.661(3) 0.4157(12) 0.0838(8)
H17 H 0.631(3) 0.3888(12) 0.1384(8)
H18 H 0.781(3) 0.3308(12) 0.0295(8)
H19 H 0.589(3) 0.3067(12) 0.0254(8)
H20 H 0.779(3) 0.2129(12) 0.0012(8)
H21 H 0.855(3) 0.2107(13) 0.0540(9)
H22 H 0.770(3) 0.0904(12) 0.0391(8)
H23 H 0.636(3) 0.0969(11) -0.0024(8)
H24 H 0.571(3) -0.0002(12) 0.0502(8)
H25 H 0.571(3) 0.0521(11) 0.0958(8)
H26 H 0.159(3) 0.1411(12) 0.0861(8)
H27 H 0.333(3) 0.1725(11) 0.0896(7)
loop_
_geom_bond_atom_site_label_1
_geom_bond_atom_site_label_2
_geom_bond_site_symmetry_1
_geom_bond_site_symmetry_2
S1 C9 1_555 1_555
S2 C17 1_555 1_555
O1 C1 1_555 1_555
O2 C7 1_555 1_555
O3 C11 1_555 1_555
O4 C13 1_555 1_555
O5 C15 1_555 1_555
O6 N1 1_555 1_555
O7 N1 1_555 1_555
N1 C4 1_555 1_555
C1 C18 1_555 1_555
C2 O1 1_555 1_555
C3 C2 1_555 1_555
C4 C3 1_555 1_555
C5 C4 1_555 1_555
C6 C5 1_555 1_555
C7 C2 1_555 1_555
C8 O2 1_555 1_555
C9 C8 1_555 1_555
C10 S1 1_555 1_555
C11 C10 1_555 1_555
C12 O3 1_555 1_555
C13 C12 1_555 1_555
C14 O4 1_555 1_555
C15 C14 1_555 1_555
C16 O5 1_555 1_555
C17 C16 1_555 1_555
C18 S2 1_555 1_555
H1 C1 1_555 1_555
H2 C1 1_555 1_555
H3 C3 1_555 1_555
H4 C5 1_555 1_555
H5 C6 1_555 1_555
H6 C8 1_555 1_555
H7 C8 1_555 1_555
H8 C9 1_555 1_555
H9 C9 1_555 1_555
H10 C10 1_555 1_555
H11 C10 1_555 1_555
H12 C11 1_555 1_555
H13 C11 1_555 1_555
H14 C12 1_555 1_555
H15 C12 1_555 1_555
H16 C13 1_555 1_555
H17 C13 1_555 1_555
H18 C14 1_555 1_555
H19 C14 1_555 1_555
H20 C15 1_555 1_555
H21 C15 1_555 1_555
H22 C16 1_555 1_555
H23 C16 1_555 1_555
H24 C17 1_555 1_555
H25 C17 1_555 1_555
H26 C18 1_555 1_555
H27 C18 1_555 1_555
C6 C7 1_555 1_555

#END
