
#######################################################################
#
#                 Cambridge Crystallographic Data Centre
#                                CCDC 
#
#######################################################################
#
# If this CIF has been generated from an entry in the Cambridge 
# Structural Database, then it will include bibliographic, chemical, 
# crystal, experimental, refinement or atomic coordinate data resulting 
# from the CCDC's data processing and validation procedures.
#
#######################################################################

data_QODXIS
_chemical_formula_moiety         'C19 H22 Br1 N1 Se1'
_chemical_name_systematic        
1-bromo-2-(2,6-diisopropylphenyl)-1H-1,2-benzoselenazole
_symmetry_cell_setting           orthorhombic
_symmetry_space_group_name_H-M   'P b c a'
_symmetry_Int_Tables_number      61
_space_group_name_Hall           '-P 2ac 2ab'
loop_
_symmetry_equiv_pos_site_id
_symmetry_equiv_pos_as_xyz
1 x,y,z
2 1/2-x,-y,1/2+z
3 -x,1/2+y,1/2-z
4 1/2+x,1/2-y,-z
5 -x,-y,-z
6 1/2+x,y,1/2-z
7 x,1/2-y,1/2+z
8 1/2-x,1/2+y,z
_cell_length_a                   9.5735(5)
_cell_length_b                   16.5118(9)
_cell_length_c                   23.4372(13)
_cell_angle_alpha                90
_cell_angle_beta                 90
_cell_angle_gamma                90
_cell_volume                     3704.85
_exptl_crystal_colour            'pale yellow'
_exptl_crystal_description       block
_cell_formula_units_Z            8
loop_
_atom_site_label
_atom_site_type_symbol
_atom_site_fract_x
_atom_site_fract_y
_atom_site_fract_z
Se1 Se 0.58322(3) 0.192776(16) 0.618180(11)
Br1 Br 0.56603(3) 0.032420(17) 0.639890(14)
N1 N 0.6088(2) 0.30931(13) 0.60075(9)
C1 C 0.7405(3) 0.21007(15) 0.66536(11)
C2 C 0.8061(3) 0.15425(17) 0.70098(12)
H1 H 0.7713 0.1006 0.7042
C3 C 0.9214(3) 0.17790(19) 0.73137(13)
H2 H 0.9657 0.1400 0.7559
C4 C 0.9753(3) 0.25577(18) 0.72724(12)
H3 H 1.0566 0.2701 0.7482
C5 C 0.9115(3) 0.31188(18) 0.69313(12)
H4 H 0.9475 0.3654 0.6904
C6 C 0.7924(3) 0.28946(15) 0.66227(11)
C7 C 0.7154(3) 0.34194(16) 0.62570(11)
H5 H 0.7405 0.3970 0.6200
C8 C 0.5112(3) 0.35297(15) 0.56519(12)
C9 C 0.5161(3) 0.34116(17) 0.50638(12)
C10 C 0.4201(3) 0.38470(18) 0.47378(13)
H6 H 0.4208 0.3790 0.4335
C11 C 0.3245(3) 0.43576(18) 0.49877(14)
H7 H 0.2609 0.4652 0.4755
C12 C 0.3202(3) 0.44468(17) 0.55731(13)
H8 H 0.2528 0.4797 0.5740
C13 C 0.4135(3) 0.40289(16) 0.59235(13)
C14 C 0.4045(3) 0.41135(18) 0.65686(12)
H9 H 0.4671 0.3693 0.6738
C15 C 0.2583(4) 0.3953(3) 0.67876(15)
H10 H 0.2561 0.4029 0.7202
H11 H 0.2313 0.3396 0.6695
H12 H 0.1928 0.4331 0.6607
C16 C 0.4582(6) 0.4929(3) 0.67612(17)
H13 H 0.5487 0.5037 0.6581
H14 H 0.4691 0.4929 0.7177
H15 H 0.3915 0.5351 0.6650
C17 C 0.6155(3) 0.28144(18) 0.47822(13)
H16 H 0.6853 0.2641 0.5075
C18 C 0.5337(4) 0.2060(2) 0.45948(16)
H17 H 0.5980 0.1667 0.4425
H18 H 0.4630 0.2216 0.4313
H19 H 0.4878 0.1818 0.4927
C19 C 0.6952(4) 0.3177(2) 0.42854(17)
H20 H 0.7472 0.3653 0.4416
H21 H 0.6293 0.3338 0.3986
H22 H 0.7605 0.2775 0.4133
loop_
_geom_bond_atom_site_label_1
_geom_bond_atom_site_label_2
_geom_bond_site_symmetry_1
_geom_bond_site_symmetry_2
Se1 Br1 1_555 1_555
N1 Se1 1_555 1_555
C1 Se1 1_555 1_555
C2 C1 1_555 1_555
H1 C2 1_555 1_555
C3 C2 1_555 1_555
H2 C3 1_555 1_555
C4 C3 1_555 1_555
H3 C4 1_555 1_555
C5 C4 1_555 1_555
H4 C5 1_555 1_555
C6 C1 1_555 1_555
C7 N1 1_555 1_555
H5 C7 1_555 1_555
C8 N1 1_555 1_555
C9 C8 1_555 1_555
C10 C9 1_555 1_555
H6 C10 1_555 1_555
C11 C10 1_555 1_555
H7 C11 1_555 1_555
C12 C11 1_555 1_555
H8 C12 1_555 1_555
C13 C8 1_555 1_555
C14 C13 1_555 1_555
H9 C14 1_555 1_555
C15 C14 1_555 1_555
H10 C15 1_555 1_555
H11 C15 1_555 1_555
H12 C15 1_555 1_555
C16 C14 1_555 1_555
H13 C16 1_555 1_555
H14 C16 1_555 1_555
H15 C16 1_555 1_555
C17 C9 1_555 1_555
H16 C17 1_555 1_555
C18 C17 1_555 1_555
H17 C18 1_555 1_555
H18 C18 1_555 1_555
H19 C18 1_555 1_555
C19 C17 1_555 1_555
H20 C19 1_555 1_555
H21 C19 1_555 1_555
H22 C19 1_555 1_555
C5 C6 1_555 1_555
C6 C7 1_555 1_555
C12 C13 1_555 1_555

#END
