
#######################################################################
#
#                 Cambridge Crystallographic Data Centre
#                                CCDC 
#
#######################################################################
#
# If this CIF has been generated from an entry in the Cambridge 
# Structural Database, then it will include bibliographic, chemical, 
# crystal, experimental, refinement or atomic coordinate data resulting 
# from the CCDC's data processing and validation procedures.
#
#######################################################################

data_QODXUE
_chemical_formula_moiety         'C20 H22 N2 Se2'
_chemical_name_systematic        
1-(cyanoselanyl)-2-(2,6-diisopropylphenyl)-1H-1,2-benzoselenazole
_symmetry_cell_setting           monoclinic
_symmetry_space_group_name_H-M   'P 21/c'
_symmetry_Int_Tables_number      14
_space_group_name_Hall           '-P 2ybc'
loop_
_symmetry_equiv_pos_site_id
_symmetry_equiv_pos_as_xyz
1 x,y,z
2 -x,1/2+y,1/2-z
3 -x,-y,-z
4 x,1/2-y,1/2+z
_cell_length_a                   10.0205(6)
_cell_length_b                   11.4514(8)
_cell_length_c                   16.4769(12)
_cell_angle_alpha                90
_cell_angle_beta                 97.148(6)
_cell_angle_gamma                90
_cell_volume                     1876.01
_exptl_crystal_colour            yellow
_exptl_crystal_description       block
_cell_formula_units_Z            4
loop_
_atom_site_label
_atom_site_type_symbol
_atom_site_fract_x
_atom_site_fract_y
_atom_site_fract_z
Se1 Se 0.49035(3) 0.69800(2) 0.557884(15)
Se2 Se 0.71165(3) 0.59381(2) 0.530405(16)
N1 N 0.2983(2) 0.76838(18) 0.56937(12)
N2 N 0.9105(3) 0.6721(2) 0.66889(16)
C1 C 0.4269(3) 0.5803(2) 0.62641(14)
C2 C 0.4933(3) 0.4774(2) 0.65208(15)
H1 H 0.5802 0.4612 0.6373
C3 C 0.4315(3) 0.3990(2) 0.69922(16)
H2 H 0.4769 0.3288 0.7166
C4 C 0.3051(3) 0.4205(2) 0.72170(16)
H3 H 0.2649 0.3658 0.7546
C5 C 0.2378(3) 0.5216(2) 0.69615(15)
H4 H 0.1508 0.5367 0.7109
C6 C 0.2987(3) 0.6019(2) 0.64827(14)
C7 C 0.2313(3) 0.7051(2) 0.61403(14)
H5 H 0.1427 0.7250 0.6240
C8 C 0.2414(3) 0.8631(2) 0.51928(14)
C9 C 0.1703(3) 0.8343(2) 0.44288(15)
C10 C 0.1134(3) 0.9265(2) 0.39540(16)
H6 H 0.0619 0.9102 0.3443
C11 C 0.1301(3) 1.0411(2) 0.42090(17)
H7 H 0.0897 1.1025 0.3877
C12 C 0.2058(3) 1.0665(2) 0.49487(17)
H8 H 0.2186 1.1457 0.5112
C13 C 0.2636(3) 0.9782(2) 0.54599(15)
C14 C 0.3480(3) 1.0085(2) 0.62619(16)
H9 H 0.3743 0.9337 0.6552
C15 C 0.2678(4) 1.0802(3) 0.68103(18)
H10 H 0.1859 1.0377 0.6898
H11 H 0.2433 1.1553 0.6548
H12 H 0.3225 1.0938 0.7337
C16 C 0.4762(4) 1.0718(3) 0.6120(2)
H13 H 0.5296 1.0219 0.5800
H14 H 0.5284 1.0900 0.6648
H15 H 0.4532 1.1444 0.5820
C17 C 0.1533(3) 0.7094(2) 0.41334(15)
H16 H 0.2243 0.6617 0.4460
C18 C 0.0174(3) 0.6604(3) 0.4290(2)
H17 H 0.0060 0.6711 0.4867
H18 H 0.0135 0.5770 0.4156
H19 H -0.0545 0.7016 0.3947
C19 C 0.1731(4) 0.6961(3) 0.32355(17)
H20 H 0.2599 0.7298 0.3145
H21 H 0.1006 0.7369 0.2894
H22 H 0.1715 0.6131 0.3090
C20 C 0.8303(3) 0.6436(2) 0.61688(17)
loop_
_geom_bond_atom_site_label_1
_geom_bond_atom_site_label_2
_geom_bond_site_symmetry_1
_geom_bond_site_symmetry_2
Se1 Se2 1_555 1_555
Se2 C20 1_555 1_555
N1 Se1 1_555 1_555
N2 C20 1_555 1_555
C1 Se1 1_555 1_555
C2 C1 1_555 1_555
H1 C2 1_555 1_555
C3 C2 1_555 1_555
H2 C3 1_555 1_555
C4 C3 1_555 1_555
H3 C4 1_555 1_555
C5 C4 1_555 1_555
H4 C5 1_555 1_555
C6 C1 1_555 1_555
C7 N1 1_555 1_555
H5 C7 1_555 1_555
C8 N1 1_555 1_555
C9 C8 1_555 1_555
C10 C9 1_555 1_555
H6 C10 1_555 1_555
C11 C10 1_555 1_555
H7 C11 1_555 1_555
C12 C11 1_555 1_555
H8 C12 1_555 1_555
C13 C8 1_555 1_555
C14 C13 1_555 1_555
H9 C14 1_555 1_555
C15 C14 1_555 1_555
H10 C15 1_555 1_555
H11 C15 1_555 1_555
H12 C15 1_555 1_555
C16 C14 1_555 1_555
H13 C16 1_555 1_555
H14 C16 1_555 1_555
H15 C16 1_555 1_555
C17 C9 1_555 1_555
H16 C17 1_555 1_555
C18 C17 1_555 1_555
H17 C18 1_555 1_555
H18 C18 1_555 1_555
H19 C18 1_555 1_555
C19 C17 1_555 1_555
H20 C19 1_555 1_555
H21 C19 1_555 1_555
H22 C19 1_555 1_555
C5 C6 1_555 1_555
C6 C7 1_555 1_555
C12 C13 1_555 1_555

#END
