
#######################################################################
#
#                 Cambridge Crystallographic Data Centre
#                                CCDC 
#
#######################################################################
#
# If this CIF has been generated from an entry in the Cambridge 
# Structural Database, then it will include bibliographic, chemical, 
# crystal, experimental, refinement or atomic coordinate data resulting 
# from the CCDC's data processing and validation procedures.
#
#######################################################################

data_QODXAK
_chemical_formula_moiety         'C29 H29 N1 O5'
_chemical_name_systematic        
2-(5,6-dimethoxy-2-(4-methoxyphenyl)-3,3a,8,8a-tetrahydroindeno[2,1-b]pyrrol-8-yl)-1-(4-methoxyphenyl)ethanone
_symmetry_cell_setting           monoclinic
_symmetry_space_group_name_H-M   'P 21'
_symmetry_Int_Tables_number      4
_space_group_name_Hall           'P 2yb'
loop_
_symmetry_equiv_pos_site_id
_symmetry_equiv_pos_as_xyz
1 x,y,z
2 -x,1/2+y,-z
_cell_length_a                   12.8630(3)
_cell_length_b                   6.02461(13)
_cell_length_c                   15.3155(3)
_cell_angle_alpha                90
_cell_angle_beta                 103.115(2)
_cell_angle_gamma                90
_cell_volume                     1155.91
_exptl_crystal_colour            colorless
_cell_formula_units_Z            2
loop_
_atom_site_label
_atom_site_type_symbol
_atom_site_fract_x
_atom_site_fract_y
_atom_site_fract_z
O1 O -0.02502(8) 0.50593(18) 0.64005(7)
O2 O 0.05469(9) 0.86448(19) 0.71580(7)
O3 O 0.43881(9) 1.08822(19) 0.71772(7)
O4 O 0.69890(9) 0.8055(2) 1.10395(7)
O5 O 0.13254(9) 0.6363(2) 0.01357(7)
N1 N 0.35942(10) 0.6396(2) 0.43018(8)
C1 C 0.29350(12) 0.5012(2) 0.38421(9)
C2 C 0.26669(12) 0.3014(3) 0.43497(9)
H1 H 0.3012 0.1680 0.4201
H2 H 0.1903 0.2770 0.4235
C3 C 0.31239(12) 0.3734(2) 0.53213(9)
H3 H 0.3468 0.2498 0.5693
C4 C 0.23449(12) 0.4960(2) 0.57555(9)
C5 C 0.13328(12) 0.4246(2) 0.58278(9)
H4 H 0.1058 0.2906 0.5574
C6 C 0.07456(12) 0.5558(2) 0.62827(9)
C7 C 0.11820(12) 0.7567(2) 0.66846(9)
C8 C 0.21718(11) 0.8300(2) 0.65820(9)
H5 H 0.2446 0.9649 0.6826
C9 C 0.27497(11) 0.6982(2) 0.61073(9)
C10 C 0.38527(11) 0.7396(2) 0.59277(9)
H6 H 0.3877 0.8868 0.5661
C11 C 0.39312(12) 0.5576(2) 0.52348(9)
H7 H 0.4657 0.4974 0.5347
C12 C -0.07966(12) 0.3271(3) 0.58795(11)
H8 H -0.0805 0.3513 0.5258
H9 H -0.1516 0.3197 0.5956
H10 H -0.0436 0.1902 0.6074
C13 C 0.10118(13) 1.0416(3) 0.77255(11)
H11 H 0.1644 0.9898 0.8136
H12 H 0.0511 1.0947 0.8056
H13 H 0.1195 1.1600 0.7368
C14 C 0.24706(12) 0.5340(3) 0.28753(9)
C15 C 0.18700(13) 0.3687(3) 0.23605(10)
H14 H 0.1733 0.2375 0.2634
C16 C 0.14683(13) 0.3958(3) 0.14419(10)
H15 H 0.1080 0.2823 0.1106
C17 C 0.16502(12) 0.5922(3) 0.10328(10)
C18 C 0.22037(14) 0.7629(3) 0.15492(10)
H16 H 0.2294 0.8981 0.1282
C19 C 0.26202(13) 0.7333(3) 0.24546(10)
H17 H 0.3005 0.8474 0.2789
C20 C 0.07522(15) 0.4669(3) -0.04235(11)
H18 H 0.1182 0.3352 -0.0373
H19 H 0.0585 0.5166 -0.1035
H20 H 0.0103 0.4347 -0.0239
C21 C 0.47457(11) 0.7181(3) 0.67781(9)
H21 H 0.4639 0.5820 0.7085
H22 H 0.5424 0.7059 0.6605
C22 C 0.48056(11) 0.9107(2) 0.74265(10)
C23 C 0.53993(11) 0.8805(3) 0.83740(9)
C24 C 0.59349(12) 0.6848(3) 0.86988(10)
H23 H 0.5938 0.5659 0.8312
C25 C 0.64605(12) 0.6665(3) 0.95899(10)
H24 H 0.6813 0.5354 0.9798
C26 C 0.64659(12) 0.8423(3) 1.01762(10)
C27 C 0.59430(12) 1.0391(3) 0.98656(10)
H25 H 0.5943 1.1579 1.0254
C28 C 0.54227(12) 1.0557(3) 0.89712(10)
H26 H 0.5079 1.1877 0.8764
C29 C 0.70260(15) 0.9827(3) 1.16653(11)
H27 H 0.7407 1.1059 1.1491
H28 H 0.7384 0.9333 1.2253
H29 H 0.6312 1.0279 1.1673
loop_
_geom_bond_atom_site_label_1
_geom_bond_atom_site_label_2
_geom_bond_site_symmetry_1
_geom_bond_site_symmetry_2
O1 C6 1_555 1_555
O2 C7 1_555 1_555
O3 C22 1_555 1_555
O4 C26 1_555 1_555
O5 C17 1_555 1_555
N1 C1 1_555 1_555
C1 C2 1_555 1_555
C2 H1 1_555 1_555
H2 C2 1_555 1_555
C3 C2 1_555 1_555
H3 C3 1_555 1_555
C4 C3 1_555 1_555
C5 C4 1_555 1_555
H4 C5 1_555 1_555
C6 C5 1_555 1_555
C7 C6 1_555 1_555
C8 C7 1_555 1_555
H5 C8 1_555 1_555
C9 C4 1_555 1_555
C10 C9 1_555 1_555
H6 C10 1_555 1_555
C11 N1 1_555 1_555
H7 C11 1_555 1_555
C12 O1 1_555 1_555
H8 C12 1_555 1_555
H9 C12 1_555 1_555
H10 C12 1_555 1_555
C13 O2 1_555 1_555
H11 C13 1_555 1_555
H12 C13 1_555 1_555
H13 C13 1_555 1_555
C14 C1 1_555 1_555
C15 C14 1_555 1_555
H14 C15 1_555 1_555
C16 C15 1_555 1_555
H15 C16 1_555 1_555
C17 C16 1_555 1_555
C18 C17 1_555 1_555
H16 C18 1_555 1_555
C19 C14 1_555 1_555
H17 C19 1_555 1_555
C20 O5 1_555 1_555
H18 C20 1_555 1_555
H19 C20 1_555 1_555
H20 C20 1_555 1_555
C21 C10 1_555 1_555
H21 C21 1_555 1_555
H22 C21 1_555 1_555
C22 C21 1_555 1_555
C23 C22 1_555 1_555
C24 C23 1_555 1_555
H23 C24 1_555 1_555
C25 C24 1_555 1_555
H24 C25 1_555 1_555
C26 C25 1_555 1_555
C27 C26 1_555 1_555
H25 C27 1_555 1_555
C28 C23 1_555 1_555
H26 C28 1_555 1_555
C29 O4 1_555 1_555
H27 C29 1_555 1_555
H28 C29 1_555 1_555
H29 C29 1_555 1_555
C3 C11 1_555 1_555
C8 C9 1_555 1_555
C10 C11 1_555 1_555
C18 C19 1_555 1_555
C27 C28 1_555 1_555

#END
