
#######################################################################
#
#                 Cambridge Crystallographic Data Centre
#                                CCDC 
#
#######################################################################
#
# If this CIF has been generated from an entry in the Cambridge 
# Structural Database, then it will include bibliographic, chemical, 
# crystal, experimental, refinement or atomic coordinate data resulting 
# from the CCDC's data processing and validation procedures.
#
#######################################################################

data_QODXEO
_chemical_formula_moiety         'C38 H44 N2 Se1'
_chemical_name_systematic        
(selanyldi-2,1-phenylene)bis(N-(2,6-diisopropylphenyl)methanimine)
_symmetry_cell_setting           triclinic
_symmetry_space_group_name_H-M   'P -1'
_symmetry_Int_Tables_number      2
_space_group_name_Hall           '-P 1'
loop_
_symmetry_equiv_pos_site_id
_symmetry_equiv_pos_as_xyz
1 x,y,z
2 -x,-y,-z
_cell_length_a                   9.6138(3)
_cell_length_b                   11.1782(5)
_cell_length_c                   17.0830(7)
_cell_angle_alpha                89.666(3)
_cell_angle_beta                 75.815(3)
_cell_angle_gamma                65.343(3)
_cell_volume                     1607.85
_exptl_crystal_colour            colorless
_exptl_crystal_description       prism
_cell_formula_units_Z            2
loop_
_atom_site_label
_atom_site_type_symbol
_atom_site_fract_x
_atom_site_fract_y
_atom_site_fract_z
Se1 Se 0.197558(19) 0.254791(17) 0.847419(10)
N1 N 0.44061(17) 0.48979(14) 0.89082(8)
C1 C 0.18225(18) 0.32571(16) 0.95341(9)
C2 C 0.0995(2) 0.29185(17) 1.02237(11)
H1 H 0.0472 0.2379 1.0168
C3 C 0.0938(2) 0.33715(19) 1.09917(11)
H2 H 0.0345 0.3166 1.1460
C4 C 0.1744(2) 0.41248(18) 1.10783(10)
H3 H 0.1744 0.4397 1.1604
C5 C 0.2549(2) 0.44774(17) 1.03956(10)
H4 H 0.3091 0.4999 1.0455
C6 C 0.25666(18) 0.40697(15) 0.96182(10)
C7 C 0.33085(19) 0.45529(16) 0.89034(10)
H5 H 0.2953 0.4607 0.8427
C8 C 0.4930(2) 0.55212(17) 0.82413(10)
C9 C 0.4223(2) 0.69123(18) 0.83098(11)
C10 C 0.4890(2) 0.75350(19) 0.77256(12)
H6 H 0.4449 0.8475 0.7769
C11 C 0.6188(3) 0.6802(2) 0.70825(12)
H7 H 0.6652 0.7239 0.6699
C12 C 0.6808(2) 0.5433(2) 0.69990(11)
H8 H 0.7669 0.4941 0.6543
C13 C 0.6194(2) 0.47614(18) 0.75717(10)
C14 C 0.2789(2) 0.77203(18) 0.90144(11)
H9 H 0.2239 0.7145 0.9209
C15 C 0.3309(3) 0.8059(3) 0.97155(15)
H10 H 0.2374 0.8543 1.0170
H11 H 0.3872 0.8612 0.9544
H12 H 0.4017 0.7242 0.9887
C16 C 0.1591(3) 0.8952(2) 0.87597(16)
H13 H 0.0627 0.9361 0.9210
H14 H 0.1324 0.8701 0.8287
H15 H 0.2052 0.9584 0.8619
C17 C 0.6897(2) 0.32564(18) 0.74752(11)
H16 H 0.6071 0.2988 0.7792
C18 C 0.8334(3) 0.2670(2) 0.78240(16)
H17 H 0.8024 0.3034 0.8393
H18 H 0.9176 0.2896 0.7512
H19 H 0.8725 0.1705 0.7791
C19 C 0.7347(3) 0.2698(2) 0.65853(13)
H20 H 0.6450 0.3159 0.6354
H21 H 0.7609 0.1750 0.6556
H22 H 0.8269 0.2827 0.6278
N2 N 0.29347(17) 0.16505(14) 0.68160(8)
C20 C 0.41734(19) 0.12869(16) 0.82471(10)
C21 C 0.4908(2) 0.08879(18) 0.88741(11)
H23 H 0.4319 0.1242 0.9419
C22 C 0.6490(2) -0.00208(19) 0.87115(11)
H24 H 0.6967 -0.0289 0.9147
C23 C 0.7380(2) -0.05393(18) 0.79225(12)
H25 H 0.8465 -0.1153 0.7812
C24 C 0.6663(2) -0.01499(17) 0.72965(11)
H26 H 0.7270 -0.0498 0.6753
C25 C 0.5065(2) 0.07442(16) 0.74453(10)
C26 C 0.4408(2) 0.10356(17) 0.67441(10)
H27 H 0.5114 0.0752 0.6215
C27 C 0.23858(19) 0.18506(17) 0.61000(10)
C28 C 0.20743(19) 0.08551(17) 0.57845(10)
C29 C 0.1468(2) 0.10898(19) 0.51061(10)
H28 H 0.1261 0.0430 0.4876
C30 C 0.1163(2) 0.22660(19) 0.47645(10)
H29 H 0.0731 0.2415 0.4310
C31 C 0.1487(2) 0.32315(18) 0.50826(11)
H30 H 0.1282 0.4032 0.4838
C32 C 0.2109(2) 0.30483(18) 0.57549(10)
C33 C 0.2439(2) -0.04541(18) 0.61495(11)
H31 H 0.2557 -0.0321 0.6704
C34 C 0.1127(3) -0.0912(2) 0.62470(16)
H32 H 0.1367 -0.1691 0.6548
H33 H 0.1057 -0.1142 0.5710
H34 H 0.0112 -0.0198 0.6546
C35 C 0.4004(3) -0.1518(2) 0.56536(15)
H35 H 0.4267 -0.2331 0.5922
H36 H 0.4842 -0.1219 0.5607
H37 H 0.3916 -0.1694 0.5111
C36 C 0.2476(2) 0.41014(19) 0.61052(12)
H38 H 0.3384 0.3638 0.6348
C37 C 0.2966(3) 0.4922(2) 0.54660(15)
H39 H 0.3831 0.4327 0.5014
H40 H 0.3326 0.5492 0.5712
H41 H 0.2054 0.5471 0.5264
C38 C 0.1055(3) 0.5018(2) 0.67848(13)
H42 H 0.0775 0.4492 0.7203
H43 H 0.0149 0.5495 0.6562
H44 H 0.1330 0.5655 0.7026
loop_
_geom_bond_atom_site_label_1
_geom_bond_atom_site_label_2
_geom_bond_site_symmetry_1
_geom_bond_site_symmetry_2
Se1 C1 1_555 1_555
N1 C7 1_555 1_555
C1 C2 1_555 1_555
C2 H1 1_555 1_555
C3 C2 1_555 1_555
H2 C3 1_555 1_555
C4 C3 1_555 1_555
H3 C4 1_555 1_555
C5 C4 1_555 1_555
H4 C5 1_555 1_555
C6 C1 1_555 1_555
C7 C6 1_555 1_555
H5 C7 1_555 1_555
C8 N1 1_555 1_555
C9 C8 1_555 1_555
C10 C9 1_555 1_555
H6 C10 1_555 1_555
C11 C10 1_555 1_555
H7 C11 1_555 1_555
C12 C11 1_555 1_555
H8 C12 1_555 1_555
C13 C8 1_555 1_555
C14 C9 1_555 1_555
H9 C14 1_555 1_555
C15 C14 1_555 1_555
H10 C15 1_555 1_555
H11 C15 1_555 1_555
H12 C15 1_555 1_555
C16 C14 1_555 1_555
H13 C16 1_555 1_555
H14 C16 1_555 1_555
H15 C16 1_555 1_555
C17 C13 1_555 1_555
H16 C17 1_555 1_555
C18 C17 1_555 1_555
H17 C18 1_555 1_555
H18 C18 1_555 1_555
H19 C18 1_555 1_555
C19 C17 1_555 1_555
H20 C19 1_555 1_555
H21 C19 1_555 1_555
H22 C19 1_555 1_555
N2 C26 1_555 1_555
C20 Se1 1_555 1_555
C21 C20 1_555 1_555
H23 C21 1_555 1_555
C22 C21 1_555 1_555
H24 C22 1_555 1_555
C23 C22 1_555 1_555
H25 C23 1_555 1_555
C24 C23 1_555 1_555
H26 C24 1_555 1_555
C25 C20 1_555 1_555
C26 C25 1_555 1_555
H27 C26 1_555 1_555
C27 N2 1_555 1_555
C28 C27 1_555 1_555
C29 C28 1_555 1_555
H28 C29 1_555 1_555
C30 C29 1_555 1_555
H29 C30 1_555 1_555
C31 C30 1_555 1_555
H30 C31 1_555 1_555
C32 C27 1_555 1_555
C33 C28 1_555 1_555
H31 C33 1_555 1_555
C34 C33 1_555 1_555
H32 C34 1_555 1_555
H33 C34 1_555 1_555
H34 C34 1_555 1_555
C35 C33 1_555 1_555
H35 C35 1_555 1_555
H36 C35 1_555 1_555
H37 C35 1_555 1_555
C36 C32 1_555 1_555
H38 C36 1_555 1_555
C37 C36 1_555 1_555
H39 C37 1_555 1_555
H40 C37 1_555 1_555
H41 C37 1_555 1_555
C38 C36 1_555 1_555
H42 C38 1_555 1_555
H43 C38 1_555 1_555
H44 C38 1_555 1_555
C5 C6 1_555 1_555
C12 C13 1_555 1_555
C24 C25 1_555 1_555
C31 C32 1_555 1_555

#END
