
#######################################################################
#
#                 Cambridge Crystallographic Data Centre
#                                CCDC 
#
#######################################################################
#
# If this CIF has been generated from an entry in the Cambridge 
# Structural Database, then it will include bibliographic, chemical, 
# crystal, experimental, refinement or atomic coordinate data resulting 
# from the CCDC's data processing and validation procedures.
#
#######################################################################

data_QODXOY
_chemical_formula_moiety         'C19 H22 I1 N1 Se1'
_chemical_name_systematic        
2-(2,6-diisopropylphenyl)-1-iodo-1H-1,2-benzoselenazole
_symmetry_cell_setting           orthorhombic
_symmetry_space_group_name_H-M   'P b c a'
_symmetry_Int_Tables_number      61
_space_group_name_Hall           '-P 2ac 2ab'
loop_
_symmetry_equiv_pos_site_id
_symmetry_equiv_pos_as_xyz
1 x,y,z
2 1/2-x,-y,1/2+z
3 -x,1/2+y,1/2-z
4 1/2+x,1/2-y,-z
5 -x,-y,-z
6 1/2+x,y,1/2-z
7 x,1/2-y,1/2+z
8 1/2-x,1/2+y,z
_cell_length_a                   9.5672(2)
_cell_length_b                   17.2716(2)
_cell_length_c                   23.5022(5)
_cell_angle_alpha                90
_cell_angle_beta                 90
_cell_angle_gamma                90
_cell_volume                     3883.52
_exptl_crystal_colour            yellow
_exptl_crystal_description       block
_cell_formula_units_Z            8
loop_
_atom_site_label
_atom_site_type_symbol
_atom_site_fract_x
_atom_site_fract_y
_atom_site_fract_z
Se1 Se 0.40800(2) 0.199541(12) 0.617844(10)
I1 I 0.442540(18) 0.034953(9) 0.638537(8)
N1 N 0.37900(19) 0.31185(10) 0.60095(8)
C1 C 0.2475(2) 0.21385(12) 0.66391(9)
C2 C 0.1812(3) 0.15947(13) 0.69813(11)
H1 H 0.2161 0.1081 0.7007
C3 C 0.0638(3) 0.18119(15) 0.72830(12)
H2 H 0.0189 0.1442 0.7520
C4 C 0.0096(3) 0.25555(15) 0.72505(11)
H3 H -0.0727 0.2685 0.7456
C5 C 0.0748(2) 0.31052(14) 0.69218(11)
H4 H 0.0387 0.3617 0.6901
C6 C 0.1954(2) 0.29008(12) 0.66169(10)
C7 C 0.2719(2) 0.34161(13) 0.62597(10)
H5 H 0.2457 0.3942 0.6210
C8 C 0.4766(2) 0.35389(12) 0.56578(10)
C9 C 0.4722(2) 0.34295(14) 0.50706(11)
C10 C 0.5694(3) 0.38372(15) 0.47446(12)
H6 H 0.5692 0.3781 0.4343
C11 C 0.6654(3) 0.43201(15) 0.49984(12)
H7 H 0.7308 0.4593 0.4770
C12 C 0.6677(3) 0.44111(14) 0.55811(12)
H8 H 0.7344 0.4749 0.5748
C13 C 0.5742(2) 0.40173(13) 0.59299(11)
C14 C 0.5813(3) 0.41091(14) 0.65719(11)
H9 H 0.5140 0.3731 0.6742
C15 C 0.5349(5) 0.4915(2) 0.67499(17)
H10 H 0.4437 0.5030 0.6580
H11 H 0.6037 0.5296 0.6619
H12 H 0.5275 0.4938 0.7165
C16 C 0.7248(3) 0.3918(2) 0.67994(15)
H13 H 0.7259 0.3989 0.7213
H14 H 0.7941 0.4261 0.6624
H15 H 0.7476 0.3378 0.6709
C17 C 0.3699(3) 0.28778(16) 0.47866(12)
H16 H 0.3012 0.2706 0.5081
C18 C 0.4480(4) 0.2156(2) 0.45721(17)
H17 H 0.4947 0.1901 0.4893
H18 H 0.5178 0.2310 0.4289
H19 H 0.3812 0.1797 0.4398
C19 C 0.2891(4) 0.3254(3) 0.43090(18)
H20 H 0.2369 0.3699 0.4457
H21 H 0.2236 0.2878 0.4146
H22 H 0.3542 0.3429 0.4014
loop_
_geom_bond_atom_site_label_1
_geom_bond_atom_site_label_2
_geom_bond_site_symmetry_1
_geom_bond_site_symmetry_2
Se1 I1 1_555 1_555
N1 Se1 1_555 1_555
C1 Se1 1_555 1_555
C2 C1 1_555 1_555
H1 C2 1_555 1_555
C3 C2 1_555 1_555
H2 C3 1_555 1_555
C4 C3 1_555 1_555
H3 C4 1_555 1_555
C5 C4 1_555 1_555
H4 C5 1_555 1_555
C6 C1 1_555 1_555
C7 N1 1_555 1_555
H5 C7 1_555 1_555
C8 N1 1_555 1_555
C9 C8 1_555 1_555
C10 C9 1_555 1_555
H6 C10 1_555 1_555
C11 C10 1_555 1_555
H7 C11 1_555 1_555
C12 C11 1_555 1_555
H8 C12 1_555 1_555
C13 C8 1_555 1_555
C14 C13 1_555 1_555
H9 C14 1_555 1_555
C15 C14 1_555 1_555
H10 C15 1_555 1_555
H11 C15 1_555 1_555
H12 C15 1_555 1_555
C16 C14 1_555 1_555
H13 C16 1_555 1_555
H14 C16 1_555 1_555
H15 C16 1_555 1_555
C17 C9 1_555 1_555
H16 C17 1_555 1_555
C18 C17 1_555 1_555
H17 C18 1_555 1_555
H18 C18 1_555 1_555
H19 C18 1_555 1_555
C19 C17 1_555 1_555
H20 C19 1_555 1_555
H21 C19 1_555 1_555
H22 C19 1_555 1_555
C5 C6 1_555 1_555
C6 C7 1_555 1_555
C12 C13 1_555 1_555

#END
