
#######################################################################
#
#                 Cambridge Crystallographic Data Centre
#                                CCDC 
#
#######################################################################
#
# If this CIF has been generated from an entry in the Cambridge 
# Structural Database, then it will include bibliographic, chemical, 
# crystal, experimental, refinement or atomic coordinate data resulting 
# from the CCDC's data processing and validation procedures.
#
#######################################################################

data_QOFLUT
_chemical_formula_moiety         'C26 H21 N3 O2'
_chemical_name_systematic        
5-(2-((2-Hydroxy-5-methylphenyl)(phenyl)methyleneamino)phenyliminomethyl)pyrrole-2-carbaldehyde
_symmetry_cell_setting           triclinic
_symmetry_space_group_name_H-M   'P -1'
_symmetry_Int_Tables_number      2
_space_group_name_Hall           '-P 1'
loop_
_symmetry_equiv_pos_site_id
_symmetry_equiv_pos_as_xyz
1 x,y,z
2 -x,-y,-z
_cell_length_a                   8.8299(18)
_cell_length_b                   9.4816(19)
_cell_length_c                   13.130(3)
_cell_angle_alpha                94.05(3)
_cell_angle_beta                 106.32(3)
_cell_angle_gamma                94.88(3)
_cell_volume                     1046
_exptl_crystal_colour            orange
_exptl_crystal_description       block
_chemical_melting_point          '175 deg.C'
_cell_formula_units_Z            2
_exptl_crystal_recrystallization_method dichloromethane/hexane
loop_
_atom_site_label
_atom_site_type_symbol
_atom_site_fract_x
_atom_site_fract_y
_atom_site_fract_z
O1 O 0.45524(17) 0.34953(15) 0.43121(12)
O2 O 0.99294(14) 0.64418(13) 0.90770(11)
H1 H 1.0207 0.6932 0.8657
N1 N 0.98930(16) 0.84591(15) 0.79037(11)
N2 N 0.96097(17) 0.77359(15) 0.57380(11)
N3 N 0.74047(18) 0.54096(16) 0.44365(12)
C1 C 0.79083(19) 0.80636(17) 0.87844(13)
C2 C 0.8592(2) 0.68803(18) 0.92457(14)
C3 C 0.7899(2) 0.61353(18) 0.99065(14)
H2 H 0.8377 0.5384 1.0237
C4 C 0.6508(2) 0.65101(18) 1.00712(14)
H3 H 0.6055 0.5997 1.0510
C5 C 0.5756(2) 0.76395(18) 0.95990(13)
C6 C 0.64834(19) 0.84052(18) 0.89718(13)
H4 H 0.6013 0.9173 0.8663
C7 C 0.4228(2) 0.8022(2) 0.97928(15)
H5 H 0.4454 0.8515 1.0492
H6 H 0.3529 0.7171 0.9741
H7 H 0.3730 0.8625 0.9269
C8 C 0.86574(19) 0.88993(17) 0.81202(13)
C9 C 0.79928(19) 1.02221(18) 0.77147(13)
C10 C 0.8237(2) 1.14705(19) 0.83785(15)
H8 H 0.8767 1.1484 0.9100
C11 C 0.7691(2) 1.2706(2) 0.79686(17)
H9 H 0.7873 1.3548 0.8415
C12 C 0.6882(2) 1.2690(2) 0.69028(18)
H10 H 0.6520 1.3518 0.6631
C13 C 0.6611(2) 1.1440(2) 0.62386(16)
H11 H 0.6050 1.1424 0.5522
C14 C 0.71752(19) 1.02080(19) 0.66395(14)
H12 H 0.7007 0.9372 0.6189
C15 C 1.07804(19) 0.92923(18) 0.73647(13)
C16 C 1.1816(2) 1.04669(19) 0.79313(15)
H13 H 1.1853 1.0730 0.8634
C17 C 1.2783(2) 1.12397(19) 0.74603(15)
H14 H 1.3471 1.2016 0.7846
C18 C 1.2727(2) 1.08574(19) 0.64174(15)
H15 H 1.3376 1.1376 0.6097
C19 C 1.1705(2) 0.97020(19) 0.58480(15)
H16 H 1.1664 0.9464 0.5141
C20 C 1.07336(19) 0.88838(18) 0.63105(14)
C21 C 0.9842(2) 0.71074(19) 0.49084(14)
H17 H 1.0767 0.7388 0.4736
C22 C 0.8739(2) 0.59846(18) 0.42278(14)
C23 C 0.8828(2) 0.5293(2) 0.32786(15)
H18 H 0.9618 0.5477 0.2949
C24 C 0.7517(2) 0.4276(2) 0.29150(15)
H19 H 0.7272 0.3655 0.2297
C25 C 0.6644(2) 0.4354(2) 0.36358(14)
C26 C 0.5251(2) 0.3451(2) 0.36340(16)
H20 H 0.4841 0.2765 0.3057
H21 H 0.692(2) 0.574(2) 0.4957(16)
loop_
_geom_bond_atom_site_label_1
_geom_bond_atom_site_label_2
_geom_bond_site_symmetry_1
_geom_bond_site_symmetry_2
O1 C26 1_555 1_555
O2 H1 1_555 1_555
N1 C8 1_555 1_555
N2 C20 1_555 1_555
N3 C22 1_555 1_555
C1 C2 1_555 1_555
C2 O2 1_555 1_555
C3 C2 1_555 1_555
H2 C3 1_555 1_555
C4 C3 1_555 1_555
H3 C4 1_555 1_555
C5 C4 1_555 1_555
C6 C1 1_555 1_555
H4 C6 1_555 1_555
C7 C5 1_555 1_555
H5 C7 1_555 1_555
H6 C7 1_555 1_555
H7 C7 1_555 1_555
C8 C1 1_555 1_555
C9 C8 1_555 1_555
C10 C9 1_555 1_555
H8 C10 1_555 1_555
C11 C10 1_555 1_555
H9 C11 1_555 1_555
C12 C11 1_555 1_555
H10 C12 1_555 1_555
C13 C12 1_555 1_555
H11 C13 1_555 1_555
C14 C9 1_555 1_555
H12 C14 1_555 1_555
C15 N1 1_555 1_555
C16 C15 1_555 1_555
H13 C16 1_555 1_555
C17 C16 1_555 1_555
H14 C17 1_555 1_555
C18 C17 1_555 1_555
H15 C18 1_555 1_555
C19 C18 1_555 1_555
H16 C19 1_555 1_555
C20 C15 1_555 1_555
C21 N2 1_555 1_555
H17 C21 1_555 1_555
C22 C21 1_555 1_555
C23 C22 1_555 1_555
H18 C23 1_555 1_555
C24 C23 1_555 1_555
H19 C24 1_555 1_555
C25 N3 1_555 1_555
C26 C25 1_555 1_555
H20 C26 1_555 1_555
H21 N3 1_555 1_555
C5 C6 1_555 1_555
C13 C14 1_555 1_555
C19 C20 1_555 1_555
C24 C25 1_555 1_555

#END
