
#######################################################################
#
#                 Cambridge Crystallographic Data Centre
#                                CCDC 
#
#######################################################################
#
# If this CIF has been generated from an entry in the Cambridge 
# Structural Database, then it will include bibliographic, chemical, 
# crystal, experimental, refinement or atomic coordinate data resulting 
# from the CCDC's data processing and validation procedures.
#
#######################################################################

data_QOFQEI
_chemical_formula_moiety         'C14 H19 N3 O7 S1'
_chemical_name_systematic        
N^5^-Isopropyl-N-(2-nitrobenzenesulfonyl)glutamine
_symmetry_cell_setting           monoclinic
_symmetry_space_group_name_H-M   'P 21'
_symmetry_Int_Tables_number      4
_space_group_name_Hall           'P 2yb'
loop_
_symmetry_equiv_pos_site_id
_symmetry_equiv_pos_as_xyz
1 x,y,z
2 -x,1/2+y,-z
_cell_length_a                   6.9281(11)
_cell_length_b                   7.6508(12)
_cell_length_c                   15.843(3)
_cell_angle_alpha                90
_cell_angle_beta                 90.941(3)
_cell_angle_gamma                90
_cell_volume                     839.653
_exptl_crystal_colour            colorless
_chemical_melting_point          '158-160 deg.C'
_cell_formula_units_Z            2
_exptl_crystal_recrystallization_method ethanol/water
loop_
_atom_site_label
_atom_site_type_symbol
_atom_site_fract_x
_atom_site_fract_y
_atom_site_fract_z
S1 S 0.3261(1) 0.6751(1) 0.8205(1)
O1 O 0.8408(2) 0.8052(2) 0.9418(1)
O2 O 0.7469(2) 0.8031(2) 0.8112(1)
O3 O 0.3554(2) 0.8360(2) 0.8639(1)
O4 O 0.1430(2) 0.5903(2) 0.8211(1)
O5 O 0.6566(2) 0.6748(2) 0.6120(1)
O6 O 0.4953(2) 0.4825(2) 0.5325(1)
O7 O 0.2450(2) 1.0187(2) 0.5781(1)
N1 N 0.7608(2) 0.7369(2) 0.8814(1)
N2 N 0.3764(2) 0.7080(2) 0.7223(1)
N3 N -0.0386(2) 0.9515(2) 0.6354(1)
C1 C 0.6804(3) 0.5619(3) 0.8923(1)
C2 C 0.7979(3) 0.4394(3) 0.9314(1)
C3 C 0.7325(3) 0.2707(3) 0.9405(1)
C4 C 0.5494(4) 0.2268(3) 0.9136(1)
C5 C 0.4297(3) 0.3510(3) 0.8771(1)
C6 C 0.4932(3) 0.5199(3) 0.8642(1)
C7 C 0.3509(2) 0.5696(2) 0.6592(1)
C8 C 0.5188(3) 0.5830(3) 0.5981(1)
C9 C 0.1530(3) 0.5766(3) 0.6149(1)
C10 C 0.1204(3) 0.7290(3) 0.5536(1)
C11 C 0.1148(3) 0.9099(3) 0.5910(1)
C12 C -0.0672(3) 1.1241(2) 0.6734(1)
C13 C -0.2809(3) 1.1571(3) 0.6855(1)
C14 C 0.0480(3) 1.1431(3) 0.7545(1)
loop_
_geom_bond_atom_site_label_1
_geom_bond_atom_site_label_2
_geom_bond_site_symmetry_1
_geom_bond_site_symmetry_2
S1 O3 1_555 1_555
O1 N1 1_555 1_555
O2 N1 1_555 1_555
O4 S1 1_555 1_555
O5 C8 1_555 1_555
O6 C8 1_555 1_555
O7 C11 1_555 1_555
N1 C1 1_555 1_555
N2 S1 1_555 1_555
N3 C11 1_555 1_555
C1 C2 1_555 1_555
C2 C3 1_555 1_555
C3 C4 1_555 1_555
C4 C5 1_555 1_555
C5 C6 1_555 1_555
C6 S1 1_555 1_555
C7 N2 1_555 1_555
C8 C7 1_555 1_555
C9 C7 1_555 1_555
C10 C9 1_555 1_555
C11 C10 1_555 1_555
C12 N3 1_555 1_555
C13 C12 1_555 1_555
C14 C12 1_555 1_555
C1 C6 1_555 1_555

#END
