
#######################################################################
#
#                 Cambridge Crystallographic Data Centre
#                                CCDC 
#
#######################################################################
#
# If this CIF has been generated from an entry in the Cambridge 
# Structural Database, then it will include bibliographic, chemical, 
# crystal, experimental, refinement or atomic coordinate data resulting 
# from the CCDC's data processing and validation procedures.
#
#######################################################################

data_QOFVIS
_chemical_formula_moiety         '2(C24 H30 N10 O3),H12 Mg1 O6 2+,O4 S1 2-'
_chemical_name_systematic        
"hexaaqua-magnesium 1,1',1''-(nitrilotriethane-2,1-diyl)tris(3-pyridin-4-ylurea) sulfate"
_symmetry_cell_setting           rhombohedral
_symmetry_space_group_name_H-M   'R -3'
_symmetry_Int_Tables_number      148
_space_group_name_Hall           '-R 3'
loop_
_symmetry_equiv_pos_site_id
_symmetry_equiv_pos_as_xyz
1 x,y,z
2 -y,x-y,z
3 -x+y,-x,z
4 2/3+x,1/3+y,1/3+z
5 2/3-y,1/3+x-y,1/3+z
6 2/3-x+y,1/3-x,1/3+z
7 1/3+x,2/3+y,2/3+z
8 1/3-y,2/3+x-y,2/3+z
9 1/3-x+y,2/3-x,2/3+z
10 -x,-y,-z
11 y,-x+y,-z
12 x-y,x,-z
13 1/3-x,2/3-y,2/3-z
14 1/3+y,2/3-x+y,2/3-z
15 1/3+x-y,2/3+x,2/3-z
16 2/3-x,1/3-y,1/3-z
17 2/3+y,1/3-x+y,1/3-z
18 2/3+x-y,1/3+x,1/3-z
_cell_length_a                   13.7339(17)
_cell_length_b                   13.7339(17)
_cell_length_c                   28.756(3)
_cell_angle_alpha                90
_cell_angle_beta                 90
_cell_angle_gamma                120
_cell_volume                     4697.28
_exptl_crystal_colour            colorless
_exptl_crystal_description       block
_cell_formula_units_Z            3
loop_
_atom_site_label
_atom_site_type_symbol
_atom_site_fract_x
_atom_site_fract_y
_atom_site_fract_z
Mg1 Mg 0.3333 0.6667 0.1667
O3 O 0.3494(2) 0.5533(2) 0.12482(8)
H1 H 0.387(4) 0.578(4) 0.1001(11)
H2 H 0.345(4) 0.495(3) 0.1368(16)
O3A O 0.4467(2) 0.7961(3) 0.12482(8)
H1A H 0.422(4) 0.809(6) 0.1001(11)
H2A H 0.505(3) 0.850(5) 0.1368(16)
O3B O 0.2039(3) 0.6506(2) 0.12482(8)
H1B H 0.191(6) 0.613(4) 0.1001(11)
H2B H 0.150(5) 0.655(4) 0.1368(16)
O3O O 0.3173(2) 0.7800(2) 0.20851(8)
H1O H 0.280(4) 0.755(4) 0.2332(11)
H2O H 0.322(4) 0.838(3) 0.1965(16)
O3P O 0.2200(2) 0.5372(3) 0.20851(8)
H1P H 0.245(4) 0.524(6) 0.2332(11)
H2P H 0.162(3) 0.483(5) 0.1965(16)
O3Q O 0.4628(3) 0.6827(2) 0.20851(8)
H1Q H 0.476(6) 0.720(4) 0.2332(11)
H2Q H 0.517(5) 0.678(4) 0.1965(16)
O4 O 0.3375(2) 0.3373(2) 0.11811(9)
N1 N 0.0000 0.0000 0.17385(14)
N2 N 0.1581(4) 0.1959(3) 0.11498(12)
H3 H 0.1056 0.1461 0.0977
N3 N 0.2635(3) 0.2429(3) 0.04952(11)
H4 H 0.2019 0.1914 0.0373
N4 N 0.5323(4) 0.3838(4) -0.04430(15)
C1 C 0.1044(3) 0.0976(3) 0.19028(12)
H5 H 0.1653 0.0816 0.1873
H6 H 0.0964 0.1094 0.2230
C2 C 0.1347(5) 0.2036(4) 0.16412(15)
H7 H 0.0732 0.2191 0.1664
H8 H 0.2004 0.2659 0.1783
C3 C 0.2586(3) 0.2640(3) 0.09625(11)
C4 C 0.3550(4) 0.2942(3) 0.02005(12)
C5 C 0.3363(5) 0.2754(5) -0.02711(15)
H9 H 0.2636 0.2320 -0.0385
C6 C 0.4272(6) 0.3221(6) -0.05732(17)
H10 H 0.4126 0.3086 -0.0890
C7 C 0.5498(4) 0.4031(5) 0.00087(16)
H11 H 0.6236 0.4480 0.0108
C8 C 0.4670(4) 0.3616(4) 0.03416(14)
H12 H 0.4849 0.3779 0.0654
O4A O -0.3373(2) 0.0002(3) 0.11811(9)
N2A N -0.1959(3) -0.0378(5) 0.11498(12)
H3A H -0.1461 -0.0405 0.0977
N3A N -0.2429(3) 0.0206(4) 0.04952(11)
H4A H -0.1914 0.0105 0.0373
N4A N -0.3838(4) 0.1485(6) -0.04430(15)
C1A C -0.0976(3) 0.0068(4) 0.19028(12)
H5A H -0.0816 0.0837 0.1873
H6A H -0.1094 -0.0130 0.2230
C2A C -0.2036(4) -0.0689(6) 0.16412(15)
H7A H -0.2191 -0.1459 0.1664
H8A H -0.2659 -0.0655 0.1783
C3A C -0.2640(3) -0.0054(4) 0.09625(11)
C4A C -0.2942(3) 0.0608(5) 0.02005(12)
C5A C -0.2754(5) 0.0609(7) -0.02711(15)
H9A H -0.2320 0.0316 -0.0385
C6A C -0.3221(6) 0.1051(8) -0.05732(17)
H10A H -0.3086 0.1040 -0.0890
C7A C -0.4031(5) 0.1467(6) 0.00087(16)
H11A H -0.4480 0.1756 0.0108
C8A C -0.3616(4) 0.1054(6) 0.03416(14)
H12A H -0.3779 0.1070 0.0654
O4B O -0.0002(3) -0.3375(2) 0.11811(9)
N2B N 0.0378(5) -0.1581(4) 0.11498(12)
H3B H 0.0405 -0.1056 0.0977
N3B N -0.0206(4) -0.2635(3) 0.04952(11)
H4B H -0.0105 -0.2019 0.0373
N4B N -0.1485(6) -0.5323(4) -0.04430(15)
C1B C -0.0068(4) -0.1044(3) 0.19028(12)
H5B H -0.0837 -0.1653 0.1873
H6B H 0.0130 -0.0964 0.2230
C2B C 0.0689(6) -0.1347(5) 0.16412(15)
H7B H 0.1459 -0.0732 0.1664
H8B H 0.0655 -0.2004 0.1783
C3B C 0.0054(4) -0.2586(3) 0.09625(11)
C4B C -0.0608(5) -0.3550(4) 0.02005(12)
C5B C -0.0609(7) -0.3363(5) -0.02711(15)
H9B H -0.0316 -0.2636 -0.0385
C6B C -0.1051(8) -0.4272(6) -0.05732(17)
H10B H -0.1040 -0.4126 -0.0890
C7B C -0.1467(6) -0.5498(4) 0.00087(16)
H11B H -0.1756 -0.6236 0.0108
C8B C -0.1054(6) -0.4670(4) 0.03416(14)
H12B H -0.1070 -0.4849 0.0654
O1 O 0.0000 0.0000 -0.0534(3)
S1 S 0.0000 0.0000 0.0000
O2 O 0.1068(4) 0.0911(4) -0.0140(2)
O2A O -0.0911(4) 0.0157(6) -0.0140(2)
O2B O -0.0157(6) -0.1068(4) -0.0140(2)
O1I O 0.0000 0.0000 0.0534(3)
O2I O -0.1068(4) -0.0911(4) 0.0140(2)
O2J O 0.0911(4) -0.0157(6) 0.0140(2)
O2K O 0.0157(6) 0.1068(4) 0.0140(2)
loop_
_geom_bond_atom_site_label_1
_geom_bond_atom_site_label_2
_geom_bond_site_symmetry_1
_geom_bond_site_symmetry_2
O1 S1 1_555 1_555
S1 O2 1_555 1_555
O2 O1 1_555 1_555
Mg1 O3 1_555 1_555
O3 H1 1_555 1_555
H2 O3 1_555 1_555
O4 C3 1_555 1_555
N1 C1 1_555 1_555
N2 H3 1_555 1_555
N3 H4 1_555 1_555
N4 C6 1_555 1_555
C1 H5 1_555 1_555
H6 C1 1_555 1_555
C2 N2 1_555 1_555
H7 C2 1_555 1_555
H8 C2 1_555 1_555
C3 N2 1_555 1_555
C4 N3 1_555 1_555
C5 C4 1_555 1_555
H9 C5 1_555 1_555
C6 C5 1_555 1_555
H10 C6 1_555 1_555
C7 N4 1_555 1_555
H11 C7 1_555 1_555
C8 C4 1_555 1_555
H12 C8 1_555 1_555
O2A O1 1_555 1_555
O2B O1 1_555 1_555
O1I S1 1_555 1_555
O2I S1 1_555 1_555
O2J S1 1_555 1_555
O2K S1 1_555 1_555
O3A Mg1 1_555 1_555
H1A O3A 1_555 1_555
H2A O3A 1_555 1_555
O3B Mg1 1_555 1_555
H1B O3B 1_555 1_555
H2B O3B 1_555 1_555
O3O Mg1 1_555 1_555
H1O O3O 1_555 1_555
H2O O3O 1_555 1_555
O3P Mg1 1_555 1_555
H1P O3P 1_555 1_555
H2P O3P 1_555 1_555
O3Q Mg1 1_555 1_555
H1Q O3Q 1_555 1_555
H2Q O3Q 1_555 1_555
O4A C3A 1_555 1_555
N2A H3A 1_555 1_555
N3A H4A 1_555 1_555
N4A C6A 1_555 1_555
C1A N1 1_555 1_555
H5A C1A 1_555 1_555
H6A C1A 1_555 1_555
C2A N2A 1_555 1_555
H7A C2A 1_555 1_555
H8A C2A 1_555 1_555
C3A N2A 1_555 1_555
C4A N3A 1_555 1_555
C5A C4A 1_555 1_555
H9A C5A 1_555 1_555
C6A C5A 1_555 1_555
H10A C6A 1_555 1_555
C7A N4A 1_555 1_555
H11A C7A 1_555 1_555
C8A C4A 1_555 1_555
H12A C8A 1_555 1_555
O4B C3B 1_555 1_555
N2B H3B 1_555 1_555
N3B H4B 1_555 1_555
N4B C6B 1_555 1_555
C1B N1 1_555 1_555
H5B C1B 1_555 1_555
H6B C1B 1_555 1_555
C2B N2B 1_555 1_555
H7B C2B 1_555 1_555
H8B C2B 1_555 1_555
C3B N2B 1_555 1_555
C4B N3B 1_555 1_555
C5B C4B 1_555 1_555
H9B C5B 1_555 1_555
C6B C5B 1_555 1_555
H10B C6B 1_555 1_555
C7B N4B 1_555 1_555
H11B C7B 1_555 1_555
C8B C4B 1_555 1_555
H12B C8B 1_555 1_555
S1 O2A 1_555 1_555
S1 O2B 1_555 1_555
O2 O2J 1_555 1_555
O2 O2K 1_555 1_555
N3 C3 1_555 1_555
C1 C2 1_555 1_555
C7 C8 1_555 1_555
O2A O2I 1_555 1_555
O2A O2K 1_555 1_555
O2B O2I 1_555 1_555
O2B O2J 1_555 1_555
O1I O2I 1_555 1_555
O1I O2J 1_555 1_555
O1I O2K 1_555 1_555
N3A C3A 1_555 1_555
C1A C2A 1_555 1_555
C7A C8A 1_555 1_555
N3B C3B 1_555 1_555
C1B C2B 1_555 1_555
C7B C8B 1_555 1_555

#END
