
#######################################################################
#
#                 Cambridge Crystallographic Data Centre
#                                CCDC 
#
#######################################################################
#
# If this CIF has been generated from an entry in the Cambridge 
# Structural Database, then it will include bibliographic, chemical, 
# crystal, experimental, refinement or atomic coordinate data resulting 
# from the CCDC's data processing and validation procedures.
#
#######################################################################

data_QOFYOB
_chemical_compound_source        'mature carpels of Manglietiastrum sinicum'
_chemical_name_common            'Manglisin A'
_chemical_formula_moiety         'C22 H26 O6'
_chemical_name_systematic        
3',4,5'-trimethoxy-7,8-dimethyl-6,7,8,9-tetrahydro-4'H-spiro[cyclohepta[4,5]benzo[1,2-d][1,3]dioxole-5,1'-cyclohexa[2,5]dien]-4'-one
_symmetry_cell_setting           monoclinic
_symmetry_space_group_name_H-M   'P 21'
_symmetry_Int_Tables_number      4
_space_group_name_Hall           'P 2yb'
loop_
_symmetry_equiv_pos_site_id
_symmetry_equiv_pos_as_xyz
1 x,y,z
2 -x,1/2+y,-z
_cell_length_a                   9.85210(10)
_cell_length_b                   9.33940(10)
_cell_length_c                   21.7893(3)
_cell_angle_alpha                90
_cell_angle_beta                 100.12
_cell_angle_gamma                90
_cell_volume                     1973.7
_exptl_crystal_colour            colorless
_exptl_crystal_description       block
_cell_formula_units_Z            4
loop_
_atom_site_label
_atom_site_type_symbol
_atom_site_fract_x
_atom_site_fract_y
_atom_site_fract_z
O1 O 0.57752(12) 0.18051(12) 0.83134(6)
O2 O 0.74430(12) 0.51407(13) 1.10487(5)
O3 O 0.36099(10) 0.62725(11) 0.79440(5)
O4 O 0.61519(11) 0.44462(13) 0.97490(5)
O5 O 0.93025(14) 0.66755(15) 1.12930(5)
O6 O 0.36609(11) 0.34735(12) 0.78870(5)
C1 C 0.59607(15) 0.32439(16) 0.84102(7)
C2 C 0.70991(15) 0.38959(16) 0.87014(7)
H1 H 0.7847 0.3318 0.8894
C3 C 0.72618(14) 0.55004(15) 0.87403(6)
C4 C 0.78627(14) 0.59649(16) 0.94176(6)
C5 C 0.72370(15) 0.53699(15) 0.98998(7)
C6 C 0.77883(16) 0.56983(17) 1.05099(7)
C7 C 0.8239(2) 0.5951(2) 1.15424(7)
H2 H 0.8650 0.5308 1.1886
H3 H 0.7644 0.6655 1.1708
C8 C 0.35814(15) 0.77999(17) 0.79590(7)
H4 H 0.3687 0.8126 0.8392
H5 H 0.2700 0.8142 0.7725
H6 H 0.4338 0.8180 0.7769
C9 C 0.48010(14) 0.56351(16) 0.82159(6)
C10 C 0.59440(14) 0.62825(16) 0.85103(6)
H7 H 0.5918 0.7287 0.8577
C11 C 0.82312(14) 0.58211(16) 0.82525(6)
H8 H 0.7890 0.5274 0.7867
H9 H 0.8159 0.6851 0.8145
C12 C 0.97487(14) 0.54540(16) 0.84719(6)
H10 H 0.9803 0.4690 0.8797
C13 C 1.03662(16) 0.48629(19) 0.79312(7)
H11 H 0.9925 0.3949 0.7795
H12 H 1.1359 0.4714 0.8066
H13 H 1.0213 0.5545 0.7584
C14 C 1.05529(15) 0.67676(17) 0.87702(7)
H14 H 1.0838 0.7343 0.8427
C15 C 0.96436(16) 0.77261(16) 0.91045(7)
H15 H 1.0219 0.8508 0.9319
H16 H 0.8922 0.8169 0.8788
C16 C 0.89528(15) 0.69455(16) 0.95774(7)
C17 C 0.50051(19) 0.4662(3) 1.00589(9)
H17 H 0.5252 0.4353 1.0494
H18 H 0.4217 0.4100 0.9850
H19 H 0.4760 0.5680 1.0045
C18 C 0.88915(17) 0.66135(18) 1.06559(7)
C19 C 0.94800(17) 0.72622(17) 1.02055(7)
H20 H 1.0226 0.7911 1.0314
C20 C 1.18647(16) 0.6312(2) 0.92143(7)
H21 H 1.2375 0.7165 0.9385
H22 H 1.2443 0.5736 0.8986
H23 H 1.1615 0.5743 0.9556
C21 C 0.47137(14) 0.40598(16) 0.81478(6)
C22 C 0.6937(2) 0.09293(19) 0.85508(13)
H24 H 0.7721 0.1210 0.8356
H25 H 0.6709 -0.0077 0.8456
H26 H 0.7178 0.1054 0.9003
O7 O 0.17295(10) 0.46507(11) 0.60432(4)
C23 C 0.00118(14) 0.65339(15) 0.36396(6)
H27 H -0.0603 0.7259 0.3727
O8 O -0.18629(11) 0.51850(11) 0.30510(5)
O9 O 0.25882(11) 0.32438(12) 0.31971(5)
O10 O -0.01004(12) 0.32582(14) 0.27872(6)
O11 O 0.08691(10) 0.44957(10) 0.46520(4)
O12 O 0.26430(11) 0.66997(12) 0.65392(4)
C24 C 0.18775(16) 0.54398(17) 0.66208(7)
H28 H 0.0961 0.5696 0.6715
H29 H 0.2374 0.4857 0.6969
C25 C 0.18116(14) 0.57136(15) 0.56048(6)
C26 C 0.14925(13) 0.56526(15) 0.49660(6)
C27 C 0.17274(13) 0.68872(14) 0.46162(6)
C28 C 0.15173(14) 0.67051(15) 0.38979(6)
C29 C -0.05127(15) 0.54157(15) 0.32930(6)
C30 C -0.28005(15) 0.62574(17) 0.31802(7)
H30 H -0.2762 0.6328 0.3632
H31 H -0.3738 0.6002 0.2979
H32 H -0.2547 0.7181 0.3019
C31 C 0.40424(16) 0.32878(18) 0.33931(8)
H33 H 0.4407 0.4173 0.3243
H34 H 0.4462 0.2462 0.3222
H35 H 0.4260 0.3259 0.3849
C32 C 0.18633(15) 0.43611(16) 0.33804(6)
C33 C 0.03743(16) 0.42468(16) 0.31230(7)
C34 C 0.23741(14) 0.54431(15) 0.37525(6)
H36 H 0.3323 0.5419 0.3935
C35 C 0.14605(16) 0.31222(15) 0.48129(7)
H37 H 0.2445 0.3145 0.4791
H38 H 0.1000 0.2404 0.4521
H39 H 0.1343 0.2874 0.5237
C36 C 0.23299(14) 0.69446(15) 0.59085(6)
C37 C 0.24662(14) 0.81892(16) 0.55915(6)
H40 H 0.2781 0.9042 0.5808
C38 C 0.21299(14) 0.81716(15) 0.49391(6)
C39 C 0.21328(15) 0.96041(15) 0.46181(7)
H41 H 0.2162 1.0367 0.4936
H42 H 0.1254 0.9708 0.4322
C40 C 0.33321(14) 0.98477(16) 0.42606(7)
H43 H 0.3105 1.0710 0.3990
C41 C 0.34770(15) 0.85675(16) 0.38331(7)
H44 H 0.3978 0.7790 0.4096
C42 C 0.43258(17) 0.89574(19) 0.33289(8)
H45 H 0.4457 0.8102 0.3086
H46 H 0.5226 0.9330 0.3527
H47 H 0.3836 0.9689 0.3052
C43 C 0.20547(15) 0.79879(16) 0.35390(6)
H48 H 0.2092 0.7674 0.3108
H49 H 0.1379 0.8780 0.3512
C44 C 0.46681(16) 1.0160(2) 0.47121(7)
H50 H 0.4891 0.9349 0.4997
H51 H 0.4552 1.1026 0.4952
H52 H 0.5418 1.0306 0.4477
loop_
_geom_bond_atom_site_label_1
_geom_bond_atom_site_label_2
_geom_bond_site_symmetry_1
_geom_bond_site_symmetry_2
O1 C1 1_555 1_555
O2 C6 1_555 1_555
O3 C8 1_555 1_555
O4 C5 1_555 1_555
O5 C7 1_555 1_555
O6 C21 1_555 1_555
C1 C2 1_555 1_555
C2 H1 1_555 1_555
C3 C2 1_555 1_555
C4 C3 1_555 1_555
C5 C4 1_555 1_555
C6 C5 1_555 1_555
C7 O2 1_555 1_555
H2 C7 1_555 1_555
H3 C7 1_555 1_555
C8 H4 1_555 1_555
H5 C8 1_555 1_555
H6 C8 1_555 1_555
C9 O3 1_555 1_555
C10 C3 1_555 1_555
H7 C10 1_555 1_555
C11 C3 1_555 1_555
H8 C11 1_555 1_555
H9 C11 1_555 1_555
C12 C11 1_555 1_555
H10 C12 1_555 1_555
C13 C12 1_555 1_555
H11 C13 1_555 1_555
H12 C13 1_555 1_555
H13 C13 1_555 1_555
C14 C12 1_555 1_555
H14 C14 1_555 1_555
C15 C14 1_555 1_555
H15 C15 1_555 1_555
H16 C15 1_555 1_555
C16 C4 1_555 1_555
C17 O4 1_555 1_555
H17 C17 1_555 1_555
H18 C17 1_555 1_555
H19 C17 1_555 1_555
C18 O5 1_555 1_555
C19 C16 1_555 1_555
H20 C19 1_555 1_555
C20 C14 1_555 1_555
H21 C20 1_555 1_555
H22 C20 1_555 1_555
H23 C20 1_555 1_555
C21 C1 1_555 1_555
C22 O1 1_555 1_555
H24 C22 1_555 1_555
H25 C22 1_555 1_555
H26 C22 1_555 1_555
O7 C24 1_555 1_555
C23 H27 1_555 1_555
O8 C29 1_555 1_555
O9 C31 1_555 1_555
O10 C33 1_555 1_555
O11 C26 1_555 1_555
O12 C24 1_555 1_555
C24 H28 1_555 1_555
H29 C24 1_555 1_555
C25 O7 1_555 1_555
C26 C25 1_555 1_555
C27 C26 1_555 1_555
C28 C23 1_555 1_555
C29 C23 1_555 1_555
C30 O8 1_555 1_555
H30 C30 1_555 1_555
H31 C30 1_555 1_555
H32 C30 1_555 1_555
C31 H33 1_555 1_555
H34 C31 1_555 1_555
H35 C31 1_555 1_555
C32 O9 1_555 1_555
C33 C29 1_555 1_555
C34 C28 1_555 1_555
H36 C34 1_555 1_555
C35 O11 1_555 1_555
H37 C35 1_555 1_555
H38 C35 1_555 1_555
H39 C35 1_555 1_555
C36 O12 1_555 1_555
C37 C36 1_555 1_555
H40 C37 1_555 1_555
C38 C27 1_555 1_555
C39 C38 1_555 1_555
H41 C39 1_555 1_555
H42 C39 1_555 1_555
C40 C39 1_555 1_555
H43 C40 1_555 1_555
C41 C40 1_555 1_555
H44 C41 1_555 1_555
C42 C41 1_555 1_555
H45 C42 1_555 1_555
H46 C42 1_555 1_555
H47 C42 1_555 1_555
C43 C28 1_555 1_555
H48 C43 1_555 1_555
H49 C43 1_555 1_555
C44 C40 1_555 1_555
H50 C44 1_555 1_555
H51 C44 1_555 1_555
H52 C44 1_555 1_555
C6 C18 1_555 1_555
C9 C10 1_555 1_555
C9 C21 1_555 1_555
C15 C16 1_555 1_555
C18 C19 1_555 1_555
C25 C36 1_555 1_555
C27 C28 1_555 1_555
C32 C33 1_555 1_555
C32 C34 1_555 1_555
C37 C38 1_555 1_555
C41 C43 1_555 1_555

#END
