
#######################################################################
#
#                 Cambridge Crystallographic Data Centre
#                                CCDC 
#
#######################################################################
#
# If this CIF has been generated from an entry in the Cambridge 
# Structural Database, then it will include bibliographic, chemical, 
# crystal, experimental, refinement or atomic coordinate data resulting 
# from the CCDC's data processing and validation procedures.
#
#######################################################################

data_QOGBIZ
_chemical_formula_moiety         'C18 H26 N2 O4,C10 H2 Cl2 N2 O4'
_chemical_name_systematic        
"4,8-dichloropyrrolo[3,4-f]isoindole-1,3,5,7(2H,6H)-tetrone 2,2'-(naphthalene-1,5-diylbis(iminoethane-2,1-diyloxy))diethanol"
_symmetry_cell_setting           monoclinic
_symmetry_space_group_name_H-M   'P 21/c'
_symmetry_Int_Tables_number      14
_space_group_name_Hall           '-P 2ybc'
loop_
_symmetry_equiv_pos_site_id
_symmetry_equiv_pos_as_xyz
1 x,y,z
2 -x,1/2+y,1/2-z
3 -x,-y,-z
4 x,1/2-y,1/2+z
_cell_length_a                   6.6819(3)
_cell_length_b                   22.9780(11)
_cell_length_c                   8.8554(4)
_cell_angle_alpha                90
_cell_angle_beta                 101.576(2)
_cell_angle_gamma                90
_cell_volume                     1331.97
_exptl_crystal_colour            yellow
_exptl_crystal_description       needle
_cell_formula_units_Z            2
loop_
_atom_site_label
_atom_site_type_symbol
_atom_site_fract_x
_atom_site_fract_y
_atom_site_fract_z
O1 O 0.41416(18) 0.28022(5) 0.22034(13)
O2 O 0.01314(18) 0.23686(5) 0.13421(14)
H1 H -0.0242 0.2189 0.2065
N1 N 0.5694(2) 0.38786(6) 0.19035(15)
H2 H 0.5702 0.3651 0.1105
C1 C 0.4399(2) 0.45377(7) -0.26370(18)
H3 H 0.4208 0.4279 -0.3492
C2 C 0.4801(2) 0.43160(7) -0.11719(18)
H4 H 0.4902 0.3907 -0.1020
C3 C 0.5067(2) 0.46935(7) 0.01191(18)
C4 C 0.5483(2) 0.44753(7) 0.16765(18)
C5 C 0.5733(2) 0.48614(7) 0.28955(18)
H5 H 0.5998 0.4717 0.3922
C6 C 0.5901(2) 0.36199(7) 0.34260(18)
H6 H 0.4737 0.3737 0.3895
H7 H 0.7178 0.3757 0.4102
C7 C 0.5948(2) 0.29657(7) 0.3271(2)
H8 H 0.7176 0.2843 0.2887
H9 H 0.5980 0.2779 0.4282
C8 C 0.3780(3) 0.21945(7) 0.2142(2)
H10 H 0.3613 0.2051 0.3163
H11 H 0.4950 0.1989 0.1854
C9 C 0.1867(3) 0.20820(7) 0.0959(2)
H12 H 0.2064 0.2220 -0.0059
H13 H 0.1607 0.1658 0.0883
O1B O 0.58584(18) 0.71978(5) -0.22034(13)
O2B O 0.98686(18) 0.76314(5) -0.13421(14)
H1B H 1.0242 0.7811 -0.2065
N1B N 0.4306(2) 0.61214(6) -0.19035(15)
H2B H 0.4298 0.6349 -0.1105
C1B C 0.5601(2) 0.54623(7) 0.26370(18)
H3B H 0.5792 0.5721 0.3492
C2B C 0.5199(2) 0.56840(7) 0.11719(18)
H4B H 0.5098 0.6093 0.1020
C3B C 0.4933(2) 0.53065(7) -0.01191(18)
C4B C 0.4517(2) 0.55247(7) -0.16765(18)
C5B C 0.4267(2) 0.51386(7) -0.28955(18)
H5B H 0.4002 0.5283 -0.3922
C6B C 0.4099(2) 0.63801(7) -0.34260(18)
H6B H 0.5263 0.6263 -0.3895
H7B H 0.2822 0.6243 -0.4102
C7B C 0.4052(2) 0.70343(7) -0.3271(2)
H8B H 0.2824 0.7157 -0.2887
H9B H 0.4020 0.7221 -0.4282
C8B C 0.6220(3) 0.78055(7) -0.2142(2)
H10B H 0.6387 0.7949 -0.3163
H11B H 0.5050 0.8011 -0.1854
C9B C 0.8133(3) 0.79180(7) -0.0959(2)
H12B H 0.7936 0.7780 0.0059
H13B H 0.8393 0.8342 -0.0883
Cl1 Cl 0.07704(6) 0.53675(2) 0.34898(4)
O3 O -0.05639(19) 0.34667(5) -0.16115(15)
O4 O 0.08017(18) 0.39885(6) 0.34646(13)
N2 N 0.0237(2) 0.35884(6) 0.10213(17)
H14 H 0.0349 0.3219 0.1287
C10 C 0.0381(2) 0.51673(7) 0.15922(17)
C11 C 0.0254(2) 0.45867(7) 0.11372(18)
C12 C -0.0125(2) 0.44263(7) -0.04114(18)
C13 C -0.0190(2) 0.37749(7) -0.04798(19)
C14 C 0.0473(2) 0.40408(7) 0.20774(19)
Cl1B Cl -0.07704(6) 0.46325(2) -0.34898(4)
O3B O 0.05639(19) 0.65333(5) 0.16115(15)
O4B O -0.08017(18) 0.60115(6) -0.34646(13)
N2B N -0.0237(2) 0.64116(6) -0.10213(17)
H14B H -0.0349 0.6781 -0.1287
C10B C -0.0381(2) 0.48327(7) -0.15922(17)
C11B C -0.0254(2) 0.54133(7) -0.11372(18)
C12B C 0.0125(2) 0.55737(7) 0.04114(18)
C13B C 0.0190(2) 0.62251(7) 0.04798(19)
C14B C -0.0473(2) 0.59592(7) -0.20774(19)
loop_
_geom_bond_atom_site_label_1
_geom_bond_atom_site_label_2
_geom_bond_site_symmetry_1
_geom_bond_site_symmetry_2
O1 C7 1_555 1_555
O2 H1 1_555 1_555
N1 H2 1_555 1_555
C1 H3 1_555 1_555
C2 C1 1_555 1_555
H4 C2 1_555 1_555
C3 C2 1_555 1_555
C4 N1 1_555 1_555
C5 C4 1_555 1_555
H5 C5 1_555 1_555
C6 N1 1_555 1_555
H6 C6 1_555 1_555
H7 C6 1_555 1_555
C7 C6 1_555 1_555
H8 C7 1_555 1_555
H9 C7 1_555 1_555
C8 O1 1_555 1_555
H10 C8 1_555 1_555
H11 C8 1_555 1_555
C9 O2 1_555 1_555
H12 C9 1_555 1_555
H13 C9 1_555 1_555
Cl1 C10 1_555 1_555
O3 C13 1_555 1_555
O4 C14 1_555 1_555
N2 H14 1_555 1_555
C10 C11 1_555 1_555
C11 C12 1_555 1_555
C12 C13 1_555 1_555
C13 N2 1_555 1_555
C14 N2 1_555 1_555
O1B C7B 1_555 1_555
O2B H1B 1_555 1_555
N1B H2B 1_555 1_555
C1B C5 1_555 1_555
H3B C1B 1_555 1_555
C2B C1B 1_555 1_555
H4B C2B 1_555 1_555
C3B C3 1_555 1_555
C4B N1B 1_555 1_555
C5B C1 1_555 1_555
H5B C5B 1_555 1_555
C6B N1B 1_555 1_555
H6B C6B 1_555 1_555
H7B C6B 1_555 1_555
C7B C6B 1_555 1_555
H8B C7B 1_555 1_555
H9B C7B 1_555 1_555
C8B O1B 1_555 1_555
H10B C8B 1_555 1_555
H11B C8B 1_555 1_555
C9B O2B 1_555 1_555
H12B C9B 1_555 1_555
H13B C9B 1_555 1_555
Cl1B C10B 1_555 1_555
O3B C13B 1_555 1_555
O4B C14B 1_555 1_555
N2B H14B 1_555 1_555
C10B C12 1_555 1_555
C11B C10B 1_555 1_555
C12B C10 1_555 1_555
C13B N2B 1_555 1_555
C14B N2B 1_555 1_555
C3 C4 1_555 1_555
C8 C9 1_555 1_555
C11 C14 1_555 1_555
C2B C3B 1_555 1_555
C3B C4B 1_555 1_555
C4B C5B 1_555 1_555
C8B C9B 1_555 1_555
C11B C12B 1_555 1_555
C11B C14B 1_555 1_555
C12B C13B 1_555 1_555

#END
