
#######################################################################
#
#                 Cambridge Crystallographic Data Centre
#                                CCDC 
#
#######################################################################
#
# If this CIF has been generated from an entry in the Cambridge 
# Structural Database, then it will include bibliographic, chemical, 
# crystal, experimental, refinement or atomic coordinate data resulting 
# from the CCDC's data processing and validation procedures.
#
#######################################################################

data_QOGBOF
_chemical_formula_moiety         'C10 H2 I2 N2 O4,C5 H9 N1 O1,H2 O1'
_chemical_name_systematic        
'1-methylpyrrolidin-2-one 4,8-diiodopyrrolo[3,4-f]isoindole-1,3,5,7(2H,6H)-tetrone monohydrate'
_symmetry_cell_setting           triclinic
_symmetry_space_group_name_H-M   'P -1'
_symmetry_Int_Tables_number      2
_space_group_name_Hall           '-P 1'
loop_
_symmetry_equiv_pos_site_id
_symmetry_equiv_pos_as_xyz
1 x,y,z
2 -x,-y,-z
_cell_length_a                   7.2221(5)
_cell_length_b                   9.4868(7)
_cell_length_c                   13.2822(9)
_cell_angle_alpha                93.245(3)
_cell_angle_beta                 102.205(3)
_cell_angle_gamma                99.769(3)
_cell_volume                     872.51
_exptl_crystal_colour            yellow
_exptl_crystal_description       needle
_cell_formula_units_Z            2
loop_
_atom_site_label
_atom_site_type_symbol
_atom_site_fract_x
_atom_site_fract_y
_atom_site_fract_z
I1 I 0.80674(6) 0.49956(4) 0.65167(3)
I2 I 0.73072(5) 1.16297(4) 0.44514(3)
O1 O 0.9055(7) 0.7716(5) 0.8327(3)
O2 O 0.8479(8) 1.1977(5) 0.6991(4)
O3 O 0.7114(7) 0.4665(5) 0.3996(4)
O4 O 0.7064(7) 0.8993(5) 0.2656(4)
N1 N 0.8847(8) 1.0006(6) 0.7900(4)
N2 N 0.7030(8) 0.6662(6) 0.3088(4)
C1 C 0.8714(9) 0.8560(7) 0.7685(5)
C2 C 0.8433(10) 1.0698(7) 0.7011(5)
C3 C 0.8114(8) 0.8240(7) 0.6535(5)
C4 C 0.7980(9) 0.9564(7) 0.6119(5)
C5 C 0.7799(9) 0.6954(7) 0.5913(5)
C6 C 0.7561(9) 0.9655(7) 0.5058(5)
C7 C 0.7417(9) 0.7071(7) 0.4856(5)
C8 C 0.7336(9) 0.8378(7) 0.4438(5)
C9 C 0.7189(10) 0.5935(7) 0.3970(5)
C10 C 0.7138(9) 0.8114(7) 0.3293(5)
H1 H 0.707(12) 0.629(9) 0.235(7)
H2 H 0.916(15) 1.047(11) 0.856(8)
O5 O 0.2682(7) 0.4431(5) 0.8869(4)
C11 C 0.3106(10) 0.5763(8) 0.9101(5)
C12 C 0.3841(12) 0.6858(8) 0.8402(6)
H3 H 0.5057 0.6666 0.8240
H4 H 0.2873 0.6822 0.7746
C13 C 0.4170(12) 0.8299(8) 0.9018(6)
H5 H 0.3311 0.8913 0.8660
H6 H 0.5524 0.8795 0.9108
C14 C 0.2472(11) 0.5761(8) 1.0830(6)
H7 H 0.3588 0.5910 1.1417
H8 H 0.2029 0.4729 1.0628
H9 H 0.1430 0.6172 1.1030
N3 N 0.3012(8) 0.6456(6) 0.9971(4)
C15 C 0.3719(11) 0.7998(8) 1.0072(6)
H10 H 0.4893 0.8274 1.0634
H11 H 0.2725 0.8532 1.0217
O6 O 0.8928(8) 0.8196(6) 0.0436(4)
H12 H 0.840(15) 0.741(12) 0.061(8)
H13 H 0.902(16) 0.800(12) -0.016(10)
loop_
_geom_bond_atom_site_label_1
_geom_bond_atom_site_label_2
_geom_bond_site_symmetry_1
_geom_bond_site_symmetry_2
I1 C5 1_555 1_555
I2 C6 1_555 1_555
O1 C1 1_555 1_555
O2 C2 1_555 1_555
O3 C9 1_555 1_555
O4 C10 1_555 1_555
N1 C1 1_555 1_555
N2 C9 1_555 1_555
C1 C3 1_555 1_555
C2 N1 1_555 1_555
C3 C4 1_555 1_555
C4 C2 1_555 1_555
C5 C3 1_555 1_555
C6 C4 1_555 1_555
C7 C5 1_555 1_555
C8 C6 1_555 1_555
C9 C7 1_555 1_555
C10 N2 1_555 1_555
H1 N2 1_555 1_555
H2 N1 1_555 1_555
O5 C11 1_555 1_555
C11 C12 1_555 1_555
C12 H3 1_555 1_555
H4 C12 1_555 1_555
C13 C12 1_555 1_555
H5 C13 1_555 1_555
H6 C13 1_555 1_555
C14 H7 1_555 1_555
H8 C14 1_555 1_555
H9 C14 1_555 1_555
N3 C11 1_555 1_555
C15 C13 1_555 1_555
H10 C15 1_555 1_555
H11 C15 1_555 1_555
O6 H12 1_555 1_555
H13 O6 1_555 1_555
C7 C8 1_555 1_555
C8 C10 1_555 1_555
C14 N3 1_555 1_555
N3 C15 1_555 1_555

#END
