
#######################################################################
#
#                 Cambridge Crystallographic Data Centre
#                                CCDC 
#
#######################################################################
#
# If this CIF has been generated from an entry in the Cambridge 
# Structural Database, then it will include bibliographic, chemical, 
# crystal, experimental, refinement or atomic coordinate data resulting 
# from the CCDC's data processing and validation procedures.
#
#######################################################################

data_QOGCAS
_chemical_formula_moiety         'C10 H2 Cl2 N2 O4'
_chemical_name_systematic        
4,8-dichloropyrrolo[3,4-f]isoindole-1,3,5,7(2H,6H)-tetrone
_symmetry_cell_setting           monoclinic
_symmetry_space_group_name_H-M   'P 21/c'
_symmetry_Int_Tables_number      14
_space_group_name_Hall           '-P 2ybc'
loop_
_symmetry_equiv_pos_site_id
_symmetry_equiv_pos_as_xyz
1 x,y,z
2 -x,1/2+y,1/2-z
3 -x,-y,-z
4 x,1/2-y,1/2+z
_cell_length_a                   7.1051(12)
_cell_length_b                   5.4752(10)
_cell_length_c                   12.252(2)
_cell_angle_alpha                90
_cell_angle_beta                 90.693(15)
_cell_angle_gamma                90
_cell_volume                     476.591
_exptl_crystal_colour            yellow
_exptl_crystal_description       plate
_cell_formula_units_Z            2
loop_
_atom_site_label
_atom_site_type_symbol
_atom_site_fract_x
_atom_site_fract_y
_atom_site_fract_z
Cl1 Cl 0.78766(8) 0.08424(11) 0.06287(5)
O1 O 0.0302(2) 0.6324(3) 0.13317(14)
O2 O 0.4226(3) -0.0134(3) 0.20328(14)
N1 N 0.1978(3) 0.2887(4) 0.18740(16)
H1 H 0.1189 0.2333 0.2364
C1 C 0.6304(3) 0.3096(5) 0.02757(19)
C2 C 0.4570(3) 0.3330(5) 0.07881(19)
C3 C 0.3672(4) 0.1762(5) 0.1640(2)
C4 C 0.1650(4) 0.4966(5) 0.1261(2)
C5 C 0.3312(3) 0.5193(5) 0.05238(19)
Cl1B Cl 0.21234(8) 0.91576(11) -0.06287(5)
O1B O 0.9698(2) 0.3676(3) -0.13317(14)
O2B O 0.5774(3) 1.0134(3) -0.20328(14)
N1B N 0.8022(3) 0.7113(4) -0.18740(16)
H1B H 0.8811 0.7667 -0.2364
C1B C 0.3696(3) 0.6904(5) -0.02757(19)
C2B C 0.5430(3) 0.6670(5) -0.07881(19)
C3B C 0.6328(4) 0.8238(5) -0.1640(2)
C4B C 0.8350(4) 0.5034(5) -0.1261(2)
C5B C 0.6688(3) 0.4807(5) -0.05238(19)
loop_
_geom_bond_atom_site_label_1
_geom_bond_atom_site_label_2
_geom_bond_site_symmetry_1
_geom_bond_site_symmetry_2
Cl1 C1 1_555 1_555
O1 C4 1_555 1_555
O2 C3 1_555 1_555
N1 H1 1_555 1_555
C1 C2 1_555 1_555
C2 C3 1_555 1_555
C3 N1 1_555 1_555
C4 N1 1_555 1_555
C5 C2 1_555 1_555
Cl1B C1B 1_555 1_555
O1B C4B 1_555 1_555
O2B C3B 1_555 1_555
N1B H1B 1_555 1_555
C1B C5 1_555 1_555
C2B C1B 1_555 1_555
C3B N1B 1_555 1_555
C4B N1B 1_555 1_555
C5B C1 1_555 1_555
C4 C5 1_555 1_555
C2B C3B 1_555 1_555
C2B C5B 1_555 1_555
C4B C5B 1_555 1_555

#END
