
#######################################################################
#
#                 Cambridge Crystallographic Data Centre
#                                CCDC 
#
#######################################################################
#
# If this CIF has been generated from an entry in the Cambridge 
# Structural Database, then it will include bibliographic, chemical, 
# crystal, experimental, refinement or atomic coordinate data resulting 
# from the CCDC's data processing and validation procedures.
#
#######################################################################

data_QOGDUN
_chemical_formula_moiety         'C21 H19 N5 O2 S1'
_chemical_name_systematic        
4-((2-ethoxyphenyl)hydrazono)-5-methyl-2-(4-phenyl-1,3-thiazol-2-yl)-2,4-dihydro-3H-pyrazol-3-one
_symmetry_cell_setting           triclinic
_symmetry_space_group_name_H-M   'P -1'
_symmetry_Int_Tables_number      2
_space_group_name_Hall           '-P 1'
loop_
_symmetry_equiv_pos_site_id
_symmetry_equiv_pos_as_xyz
1 x,y,z
2 -x,-y,-z
_cell_length_a                   5.0025(6)
_cell_length_b                   12.4830(15)
_cell_length_c                   16.0296(19)
_cell_angle_alpha                75.651(3)
_cell_angle_beta                 85.409(3)
_cell_angle_gamma                81.677(3)
_cell_volume                     958.528
_exptl_crystal_colour            red
_exptl_crystal_description       prismatic
_cell_formula_units_Z            2
loop_
_atom_site_label
_atom_site_type_symbol
_atom_site_fract_x
_atom_site_fract_y
_atom_site_fract_z
S1 S 0.16649(11) 0.87653(4) 0.15567(4)
N1 N 0.1491(3) 0.69639(13) 0.10593(10)
N2 N 0.4785(3) 0.67984(13) 0.20850(10)
N3 N 0.5898(3) 0.57001(12) 0.20561(10)
N4 N 0.9882(3) 0.62784(13) 0.35657(10)
N5 N 0.9857(4) 0.71971(14) 0.38258(11)
O1 O 0.5594(3) 0.81580(11) 0.27640(9)
O2 O 1.0541(3) 0.91873(12) 0.39694(10)
C1 C -0.0589(4) 0.87687(18) 0.08157(14)
H1 H -0.1797 0.9388 0.0576
C2 C -0.0427(4) 0.77716(16) 0.06150(12)
C3 C 0.2727(4) 0.73824(15) 0.15579(12)
C4 C 0.6095(4) 0.72203(16) 0.26300(12)
C5 C 0.8135(4) 0.63055(15) 0.29935(12)
C6 C 0.7852(4) 0.54248(16) 0.25848(12)
C7 C 0.9645(5) 0.43464(17) 0.26883(15)
H2 H 0.9001 0.3900 0.2357
H3 H 0.9640 0.3958 0.3286
H4 H 1.1453 0.4484 0.2489
C8 C 1.1649(4) 0.72568(16) 0.44337(12)
C9 C 1.3024(4) 0.63272(17) 0.49533(13)
H5 H 1.2724 0.5620 0.4923
C10 C 1.4839(5) 0.64392(19) 0.55180(14)
H6 H 1.5789 0.5810 0.5861
C11 C 1.5241(5) 0.74856(19) 0.55728(15)
H7 H 1.6468 0.7562 0.5954
C12 C 1.3854(5) 0.84136(18) 0.50723(15)
H8 H 1.4130 0.9116 0.5120
C13 C 1.2042(4) 0.83188(16) 0.44943(13)
C14 C -0.2060(4) 0.74996(17) -0.00085(13)
C15 C -0.1977(5) 0.6426(2) -0.00959(15)
H9 H -0.0858 0.5853 0.0246
C16 C -0.3537(5) 0.6188(2) -0.06857(16)
H10 H -0.3457 0.5459 -0.0739
C17 C -0.5189(5) 0.7021(3) -0.11882(17)
H11 H -0.6236 0.6862 -0.1585
C18 C -0.5304(6) 0.8093(3) -0.11073(18)
H12 H -0.6444 0.8660 -0.1447
C19 C -0.3753(5) 0.8337(2) -0.05294(15)
H13 H -0.3835 0.9070 -0.0485
C20 C 1.1679(5) 1.02016(19) 0.36849(18)
H14 H 1.3540 1.0054 0.3479
H15 H 1.1658 1.0560 0.4158
C21 C 1.0044(6) 1.0943(2) 0.29749(17)
H16 H 1.0118 1.0592 0.2503
H17 H 1.0762 1.1641 0.2783
H18 H 0.8200 1.1074 0.3182
H19 H 0.890(5) 0.7771(16) 0.3615(15)
loop_
_geom_bond_atom_site_label_1
_geom_bond_atom_site_label_2
_geom_bond_site_symmetry_1
_geom_bond_site_symmetry_2
S1 C1 1_555 1_555
N1 C2 1_555 1_555
N2 N3 1_555 1_555
N3 C6 1_555 1_555
N4 N5 1_555 1_555
N5 C8 1_555 1_555
O1 C4 1_555 1_555
O2 C13 1_555 1_555
C1 H1 1_555 1_555
C2 C1 1_555 1_555
C3 S1 1_555 1_555
C4 N2 1_555 1_555
C5 N4 1_555 1_555
C6 C5 1_555 1_555
C7 C6 1_555 1_555
H2 C7 1_555 1_555
H3 C7 1_555 1_555
H4 C7 1_555 1_555
C8 C9 1_555 1_555
C9 H5 1_555 1_555
C10 C9 1_555 1_555
H6 C10 1_555 1_555
C11 C10 1_555 1_555
H7 C11 1_555 1_555
C12 C11 1_555 1_555
H8 C12 1_555 1_555
C13 C8 1_555 1_555
C14 C2 1_555 1_555
C15 C14 1_555 1_555
H9 C15 1_555 1_555
C16 C15 1_555 1_555
H10 C16 1_555 1_555
C17 C16 1_555 1_555
H11 C17 1_555 1_555
C18 C17 1_555 1_555
H12 C18 1_555 1_555
C19 C14 1_555 1_555
H13 C19 1_555 1_555
C20 O2 1_555 1_555
H14 C20 1_555 1_555
H15 C20 1_555 1_555
C21 C20 1_555 1_555
H16 C21 1_555 1_555
H17 C21 1_555 1_555
H18 C21 1_555 1_555
H19 N5 1_555 1_555
N1 C3 1_555 1_555
N2 C3 1_555 1_555
C4 C5 1_555 1_555
C12 C13 1_555 1_555
C18 C19 1_555 1_555

#END
