
#######################################################################
#
#                 Cambridge Crystallographic Data Centre
#                                CCDC 
#
#######################################################################
#
# If this CIF has been generated from an entry in the Cambridge 
# Structural Database, then it will include bibliographic, chemical, 
# crystal, experimental, refinement or atomic coordinate data resulting 
# from the CCDC's data processing and validation procedures.
#
#######################################################################

data_QOGGAW
_chemical_formula_moiety         'C22 H22 N10'
_chemical_name_systematic        
2,8,14,20-tetramethyl-2,8,14,20-tetraaza-bis(2,6-pyrazino)-bis(2,6-pyridino)calix(4)arene
_symmetry_cell_setting           monoclinic
_symmetry_space_group_name_H-M   'C 2/c'
_symmetry_Int_Tables_number      15
_space_group_name_Hall           '-C 2yn'
loop_
_symmetry_equiv_pos_site_id
_symmetry_equiv_pos_as_xyz
1 x,y,z
2 -x,y,1/2-z
3 1/2+x,1/2+y,z
4 1/2-x,1/2+y,1/2-z
5 -x,-y,-z
6 x,-y,1/2+z
7 1/2-x,1/2-y,-z
8 1/2+x,1/2-y,1/2+z
_cell_length_a                   18.014(5)
_cell_length_b                   6.0954(17)
_cell_length_c                   19.601(6)
_cell_angle_alpha                90
_cell_angle_beta                 101.044(4)
_cell_angle_gamma                90
_cell_volume                     2112.38
_exptl_crystal_colour            'light yellow'
_exptl_crystal_description       block
_cell_formula_units_Z            4
loop_
_atom_site_label
_atom_site_type_symbol
_atom_site_fract_x
_atom_site_fract_y
_atom_site_fract_z
N1 N -0.09667(7) 0.33121(18) 0.01915(5)
N2 N -0.05250(5) 0.04057(17) 0.12821(5)
N3 N 0.07085(6) 0.04935(17) 0.11154(5)
N4 N 0.12507(5) 0.02120(16) 0.22959(5)
N5 N 0.17370(6) 0.02370(19) 0.34965(5)
C1 C -0.14597(7) 0.2611(2) 0.05722(6)
H1 H -0.1965 0.3141 0.0475
C2 C -0.02587(7) 0.2587(2) 0.03462(6)
H2 H 0.0096 0.3039 0.0073
C3 C -0.00290(6) 0.11566(19) 0.09106(5)
C4 C 0.13178(7) 0.1579(2) 0.08514(7)
H3 H 0.1331 0.1034 0.0384
H4 H 0.1802 0.1267 0.1160
H5 H 0.1230 0.3167 0.0833
C5 C 0.08951(6) -0.08211(19) 0.17288(6)
C6 C 0.13999(6) -0.0948(2) 0.28821(6)
C7 C 0.12297(7) -0.3151(2) 0.29239(6)
H6 H 0.1354 -0.3918 0.3353
C8 C 0.08741(7) -0.4206(2) 0.23265(6)
H7 H 0.0752 -0.5721 0.2336
C9 C 0.06978(7) -0.3022(2) 0.17144(6)
H8 H 0.0449 -0.3698 0.1296
C10 C 0.24389(7) 0.1402(3) 0.34714(8)
H9 H 0.2747 0.1487 0.3940
H10 H 0.2322 0.2888 0.3291
H11 H 0.2719 0.0615 0.3166
C11 C 0.12391(6) 0.1098(2) 0.38850(6)
N1A N 0.09667(7) 0.33121(18) 0.48085(5)
N2A N 0.05250(5) 0.04057(17) 0.37179(5)
N3A N -0.07085(6) 0.04935(17) 0.38846(5)
N4A N -0.12507(5) 0.02120(16) 0.27041(5)
N5A N -0.17370(6) 0.02370(19) 0.15035(5)
C1A C 0.14597(7) 0.2611(2) 0.44278(6)
H1A H 0.1965 0.3141 0.4525
C2A C 0.02587(7) 0.2587(2) 0.46538(6)
H2A H -0.0096 0.3039 0.4927
C3A C 0.00290(6) 0.11566(19) 0.40894(5)
C4A C -0.13178(7) 0.1579(2) 0.41486(7)
H3A H -0.1331 0.1034 0.4616
H4A H -0.1802 0.1267 0.3840
H5A H -0.1230 0.3167 0.4167
C5A C -0.08951(6) -0.08211(19) 0.32712(6)
C6A C -0.13999(6) -0.0948(2) 0.21179(6)
C7A C -0.12297(7) -0.3151(2) 0.20761(6)
H6A H -0.1354 -0.3918 0.1647
C8A C -0.08741(7) -0.4206(2) 0.26735(6)
H7A H -0.0752 -0.5721 0.2664
C9A C -0.06978(7) -0.3022(2) 0.32856(6)
H8A H -0.0449 -0.3698 0.3704
C10A C -0.24389(7) 0.1402(3) 0.15286(8)
H9A H -0.2747 0.1487 0.1060
H10A H -0.2322 0.2888 0.1709
H11A H -0.2719 0.0615 0.1834
C11A C -0.12391(6) 0.1098(2) 0.11150(6)
loop_
_geom_bond_atom_site_label_1
_geom_bond_atom_site_label_2
_geom_bond_site_symmetry_1
_geom_bond_site_symmetry_2
N1 C1 1_555 1_555
N2 C3 1_555 1_555
N3 C3 1_555 1_555
N4 C5 1_555 1_555
N5 C6 1_555 1_555
C1 H1 1_555 1_555
C2 N1 1_555 1_555
H2 C2 1_555 1_555
C3 C2 1_555 1_555
C4 N3 1_555 1_555
H3 C4 1_555 1_555
H4 C4 1_555 1_555
H5 C4 1_555 1_555
C5 N3 1_555 1_555
C6 N4 1_555 1_555
C7 C6 1_555 1_555
H6 C7 1_555 1_555
C8 C7 1_555 1_555
H7 C8 1_555 1_555
C9 C5 1_555 1_555
H8 C9 1_555 1_555
C10 N5 1_555 1_555
H9 C10 1_555 1_555
H10 C10 1_555 1_555
H11 C10 1_555 1_555
C11 N5 1_555 1_555
N1A C1A 1_555 1_555
N2A C11 1_555 1_555
N3A C3A 1_555 1_555
N4A C5A 1_555 1_555
N5A C6A 1_555 1_555
C1A C11 1_555 1_555
H1A C1A 1_555 1_555
C2A N1A 1_555 1_555
H2A C2A 1_555 1_555
C3A N2A 1_555 1_555
C4A N3A 1_555 1_555
H3A C4A 1_555 1_555
H4A C4A 1_555 1_555
H5A C4A 1_555 1_555
C5A N3A 1_555 1_555
C6A N4A 1_555 1_555
C7A C6A 1_555 1_555
H6A C7A 1_555 1_555
C8A C7A 1_555 1_555
H7A C8A 1_555 1_555
C9A C5A 1_555 1_555
H8A C9A 1_555 1_555
C10A N5A 1_555 1_555
H9A C10A 1_555 1_555
H10A C10A 1_555 1_555
H11A C10A 1_555 1_555
C11A N2 1_555 1_555
C1 C11A 1_555 1_555
C8 C9 1_555 1_555
N5A C11A 1_555 1_555
C2A C3A 1_555 1_555
C8A C9A 1_555 1_555

#END
