
#######################################################################
#
#                 Cambridge Crystallographic Data Centre
#                                CCDC 
#
#######################################################################
#
# If this CIF has been generated from an entry in the Cambridge 
# Structural Database, then it will include bibliographic, chemical, 
# crystal, experimental, refinement or atomic coordinate data resulting 
# from the CCDC's data processing and validation procedures.
#
#######################################################################

data_QOGKUT
_chemical_formula_moiety         
'C48 H54 N24 O12,C10 H9 N2 1+,Cl1 1-,C4 H8 O2,19(H2 O1)'
_chemical_name_systematic        
"m-tricyclohexanocucurbit[6]uril 1,4-dioxane clathrate 4,4'-bipyridin-1-ium chloride nonadecahydrate"
_symmetry_cell_setting           triclinic
_symmetry_space_group_name_H-M   'P -1'
_symmetry_Int_Tables_number      2
_space_group_name_Hall           '-P 1'
loop_
_symmetry_equiv_pos_site_id
_symmetry_equiv_pos_as_xyz
1 x,y,z
2 -x,-y,-z
_cell_length_a                   12.8337(8)
_cell_length_b                   17.4472(11)
_cell_length_c                   21.2038(13)
_cell_angle_alpha                68.879(2)
_cell_angle_beta                 74.372(2)
_cell_angle_gamma                85.719(2)
_cell_volume                     4263.78
_cell_formula_units_Z            2
loop_
_atom_site_label
_atom_site_type_symbol
_atom_site_fract_x
_atom_site_fract_y
_atom_site_fract_z
O1 O -0.1869(4) 0.4230(4) 0.2827(4)
O2 O -0.1491(5) 0.9743(4) 0.1372(3)
O3 O -0.1680(5) 0.7680(4) 0.4755(3)
O4 O -0.1374(5) 0.3615(6) 0.1692(3)
O5 O 0.3775(6) 0.2306(5) 0.5441(5)
O6 O 0.3207(7) 1.1634(5) 0.2389(4)
O7 O 0.6444(7) 0.3199(8) 0.2044(4)
O8 O 0.1476(12) 0.1658(4) 0.2641(5)
O9 O 0.5711(7) 1.1380(6) 0.1866(4)
O10 O -0.0499(9) 0.7772(6) 0.5943(5)
O11 O 0.4275(9) 0.2290(7) 0.3471(7)
O12 O -0.1326(11) 1.1057(9) 0.1849(7)
O13 O -0.0419(11) 0.2249(8) 0.1970(10)
O14 O 0.3984(17) 0.0994(8) 0.6544(7)
O15 O -0.1866(15) 0.9552(10) 0.3250(9)
O16 O 0.558(2) 0.2544(10) 0.4416(11)
O17 O -0.215(3) 0.2470(12) 0.4096(12)
O18 O 0.099(2) 0.9437(15) 0.4382(14)
O19 O 0.563(2) 0.0193(17) 0.6416(17)
O21 O -0.074(3) 1.0008(16) 0.3915(13)
Cl1 Cl 0.6437(5) 0.9802(7) 0.2077(5)
C1 C 0.1080(3) 0.5818(3) 0.42825(17)
C2 C 0.2561(3) 0.5020(3) 0.45733(17)
C3 C 0.2629(3) 0.5878(3) 0.46509(18)
C4 C 0.4157(3) 0.5731(3) 0.37881(18)
C5 C 0.2440(3) 0.4302(3) 0.52734(19)
H1 H 0.1742 0.4327 0.5588
H2 H 0.2464 0.3786 0.5195
C6 C 0.3340(3) 0.4333(3) 0.5613(2)
H3 H 0.4011 0.4170 0.5356
H4 H 0.3165 0.3938 0.6088
C7 C 0.3510(3) 0.5184(3) 0.5631(2)
H5 H 0.3487 0.5129 0.6107
H6 H 0.4223 0.5398 0.5338
C8 C 0.2673(3) 0.5792(3) 0.53844(19)
H7 H 0.2845 0.6324 0.5384
H8 H 0.1968 0.5611 0.5708
C9 C 0.1262(3) 0.7047(3) 0.45608(19)
H9 H 0.0477 0.7035 0.4671
H10 H 0.1465 0.7095 0.4954
C10 C 0.4098(3) 0.7041(3) 0.3976(2)
H11 H 0.4024 0.7111 0.4420
H12 H 0.4866 0.7041 0.3756
C11 C 0.1056(3) 0.8179(3) 0.3514(2)
C12 C 0.2701(3) 0.8169(3) 0.3793(2)
H13 H 0.2777 0.8316 0.4184
C13 C 0.2674(4) 0.8950(3) 0.3132(2)
H14 H 0.2708 0.9460 0.3221
C14 C 0.4213(4) 0.8183(3) 0.2856(2)
C15 C 0.1167(4) 0.9470(3) 0.2502(2)
H15 H 0.0388 0.9386 0.2652
H16 H 0.1324 1.0007 0.2501
C16 C 0.4025(4) 0.9503(3) 0.1933(2)
H17 H 0.4801 0.9447 0.1777
H18 H 0.3903 1.0033 0.1987
C17 C 0.0972(3) 0.9097(2) 0.1528(2)
C18 C 0.2530(4) 0.9889(3) 0.1280(2)
C19 C 0.2461(3) 0.9759(2) 0.0590(2)
C20 C 0.4086(4) 0.9248(2) 0.0859(2)
C21 C 0.2580(5) 1.0811(3) 0.1173(3)
H19 H 0.2577 1.0867 0.1612
H20 H 0.3251 1.1056 0.0834
C22 C 0.1632(6) 1.1268(4) 0.0918(4)
H21 H 0.1765 1.1854 0.0775
H22 H 0.0984 1.1119 0.1304
C23 C 0.1434(4) 1.1085(3) 0.0302(3)
H23 H 0.0748 1.0788 0.0456
H24 H 0.1382 1.1601 -0.0069
C24 C 0.2332(4) 1.0579(3) 0.0010(2)
H25 H 0.3010 1.0892 -0.0181
H26 H 0.2159 1.0466 -0.0366
C25 C 0.0970(3) 0.9009(3) 0.0399(2)
H27 H 0.0211 0.8885 0.0639
H28 H 0.1010 0.9486 -0.0023
C26 C 0.3842(3) 0.9176(3) -0.0229(2)
H29 H 0.3657 0.9623 -0.0611
H30 H 0.4624 0.9145 -0.0340
C27 C 0.0819(3) 0.7613(2) 0.04009(19)
C28 C 0.2391(3) 0.8382(3) -0.03585(19)
H31 H 0.2353 0.8828 -0.0794
C29 C 0.2401(3) 0.7528(3) -0.04297(18)
H32 H 0.2419 0.7579 -0.0908
C30 C 0.3983(3) 0.7729(3) -0.01574(19)
C31 C 0.0995(3) 0.6351(2) 0.0110(2)
H33 H 0.0217 0.6326 0.0309
H34 H 0.1124 0.6336 -0.0358
C32 C 0.3851(3) 0.6444(3) -0.03579(19)
H35 H 0.4628 0.6472 -0.0429
H36 H 0.3720 0.6428 -0.0783
C33 C 0.0870(3) 0.5178(2) 0.11953(19)
C34 C 0.2450(3) 0.5247(3) 0.02869(19)
C35 C 0.2459(3) 0.4445(3) 0.0937(2)
C36 C 0.4000(3) 0.5271(3) 0.0684(2)
C37 C 0.2479(3) 0.5066(3) -0.0363(2)
H37 H 0.3176 0.4846 -0.0522
H38 H 0.2390 0.5571 -0.0733
C38 C 0.1578(3) 0.4445(3) -0.0217(2)
H39 H 0.0882 0.4698 -0.0126
H40 H 0.1656 0.4305 -0.0631
C39 C 0.1597(4) 0.3666(3) 0.0398(3)
H41 H 0.1691 0.3202 0.0240
H42 H 0.0905 0.3591 0.0743
C40 C 0.2505(4) 0.3672(3) 0.0749(2)
H43 H 0.2426 0.3187 0.1170
H44 H 0.3203 0.3654 0.0432
C41 C 0.1052(3) 0.3897(3) 0.21403(19)
H45 H 0.1227 0.3352 0.2126
H46 H 0.0269 0.3928 0.2274
C42 C 0.3861(3) 0.3966(3) 0.1665(2)
H47 H 0.4643 0.4037 0.1529
H48 H 0.3699 0.3419 0.1693
C43 C 0.0904(3) 0.4336(2) 0.31508(19)
C44 C 0.2451(3) 0.3627(3) 0.2842(2)
H49 H 0.2442 0.3038 0.2923
C45 C 0.2447(3) 0.3779(3) 0.35114(19)
H50 H 0.2387 0.3261 0.3909
C46 C 0.4085(3) 0.4245(3) 0.2683(2)
C47 C 0.1065(3) 0.4433(3) 0.42546(19)
H51 H 0.1113 0.3939 0.4646
H52 H 0.0304 0.4554 0.4298
C48 C 0.3942(3) 0.4305(3) 0.3853(2)
H53 H 0.3794 0.3811 0.4268
H54 H 0.4721 0.4364 0.3664
N1 N 0.1599(2) 0.5105(2) 0.43009(15)
N2 N 0.1652(2) 0.6270(2) 0.44851(15)
N3 N 0.3558(2) 0.5002(2) 0.40584(15)
N4 N 0.3627(3) 0.6245(2) 0.41159(15)
N5 N 0.1666(3) 0.7765(2) 0.39506(17)
N6 N 0.1645(3) 0.8844(2) 0.30065(17)
N7 N 0.3632(3) 0.7734(2) 0.35382(17)
N8 N 0.3618(3) 0.8865(2) 0.26082(17)
N9 N 0.1559(3) 0.9466(2) 0.17940(17)
N10 N 0.1490(3) 0.9217(2) 0.08454(16)
N11 N 0.3533(3) 0.9488(2) 0.13952(18)
N12 N 0.3465(3) 0.9362(2) 0.04055(17)
N13 N 0.1426(3) 0.8327(2) 0.02012(16)
N14 N 0.1418(2) 0.7133(2) 0.00557(17)
N15 N 0.3394(3) 0.8417(2) -0.01847(17)
N16 N 0.3390(2) 0.7177(2) -0.02473(16)
N17 N 0.1452(2) 0.5636(2) 0.05269(16)
N18 N 0.1459(2) 0.4491(2) 0.14503(16)
N19 N 0.3430(2) 0.5691(2) 0.02090(16)
N20 N 0.3439(3) 0.4555(2) 0.11242(16)
N21 N 0.1475(3) 0.4004(2) 0.26720(16)
N22 N 0.1506(3) 0.4274(2) 0.36148(15)
N23 N 0.3448(3) 0.4019(2) 0.23579(16)
N24 N 0.3471(3) 0.4194(2) 0.33387(16)
O22 O 0.0215(2) 0.60165(18) 0.41238(13)
O23 O 0.0121(2) 0.80073(18) 0.35673(14)
O24 O 0.0107(2) 0.87268(18) 0.18478(14)
O25 O -0.0080(2) 0.74537(17) 0.08014(15)
O26 O -0.0014(2) 0.53354(18) 0.14982(14)
O27 O 0.0014(2) 0.46372(19) 0.31724(14)
O28 O 0.5024(2) 0.5875(2) 0.33483(13)
O29 O 0.5074(3) 0.8004(2) 0.25450(16)
O30 O 0.5007(2) 0.89817(19) 0.07852(16)
O31 O 0.4902(2) 0.76226(19) -0.00708(14)
O32 O 0.4870(2) 0.5485(2) 0.07025(15)
O33 O 0.5039(2) 0.4471(2) 0.24396(14)
C49 C 0.6117(4) 0.7401(3) 0.1023(3)
H55 H 0.5866 0.7861 0.0718
C50 C 0.6750(4) 0.7495(3) 0.1414(2)
H56 H 0.6937 0.8020 0.1371
C51 C 0.7114(3) 0.6823(2) 0.18697(17)
C52 C 0.6824(4) 0.6048(3) 0.1914(2)
H57 H 0.7067 0.5578 0.2213
C53 C 0.6176(4) 0.5984(3) 0.1513(2)
H58 H 0.5962 0.5468 0.1549
C54 C 0.7789(3) 0.6910(2) 0.23151(17)
C55 C 0.7640(3) 0.7557(3) 0.2558(2)
H59 H 0.7095 0.7929 0.2467
C56 C 0.8317(4) 0.7640(3) 0.2940(2)
H60 H 0.8236 0.8079 0.3098
C57 C 0.9228(3) 0.6462(3) 0.2865(2)
H61 H 0.9762 0.6088 0.2981
C58 C 0.8602(3) 0.6355(3) 0.2474(2)
H62 H 0.8716 0.5916 0.2315
N25 N 0.5857(3) 0.6657(2) 0.10755(18)
H71 H 0.5469 0.6609 0.0818
N26 N 0.9080(3) 0.7098(3) 0.30827(18)
C59 C 0.3447(6) 0.6515(8) 0.2280(4)
H63 H 0.4159 0.6683 0.2266
H64 H 0.3301 0.5958 0.2614
C60 C 0.2623(6) 0.7069(5) 0.2527(4)
H65 H 0.2602 0.6998 0.3006
H66 H 0.2826 0.7637 0.2238
C61 C 0.1704(5) 0.6957(8) 0.1813(3)
H67 H 0.1952 0.7507 0.1496
H68 H 0.0986 0.6870 0.1779
C62 C 0.2409(7) 0.6382(5) 0.1603(4)
H69 H 0.2163 0.5829 0.1915
H70 H 0.2405 0.6433 0.1133
O34 O 0.1642(4) 0.6898(5) 0.2495(2)
O35 O 0.3456(4) 0.6520(5) 0.1618(3)
O20? O 0.402(2) 1.1981(14) 0.1664(16)
H72? H 0.9491 0.7159 0.3322
loop_
_geom_bond_atom_site_label_1
_geom_bond_atom_site_label_2
_geom_bond_site_symmetry_1
_geom_bond_site_symmetry_2
C1 N1 1_555 1_555
C2 C3 1_555 1_555
C3 C8 1_555 1_555
C4 N3 1_555 1_555
C5 C2 1_555 1_555
H1 C5 1_555 1_555
H2 C5 1_555 1_555
C6 C5 1_555 1_555
H3 C6 1_555 1_555
H4 C6 1_555 1_555
C7 C6 1_555 1_555
H5 C7 1_555 1_555
H6 C7 1_555 1_555
C8 C7 1_555 1_555
H7 C8 1_555 1_555
H8 C8 1_555 1_555
C9 H9 1_555 1_555
H10 C9 1_555 1_555
C10 H11 1_555 1_555
H12 C10 1_555 1_555
C11 N5 1_555 1_555
C12 H13 1_555 1_555
C13 C12 1_555 1_555
H14 C13 1_555 1_555
C14 N7 1_555 1_555
C15 H15 1_555 1_555
H16 C15 1_555 1_555
C16 H17 1_555 1_555
H18 C16 1_555 1_555
C17 N9 1_555 1_555
C18 C19 1_555 1_555
C19 C24 1_555 1_555
C20 N11 1_555 1_555
C21 C18 1_555 1_555
H19 C21 1_555 1_555
H20 C21 1_555 1_555
C22 C21 1_555 1_555
H21 C22 1_555 1_555
H22 C22 1_555 1_555
C23 C22 1_555 1_555
H23 C23 1_555 1_555
H24 C23 1_555 1_555
C24 C23 1_555 1_555
H25 C24 1_555 1_555
H26 C24 1_555 1_555
C25 H27 1_555 1_555
H28 C25 1_555 1_555
C26 H29 1_555 1_555
H30 C26 1_555 1_555
C27 N13 1_555 1_555
C28 H31 1_555 1_555
C29 C28 1_555 1_555
H32 C29 1_555 1_555
C30 N15 1_555 1_555
C31 H33 1_555 1_555
H34 C31 1_555 1_555
C32 H35 1_555 1_555
H36 C32 1_555 1_555
C33 N17 1_555 1_555
C34 C35 1_555 1_555
C35 C40 1_555 1_555
C36 N19 1_555 1_555
C37 C34 1_555 1_555
H37 C37 1_555 1_555
H38 C37 1_555 1_555
C38 C37 1_555 1_555
H39 C38 1_555 1_555
H40 C38 1_555 1_555
C39 C38 1_555 1_555
H41 C39 1_555 1_555
H42 C39 1_555 1_555
C40 C39 1_555 1_555
H43 C40 1_555 1_555
H44 C40 1_555 1_555
C41 H45 1_555 1_555
H46 C41 1_555 1_555
C42 H47 1_555 1_555
H48 C42 1_555 1_555
C43 N21 1_555 1_555
C44 H49 1_555 1_555
C45 C44 1_555 1_555
H50 C45 1_555 1_555
C46 N23 1_555 1_555
C47 H51 1_555 1_555
H52 C47 1_555 1_555
C48 H53 1_555 1_555
H54 C48 1_555 1_555
C49 H55 1_555 1_555
C50 C49 1_555 1_555
H56 C50 1_555 1_555
C51 C50 1_555 1_555
C52 C51 1_555 1_555
H57 C52 1_555 1_555
C53 C52 1_555 1_555
H58 C53 1_555 1_555
C54 C51 1_555 1_555
C55 C54 1_555 1_555
H59 C55 1_555 1_555
C56 C55 1_555 1_555
H60 C56 1_555 1_555
C57 H61 1_555 1_555
C58 C54 1_555 1_555
H62 C58 1_555 1_555
C59 H63 1_555 1_555
H64 C59 1_555 1_555
C60 C59 1_555 1_555
H65 C60 1_555 1_555
H66 C60 1_555 1_555
C61 H67 1_555 1_555
H68 C61 1_555 1_555
C62 C61 1_555 1_555
H69 C62 1_555 1_555
H70 C62 1_555 1_555
N1 C2 1_555 1_555
N2 C1 1_555 1_555
N3 C2 1_555 1_555
N4 C3 1_555 1_555
N5 C9 1_555 1_555
N6 C11 1_555 1_555
N7 C10 1_555 1_555
N8 C13 1_555 1_555
N9 C15 1_555 1_555
N10 C17 1_555 1_555
N11 C16 1_555 1_555
N12 C19 1_555 1_555
N13 C25 1_555 1_555
N14 C27 1_555 1_555
N15 C26 1_555 1_555
N16 C29 1_555 1_555
N17 C31 1_555 1_555
N18 C33 1_555 1_555
N19 C32 1_555 1_555
N20 C35 1_555 1_555
N21 C41 1_555 1_555
N22 C43 1_555 1_555
N23 C42 1_555 1_555
N24 C45 1_555 1_555
N25 C49 1_555 1_555
H71 N25 1_555 1_555
N26 C56 1_555 1_555
O22 C1 1_555 1_555
O23 C11 1_555 1_555
O24 C17 1_555 1_555
O25 C27 1_555 1_555
O26 C33 1_555 1_555
O27 C43 1_555 1_555
O28 C4 1_555 1_555
O29 C14 1_555 1_555
O30 C20 1_555 1_555
O31 C30 1_555 1_555
O32 C36 1_555 1_555
O33 C46 1_555 1_555
O34 C60 1_555 1_555
O35 C59 1_555 1_555
C3 N2 1_555 1_555
C4 N4 1_555 1_555
C9 N2 1_555 1_555
C10 N4 1_555 1_555
C12 N5 1_555 1_555
C12 N7 1_555 1_555
C13 N6 1_555 1_555
C14 N8 1_555 1_555
C15 N6 1_555 1_555
C16 N8 1_555 1_555
C18 N9 1_555 1_555
C18 N11 1_555 1_555
C19 N10 1_555 1_555
C20 N12 1_555 1_555
C25 N10 1_555 1_555
C26 N12 1_555 1_555
C28 N13 1_555 1_555
C28 N15 1_555 1_555
C29 N14 1_555 1_555
C30 N16 1_555 1_555
C31 N14 1_555 1_555
C32 N16 1_555 1_555
C34 N17 1_555 1_555
C34 N19 1_555 1_555
C35 N18 1_555 1_555
C36 N20 1_555 1_555
C41 N18 1_555 1_555
C42 N20 1_555 1_555
C44 N21 1_555 1_555
C44 N23 1_555 1_555
C45 N22 1_555 1_555
C46 N24 1_555 1_555
C47 N1 1_555 1_555
C47 N22 1_555 1_555
C48 N3 1_555 1_555
C48 N24 1_555 1_555
C53 N25 1_555 1_555
C57 C58 1_555 1_555
C57 N26 1_555 1_555
C61 O34 1_555 1_555
C62 O35 1_555 1_555

#END
