
#######################################################################
#
#                 Cambridge Crystallographic Data Centre
#                                CCDC 
#
#######################################################################
#
# If this CIF has been generated from an entry in the Cambridge 
# Structural Database, then it will include bibliographic, chemical, 
# crystal, experimental, refinement or atomic coordinate data resulting 
# from the CCDC's data processing and validation procedures.
#
#######################################################################

data_QOGKIH
_chemical_formula_moiety         'C44 H48 N24 O12,C10 H9 N2 1+,Cl1 1-,12(H2 O1)'
_chemical_name_systematic        
"dicyclohexanocucurbit[6]uril dihydrate clathrate 4,4'-bipyridin-1-ium chloride decahydrate"
_symmetry_cell_setting           triclinic
_symmetry_space_group_name_H-M   'P -1'
_symmetry_Int_Tables_number      2
_space_group_name_Hall           '-P 1'
loop_
_symmetry_equiv_pos_site_id
_symmetry_equiv_pos_as_xyz
1 x,y,z
2 -x,-y,-z
_cell_length_a                   11.875(3)
_cell_length_b                   12.691(3)
_cell_length_c                   13.119(3)
_cell_angle_alpha                116.895(3)
_cell_angle_beta                 90.928(3)
_cell_angle_gamma                105.019(3)
_cell_volume                     1682.47
_cell_formula_units_Z            1
loop_
_atom_site_label
_atom_site_type_symbol
_atom_site_fract_x
_atom_site_fract_y
_atom_site_fract_z
O2 O 1.0000 0.0000 1.0000
O3 O 0.7621(5) 0.8248(5) 0.8376(5)
O4 O 0.6387(5) 0.6476(4) 0.8944(4)
O5 O 0.8476(6) 0.6075(7) 0.0755(17)
O6 O 1.0203(16) 0.736(2) -0.0248(10)
O7 O 0.5362(11) 0.0136(16) 0.4442(12)
Cl1 Cl 1.1515(4) 0.5785(5) -0.1776(4)
C1 C 0.3701(4) 0.2226(3) 0.8442(3)
C2 C 0.4709(4) 0.1528(4) 0.9438(3)
H1 H 0.4862 0.1988 1.0285
C3 C 0.3416(4) 0.0666(4) 0.8986(4)
H2 H 0.2997 0.0668 0.9624
C4 C 0.4710(4) -0.0537(4) 0.8314(4)
C5 C 0.1688(4) 0.0784(4) 0.7883(4)
H3 H 0.1478 0.1474 0.7884
H4 H 0.1199 0.0515 0.8356
C6 C 0.2579(4) -0.1685(4) 0.7713(4)
H5 H 0.2868 -0.2363 0.7633
H6 H 0.1991 -0.1620 0.8226
C7 C 0.1462(3) -0.0046(3) 0.5743(3)
C8 C 0.1062(3) -0.1551(3) 0.6380(3)
C9 C 0.0776(3) -0.2209(3) 0.5015(3)
C10 C 0.2311(3) -0.2803(3) 0.5581(4)
C11 C 0.0789(4) -0.1227(4) 0.3664(4)
H7 H 0.0011 -0.1817 0.3320
H8 H 0.0737 -0.0425 0.3800
C12 C 0.1624(4) -0.3832(4) 0.3498(4)
H9 H 0.0821 -0.4308 0.3111
H10 H 0.2017 -0.4402 0.3524
C13 C 0.2241(3) -0.0807(4) 0.2453(4)
C14 C 0.1603(4) -0.2852(4) 0.2171(3)
H11 H 0.0808 -0.3417 0.1803
C15 C 0.2400(4) -0.2792(4) 0.1269(4)
H12 H 0.1966 -0.3305 0.0480
C16 C 0.3190(4) -0.3566(3) 0.2341(4)
C17 C 0.5765(4) 0.3473(4) 0.9259(4)
H13 H 0.5462 0.4090 0.9207
H14 H 0.6110 0.3802 1.0057
C18 C 0.6677(4) 0.1029(4) 0.9185(4)
H15 H 0.6964 0.1664 0.9981
H16 H 0.6918 0.0316 0.9075
C19 C -0.0014(4) -0.1883(4) 0.6925(4)
H17 H 0.0226 -0.1556 0.7747
H18 H -0.0589 -0.1501 0.6830
C20 C -0.0576(4) -0.3273(4) 0.6374(4)
H19 H -0.1288 -0.3443 0.6699
H20 H -0.0037 -0.3638 0.6565
C21 C -0.0895(4) -0.3891(4) 0.5039(4)
H21 H -0.0515 -0.4535 0.4686
H22 H -0.1741 -0.4280 0.4822
C22 C -0.0515(4) -0.2965(4) 0.4568(4)
H23 H -0.0635 -0.3410 0.3730
H24 H -0.1002 -0.2413 0.4801
N2 N 0.4788(3) 0.2351(3) 0.8934(3)
N3 N 0.2912(3) 0.1201(3) 0.8390(3)
N4 N 0.5400(3) 0.0678(3) 0.8994(3)
N5 N 0.3554(3) -0.0545(3) 0.8248(3)
N6 N 0.1434(3) -0.0235(3) 0.6694(3)
N7 N 0.1110(3) -0.1155(3) 0.4766(3)
N8 N 0.2017(3) -0.1981(3) 0.6589(3)
N9 N 0.1588(3) -0.2955(3) 0.4664(3)
N10 N 0.1591(3) -0.1586(3) 0.2846(3)
N11 N 0.7223(3) 0.1488(3) 0.8428(3)
N12 N 0.2224(3) -0.3284(3) 0.2809(3)
N13 N 0.6670(3) 0.3261(3) 0.8539(3)
O8 O 0.3476(3) 0.2935(3) 0.8129(3)
O9 O 0.1741(2) 0.0985(2) 0.5779(3)
O10 O 0.2297(3) 0.0278(3) 0.2809(3)
O11 O 0.5077(3) -0.1441(3) 0.7903(3)
O12 O 0.3041(3) -0.3341(3) 0.5521(3)
O13 O 0.3826(3) -0.4029(3) 0.2644(3)
C1A C 0.6299(4) -0.2226(3) 0.1558(3)
C2A C 0.5291(4) -0.1528(4) 0.0562(3)
H1A H 0.5138 -0.1988 -0.0285
C3A C 0.6584(4) -0.0666(4) 0.1014(4)
H2A H 0.7003 -0.0668 0.0376
C4A C 0.5290(4) 0.0537(4) 0.1686(4)
C5A C 0.8312(4) -0.0784(4) 0.2117(4)
H3A H 0.8522 -0.1474 0.2116
H4A H 0.8801 -0.0515 0.1644
C6A C 0.7421(4) 0.1685(4) 0.2287(4)
H5A H 0.7132 0.2363 0.2367
H6A H 0.8009 0.1620 0.1774
C7A C 0.8538(3) 0.0046(3) 0.4257(3)
C8A C 0.8938(3) 0.1551(3) 0.3620(3)
C9A C 0.9224(3) 0.2209(3) 0.4985(3)
C10A C 0.7689(3) 0.2803(3) 0.4419(4)
C11A C 0.9211(4) 0.1227(4) 0.6336(4)
H7A H 0.9989 0.1817 0.6680
H8A H 0.9263 0.0425 0.6200
C12A C 0.8376(4) 0.3832(4) 0.6502(4)
H9A H 0.9179 0.4308 0.6889
H10A H 0.7983 0.4402 0.6476
C13A C 0.7759(3) 0.0807(4) 0.7547(4)
C14A C 0.8397(4) 0.2852(4) 0.7829(3)
H11A H 0.9192 0.3417 0.8197
C15A C 0.7600(4) 0.2792(4) 0.8731(4)
H12A H 0.8034 0.3305 0.9520
C16A C 0.6810(4) 0.3566(3) 0.7659(4)
C17A C 0.4235(4) -0.3473(4) 0.0741(4)
H13A H 0.4538 -0.4090 0.0793
H14A H 0.3890 -0.3802 -0.0057
C18A C 0.3323(4) -0.1029(4) 0.0815(4)
H15A H 0.3036 -0.1664 0.0019
H16A H 0.3082 -0.0316 0.0925
C19A C 1.0014(4) 0.1883(4) 0.3075(4)
H17A H 0.9774 0.1556 0.2253
H18A H 1.0589 0.1501 0.3170
C20A C 1.0576(4) 0.3273(4) 0.3626(4)
H19A H 1.1288 0.3443 0.3301
H20A H 1.0037 0.3638 0.3435
C21A C 1.0895(4) 0.3891(4) 0.4961(4)
H21A H 1.0515 0.4535 0.5314
H22A H 1.1741 0.4280 0.5178
C22A C 1.0515(4) 0.2965(4) 0.5432(4)
H23A H 1.0635 0.3410 0.6270
H24A H 1.1002 0.2413 0.5199
N2A N 0.5212(3) -0.2351(3) 0.1066(3)
N3A N 0.7088(3) -0.1201(3) 0.1610(3)
N4A N 0.4600(3) -0.0678(3) 0.1006(3)
N5A N 0.6446(3) 0.0545(3) 0.1752(3)
N6A N 0.8566(3) 0.0235(3) 0.3306(3)
N7A N 0.8890(3) 0.1155(3) 0.5234(3)
N8A N 0.7983(3) 0.1981(3) 0.3411(3)
N9A N 0.8412(3) 0.2955(3) 0.5336(3)
N10A N 0.8409(3) 0.1586(3) 0.7154(3)
N11A N 0.2777(3) -0.1488(3) 0.1572(3)
N12A N 0.7776(3) 0.3284(3) 0.7191(3)
N13A N 0.3330(3) -0.3261(3) 0.1461(3)
O8A O 0.6524(3) -0.2935(3) 0.1871(3)
O9A O 0.8259(2) -0.0985(2) 0.4221(3)
O10A O 0.7703(3) -0.0278(3) 0.7191(3)
O11A O 0.4923(3) 0.1441(3) 0.2097(3)
O12A O 0.6959(3) 0.3341(3) 0.4479(3)
O13A O 0.6174(3) 0.4029(3) 0.7356(3)
C23 C 0.5641(4) 0.4839(4) 0.3649(4)
H25 H 0.5427 0.3982 0.3213
C24 C 0.6250(5) 0.5573(4) 0.3215(4)
H26 H 0.6448 0.5206 0.2477
N1 N 0.6564(3) 0.6783(3) 0.3812(3)
C25 C 0.6322(5) 0.7343(4) 0.4881(5)
H28 H 0.6580 0.8202 0.5306
C26 C 0.5699(5) 0.6659(4) 0.5353(4)
H29 H 0.5511 0.7055 0.6090
C27 C 0.5345(3) 0.5383(3) 0.4747(4)
C23A C 0.4359(4) 0.5161(4) 0.6351(4)
H25A H 0.4573 0.6018 0.6787
C24A C 0.3750(5) 0.4427(4) 0.6785(4)
H26A H 0.3552 0.4794 0.7523
N1A N 0.3436(3) 0.3217(3) 0.6188(3)
C25A C 0.3678(5) 0.2657(4) 0.5119(5)
H28A H 0.3420 0.1798 0.4694
C26A C 0.4301(5) 0.3341(4) 0.4647(4)
H29A H 0.4489 0.2945 0.3910
C27A C 0.4655(3) 0.4617(3) 0.5253(4)
O1? O 0.9510(6) 0.0587(8) 0.9951(6)
Cl2? Cl 1.1476(4) 0.5043(8) -0.1596(5)
H27? H 0.6931 0.7222 0.3508
loop_
_geom_bond_atom_site_label_1
_geom_bond_atom_site_label_2
_geom_bond_site_symmetry_1
_geom_bond_site_symmetry_2
C1 N2 1_555 1_555
C2 H1 1_555 1_555
C3 C2 1_555 1_555
H2 C3 1_555 1_555
C4 N4 1_555 1_555
C5 H3 1_555 1_555
H4 C5 1_555 1_555
C6 H5 1_555 1_555
H6 C6 1_555 1_555
C7 N6 1_555 1_555
C8 C9 1_555 1_555
C9 C22 1_555 1_555
C10 N8 1_555 1_555
C11 H7 1_555 1_555
H8 C11 1_555 1_555
C12 H9 1_555 1_555
H10 C12 1_555 1_555
C13 N10 1_555 1_555
C14 H11 1_555 1_555
C15 C14 1_555 1_555
H12 C15 1_555 1_555
C16 N12 1_555 1_555
C17 H13 1_555 1_555
H14 C17 1_555 1_555
C18 H15 1_555 1_555
H16 C18 1_555 1_555
C19 C8 1_555 1_555
H17 C19 1_555 1_555
H18 C19 1_555 1_555
C20 C19 1_555 1_555
H19 C20 1_555 1_555
H20 C20 1_555 1_555
C21 C20 1_555 1_555
H21 C21 1_555 1_555
H22 C21 1_555 1_555
C22 C21 1_555 1_555
H23 C22 1_555 1_555
H24 C22 1_555 1_555
C23 H25 1_555 1_555
C24 C23 1_555 1_555
H26 C24 1_555 1_555
N1 C24 1_555 1_555
C25 N1 1_555 1_555
H28 C25 1_555 1_555
C26 C25 1_555 1_555
H29 C26 1_555 1_555
C27 C23 1_555 1_555
N2 C2 1_555 1_555
N3 C1 1_555 1_555
N4 C2 1_555 1_555
N5 C3 1_555 1_555
N6 C5 1_555 1_555
N7 C7 1_555 1_555
N8 C6 1_555 1_555
N9 C9 1_555 1_555
N10 C11 1_555 1_555
N11 C18 1_555 1_555
N12 C12 1_555 1_555
N13 C17 1_555 1_555
O8 C1 1_555 1_555
O9 C7 1_555 1_555
O10 C13 1_555 1_555
O11 C4 1_555 1_555
O12 C10 1_555 1_555
O13 C16 1_555 1_555
C1A N2A 1_555 1_555
C2A H1A 1_555 1_555
C3A C2A 1_555 1_555
H2A C3A 1_555 1_555
C4A N4A 1_555 1_555
C5A H3A 1_555 1_555
H4A C5A 1_555 1_555
C6A H5A 1_555 1_555
H6A C6A 1_555 1_555
C7A N6A 1_555 1_555
C8A C9A 1_555 1_555
C9A C22A 1_555 1_555
C10A N8A 1_555 1_555
C11A H7A 1_555 1_555
H8A C11A 1_555 1_555
C12A H9A 1_555 1_555
H10A C12A 1_555 1_555
C13A N11 1_555 1_555
C14A H11A 1_555 1_555
C15A N11 1_555 1_555
H12A C15A 1_555 1_555
C16A N13 1_555 1_555
C17A H13A 1_555 1_555
H14A C17A 1_555 1_555
C18A H15A 1_555 1_555
H16A C18A 1_555 1_555
C19A C8A 1_555 1_555
H17A C19A 1_555 1_555
H18A C19A 1_555 1_555
C20A C19A 1_555 1_555
H19A C20A 1_555 1_555
H20A C20A 1_555 1_555
C21A C20A 1_555 1_555
H21A C21A 1_555 1_555
H22A C21A 1_555 1_555
C22A C21A 1_555 1_555
H23A C22A 1_555 1_555
H24A C22A 1_555 1_555
C23A H25A 1_555 1_555
C24A C23A 1_555 1_555
H26A C24A 1_555 1_555
N1A C24A 1_555 1_555
C25A N1A 1_555 1_555
H28A C25A 1_555 1_555
C26A C25A 1_555 1_555
H29A C26A 1_555 1_555
C27A C27 1_555 1_555
N2A C2A 1_555 1_555
N3A C1A 1_555 1_555
N4A C2A 1_555 1_555
N5A C3A 1_555 1_555
N6A C5A 1_555 1_555
N7A C7A 1_555 1_555
N8A C6A 1_555 1_555
N9A C9A 1_555 1_555
N10A C11A 1_555 1_555
N11A C13 1_555 1_555
N12A C12A 1_555 1_555
N13A C15 1_555 1_555
O8A C1A 1_555 1_555
O9A C7A 1_555 1_555
O10A C13A 1_555 1_555
O11A C4A 1_555 1_555
O12A C10A 1_555 1_555
O13A C16A 1_555 1_555
C3 N3 1_555 1_555
C4 N5 1_555 1_555
C5 N3 1_555 1_555
C6 N5 1_555 1_555
C8 N6 1_555 1_555
C8 N8 1_555 1_555
C9 N7 1_555 1_555
C10 N9 1_555 1_555
C11 N7 1_555 1_555
C12 N9 1_555 1_555
C14 N10 1_555 1_555
C14 N12 1_555 1_555
C15 N11A 1_555 1_555
C16 N13A 1_555 1_555
C17 N2 1_555 1_555
C18 N4 1_555 1_555
C26 C27 1_555 1_555
N13 C15A 1_555 1_555
C3A N3A 1_555 1_555
C4A N5A 1_555 1_555
C5A N3A 1_555 1_555
C6A N5A 1_555 1_555
C8A N6A 1_555 1_555
C8A N8A 1_555 1_555
C9A N7A 1_555 1_555
C10A N9A 1_555 1_555
C11A N7A 1_555 1_555
C12A N9A 1_555 1_555
C13A N10A 1_555 1_555
C14A C15A 1_555 1_555
C14A N10A 1_555 1_555
C14A N12A 1_555 1_555
C16A N12A 1_555 1_555
C17A N2A 1_555 1_555
C17A N13A 1_555 1_555
C18A N4A 1_555 1_555
C18A N11A 1_555 1_555
C23A C27A 1_555 1_555
C26A C27A 1_555 1_555

#END
