
#######################################################################
#
#                 Cambridge Crystallographic Data Centre
#                                CCDC 
#
#######################################################################
#
# If this CIF has been generated from an entry in the Cambridge 
# Structural Database, then it will include bibliographic, chemical, 
# crystal, experimental, refinement or atomic coordinate data resulting 
# from the CCDC's data processing and validation procedures.
#
#######################################################################

data_QOGNEF
_chemical_formula_moiety         'C16 H8 N2 O4 S2'
_chemical_name_systematic        N,N'-Dithiodiphthalimide
_symmetry_cell_setting           monoclinic
_symmetry_space_group_name_H-M   'P 21/c'
_symmetry_Int_Tables_number      14
_space_group_name_Hall           '-P 2ybc'
loop_
_symmetry_equiv_pos_site_id
_symmetry_equiv_pos_as_xyz
1 x,y,z
2 x,1/2-y,1/2+z
3 -x,-y,-z
4 -x,1/2+y,1/2-z
_cell_length_a                   7.6037(3)
_cell_length_b                   33.9046(14)
_cell_length_c                   11.9404(6)
_cell_angle_alpha                90
_cell_angle_beta                 93.058(2)
_cell_angle_gamma                90
_cell_volume                     3073.86
_exptl_crystal_colour            colorless
_exptl_crystal_description       needle
_cell_formula_units_Z            8
_exptl_crystal_recrystallization_method 'ethyl acetate'
loop_
_atom_site_label
_atom_site_type_symbol
_atom_site_fract_x
_atom_site_fract_y
_atom_site_fract_z
S1 S -0.26801(18) 0.10476(3) 0.36742(10)
N1 N -0.3266(5) 0.15252(9) 0.3769(3)
O1 O -0.4394(5) 0.16311(9) 0.1953(2)
C1 C -0.3928(6) 0.17565(13) 0.2861(4)
O2 O -0.2213(4) 0.16348(8) 0.5610(2)
C2 C -0.2780(6) 0.17629(13) 0.4726(4)
C3 C -0.3153(6) 0.21735(13) 0.4361(4)
C4 C -0.2831(6) 0.25195(14) 0.4945(4)
H1 H -0.2335 0.2520 0.5692
C5 C -0.3268(6) 0.28664(14) 0.4385(4)
H2 H -0.3061 0.3111 0.4756
C6 C -0.3995(7) 0.28659(14) 0.3305(4)
H3 H -0.4285 0.3110 0.2949
C7 C -0.4312(6) 0.25163(14) 0.2724(4)
H4 H -0.4822 0.2515 0.1980
C8 C -0.3858(6) 0.21714(13) 0.3271(4)
S2 S -0.48138(18) 0.07314(3) 0.40542(10)
N2 N -0.4728(5) 0.07114(10) 0.5464(3)
O3 O -0.6047(5) 0.13174(9) 0.5776(3)
C9 C -0.5386(7) 0.10175(15) 0.6143(4)
O4 O -0.3289(4) 0.01118(8) 0.5783(2)
C10 C -0.3994(6) 0.03997(13) 0.6142(4)
C11 C -0.4282(6) 0.05189(13) 0.7308(4)
C12 C -0.3840(6) 0.03171(12) 0.8285(4)
H5 H -0.3283 0.0066 0.8279
C13 C -0.4247(6) 0.04988(14) 0.9278(4)
H6 H -0.3950 0.0370 0.9969
C14 C -0.5074(6) 0.08621(14) 0.9295(4)
H7 H -0.5350 0.0976 0.9991
C15 C -0.5503(6) 0.10622(13) 0.8306(4)
H8 H -0.6057 0.1313 0.8309
C16 C -0.5095(6) 0.08822(13) 0.7315(4)
S3 S 0.16960(18) 0.10948(4) 1.17982(10)
N3 N 0.1563(5) 0.15862(9) 1.1644(3)
O5 O 0.2624(4) 0.16513(8) 0.9862(2)
C17 C 0.2096(6) 0.17991(13) 1.0691(4)
O6 O 0.0326(4) 0.17349(8) 1.3335(2)
C18 C 0.0899(6) 0.18402(13) 1.2462(4)
C19 C 0.1090(6) 0.22442(14) 1.2005(4)
C20 C 0.0649(6) 0.25976(14) 1.2479(4)
H9 H 0.0129 0.2610 1.3184
C21 C 0.1004(7) 0.29345(14) 1.1875(4)
H10 H 0.0748 0.3186 1.2180
C22 C 0.1729(7) 0.29128(15) 1.0827(4)
H11 H 0.1938 0.3149 1.0426
C23 C 0.2151(6) 0.25509(14) 1.0361(4)
H12 H 0.2651 0.2534 0.9650
C24 C 0.1813(6) 0.22192(13) 1.0972(4)
S4 S -0.05242(19) 0.08796(4) 1.10208(10)
N4 N 0.0036(5) 0.07794(11) 0.9706(3)
O7 O 0.1626(5) 0.02058(9) 1.0088(3)
C25 C 0.0948(7) 0.04332(14) 0.9422(4)
O8 O -0.1123(4) 0.13295(9) 0.8769(2)
C26 C -0.0414(6) 0.10112(14) 0.8742(4)
C27 C 0.0145(6) 0.07772(12) 0.7784(4)
C28 C -0.0003(6) 0.08596(13) 0.6651(4)
H13 H -0.0525 0.1098 0.6380
C29 C 0.0638(7) 0.05821(16) 0.5921(4)
H14 H 0.0568 0.0631 0.5136
C30 C 0.1381(7) 0.02335(15) 0.6335(4)
H15 H 0.1780 0.0043 0.5823
C31 C 0.1556(6) 0.01562(13) 0.7471(4)
H16 H 0.2092 -0.0080 0.7749
C32 C 0.0923(6) 0.04351(13) 0.8185(4)
loop_
_geom_bond_atom_site_label_1
_geom_bond_atom_site_label_2
_geom_bond_site_symmetry_1
_geom_bond_site_symmetry_2
S1 N1 1_555 1_555
N1 C1 1_555 1_555
O1 C1 1_555 1_555
C1 C8 1_555 1_555
O2 C2 1_555 1_555
C2 N1 1_555 1_555
C3 C2 1_555 1_555
C4 C3 1_555 1_555
H1 C4 1_555 1_555
C5 C4 1_555 1_555
H2 C5 1_555 1_555
C6 C5 1_555 1_555
H3 C6 1_555 1_555
C7 C6 1_555 1_555
H4 C7 1_555 1_555
C8 C3 1_555 1_555
S2 S1 1_555 1_555
N2 S2 1_555 1_555
O3 C9 1_555 1_555
C9 N2 1_555 1_555
O4 C10 1_555 1_555
C10 N2 1_555 1_555
C11 C10 1_555 1_555
C12 C11 1_555 1_555
H5 C12 1_555 1_555
C13 C12 1_555 1_555
H6 C13 1_555 1_555
C14 C13 1_555 1_555
H7 C14 1_555 1_555
C15 C14 1_555 1_555
H8 C15 1_555 1_555
C16 C9 1_555 1_555
S3 N3 1_555 1_555
N3 C17 1_555 1_555
O5 C17 1_555 1_555
C17 C24 1_555 1_555
O6 C18 1_555 1_555
C18 N3 1_555 1_555
C19 C18 1_555 1_555
C20 C19 1_555 1_555
H9 C20 1_555 1_555
C21 C20 1_555 1_555
H10 C21 1_555 1_555
C22 C21 1_555 1_555
H11 C22 1_555 1_555
C23 C22 1_555 1_555
H12 C23 1_555 1_555
C24 C19 1_555 1_555
S4 S3 1_555 1_555
N4 S4 1_555 1_555
O7 C25 1_555 1_555
C25 N4 1_555 1_555
O8 C26 1_555 1_555
C26 N4 1_555 1_555
C27 C26 1_555 1_555
C28 C27 1_555 1_555
H13 C28 1_555 1_555
C29 C28 1_555 1_555
H14 C29 1_555 1_555
C30 C29 1_555 1_555
H15 C30 1_555 1_555
C31 C30 1_555 1_555
H16 C31 1_555 1_555
C32 C25 1_555 1_555
C7 C8 1_555 1_555
C11 C16 1_555 1_555
C15 C16 1_555 1_555
C23 C24 1_555 1_555
C27 C32 1_555 1_555
C31 C32 1_555 1_555

#END
