
#######################################################################
#
#                 Cambridge Crystallographic Data Centre
#                                CCDC 
#
#######################################################################
#
# If this CIF has been generated from an entry in the Cambridge 
# Structural Database, then it will include bibliographic, chemical, 
# crystal, experimental, refinement or atomic coordinate data resulting 
# from the CCDC's data processing and validation procedures.
#
#######################################################################

data_QOGVOY
_chemical_formula_moiety         'C44 H34 N8,0.5(C4 H10 O1)'
_chemical_name_systematic        
'\a,\a,\b,\b-5,10,15,20-tetrakis(2-Aminophenyl)porphyrin diethyl ether solvate'
_symmetry_cell_setting           monoclinic
_symmetry_space_group_name_H-M   'C 2/c'
_symmetry_Int_Tables_number      15
_space_group_name_Hall           '-C 2yn'
loop_
_symmetry_equiv_pos_site_id
_symmetry_equiv_pos_as_xyz
1 x,y,z
2 1/2+x,1/2+y,z
3 -x,y,1/2-z
4 1/2-x,1/2+y,1/2-z
5 -x,-y,-z
6 1/2-x,1/2-y,-z
7 x,-y,1/2+z
8 1/2+x,1/2-y,1/2+z
_cell_length_a                   31.804(6)
_cell_length_b                   19.314(4)
_cell_length_c                   12.872(3)
_cell_angle_alpha                90
_cell_angle_beta                 90.59(3)
_cell_angle_gamma                90
_cell_volume                     7906.37
_exptl_crystal_colour            purple-red
_cell_formula_units_Z            8
loop_
_atom_site_label
_atom_site_type_symbol
_atom_site_fract_x
_atom_site_fract_y
_atom_site_fract_z
C1 C 0.40888(12) 0.5633(2) 0.3856(3)
C2 C 0.40938(12) 0.4934(2) 0.4158(3)
C3 C 0.37592(13) 0.4450(2) 0.3998(4)
H1 H 0.3497 0.4546 0.3705
C4 C 0.38905(13) 0.3836(3) 0.4346(4)
H2 H 0.3736 0.3428 0.4338
C5 C 0.43109(12) 0.3917(2) 0.4736(3)
C6 C 0.45543(12) 0.3386(2) 0.5163(3)
C7 C 0.49592(13) 0.3461(2) 0.5565(3)
C8 C 0.52059(14) 0.2913(2) 0.6027(3)
H3 H 0.5123 0.2457 0.6127
C9 C 0.55805(14) 0.3193(2) 0.6287(4)
H4 H 0.5804 0.2959 0.6599
C10 C 0.44198(12) 0.6095(2) 0.3993(3)
C11 C 0.36933(13) 0.5905(2) 0.3361(4)
C12 C 0.33990(16) 0.6263(3) 0.3959(5)
C13 C 0.30407(17) 0.6516(3) 0.3447(6)
H5 H 0.2842 0.6759 0.3828
C14 C 0.2972(2) 0.6422(3) 0.2429(7)
H6 H 0.2728 0.6594 0.2119
C15 C 0.32603(19) 0.6072(3) 0.1839(5)
H7 H 0.3218 0.6007 0.1130
C16 C 0.36173(17) 0.5818(3) 0.2340(5)
C17 C 0.43662(12) 0.2672(2) 0.5184(4)
C18 C 0.44269(14) 0.2227(2) 0.4368(4)
C19 C 0.42496(17) 0.1567(3) 0.4397(5)
H8 H 0.4290 0.1258 0.3855
C20 C 0.4014(2) 0.1383(4) 0.5241(8)
H9 H 0.3895 0.0943 0.5263
C21 C 0.3948(3) 0.1828(5) 0.6052(7)
H10 H 0.3786 0.1695 0.6616
C22 C 0.4124(2) 0.2467(3) 0.6014(5)
H11 H 0.4080 0.2775 0.6559
N1 N 0.44265(9) 0.45968(18) 0.4622(3)
N2 N 0.51950(10) 0.40504(17) 0.5585(3)
H28 H 0.5114 0.4450 0.5368
N3 N 0.46709(16) 0.2400(2) 0.3542(4)
H29 H 0.4792 0.2798 0.3522
H30 H 0.4704 0.2111 0.3042
N5 N 0.3447(3) 0.6349(5) 0.4977(7)
H33 H 0.3257 0.6562 0.5326
H34 H 0.3668 0.6193 0.5288
C1D C 0.59112(12) 0.4367(2) 0.6144(3)
C2D C 0.59062(12) 0.5066(2) 0.5842(3)
C3D C 0.62408(13) 0.5550(2) 0.6002(4)
H1D H 0.6503 0.5454 0.6295
C4D C 0.61095(13) 0.6164(3) 0.5654(4)
H2D H 0.6264 0.6572 0.5662
C5D C 0.56891(12) 0.6083(2) 0.5264(3)
C6D C 0.54457(12) 0.6614(2) 0.4837(3)
C7D C 0.50408(13) 0.6539(2) 0.4435(3)
C8D C 0.47941(14) 0.7087(2) 0.3973(3)
H3D H 0.4877 0.7543 0.3873
C9D C 0.44195(14) 0.6807(2) 0.3713(4)
H4D H 0.4196 0.7041 0.3401
C10D C 0.55802(12) 0.3905(2) 0.6007(3)
C11D C 0.63067(13) 0.4095(2) 0.6639(4)
C12D C 0.66010(16) 0.3737(3) 0.6041(5)
C13D C 0.69593(17) 0.3484(3) 0.6553(6)
H5D H 0.7158 0.3241 0.6172
C14D C 0.7028(2) 0.3578(3) 0.7571(7)
H6D H 0.7272 0.3406 0.7881
C15D C 0.67397(19) 0.3928(3) 0.8161(5)
H7D H 0.6782 0.3993 0.8870
C16D C 0.63827(17) 0.4182(3) 0.7660(5)
C17D C 0.56338(12) 0.7328(2) 0.4816(4)
C18D C 0.55731(14) 0.7773(2) 0.5632(4)
C19D C 0.57504(17) 0.8433(3) 0.5603(5)
H8D H 0.5710 0.8742 0.6145
C20D C 0.5986(2) 0.8617(4) 0.4759(8)
H9D H 0.6105 0.9057 0.4737
C21D C 0.6052(3) 0.8172(5) 0.3948(7)
H10D H 0.6214 0.8305 0.3384
C22D C 0.5876(2) 0.7533(3) 0.3986(5)
H11D H 0.5920 0.7225 0.3441
N1D N 0.55735(9) 0.54032(18) 0.5378(3)
N2D N 0.48050(10) 0.59496(17) 0.4415(3)
H28D H 0.4886 0.5550 0.4632
N3D N 0.53291(16) 0.7600(2) 0.6458(4)
H29D H 0.5208 0.7202 0.6478
H30D H 0.5296 0.7889 0.6958
N5D N 0.6553(3) 0.3651(5) 0.5023(7)
H33D H 0.6743 0.3438 0.4674
H34D H 0.6332 0.3807 0.4712
C23 C 0.24406(12) 0.3382(2) 0.2314(3)
C24 C 0.27727(11) 0.2922(2) 0.2184(3)
C25 C 0.30852(13) 0.2771(2) 0.2991(3)
H12 H 0.3100 0.2970 0.3648
C26 C 0.33457(13) 0.2294(2) 0.2612(3)
H13 H 0.3577 0.2100 0.2951
C27 C 0.31993(12) 0.2135(2) 0.1570(3)
C28 C 0.33846(12) 0.1652(2) 0.0925(3)
C29 C 0.32499(12) 0.1487(2) -0.0093(3)
C30 C 0.34394(13) 0.1016(2) -0.0791(4)
H14 H 0.3681 0.0757 -0.0661
C31 C 0.32108(13) 0.1009(2) -0.1672(4)
H15 H 0.3267 0.0746 -0.2259
C32 C 0.21309(12) 0.3528(2) 0.1557(3)
C33 C 0.24071(12) 0.3765(2) 0.3312(3)
C34 C 0.25510(15) 0.4440(3) 0.3402(5)
C35 C 0.24985(19) 0.4798(3) 0.4344(6)
H16 H 0.2589 0.5254 0.4405
C36 C 0.2314(2) 0.4478(5) 0.5171(6)
H17 H 0.2288 0.4716 0.5795
C37 C 0.21710(19) 0.3834(5) 0.5099(5)
H18 H 0.2038 0.3630 0.5661
C38 C 0.22211(17) 0.3459(4) 0.4170(4)
C39 C 0.37576(13) 0.1233(3) 0.1321(3)
C40 C 0.36854(17) 0.0604(3) 0.1815(5)
H19 H 0.3410 0.0458 0.1917
C41 C 0.4013(2) 0.0191(3) 0.2158(6)
H20 H 0.3962 -0.0213 0.2529
C42 C 0.4402(2) 0.0385(4) 0.1946(6)
H21 H 0.4620 0.0084 0.2117
C43 C 0.45000(16) 0.0993(4) 0.1496(5)
H22 H 0.4778 0.1124 0.1396
C44 C 0.41567(16) 0.1432(3) 0.1175(4)
N6 N 0.29023(9) 0.17501(17) -0.0587(3)
H35 H 0.2731 0.2046 -0.0326
N7 N 0.28531(9) 0.25287(17) 0.1322(2)
N8 N 0.42441(16) 0.2027(4) 0.0755(6)
H36 H 0.4044 0.2301 0.0566
H37 H 0.4502 0.2147 0.0667
N10 N 0.2732(2) 0.4730(3) 0.2616(6)
H40 H 0.2762 0.4503 0.2046
H41 H 0.2823 0.5148 0.2664
C23E C 0.25594(12) 0.1618(2) -0.2314(3)
C24E C 0.22273(11) 0.2078(2) -0.2184(3)
C25E C 0.19148(13) 0.2229(2) -0.2991(3)
H12E H 0.1900 0.2030 -0.3648
C26E C 0.16543(13) 0.2706(2) -0.2612(3)
H13E H 0.1423 0.2900 -0.2951
C27E C 0.18007(12) 0.2865(2) -0.1570(3)
C28E C 0.16154(12) 0.3348(2) -0.0925(3)
C29E C 0.17501(12) 0.3513(2) 0.0093(3)
C30E C 0.15606(13) 0.3984(2) 0.0791(4)
H14E H 0.1319 0.4243 0.0661
C31E C 0.17892(13) 0.3991(2) 0.1672(4)
H15E H 0.1733 0.4254 0.2259
C32E C 0.28691(12) 0.1472(2) -0.1557(3)
C33E C 0.25929(12) 0.1235(2) -0.3312(3)
C34E C 0.24490(15) 0.0560(3) -0.3402(5)
C35E C 0.25015(19) 0.0202(3) -0.4344(6)
H16E H 0.2411 -0.0254 -0.4405
C36E C 0.2686(2) 0.0522(5) -0.5171(6)
H17E H 0.2712 0.0284 -0.5795
C37E C 0.28290(19) 0.1166(5) -0.5099(5)
H18E H 0.2962 0.1370 -0.5661
C38E C 0.27789(17) 0.1541(4) -0.4170(4)
C39E C 0.12424(13) 0.3767(3) -0.1321(3)
C40E C 0.13146(17) 0.4396(3) -0.1815(5)
H19E H 0.1590 0.4542 -0.1917
C41E C 0.0987(2) 0.4809(3) -0.2158(6)
H20E H 0.1038 0.5213 -0.2529
C42E C 0.0598(2) 0.4615(4) -0.1946(6)
H21E H 0.0380 0.4916 -0.2117
C43E C 0.05000(16) 0.4007(4) -0.1496(5)
H22E H 0.0222 0.3876 -0.1396
C44E C 0.08433(16) 0.3568(3) -0.1175(4)
N6E N 0.20977(9) 0.32499(17) 0.0587(3)
H35E H 0.2269 0.2954 0.0326
N7E N 0.21469(9) 0.24713(17) -0.1322(2)
N8E N 0.07559(16) 0.2973(4) -0.0755(6)
H36E H 0.0956 0.2699 -0.0566
H37E H 0.0498 0.2853 -0.0667
N10E N 0.2268(2) 0.0270(3) -0.2616(6)
H40E H 0.2238 0.0497 -0.2046
H41E H 0.2177 -0.0148 -0.2664
C45 C 0.4667(4) 0.5775(9) 0.7089(8)
H23 H 0.4565 0.5470 0.7630
H24 H 0.4775 0.5489 0.6533
C46 C 0.4281(5) 0.6232(7) 0.6648(9)
H25 H 0.4204 0.6571 0.7157
H26 H 0.4045 0.5936 0.6505
H27 H 0.4363 0.6461 0.6021
O1 O 0.5000 0.6192(5) 0.7500
C45B C 0.5333(4) 0.5775(9) 0.7911(8)
H23B H 0.5435 0.5470 0.7370
H24B H 0.5225 0.5489 0.8467
C46B C 0.5719(5) 0.6232(7) 0.8352(9)
H25B H 0.5796 0.6571 0.7843
H26B H 0.5955 0.5936 0.8495
H27B H 0.5637 0.6461 0.8979
N4? N 0.3852(3) 0.5427(7) 0.1785(8)
H31? H 0.4063 0.5215 0.2066
H32? H 0.3799 0.5377 0.1133
N9? N 0.2099(4) 0.2897(7) 0.4113(9)
H38? H 0.2122 0.2670 0.3542
H39? H 0.1983 0.2706 0.4642
loop_
_geom_bond_atom_site_label_1
_geom_bond_atom_site_label_2
_geom_bond_site_symmetry_1
_geom_bond_site_symmetry_2
C1 C2 1_555 1_555
C2 C3 1_555 1_555
C3 H1 1_555 1_555
C4 C3 1_555 1_555
H2 C4 1_555 1_555
C5 C4 1_555 1_555
C6 C5 1_555 1_555
C7 C6 1_555 1_555
C8 C7 1_555 1_555
H3 C8 1_555 1_555
C9 C8 1_555 1_555
H4 C9 1_555 1_555
C10 C1 1_555 1_555
C11 C1 1_555 1_555
C12 C11 1_555 1_555
C13 C12 1_555 1_555
H5 C13 1_555 1_555
C14 C13 1_555 1_555
H6 C14 1_555 1_555
C15 C14 1_555 1_555
H7 C15 1_555 1_555
C16 C11 1_555 1_555
C17 C6 1_555 1_555
C18 C17 1_555 1_555
C19 C18 1_555 1_555
H8 C19 1_555 1_555
C20 C19 1_555 1_555
H9 C20 1_555 1_555
C21 C20 1_555 1_555
H10 C21 1_555 1_555
C22 C17 1_555 1_555
H11 C22 1_555 1_555
C23 C24 1_555 1_555
C24 C25 1_555 1_555
C25 H12 1_555 1_555
C26 C25 1_555 1_555
H13 C26 1_555 1_555
C27 C26 1_555 1_555
C28 C27 1_555 1_555
C29 C28 1_555 1_555
C30 C29 1_555 1_555
H14 C30 1_555 1_555
C31 C30 1_555 1_555
H15 C31 1_555 1_555
C32 C23 1_555 1_555
C33 C23 1_555 1_555
C34 C33 1_555 1_555
C35 C34 1_555 1_555
H16 C35 1_555 1_555
C36 C35 1_555 1_555
H17 C36 1_555 1_555
C37 C36 1_555 1_555
H18 C37 1_555 1_555
C38 C33 1_555 1_555
C39 C28 1_555 1_555
C40 C39 1_555 1_555
H19 C40 1_555 1_555
C41 C40 1_555 1_555
H20 C41 1_555 1_555
C42 C41 1_555 1_555
H21 C42 1_555 1_555
C43 C42 1_555 1_555
H22 C43 1_555 1_555
C44 C39 1_555 1_555
C45 H23 1_555 1_555
H24 C45 1_555 1_555
C46 C45 1_555 1_555
H25 C46 1_555 1_555
H26 C46 1_555 1_555
H27 C46 1_555 1_555
N1 C2 1_555 1_555
N2 C7 1_555 1_555
H28 N2 1_555 1_555
N3 C18 1_555 1_555
H29 N3 1_555 1_555
H30 N3 1_555 1_555
N5 C12 1_555 1_555
H33 N5 1_555 1_555
H34 N5 1_555 1_555
N6 C29 1_555 1_555
H35 N6 1_555 1_555
N7 C24 1_555 1_555
N8 C44 1_555 1_555
H36 N8 1_555 1_555
H37 N8 1_555 1_555
N10 C34 1_555 1_555
H40 N10 1_555 1_555
H41 N10 1_555 1_555
O1 C45 1_555 1_555
C1D C2D 1_555 1_555
C2D C3D 1_555 1_555
C3D H1D 1_555 1_555
C4D C3D 1_555 1_555
H2D C4D 1_555 1_555
C5D C4D 1_555 1_555
C6D C5D 1_555 1_555
C7D C6D 1_555 1_555
C8D C7D 1_555 1_555
H3D C8D 1_555 1_555
C9D C10 1_555 1_555
H4D C9D 1_555 1_555
C10D C9 1_555 1_555
C11D C1D 1_555 1_555
C12D C11D 1_555 1_555
C13D C12D 1_555 1_555
H5D C13D 1_555 1_555
C14D C13D 1_555 1_555
H6D C14D 1_555 1_555
C15D C14D 1_555 1_555
H7D C15D 1_555 1_555
C16D C11D 1_555 1_555
C17D C6D 1_555 1_555
C18D C17D 1_555 1_555
C19D C18D 1_555 1_555
H8D C19D 1_555 1_555
C20D C19D 1_555 1_555
H9D C20D 1_555 1_555
C21D C20D 1_555 1_555
H10D C21D 1_555 1_555
C22D C17D 1_555 1_555
H11D C22D 1_555 1_555
C23E C24E 1_555 1_555
C24E C25E 1_555 1_555
C25E H12E 1_555 1_555
C26E C25E 1_555 1_555
H13E C26E 1_555 1_555
C27E C26E 1_555 1_555
C28E C27E 1_555 1_555
C29E C28E 1_555 1_555
C30E C29E 1_555 1_555
H14E C30E 1_555 1_555
C31E C32 1_555 1_555
H15E C31E 1_555 1_555
C32E C31 1_555 1_555
C33E C23E 1_555 1_555
C34E C33E 1_555 1_555
C35E C34E 1_555 1_555
H16E C35E 1_555 1_555
C36E C35E 1_555 1_555
H17E C36E 1_555 1_555
C37E C36E 1_555 1_555
H18E C37E 1_555 1_555
C38E C33E 1_555 1_555
C39E C28E 1_555 1_555
C40E C39E 1_555 1_555
H19E C40E 1_555 1_555
C41E C40E 1_555 1_555
H20E C41E 1_555 1_555
C42E C41E 1_555 1_555
H21E C42E 1_555 1_555
C43E C42E 1_555 1_555
H22E C43E 1_555 1_555
C44E C39E 1_555 1_555
C45B O1 1_555 1_555
H23B C45B 1_555 1_555
H24B C45B 1_555 1_555
C46B C45B 1_555 1_555
H25B C46B 1_555 1_555
H26B C46B 1_555 1_555
H27B C46B 1_555 1_555
N1D C2D 1_555 1_555
N2D C10 1_555 1_555
H28D N2D 1_555 1_555
N3D C18D 1_555 1_555
H29D N3D 1_555 1_555
H30D N3D 1_555 1_555
N5D C12D 1_555 1_555
H33D N5D 1_555 1_555
H34D N5D 1_555 1_555
N6E C32 1_555 1_555
H35E N6E 1_555 1_555
N7E C24E 1_555 1_555
N8E C44E 1_555 1_555
H36E N8E 1_555 1_555
H37E N8E 1_555 1_555
N10E C34E 1_555 1_555
H40E N10E 1_555 1_555
H41E N10E 1_555 1_555
C5 N1 1_555 1_555
C15 C16 1_555 1_555
C21 C22 1_555 1_555
C27 N7 1_555 1_555
C37 C38 1_555 1_555
C43 C44 1_555 1_555
N2 C10D 1_555 1_555
N6 C32E 1_555 1_555
C1D C10D 1_555 1_555
C5D N1D 1_555 1_555
C7D N2D 1_555 1_555
C8D C9D 1_555 1_555
C15D C16D 1_555 1_555
C21D C22D 1_555 1_555
C23E C32E 1_555 1_555
C27E N7E 1_555 1_555
C29E N6E 1_555 1_555
C30E C31E 1_555 1_555
C37E C38E 1_555 1_555
C43E C44E 1_555 1_555

#END
