
#######################################################################
#
#                 Cambridge Crystallographic Data Centre
#                                CCDC 
#
#######################################################################
#
# If this CIF has been generated from an entry in the Cambridge 
# Structural Database, then it will include bibliographic, chemical, 
# crystal, experimental, refinement or atomic coordinate data resulting 
# from the CCDC's data processing and validation procedures.
#
#######################################################################

data_QOGWOA
_chemical_formula_moiety         'C22 H20 N2 O3'
_chemical_name_systematic        
2,6-bis(4-Methoxyphenyl)-4-oxocyclohexane-1,1-dicarbonitrile
_symmetry_cell_setting           monoclinic
_symmetry_space_group_name_H-M   'P 21/c'
_symmetry_Int_Tables_number      14
_space_group_name_Hall           '-P 2ybc'
loop_
_symmetry_equiv_pos_site_id
_symmetry_equiv_pos_as_xyz
1 x,y,z
2 -x,1/2+y,1/2-z
3 -x,-y,-z
4 x,1/2-y,1/2+z
_cell_length_a                   11.5787(6)
_cell_length_b                   13.7401(5)
_cell_length_c                   12.8305(6)
_cell_angle_alpha                90
_cell_angle_beta                 116.445(2)
_cell_angle_gamma                90
_cell_volume                     1827.65
_exptl_crystal_colour            colorless
_exptl_crystal_description       prism
_cell_formula_units_Z            4
loop_
_atom_site_label
_atom_site_type_symbol
_atom_site_fract_x
_atom_site_fract_y
_atom_site_fract_z
C1 C 0.01378(14) 1.22979(10) 0.61638(13)
H1 H -0.0574 1.1888 0.6122
H2 H -0.0160 1.2972 0.5980
H3 H 0.0851 1.2267 0.6951
C2 C 0.11780(11) 1.10743(9) 0.55742(11)
C3 C 0.12200(12) 1.04426(9) 0.64312(11)
H4 H 0.0789 1.0603 0.6889
C4 C 0.18933(11) 0.95747(9) 0.66181(11)
H5 H 0.1908 0.9140 0.7200
C5 C 0.25464(11) 0.93265(9) 0.59741(10)
C6 C 0.24501(12) 0.99598(9) 0.50851(11)
H6 H 0.2859 0.9792 0.4611
C7 C 0.17750(12) 1.08218(9) 0.48818(11)
H7 H 0.1718 1.1241 0.4272
C8 C 0.33820(11) 0.84266(9) 0.62133(10)
H8 H 0.3384 0.8233 0.5463
C9 C 0.29052(13) 0.75411(9) 0.66527(11)
H9 H 0.1957 0.7496 0.6191
H10 H 0.3282 0.6946 0.6493
C10 C 0.32146(12) 0.75434(8) 0.79275(11)
C11 C 0.45653(12) 0.78447(9) 0.87543(11)
H11 H 0.5173 0.7320 0.8801
H12 H 0.4622 0.7936 0.9541
C12 C 0.49622(12) 0.87901(9) 0.83681(10)
H13 H 0.4321 0.9296 0.8323
C13 C 0.48235(12) 0.86638(9) 0.71040(11)
C14 C 0.62711(11) 0.91596(9) 0.92293(10)
C15 C 0.73632(12) 0.85732(9) 0.96759(11)
H14 H 0.7288 0.7911 0.9443
C16 C 0.85590(12) 0.89290(9) 1.04510(11)
H15 H 0.9293 0.8515 1.0745
C17 C 0.86743(11) 0.98971(9) 1.07933(10)
C18 C 0.75933(12) 1.04944(9) 1.03716(11)
H16 H 0.7669 1.1154 1.0616
C19 C 0.64072(12) 1.01289(9) 0.95965(10)
H17 H 0.5673 1.0543 0.9309
C20 C 1.09673(12) 0.97855(10) 1.19011(12)
H18 H 1.0946 0.9227 1.2367
H19 H 1.1707 1.0200 1.2369
H20 H 1.1046 0.9555 1.1213
C21 C 0.52739(12) 0.95700(10) 0.67756(11)
C22 C 0.56466(12) 0.78540(10) 0.70522(11)
N1 N 0.56338(11) 1.02800(9) 0.65602(10)
N2 N 0.62160(12) 0.72041(10) 0.69711(11)
O1 O 0.05689(8) 1.19581(6) 0.53456(8)
O2 O 0.24347(8) 0.72996(6) 0.82703(8)
O3 O 0.98030(8) 1.03337(6) 1.15422(8)
loop_
_geom_bond_atom_site_label_1
_geom_bond_atom_site_label_2
_geom_bond_site_symmetry_1
_geom_bond_site_symmetry_2
C1 H1 1_555 1_555
H2 C1 1_555 1_555
H3 C1 1_555 1_555
C2 C3 1_555 1_555
C3 H4 1_555 1_555
C4 C3 1_555 1_555
H5 C4 1_555 1_555
C5 C4 1_555 1_555
C6 C5 1_555 1_555
H6 C6 1_555 1_555
C7 C2 1_555 1_555
H7 C7 1_555 1_555
C8 C5 1_555 1_555
H8 C8 1_555 1_555
C9 C8 1_555 1_555
H9 C9 1_555 1_555
H10 C9 1_555 1_555
C10 C9 1_555 1_555
C11 C10 1_555 1_555
H11 C11 1_555 1_555
H12 C11 1_555 1_555
C12 C11 1_555 1_555
H13 C12 1_555 1_555
C13 C8 1_555 1_555
C14 C12 1_555 1_555
C15 C14 1_555 1_555
H14 C15 1_555 1_555
C16 C15 1_555 1_555
H15 C16 1_555 1_555
C17 C16 1_555 1_555
C18 C17 1_555 1_555
H16 C18 1_555 1_555
C19 C14 1_555 1_555
H17 C19 1_555 1_555
C20 H18 1_555 1_555
H19 C20 1_555 1_555
H20 C20 1_555 1_555
C21 C13 1_555 1_555
C22 C13 1_555 1_555
N1 C21 1_555 1_555
N2 C22 1_555 1_555
O1 C1 1_555 1_555
O2 C10 1_555 1_555
O3 C17 1_555 1_555
C2 O1 1_555 1_555
C6 C7 1_555 1_555
C12 C13 1_555 1_555
C18 C19 1_555 1_555
C20 O3 1_555 1_555

#END
