
#######################################################################
#
#                 Cambridge Crystallographic Data Centre
#                                CCDC 
#
#######################################################################
#
# If this CIF has been generated from an entry in the Cambridge 
# Structural Database, then it will include bibliographic, chemical, 
# crystal, experimental, refinement or atomic coordinate data resulting 
# from the CCDC's data processing and validation procedures.
#
#######################################################################

data_QOGYUI
_chemical_formula_moiety         'H12 Mg1 O6 2+,C4 H2 N14 2-,3(H2 O1)'
_chemical_name_systematic        
"Hexa-aqua-magnesium(ii) 5,5'-(1,2,4,5-tetrazine-3,6-diyldiimino)bistetrazolide trihydrate"
_symmetry_cell_setting           monoclinic
_symmetry_space_group_name_H-M   'C 2/c'
_symmetry_Int_Tables_number      15
_space_group_name_Hall           '-C 2yn'
loop_
_symmetry_equiv_pos_site_id
_symmetry_equiv_pos_as_xyz
1 x,y,z
2 -x,y,1/2-z
3 1/2+x,1/2+y,z
4 1/2-x,1/2+y,1/2-z
5 -x,-y,-z
6 x,-y,1/2+z
7 1/2-x,1/2-y,-z
8 1/2+x,1/2-y,1/2+z
_cell_length_a                   21.329(7)
_cell_length_b                   5.2275(16)
_cell_length_c                   15.909(5)
_cell_angle_alpha                90
_cell_angle_beta                 100.471(6)
_cell_angle_gamma                90
_cell_volume                     1744.27
_exptl_crystal_colour            colorless
_exptl_crystal_description       block
_cell_formula_units_Z            4
loop_
_atom_site_label
_atom_site_type_symbol
_atom_site_fract_x
_atom_site_fract_y
_atom_site_fract_z
Mg1 Mg 0.0000 0.0000 -0.5000
O1 O 0.07642(19) -0.2467(7) -0.4968(3)
O2 O -0.0404(2) -0.2702(8) -0.4336(3)
O3 O 0.0386(2) 0.1491(11) -0.3796(3)
H1 H 0.057(3) 0.271(15) -0.366(4)
H2 H 0.101(3) -0.235(11) -0.528(4)
H3 H 0.093(3) -0.286(13) -0.441(5)
H4 H -0.054(3) -0.219(9) -0.389(2)
H5 H 0.034(4) 0.083(17) -0.340(6)
H6 H -0.042(4) -0.429(4) -0.434(4)
O1D O -0.07642(19) 0.2467(7) -0.5032(3)
O2D O 0.0404(2) 0.2702(8) -0.5664(3)
O3D O -0.0386(2) -0.1491(11) -0.6204(3)
H1D H -0.057(3) -0.271(15) -0.634(4)
H2D H -0.101(3) 0.235(11) -0.472(4)
H3D H -0.093(3) 0.286(13) -0.559(5)
H4D H 0.054(3) 0.219(9) -0.611(2)
H5D H -0.034(4) -0.083(17) -0.660(6)
H6D H 0.042(4) 0.429(4) -0.566(4)
N1 N -0.2844(2) 0.7895(8) -0.4378(3)
N2 N -0.2369(2) 0.4444(8) -0.3659(3)
H7 H -0.2616 0.4795 -0.3303
N3 N -0.2927(2) 0.9458(8) -0.5037(2)
N4 N -0.1995(2) 0.0967(8) -0.2760(3)
N5 N -0.1265(2) -0.0509(8) -0.3417(3)
N6 N -0.1540(2) -0.0824(8) -0.2760(3)
C1 C -0.2425(2) 0.5984(9) -0.4354(3)
N7 N -0.1524(2) 0.1556(8) -0.3868(3)
C2 C -0.1962(2) 0.2361(9) -0.3449(3)
N1F N -0.2156(2) 0.7105(8) -0.5622(3)
N2F N -0.2631(2) 1.0556(8) -0.6341(3)
H7F H -0.2384 1.0205 -0.6697
N3F N -0.2073(2) 0.5542(8) -0.4963(2)
N4F N -0.3005(2) 1.4033(8) -0.7240(3)
N5F N -0.3735(2) 1.5509(8) -0.6583(3)
N6F N -0.3460(2) 1.5824(8) -0.7240(3)
C1F C -0.2575(2) 0.9016(9) -0.5646(3)
N7F N -0.3476(2) 1.3444(8) -0.6132(3)
C2F C -0.3038(2) 1.2639(9) -0.6551(3)
O4 O 0.1263(2) -0.4665(8) -0.3477(3)
H8 H 0.161(3) -0.535(12) -0.346(4)
H9 H 0.127(4) -0.389(14) -0.306(3)
O5 O 0.0000 -0.168(16) -0.2500
H10 H 0.0285 -0.0827 -0.2644
H10A H -0.0285 -0.0827 -0.2356
loop_
_geom_bond_atom_site_label_1
_geom_bond_atom_site_label_2
_geom_bond_site_symmetry_1
_geom_bond_site_symmetry_2
Mg1 O1 1_555 1_555
O1 H2 1_555 1_555
O2 Mg1 1_555 1_555
O3 Mg1 1_555 1_555
H1 O3 1_555 1_555
H3 O1 1_555 1_555
H4 O2 1_555 1_555
H5 O3 1_555 1_555
H6 O2 1_555 1_555
N1 N3 1_555 1_555
N2 H7 1_555 1_555
N3 C1F 1_555 1_555
N4 N6 1_555 1_555
N5 N6 1_555 1_555
C1 N1 1_555 1_555
N7 N5 1_555 1_555
C2 N2 1_555 1_555
O4 H8 1_555 1_555
H9 O4 1_555 1_555
O5 H10 1_555 1_555
O1D Mg1 1_555 1_555
O2D Mg1 1_555 1_555
O3D Mg1 1_555 1_555
H1D O3D 1_555 1_555
H2D O1D 1_555 1_555
H3D O1D 1_555 1_555
H4D O2D 1_555 1_555
H5D O3D 1_555 1_555
H6D O2D 1_555 1_555
N1F N3F 1_555 1_555
N2F H7F 1_555 1_555
N3F C1 1_555 1_555
N4F N6F 1_555 1_555
N5F N6F 1_555 1_555
C1F N1F 1_555 1_555
N7F N5F 1_555 1_555
C2F N2F 1_555 1_555
H10A O5 1_555 1_555
N2 C1 1_555 1_555
N4 C2 1_555 1_555
N7 C2 1_555 1_555
N2F C1F 1_555 1_555
N4F C2F 1_555 1_555
N7F C2F 1_555 1_555

#END
