
#######################################################################
#
#                 Cambridge Crystallographic Data Centre
#                                CCDC 
#
#######################################################################
#
# If this CIF has been generated from an entry in the Cambridge 
# Structural Database, then it will include bibliographic, chemical, 
# crystal, experimental, refinement or atomic coordinate data resulting 
# from the CCDC's data processing and validation procedures.
#
#######################################################################

data_QOGYAN
_chemical_formula_moiety         'C27 H26 N4 O1 S1'
_chemical_name_systematic        
N-((5-(Dimethylaminomethyl)-2-(2-naphthyl)-1,3-thiazol-4-yl)methyl)-2-(1H-indol-3-yl)acetamide
_symmetry_cell_setting           triclinic
_symmetry_space_group_name_H-M   'P -1'
_symmetry_Int_Tables_number      2
_space_group_name_Hall           '-P 1'
loop_
_symmetry_equiv_pos_site_id
_symmetry_equiv_pos_as_xyz
1 x,y,z
2 -x,-y,-z
_cell_length_a                   8.2397(2)
_cell_length_b                   12.4931(3)
_cell_length_c                   23.9699(6)
_cell_angle_alpha                82.1157(11)
_cell_angle_beta                 86.8074(11)
_cell_angle_gamma                80.8084(13)
_cell_volume                     2411.3
_exptl_crystal_colour            'light brown'
_exptl_crystal_description       cube
_chemical_melting_point          150deg.C
_cell_formula_units_Z            4
_exptl_crystal_recrystallization_method acetonitrile
loop_
_atom_site_label
_atom_site_type_symbol
_atom_site_fract_x
_atom_site_fract_y
_atom_site_fract_z
S1 S 0.31224(10) -0.02675(7) 0.96391(3)
O1 O -0.0370(3) 0.1319(3) 0.74259(11)
N1 N 0.0554(3) 0.0053(2) 0.90532(10)
N2 N 0.4839(3) 0.1747(2) 0.85129(11)
N3 N 0.1700(3) 0.1680(2) 0.78954(10)
N4 N 0.6534(3) 0.1730(2) 0.69672(11)
C1 C 0.1304(4) -0.0637(3) 0.94525(12)
C2 C 0.1409(4) 0.0904(2) 0.88877(12)
C3 C 0.2825(4) 0.0877(3) 0.91557(12)
C4 C 0.3976(4) 0.1718(3) 0.90651(13)
C5 C 0.6015(5) 0.0755(3) 0.84865(17)
C6 C 0.5663(5) 0.2701(3) 0.84134(16)
C7 C 0.0695(4) -0.1625(3) 0.97214(13)
C8 C -0.0763(4) -0.1857(3) 0.95675(14)
C9 C -0.1417(5) -0.2794(3) 0.98300(15)
C10 C -0.2966(6) -0.3027(4) 0.96812(19)
C11 C -0.3583(7) -0.3914(4) 0.9960(2)
C12 C -0.2686(7) -0.4615(4) 1.0388(2)
C13 C -0.1208(6) -0.4422(3) 1.05374(17)
C14 C -0.0533(5) -0.3488(3) 1.02609(15)
C15 C 0.0997(5) -0.3248(3) 1.04034(15)
C16 C 0.1587(4) -0.2342(3) 1.01491(14)
C17 C 0.0755(4) 0.1784(3) 0.84220(13)
C18 C 0.1074(3) 0.1461(2) 0.74363(13)
C19 C 0.2189(4) 0.1361(3) 0.69161(14)
C20 C 0.3830(4) 0.1743(3) 0.69222(12)
C21 C 0.5317(4) 0.1098(3) 0.69962(13)
C22 C 0.5848(4) 0.2798(3) 0.68863(13)
C23 C 0.6560(5) 0.3752(4) 0.68505(17)
C24 C 0.5538(7) 0.4738(4) 0.6794(2)
C25 C 0.3856(7) 0.4798(4) 0.6750(2)
C26 C 0.3148(5) 0.3884(3) 0.67806(18)
C27 C 0.4147(4) 0.2850(3) 0.68559(13)
H1 H 0.2837 0.1774 0.7873
H2 H 0.7657 0.1383 0.7004
H3 H 0.4770 0.1535 0.9355
H4 H 0.3348 0.2424 0.9100
H5 H 0.6564 0.0781 0.8122
H6 H 0.5441 0.0136 0.8548
H7 H 0.6810 0.0690 0.8772
H8 H 0.6225 0.2725 0.8051
H9 H 0.6441 0.2669 0.8701
H10 H 0.4856 0.3345 0.8421
H11 H -0.1367 -0.1373 0.9278
H12 H -0.3556 -0.2562 0.9382
H13 H -0.4647 -0.4055 0.9874
H14 H -0.3130 -0.5244 1.0571
H15 H -0.0617 -0.4901 1.0831
H16 H 0.1623 -0.3727 1.0689
H17 H 0.2612 -0.2180 1.0261
H18 H 0.0803 0.2484 0.8537
H19 H -0.0368 0.1722 0.8364
H20 H 0.1830 0.1065 0.6604
H21 H 0.27315 0.054809 0.70956
H22 H 0.55073 0.021267 0.706766
H23 H 0.7733 0.3685 0.6869
H24 H 0.5992 0.5401 0.6787
H25 H 0.3175 0.5500 0.6695
H26 H 0.1979 0.3936 0.6754
S2 S 0.18380(10) 0.01888(7) 0.54048(3)
O2 O 0.5163(3) -0.1682(2) 0.75980(12)
N5 N 0.4419(3) -0.03171(19) 0.59900(10)
N6 N 0.0043(3) -0.1971(2) 0.64565(11)
N7 N 0.3099(3) -0.2029(2) 0.71009(10)
N8 N -0.1751(3) -0.2140(3) 0.80828(12)
C28 C 0.3704(4) 0.0448(2) 0.56102(12)
C29 C 0.3471(3) -0.1133(2) 0.61308(12)
C30 C 0.2046(4) -0.1012(2) 0.58558(12)
C31 C 0.0828(4) -0.1802(3) 0.58979(13)
C32 C -0.0814(5) -0.2911(3) 0.65022(16)
C33 C -0.1090(4) -0.0993(3) 0.65656(17)
C34 C 0.4426(4) 0.1421(2) 0.53793(13)
C35 C 0.5913(4) 0.1555(3) 0.55608(13)
C36 C 0.6662(4) 0.2473(3) 0.53537(15)
C37 C 0.8205(5) 0.2615(3) 0.55373(18)
C38 C 0.8898(6) 0.3506(4) 0.5316(2)
C39 C 0.8074(7) 0.4298(4) 0.4917(3)
C40 C 0.6604(6) 0.4192(3) 0.4731(2)
C41 C 0.5841(5) 0.3273(3) 0.49446(16)
C42 C 0.4307(5) 0.3129(3) 0.47665(16)
C43 C 0.3618(4) 0.2237(3) 0.49724(15)
C44 C 0.4055(4) -0.2072(2) 0.65721(13)
C45 C 0.3729(4) -0.1840(3) 0.75755(14)
C46 C 0.2608(4) -0.1804(3) 0.80926(14)
C47 C 0.0974(4) -0.2177(3) 0.80757(13)
C48 C -0.0515(4) -0.1514(3) 0.80839(14)
C49 C -0.1062(5) -0.3203(3) 0.80520(14)
C50 C -0.1824(6) -0.4119(4) 0.80198(17)
C51 C -0.0804(8) -0.5090(5) 0.7968(2)
C52 C 0.0945(8) -0.5167(4) 0.7965(2)
C53 C 0.1656(6) -0.4267(3) 0.79981(16)
C54 C 0.0658(4) -0.3265(3) 0.80516(13)
H27 H -0.2878 -0.1797 0.8102
H28 H 0.1389 -0.2490 0.5801
H29 H -0.0002 -0.1506 0.5630
H30 H -0.1326 -0.3028 0.6871
H31 H -0.0034 -0.3544 0.6440
H32 H -0.1639 -0.2786 0.6223
H33 H -0.1586 -0.1110 0.6936
H34 H -0.1932 -0.0837 0.6292
H35 H -0.0495 -0.0386 0.6540
H36 H 0.6471 0.1012 0.5837
H37 H 0.8738 0.2082 0.5823
H38 H 0.9957 0.3589 0.5437
H39 H 0.8566 0.4926 0.4764
H40 H 0.6071 0.4742 0.4452
H41 H 0.3747 0.3669 0.4489
H42 H 0.2572 0.2147 0.4843
H43 H 0.5189 -0.2055 0.6637
H44 H 0.3960 -0.2738 0.6427
H45 H 0.191379 -0.214633 0.711027
H46 H 0.2957 -0.1547 0.8419
H47 H 0.206198 -0.097820 0.79352
H48 H -0.069562 -0.063780 0.809024
H49 H -0.3003 -0.4041 0.8031
H50 H -0.1267 -0.5735 0.7935
H51 H 0.1627 -0.5855 0.7931
H52 H 0.2833 -0.4329 0.7991
loop_
_geom_bond_atom_site_label_1
_geom_bond_atom_site_label_2
_geom_bond_site_symmetry_1
_geom_bond_site_symmetry_2
S1 C1 1_555 1_555
O1 C18 1_555 1_555
N1 C1 1_555 1_555
N2 C4 1_555 1_555
N3 C17 1_555 1_555
N4 C21 1_555 1_555
C1 C7 1_555 1_555
C2 N1 1_555 1_555
C3 S1 1_555 1_555
C4 C3 1_555 1_555
C5 N2 1_555 1_555
C6 N2 1_555 1_555
C7 C8 1_555 1_555
C8 C9 1_555 1_555
C9 C10 1_555 1_555
C10 C11 1_555 1_555
C11 C12 1_555 1_555
C12 C13 1_555 1_555
C13 C14 1_555 1_555
C14 C9 1_555 1_555
C15 C14 1_555 1_555
C16 C7 1_555 1_555
C17 C2 1_555 1_555
C18 N3 1_555 1_555
C19 C18 1_555 1_555
C20 C19 1_555 1_555
C21 C20 1_555 1_555
C22 N4 1_555 1_555
C23 C22 1_555 1_555
C24 C23 1_555 1_555
C25 C24 1_555 1_555
C26 C25 1_555 1_555
C27 C20 1_555 1_555
H1 N3 1_555 1_555
H2 N4 1_555 1_555
H3 C4 1_555 1_555
H4 C4 1_555 1_555
H5 C5 1_555 1_555
H6 C5 1_555 1_555
H7 C5 1_555 1_555
H8 C6 1_555 1_555
H9 C6 1_555 1_555
H10 C6 1_555 1_555
H11 C8 1_555 1_555
H12 C10 1_555 1_555
H13 C11 1_555 1_555
H14 C12 1_555 1_555
H15 C13 1_555 1_555
H16 C15 1_555 1_555
H17 C16 1_555 1_555
H18 C17 1_555 1_555
H19 C17 1_555 1_555
H20 C19 1_555 1_555
H21 C19 1_555 1_555
H22 C21 1_555 1_555
H23 C23 1_555 1_555
H24 C24 1_555 1_555
H25 C25 1_555 1_555
H26 C26 1_555 1_555
S2 C28 1_555 1_555
O2 C45 1_555 1_555
N5 C28 1_555 1_555
N6 C31 1_555 1_555
N7 C44 1_555 1_555
N8 C48 1_555 1_555
C28 C34 1_555 1_555
C29 N5 1_555 1_555
C30 S2 1_555 1_555
C31 C30 1_555 1_555
C32 N6 1_555 1_555
C33 N6 1_555 1_555
C34 C35 1_555 1_555
C35 C36 1_555 1_555
C36 C37 1_555 1_555
C37 C38 1_555 1_555
C38 C39 1_555 1_555
C39 C40 1_555 1_555
C40 C41 1_555 1_555
C41 C36 1_555 1_555
C42 C41 1_555 1_555
C43 C34 1_555 1_555
C44 C29 1_555 1_555
C45 N7 1_555 1_555
C46 C45 1_555 1_555
C47 C46 1_555 1_555
C48 C47 1_555 1_555
C49 N8 1_555 1_555
C50 C49 1_555 1_555
C51 C50 1_555 1_555
C52 C51 1_555 1_555
C53 C52 1_555 1_555
C54 C47 1_555 1_555
H27 N8 1_555 1_555
H28 C31 1_555 1_555
H29 C31 1_555 1_555
H30 C32 1_555 1_555
H31 C32 1_555 1_555
H32 C32 1_555 1_555
H33 C33 1_555 1_555
H34 C33 1_555 1_555
H35 C33 1_555 1_555
H36 C35 1_555 1_555
H37 C37 1_555 1_555
H38 C38 1_555 1_555
H39 C39 1_555 1_555
H40 C40 1_555 1_555
H41 C42 1_555 1_555
H42 C43 1_555 1_555
H43 C44 1_555 1_555
H44 C44 1_555 1_555
H45 N7 1_555 1_555
H46 C46 1_555 1_555
H47 C46 1_555 1_555
H48 C48 1_555 1_555
H49 C50 1_555 1_555
H50 C51 1_555 1_555
H51 C52 1_555 1_555
H52 C53 1_555 1_555
C2 C3 1_555 1_555
C15 C16 1_555 1_555
C22 C27 1_555 1_555
C26 C27 1_555 1_555
C29 C30 1_555 1_555
C42 C43 1_555 1_555
C49 C54 1_555 1_555
C53 C54 1_555 1_555

#END
