
#######################################################################
#
#                 Cambridge Crystallographic Data Centre
#                                CCDC 
#
#######################################################################
#
# If this CIF has been generated from an entry in the Cambridge 
# Structural Database, then it will include bibliographic, chemical, 
# crystal, experimental, refinement or atomic coordinate data resulting 
# from the CCDC's data processing and validation procedures.
#
#######################################################################

data_QOHBOG
_chemical_formula_moiety         'C21 H15 Cl1 F1 N3 O2 S1'
_chemical_name_systematic        
N-(3-Chlorophenyl)-N-((8-fluoro-2-oxo-1,2-dihydroquinolin-4-yl)methyl)-4-methyl-1,3-thiazole-5-carboxamide
_chemical_properties_biological  'Nitric Oxide Synthase (iNOS) inhibitor'
_symmetry_cell_setting           triclinic
_symmetry_space_group_name_H-M   'P -1'
_symmetry_Int_Tables_number      2
_space_group_name_Hall           '-P 1'
loop_
_symmetry_equiv_pos_site_id
_symmetry_equiv_pos_as_xyz
1 x,y,z
2 -x,-y,-z
_cell_length_a                   8.8921(13)
_cell_length_b                   17.982(3)
_cell_length_c                   18.935(3)
_cell_angle_alpha                72.680(2)
_cell_angle_beta                 82.543(2)
_cell_angle_gamma                77.465(2)
_cell_volume                     2814.58
_chemical_melting_point          '201.9 deg.C'
_cell_formula_units_Z            6
loop_
_atom_site_label
_atom_site_type_symbol
_atom_site_fract_x
_atom_site_fract_y
_atom_site_fract_z
Cl1 Cl 1.5733(1) 0.1875(1) -0.4548(1)
F1 F 0.9436(3) -0.1324(1) 0.0724(1)
S1 S 0.9455(2) 0.1661(1) -0.5145(1)
O1 O 0.6706(3) 0.0967(2) -0.1006(1)
O2 O 0.9226(4) 0.0459(2) -0.3675(2)
N1 N 0.8461(4) -0.0126(2) -0.0492(2)
N2 N 0.9220(4) 0.3036(2) -0.4959(2)
N3 N 1.0935(4) 0.0833(2) -0.3131(2)
C1 C 1.0276(5) -0.1303(2) 0.0066(2)
C2 C 1.1541(5) -0.1881(2) 0.0035(2)
C3 C 1.2379(5) -0.1847(3) -0.0650(2)
C4 C 1.1930(5) -0.1245(2) -0.1266(2)
C5 C 1.0625(5) -0.0650(2) -0.1226(2)
C6 C 1.0120(5) 0.0016(2) -0.1855(2)
C7 C 0.8844(5) 0.0548(2) -0.1781(2)
C8 C 0.7916(5) 0.0491(2) -0.1087(2)
C9 C 0.9776(5) -0.0686(2) -0.0549(2)
C10 C 1.1106(5) 0.0052(2) -0.2575(2)
C11 C 1.2176(5) 0.1247(2) -0.3168(2)
C12 C 1.3188(5) 0.1383(2) -0.3789(2)
C13 C 1.4414(5) 0.1737(3) -0.3775(2)
C14 C 1.4675(5) 0.1947(3) -0.3162(2)
C15 C 1.3661(6) 0.1790(3) -0.2539(2)
C16 C 1.2420(5) 0.1442(3) -0.2535(2)
C17 C 0.9987(5) 0.0962(3) -0.3686(2)
C18 C 0.9828(5) 0.1717(3) -0.4287(2)
C19 C 0.9106(5) 0.2669(3) -0.5440(2)
C20 C 0.9648(5) 0.2491(3) -0.4288(2)
C21 C 0.9882(6) 0.2804(3) -0.3679(2)
Cl2 Cl 0.7634(6) 0.2718(3) 0.2227(3)
F2 F 0.3760(3) 0.2140(1) -0.0858(1)
S2 S 0.3114(1) 0.2472(1) 0.4075(1)
O3 O 0.6577(3) -0.0148(2) 0.0825(2)
O4 O 0.0424(4) 0.2050(2) 0.2883(2)
N4 N 0.4837(4) 0.0966(2) 0.0345(2)
N5 N 0.1854(4) 0.3907(2) 0.3441(2)
N6 N 0.2974(4) 0.1470(2) 0.2834(2)
C22 C 0.2995(5) 0.2140(3) -0.0188(2)
C23 C 0.1719(5) 0.2719(3) -0.0144(2)
C24 C 0.0961(5) 0.2698(3) 0.0559(2)
C25 C 0.1498(5) 0.2123(3) 0.1178(2)
C26 C 0.2810(5) 0.1534(2) 0.1129(2)
C27 C 0.3437(5) 0.0904(2) 0.1762(2)
C28 C 0.4654(5) 0.0350(2) 0.1648(2)
C29 C 0.5446(5) 0.0358(3) 0.0924(2)
C30 C 0.3564(5) 0.1548(2) 0.0425(2)
C31 C 0.2676(5) 0.0846(3) 0.2537(2)
C32 C 0.4521(5) 0.1425(3) 0.3012(2)
C33 C 0.5101(5) 0.0839(3) 0.3637(2)
C34 C 0.6532(5) 0.0845(2) 0.3848(2)
C35 C 0.7372(5) 0.1418(3) 0.3448(2)
C36 C 0.6806(5) 0.1988(3) 0.2819(2)
C37 C 0.5371(5) 0.1990(3) 0.2599(2)
C38 C 0.1766(5) 0.2028(3) 0.3004(2)
C39 C 0.2118(5) 0.2643(2) 0.3306(2)
C40 C 0.2660(5) 0.3473(3) 0.3998(2)
C41 C 0.1530(5) 0.3436(3) 0.3043(2)
C42 C 0.0557(5) 0.3831(3) 0.2401(2)
Cl3 Cl -0.0591(1) 0.6491(1) 0.2212(1)
F3 F 0.7590(3) 0.4120(1) -0.0774(1)
S3 S 0.3886(1) 0.5846(1) 0.4048(1)
O5 O 0.9523(3) 0.5310(2) 0.0791(2)
O6 O 0.6936(4) 0.4254(2) 0.3388(2)
N7 N 0.8103(4) 0.4660(2) 0.0349(2)
N8 N 0.6244(5) 0.5937(2) 0.4643(2)
N9 N 0.4964(4) 0.5036(2) 0.2717(2)
C43 C 0.6562(5) 0.4034(2) -0.0174(2)
C44 C 0.5325(5) 0.3698(2) -0.0159(2)
C45 C 0.4282(5) 0.3622(2) 0.0474(2)
C46 C 0.4521(5) 0.3888(2) 0.1049(2)
C47 C 0.5795(5) 0.4238(2) 0.1031(2)
C48 C 0.6080(5) 0.4559(2) 0.1608(2)
C49 C 0.7293(5) 0.4926(2) 0.1517(2)
C50 C 0.8385(5) 0.4987(2) 0.0873(2)
C51 C 0.6840(5) 0.4314(2) 0.0401(2)
C52 C 0.5035(5) 0.4446(2) 0.2316(2)
C53 C 0.3925(5) 0.5780(2) 0.2462(2)
C54 C 0.2356(5) 0.5774(3) 0.2486(2)
C55 C 0.1365(5) 0.6485(3) 0.2209(2)
C56 C 0.1908(6) 0.7192(3) 0.1938(2)
C57 C 0.3452(5) 0.7193(3) 0.1922(2)
C58 C 0.4486(5) 0.6476(3) 0.2175(2)
C59 C 0.5924(5) 0.4855(3) 0.3277(2)
C60 C 0.5692(5) 0.5387(2) 0.3770(2)
C61 C 0.4747(6) 0.6133(3) 0.4647(2)
C62 C 0.6805(5) 0.5482(2) 0.4153(2)
C63 C 0.8487(5) 0.5150(3) 0.4110(3)
Cl4? Cl 0.7275(2) 0.0129(1) 0.4646(1)
loop_
_geom_bond_atom_site_label_1
_geom_bond_atom_site_label_2
_geom_bond_site_symmetry_1
_geom_bond_site_symmetry_2
Cl1 C13 1_555 1_555
F1 C1 1_555 1_555
S1 C18 1_555 1_555
O1 C8 1_555 1_555
O2 C17 1_555 1_555
N1 C8 1_555 1_555
N2 C19 1_555 1_555
N3 C10 1_555 1_555
C1 C2 1_555 1_555
C2 C3 1_555 1_555
C3 C4 1_555 1_555
C4 C5 1_555 1_555
C5 C6 1_555 1_555
C6 C7 1_555 1_555
C7 C8 1_555 1_555
C9 N1 1_555 1_555
C10 C6 1_555 1_555
C11 N3 1_555 1_555
C12 C11 1_555 1_555
C13 C12 1_555 1_555
C14 C13 1_555 1_555
C15 C14 1_555 1_555
C16 C11 1_555 1_555
C17 N3 1_555 1_555
C18 C17 1_555 1_555
C19 S1 1_555 1_555
C20 N2 1_555 1_555
C21 C20 1_555 1_555
Cl2 C36 1_555 1_555
F2 C22 1_555 1_555
S2 C39 1_555 1_555
O3 C29 1_555 1_555
O4 C38 1_555 1_555
N4 C29 1_555 1_555
N5 C40 1_555 1_555
N6 C31 1_555 1_555
C22 C23 1_555 1_555
C23 C24 1_555 1_555
C24 C25 1_555 1_555
C25 C26 1_555 1_555
C26 C27 1_555 1_555
C27 C28 1_555 1_555
C28 C29 1_555 1_555
C30 N4 1_555 1_555
C31 C27 1_555 1_555
C32 N6 1_555 1_555
C33 C32 1_555 1_555
C34 C33 1_555 1_555
C35 C34 1_555 1_555
C36 C35 1_555 1_555
C37 C32 1_555 1_555
C38 N6 1_555 1_555
C39 C38 1_555 1_555
C40 S2 1_555 1_555
C41 N5 1_555 1_555
C42 C41 1_555 1_555
Cl3 C55 1_555 1_555
F3 C43 1_555 1_555
S3 C60 1_555 1_555
O5 C50 1_555 1_555
O6 C59 1_555 1_555
N7 C50 1_555 1_555
N8 C61 1_555 1_555
N9 C52 1_555 1_555
C43 C44 1_555 1_555
C44 C45 1_555 1_555
C45 C46 1_555 1_555
C46 C47 1_555 1_555
C47 C48 1_555 1_555
C48 C49 1_555 1_555
C49 C50 1_555 1_555
C51 N7 1_555 1_555
C52 C48 1_555 1_555
C53 N9 1_555 1_555
C54 C53 1_555 1_555
C55 C54 1_555 1_555
C56 C55 1_555 1_555
C57 C56 1_555 1_555
C58 C53 1_555 1_555
C59 N9 1_555 1_555
C60 C59 1_555 1_555
C61 S3 1_555 1_555
C62 N8 1_555 1_555
C63 C62 1_555 1_555
C1 C9 1_555 1_555
C5 C9 1_555 1_555
C15 C16 1_555 1_555
C18 C20 1_555 1_555
C22 C30 1_555 1_555
C26 C30 1_555 1_555
C36 C37 1_555 1_555
C39 C41 1_555 1_555
C43 C51 1_555 1_555
C47 C51 1_555 1_555
C57 C58 1_555 1_555
C60 C62 1_555 1_555

#END
