
#######################################################################
#
#                 Cambridge Crystallographic Data Centre
#                                CCDC 
#
#######################################################################
#
# If this CIF has been generated from an entry in the Cambridge 
# Structural Database, then it will include bibliographic, chemical, 
# crystal, experimental, refinement or atomic coordinate data resulting 
# from the CCDC's data processing and validation procedures.
#
#######################################################################

data_QOHDUN
_chemical_formula_moiety         'C29 H22 N4 O2'
_chemical_name_systematic        
4-(((2-Hydroxybenzylidene)hydrazinyl)(phenyl)methylene)-1,3-diphenyl-1H-pyrazol-5-one
_symmetry_cell_setting           monoclinic
_symmetry_space_group_name_H-M   'C c'
_symmetry_Int_Tables_number      9
_space_group_name_Hall           'C -2yc'
loop_
_symmetry_equiv_pos_site_id
_symmetry_equiv_pos_as_xyz
1 x,y,z
2 x,-y,1/2+z
3 1/2+x,1/2+y,z
4 1/2+x,1/2-y,1/2+z
_cell_length_a                   12.958(3)
_cell_length_b                   21.961(4)
_cell_length_c                   8.754(1)
_cell_angle_alpha                90
_cell_angle_beta                 110.38(1)
_cell_angle_gamma                90
_cell_volume                     2335.2
_exptl_crystal_colour            yellow
_chemical_melting_point          '252-254 deg.C'
_cell_formula_units_Z            4
_exptl_crystal_recrystallization_method methanol
_exptl_crystal_preparation       fluorescent
loop_
_atom_site_label
_atom_site_type_symbol
_atom_site_fract_x
_atom_site_fract_y
_atom_site_fract_z
O1 O 0.33750(18) 0.39538(9) 0.8955(3)
O2 O 0.1137(2) 0.27630(12) 0.1652(3)
N1 N 0.3843(2) 0.32858(10) 1.1190(3)
N2 N 0.3891(2) 0.26485(10) 1.1433(3)
N3 N 0.2589(2) 0.33129(12) 0.6155(3)
N4 N 0.2063(2) 0.33009(11) 0.4502(3)
C1 C 0.4116(3) 0.42924(14) 1.2435(4)
H1 H 0.3818 0.4473 1.1413
C2 C 0.4471(3) 0.46469(14) 1.3841(5)
H2 H 0.4412 0.5068 1.3752
C3 C 0.4908(3) 0.43850(16) 1.5364(4)
H3 H 0.5128 0.4627 1.6294
C4 C 0.5014(3) 0.37575(15) 1.5490(4)
H4 H 0.5316 0.3577 1.6510
C5 C 0.4674(3) 0.34014(13) 1.4113(4)
H5 H 0.4751 0.2981 1.4208
C6 C 0.4217(3) 0.36627(13) 1.2589(4)
C7 C 0.3469(3) 0.34320(13) 0.9563(4)
C8 C 0.3226(2) 0.28538(12) 0.8719(4)
C9 C 0.3533(2) 0.23996(12) 0.9990(3)
C10 C 0.3515(3) 0.17309(12) 0.9845(3)
C11 C 0.2865(3) 0.13821(14) 1.0480(4)
H6 H 0.2443 0.1570 1.1014
C12 C 0.2845(3) 0.07576(16) 1.0316(5)
H7 H 0.2409 0.0526 1.0744
C13 C 0.3462(4) 0.04722(15) 0.9529(5)
H8 H 0.3448 0.0050 0.9434
C14 C 0.4100(3) 0.08130(16) 0.8883(5)
H9 H 0.4512 0.0623 0.8338
C15 C 0.4127(3) 0.14423(13) 0.9048(4)
H10 H 0.4563 0.1672 0.8616
C16 C 0.2753(2) 0.28006(13) 0.7048(4)
C17 C 0.2440(3) 0.22126(12) 0.6193(3)
C18 C 0.1594(3) 0.18732(14) 0.6395(4)
H11 H 0.1195 0.2029 0.7006
C19 C 0.1343(3) 0.13007(15) 0.5686(4)
H12 H 0.0775 0.1073 0.5821
C20 C 0.1939(3) 0.10725(15) 0.4785(4)
H13 H 0.1778 0.0687 0.4322
C21 C 0.2758(3) 0.14040(16) 0.4565(4)
H14 H 0.3157 0.1245 0.3956
C22 C 0.3003(3) 0.19796(15) 0.5247(4)
H15 H 0.3551 0.2210 0.5065
C23 C 0.1969(3) 0.38122(13) 0.3755(4)
H16 H 0.2237 0.4165 0.4348
C24 C 0.1452(3) 0.38455(14) 0.2005(4)
C25 C 0.1355(3) 0.44154(15) 0.1240(4)
H17 H 0.1599 0.4763 0.1872
C26 C 0.0907(3) 0.44683(18) -0.0425(5)
H18 H 0.0842 0.4849 -0.0915
C27 C 0.0556(3) 0.3959(2) -0.1360(5)
H19 H 0.0258 0.3994 -0.2489
C28 C 0.0640(3) 0.33965(18) -0.0648(4)
H20 H 0.0404 0.3053 -0.1296
C29 C 0.1072(3) 0.33375(15) 0.1018(4)
H21 H 0.276(3) 0.3649(11) 0.673(4)
H22 H 0.149(3) 0.2788(18) 0.2642(17)
loop_
_geom_bond_atom_site_label_1
_geom_bond_atom_site_label_2
_geom_bond_site_symmetry_1
_geom_bond_site_symmetry_2
O1 C7 1_555 1_555
O2 C29 1_555 1_555
N1 N2 1_555 1_555
N2 C9 1_555 1_555
N3 N4 1_555 1_555
N4 C23 1_555 1_555
C1 H1 1_555 1_555
C2 C1 1_555 1_555
H2 C2 1_555 1_555
C3 C2 1_555 1_555
H3 C3 1_555 1_555
C4 C3 1_555 1_555
H4 C4 1_555 1_555
C5 C4 1_555 1_555
H5 C5 1_555 1_555
C6 N1 1_555 1_555
C7 N1 1_555 1_555
C8 C7 1_555 1_555
C9 C8 1_555 1_555
C10 C9 1_555 1_555
C11 C10 1_555 1_555
H6 C11 1_555 1_555
C12 C11 1_555 1_555
H7 C12 1_555 1_555
C13 C12 1_555 1_555
H8 C13 1_555 1_555
C14 C13 1_555 1_555
H9 C14 1_555 1_555
C15 C10 1_555 1_555
H10 C15 1_555 1_555
C16 N3 1_555 1_555
C17 C16 1_555 1_555
C18 C17 1_555 1_555
H11 C18 1_555 1_555
C19 C18 1_555 1_555
H12 C19 1_555 1_555
C20 C19 1_555 1_555
H13 C20 1_555 1_555
C21 C20 1_555 1_555
H14 C21 1_555 1_555
C22 C17 1_555 1_555
H15 C22 1_555 1_555
C23 H16 1_555 1_555
C24 C23 1_555 1_555
C25 C24 1_555 1_555
H17 C25 1_555 1_555
C26 C25 1_555 1_555
H18 C26 1_555 1_555
C27 C26 1_555 1_555
H19 C27 1_555 1_555
C28 C27 1_555 1_555
H20 C28 1_555 1_555
C29 C24 1_555 1_555
H21 N3 1_555 1_555
H22 O2 1_555 1_555
C1 C6 1_555 1_555
C5 C6 1_555 1_555
C8 C16 1_555 1_555
C14 C15 1_555 1_555
C21 C22 1_555 1_555
C28 C29 1_555 1_555

#END
