
#######################################################################
#
#                 Cambridge Crystallographic Data Centre
#                                CCDC 
#
#######################################################################
#
# If this CIF has been generated from an entry in the Cambridge 
# Structural Database, then it will include bibliographic, chemical, 
# crystal, experimental, refinement or atomic coordinate data resulting 
# from the CCDC's data processing and validation procedures.
#
#######################################################################

data_QOHJEC
_chemical_formula_moiety         'C8 H9 N3 O4 S1'
_chemical_name_systematic        4-((Dimethylamino)thio)-1,3-dinitrobenzene
_symmetry_cell_setting           triclinic
_symmetry_space_group_name_H-M   'P -1'
_symmetry_Int_Tables_number      2
_space_group_name_Hall           '-P 1'
loop_
_symmetry_equiv_pos_site_id
_symmetry_equiv_pos_as_xyz
1 x,y,z
2 -x,-y,-z
_cell_length_a                   7.931(5)
_cell_length_b                   8.159(7)
_cell_length_c                   9.090(7)
_cell_angle_alpha                100.35(6)
_cell_angle_beta                 81.00(6)
_cell_angle_gamma                110.74(6)
_cell_volume                     538.376
_exptl_crystal_colour            red
_chemical_melting_point          '110-112 deg.C'
_cell_formula_units_Z            2
_exptl_crystal_recrystallization_method ethanol
loop_
_atom_site_label
_atom_site_type_symbol
_atom_site_fract_x
_atom_site_fract_y
_atom_site_fract_z
S1 S 0.4338(3) 0.2530(3) 0.4046(2)
O1 O 0.7010(7) 0.1296(8) 0.3811(8)
O2 O 0.7809(7) -0.0535(7) 0.2074(7)
O3 O 0.3197(7) -0.4973(7) -0.0752(6)
O4 O 0.1097(8) -0.4135(7) -0.1314(6)
N1 N 0.6708(8) 0.0143(9) 0.2714(9)
N2 N 0.2332(9) -0.3971(9) -0.0585(7)
N3 N 0.2601(9) 0.3215(8) 0.4141(7)
C1 C 0.3778(8) 0.0580(8) 0.2720(7)
C2 C 0.4937(8) -0.0384(10) 0.2190(8)
C3 C 0.4495(9) -0.1866(10) 0.1131(8)
C4 C 0.2861(10) -0.2399(9) 0.0557(8)
C5 C 0.1652(9) -0.1482(10) 0.1045(8)
C6 C 0.2106(8) -0.0026(9) 0.2110(8)
C7 C 0.2642(12) 0.4402(11) 0.3114(9)
C8 C 0.1253(10) 0.2940(12) 0.5386(9)
loop_
_geom_bond_atom_site_label_1
_geom_bond_atom_site_label_2
_geom_bond_site_symmetry_1
_geom_bond_site_symmetry_2
S1 N3 1_555 1_555
O1 N1 1_555 1_555
O2 N1 1_555 1_555
O3 N2 1_555 1_555
O4 N2 1_555 1_555
N1 C2 1_555 1_555
N2 C4 1_555 1_555
N3 C7 1_555 1_555
C1 S1 1_555 1_555
C2 C1 1_555 1_555
C3 C2 1_555 1_555
C4 C3 1_555 1_555
C5 C4 1_555 1_555
C6 C1 1_555 1_555
C8 N3 1_555 1_555
C5 C6 1_555 1_555

#END
