
#######################################################################
#
#                 Cambridge Crystallographic Data Centre
#                                CCDC 
#
#######################################################################
#
# If this CIF has been generated from an entry in the Cambridge 
# Structural Database, then it will include bibliographic, chemical, 
# crystal, experimental, refinement or atomic coordinate data resulting 
# from the CCDC's data processing and validation procedures.
#
#######################################################################

data_QOHJIG
_chemical_formula_moiety         'C12 H7 N3 O6 S1'
_chemical_name_systematic        4-((2-Nitrophenyl)thio)-1,3-dinitrobenzene
_symmetry_cell_setting           orthorhombic
_symmetry_space_group_name_H-M   'P 21 21 21'
_symmetry_Int_Tables_number      19
_space_group_name_Hall           'P 2ac 2ab'
loop_
_symmetry_equiv_pos_site_id
_symmetry_equiv_pos_as_xyz
1 x,y,z
2 1/2-x,-y,1/2+z
3 1/2+x,1/2-y,-z
4 -x,1/2+y,1/2-z
_cell_length_a                   11.1424(18)
_cell_length_b                   11.8067(18)
_cell_length_c                   20.363(3)
_cell_angle_alpha                90
_cell_angle_beta                 90
_cell_angle_gamma                90
_cell_volume                     2678.85
_exptl_crystal_colour            orange
_chemical_melting_point          '121 deg.C'
_cell_formula_units_Z            8
_exptl_crystal_recrystallization_method ethanol
loop_
_atom_site_label
_atom_site_type_symbol
_atom_site_fract_x
_atom_site_fract_y
_atom_site_fract_z
S1 S 0.4960(3) 0.1863(3) 0.9379(2)
O1 O 0.419(1) -0.002(1) 0.9901(6)
O2 O 0.476(1) -0.174(1) 0.9734(6)
O3 O 0.811(1) -0.265(1) 0.8469(7)
O4 O 0.916(1) -0.134(1) 0.7956(7)
O5 O 0.412(1) 0.194(1) 0.8003(6)
O6 O 0.307(1) 0.347(1) 0.7945(7)
N1 N 0.485(1) -0.068(1) 0.9643(7)
N2 N 0.835(1) -0.167(1) 0.8282(7)
N3 N 0.394(1) 0.291(2) 0.8114(8)
C1 C 0.591(1) 0.083(1) 0.9038(8)
C2 C 0.577(2) -0.030(2) 0.9210(8)
C3 C 0.656(1) -0.113(1) 0.8977(8)
C4 C 0.745(2) -0.083(2) 0.8569(9)
C5 C 0.759(1) 0.027(1) 0.8332(8)
C6 C 0.682(1) 0.111(2) 0.8594(8)
C7 C 0.546(1) 0.314(2) 0.8994(7)
C8 C 0.483(1) 0.359(1) 0.8451(7)
C9 C 0.505(2) 0.464(2) 0.8262(9)
C10 C 0.592(2) 0.530(2) 0.8540(8)
C11 C 0.653(2) 0.487(2) 0.905(1)
C12 C 0.633(2) 0.379(2) 0.9278(9)
S2 S 0.7437(4) 0.1849(3) 0.5594(2)
O7 O 0.720(1) -0.174(1) 0.5249(6)
O8 O 0.661(1) -0.002(1) 0.5110(6)
O9 O 1.158(1) -0.140(1) 0.7015(6)
O10 O 1.043(1) -0.268(1) 0.6614(8)
O11 O 0.671(1) 0.199(1) 0.7034(6)
O12 O 0.547(1) 0.340(1) 0.6947(6)
N4 N 0.728(1) -0.073(1) 0.5351(7)
N5 N 1.065(1) -0.168(1) 0.6698(8)
N6 N 0.645(1) 0.298(1) 0.6856(6)
C13 C 0.834(1) 0.083(1) 0.5941(8)
C14 C 0.827(2) -0.034(2) 0.580(1)
C15 C 0.902(1) -0.116(2) 0.6045(9)
C16 C 0.988(1) -0.082(2) 0.6471(8)
C17 C 1.003(2) 0.028(2) 0.6622(9)
C18 C 0.925(1) 0.109(2) 0.6391(8)
C19 C 0.794(1) 0.313(2) 0.5956(8)
C20 C 0.737(2) 0.364(2) 0.6479(8)
C21 C 0.756(2) 0.475(2) 0.6718(9)
C22 C 0.847(2) 0.530(2) 0.640(1)
C23 C 0.914(2) 0.485(2) 0.590(1)
C24 C 0.881(1) 0.378(1) 0.5679(9)
loop_
_geom_bond_atom_site_label_1
_geom_bond_atom_site_label_2
_geom_bond_site_symmetry_1
_geom_bond_site_symmetry_2
S1 C1 1_555 1_555
O1 N1 1_555 1_555
O2 N1 1_555 1_555
O3 N2 1_555 1_555
O4 N2 1_555 1_555
O5 N3 1_555 1_555
O6 N3 1_555 1_555
N1 C2 1_555 1_555
N2 C4 1_555 1_555
N3 C8 1_555 1_555
C1 C2 1_555 1_555
C2 C3 1_555 1_555
C3 C4 1_555 1_555
C4 C5 1_555 1_555
C5 C6 1_555 1_555
C6 C1 1_555 1_555
C7 S1 1_555 1_555
C8 C7 1_555 1_555
C9 C8 1_555 1_555
C10 C9 1_555 1_555
C11 C10 1_555 1_555
C12 C7 1_555 1_555
S2 C13 1_555 1_555
O7 N4 1_555 1_555
O8 N4 1_555 1_555
O9 N5 1_555 1_555
O10 N5 1_555 1_555
O11 N6 1_555 1_555
O12 N6 1_555 1_555
N4 C14 1_555 1_555
N5 C16 1_555 1_555
N6 C20 1_555 1_555
C13 C14 1_555 1_555
C14 C15 1_555 1_555
C15 C16 1_555 1_555
C16 C17 1_555 1_555
C17 C18 1_555 1_555
C18 C13 1_555 1_555
C19 S2 1_555 1_555
C20 C19 1_555 1_555
C21 C20 1_555 1_555
C22 C21 1_555 1_555
C23 C22 1_555 1_555
C24 C19 1_555 1_555
C11 C12 1_555 1_555
C23 C24 1_555 1_555

#END
