
#######################################################################
#
#                 Cambridge Crystallographic Data Centre
#                                CCDC 
#
#######################################################################
#
# If this CIF has been generated from an entry in the Cambridge 
# Structural Database, then it will include bibliographic, chemical, 
# crystal, experimental, refinement or atomic coordinate data resulting 
# from the CCDC's data processing and validation procedures.
#
#######################################################################

data_QOHSOX
_chemical_formula_moiety         'C13 H11 F3 O4'
_chemical_name_systematic        
'ethyl 2-hydroxy-2-(trifluoromethyl)-2H-chromene-3-carboxylate'
_symmetry_cell_setting           monoclinic
_symmetry_space_group_name_H-M   'P 21/c'
_symmetry_Int_Tables_number      14
_space_group_name_Hall           '-P 2ybc'
loop_
_symmetry_equiv_pos_site_id
_symmetry_equiv_pos_as_xyz
1 x,y,z
2 -x,1/2+y,1/2-z
3 -x,-y,-z
4 x,1/2-y,1/2+z
_cell_length_a                   8.4150(17)
_cell_length_b                   16.604(3)
_cell_length_c                   9.4439(19)
_cell_angle_alpha                90
_cell_angle_beta                 97.51(3)
_cell_angle_gamma                90
_cell_volume                     1308.21
_exptl_crystal_colour            colorless
_exptl_crystal_description       Prism
_cell_formula_units_Z            4
loop_
_atom_site_label
_atom_site_type_symbol
_atom_site_fract_x
_atom_site_fract_y
_atom_site_fract_z
C1 C 0.3737(4) 1.02286(17) 0.7364(3)
C2 C 0.3427(4) 0.95256(18) 0.8352(3)
C3 C 0.2752(4) 0.96784(18) 0.9544(3)
H1 H 0.2525 0.9251 1.0121
C4 C 0.1506(4) 1.0679(2) 1.1100(4)
H2 H 0.1131 1.0262 1.1624
C5 C 0.1210(5) 1.1474(2) 1.1453(4)
H3 H 0.0619 1.1589 1.2195
C6 C 0.1813(4) 1.2101(2) 1.0679(4)
H4 H 0.1625 1.2632 1.0921
C7 C 0.2691(4) 1.19412(19) 0.9553(4)
H5 H 0.3100 1.2360 0.9057
C8 C 0.2941(3) 1.11397(18) 0.9187(3)
C9 C 0.2369(3) 1.04994(18) 0.9953(3)
C10 C 0.2345(5) 1.0309(2) 0.6126(4)
C11 C 0.3872(4) 0.86972(19) 0.7939(4)
C12 C 0.3572(5) 0.7274(2) 0.8378(6)
H6 H 0.4346 0.7252 0.7702
H7 H 0.4035 0.7004 0.9246
C13 C 0.2142(7) 0.6867(3) 0.7794(7)
H8 H 0.1323 0.6955 0.8395
H9 H 0.2352 0.6300 0.7740
H10 H 0.1789 0.7070 0.6854
O1 O 0.3857(3) 1.09939(12) 0.8083(2)
O2 O 0.5176(3) 1.01718(15) 0.6775(3)
H11 H 0.5335 0.9701 0.6573
O3 O 0.4723(3) 0.85584(15) 0.6999(3)
O4 O 0.3245(3) 0.81240(13) 0.8702(3)
F1 F 0.0950(3) 1.05084(17) 0.6605(2)
F2 F 0.2626(3) 1.08756(15) 0.5174(2)
F3 F 0.2101(3) 0.96156(15) 0.5394(3)
loop_
_geom_bond_atom_site_label_1
_geom_bond_atom_site_label_2
_geom_bond_site_symmetry_1
_geom_bond_site_symmetry_2
C1 C2 1_555 1_555
C2 C3 1_555 1_555
C3 H1 1_555 1_555
C4 H2 1_555 1_555
C5 C4 1_555 1_555
H3 C5 1_555 1_555
C6 C5 1_555 1_555
H4 C6 1_555 1_555
C7 C6 1_555 1_555
H5 C7 1_555 1_555
C8 C7 1_555 1_555
C9 C3 1_555 1_555
C10 C1 1_555 1_555
C11 C2 1_555 1_555
C12 H6 1_555 1_555
H7 C12 1_555 1_555
C13 C12 1_555 1_555
H8 C13 1_555 1_555
H9 C13 1_555 1_555
H10 C13 1_555 1_555
O1 C1 1_555 1_555
O2 C1 1_555 1_555
H11 O2 1_555 1_555
O3 C11 1_555 1_555
O4 C11 1_555 1_555
F1 C10 1_555 1_555
F2 C10 1_555 1_555
F3 C10 1_555 1_555
C4 C9 1_555 1_555
C8 C9 1_555 1_555
C8 O1 1_555 1_555
C12 O4 1_555 1_555

#END
