
#######################################################################
#
#                 Cambridge Crystallographic Data Centre
#                                CCDC 
#
#######################################################################
#
# If this CIF has been generated from an entry in the Cambridge 
# Structural Database, then it will include bibliographic, chemical, 
# crystal, experimental, refinement or atomic coordinate data resulting 
# from the CCDC's data processing and validation procedures.
#
#######################################################################

data_QOHTEN
_chemical_formula_moiety         'C16 H36 N1 1+,F1 1-,C39 H49 N5 O2,1.5(H2 O1)'
_chemical_name_systematic        
'tetra-n-butylammonium fluoride 5,5,15,15,20,20-hexaethyl-10-methyl-10-(3-nitrophenyl)-5,10,15,20,22,24-hexahydroporphyrin sesquihydrate'
_symmetry_cell_setting           monoclinic
_symmetry_space_group_name_H-M   'P 21/n'
_symmetry_Int_Tables_number      14
_space_group_name_Hall           '-P 2yn'
loop_
_symmetry_equiv_pos_site_id
_symmetry_equiv_pos_as_xyz
1 x,y,z
2 1/2-x,1/2+y,1/2-z
3 -x,-y,-z
4 1/2+x,1/2-y,1/2+z
_cell_length_a                   12.068(6)
_cell_length_b                   22.243(11)
_cell_length_c                   19.911(10)
_cell_angle_alpha                90
_cell_angle_beta                 97.485(6)
_cell_angle_gamma                90
_cell_volume                     5299.14
_exptl_crystal_colour            orange
_exptl_crystal_description       block
_cell_formula_units_Z            4
_exptl_crystal_recrystallization_method n-hexane/dichloromethane
loop_
_atom_site_label
_atom_site_type_symbol
_atom_site_fract_x
_atom_site_fract_y
_atom_site_fract_z
F1 F 0.5714(2) 0.17934(13) 0.61768(15)
N1 N 0.6480(3) 0.09310(18) 0.7141(2)
H1 H 0.6217 0.1171 0.6806
N2 N 0.4804(3) 0.20444(19) 0.7363(2)
H2 H 0.5019 0.1967 0.6966
N3 N 0.6320(4) 0.29766(18) 0.6541(2)
H3 H 0.6018 0.2666 0.6312
N4 N 0.8035(3) 0.18466(17) 0.6370(2)
H4 H 0.7303 0.1820 0.6277
N5 N 0.8008(5) 0.0619(3) 0.4155(3)
O1 O 0.8538(6) 0.1083(3) 0.4162(2)
O2 O 0.7787(5) 0.0319(3) 0.3650(2)
C1 C 0.7534(4) 0.0684(2) 0.7219(2)
C2 C 0.7629(4) 0.0344(2) 0.7803(3)
H5 H 0.8265 0.0120 0.7991
C3 C 0.6602(5) 0.0390(2) 0.8072(3)
H6 H 0.6433 0.0201 0.8474
C4 C 0.5889(4) 0.0753(2) 0.7656(2)
C5 C 0.4691(4) 0.0946(2) 0.7682(3)
C6 C 0.3988(4) 0.0818(2) 0.6976(3)
H7 H 0.4323 0.1043 0.6622
H8 H 0.4036 0.0384 0.6873
C7 C 0.2769(4) 0.0992(3) 0.6942(3)
H9 H 0.2408 0.0738 0.7251
H10 H 0.2397 0.0937 0.6478
H11 H 0.2714 0.1415 0.7073
C8 C 0.4207(5) 0.0594(3) 0.8247(3)
H12 H 0.4717 0.0645 0.8675
H13 H 0.3480 0.0775 0.8314
C9 C 0.4030(6) -0.0083(3) 0.8116(4)
H14 H 0.3419 -0.0142 0.7746
H15 H 0.3842 -0.0278 0.8527
H16 H 0.4718 -0.0259 0.7989
C10 C 0.4626(4) 0.1614(2) 0.7833(3)
C11 C 0.4311(5) 0.1918(3) 0.8376(3)
H17 H 0.4122 0.1741 0.8780
C12 C 0.4316(5) 0.2541(3) 0.8229(3)
H18 H 0.4147 0.2855 0.8522
C13 C 0.4604(4) 0.2610(2) 0.7596(3)
C14 C 0.4634(4) 0.3164(2) 0.7151(3)
C15 C 0.3880(4) 0.3046(3) 0.6464(3)
H19 H 0.3933 0.3396 0.6163
H20 H 0.4173 0.2691 0.6243
C16 C 0.2646(4) 0.2936(3) 0.6533(3)
H21 H 0.2581 0.2585 0.6824
H22 H 0.2230 0.2862 0.6085
H23 H 0.2339 0.3290 0.6736
C17 C 0.4188(5) 0.3705(3) 0.7519(3)
H24 H 0.3480 0.3586 0.7683
H25 H 0.4731 0.3802 0.7920
C18 C 0.3975(5) 0.4275(3) 0.7087(3)
H26 H 0.4656 0.4382 0.6894
H27 H 0.3768 0.4605 0.7370
H28 H 0.3367 0.4200 0.6720
C19 C 0.5813(4) 0.3299(2) 0.7008(3)
C20 C 0.6556(4) 0.3741(2) 0.7248(3)
H29 H 0.6445 0.4032 0.7581
C21 C 0.7512(4) 0.3685(2) 0.6913(3)
H30 H 0.8151 0.3938 0.6980
C22 C 0.7371(4) 0.3209(2) 0.6479(3)
C23 C 0.8099(4) 0.2930(2) 0.5997(3)
C24 C 0.9036(5) 0.3384(3) 0.5884(3)
H31 H 0.9433 0.3503 0.6331
H32 H 0.9582 0.3180 0.5631
C25 C 0.8626(6) 0.3956(3) 0.5496(4)
H33 H 0.8380 0.3855 0.5021
H34 H 0.9236 0.4249 0.5522
H35 H 0.7999 0.4128 0.5698
C26 C 0.7384(5) 0.2777(3) 0.5314(3)
H36 H 0.6772 0.2504 0.5404
H37 H 0.7039 0.3152 0.5118
C27 C 0.8029(6) 0.2484(3) 0.4795(3)
H38 H 0.8615 0.2758 0.4686
H39 H 0.7517 0.2395 0.4383
H40 H 0.8369 0.2110 0.4982
C28 C 0.8650(4) 0.2360(2) 0.6299(3)
C29 C 0.9744(4) 0.2220(2) 0.6502(3)
H41 H 1.0362 0.2486 0.6509
C30 C 0.9795(4) 0.1608(2) 0.6701(3)
H42 H 1.0452 0.1393 0.6870
C31 C 0.8732(4) 0.1382(2) 0.6607(2)
C32 C 0.8318(4) 0.0743(2) 0.6680(3)
C33 C 0.9344(4) 0.0333(2) 0.6886(3)
H43 H 0.9864 0.0368 0.6549
H44 H 0.9096 -0.0085 0.6909
H45 H 0.9720 0.0457 0.7331
C34 C 0.7741(4) 0.0502(2) 0.6002(3)
C35 C 0.8088(4) 0.0689(2) 0.5393(3)
H46 H 0.8640 0.0993 0.5390
C36 C 0.7614(5) 0.0425(2) 0.4793(3)
C37 C 0.6815(5) -0.0017(3) 0.4758(3)
H47 H 0.6515 -0.0191 0.4337
C38 C 0.6464(5) -0.0201(3) 0.5364(3)
H48 H 0.5901 -0.0500 0.5360
C39 C 0.6932(4) 0.0051(2) 0.5975(3)
H49 H 0.6695 -0.0087 0.6385
N6 N 0.8452(4) 0.2248(2) 0.8876(2)
C40 C 0.7418(6) 0.1843(3) 0.8715(3)
H50 H 0.6819 0.2087 0.8459
H51 H 0.7611 0.1520 0.8409
C41 C 0.6938(6) 0.1550(3) 0.9300(3)
H52 H 0.6800 0.1874 0.9620
H53 H 0.6199 0.1384 0.9117
C42 C 0.7567(6) 0.1060(3) 0.9708(3)
H54 H 0.8197 0.1237 1.0012
H55 H 0.7879 0.0775 0.9400
C43 C 0.6792(7) 0.0721(4) 1.0131(4)
H56 H 0.6463 0.1006 1.0424
H57 H 0.7223 0.0418 1.0410
H58 H 0.6196 0.0524 0.9828
C44 C 0.8279(7) 0.2674(3) 0.9462(3)
H59 H 0.8214 0.2428 0.9869
H60 H 0.8954 0.2927 0.9563
C45 C 0.7260(8) 0.3086(3) 0.9339(4)
H61 H 0.6588 0.2849 0.9169
H62 H 0.7376 0.3393 0.8995
C46 C 0.7098(8) 0.3392(4) 1.0008(4)
H63 H 0.6972 0.3082 1.0347
H64 H 0.7784 0.3617 1.0182
C47 C 0.6109(8) 0.3820(4) 0.9913(5)
H65 H 0.6246 0.4135 0.9590
H66 H 0.6014 0.4005 1.0349
H67 H 0.5431 0.3598 0.9740
C48 C 0.9492(17) 0.1885(11) 0.9132(6)
C49 C 0.9817(8) 0.1415(4) 0.8651(5)
H70 H 0.9907 0.1608 0.8213
C50 C 1.0903(7) 0.1094(4) 0.8923(5)
H72 H 1.1201 0.0885 0.8545
C51 C 1.0735(10) 0.0645(5) 0.9462(6)
H74 H 1.1450 0.0452 0.9625
H75 H 1.0197 0.0339 0.9274
H76 H 1.0448 0.0850 0.9840
H77 H 0.9389 0.1587 0.9419
H78 H 1.0128 0.2151 0.9248
H79 H 0.9349 0.1193 0.8355
H82 H 1.1435 0.1583 0.8954
C56 C 0.8455(11) 0.2597(8) 0.8217(6)
H87 H 0.7689 0.2743 0.8063
C57 C 0.9242(8) 0.3125(5) 0.8295(7)
H88 H 0.9206 0.3316 0.8741
H89 H 0.8997 0.3425 0.7940
C58 C 1.0445(9) 0.2947(6) 0.8243(9)
C59 C 1.1098(11) 0.3539(7) 0.8147(9)
H95 H 0.8612 0.2311 0.7849
O3 O 0.5379(4) 0.1397(2) 0.4947(2)
O4 O 0.030(2) 0.0650(12) 0.0597(12)
H68? H 1.0127 0.2166 0.9238
H69? H 0.9368 0.1684 0.9560
H71? H 0.9209 0.1115 0.8566
H73? H 1.1463 0.1395 0.9111
C52? C 0.951(6) 0.188(5) 0.9063(15)
C53? C 0.983(2) 0.1552(16) 0.8447(16)
H80? H 0.9705 0.1818 0.8046
C54? C 1.104(2) 0.1360(12) 0.856(2)
H81? H 1.1405 0.1463 0.8158
C55? C 1.116(3) 0.0692(12) 0.870(2)
H83? H 1.1949 0.0587 0.8796
H84? H 1.0823 0.0470 0.8294
H85? H 1.0771 0.0586 0.9083
H86? H 0.8674 0.2324 0.7865
H90? H 1.0478 0.2675 0.7853
H91? H 1.0774 0.2738 0.8661
H92? H 1.1880 0.3443 0.8108
H93? H 1.1064 0.3803 0.8537
H94? H 1.0762 0.3743 0.7733
C60? C 0.8727(17) 0.2583(15) 0.8246(9)
H96? H 0.8217 0.2930 0.8154
C61? C 0.9922(12) 0.2802(8) 0.8345(11)
H97? H 1.0414 0.2478 0.8213
H98? H 1.0147 0.2890 0.8831
C62? C 1.0085(17) 0.3359(7) 0.7936(9)
H99? H 0.9666 0.3316 0.7477
H100? H 1.0887 0.3404 0.7888
C63? C 0.969(2) 0.3914(8) 0.8271(11)
H101? H 0.9790 0.4267 0.7992
H102? H 1.0117 0.3964 0.8719
H103? H 0.8892 0.3870 0.8318
O5? O 0.062(2) 0.0144(14) 0.0420(15)
loop_
_geom_bond_atom_site_label_1
_geom_bond_atom_site_label_2
_geom_bond_site_symmetry_1
_geom_bond_site_symmetry_2
N1 H1 1_555 1_555
N2 H2 1_555 1_555
N3 H3 1_555 1_555
N4 H4 1_555 1_555
N5 O1 1_555 1_555
N6 C40 1_555 1_555
O2 N5 1_555 1_555
C1 N1 1_555 1_555
C2 C1 1_555 1_555
H5 C2 1_555 1_555
C3 C2 1_555 1_555
H6 C3 1_555 1_555
C4 N1 1_555 1_555
C5 C4 1_555 1_555
C6 C5 1_555 1_555
H7 C6 1_555 1_555
H8 C6 1_555 1_555
C7 C6 1_555 1_555
H9 C7 1_555 1_555
H10 C7 1_555 1_555
H11 C7 1_555 1_555
C8 C5 1_555 1_555
H12 C8 1_555 1_555
H13 C8 1_555 1_555
C9 C8 1_555 1_555
H14 C9 1_555 1_555
H15 C9 1_555 1_555
H16 C9 1_555 1_555
C10 N2 1_555 1_555
C11 C10 1_555 1_555
H17 C11 1_555 1_555
C12 C11 1_555 1_555
H18 C12 1_555 1_555
C13 N2 1_555 1_555
C14 C13 1_555 1_555
C15 C14 1_555 1_555
H19 C15 1_555 1_555
H20 C15 1_555 1_555
C16 C15 1_555 1_555
H21 C16 1_555 1_555
H22 C16 1_555 1_555
H23 C16 1_555 1_555
C17 C14 1_555 1_555
H24 C17 1_555 1_555
H25 C17 1_555 1_555
C18 C17 1_555 1_555
H26 C18 1_555 1_555
H27 C18 1_555 1_555
H28 C18 1_555 1_555
C19 N3 1_555 1_555
C20 C19 1_555 1_555
H29 C20 1_555 1_555
C21 C20 1_555 1_555
H30 C21 1_555 1_555
C22 N3 1_555 1_555
C23 C22 1_555 1_555
C24 C23 1_555 1_555
H31 C24 1_555 1_555
H32 C24 1_555 1_555
C25 C24 1_555 1_555
H33 C25 1_555 1_555
H34 C25 1_555 1_555
H35 C25 1_555 1_555
C26 C23 1_555 1_555
H36 C26 1_555 1_555
H37 C26 1_555 1_555
C27 C26 1_555 1_555
H38 C27 1_555 1_555
H39 C27 1_555 1_555
H40 C27 1_555 1_555
C28 N4 1_555 1_555
C29 C28 1_555 1_555
H41 C29 1_555 1_555
C30 C29 1_555 1_555
H42 C30 1_555 1_555
C31 N4 1_555 1_555
C32 C1 1_555 1_555
C33 C32 1_555 1_555
H43 C33 1_555 1_555
H44 C33 1_555 1_555
H45 C33 1_555 1_555
C34 C32 1_555 1_555
C35 C34 1_555 1_555
H46 C35 1_555 1_555
C36 N5 1_555 1_555
C37 C36 1_555 1_555
H47 C37 1_555 1_555
C38 C37 1_555 1_555
H48 C38 1_555 1_555
C39 C34 1_555 1_555
H49 C39 1_555 1_555
C40 H50 1_555 1_555
H51 C40 1_555 1_555
C41 C40 1_555 1_555
H52 C41 1_555 1_555
H53 C41 1_555 1_555
C42 C41 1_555 1_555
H54 C42 1_555 1_555
H55 C42 1_555 1_555
C43 C42 1_555 1_555
H56 C43 1_555 1_555
H57 C43 1_555 1_555
H58 C43 1_555 1_555
C44 N6 1_555 1_555
H59 C44 1_555 1_555
H60 C44 1_555 1_555
C45 C44 1_555 1_555
H61 C45 1_555 1_555
H62 C45 1_555 1_555
C46 C45 1_555 1_555
H63 C46 1_555 1_555
H64 C46 1_555 1_555
C47 C46 1_555 1_555
H65 C47 1_555 1_555
H66 C47 1_555 1_555
H67 C47 1_555 1_555
C48 N6 1_555 1_555
C49 C48 1_555 1_555
H70 C49 1_555 1_555
C50 C49 1_555 1_555
H72 C50 1_555 1_555
C51 C50 1_555 1_555
H74 C51 1_555 1_555
H75 C51 1_555 1_555
H76 C51 1_555 1_555
H77 C48 1_555 1_555
H78 C48 1_555 1_555
H79 C49 1_555 1_555
H82 C50 1_555 1_555
C56 N6 1_555 1_555
H87 C56 1_555 1_555
C57 C56 1_555 1_555
H88 C57 1_555 1_555
H89 C57 1_555 1_555
C58 C57 1_555 1_555
C59 C58 1_555 1_555
H95 C56 1_555 1_555
C3 C4 1_555 1_555
C5 C10 1_555 1_555
C12 C13 1_555 1_555
C14 C19 1_555 1_555
C21 C22 1_555 1_555
C23 C28 1_555 1_555
C30 C31 1_555 1_555
C31 C32 1_555 1_555
C35 C36 1_555 1_555
C38 C39 1_555 1_555

#END
