
#######################################################################
#
#                 Cambridge Crystallographic Data Centre
#                                CCDC 
#
#######################################################################
#
# If this CIF has been generated from an entry in the Cambridge 
# Structural Database, then it will include bibliographic, chemical, 
# crystal, experimental, refinement or atomic coordinate data resulting 
# from the CCDC's data processing and validation procedures.
#
#######################################################################

data_QOHTAJ
_chemical_formula_moiety         'C16 H36 N1 1+,F1 1-,C39 H49 N5 O2,C1 H2 Cl2'
_chemical_name_systematic        
'tetra-n-butylammonium fluoride 5,5,15,15,20,20-hexaethyl-10-methyl-10-(4-nitrophenyl)-5,10,15,20,22,24-hexahydroporphyrin dichloromethane solvate'
_symmetry_cell_setting           orthorhombic
_symmetry_space_group_name_H-M   'P n a 21'
_symmetry_Int_Tables_number      33
_space_group_name_Hall           'P 2c -2n'
loop_
_symmetry_equiv_pos_site_id
_symmetry_equiv_pos_as_xyz
1 x,y,z
2 1/2-x,1/2+y,1/2+z
3 1/2+x,1/2-y,z
4 -x,-y,1/2+z
_cell_length_a                   39.100(16)
_cell_length_b                   11.358(5)
_cell_length_c                   25.469(11)
_cell_angle_alpha                90
_cell_angle_beta                 90
_cell_angle_gamma                90
_cell_volume                     11310.7
_exptl_crystal_colour            orange
_exptl_crystal_description       prism
_cell_formula_units_Z            8
_exptl_crystal_recrystallization_method n-hexane/dichloromethane
loop_
_atom_site_label
_atom_site_type_symbol
_atom_site_fract_x
_atom_site_fract_y
_atom_site_fract_z
O1 O 0.35047(10) 0.5477(4) 0.45982(15)
O2 O 0.31108(11) 0.6833(4) 0.46723(15)
N1 N 0.23307(9) 0.4132(4) 0.67798(16)
H1 H 0.2360 0.3634 0.6519
N2 N 0.17654(10) 0.2096(4) 0.64870(15)
H2 H 0.1938 0.2202 0.6270
N3 N 0.24037(10) 0.0163(3) 0.64331(16)
H3 H 0.2400 0.0852 0.6276
N4 N 0.29585(9) 0.2223(4) 0.66907(16)
H4 H 0.2805 0.2326 0.6443
N5 N 0.32767(13) 0.5985(5) 0.48444(19)
C1 C 0.25901(12) 0.4582(5) 0.7088(2)
C2 C 0.24395(12) 0.5342(5) 0.7454(2)
H9 H 0.2554 0.5783 0.7718
C3 C 0.20811(13) 0.5327(5) 0.7355(2)
H10 H 0.1913 0.5759 0.7544
C4 C 0.20196(12) 0.4577(4) 0.6939(2)
C5 C 0.16879(12) 0.4281(4) 0.66483(19)
C6 C 0.13954(12) 0.5072(4) 0.6871(2)
H11 H 0.1354 0.4843 0.7241
H12 H 0.1476 0.5898 0.6872
C7 C 0.10557(13) 0.5019(5) 0.6577(3)
H13 H 0.0980 0.4199 0.6551
H14 H 0.1085 0.5346 0.6224
H15 H 0.0884 0.5479 0.6767
C8 C 0.17421(14) 0.4498(4) 0.6046(2)
H16 H 0.1934 0.4000 0.5923
H17 H 0.1534 0.4246 0.5856
C9 C 0.18190(16) 0.5787(5) 0.5905(2)
H18 H 0.2003 0.6082 0.6131
H19 H 0.1613 0.6264 0.5959
H20 H 0.1890 0.5837 0.5537
C10 C 0.15897(12) 0.3000(4) 0.67347(19)
C11 C 0.13422(12) 0.2463(5) 0.7037(2)
H21 H 0.1181 0.2855 0.7255
C12 C 0.13679(12) 0.1220(5) 0.6968(2)
H22 H 0.1226 0.0645 0.7129
C13 C 0.16337(12) 0.0997(4) 0.66259(19)
C14 C 0.17567(13) -0.0127(4) 0.63692(19)
C15 C 0.15049(13) -0.1132(5) 0.6503(2)
H23 H 0.1612 -0.1887 0.6401
H24 H 0.1474 -0.1147 0.6889
C16 C 0.11525(13) -0.1070(5) 0.6249(2)
H25 H 0.1177 -0.1111 0.5866
H26 H 0.1041 -0.0328 0.6346
H27 H 0.1013 -0.1732 0.6371
C17 C 0.17814(13) 0.0046(5) 0.57552(19)
H28 H 0.1554 0.0291 0.5622
H29 H 0.1944 0.0694 0.5682
C18 C 0.18959(15) -0.1041(5) 0.5453(2)
H30 H 0.1725 -0.1664 0.5492
H31 H 0.2116 -0.1316 0.5591
H32 H 0.1921 -0.0843 0.5080
C19 C 0.21156(12) -0.0489(4) 0.65598(19)
C20 C 0.22304(13) -0.1514(4) 0.68015(19)
H33 H 0.2091 -0.2133 0.6933
C21 C 0.25950(13) -0.1470(5) 0.6817(2)
H34 H 0.2741 -0.2057 0.6960
C22 C 0.26983(12) -0.0419(5) 0.65881(19)
C23 C 0.30523(12) 0.0065(4) 0.6476(2)
C24 C 0.30779(14) 0.0392(5) 0.5880(2)
H35 H 0.2912 0.1027 0.5805
H36 H 0.3309 0.0708 0.5810
C25 C 0.30103(15) -0.0640(5) 0.5496(2)
H37 H 0.2783 -0.0969 0.5563
H38 H 0.3183 -0.1253 0.5549
H39 H 0.3022 -0.0352 0.5134
C26 C 0.33196(13) -0.0908(5) 0.6618(2)
H40 H 0.3315 -0.1028 0.7003
H41 H 0.3246 -0.1655 0.6452
C27 C 0.36905(14) -0.0667(6) 0.6453(3)
H42 H 0.3760 0.0111 0.6580
H43 H 0.3708 -0.0689 0.6069
H44 H 0.3840 -0.1269 0.6604
C28 C 0.31214(12) 0.1165(5) 0.6798(2)
C29 C 0.33353(13) 0.1377(5) 0.7221(2)
H45 H 0.3478 0.0814 0.7388
C30 C 0.33041(12) 0.2582(5) 0.7362(2)
H46 H 0.3423 0.2965 0.7639
C31 C 0.30716(12) 0.3096(4) 0.70286(19)
C32 C 0.29666(12) 0.4377(5) 0.69575(19)
C33 C 0.31948(13) 0.5150(5) 0.7319(2)
H47 H 0.3436 0.5023 0.7231
H48 H 0.3155 0.4932 0.7687
H49 H 0.3137 0.5981 0.7268
C34 C 0.30397(12) 0.4775(4) 0.6380(2)
C35 C 0.33054(13) 0.4267(5) 0.6095(2)
H50 H 0.3436 0.3652 0.6249
C36 C 0.33831(13) 0.4644(5) 0.5588(2)
H51 H 0.3560 0.4281 0.5389
C37 C 0.31938(13) 0.5564(5) 0.53850(19)
C38 C 0.29320(13) 0.6100(5) 0.5652(2)
H52 H 0.2806 0.6725 0.5497
C39 C 0.28556(13) 0.5708(4) 0.6154(2)
H53 H 0.2677 0.6074 0.6347
O3 O 0.97423(13) 0.5097(6) 0.5930(2)
O4 O 0.95713(13) 0.6700(6) 0.6324(2)
N7 N 0.96583(10) 0.3585(4) 0.86662(16)
H5 H 0.9607 0.3066 0.8422
N8 N 0.91096(10) 0.1399(3) 0.88672(16)
H6 H 0.9160 0.1494 0.8533
N9 N 0.96821(10) -0.0409(4) 0.83283(16)
H7 H 0.9607 0.0258 0.8196
N10 N 1.01930(10) 0.1802(4) 0.80726(16)
H8 H 0.9976 0.1853 0.7985
N11 N 0.97064(13) 0.5702(7) 0.6326(2)
C56 C 0.99763(12) 0.4101(4) 0.87277(19)
C57 C 0.99489(13) 0.4841(5) 0.9154(2)
H90 H 1.0127 0.5317 0.9293
C58 C 0.96132(14) 0.4773(5) 0.9348(2)
H91 H 0.9525 0.5190 0.9641
C59 C 0.94353(12) 0.3993(4) 0.90361(19)
C60 C 0.90617(12) 0.3599(4) 0.90474(19)
C61 C 0.88674(13) 0.4373(5) 0.9454(2)
H92 H 0.8959 0.4200 0.9807
H93 H 0.8917 0.5210 0.9377
C62 C 0.84777(15) 0.4209(6) 0.9468(3)
H94 H 0.8424 0.3386 0.9547
H95 H 0.8381 0.4419 0.9125
H96 H 0.8380 0.4718 0.9739
C63 C 0.89061(13) 0.3751(4) 0.8491(2)
H97 H 0.8670 0.3439 0.8491
H98 H 0.9041 0.3282 0.8238
C64 C 0.88991(14) 0.5057(4) 0.8306(2)
H99 H 0.9124 0.5413 0.8362
H100 H 0.8727 0.5492 0.8507
H101 H 0.8842 0.5088 0.7931
C65 C 0.90418(13) 0.2312(4) 0.9214(2)
C66 C 0.89752(12) 0.1789(5) 0.96965(19)
H102 H 0.8920 0.2188 1.0013
C67 C 0.90050(12) 0.0526(5) 0.9630(2)
H103 H 0.8973 -0.0052 0.9896
C68 C 0.90868(11) 0.0316(4) 0.91168(19)
C69 C 0.91288(12) -0.0851(4) 0.88094(19)
C70 C 0.89969(12) -0.1888(4) 0.9163(2)
H104 H 0.9052 -0.2638 0.8984
H105 H 0.9127 -0.1874 0.9496
C71 C 0.86150(14) -0.1895(5) 0.9297(3)
H106 H 0.8481 -0.1991 0.8974
H107 H 0.8553 -0.1149 0.9466
H108 H 0.8566 -0.2549 0.9536
C72 C 0.89254(12) -0.0760(4) 0.8286(2)
H109 H 0.8683 -0.0600 0.8370
H110 H 0.9013 -0.0079 0.8085
C73 C 0.89427(14) -0.1856(5) 0.7935(2)
H111 H 0.8819 -0.2504 0.8103
H112 H 0.9182 -0.2082 0.7884
H113 H 0.8838 -0.1681 0.7594
C74 C 0.95042(12) -0.1103(4) 0.86766(19)
C75 C 0.97070(14) -0.2065(4) 0.8786(2)
H114 H 0.9650 -0.2700 0.9012
C76 C 1.00140(13) -0.1936(5) 0.8500(2)
H115 H 1.0201 -0.2469 0.8504
C77 C 0.99964(13) -0.0912(4) 0.8215(2)
C78 C 1.02372(12) -0.0344(5) 0.7821(2)
C79 C 1.00346(14) -0.0101(5) 0.7305(2)
H116 H 0.9937 -0.0851 0.7177
H117 H 0.9842 0.0434 0.7386
C80 C 1.02535(16) 0.0456(6) 0.6863(2)
H118 H 1.0429 -0.0107 0.6750
H119 H 1.0364 0.1172 0.6994
H120 H 1.0106 0.0654 0.6564
C81 C 1.05454(14) -0.1198(5) 0.7712(2)
H121 H 1.0725 -0.0749 0.7525
H122 H 1.0642 -0.1444 0.8054
C82 C 1.04667(15) -0.2299(5) 0.7395(2)
H123 H 1.0420 -0.2080 0.7030
H124 H 1.0266 -0.2694 0.7544
H125 H 1.0664 -0.2833 0.7407
C83 C 1.03865(13) 0.0793(5) 0.8044(2)
C84 C 1.07089(13) 0.1078(5) 0.8214(2)
H126 H 1.0898 0.0553 0.8237
C85 C 1.07124(12) 0.2291(5) 0.8350(2)
H127 H 1.0903 0.2722 0.8479
C86 C 1.03902(12) 0.2728(5) 0.8260(2)
C87 C 1.02525(12) 0.3981(4) 0.8306(2)
C88 C 1.05492(13) 0.4824(5) 0.8432(2)
H128 H 1.0724 0.4762 0.8158
H129 H 1.0649 0.4613 0.8772
H130 H 1.0463 0.5634 0.8446
C89 C 1.00984(12) 0.4393(5) 0.7770(2)
C90 C 1.02211(14) 0.3970(5) 0.7296(2)
H131 H 1.0397 0.3392 0.7295
C91 C 1.00891(15) 0.4381(6) 0.6815(3)
H132 H 1.0167 0.4069 0.6491
C92 C 0.98420(14) 0.5254(5) 0.6829(2)
C93 C 0.97208(13) 0.5706(6) 0.7292(2)
H133 H 0.9554 0.6315 0.7289
C94 C 0.98424(13) 0.5268(5) 0.7760(2)
H134 H 0.9752 0.5560 0.8081
F1 F 0.74069(7) 0.2579(2) 0.60255(10)
F2 F 0.94914(6) 0.1815(2) 0.79603(10)
N6 N 0.22502(10) 0.1280(4) 0.82434(16)
C40 C 0.20071(13) 0.0384(5) 0.8494(2)
H54 H 0.2145 -0.0169 0.8708
H55 H 0.1853 0.0810 0.8737
C41 C 0.17902(13) -0.0328(5) 0.8119(2)
H56 H 0.1938 -0.0700 0.7851
H57 H 0.1627 0.0198 0.7936
C42 C 0.15921(14) -0.1284(5) 0.8420(2)
H58 H 0.1754 -0.1732 0.8642
H59 H 0.1423 -0.0903 0.8654
C43 C 0.14060(14) -0.2139(5) 0.8053(2)
H60 H 0.1574 -0.2603 0.7856
H61 H 0.1263 -0.1693 0.7807
H62 H 0.1261 -0.2668 0.8260
C44 C 0.24963(13) 0.0688(5) 0.7854(2)
H63 H 0.2629 0.1314 0.7676
H64 H 0.2357 0.0288 0.7582
C45 C 0.27514(13) -0.0216(5) 0.8078(2)
H65 H 0.2942 -0.0287 0.7825
H66 H 0.2848 0.0119 0.8405
C46 C 0.26263(14) -0.1462(5) 0.8203(2)
H67 H 0.2469 -0.1438 0.8507
H68 H 0.2500 -0.1783 0.7899
C47 C 0.29300(17) -0.2255(6) 0.8329(3)
H69 H 0.3066 -0.1900 0.8611
H70 H 0.3072 -0.2346 0.8015
H71 H 0.2847 -0.3029 0.8442
C48 C 0.24504(13) 0.1838(5) 0.86948(19)
H72 H 0.2286 0.2250 0.8927
H73 H 0.2556 0.1198 0.8903
C49 C 0.27285(13) 0.2699(5) 0.8542(2)
H74 H 0.2637 0.3276 0.8287
H75 H 0.2920 0.2272 0.8374
C50 C 0.28561(15) 0.3339(6) 0.9027(2)
H76 H 0.2668 0.3819 0.9174
H77 H 0.2923 0.2752 0.9295
C51 C 0.31577(17) 0.4129(6) 0.8910(3)
H78 H 0.3084 0.4777 0.8682
H79 H 0.3337 0.3673 0.8733
H80 H 0.3248 0.4450 0.9240
C52 C 0.20493(12) 0.2215(4) 0.7934(2)
H81 H 0.2216 0.2780 0.7785
H82 H 0.1937 0.1816 0.7634
C53 C 0.17783(14) 0.2916(5) 0.8224(2)
H83 H 0.1646 0.2359 0.8443
H84 H 0.1619 0.3241 0.7959
C54 C 0.18937(15) 0.3948(5) 0.8582(2)
H85 H 0.1963 0.3635 0.8929
H86 H 0.2094 0.4345 0.8423
C55 C 0.16049(16) 0.4837(5) 0.8655(2)
H87 H 0.1403 0.4436 0.8797
H88 H 0.1548 0.5192 0.8315
H89 H 0.1678 0.5453 0.8899
N12 N 0.97420(10) 0.9705(4) 0.49838(16)
C95 C 0.94704(12) 0.8941(5) 0.5242(2)
H135 H 0.9304 0.9459 0.5423
H136 H 0.9581 0.8444 0.5512
C96 C 0.92759(13) 0.8144(5) 0.4865(2)
H137 H 0.9440 0.7698 0.4645
H138 H 0.9131 0.8626 0.4630
C97 C 0.90515(14) 0.7283(5) 0.5178(2)
H139 H 0.9196 0.6830 0.5425
H140 H 0.8882 0.7730 0.5386
C98 C 0.88662(15) 0.6435(6) 0.4809(3)
H141 H 0.9035 0.6003 0.4599
H142 H 0.8715 0.6882 0.4575
H143 H 0.8730 0.5878 0.5015
C99 C 1.00205(12) 0.8925(5) 0.4724(2)
H144 H 0.9935 0.8675 0.4376
H145 H 1.0225 0.9419 0.4665
C100 C 1.01325(12) 0.7822(5) 0.5025(2)
H146 H 0.9926 0.7330 0.5078
H147 H 1.0288 0.7372 0.4792
C101 C 1.03103(13) 0.7940(5) 0.5557(2)
H148 H 1.0492 0.8546 0.5533
H149 H 1.0142 0.8200 0.5823
C102 C 1.04681(14) 0.6769(5) 0.5727(2)
H150 H 1.0664 0.6587 0.5501
H151 H 1.0297 0.6143 0.5695
H152 H 1.0544 0.6827 0.6092
C103 C 0.99019(14) 1.0479(5) 0.5413(2)
H153 H 1.0037 0.9967 0.5650
H154 H 0.9715 1.0829 0.5624
C104 C 1.01350(19) 1.1481(6) 0.5221(3)
H155 H 1.0302 1.1160 0.4966
H156 H 0.9995 1.2076 0.5036
C105 C 1.0321(2) 1.2056(7) 0.5654(3)
H157 H 1.0470 1.1458 0.5821
H158 H 1.0151 1.2301 0.5921
C106 C 1.0537(3) 1.3105(9) 0.5525(4)
H159 H 1.0391 1.3801 0.5488
H160 H 1.0659 1.2963 0.5195
H161 H 1.0703 1.3236 0.5807
C107 C 0.95868(14) 1.0471(5) 0.4559(2)
H162 H 0.9499 0.9957 0.4275
H163 H 0.9769 1.0971 0.4406
C108 C 0.92962(16) 1.1264(6) 0.4748(3)
H164 H 0.9094 1.0771 0.4824
H165 H 0.9366 1.1647 0.5080
C109 C 0.91967(16) 1.2206(5) 0.4358(3)
H166 H 0.9138 1.1824 0.4020
H167 H 0.9396 1.2723 0.4295
C110 C 0.88965(18) 1.2960(6) 0.4533(3)
H168 H 0.8948 1.3309 0.4876
H169 H 0.8691 1.2469 0.4561
H170 H 0.8857 1.3587 0.4276
C111 C 0.91685(16) 0.1726(6) 0.6852(2)
H171 H 0.8930 0.1955 0.6935
H172 H 0.9309 0.1844 0.7171
Cl1 Cl 0.91809(4) 0.02081(17) 0.66619(7)
Cl2 Cl 0.93279(5) 0.26270(18) 0.63340(8)
Cl3 Cl 0.76014(5) 0.57569(17) 0.97196(7)
C112 C 0.7537(4) 0.7280(10) 0.9857(10)
H173 H 0.7542 0.7420 1.0241
H174 H 0.7720 0.7758 0.9692
Cl4 Cl 0.7138(2) 0.7659(8) 0.9599(3)
C113? C 0.7618(8) 0.7244(18) 0.9847(14)
H175? H 0.7856 0.7509 0.9788
H176? H 0.7567 0.7359 1.0224
Cl5? Cl 0.7346(4) 0.8185(7) 0.9487(2)
loop_
_geom_bond_atom_site_label_1
_geom_bond_atom_site_label_2
_geom_bond_site_symmetry_1
_geom_bond_site_symmetry_2
O1 N5 1_555 1_555
O2 N5 1_555 1_555
O3 N11 1_555 1_555
O4 N11 1_555 1_555
N1 H1 1_555 1_555
N2 H2 1_555 1_555
N3 H3 1_555 1_555
N4 H4 1_555 1_555
N5 C37 1_555 1_555
N6 C40 1_555 1_555
N7 H5 1_555 1_555
N8 H6 1_555 1_555
N9 H7 1_555 1_555
N10 H8 1_555 1_555
N11 C92 1_555 1_555
N12 C95 1_555 1_555
C1 N1 1_555 1_555
C2 C1 1_555 1_555
H9 C2 1_555 1_555
C3 C2 1_555 1_555
H10 C3 1_555 1_555
C4 N1 1_555 1_555
C5 C4 1_555 1_555
C6 C5 1_555 1_555
H11 C6 1_555 1_555
H12 C6 1_555 1_555
C7 C6 1_555 1_555
H13 C7 1_555 1_555
H14 C7 1_555 1_555
H15 C7 1_555 1_555
C8 C5 1_555 1_555
H16 C8 1_555 1_555
H17 C8 1_555 1_555
C9 C8 1_555 1_555
H18 C9 1_555 1_555
H19 C9 1_555 1_555
H20 C9 1_555 1_555
C10 N2 1_555 1_555
C11 C10 1_555 1_555
H21 C11 1_555 1_555
C12 C11 1_555 1_555
H22 C12 1_555 1_555
C13 N2 1_555 1_555
C14 C13 1_555 1_555
C15 C14 1_555 1_555
H23 C15 1_555 1_555
H24 C15 1_555 1_555
C16 C15 1_555 1_555
H25 C16 1_555 1_555
H26 C16 1_555 1_555
H27 C16 1_555 1_555
C17 C14 1_555 1_555
H28 C17 1_555 1_555
H29 C17 1_555 1_555
C18 C17 1_555 1_555
H30 C18 1_555 1_555
H31 C18 1_555 1_555
H32 C18 1_555 1_555
C19 N3 1_555 1_555
C20 C19 1_555 1_555
H33 C20 1_555 1_555
C21 C20 1_555 1_555
H34 C21 1_555 1_555
C22 N3 1_555 1_555
C23 C22 1_555 1_555
C24 C23 1_555 1_555
H35 C24 1_555 1_555
H36 C24 1_555 1_555
C25 C24 1_555 1_555
H37 C25 1_555 1_555
H38 C25 1_555 1_555
H39 C25 1_555 1_555
C26 C23 1_555 1_555
H40 C26 1_555 1_555
H41 C26 1_555 1_555
C27 C26 1_555 1_555
H42 C27 1_555 1_555
H43 C27 1_555 1_555
H44 C27 1_555 1_555
C28 N4 1_555 1_555
C29 C28 1_555 1_555
H45 C29 1_555 1_555
C30 C29 1_555 1_555
H46 C30 1_555 1_555
C31 N4 1_555 1_555
C32 C1 1_555 1_555
C33 C32 1_555 1_555
H47 C33 1_555 1_555
H48 C33 1_555 1_555
H49 C33 1_555 1_555
C34 C32 1_555 1_555
C35 C34 1_555 1_555
H50 C35 1_555 1_555
C36 C35 1_555 1_555
H51 C36 1_555 1_555
C37 C36 1_555 1_555
C38 C37 1_555 1_555
H52 C38 1_555 1_555
C39 C34 1_555 1_555
H53 C39 1_555 1_555
C40 H54 1_555 1_555
H55 C40 1_555 1_555
C41 C40 1_555 1_555
H56 C41 1_555 1_555
H57 C41 1_555 1_555
C42 C41 1_555 1_555
H58 C42 1_555 1_555
H59 C42 1_555 1_555
C43 C42 1_555 1_555
H60 C43 1_555 1_555
H61 C43 1_555 1_555
H62 C43 1_555 1_555
C44 N6 1_555 1_555
H63 C44 1_555 1_555
H64 C44 1_555 1_555
C45 C44 1_555 1_555
H65 C45 1_555 1_555
H66 C45 1_555 1_555
C46 C45 1_555 1_555
H67 C46 1_555 1_555
H68 C46 1_555 1_555
C47 C46 1_555 1_555
H69 C47 1_555 1_555
H70 C47 1_555 1_555
H71 C47 1_555 1_555
C48 N6 1_555 1_555
H72 C48 1_555 1_555
H73 C48 1_555 1_555
C49 C48 1_555 1_555
H74 C49 1_555 1_555
H75 C49 1_555 1_555
C50 C49 1_555 1_555
H76 C50 1_555 1_555
H77 C50 1_555 1_555
C51 C50 1_555 1_555
H78 C51 1_555 1_555
H79 C51 1_555 1_555
H80 C51 1_555 1_555
C52 N6 1_555 1_555
H81 C52 1_555 1_555
H82 C52 1_555 1_555
C53 C52 1_555 1_555
H83 C53 1_555 1_555
H84 C53 1_555 1_555
C54 C53 1_555 1_555
H85 C54 1_555 1_555
H86 C54 1_555 1_555
C55 C54 1_555 1_555
H87 C55 1_555 1_555
H88 C55 1_555 1_555
H89 C55 1_555 1_555
C56 N7 1_555 1_555
C57 C56 1_555 1_555
H90 C57 1_555 1_555
C58 C57 1_555 1_555
H91 C58 1_555 1_555
C59 N7 1_555 1_555
C60 C59 1_555 1_555
C61 C60 1_555 1_555
H92 C61 1_555 1_555
H93 C61 1_555 1_555
C62 C61 1_555 1_555
H94 C62 1_555 1_555
H95 C62 1_555 1_555
H96 C62 1_555 1_555
C63 C60 1_555 1_555
H97 C63 1_555 1_555
H98 C63 1_555 1_555
C64 C63 1_555 1_555
H99 C64 1_555 1_555
H100 C64 1_555 1_555
H101 C64 1_555 1_555
C65 N8 1_555 1_555
C66 C65 1_555 1_555
H102 C66 1_555 1_555
C67 C66 1_555 1_555
H103 C67 1_555 1_555
C68 N8 1_555 1_555
C69 C68 1_555 1_555
C70 C69 1_555 1_555
H104 C70 1_555 1_555
H105 C70 1_555 1_555
C71 C70 1_555 1_555
H106 C71 1_555 1_555
H107 C71 1_555 1_555
H108 C71 1_555 1_555
C72 C69 1_555 1_555
H109 C72 1_555 1_555
H110 C72 1_555 1_555
C73 C72 1_555 1_555
H111 C73 1_555 1_555
H112 C73 1_555 1_555
H113 C73 1_555 1_555
C74 N9 1_555 1_555
C75 C74 1_555 1_555
H114 C75 1_555 1_555
C76 C75 1_555 1_555
H115 C76 1_555 1_555
C77 N9 1_555 1_555
C78 C77 1_555 1_555
C79 C78 1_555 1_555
H116 C79 1_555 1_555
H117 C79 1_555 1_555
C80 C79 1_555 1_555
H118 C80 1_555 1_555
H119 C80 1_555 1_555
H120 C80 1_555 1_555
C81 C78 1_555 1_555
H121 C81 1_555 1_555
H122 C81 1_555 1_555
C82 C81 1_555 1_555
H123 C82 1_555 1_555
H124 C82 1_555 1_555
H125 C82 1_555 1_555
C83 N10 1_555 1_555
C84 C83 1_555 1_555
H126 C84 1_555 1_555
C85 C84 1_555 1_555
H127 C85 1_555 1_555
C86 N10 1_555 1_555
C87 C56 1_555 1_555
C88 C87 1_555 1_555
H128 C88 1_555 1_555
H129 C88 1_555 1_555
H130 C88 1_555 1_555
C89 C87 1_555 1_555
C90 C89 1_555 1_555
H131 C90 1_555 1_555
C91 C90 1_555 1_555
H132 C91 1_555 1_555
C92 C91 1_555 1_555
C93 C92 1_555 1_555
H133 C93 1_555 1_555
C94 C89 1_555 1_555
H134 C94 1_555 1_555
C95 H135 1_555 1_555
H136 C95 1_555 1_555
C96 C95 1_555 1_555
H137 C96 1_555 1_555
H138 C96 1_555 1_555
C97 C96 1_555 1_555
H139 C97 1_555 1_555
H140 C97 1_555 1_555
C98 C97 1_555 1_555
H141 C98 1_555 1_555
H142 C98 1_555 1_555
H143 C98 1_555 1_555
C99 N12 1_555 1_555
H144 C99 1_555 1_555
H145 C99 1_555 1_555
C100 C99 1_555 1_555
H146 C100 1_555 1_555
H147 C100 1_555 1_555
C101 C100 1_555 1_555
H148 C101 1_555 1_555
H149 C101 1_555 1_555
C102 C101 1_555 1_555
H150 C102 1_555 1_555
H151 C102 1_555 1_555
H152 C102 1_555 1_555
C103 N12 1_555 1_555
H153 C103 1_555 1_555
H154 C103 1_555 1_555
C104 C103 1_555 1_555
H155 C104 1_555 1_555
H156 C104 1_555 1_555
C105 C104 1_555 1_555
H157 C105 1_555 1_555
H158 C105 1_555 1_555
C106 C105 1_555 1_555
H159 C106 1_555 1_555
H160 C106 1_555 1_555
H161 C106 1_555 1_555
C107 N12 1_555 1_555
H162 C107 1_555 1_555
H163 C107 1_555 1_555
C108 C107 1_555 1_555
H164 C108 1_555 1_555
H165 C108 1_555 1_555
C109 C108 1_555 1_555
H166 C109 1_555 1_555
H167 C109 1_555 1_555
C110 C109 1_555 1_555
H168 C110 1_555 1_555
H169 C110 1_555 1_555
H170 C110 1_555 1_555
C111 H171 1_555 1_555
H172 C111 1_555 1_555
Cl1 C111 1_555 1_555
Cl2 C111 1_555 1_555
Cl3 C112 1_555 1_555
C112 H173 1_555 1_555
H174 C112 1_555 1_555
Cl4 C112 1_555 1_555
C3 C4 1_555 1_555
C5 C10 1_555 1_555
C12 C13 1_555 1_555
C14 C19 1_555 1_555
C21 C22 1_555 1_555
C23 C28 1_555 1_555
C30 C31 1_555 1_555
C31 C32 1_555 1_555
C38 C39 1_555 1_555
C58 C59 1_555 1_555
C60 C65 1_555 1_555
C67 C68 1_555 1_555
C69 C74 1_555 1_555
C76 C77 1_555 1_555
C78 C83 1_555 1_555
C85 C86 1_555 1_555
C86 C87 1_555 1_555
C93 C94 1_555 1_555

#END
