
#######################################################################
#
#                 Cambridge Crystallographic Data Centre
#                                CCDC 
#
#######################################################################
#
# If this CIF has been generated from an entry in the Cambridge 
# Structural Database, then it will include bibliographic, chemical, 
# crystal, experimental, refinement or atomic coordinate data resulting 
# from the CCDC's data processing and validation procedures.
#
#######################################################################

data_QOJFAY
_chemical_formula_moiety         'C13 H8 Cl2 N2 O1'
_chemical_name_systematic        2-(5,6-Dichloro-1H-benzimidazol-2-yl)phenol
_symmetry_cell_setting           monoclinic
_symmetry_space_group_name_H-M   'P 21'
_symmetry_Int_Tables_number      4
_space_group_name_Hall           'P 2yb'
loop_
_symmetry_equiv_pos_site_id
_symmetry_equiv_pos_as_xyz
1 x,y,z
2 -x,1/2+y,-z
_cell_length_a                   3.770(5)
_cell_length_b                   25.20(3)
_cell_length_c                   5.865(7)
_cell_angle_alpha                90
_cell_angle_beta                 92.727(17)
_cell_angle_gamma                90
_cell_volume                     556.567
_exptl_crystal_colour            colorless
_exptl_crystal_description       Plate
_cell_formula_units_Z            2
loop_
_atom_site_label
_atom_site_type_symbol
_atom_site_fract_x
_atom_site_fract_y
_atom_site_fract_z
Cl1 Cl 0.6904(8) 0.44567(12) 1.2813(5)
Cl2 Cl 0.3329(9) 0.41115(13) 0.8112(5)
O1 O -0.167(2) 0.6826(3) 0.3834(16)
H1 H -0.1006 0.6528 0.4331
N1 N 0.371(3) 0.6377(4) 1.0097(16)
H2 H 0.4471 0.6586 1.1218
N2 N 0.123(3) 0.6124(4) 0.6701(16)
C1 C 0.407(3) 0.5834(4) 1.002(2)
C2 C 0.545(3) 0.5469(5) 1.157(2)
H3 H 0.6507 0.5575 1.2997
C3 C 0.522(3) 0.4938(5) 1.0933(18)
C4 C 0.360(3) 0.4780(4) 0.878(2)
C5 C 0.230(3) 0.5151(5) 0.728(2)
H4 H 0.1301 0.5047 0.5830
C6 C 0.243(3) 0.5682(5) 0.7877(18)
C7 C 0.193(3) 0.6536(5) 0.8091(19)
C8 C 0.105(3) 0.7087(5) 0.7555(19)
C9 C 0.179(3) 0.7507(5) 0.909(2)
H5 H 0.2958 0.7433 1.0528
C10 C 0.085(4) 0.8022(6) 0.856(2)
H6 H 0.1365 0.8299 0.9624
C11 C -0.086(3) 0.8139(5) 0.645(2)
H7 H -0.1481 0.8494 0.6069
C12 C -0.163(4) 0.7728(5) 0.490(2)
H8 H -0.2779 0.7807 0.3459
C13 C -0.076(3) 0.7212(5) 0.543(2)
loop_
_geom_bond_atom_site_label_1
_geom_bond_atom_site_label_2
_geom_bond_site_symmetry_1
_geom_bond_site_symmetry_2
Cl1 C3 1_555 1_555
Cl2 C4 1_555 1_555
O1 H1 1_555 1_555
N1 H2 1_555 1_555
N2 C6 1_555 1_555
C1 N1 1_555 1_555
C2 C1 1_555 1_555
H3 C2 1_555 1_555
C3 C2 1_555 1_555
C4 C3 1_555 1_555
C5 C4 1_555 1_555
H4 C5 1_555 1_555
C6 C1 1_555 1_555
C7 N1 1_555 1_555
C8 C7 1_555 1_555
C9 C8 1_555 1_555
H5 C9 1_555 1_555
C10 C9 1_555 1_555
H6 C10 1_555 1_555
C11 C10 1_555 1_555
H7 C11 1_555 1_555
C12 C11 1_555 1_555
H8 C12 1_555 1_555
C13 O1 1_555 1_555
N2 C7 1_555 1_555
C5 C6 1_555 1_555
C8 C13 1_555 1_555
C12 C13 1_555 1_555

#END
