
#######################################################################
#
#                 Cambridge Crystallographic Data Centre
#                                CCDC 
#
#######################################################################
#
# If this CIF has been generated from an entry in the Cambridge 
# Structural Database, then it will include bibliographic, chemical, 
# crystal, experimental, refinement or atomic coordinate data resulting 
# from the CCDC's data processing and validation procedures.
#
#######################################################################

data_QOJGUT
_chemical_formula_moiety         'C28 H28 Br1 N1 O6'
_chemical_name_systematic        
'1-(4-bromophenyl)-3-((t-butoxycarbonyl)amino)-3-(4-methoxyphenyl)-1-oxopropan-2-yl benzoate'
_symmetry_cell_setting           monoclinic
_symmetry_space_group_name_H-M   'P 21/c'
_symmetry_Int_Tables_number      14
_space_group_name_Hall           '-P 2ybc'
loop_
_symmetry_equiv_pos_site_id
_symmetry_equiv_pos_as_xyz
1 x,y,z
2 -x,1/2+y,1/2-z
3 -x,-y,-z
4 x,1/2-y,1/2+z
_cell_length_a                   14.0321(6)
_cell_length_b                   10.5730(4)
_cell_length_c                   18.9711(8)
_cell_angle_alpha                90
_cell_angle_beta                 106.5550(10)
_cell_angle_gamma                90
_cell_volume                     2697.91
_exptl_crystal_colour            colorless
_exptl_crystal_description       block
_cell_formula_units_Z            4
loop_
_atom_site_label
_atom_site_type_symbol
_atom_site_fract_x
_atom_site_fract_y
_atom_site_fract_z
Br1 Br 0.01298(2) 0.21582(3) 0.049928(19)
O1 O 0.79434(11) 0.18543(15) 0.24633(10)
O2 O 0.75132(12) -0.01923(15) 0.25712(9)
O3 O 0.27489(13) 0.08641(18) -0.08852(9)
O4 O 0.46978(12) 0.14000(18) 0.38079(10)
O5 O 0.57168(11) 0.05597(15) 0.32195(8)
O6 O 0.41652(13) -0.10654(15) 0.26592(10)
N1 N 0.63785(13) 0.13118(17) 0.20422(10)
H1 H 0.6304 0.2095 0.1880
C1 C 0.6199(2) 0.1038(3) 0.51746(14)
H2 H 0.5578 0.1357 0.5204
C2 C 0.6975(2) 0.0881(3) 0.58066(15)
H3 H 0.6886 0.1083 0.6272
C3 C 0.7875(2) 0.0433(3) 0.57644(15)
H4 H 0.8410 0.0341 0.6200
C4 C 0.8008(2) 0.0118(3) 0.50948(15)
H5 H 0.8631 -0.0199 0.5069
C5 C 0.72327(19) 0.0263(3) 0.44593(14)
H6 H 0.7320 0.0042 0.3996
C6 C 0.63279(17) 0.0731(2) 0.45000(12)
C7 C 0.24334(19) -0.0249(2) 0.15137(15)
H7 H 0.2588 -0.1120 0.1489
C8 C 0.1551(2) 0.0224(3) 0.10639(16)
H8 H 0.1106 -0.0309 0.0719
C9 C 0.13285(17) 0.1474(2) 0.11235(14)
C10 C 0.19531(17) 0.2271(2) 0.16173(14)
H9 H 0.1774 0.3128 0.1661
C11 C 0.28477(17) 0.1798(2) 0.20485(13)
H10 H 0.3298 0.2343 0.2381
C12 C 0.30963(16) 0.0542(2) 0.20018(12)
C13 C 0.44520(17) -0.0415(2) 0.07547(13)
H11 H 0.4700 -0.1224 0.0936
C14 C 0.37641(18) -0.0318(2) 0.00721(13)
H12 H 0.3538 -0.1055 -0.0212
C15 C 0.34048(17) 0.0862(2) -0.01972(13)
C16 C 0.37260(17) 0.1934(2) 0.02199(13)
H13 H 0.3479 0.2743 0.0038
C17 C 0.44117(16) 0.1818(2) 0.09057(12)
H14 H 0.4629 0.2555 0.1193
C18 C 0.47860(16) 0.0652(2) 0.11801(12)
C19 C 0.73008(16) 0.0884(2) 0.23791(12)
C20 C 0.55044(15) 0.0522(2) 0.19393(12)
H15 H 0.5729 -0.0379 0.2006
C21 C 0.49947(16) 0.0834(2) 0.25335(12)
H16 H 0.4810 0.1749 0.2510
C22 C 0.40707(16) 0.0014(2) 0.24328(12)
C23 C 0.54882(17) 0.0938(2) 0.38281(13)
C24 C 0.2397(2) 0.2059(3) -0.11918(15)
H17 H 0.1936 0.1940 -0.1683
H18 H 0.2961 0.2578 -0.1227
H19 H 0.2053 0.2485 -0.0876
C25 C 0.90152(17) 0.1645(2) 0.27393(15)
C26 C 0.9271(3) 0.1230(5) 0.3530(2)
H20 H 0.8994 0.0386 0.3557
H21 H 0.8991 0.1830 0.3810
H22 H 0.9996 0.1202 0.3736
C27 C 0.9344(3) 0.0733(4) 0.2260(3)
H23 H 0.9157 0.1051 0.1754
H24 H 0.9024 -0.0087 0.2274
H25 H 1.0068 0.0633 0.2436
C28 C 0.9434(2) 0.2934(3) 0.2683(2)
H26 H 0.9268 0.3187 0.2166
H27 H 1.0158 0.2913 0.2892
H28 H 0.9149 0.3543 0.2956
loop_
_geom_bond_atom_site_label_1
_geom_bond_atom_site_label_2
_geom_bond_site_symmetry_1
_geom_bond_site_symmetry_2
Br1 C9 1_555 1_555
O1 C19 1_555 1_555
O2 C19 1_555 1_555
O3 C15 1_555 1_555
O4 C23 1_555 1_555
O5 C21 1_555 1_555
O6 C22 1_555 1_555
N1 H1 1_555 1_555
C1 H2 1_555 1_555
C2 C1 1_555 1_555
H3 C2 1_555 1_555
C3 C2 1_555 1_555
H4 C3 1_555 1_555
C4 C3 1_555 1_555
H5 C4 1_555 1_555
C5 C4 1_555 1_555
H6 C5 1_555 1_555
C6 C1 1_555 1_555
C7 H7 1_555 1_555
C8 C7 1_555 1_555
H8 C8 1_555 1_555
C9 C8 1_555 1_555
C10 C9 1_555 1_555
H9 C10 1_555 1_555
C11 C10 1_555 1_555
H10 C11 1_555 1_555
C12 C7 1_555 1_555
C13 H11 1_555 1_555
C14 C13 1_555 1_555
H12 C14 1_555 1_555
C15 C14 1_555 1_555
C16 C15 1_555 1_555
H13 C16 1_555 1_555
C17 C16 1_555 1_555
H14 C17 1_555 1_555
C18 C13 1_555 1_555
C19 N1 1_555 1_555
C20 N1 1_555 1_555
H15 C20 1_555 1_555
C21 C20 1_555 1_555
H16 C21 1_555 1_555
C22 C12 1_555 1_555
C23 O5 1_555 1_555
C24 O3 1_555 1_555
H17 C24 1_555 1_555
H18 C24 1_555 1_555
H19 C24 1_555 1_555
C25 O1 1_555 1_555
C26 C25 1_555 1_555
H20 C26 1_555 1_555
H21 C26 1_555 1_555
H22 C26 1_555 1_555
C27 C25 1_555 1_555
H23 C27 1_555 1_555
H24 C27 1_555 1_555
H25 C27 1_555 1_555
C28 C25 1_555 1_555
H26 C28 1_555 1_555
H27 C28 1_555 1_555
H28 C28 1_555 1_555
C5 C6 1_555 1_555
C6 C23 1_555 1_555
C11 C12 1_555 1_555
C17 C18 1_555 1_555
C18 C20 1_555 1_555
C21 C22 1_555 1_555

#END
