
#######################################################################
#
#                 Cambridge Crystallographic Data Centre
#                                CCDC 
#
#######################################################################
#
# If this CIF has been generated from an entry in the Cambridge 
# Structural Database, then it will include bibliographic, chemical, 
# crystal, experimental, refinement or atomic coordinate data resulting 
# from the CCDC's data processing and validation procedures.
#
#######################################################################

data_QOJHOO
_chemical_formula_moiety         'C16 H16 O2 S1'
_chemical_name_systematic        '2-phenylethyl 2-phenylvinyl sulfone'
_symmetry_cell_setting           orthorhombic
_symmetry_space_group_name_H-M   'P n a 21'
_symmetry_Int_Tables_number      33
_space_group_name_Hall           'P 2c -2n'
loop_
_symmetry_equiv_pos_site_id
_symmetry_equiv_pos_as_xyz
1 x,y,z
2 -x,-y,1/2+z
3 1/2-x,1/2+y,1/2+z
4 1/2+x,1/2-y,z
_cell_length_a                   26.9602(15)
_cell_length_b                   9.6456(5)
_cell_length_c                   5.2760(5)
_cell_angle_alpha                90
_cell_angle_beta                 90
_cell_angle_gamma                90
_cell_volume                     1372.01
_exptl_crystal_colour            'pale yellow'
_exptl_crystal_description       Lamellar
_cell_formula_units_Z            4
loop_
_atom_site_label
_atom_site_type_symbol
_atom_site_fract_x
_atom_site_fract_y
_atom_site_fract_z
S1 S 0.73917(3) 0.56246(8) 0.2815(2)
O1 O 0.73211(11) 0.5580(3) 0.0118(7)
O2 O 0.75186(12) 0.4352(3) 0.4103(7)
C1 C 0.94220(16) 0.9287(4) 0.6819(12)
H1 H 0.9706 0.9835 0.7172
C2 C 0.91300(17) 0.9586(4) 0.4750(12)
H2 H 0.9213 1.0342 0.3676
C3 C 0.87161(15) 0.8786(4) 0.4234(10)
H3 H 0.8514 0.9002 0.2813
C4 C 0.85935(15) 0.7669(4) 0.5776(10)
C5 C 0.81681(16) 0.6750(4) 0.5246(10)
H4 H 0.8118 0.5991 0.6366
C6 C 0.78532(15) 0.6888(4) 0.3365(10)
H5 H 0.7874 0.7676 0.2288
C7 C 0.68445(14) 0.6291(4) 0.4263(10)
H6 H 0.6569 0.5628 0.3988
H7 H 0.6900 0.6367 0.6113
C8 C 0.66929(15) 0.7705(4) 0.3235(12)
H8 H 0.6960 0.8387 0.3565
H9 H 0.6642 0.7646 0.1380
C9 C 0.62188(15) 0.8175(4) 0.4499(10)
C10 C 0.57613(15) 0.7794(4) 0.3535(10)
H10 H 0.5745 0.7255 0.2030
C11 C 0.53271(15) 0.8186(4) 0.4730(11)
H11 H 0.5016 0.7905 0.4059
C12 C 0.53449(15) 0.8989(4) 0.6907(11)
H12 H 0.5047 0.9256 0.7738
C13 C 0.93010(16) 0.8192(4) 0.8377(11)
H13 H 0.9500 0.7993 0.9819
C14 C 0.88911(15) 0.7383(4) 0.7842(12)
H14 H 0.8813 0.6620 0.8909
C15 C 0.57975(15) 0.9395(4) 0.7852(13)
H15 H 0.5811 0.9971 0.9311
C16 C 0.62330(15) 0.8973(4) 0.6695(11)
H16 H 0.6544 0.9229 0.7405
loop_
_geom_bond_atom_site_label_1
_geom_bond_atom_site_label_2
_geom_bond_site_symmetry_1
_geom_bond_site_symmetry_2
S1 O1 1_555 1_555
O2 S1 1_555 1_555
C1 H1 1_555 1_555
C2 C1 1_555 1_555
H2 C2 1_555 1_555
C3 C2 1_555 1_555
H3 C3 1_555 1_555
C4 C3 1_555 1_555
C5 C4 1_555 1_555
H4 C5 1_555 1_555
C6 S1 1_555 1_555
H5 C6 1_555 1_555
C7 S1 1_555 1_555
H6 C7 1_555 1_555
H7 C7 1_555 1_555
C8 C7 1_555 1_555
H8 C8 1_555 1_555
H9 C8 1_555 1_555
C9 C8 1_555 1_555
C10 C9 1_555 1_555
H10 C10 1_555 1_555
C11 C10 1_555 1_555
H11 C11 1_555 1_555
C12 C11 1_555 1_555
H12 C12 1_555 1_555
C13 C1 1_555 1_555
H13 C13 1_555 1_555
C14 C4 1_555 1_555
H14 C14 1_555 1_555
C15 C12 1_555 1_555
H15 C15 1_555 1_555
C16 C9 1_555 1_555
H16 C16 1_555 1_555
C5 C6 1_555 1_555
C13 C14 1_555 1_555
C15 C16 1_555 1_555

#END
