
#######################################################################
#
#                 Cambridge Crystallographic Data Centre
#                                CCDC 
#
#######################################################################
#
# If this CIF has been generated from an entry in the Cambridge 
# Structural Database, then it will include bibliographic, chemical, 
# crystal, experimental, refinement or atomic coordinate data resulting 
# from the CCDC's data processing and validation procedures.
#
#######################################################################

data_QOJHUU
_chemical_formula_moiety         'C17 H16 O2 S1'
_chemical_name_systematic        
'3,4-dihydronaphthalen-2-yl 4-methylphenyl sulfone'
_symmetry_cell_setting           monoclinic
_symmetry_space_group_name_H-M   'P 21/c'
_symmetry_Int_Tables_number      14
_space_group_name_Hall           '-P 2ybc'
loop_
_symmetry_equiv_pos_site_id
_symmetry_equiv_pos_as_xyz
1 x,y,z
2 -x,1/2+y,1/2-z
3 -x,-y,-z
4 x,1/2-y,1/2+z
_cell_length_a                   15.1705(10)
_cell_length_b                   7.6112(4)
_cell_length_c                   24.7411(15)
_cell_angle_alpha                90
_cell_angle_beta                 94.9290(10)
_cell_angle_gamma                90
_cell_volume                     2846.18
_exptl_crystal_colour            colorless
_cell_formula_units_Z            8
loop_
_atom_site_label
_atom_site_type_symbol
_atom_site_fract_x
_atom_site_fract_y
_atom_site_fract_z
S1 S 0.21417(4) 0.62998(8) 0.33599(2)
O1 O 0.22203(10) 0.5508(2) 0.38906(6)
O2 O 0.16782(11) 0.7940(2) 0.32831(7)
C1 C 0.06025(19) 0.0967(4) 0.17289(13)
H1 H 0.0103 0.1466 0.1502
H2 H 0.0407 -0.0086 0.1913
H3 H 0.1076 0.0651 0.1501
C2 C 0.09442(15) 0.2306(4) 0.21464(11)
C3 C 0.08916(17) 0.4081(4) 0.20342(10)
H4 H 0.0612 0.4462 0.1696
C4 C 0.12373(15) 0.5313(3) 0.24030(10)
H5 H 0.1194 0.6530 0.2320
C5 C 0.16477(13) 0.4763(3) 0.28954(9)
C6 C 0.32087(13) 0.6608(3) 0.31463(8)
C7 C 0.39091(13) 0.5938(3) 0.34392(8)
H6 H 0.3821 0.5215 0.3743
C8 C 0.48078(13) 0.6296(3) 0.33011(8)
C9 C 0.49290(14) 0.7071(3) 0.27960(8)
C10 C 0.57828(15) 0.7476(3) 0.26768(10)
H7 H 0.5875 0.7993 0.2337
C11 C 0.65038(15) 0.7140(3) 0.30446(11)
H8 H 0.7082 0.7456 0.2959
C12 C 0.13405(16) 0.1780(3) 0.26452(11)
H9 H 0.1368 0.0564 0.2732
C13 C 0.16961(15) 0.2992(3) 0.30177(10)
H10 H 0.1973 0.2611 0.3357
C14 C 0.32982(15) 0.7739(3) 0.26557(9)
H11 H 0.3302 0.8991 0.2764
H12 H 0.2783 0.7545 0.2389
C15 C 0.41353(15) 0.7324(3) 0.23967(9)
H13 H 0.4042 0.6242 0.2178
H14 H 0.4259 0.8293 0.2147
C16 C 0.55415(14) 0.5915(3) 0.36604(9)
H15 H 0.5461 0.5350 0.3995
C17 C 0.63847(15) 0.6347(3) 0.35359(10)
H16 H 0.6880 0.6101 0.3786
S2 S 0.22502(4) 0.71569(9) 0.07914(2)
O3 O 0.22375(11) 0.6483(3) 0.13319(7)
O4 O 0.19143(11) 0.8898(2) 0.06723(8)
C18 C 0.03726(17) 0.1967(4) -0.07579(13)
H17 H 0.0805 0.1106 -0.0866
H18 H 0.0107 0.2579 -0.1080
H19 H -0.0091 0.1361 -0.0577
C19 C 0.08295(14) 0.3279(3) -0.03733(11)
C20 C 0.11879(16) 0.2749(4) 0.01328(12)
H20 H 0.1142 0.1552 0.0236
C21 C 0.16131(15) 0.3933(3) 0.04920(10)
H21 H 0.1855 0.3552 0.0839
C22 C 0.16831(13) 0.5668(3) 0.03414(9)
C23 C 0.33451(13) 0.7111(3) 0.06068(8)
C24 C 0.35380(14) 0.8123(3) 0.01211(9)
H22 H 0.3535 0.9391 0.0210
H23 H 0.3061 0.7910 -0.0170
C25 C 0.44007(14) 0.7670(3) -0.00845(9)
H24 H 0.4613 0.8709 -0.0276
H25 H 0.4299 0.6720 -0.0356
C26 C 0.51203(13) 0.7094(3) 0.03266(8)
C27 C 0.60074(15) 0.7156(3) 0.02279(10)
H26 H 0.6167 0.7619 -0.0107
C28 C 0.66615(15) 0.6559(3) 0.06062(11)
H27 H 0.7265 0.6638 0.0534
C29 C 0.39715(13) 0.6304(3) 0.09272(8)
H28 H 0.3808 0.5671 0.1234
C30 C 0.48939(13) 0.6367(3) 0.08193(8)
C31 C 0.64358(15) 0.5844(3) 0.10904(10)
H29 H 0.6884 0.5418 0.1349
C32 C 0.55610(14) 0.5751(3) 0.11960(9)
H30 H 0.5409 0.5263 0.1529
C33 C 0.13342(14) 0.6228(3) -0.01635(10)
H31 H 0.1381 0.7424 -0.0267
C34 C 0.09144(15) 0.5017(4) -0.05170(10)
H32 H 0.0680 0.5394 -0.0866
loop_
_geom_bond_atom_site_label_1
_geom_bond_atom_site_label_2
_geom_bond_site_symmetry_1
_geom_bond_site_symmetry_2
S1 O1 1_555 1_555
O2 S1 1_555 1_555
C1 H1 1_555 1_555
H2 C1 1_555 1_555
H3 C1 1_555 1_555
C2 C1 1_555 1_555
C3 C2 1_555 1_555
H4 C3 1_555 1_555
C4 C3 1_555 1_555
H5 C4 1_555 1_555
C5 S1 1_555 1_555
C6 S1 1_555 1_555
C7 C6 1_555 1_555
H6 C7 1_555 1_555
C8 C7 1_555 1_555
C9 C8 1_555 1_555
C10 C9 1_555 1_555
H7 C10 1_555 1_555
C11 C10 1_555 1_555
H8 C11 1_555 1_555
C12 C2 1_555 1_555
H9 C12 1_555 1_555
C13 C5 1_555 1_555
H10 C13 1_555 1_555
C14 C6 1_555 1_555
H11 C14 1_555 1_555
H12 C14 1_555 1_555
C15 C9 1_555 1_555
H13 C15 1_555 1_555
H14 C15 1_555 1_555
C16 C8 1_555 1_555
H15 C16 1_555 1_555
C17 C11 1_555 1_555
H16 C17 1_555 1_555
S2 O3 1_555 1_555
O4 S2 1_555 1_555
C18 H17 1_555 1_555
H18 C18 1_555 1_555
H19 C18 1_555 1_555
C19 C18 1_555 1_555
C20 C19 1_555 1_555
H20 C20 1_555 1_555
C21 C20 1_555 1_555
H21 C21 1_555 1_555
C22 S2 1_555 1_555
C23 S2 1_555 1_555
C24 C23 1_555 1_555
H22 C24 1_555 1_555
H23 C24 1_555 1_555
C25 C24 1_555 1_555
H24 C25 1_555 1_555
H25 C25 1_555 1_555
C26 C25 1_555 1_555
C27 C26 1_555 1_555
H26 C27 1_555 1_555
C28 C27 1_555 1_555
H27 C28 1_555 1_555
C29 C23 1_555 1_555
H28 C29 1_555 1_555
C30 C26 1_555 1_555
C31 C28 1_555 1_555
H29 C31 1_555 1_555
C32 C30 1_555 1_555
H30 C32 1_555 1_555
C33 C22 1_555 1_555
H31 C33 1_555 1_555
C34 C19 1_555 1_555
H32 C34 1_555 1_555
C4 C5 1_555 1_555
C12 C13 1_555 1_555
C14 C15 1_555 1_555
C16 C17 1_555 1_555
C21 C22 1_555 1_555
C29 C30 1_555 1_555
C31 C32 1_555 1_555
C33 C34 1_555 1_555

#END
