
#######################################################################
#
#                 Cambridge Crystallographic Data Centre
#                                CCDC 
#
#######################################################################
#
# If this CIF has been generated from an entry in the Cambridge 
# Structural Database, then it will include bibliographic, chemical, 
# crystal, experimental, refinement or atomic coordinate data resulting 
# from the CCDC's data processing and validation procedures.
#
#######################################################################

data_QOJKAC
_chemical_formula_moiety         'C24 H20 Br1 N5 O1 S1,C1 H1 Cl3'
_chemical_name_systematic        
'1-(2,5-Diphenyl-2,3-dihydro-3-oxo-1H-pyrazol-4-yl(4-bromophenyl)methylene)-4-methylthiosemicarbazone chloroform solvate'
_symmetry_cell_setting           orthorhombic
_symmetry_space_group_name_H-M   'F d d 2'
_symmetry_Int_Tables_number      43
_space_group_name_Hall           'F 2 -2d'
loop_
_symmetry_equiv_pos_site_id
_symmetry_equiv_pos_as_xyz
1 x,y,z
2 -x,-y,z
3 1/4+x,1/4-y,1/4+z
4 1/4-x,1/4+y,1/4+z
5 x,1/2+y,1/2+z
6 -x,1/2-y,1/2+z
7 1/4+x,3/4-y,3/4+z
8 1/4-x,3/4+y,3/4+z
9 1/2+x,y,1/2+z
10 1/2-x,-y,1/2+z
11 3/4+x,1/4-y,3/4+z
12 3/4-x,1/4+y,3/4+z
13 1/2+x,1/2+y,z
14 1/2-x,1/2-y,z
15 3/4+x,3/4-y,1/4+z
16 3/4-x,3/4+y,1/4+z
_cell_length_a                   21.401(4)
_cell_length_b                   48.463(10)
_cell_length_c                   10.170(2)
_cell_angle_alpha                90
_cell_angle_beta                 90
_cell_angle_gamma                90
_cell_volume                     10547.9
_exptl_crystal_colour            colorless
_chemical_melting_point          '220.7-221.3 deg.C'
_cell_formula_units_Z            16
_chemical_properties_physical    light-sensitive
_exptl_crystal_preparation       photochromic
loop_
_atom_site_label
_atom_site_type_symbol
_atom_site_fract_x
_atom_site_fract_y
_atom_site_fract_z
Br1 Br 0.24727(5) 0.13334(2) -0.48028(10)
S1 S 0.32481(11) 0.00195(4) 0.34725(17)
O1 O 0.2892(2) 0.13751(10) 0.1814(5)
N1 N 0.3860(3) 0.13151(11) 0.2823(6)
N2 N 0.4328(3) 0.11185(11) 0.2773(6)
H1 H 0.478(4) 0.1100(17) 0.323(10)
N3 N 0.3051(3) 0.05597(12) 0.0647(5)
N4 N 0.3201(3) 0.04384(12) 0.1808(6)
H2 H 0.3364 0.0536 0.2427
N5 N 0.2881(3) 0.00225(11) 0.0990(7)
H3 H 0.2796 0.0112 0.0282
C1 C 0.3933(3) 0.15530(13) 0.3566(6)
C2 C 0.3729(4) 0.18101(15) 0.3074(8)
H4 H 0.3536 0.1821 0.2256
C3 C 0.3819(4) 0.20471(17) 0.3824(10)
H5 H 0.3693 0.2218 0.3501
C4 C 0.4090(5) 0.20282(18) 0.5032(9)
H6 H 0.4135 0.2186 0.5546
C5 C 0.4300(4) 0.17767(18) 0.5502(8)
H7 H 0.4501 0.1767 0.6312
C6 C 0.4214(4) 0.15467(15) 0.4788(7)
H8 H 0.4348 0.1378 0.5125
C7 C 0.3374(3) 0.12330(14) 0.1982(6)
C8 C 0.3577(3) 0.09804(13) 0.1415(6)
C9 C 0.4173(3) 0.09218(12) 0.1917(7)
C10 C 0.4599(3) 0.06952(14) 0.1624(8)
C11 C 0.4646(4) 0.06046(17) 0.0336(9)
H9 H 0.4386 0.0678 -0.0309
C12 C 0.5088(5) 0.0402(2) 0.0009(13)
H10 H 0.5127 0.0342 -0.0856
C13 C 0.5465(6) 0.0291(2) 0.0976(17)
H11 H 0.5760 0.0158 0.0761
C14 C 0.5404(6) 0.0378(2) 0.2261(16)
H12 H 0.5644 0.0297 0.2918
C15 C 0.4982(5) 0.05875(18) 0.2579(13)
H13 H 0.4960 0.0654 0.3435
C16 C 0.3206(3) 0.08155(13) 0.0480(6)
C17 C 0.3004(3) 0.09458(13) -0.0771(6)
C18 C 0.3304(4) 0.11798(15) -0.1207(7)
H14 H 0.3627 0.1256 -0.0714
C19 C 0.3125(4) 0.13027(16) -0.2377(8)
H15 H 0.3319 0.1464 -0.2653
C20 C 0.2656(4) 0.11844(15) -0.3142(7)
C21 C 0.2353(4) 0.09555(17) -0.2706(7)
H16 H 0.2029 0.0882 -0.3203
C22 C 0.2522(3) 0.08271(16) -0.1508(7)
H17 H 0.2319 0.0669 -0.1220
C23 C 0.3095(3) 0.01642(13) 0.2002(7)
C24 C 0.2779(5) -0.02697(17) 0.0984(10)
H18 H 0.2616 -0.0325 0.0145
H19 H 0.2485 -0.0317 0.1661
H20 H 0.3167 -0.0363 0.1143
Cl1 Cl 0.2323(4) 0.2088(3) 0.3634(8)
Cl3 Cl 0.1222(2) 0.21725(11) 0.5117(5)
Cl4 Cl 0.1255(2) 0.17817(8) 0.3015(6)
C25 C 0.1524(7) 0.2089(3) 0.3497(13)
H21 H 0.1395 0.2231 0.2867
Cl2? Cl 0.2225(10) 0.2291(7) 0.321(4)
loop_
_geom_bond_atom_site_label_1
_geom_bond_atom_site_label_2
_geom_bond_site_symmetry_1
_geom_bond_site_symmetry_2
Br1 C20 1_555 1_555
Cl1 C25 1_555 1_555
Cl3 C25 1_555 1_555
Cl4 C25 1_555 1_555
S1 C23 1_555 1_555
O1 C7 1_555 1_555
N1 N2 1_555 1_555
N2 H1 1_555 1_555
N3 N4 1_555 1_555
N4 H2 1_555 1_555
N5 H3 1_555 1_555
C1 N1 1_555 1_555
C2 C1 1_555 1_555
H4 C2 1_555 1_555
C3 C2 1_555 1_555
H5 C3 1_555 1_555
C4 C3 1_555 1_555
H6 C4 1_555 1_555
C5 C4 1_555 1_555
H7 C5 1_555 1_555
C6 C1 1_555 1_555
H8 C6 1_555 1_555
C7 N1 1_555 1_555
C8 C7 1_555 1_555
C9 N2 1_555 1_555
C10 C9 1_555 1_555
C11 C10 1_555 1_555
H9 C11 1_555 1_555
C12 C11 1_555 1_555
H10 C12 1_555 1_555
C13 C12 1_555 1_555
H11 C13 1_555 1_555
C14 C13 1_555 1_555
H12 C14 1_555 1_555
C15 C10 1_555 1_555
H13 C15 1_555 1_555
C16 N3 1_555 1_555
C17 C16 1_555 1_555
C18 C17 1_555 1_555
H14 C18 1_555 1_555
C19 C18 1_555 1_555
H15 C19 1_555 1_555
C20 C19 1_555 1_555
C21 C20 1_555 1_555
H16 C21 1_555 1_555
C22 C17 1_555 1_555
H17 C22 1_555 1_555
C23 N4 1_555 1_555
C24 N5 1_555 1_555
H18 C24 1_555 1_555
H19 C24 1_555 1_555
H20 C24 1_555 1_555
C25 H21 1_555 1_555
N5 C23 1_555 1_555
C5 C6 1_555 1_555
C8 C9 1_555 1_555
C8 C16 1_555 1_555
C14 C15 1_555 1_555
C21 C22 1_555 1_555

#END
