
#######################################################################
#
#                 Cambridge Crystallographic Data Centre
#                                CCDC 
#
#######################################################################
#
# If this CIF has been generated from an entry in the Cambridge 
# Structural Database, then it will include bibliographic, chemical, 
# crystal, experimental, refinement or atomic coordinate data resulting 
# from the CCDC's data processing and validation procedures.
#
#######################################################################

data_QOJLAD
_chemical_formula_moiety         'C17 H18 N2 O6 S1'
_chemical_name_systematic        5'-O-Tosyl-2,3'-anhydrothymidine
_symmetry_cell_setting           triclinic
_symmetry_space_group_name_H-M   'P 1'
_symmetry_Int_Tables_number      1
_space_group_name_Hall           'P 1'
loop_
_symmetry_equiv_pos_site_id
_symmetry_equiv_pos_as_xyz
1 x,y,z
_cell_length_a                   5.397(2)
_cell_length_b                   6.1886(18)
_cell_length_c                   13.507(5)
_cell_angle_alpha                87.74(2)
_cell_angle_beta                 89.84(4)
_cell_angle_gamma                73.79(2)
_cell_volume                     432.845
_exptl_crystal_colour            colorless
_exptl_crystal_description       plate
_cell_formula_units_Z            1
_exptl_crystal_recrystallization_method acetonitrile
loop_
_atom_site_label
_atom_site_type_symbol
_atom_site_fract_x
_atom_site_fract_y
_atom_site_fract_z
S1 S 0.9450(2) 0.40330(17) 0.61337(10)
O1 O 0.7247(6) 0.6012(5) 0.5613(2)
O2 O 1.0613(8) 0.2482(6) 0.5383(3)
O3 O 1.0931(7) 0.5169(7) 0.6633(3)
O4 O 0.2741(7) 0.5448(5) 0.3178(3)
O5 O 0.5122(6) 0.8946(5) 0.3968(2)
O6 O 0.8610(10) 0.2247(6) 0.0910(3)
N1 N 0.4960(8) 0.7685(6) 0.2350(3)
N2 N 0.5609(9) 0.3874(6) 0.2025(3)
C1 C 0.7782(10) 0.2732(9) 0.6961(3)
C2 C 0.6938(11) 0.0936(9) 0.6684(4)
H1 H 0.7338 0.0353 0.6061
C3 C 0.5520(13) 0.0012(9) 0.7320(5)
H2 H 0.4926 -0.1176 0.7119
C4 C 0.4937(12) 0.0822(11) 0.8275(4)
C5 C 0.5825(13) 0.2586(12) 0.8536(4)
H3 H 0.5461 0.3146 0.9165
C6 C 0.7233(12) 0.3560(10) 0.7903(4)
H4 H 0.7812 0.4757 0.8102
C7 C 0.3353(15) -0.0236(13) 0.8950(6)
H5 H 0.2397 0.0862 0.9393
H6 H 0.4472 -0.1474 0.9326
H7 H 0.2177 -0.0775 0.8562
C8 C 0.5599(10) 0.5409(8) 0.4901(4)
H8 H 0.4665 0.4436 0.5212
H9 H 0.6611 0.4625 0.4362
C9 C 0.3736(9) 0.7602(8) 0.4518(4)
H10 H 0.2903 0.8446 0.5085
C10 C 0.1688(10) 0.7338(8) 0.3828(4)
H11 H 0.0162 0.7177 0.4186
C11 C 0.1125(10) 0.9533(9) 0.3224(4)
H12 H 0.0185 0.9492 0.2618
H13 H 0.0207 1.0810 0.3601
C12 C 0.3856(10) 0.9516(8) 0.3034(4)
H14 H 0.3979 1.0977 0.2766
C13 C 0.4509(10) 0.5684(8) 0.2495(3)
C14 C 0.7450(12) 0.3994(8) 0.1324(4)
C15 C 0.7952(11) 0.6132(8) 0.1102(3)
C16 C 0.6689(10) 0.7899(8) 0.1624(3)
H15 H 0.6985 0.9293 0.1495
C17 C 0.9852(13) 0.6312(11) 0.0323(4)
H16 H 0.9853 0.7857 0.0227
H17 H 0.9384 0.5777 -0.0287
H18 H 1.1542 0.5419 0.0526
loop_
_geom_bond_atom_site_label_1
_geom_bond_atom_site_label_2
_geom_bond_site_symmetry_1
_geom_bond_site_symmetry_2
S1 O1 1_555 1_555
O1 C8 1_555 1_555
O2 S1 1_555 1_555
O3 S1 1_555 1_555
O4 C10 1_555 1_555
O5 C9 1_555 1_555
O6 C14 1_555 1_555
N1 C12 1_555 1_555
N2 C13 1_555 1_555
C1 S1 1_555 1_555
C2 C1 1_555 1_555
H1 C2 1_555 1_555
C3 C2 1_555 1_555
H2 C3 1_555 1_555
C4 C3 1_555 1_555
C5 C4 1_555 1_555
H3 C5 1_555 1_555
C6 C1 1_555 1_555
H4 C6 1_555 1_555
C7 C4 1_555 1_555
H5 C7 1_555 1_555
H6 C7 1_555 1_555
H7 C7 1_555 1_555
C8 H8 1_555 1_555
H9 C8 1_555 1_555
C9 C8 1_555 1_555
H10 C9 1_555 1_555
C10 C9 1_555 1_555
H11 C10 1_555 1_555
C11 C10 1_555 1_555
H12 C11 1_555 1_555
H13 C11 1_555 1_555
C12 O5 1_555 1_555
H14 C12 1_555 1_555
C13 O4 1_555 1_555
C14 N2 1_555 1_555
C15 C14 1_555 1_555
C16 N1 1_555 1_555
H15 C16 1_555 1_555
C17 C15 1_555 1_555
H16 C17 1_555 1_555
H17 C17 1_555 1_555
H18 C17 1_555 1_555
N1 C13 1_555 1_555
C5 C6 1_555 1_555
C11 C12 1_555 1_555
C15 C16 1_555 1_555

#END
