
#######################################################################
#
#                 Cambridge Crystallographic Data Centre
#                                CCDC 
#
#######################################################################
#
# If this CIF has been generated from an entry in the Cambridge 
# Structural Database, then it will include bibliographic, chemical, 
# crystal, experimental, refinement or atomic coordinate data resulting 
# from the CCDC's data processing and validation procedures.
#
#######################################################################

data_QOJLEH
_chemical_formula_moiety         'C33 H27 Cl2 N5 O6'
_chemical_name_systematic        
2,6-Dimethyl-3,5-bis(1-(2-chlorobenzoyl)-3-ethoxycarbonyl-1H-pyrazol-5-yl)pyridine
_symmetry_cell_setting           triclinic
_symmetry_space_group_name_H-M   'P -1'
_symmetry_Int_Tables_number      2
_space_group_name_Hall           '-P 1'
loop_
_symmetry_equiv_pos_site_id
_symmetry_equiv_pos_as_xyz
1 x,y,z
2 -x,-y,-z
_cell_length_a                   10.3423(11)
_cell_length_b                   12.2108(12)
_cell_length_c                   15.0128(15)
_cell_angle_alpha                82.519(1)
_cell_angle_beta                 85.796(1)
_cell_angle_gamma                85.315(1)
_cell_volume                     1869.74
_exptl_crystal_description       columnar
_chemical_melting_point          '197-198 deg.C'
_cell_formula_units_Z            2
_exptl_crystal_recrystallization_method 'ethyl acetate'
loop_
_atom_site_label
_atom_site_type_symbol
_atom_site_fract_x
_atom_site_fract_y
_atom_site_fract_z
Cl1 Cl 0.74885(10) 0.41042(7) 0.10545(7)
Cl2 Cl 0.80448(9) 0.69369(7) 0.09885(6)
C1 C 0.6802(3) 0.4319(2) 0.48572(17)
C2 C 0.6840(3) 0.4435(2) 0.39237(17)
C3 C 0.7620(3) 0.5212(2) 0.34514(18)
H1 H 0.7675 0.5296 0.2825
C4 C 0.8317(3) 0.5866(2) 0.39001(17)
C5 C 0.8187(3) 0.5735(2) 0.48421(17)
C6 C 0.6019(3) 0.3476(3) 0.5428(2)
H2 H 0.6287 0.3385 0.6033
H3 H 0.6154 0.2781 0.5189
H4 H 0.5113 0.3723 0.5426
C7 C 0.8862(4) 0.6423(3) 0.5386(2)
H5 H 0.8476 0.6359 0.5990
H6 H 0.8780 0.7184 0.5123
H7 H 0.9766 0.6171 0.5395
C8 C 0.6089(3) 0.3771(2) 0.34175(18)
C9 C 0.4823(3) 0.3888(3) 0.3217(2)
H8 H 0.4168 0.4364 0.3441
C10 C 0.4714(3) 0.3125(3) 0.2592(2)
C11 C 0.3563(3) 0.2942(3) 0.2107(3)
C12 C 0.1383(4) 0.3601(4) 0.1861(4)
H9 H 0.1485 0.3017 0.1475
H10 H 0.0678 0.3434 0.2308
C13 C 0.1073(7) 0.4601(6) 0.1351(6)
H11 H 0.1007 0.5184 0.1727
H12 H 0.0257 0.4573 0.1091
H13 H 0.1740 0.4741 0.0879
C14 C 0.8010(3) 0.2584(3) 0.2856(2)
C15 C 0.8493(3) 0.2193(2) 0.1990(2)
C16 C 0.9250(3) 0.1198(3) 0.2021(3)
H14 H 0.9405 0.0789 0.2575
C17 C 0.9776(3) 0.0805(3) 0.1239(3)
H15 H 1.0260 0.0127 0.1268
C18 C 0.9586(4) 0.1410(3) 0.0434(3)
H16 H 0.9951 0.1146 -0.0089
C19 C 0.8859(3) 0.2412(3) 0.0374(3)
H17 H 0.8736 0.2822 -0.0184
C20 C 0.8316(3) 0.2799(3) 0.1151(2)
C21 C 0.9184(3) 0.6651(2) 0.33742(18)
C22 C 1.0497(3) 0.6570(3) 0.3202(2)
H18 H 1.1092 0.6032 0.3461
C23 C 1.0764(3) 0.7472(3) 0.25479(19)
C24 C 1.2021(3) 0.7764(3) 0.2087(2)
C25 C 1.4241(4) 0.7106(5) 0.1829(3)
H19 H 1.4899 0.6782 0.2233
H20 H 1.4369 0.7889 0.1681
C26 C 1.4384(6) 0.6569(7) 0.1002(5)
H21 H 1.4252 0.5795 0.1149
H22 H 1.5241 0.6654 0.0723
H23 H 1.3751 0.6907 0.0594
C27 C 0.7424(3) 0.8004(3) 0.2736(2)
C28 C 0.7148(3) 0.8688(2) 0.18677(19)
C29 C 0.7394(3) 0.8289(2) 0.1039(2)
C30 C 0.7084(3) 0.8933(3) 0.0250(2)
H24 H 0.7243 0.8656 -0.0299
C31 C 0.6531(3) 1.0002(3) 0.0287(2)
H25 H 0.6349 1.0454 -0.0244
C32 C 0.6249(3) 1.0400(3) 0.1099(3)
H26 H 0.5861 1.1111 0.1118
C33 C 0.6542(3) 0.9742(3) 0.1881(2)
H27 H 0.6331 1.0008 0.2430
N1 N 0.7450(2) 0.49662(19) 0.52982(14)
N2 N 0.6674(2) 0.2963(2) 0.29282(17)
N3 N 0.5830(3) 0.2568(2) 0.24202(18)
N4 N 0.8726(2) 0.7577(2) 0.28259(16)
N5 N 0.9701(2) 0.8073(2) 0.23114(16)
O1 O 0.2576(2) 0.3624(2) 0.2310(2)
O2 O 0.3568(3) 0.2303(4) 0.1574(3)
O3 O 0.8676(3) 0.2613(2) 0.34697(18)
O4 O 1.2946(2) 0.6971(3) 0.22801(19)
O5 O 1.2179(3) 0.8580(3) 0.1570(2)
O6 O 0.6629(2) 0.7826(2) 0.33483(16)
loop_
_geom_bond_atom_site_label_1
_geom_bond_atom_site_label_2
_geom_bond_site_symmetry_1
_geom_bond_site_symmetry_2
Cl1 C20 1_555 1_555
Cl2 C29 1_555 1_555
C1 C2 1_555 1_555
C2 C3 1_555 1_555
C3 H1 1_555 1_555
C4 C3 1_555 1_555
C5 C4 1_555 1_555
C6 C1 1_555 1_555
H2 C6 1_555 1_555
H3 C6 1_555 1_555
H4 C6 1_555 1_555
C7 C5 1_555 1_555
H5 C7 1_555 1_555
H6 C7 1_555 1_555
H7 C7 1_555 1_555
C8 C2 1_555 1_555
C9 C8 1_555 1_555
H8 C9 1_555 1_555
C10 C9 1_555 1_555
C11 C10 1_555 1_555
C12 H9 1_555 1_555
H10 C12 1_555 1_555
C13 C12 1_555 1_555
H11 C13 1_555 1_555
H12 C13 1_555 1_555
H13 C13 1_555 1_555
C14 C15 1_555 1_555
C15 C16 1_555 1_555
C16 H14 1_555 1_555
C17 C16 1_555 1_555
H15 C17 1_555 1_555
C18 C17 1_555 1_555
H16 C18 1_555 1_555
C19 C18 1_555 1_555
H17 C19 1_555 1_555
C20 C15 1_555 1_555
C21 C4 1_555 1_555
C22 C21 1_555 1_555
H18 C22 1_555 1_555
C23 C22 1_555 1_555
C24 C23 1_555 1_555
C25 H19 1_555 1_555
H20 C25 1_555 1_555
C26 C25 1_555 1_555
H21 C26 1_555 1_555
H22 C26 1_555 1_555
H23 C26 1_555 1_555
C27 C28 1_555 1_555
C28 C29 1_555 1_555
C29 C30 1_555 1_555
C30 H24 1_555 1_555
C31 C30 1_555 1_555
H25 C31 1_555 1_555
C32 C31 1_555 1_555
H26 C32 1_555 1_555
C33 C28 1_555 1_555
H27 C33 1_555 1_555
N1 C1 1_555 1_555
N2 C8 1_555 1_555
N3 C10 1_555 1_555
N4 C21 1_555 1_555
N5 C23 1_555 1_555
O1 C11 1_555 1_555
O2 C11 1_555 1_555
O3 C14 1_555 1_555
O4 C24 1_555 1_555
O5 C24 1_555 1_555
O6 C27 1_555 1_555
C5 N1 1_555 1_555
C12 O1 1_555 1_555
C14 N2 1_555 1_555
C19 C20 1_555 1_555
C25 O4 1_555 1_555
C27 N4 1_555 1_555
C32 C33 1_555 1_555
N2 N3 1_555 1_555
N4 N5 1_555 1_555

#END
