
#######################################################################
#
#                 Cambridge Crystallographic Data Centre
#                                CCDC 
#
#######################################################################
#
# If this CIF has been generated from an entry in the Cambridge 
# Structural Database, then it will include bibliographic, chemical, 
# crystal, experimental, refinement or atomic coordinate data resulting 
# from the CCDC's data processing and validation procedures.
#
#######################################################################

data_QOJMOS
_chemical_name_common            
(1S,2R,3S,4R,4'R,5'R)-spiro(1-Bromo-4-hydroxy-5-(N-cyclohexyl)butyrolactam-6-oxobicyclo[3.1.0]hexane)-2,3'-(4'-diphenylcarbinol-5'-L-menthyloxybutyrolactone)
_chemical_formula_moiety         'C37 H46 Br1 N1 O6'
_chemical_name_systematic        
(1S,4R,4'R,5S,5'R,6R)-1-Bromo-3-cyclohexyl-4'-(diphenylmethoxy)-4-hydroxy-5'-(((1R,2S,5R)-5-methyl-2-isopropylcyclohexyl)oxy)dihydro-2H-spiro(3-azabicyclo[3.1.0]hexane-6,3'-furan)-2,2'-dione
_symmetry_cell_setting           monoclinic
_symmetry_space_group_name_H-M   'P 21'
_symmetry_Int_Tables_number      4
_space_group_name_Hall           'P 2yb'
loop_
_symmetry_equiv_pos_site_id
_symmetry_equiv_pos_as_xyz
1 x,y,z
2 -x,1/2+y,-z
_cell_length_a                   9.7356(9)
_cell_length_b                   12.2760(12)
_cell_length_c                   14.9577(14)
_cell_angle_alpha                90
_cell_angle_beta                 101.030(1)
_cell_angle_gamma                90
_cell_volume                     1754.63
_exptl_crystal_colour            colorless
_exptl_crystal_description       block
_chemical_melting_point          '176-177 deg.C'
_cell_formula_units_Z            2
_exptl_crystal_recrystallization_method dimethylformamide
loop_
_atom_site_label
_atom_site_type_symbol
_atom_site_fract_x
_atom_site_fract_y
_atom_site_fract_z
Br1 Br 0.54890(5) 0.51634(4) 0.75865(3)
O1 O 0.1915(4) 0.6878(3) 0.6358(2)
O2 O 0.4168(4) 0.7249(3) 0.6345(3)
O3 O 0.0862(3) 0.5538(2) 0.70876(18)
O4 O 0.3953(4) 0.4722(3) 0.9259(2)
O5 O 0.6061(3) 0.7788(3) 0.9822(3)
H1 H 0.6063 0.8378 1.0079
O6 O 0.1701(3) 0.8088(2) 0.8180(2)
N1 N 0.4215(3) 0.6514(3) 0.9697(2)
C1 C 0.3270(5) 0.7028(4) 0.6763(4)
C2 C 0.3400(4) 0.6915(3) 0.7768(3)
C3 C 0.1925(4) 0.6996(3) 0.7943(3)
H2 H 0.1787 0.6497 0.8429
C4 C 0.1067(4) 0.6638(3) 0.7027(3)
H3 H 0.0173 0.7027 0.6891
C5 C 0.4201(4) 0.5670(4) 0.9115(3)
C6 C 0.4503(4) 0.6114(3) 0.8244(3)
C7 C 0.4723(4) 0.7302(3) 0.8375(3)
H4 H 0.5437 0.7657 0.8094
C8 C 0.4697(4) 0.7545(3) 0.9366(3)
H5 H 0.4050 0.8142 0.9422
C9 C 0.3807(5) 0.6350(4) 1.0588(3)
H6 H 0.3130 0.5750 1.0503
C10 C 0.5007(6) 0.5972(6) 1.1296(4)
H7 H 0.5741 0.6517 1.1373
H8 H 0.5381 0.5304 1.1092
C11 C 0.4580(9) 0.5775(8) 1.2193(4)
H9 H 0.3976 0.5141 1.2140
H10 H 0.5409 0.5615 1.2647
C12 C 0.3840(10) 0.6711(7) 1.2507(5)
H11 H 0.4487 0.7314 1.2654
H12 H 0.3513 0.6508 1.3058
C13 C 0.2623(9) 0.7065(7) 1.1801(5)
H13 H 0.2215 0.7715 1.2011
H14 H 0.1916 0.6498 1.1717
C14 C 0.3056(7) 0.7307(6) 1.0880(4)
H15 H 0.2230 0.7464 1.0423
H16 H 0.3661 0.7941 1.0940
C15 C 0.0035(5) 0.4986(4) 0.6312(3)
H17 H 0.0553 0.4979 0.5811
C16 C -0.0104(6) 0.3829(4) 0.6636(4)
H18 H -0.0572 0.3874 0.7159
C17 C -0.1080(6) 0.3175(5) 0.5896(4)
H19 H -0.0648 0.3103 0.5366
H20 H -0.1209 0.2450 0.6124
C18 C -0.2478(7) 0.3714(5) 0.5622(5)
H21 H -0.2932 0.3756 0.6145
H22 H -0.3064 0.3281 0.5158
C19 C -0.2321(5) 0.4870(5) 0.5252(3)
H23 H -0.1861 0.4812 0.4725
C20 C -0.1370(5) 0.5532(4) 0.5992(3)
H24 H -0.1222 0.6249 0.5755
H25 H -0.1832 0.5625 0.6507
C21 C -0.3742(6) 0.5439(7) 0.4942(4)
H26 H -0.4256 0.5425 0.5430
H27 H -0.4265 0.5066 0.4423
H28 H -0.3591 0.6181 0.4782
C22 C 0.1338(7) 0.3284(5) 0.6984(5)
H29 H 0.1886 0.3814 0.7395
C23 C 0.2145(8) 0.3071(8) 0.6268(6)
H30 H 0.3083 0.2868 0.6542
H31 H 0.2165 0.3716 0.5908
H32 H 0.1714 0.2489 0.5885
C24 C 0.1199(9) 0.2298(6) 0.7557(6)
H33 H 0.0636 0.1759 0.7192
H34 H 0.0761 0.2503 0.8055
H35 H 0.2110 0.2002 0.7791
C25 C 0.0303(4) 0.8290(3) 0.8356(3)
H36 H -0.0086 0.7595 0.8513
C26 C -0.0643(4) 0.8735(4) 0.7523(4)
C27 C -0.1990(5) 0.8348(5) 0.7248(5)
H37 H -0.2337 0.7819 0.7591
C28 C -0.2837(6) 0.8754(9) 0.6447(7)
H38 H -0.3728 0.8467 0.6250
C29 C -0.2375(8) 0.9550(8) 0.5965(6)
H39 H -0.2966 0.9837 0.5458
C30 C -0.1039(7) 0.9944(5) 0.6214(4)
H40 H -0.0720 1.0486 0.5870
C31 C -0.0166(6) 0.9531(4) 0.6981(4)
H41 H 0.0749 0.9785 0.7139
C32 C 0.0448(4) 0.9033(4) 0.9174(4)
C33 C 0.1443(5) 0.9863(4) 0.9329(4)
H42 H 0.2018 0.9984 0.8909
C34 C 0.1586(6) 1.0502(4) 1.0093(5)
H43 H 0.2257 1.1050 1.0190
C35 C 0.0734(6) 1.0330(6) 1.0716(4)
H44 H 0.0841 1.0757 1.1238
C36 C -0.0263(7) 0.9541(5) 1.0571(5)
H45 H -0.0846 0.9437 1.0989
C37 C -0.0408(5) 0.8897(4) 0.9807(4)
H46 H -0.1093 0.8359 0.9713
loop_
_geom_bond_atom_site_label_1
_geom_bond_atom_site_label_2
_geom_bond_site_symmetry_1
_geom_bond_site_symmetry_2
Br1 C6 1_555 1_555
O1 C1 1_555 1_555
O2 C1 1_555 1_555
O3 C4 1_555 1_555
O4 C5 1_555 1_555
O5 H1 1_555 1_555
O6 C3 1_555 1_555
N1 C5 1_555 1_555
C1 C2 1_555 1_555
C2 C3 1_555 1_555
C3 H2 1_555 1_555
C4 O1 1_555 1_555
H3 C4 1_555 1_555
C5 C6 1_555 1_555
C6 C2 1_555 1_555
C7 C2 1_555 1_555
H4 C7 1_555 1_555
C8 O5 1_555 1_555
H5 C8 1_555 1_555
C9 N1 1_555 1_555
H6 C9 1_555 1_555
C10 C9 1_555 1_555
H7 C10 1_555 1_555
H8 C10 1_555 1_555
C11 C10 1_555 1_555
H9 C11 1_555 1_555
H10 C11 1_555 1_555
C12 C11 1_555 1_555
H11 C12 1_555 1_555
H12 C12 1_555 1_555
C13 C12 1_555 1_555
H13 C13 1_555 1_555
H14 C13 1_555 1_555
C14 C9 1_555 1_555
H15 C14 1_555 1_555
H16 C14 1_555 1_555
C15 O3 1_555 1_555
H17 C15 1_555 1_555
C16 C15 1_555 1_555
H18 C16 1_555 1_555
C17 C16 1_555 1_555
H19 C17 1_555 1_555
H20 C17 1_555 1_555
C18 C17 1_555 1_555
H21 C18 1_555 1_555
H22 C18 1_555 1_555
C19 C18 1_555 1_555
H23 C19 1_555 1_555
C20 C15 1_555 1_555
H24 C20 1_555 1_555
H25 C20 1_555 1_555
C21 C19 1_555 1_555
H26 C21 1_555 1_555
H27 C21 1_555 1_555
H28 C21 1_555 1_555
C22 C16 1_555 1_555
H29 C22 1_555 1_555
C23 C22 1_555 1_555
H30 C23 1_555 1_555
H31 C23 1_555 1_555
H32 C23 1_555 1_555
C24 C22 1_555 1_555
H33 C24 1_555 1_555
H34 C24 1_555 1_555
H35 C24 1_555 1_555
C25 O6 1_555 1_555
H36 C25 1_555 1_555
C26 C25 1_555 1_555
C27 C26 1_555 1_555
H37 C27 1_555 1_555
C28 C27 1_555 1_555
H38 C28 1_555 1_555
C29 C28 1_555 1_555
H39 C29 1_555 1_555
C30 C29 1_555 1_555
H40 C30 1_555 1_555
C31 C26 1_555 1_555
H41 C31 1_555 1_555
C32 C25 1_555 1_555
C33 C32 1_555 1_555
H42 C33 1_555 1_555
C34 C33 1_555 1_555
H43 C34 1_555 1_555
C35 C34 1_555 1_555
H44 C35 1_555 1_555
C36 C35 1_555 1_555
H45 C36 1_555 1_555
C37 C32 1_555 1_555
H46 C37 1_555 1_555
N1 C8 1_555 1_555
C3 C4 1_555 1_555
C6 C7 1_555 1_555
C7 C8 1_555 1_555
C13 C14 1_555 1_555
C19 C20 1_555 1_555
C30 C31 1_555 1_555
C36 C37 1_555 1_555

#END
