
#######################################################################
#
#                 Cambridge Crystallographic Data Centre
#                                CCDC 
#
#######################################################################
#
# If this CIF has been generated from an entry in the Cambridge 
# Structural Database, then it will include bibliographic, chemical, 
# crystal, experimental, refinement or atomic coordinate data resulting 
# from the CCDC's data processing and validation procedures.
#
#######################################################################

data_QOJPOW
_chemical_formula_moiety         'C16 H10 N1 O2 S1 1-,C6 H16 N1 1+'
_chemical_name_systematic        
'Triethylammonium 2-oxo-1-(2-oxo-1,2-dihydro-3H-indol-3-ylidene)-2-phenylethanethiolate'
_symmetry_cell_setting           monoclinic
_symmetry_space_group_name_H-M   'P 21/c'
_symmetry_Int_Tables_number      14
_space_group_name_Hall           '-P 2ybc'
loop_
_symmetry_equiv_pos_site_id
_symmetry_equiv_pos_as_xyz
1 x,y,z
2 -x,1/2+y,1/2-z
3 -x,-y,-z
4 x,1/2-y,1/2+z
_cell_length_a                   8.3240(5)
_cell_length_b                   15.6431(12)
_cell_length_c                   15.7979(13)
_cell_angle_alpha                90
_cell_angle_beta                 94.8960(10)
_cell_angle_gamma                90
_cell_volume                     2049.59
_exptl_crystal_colour            yellow
_exptl_crystal_description       block
_cell_formula_units_Z            4
loop_
_atom_site_label
_atom_site_type_symbol
_atom_site_fract_x
_atom_site_fract_y
_atom_site_fract_z
N1 N 0.8230(3) 0.21537(15) 0.20185(14)
H1 H 0.8002 0.2335 0.1508
O1 O 0.7030(2) 0.32561(13) 0.27283(11)
O2 O 0.8136(2) 0.37407(13) 0.46495(12)
S1 S 0.86317(11) 0.16854(5) 0.52037(5)
C1 C 0.7804(4) 0.25626(19) 0.27369(17)
C2 C 0.8393(3) 0.20405(17) 0.34736(16)
C3 C 0.9233(3) 0.13018(18) 0.31290(17)
C4 C 0.9088(4) 0.13985(18) 0.22325(17)
C5 C 0.9721(4) 0.0804(2) 0.16975(18)
H2 H 0.9615 0.0878 0.1111
C6 C 1.0516(4) 0.0095(2) 0.20639(19)
H3 H 1.0935 -0.0315 0.1718
C7 C 1.0693(4) -0.00071(19) 0.29456(19)
H4 H 1.1243 -0.0480 0.3180
C8 C 1.0052(4) 0.05946(18) 0.34806(17)
H5 H 1.0173 0.0521 0.4067
C9 C 0.8119(3) 0.22566(17) 0.42977(17)
C10 C 0.7319(4) 0.31017(19) 0.44872(16)
C11 C 0.5522(4) 0.31186(19) 0.45454(17)
C12 C 0.4506(4) 0.2467(2) 0.42381(18)
H6 H 0.4942 0.1979 0.4010
C13 C 0.2845(4) 0.2531(2) 0.4266(2)
H7 H 0.2176 0.2088 0.4059
C14 C 0.2193(4) 0.3253(3) 0.4603(2)
H8 H 0.1082 0.3302 0.4614
C15 C 0.3177(5) 0.3898(3) 0.4919(3)
H9 H 0.2734 0.4380 0.5153
C16 C 0.4832(4) 0.3835(2) 0.4891(2)
H10 H 0.5491 0.4278 0.5106
N2 N 0.4250(5) 0.3935(2) 0.1970(2)
H11 H 0.5159 0.3719 0.2253
C17 C 0.4594(5) 0.4014(2) 0.1064(2)
H12 H 0.4768 0.3446 0.0841
H13 H 0.5587 0.4333 0.1036
C18 C 0.3272(5) 0.4449(3) 0.0498(2)
H14 H 0.2280 0.4141 0.0523
H15 H 0.3564 0.4456 -0.0077
H16 H 0.3137 0.5025 0.0689
C19 C 0.2832(5) 0.3199(7) 0.2027(5)
H17 H 0.2428 0.3231 0.2584
H18 H 0.1943 0.3335 0.1611
C20 C 0.337(2) 0.2289(9) 0.1878(11)
H19 H 0.3348 0.2183 0.1279
H20 H 0.2653 0.1898 0.2126
H21 H 0.4445 0.2209 0.2136
C21 C 0.3652(14) 0.4618(7) 0.2524(6)
H22 H 0.3441 0.4385 0.3073
H23 H 0.2665 0.4867 0.2263
C22 C 0.499(2) 0.5288(11) 0.2626(10)
H24 H 0.5966 0.5027 0.2865
H25 H 0.4678 0.5735 0.2996
H26 H 0.5157 0.5526 0.2080
H27? H 0.5052 0.3631 0.2258
C23? C 0.285(3) 0.3651(14) 0.2203(13)
H28? H 0.1956 0.3960 0.1915
H29? H 0.2803 0.3702 0.2812
C24? C 0.285(3) 0.2716(11) 0.1929(15)
H30? H 0.2865 0.2684 0.1324
H31? H 0.1890 0.2442 0.2096
H32? H 0.3780 0.2433 0.2197
C25? C 0.456(2) 0.4969(9) 0.2149(10)
H33? H 0.5500 0.5161 0.1875
H34? H 0.3636 0.5299 0.1927
C26? C 0.485(3) 0.5082(13) 0.3116(11)
H35? H 0.3918 0.4882 0.3379
H36? H 0.5019 0.5676 0.3247
H37? H 0.5776 0.4759 0.3327
loop_
_geom_bond_atom_site_label_1
_geom_bond_atom_site_label_2
_geom_bond_site_symmetry_1
_geom_bond_site_symmetry_2
N1 H1 1_555 1_555
O1 C1 1_555 1_555
O2 C10 1_555 1_555
S1 C9 1_555 1_555
C1 N1 1_555 1_555
C2 C1 1_555 1_555
C3 C2 1_555 1_555
C4 N1 1_555 1_555
C5 C4 1_555 1_555
H2 C5 1_555 1_555
C6 C5 1_555 1_555
H3 C6 1_555 1_555
C7 C6 1_555 1_555
H4 C7 1_555 1_555
C8 C3 1_555 1_555
H5 C8 1_555 1_555
C9 C2 1_555 1_555
C10 C9 1_555 1_555
C11 C10 1_555 1_555
C12 C11 1_555 1_555
H6 C12 1_555 1_555
C13 C12 1_555 1_555
H7 C13 1_555 1_555
C14 C13 1_555 1_555
H8 C14 1_555 1_555
C15 C14 1_555 1_555
H9 C15 1_555 1_555
C16 C11 1_555 1_555
H10 C16 1_555 1_555
N2 H11 1_555 1_555
C17 N2 1_555 1_555
H12 C17 1_555 1_555
H13 C17 1_555 1_555
C18 C17 1_555 1_555
H14 C18 1_555 1_555
H15 C18 1_555 1_555
H16 C18 1_555 1_555
C19 N2 1_555 1_555
H17 C19 1_555 1_555
H18 C19 1_555 1_555
C20 C19 1_555 1_555
H19 C20 1_555 1_555
H20 C20 1_555 1_555
H21 C20 1_555 1_555
C21 N2 1_555 1_555
H22 C21 1_555 1_555
H23 C21 1_555 1_555
C22 C21 1_555 1_555
H24 C22 1_555 1_555
H25 C22 1_555 1_555
H26 C22 1_555 1_555
C3 C4 1_555 1_555
C7 C8 1_555 1_555
C15 C16 1_555 1_555

#END
