
#######################################################################
#
#                 Cambridge Crystallographic Data Centre
#                                CCDC 
#
#######################################################################
#
# If this CIF has been generated from an entry in the Cambridge 
# Structural Database, then it will include bibliographic, chemical, 
# crystal, experimental, refinement or atomic coordinate data resulting 
# from the CCDC's data processing and validation procedures.
#
#######################################################################

data_QOJSUF
_chemical_formula_moiety         'C15 H14 O2 S1'
_chemical_name_systematic        
2-(2-(Methylsulfanyl)phenoxy)-1-phenylethanone
_symmetry_cell_setting           monoclinic
_symmetry_space_group_name_H-M   'C c'
_symmetry_Int_Tables_number      9
_space_group_name_Hall           'C -2yc'
loop_
_symmetry_equiv_pos_site_id
_symmetry_equiv_pos_as_xyz
1 x,y,z
2 x,-y,1/2+z
3 1/2+x,1/2+y,z
4 1/2+x,1/2-y,1/2+z
_cell_length_a                   14.341(4)
_cell_length_b                   11.316(3)
_cell_length_c                   17.625(5)
_cell_angle_alpha                90
_cell_angle_beta                 114.01
_cell_angle_gamma                90
_cell_volume                     2612.75
_cell_formula_units_Z            8
loop_
_atom_site_label
_atom_site_type_symbol
_atom_site_fract_x
_atom_site_fract_y
_atom_site_fract_z
C1 C 0.8450(2) 0.2411(2) 0.26227(18)
C2 C 0.9287(3) 0.2294(3) 0.2424(2)
H1 H 0.9935 0.2188 0.2843
C3 C 0.9156(3) 0.2336(3) 0.1600(2)
H2 H 0.9717 0.2251 0.1468
C4 C 0.8198(4) 0.2501(3) 0.0976(2)
H3 H 0.8104 0.2503 0.0422
C5 C 0.7388(4) 0.2663(4) 0.1188(3)
H4 H 0.6746 0.2812 0.0770
C6 C 0.7493(3) 0.2613(4) 0.2005(2)
H5 H 0.6931 0.2714 0.2134
C7 C 0.8549(2) 0.2282(2) 0.34892(19)
C8 C 0.9605(3) 0.2052(3) 0.41731(18)
H6 H 0.9911 0.1383 0.4016
H7 H 1.0034 0.2736 0.4225
C9 C 0.9496(2) 0.2753(3) 0.54094(18)
C10 C 0.9412(3) 0.3915(3) 0.5178(2)
H8 H 0.9403 0.4126 0.4665
C11 C 0.9341(3) 0.4777(3) 0.5709(2)
H9 H 0.9287 0.5566 0.5549
C12 C 0.9348(3) 0.4495(3) 0.6459(3)
H10 H 0.9295 0.5086 0.6806
C13 C 0.9433(3) 0.3320(3) 0.6709(2)
H11 H 0.9443 0.3127 0.7225
C14 C 0.9505(2) 0.2438(3) 0.61934(18)
C15 C 0.9742(4) 0.0934(4) 0.7507(2)
H12 H 1.0221 0.1535 0.7810
H13 H 0.9985 0.0178 0.7756
H14 H 0.9092 0.1095 0.7522
O1 O 0.7811(2) 0.2327(2) 0.36664(17)
O2 O 0.9576(2) 0.1818(2) 0.49481(14)
S1 S 0.96035(7) 0.09217(7) 0.64387(5)
C16 C 0.5781(2) -0.1796(3) 0.94162(17)
C17 C 0.6654(2) -0.2498(3) 0.9802(2)
H15 H 0.7292 -0.2215 0.9869
C18 C 0.6558(3) -0.3622(3) 1.0083(2)
H16 H 0.7131 -0.4098 1.0332
C19 C 0.5626(3) -0.4023(3) 0.9996(2)
H17 H 0.5573 -0.4765 1.0203
C20 C 0.4772(3) -0.3365(4) 0.9613(3)
H18 H 0.4138 -0.3666 0.9543
C21 C 0.4846(3) -0.2242(3) 0.9326(2)
H19 H 0.4261 -0.1786 0.9071
C22 C 0.5834(2) -0.0577(2) 0.91101(18)
C23 C 0.6864(3) 0.0038(3) 0.9442(2)
H20 H 0.7113 0.0105 1.0041
H21 H 0.7345 -0.0443 0.9319
C24 C 0.6880(2) 0.1254(3) 0.83459(19)
C25 C 0.6830(3) 0.0299(3) 0.7824(2)
H22 H 0.6748 -0.0465 0.7982
C26 C 0.6901(4) 0.0488(4) 0.7083(3)
H23 H 0.6857 -0.0148 0.6735
C27 C 0.7037(4) 0.1605(4) 0.6850(3)
H24 H 0.7096 0.1724 0.6349
C28 C 0.7085(3) 0.2554(4) 0.7352(3)
H25 H 0.7168 0.3311 0.7183
C29 C 0.7014(2) 0.2405(2) 0.80972(19)
C30 C 0.7298(3) 0.4838(3) 0.8273(3)
H26 H 0.7971 0.4788 0.8284
H27 H 0.7244 0.5541 0.8558
H28 H 0.6804 0.4865 0.7708
O3 O 0.50930(19) -0.0055(2) 0.86552(17)
O4 O 0.6822(2) 0.11739(19) 0.91001(14)
S2 S 0.70625(6) 0.35591(7) 0.87824(6)
loop_
_geom_bond_atom_site_label_1
_geom_bond_atom_site_label_2
_geom_bond_site_symmetry_1
_geom_bond_site_symmetry_2
C1 C2 1_555 1_555
C2 H1 1_555 1_555
C3 C2 1_555 1_555
H2 C3 1_555 1_555
C4 C3 1_555 1_555
H3 C4 1_555 1_555
C5 C4 1_555 1_555
H4 C5 1_555 1_555
C6 C1 1_555 1_555
H5 C6 1_555 1_555
C7 C1 1_555 1_555
C8 C7 1_555 1_555
H6 C8 1_555 1_555
H7 C8 1_555 1_555
C9 C10 1_555 1_555
C10 H8 1_555 1_555
C11 C10 1_555 1_555
H9 C11 1_555 1_555
C12 C11 1_555 1_555
H10 C12 1_555 1_555
C13 C12 1_555 1_555
H11 C13 1_555 1_555
C14 C9 1_555 1_555
C15 H12 1_555 1_555
H13 C15 1_555 1_555
H14 C15 1_555 1_555
O1 C7 1_555 1_555
O2 C8 1_555 1_555
S1 C14 1_555 1_555
C16 C17 1_555 1_555
C17 H15 1_555 1_555
C18 C17 1_555 1_555
H16 C18 1_555 1_555
C19 C18 1_555 1_555
H17 C19 1_555 1_555
C20 C19 1_555 1_555
H18 C20 1_555 1_555
C21 C16 1_555 1_555
H19 C21 1_555 1_555
C22 C16 1_555 1_555
C23 C22 1_555 1_555
H20 C23 1_555 1_555
H21 C23 1_555 1_555
C24 C25 1_555 1_555
C25 H22 1_555 1_555
C26 C25 1_555 1_555
H23 C26 1_555 1_555
C27 C26 1_555 1_555
H24 C27 1_555 1_555
C28 C27 1_555 1_555
H25 C28 1_555 1_555
C29 C24 1_555 1_555
C30 H26 1_555 1_555
H27 C30 1_555 1_555
H28 C30 1_555 1_555
O3 C22 1_555 1_555
O4 C23 1_555 1_555
S2 C29 1_555 1_555
C5 C6 1_555 1_555
C9 O2 1_555 1_555
C13 C14 1_555 1_555
C15 S1 1_555 1_555
C20 C21 1_555 1_555
C24 O4 1_555 1_555
C28 C29 1_555 1_555
C30 S2 1_555 1_555

#END
