
#######################################################################
#
#                 Cambridge Crystallographic Data Centre
#                                CCDC 
#
#######################################################################
#
# If this CIF has been generated from an entry in the Cambridge 
# Structural Database, then it will include bibliographic, chemical, 
# crystal, experimental, refinement or atomic coordinate data resulting 
# from the CCDC's data processing and validation procedures.
#
#######################################################################

data_QOKDUP
_chemical_formula_moiety         'C39 H65 K2 N7 Si2'
_chemical_name_systematic        
(\m~2~-\h^3^,\h^3^-2,6-bis(2-Trimethylsilylaza-2-phenylallyl)pyridyl-N,N',N'')-bis(1,2-bis(dimethylaminoethane-N,N'))-di-potassium
_symmetry_cell_setting           triclinic
_symmetry_space_group_name_H-M   'P -1'
_symmetry_Int_Tables_number      2
_space_group_name_Hall           '-P 1'
loop_
_symmetry_equiv_pos_site_id
_symmetry_equiv_pos_as_xyz
1 x,y,z
2 -x,-y,-z
_cell_length_a                   11.130(8)
_cell_length_b                   11.965(9)
_cell_length_c                   17.925(12)
_cell_angle_alpha                101.884(18)
_cell_angle_beta                 94.267(18)
_cell_angle_gamma                96.676(17)
_cell_volume                     2308.17
_exptl_crystal_colour            red
_exptl_crystal_description       block
_cell_formula_units_Z            2
loop_
_atom_site_label
_atom_site_type_symbol
_atom_site_fract_x
_atom_site_fract_y
_atom_site_fract_z
K1 K -0.25950(12) 0.25104(11) 0.17162(7)
K2 K -0.43296(11) 0.23488(11) 0.33640(7)
Si1 Si -0.32362(19) -0.03740(16) 0.23917(11)
Si2 Si -0.59140(16) 0.25285(16) 0.13637(10)
N1 N -0.2346(4) 0.3729(4) 0.3156(2)
N2 N -0.4847(4) 0.3262(4) 0.2079(2)
N3 N -0.2566(4) 0.0997(4) 0.2739(2)
N4 N -0.1273(6) 0.2142(7) 0.0331(4)
N5 N -0.1975(7) 0.4453(5) 0.1018(4)
N6 N -0.3602(5) 0.2845(5) 0.4967(3)
N7 N -0.6206(5) 0.1993(5) 0.4391(3)
C1 C -0.1220(5) 0.3582(5) 0.3437(3)
C2 C -0.0420(5) 0.4530(5) 0.3851(3)
H1 H 0.0354 0.4430 0.4036
C3 C -0.0769(5) 0.5599(5) 0.3985(3)
H2 H -0.0236 0.6226 0.4266
C4 C -0.1898(6) 0.5754(5) 0.3709(3)
H3 H -0.2140 0.6484 0.3798
C5 C -0.2691(5) 0.4799(5) 0.3289(3)
C6 C -0.3894(5) 0.4976(5) 0.3028(3)
H4 H -0.4101 0.5681 0.3272
C7 C -0.4809(5) 0.4338(5) 0.2498(3)
C8 C -0.5886(6) 0.4960(5) 0.2420(3)
C9 C -0.6998(6) 0.4573(6) 0.2638(3)
H5 H -0.7072 0.3931 0.2857
C10 C -0.7996(7) 0.5125(9) 0.2534(4)
H6 H -0.8744 0.4853 0.2676
C11 C -0.7878(10) 0.6082(9) 0.2218(6)
H7 H -0.8548 0.6463 0.2155
C12 C -0.6807(9) 0.6477(7) 0.1998(6)
H8 H -0.6742 0.7116 0.1776
C13 C -0.5813(6) 0.5926(6) 0.2105(4)
H9 H -0.5071 0.6209 0.1961
C14 C -0.0851(5) 0.2469(5) 0.3306(3)
H10 H -0.0022 0.2499 0.3437
C15 C -0.1407(6) 0.1357(5) 0.3035(3)
C16 C -0.0599(6) 0.0448(5) 0.3112(4)
C17 C 0.0052(7) -0.0003(7) 0.2543(4)
H11 H 0.0035 0.0276 0.2095
C18 C 0.0742(8) -0.0871(8) 0.2614(5)
H12 H 0.1173 -0.1172 0.2212
C19 C 0.0798(9) -0.1278(8) 0.3245(6)
H13 H 0.1236 -0.1884 0.3281
C20 C 0.0207(8) -0.0799(7) 0.3840(5)
H14 H 0.0273 -0.1056 0.4295
C21 C -0.0478(7) 0.0050(6) 0.3780(4)
H15 H -0.0873 0.0369 0.4196
C22 C -0.5126(6) 0.1508(6) 0.0713(3)
H16 H -0.4475 0.1930 0.0521
H17 H -0.5692 0.1083 0.0292
H18 H -0.4802 0.0984 0.0988
C23 C -0.6654(6) 0.3347(6) 0.0726(3)
H19 H -0.6042 0.3813 0.0533
H20 H -0.7167 0.3833 0.1011
H21 H -0.7137 0.2817 0.0306
C24 C -0.7175(6) 0.1638(6) 0.1710(4)
H22 H -0.6833 0.1188 0.2036
H23 H -0.7657 0.1134 0.1278
H24 H -0.7677 0.2138 0.1992
C25 C -0.3004(9) -0.1485(7) 0.2947(6)
H25 H -0.3193 -0.1222 0.3462
H26 H -0.2172 -0.1625 0.2953
H27 H -0.3527 -0.2185 0.2713
C26 C -0.2884(9) -0.0963(8) 0.1394(4)
H28 H -0.2029 -0.1011 0.1394
H29 H -0.3110 -0.0463 0.1067
H30 H -0.3332 -0.1718 0.1208
C27 C -0.4874(7) -0.0340(7) 0.2322(6)
H31 H -0.5116 -0.0064 0.2823
H32 H -0.5289 -0.1102 0.2113
H33 H -0.5081 0.0165 0.1994
C28 C -0.1358(12) 0.5344(10) 0.1599(6)
H34 H -0.1136 0.6009 0.1391
H35 H -0.0637 0.5099 0.1805
H36 H -0.1876 0.5536 0.1998
C29 C -0.3130(10) 0.4776(10) 0.0799(7)
H37 H -0.3005 0.5426 0.0563
H38 H -0.3552 0.4978 0.1245
H39 H -0.3604 0.4141 0.0442
C30 C -0.1350(12) 0.4197(10) 0.0378(7)
H40 H -0.1793 0.4466 -0.0022
H41 H -0.0576 0.4693 0.0500
C31 C -0.1089(11) 0.3164(10) 0.0049(6)
H42 H -0.0232 0.3277 -0.0023
H43 H -0.1523 0.2981 -0.0460
C32 C -0.0177(10) 0.1863(12) 0.0640(8)
H44 H -0.0338 0.1172 0.0830
H45 H 0.0188 0.2483 0.1052
H46 H 0.0368 0.1742 0.0249
C33 C -0.207(2) 0.146(2) -0.0345(12)
H47 H -0.2754 0.1849 -0.0432
H48 H -0.2341 0.0713 -0.0256
H49 H -0.1618 0.1378 -0.0786
C35 C -0.6442(9) 0.0773(7) 0.4306(6)
H53 H -0.6717 0.0421 0.3780
H54 H -0.7058 0.0590 0.4626
H55 H -0.5710 0.0487 0.4454
C36 C -0.7339(8) 0.2409(8) 0.4194(5)
H56 H -0.7654 0.2033 0.3680
H57 H -0.7192 0.3226 0.4233
H58 H -0.7918 0.2242 0.4541
C37 C -0.5754(7) 0.2581(8) 0.5183(4)
H59 H -0.5833 0.3392 0.5243
H60 H -0.6276 0.2276 0.5525
C38 C -0.4535(7) 0.2486(6) 0.5424(4)
H61 H -0.4489 0.1687 0.5442
H62 H -0.4342 0.2937 0.5944
C39 C -0.2530(8) 0.2361(8) 0.5102(5)
H63 H -0.2283 0.2530 0.5643
H64 H -0.1898 0.2684 0.4842
H65 H -0.2682 0.1541 0.4914
C40 C -0.3310(8) 0.4087(6) 0.5138(4)
H66 H -0.3045 0.4358 0.5673
H67 H -0.4018 0.4425 0.5011
H68 H -0.2672 0.4303 0.4842
C34? C -0.1611(16) 0.1048(16) -0.0170(11)
H50? H -0.2378 0.1039 -0.0456
H51? H -0.1683 0.0462 0.0124
H52? H -0.1002 0.0903 -0.0517
loop_
_geom_bond_atom_site_label_1
_geom_bond_atom_site_label_2
_geom_bond_site_symmetry_1
_geom_bond_site_symmetry_2
K1 N1 1_555 1_555
K2 N1 1_555 1_555
Si1 N3 1_555 1_555
Si2 N2 1_555 1_555
N1 C1 1_555 1_555
N2 K1 1_555 1_555
N3 K1 1_555 1_555
N4 K1 1_555 1_555
N5 K1 1_555 1_555
N6 K2 1_555 1_555
N7 K2 1_555 1_555
C1 K1 1_555 1_555
C2 C1 1_555 1_555
H1 C2 1_555 1_555
C3 C2 1_555 1_555
H2 C3 1_555 1_555
C4 C3 1_555 1_555
H3 C4 1_555 1_555
C5 K2 1_555 1_555
C6 K2 1_555 1_555
H4 C6 1_555 1_555
C7 K2 1_555 1_555
C8 C7 1_555 1_555
C9 C8 1_555 1_555
H5 C9 1_555 1_555
C10 C9 1_555 1_555
H6 C10 1_555 1_555
C11 C10 1_555 1_555
H7 C11 1_555 1_555
C12 C11 1_555 1_555
H8 C12 1_555 1_555
C13 C8 1_555 1_555
H9 C13 1_555 1_555
C14 K1 1_555 1_555
H10 C14 1_555 1_555
C15 K1 1_555 1_555
C16 C15 1_555 1_555
C17 C16 1_555 1_555
H11 C17 1_555 1_555
C18 C17 1_555 1_555
H12 C18 1_555 1_555
C19 C18 1_555 1_555
H13 C19 1_555 1_555
C20 C19 1_555 1_555
H14 C20 1_555 1_555
C21 C16 1_555 1_555
H15 C21 1_555 1_555
C22 Si2 1_555 1_555
H16 C22 1_555 1_555
H17 C22 1_555 1_555
H18 C22 1_555 1_555
C23 Si2 1_555 1_555
H19 C23 1_555 1_555
H20 C23 1_555 1_555
H21 C23 1_555 1_555
C24 Si2 1_555 1_555
H22 C24 1_555 1_555
H23 C24 1_555 1_555
H24 C24 1_555 1_555
C25 Si1 1_555 1_555
H25 C25 1_555 1_555
H26 C25 1_555 1_555
H27 C25 1_555 1_555
C26 Si1 1_555 1_555
H28 C26 1_555 1_555
H29 C26 1_555 1_555
H30 C26 1_555 1_555
C27 Si1 1_555 1_555
H31 C27 1_555 1_555
H32 C27 1_555 1_555
H33 C27 1_555 1_555
C28 N5 1_555 1_555
H34 C28 1_555 1_555
H35 C28 1_555 1_555
H36 C28 1_555 1_555
C29 N5 1_555 1_555
H37 C29 1_555 1_555
H38 C29 1_555 1_555
H39 C29 1_555 1_555
C30 N5 1_555 1_555
H40 C30 1_555 1_555
H41 C30 1_555 1_555
C31 N4 1_555 1_555
H42 C31 1_555 1_555
H43 C31 1_555 1_555
C32 N4 1_555 1_555
H44 C32 1_555 1_555
H45 C32 1_555 1_555
H46 C32 1_555 1_555
C33 N4 1_555 1_555
H47 C33 1_555 1_555
H48 C33 1_555 1_555
H49 C33 1_555 1_555
C35 N7 1_555 1_555
H53 C35 1_555 1_555
H54 C35 1_555 1_555
H55 C35 1_555 1_555
C36 N7 1_555 1_555
H56 C36 1_555 1_555
H57 C36 1_555 1_555
H58 C36 1_555 1_555
C37 N7 1_555 1_555
H59 C37 1_555 1_555
H60 C37 1_555 1_555
C38 N6 1_555 1_555
H61 C38 1_555 1_555
H62 C38 1_555 1_555
C39 N6 1_555 1_555
H63 C39 1_555 1_555
H64 C39 1_555 1_555
H65 C39 1_555 1_555
C40 N6 1_555 1_555
H66 C40 1_555 1_555
H67 C40 1_555 1_555
H68 C40 1_555 1_555
K2 N3 1_555 1_555
K2 N2 1_555 1_555
N1 C5 1_555 1_555
N2 C7 1_555 1_555
N3 C15 1_555 1_555
C1 C14 1_555 1_555
C4 C5 1_555 1_555
C5 C6 1_555 1_555
C6 C7 1_555 1_555
C12 C13 1_555 1_555
C14 C15 1_555 1_555
C20 C21 1_555 1_555
C30 C31 1_555 1_555
C37 C38 1_555 1_555

#END
