
#######################################################################
#
#                 Cambridge Crystallographic Data Centre
#                                CCDC 
#
#######################################################################
#
# If this CIF has been generated from an entry in the Cambridge 
# Structural Database, then it will include bibliographic, chemical, 
# crystal, experimental, refinement or atomic coordinate data resulting 
# from the CCDC's data processing and validation procedures.
#
#######################################################################

data_QOKJEF
_chemical_formula_moiety         'C16 H22 F3 N1 O3 S1'
_chemical_name_systematic        
(+-)(2S,S~S~)-EthylN-(p-tolylsulfinyl)-(\a-trifluoromethyl)leucinate
_symmetry_cell_setting           triclinic
_symmetry_space_group_name_H-M   'P -1'
_symmetry_Int_Tables_number      2
_space_group_name_Hall           '-P 1'
loop_
_symmetry_equiv_pos_site_id
_symmetry_equiv_pos_as_xyz
1 x,y,z
2 -x,-y,-z
_cell_length_a                   8.9990(10)
_cell_length_b                   10.769(2)
_cell_length_c                   20.030(3)
_cell_angle_alpha                77.910(10)
_cell_angle_beta                 84.370(10)
_cell_angle_gamma                80.220(10)
_cell_volume                     1866.53
_chemical_melting_point          88-90deg.C
_cell_formula_units_Z            4
loop_
_atom_site_label
_atom_site_type_symbol
_atom_site_fract_x
_atom_site_fract_y
_atom_site_fract_z
S1 S 0.3309(1) 0.2377(1) 0.2389(1)
N1 N 0.1771(2) 0.2262(2) 0.2909(1)
O1 O 0.3714(2) 0.3670(2) 0.2344(1)
C1 C 0.1615(3) 0.1306(2) 0.3531(1)
C2 C 0.1326(4) 0.0064(3) 0.3340(2)
F1 F 0.0209(2) 0.0296(2) 0.2916(1)
F2 F 0.2549(2) -0.0499(2) 0.3014(1)
F3 F 0.0935(3) -0.0821(2) 0.3870(1)
C3 C 0.3026(3) 0.0962(3) 0.3950(1)
O2 O 0.3164(3) 0.0046(2) 0.4407(1)
O3 O 0.3991(2) 0.1769(2) 0.3755(1)
C4 C 0.5430(4) 0.1461(4) 0.4092(2)
C5 C 0.6492(4) 0.0486(5) 0.3795(3)
C6 C 0.0228(3) 0.1800(2) 0.3971(1)
C7 C 0.0270(4) 0.3035(3) 0.4219(2)
C8 C 0.1103(5) 0.2830(4) 0.4869(2)
C9 C -0.1338(5) 0.3696(4) 0.4328(2)
C10 C 0.2450(3) 0.2468(3) 0.1608(1)
C11 C 0.2178(4) 0.1351(3) 0.1443(2)
C12 C 0.1535(5) 0.1399(4) 0.0836(2)
C13 C 0.1162(4) 0.2537(5) 0.0391(2)
C14 C 0.1478(4) 0.3623(4) 0.0554(2)
C15 C 0.2121(4) 0.3605(3) 0.1163(2)
C16 C 0.0444(5) 0.2558(6) -0.0270(2)
H1 H 0.0930(2) 0.2670(2) 0.2771(14)
H2 H 0.5238 0.1141 0.4577
H3 H 0.5881 0.2235 0.4038
H4 H 0.7419 0.0304 0.4021
H5 H 0.6692 0.0806 0.3316
H6 H 0.6054 -0.0287 0.3856
H7 H -0.0654 0.1930 0.3708
H8 H 0.0089 0.1131 0.4369
H9 H 0.0789 0.3602 0.3857
H10 H 0.2122 0.2421 0.4793
H11 H 0.0597 0.2296 0.5234
H12 H 0.1115 0.3646 0.4989
H13 H -0.1848 0.3833 0.3914
H14 H -0.1322 0.4509 0.4451
H15 H -0.1862 0.3166 0.4689
H16 H 0.2426 0.0568 0.1738
H17 H 0.1353 0.0641 0.0728
H18 H 0.1258 0.4402 0.0251
H19 H 0.2323 0.4362 0.1264
H20 H 0.0851 0.1791 -0.0440
H21 H 0.0658 0.3296 -0.0605
H22 H -0.0630 0.2600 -0.0183
S2 S 0.7993(1) 0.4503(1) 0.1949(1)
O4 O 0.8818(2) 0.3644(2) 0.2516(1)
N2 N 0.6290(2) 0.5055(2) 0.2252(1)
C17 C 0.5718(3) 0.6392(2) 0.2272(1)
C18 C 0.5047(4) 0.7046(3) 0.1581(2)
F4 F 0.4097(2) 0.6361(2) 0.1410(1)
F5 F 0.6129(2) 0.7158(2) 0.1072(1)
F6 F 0.4281(2) 0.8220(2) 0.1579(1)
C19 C 0.6910(4) 0.7164(3) 0.2392(2)
O5 O 0.6737(4) 0.8301(2) 0.2267(2)
O6 O 0.8077(2) 0.6435(2) 0.2687(1)
C20 C 0.9305(6) 0.7090(5) 0.2823(3)
C21 C 1.0368(6) 0.7230(7) 0.2269(4)
C22 C 0.4426(3) 0.6432(2) 0.2836(1)
C23 C 0.4854(4) 0.5833(3) 0.3571(2)
C24 C 0.3559(6) 0.5227(5) 0.3965(2)
C25 C 0.5302(5) 0.6795(4) 0.3942(2)
C26 C 0.7403(3) 0.3438(2) 0.1487(1)
C27 C 0.7651(4) 0.2136(3) 0.1724(2)
C28 C 0.7181(4) 0.1338(3) 0.1363(2)
C29 C 0.6490(3) 0.1798(3) 0.0759(2)
C30 C 0.6273(4) 0.3107(3) 0.0524(2)
C31 C 0.6722(3) 0.3925(3) 0.0879(1)
C32 C 0.5992(5) 0.0909(4) 0.0369(2)
H23 H 0.5610(2) 0.4580(2) 0.2305(13)
H24 H 0.8878 0.7931 0.2917
H25 H 0.9800 0.6595 0.3225
H26 H 1.1150 0.7652 0.2372
H27 H 0.9885 0.7734 0.1872
H28 H 1.0803 0.6398 0.2179
H29 H 0.3983 0.7323 0.2822
H30 H 0.3651 0.5994 0.2727
H31 H 0.5721 0.5152 0.3549
H32 H 0.3302 0.4608 0.3732
H33 H 0.2701 0.5880 0.4001
H34 H 0.3851 0.4806 0.4416
H35 H 0.6136 0.7166 0.3690
H36 H 0.5592 0.6366 0.4391
H37 H 0.4460 0.7462 0.3980
H38 H 0.8135 0.1796 0.2127
H39 H 0.7335 0.0457 0.1532
H40 H 0.5812 0.3446 0.0116
H41 H 0.6568 0.4806 0.0710
H42 H 0.6278 0.0035 0.0597
H43 H 0.6464 0.1034 -0.0086
H44 H 0.4914 0.1089 0.0346
loop_
_geom_bond_atom_site_label_1
_geom_bond_atom_site_label_2
_geom_bond_site_symmetry_1
_geom_bond_site_symmetry_2
S1 N1 1_555 1_555
N1 C1 1_555 1_555
O1 S1 1_555 1_555
C1 C2 1_555 1_555
C2 F1 1_555 1_555
F2 C2 1_555 1_555
F3 C2 1_555 1_555
C3 C1 1_555 1_555
O2 C3 1_555 1_555
O3 C3 1_555 1_555
C4 O3 1_555 1_555
C5 C4 1_555 1_555
C6 C1 1_555 1_555
C7 C6 1_555 1_555
C8 C7 1_555 1_555
C9 C7 1_555 1_555
C10 S1 1_555 1_555
C11 C10 1_555 1_555
C12 C11 1_555 1_555
C13 C12 1_555 1_555
C14 C13 1_555 1_555
C15 C10 1_555 1_555
C16 C13 1_555 1_555
S2 O4 1_555 1_555
N2 S2 1_555 1_555
C17 N2 1_555 1_555
C18 C17 1_555 1_555
F4 C18 1_555 1_555
F5 C18 1_555 1_555
F6 C18 1_555 1_555
C19 C17 1_555 1_555
O5 C19 1_555 1_555
O6 C19 1_555 1_555
C20 O6 1_555 1_555
C21 C20 1_555 1_555
C22 C17 1_555 1_555
C23 C22 1_555 1_555
C24 C23 1_555 1_555
C25 C23 1_555 1_555
C26 S2 1_555 1_555
C27 C26 1_555 1_555
C28 C27 1_555 1_555
C29 C28 1_555 1_555
C30 C29 1_555 1_555
C31 C26 1_555 1_555
C32 C29 1_555 1_555
H1 N1 1_555 1_555
H2 C4 1_555 1_555
H3 C4 1_555 1_555
H4 C5 1_555 1_555
H5 C5 1_555 1_555
H6 C5 1_555 1_555
H7 C6 1_555 1_555
H8 C6 1_555 1_555
H9 C7 1_555 1_555
H10 C8 1_555 1_555
H11 C8 1_555 1_555
H12 C8 1_555 1_555
H13 C9 1_555 1_555
H14 C9 1_555 1_555
H15 C9 1_555 1_555
H16 C11 1_555 1_555
H17 C12 1_555 1_555
H18 C14 1_555 1_555
H19 C15 1_555 1_555
H20 C16 1_555 1_555
H21 C16 1_555 1_555
H22 C16 1_555 1_555
H23 N2 1_555 1_555
H24 C20 1_555 1_555
H25 C20 1_555 1_555
H26 C21 1_555 1_555
H27 C21 1_555 1_555
H28 C21 1_555 1_555
H29 C22 1_555 1_555
H30 C22 1_555 1_555
H31 C23 1_555 1_555
H32 C24 1_555 1_555
H33 C24 1_555 1_555
H34 C24 1_555 1_555
H35 C25 1_555 1_555
H36 C25 1_555 1_555
H37 C25 1_555 1_555
H38 C27 1_555 1_555
H39 C28 1_555 1_555
H40 C30 1_555 1_555
H41 C31 1_555 1_555
H42 C32 1_555 1_555
H43 C32 1_555 1_555
H44 C32 1_555 1_555
C14 C15 1_555 1_555
C30 C31 1_555 1_555

#END
