
#######################################################################
#
#                 Cambridge Crystallographic Data Centre
#                                CCDC 
#
#######################################################################
#
# If this CIF has been generated from an entry in the Cambridge 
# Structural Database, then it will include bibliographic, chemical, 
# crystal, experimental, refinement or atomic coordinate data resulting 
# from the CCDC's data processing and validation procedures.
#
#######################################################################

data_QOKNEL
_chemical_formula_moiety         'C24 H26 Cl1 N1 O6 S1'
_chemical_name_systematic        
'7-ethyl 4-methyl 6-(4-chlorophenyl)-5-((4-methylphenyl)sulfonyl)-5-azaspiro[2.4]heptane-4,7-dicarboxylate'
_symmetry_cell_setting           orthorhombic
_symmetry_space_group_name_H-M   'P 21 21 21'
_symmetry_Int_Tables_number      19
_space_group_name_Hall           'P 2ac 2ab'
loop_
_symmetry_equiv_pos_site_id
_symmetry_equiv_pos_as_xyz
1 x,y,z
2 1/2-x,-y,1/2+z
3 -x,1/2+y,1/2-z
4 1/2+x,1/2-y,-z
_cell_length_a                   9.6883(11)
_cell_length_b                   15.3079(18)
_cell_length_c                   16.5032(19)
_cell_angle_alpha                90
_cell_angle_beta                 90
_cell_angle_gamma                90
_cell_volume                     2447.55
_exptl_crystal_colour            colorless
_exptl_crystal_description       block
_cell_formula_units_Z            4
loop_
_atom_site_label
_atom_site_type_symbol
_atom_site_fract_x
_atom_site_fract_y
_atom_site_fract_z
C1 C 1.2995(3) 0.29565(18) 0.09022(15)
C2 C 1.1647(3) 0.31892(19) 0.07667(18)
H1 H 1.1437 0.3680 0.0458
C3 C 1.0610(3) 0.26854(18) 0.10937(18)
H2 H 0.9695 0.2842 0.1006
C4 C 1.0906(2) 0.19475(15) 0.15518(14)
C5 C 1.2268(3) 0.17306(16) 0.16812(16)
H3 H 1.2481 0.1240 0.1989
C6 C 1.3330(3) 0.22341(18) 0.13592(17)
H4 H 1.4248 0.2086 0.1451
C7 C 0.9700(2) 0.14430(14) 0.18946(14)
H5 H 0.9002 0.1363 0.1471
C8 C 0.9026(3) 0.18858(16) 0.26382(15)
H6 H 0.9214 0.2514 0.2619
C9 C 0.9805(3) 0.14899(15) 0.33392(15)
C10 C 1.0025(2) 0.05323(14) 0.31101(14)
H7 H 0.9223 0.0185 0.3275
C11 C 0.7477(3) 0.17415(19) 0.26302(18)
C12 C 0.5549(4) 0.1144(4) 0.3336(3)
H8 H 0.5048 0.1470 0.2927
H9 H 0.5337 0.0529 0.3271
C13 C 0.5158(7) 0.1435(4) 0.4136(4)
H10 H 0.5930 0.1377 0.4496
H11 H 0.4405 0.1086 0.4330
H12 H 0.4879 0.2037 0.4112
C14 C 1.0917(3) 0.2009(2) 0.37553(19)
H13 H 1.1752 0.1705 0.3913
H14 H 1.1050 0.2610 0.3587
C15 C 0.9622(4) 0.1791(2) 0.41927(18)
H15 H 0.9087 0.1820 0.4660
C16 C 1.1343(2) 0.01311(15) 0.34545(15)
C17 C 1.2257(4) -0.0706(3) 0.4516(2)
H16 H 1.2710 -0.1073 0.4126
H17 H 1.1955 -0.1054 0.4967
H18 H 1.2888 -0.0267 0.4703
C18 C 0.8016(2) -0.04453(15) 0.16206(15)
C19 C 0.7337(3) -0.0932(2) 0.21957(18)
H19 H 0.7824 -0.1180 0.2624
C20 C 0.5919(3) -0.1053(2) 0.21348(19)
H20 H 0.5461 -0.1385 0.2523
C21 C 0.5183(3) -0.06862(19) 0.15057(18)
C22 C 0.5884(3) -0.0189(2) 0.09383(19)
H21 H 0.5395 0.0071 0.0517
C23 C 0.7284(3) -0.0074(2) 0.09863(18)
H22 H 0.7742 0.0253 0.0594
C24 C 0.3644(3) -0.0835(3) 0.1437(3)
H23 H 0.3464 -0.1251 0.1015
H24 H 0.3194 -0.0293 0.1310
H25 H 0.3296 -0.1055 0.1942
Cl1 Cl 1.43014(9) 0.36071(6) 0.05052(5)
N1 N 1.0104(2) 0.05751(12) 0.22223(11)
O1 O 0.6753(3) 0.2010(3) 0.2122(2)
O2 O 0.7044(2) 0.1291(2) 0.32497(18)
O3 O 1.24656(18) 0.02021(14) 0.31679(13)
O4 O 1.10685(19) -0.02885(14) 0.41403(11)
O5 O 1.0306(2) -0.01185(13) 0.08890(11)
O6 O 1.03567(19) -0.10008(11) 0.21507(12)
S1 S 0.98117(6) -0.02958(4) 0.16834(4)
loop_
_geom_bond_atom_site_label_1
_geom_bond_atom_site_label_2
_geom_bond_site_symmetry_1
_geom_bond_site_symmetry_2
C1 C2 1_555 1_555
C2 H1 1_555 1_555
C3 C2 1_555 1_555
H2 C3 1_555 1_555
C4 C3 1_555 1_555
C5 C4 1_555 1_555
H3 C5 1_555 1_555
C6 C1 1_555 1_555
H4 C6 1_555 1_555
C7 C4 1_555 1_555
H5 C7 1_555 1_555
C8 C7 1_555 1_555
H6 C8 1_555 1_555
C9 C8 1_555 1_555
C10 C9 1_555 1_555
H7 C10 1_555 1_555
C11 C8 1_555 1_555
C12 H8 1_555 1_555
H9 C12 1_555 1_555
C13 C12 1_555 1_555
H10 C13 1_555 1_555
H11 C13 1_555 1_555
H12 C13 1_555 1_555
C14 C9 1_555 1_555
H13 C14 1_555 1_555
H14 C14 1_555 1_555
C15 C9 1_555 1_555
H15 C15 1_555 1_555
C16 C10 1_555 1_555
C17 H16 1_555 1_555
H17 C17 1_555 1_555
H18 C17 1_555 1_555
C18 C19 1_555 1_555
C19 H19 1_555 1_555
C20 C19 1_555 1_555
H20 C20 1_555 1_555
C21 C20 1_555 1_555
C22 C21 1_555 1_555
H21 C22 1_555 1_555
C23 C18 1_555 1_555
H22 C23 1_555 1_555
C24 C21 1_555 1_555
H23 C24 1_555 1_555
H24 C24 1_555 1_555
H25 C24 1_555 1_555
Cl1 C1 1_555 1_555
N1 C7 1_555 1_555
O1 C11 1_555 1_555
O2 C11 1_555 1_555
O3 C16 1_555 1_555
O4 C16 1_555 1_555
O5 S1 1_555 1_555
O6 S1 1_555 1_555
S1 C18 1_555 1_555
C5 C6 1_555 1_555
C10 N1 1_555 1_555
C12 O2 1_555 1_555
C14 C15 1_555 1_555
C17 O4 1_555 1_555
C22 C23 1_555 1_555
N1 S1 1_555 1_555

#END
