
#######################################################################
#
#                 Cambridge Crystallographic Data Centre
#                                CCDC 
#
#######################################################################
#
# If this CIF has been generated from an entry in the Cambridge 
# Structural Database, then it will include bibliographic, chemical, 
# crystal, experimental, refinement or atomic coordinate data resulting 
# from the CCDC's data processing and validation procedures.
#
#######################################################################

data_QOKQEO
_chemical_formula_moiety         'C16 H12 Br1 N1 O1'
_chemical_name_systematic        7-Bromo-2-phenyl-4-vinyl-4H-3,1-benzoxazine
_symmetry_cell_setting           triclinic
_symmetry_space_group_name_H-M   'P 1'
_symmetry_Int_Tables_number      1
_space_group_name_Hall           'P 1'
loop_
_symmetry_equiv_pos_site_id
_symmetry_equiv_pos_as_xyz
1 x,y,z
_cell_length_a                   6.3154(5)
_cell_length_b                   8.1371(7)
_cell_length_c                   14.3362(12)
_cell_angle_alpha                85.222(3)
_cell_angle_beta                 78.520(3)
_cell_angle_gamma                70.043(3)
_cell_volume                     678.535
_exptl_crystal_colour            colorless
_exptl_crystal_description       platelet
_cell_formula_units_Z            2
loop_
_atom_site_label
_atom_site_type_symbol
_atom_site_fract_x
_atom_site_fract_y
_atom_site_fract_z
Br1 Br -0.16293(7) 0.24554(6) 0.88805(4)
O1 O 0.3571(5) 0.5421(4) 0.4821(3)
N1 N 0.0014(6) 0.5137(5) 0.5490(3)
C1 C 0.0401(9) 0.2932(6) 0.7818(3)
C2 C 0.2734(10) 0.2332(7) 0.7806(4)
H1 H 0.3318 0.1703 0.8324
C3 C 0.4175(9) 0.2671(7) 0.7026(4)
H2 H 0.5746 0.2271 0.7014
C4 C 0.3306(8) 0.3617(6) 0.6244(3)
C5 C 0.0968(7) 0.4196(5) 0.6251(3)
C6 C -0.0500(8) 0.3851(6) 0.7052(3)
H3 H -0.2073 0.4237 0.7069
C7 C 0.4851(8) 0.4002(6) 0.5369(4)
H4 H 0.6002 0.4369 0.5581
C8 C 0.6084(9) 0.2468(6) 0.4742(4)
H5 H 0.5227 0.1865 0.4556
C9 C 0.8254(9) 0.1928(8) 0.4445(4)
H6 H 0.9155 0.2505 0.4620
H7 H 0.8929 0.0961 0.4055
C10 C 0.1299(8) 0.5705(6) 0.4843(3)
C11 C 0.0478(5) 0.6757(4) 0.40363(19)
C12 C 0.1977(4) 0.7214(4) 0.3297(2)
H8 H 0.3539 0.6821 0.3306
C13 C 0.1141(6) 0.8258(5) 0.2545(2)
H9 H 0.2144 0.8564 0.2050
C14 C -0.1194(6) 0.8845(5) 0.2531(2)
H10 H -0.1754 0.9544 0.2028
C15 C -0.2693(4) 0.8389(5) 0.3270(3)
H11 H -0.4256 0.8782 0.3262
C16 C -0.1857(4) 0.7345(4) 0.4023(2)
H12 H -0.2860 0.7039 0.4517
Br2 Br 1.32708(8) 0.25947(6) 1.24756(4)
O2 O 0.8144(5) 0.7059(5) 0.8894(2)
N2 N 1.1647(7) 0.6336(5) 0.9398(3)
C17 C 1.1232(9) 0.3967(6) 1.1684(3)
C18 C 0.8971(10) 0.4290(8) 1.1944(4)
H13 H 0.8402 0.3824 1.2514
C19 C 0.7455(10) 0.5324(8) 1.1365(4)
H14 H 0.5883 0.5572 1.1552
C20 C 0.8349(8) 0.5975(6) 1.0500(3)
C21 C 1.0693(8) 0.5670(6) 1.0245(3)
C22 C 1.2185(9) 0.4617(6) 1.0827(3)
H15 H 1.3762 0.4357 1.0651
C23 C 0.6826(8) 0.7096(7) 0.9844(3)
H16 H 0.5629 0.6594 0.9825
C24 C 0.5686(11) 0.8950(7) 1.0150(4)
H17 H 0.6594 0.9549 1.0295
C25 C 0.3490(11) 0.9781(8) 1.0225(4)
H18 H 0.2538 0.9217 1.0084
H19 H 0.2877 1.0938 1.0419
C26 C 1.0359(7) 0.6982(6) 0.8784(3)
C27 C 1.1166(5) 0.7645(4) 0.78587(19)
C28 C 0.9651(4) 0.8546(5) 0.7260(2)
H20 H 0.8090 0.8739 0.7452
C29 C 1.0468(6) 0.9157(5) 0.6376(2)
H21 H 0.9454 0.9760 0.5975
C30 C 1.2800(6) 0.8868(5) 0.6089(2)
H22 H 1.3347 0.9277 0.5497
C31 C 1.4315(4) 0.7968(5) 0.6688(2)
H23 H 1.5876 0.7774 0.6496
C32 C 1.3498(5) 0.7356(4) 0.7573(2)
H24 H 1.4512 0.6754 0.7973
loop_
_geom_bond_atom_site_label_1
_geom_bond_atom_site_label_2
_geom_bond_site_symmetry_1
_geom_bond_site_symmetry_2
Br1 C1 1_555 1_555
O1 C7 1_555 1_555
N1 C5 1_555 1_555
C1 C2 1_555 1_555
C2 H1 1_555 1_555
C3 C2 1_555 1_555
H2 C3 1_555 1_555
C4 C3 1_555 1_555
C5 C4 1_555 1_555
C6 C1 1_555 1_555
H3 C6 1_555 1_555
C7 C4 1_555 1_555
H4 C7 1_555 1_555
C8 C7 1_555 1_555
H5 C8 1_555 1_555
C9 C8 1_555 1_555
H6 C9 1_555 1_555
H7 C9 1_555 1_555
C10 O1 1_555 1_555
C11 C10 1_555 1_555
C12 C11 1_555 1_555
H8 C12 1_555 1_555
C13 C12 1_555 1_555
H9 C13 1_555 1_555
C14 C13 1_555 1_555
H10 C14 1_555 1_555
C15 C14 1_555 1_555
H11 C15 1_555 1_555
C16 C11 1_555 1_555
H12 C16 1_555 1_555
Br2 C17 1_555 1_555
O2 C23 1_555 1_555
N2 C21 1_555 1_555
C17 C18 1_555 1_555
C18 H13 1_555 1_555
C19 C18 1_555 1_555
H14 C19 1_555 1_555
C20 C19 1_555 1_555
C21 C20 1_555 1_555
C22 C17 1_555 1_555
H15 C22 1_555 1_555
C23 C20 1_555 1_555
H16 C23 1_555 1_555
C24 C23 1_555 1_555
H17 C24 1_555 1_555
C25 C24 1_555 1_555
H18 C25 1_555 1_555
H19 C25 1_555 1_555
C26 O2 1_555 1_555
C27 C26 1_555 1_555
C28 C27 1_555 1_555
H20 C28 1_555 1_555
C29 C28 1_555 1_555
H21 C29 1_555 1_555
C30 C29 1_555 1_555
H22 C30 1_555 1_555
C31 C30 1_555 1_555
H23 C31 1_555 1_555
C32 C27 1_555 1_555
H24 C32 1_555 1_555
N1 C10 1_555 1_555
C5 C6 1_555 1_555
C15 C16 1_555 1_555
N2 C26 1_555 1_555
C21 C22 1_555 1_555
C31 C32 1_555 1_555

#END
