
#######################################################################
#
#                 Cambridge Crystallographic Data Centre
#                                CCDC 
#
#######################################################################
#
# If this CIF has been generated from an entry in the Cambridge 
# Structural Database, then it will include bibliographic, chemical, 
# crystal, experimental, refinement or atomic coordinate data resulting 
# from the CCDC's data processing and validation procedures.
#
#######################################################################

data_QOKREO
_chemical_formula_moiety         'C75 H36 Br1 N1 O8'
_chemical_name_systematic        
22,41,45,57-tetrakis(t-butylperoxo)-25-bromo-24-aza[open-cage]C59fullerene
_symmetry_cell_setting           orthorhombic
_symmetry_space_group_name_H-M   'P n m a'
_symmetry_Int_Tables_number      62
_space_group_name_Hall           '-P 2ac 2n'
loop_
_symmetry_equiv_pos_site_id
_symmetry_equiv_pos_as_xyz
1 x,y,z
2 1/2-x,-y,1/2+z
3 -x,1/2+y,-z
4 1/2+x,1/2-y,1/2-z
5 -x,-y,-z
6 1/2+x,y,1/2-z
7 x,1/2-y,z
8 1/2-x,1/2+y,1/2+z
_cell_length_a                   21.7515(3)
_cell_length_b                   22.0969(5)
_cell_length_c                   10.2170(2)
_cell_angle_alpha                90
_cell_angle_beta                 90
_cell_angle_gamma                90
_cell_volume                     4910.71
_exptl_crystal_colour            orange
_exptl_crystal_description       column
_cell_formula_units_Z            4
_exptl_crystal_recrystallization_method 'ethanol/carbon disulfide'
loop_
_atom_site_label
_atom_site_type_symbol
_atom_site_fract_x
_atom_site_fract_y
_atom_site_fract_z
Br1 Br 0.53269(3) 0.2500 -0.07181(6)
N1 N 0.40945(18) 0.2500 0.0186(3)
C1 C 0.4714(2) 0.2500 0.0710(5)
C2 C 0.37215(15) 0.19943(13) 0.0134(3)
C3 C 0.31256(15) 0.21778(13) 0.0022(3)
C4 C 0.25895(16) 0.18030(15) 0.0414(3)
C5 C 0.21697(15) 0.21921(14) 0.1296(3)
C6 C 0.20539(16) 0.18694(17) 0.2488(3)
C7 C 0.19064(16) 0.21739(16) 0.3637(3)
C8 C 0.21531(18) 0.19694(18) 0.4870(3)
C9 C 0.2306(3) 0.2500 0.5628(5)
C10 C 0.2824(3) 0.2500 0.6436(4)
C11 C 0.3215(2) 0.19715(18) 0.6479(3)
C12 C 0.3846(2) 0.21700(18) 0.6560(3)
C13 C 0.4303(2) 0.1857(2) 0.5892(4)
C14 C 0.47775(19) 0.21860(19) 0.5204(4)
C15 C 0.4919(2) 0.1860(2) 0.3997(4)
C16 C 0.50404(17) 0.21761(17) 0.2851(4)
C17 C 0.48009(16) 0.19639(18) 0.1632(3)
C18 C 0.44416(18) 0.14602(17) 0.1579(3)
C19 C 0.39245(16) 0.13819(14) 0.0583(3)
C20 C 0.34044(19) 0.11244(14) 0.1445(3)
C21 C 0.28143(19) 0.13114(14) 0.1378(3)
C22 C 0.24426(17) 0.13396(16) 0.2545(3)
C23 C 0.2671(2) 0.11421(15) 0.3734(3)
C24 C 0.2527(2) 0.14645(17) 0.4930(3)
C25 C 0.3073(2) 0.14640(17) 0.5737(3)
C26 C 0.3541(2) 0.11406(17) 0.5048(4)
C27 C 0.4140(2) 0.13286(19) 0.5126(3)
C28 C 0.4529(2) 0.1334(2) 0.3954(4)
C29 C 0.42845(19) 0.11469(16) 0.2766(4)
C30 C 0.3659(2) 0.09481(15) 0.2682(3)
C31 C 0.3295(2) 0.09405(15) 0.3808(3)
C32 C 0.14286(16) 0.10103(16) -0.1296(3)
C33 C 0.1817(2) 0.0641(2) -0.2231(4)
H1 H 0.1997 0.0306 -0.1770
H2 H 0.2138 0.0891 -0.2585
H3 H 0.1564 0.0492 -0.2930
C34 C 0.09537(17) 0.06271(18) -0.0598(3)
H4 H 0.1154 0.0293 -0.0176
H5 H 0.0661 0.0477 -0.1222
H6 H 0.0746 0.0869 0.0045
C35 C 0.1145(2) 0.1539(2) -0.1996(5)
H7 H 0.1462 0.1769 -0.2423
H8 H 0.0936 0.1792 -0.1375
H9 H 0.0858 0.1395 -0.2636
C36 C 0.40802(17) 0.00373(15) -0.1261(3)
C37 C 0.34399(18) 0.0127(2) -0.1826(4)
H10 H 0.3138 0.0036 -0.1170
H11 H 0.3384 -0.0137 -0.2563
H12 H 0.3393 0.0540 -0.2103
C38 C 0.4155(2) -0.05980(15) -0.0698(4)
H13 H 0.3831 -0.0675 -0.0081
H14 H 0.4545 -0.0629 -0.0265
H15 H 0.4134 -0.0889 -0.1393
C39 C 0.45782(18) 0.01761(17) -0.2247(3)
H16 H 0.4974 0.0115 -0.1852
H17 H 0.4542 0.0589 -0.2529
H18 H 0.4536 -0.0088 -0.2988
O1 O 0.23091(11) 0.15715(11) -0.0749(2)
O2 O 0.18042(13) 0.11896(13) -0.0230(2)
O3 O 0.40739(12) 0.10445(9) -0.05755(19)
O4 O 0.41674(12) 0.04160(10) -0.0117(2)
C2F C 0.37215(15) 0.30057(13) 0.0134(3)
C3F C 0.31256(15) 0.28222(13) 0.0022(3)
C4F C 0.25895(16) 0.31970(15) 0.0414(3)
C5F C 0.21697(15) 0.28079(14) 0.1296(3)
C6F C 0.20539(16) 0.31306(17) 0.2488(3)
C7F C 0.19064(16) 0.28261(16) 0.3637(3)
C8F C 0.21531(18) 0.30306(18) 0.4870(3)
C11F C 0.3215(2) 0.30285(18) 0.6479(3)
C12F C 0.3846(2) 0.28300(18) 0.6560(3)
C13F C 0.4303(2) 0.3143(2) 0.5892(4)
C14F C 0.47775(19) 0.28140(19) 0.5204(4)
C15F C 0.4919(2) 0.3140(2) 0.3997(4)
C16F C 0.50404(17) 0.28239(17) 0.2851(4)
C17F C 0.48009(16) 0.30361(18) 0.1632(3)
C18F C 0.44416(18) 0.35398(17) 0.1579(3)
C19F C 0.39245(16) 0.36181(14) 0.0583(3)
C20F C 0.34044(19) 0.38756(14) 0.1445(3)
C21F C 0.28143(19) 0.36886(14) 0.1378(3)
C22F C 0.24426(17) 0.36604(16) 0.2545(3)
C23F C 0.2671(2) 0.38579(15) 0.3734(3)
C24F C 0.2527(2) 0.35355(17) 0.4930(3)
C25F C 0.3073(2) 0.35360(17) 0.5737(3)
C26F C 0.3541(2) 0.38594(17) 0.5048(4)
C27F C 0.4140(2) 0.36714(19) 0.5126(3)
C28F C 0.4529(2) 0.3666(2) 0.3954(4)
C29F C 0.42845(19) 0.38531(16) 0.2766(4)
C30F C 0.3659(2) 0.40519(15) 0.2682(3)
C31F C 0.3295(2) 0.40595(15) 0.3808(3)
C32F C 0.14286(16) 0.39897(16) -0.1296(3)
C33F C 0.1817(2) 0.4359(2) -0.2231(4)
H1F H 0.1997 0.4694 -0.1770
H2F H 0.2138 0.4109 -0.2585
H3F H 0.1564 0.4508 -0.2930
C34F C 0.09537(17) 0.43729(18) -0.0598(3)
H4F H 0.1154 0.4707 -0.0176
H5F H 0.0661 0.4523 -0.1222
H6F H 0.0746 0.4131 0.0045
C35F C 0.1145(2) 0.3461(2) -0.1996(5)
H7F H 0.1462 0.3231 -0.2423
H8F H 0.0936 0.3208 -0.1375
H9F H 0.0858 0.3605 -0.2636
C36F C 0.40802(17) 0.49627(15) -0.1261(3)
C37F C 0.34399(18) 0.4873(2) -0.1826(4)
H10F H 0.3138 0.4964 -0.1170
H11F H 0.3384 0.5137 -0.2563
H12F H 0.3393 0.4460 -0.2103
C38F C 0.4155(2) 0.55980(15) -0.0698(4)
H13F H 0.3831 0.5675 -0.0081
H14F H 0.4545 0.5629 -0.0265
H15F H 0.4134 0.5889 -0.1393
C39F C 0.45782(18) 0.48239(17) -0.2247(3)
H16F H 0.4974 0.4885 -0.1852
H17F H 0.4542 0.4411 -0.2529
H18F H 0.4536 0.5088 -0.2988
O1F O 0.23091(11) 0.34285(11) -0.0749(2)
O2F O 0.18042(13) 0.38104(13) -0.0230(2)
O3F O 0.40739(12) 0.39555(9) -0.05755(19)
O4F O 0.41674(12) 0.45840(10) -0.0117(2)
loop_
_geom_bond_atom_site_label_1
_geom_bond_atom_site_label_2
_geom_bond_site_symmetry_1
_geom_bond_site_symmetry_2
Br1 C1 1_555 1_555
N1 C1 1_555 1_555
C1 C17 1_555 1_555
C2 N1 1_555 1_555
C3 C2 1_555 1_555
C4 C3 1_555 1_555
C5 C4 1_555 1_555
C6 C5 1_555 1_555
C7 C6 1_555 1_555
C8 C7 1_555 1_555
C9 C8 1_555 1_555
C10 C9 1_555 1_555
C11 C10 1_555 1_555
C12 C11 1_555 1_555
C13 C12 1_555 1_555
C14 C13 1_555 1_555
C15 C14 1_555 1_555
C16 C15 1_555 1_555
C17 C16 1_555 1_555
C18 C17 1_555 1_555
C19 C2 1_555 1_555
C20 C19 1_555 1_555
C21 C4 1_555 1_555
C22 C6 1_555 1_555
C23 C22 1_555 1_555
C24 C8 1_555 1_555
C25 C11 1_555 1_555
C26 C25 1_555 1_555
C27 C13 1_555 1_555
C28 C15 1_555 1_555
C29 C18 1_555 1_555
C30 C20 1_555 1_555
C31 C23 1_555 1_555
C32 C33 1_555 1_555
C33 H1 1_555 1_555
H2 C33 1_555 1_555
H3 C33 1_555 1_555
C34 C32 1_555 1_555
H4 C34 1_555 1_555
H5 C34 1_555 1_555
H6 C34 1_555 1_555
C35 C32 1_555 1_555
H7 C35 1_555 1_555
H8 C35 1_555 1_555
H9 C35 1_555 1_555
C36 C37 1_555 1_555
C37 H10 1_555 1_555
H11 C37 1_555 1_555
H12 C37 1_555 1_555
C38 C36 1_555 1_555
H13 C38 1_555 1_555
H14 C38 1_555 1_555
H15 C38 1_555 1_555
C39 C36 1_555 1_555
H16 C39 1_555 1_555
H17 C39 1_555 1_555
H18 C39 1_555 1_555
O1 C4 1_555 1_555
O2 C32 1_555 1_555
O3 C19 1_555 1_555
O4 C36 1_555 1_555
C2F N1 1_555 1_555
C3F C3 1_555 1_555
C4F C3F 1_555 1_555
C5F C5 1_555 1_555
C6F C5F 1_555 1_555
C7F C7 1_555 1_555
C8F C9 1_555 1_555
C11F C10 1_555 1_555
C12F C12 1_555 1_555
C13F C12F 1_555 1_555
C14F C14 1_555 1_555
C15F C14F 1_555 1_555
C16F C16 1_555 1_555
C17F C1 1_555 1_555
C18F C17F 1_555 1_555
C19F C2F 1_555 1_555
C20F C19F 1_555 1_555
C21F C4F 1_555 1_555
C22F C6F 1_555 1_555
C23F C22F 1_555 1_555
C24F C8F 1_555 1_555
C25F C11F 1_555 1_555
C26F C25F 1_555 1_555
C27F C13F 1_555 1_555
C28F C15F 1_555 1_555
C29F C18F 1_555 1_555
C30F C20F 1_555 1_555
C31F C23F 1_555 1_555
C32F C33F 1_555 1_555
C33F H1F 1_555 1_555
H2F C33F 1_555 1_555
H3F C33F 1_555 1_555
C34F C32F 1_555 1_555
H4F C34F 1_555 1_555
H5F C34F 1_555 1_555
H6F C34F 1_555 1_555
C35F C32F 1_555 1_555
H7F C35F 1_555 1_555
H8F C35F 1_555 1_555
H9F C35F 1_555 1_555
C36F C37F 1_555 1_555
C37F H10F 1_555 1_555
H11F C37F 1_555 1_555
H12F C37F 1_555 1_555
C38F C36F 1_555 1_555
H13F C38F 1_555 1_555
H14F C38F 1_555 1_555
H15F C38F 1_555 1_555
C39F C36F 1_555 1_555
H16F C39F 1_555 1_555
H17F C39F 1_555 1_555
H18F C39F 1_555 1_555
O1F C4F 1_555 1_555
O2F C32F 1_555 1_555
O3F C19F 1_555 1_555
O4F C36F 1_555 1_555
C18 C19 1_555 1_555
C20 C21 1_555 1_555
C21 C22 1_555 1_555
C23 C24 1_555 1_555
C24 C25 1_555 1_555
C26 C27 1_555 1_555
C26 C31 1_555 1_555
C27 C28 1_555 1_555
C28 C29 1_555 1_555
C29 C30 1_555 1_555
C30 C31 1_555 1_555
O1 O2 1_555 1_555
O3 O4 1_555 1_555
C2F C3F 1_555 1_555
C4F C5F 1_555 1_555
C6F C7F 1_555 1_555
C7F C8F 1_555 1_555
C11F C12F 1_555 1_555
C13F C14F 1_555 1_555
C15F C16F 1_555 1_555
C16F C17F 1_555 1_555
C18F C19F 1_555 1_555
C20F C21F 1_555 1_555
C21F C22F 1_555 1_555
C23F C24F 1_555 1_555
C24F C25F 1_555 1_555
C26F C27F 1_555 1_555
C26F C31F 1_555 1_555
C27F C28F 1_555 1_555
C28F C29F 1_555 1_555
C29F C30F 1_555 1_555
C30F C31F 1_555 1_555
O1F O2F 1_555 1_555
O3F O4F 1_555 1_555

#END
