
#######################################################################
#
#                 Cambridge Crystallographic Data Centre
#                                CCDC 
#
#######################################################################
#
# If this CIF has been generated from an entry in the Cambridge 
# Structural Database, then it will include bibliographic, chemical, 
# crystal, experimental, refinement or atomic coordinate data resulting 
# from the CCDC's data processing and validation procedures.
#
#######################################################################

data_QOKRIS
_chemical_formula_moiety         'C78 H41 N1 O10,1.5(C1 S2)'
_chemical_name_systematic        
5,8,19,39-tetrakis(t-butylperoxo)-23-ethoxy-22-aza[open-cage]C60fullerene
_symmetry_cell_setting           monoclinic
_symmetry_space_group_name_H-M   'P 21/c'
_symmetry_Int_Tables_number      14
_space_group_name_Hall           '-P 2ybc'
loop_
_symmetry_equiv_pos_site_id
_symmetry_equiv_pos_as_xyz
1 x,y,z
2 -x,1/2+y,1/2-z
3 -x,-y,-z
4 x,1/2-y,1/2+z
_cell_length_a                   18.0042(3)
_cell_length_b                   19.4639(3)
_cell_length_c                   17.5579(2)
_cell_angle_alpha                90
_cell_angle_beta                 113.5385(6)
_cell_angle_gamma                90
_cell_volume                     5640.88
_exptl_crystal_colour            red
_exptl_crystal_description       'thin plate'
_cell_formula_units_Z            4
_exptl_crystal_recrystallization_method 'ethanol/carbon disulfide'
loop_
_atom_site_label
_atom_site_type_symbol
_atom_site_fract_x
_atom_site_fract_y
_atom_site_fract_z
O1 O 0.3333(2) 0.46192(18) 0.9497(2)
O2 O 0.18197(19) 0.39812(16) 0.9327(2)
O3 O 0.31205(19) 0.48136(17) 0.7714(2)
O4 O 0.2871(2) 0.44885(18) 0.6899(2)
O5 O 0.17261(19) 0.57303(17) 1.08345(19)
O6 O 0.2332(2) 0.62828(17) 1.1222(2)
O7 O 0.34617(18) 0.69931(16) 0.8311(2)
O8 O 0.39125(19) 0.64101(18) 0.8170(2)
O9 O 0.27608(19) 0.73718(16) 1.0097(2)
O10 O 0.2581(2) 0.80963(17) 1.0176(2)
N1 N 0.2200(2) 0.51614(19) 0.9487(2)
C1 C 0.2856(3) 0.5074(3) 0.9227(3)
C2 C 0.2747(3) 0.5546(2) 0.8553(3)
C3 C 0.2463(3) 0.5226(2) 0.7714(3)
C4 C 0.1653(3) 0.4822(2) 0.7535(3)
C5 C 0.1288(3) 0.4614(2) 0.8057(3)
C6 C 0.1551(3) 0.4646(2) 0.9030(3)
C7 C 0.0770(3) 0.4864(2) 0.9094(3)
C8 C 0.0686(3) 0.5400(2) 0.9532(3)
C9 C 0.1381(3) 0.5896(3) 0.9974(3)
C10 C 0.1983(3) 0.5842(2) 0.9577(3)
C11 C 0.2276(3) 0.6376(2) 0.9289(3)
C12 C 0.2595(3) 0.6211(2) 0.8661(3)
C13 C 0.2646(3) 0.6745(2) 0.8060(3)
C14 C 0.2266(3) 0.6451(2) 0.7181(3)
C15 C 0.2157(3) 0.5764(3) 0.7022(3)
C16 C 0.1427(3) 0.5532(3) 0.6365(3)
C17 C 0.1124(3) 0.4950(2) 0.6665(3)
C18 C 0.0293(3) 0.4828(2) 0.6345(3)
C19 C -0.0056(3) 0.4585(2) 0.6891(3)
C20 C 0.0428(3) 0.4493(2) 0.7726(3)
C21 C 0.0111(3) 0.4652(2) 0.8342(3)
C22 C -0.0648(3) 0.4957(2) 0.8113(3)
C23 C -0.0737(3) 0.5526(3) 0.8587(3)
C24 C -0.0073(3) 0.5758(2) 0.9274(3)
C25 C 0.0084(3) 0.6480(2) 0.9415(3)
C26 C 0.0951(3) 0.6595(2) 0.9759(3)
C27 C 0.1264(3) 0.7142(2) 0.9515(3)
C28 C 0.2069(3) 0.7119(2) 0.9409(3)
C29 C 0.1852(3) 0.7531(2) 0.8603(3)
C30 C 0.2105(3) 0.7360(2) 0.7994(3)
C31 C 0.1611(3) 0.7495(2) 0.7135(3)
C32 C 0.1694(3) 0.6938(2) 0.6640(3)
C33 C 0.1032(3) 0.6719(3) 0.5951(3)
C34 C 0.0891(3) 0.5999(3) 0.5813(3)
C35 C 0.0021(3) 0.5875(3) 0.5502(3)
C36 C -0.0268(3) 0.5307(3) 0.5757(3)
C37 C -0.0983(3) 0.5345(3) 0.5948(3)
C38 C -0.0855(3) 0.4898(2) 0.6642(3)
C39 C -0.1139(3) 0.5086(2) 0.7246(3)
C40 C -0.1537(3) 0.5745(3) 0.7181(3)
C41 C -0.1290(3) 0.6018(3) 0.8010(3)
C42 C -0.1151(3) 0.6717(3) 0.8148(3)
C43 C -0.0447(3) 0.6956(2) 0.8871(3)
C44 C -0.0118(3) 0.7547(2) 0.8628(3)
C45 C 0.0724(3) 0.7624(2) 0.8931(3)
C46 C 0.1086(3) 0.7864(2) 0.8383(3)
C47 C 0.0616(3) 0.8022(2) 0.7564(3)
C48 C 0.0878(3) 0.7832(2) 0.6919(3)
C49 C 0.0181(3) 0.7605(3) 0.6204(3)
C50 C 0.0247(3) 0.7053(3) 0.5729(3)
C51 C -0.0372(3) 0.6533(3) 0.5453(3)
C52 C -0.1050(3) 0.6584(3) 0.5646(3)
C53 C -0.1363(3) 0.5980(3) 0.5894(3)
C54 C -0.1647(3) 0.6185(3) 0.6524(3)
C55 C -0.1498(3) 0.6917(3) 0.6674(3)
C56 C -0.1253(3) 0.7176(3) 0.7469(3)
C57 C -0.0618(3) 0.7685(2) 0.7768(3)
C58 C -0.0265(3) 0.7922(2) 0.7241(3)
C59 C -0.0523(3) 0.7658(2) 0.6407(3)
C60 C -0.1132(3) 0.7158(3) 0.6129(3)
C61 C 0.1894(4) 0.3852(3) 1.0163(3)
H1 H 0.1358 0.3735 1.0160
H2 H 0.2098 0.4268 1.0508
C62 C 0.2464(4) 0.3275(3) 1.0514(4)
H3 H 0.2513 0.3179 1.1080
H4 H 0.2996 0.3398 1.0526
H5 H 0.2259 0.2865 1.0169
C63 C 0.3203(4) 0.3802(3) 0.7035(4)
C64 C 0.3019(5) 0.3570(4) 0.6156(5)
H6 H 0.2431 0.3551 0.5841
H7 H 0.3251 0.3113 0.6167
H8 H 0.3256 0.3895 0.5890
C65 C 0.4098(4) 0.3826(4) 0.7531(5)
H9 H 0.4355 0.4093 0.7229
H10 H 0.4316 0.3358 0.7620
H11 H 0.4209 0.4044 0.8069
C66 C 0.2777(7) 0.3385(4) 0.7468(8)
H12 H 0.2194 0.3375 0.7124
H13 H 0.2872 0.3594 0.8006
H14 H 0.2989 0.2914 0.7553
C67 C 0.3048(3) 0.5974(3) 1.1868(3)
C68 C 0.3476(4) 0.5511(3) 1.1473(4)
H15 H 0.3145 0.5101 1.1244
H16 H 0.4004 0.5373 1.1894
H17 H 0.3555 0.5760 1.1026
C69 C 0.3545(3) 0.6601(3) 1.2226(4)
H18 H 0.3686 0.6824 1.1802
H19 H 0.4041 0.6469 1.2699
H20 H 0.3233 0.6921 1.2415
C70 C 0.2806(4) 0.5607(4) 1.2484(4)
H21 H 0.2488 0.5198 1.2223
H22 H 0.2479 0.5914 1.2669
H23 H 0.3293 0.5468 1.2964
C71 C 0.4724(3) 0.6424(3) 0.8819(4)
C72 C 0.5132(4) 0.7094(3) 0.8738(5)
H24 H 0.5116 0.7130 0.8176
H25 H 0.5696 0.7096 0.9142
H26 H 0.4844 0.7485 0.8846
C73 C 0.5092(4) 0.5805(3) 0.8548(4)
H27 H 0.5085 0.5893 0.7996
H28 H 0.4773 0.5393 0.8530
H29 H 0.5652 0.5736 0.8946
C74 C 0.4728(4) 0.6328(4) 0.9663(4)
H30 H 0.4461 0.5893 0.9681
H31 H 0.4438 0.6709 0.9786
H32 H 0.5289 0.6318 1.0076
C75 C 0.3309(3) 0.8502(3) 1.0342(3)
C76 C 0.2998(4) 0.9219(3) 1.0380(5)
H33 H 0.2576 0.9339 0.9838
H34 H 0.3446 0.9548 1.0524
H35 H 0.2772 0.9234 1.0803
C77 C 0.3953(4) 0.8294(4) 1.1155(4)
H36 H 0.3750 0.8345 1.1593
H37 H 0.4430 0.8586 1.1280
H38 H 0.4101 0.7813 1.1126
C78 C 0.3583(4) 0.8438(3) 0.9630(4)
H39 H 0.3141 0.8580 0.9111
H40 H 0.3728 0.7960 0.9583
H41 H 0.4055 0.8733 0.9739
C79 C 0.394(5) 0.396(5) 0.372(5)
S1 S 0.35835(19) 0.36809(19) 0.2783(2)
S2 S 0.3986(11) 0.4220(14) 0.4501(13)
C80 C 0.5000 0.5000 0.5000
S3 S 0.5002(4) 0.5173(4) 0.4167(5)
S3B S 0.4998(4) 0.4827(4) 0.5833(5)
C81? C 0.3696(6) 0.3386(9) 0.3603(7)
S4? S 0.3793(3) 0.3094(5) 0.4387(4)
loop_
_geom_bond_atom_site_label_1
_geom_bond_atom_site_label_2
_geom_bond_site_symmetry_1
_geom_bond_site_symmetry_2
O1 C1 1_555 1_555
O2 C6 1_555 1_555
O3 O4 1_555 1_555
O4 C63 1_555 1_555
O5 O6 1_555 1_555
O6 C67 1_555 1_555
O7 O8 1_555 1_555
O8 C71 1_555 1_555
O9 O10 1_555 1_555
O10 C75 1_555 1_555
N1 C1 1_555 1_555
C1 C2 1_555 1_555
C2 C3 1_555 1_555
C3 O3 1_555 1_555
C4 C3 1_555 1_555
C5 C4 1_555 1_555
C6 N1 1_555 1_555
C7 C6 1_555 1_555
C8 C7 1_555 1_555
C9 O5 1_555 1_555
C10 N1 1_555 1_555
C11 C10 1_555 1_555
C12 C2 1_555 1_555
C13 O7 1_555 1_555
C14 C13 1_555 1_555
C15 C3 1_555 1_555
C16 C15 1_555 1_555
C17 C4 1_555 1_555
C18 C17 1_555 1_555
C19 C18 1_555 1_555
C20 C5 1_555 1_555
C21 C7 1_555 1_555
C22 C21 1_555 1_555
C23 C22 1_555 1_555
C24 C8 1_555 1_555
C25 C24 1_555 1_555
C26 C9 1_555 1_555
C27 C26 1_555 1_555
C28 O9 1_555 1_555
C29 C28 1_555 1_555
C30 C13 1_555 1_555
C31 C30 1_555 1_555
C32 C14 1_555 1_555
C33 C32 1_555 1_555
C34 C16 1_555 1_555
C35 C34 1_555 1_555
C36 C18 1_555 1_555
C37 C36 1_555 1_555
C38 C19 1_555 1_555
C39 C22 1_555 1_555
C40 C39 1_555 1_555
C41 C23 1_555 1_555
C42 C41 1_555 1_555
C43 C25 1_555 1_555
C44 C43 1_555 1_555
C45 C27 1_555 1_555
C46 C29 1_555 1_555
C47 C46 1_555 1_555
C48 C31 1_555 1_555
C49 C48 1_555 1_555
C50 C33 1_555 1_555
C51 C35 1_555 1_555
C52 C51 1_555 1_555
C53 C37 1_555 1_555
C54 C40 1_555 1_555
C55 C54 1_555 1_555
C56 C42 1_555 1_555
C57 C44 1_555 1_555
C58 C47 1_555 1_555
C59 C49 1_555 1_555
C60 C52 1_555 1_555
C61 O2 1_555 1_555
H1 C61 1_555 1_555
H2 C61 1_555 1_555
C62 C61 1_555 1_555
H3 C62 1_555 1_555
H4 C62 1_555 1_555
H5 C62 1_555 1_555
C63 C64 1_555 1_555
C64 H6 1_555 1_555
H7 C64 1_555 1_555
H8 C64 1_555 1_555
C65 C63 1_555 1_555
H9 C65 1_555 1_555
H10 C65 1_555 1_555
H11 C65 1_555 1_555
C66 C63 1_555 1_555
H12 C66 1_555 1_555
H13 C66 1_555 1_555
H14 C66 1_555 1_555
C67 C68 1_555 1_555
C68 H15 1_555 1_555
H16 C68 1_555 1_555
H17 C68 1_555 1_555
C69 C67 1_555 1_555
H18 C69 1_555 1_555
H19 C69 1_555 1_555
H20 C69 1_555 1_555
C70 C67 1_555 1_555
H21 C70 1_555 1_555
H22 C70 1_555 1_555
H23 C70 1_555 1_555
C71 C72 1_555 1_555
C72 H24 1_555 1_555
H25 C72 1_555 1_555
H26 C72 1_555 1_555
C73 C71 1_555 1_555
H27 C73 1_555 1_555
H28 C73 1_555 1_555
H29 C73 1_555 1_555
C74 C71 1_555 1_555
H30 C74 1_555 1_555
H31 C74 1_555 1_555
H32 C74 1_555 1_555
C75 C76 1_555 1_555
C76 H33 1_555 1_555
H34 C76 1_555 1_555
H35 C76 1_555 1_555
C77 C75 1_555 1_555
H36 C77 1_555 1_555
H37 C77 1_555 1_555
H38 C77 1_555 1_555
C78 C75 1_555 1_555
H39 C78 1_555 1_555
H40 C78 1_555 1_555
H41 C78 1_555 1_555
C79 S1 1_555 1_555
S2 C79 1_555 1_555
C80 S3 1_555 1_555
S3B C80 1_555 1_555
C5 C6 1_555 1_555
C8 C9 1_555 1_555
C9 C10 1_555 1_555
C11 C12 1_555 1_555
C11 C28 1_555 1_555
C12 C13 1_555 1_555
C14 C15 1_555 1_555
C16 C17 1_555 1_555
C19 C20 1_555 1_555
C20 C21 1_555 1_555
C23 C24 1_555 1_555
C25 C26 1_555 1_555
C27 C28 1_555 1_555
C29 C30 1_555 1_555
C31 C32 1_555 1_555
C33 C34 1_555 1_555
C35 C36 1_555 1_555
C37 C38 1_555 1_555
C38 C39 1_555 1_555
C40 C41 1_555 1_555
C42 C43 1_555 1_555
C44 C45 1_555 1_555
C45 C46 1_555 1_555
C47 C48 1_555 1_555
C49 C50 1_555 1_555
C50 C51 1_555 1_555
C52 C53 1_555 1_555
C53 C54 1_555 1_555
C55 C56 1_555 1_555
C55 C60 1_555 1_555
C56 C57 1_555 1_555
C57 C58 1_555 1_555
C58 C59 1_555 1_555
C59 C60 1_555 1_555

#END
