
#######################################################################
#
#                 Cambridge Crystallographic Data Centre
#                                CCDC 
#
#######################################################################
#
# If this CIF has been generated from an entry in the Cambridge 
# Structural Database, then it will include bibliographic, chemical, 
# crystal, experimental, refinement or atomic coordinate data resulting 
# from the CCDC's data processing and validation procedures.
#
#######################################################################

data_QOLQIS
_chemical_name_common            3,3-bis(2-Cyanoethyl)-2,4-pentanedione
_chemical_formula_moiety         'C11 H14 N2 O2'
_chemical_name_systematic        4,4-Diacetylheptanedinitrile
_symmetry_cell_setting           monoclinic
_symmetry_space_group_name_H-M   'C 2/c'
_symmetry_Int_Tables_number      15
_space_group_name_Hall           '-C 2yn'
loop_
_symmetry_equiv_pos_site_id
_symmetry_equiv_pos_as_xyz
1 x,y,z
2 1/2+x,1/2+y,z
3 -x,y,1/2-z
4 1/2-x,1/2+y,1/2-z
5 -x,-y,-z
6 1/2-x,1/2-y,-z
7 x,-y,1/2+z
8 1/2+x,1/2-y,1/2+z
_cell_length_a                   12.562(3)
_cell_length_b                   7.8700(16)
_cell_length_c                   10.941(2)
_cell_angle_alpha                90
_cell_angle_beta                 84.91(3)
_cell_angle_gamma                90
_cell_volume                     1077.39
_exptl_crystal_colour            colorless
_exptl_crystal_description       block
_cell_formula_units_Z            4
_exptl_crystal_recrystallization_method acetonitrile
loop_
_atom_site_label
_atom_site_type_symbol
_atom_site_fract_x
_atom_site_fract_y
_atom_site_fract_z
O1 O 0.65270(17) -0.0258(3) 0.3475(2)
N1 N 0.3630(3) 0.4652(4) 0.5714(3)
C1 C 0.6246(3) -0.1760(4) 0.1653(3)
H1 H 0.6530 -0.1210 0.0912
H2 H 0.5608 -0.2368 0.1503
H3 H 0.6765 -0.2541 0.1920
C2 C 0.5988(2) -0.0454(4) 0.2629(3)
C3 C 0.5000 0.0686(5) 0.2500
C4 C 0.3719(2) 0.3939(4) 0.4802(3)
C5 C 0.3865(3) 0.3008(4) 0.3639(3)
H4 H 0.4002 0.3802 0.2966
H5 H 0.3218 0.2383 0.3511
C6 C 0.4802(2) 0.1776(4) 0.3665(2)
H6 H 0.4670 0.1029 0.4367
H7 H 0.5445 0.2421 0.3777
O1B O 0.34730(17) -0.0258(3) 0.1525(2)
N1B N 0.6370(3) 0.4652(4) -0.0714(3)
C1B C 0.3754(3) -0.1760(4) 0.3347(3)
H1B H 0.3470 -0.1210 0.4088
H2B H 0.4392 -0.2368 0.3497
H3B H 0.3235 -0.2541 0.3080
C2B C 0.4012(2) -0.0454(4) 0.2371(3)
C4B C 0.6281(2) 0.3939(4) 0.0198(3)
C5B C 0.6135(3) 0.3008(4) 0.1361(3)
H4B H 0.5998 0.3802 0.2034
H5B H 0.6782 0.2383 0.1489
C6B C 0.5198(2) 0.1776(4) 0.1335(2)
H6B H 0.5330 0.1029 0.0633
H7B H 0.4555 0.2421 0.1223
loop_
_geom_bond_atom_site_label_1
_geom_bond_atom_site_label_2
_geom_bond_site_symmetry_1
_geom_bond_site_symmetry_2
O1 C2 1_555 1_555
N1 C4 1_555 1_555
C1 H1 1_555 1_555
H2 C1 1_555 1_555
H3 C1 1_555 1_555
C2 C1 1_555 1_555
C3 C2 1_555 1_555
C4 C5 1_555 1_555
C5 H4 1_555 1_555
H5 C5 1_555 1_555
C6 C3 1_555 1_555
H6 C6 1_555 1_555
H7 C6 1_555 1_555
O1B C2B 1_555 1_555
N1B C4B 1_555 1_555
C1B H1B 1_555 1_555
H2B C1B 1_555 1_555
H3B C1B 1_555 1_555
C2B C3 1_555 1_555
C4B C5B 1_555 1_555
C5B H4B 1_555 1_555
H5B C5B 1_555 1_555
C6B C3 1_555 1_555
H6B C6B 1_555 1_555
H7B C6B 1_555 1_555
C5 C6 1_555 1_555
C1B C2B 1_555 1_555
C5B C6B 1_555 1_555

#END
