
#######################################################################
#
#                 Cambridge Crystallographic Data Centre
#                                CCDC 
#
#######################################################################
#
# If this CIF has been generated from an entry in the Cambridge 
# Structural Database, then it will include bibliographic, chemical, 
# crystal, experimental, refinement or atomic coordinate data resulting 
# from the CCDC's data processing and validation procedures.
#
#######################################################################

data_QOLQEO
_chemical_formula_moiety         'C17 H25 Cl1 N3 O3 1+,Cl1 1-,H2 O1'
_chemical_name_systematic        
'3-((4-Amino-5-chloro-2-ethoxybenzamido)methyl)pyrrolo(2,1-c)(1,4)oxazin-5-ium chloride monohydrate'
_chemical_properties_biological  
'compound is a derivative of mosapride which is a pharmaceutical compound possessing gastrointestinal pro-kinetic activity'
_symmetry_cell_setting           orthorhombic
_symmetry_space_group_name_H-M   'P 21 21 21'
_symmetry_Int_Tables_number      19
_space_group_name_Hall           'P 2ac 2ab'
loop_
_symmetry_equiv_pos_site_id
_symmetry_equiv_pos_as_xyz
1 x,y,z
2 1/2-x,-y,1/2+z
3 -x,1/2+y,1/2-z
4 1/2+x,1/2-y,-z
_cell_length_a                   8.0984(9)
_cell_length_b                   11.1594(13)
_cell_length_c                   21.843(3)
_cell_angle_alpha                90
_cell_angle_beta                 90
_cell_angle_gamma                90
_cell_volume                     1974.02
_exptl_crystal_colour            colorless
_exptl_crystal_description       block
_cell_formula_units_Z            4
_exptl_crystal_recrystallization_method methanol
loop_
_atom_site_label
_atom_site_type_symbol
_atom_site_fract_x
_atom_site_fract_y
_atom_site_fract_z
C1 C 0.6257(3) 0.7564(2) 0.77046(11)
C2 C 0.4701(4) 0.8084(3) 0.76571(13)
C3 C 0.3807(3) 0.8034(3) 0.71361(13)
C4 C 0.4363(4) 0.7438(2) 0.66142(12)
C5 C 0.5913(4) 0.6900(3) 0.66594(13)
C6 C 0.6851(3) 0.6961(2) 0.71801(12)
C7 C 0.9124(4) 0.5928(3) 0.66895(12)
H1 H 0.9261 0.6511 0.6364
H2 H 0.8429 0.5283 0.6541
C8 C 1.0757(4) 0.5452(3) 0.68833(13)
H3 H 1.0590 0.4780 0.7150
H4 H 1.1371 0.5201 0.6530
H5 H 1.1360 0.6065 0.7096
C9 C 0.7127(4) 0.7704(2) 0.82975(12)
C10 C 0.9629(4) 0.7321(3) 0.88920(13)
H6 H 0.8921 0.7486 0.9240
H7 H 1.0431 0.7964 0.8860
C11 C 1.0507(4) 0.6148(3) 0.89873(12)
H8 H 0.9690 0.5504 0.9021
C12 C 1.2222(4) 0.4781(3) 0.84947(14)
H9 H 1.2880 0.4646 0.8130
H10 H 1.1348 0.4186 0.8502
C13 C 1.3298(4) 0.4625(3) 0.90549(13)
H11 H 1.3596 0.3777 0.9090
C14 C 1.1561(4) 0.6167(3) 0.95570(11)
H12 H 1.2381 0.6798 0.9527
H13 H 1.0878 0.6323 0.9913
C15 C 1.4860(4) 0.5363(3) 0.90920(16)
H14 H 1.4693 0.6151 0.8916
H15 H 1.5759 0.4969 0.8878
C16 C 1.5225(5) 0.5453(4) 0.97717(17)
H16 H 1.6182 0.4971 0.9876
H17 H 1.5443 0.6278 0.9886
C17 C 1.3705(4) 0.4991(3) 1.01002(14)
H18 H 1.3891 0.4191 1.0259
H19 H 1.3406 0.5516 1.0436
Cl1 Cl 0.18901(10) 0.87543(9) 0.70977(4)
N1 N 0.3486(4) 0.7381(3) 0.60884(12)
H20 H 0.266(5) 0.780(3) 0.5990(16)
H21 H 0.394(4) 0.717(3) 0.5755(15)
N2 N 0.8652(3) 0.7270(2) 0.83413(10)
H22 H 0.9079 0.6941 0.8023
N3 N 1.2391(3) 0.4983(2) 0.96212(11)
O1 O 0.8390(2) 0.64810(19) 0.72151(8)
O2 O 0.6491(3) 0.8222(2) 0.87342(8)
O3 O 1.1512(3) 0.59417(19) 0.84669(9)
H23 H 0.426(3) 0.845(2) 0.8005(12)
H24 H 0.627(3) 0.648(3) 0.6312(12)
H25 H 1.161(3) 0.443(2) 0.9736(11)
Cl2 Cl 0.92851(11) 0.35057(8) 0.99188(4)
O4 O 0.3524(4) 0.8923(3) 0.92869(14)
H26 H 0.368(4) 0.954(3) 0.9456(15)
H27 H 0.444(6) 0.887(4) 0.9073(18)
loop_
_geom_bond_atom_site_label_1
_geom_bond_atom_site_label_2
_geom_bond_site_symmetry_1
_geom_bond_site_symmetry_2
C1 C2 1_555 1_555
C2 C3 1_555 1_555
C3 C4 1_555 1_555
C4 C5 1_555 1_555
C5 C6 1_555 1_555
C6 C1 1_555 1_555
C7 H1 1_555 1_555
H2 C7 1_555 1_555
C8 C7 1_555 1_555
H3 C8 1_555 1_555
H4 C8 1_555 1_555
H5 C8 1_555 1_555
C9 C1 1_555 1_555
C10 H6 1_555 1_555
H7 C10 1_555 1_555
C11 C10 1_555 1_555
H8 C11 1_555 1_555
C12 H9 1_555 1_555
H10 C12 1_555 1_555
C13 C12 1_555 1_555
H11 C13 1_555 1_555
C14 C11 1_555 1_555
H12 C14 1_555 1_555
H13 C14 1_555 1_555
C15 C13 1_555 1_555
H14 C15 1_555 1_555
H15 C15 1_555 1_555
C16 C15 1_555 1_555
H16 C16 1_555 1_555
H17 C16 1_555 1_555
C17 C16 1_555 1_555
H18 C17 1_555 1_555
H19 C17 1_555 1_555
Cl1 C3 1_555 1_555
N1 C4 1_555 1_555
H20 N1 1_555 1_555
H21 N1 1_555 1_555
N2 C9 1_555 1_555
H22 N2 1_555 1_555
N3 C13 1_555 1_555
O1 C6 1_555 1_555
O2 C9 1_555 1_555
O3 C11 1_555 1_555
H23 C2 1_555 1_555
H24 C5 1_555 1_555
H25 N3 1_555 1_555
O4 H26 1_555 1_555
H27 O4 1_555 1_555
C7 O1 1_555 1_555
C10 N2 1_555 1_555
C12 O3 1_555 1_555
C14 N3 1_555 1_555
C17 N3 1_555 1_555

#END
