
#######################################################################
#
#                 Cambridge Crystallographic Data Centre
#                                CCDC 
#
#######################################################################
#
# If this CIF has been generated from an entry in the Cambridge 
# Structural Database, then it will include bibliographic, chemical, 
# crystal, experimental, refinement or atomic coordinate data resulting 
# from the CCDC's data processing and validation procedures.
#
#######################################################################

data_QOLTOC
_chemical_formula_moiety         'C34 H24'
_chemical_name_systematic        
2,2'-(2,2-Diphenylethene-1,1-diyl)dinaphthalene
_symmetry_cell_setting           tetragonal
_symmetry_space_group_name_H-M   'I 41/a'
_symmetry_Int_Tables_number      88
_space_group_name_Hall           '-I 4ad'
loop_
_symmetry_equiv_pos_site_id
_symmetry_equiv_pos_as_xyz
1 x,y,z
2 1/2-x,-y,1/2+z
3 3/4-y,1/4+x,1/4+z
4 3/4+y,3/4-x,3/4+z
5 1/2+x,1/2+y,1/2+z
6 -x,1/2-y,z
7 1/4-y,3/4+x,3/4+z
8 1/4+y,1/4-x,1/4+z
9 -x,-y,-z
10 1/2+x,y,1/2-z
11 1/4+y,3/4-x,3/4-z
12 1/4-y,1/4+x,1/4-z
13 1/2-x,1/2-y,1/2-z
14 x,1/2+y,-z
15 3/4+y,1/4-x,1/4-z
16 3/4-y,3/4+x,3/4-z
_cell_length_a                   41.199(4)
_cell_length_b                   41.199(4)
_cell_length_c                   5.7760(5)
_cell_angle_alpha                90
_cell_angle_beta                 90
_cell_angle_gamma                90
_cell_volume                     9803.94
_exptl_crystal_colour            colorless
_exptl_crystal_description       block
_cell_formula_units_Z            16
loop_
_atom_site_label
_atom_site_type_symbol
_atom_site_fract_x
_atom_site_fract_y
_atom_site_fract_z
C1 C 0.12311(4) 0.08437(4) 0.0483(3)
C2 C 0.14307(4) 0.06632(4) -0.0901(3)
H1 H 0.1502 0.0752 -0.2291
C3 C 0.15324(4) 0.03461(4) -0.0297(3)
C4 C 0.17355(5) 0.01586(5) -0.1736(4)
H2 H 0.1807 0.0243 -0.3137
C5 C 0.18275(6) -0.01470(5) -0.1089(5)
H3 H 0.1962 -0.0268 -0.2053
C6 C 0.17224(6) -0.02792(5) 0.0993(5)
H4 H 0.1785 -0.0488 0.1403
C7 C 0.15289(5) -0.01056(5) 0.2430(4)
H5 H 0.1462 -0.0196 0.3827
C8 C 0.14276(4) 0.02123(4) 0.1822(3)
C9 C 0.12274(4) 0.04040(5) 0.3262(3)
H6 H 0.1160 0.0321 0.4681
C10 C 0.11313(4) 0.07063(4) 0.2617(3)
H7 H 0.0997 0.0825 0.3596
C11 C 0.14087(4) 0.13883(4) -0.1038(3)
C12 C 0.16944(4) 0.14073(4) 0.0152(3)
H8 H 0.1717 0.1290 0.1518
C13 C 0.19565(4) 0.16001(4) -0.0631(3)
C14 C 0.22470(4) 0.16283(4) 0.0632(3)
H9 H 0.2270 0.1518 0.2026
C15 C 0.24942(5) 0.18147(5) -0.0157(4)
H10 H 0.2684 0.1832 0.0708
C16 C 0.24674(5) 0.19813(5) -0.2257(4)
H11 H 0.2639 0.2107 -0.2786
C17 C 0.21912(5) 0.19592(4) -0.3524(4)
H12 H 0.2176 0.2069 -0.4927
C18 C 0.19249(4) 0.17710(4) -0.2742(3)
C19 C 0.16304(4) 0.17439(4) -0.3968(3)
H13 H 0.1606 0.1853 -0.5368
C20 C 0.13801(4) 0.15614(4) -0.3143(3)
H14 H 0.1187 0.1551 -0.3978
C21 C 0.11376(4) 0.11814(4) -0.0166(3)
C22 C 0.08313(4) 0.12979(4) 0.0062(3)
C23 C 0.07511(4) 0.16492(4) -0.0155(3)
C24 C 0.09005(5) 0.18788(4) 0.1229(4)
H15 H 0.1063 0.1814 0.2251
C25 C 0.08140(6) 0.22006(5) 0.1124(5)
H16 H 0.0915 0.2350 0.2094
C26 C 0.05831(6) 0.23032(5) -0.0374(5)
H17 H 0.0528 0.2522 -0.0452
C27 C 0.04315(6) 0.20821(6) -0.1773(4)
H18 H 0.0274 0.2151 -0.2814
C28 C 0.05118(5) 0.17573(5) -0.1646(4)
H19 H 0.0403 0.1609 -0.2578
C29 C 0.05480(4) 0.10860(4) 0.0592(3)
C30 C 0.03576(5) 0.11406(5) 0.2522(4)
H20 H 0.0409 0.1310 0.3521
C31 C 0.00908(5) 0.09458(6) 0.2985(4)
H21 H -0.0032 0.0982 0.4313
C32 C 0.00070(5) 0.07026(5) 0.1516(5)
H22 H -0.0174 0.0574 0.1821
C33 C 0.01895(5) 0.06484(5) -0.0403(5)
H23 H 0.0133 0.0482 -0.1411
C34 C 0.04581(4) 0.08381(5) -0.0875(4)
H24 H 0.0580 0.0798 -0.2201
loop_
_geom_bond_atom_site_label_1
_geom_bond_atom_site_label_2
_geom_bond_site_symmetry_1
_geom_bond_site_symmetry_2
C1 C2 1_555 1_555
C2 H1 1_555 1_555
C3 C2 1_555 1_555
C4 C3 1_555 1_555
H2 C4 1_555 1_555
C5 C4 1_555 1_555
H3 C5 1_555 1_555
C6 C5 1_555 1_555
H4 C6 1_555 1_555
C7 C6 1_555 1_555
H5 C7 1_555 1_555
C8 C3 1_555 1_555
C9 C8 1_555 1_555
H6 C9 1_555 1_555
C10 C1 1_555 1_555
H7 C10 1_555 1_555
C11 C12 1_555 1_555
C12 H8 1_555 1_555
C13 C12 1_555 1_555
C14 C13 1_555 1_555
H9 C14 1_555 1_555
C15 C14 1_555 1_555
H10 C15 1_555 1_555
C16 C15 1_555 1_555
H11 C16 1_555 1_555
C17 C16 1_555 1_555
H12 C17 1_555 1_555
C18 C13 1_555 1_555
C19 C18 1_555 1_555
H13 C19 1_555 1_555
C20 C11 1_555 1_555
H14 C20 1_555 1_555
C21 C1 1_555 1_555
C22 C21 1_555 1_555
C23 C22 1_555 1_555
C24 C23 1_555 1_555
H15 C24 1_555 1_555
C25 C24 1_555 1_555
H16 C25 1_555 1_555
C26 C25 1_555 1_555
H17 C26 1_555 1_555
C27 C26 1_555 1_555
H18 C27 1_555 1_555
C28 C23 1_555 1_555
H19 C28 1_555 1_555
C29 C22 1_555 1_555
C30 C29 1_555 1_555
H20 C30 1_555 1_555
C31 C30 1_555 1_555
H21 C31 1_555 1_555
C32 C31 1_555 1_555
H22 C32 1_555 1_555
C33 C32 1_555 1_555
H23 C33 1_555 1_555
C34 C29 1_555 1_555
H24 C34 1_555 1_555
C7 C8 1_555 1_555
C9 C10 1_555 1_555
C11 C21 1_555 1_555
C17 C18 1_555 1_555
C19 C20 1_555 1_555
C27 C28 1_555 1_555
C33 C34 1_555 1_555

#END
