
#######################################################################
#
#                 Cambridge Crystallographic Data Centre
#                                CCDC 
#
#######################################################################
#
# If this CIF has been generated from an entry in the Cambridge 
# Structural Database, then it will include bibliographic, chemical, 
# crystal, experimental, refinement or atomic coordinate data resulting 
# from the CCDC's data processing and validation procedures.
#
#######################################################################

data_QOLTUI
_chemical_formula_moiety         'C34 H24'
_chemical_name_systematic        
1,1'-(2,2-Diphenylethene-1,1-diyl)dinaphthalene
_symmetry_cell_setting           monoclinic
_symmetry_space_group_name_H-M   'P 21/c'
_symmetry_Int_Tables_number      14
_space_group_name_Hall           '-P 2ybc'
loop_
_symmetry_equiv_pos_site_id
_symmetry_equiv_pos_as_xyz
1 x,y,z
2 -x,1/2+y,1/2-z
3 -x,-y,-z
4 x,1/2-y,1/2+z
_cell_length_a                   13.7789(17)
_cell_length_b                   9.4646(12)
_cell_length_c                   19.552(3)
_cell_angle_alpha                90
_cell_angle_beta                 109.107(2)
_cell_angle_gamma                90
_cell_volume                     2409.34
_exptl_crystal_colour            colorless
_exptl_crystal_description       block
_cell_formula_units_Z            4
loop_
_atom_site_label
_atom_site_type_symbol
_atom_site_fract_x
_atom_site_fract_y
_atom_site_fract_z
C1 C 0.4526(3) 0.1715(3) 0.07378(15)
H1 H 0.4881 0.0892 0.0711
C2 C 0.3652(2) 0.1648(2) 0.09311(14)
H2 H 0.3420 0.0780 0.1038
C3 C 0.31168(17) 0.2869(2) 0.09661(11)
H3 H 0.2521 0.2818 0.1090
C4 C 0.22357(19) 0.8018(3) -0.10510(12)
H4 H 0.2087 0.8549 -0.1473
C5 C 0.29184(15) 0.78473(19) 0.02366(10)
H5 H 0.3233 0.8281 0.0681
C6 C 0.22117(16) 0.5809(2) -0.04595(10)
H6 H 0.2045 0.4854 -0.0491
C7 C 0.4873(2) 0.2989(3) 0.05855(15)
H7 H 0.5468 0.3034 0.0461
C8 C 0.43418(17) 0.4210(2) 0.06160(11)
H8 H 0.4574 0.5071 0.0500
C9 C 0.4060(2) 0.3232(3) 0.33768(12)
H9 H 0.4354 0.2664 0.3780
C10 C 0.46679(19) 0.3906(3) 0.30546(12)
H10 H 0.5376 0.3786 0.3234
C11 C 0.1568(3) 0.9918(3) 0.18547(15)
H11 H 0.1347 1.0817 0.1927
C12 C 0.2505(2) 0.9449(3) 0.22919(13)
H12 H 0.2912 1.0016 0.2664
C13 C 0.34670(14) 0.41692(19) 0.08172(9)
C14 C 0.2967(2) 0.3396(2) 0.30958(11)
C15 C 0.26987(18) 0.8639(2) -0.03925(12)
H13 H 0.2866 0.9594 -0.0367
C16 C 0.26784(13) 0.64244(18) 0.02155(9)
C17 C 0.19930(19) 0.6612(3) -0.10855(11)
H14 H 0.1678 0.6190 -0.1533
C18 C 0.42349(17) 0.4777(2) 0.24561(11)
H15 H 0.4667 0.5243 0.2251
C19 C 0.14575(18) 0.4372(2) 0.22054(13)
H16 H 0.1148 0.4936 0.1804
C20 C 0.09273(19) 0.9055(2) 0.12913(12)
C21 C -0.03085(19) 0.7339(3) 0.02075(15)
H17 H -0.0732 0.6772 -0.0158
C22 C 0.06415(17) 0.6851(2) 0.06103(12)
H18 H 0.0856 0.5961 0.0517
C23 C 0.29464(14) 0.55255(18) 0.08786(9)
C24 C 0.27860(14) 0.58851(19) 0.15041(9)
C25 C 0.32042(15) 0.4968(2) 0.21623(9)
C26 C 0.25487(16) 0.42721(19) 0.24813(10)
C27 C 0.2320(3) 0.2696(3) 0.34109(15)
H19 H 0.2606 0.2140 0.3820
C28 C 0.1298(3) 0.2816(3) 0.31320(17)
H20 H 0.0880 0.2342 0.3345
C29 C 0.0860(2) 0.3652(3) 0.25214(16)
H21 H 0.0149 0.3720 0.2327
C30 C 0.23039(16) 0.72484(19) 0.16177(10)
C31 C 0.13087(16) 0.7708(2) 0.11771(11)
C32 C 0.2843(2) 0.8105(2) 0.21735(12)
H22 H 0.3466 0.7781 0.2489
C33 C -0.0062(2) 0.9476(3) 0.08545(17)
H23 H -0.0309 1.0354 0.0934
C34 C -0.0652(2) 0.8654(4) 0.03310(19)
H24 H -0.1299 0.8966 0.0047
loop_
_geom_bond_atom_site_label_1
_geom_bond_atom_site_label_2
_geom_bond_site_symmetry_1
_geom_bond_site_symmetry_2
C1 H1 1_555 1_555
C2 C1 1_555 1_555
H2 C2 1_555 1_555
C3 C2 1_555 1_555
H3 C3 1_555 1_555
C4 H4 1_555 1_555
C5 H5 1_555 1_555
C6 H6 1_555 1_555
C7 C1 1_555 1_555
H7 C7 1_555 1_555
C8 C7 1_555 1_555
H8 C8 1_555 1_555
C9 H9 1_555 1_555
C10 C9 1_555 1_555
H10 C10 1_555 1_555
C11 H11 1_555 1_555
C12 C11 1_555 1_555
H12 C12 1_555 1_555
C13 C3 1_555 1_555
C14 C9 1_555 1_555
C15 C4 1_555 1_555
H13 C15 1_555 1_555
C16 C5 1_555 1_555
C17 C4 1_555 1_555
H14 C17 1_555 1_555
C18 C10 1_555 1_555
H15 C18 1_555 1_555
C19 H16 1_555 1_555
C20 C11 1_555 1_555
C21 H17 1_555 1_555
C22 C21 1_555 1_555
H18 C22 1_555 1_555
C23 C13 1_555 1_555
C24 C23 1_555 1_555
C25 C18 1_555 1_555
C26 C14 1_555 1_555
C27 C14 1_555 1_555
H19 C27 1_555 1_555
C28 C27 1_555 1_555
H20 C28 1_555 1_555
C29 C19 1_555 1_555
H21 C29 1_555 1_555
C30 C24 1_555 1_555
C31 C20 1_555 1_555
C32 C12 1_555 1_555
H22 C32 1_555 1_555
C33 C20 1_555 1_555
H23 C33 1_555 1_555
C34 C21 1_555 1_555
H24 C34 1_555 1_555
C5 C15 1_555 1_555
C6 C16 1_555 1_555
C6 C17 1_555 1_555
C8 C13 1_555 1_555
C16 C23 1_555 1_555
C19 C26 1_555 1_555
C22 C31 1_555 1_555
C24 C25 1_555 1_555
C25 C26 1_555 1_555
C28 C29 1_555 1_555
C30 C31 1_555 1_555
C30 C32 1_555 1_555
C33 C34 1_555 1_555

#END
