
#######################################################################
#
#                 Cambridge Crystallographic Data Centre
#                                CCDC 
#
#######################################################################
#
# If this CIF has been generated from an entry in the Cambridge 
# Structural Database, then it will include bibliographic, chemical, 
# crystal, experimental, refinement or atomic coordinate data resulting 
# from the CCDC's data processing and validation procedures.
#
#######################################################################

data_QOLVAQ01
_chemical_formula_moiety         'C42 H28'
_chemical_name_systematic        
9,9'-(2,2-Diphenylethene-1,1-diyl)dianthracene
_symmetry_cell_setting           triclinic
_symmetry_space_group_name_H-M   'P -1'
_symmetry_Int_Tables_number      2
_space_group_name_Hall           '-P 1'
loop_
_symmetry_equiv_pos_site_id
_symmetry_equiv_pos_as_xyz
1 x,y,z
2 -x,-y,-z
_cell_length_a                   9.6966(8)
_cell_length_b                   11.6563(9)
_cell_length_c                   13.4072(10)
_cell_angle_alpha                87.6690(10)
_cell_angle_beta                 70.5610(10)
_cell_angle_gamma                79.6840(10)
_cell_volume                     1405.6
_exptl_crystal_colour            yellow
_exptl_crystal_description       block
_cell_formula_units_Z            2
loop_
_atom_site_label
_atom_site_type_symbol
_atom_site_fract_x
_atom_site_fract_y
_atom_site_fract_z
C1 C 0.74479(9) 0.77638(7) 0.31605(7)
C2 C 0.68737(10) 0.78484(8) 0.42820(7)
C3 C 0.77315(10) 0.73997(8) 0.49448(7)
H1 H 0.8724 0.7063 0.4634
C4 C 0.71245(11) 0.74560(9) 0.60232(7)
H2 H 0.7701 0.7137 0.6432
C5 C 0.56249(11) 0.79948(9) 0.65275(7)
H3 H 0.5224 0.8025 0.7262
C6 C 0.47766(11) 0.84669(9) 0.59329(8)
H4 H 0.3803 0.8835 0.6266
C7 C 0.53622(10) 0.84045(8) 0.48012(7)
C8 C 0.44722(10) 0.88703(8) 0.42019(8)
H5 H 0.3514 0.9265 0.4542
C9 C 0.49910(10) 0.87556(8) 0.31015(8)
C10 C 0.40488(11) 0.91882(10) 0.24943(9)
H6 H 0.3097 0.9596 0.2833
C11 C 0.45285(12) 0.90105(10) 0.14261(9)
H7 H 0.3911 0.9302 0.1038
C12 C 0.59713(11) 0.83802(10) 0.09086(8)
H8 H 0.6278 0.8234 0.0184
C13 C 0.69215(10) 0.79823(9) 0.14554(7)
H9 H 0.7867 0.7579 0.1094
C14 C 0.64882(10) 0.81748(8) 0.25732(7)
C15 C 0.99549(9) 0.80764(8) 0.18518(7)
C16 C 1.00613(9) 0.91645(8) 0.22319(7)
C17 C 0.95244(10) 0.94827(9) 0.33327(7)
H10 H 0.9100 0.8955 0.3828
C18 C 0.96237(11) 1.05495(9) 0.36701(8)
H11 H 0.9270 1.0731 0.4390
C19 C 1.02563(12) 1.13809(9) 0.29394(9)
H12 H 1.0277 1.2115 0.3176
C20 C 1.08326(11) 1.10980(8) 0.18897(8)
H13 H 1.1265 1.1639 0.1413
C21 C 1.07857(10) 0.99840(8) 0.15064(7)
C22 C 1.14532(10) 0.96797(8) 0.04373(7)
H14 H 1.1911 1.0216 -0.0032
C23 C 1.14464(10) 0.85882(8) 0.00600(7)
C24 C 1.21885(11) 0.82838(9) -0.10347(7)
H15 H 1.2705 0.8809 -0.1481
C25 C 1.21528(11) 0.72403(9) -0.14338(7)
H16 H 1.2651 0.7049 -0.2145
C26 C 1.13468(11) 0.64439(9) -0.07536(7)
H17 H 1.1307 0.5735 -0.1029
C27 C 1.06287(10) 0.67016(8) 0.02980(7)
H18 H 1.0104 0.6166 0.0723
C28 C 1.06649(9) 0.77769(8) 0.07618(7)
C29 C 0.90597(9) 0.72675(8) 0.25891(6)
C30 C 0.96688(9) 0.61516(8) 0.27267(6)
C31 C 0.87450(10) 0.53026(8) 0.33356(7)
C32 C 0.73754(10) 0.52173(8) 0.32318(7)
H19 H 0.7056 0.5660 0.2732
C33 C 0.64880(11) 0.44739(9) 0.38725(8)
H20 H 0.5581 0.4423 0.3798
C34 C 0.69558(13) 0.38084(9) 0.46217(8)
H21 H 0.6349 0.3332 0.5064
C35 C 0.83332(13) 0.38572(9) 0.47076(8)
H22 H 0.8656 0.3400 0.5199
C36 C 0.92303(11) 0.45873(8) 0.40618(7)
H23 H 1.0161 0.4601 0.4112
C37 C 1.13053(10) 0.57147(8) 0.23113(7)
C38 C 1.18611(11) 0.46209(9) 0.18024(8)
H24 H 1.1206 0.4161 0.1733
C39 C 1.33868(13) 0.42140(10) 0.13991(9)
H25 H 1.3743 0.3492 0.1052
C40 C 1.43754(12) 0.48823(11) 0.15138(10)
H26 H 1.5393 0.4611 0.1241
C41 C 1.38414(11) 0.59555(10) 0.20371(9)
H27 H 1.4501 0.6399 0.2127
C42 C 1.23165(10) 0.63711(9) 0.24289(8)
H28 H 1.1968 0.7095 0.2773
loop_
_geom_bond_atom_site_label_1
_geom_bond_atom_site_label_2
_geom_bond_site_symmetry_1
_geom_bond_site_symmetry_2
C1 C2 1_555 1_555
C2 C3 1_555 1_555
C3 H1 1_555 1_555
C4 C3 1_555 1_555
H2 C4 1_555 1_555
C5 C4 1_555 1_555
H3 C5 1_555 1_555
C6 C5 1_555 1_555
H4 C6 1_555 1_555
C7 C2 1_555 1_555
C8 C7 1_555 1_555
H5 C8 1_555 1_555
C9 C8 1_555 1_555
C10 C9 1_555 1_555
H6 C10 1_555 1_555
C11 C10 1_555 1_555
H7 C11 1_555 1_555
C12 C11 1_555 1_555
H8 C12 1_555 1_555
C13 C12 1_555 1_555
H9 C13 1_555 1_555
C14 C1 1_555 1_555
C15 C16 1_555 1_555
C16 C17 1_555 1_555
C17 H10 1_555 1_555
C18 C17 1_555 1_555
H11 C18 1_555 1_555
C19 C18 1_555 1_555
H12 C19 1_555 1_555
C20 C19 1_555 1_555
H13 C20 1_555 1_555
C21 C16 1_555 1_555
C22 C21 1_555 1_555
H14 C22 1_555 1_555
C23 C22 1_555 1_555
C24 C23 1_555 1_555
H15 C24 1_555 1_555
C25 C24 1_555 1_555
H16 C25 1_555 1_555
C26 C25 1_555 1_555
H17 C26 1_555 1_555
C27 C26 1_555 1_555
H18 C27 1_555 1_555
C28 C15 1_555 1_555
C29 C1 1_555 1_555
C30 C29 1_555 1_555
C31 C30 1_555 1_555
C32 C31 1_555 1_555
H19 C32 1_555 1_555
C33 C32 1_555 1_555
H20 C33 1_555 1_555
C34 C33 1_555 1_555
H21 C34 1_555 1_555
C35 C34 1_555 1_555
H22 C35 1_555 1_555
C36 C31 1_555 1_555
H23 C36 1_555 1_555
C37 C30 1_555 1_555
C38 C37 1_555 1_555
H24 C38 1_555 1_555
C39 C38 1_555 1_555
H25 C39 1_555 1_555
C40 C39 1_555 1_555
H26 C40 1_555 1_555
C41 C40 1_555 1_555
H27 C41 1_555 1_555
C42 C37 1_555 1_555
H28 C42 1_555 1_555
C6 C7 1_555 1_555
C9 C14 1_555 1_555
C13 C14 1_555 1_555
C15 C29 1_555 1_555
C20 C21 1_555 1_555
C23 C28 1_555 1_555
C27 C28 1_555 1_555
C35 C36 1_555 1_555
C41 C42 1_555 1_555

#END
