
#######################################################################
#
#                 Cambridge Crystallographic Data Centre
#                                CCDC 
#
#######################################################################
#
# If this CIF has been generated from an entry in the Cambridge 
# Structural Database, then it will include bibliographic, chemical, 
# crystal, experimental, refinement or atomic coordinate data resulting 
# from the CCDC's data processing and validation procedures.
#
#######################################################################

data_QOMGAB
_chemical_formula_moiety         'C30 H35 N1 O8 S2'
_chemical_name_systematic        
'Ethyl (5-(2-methoxyphenyl)-1-(toluene-4-sulfonyl)-4-(toluene-4-sulfonyloxymethyl)pyrrolidin-3-yl)acetate'
_symmetry_cell_setting           triclinic
_symmetry_space_group_name_H-M   'P 1'
_symmetry_Int_Tables_number      1
_space_group_name_Hall           'P 1'
loop_
_symmetry_equiv_pos_site_id
_symmetry_equiv_pos_as_xyz
1 x,y,z
_cell_length_a                   8.4976(6)
_cell_length_b                   12.1259(9)
_cell_length_c                   15.2413(12)
_cell_angle_alpha                75.768(3)
_cell_angle_beta                 81.860(4)
_cell_angle_gamma                89.743(4)
_cell_volume                     1506.19
_exptl_crystal_colour            colorless
_exptl_crystal_description       prism
_cell_formula_units_Z            2
loop_
_atom_site_label
_atom_site_type_symbol
_atom_site_fract_x
_atom_site_fract_y
_atom_site_fract_z
S1 S 0.71823(8) 0.96652(5) 0.32201(4)
S2 S 0.25465(7) 0.56553(5) 0.40587(4)
N1 N 0.7509(3) 0.84930(18) 0.39590(15)
O1 O 0.6472(3) 1.04198(17) 0.37430(16)
O2 O 0.8638(3) 0.9995(2) 0.26121(17)
O3 O 0.3269(3) 0.7877(2) 0.57317(18)
O4 O 0.3783(2) 0.64552(15) 0.42910(13)
O5 O 0.1673(3) 0.64050(19) 0.34446(17)
O6 O 0.1732(3) 0.4939(2) 0.48910(16)
O7 O 0.8879(3) 0.6167(2) 0.21731(15)
O8 O 0.9641(3) 0.44519(19) 0.29028(15)
C1 C 0.6107(3) 0.7956(2) 0.46291(16)
H1 H 0.5127 0.8176 0.4355
C2 C 0.6341(3) 0.6658(2) 0.47233(17)
H2 H 0.7018 0.6376 0.5204
C3 C 0.7280(3) 0.6612(2) 0.37982(17)
H3 H 0.6560 0.6773 0.3328
C4 C 0.8458(3) 0.7613(2) 0.3625(2)
H4 H 0.9355 0.7402 0.3965
H5 H 0.8865 0.7882 0.2972
C5 C 0.5730(4) 0.9342(2) 0.25909(18)
C6 C 0.6165(4) 0.8829(3) 0.1867(2)
H6 H 0.7239 0.8704 0.1679
C7 C 0.4974(5) 0.8510(3) 0.1435(2)
H7 H 0.5255 0.8171 0.0946
C8 C 0.3377(5) 0.8678(3) 0.1705(2)
C9 C 0.2981(4) 0.9189(3) 0.2422(2)
H8 H 0.1907 0.9308 0.2615
C10 C 0.4156(4) 0.9530(3) 0.2862(2)
H9 H 0.3874 0.9886 0.3342
C11 C 0.2086(6) 0.8305(5) 0.1235(3)
H10 H 0.2413 0.8513 0.0578
H11 H 0.1108 0.8678 0.1383
H12 H 0.1914 0.7487 0.1444
C12 C 0.5996(3) 0.8312(2) 0.55189(17)
C13 C 0.7318(4) 0.8716(2) 0.5801(2)
H13 H 0.8318 0.8760 0.5438
C14 C 0.7176(4) 0.9057(3) 0.6616(2)
H14 H 0.8079 0.9324 0.6803
C15 C 0.5702(5) 0.9004(3) 0.7152(2)
H15 H 0.5605 0.9237 0.7701
C16 C 0.4360(4) 0.8604(3) 0.6876(2)
H16 H 0.3361 0.8566 0.7239
C17 C 0.4509(4) 0.8264(2) 0.60607(19)
C18 C 0.1737(5) 0.7799(4) 0.6262(3)
H17 H 0.1732 0.7228 0.6834
H18 H 0.0950 0.7585 0.5925
H19 H 0.1482 0.8530 0.6389
C19 C 0.4792(3) 0.5970(2) 0.49797(16)
H20 H 0.4986 0.5170 0.4989
H21 H 0.4278 0.6011 0.5588
C20 C 0.3731(3) 0.4822(2) 0.34611(18)
C21 C 0.4483(4) 0.5348(2) 0.2588(2)
H22 H 0.4344 0.6124 0.2332
C22 C 0.5448(4) 0.4704(3) 0.2095(2)
H23 H 0.5958 0.5047 0.1503
C23 C 0.5654(4) 0.3562(3) 0.2479(2)
C24 C 0.4892(4) 0.3059(2) 0.3352(2)
H24 H 0.5032 0.2284 0.3610
C25 C 0.3933(4) 0.3679(2) 0.3847(2)
H25 H 0.3422 0.3332 0.4439
C26 C 0.6669(6) 0.2869(4) 0.1940(3)
H26 H 0.7637 0.2677 0.2205
H27 H 0.6935 0.3307 0.1311
H28 H 0.6088 0.2176 0.1955
C27 C 0.7987(4) 0.5489(2) 0.3823(2)
H29 H 0.7145 0.4893 0.4022
H30 H 0.8736 0.5341 0.4269
C28 C 0.8882(3) 0.5436(2) 0.2858(2)
C29 C 1.0515(5) 0.4366(4) 0.2042(2)
H31 H 1.1387 0.4938 0.1845
H32 H 0.9814 0.4492 0.1571
C30 C 1.1172(6) 0.3172(4) 0.2183(3)
H33 H 1.2006 0.3103 0.2565
H34 H 1.1604 0.3040 0.1595
H35 H 1.0324 0.2615 0.2478
S3 S 1.09668(8) 0.01295(5) 0.83510(4)
S4 S 0.66770(7) 0.41994(5) 0.75821(4)
N2 N 1.1622(3) 0.13252(18) 0.76321(15)
O9 O 1.0541(3) -0.06081(17) 0.78067(15)
O10 O 1.2139(3) -0.0212(2) 0.89505(16)
O11 O 0.8212(3) 0.1960(2) 0.58883(17)
O12 O 0.8037(2) 0.33934(15) 0.73508(13)
O13 O 0.5495(3) 0.3458(2) 0.81954(17)
O14 O 0.6282(3) 0.4912(2) 0.67511(17)
O15 O 1.1981(4) 0.3606(2) 0.94809(18)
O16 O 1.3072(3) 0.5330(2) 0.87764(19)
C31 C 1.0537(3) 0.1874(2) 0.69736(16)
H36 H 0.9426 0.1649 0.7255
C32 C 1.0801(3) 0.3161(2) 0.68981(16)
H37 H 1.1722 0.3447 0.6420
C33 C 1.1270(3) 0.3189(2) 0.78223(17)
H38 H 1.0312 0.3012 0.8291
C34 C 1.2380(3) 0.2192(2) 0.7988(2)
H39 H 1.3450 0.2411 0.7655
H40 H 1.2449 0.1908 0.8641
C35 C 0.9193(3) 0.0425(2) 0.89923(17)
C36 C 0.9235(4) 0.0879(3) 0.9736(2)
H41 H 1.0203 0.0965 0.9948
C37 C 0.7830(5) 0.1203(3) 1.0162(2)
H42 H 0.7856 0.1511 1.0670
C38 C 0.6375(4) 0.1091(3) 0.9869(2)
C39 C 0.6365(4) 0.0614(3) 0.9127(2)
H43 H 0.5398 0.0522 0.8917
C40 C 0.7759(4) 0.0272(3) 0.8695(2)
H44 H 0.7733 -0.0062 0.8202
C41 C 0.4839(5) 0.1471(4) 1.0311(3)
H45 H 0.4733 0.1171 1.0969
H46 H 0.3953 0.1191 1.0081
H47 H 0.4842 0.2296 1.0169
C42 C 1.0860(3) 0.1525(2) 0.60783(17)
C43 C 1.2315(4) 0.1129(2) 0.57822(19)
H48 H 1.3146 0.1095 0.6134
C44 C 1.2570(4) 0.0779(3) 0.4967(2)
H49 H 1.3562 0.0505 0.4773
C45 C 1.1353(5) 0.0839(3) 0.4449(2)
H50 H 1.1525 0.0613 0.3896
C46 C 0.9883(5) 0.1227(3) 0.4733(2)
H51 H 0.9055 0.1253 0.4381
C47 C 0.9635(4) 0.1578(2) 0.55438(19)
C48 C 0.6945(5) 0.2058(4) 0.5363(4)
H52 H 0.7284 0.2549 0.4760
H53 H 0.6040 0.2381 0.5664
H54 H 0.6645 0.1310 0.5307
C49 C 0.9382(3) 0.3868(2) 0.66435(17)
H55 H 0.9591 0.4667 0.6626
H56 H 0.9155 0.3821 0.6041
C50 C 0.7545(3) 0.5039(2) 0.81810(18)
C51 C 0.7867(4) 0.4513(2) 0.9056(2)
H57 H 0.7651 0.3730 0.9306
C52 C 0.8522(4) 0.5183(3) 0.9554(2)
H58 H 0.8738 0.4843 1.0147
C53 C 0.8855(4) 0.6333(3) 0.9189(2)
C54 C 0.8565(4) 0.6824(3) 0.8307(2)
H59 H 0.8820 0.7600 0.8049
C55 C 0.7903(4) 0.6186(2) 0.77983(19)
H60 H 0.7702 0.6529 0.7203
C56 C 0.9511(6) 0.7037(4) 0.9747(3)
H61 H 0.9600 0.6562 1.0350
H62 H 0.8803 0.7653 0.9805
H63 H 1.0553 0.7350 0.9447
C57 C 1.1976(4) 0.4310(2) 0.7835(2)
H64 H 1.1239 0.4911 0.7631
H65 H 1.2966 0.4464 0.7402
C58 C 1.2333(4) 0.4344(2) 0.8801(2)
C59 C 1.3495(6) 0.5434(4) 0.9629(3)
H66 H 1.4234 0.4840 0.9849
H67 H 1.2544 0.5347 1.0089
C60 C 1.4263(6) 0.6583(5) 0.9479(4)
H68 H 1.5218 0.6654 0.9034
H69 H 1.4541 0.6678 1.0053
H70 H 1.3530 0.7164 0.9253
loop_
_geom_bond_atom_site_label_1
_geom_bond_atom_site_label_2
_geom_bond_site_symmetry_1
_geom_bond_site_symmetry_2
S1 N1 1_555 1_555
S2 O4 1_555 1_555
N1 C1 1_555 1_555
O1 S1 1_555 1_555
O2 S1 1_555 1_555
O3 C17 1_555 1_555
O4 C19 1_555 1_555
O5 S2 1_555 1_555
O6 S2 1_555 1_555
O7 C28 1_555 1_555
O8 C28 1_555 1_555
C1 H1 1_555 1_555
C2 C1 1_555 1_555
H2 C2 1_555 1_555
C3 C2 1_555 1_555
H3 C3 1_555 1_555
C4 N1 1_555 1_555
H4 C4 1_555 1_555
H5 C4 1_555 1_555
C5 S1 1_555 1_555
C6 C5 1_555 1_555
H6 C6 1_555 1_555
C7 C6 1_555 1_555
H7 C7 1_555 1_555
C8 C7 1_555 1_555
C9 C8 1_555 1_555
H8 C9 1_555 1_555
C10 C5 1_555 1_555
H9 C10 1_555 1_555
C11 C8 1_555 1_555
H10 C11 1_555 1_555
H11 C11 1_555 1_555
H12 C11 1_555 1_555
C12 C1 1_555 1_555
C13 C12 1_555 1_555
H13 C13 1_555 1_555
C14 C13 1_555 1_555
H14 C14 1_555 1_555
C15 C14 1_555 1_555
H15 C15 1_555 1_555
C16 C15 1_555 1_555
H16 C16 1_555 1_555
C17 C12 1_555 1_555
C18 O3 1_555 1_555
H17 C18 1_555 1_555
H18 C18 1_555 1_555
H19 C18 1_555 1_555
C19 C2 1_555 1_555
H20 C19 1_555 1_555
H21 C19 1_555 1_555
C20 S2 1_555 1_555
C21 C20 1_555 1_555
H22 C21 1_555 1_555
C22 C21 1_555 1_555
H23 C22 1_555 1_555
C23 C22 1_555 1_555
C24 C23 1_555 1_555
H24 C24 1_555 1_555
C25 C20 1_555 1_555
H25 C25 1_555 1_555
C26 C23 1_555 1_555
H26 C26 1_555 1_555
H27 C26 1_555 1_555
H28 C26 1_555 1_555
C27 C3 1_555 1_555
H29 C27 1_555 1_555
H30 C27 1_555 1_555
C28 C27 1_555 1_555
C29 O8 1_555 1_555
H31 C29 1_555 1_555
H32 C29 1_555 1_555
C30 C29 1_555 1_555
H33 C30 1_555 1_555
H34 C30 1_555 1_555
H35 C30 1_555 1_555
S3 N2 1_555 1_555
S4 O12 1_555 1_555
N2 C31 1_555 1_555
O9 S3 1_555 1_555
O10 S3 1_555 1_555
O11 C47 1_555 1_555
O12 C49 1_555 1_555
O13 S4 1_555 1_555
O14 S4 1_555 1_555
O15 C58 1_555 1_555
O16 C58 1_555 1_555
C31 H36 1_555 1_555
C32 C31 1_555 1_555
H37 C32 1_555 1_555
C33 C32 1_555 1_555
H38 C33 1_555 1_555
C34 N2 1_555 1_555
H39 C34 1_555 1_555
H40 C34 1_555 1_555
C35 S3 1_555 1_555
C36 C35 1_555 1_555
H41 C36 1_555 1_555
C37 C36 1_555 1_555
H42 C37 1_555 1_555
C38 C37 1_555 1_555
C39 C38 1_555 1_555
H43 C39 1_555 1_555
C40 C35 1_555 1_555
H44 C40 1_555 1_555
C41 C38 1_555 1_555
H45 C41 1_555 1_555
H46 C41 1_555 1_555
H47 C41 1_555 1_555
C42 C31 1_555 1_555
C43 C42 1_555 1_555
H48 C43 1_555 1_555
C44 C43 1_555 1_555
H49 C44 1_555 1_555
C45 C44 1_555 1_555
H50 C45 1_555 1_555
C46 C45 1_555 1_555
H51 C46 1_555 1_555
C47 C42 1_555 1_555
C48 O11 1_555 1_555
H52 C48 1_555 1_555
H53 C48 1_555 1_555
H54 C48 1_555 1_555
C49 C32 1_555 1_555
H55 C49 1_555 1_555
H56 C49 1_555 1_555
C50 S4 1_555 1_555
C51 C50 1_555 1_555
H57 C51 1_555 1_555
C52 C51 1_555 1_555
H58 C52 1_555 1_555
C53 C52 1_555 1_555
C54 C53 1_555 1_555
H59 C54 1_555 1_555
C55 C50 1_555 1_555
H60 C55 1_555 1_555
C56 C53 1_555 1_555
H61 C56 1_555 1_555
H62 C56 1_555 1_555
H63 C56 1_555 1_555
C57 C33 1_555 1_555
H64 C57 1_555 1_555
H65 C57 1_555 1_555
C58 C57 1_555 1_555
C59 O16 1_555 1_555
H66 C59 1_555 1_555
H67 C59 1_555 1_555
C60 C59 1_555 1_555
H68 C60 1_555 1_555
H69 C60 1_555 1_555
H70 C60 1_555 1_555
C3 C4 1_555 1_555
C9 C10 1_555 1_555
C16 C17 1_555 1_555
C24 C25 1_555 1_555
C33 C34 1_555 1_555
C39 C40 1_555 1_555
C46 C47 1_555 1_555
C54 C55 1_555 1_555

#END
