
#######################################################################
#
#                 Cambridge Crystallographic Data Centre
#                                CCDC 
#
#######################################################################
#
# If this CIF has been generated from an entry in the Cambridge 
# Structural Database, then it will include bibliographic, chemical, 
# crystal, experimental, refinement or atomic coordinate data resulting 
# from the CCDC's data processing and validation procedures.
#
#######################################################################

data_QOMRIU
_chemical_formula_moiety         'C38 H52 N2 O2'
_chemical_name_systematic        
2-(((4-(2-((2-Hydroxy-3,5-bis(t-butyl)benzylidene)amino)ethyl)phenyl)imino)methyl)-4,6-bis(t-butyl)phenol
_symmetry_cell_setting           monoclinic
_symmetry_space_group_name_H-M   'P 21/n'
_symmetry_Int_Tables_number      14
_space_group_name_Hall           '-P 2yn'
loop_
_symmetry_equiv_pos_site_id
_symmetry_equiv_pos_as_xyz
1 x,y,z
2 1/2-x,1/2+y,1/2-z
3 -x,-y,-z
4 1/2+x,1/2-y,1/2+z
_cell_length_a                   8.261(3)
_cell_length_b                   20.156(4)
_cell_length_c                   10.332(4)
_cell_angle_alpha                90
_cell_angle_beta                 97.83(3)
_cell_angle_gamma                90
_cell_volume                     1704.33
_cell_formula_units_Z            2
_exptl_crystal_recrystallization_method dichloromethane/acetonitrile
loop_
_atom_site_label
_atom_site_type_symbol
_atom_site_fract_x
_atom_site_fract_y
_atom_site_fract_z
N1 N 1.0994(2) 0.55023(10) -0.8494(2)
O1 O 1.31208(18) 0.54517(7) -1.01202(17)
H1 H 1.262(3) 0.5374(13) -0.943(3)
C1 C 1.2326(2) 0.59578(9) -1.0776(2)
C2 C 1.2901(2) 0.62120(9) -1.1899(2)
C3 C 1.2048(2) 0.67432(10) -1.2510(2)
H2 H 1.2411 0.6918 -1.3252
C4 C 1.0667(2) 0.70364(10) -1.2081(2)
C5 C 1.0131(2) 0.67659(10) -1.0996(2)
H3 H 0.9212 0.6944 -1.0695
C6 C 1.0931(2) 0.62313(10) -1.0336(2)
C7 C 1.0306(3) 0.59718(11) -0.9185(3)
H4 H 0.9361 0.6158 -0.8945
C8 C 1.0561(5) 0.5346(2) -0.7116(5)
C9 C 1.0599(5) 0.46751(19) -0.6786(4)
C10 C 1.0046(5) 0.4468(2) -0.5652(4)
C11 C 1.0589(5) 0.50792(19) -0.5172(4)
C12 C 1.0559(5) 0.4403(2) -0.4856(4)
C13 C 1.0007(5) 0.5808(2) -0.6280(4)
C14 C 1.1286(5) 0.5322(2) -0.6349(4)
C15 C 1.0108(6) 0.5254(2) -0.7576(5)
C16 C 1.4434(2) 0.59225(11) -1.2389(2)
C17 C 1.4775(3) 0.62588(13) -1.3659(3)
H5 H 1.3858 0.6193 -1.4325
H6 H 1.4943 0.6725 -1.3509
H7 H 1.5735 0.6068 -1.3937
C18 C 1.5917(2) 0.60350(12) -1.1340(2)
H8 H 1.6048 0.6501 -1.1168
H9 H 1.5747 0.5809 -1.0552
H10 H 1.6882 0.5865 -1.1645
C19 C 1.4213(3) 0.51784(12) -1.2678(3)
H11 H 1.3286 0.5113 -1.3334
H12 H 1.5175 0.5007 -1.2988
H13 H 1.4040 0.4949 -1.1894
C20 C 0.9845(3) 0.76308(11) -1.2821(2)
C21 C 1.1081(4) 0.82011(12) -1.2790(3)
H14 H 1.2021 0.8054 -1.3164
H15 H 1.0586 0.8569 -1.3284
H16 H 1.1409 0.8336 -1.1902
C22 C 0.9259(3) 0.74406(12) -1.4242(2)
H17 H 1.0167 0.7281 -1.4642
H18 H 0.8446 0.7099 -1.4266
H19 H 0.8797 0.7823 -1.4709
C23 C 0.8358(4) 0.78806(14) -1.2219(3)
H20 H 0.8691 0.8002 -1.1324
H21 H 0.7901 0.8260 -1.2697
H22 H 0.7551 0.7536 -1.2260
N1B N 0.9006(2) 0.44977(10) -0.1506(2)
O1B O 0.68792(18) 0.45483(7) 0.01202(17)
H1B H 0.738(3) 0.4626(13) -0.057(3)
C1B C 0.7674(2) 0.40422(9) 0.0776(2)
C2B C 0.7099(2) 0.37880(9) 0.1899(2)
C3B C 0.7952(2) 0.32568(10) 0.2510(2)
H2B H 0.7589 0.3082 0.3252
C4B C 0.9333(2) 0.29636(10) 0.2081(2)
C5B C 0.9869(2) 0.32341(10) 0.0996(2)
H3B H 1.0788 0.3056 0.0695
C6B C 0.9069(2) 0.37687(10) 0.0336(2)
C7B C 0.9694(3) 0.40282(11) -0.0815(3)
H4B H 1.0639 0.3842 -0.1055
C8B C 0.9439(5) 0.4654(2) -0.2884(5)
C9B C 0.9401(5) 0.53249(19) -0.3214(4)
C10B C 0.9954(5) 0.5532(2) -0.4348(4)
C11B C 0.9411(5) 0.49208(19) -0.4828(4)
C12B C 0.9441(5) 0.5597(2) -0.5144(4)
C13B C 0.9993(5) 0.4192(2) -0.3720(4)
C14B C 0.8714(5) 0.4678(2) -0.3651(4)
C15B C 0.9892(6) 0.4746(2) -0.2424(5)
C16B C 0.5566(2) 0.40775(11) 0.2389(2)
C17B C 0.5225(3) 0.37412(13) 0.3659(3)
H5B H 0.6142 0.3807 0.4325
H6B H 0.5057 0.3275 0.3509
H7B H 0.4265 0.3932 0.3937
C18B C 0.4083(2) 0.39650(12) 0.1340(2)
H8B H 0.3952 0.3499 0.1168
H9B H 0.4253 0.4191 0.0552
H10B H 0.3118 0.4135 0.1645
C19B C 0.5787(3) 0.48216(12) 0.2678(3)
H11B H 0.6714 0.4887 0.3334
H12B H 0.4825 0.4993 0.2988
H13B H 0.5960 0.5051 0.1894
C20B C 1.0155(3) 0.23692(11) 0.2821(2)
C21B C 0.8919(4) 0.17989(12) 0.2790(3)
H14B H 0.7979 0.1946 0.3164
H15B H 0.9414 0.1431 0.3284
H16B H 0.8591 0.1664 0.1902
C22B C 1.0741(3) 0.25594(12) 0.4242(2)
H17B H 0.9833 0.2719 0.4642
H18B H 1.1554 0.2901 0.4266
H19B H 1.1203 0.2177 0.4709
C23B C 1.1642(4) 0.21194(14) 0.2219(3)
H20B H 1.1309 0.1998 0.1324
H21B H 1.2099 0.1740 0.2697
H22B H 1.2449 0.2464 0.2260
loop_
_geom_bond_atom_site_label_1
_geom_bond_atom_site_label_2
_geom_bond_site_symmetry_1
_geom_bond_site_symmetry_2
N1 C7 1_555 1_555
O1 H1 1_555 1_555
C1 O1 1_555 1_555
C2 C1 1_555 1_555
C3 C2 1_555 1_555
H2 C3 1_555 1_555
C4 C3 1_555 1_555
C5 C4 1_555 1_555
H3 C5 1_555 1_555
C6 C1 1_555 1_555
C7 C6 1_555 1_555
H4 C7 1_555 1_555
C8 N1 1_555 1_555
C9 C8 1_555 1_555
C10 C9 1_555 1_555
C11 C12 1_555 1_555
C12 C13B 1_555 1_555
C13 C8 1_555 1_555
C14 C8 1_555 1_555
C15 N1 1_555 1_555
C16 C2 1_555 1_555
C17 C16 1_555 1_555
H5 C17 1_555 1_555
H6 C17 1_555 1_555
H7 C17 1_555 1_555
C18 C16 1_555 1_555
H8 C18 1_555 1_555
H9 C18 1_555 1_555
H10 C18 1_555 1_555
C19 C16 1_555 1_555
H11 C19 1_555 1_555
H12 C19 1_555 1_555
H13 C19 1_555 1_555
C20 C4 1_555 1_555
C21 C20 1_555 1_555
H14 C21 1_555 1_555
H15 C21 1_555 1_555
H16 C21 1_555 1_555
C22 C20 1_555 1_555
H17 C22 1_555 1_555
H18 C22 1_555 1_555
H19 C22 1_555 1_555
C23 C20 1_555 1_555
H20 C23 1_555 1_555
H21 C23 1_555 1_555
H22 C23 1_555 1_555
N1B C7B 1_555 1_555
O1B H1B 1_555 1_555
C1B O1B 1_555 1_555
C2B C1B 1_555 1_555
C3B C2B 1_555 1_555
H2B C3B 1_555 1_555
C4B C3B 1_555 1_555
C5B C4B 1_555 1_555
H3B C5B 1_555 1_555
C6B C1B 1_555 1_555
C7B C6B 1_555 1_555
H4B C7B 1_555 1_555
C8B N1B 1_555 1_555
C9B C8B 1_555 1_555
C10B C11 1_555 1_555
C11B C10 1_555 1_555
C12B C13 1_555 1_555
C13B C8B 1_555 1_555
C14B C8B 1_555 1_555
C15B N1B 1_555 1_555
C16B C2B 1_555 1_555
C17B C16B 1_555 1_555
H5B C17B 1_555 1_555
H6B C17B 1_555 1_555
H7B C17B 1_555 1_555
C18B C16B 1_555 1_555
H8B C18B 1_555 1_555
H9B C18B 1_555 1_555
H10B C18B 1_555 1_555
C19B C16B 1_555 1_555
H11B C19B 1_555 1_555
H12B C19B 1_555 1_555
H13B C19B 1_555 1_555
C20B C4B 1_555 1_555
C21B C20B 1_555 1_555
H14B C21B 1_555 1_555
H15B C21B 1_555 1_555
H16B C21B 1_555 1_555
C22B C20B 1_555 1_555
H17B C22B 1_555 1_555
H18B C22B 1_555 1_555
H19B C22B 1_555 1_555
C23B C20B 1_555 1_555
H20B C23B 1_555 1_555
H21B C23B 1_555 1_555
H22B C23B 1_555 1_555
C5 C6 1_555 1_555
C8 C15 1_555 1_555
C11 C14 1_555 1_555
C5B C6B 1_555 1_555
C8B C15B 1_555 1_555
C9B C10B 1_555 1_555
C11B C12B 1_555 1_555
C11B C14B 1_555 1_555

#END
