
#######################################################################
#
#                 Cambridge Crystallographic Data Centre
#                                CCDC 
#
#######################################################################
#
# If this CIF has been generated from an entry in the Cambridge 
# Structural Database, then it will include bibliographic, chemical, 
# crystal, experimental, refinement or atomic coordinate data resulting 
# from the CCDC's data processing and validation procedures.
#
#######################################################################

data_QOMSOA
_chemical_formula_moiety         'C13 H13 Cl1 N2 O3'
_chemical_name_systematic        
N-(Methoxycarbonyl)-3-endo-(6-chloro-3-pyridoxymethyl)-2-azabicyclo(2.2.0)hex-5-ene
_symmetry_cell_setting           triclinic
_symmetry_space_group_name_H-M   'P -1'
_symmetry_Int_Tables_number      2
_space_group_name_Hall           '-P 1'
loop_
_symmetry_equiv_pos_site_id
_symmetry_equiv_pos_as_xyz
1 x,y,z
2 -x,-y,-z
_cell_length_a                   10.3280(2)
_cell_length_b                   11.8009(1)
_cell_length_c                   5.6349(1)
_cell_angle_alpha                98.424(1)
_cell_angle_beta                 101.396(1)
_cell_angle_gamma                74.274(2)
_cell_volume                     644.889
_exptl_crystal_colour            colorless
_cell_formula_units_Z            2
loop_
_atom_site_label
_atom_site_type_symbol
_atom_site_fract_x
_atom_site_fract_y
_atom_site_fract_z
C1 C 0.7907(2) 0.7901(2) 0.4982(3)
C2 C 0.9134(2) 0.6846(2) 0.4451(3)
C3 C 0.9101(2) 0.6336(2) 0.1835(4)
C4 C 0.8344(2) 0.5608(2) 0.1964(4)
C5 C 0.8244(2) 0.5995(2) 0.4602(3)
C6 C 0.7301(2) 0.8776(2) 0.3121(3)
C7 C 0.8028(2) 1.0261(2) 0.1642(3)
C8 C 0.6985(2) 1.0401(2) -0.0333(3)
C9 C 0.6864(2) 1.1276(2) -0.1803(3)
C10 C 0.7777(2) 1.1972(2) -0.1202(3)
C11 C 0.8912(2) 1.0998(2) 0.2048(4)
C12 C 0.6120(2) 0.7202(2) 0.6328(3)
C13 C 0.4907(2) 0.6214(2) 0.8096(4)
N1 N 0.70947(15) 0.70490(13) 0.4962(3)
N2 N 0.8787(2) 1.18562(15) 0.0653(3)
O1 O 0.82877(13) 0.94410(12) 0.3261(2)
O2 O 0.58916(13) 0.61566(11) 0.6562(2)
O3 O 0.55065(12) 0.81590(11) 0.7185(2)
Cl1 Cl 0.75687(5) 1.31477(5) -0.29154(9)
H1 H 0.8079(19) 0.8317(17) 0.6592(35)
H2 H 0.9985(22) 0.6861(18) 0.5501(36)
H3 H 0.9484(23) 0.6508(20) 0.0521(42)
H4 H 0.7931(24) 0.5042(22) 0.0852(41)
H5 H 0.8425(20) 0.5411(19) 0.5783(36)
H6 H 0.7147(20) 0.8332(18) 0.1481(37)
H7 H 0.6427(20) 0.9326(17) 0.3466(32)
H8 H 0.6341(21) 0.9924(18) -0.0646(35)
H9 H 0.6167(22) 1.1444(19) -0.3181(38)
H10 H 0.9629(23) 1.0913(20) 0.3443(40)
H11 H 0.4069(28) 0.6848(24) 0.7669(44)
H12 H 0.5282(25) 0.6396(22) 0.9788(47)
H13 H 0.4675(29) 0.5462(27) 0.7815(49)
loop_
_geom_bond_atom_site_label_1
_geom_bond_atom_site_label_2
_geom_bond_site_symmetry_1
_geom_bond_site_symmetry_2
C1 C2 1_555 1_555
C2 C3 1_555 1_555
C3 C4 1_555 1_555
C4 C5 1_555 1_555
C5 C2 1_555 1_555
C6 C1 1_555 1_555
C7 C8 1_555 1_555
C8 C9 1_555 1_555
C9 C10 1_555 1_555
C10 N2 1_555 1_555
C11 C7 1_555 1_555
C12 N1 1_555 1_555
C13 O2 1_555 1_555
N1 C1 1_555 1_555
N2 C11 1_555 1_555
O1 C6 1_555 1_555
O2 C12 1_555 1_555
O3 C12 1_555 1_555
Cl1 C10 1_555 1_555
H1 C1 1_555 1_555
H2 C2 1_555 1_555
H3 C3 1_555 1_555
H4 C4 1_555 1_555
H5 C5 1_555 1_555
H6 C6 1_555 1_555
H7 C6 1_555 1_555
H8 C8 1_555 1_555
H9 C9 1_555 1_555
H10 C11 1_555 1_555
H11 C13 1_555 1_555
H12 C13 1_555 1_555
H13 C13 1_555 1_555
C5 N1 1_555 1_555
C7 O1 1_555 1_555

#END
