
#######################################################################
#
#                 Cambridge Crystallographic Data Centre
#                                CCDC 
#
#######################################################################
#
# If this CIF has been generated from an entry in the Cambridge 
# Structural Database, then it will include bibliographic, chemical, 
# crystal, experimental, refinement or atomic coordinate data resulting 
# from the CCDC's data processing and validation procedures.
#
#######################################################################

data_QONBIG
_chemical_formula_moiety         'C16 H12 N2 O3'
_chemical_name_systematic        
2'-methoxy-4H-spiro[cyclohexa-2,5-diene-1,1'-imidazo[1,5-a]indole]-3',4(2'H)-dione
_symmetry_cell_setting           monoclinic
_symmetry_space_group_name_H-M   'P 21/n'
_symmetry_Int_Tables_number      14
_space_group_name_Hall           '-P 2yn'
loop_
_symmetry_equiv_pos_site_id
_symmetry_equiv_pos_as_xyz
1 x,y,z
2 1/2-x,1/2+y,1/2-z
3 -x,-y,-z
4 1/2+x,1/2-y,1/2+z
_cell_length_a                   9.8869(9)
_cell_length_b                   8.4979(7)
_cell_length_c                   17.1534(17)
_cell_angle_alpha                90
_cell_angle_beta                 103.026(11)
_cell_angle_gamma                90
_cell_volume                     1404.11
_exptl_crystal_colour            yellow
_exptl_crystal_description       block
_cell_formula_units_Z            4
loop_
_atom_site_label
_atom_site_type_symbol
_atom_site_fract_x
_atom_site_fract_y
_atom_site_fract_z
O1 O 0.07437(13) -0.15017(14) -0.02875(8)
O2 O 0.08736(15) 0.10702(16) -0.12813(8)
O3 O 0.32692(18) 0.63472(18) -0.11197(12)
N1 N 0.25067(13) -0.01886(15) 0.06043(8)
N2 N 0.19310(14) 0.06564(16) -0.06290(8)
C1 C 0.29859(17) -0.0983(2) 0.13234(10)
C2 C 0.2531(2) -0.2346(2) 0.16156(13)
H1 H 0.1785 -0.2919 0.1323
C3 C 0.3243(3) -0.2813(3) 0.23667(15)
H2 H 0.2976 -0.3734 0.2584
C4 C 0.4342(3) -0.1951(3) 0.28062(14)
H3 H 0.4790 -0.2301 0.3312
C5 C 0.4784(2) -0.0599(3) 0.25133(13)
H4 H 0.5523 -0.0029 0.2815
C6 C 0.41052(17) -0.0090(2) 0.17529(10)
C7 C 0.42981(18) 0.1243(2) 0.12708(11)
H5 H 0.4971 0.2022 0.1404
C8 C 0.33138(17) 0.11377(18) 0.05914(10)
C9 C 0.27870(17) 0.19646(18) -0.01990(10)
C10 C 0.15925(17) -0.04712(19) -0.01248(10)
C11 C 0.19008(18) 0.3349(2) -0.01067(11)
H6 H 0.1179 0.3205 0.0153
C12 C 0.20964(19) 0.4762(2) -0.03758(12)
H7 H 0.1533 0.5587 -0.0284
C13 C 0.3173(2) 0.5069(2) -0.08138(12)
C14 C 0.4097(2) 0.3773(2) -0.08864(12)
H8 H 0.4829 0.3948 -0.1134
C15 C 0.39256(19) 0.2362(2) -0.06124(11)
H9 H 0.4541 0.1571 -0.0678
C16 C 0.1252(3) 0.0665(3) -0.20112(13)
H10 H 0.0467 0.0808 -0.2451
H11 H 0.1543 -0.0415 -0.1990
H12 H 0.1999 0.1329 -0.2084
loop_
_geom_bond_atom_site_label_1
_geom_bond_atom_site_label_2
_geom_bond_site_symmetry_1
_geom_bond_site_symmetry_2
O1 C10 1_555 1_555
O2 N2 1_555 1_555
O3 C13 1_555 1_555
N1 C1 1_555 1_555
N2 C9 1_555 1_555
C1 C2 1_555 1_555
C2 H1 1_555 1_555
C3 C2 1_555 1_555
H2 C3 1_555 1_555
C4 C3 1_555 1_555
H3 C4 1_555 1_555
C5 C4 1_555 1_555
H4 C5 1_555 1_555
C6 C1 1_555 1_555
C7 C6 1_555 1_555
H5 C7 1_555 1_555
C8 N1 1_555 1_555
C9 C8 1_555 1_555
C10 N1 1_555 1_555
C11 C9 1_555 1_555
H6 C11 1_555 1_555
C12 C11 1_555 1_555
H7 C12 1_555 1_555
C13 C12 1_555 1_555
C14 C13 1_555 1_555
H8 C14 1_555 1_555
C15 C9 1_555 1_555
H9 C15 1_555 1_555
C16 O2 1_555 1_555
H10 C16 1_555 1_555
H11 C16 1_555 1_555
H12 C16 1_555 1_555
N2 C10 1_555 1_555
C5 C6 1_555 1_555
C7 C8 1_555 1_555
C14 C15 1_555 1_555

#END
